# Generated by pormake.
# Topology eea, (3,6)-cn, num edge types: 1
# Building blocks:
#     Node 0, Type 0, BuildingBlock: WUSLED_clean_sbu_0, # of connection points: 3
#     Node 1, Type 0, BuildingBlock: WUSLED_clean_sbu_0, # of connection points: 3
#     Node 2, Type 0, BuildingBlock: WUSLED_clean_sbu_0, # of connection points: 3
#     Node 3, Type 0, BuildingBlock: WUSLED_clean_sbu_0, # of connection points: 3
#     Node 4, Type 0, BuildingBlock: WUSLED_clean_sbu_0, # of connection points: 3
#     Node 5, Type 0, BuildingBlock: WUSLED_clean_sbu_0, # of connection points: 3
#     Node 6, Type 0, BuildingBlock: WUSLED_clean_sbu_0, # of connection points: 3
#     Node 7, Type 0, BuildingBlock: WUSLED_clean_sbu_0, # of connection points: 3
#     Node 8, Type 0, BuildingBlock: WUSLED_clean_sbu_0, # of connection points: 3
#     Node 9, Type 0, BuildingBlock: WUSLED_clean_sbu_0, # of connection points: 3
#     Node 10, Type 0, BuildingBlock: WUSLED_clean_sbu_0, # of connection points: 3
#     Node 11, Type 0, BuildingBlock: WUSLED_clean_sbu_0, # of connection points: 3
#     Node 12, Type 0, BuildingBlock: WUSLED_clean_sbu_0, # of connection points: 3
#     Node 13, Type 0, BuildingBlock: WUSLED_clean_sbu_0, # of connection points: 3
#     Node 14, Type 0, BuildingBlock: WUSLED_clean_sbu_0, # of connection points: 3
#     Node 15, Type 0, BuildingBlock: WUSLED_clean_sbu_0, # of connection points: 3
#     Node 16, Type 0, BuildingBlock: WUSLED_clean_sbu_0, # of connection points: 3
#     Node 17, Type 0, BuildingBlock: WUSLED_clean_sbu_0, # of connection points: 3
#     Node 18, Type 1, BuildingBlock: KUMJIN_clean_sbu_0, # of connection points: 6
#     Node 19, Type 1, BuildingBlock: KUMJIN_clean_sbu_0, # of connection points: 6
#     Node 20, Type 1, BuildingBlock: KUMJIN_clean_sbu_0, # of connection points: 6
#     Node 21, Type 1, BuildingBlock: KUMJIN_clean_sbu_0, # of connection points: 6
#     Node 22, Type 1, BuildingBlock: KUMJIN_clean_sbu_0, # of connection points: 6
#     Node 23, Type 1, BuildingBlock: KUMJIN_clean_sbu_0, # of connection points: 6
#     Node 24, Type 1, BuildingBlock: KUMJIN_clean_sbu_0, # of connection points: 6
#     Node 25, Type 1, BuildingBlock: KUMJIN_clean_sbu_0, # of connection points: 6
#     Node 26, Type 1, BuildingBlock: KUMJIN_clean_sbu_0, # of connection points: 6
#     Edge 27, Type (0, 1), BuildingBlock: CIFDUS_clean_linker_0, # of connection points: 2
#     Edge 28, Type (0, 1), BuildingBlock: CIFDUS_clean_linker_0, # of connection points: 2
#     Edge 29, Type (0, 1), BuildingBlock: CIFDUS_clean_linker_0, # of connection points: 2
#     Edge 30, Type (0, 1), BuildingBlock: CIFDUS_clean_linker_0, # of connection points: 2
#     Edge 31, Type (0, 1), BuildingBlock: CIFDUS_clean_linker_0, # of connection points: 2
#     Edge 32, Type (0, 1), BuildingBlock: CIFDUS_clean_linker_0, # of connection points: 2
#     Edge 33, Type (0, 1), BuildingBlock: CIFDUS_clean_linker_0, # of connection points: 2
#     Edge 34, Type (0, 1), BuildingBlock: CIFDUS_clean_linker_0, # of connection points: 2
#     Edge 35, Type (0, 1), BuildingBlock: CIFDUS_clean_linker_0, # of connection points: 2
#     Edge 36, Type (0, 1), BuildingBlock: CIFDUS_clean_linker_0, # of connection points: 2
#     Edge 37, Type (0, 1), BuildingBlock: CIFDUS_clean_linker_0, # of connection points: 2
#     Edge 38, Type (0, 1), BuildingBlock: CIFDUS_clean_linker_0, # of connection points: 2
#     Edge 39, Type (0, 1), BuildingBlock: CIFDUS_clean_linker_0, # of connection points: 2
#     Edge 40, Type (0, 1), BuildingBlock: CIFDUS_clean_linker_0, # of connection points: 2
#     Edge 41, Type (0, 1), BuildingBlock: CIFDUS_clean_linker_0, # of connection points: 2
#     Edge 42, Type (0, 1), BuildingBlock: CIFDUS_clean_linker_0, # of connection points: 2
#     Edge 43, Type (0, 1), BuildingBlock: CIFDUS_clean_linker_0, # of connection points: 2
#     Edge 44, Type (0, 1), BuildingBlock: CIFDUS_clean_linker_0, # of connection points: 2
#     Edge 45, Type (0, 1), BuildingBlock: CIFDUS_clean_linker_0, # of connection points: 2
#     Edge 46, Type (0, 1), BuildingBlock: CIFDUS_clean_linker_0, # of connection points: 2
#     Edge 47, Type (0, 1), BuildingBlock: CIFDUS_clean_linker_0, # of connection points: 2
#     Edge 48, Type (0, 1), BuildingBlock: CIFDUS_clean_linker_0, # of connection points: 2
#     Edge 49, Type (0, 1), BuildingBlock: CIFDUS_clean_linker_0, # of connection points: 2
#     Edge 50, Type (0, 1), BuildingBlock: CIFDUS_clean_linker_0, # of connection points: 2
#     Edge 51, Type (0, 1), BuildingBlock: CIFDUS_clean_linker_0, # of connection points: 2
#     Edge 52, Type (0, 1), BuildingBlock: CIFDUS_clean_linker_0, # of connection points: 2
#     Edge 53, Type (0, 1), BuildingBlock: CIFDUS_clean_linker_0, # of connection points: 2
#     Edge 54, Type (0, 1), BuildingBlock: CIFDUS_clean_linker_0, # of connection points: 2
#     Edge 55, Type (0, 1), BuildingBlock: CIFDUS_clean_linker_0, # of connection points: 2
#     Edge 56, Type (0, 1), BuildingBlock: CIFDUS_clean_linker_0, # of connection points: 2
#     Edge 57, Type (0, 1), BuildingBlock: CIFDUS_clean_linker_0, # of connection points: 2
#     Edge 58, Type (0, 1), BuildingBlock: CIFDUS_clean_linker_0, # of connection points: 2
#     Edge 59, Type (0, 1), BuildingBlock: CIFDUS_clean_linker_0, # of connection points: 2
#     Edge 60, Type (0, 1), BuildingBlock: CIFDUS_clean_linker_0, # of connection points: 2
#     Edge 61, Type (0, 1), BuildingBlock: CIFDUS_clean_linker_0, # of connection points: 2
#     Edge 62, Type (0, 1), BuildingBlock: CIFDUS_clean_linker_0, # of connection points: 2
#     Edge 63, Type (0, 1), BuildingBlock: CIFDUS_clean_linker_0, # of connection points: 2
#     Edge 64, Type (0, 1), BuildingBlock: CIFDUS_clean_linker_0, # of connection points: 2
#     Edge 65, Type (0, 1), BuildingBlock: CIFDUS_clean_linker_0, # of connection points: 2
#     Edge 66, Type (0, 1), BuildingBlock: CIFDUS_clean_linker_0, # of connection points: 2
#     Edge 67, Type (0, 1), BuildingBlock: CIFDUS_clean_linker_0, # of connection points: 2
#     Edge 68, Type (0, 1), BuildingBlock: CIFDUS_clean_linker_0, # of connection points: 2
#     Edge 69, Type (0, 1), BuildingBlock: CIFDUS_clean_linker_0, # of connection points: 2
#     Edge 70, Type (0, 1), BuildingBlock: CIFDUS_clean_linker_0, # of connection points: 2
#     Edge 71, Type (0, 1), BuildingBlock: CIFDUS_clean_linker_0, # of connection points: 2
#     Edge 72, Type (0, 1), BuildingBlock: CIFDUS_clean_linker_0, # of connection points: 2
#     Edge 73, Type (0, 1), BuildingBlock: CIFDUS_clean_linker_0, # of connection points: 2
#     Edge 74, Type (0, 1), BuildingBlock: CIFDUS_clean_linker_0, # of connection points: 2
#     Edge 75, Type (0, 1), BuildingBlock: CIFDUS_clean_linker_0, # of connection points: 2
#     Edge 76, Type (0, 1), BuildingBlock: CIFDUS_clean_linker_0, # of connection points: 2
#     Edge 77, Type (0, 1), BuildingBlock: CIFDUS_clean_linker_0, # of connection points: 2
#     Edge 78, Type (0, 1), BuildingBlock: CIFDUS_clean_linker_0, # of connection points: 2
#     Edge 79, Type (0, 1), BuildingBlock: CIFDUS_clean_linker_0, # of connection points: 2
#     Edge 80, Type (0, 1), BuildingBlock: CIFDUS_clean_linker_0, # of connection points: 2
# Relax obj value: 0.009
# Max RMSD: 0.091
# Mean RMSD: 0.064
data_MOF--net-eea--node1-WUSLED_clean_sbu_0--node2-KUMJIN_clean_sbu_0--edge1-CIFDUS_clean_linker_0
_symmetry_space_group_name_H-M    P1
_symmetry_Int_Tables_number       1
_symmetry_cell_setting            triclinic
loop_
_symmetry_equiv_pos_as_xyz
'x, y, z'
_cell_length_a     60.287091
_cell_length_b     61.746781
_cell_length_c     83.115467
_cell_angle_alpha  89.632928
_cell_angle_beta   90.076866
_cell_angle_gamma 120.02016
loop_
_atom_site_label
_atom_site_type_symbol
_atom_site_fract_x
_atom_site_fract_y
_atom_site_fract_z
_atom_type_partial_charge
C0 C 0.24456 0.16925 0.40493 0.0
C1 C 0.23648 0.18269 0.41449 0.0
C2 C 0.23771 0.20758 0.39113 0.0
C3 C 0.23307 0.20165 0.40765 0.0
C4 C 0.24637 0.1944 0.38173 0.0
C5 C 0.2497 0.17545 0.38856 0.0
U6 U 0.25902 0.13257 0.43771 0.0
O7 O 0.23855 0.09197 0.44229 0.0
O8 O 0.27868 0.11096 0.43443 0.0
C9 C 0.25795 0.08946 0.43756 0.0
C10 C 0.24664 0.14796 0.41137 0.0
C11 C 0.25232 0.06838 0.42663 0.0
C12 C 0.22217 0.02808 0.41481 0.0
C13 C 0.22701 0.04949 0.42337 0.0
C14 C 0.26776 0.04428 0.41216 0.0
C15 C 0.2425 0.02496 0.40941 0.0
C16 C 0.27259 0.06563 0.42071 0.0
C17 C 0.28251 0.15677 0.48029 0.0
C18 C 0.31162 0.15028 0.49737 0.0
C19 C 0.27979 0.15793 0.50955 0.0
C20 C 0.2711 0.15975 0.49419 0.0
C21 C 0.30024 0.15322 0.51137 0.0
C22 C 0.30281 0.1519 0.48207 0.0
C23 C 0.27348 0.15935 0.46413 0.0
O24 O 0.26991 0.15223 0.4143 0.0
O25 O 0.22989 0.13391 0.42242 0.0
O26 O 0.24934 0.14351 0.46078 0.0
O27 O 0.28898 0.163 0.452 0.0
H28 H 0.23251 0.17835 0.42718 0.0
H29 H 0.22678 0.21167 0.41532 0.0
H30 H 0.24988 0.19824 0.36897 0.0
H31 H 0.25586 0.16525 0.38095 0.0
H32 H 0.20249 0.01347 0.41304 0.0
H33 H 0.21089 0.05082 0.42789 0.0
H34 H 0.28389 0.04269 0.40797 0.0
H35 H 0.29229 0.07968 0.42312 0.0
H36 H 0.32768 0.1471 0.49817 0.0
H37 H 0.27027 0.15998 0.51998 0.0
H38 H 0.25541 0.1635 0.49318 0.0
H39 H 0.31209 0.14951 0.47163 0.0
C40 C 0.96049 0.16869 0.40928 0.0
C41 C 0.96936 0.19169 0.41706 0.0
C42 C 1.00542 0.21211 0.39826 0.0
C43 C 0.99154 0.21316 0.4116 0.0
C44 C 0.99661 0.18889 0.39069 0.0
C45 C 0.97439 0.16747 0.39613 0.0
U46 U 0.90675 0.13005 0.44003 0.0
O47 O 0.86523 0.10636 0.43619 0.0
O48 O 0.8873 0.08964 0.44567 0.0
C49 C 0.86481 0.0858 0.44091 0.0
C50 C 0.93658 0.14598 0.41439 0.0
C51 C 0.8485 0.06277 0.43167 0.0
C52 C 0.83135 0.04001 0.4066 0.0
C53 C 0.84887 0.06191 0.41477 0.0
C54 C 0.81337 0.01969 0.43211 0.0
C55 C 0.81303 0.01879 0.4152 0.0
C56 C 0.83087 0.04136 0.44021 0.0
C57 C 0.90985 0.1596 0.48181 0.0
C58 C 0.88218 0.13923 0.50497 0.0
C59 C 0.91374 0.18332 0.50597 0.0
C60 C 0.92151 0.18216 0.4903 0.0
C61 C 0.89406 0.16187 0.51361 0.0
C62 C 0.89003 0.1381 0.48922 0.0
C63 C 0.91915 0.15923 0.4654 0.0
O64 O 0.93886 0.13244 0.42584 0.0
O65 O 0.91639 0.14858 0.41629 0.0
O66 O 0.90541 0.16011 0.45341 0.0
O67 O 0.92746 0.14349 0.46295 0.0
H68 H 0.95905 0.19308 0.4273 0.0
H69 H 0.99791 0.23058 0.4179 0.0
H70 H 1.00656 0.18734 0.38031 0.0
H71 H 0.96788 0.14994 0.38991 0.0
H72 H 0.83156 0.03997 0.39357 0.0
H73 H 0.86229 0.07824 0.40793 0.0
H74 H 0.79988 1.00362 0.43913 0.0
H75 H 0.83026 0.04156 0.45324 0.0
H76 H 0.86709 0.12231 0.51047 0.0
H77 H 0.92303 0.20117 0.51204 0.0
H78 H 0.93676 0.19899 0.48479 0.0
H79 H 0.88078 0.12046 0.48288 0.0
C80 C 0.86269 0.8001 0.4055 0.0
C81 C 0.84043 0.78771 0.41493 0.0
C82 C 0.81815 0.80184 0.39684 0.0
C83 C 0.81837 0.78854 0.41064 0.0
C84 C 0.84073 0.81465 0.38764 0.0
C85 C 0.86274 0.81373 0.39192 0.0
U86 U 0.90199 0.78225 0.43345 0.0
O87 O 0.92252 0.76215 0.42786 0.0
O88 O 0.94385 0.80053 0.43696 0.0
C89 C 0.94515 0.78148 0.43103 0.0
C90 C 0.88558 0.79811 0.40921 0.0
C91 C 0.96631 0.7871 0.41951 0.0
C92 C 0.9845 0.7733 0.39842 0.0
C93 C 0.96339 0.76999 0.40743 0.0
C94 C 1.01183 0.81149 0.41278 0.0
C95 C 1.00913 0.79375 0.40126 0.0
C96 C 0.99071 0.80813 0.42185 0.0
C97 C 0.87318 0.75365 0.47562 0.0
C98 C 0.85955 0.71596 0.4918 0.0
C99 C 0.87323 0.75544 0.505 0.0
C100 C 0.87794 0.76737 0.48993 0.0
C101 C 0.86329 0.72946 0.50608 0.0
C102 C 0.86442 0.72786 0.47678 0.0
C103 C 0.87403 0.76549 0.45978 0.0
O104 O 0.90077 0.81297 0.4205 0.0
O105 O 0.88162 0.77521 0.41042 0.0
O106 O 0.87026 0.75184 0.4469 0.0
O107 O 0.8917 0.78907 0.45767 0.0
H108 H 0.84001 0.77714 0.4255 0.0
H109 H 0.80148 0.77878 0.41814 0.0
H110 H 0.84122 0.82486 0.37688 0.0
H111 H 0.87971 0.82335 0.38445 0.0
H112 H 0.98166 0.75941 0.38952 0.0
H113 H 0.94497 0.75347 0.4053 0.0
H114 H 0.03053 0.82731 0.41542 0.0
H115 H 0.99374 0.82148 0.4312 0.0
H116 H 0.8522 0.69597 0.49222 0.0
H117 H 0.87614 0.76633 0.51577 0.0
H118 H 0.88435 0.78718 0.48947 0.0
H119 H 0.86036 0.71658 0.46608 0.0
C120 C 0.07199 0.21599 0.64586 0.0
C121 C 0.04921 0.19491 0.64067 0.0
C122 C 0.02338 0.20741 0.65656 0.0
C123 C 0.02526 0.19071 0.64594 0.0
C124 C 0.04616 0.22858 0.66163 0.0
C125 C 0.07011 0.23273 0.65642 0.0
U126 U 0.12909 0.23413 0.61658 0.0
O127 O 0.17063 0.25609 0.62123 0.0
O128 O 0.15325 0.2169 0.61373 0.0
C129 C 0.17426 0.23724 0.61815 0.0
C130 C 0.09768 0.21975 0.64145 0.0
C131 C 0.19242 0.23425 0.62866 0.0
C132 C 0.20294 0.21506 0.65098 0.0
C133 C 0.18466 0.21766 0.64186 0.0
C134 C 0.23662 0.24547 0.63377 0.0
C135 C 0.22924 0.22905 0.64707 0.0
C136 C 0.2185 0.24805 0.62477 0.0
C137 C 0.12675 0.25659 0.57337 0.0
C138 C 0.15975 0.26748 0.55299 0.0
C139 C 0.12537 0.27618 0.54813 0.0
C140 C 0.11487 0.26596 0.56321 0.0
C141 C 0.14808 0.27728 0.54281 0.0
C142 C 0.14922 0.25729 0.56812 0.0
C143 C 0.11571 0.24688 0.58948 0.0
O144 O 0.09841 0.20409 0.63108 0.0
O145 O 0.11614 0.24296 0.63915 0.0
O146 O 0.12673 0.26236 0.60148 0.0
O147 O 0.11008 0.22387 0.59292 0.0
H148 H 0.04982 0.18145 0.63267 0.0
H149 H 1.00816 0.17438 0.6416 0.0
H150 H 0.04554 0.24169 0.66996 0.0
H151 H 0.08724 0.2489 0.66088 0.0
H152 H 0.19652 0.20231 0.66115 0.0
H153 H 0.16458 0.20672 0.64506 0.0
H154 H 0.25649 0.25612 0.63006 0.0
H155 H 0.22491 0.26074 0.61454 0.0
H156 H 0.17705 0.26767 0.54927 0.0
H157 H 0.11602 0.28384 0.54083 0.0
H158 H 0.09757 0.2657 0.56706 0.0
H159 H 0.15872 0.25016 0.57576 0.0
C160 C 0.81722 0.8648 0.64247 0.0
C161 C 0.8144 0.84537 0.63245 0.0
C162 C 0.82738 0.82756 0.65444 0.0
C163 C 0.81941 0.82689 0.63838 0.0
C164 C 0.82998 0.84707 0.66438 0.0
C165 C 0.82497 0.86544 0.65845 0.0
U166 U 0.79464 0.89679 0.61126 0.0
O167 O 0.77267 0.9159 0.61569 0.0
O168 O 0.81162 0.93696 0.60583 0.0
C169 C 0.79179 0.93796 0.6115 0.0
C170 C 0.81234 0.8847 0.6367 0.0
C171 C 0.79693 0.95934 0.62205 0.0
C172 C 0.82606 1.00075 0.63288 0.0
C173 C 0.82196 0.97926 0.62469 0.0
C174 C 0.78031 0.9826 0.63634 0.0
C175 C 0.80524 1.00291 0.63852 0.0
C176 C 0.77623 0.96118 0.62817 0.0
C177 C 0.76776 0.86872 0.56997 0.0
C178 C 0.75454 0.88956 0.55042 0.0
C179 C 0.74671 0.8478 0.54513 0.0
C180 C 0.75818 0.8479 0.55983 0.0
C181 C 0.74457 0.86857 0.54025 0.0
C182 C 0.76598 0.88962 0.56513 0.0
C183 C 0.77895 0.86812 0.58566 0.0
O184 O 0.82702 0.89894 0.62491 0.0
O185 O 0.78819 0.87841 0.63497 0.0
O186 O 0.76433 0.8646 0.59824 0.0
O187 O 0.80291 0.88559 0.58793 0.0
H188 H 0.80844 0.84456 0.62006 0.0
H189 H 0.81743 0.81232 0.63033 0.0
H190 H 0.83562 0.84801 0.67684 0.0
H191 H 0.82714 0.88022 0.66639 0.0
H192 H 0.84549 0.01609 0.6342 0.0
H193 H 0.83838 0.97863 0.62001 0.0
H194 H 0.76384 0.98341 0.64073 0.0
H195 H 0.75672 0.9463 0.62622 0.0
H196 H 0.75356 0.90602 0.54701 0.0
H197 H 0.73896 0.83117 0.53779 0.0
H198 H 0.75928 0.83155 0.56338 0.0
H199 H 0.77328 0.9059 0.57279 0.0
C200 C 0.06463 0.85115 0.639 0.0
C201 C 0.0412 0.84891 0.6341 0.0
C202 C 0.01725 0.81243 0.65165 0.0
C203 C 0.01786 0.8298 0.64031 0.0
C204 C 0.04068 0.81457 0.65641 0.0
C205 C 0.064 0.83371 0.65024 0.0
U206 U 0.12124 0.89006 0.60905 0.0
O207 O 0.14372 0.93103 0.60588 0.0
O208 O 0.16266 0.91054 0.61415 0.0
C209 C 0.16498 0.93256 0.61128 0.0
C210 C 0.08974 0.87283 0.63391 0.0
C211 C 0.18091 0.95304 0.62274 0.0
C212 C 0.19312 0.99346 0.63494 0.0
C213 C 0.17573 0.97245 0.62605 0.0
C214 C 0.22083 0.97585 0.63777 0.0
C215 C 0.21622 0.99571 0.64059 0.0
C216 C 0.2035 0.9549 0.62894 0.0
C217 C 0.11889 0.8643 0.56584 0.0
C218 C 0.14907 0.88466 0.54373 0.0
C219 C 0.1145 0.84199 0.54091 0.0
C220 C 0.10606 0.84269 0.55647 0.0
C221 C 0.13607 0.86296 0.53422 0.0
C222 C 0.14054 0.88533 0.55938 0.0
C223 C 0.10902 0.86403 0.5822 0.0
O224 O 0.10882 0.86854 0.63177 0.0
O225 O 0.08948 0.88843 0.62316 0.0
O226 O 0.10245 0.88092 0.5853 0.0
O227 O 0.12103 0.86046 0.59423 0.0
H228 H 0.04085 0.86212 0.62562 0.0
H229 H 1.00024 0.8286 0.63618 0.0
H230 H 0.04108 0.80182 0.66525 0.0
H231 H 0.08166 0.83516 0.65454 0.0
H232 H 0.189 1.00844 0.63675 0.0
H233 H 0.1587 0.97186 0.62132 0.0
H234 H 0.23819 0.9767 0.64212 0.0
H235 H 0.20826 0.94049 0.6265 0.0
H236 H 0.16562 0.90123 0.539 0.0
H237 H 0.10425 0.82477 0.53419 0.0
H238 H 0.08941 0.82619 0.56123 0.0
H239 H 0.15076 0.90223 0.56641 0.0
C240 C 0.8956 0.49151 0.74609 0.0
C241 C 0.89797 0.50941 0.75735 0.0
C242 C 0.89146 0.53331 0.73618 0.0
C243 C 0.89591 0.53011 0.75244 0.0
C244 C 0.88945 0.5154 0.72496 0.0
C245 C 0.89147 0.49474 0.72988 0.0
U246 U 0.91099 0.45505 0.77724 0.0
O247 O 0.89065 0.41478 0.78313 0.0
O248 O 0.93038 0.43313 0.77445 0.0
C249 C 0.91007 0.41203 0.77882 0.0
C250 C 0.89729 0.46939 0.75103 0.0
C251 C 0.90405 0.38981 0.76913 0.0
C252 C 0.89515 0.3676 0.74367 0.0
C253 C 0.89931 0.38866 0.75251 0.0
C254 C 0.89998 0.34867 0.76804 0.0
C255 C 0.89591 0.34754 0.75132 0.0
C256 C 0.904 0.36954 0.77681 0.0
C257 C 0.93572 0.48537 0.81879 0.0
C258 C 0.94721 0.46672 0.84081 0.0
C259 C 0.95271 0.50813 0.8437 0.0
C260 C 0.94323 0.5067 0.82815 0.0
C261 C 0.95486 0.48818 0.85027 0.0
C262 C 0.93771 0.46532 0.82519 0.0
C263 C 0.92627 0.48478 0.80234 0.0
O264 O 0.92057 0.47329 0.75339 0.0
O265 O 0.88097 0.45516 0.7622 0.0
O266 O 0.90217 0.46809 0.79965 0.0
O267 O 0.94165 0.48639 0.79063 0.0
H268 H 0.90121 0.50726 0.76994 0.0
H269 H 0.89732 0.54335 0.76144 0.0
H270 H 0.88648 0.51743 0.71232 0.0
H271 H 0.88976 0.48122 0.721 0.0
H272 H 0.89214 0.36733 0.7308 0.0
H273 H 0.89925 0.40415 0.74636 0.0
H274 H 0.90023 0.3334 0.77437 0.0
H275 H 0.90749 0.37 0.78963 0.0
H276 H 0.94836 0.45092 0.84551 0.0
H277 H 0.95882 0.52512 0.85046 0.0
H278 H 0.94196 0.52241 0.82337 0.0
H279 H 0.93197 0.44867 0.81812 0.0
C280 C 0.62757 0.50006 0.74276 0.0
C281 C 0.63815 0.52211 0.75181 0.0
C282 C 0.67299 0.54328 0.73227 0.0
C283 C 0.66062 0.5435 0.74662 0.0
C284 C 0.66245 0.52094 0.72342 0.0
C285 C 0.63999 0.49961 0.72861 0.0
U286 U 0.57142 0.46109 0.77214 0.0
O287 O 0.53012 0.4393 0.76691 0.0
O288 O 0.55001 0.42032 0.7763 0.0
C289 C 0.52844 0.41781 0.77068 0.0
C290 C 0.60314 0.47768 0.74743 0.0
C291 C 0.51259 0.39617 0.76002 0.0
C292 C 0.49987 0.35411 0.75061 0.0
C293 C 0.51745 0.37621 0.75845 0.0
C294 C 0.47262 0.37169 0.74534 0.0
C295 C 0.4769 0.35133 0.74432 0.0
C296 C 0.49015 0.39373 0.75313 0.0
C297 C 0.56841 0.48579 0.81418 0.0
C298 C 0.53365 0.48461 0.82986 0.0
C299 C 0.56944 0.48538 0.84355 0.0
C300 C 0.58061 0.48594 0.82863 0.0
C301 C 0.54582 0.48482 0.84439 0.0
C302 C 0.54472 0.48502 0.81498 0.0
C303 C 0.58121 0.48775 0.7985 0.0
O304 O 0.60431 0.4635 0.75888 0.0
O305 O 0.58336 0.48102 0.74893 0.0
O306 O 0.57059 0.49118 0.78563 0.0
O307 O 0.58944 0.47191 0.79612 0.0
H308 H 0.6289 0.52285 0.7628 0.0
H309 H 0.66835 0.5602 0.75389 0.0
H310 H 0.67119 0.52008 0.71225 0.0
H311 H 0.63207 0.48281 0.72141 0.0
H312 H 0.50372 0.33877 0.75017 0.0
H313 H 0.53433 0.37724 0.7638 0.0
H314 H 0.45534 0.37039 0.74043 0.0
H315 H 0.48561 0.40856 0.75427 0.0
H316 H 0.51571 0.48465 0.82993 0.0
H317 H 0.57929 0.48524 0.85442 0.0
H318 H 0.59893 0.48666 0.8284 0.0
H319 H 0.5348 0.48506 0.80412 0.0
C320 C 0.53515 0.14524 0.7385 0.0
C321 C 0.51147 0.13206 0.74648 0.0
C322 C 0.49326 0.15108 0.72882 0.0
C323 C 0.49072 0.13494 0.74167 0.0
C324 C 0.51712 0.16425 0.72096 0.0
C325 C 0.53776 0.16134 0.72576 0.0
U326 U 0.57359 0.12475 0.76627 0.0
O327 O 0.59578 0.10679 0.75924 0.0
O328 O 0.61532 0.1439 0.77028 0.0
C329 C 0.61787 0.12622 0.76327 0.0
C330 C 0.55723 0.14213 0.7428 0.0
C331 C 0.63984 0.13424 0.75194 0.0
C332 C 0.66121 0.12435 0.73061 0.0
C333 C 0.63919 0.11832 0.73966 0.0
C334 C 0.68494 0.16271 0.74555 0.0
C335 C 0.68455 0.14641 0.73363 0.0
C336 C 0.66296 0.15666 0.75461 0.0
C337 C 0.54601 0.09322 0.80802 0.0
C338 C 0.53075 0.05514 0.82412 0.0
C339 C 0.55465 0.09542 0.83693 0.0
C340 C 0.55685 0.1073 0.82206 0.0
C341 C 0.54146 0.06913 0.8382 0.0
C342 C 0.53293 0.06698 0.80931 0.0
C343 C 0.54583 0.10548 0.79252 0.0
O344 O 0.57195 0.15611 0.75455 0.0
O345 O 0.55294 0.11906 0.74341 0.0
O346 O 0.54269 0.09269 0.77928 0.0
O347 O 0.56251 0.12945 0.79076 0.0
H348 H 0.50902 0.11954 0.75636 0.0
H349 H 0.47278 0.12473 0.74815 0.0
H350 H 0.51979 0.17656 0.7109 0.0
H351 H 0.55582 0.17158 0.71937 0.0
H352 H 0.66004 0.11147 0.72143 0.0
H353 H 0.62187 0.10076 0.73734 0.0
H354 H 0.70258 0.17967 0.74843 0.0
H355 H 0.66435 0.16916 0.76414 0.0
H356 H 0.51997 0.0349 0.82459 0.0
H357 H 0.56332 0.10686 0.84744 0.0
H358 H 0.56669 0.12754 0.82163 0.0
H359 H 0.52379 0.05546 0.79889 0.0
C360 C 0.73707 0.55313 0.97582 0.0
C361 C 0.7274 0.56626 0.96724 0.0
C362 C 0.69076 0.55076 0.98564 0.0
C363 C 0.70452 0.5651 0.9721 0.0
C364 C 0.70027 0.53715 0.99392 0.0
C365 C 0.72316 0.53838 0.98907 0.0
U366 U 0.7945 0.56935 0.94735 0.0
O367 O 0.83569 0.58904 0.95293 0.0
O368 O 0.81692 0.55014 0.94478 0.0
C369 C 0.8381 0.56935 0.95022 0.0
C370 C 0.76208 0.55539 0.97171 0.0
C371 C 0.85406 0.56423 0.96167 0.0
C372 C 0.88807 0.57928 0.9818 0.0
C373 C 0.86967 0.58209 0.97313 0.0
C374 C 0.87504 0.54016 0.96832 0.0
C375 C 0.89149 0.5586 0.97922 0.0
C376 C 0.85668 0.54301 0.9596 0.0
C377 C 0.79537 0.59395 0.90412 0.0
C378 C 0.82921 0.60517 0.88429 0.0
C379 C 0.79427 0.61264 0.87842 0.0
C380 C 0.78341 0.60263 0.89348 0.0
C381 C 0.81743 0.61423 0.8736 0.0
C382 C 0.81831 0.59516 0.89939 0.0
C383 C 0.78372 0.58423 0.92011 0.0
O384 O 0.76177 0.53972 0.96095 0.0
O385 O 0.78141 0.57825 0.96976 0.0
O386 O 0.79498 0.59913 0.93234 0.0
O387 O 0.77669 0.56078 0.92331 0.0
H388 H 0.73771 0.57769 0.95693 0.0
H389 H 0.69763 0.57552 0.96525 0.0
H390 H 0.69044 0.52611 1.00446 0.0
H391 H 0.7303 0.52813 0.9959 0.0
H392 H 0.90014 0.59371 0.99023 0.0
H393 H 0.86844 0.59879 0.975 0.0
H394 H 0.87725 0.52413 0.96587 0.0
H395 H 0.84531 0.5291 0.9507 0.0
H396 H 0.84686 0.60575 0.88097 0.0
H397 H 0.78479 0.61974 0.87073 0.0
H398 H 0.76574 0.60195 0.89691 0.0
H399 H 0.82785 0.58852 0.9074 0.0
C400 C 0.46255 0.18843 0.98053 0.0
C401 C 0.46653 0.17261 0.97037 0.0
C402 C 0.46757 0.14856 0.99359 0.0
C403 C 0.46904 0.1529 0.97684 0.0
C404 C 0.46293 0.16413 1.00365 0.0
C405 C 0.46051 0.18385 0.99718 0.0
U406 U 0.45004 0.22586 0.94757 0.0
O407 O 0.43295 0.24991 0.95031 0.0
O408 O 0.47268 0.26615 0.94204 0.0
C409 C 0.45431 0.27042 0.94648 0.0
C410 C 0.46162 0.21043 0.97424 0.0
C411 C 0.4619 0.29213 0.95707 0.0
C412 C 0.47803 0.31408 0.98246 0.0
C413 C 0.47118 0.29312 0.97272 0.0
C414 C 0.4665 0.33318 0.96095 0.0
C415 C 0.47559 0.33433 0.97672 0.0
C416 C 0.45972 0.31234 0.95128 0.0
C417 C 0.42539 0.1962 0.90546 0.0
C418 C 0.41698 0.21565 0.8824 0.0
C419 C 0.40795 0.17289 0.88071 0.0
C420 C 0.41652 0.17423 0.89653 0.0
C421 C 0.40806 0.19356 0.87336 0.0
C422 C 0.42558 0.21697 0.8983 0.0
C423 C 0.43405 0.19661 0.92217 0.0
O424 O 0.47851 0.22375 0.96308 0.0
O425 O 0.43875 0.20725 0.97133 0.0
O426 O 0.4187 0.19591 0.93363 0.0
O427 O 0.45835 0.21223 0.9252 0.0
H428 H 0.46803 0.17568 0.95748 0.0
H429 H 0.47218 0.14107 0.9687 0.0
H430 H 0.46191 0.16154 1.01658 0.0
H431 H 0.4575 0.19587 1.00524 0.0
H432 H 0.48483 0.31425 0.99455 0.0
H433 H 0.473 0.27768 0.97742 0.0
H434 H 0.46482 0.34855 0.95597 0.0
H435 H 0.45275 0.31201 0.93921 0.0
H436 H 0.41756 0.23202 0.87715 0.0
H437 H 0.40081 0.15541 0.87434 0.0
H438 H 0.41607 0.15794 0.90184 0.0
H439 H 0.43237 0.23413 0.905 0.0
C440 C 0.73947 0.18411 0.97474 0.0
C441 C 0.73128 0.16099 0.96728 0.0
C442 C 0.69471 0.14053 0.98568 0.0
C443 C 0.70918 0.13944 0.97271 0.0
C444 C 0.70283 0.16387 0.99292 0.0
C445 C 0.72499 0.18538 0.98752 0.0
U446 U 0.79428 0.22154 0.94459 0.0
O447 O 0.81406 0.26166 0.93807 0.0
O448 O 0.83562 0.24534 0.94896 0.0
C449 C 0.8363 0.26568 0.94348 0.0
C450 C 0.76337 0.20686 0.9697 0.0
C451 C 0.85218 0.28905 0.95248 0.0
C452 C 0.86825 0.31265 0.97735 0.0
C453 C 0.85102 0.29052 0.96931 0.0
C454 C 0.88746 0.33202 0.95184 0.0
C455 C 0.88704 0.3335 0.96871 0.0
C456 C 0.87025 0.31011 0.94386 0.0
C457 C 0.79404 0.18984 0.90431 0.0
C458 C 0.82042 0.2093 0.8805 0.0
C459 C 0.79706 0.1642 0.88328 0.0
C460 C 0.78728 0.16631 0.89806 0.0
C461 C 0.81392 0.18564 0.87433 0.0
C462 C 0.81064 0.21139 0.89541 0.0
C463 C 0.78336 0.19102 0.92008 0.0
O464 O 0.78386 0.20455 0.96874 0.0
O465 O 0.7614 0.2196 0.9576 0.0
O466 O 0.77498 0.20692 0.92138 0.0
O467 O 0.79605 0.19055 0.93281 0.0
H468 H 0.74208 0.15957 0.95734 0.0
H469 H 0.70333 0.12191 0.96666 0.0
H470 H 0.69238 0.16544 1.003 0.0
H471 H 0.73099 0.20302 0.99348 0.0
H472 H 0.86746 0.31316 0.99035 0.0
H473 H 0.83723 0.27446 0.97621 0.0
H474 H 0.90136 0.34781 0.94477 0.0
H475 H 0.87146 0.30942 0.93088 0.0
H476 H 0.83349 0.22618 0.87399 0.0
H477 H 0.79132 0.14569 0.87882 0.0
H478 H 0.77439 0.14943 0.90467 0.0
H479 H 0.81616 0.22978 0.90001 0.0
C480 C 0.55882 0.82409 0.07808 0.0
C481 C 0.57106 0.84658 0.08668 0.0
C482 C 0.55292 0.86513 0.06864 0.0
C483 C 0.5682 0.8669 0.08199 0.0
C484 C 0.54074 0.84247 0.06008 0.0
C485 C 0.54369 0.82221 0.06476 0.0
U486 U 0.57689 0.78949 0.10904 0.0
O487 O 0.55788 0.74946 0.11556 0.0
O488 O 0.59723 0.76847 0.10619 0.0
C489 C 0.57756 0.74726 0.1111 0.0
C490 C 0.56147 0.80243 0.08294 0.0
C491 C 0.57186 0.72459 0.10199 0.0
C492 C 0.56629 0.702 0.077 0.0
C493 C 0.57024 0.72355 0.08513 0.0
C494 C 0.5652 0.68236 0.10252 0.0
C495 C 0.56408 0.68125 0.08562 0.0
C496 C 0.56904 0.70376 0.11058 0.0
C497 C 0.60178 0.82081 0.15028 0.0
C498 C 0.6109 0.80166 0.17313 0.0
C499 C 0.62072 0.84473 0.17457 0.0
C500 C 0.61142 0.84309 0.15895 0.0
C501 C 0.62055 0.82404 0.18193 0.0
C502 C 0.60159 0.80006 0.15744 0.0
C503 C 0.592 0.81977 0.13387 0.0
O504 O 0.58505 0.80698 0.08499 0.0
O505 O 0.54576 0.78813 0.09433 0.0
O506 O 0.56801 0.80262 0.13136 0.0
O507 O 0.60734 0.82161 0.12206 0.0
H508 H 0.58282 0.84843 0.09702 0.0
H509 H 0.57814 0.88408 0.08876 0.0
H510 H 0.52852 0.8402 0.04992 0.0
H511 H 0.53398 0.80496 0.05801 0.0
H512 H 0.56562 0.70181 0.06398 0.0
H513 H 0.57239 0.73946 0.07826 0.0
H514 H 0.56309 0.66663 0.10958 0.0
H515 H 0.57015 0.70415 0.1236 0.0
H516 H 0.61027 0.7853 0.17844 0.0
H517 H 0.62841 0.86238 0.18081 0.0
H518 H 0.61183 0.85934 0.15359 0.0
H519 H 0.59419 0.78266 0.15092 0.0
C520 C 0.29663 0.82498 0.07405 0.0
C521 C 0.30947 0.84957 0.07994 0.0
C522 C 0.34453 0.86114 0.06072 0.0
C523 C 0.33317 0.8675 0.07331 0.0
C524 C 0.33134 0.83651 0.05485 0.0
C525 C 0.30777 0.81872 0.06144 0.0
U526 U 0.24173 0.79241 0.10607 0.0
O527 O 0.20003 0.7725 0.10175 0.0
O528 O 0.21832 0.75204 0.11119 0.0
C529 C 0.19714 0.75056 0.10568 0.0
C530 C 0.27145 0.80544 0.08038 0.0
C531 C 0.18053 0.72905 0.09507 0.0
C532 C 0.16772 0.68766 0.08429 0.0
C533 C 0.18547 0.70933 0.09246 0.0
C534 C 0.14002 0.70516 0.08077 0.0
C535 C 0.14448 0.68505 0.07861 0.0
C536 C 0.15771 0.72676 0.08893 0.0
C537 C 0.24711 0.82174 0.14826 0.0
C538 C 0.21858 0.80253 0.17126 0.0
C539 C 0.25207 0.84591 0.17241 0.0
C540 C 0.25978 0.84422 0.15681 0.0
C541 C 0.23144 0.82509 0.17995 0.0
C542 C 0.22636 0.80087 0.15558 0.0
C543 C 0.2563 0.82079 0.1319 0.0
O544 O 0.27179 0.79085 0.09184 0.0
O545 O 0.25387 0.81179 0.08263 0.0
O546 O 0.24406 0.82392 0.11983 0.0
O547 O 0.2621 0.80324 0.12926 0.0
H548 H 0.30124 0.85486 0.08966 0.0
H549 H 0.34285 0.88618 0.07826 0.0
H550 H 0.33918 0.83095 0.04504 0.0
H551 H 0.29814 0.79994 0.0566 0.0
H552 H 0.17176 0.67253 0.08301 0.0
H553 H 0.20267 0.71024 0.09717 0.0
H554 H 0.12258 0.70407 0.07637 0.0
H555 H 0.15315 0.74144 0.09085 0.0
H556 H 0.20274 0.78604 0.17666 0.0
H557 H 0.26216 0.86373 0.1785 0.0
H558 H 0.27576 0.8606 0.15139 0.0
H559 H 0.21629 0.7833 0.14921 0.0
C560 C 0.19621 0.47266 0.07605 0.0
C561 C 0.17161 0.45969 0.08291 0.0
C562 C 0.15666 0.48112 0.06473 0.0
C563 C 0.15204 0.46386 0.0773 0.0
C564 C 0.18144 0.49413 0.05804 0.0
C565 C 0.2009 0.48993 0.06363 0.0
U566 U 0.23306 0.45259 0.10583 0.0
O567 O 0.25295 0.43175 0.10049 0.0
O568 O 0.27497 0.47044 0.10891 0.0
C569 C 0.27582 0.45103 0.10322 0.0
C570 C 0.21715 0.46812 0.08108 0.0
C571 C 0.29653 0.45607 0.09141 0.0
C572 C 0.3133 0.44193 0.06965 0.0
C573 C 0.2927 0.43908 0.07905 0.0
C574 C 0.34197 0.47945 0.0842 0.0
C575 C 0.33834 0.4618 0.07235 0.0
C576 C 0.32136 0.47654 0.09366 0.0
C577 C 0.2061 0.42913 0.14918 0.0
C578 C 0.22117 0.41059 0.16937 0.0
C579 C 0.18677 0.41849 0.17587 0.0
C580 C 0.18826 0.42815 0.16038 0.0
C581 C 0.20317 0.40953 0.18066 0.0
C582 C 0.22265 0.42033 0.15378 0.0
C583 C 0.20626 0.4388 0.13279 0.0
O584 O 0.23311 0.48325 0.09197 0.0
O585 O 0.21119 0.44471 0.08327 0.0
O586 O 0.20222 0.42353 0.12077 0.0
O587 O 0.22409 0.46197 0.12964 0.0
H588 H 0.16751 0.44629 0.09254 0.0
H589 H 0.13334 0.45373 0.08292 0.0
H590 H 0.18573 0.50729 0.04823 0.0
H591 H 0.21968 0.50005 0.05808 0.0
H592 H 0.30972 0.42813 0.06051 0.0
H593 H 0.27393 0.42301 0.07696 0.0
H594 H 0.36098 0.49482 0.08676 0.0
H595 H 0.32508 0.4898 0.1032 0.0
H596 H 0.23427 0.40409 0.1726 0.0
H597 H 0.17232 0.4176 0.18401 0.0
H598 H 0.17518 0.43467 0.15707 0.0
H599 H 0.23659 0.42089 0.14532 0.0
C600 C 0.40495 0.88413 0.30979 0.0
C601 C 0.38208 0.86337 0.30441 0.0
C602 C 0.35662 0.87469 0.32161 0.0
C603 C 0.35824 0.85874 0.31022 0.0
C604 C 0.37951 0.8955 0.32692 0.0
C605 C 0.40331 0.90007 0.32115 0.0
U606 U 0.46351 0.90555 0.2809 0.0
O607 O 0.50449 0.92625 0.28696 0.0
O608 O 0.48758 0.88832 0.27727 0.0
C609 C 0.50798 0.90738 0.28358 0.0
C610 C 0.43054 0.88809 0.30497 0.0
C611 C 0.52336 0.90175 0.29517 0.0
C612 C 0.55538 0.91547 0.31651 0.0
C613 C 0.53768 0.91872 0.3074 0.0
C614 C 0.54417 0.87758 0.30197 0.0
C615 C 0.55936 0.89522 0.31364 0.0
C616 C 0.52651 0.88089 0.29279 0.0
C617 C 0.46417 0.9349 0.23891 0.0
C618 C 0.4611 0.93513 0.20956 0.0
C619 C 0.49222 0.97247 0.22331 0.0
C620 C 0.48424 0.9599 0.23812 0.0
C621 C 0.48041 0.96045 0.20885 0.0
C622 C 0.45298 0.92258 0.22441 0.0
C623 C 0.45269 0.92257 0.25461 0.0
O624 O 0.43134 0.87389 0.2935 0.0
O625 O 0.44934 0.91138 0.30396 0.0
O626 O 0.46242 0.93593 0.26767 0.0
O627 O 0.44665 0.89907 0.25651 0.0
H628 H 0.38254 0.85046 0.29583 0.0
H629 H 0.34104 0.84271 0.30571 0.0
H630 H 0.37909 0.908 0.33584 0.0
H631 H 0.42052 0.91591 0.32583 0.0
H632 H 0.56654 0.92928 0.32552 0.0
H633 H 0.53597 0.93511 0.30956 0.0
H634 H 0.5469 0.86192 0.29931 0.0
H635 H 0.51609 0.86764 0.28334 0.0
H636 H 0.45144 0.92533 0.1987 0.0
H637 H 0.50741 0.99184 0.22322 0.0
H638 H 0.49332 0.9701 0.24899 0.0
H639 H 0.43727 0.90344 0.2246 0.0
C640 C 0.13589 0.52487 0.30802 0.0
C641 C 0.13532 0.50841 0.29624 0.0
C642 C 0.14139 0.48348 0.31687 0.0
C643 C 0.1381 0.48793 0.30062 0.0
C644 C 0.14179 0.50004 0.32859 0.0
C645 C 0.13909 0.52051 0.32419 0.0
U646 U 0.11602 0.56073 0.27899 0.0
O647 O 0.09533 0.58093 0.28399 0.0
O648 O 0.13424 0.6011 0.27396 0.0
C649 C 0.11491 0.60274 0.27987 0.0
C650 C 0.13289 0.54647 0.30375 0.0
C651 C 0.12095 0.62414 0.29059 0.0
C652 C 0.15131 0.66521 0.30134 0.0
C653 C 0.14631 0.64347 0.2931 0.0
C654 C 0.10581 0.64839 0.30515 0.0
C655 C 0.13107 0.66817 0.30713 0.0
C656 C 0.10082 0.62673 0.29694 0.0
C657 C 0.08791 0.53401 0.23753 0.0
C658 C 0.05526 0.53693 0.22193 0.0
C659 C 0.08786 0.53198 0.20826 0.0
C660 C 0.09865 0.53166 0.22314 0.0
C661 C 0.06592 0.5345 0.20745 0.0
C662 C 0.06617 0.53679 0.23677 0.0
C663 C 0.0992 0.53286 0.25314 0.0
O664 O 0.14789 0.56117 0.29222 0.0
O665 O 0.10914 0.54172 0.30249 0.0
O666 O 0.08506 0.52917 0.26602 0.0
O667 O 0.12345 0.54966 0.2553 0.0
H668 H 0.13279 0.51143 0.28368 0.0
H669 H 0.13797 0.47577 0.29125 0.0
H670 H 0.14383 0.49701 0.34122 0.0
H671 H 0.13939 0.53292 0.33346 0.0
H672 H 0.17098 0.68014 0.30251 0.0
H673 H 0.16231 0.64225 0.28825 0.0
H674 H 0.08977 0.64986 0.30967 0.0
H675 H 0.08108 0.61231 0.29509 0.0
H676 H 0.03817 0.53851 0.22185 0.0
H677 H 0.09686 0.53045 0.1974 0.0
H678 H 0.11542 0.52951 0.2234 0.0
H679 H 0.05737 0.53864 0.24764 0.0
C680 C 0.40319 0.52609 0.30831 0.0
C681 C 0.3802 0.52437 0.30295 0.0
C682 C 0.35512 0.48962 0.32151 0.0
C683 C 0.35656 0.50639 0.30943 0.0
C684 C 0.37803 0.49093 0.3266 0.0
C685 C 0.40175 0.50902 0.32016 0.0
U686 U 0.45913 0.56083 0.27753 0.0
O687 O 0.48117 0.6011 0.2716 0.0
O688 O 0.50074 0.58233 0.28188 0.0
C689 C 0.50288 0.60352 0.27681 0.0
C690 C 0.42862 0.54694 0.30286 0.0
C691 C 0.51986 0.62639 0.28602 0.0
C692 C 0.53674 0.64947 0.31102 0.0
C693 C 0.51898 0.62764 0.30288 0.0
C694 C 0.55599 0.66895 0.28554 0.0
C695 C 0.55577 0.67026 0.30243 0.0
C696 C 0.53829 0.64733 0.27748 0.0
C697 C 0.45433 0.53056 0.23575 0.0
C698 C 0.48411 0.549 0.21325 0.0
C699 C 0.44799 0.50698 0.21114 0.0
C700 C 0.44032 0.50873 0.22674 0.0
C701 C 0.46993 0.5271 0.2041 0.0
C702 C 0.47635 0.55072 0.22893 0.0
C703 C 0.44522 0.5316 0.2521 0.0
O704 O 0.44728 0.54193 0.30121 0.0
O705 O 0.42862 0.56181 0.29145 0.0
O706 O 0.43851 0.54856 0.25449 0.0
O707 O 0.45814 0.52958 0.2642 0.0
H708 H 0.38042 0.53721 0.29393 0.0
H709 H 0.33933 0.50572 0.30499 0.0
H710 H 0.37772 0.47848 0.33595 0.0
H711 H 0.41907 0.51004 0.32475 0.0
H712 H 0.53605 0.64982 0.32403 0.0
H713 H 0.50489 0.61168 0.30973 0.0
H714 H 0.57 0.68468 0.27849 0.0
H715 H 0.53928 0.64685 0.26447 0.0
H716 H 0.50099 0.56494 0.20823 0.0
H717 H 0.43683 0.48966 0.20467 0.0
H718 H 0.42333 0.4929 0.23178 0.0
H719 H 0.48745 0.56778 0.23568 0.0
Eu720 Eu 0.50876 0.99676 1.00254 0.0
C721 C 0.56791 0.07769 0.04705 0.0
C722 C 0.60922 0.07997 0.04721 0.0
C723 C 0.6072 0.11822 0.04726 0.0
C724 C 0.58214 0.06573 0.0469 0.0
C725 C 0.58037 0.10408 0.0478 0.0
C726 C 0.6216 0.10619 0.04694 0.0
C727 C 0.53917 0.10073 0.05165 0.0
N728 N 0.54198 0.06361 0.0475 0.0
C729 C 0.52775 0.07473 0.05096 0.0
C730 C 0.56556 0.11553 0.04967 0.0
Eu731 Eu 0.52391 0.01951 0.04413 0.0
N732 N 0.56966 0.04028 0.04699 0.0
C733 C 0.58338 0.02824 0.04916 0.0
C734 C 0.62315 0.06751 0.04809 0.0
C735 C 0.61015 0.04157 0.04941 0.0
H736 H 0.50734 0.06366 0.05303 0.0
H737 H 0.62074 0.03177 0.05076 0.0
H738 H 0.64232 0.11733 0.04691 0.0
H739 H 0.5276 0.10931 0.05382 0.0
H740 H 0.57429 1.00836 0.05094 0.0
H741 H 0.4134 0.98649 1.004 0.0
H742 H 0.64391 0.07778 0.0483 0.0
H743 H 0.52536 0.95713 0.98655 0.0
H744 H 0.46058 0.00913 1.00464 0.0
H745 H 0.50507 0.91229 0.97948 0.0
H746 H 0.61702 0.13847 0.04756 0.0
H747 H 0.38946 0.9406 1.00034 0.0
H748 H 0.39043 0.90097 0.99537 0.0
H749 H 0.57442 0.1357 0.0503 0.0
H750 H 0.41549 0.88057 0.98907 0.0
N751 N 0.46348 0.97649 1.00168 0.0
C752 C 0.45044 0.98917 1.00309 0.0
C753 C 0.41021 0.95048 1.00058 0.0
C754 C 0.42373 0.93776 0.99842 0.0
C755 C 0.42365 0.97638 1.00263 0.0
C756 C 0.45074 0.95154 0.99881 0.0
H757 H 0.45826 0.88471 0.98282 0.0
N758 N 0.49068 0.95431 0.99485 0.0
C759 C 0.49353 0.91975 0.98417 0.0
C760 C 0.46481 0.94003 0.99548 0.0
C761 C 0.50495 0.94504 0.98821 0.0
C762 C 0.46713 0.90425 0.9861 0.0
C763 C 0.4523 0.91448 0.99138 0.0
O764 O 0.52837 1.00218 0.97942 0.0
O765 O 0.53789 0.02609 1.01864 0.0
O766 O 0.50113 0.03562 0.03174 0.0
O767 O 0.51104 0.03422 1.005 0.0
O768 O 0.55115 0.00949 1.0027 0.0
O769 O 0.49863 0.01152 0.98144 0.0
O770 O 0.50229 0.02244 0.06447 0.0
O771 O 0.49175 0.99541 0.02693 0.0
O772 O 0.5184 0.97007 1.01576 0.0
O773 O 0.53424 0.98905 0.04069 0.0
O774 O 0.49358 0.97953 0.04861 0.0
O775 O 0.52933 0.00963 0.06845 0.0
C776 C 0.55797 0.02704 1.01322 0.0
C777 C 0.50577 1.00008 0.95562 0.0
C778 C 0.50687 1.00636 0.92635 0.0
C779 C 0.51498 0.01597 0.942 0.0
C780 C 0.4893 0.98065 0.92467 0.0
C781 C 0.48812 0.97461 0.95355 0.0
C782 C 0.48 0.96499 0.93816 0.0
C783 C 0.50434 0.04406 1.01673 0.0
C784 C 0.51493 0.01019 0.97186 0.0
C785 C 0.42543 0.90031 0.99193 0.0
C786 C 0.41116 0.91194 0.99546 0.0
C787 C 0.48073 0.97575 0.03559 0.0
C788 C 0.51998 0.0269 0.09088 0.0
C789 C 0.51108 0.01213 0.10498 0.0
C790 C 0.51897 0.02294 0.12038 0.0
C791 C 0.53582 0.04897 0.12125 0.0
C792 C 0.53674 0.05269 0.09215 0.0
C793 C 0.54447 0.06363 0.10728 0.0
C794 C 0.5293 0.97151 0.02988 0.0
C795 C 0.51285 0.01466 0.07503 0.0
H796 H 0.52865 0.03567 0.94357 0.0
H797 H 0.48235 0.97267 0.9129 0.0
H798 H 0.4806 0.96216 0.9638 0.0
H799 H 0.46636 0.9453 0.93667 0.0
H800 H 0.49808 0.99219 0.10389 0.0
H801 H 0.54287 0.05804 0.13273 0.0
H802 H 0.54415 0.06429 0.0815 0.0
H803 H 0.55757 0.08355 0.10818 0.0
Eu804 Eu 0.03286 0.51248 1.00653 0.0
C805 C 0.9371 0.47875 0.05117 0.0
C806 C 0.92685 0.51175 0.04798 0.0
C807 C 0.89306 0.4694 0.05418 0.0
C808 C 0.94482 0.50346 0.04788 0.0
C809 C 0.91123 0.46152 0.05471 0.0
C810 C 0.90085 0.49448 0.0508 0.0
C811 C 0.92357 0.43053 0.06028 0.0
N812 N 0.95514 0.47181 0.05168 0.0
C813 C 0.94898 0.44833 0.05669 0.0
C814 C 0.90454 0.43706 0.05909 0.0
Eu815 Eu 0.99758 0.50244 0.0448 0.0
N816 N 0.9701 0.51965 0.04533 0.0
C817 C 0.97893 0.54473 0.044 0.0
C818 C 0.93563 0.53723 0.04566 0.0
C819 C 0.96184 0.55384 0.0439 0.0
H820 H 0.96363 0.44316 0.05751 0.0
H821 H 0.96891 0.57366 0.0424 0.0
H822 H 0.88673 0.50045 0.05077 0.0
H823 H 0.91868 0.41179 0.06391 0.0
H824 H 0.99908 0.55784 0.04254 0.0
H825 H 0.06401 0.44318 1.00707 0.0
H826 H 0.92245 0.54434 0.04559 0.0
H827 H 0.06587 0.57255 0.99496 0.0
H828 H 0.03283 0.4579 1.00702 0.0
H829 H 0.11087 0.60521 0.9898 0.0
H830 H 0.87304 0.4564 0.05671 0.0
H831 H 0.11043 0.47367 1.00545 0.0
H832 H 0.14558 0.51834 1.00205 0.0
H833 H 0.88487 0.42326 0.0619 0.0
H834 H 0.15836 0.56245 0.99723 0.0
N835 N 0.06125 0.49645 1.00578 0.0
C836 C 0.05299 0.47144 1.00621 0.0
C837 C 0.09681 0.48026 1.00539 0.0
C838 C 0.10505 0.50577 1.00392 0.0
C839 C 0.07063 0.46299 1.00626 0.0
C840 C 0.08653 0.51335 1.00399 0.0
H841 H 0.1455 0.59493 0.99231 0.0
N842 N 0.07519 0.54442 1.00059 0.0
C843 C 0.10633 0.58644 0.99309 0.0
C844 C 0.09374 0.53813 1.0013 0.0
C845 C 0.0809 0.56793 0.99596 0.0
C846 C 0.12583 0.58058 0.99457 0.0
C847 C 0.11963 0.55609 0.99847 0.0
O848 O 0.02773 0.52429 0.98263 0.0
O849 O 0.99957 0.51158 1.01874 0.0
O850 O 0.97142 0.47112 0.02795 0.0
O851 O 1.00123 0.4715 1.00984 0.0
O852 O 0.01887 0.54028 1.00254 0.0
O853 O 0.02088 0.48671 0.98625 0.0
O854 O 1.0028 0.49065 0.06872 0.0
O855 O 0.03045 0.50244 0.03253 0.0
O856 O 0.05924 0.54266 0.02391 0.0
O857 O 0.02925 0.54336 0.0412 0.0
O858 O 1.00998 0.47357 0.04856 0.0
O859 O 1.01179 0.52886 0.06469 0.0
C860 C 0.99938 0.52987 1.01207 0.0
C861 C 0.03492 0.50484 0.96048 0.0
C862 C 0.03309 0.50038 0.93116 0.0
C863 C 0.02097 0.49879 0.946 0.0
C864 C 0.05943 0.5083 0.93115 0.0
C865 C 0.06107 0.51253 0.96012 0.0
C866 C 0.07323 0.51426 0.94552 0.0
C867 C 0.9779 0.46074 1.0163 0.0
C868 C 0.02203 0.50315 0.97584 0.0
C869 C 0.13832 0.54888 0.99919 0.0
C870 C 0.13105 0.52376 1.00193 0.0
C871 C 0.02944 0.48341 0.03901 0.0
C872 C 0.99853 0.51211 0.09083 0.0
C873 C 1.01185 0.51373 0.10508 0.0
C874 C 1.00152 0.5142 0.12018 0.0
C875 C 0.97754 0.51286 0.12077 0.0
C876 C 0.97459 0.51065 0.09168 0.0
C877 C 0.96419 0.51102 0.10661 0.0
C878 C 0.05281 0.55353 0.03521 0.0
C879 C 1.01006 0.51233 0.07522 0.0
H880 H 1.00068 0.49258 0.94636 0.0
H881 H 0.06952 0.51023 0.91998 0.0
H882 H 0.07207 0.51721 0.9711 0.0
H883 H 0.09347 0.52035 0.94532 0.0
H884 H 0.03045 0.51504 0.10437 0.0
H885 H 0.96893 0.51288 0.13219 0.0
H886 H 0.96405 0.50935 0.08084 0.0
H887 H 0.94569 0.50988 0.1072 0.0
Eu888 Eu 0.52376 0.50186 0.04626 0.0
C889 C 0.47564 0.54709 0.99895 0.0
C890 C 0.42993 0.51843 1.00047 0.0
C891 C 0.44596 0.56232 0.99428 0.0
C892 C 0.45536 0.52328 1.0017 0.0
C893 C 0.4712 0.56682 0.99493 0.0
C894 C 0.42536 0.53817 0.99707 0.0
C895 C 0.51689 0.59356 0.99146 0.0
N896 N 0.49975 0.55076 0.99962 0.0
C897 C 0.5203 0.57339 0.99548 0.0
C898 C 0.49225 0.59034 0.99134 0.0
Eu899 Eu 0.50423 0.51611 1.00713 0.0
N900 N 0.46047 0.50462 1.00481 0.0
C901 C 0.44099 0.48037 1.00568 0.0
C902 C 0.40988 0.49379 1.0023 0.0
C903 C 0.41546 0.47463 1.0047 0.0
H904 H 0.53941 0.57604 0.99565 0.0
H905 H 0.40011 0.45544 1.00585 0.0
H906 H 0.40596 0.53484 0.99621 0.0
H907 H 0.53326 0.61158 0.98849 0.0
H908 H 0.44493 0.46535 1.00761 0.0
H909 H 0.62684 0.56811 0.04739 0.0
H910 H 0.39008 0.48929 1.00151 0.0
H911 H 0.49248 0.44151 0.0571 0.0
H912 H 0.5811 0.55519 0.04629 0.0
H913 H 0.50187 0.40746 0.06267 0.0
H914 H 0.44216 0.57728 0.99133 0.0
H915 H 0.64009 0.53629 0.05026 0.0
H916 H 0.62744 0.49115 0.05412 0.0
H917 H 0.48965 0.60599 0.9882 0.0
H918 H 0.59346 0.44742 0.05824 0.0
N919 N 0.56826 0.51625 0.04811 0.0
C920 C 0.58645 0.54104 0.04761 0.0
C921 C 0.6199 0.53047 0.0498 0.0
C922 C 0.60115 0.50522 0.0512 0.0
C923 C 0.6125 0.54848 0.04822 0.0
C924 C 0.57515 0.49864 0.05042 0.0
H925 H 0.5466 0.41608 0.06164 0.0
N926 N 0.53139 0.46872 0.05259 0.0
C927 C 0.51729 0.42609 0.05981 0.0
C928 C 0.5561 0.47408 0.05267 0.0
C929 C 0.51205 0.44537 0.05672 0.0
C930 C 0.54256 0.43102 0.05917 0.0
C931 C 0.56239 0.45534 0.05584 0.0
O932 O 0.50482 0.48939 0.0697 0.0
O933 O 0.49387 0.5059 0.03297 0.0
O934 O 0.51011 0.54686 0.0242 0.0
O935 O 0.53677 0.54369 0.04333 0.0
O936 O 0.48078 0.47611 0.04877 0.0
O937 O 0.53682 0.52688 0.06698 0.0
O938 O 0.52373 0.5262 0.98376 0.0
O939 O 0.53397 0.51186 1.02048 0.0
O940 O 0.5159 0.47023 0.02895 0.0
O941 O 0.4885 0.47428 1.01094 0.0
O942 O 0.54738 0.5416 1.00479 0.0
O943 O 0.48975 0.49004 0.98702 0.0
C944 C 0.47383 0.48792 0.03902 0.0
C945 C 0.53023 0.50814 0.09276 0.0
C946 C 0.5324 0.5133 0.1221 0.0
C947 C 0.52234 0.51476 0.107 0.0
C948 C 0.55008 0.50472 0.12262 0.0
C949 C 0.54794 0.49977 0.09369 0.0
C950 C 0.55772 0.49802 0.10854 0.0
C951 C 0.52619 0.55588 0.03646 0.0
C952 C 0.52026 0.51027 0.07695 0.0
C953 C 0.58823 0.46159 0.05598 0.0
C954 C 0.60758 0.48649 0.05365 0.0
C955 C 0.55417 0.52968 1.01453 0.0
C956 C 0.49833 0.50734 0.96073 0.0
C957 C 0.51029 0.50442 0.94701 0.0
C958 C 0.50151 0.50545 0.93142 0.0
C959 C 0.48073 0.50968 0.92985 0.0
C960 C 0.47777 0.51168 0.95883 0.0
C961 C 0.46906 0.51284 0.94346 0.0
C962 C 0.49862 0.46142 1.01728 0.0
C963 C 0.50719 0.50535 0.97692 0.0
H964 H 0.50882 0.52144 0.10628 0.0
H965 H 0.55787 0.50292 0.13397 0.0
H966 H 0.55424 0.49465 0.08294 0.0
H967 H 0.57132 0.49145 0.10916 0.0
H968 H 0.52611 0.50094 0.94849 0.0
H969 H 0.47372 0.51093 0.91808 0.0
H970 H 0.46838 0.51403 0.96921 0.0
H971 H 0.45317 0.5162 0.94207 0.0
Eu972 Eu 0.17589 0.33159 0.3379 0.0
C973 C 0.23427 0.41021 0.3879 0.0
C974 C 0.27572 0.41312 0.38541 0.0
C975 C 0.27315 0.44989 0.39261 0.0
C976 C 0.24876 0.39913 0.38448 0.0
C977 C 0.24628 0.43549 0.39258 0.0
C978 C 0.28785 0.43873 0.38901 0.0
C979 C 0.20445 0.42948 0.39894 0.0
N980 N 0.20839 0.39572 0.38794 0.0
C981 C 0.19346 0.4045 0.39424 0.0
C982 C 0.23095 0.4452 0.39779 0.0
Eu983 Eu 0.19134 0.35378 0.37956 0.0
N984 N 0.23647 0.37435 0.38108 0.0
C985 C 0.24981 0.36198 0.37957 0.0
C986 C 0.28962 0.40077 0.38318 0.0
C987 C 0.27657 0.37499 0.38054 0.0
H988 H 0.17293 0.39232 0.39508 0.0
H989 H 0.2871 0.36518 0.3791 0.0
H990 H 0.30855 0.44986 0.38955 0.0
H991 H 0.19249 0.43659 0.40343 0.0
H992 H 0.2399 0.34212 0.3775 0.0
H993 H 0.07656 0.31283 0.33433 0.0
H994 H 0.31035 0.41083 0.38383 0.0
H995 H 0.19649 0.29121 0.32676 0.0
H996 H 0.12298 0.33881 0.33424 0.0
H997 H 0.17904 0.24595 0.3245 0.0
H998 H 0.28274 0.46944 0.39594 0.0
H999 H 0.05622 0.26682 0.33509 0.0
H1000 H 0.06102 0.22897 0.33468 0.0
H1001 H 0.23945 0.46452 0.40151 0.0
H1002 H 0.08891 0.21073 0.33239 0.0
N1003 N 0.13019 0.30828 0.33585 0.0
C1004 C 0.11502 0.31894 0.33486 0.0
C1005 C 0.07693 0.27822 0.33514 0.0
C1006 C 0.09236 0.26729 0.33506 0.0
C1007 C 0.08833 0.30416 0.33474 0.0
C1008 C 0.1193 0.28297 0.33522 0.0
H1009 H 0.13275 0.21685 0.32843 0.0
N1010 N 0.16077 0.28815 0.33345 0.0
C1011 C 0.16646 0.25313 0.32747 0.0
C1012 C 0.13502 0.27263 0.33417 0.0
C1013 C 0.17626 0.27885 0.32894 0.0
C1014 C 0.14035 0.23679 0.3297 0.0
C1015 C 0.12417 0.24647 0.33261 0.0
O1016 O 0.19707 0.33122 0.31655 0.0
O1017 O 0.20826 0.35492 0.35519 0.0
O1018 O 0.18556 0.38236 0.36567 0.0
O1019 O 0.16486 0.36155 0.34207 0.0
O1020 O 0.20763 0.37098 0.33329 0.0
O1021 O 0.16754 0.34116 0.31416 0.0
O1022 O 0.17148 0.348 0.40265 0.0
O1023 O 0.16173 0.32507 0.36342 0.0
O1024 O 0.19865 0.31527 0.34996 0.0
O1025 O 0.18911 0.3164 0.37681 0.0
O1026 O 0.14923 0.34221 0.37943 0.0
O1027 O 0.20101 0.33831 0.40042 0.0
C1028 C 0.22 0.37445 0.34647 0.0
C1029 C 0.17696 0.32524 0.29092 0.0
C1030 C 0.17831 0.32765 0.26136 0.0
C1031 C 0.18563 0.33942 0.27653 0.0
C1032 C 0.16202 0.30152 0.26096 0.0
C1033 C 0.16061 0.29931 0.29007 0.0
C1034 C 0.15328 0.28756 0.27517 0.0
C1035 C 0.17302 0.38057 0.35218 0.0
C1036 C 0.18458 0.33781 0.30668 0.0
C1037 C 0.09749 0.23084 0.33331 0.0
C1038 C 0.08162 0.24123 0.33455 0.0
C1039 C 0.14191 0.32454 0.36896 0.0
C1040 C 0.19408 0.34946 0.42635 0.0
C1041 C 0.18258 0.33416 0.43999 0.0
C1042 C 0.19148 0.34317 0.45567 0.0
C1043 C 0.21196 0.36784 0.45731 0.0
C1044 C 0.21456 0.37384 0.4284 0.0
C1045 C 0.22337 0.38295 0.4438 0.0
C1046 C 0.19568 0.30675 0.36492 0.0
C1047 C 0.18478 0.33969 0.41007 0.0
H1048 H 0.19821 0.3595 0.27717 0.0
H1049 H 0.15562 0.29184 0.2496 0.0
H1050 H 0.15336 0.28815 0.3009 0.0
H1051 H 0.1406 0.26752 0.27463 0.0
H1052 H 0.16697 0.3152 0.43836 0.0
H1053 H 0.219 0.37568 0.46909 0.0
H1054 H 0.22377 0.3858 0.41811 0.0
H1055 H 0.23909 0.40187 0.44528 0.0
Eu1056 Eu 0.7008 0.85031 0.33871 0.0
C1057 C 0.60807 0.81219 0.3863 0.0
C1058 C 0.59483 0.84321 0.38412 0.0
C1059 C 0.56349 0.80011 0.39076 0.0
C1060 C 0.614 0.83652 0.38319 0.0
C1061 C 0.58288 0.79381 0.39048 0.0
C1062 C 0.56945 0.82476 0.38756 0.0
C1063 C 0.59832 0.76491 0.39502 0.0
N1064 N 0.62726 0.80678 0.38601 0.0
C1065 C 0.623 0.78381 0.39084 0.0
C1066 C 0.57809 0.76984 0.39465 0.0
Eu1067 Eu 0.66829 0.83932 0.37821 0.0
N1068 N 0.63874 0.85391 0.38007 0.0
C1069 C 0.64596 0.87866 0.37895 0.0
C1070 C 0.60188 0.86834 0.38199 0.0
C1071 C 0.62762 0.88619 0.37963 0.0
H1072 H 0.63859 0.77992 0.39103 0.0
H1073 H 0.63336 0.90575 0.37828 0.0
H1074 H 0.55442 0.82949 0.38818 0.0
H1075 H 0.5949 0.74657 0.3985 0.0
H1076 H 0.66575 0.89266 0.37705 0.0
H1077 H 0.73373 0.78227 0.33899 0.0
H1078 H 0.58772 0.87424 0.38254 0.0
H1079 H 0.73185 0.90967 0.32586 0.0
H1080 H 0.70206 0.79626 0.33995 0.0
H1081 H 0.776 0.94246 0.31875 0.0
H1082 H 0.54396 0.7862 0.39379 0.0
H1083 H 0.77967 0.81312 0.33513 0.0
H1084 H 0.81381 0.85767 0.32986 0.0
H1085 H 0.55899 0.75519 0.39793 0.0
H1086 H 0.82534 0.90129 0.32433 0.0
N1087 N 0.72972 0.83487 0.33713 0.0
C1088 C 0.72197 0.80999 0.33821 0.0
C1089 C 0.76583 0.81941 0.33554 0.0
C1090 C 0.77346 0.8447 0.33349 0.0
C1091 C 0.73991 0.80194 0.33768 0.0
C1092 C 0.75467 0.85191 0.33425 0.0
H1093 H 0.81131 0.93299 0.31988 0.0
N1094 N 0.74235 0.8823 0.33124 0.0
C1095 C 0.77213 0.924 0.32231 0.0
C1096 C 0.76121 0.87643 0.33123 0.0
C1097 C 0.74719 0.90542 0.32629 0.0
C1098 C 0.79202 0.9186 0.32301 0.0
C1099 C 0.78663 0.89446 0.32726 0.0
O1100 O 0.69405 0.86147 0.31496 0.0
O1101 O 0.668 0.84845 0.35223 0.0
O1102 O 0.64147 0.80763 0.36185 0.0
O1103 O 0.67041 0.80899 0.34267 0.0
O1104 O 0.68569 0.87724 0.3358 0.0
O1105 O 0.68664 0.82379 0.31883 0.0
O1106 O 0.67733 0.8288 0.40146 0.0
O1107 O 0.70109 0.84151 0.36464 0.0
O1108 O 0.72727 0.88223 0.35511 0.0
O1109 O 0.69827 0.88073 0.3743 0.0
O1110 O 0.68397 0.81275 0.38108 0.0
O1111 O 0.68073 0.86516 0.39848 0.0
C1112 C 0.66704 0.86661 0.34593 0.0
C1113 C 0.69956 0.84087 0.29276 0.0
C1114 C 0.69643 0.83489 0.26356 0.0
C1115 C 0.6851 0.83467 0.27847 0.0
C1116 C 0.72248 0.84171 0.26324 0.0
C1117 C 0.72542 0.84747 0.29208 0.0
C1118 C 0.73679 0.84794 0.27739 0.0
C1119 C 0.64756 0.79763 0.34978 0.0
C1120 C 0.68751 0.84001 0.30834 0.0
C1121 C 0.80564 0.88765 0.32719 0.0
C1122 C 0.79907 0.86281 0.33032 0.0
C1123 C 0.70263 0.82372 0.37098 0.0
C1124 C 0.67143 0.84727 0.42464 0.0
C1125 C 0.68666 0.85068 0.4383 0.0
C1126 C 0.67658 0.84838 0.45395 0.0
C1127 C 0.65092 0.84255 0.45559 0.0
C1128 C 0.64597 0.84151 0.42661 0.0
C1129 C 0.63582 0.83919 0.44203 0.0
C1130 C 0.72113 0.89216 0.36721 0.0
C1131 C 0.68232 0.84959 0.40845 0.0
H1132 H 0.66503 0.8293 0.27902 0.0
H1133 H 0.73192 0.84252 0.252 0.0
H1134 H 0.73679 0.85219 0.30288 0.0
H1135 H 0.75681 0.85316 0.27698 0.0
H1136 H 0.70641 0.85536 0.4367 0.0
H1137 H 0.64232 0.84015 0.46737 0.0
H1138 H 0.63396 0.83879 0.41626 0.0
H1139 H 0.6161 0.83462 0.44347 0.0
Eu1140 Eu 0.19762 0.84203 0.37709 0.0
C1141 C 0.14009 0.87651 0.32987 0.0
C1142 C 0.09574 0.84376 0.33201 0.0
C1143 C 0.10614 0.88638 0.32593 0.0
C1144 C 0.12212 0.85179 0.33278 0.0
C1145 C 0.13234 0.89401 0.32604 0.0
C1146 C 0.08786 0.86128 0.32893 0.0
C1147 C 0.17683 0.92474 0.3214 0.0
N1148 N 0.16519 0.88318 0.32993 0.0
C1149 C 0.18353 0.90666 0.32521 0.0
C1150 C 0.15114 0.91848 0.32201 0.0
Eu1151 Eu 0.17539 0.85213 0.33741 0.0
N1152 N 0.13043 0.83535 0.33557 0.0
C1153 C 0.11332 0.81028 0.33651 0.0
C1154 C 0.07811 0.81826 0.33393 0.0
C1155 C 0.08695 0.80141 0.33594 0.0
H1156 H 0.20343 0.91161 0.32486 0.0
H1157 H 0.07349 0.78159 0.33714 0.0
H1158 H 0.06769 0.85551 0.32845 0.0
H1159 H 0.19147 0.94348 0.31803 0.0
H1160 H 0.11977 0.79701 0.33817 0.0
H1161 H 0.29978 0.9112 0.37944 0.0
H1162 H 0.05768 0.81134 0.33348 0.0
H1163 H 0.1682 0.78201 0.38882 0.0
H1164 H 0.25363 0.89657 0.37795 0.0
H1165 H 0.1792 0.74928 0.3951 0.0
H1166 H 0.0998 0.89959 0.32317 0.0
H1167 H 0.31473 0.88064 0.38221 0.0
H1168 H 0.30376 0.83594 0.38608 0.0
H1169 H 0.14598 0.93249 0.319 0.0
H1170 H 0.27093 0.79184 0.39049 0.0
N1171 N 0.24233 0.85798 0.37946 0.0
C1172 C 0.25977 0.88299 0.37925 0.0
C1173 C 0.29439 0.87409 0.38159 0.0
C1174 C 0.27635 0.84858 0.38284 0.0
C1175 C 0.28602 0.89139 0.38008 0.0
C1176 C 0.25011 0.84105 0.38188 0.0
H1177 H 0.22444 0.75944 0.39421 0.0
N1178 N 0.20675 0.8101 0.38418 0.0
C1179 C 0.19415 0.76804 0.39203 0.0
C1180 C 0.23172 0.81631 0.38435 0.0
C1181 C 0.18799 0.7866 0.38854 0.0
C1182 C 0.21971 0.77383 0.39147 0.0
C1183 C 0.23892 0.79831 0.38784 0.0
O1184 O 0.17821 0.83028 0.40044 0.0
O1185 O 0.16621 0.84277 0.36337 0.0
O1186 O 0.18031 0.88333 0.35398 0.0
O1187 O 0.20877 0.88293 0.37295 0.0
O1188 O 0.15507 0.81402 0.37974 0.0
O1189 O 0.20983 0.86788 0.3974 0.0
O1190 O 0.19419 0.86364 0.31385 0.0
O1191 O 0.20718 0.85209 0.35117 0.0
O1192 O 0.19405 0.81177 0.36019 0.0
O1193 O 0.16463 0.81135 0.34177 0.0
O1194 O 0.21761 0.88067 0.33462 0.0
O1195 O 0.16369 0.82567 0.31746 0.0
C1196 C 0.14689 0.82432 0.36962 0.0
C1197 C 0.20304 0.85002 0.42351 0.0
C1198 C 0.20374 0.85489 0.45286 0.0
C1199 C 0.19392 0.85586 0.43756 0.0
C1200 C 0.22239 0.84755 0.45376 0.0
C1201 C 0.22168 0.8429 0.42485 0.0
C1202 C 0.23121 0.84161 0.43989 0.0
C1203 C 0.19697 0.89374 0.36589 0.0
C1204 C 0.19325 0.85149 0.40747 0.0
C1205 C 0.265 0.80545 0.38802 0.0
C1206 C 0.2837 0.83056 0.3855 0.0
C1207 C 0.22615 0.87097 0.34494 0.0
C1208 C 0.16903 0.84251 0.29117 0.0
C1209 C 0.17777 0.83623 0.27714 0.0
C1210 C 0.16705 0.83606 0.26194 0.0
C1211 C 0.14787 0.8427 0.26111 0.0
C1212 C 0.14985 0.84894 0.2899 0.0
C1213 C 0.13943 0.8491 0.27495 0.0
C1214 C 0.17708 0.80099 0.34853 0.0
C1215 C 0.17961 0.84204 0.30713 0.0
H1216 H 0.17963 0.86154 0.43655 0.0
H1217 H 0.23004 0.84614 0.46527 0.0
H1218 H 0.22888 0.83835 0.41426 0.0
H1219 H 0.24554 0.83599 0.44082 0.0
H1220 H 0.19246 0.83107 0.27809 0.0
H1221 H 0.13951 0.84319 0.24967 0.0
H1222 H 0.14289 0.85378 0.30048 0.0
H1223 H 0.12468 0.85417 0.27409 0.0
Eu1224 Eu 0.83857 0.65677 0.66984 0.0
C1225 C 0.89505 0.74532 0.71704 0.0
C1226 C 0.93943 0.75586 0.71523 0.0
C1227 C 0.92898 0.78842 0.7205 0.0
C1228 C 0.91307 0.73813 0.71442 0.0
C1229 C 0.90277 0.77044 0.72049 0.0
C1230 C 0.94728 0.78114 0.71787 0.0
C1231 C 0.85826 0.75771 0.72501 0.0
N1232 N 0.86995 0.72748 0.71702 0.0
C1233 C 0.85158 0.73303 0.72157 0.0
C1234 C 0.88395 0.77657 0.72425 0.0
Eu1235 Eu 0.86 0.6866 0.70976 0.0
N1236 N 0.90482 0.71355 0.71197 0.0
C1237 C 0.92186 0.70511 0.7116 0.0
C1238 C 0.95707 0.74753 0.71383 0.0
C1239 C 0.94822 0.72198 0.71231 0.0
H1240 H 0.83169 0.71849 0.72197 0.0
H1241 H 0.96169 0.71527 0.71156 0.0
H1242 H 0.96745 0.79509 0.71832 0.0
H1243 H 0.84361 0.76217 0.72819 0.0
H1244 H 0.91529 0.68545 0.71026 0.0
H1245 H 0.73591 0.6243 0.67018 0.0
H1246 H 0.97749 0.76055 0.71435 0.0
H1247 H 0.86871 0.62711 0.65654 0.0
H1248 H 0.7819 0.65525 0.67156 0.0
H1249 H 0.85828 0.58452 0.64869 0.0
H1250 H 0.9353 0.80787 0.72295 0.0
H1251 H 0.7217 0.57981 0.66514 0.0
H1252 H 0.73335 0.54696 0.6589 0.0
H1253 H 0.88909 0.79566 0.72694 0.0
H1254 H 0.76662 0.53612 0.65303 0.0
N1255 N 0.7939 0.62859 0.66776 0.0
C1256 C 0.7761 0.63597 0.66929 0.0
C1257 C 0.74199 0.59334 0.66573 0.0
C1258 C 0.76033 0.58612 0.6633 0.0
C1259 C 0.74993 0.61844 0.66854 0.0
C1260 C 0.78649 0.60445 0.6643 0.0
H1261 H 0.81322 0.55006 0.64897 0.0
N1262 N 0.83003 0.61669 0.66158 0.0
C1263 C 0.84315 0.58811 0.65224 0.0
C1264 C 0.80514 0.5983 0.66113 0.0
C1265 C 0.84899 0.61221 0.65667 0.0
C1266 C 0.8177 0.5687 0.65244 0.0
C1267 C 0.79827 0.57372 0.6567 0.0
O1268 O 0.85959 0.66816 0.64705 0.0
O1269 O 0.87015 0.68769 0.68383 0.0
O1270 O 0.85582 0.71386 0.6932 0.0
O1271 O 0.8268 0.68606 0.67458 0.0
O1272 O 0.88078 0.66937 0.66759 0.0
O1273 O 0.82442 0.669 0.64941 0.0
O1274 O 0.84049 0.6794 0.73303 0.0
O1275 O 0.82888 0.65581 0.69579 0.0
O1276 O 0.84257 0.6293 0.68584 0.0
O1277 O 0.86988 0.65538 0.70595 0.0
O1278 O 0.81731 0.67253 0.71246 0.0
O1279 O 0.87214 0.67262 0.73023 0.0
C1280 C 0.88922 0.68734 0.67783 0.0
C1281 C 0.83521 0.66125 0.6235 0.0
C1282 C 0.83692 0.66653 0.59413 0.0
C1283 C 0.84326 0.67687 0.60975 0.0
C1284 C 0.82264 0.64029 0.59268 0.0
C1285 C 0.8206 0.63528 0.62162 0.0
C1286 C 0.81445 0.6249 0.6063 0.0
C1287 C 0.83896 0.70834 0.68146 0.0
C1288 C 0.84278 0.67203 0.63973 0.0
C1289 C 0.77228 0.55517 0.65626 0.0
C1290 C 0.75334 0.56135 0.65958 0.0
C1291 C 0.80933 0.6546 0.70219 0.0
C1292 C 0.86461 0.68291 0.75635 0.0
C1293 C 0.85328 0.66792 0.77014 0.0
C1294 C 0.86182 0.67753 0.78575 0.0
C1295 C 0.88184 0.70247 0.78718 0.0
C1296 C 0.88453 0.70762 0.75818 0.0
C1297 C 0.89306 0.71729 0.77352 0.0
C1298 C 0.85812 0.63367 0.6982 0.0
C1299 C 0.85539 0.67266 0.74015 0.0
H1300 H 0.85425 0.69696 0.61127 0.0
H1301 H 0.81801 0.63149 0.58099 0.0
H1302 H 0.81411 0.623 0.63197 0.0
H1303 H 0.80343 0.60478 0.60497 0.0
H1304 H 0.83802 0.64875 0.76866 0.0
H1305 H 0.8886 0.71077 0.79889 0.0
H1306 H 0.89344 0.71942 0.74776 0.0
H1307 H 0.90836 0.73645 0.77483 0.0
Eu1308 Eu 0.36283 0.17608 0.67604 0.0
C1309 C 0.26887 0.14192 0.72153 0.0
C1310 C 0.25836 0.17483 0.71893 0.0
C1311 C 0.2247 0.13219 0.72453 0.0
C1312 C 0.27646 0.16671 0.7186 0.0
C1313 C 0.24301 0.12446 0.72491 0.0
C1314 C 0.23237 0.15734 0.72153 0.0
C1315 C 0.25565 0.09358 0.73014 0.0
N1316 N 0.28706 0.13516 0.72196 0.0
C1317 C 0.28106 0.11162 0.72676 0.0
C1318 C 0.23647 0.09994 0.72901 0.0
Eu1319 Eu 0.32938 0.1662 0.71515 0.0
N1320 N 0.30174 0.18313 0.71631 0.0
C1321 C 0.31048 0.20823 0.7155 0.0
C1322 C 0.26705 0.20039 0.71711 0.0
C1323 C 0.29327 0.21719 0.71565 0.0
H1324 H 0.29583 0.10662 0.7275 0.0
H1325 H 0.30025 0.23705 0.71456 0.0
H1326 H 0.21815 0.16318 0.72166 0.0
H1327 H 0.25086 0.0748 0.73357 0.0
H1328 H 0.33064 0.22145 0.71426 0.0
H1329 H 0.3914 0.10478 0.67506 0.0
H1330 H 0.25376 0.20738 0.71723 0.0
H1331 H 0.39663 0.23602 0.66445 0.0
H1332 H 0.36123 0.12058 0.67611 0.0
H1333 H 0.44161 0.26781 0.65842 0.0
H1334 H 0.20469 0.119 0.72694 0.0
H1335 H 0.43788 0.13432 0.6722 0.0
H1336 H 0.47363 0.17854 0.66817 0.0
H1337 H 0.21681 0.08596 0.73169 0.0
H1338 H 0.48731 0.22292 0.66355 0.0
N1339 N 0.39022 0.1589 0.67421 0.0
C1340 C 0.38138 0.13377 0.67476 0.0
C1341 C 0.42469 0.1414 0.6726 0.0
C1342 C 0.43348 0.16702 0.67109 0.0
C1343 C 0.39847 0.12468 0.67418 0.0
C1344 C 0.4155 0.17526 0.67178 0.0
H1345 H 0.47545 0.2563 0.65959 0.0
N1346 N 0.40515 0.2071 0.6692 0.0
C1347 C 0.43672 0.24887 0.66149 0.0
C1348 C 0.42321 0.20015 0.66919 0.0
C1349 C 0.41129 0.23084 0.66484 0.0
C1350 C 0.45577 0.24231 0.6622 0.0
C1351 C 0.44909 0.21761 0.66586 0.0
O1352 O 0.35757 0.1888 0.65242 0.0
O1353 O 0.33042 0.17576 0.68917 0.0
O1354 O 0.30235 0.13526 0.69829 0.0
O1355 O 0.33136 0.13521 0.67973 0.0
O1356 O 0.34982 0.20471 0.67312 0.0
O1357 O 0.34771 0.15026 0.65585 0.0
O1358 O 0.33513 0.15442 0.73897 0.0
O1359 O 0.36159 0.16631 0.70199 0.0
O1360 O 0.39006 0.20628 0.69306 0.0
O1361 O 0.3611 0.20704 0.71131 0.0
O1362 O 0.34257 0.13776 0.71843 0.0
O1363 O 0.34372 0.19246 0.73522 0.0
C1364 C 0.33067 0.19454 0.68291 0.0
C1365 C 0.36088 0.16755 0.62977 0.0
C1366 C 0.35774 0.16614 0.60035 0.0
C1367 C 0.34769 0.16674 0.61557 0.0
C1368 C 0.38131 0.16663 0.59964 0.0
C1369 C 0.38439 0.16816 0.62871 0.0
C1370 C 0.39452 0.16772 0.61371 0.0
C1371 C 0.30825 0.12473 0.68643 0.0
C1372 C 0.34969 0.16723 0.64559 0.0
C1373 C 0.46728 0.20974 0.6659 0.0
C1374 C 0.45949 0.18448 0.66852 0.0
C1375 C 0.36139 0.14763 0.70838 0.0
C1376 C 0.33049 0.17536 0.76133 0.0
C1377 C 0.34511 0.18185 0.77561 0.0
C1378 C 0.33388 0.1818 0.79055 0.0
C1379 C 0.30776 0.17476 0.79088 0.0
C1380 C 0.30459 0.16858 0.76207 0.0
C1381 C 0.29332 0.16822 0.77677 0.0
C1382 C 0.38423 0.21722 0.70465 0.0
C1383 C 0.34231 0.17596 0.74567 0.0
H1384 H 0.32944 0.16614 0.61639 0.0
H1385 H 0.38973 0.16652 0.58815 0.0
H1386 H 0.39484 0.16884 0.63947 0.0
H1387 H 0.41268 0.1682 0.61298 0.0
H1388 H 0.36521 0.18732 0.77503 0.0
H1389 H 0.29835 0.17404 0.80213 0.0
H1390 H 0.29309 0.16359 0.75128 0.0
H1391 H 0.27327 0.16285 0.77724 0.0
Eu1392 Eu 0.86527 0.17385 0.71072 0.0
C1393 C 0.80335 0.20618 0.66626 0.0
C1394 C 0.75959 0.17209 0.6683 0.0
C1395 C 0.76812 0.21452 0.6638 0.0
C1396 C 0.78618 0.18107 0.66868 0.0
C1397 C 0.79454 0.22313 0.6634 0.0
C1398 C 0.75067 0.18904 0.66626 0.0
C1399 C 0.83845 0.25534 0.65863 0.0
N1400 N 0.82868 0.2138 0.66584 0.0
C1401 C 0.84622 0.23778 0.66152 0.0
C1402 C 0.81252 0.24806 0.65979 0.0
Eu1403 Eu 0.84062 0.18352 0.67195 0.0
N1404 N 0.79547 0.16523 0.67051 0.0
C1405 C 0.77921 0.13996 0.67068 0.0
C1406 C 0.74279 0.14629 0.6695 0.0
C1407 C 0.75267 0.13014 0.67041 0.0
H1408 H 0.86632 0.24351 0.66078 0.0
H1409 H 0.73985 0.11011 0.67101 0.0
H1410 H 0.73032 0.18254 0.66614 0.0
H1411 H 0.85246 0.27447 0.65558 0.0
H1412 H 0.78652 0.12724 0.67151 0.0
H1413 H 0.96611 0.24719 0.71212 0.0
H1414 H 0.72223 0.13864 0.66931 0.0
H1415 H 0.8393 0.11383 0.7219 0.0
H1416 H 0.91953 0.23015 0.7111 0.0
H1417 H 0.85298 0.0829 0.72755 0.0
H1418 H 0.76097 0.2273 0.66181 0.0
H1419 H 0.98363 0.21866 0.71456 0.0
H1420 H 0.97542 0.1748 0.71817 0.0
H1421 H 0.80653 0.26168 0.65752 0.0
H1422 H 0.94464 0.13006 0.72247 0.0
N1423 N 0.91042 0.19213 0.7126 0.0
C1424 C 0.92674 0.21739 0.71227 0.0
C1425 C 0.96308 0.21103 0.71417 0.0
C1426 C 0.94623 0.18526 0.71547 0.0
C1427 C 0.95326 0.22719 0.71283 0.0
C1428 C 0.91965 0.1763 0.71481 0.0
H1429 H 0.89896 0.0957 0.7263 0.0
N1430 N 0.87708 0.14361 0.71726 0.0
C1431 C 0.86709 0.10204 0.7246 0.0
C1432 C 0.90242 0.15122 0.71722 0.0
C1433 C 0.85941 0.1196 0.72145 0.0
C1434 C 0.89305 0.10932 0.72384 0.0
C1435 C 0.91114 0.13426 0.72034 0.0
O1436 O 0.84674 0.1609 0.73423 0.0
O1437 O 0.83218 0.1728 0.69784 0.0
O1438 O 0.8437 0.21306 0.68947 0.0
O1439 O 0.87442 0.21428 0.7071 0.0
O1440 O 0.82358 0.1437 0.71359 0.0
O1441 O 0.87626 0.19948 0.73105 0.0
O1442 O 0.85792 0.19653 0.64813 0.0
O1443 O 0.87349 0.18448 0.68485 0.0
O1444 O 0.86253 0.14451 0.69329 0.0
O1445 O 0.83204 0.14313 0.67534 0.0
O1446 O 0.88259 0.21311 0.66865 0.0
O1447 O 0.8293 0.15773 0.65169 0.0
C1448 C 0.81393 0.15323 0.70397 0.0
C1449 C 0.87116 0.182 0.75713 0.0
C1450 C 0.86962 0.18445 0.78653 0.0
C1451 C 0.85979 0.18488 0.77116 0.0
C1452 C 0.89116 0.18128 0.78749 0.0
C1453 C 0.89247 0.17872 0.75847 0.0
C1454 C 0.9024 0.17841 0.77358 0.0
C1455 C 0.86085 0.22396 0.70105 0.0
C1456 C 0.86066 0.18243 0.74118 0.0
C1457 C 0.93756 0.14285 0.72027 0.0
C1458 C 0.95508 0.16831 0.71783 0.0
C1459 C 0.89197 0.2036 0.67852 0.0
C1460 C 0.83231 0.17484 0.62572 0.0
C1461 C 0.84097 0.16931 0.61137 0.0
C1462 C 0.82922 0.16856 0.59649 0.0
C1463 C 0.80901 0.17379 0.59627 0.0
C1464 C 0.81212 0.17991 0.62509 0.0
C1465 C 0.80061 0.17944 0.61044 0.0
C1466 C 0.84549 0.13349 0.68167 0.0
C1467 C 0.84404 0.17486 0.64131 0.0
H1468 H 0.84312 0.18711 0.77008 0.0
H1469 H 0.89959 0.18133 0.79901 0.0
H1470 H 0.90145 0.17648 0.74783 0.0
H1471 H 0.91896 0.17602 0.77452 0.0
H1472 H 0.85644 0.16518 0.61186 0.0
H1473 H 0.79982 0.17379 0.58506 0.0
H1474 H 0.80522 0.18418 0.63594 0.0
H1475 H 0.78507 0.18345 0.61006 0.0
H1476 H 0.36402 0.91115 0.05385 0.0
H1477 H 0.38352 0.85277 0.0526 0.0
H1478 H 0.42607 0.88241 0.04244 0.0
H1479 H 0.45929 0.92569 0.03603 0.0
H1480 H 0.44109 0.98464 0.03854 0.0
H1481 H 0.39673 0.95425 0.04589 0.0
C1482 C 0.37758 0.90491 0.05137 0.0
C1483 C 0.37037 0.87963 0.05407 0.0
C1484 C 0.40232 0.92221 0.04561 0.0
C1485 C 0.38823 0.87194 0.05053 0.0
C1486 C 0.41271 0.88894 0.04476 0.0
C1487 C 0.44532 0.93167 0.03773 0.0
C1488 C 0.45308 0.95716 0.03611 0.0
C1489 C 0.4201 0.91417 0.04245 0.0
C1490 C 0.43521 0.96495 0.03903 0.0
C1491 C 0.40996 0.94761 0.04349 0.0
H1492 H 0.10606 0.44682 0.0598 0.0
H1493 H 0.16044 0.52576 0.05568 0.0
H1494 H 0.12665 0.53337 0.04601 0.0
H1495 H 0.08082 0.51797 0.04029 0.0
H1496 H 0.02657 0.43922 0.04507 0.0
H1497 H 0.06091 0.43128 0.05308 0.0
C1498 C 0.11055 0.46573 0.05692 0.0
C1499 C 0.13588 0.48564 0.05863 0.0
C1500 C 0.09093 0.47007 0.05149 0.0
C1501 C 0.14125 0.50996 0.05443 0.0
C1502 C 0.12186 0.5144 0.04897 0.0
C1503 C 0.07666 0.49905 0.04278 0.0
C1504 C 0.05124 0.47911 0.04181 0.0
C1505 C 0.09655 0.49464 0.0476 0.0
C1506 C 0.04603 0.45479 0.04555 0.0
C1507 C 0.06564 0.45026 0.05018 0.0
H1508 H 0.53357 0.65686 0.0598 0.0
H1509 H 0.58796 0.65463 0.09257 0.0
H1510 H 0.58166 0.61631 0.08011 0.0
H1511 H 0.55989 0.58264 0.06041 0.0
H1512 H 0.50493 0.58444 0.02787 0.0
H1513 H 0.51266 0.62371 0.03948 0.0
C1514 C 0.54427 0.64816 0.06408 0.0
C1515 C 0.56107 0.65861 0.07722 0.0
C1516 C 0.54051 0.62596 0.05687 0.0
C1517 C 0.57458 0.64685 0.08268 0.0
C1518 C 0.57109 0.62495 0.0755 0.0
C1519 C 0.54966 0.59164 0.05578 0.0
C1520 C 0.53195 0.58048 0.04316 0.0
C1521 C 0.55392 0.61418 0.06269 0.0
C1522 C 0.5189 0.59256 0.03741 0.0
C1523 C 0.5232 0.61505 0.04412 0.0
H1524 H 0.88089 0.35958 0.99334 0.0
H1525 H 0.93833 0.35897 0.96275 0.0
H1526 H 0.97132 0.39751 0.97498 0.0
H1527 H 0.98394 0.43206 0.99378 0.0
H1528 H 0.92668 0.43391 0.02395 0.0
H1529 H 0.89388 0.39428 1.01269 0.0
C1530 C 0.90067 0.36778 0.98948 0.0
C1531 C 0.90701 0.35641 0.97703 0.0
C1532 C 0.91969 0.39023 0.99652 0.0
C1533 C 0.93277 0.36745 0.97211 0.0
C1534 C 0.95171 0.38948 0.97915 0.0
C1535 C 0.96433 0.42383 0.99799 0.0
C1536 C 0.95801 0.43605 1.00986 0.0
C1537 C 0.94539 0.40118 0.99126 0.0
C1538 C 0.93235 0.42492 1.01503 0.0
C1539 C 0.91346 0.40223 1.0085 0.0
H1540 H 0.64592 0.51132 0.99748 0.0
H1541 H 0.68248 0.5904 0.98704 0.0
H1542 H 0.64423 0.59095 0.99588 0.0
H1543 H 0.59983 0.56894 1.00587 0.0
H1544 H 0.56251 0.48979 1.01557 0.0
H1545 H 0.60162 0.48942 1.00821 0.0
C1546 C 0.64565 0.52874 0.99727 0.0
C1547 C 0.66717 0.55075 0.9914 0.0
C1548 C 0.62343 0.52896 1.00241 0.0
C1549 C 0.66617 0.57305 0.99113 0.0
C1550 C 0.64431 0.57344 0.99632 0.0
C1551 C 0.60039 0.55167 1.00653 0.0
C1552 C 0.57847 0.52956 1.01166 0.0
C1553 C 0.62277 0.55151 1.00187 0.0
C1554 C 0.57929 0.50721 1.01213 0.0
C1555 C 0.60162 0.50696 1.00774 0.0
H1556 H 0.503 0.13602 0.98457 0.0
H1557 H 0.44167 0.11601 1.01855 0.0
H1558 H 0.4486 0.08309 0.02977 0.0
H1559 H 0.4712 0.05852 0.02909 0.0
H1560 H 0.53143 0.07871 0.99415 0.0
H1561 H 0.52582 0.11275 0.98426 0.0
C1562 C 0.49094 0.12433 0.99432 0.0
C1563 C 0.47169 0.12844 1.00056 0.0
C1564 C 0.4949 0.10536 1.00063 0.0
C1565 C 0.45673 0.11342 1.01352 0.0
C1566 C 0.46063 0.09449 1.01992 0.0
C1567 C 0.48321 0.07058 1.01944 0.0
C1568 C 0.50158 0.06592 1.01232 0.0
C1569 C 0.47959 0.09013 1.01351 0.0
C1570 C 0.51695 0.08166 0.99976 0.0
C1571 C 0.51378 0.10119 0.99406 0.0
H1572 H 0.64862 0.13502 0.99526 0.0
H1573 H 0.68851 0.09377 0.98984 0.0
H1574 H 0.65044 0.05554 0.99885 0.0
H1575 H 0.60504 0.03321 1.00731 0.0
H1576 H 0.56487 0.0742 1.01186 0.0
H1577 H 0.60372 0.113 1.00453 0.0
C1578 C 0.64912 0.11775 0.99622 0.0
C1579 C 0.67149 0.11738 0.99172 0.0
C1580 C 0.62704 0.0957 1.00137 0.0
C1581 C 0.67152 0.09464 0.9929 0.0
C1582 C 0.64976 0.07274 0.99817 0.0
C1583 C 0.60497 0.05074 1.00689 0.0
C1584 C 0.58229 0.05091 1.01055 0.0
C1585 C 0.62732 0.07296 1.00228 0.0
C1586 C 0.58224 0.07363 1.00954 0.0
C1587 C 0.60443 0.09583 1.00521 0.0
H1588 H 0.89224 0.5179 0.99233 0.0
H1589 H 0.94067 0.59683 0.98276 0.0
H1590 H 0.97768 0.59518 0.99304 0.0
H1591 H 0.99715 0.57093 1.00315 0.0
H1592 H 0.94923 0.492 1.01238 0.0
H1593 H 0.91144 0.49403 1.00397 0.0
C1594 C 0.91088 0.53475 0.99253 0.0
C1595 C 0.9135 0.55746 0.98673 0.0
C1596 C 0.9323 0.53368 0.99841 0.0
C1597 C 0.93785 0.57914 0.9873 0.0
C1598 C 0.95915 0.5782 0.99308 0.0
C1599 C 0.97836 0.55425 1.00347 0.0
C1600 C 0.97601 0.53144 1.00862 0.0
C1601 C 0.95671 0.55553 0.99845 0.0
C1602 C 0.95159 0.50991 1.0088 0.0
C1603 C 0.92995 0.51103 1.00385 0.0
H1604 H 0.44966 0.35966 0.97941 0.0
H1605 H 0.51665 0.35922 0.9972 0.0
H1606 H 0.52886 0.39742 1.01244 0.0
H1607 H 0.52191 0.43278 1.01924 0.0
H1608 H 0.45524 0.43285 1.0002 0.0
H1609 H 0.44181 0.39332 0.98693 0.0
C1610 C 0.46703 0.36794 0.98654 0.0
C1611 C 0.48232 0.35663 0.98695 0.0
C1612 C 0.47413 0.39005 0.99505 0.0
C1613 C 0.5044 0.36738 0.99666 0.0
C1614 C 0.5115 0.38935 1.00532 0.0
C1615 C 0.5043 0.42398 1.01234 0.0
C1616 C 0.48976 0.43603 1.01068 0.0
C1617 C 0.4967 0.40111 1.00443 0.0
C1618 C 0.46702 0.4243 1.00162 0.0
C1619 C 0.45924 0.40159 0.99398 0.0
H1620 H 0.1507 0.65423 0.05758 0.0
H1621 H 0.09264 0.66142 0.08337 0.0
H1622 H 0.05946 0.62217 0.07202 0.0
H1623 H 0.04666 0.58522 0.0552 0.0
H1624 H 0.10462 0.57725 0.02988 0.0
H1625 H 0.13781 0.61709 0.04062 0.0
C1626 C 0.13081 0.64718 0.06079 0.0
C1627 C 0.12434 0.66105 0.07129 0.0
C1628 C 0.11166 0.62433 0.05428 0.0
C1629 C 0.09832 0.65156 0.07512 0.0
C1630 C 0.07926 0.62894 0.06872 0.0
C1631 C 0.06653 0.59216 0.05197 0.0
C1632 C 0.07294 0.57816 0.04158 0.0
C1633 C 0.08567 0.61511 0.05831 0.0
C1634 C 0.09891 0.58763 0.03763 0.0
C1635 C 0.11801 0.61044 0.04386 0.0
H1636 H 0.38117 0.50254 0.05949 0.0
H1637 H 0.3463 0.4228 0.06676 0.0
H1638 H 0.38403 0.42367 0.05556 0.0
H1639 H 0.42842 0.44734 0.04587 0.0
H1640 H 0.46415 0.52701 0.03879 0.0
H1641 H 0.42476 0.52591 0.04748 0.0
C1642 C 0.38179 0.48534 0.05853 0.0
C1643 C 0.36079 0.46263 0.06404 0.0
C1644 C 0.40379 0.48596 0.05209 0.0
C1645 C 0.36191 0.44051 0.06249 0.0
C1646 C 0.38361 0.44099 0.05617 0.0
C1647 C 0.4274 0.4644 0.046 0.0
C1648 C 0.44909 0.48717 0.04158 0.0
C1649 C 0.40483 0.46363 0.05122 0.0
C1650 C 0.44762 0.50918 0.04189 0.0
C1651 C 0.42514 0.50856 0.04701 0.0
H1652 H 0.55032 0.88123 0.03822 0.0
H1653 H 0.5472 0.89745 0.08835 0.0
H1654 H 0.54084 0.93219 0.0808 0.0
H1655 H 0.53483 0.95731 0.06004 0.0
H1656 H 0.53717 0.94071 1.00996 0.0
H1657 H 0.5446 0.9066 1.01742 0.0
C1658 C 0.54804 0.8922 0.04752 0.0
C1659 C 0.54931 0.88659 0.06387 0.0
C1660 C 0.54404 0.91206 0.0431 0.0
C1661 C 0.54673 0.90143 0.07569 0.0
C1662 C 0.5429 0.92126 0.07138 0.0
C1663 C 0.53713 0.94636 0.05072 0.0
C1664 C 0.5351 0.95149 0.0344 0.0
C1665 C 0.54143 0.9267 0.05513 0.0
C1666 C 0.53804 0.93695 0.02257 0.0
C1667 C 0.54249 0.91749 0.02685 0.0
H1668 H 0.05072 0.21695 0.38745 0.0
H1669 H 1.0126 0.25941 0.39517 0.0
H1670 H 0.05068 0.2974 0.3859 0.0
H1671 H 0.09556 0.31914 0.3764 0.0
H1672 H 0.13402 0.27695 0.36952 0.0
H1673 H 0.09514 0.23844 0.37727 0.0
C1674 C 0.0506 0.23444 0.38695 0.0
C1675 C 0.02871 0.23519 0.39216 0.0
C1676 C 0.07269 0.25636 0.38162 0.0
C1677 C 0.0292 0.25822 0.39155 0.0
C1678 C 0.05096 0.27999 0.38613 0.0
C1679 C 0.09525 0.30142 0.37641 0.0
C1680 C 0.11746 0.30084 0.37196 0.0
C1681 C 0.07291 0.27937 0.38126 0.0
C1682 C 0.11702 0.27786 0.37246 0.0
C1683 C 0.09481 0.25582 0.37703 0.0
H1684 H 0.81345 0.84103 0.38531 0.0
H1685 H 0.76902 0.76244 0.39709 0.0
H1686 H 0.72975 0.76212 0.38948 0.0
H1687 H 0.70767 0.78431 0.38004 0.0
H1688 H 0.75187 0.86306 0.36909 0.0
H1689 H 0.79142 0.86307 0.37541 0.0
C1690 C 0.79521 0.82377 0.38607 0.0
C1691 C 0.79429 0.80183 0.39189 0.0
C1692 C 0.77259 0.8237 0.38169 0.0
C1693 C 0.77036 0.77971 0.39294 0.0
C1694 C 0.74785 0.77946 0.38848 0.0
C1695 C 0.72602 0.8014 0.37891 0.0
C1696 C 0.72685 0.82348 0.37366 0.0
C1697 C 0.7487 0.80136 0.38295 0.0
C1698 C 0.75069 0.84564 0.37261 0.0
C1699 C 0.77335 0.8457 0.37639 0.0
H1700 H 0.20605 0.99639 0.38705 0.0
H1701 H 0.26765 0.99936 0.41531 0.0
H1702 H 0.25957 0.95982 0.40396 0.0
H1703 H 0.23458 0.92389 0.38667 0.0
H1704 H 0.17223 0.91976 0.35865 0.0
H1705 H 0.18107 0.96014 0.36925 0.0
C1706 C 0.21765 0.98834 0.39075 0.0
C1707 C 0.23756 1.00102 0.40197 0.0
C1708 C 0.2128 0.96535 0.38422 0.0
C1709 C 0.25252 0.99035 0.4065 0.0
C1710 C 0.2478 0.96759 0.4001 0.0
C1711 C 0.2229 0.93176 0.3828 0.0
C1712 C 0.20281 0.91872 0.37179 0.0
C1713 C 0.22796 0.95489 0.38902 0.0
C1714 C 0.18799 0.92941 0.36697 0.0
C1715 C 0.19295 0.95249 0.3731 0.0
H1716 H 0.55035 0.69591 0.32768 0.0
H1717 H 0.60696 0.69595 0.29596 0.0
H1718 H 0.64015 0.73454 0.30801 0.0
H1719 H 0.65316 0.76913 0.32687 0.0
H1720 H 0.59678 0.77007 0.35837 0.0
H1721 H 0.56383 0.73032 0.34733 0.0
C1722 C 0.56999 0.70423 0.32354 0.0
C1723 C 0.57599 0.69305 0.31079 0.0
C1724 C 0.58916 0.7267 0.3305 0.0
C1725 C 0.60161 0.70428 0.30554 0.0
C1726 C 0.62069 0.72635 0.31247 0.0
C1727 C 0.63371 0.76066 0.33142 0.0
C1728 C 0.62768 0.77273 0.34357 0.0
C1729 C 0.61468 0.7379 0.32484 0.0
C1730 C 0.60224 0.76125 0.3492 0.0
C1731 C 0.58325 0.73849 0.3428 0.0
H1732 H 0.34112 0.90861 0.3272 0.0
H1733 H 0.31483 0.82963 0.33018 0.0
H1734 H 0.2727 0.82146 0.33922 0.0
H1735 H 0.24227 0.83658 0.34454 0.0
H1736 H 0.26886 0.91548 0.34086 0.0
H1737 H 0.3119 0.92388 0.33413 0.0
C1738 C 0.32633 0.88962 0.33003 0.0
C1739 C 0.33122 0.86978 0.32785 0.0
C1740 C 0.3021 0.88503 0.33514 0.0
C1741 C 0.31157 0.84526 0.33143 0.0
C1742 C 0.28746 0.84056 0.3367 0.0
C1743 C 0.25767 0.85562 0.34261 0.0
C1744 C 0.25257 0.87548 0.34345 0.0
C1745 C 0.28235 0.86026 0.33836 0.0
C1746 C 0.27248 0.89998 0.34045 0.0
C1747 C 0.29705 0.90477 0.33654 0.0
H1748 H 0.17332 0.48188 0.33959 0.0
H1749 H 0.11597 0.43583 0.30483 0.0
H1750 H 0.12066 0.40012 0.31258 0.0
H1751 H 0.1409 0.38187 0.32932 0.0
H1752 H 0.19815 0.42807 0.36408 0.0
H1753 H 0.19317 0.46353 0.35649 0.0
C1754 C 0.16161 0.46398 0.33382 0.0
C1755 C 0.14431 0.46167 0.32162 0.0
C1756 C 0.1642 0.44341 0.33845 0.0
C1757 C 0.1297 0.43835 0.31409 0.0
C1758 C 0.13223 0.41783 0.3186 0.0
C1759 C 0.15215 0.39958 0.33535 0.0
C1760 C 0.1694 0.40193 0.3476 0.0
C1761 C 0.14942 0.42012 0.33077 0.0
C1762 C 0.1841 0.42532 0.35502 0.0
C1763 C 0.18149 0.44578 0.35055 0.0
H1764 H 0.33678 0.44022 0.32949 0.0
H1765 H 0.3164 0.49798 0.3304 0.0
H1766 H 0.27383 0.46798 0.34049 0.0
H1767 H 0.24083 0.42445 0.34661 0.0
H1768 H 0.26015 0.36625 0.34444 0.0
H1769 H 0.30464 0.39716 0.33777 0.0
C1770 C 0.32318 0.44635 0.33213 0.0
C1771 C 0.32981 0.47136 0.3289 0.0
C1772 C 0.29848 0.42886 0.33786 0.0
C1773 C 0.31175 0.4788 0.33236 0.0
C1774 C 0.28739 0.46167 0.33826 0.0
C1775 C 0.25507 0.41875 0.34518 0.0
C1776 C 0.24757 0.3933 0.34668 0.0
C1777 C 0.28033 0.43654 0.34073 0.0
C1778 C 0.2658 0.38589 0.34407 0.0
C1779 C 0.29113 0.40354 0.33999 0.0
H1780 H 0.55982 0.85424 0.32657 0.0
H1781 H 0.60798 0.93357 0.31828 0.0
H1782 H 0.64478 0.93196 0.32891 0.0
H1783 H 0.66432 0.90766 0.33852 0.0
H1784 H 0.61697 0.82839 0.3467 0.0
H1785 H 0.57899 0.83032 0.33839 0.0
C1786 C 0.57834 0.87118 0.32718 0.0
C1787 C 0.58101 0.894 0.32157 0.0
C1788 C 0.59966 0.87014 0.33331 0.0
C1789 C 0.60517 0.91581 0.32265 0.0
C1790 C 0.62634 0.91489 0.32864 0.0
C1791 C 0.64559 0.89089 0.3387 0.0
C1792 C 0.64343 0.868 0.34336 0.0
C1793 C 0.62393 0.89213 0.33373 0.0
C1794 C 0.61911 0.84634 0.34342 0.0
C1795 C 0.59741 0.84741 0.33853 0.0
H1796 H 0.16883 0.69839 0.32828 0.0
H1797 H 0.10466 0.69266 0.30157 0.0
H1798 H 0.11279 0.73258 0.31231 0.0
H1799 H 0.13849 0.76957 0.3287 0.0
H1800 H 0.20334 0.7763 0.35511 0.0
H1801 H 0.19458 0.73568 0.34506 0.0
C1802 C 0.15668 0.70592 0.32478 0.0
C1803 C 0.13605 0.69236 0.31419 0.0
C1804 C 0.16157 0.72911 0.33094 0.0
C1805 C 0.12038 0.70237 0.30991 0.0
C1806 C 0.12513 0.72534 0.31595 0.0
C1807 C 0.15074 0.76222 0.33231 0.0
C1808 C 0.17148 0.77603 0.34274 0.0
C1809 C 0.1457 0.73891 0.32642 0.0
C1810 C 0.18706 0.76603 0.34725 0.0
C1811 C 0.18214 0.74281 0.34144 0.0
H1812 H 0.81831 0.99375 0.38954 0.0
H1813 H 0.76203 0.99259 0.42208 0.0
H1814 H 0.72878 0.95418 0.40986 0.0
H1815 H 0.71565 0.9201 0.39058 0.0
H1816 H 0.77183 0.92001 0.35847 0.0
H1817 H 0.80476 0.95965 0.36964 0.0
C1818 C 0.79872 0.9852 0.39383 0.0
C1819 C 0.79281 0.99604 0.40683 0.0
C1820 C 0.77954 0.96281 0.3868 0.0
C1821 C 0.76729 0.98454 0.41229 0.0
C1822 C 0.74818 0.96257 0.40526 0.0
C1823 C 0.73504 0.92873 0.38592 0.0
C1824 C 0.741 0.91698 0.37353 0.0
C1825 C 0.7541 0.95138 0.39262 0.0
C1826 C 0.7664 0.92863 0.36779 0.0
C1827 C 0.78539 0.95132 0.37427 0.0
H1828 H 0.05119 0.8349 0.38836 0.0
H1829 H 0.01906 0.75573 0.3968 0.0
H1830 H 0.0579 0.75792 0.3864 0.0
H1831 H 0.10242 0.78277 0.37699 0.0
H1832 H 0.13519 0.86194 0.36883 0.0
H1833 H 0.09488 0.85932 0.37684 0.0
C1834 C 0.05266 0.81812 0.38783 0.0
C1835 C 0.03214 0.79519 0.39342 0.0
C1836 C 0.07525 0.81951 0.38189 0.0
C1837 C 0.03432 0.77358 0.39245 0.0
C1838 C 0.05665 0.77483 0.3866 0.0
C1839 C 0.10055 0.79936 0.37676 0.0
C1840 C 0.12164 0.82243 0.37215 0.0
C1841 C 0.0774 0.79774 0.38157 0.0
C1842 C 0.11912 0.84386 0.37204 0.0
C1843 C 0.0961 0.8424 0.37676 0.0
H1844 H 0.19771 0.21518 0.39677 0.0
H1845 H 0.26663 0.24327 0.3684 0.0
H1846 H 0.2586 0.27498 0.35635 0.0
H1847 H 0.23291 0.29641 0.35499 0.0
H1848 H 0.16541 0.26882 0.38469 0.0
H1849 H 0.17184 0.23536 0.39494 0.0
C1850 C 0.21113 0.22835 0.38805 0.0
C1851 C 0.23286 0.22689 0.38364 0.0
C1852 C 0.20654 0.24666 0.3813 0.0
C1853 C 0.24966 0.24382 0.372 0.0
C1854 C 0.24513 0.26204 0.36512 0.0
C1855 C 0.21948 0.28279 0.3635 0.0
C1856 C 0.19872 0.28506 0.36908 0.0
C1857 C 0.22371 0.26381 0.36976 0.0
C1858 C 0.18158 0.26749 0.38026 0.0
C1859 C 0.18528 0.24838 0.38618 0.0
H1860 H 0.71605 0.54708 0.71831 0.0
H1861 H 0.68275 0.59162 0.73285 0.0
H1862 H 0.72117 0.62954 0.7239 0.0
H1863 H 0.76495 0.65044 0.71273 0.0
H1864 H 0.79868 0.60605 0.69906 0.0
H1865 H 0.75932 0.56787 0.70634 0.0
C1866 C 0.71703 0.56503 0.71936 0.0
C1867 C 0.69645 0.56635 0.7264 0.0
C1868 C 0.73927 0.58688 0.71417 0.0
C1869 C 0.69837 0.58994 0.7278 0.0
C1870 C 0.7203 0.61169 0.72256 0.0
C1871 C 0.76352 0.63235 0.71117 0.0
C1872 C 0.78459 0.63115 0.70496 0.0
C1873 C 0.74097 0.61043 0.71585 0.0
C1874 C 0.78264 0.60761 0.70334 0.0
C1875 C 0.76014 0.5857 0.70769 0.0
H1876 H 0.44259 0.11534 0.72624 0.0
H1877 H 0.49444 0.19443 0.71959 0.0
H1878 H 0.45879 0.20018 0.71146 0.0
H1879 H 0.41234 0.1832 0.70778 0.0
H1880 H 0.36051 0.10435 0.71488 0.0
H1881 H 0.3965 0.09815 0.72153 0.0
C1882 C 0.44612 0.13388 0.72314 0.0
C1883 C 0.4713 0.1544 0.72366 0.0
C1884 C 0.42544 0.13714 0.71859 0.0
C1885 C 0.4754 0.1782 0.71923 0.0
C1886 C 0.45496 0.18157 0.71466 0.0
C1887 C 0.40901 0.16462 0.71047 0.0
C1888 C 0.38383 0.14416 0.71054 0.0
C1889 C 0.42984 0.16123 0.71444 0.0
C1890 C 0.37976 0.12031 0.71456 0.0
C1891 C 0.40033 0.11678 0.7184 0.0
H1892 H 0.86138 0.32049 0.72757 0.0
H1893 H 0.92538 0.32583 0.75425 0.0
H1894 H 0.92066 0.28887 0.74075 0.0
H1895 H 0.89774 0.25423 0.7222 0.0
H1896 H 0.83316 0.24767 0.69556 0.0
H1897 H 0.83901 0.28598 0.70798 0.0
C1898 C 0.87443 0.31369 0.73028 0.0
C1899 C 0.89354 0.32583 0.74207 0.0
C1900 C 0.87155 0.29218 0.72248 0.0
C1901 C 0.91022 0.31665 0.74547 0.0
C1902 C 0.90762 0.29554 0.7377 0.0
C1903 C 0.88494 0.26114 0.719 0.0
C1904 C 0.86507 0.24798 0.70787 0.0
C1905 C 0.88819 0.28299 0.72634 0.0
C1906 C 0.84879 0.25744 0.70395 0.0
C1907 C 0.85204 0.27933 0.71113 0.0
H1908 H 0.21002 0.02487 0.6631 0.0
H1909 H 0.26783 0.01997 0.63538 0.0
H1910 H 0.30105 0.05853 0.64738 0.0
H1911 H 0.31395 0.09423 0.66525 0.0
H1912 H 0.25659 0.10003 0.69287 0.0
H1913 H 0.22321 0.06075 0.68147 0.0
C1914 C 0.22987 0.03228 0.65965 0.0
C1915 C 0.23628 0.01927 0.64837 0.0
C1916 C 0.24909 0.0547 0.66662 0.0
C1917 C 0.26223 0.02918 0.6442 0.0
C1918 C 0.28131 0.0514 0.65099 0.0
C1919 C 0.29418 0.08694 0.66886 0.0
C1920 C 0.28797 0.1002 0.68002 0.0
C1921 C 0.275 0.06436 0.66218 0.0
C1922 C 0.26212 0.09024 0.68448 0.0
C1923 C 0.24293 0.06777 0.67787 0.0
H1924 H 1.00726 0.24136 0.6604 0.0
H1925 H 0.98175 0.1628 0.66584 0.0
H1926 H 0.93938 0.15472 0.67416 0.0
H1927 H 0.90867 0.16966 0.67845 0.0
H1928 H 0.93432 0.24813 0.67281 0.0
H1929 H 0.97745 0.25657 0.66614 0.0
C1930 C 0.99257 0.2225 0.66358 0.0
C1931 C 0.99778 0.20272 0.66232 0.0
C1932 C 0.96815 0.21795 0.66831 0.0
C1933 C 0.97826 0.17836 0.66637 0.0
C1934 C 0.954 0.17372 0.67122 0.0
C1935 C 0.92385 0.18864 0.67608 0.0
C1936 C 0.91846 0.20835 0.67642 0.0
C1937 C 0.94859 0.19331 0.67202 0.0
C1938 C 0.93812 0.23274 0.67281 0.0
C1939 C 0.96275 0.23755 0.66895 0.0
H1940 H 0.80111 0.77716 0.64896 0.0
H1941 H 0.86641 0.8342 0.67453 0.0
H1942 H 0.87523 0.80256 0.68561 0.0
H1943 H 0.86496 0.75866 0.68766 0.0
H1944 H 0.79993 0.70186 0.66167 0.0
H1945 H 0.79083 0.73341 0.65104 0.0
C1946 C 0.81743 0.78275 0.65682 0.0
C1947 C 0.833 0.80813 0.66087 0.0
C1948 C 0.82253 0.76444 0.66311 0.0
C1949 C 0.85384 0.81483 0.67132 0.0
C1950 C 0.85901 0.79674 0.67762 0.0
C1951 C 0.84864 0.75312 0.67981 0.0
C1952 C 0.83313 0.72779 0.67559 0.0
C1953 C 0.84348 0.77146 0.67361 0.0
C1954 C 0.81228 0.72113 0.66518 0.0
C1955 C 0.80701 0.73921 0.65905 0.0
H1956 H 1.00296 0.76359 0.65776 0.0
H1957 H 0.97527 0.81571 0.661 0.0
H1958 H 0.93394 0.78234 0.67095 0.0
H1959 H 0.90447 0.73741 0.67704 0.0
H1960 H 0.93236 0.6856 0.67305 0.0
H1961 H 0.97475 0.71972 0.66544 0.0
C1962 C 0.98805 0.7678 0.66084 0.0
C1963 C 0.99233 0.79221 0.65845 0.0
C1964 C 0.96424 0.74847 0.66649 0.0
C1965 C 0.97249 0.79706 0.66238 0.0
C1966 C 0.94884 0.77798 0.66818 0.0
C1967 C 0.92001 0.73375 0.67484 0.0
C1968 C 0.91542 0.70905 0.67584 0.0
C1969 C 0.94431 0.75348 0.67006 0.0
C1970 C 0.93555 0.70449 0.67252 0.0
C1971 C 0.95975 0.72397 0.66809 0.0
H1972 H 0.22683 0.18666 0.66011 0.0
H1973 H 0.27698 0.26647 0.65543 0.0
H1974 H 0.31207 0.26289 0.66704 0.0
H1975 H 0.32988 0.23687 0.67628 0.0
H1976 H 0.28017 0.15738 0.68189 0.0
H1977 H 0.24363 0.1611 0.67261 0.0
C1978 C 0.24527 0.20334 0.66191 0.0
C1979 C 0.24926 0.22674 0.65644 0.0
C1980 C 0.26559 0.20121 0.66877 0.0
C1981 C 0.27341 0.24809 0.65898 0.0
C1982 C 0.29356 0.24612 0.66574 0.0
C1983 C 0.31093 0.22044 0.6757 0.0
C1984 C 0.30773 0.19695 0.67985 0.0
C1985 C 0.29008 0.22273 0.67026 0.0
C1986 C 0.28312 0.17575 0.67898 0.0
C1987 C 0.26224 0.17786 0.67354 0.0
H1988 H 0.84231 0.0337 0.65989 0.0
H1989 H 0.77733 0.02599 0.63315 0.0
H1990 H 0.78363 0.06502 0.64436 0.0
H1991 H 0.80784 0.10176 0.66132 0.0
H1992 H 0.87352 0.11044 0.6877 0.0
H1993 H 0.86669 0.0708 0.67705 0.0
C1994 C 0.8296 0.04061 0.65646 0.0
C1995 C 0.80925 0.02671 0.64574 0.0
C1996 C 0.83342 0.0633 0.6629 0.0
C1997 C 0.79285 0.03594 0.64158 0.0
C1998 C 0.79655 0.05841 0.64791 0.0
C1999 C 0.8207 0.09504 0.66479 0.0
C2000 C 0.84108 0.10912 0.67542 0.0
C2001 C 0.81678 0.07228 0.65854 0.0
C2002 C 0.85747 0.09995 0.67972 0.0
C2003 C 0.85366 0.07728 0.67356 0.0
H2004 H 0.48274 0.31913 0.72445 0.0
H2005 H 0.42533 0.32818 0.74958 0.0
H2006 H 0.39186 0.28806 0.73944 0.0
H2007 H 0.37868 0.24999 0.72379 0.0
H2008 H 0.43585 0.2404 0.69877 0.0
H2009 H 0.46938 0.28089 0.7085 0.0
C2010 C 0.46292 0.31228 0.72774 0.0
C2011 C 0.45667 0.32686 0.73771 0.0
C2012 C 0.44361 0.28901 0.72188 0.0
C2013 C 0.43077 0.31768 0.74173 0.0
C2014 C 0.41157 0.2946 0.73602 0.0
C2015 C 0.39845 0.25671 0.72044 0.0
C2016 C 0.40458 0.24209 0.71045 0.0
C2017 C 0.41774 0.28006 0.72611 0.0
C2018 C 0.4304 0.25127 0.70626 0.0
C2019 C 0.44969 0.27444 0.7119 0.0
H2020 H 0.70025 0.11317 0.72619 0.0
H2021 H 0.72375 0.19147 0.7224 0.0
H2022 H 0.76518 0.20046 0.71144 0.0
H2023 H 0.79627 0.18649 0.70517 0.0
H2024 H 0.77237 0.10821 0.7094 0.0
H2025 H 0.72959 0.0988 0.71771 0.0
C2026 C 0.71416 0.13215 0.72268 0.0
C2027 C 0.70878 0.1516 0.72529 0.0
C2028 C 0.73806 0.13724 0.71651 0.0
C2029 C 0.72741 0.17614 0.72083 0.0
C2030 C 0.75113 0.18131 0.7145 0.0
C2031 C 0.78149 0.16733 0.70756 0.0
C2032 C 0.78735 0.14798 0.70647 0.0
C2033 C 0.75692 0.16209 0.71262 0.0
C2034 C 0.76821 0.12334 0.71002 0.0
C2035 C 0.74377 0.11797 0.71483 0.0
H2036 H 0.85758 0.53326 0.71443 0.0
H2037 H 0.91877 0.58222 0.74614 0.0
H2038 H 0.91397 0.61755 0.73738 0.0
H2039 H 0.89256 0.63472 0.72039 0.0
H2040 H 0.83136 0.58495 0.68883 0.0
H2041 H 0.83648 0.55015 0.69758 0.0
C2042 C 0.87011 0.55169 0.71932 0.0
C2043 C 0.88858 0.55497 0.7309 0.0
C2044 C 0.86737 0.57195 0.71415 0.0
C2045 C 0.9042 0.57899 0.73733 0.0
C2046 C 0.90157 0.59928 0.73225 0.0
C2047 C 0.88037 0.61628 0.7154 0.0
C2048 C 0.86184 0.61273 0.70375 0.0
C2049 C 0.88322 0.59601 0.72063 0.0
C2050 C 0.84615 0.58856 0.69755 0.0
C2051 C 0.84892 0.56848 0.70264 0.0
H2052 H 0.48795 0.94608 0.17902 0.0
H2053 H 0.48761 1.00718 0.20369 0.0
H2054 H 0.49853 0.03126 0.1787 0.0
H2055 H 0.50818 0.03523 0.14987 0.0
H2056 H 0.51054 0.97515 0.12512 0.0
H2057 H 0.49809 0.95032 0.14987 0.0
C2058 C 0.49016 0.96462 0.1789 0.0
C2059 C 0.48714 0.97481 0.19333 0.0
C2060 C 0.4966 0.97855 0.1644 0.0
C2061 C 0.49025 0.99897 0.19291 0.0
C2062 C 0.49634 0.01273 0.17856 0.0
C2063 C 0.50628 0.01682 0.14984 0.0
C2064 C 0.51042 1.00728 0.13547 0.0
C2065 C 0.49969 1.00279 0.16425 0.0
C2066 C 0.50717 0.98303 0.1358 0.0
C2067 C 0.50025 0.96882 0.15005 0.0
H2068 H 0.06053 0.50618 0.18091 0.0
H2069 H 0.04448 0.5627 0.19829 0.0
H2070 H 0.02322 0.56131 0.17304 0.0
H2071 H 1.00878 0.54388 0.14604 0.0
H2072 H 0.02584 0.48833 0.12828 0.0
H2073 H 0.04771 0.49006 0.15345 0.0
C2074 C 0.05273 0.51848 0.17913 0.0
C2075 C 0.054 0.53437 0.19165 0.0
C2076 C 0.04076 0.51784 0.16445 0.0
C2077 C 0.04339 0.54989 0.18908 0.0
C2078 C 0.03135 0.54925 0.17457 0.0
C2079 C 0.0172 0.53208 0.14771 0.0
C2080 C 1.01556 0.51591 0.13531 0.0
C2081 C 0.02975 0.53318 0.16221 0.0
C2082 C 0.02697 0.50107 0.13757 0.0
C2083 C 0.03937 0.50195 0.152 0.0
H2084 H 0.51844 0.5439 0.1924 0.0
H2085 H 0.43912 0.50525 0.1779 0.0
H2086 H 0.45129 0.49868 0.15116 0.0
H2087 H 0.48434 0.50194 0.13213 0.0
H2088 H 0.56361 0.54106 0.14666 0.0
H2089 H 0.55161 0.54961 0.17288 0.0
C2090 C 0.50381 0.53437 0.18335 0.0
C2091 C 0.47783 0.52489 0.18735 0.0
C2092 C 0.51094 0.53061 0.1679 0.0
C2093 C 0.45922 0.51235 0.17537 0.0
C2094 C 0.46618 0.50868 0.15999 0.0
C2095 C 0.49902 0.51266 0.14094 0.0
C2096 C 0.52484 0.52058 0.13741 0.0
C2097 C 0.49196 0.51742 0.15615 0.0
C2098 C 0.54355 0.53432 0.14909 0.0
C2099 C 0.53671 0.53931 0.16411 0.0
H2100 H 0.98777 0.4727 0.8607 0.0
H2101 H 0.94599 0.50831 0.87712 0.0
H2102 H 0.96576 0.51455 0.90359 0.0
H2103 H 0.99645 0.51167 0.92179 0.0
H2104 H 0.0372 0.47492 0.90557 0.0
H2105 H 1.0162 0.46729 0.87945 0.0
C2106 C 0.98264 0.48147 0.87012 0.0
C2107 C 0.96553 0.4902 0.86679 0.0
C2108 C 0.99405 0.48497 0.88539 0.0
C2109 C 0.95944 0.5018 0.87918 0.0
C2110 C 0.97065 0.50528 0.89439 0.0
C2111 C 1.00046 0.50165 0.91265 0.0
C2112 C 0.01864 0.49414 0.91567 0.0
C2113 C 0.98823 0.49722 0.89759 0.0
C2114 C 0.02372 0.48139 0.90354 0.0
C2115 C 1.0116 0.47688 0.88858 0.0
H2116 H 0.56969 0.50966 0.87214 0.0
H2117 H 0.49491 0.4594 0.85255 0.0
H2118 H 0.4749 0.46105 0.87759 0.0
H2119 H 0.47829 0.4775 0.90487 0.0
H2120 H 0.55282 0.52674 0.92495 0.0
H2121 H 0.57319 0.52411 0.90014 0.0
C2122 C 0.54904 0.49875 0.87339 0.0
C2123 C 0.53392 0.48468 0.86025 0.0
C2124 C 0.53754 0.49952 0.88799 0.0
C2125 C 0.50712 0.4709 0.8622 0.0
C2126 C 0.4956 0.47167 0.87661 0.0
C2127 C 0.499 0.48769 0.90382 0.0
C2128 C 0.51397 0.50245 0.91674 0.0
C2129 C 0.51058 0.48613 0.88951 0.0
C2130 C 0.54081 0.51513 0.91525 0.0
C2131 C 0.55247 0.51375 0.90102 0.0
H2132 H 0.53238 0.08222 0.86808 0.0
H2133 H 0.54365 0.02659 0.84415 0.0
H2134 H 0.53505 1.00308 0.86924 0.0
H2135 H 0.52248 0.9971 0.89772 0.0
H2136 H 0.51168 0.05264 0.92201 0.0
H2137 H 0.52266 0.07764 0.89724 0.0
C2138 C 0.53336 0.06517 0.86837 0.0
C2139 C 0.53833 0.05612 0.85405 0.0
C2140 C 0.5285 0.05166 0.88297 0.0
C2141 C 0.5393 0.03381 0.85479 0.0
C2142 C 0.53453 0.02037 0.8692 0.0
C2143 C 0.52255 0.0147 0.89762 0.0
C2144 C 0.51602 0.02282 0.91173 0.0
C2145 C 0.52871 0.02888 0.8833 0.0
C2146 C 0.51674 0.04594 0.9114 0.0
C2147 C 0.52285 0.06018 0.89718 0.0
H2148 H 0.12428 0.27539 0.51415 0.0
H2149 H 0.19912 0.30722 0.53593 0.0
H2150 H 0.21894 0.32888 0.51084 0.0
H2151 H 0.21521 0.34026 0.48303 0.0
H2152 H 0.14044 0.31026 0.46148 0.0
H2153 H 0.1206 0.28641 0.48605 0.0
C2154 C 0.14492 0.28716 0.51347 0.0
C2155 C 0.16007 0.28956 0.52706 0.0
C2156 C 0.1563 0.29995 0.49898 0.0
C2157 C 0.18687 0.3046 0.52572 0.0
C2158 C 0.19827 0.31721 0.51136 0.0
C2159 C 0.19454 0.32865 0.48369 0.0
C2160 C 0.17942 0.32732 0.47034 0.0
C2161 C 0.18319 0.31524 0.49797 0.0
C2162 C 0.15268 0.31159 0.47142 0.0
C2163 C 0.14127 0.29805 0.48555 0.0
H2164 H 0.74681 0.84902 0.51114 0.0
H2165 H 0.71196 0.88664 0.53483 0.0
H2166 H 0.68905 0.88478 0.51022 0.0
H2167 H 0.67782 0.8715 0.48218 0.0
H2168 H 0.71112 0.8323 0.45871 0.0
H2169 H 0.7357 0.8359 0.48293 0.0
C2170 C 0.73409 0.85669 0.51097 0.0
C2171 C 0.73122 0.86797 0.52493 0.0
C2172 C 0.72065 0.85532 0.49677 0.0
C2173 C 0.71493 0.87817 0.5243 0.0
C2174 C 0.70162 0.87696 0.51022 0.0
C2175 C 0.69031 0.86357 0.48236 0.0
C2176 C 0.69244 0.85155 0.46856 0.0
C2177 C 0.70418 0.86542 0.49642 0.0
C2178 C 0.70922 0.8419 0.46901 0.0
C2179 C 0.72318 0.84379 0.48293 0.0
H2180 H 0.18531 0.88261 0.52298 0.0
H2181 H 0.10653 0.84059 0.5076 0.0
H2182 H 0.12026 0.8355 0.48098 0.0
H2183 H 0.15464 0.84095 0.4623 0.0
H2184 H 0.23333 0.88349 0.47771 0.0
H2185 H 0.21966 0.89063 0.50378 0.0
C2186 C 0.17111 0.87267 0.51376 0.0
C2187 C 0.14485 0.86178 0.51751 0.0
C2188 C 0.17914 0.86979 0.49837 0.0
C2189 C 0.12685 0.84876 0.5053 0.0
C2190 C 0.13469 0.84594 0.48997 0.0
C2191 C 0.16881 0.85211 0.47126 0.0
C2192 C 0.195 0.8614 0.46802 0.0
C2193 C 0.16078 0.85606 0.4864 0.0
C2194 C 0.21303 0.87571 0.4799 0.0
C2195 C 0.20523 0.87988 0.49485 0.0
H2196 H 0.64982 0.80506 0.19361 0.0
H2197 H 0.61438 0.84783 0.20781 0.0
H2198 H 0.63361 0.854 0.23446 0.0
H2199 H 0.66234 0.84908 0.2534 0.0
H2200 H 0.6971 0.80571 0.23923 0.0
H2201 H 0.67609 0.79776 0.21309 0.0
C2202 C 0.64594 0.8154 0.20259 0.0
C2203 C 0.63081 0.82613 0.19857 0.0
C2204 C 0.65706 0.81889 0.21795 0.0
C2205 C 0.62632 0.83973 0.2104 0.0
C2206 C 0.63721 0.84317 0.22571 0.0
C2207 C 0.665 0.83757 0.24468 0.0
C2208 C 0.68152 0.82824 0.24826 0.0
C2209 C 0.6529 0.83312 0.22957 0.0
C2210 C 0.68488 0.81352 0.23673 0.0
C2211 C 0.67279 0.80887 0.22177 0.0
H2212 H 0.18279 0.80473 0.1923 0.0
H2213 H 0.26224 0.85035 0.20554 0.0
H2214 H 0.24965 0.85665 0.23222 0.0
H2215 H 0.21594 0.8511 0.25153 0.0
H2216 H 0.13661 0.80511 0.23821 0.0
H2217 H 0.14928 0.79683 0.21214 0.0
C2218 C 0.1974 0.81574 0.20107 0.0
C2219 C 0.22348 0.82723 0.1967 0.0
C2220 C 0.19003 0.81933 0.21649 0.0
C2221 C 0.24202 0.84165 0.20833 0.0
C2222 C 0.23484 0.84517 0.22368 0.0
C2223 C 0.20144 0.83896 0.24302 0.0
C2224 C 0.17533 0.82898 0.24684 0.0
C2225 C 0.20888 0.83439 0.22786 0.0
C2226 C 0.15684 0.8134 0.23555 0.0
C2227 C 0.16407 0.80859 0.2206 0.0
H2228 H 0.20708 0.36872 0.18982 0.0
H2229 H 0.19414 0.4262 0.20911 0.0
H2230 H 0.18664 0.40696 0.23575 0.0
H2231 H 0.18131 0.37236 0.25348 0.0
H2232 H 0.19502 0.31539 0.2342 0.0
H2233 H 0.20493 0.33601 0.20793 0.0
C2234 C 0.20304 0.37733 0.19987 0.0
C2235 C 0.20091 0.39881 0.19725 0.0
C2236 C 0.19874 0.36614 0.21528 0.0
C2237 C 0.19539 0.4094 0.21055 0.0
C2238 C 0.19122 0.39847 0.22588 0.0
C2239 C 0.18686 0.36467 0.2436 0.0
C2240 C 0.18709 0.34212 0.24587 0.0
C2241 C 0.19246 0.37661 0.22838 0.0
C2242 C 0.19419 0.33243 0.23281 0.0
C2243 C 0.19996 0.34427 0.21775 0.0
H2244 H 0.79415 0.61081 0.84448 0.0
H2245 H 0.8685 0.64499 0.8671 0.0
H2246 H 0.88864 0.66611 0.84193 0.0
H2247 H 0.88527 0.67631 0.81375 0.0
H2248 H 0.8109 0.64385 0.79133 0.0
H2249 H 0.79086 0.62063 0.81604 0.0
C2250 C 0.81476 0.62296 0.84396 0.0
C2251 C 0.82967 0.62619 0.85783 0.0
C2252 C 0.82631 0.63543 0.82941 0.0
C2253 C 0.85643 0.64174 0.8567 0.0
C2254 C 0.86801 0.65404 0.84228 0.0
C2255 C 0.86464 0.66429 0.81424 0.0
C2256 C 0.8497 0.66207 0.80058 0.0
C2257 C 0.85314 0.65123 0.82861 0.0
C2258 C 0.82303 0.64585 0.80148 0.0
C2259 C 0.81148 0.63267 0.8157 0.0
H2260 H 0.37914 0.21258 0.86087 0.0
H2261 H 0.41537 0.17013 0.84763 0.0
H2262 H 0.39693 0.16382 0.82074 0.0
H2263 H 0.36842 0.1683 0.80128 0.0
H2264 H 0.33293 0.2114 0.8145 0.0
H2265 H 0.35338 0.2197 0.84083 0.0
C2266 C 0.38339 0.20229 0.85205 0.0
C2267 C 0.39847 0.19164 0.85647 0.0
C2268 C 0.37271 0.19871 0.83651 0.0
C2269 C 0.40343 0.17814 0.8448 0.0
C2270 C 0.39299 0.17462 0.82932 0.0
C2271 C 0.36549 0.17984 0.80982 0.0
C2272 C 0.34885 0.18893 0.8059 0.0
C2273 C 0.37727 0.18449 0.82509 0.0
C2274 C 0.34521 0.20373 0.81724 0.0
C2275 C 0.35699 0.20858 0.83233 0.0
H2276 H 0.82053 0.21077 0.84568 0.0
H2277 H 0.83273 0.1545 0.86833 0.0
H2278 H 0.85004 0.14871 0.8433 0.0
H2279 H 0.86172 0.15932 0.81499 0.0
H2280 H 0.85068 0.2161 0.79206 0.0
H2281 H 0.83269 0.2217 0.81702 0.0
C2282 C 0.82716 0.19739 0.84516 0.0
C2283 C 0.82515 0.18301 0.85893 0.0
C2284 C 0.83717 0.19408 0.83061 0.0
C2285 C 0.83364 0.16557 0.85793 0.0
C2286 C 0.84367 0.1623 0.84361 0.0
C2287 C 0.85561 0.17311 0.81544 0.0
C2288 C 0.85773 0.18732 0.80159 0.0
C2289 C 0.8455 0.1764 0.82987 0.0
C2290 C 0.8491 0.20468 0.80242 0.0
C2291 C 0.83896 0.20804 0.81675 0.0
H2292 H 0.30468 0.18044 0.53849 0.0
H2293 H 0.3173 0.12164 0.52121 0.0
H2294 H 0.33563 0.12026 0.54705 0.0
H2295 H 0.34924 0.13634 0.57438 0.0
H2296 H 0.3355 0.19401 0.59221 0.0
H2297 H 0.31579 0.19466 0.56656 0.0
C2298 C 0.31106 0.16704 0.54041 0.0
C2299 C 0.30985 0.15143 0.52768 0.0
C2300 C 0.32135 0.16605 0.55547 0.0
C2301 C 0.31851 0.13437 0.53052 0.0
C2302 C 0.32886 0.13341 0.54538 0.0
C2303 C 0.34194 0.14906 0.57265 0.0
C2304 C 0.34404 0.16524 0.58518 0.0
C2305 C 0.33066 0.14934 0.55788 0.0
C2306 C 0.33403 0.18128 0.58282 0.0
C2307 C 0.32289 0.18175 0.56811 0.0
H2308 H 0.84552 0.13953 0.52626 0.0
H2309 H 0.92477 0.18787 0.539 0.0
H2310 H 0.91204 0.19321 0.56588 0.0
H2311 H 0.8782 0.18593 0.5855 0.0
H2312 H 0.79904 0.13734 0.57273 0.0
H2313 H 0.81194 0.13013 0.5464 0.0
C2314 C 0.86006 0.15094 0.53497 0.0
C2315 C 0.88609 0.16345 0.53044 0.0
C2316 C 0.8526 0.15399 0.55049 0.0
C2317 C 0.90456 0.17836 0.54195 0.0
C2318 C 0.89731 0.18134 0.55741 0.0
C2319 C 0.8638 0.17348 0.57705 0.0
C2320 C 0.83765 0.16241 0.5811 0.0
C2321 C 0.87135 0.16953 0.56177 0.0
C2322 C 0.81928 0.14646 0.56989 0.0
C2323 C 0.82664 0.14225 0.5548 0.0
H2324 H 0.889 0.7412 0.53494 0.0
H2325 H 0.81804 0.68749 0.51258 0.0
H2326 H 0.80328 0.66438 0.53786 0.0
H2327 H 0.81042 0.65892 0.56609 0.0
H2328 H 0.88216 0.71069 0.58856 0.0
H2329 H 0.89624 0.73542 0.56373 0.0
C2330 C 0.87028 0.72449 0.53566 0.0
C2331 C 0.85477 0.71597 0.52181 0.0
C2332 C 0.86192 0.71102 0.55031 0.0
C2333 C 0.83057 0.69424 0.52294 0.0
C2334 C 0.82202 0.68107 0.53744 0.0
C2335 C 0.8293 0.67542 0.5656 0.0
C2336 C 0.8452 0.68265 0.57929 0.0
C2337 C 0.83759 0.68915 0.55115 0.0
C2338 C 0.86929 0.70465 0.57837 0.0
C2339 C 0.87749 0.71874 0.56408 0.0
loop_
_geom_bond_atom_site_label_1
_geom_bond_atom_site_label_2
_geom_bond_distance
_geom_bond_site_symmetry_2
_ccdc_geom_bond_type
C0 C1 1.264 . S
C0 C5 1.479 . S
C0 C10 1.465 . S
C1 C0 1.264 . S
C1 C3 1.339 . S
C1 H28 0.931 . S
C2 C3 1.395 . S
C2 C4 1.320 . S
C3 C1 1.339 . S
C3 C2 1.395 . S
C3 H29 0.929 . S
C4 C2 1.320 . S
C4 C5 1.405 . S
C4 H30 0.930 . S
C5 C0 1.479 . S
C5 C4 1.405 . S
C5 H31 0.931 . S
U6 O7 2.454 . S
U6 O8 2.458 . S
U6 C9 2.984 . S
U6 C10 2.847 . S
U6 C23 2.882 . S
U6 O24 2.441 . S
U6 O25 2.420 . S
U6 O26 2.455 . S
U6 O27 2.449 . S
O7 U6 2.454 . S
O7 C9 1.353 . S
O8 U6 2.458 . S
O8 C9 1.286 . S
C9 U6 2.984 . S
C9 O7 1.353 . S
C9 O8 1.286 . S
C9 C11 1.363 . S
C10 C0 1.465 . S
C10 U6 2.847 . S
C10 O24 1.249 . S
C10 O25 1.202 . S
C11 C9 1.363 . S
C11 C13 1.408 . S
C11 C16 1.342 . S
C12 C13 1.310 . S
C12 C15 1.461 . S
C12 H32 0.932 . S
C13 C11 1.408 . S
C13 C12 1.310 . S
C13 H33 0.930 . S
C14 C15 1.474 . S
C14 C16 1.285 . S
C14 H34 0.929 . S
C15 C12 1.461 . S
C15 C14 1.474 . S
C16 C11 1.342 . S
C16 C14 1.285 . S
C16 H35 0.930 . S
C17 C20 1.424 . S
C17 C22 1.245 . S
C17 C23 1.428 . S
C18 C21 1.260 . S
C18 C22 1.477 . S
C18 H36 0.932 . S
C19 C20 1.384 . S
C19 C21 1.479 . S
C19 H37 0.929 . S
C20 C17 1.424 . S
C20 C19 1.384 . S
C20 H38 0.928 . S
C21 C18 1.260 . S
C21 C19 1.479 . S
C22 C17 1.245 . S
C22 C18 1.477 . S
C22 H39 0.932 . S
C23 U6 2.882 . S
C23 C17 1.428 . S
C23 O26 1.301 . S
C23 O27 1.282 . S
O24 U6 2.441 . S
O24 C10 1.249 . S
O25 U6 2.420 . S
O25 C10 1.202 . S
O26 U6 2.455 . S
O26 C23 1.301 . S
O27 U6 2.449 . S
O27 C23 1.282 . S
H28 C1 0.931 . S
H29 C3 0.929 . S
H30 C4 0.930 . S
H31 C5 0.931 . S
H32 C12 0.932 . S
H33 C13 0.930 . S
H34 C14 0.929 . S
H35 C16 0.930 . S
H36 C18 0.932 . S
H37 C19 0.929 . S
H38 C20 0.928 . S
H39 C22 0.932 . S
C40 C41 1.264 . S
C40 C45 1.479 . S
C40 C50 1.465 . S
C41 C40 1.264 . S
C41 C43 1.339 . S
C41 H68 0.931 . S
C42 C43 1.395 . S
C42 C44 1.320 . S
C43 C41 1.339 . S
C43 C42 1.395 . S
C43 H69 0.929 . S
C44 C42 1.320 . S
C44 C45 1.405 . S
C44 H70 0.930 . S
C45 C40 1.479 . S
C45 C44 1.405 . S
C45 H71 0.931 . S
U46 O47 2.454 . S
U46 O48 2.458 . S
U46 C49 2.984 . S
U46 C50 2.847 . S
U46 C63 2.882 . S
U46 O64 2.441 . S
U46 O65 2.420 . S
U46 O66 2.455 . S
U46 O67 2.449 . S
O47 U46 2.454 . S
O47 C49 1.353 . S
O48 U46 2.458 . S
O48 C49 1.286 . S
C49 U46 2.984 . S
C49 O47 1.353 . S
C49 O48 1.286 . S
C49 C51 1.363 . S
C50 C40 1.465 . S
C50 U46 2.847 . S
C50 O64 1.249 . S
C50 O65 1.202 . S
C51 C49 1.363 . S
C51 C53 1.408 . S
C51 C56 1.342 . S
C52 C53 1.310 . S
C52 C55 1.461 . S
C52 H72 0.932 . S
C53 C51 1.408 . S
C53 C52 1.310 . S
C53 H73 0.930 . S
C54 C55 1.474 . S
C54 C56 1.285 . S
C54 H74 0.929 . S
C55 C52 1.461 . S
C55 C54 1.474 . S
C56 C51 1.342 . S
C56 C54 1.285 . S
C56 H75 0.930 . S
C57 C60 1.424 . S
C57 C62 1.245 . S
C57 C63 1.428 . S
C58 C61 1.260 . S
C58 C62 1.477 . S
C58 H76 0.932 . S
C59 C60 1.384 . S
C59 C61 1.479 . S
C59 H77 0.929 . S
C60 C57 1.424 . S
C60 C59 1.384 . S
C60 H78 0.928 . S
C61 C58 1.260 . S
C61 C59 1.479 . S
C62 C57 1.245 . S
C62 C58 1.477 . S
C62 H79 0.932 . S
C63 U46 2.882 . S
C63 C57 1.428 . S
C63 O66 1.301 . S
C63 O67 1.282 . S
O64 U46 2.441 . S
O64 C50 1.249 . S
O65 U46 2.420 . S
O65 C50 1.202 . S
O66 U46 2.455 . S
O66 C63 1.301 . S
O67 U46 2.449 . S
O67 C63 1.282 . S
H68 C41 0.931 . S
H69 C43 0.929 . S
H70 C44 0.930 . S
H71 C45 0.931 . S
H72 C52 0.932 . S
H73 C53 0.930 . S
H74 C54 0.929 . S
H75 C56 0.930 . S
H76 C58 0.932 . S
H77 C59 0.929 . S
H78 C60 0.928 . S
H79 C62 0.932 . S
C80 C81 1.264 . S
C80 C85 1.479 . S
C80 C90 1.465 . S
C81 C80 1.264 . S
C81 C83 1.339 . S
C81 H108 0.931 . S
C82 C83 1.395 . S
C82 C84 1.320 . S
C83 C81 1.339 . S
C83 C82 1.395 . S
C83 H109 0.929 . S
C84 C82 1.320 . S
C84 C85 1.405 . S
C84 H110 0.930 . S
C85 C80 1.479 . S
C85 C84 1.405 . S
C85 H111 0.931 . S
U86 O87 2.454 . S
U86 O88 2.458 . S
U86 C89 2.984 . S
U86 C90 2.847 . S
U86 C103 2.882 . S
U86 O104 2.441 . S
U86 O105 2.420 . S
U86 O106 2.455 . S
U86 O107 2.449 . S
O87 U86 2.454 . S
O87 C89 1.353 . S
O88 U86 2.458 . S
O88 C89 1.286 . S
C89 U86 2.984 . S
C89 O87 1.353 . S
C89 O88 1.286 . S
C89 C91 1.363 . S
C90 C80 1.465 . S
C90 U86 2.847 . S
C90 O104 1.249 . S
C90 O105 1.202 . S
C91 C89 1.363 . S
C91 C93 1.408 . S
C91 C96 1.342 . S
C92 C93 1.310 . S
C92 C95 1.475 . S
C92 H112 0.932 . S
C93 C91 1.408 . S
C93 C92 1.310 . S
C93 H113 0.930 . S
C94 C95 1.476 . S
C94 C96 1.285 . S
C94 H114 0.929 1_655 S
C95 C92 1.475 . S
C95 C94 1.476 . S
C96 C91 1.342 . S
C96 C94 1.285 . S
C96 H115 0.930 . S
C97 C100 1.424 . S
C97 C102 1.245 . S
C97 C103 1.428 . S
C98 C101 1.260 . S
C98 C102 1.477 . S
C98 H116 0.932 . S
C99 C100 1.384 . S
C99 C101 1.479 . S
C99 H117 0.929 . S
C100 C97 1.424 . S
C100 C99 1.384 . S
C100 H118 0.928 . S
C101 C98 1.260 . S
C101 C99 1.479 . S
C102 C97 1.245 . S
C102 C98 1.477 . S
C102 H119 0.932 . S
C103 U86 2.882 . S
C103 C97 1.428 . S
C103 O106 1.301 . S
C103 O107 1.282 . S
O104 U86 2.441 . S
O104 C90 1.249 . S
O105 U86 2.420 . S
O105 C90 1.202 . S
O106 U86 2.455 . S
O106 C103 1.301 . S
O107 U86 2.449 . S
O107 C103 1.282 . S
H108 C81 0.931 . S
H109 C83 0.929 . S
H110 C84 0.930 . S
H111 C85 0.931 . S
H112 C92 0.932 . S
H113 C93 0.930 . S
H114 C94 0.929 1_455 S
H115 C96 0.930 . S
H116 C98 0.932 . S
H117 C99 0.929 . S
H118 C100 0.928 . S
H119 C102 0.932 . S
C120 C121 1.264 . S
C120 C125 1.479 . S
C120 C130 1.465 . S
C121 C120 1.264 . S
C121 C123 1.339 . S
C121 H148 0.931 . S
C122 C123 1.395 . S
C122 C124 1.320 . S
C123 C121 1.339 . S
C123 C122 1.395 . S
C123 H149 0.929 . S
C124 C122 1.320 . S
C124 C125 1.405 . S
C124 H150 0.930 . S
C125 C120 1.479 . S
C125 C124 1.405 . S
C125 H151 0.931 . S
U126 O127 2.454 . S
U126 O128 2.458 . S
U126 C129 2.984 . S
U126 C130 2.847 . S
U126 C143 2.882 . S
U126 O144 2.441 . S
U126 O145 2.420 . S
U126 O146 2.455 . S
U126 O147 2.449 . S
O127 U126 2.454 . S
O127 C129 1.353 . S
O128 U126 2.458 . S
O128 C129 1.286 . S
C129 U126 2.984 . S
C129 O127 1.353 . S
C129 O128 1.286 . S
C129 C131 1.363 . S
C130 C120 1.465 . S
C130 U126 2.847 . S
C130 O144 1.249 . S
C130 O145 1.202 . S
C131 C129 1.363 . S
C131 C133 1.408 . S
C131 C136 1.342 . S
C132 C133 1.310 . S
C132 C135 1.461 . S
C132 H152 0.932 . S
C133 C131 1.408 . S
C133 C132 1.310 . S
C133 H153 0.930 . S
C134 C135 1.474 . S
C134 C136 1.285 . S
C134 H154 0.929 . S
C135 C132 1.461 . S
C135 C134 1.474 . S
C136 C131 1.342 . S
C136 C134 1.285 . S
C136 H155 0.930 . S
C137 C140 1.424 . S
C137 C142 1.245 . S
C137 C143 1.428 . S
C138 C141 1.260 . S
C138 C142 1.477 . S
C138 H156 0.932 . S
C139 C140 1.384 . S
C139 C141 1.479 . S
C139 H157 0.929 . S
C140 C137 1.424 . S
C140 C139 1.384 . S
C140 H158 0.928 . S
C141 C138 1.260 . S
C141 C139 1.479 . S
C142 C137 1.245 . S
C142 C138 1.477 . S
C142 H159 0.932 . S
C143 U126 2.882 . S
C143 C137 1.428 . S
C143 O146 1.301 . S
C143 O147 1.282 . S
O144 U126 2.441 . S
O144 C130 1.249 . S
O145 U126 2.420 . S
O145 C130 1.202 . S
O146 U126 2.455 . S
O146 C143 1.301 . S
O147 U126 2.449 . S
O147 C143 1.282 . S
H148 C121 0.931 . S
H149 C123 0.929 . S
H150 C124 0.930 . S
H151 C125 0.931 . S
H152 C132 0.932 . S
H153 C133 0.930 . S
H154 C134 0.929 . S
H155 C136 0.930 . S
H156 C138 0.932 . S
H157 C139 0.929 . S
H158 C140 0.928 . S
H159 C142 0.932 . S
C160 C161 1.264 . S
C160 C165 1.479 . S
C160 C170 1.465 . S
C161 C160 1.264 . S
C161 C163 1.339 . S
C161 H188 0.931 . S
C162 C163 1.395 . S
C162 C164 1.320 . S
C163 C161 1.339 . S
C163 C162 1.395 . S
C163 H189 0.929 . S
C164 C162 1.320 . S
C164 C165 1.405 . S
C164 H190 0.930 . S
C165 C160 1.479 . S
C165 C164 1.405 . S
C165 H191 0.931 . S
U166 O167 2.454 . S
U166 O168 2.458 . S
U166 C169 2.984 . S
U166 C170 2.847 . S
U166 C183 2.882 . S
U166 O184 2.441 . S
U166 O185 2.420 . S
U166 O186 2.455 . S
U166 O187 2.449 . S
O167 U166 2.454 . S
O167 C169 1.353 . S
O168 U166 2.458 . S
O168 C169 1.286 . S
C169 U166 2.984 . S
C169 O167 1.353 . S
C169 O168 1.286 . S
C169 C171 1.363 . S
C170 C160 1.465 . S
C170 U166 2.847 . S
C170 O184 1.249 . S
C170 O185 1.202 . S
C171 C169 1.363 . S
C171 C173 1.408 . S
C171 C176 1.342 . S
C172 C173 1.310 . S
C172 C175 1.461 . S
C172 H192 0.932 . S
C173 C171 1.408 . S
C173 C172 1.310 . S
C173 H193 0.930 . S
C174 C175 1.474 . S
C174 C176 1.285 . S
C174 H194 0.929 . S
C175 C172 1.461 . S
C175 C174 1.474 . S
C176 C171 1.342 . S
C176 C174 1.285 . S
C176 H195 0.930 . S
C177 C180 1.424 . S
C177 C182 1.245 . S
C177 C183 1.428 . S
C178 C181 1.260 . S
C178 C182 1.477 . S
C178 H196 0.932 . S
C179 C180 1.384 . S
C179 C181 1.479 . S
C179 H197 0.929 . S
C180 C177 1.424 . S
C180 C179 1.384 . S
C180 H198 0.928 . S
C181 C178 1.260 . S
C181 C179 1.479 . S
C182 C177 1.245 . S
C182 C178 1.477 . S
C182 H199 0.932 . S
C183 U166 2.882 . S
C183 C177 1.428 . S
C183 O186 1.301 . S
C183 O187 1.282 . S
O184 U166 2.441 . S
O184 C170 1.249 . S
O185 U166 2.420 . S
O185 C170 1.202 . S
O186 U166 2.455 . S
O186 C183 1.301 . S
O187 U166 2.449 . S
O187 C183 1.282 . S
H188 C161 0.931 . S
H189 C163 0.929 . S
H190 C164 0.930 . S
H191 C165 0.931 . S
H192 C172 0.932 . S
H193 C173 0.930 . S
H194 C174 0.929 . S
H195 C176 0.930 . S
H196 C178 0.932 . S
H197 C179 0.929 . S
H198 C180 0.928 . S
H199 C182 0.932 . S
C200 C201 1.264 . S
C200 C205 1.479 . S
C200 C210 1.465 . S
C201 C200 1.264 . S
C201 C203 1.339 . S
C201 H228 0.931 . S
C202 C203 1.395 . S
C202 C204 1.320 . S
C203 C201 1.339 . S
C203 C202 1.395 . S
C203 H229 0.933 . S
C204 C202 1.320 . S
C204 C205 1.405 . S
C204 H230 0.930 . S
C205 C200 1.479 . S
C205 C204 1.405 . S
C205 H231 0.931 . S
U206 O207 2.454 . S
U206 O208 2.458 . S
U206 C209 2.984 . S
U206 C210 2.847 . S
U206 C223 2.882 . S
U206 O224 2.441 . S
U206 O225 2.420 . S
U206 O226 2.455 . S
U206 O227 2.449 . S
O207 U206 2.454 . S
O207 C209 1.353 . S
O208 U206 2.458 . S
O208 C209 1.286 . S
C209 U206 2.984 . S
C209 O207 1.353 . S
C209 O208 1.286 . S
C209 C211 1.363 . S
C210 C200 1.465 . S
C210 U206 2.847 . S
C210 O224 1.249 . S
C210 O225 1.202 . S
C211 C209 1.363 . S
C211 C213 1.408 . S
C211 C216 1.342 . S
C212 C213 1.310 . S
C212 C215 1.461 . S
C212 H232 0.932 . S
C213 C211 1.408 . S
C213 C212 1.310 . S
C213 H233 0.930 . S
C214 C215 1.474 . S
C214 C216 1.285 . S
C214 H234 0.929 . S
C215 C212 1.461 . S
C215 C214 1.474 . S
C216 C211 1.342 . S
C216 C214 1.285 . S
C216 H235 0.930 . S
C217 C220 1.424 . S
C217 C222 1.245 . S
C217 C223 1.428 . S
C218 C221 1.260 . S
C218 C222 1.477 . S
C218 H236 0.932 . S
C219 C220 1.384 . S
C219 C221 1.479 . S
C219 H237 0.929 . S
C220 C217 1.424 . S
C220 C219 1.384 . S
C220 H238 0.928 . S
C221 C218 1.260 . S
C221 C219 1.479 . S
C222 C217 1.245 . S
C222 C218 1.477 . S
C222 H239 0.932 . S
C223 U206 2.882 . S
C223 C217 1.428 . S
C223 O226 1.301 . S
C223 O227 1.282 . S
O224 U206 2.441 . S
O224 C210 1.249 . S
O225 U206 2.420 . S
O225 C210 1.202 . S
O226 U206 2.455 . S
O226 C223 1.301 . S
O227 U206 2.449 . S
O227 C223 1.282 . S
H228 C201 0.931 . S
H229 C203 0.933 . S
H230 C204 0.930 . S
H231 C205 0.931 . S
H232 C212 0.932 . S
H233 C213 0.930 . S
H234 C214 0.929 . S
H235 C216 0.930 . S
H236 C218 0.932 . S
H237 C219 0.929 . S
H238 C220 0.928 . S
H239 C222 0.932 . S
C240 C241 1.264 . S
C240 C245 1.479 . S
C240 C250 1.465 . S
C241 C240 1.264 . S
C241 C243 1.339 . S
C241 H268 0.931 . S
C242 C243 1.395 . S
C242 C244 1.320 . S
C243 C241 1.339 . S
C243 C242 1.395 . S
C243 H269 0.929 . S
C244 C242 1.320 . S
C244 C245 1.405 . S
C244 H270 0.930 . S
C245 C240 1.479 . S
C245 C244 1.405 . S
C245 H271 0.931 . S
U246 O247 2.454 . S
U246 O248 2.458 . S
U246 C249 2.984 . S
U246 C250 2.847 . S
U246 C263 2.882 . S
U246 O264 2.441 . S
U246 O265 2.420 . S
U246 O266 2.455 . S
U246 O267 2.449 . S
O247 U246 2.454 . S
O247 C249 1.353 . S
O248 U246 2.458 . S
O248 C249 1.286 . S
C249 U246 2.984 . S
C249 O247 1.353 . S
C249 O248 1.286 . S
C249 C251 1.363 . S
C250 C240 1.465 . S
C250 U246 2.847 . S
C250 O264 1.249 . S
C250 O265 1.202 . S
C251 C249 1.363 . S
C251 C253 1.408 . S
C251 C256 1.342 . S
C252 C253 1.310 . S
C252 C255 1.461 . S
C252 H272 0.932 . S
C253 C251 1.408 . S
C253 C252 1.310 . S
C253 H273 0.930 . S
C254 C255 1.474 . S
C254 C256 1.285 . S
C254 H274 0.929 . S
C255 C252 1.461 . S
C255 C254 1.474 . S
C256 C251 1.342 . S
C256 C254 1.285 . S
C256 H275 0.930 . S
C257 C260 1.424 . S
C257 C262 1.245 . S
C257 C263 1.428 . S
C258 C261 1.260 . S
C258 C262 1.477 . S
C258 H276 0.932 . S
C259 C260 1.384 . S
C259 C261 1.479 . S
C259 H277 0.929 . S
C260 C257 1.424 . S
C260 C259 1.384 . S
C260 H278 0.928 . S
C261 C258 1.260 . S
C261 C259 1.479 . S
C262 C257 1.245 . S
C262 C258 1.477 . S
C262 H279 0.932 . S
C263 U246 2.882 . S
C263 C257 1.428 . S
C263 O266 1.301 . S
C263 O267 1.282 . S
O264 U246 2.441 . S
O264 C250 1.249 . S
O265 U246 2.420 . S
O265 C250 1.202 . S
O266 U246 2.455 . S
O266 C263 1.301 . S
O267 U246 2.449 . S
O267 C263 1.282 . S
H268 C241 0.931 . S
H269 C243 0.929 . S
H270 C244 0.930 . S
H271 C245 0.931 . S
H272 C252 0.932 . S
H273 C253 0.930 . S
H274 C254 0.929 . S
H275 C256 0.930 . S
H276 C258 0.932 . S
H277 C259 0.929 . S
H278 C260 0.928 . S
H279 C262 0.932 . S
C280 C281 1.264 . S
C280 C285 1.479 . S
C280 C290 1.465 . S
C281 C280 1.264 . S
C281 C283 1.339 . S
C281 H308 0.931 . S
C282 C283 1.395 . S
C282 C284 1.320 . S
C283 C281 1.339 . S
C283 C282 1.395 . S
C283 H309 0.929 . S
C284 C282 1.320 . S
C284 C285 1.405 . S
C284 H310 0.930 . S
C285 C280 1.479 . S
C285 C284 1.405 . S
C285 H311 0.931 . S
U286 O287 2.454 . S
U286 O288 2.458 . S
U286 C289 2.984 . S
U286 C290 2.847 . S
U286 C303 2.882 . S
U286 O304 2.441 . S
U286 O305 2.420 . S
U286 O306 2.455 . S
U286 O307 2.449 . S
O287 U286 2.454 . S
O287 C289 1.353 . S
O288 U286 2.458 . S
O288 C289 1.286 . S
C289 U286 2.984 . S
C289 O287 1.353 . S
C289 O288 1.286 . S
C289 C291 1.363 . S
C290 C280 1.465 . S
C290 U286 2.847 . S
C290 O304 1.249 . S
C290 O305 1.202 . S
C291 C289 1.363 . S
C291 C293 1.408 . S
C291 C296 1.342 . S
C292 C293 1.310 . S
C292 C295 1.461 . S
C292 H312 0.932 . S
C293 C291 1.408 . S
C293 C292 1.310 . S
C293 H313 0.930 . S
C294 C295 1.474 . S
C294 C296 1.285 . S
C294 H314 0.929 . S
C295 C292 1.461 . S
C295 C294 1.474 . S
C296 C291 1.342 . S
C296 C294 1.285 . S
C296 H315 0.930 . S
C297 C300 1.424 . S
C297 C302 1.245 . S
C297 C303 1.428 . S
C298 C301 1.260 . S
C298 C302 1.477 . S
C298 H316 0.932 . S
C299 C300 1.384 . S
C299 C301 1.479 . S
C299 H317 0.929 . S
C300 C297 1.424 . S
C300 C299 1.384 . S
C300 H318 0.928 . S
C301 C298 1.260 . S
C301 C299 1.479 . S
C302 C297 1.245 . S
C302 C298 1.477 . S
C302 H319 0.932 . S
C303 U286 2.882 . S
C303 C297 1.428 . S
C303 O306 1.301 . S
C303 O307 1.282 . S
O304 U286 2.441 . S
O304 C290 1.249 . S
O305 U286 2.420 . S
O305 C290 1.202 . S
O306 U286 2.455 . S
O306 C303 1.301 . S
O307 U286 2.449 . S
O307 C303 1.282 . S
H308 C281 0.931 . S
H309 C283 0.929 . S
H310 C284 0.930 . S
H311 C285 0.931 . S
H312 C292 0.932 . S
H313 C293 0.930 . S
H314 C294 0.929 . S
H315 C296 0.930 . S
H316 C298 0.932 . S
H317 C299 0.929 . S
H318 C300 0.928 . S
H319 C302 0.932 . S
C320 C321 1.264 . S
C320 C325 1.479 . S
C320 C330 1.465 . S
C321 C320 1.264 . S
C321 C323 1.339 . S
C321 H348 0.931 . S
C322 C323 1.395 . S
C322 C324 1.320 . S
C323 C321 1.339 . S
C323 C322 1.395 . S
C323 H349 0.929 . S
C324 C322 1.320 . S
C324 C325 1.405 . S
C324 H350 0.930 . S
C325 C320 1.479 . S
C325 C324 1.405 . S
C325 H351 0.931 . S
U326 O327 2.454 . S
U326 O328 2.458 . S
U326 C329 2.984 . S
U326 C330 2.847 . S
U326 C343 2.882 . S
U326 O344 2.441 . S
U326 O345 2.420 . S
U326 O346 2.455 . S
U326 O347 2.449 . S
O327 U326 2.454 . S
O327 C329 1.353 . S
O328 U326 2.458 . S
O328 C329 1.286 . S
C329 U326 2.984 . S
C329 O327 1.353 . S
C329 O328 1.286 . S
C329 C331 1.363 . S
C330 C320 1.465 . S
C330 U326 2.847 . S
C330 O344 1.249 . S
C330 O345 1.202 . S
C331 C329 1.363 . S
C331 C333 1.408 . S
C331 C336 1.342 . S
C332 C333 1.310 . S
C332 C335 1.461 . S
C332 H352 0.932 . S
C333 C331 1.408 . S
C333 C332 1.310 . S
C333 H353 0.930 . S
C334 C335 1.474 . S
C334 C336 1.285 . S
C334 H354 0.929 . S
C335 C332 1.461 . S
C335 C334 1.474 . S
C336 C331 1.342 . S
C336 C334 1.285 . S
C336 H355 0.930 . S
C337 C340 1.424 . S
C337 C342 1.245 . S
C337 C343 1.428 . S
C338 C341 1.260 . S
C338 C342 1.477 . S
C338 H356 0.932 . S
C339 C340 1.384 . S
C339 C341 1.479 . S
C339 H357 0.929 . S
C340 C337 1.424 . S
C340 C339 1.384 . S
C340 H358 0.928 . S
C341 C338 1.260 . S
C341 C339 1.479 . S
C342 C337 1.245 . S
C342 C338 1.477 . S
C342 H359 0.932 . S
C343 U326 2.882 . S
C343 C337 1.428 . S
C343 O346 1.301 . S
C343 O347 1.282 . S
O344 U326 2.441 . S
O344 C330 1.249 . S
O345 U326 2.420 . S
O345 C330 1.202 . S
O346 U326 2.455 . S
O346 C343 1.301 . S
O347 U326 2.449 . S
O347 C343 1.282 . S
H348 C321 0.931 . S
H349 C323 0.929 . S
H350 C324 0.930 . S
H351 C325 0.931 . S
H352 C332 0.932 . S
H353 C333 0.930 . S
H354 C334 0.929 . S
H355 C336 0.930 . S
H356 C338 0.932 . S
H357 C339 0.929 . S
H358 C340 0.928 . S
H359 C342 0.932 . S
C360 C361 1.264 . S
C360 C365 1.479 . S
C360 C370 1.465 . S
C361 C360 1.264 . S
C361 C363 1.339 . S
C361 H388 0.931 . S
C362 C363 1.395 . S
C362 C364 1.320 . S
C363 C361 1.339 . S
C363 C362 1.395 . S
C363 H389 0.929 . S
C364 C362 1.320 . S
C364 C365 1.405 . S
C364 H390 0.930 . S
C365 C360 1.479 . S
C365 C364 1.405 . S
C365 H391 0.931 . S
U366 O367 2.454 . S
U366 O368 2.458 . S
U366 C369 2.984 . S
U366 C370 2.847 . S
U366 C383 2.882 . S
U366 O384 2.441 . S
U366 O385 2.420 . S
U366 O386 2.455 . S
U366 O387 2.449 . S
O367 U366 2.454 . S
O367 C369 1.353 . S
O368 U366 2.458 . S
O368 C369 1.286 . S
C369 U366 2.984 . S
C369 O367 1.353 . S
C369 O368 1.286 . S
C369 C371 1.363 . S
C370 C360 1.465 . S
C370 U366 2.847 . S
C370 O384 1.249 . S
C370 O385 1.202 . S
C371 C369 1.363 . S
C371 C373 1.408 . S
C371 C376 1.342 . S
C372 C373 1.310 . S
C372 C375 1.461 . S
C372 H392 0.932 . S
C373 C371 1.408 . S
C373 C372 1.310 . S
C373 H393 0.930 . S
C374 C375 1.474 . S
C374 C376 1.285 . S
C374 H394 0.929 . S
C375 C372 1.461 . S
C375 C374 1.474 . S
C376 C371 1.342 . S
C376 C374 1.285 . S
C376 H395 0.930 . S
C377 C380 1.424 . S
C377 C382 1.245 . S
C377 C383 1.428 . S
C378 C381 1.260 . S
C378 C382 1.477 . S
C378 H396 0.932 . S
C379 C380 1.384 . S
C379 C381 1.479 . S
C379 H397 0.929 . S
C380 C377 1.424 . S
C380 C379 1.384 . S
C380 H398 0.928 . S
C381 C378 1.260 . S
C381 C379 1.479 . S
C382 C377 1.245 . S
C382 C378 1.477 . S
C382 H399 0.932 . S
C383 U366 2.882 . S
C383 C377 1.428 . S
C383 O386 1.301 . S
C383 O387 1.282 . S
O384 U366 2.441 . S
O384 C370 1.249 . S
O385 U366 2.420 . S
O385 C370 1.202 . S
O386 U366 2.455 . S
O386 C383 1.301 . S
O387 U366 2.449 . S
O387 C383 1.282 . S
H388 C361 0.931 . S
H389 C363 0.929 . S
H390 C364 0.930 . S
H391 C365 0.931 . S
H392 C372 0.932 . S
H393 C373 0.930 . S
H394 C374 0.929 . S
H395 C376 0.930 . S
H396 C378 0.932 . S
H397 C379 0.929 . S
H398 C380 0.928 . S
H399 C382 0.932 . S
C400 C401 1.264 . S
C400 C405 1.479 . S
C400 C410 1.465 . S
C401 C400 1.264 . S
C401 C403 1.339 . S
C401 H428 0.931 . S
C402 C403 1.395 . S
C402 C404 1.320 . S
C403 C401 1.339 . S
C403 C402 1.395 . S
C403 H429 0.929 . S
C404 C402 1.320 . S
C404 C405 1.405 . S
C404 H430 0.930 . S
C405 C400 1.479 . S
C405 C404 1.405 . S
C405 H431 0.931 . S
U406 O407 2.454 . S
U406 O408 2.458 . S
U406 C409 2.984 . S
U406 C410 2.847 . S
U406 C423 2.882 . S
U406 O424 2.441 . S
U406 O425 2.420 . S
U406 O426 2.455 . S
U406 O427 2.449 . S
O407 U406 2.454 . S
O407 C409 1.353 . S
O408 U406 2.458 . S
O408 C409 1.286 . S
C409 U406 2.984 . S
C409 O407 1.353 . S
C409 O408 1.286 . S
C409 C411 1.363 . S
C410 C400 1.465 . S
C410 U406 2.847 . S
C410 O424 1.249 . S
C410 O425 1.202 . S
C411 C409 1.363 . S
C411 C413 1.408 . S
C411 C416 1.342 . S
C412 C413 1.310 . S
C412 C415 1.461 . S
C412 H432 0.932 . S
C413 C411 1.408 . S
C413 C412 1.310 . S
C413 H433 0.930 . S
C414 C415 1.474 . S
C414 C416 1.285 . S
C414 H434 0.929 . S
C415 C412 1.461 . S
C415 C414 1.474 . S
C416 C411 1.342 . S
C416 C414 1.285 . S
C416 H435 0.930 . S
C417 C420 1.424 . S
C417 C422 1.245 . S
C417 C423 1.428 . S
C418 C421 1.260 . S
C418 C422 1.477 . S
C418 H436 0.932 . S
C419 C420 1.384 . S
C419 C421 1.479 . S
C419 H437 0.929 . S
C420 C417 1.424 . S
C420 C419 1.384 . S
C420 H438 0.928 . S
C421 C418 1.260 . S
C421 C419 1.479 . S
C422 C417 1.245 . S
C422 C418 1.477 . S
C422 H439 0.932 . S
C423 U406 2.882 . S
C423 C417 1.428 . S
C423 O426 1.301 . S
C423 O427 1.282 . S
O424 U406 2.441 . S
O424 C410 1.249 . S
O425 U406 2.420 . S
O425 C410 1.202 . S
O426 U406 2.455 . S
O426 C423 1.301 . S
O427 U406 2.449 . S
O427 C423 1.282 . S
H428 C401 0.931 . S
H429 C403 0.929 . S
H430 C404 0.930 . S
H431 C405 0.931 . S
H432 C412 0.932 . S
H433 C413 0.930 . S
H434 C414 0.929 . S
H435 C416 0.930 . S
H436 C418 0.932 . S
H437 C419 0.929 . S
H438 C420 0.928 . S
H439 C422 0.932 . S
C440 C441 1.264 . S
C440 C445 1.479 . S
C440 C450 1.465 . S
C441 C440 1.264 . S
C441 C443 1.339 . S
C441 H468 0.931 . S
C442 C443 1.395 . S
C442 C444 1.320 . S
C443 C441 1.339 . S
C443 C442 1.395 . S
C443 H469 0.929 . S
C444 C442 1.320 . S
C444 C445 1.405 . S
C444 H470 0.930 . S
C445 C440 1.479 . S
C445 C444 1.405 . S
C445 H471 0.931 . S
U446 O447 2.454 . S
U446 O448 2.458 . S
U446 C449 2.984 . S
U446 C450 2.847 . S
U446 C463 2.882 . S
U446 O464 2.441 . S
U446 O465 2.420 . S
U446 O466 2.455 . S
U446 O467 2.449 . S
O447 U446 2.454 . S
O447 C449 1.353 . S
O448 U446 2.458 . S
O448 C449 1.286 . S
C449 U446 2.984 . S
C449 O447 1.353 . S
C449 O448 1.286 . S
C449 C451 1.363 . S
C450 C440 1.465 . S
C450 U446 2.847 . S
C450 O464 1.249 . S
C450 O465 1.202 . S
C451 C449 1.363 . S
C451 C453 1.408 . S
C451 C456 1.342 . S
C452 C453 1.310 . S
C452 C455 1.461 . S
C452 H472 0.932 . S
C453 C451 1.408 . S
C453 C452 1.310 . S
C453 H473 0.930 . S
C454 C455 1.474 . S
C454 C456 1.285 . S
C454 H474 0.929 . S
C455 C452 1.461 . S
C455 C454 1.474 . S
C456 C451 1.342 . S
C456 C454 1.285 . S
C456 H475 0.930 . S
C457 C460 1.424 . S
C457 C462 1.245 . S
C457 C463 1.428 . S
C458 C461 1.260 . S
C458 C462 1.477 . S
C458 H476 0.932 . S
C459 C460 1.384 . S
C459 C461 1.479 . S
C459 H477 0.929 . S
C460 C457 1.424 . S
C460 C459 1.384 . S
C460 H478 0.928 . S
C461 C458 1.260 . S
C461 C459 1.479 . S
C462 C457 1.245 . S
C462 C458 1.477 . S
C462 H479 0.932 . S
C463 U446 2.882 . S
C463 C457 1.428 . S
C463 O466 1.301 . S
C463 O467 1.282 . S
O464 U446 2.441 . S
O464 C450 1.249 . S
O465 U446 2.420 . S
O465 C450 1.202 . S
O466 U446 2.455 . S
O466 C463 1.301 . S
O467 U446 2.449 . S
O467 C463 1.282 . S
H468 C441 0.931 . S
H469 C443 0.929 . S
H470 C444 0.930 . S
H471 C445 0.931 . S
H472 C452 0.932 . S
H473 C453 0.930 . S
H474 C454 0.929 . S
H475 C456 0.930 . S
H476 C458 0.932 . S
H477 C459 0.929 . S
H478 C460 0.928 . S
H479 C462 0.932 . S
C480 C481 1.264 . S
C480 C485 1.479 . S
C480 C490 1.465 . S
C481 C480 1.264 . S
C481 C483 1.339 . S
C481 H508 0.931 . S
C482 C483 1.395 . S
C482 C484 1.320 . S
C483 C481 1.339 . S
C483 C482 1.395 . S
C483 H509 0.929 . S
C484 C482 1.320 . S
C484 C485 1.405 . S
C484 H510 0.930 . S
C485 C480 1.479 . S
C485 C484 1.405 . S
C485 H511 0.931 . S
U486 O487 2.454 . S
U486 O488 2.458 . S
U486 C489 2.984 . S
U486 C490 2.847 . S
U486 C503 2.882 . S
U486 O504 2.441 . S
U486 O505 2.420 . S
U486 O506 2.455 . S
U486 O507 2.449 . S
O487 U486 2.454 . S
O487 C489 1.353 . S
O488 U486 2.458 . S
O488 C489 1.286 . S
C489 U486 2.984 . S
C489 O487 1.353 . S
C489 O488 1.286 . S
C489 C491 1.363 . S
C490 C480 1.465 . S
C490 U486 2.847 . S
C490 O504 1.249 . S
C490 O505 1.202 . S
C491 C489 1.363 . S
C491 C493 1.408 . S
C491 C496 1.342 . S
C492 C493 1.310 . S
C492 C495 1.461 . S
C492 H512 0.932 . S
C493 C491 1.408 . S
C493 C492 1.310 . S
C493 H513 0.930 . S
C494 C495 1.474 . S
C494 C496 1.285 . S
C494 H514 0.929 . S
C495 C492 1.461 . S
C495 C494 1.474 . S
C496 C491 1.342 . S
C496 C494 1.285 . S
C496 H515 0.930 . S
C497 C500 1.424 . S
C497 C502 1.245 . S
C497 C503 1.428 . S
C498 C501 1.260 . S
C498 C502 1.477 . S
C498 H516 0.932 . S
C499 C500 1.384 . S
C499 C501 1.479 . S
C499 H517 0.929 . S
C500 C497 1.424 . S
C500 C499 1.384 . S
C500 H518 0.928 . S
C501 C498 1.260 . S
C501 C499 1.479 . S
C502 C497 1.245 . S
C502 C498 1.477 . S
C502 H519 0.932 . S
C503 U486 2.882 . S
C503 C497 1.428 . S
C503 O506 1.301 . S
C503 O507 1.282 . S
O504 U486 2.441 . S
O504 C490 1.249 . S
O505 U486 2.420 . S
O505 C490 1.202 . S
O506 U486 2.455 . S
O506 C503 1.301 . S
O507 U486 2.449 . S
O507 C503 1.282 . S
H508 C481 0.931 . S
H509 C483 0.929 . S
H510 C484 0.930 . S
H511 C485 0.931 . S
H512 C492 0.932 . S
H513 C493 0.930 . S
H514 C494 0.929 . S
H515 C496 0.930 . S
H516 C498 0.932 . S
H517 C499 0.929 . S
H518 C500 0.928 . S
H519 C502 0.932 . S
C520 C521 1.264 . S
C520 C525 1.479 . S
C520 C530 1.465 . S
C521 C520 1.264 . S
C521 C523 1.339 . S
C521 H548 0.931 . S
C522 C523 1.395 . S
C522 C524 1.320 . S
C523 C521 1.339 . S
C523 C522 1.395 . S
C523 H549 0.929 . S
C524 C522 1.320 . S
C524 C525 1.405 . S
C524 H550 0.930 . S
C525 C520 1.479 . S
C525 C524 1.405 . S
C525 H551 0.931 . S
U526 O527 2.454 . S
U526 O528 2.458 . S
U526 C529 2.984 . S
U526 C530 2.847 . S
U526 C543 2.882 . S
U526 O544 2.441 . S
U526 O545 2.420 . S
U526 O546 2.455 . S
U526 O547 2.449 . S
O527 U526 2.454 . S
O527 C529 1.353 . S
O528 U526 2.458 . S
O528 C529 1.286 . S
C529 U526 2.984 . S
C529 O527 1.353 . S
C529 O528 1.286 . S
C529 C531 1.363 . S
C530 C520 1.465 . S
C530 U526 2.847 . S
C530 O544 1.249 . S
C530 O545 1.202 . S
C531 C529 1.363 . S
C531 C533 1.408 . S
C531 C536 1.342 . S
C532 C533 1.310 . S
C532 C535 1.461 . S
C532 H552 0.932 . S
C533 C531 1.408 . S
C533 C532 1.310 . S
C533 H553 0.930 . S
C534 C535 1.474 . S
C534 C536 1.285 . S
C534 H554 0.929 . S
C535 C532 1.461 . S
C535 C534 1.474 . S
C536 C531 1.342 . S
C536 C534 1.285 . S
C536 H555 0.930 . S
C537 C540 1.424 . S
C537 C542 1.245 . S
C537 C543 1.428 . S
C538 C541 1.260 . S
C538 C542 1.477 . S
C538 H556 0.932 . S
C539 C540 1.384 . S
C539 C541 1.479 . S
C539 H557 0.929 . S
C540 C537 1.424 . S
C540 C539 1.384 . S
C540 H558 0.928 . S
C541 C538 1.260 . S
C541 C539 1.479 . S
C542 C537 1.245 . S
C542 C538 1.477 . S
C542 H559 0.932 . S
C543 U526 2.882 . S
C543 C537 1.428 . S
C543 O546 1.301 . S
C543 O547 1.282 . S
O544 U526 2.441 . S
O544 C530 1.249 . S
O545 U526 2.420 . S
O545 C530 1.202 . S
O546 U526 2.455 . S
O546 C543 1.301 . S
O547 U526 2.449 . S
O547 C543 1.282 . S
H548 C521 0.931 . S
H549 C523 0.929 . S
H550 C524 0.930 . S
H551 C525 0.931 . S
H552 C532 0.932 . S
H553 C533 0.930 . S
H554 C534 0.929 . S
H555 C536 0.930 . S
H556 C538 0.932 . S
H557 C539 0.929 . S
H558 C540 0.928 . S
H559 C542 0.932 . S
C560 C561 1.264 . S
C560 C565 1.479 . S
C560 C570 1.465 . S
C561 C560 1.264 . S
C561 C563 1.339 . S
C561 H588 0.931 . S
C562 C563 1.395 . S
C562 C564 1.320 . S
C563 C561 1.339 . S
C563 C562 1.395 . S
C563 H589 0.929 . S
C564 C562 1.320 . S
C564 C565 1.405 . S
C564 H590 0.930 . S
C565 C560 1.479 . S
C565 C564 1.405 . S
C565 H591 0.931 . S
U566 O567 2.454 . S
U566 O568 2.458 . S
U566 C569 2.984 . S
U566 C570 2.847 . S
U566 C583 2.882 . S
U566 O584 2.441 . S
U566 O585 2.420 . S
U566 O586 2.455 . S
U566 O587 2.449 . S
O567 U566 2.454 . S
O567 C569 1.353 . S
O568 U566 2.458 . S
O568 C569 1.286 . S
C569 U566 2.984 . S
C569 O567 1.353 . S
C569 O568 1.286 . S
C569 C571 1.363 . S
C570 C560 1.465 . S
C570 U566 2.847 . S
C570 O584 1.249 . S
C570 O585 1.202 . S
C571 C569 1.363 . S
C571 C573 1.408 . S
C571 C576 1.342 . S
C572 C573 1.310 . S
C572 C575 1.461 . S
C572 H592 0.932 . S
C573 C571 1.408 . S
C573 C572 1.310 . S
C573 H593 0.930 . S
C574 C575 1.474 . S
C574 C576 1.285 . S
C574 H594 0.929 . S
C575 C572 1.461 . S
C575 C574 1.474 . S
C576 C571 1.342 . S
C576 C574 1.285 . S
C576 H595 0.930 . S
C577 C580 1.424 . S
C577 C582 1.245 . S
C577 C583 1.428 . S
C578 C581 1.260 . S
C578 C582 1.477 . S
C578 H596 0.932 . S
C579 C580 1.384 . S
C579 C581 1.479 . S
C579 H597 0.929 . S
C580 C577 1.424 . S
C580 C579 1.384 . S
C580 H598 0.928 . S
C581 C578 1.260 . S
C581 C579 1.479 . S
C582 C577 1.245 . S
C582 C578 1.477 . S
C582 H599 0.932 . S
C583 U566 2.882 . S
C583 C577 1.428 . S
C583 O586 1.301 . S
C583 O587 1.282 . S
O584 U566 2.441 . S
O584 C570 1.249 . S
O585 U566 2.420 . S
O585 C570 1.202 . S
O586 U566 2.455 . S
O586 C583 1.301 . S
O587 U566 2.449 . S
O587 C583 1.282 . S
H588 C561 0.931 . S
H589 C563 0.929 . S
H590 C564 0.930 . S
H591 C565 0.931 . S
H592 C572 0.932 . S
H593 C573 0.930 . S
H594 C574 0.929 . S
H595 C576 0.930 . S
H596 C578 0.932 . S
H597 C579 0.929 . S
H598 C580 0.928 . S
H599 C582 0.932 . S
C600 C601 1.264 . S
C600 C605 1.479 . S
C600 C610 1.465 . S
C601 C600 1.264 . S
C601 C603 1.339 . S
C601 H628 0.931 . S
C602 C603 1.395 . S
C602 C604 1.320 . S
C603 C601 1.339 . S
C603 C602 1.395 . S
C603 H629 0.929 . S
C604 C602 1.320 . S
C604 C605 1.405 . S
C604 H630 0.930 . S
C605 C600 1.479 . S
C605 C604 1.405 . S
C605 H631 0.931 . S
U606 O607 2.454 . S
U606 O608 2.458 . S
U606 C609 2.984 . S
U606 C610 2.847 . S
U606 C623 2.882 . S
U606 O624 2.441 . S
U606 O625 2.420 . S
U606 O626 2.455 . S
U606 O627 2.449 . S
O607 U606 2.454 . S
O607 C609 1.353 . S
O608 U606 2.458 . S
O608 C609 1.286 . S
C609 U606 2.984 . S
C609 O607 1.353 . S
C609 O608 1.286 . S
C609 C611 1.363 . S
C610 C600 1.465 . S
C610 U606 2.847 . S
C610 O624 1.249 . S
C610 O625 1.202 . S
C611 C609 1.363 . S
C611 C613 1.408 . S
C611 C616 1.342 . S
C612 C613 1.310 . S
C612 C615 1.461 . S
C612 H632 0.932 . S
C613 C611 1.408 . S
C613 C612 1.310 . S
C613 H633 0.930 . S
C614 C615 1.474 . S
C614 C616 1.285 . S
C614 H634 0.929 . S
C615 C612 1.461 . S
C615 C614 1.474 . S
C616 C611 1.342 . S
C616 C614 1.285 . S
C616 H635 0.930 . S
C617 C620 1.424 . S
C617 C622 1.245 . S
C617 C623 1.428 . S
C618 C621 1.260 . S
C618 C622 1.477 . S
C618 H636 0.932 . S
C619 C620 1.384 . S
C619 C621 1.479 . S
C619 H637 0.929 . S
C620 C617 1.424 . S
C620 C619 1.384 . S
C620 H638 0.928 . S
C621 C618 1.260 . S
C621 C619 1.479 . S
C622 C617 1.245 . S
C622 C618 1.477 . S
C622 H639 0.932 . S
C623 U606 2.882 . S
C623 C617 1.428 . S
C623 O626 1.301 . S
C623 O627 1.282 . S
O624 U606 2.441 . S
O624 C610 1.249 . S
O625 U606 2.420 . S
O625 C610 1.202 . S
O626 U606 2.455 . S
O626 C623 1.301 . S
O627 U606 2.449 . S
O627 C623 1.282 . S
H628 C601 0.931 . S
H629 C603 0.929 . S
H630 C604 0.930 . S
H631 C605 0.931 . S
H632 C612 0.932 . S
H633 C613 0.930 . S
H634 C614 0.929 . S
H635 C616 0.930 . S
H636 C618 0.932 . S
H637 C619 0.929 . S
H638 C620 0.928 . S
H639 C622 0.932 . S
C640 C641 1.264 . S
C640 C645 1.479 . S
C640 C650 1.465 . S
C641 C640 1.264 . S
C641 C643 1.339 . S
C641 H668 0.931 . S
C642 C643 1.395 . S
C642 C644 1.320 . S
C643 C641 1.339 . S
C643 C642 1.395 . S
C643 H669 0.929 . S
C644 C642 1.320 . S
C644 C645 1.405 . S
C644 H670 0.930 . S
C645 C640 1.479 . S
C645 C644 1.405 . S
C645 H671 0.931 . S
U646 O647 2.454 . S
U646 O648 2.458 . S
U646 C649 2.984 . S
U646 C650 2.847 . S
U646 C663 2.882 . S
U646 O664 2.441 . S
U646 O665 2.420 . S
U646 O666 2.455 . S
U646 O667 2.449 . S
O647 U646 2.454 . S
O647 C649 1.353 . S
O648 U646 2.458 . S
O648 C649 1.286 . S
C649 U646 2.984 . S
C649 O647 1.353 . S
C649 O648 1.286 . S
C649 C651 1.363 . S
C650 C640 1.465 . S
C650 U646 2.847 . S
C650 O664 1.249 . S
C650 O665 1.202 . S
C651 C649 1.363 . S
C651 C653 1.408 . S
C651 C656 1.342 . S
C652 C653 1.310 . S
C652 C655 1.461 . S
C652 H672 0.932 . S
C653 C651 1.408 . S
C653 C652 1.310 . S
C653 H673 0.930 . S
C654 C655 1.474 . S
C654 C656 1.285 . S
C654 H674 0.929 . S
C655 C652 1.461 . S
C655 C654 1.474 . S
C656 C651 1.342 . S
C656 C654 1.285 . S
C656 H675 0.930 . S
C657 C660 1.424 . S
C657 C662 1.245 . S
C657 C663 1.428 . S
C658 C661 1.260 . S
C658 C662 1.477 . S
C658 H676 0.932 . S
C659 C660 1.384 . S
C659 C661 1.479 . S
C659 H677 0.929 . S
C660 C657 1.424 . S
C660 C659 1.384 . S
C660 H678 0.928 . S
C661 C658 1.260 . S
C661 C659 1.479 . S
C662 C657 1.245 . S
C662 C658 1.477 . S
C662 H679 0.932 . S
C663 U646 2.882 . S
C663 C657 1.428 . S
C663 O666 1.301 . S
C663 O667 1.282 . S
O664 U646 2.441 . S
O664 C650 1.249 . S
O665 U646 2.420 . S
O665 C650 1.202 . S
O666 U646 2.455 . S
O666 C663 1.301 . S
O667 U646 2.449 . S
O667 C663 1.282 . S
H668 C641 0.931 . S
H669 C643 0.929 . S
H670 C644 0.930 . S
H671 C645 0.931 . S
H672 C652 0.932 . S
H673 C653 0.930 . S
H674 C654 0.929 . S
H675 C656 0.930 . S
H676 C658 0.932 . S
H677 C659 0.929 . S
H678 C660 0.928 . S
H679 C662 0.932 . S
C680 C681 1.264 . S
C680 C685 1.479 . S
C680 C690 1.465 . S
C681 C680 1.264 . S
C681 C683 1.339 . S
C681 H708 0.931 . S
C682 C683 1.395 . S
C682 C684 1.320 . S
C683 C681 1.339 . S
C683 C682 1.395 . S
C683 H709 0.929 . S
C684 C682 1.320 . S
C684 C685 1.405 . S
C684 H710 0.930 . S
C685 C680 1.479 . S
C685 C684 1.405 . S
C685 H711 0.931 . S
U686 O687 2.454 . S
U686 O688 2.458 . S
U686 C689 2.984 . S
U686 C690 2.847 . S
U686 C703 2.882 . S
U686 O704 2.441 . S
U686 O705 2.420 . S
U686 O706 2.455 . S
U686 O707 2.449 . S
O687 U686 2.454 . S
O687 C689 1.353 . S
O688 U686 2.458 . S
O688 C689 1.286 . S
C689 U686 2.984 . S
C689 O687 1.353 . S
C689 O688 1.286 . S
C689 C691 1.363 . S
C690 C680 1.465 . S
C690 U686 2.847 . S
C690 O704 1.249 . S
C690 O705 1.202 . S
C691 C689 1.363 . S
C691 C693 1.408 . S
C691 C696 1.342 . S
C692 C693 1.310 . S
C692 C695 1.461 . S
C692 H712 0.932 . S
C693 C691 1.408 . S
C693 C692 1.310 . S
C693 H713 0.930 . S
C694 C695 1.474 . S
C694 C696 1.285 . S
C694 H714 0.929 . S
C695 C692 1.461 . S
C695 C694 1.474 . S
C696 C691 1.342 . S
C696 C694 1.285 . S
C696 H715 0.930 . S
C697 C700 1.424 . S
C697 C702 1.245 . S
C697 C703 1.428 . S
C698 C701 1.260 . S
C698 C702 1.477 . S
C698 H716 0.932 . S
C699 C700 1.384 . S
C699 C701 1.479 . S
C699 H717 0.929 . S
C700 C697 1.424 . S
C700 C699 1.384 . S
C700 H718 0.928 . S
C701 C698 1.260 . S
C701 C699 1.479 . S
C702 C697 1.245 . S
C702 C698 1.477 . S
C702 H719 0.932 . S
C703 U686 2.882 . S
C703 C697 1.428 . S
C703 O706 1.301 . S
C703 O707 1.282 . S
O704 U686 2.441 . S
O704 C690 1.249 . S
O705 U686 2.420 . S
O705 C690 1.202 . S
O706 U686 2.455 . S
O706 C703 1.301 . S
O707 U686 2.449 . S
O707 C703 1.282 . S
H708 C681 0.931 . S
H709 C683 0.929 . S
H710 C684 0.930 . S
H711 C685 0.931 . S
H712 C692 0.932 . S
H713 C693 0.930 . S
H714 C694 0.929 . S
H715 C696 0.930 . S
H716 C698 0.932 . S
H717 C699 0.929 . S
H718 C700 0.928 . S
H719 C702 0.932 . S
Eu720 N751 2.657 . S
Eu720 N758 2.609 . S
Eu720 O764 2.558 . S
Eu720 O765 2.645 1_565 S
Eu720 O767 2.339 1_565 S
Eu720 O768 2.563 1_565 S
Eu720 O769 2.419 . S
Eu720 O771 2.380 1_556 S
Eu720 O772 2.432 . S
Eu720 C784 2.848 . S
C721 C724 1.429 . S
C721 C725 1.411 . S
C721 N728 1.377 . S
C722 C724 1.420 . S
C722 C726 1.423 . S
C722 C734 1.392 . S
C723 C725 1.420 . S
C723 C726 1.351 . S
C723 H746 0.931 . S
C724 C721 1.429 . S
C724 C722 1.420 . S
C724 N732 1.362 . S
C725 C721 1.411 . S
C725 C723 1.420 . S
C725 C730 1.395 . S
C726 C722 1.423 . S
C726 C723 1.351 . S
C726 H738 0.930 . S
C727 C729 1.400 . S
C727 C730 1.386 . S
C727 H739 0.930 . S
N728 C721 1.377 . S
N728 C729 1.321 . S
N728 Eu731 2.609 . S
C729 C727 1.400 . S
C729 N728 1.321 . S
C729 H736 0.930 . S
C730 C725 1.395 . S
C730 C727 1.386 . S
C730 H749 0.930 . S
Eu731 N728 2.609 . S
Eu731 N732 2.657 . S
Eu731 O765 2.327 1_554 S
Eu731 O766 2.432 . S
Eu731 O770 2.558 . S
Eu731 O771 2.612 1_545 S
Eu731 O773 2.339 1_545 S
Eu731 O774 2.563 1_545 S
Eu731 O775 2.419 . S
Eu731 C795 2.848 . S
N732 C724 1.362 . S
N732 Eu731 2.657 . S
N732 C733 1.334 . S
C733 N732 1.334 . S
C733 C735 1.413 . S
C733 H740 0.929 . S
C734 C722 1.392 . S
C734 C735 1.367 . S
C734 H742 0.930 . S
C735 C733 1.413 . S
C735 C734 1.367 . S
C735 H737 0.930 . S
H736 C729 0.930 . S
H737 C735 0.930 . S
H738 C726 0.930 . S
H739 C727 0.930 . S
H740 C733 0.929 . S
H741 C755 0.930 . S
H742 C734 0.930 . S
H743 C761 0.930 . S
H744 C752 0.929 . S
H745 C759 0.930 . S
H746 C723 0.931 . S
H747 C753 0.930 . S
H748 C786 0.930 . S
H749 C730 0.930 . S
H750 C785 0.931 . S
N751 Eu720 2.657 . S
N751 C752 1.334 . S
N751 C756 1.362 . S
C752 H744 0.929 . S
C752 N751 1.334 . S
C752 C755 1.413 . S
C753 H747 0.930 . S
C753 C754 1.392 . S
C753 C755 1.367 . S
C754 C753 1.392 . S
C754 C756 1.420 . S
C754 C786 1.423 . S
C755 H741 0.930 . S
C755 C752 1.413 . S
C755 C753 1.367 . S
C756 N751 1.362 . S
C756 C754 1.420 . S
C756 C760 1.429 . S
H757 C762 0.930 . S
N758 Eu720 2.609 . S
N758 C760 1.377 . S
N758 C761 1.321 . S
C759 H745 0.930 . S
C759 C761 1.400 . S
C759 C762 1.386 . S
C760 C756 1.429 . S
C760 N758 1.377 . S
C760 C763 1.411 . S
C761 H743 0.930 . S
C761 N758 1.321 . S
C761 C759 1.400 . S
C762 H757 0.930 . S
C762 C759 1.386 . S
C762 C763 1.395 . S
C763 C760 1.411 . S
C763 C762 1.395 . S
C763 C785 1.420 . S
O764 Eu720 2.558 . S
O764 C784 1.257 . S
O765 Eu720 2.645 1_545 S
O765 Eu731 2.327 1_556 S
O765 C776 1.319 . S
O766 Eu731 2.432 . S
O766 C783 1.264 1_554 S
O767 Eu720 2.339 1_545 S
O767 C783 1.254 . S
O768 Eu720 2.563 1_545 S
O768 C776 1.235 . S
O769 Eu720 2.419 . S
O769 C784 1.249 . S
O770 Eu731 2.558 . S
O770 C795 1.257 . S
O771 Eu720 2.380 1_554 S
O771 Eu731 2.612 1_565 S
O771 C787 1.276 . S
O772 Eu720 2.432 . S
O772 C794 1.264 1_556 S
O773 Eu731 2.339 1_565 S
O773 C794 1.254 . S
O774 Eu731 2.563 1_565 S
O774 C787 1.235 . S
O775 Eu731 2.419 . S
O775 C795 1.249 . S
C776 O765 1.319 . S
C776 O768 1.235 . S
C777 C779 1.393 1_565 S
C777 C781 1.395 . S
C777 C784 1.492 . S
C778 C779 1.392 . S
C778 C780 1.386 1_545 S
C779 C777 1.393 1_545 S
C779 C778 1.392 . S
C779 H796 0.930 . S
C780 C778 1.386 1_565 S
C780 C782 1.395 . S
C780 H797 0.930 . S
C781 C777 1.395 . S
C781 C782 1.379 . S
C781 H798 0.930 . S
C782 C780 1.395 . S
C782 C781 1.379 . S
C782 H799 0.930 . S
C783 O766 1.264 1_556 S
C783 O767 1.254 . S
C784 Eu720 2.848 . S
C784 O764 1.257 . S
C784 O769 1.249 . S
C784 C777 1.492 . S
C785 H750 0.931 . S
C785 C763 1.420 . S
C785 C786 1.351 . S
C786 H748 0.930 . S
C786 C754 1.423 . S
C786 C785 1.351 . S
C787 O771 1.276 . S
C787 O774 1.235 . S
C788 C789 1.393 1_545 S
C788 C792 1.395 . S
C788 C795 1.492 . S
C789 C788 1.393 1_565 S
C789 C790 1.392 . S
C789 H800 0.930 . S
C790 C789 1.392 . S
C790 C791 1.386 1_565 S
C791 C790 1.386 1_545 S
C791 C793 1.395 . S
C791 H801 0.930 . S
C792 C788 1.395 . S
C792 C793 1.379 . S
C792 H802 0.930 . S
C793 C791 1.395 . S
C793 C792 1.379 . S
C793 H803 0.930 . S
C794 O772 1.264 1_554 S
C794 O773 1.254 . S
C795 Eu731 2.848 . S
C795 O770 1.257 . S
C795 O775 1.249 . S
C795 C788 1.492 . S
H796 C779 0.930 . S
H797 C780 0.930 . S
H798 C781 0.930 . S
H799 C782 0.930 . S
H800 C789 0.930 . S
H801 C791 0.930 . S
H802 C792 0.930 . S
H803 C793 0.930 . S
Eu804 N835 2.657 . S
Eu804 N842 2.609 . S
Eu804 O848 2.558 . S
Eu804 O849 2.653 1_455 S
Eu804 O851 2.339 1_455 S
Eu804 O852 2.563 1_455 S
Eu804 O853 2.419 . S
Eu804 O855 2.380 1_556 S
Eu804 O856 2.432 . S
Eu804 C868 2.848 . S
C805 C808 1.429 . S
C805 C809 1.411 . S
C805 N812 1.377 . S
C806 C808 1.420 . S
C806 C810 1.423 . S
C806 C818 1.392 . S
C807 C809 1.420 . S
C807 C810 1.351 . S
C807 H830 0.931 . S
C808 C805 1.429 . S
C808 C806 1.420 . S
C808 N816 1.362 . S
C809 C805 1.411 . S
C809 C807 1.420 . S
C809 C814 1.395 . S
C810 C806 1.423 . S
C810 C807 1.351 . S
C810 H822 0.930 . S
C811 C813 1.400 . S
C811 C814 1.386 . S
C811 H823 0.930 . S
N812 C805 1.377 . S
N812 C813 1.321 . S
N812 Eu815 2.609 . S
C813 C811 1.400 . S
C813 N812 1.321 . S
C813 H820 0.930 . S
C814 C809 1.395 . S
C814 C811 1.386 . S
C814 H833 0.930 . S
Eu815 N812 2.609 . S
Eu815 N816 2.657 . S
Eu815 O849 2.313 1_554 S
Eu815 O850 2.432 . S
Eu815 O854 2.558 . S
Eu815 O855 2.612 1_655 S
Eu815 O857 2.339 1_655 S
Eu815 O858 2.563 1_655 S
Eu815 O859 2.419 . S
Eu815 C879 2.848 . S
N816 C808 1.362 . S
N816 Eu815 2.657 . S
N816 C817 1.334 . S
C817 N816 1.334 . S
C817 C819 1.413 . S
C817 H824 0.929 . S
C818 C806 1.392 . S
C818 C819 1.367 . S
C818 H826 0.930 . S
C819 C817 1.413 . S
C819 C818 1.367 . S
C819 H821 0.930 . S
H820 C813 0.930 . S
H821 C819 0.930 . S
H822 C810 0.930 . S
H823 C811 0.930 . S
H824 C817 0.929 . S
H825 C839 0.930 . S
H826 C818 0.930 . S
H827 C845 0.930 . S
H828 C836 0.929 . S
H829 C843 0.930 . S
H830 C807 0.931 . S
H831 C837 0.930 . S
H832 C870 0.930 . S
H833 C814 0.930 . S
H834 C869 0.931 . S
N835 Eu804 2.657 . S
N835 C836 1.334 . S
N835 C840 1.362 . S
C836 H828 0.929 . S
C836 N835 1.334 . S
C836 C839 1.413 . S
C837 H831 0.930 . S
C837 C838 1.392 . S
C837 C839 1.367 . S
C838 C837 1.392 . S
C838 C840 1.420 . S
C838 C870 1.423 . S
C839 H825 0.930 . S
C839 C836 1.413 . S
C839 C837 1.367 . S
C840 N835 1.362 . S
C840 C838 1.420 . S
C840 C844 1.429 . S
H841 C846 0.930 . S
N842 Eu804 2.609 . S
N842 C844 1.377 . S
N842 C845 1.321 . S
C843 H829 0.930 . S
C843 C845 1.400 . S
C843 C846 1.386 . S
C844 C840 1.429 . S
C844 N842 1.377 . S
C844 C847 1.411 . S
C845 H827 0.930 . S
C845 N842 1.321 . S
C845 C843 1.400 . S
C846 H841 0.930 . S
C846 C843 1.386 . S
C846 C847 1.395 . S
C847 C844 1.411 . S
C847 C846 1.395 . S
C847 C869 1.420 . S
O848 Eu804 2.558 . S
O848 C868 1.257 . S
O849 Eu804 2.653 1_655 S
O849 Eu815 2.313 1_556 S
O849 C860 1.331 . S
O850 Eu815 2.432 . S
O850 C867 1.264 1_554 S
O851 Eu804 2.339 1_655 S
O851 C867 1.254 . S
O852 Eu804 2.563 1_655 S
O852 C860 1.235 . S
O853 Eu804 2.419 . S
O853 C868 1.249 . S
O854 Eu815 2.558 . S
O854 C879 1.257 . S
O855 Eu804 2.380 1_554 S
O855 Eu815 2.612 1_455 S
O855 C871 1.276 . S
O856 Eu804 2.432 . S
O856 C878 1.264 1_556 S
O857 Eu815 2.339 1_455 S
O857 C878 1.254 . S
O858 Eu815 2.563 1_455 S
O858 C871 1.235 . S
O859 Eu815 2.419 . S
O859 C879 1.249 . S
C860 O849 1.331 . S
C860 O852 1.235 . S
C861 C863 1.393 1_455 S
C861 C865 1.395 . S
C861 C868 1.492 . S
C862 C863 1.392 . S
C862 C864 1.386 1_655 S
C863 C861 1.393 1_655 S
C863 C862 1.392 . S
C863 H880 0.930 . S
C864 C862 1.386 1_455 S
C864 C866 1.395 . S
C864 H881 0.930 . S
C865 C861 1.395 . S
C865 C866 1.379 . S
C865 H882 0.930 . S
C866 C864 1.395 . S
C866 C865 1.379 . S
C866 H883 0.930 . S
C867 O850 1.264 1_556 S
C867 O851 1.254 . S
C868 Eu804 2.848 . S
C868 O848 1.257 . S
C868 O853 1.249 . S
C868 C861 1.492 . S
C869 H834 0.931 . S
C869 C847 1.420 . S
C869 C870 1.351 . S
C870 H832 0.930 . S
C870 C838 1.423 . S
C870 C869 1.351 . S
C871 O855 1.276 . S
C871 O858 1.235 . S
C872 C873 1.393 1_655 S
C872 C876 1.395 . S
C872 C879 1.492 . S
C873 C872 1.393 1_455 S
C873 C874 1.392 . S
C873 H884 0.930 . S
C874 C873 1.392 . S
C874 C875 1.386 1_455 S
C875 C874 1.386 1_655 S
C875 C877 1.395 . S
C875 H885 0.930 . S
C876 C872 1.395 . S
C876 C877 1.379 . S
C876 H886 0.930 . S
C877 C875 1.395 . S
C877 C876 1.379 . S
C877 H887 0.930 . S
C878 O856 1.264 1_554 S
C878 O857 1.254 . S
C879 Eu815 2.848 . S
C879 O854 1.257 . S
C879 O859 1.249 . S
C879 C872 1.492 . S
H880 C863 0.930 . S
H881 C864 0.930 . S
H882 C865 0.930 . S
H883 C866 0.930 . S
H884 C873 0.930 . S
H885 C875 0.930 . S
H886 C876 0.930 . S
H887 C877 0.930 . S
Eu888 N919 2.657 . S
Eu888 N926 2.609 . S
Eu888 O932 2.558 . S
Eu888 O933 2.612 . S
Eu888 O935 2.339 . S
Eu888 O936 2.563 . S
Eu888 O937 2.419 . S
Eu888 O939 2.380 1_554 S
Eu888 O940 2.432 . S
Eu888 C952 2.848 . S
C889 C892 1.429 . S
C889 C893 1.411 . S
C889 N896 1.377 . S
C890 C892 1.420 . S
C890 C894 1.423 . S
C890 C902 1.392 . S
C891 C893 1.420 . S
C891 C894 1.351 . S
C891 H914 0.931 . S
C892 C889 1.429 . S
C892 C890 1.420 . S
C892 N900 1.362 . S
C893 C889 1.411 . S
C893 C891 1.420 . S
C893 C898 1.395 . S
C894 C890 1.423 . S
C894 C891 1.351 . S
C894 H906 0.930 . S
C895 C897 1.400 . S
C895 C898 1.386 . S
C895 H907 0.930 . S
N896 C889 1.377 . S
N896 C897 1.321 . S
N896 Eu899 2.609 . S
C897 C895 1.400 . S
C897 N896 1.321 . S
C897 H904 0.930 . S
C898 C893 1.395 . S
C898 C895 1.386 . S
C898 H917 0.930 . S
Eu899 N896 2.609 . S
Eu899 N900 2.657 . S
Eu899 O933 2.380 1_556 S
Eu899 O934 2.432 . S
Eu899 O938 2.558 . S
Eu899 O939 2.612 . S
Eu899 O941 2.339 . S
Eu899 O942 2.563 . S
Eu899 O943 2.419 . S
Eu899 C963 2.848 . S
N900 C892 1.362 . S
N900 Eu899 2.657 . S
N900 C901 1.334 . S
C901 N900 1.334 . S
C901 C903 1.413 . S
C901 H908 0.929 . S
C902 C890 1.392 . S
C902 C903 1.367 . S
C902 H910 0.930 . S
C903 C901 1.413 . S
C903 C902 1.367 . S
C903 H905 0.930 . S
H904 C897 0.930 . S
H905 C903 0.930 . S
H906 C894 0.930 . S
H907 C895 0.930 . S
H908 C901 0.929 . S
H909 C923 0.930 . S
H910 C902 0.930 . S
H911 C929 0.930 . S
H912 C920 0.929 . S
H913 C927 0.930 . S
H914 C891 0.931 . S
H915 C921 0.930 . S
H916 C954 0.930 . S
H917 C898 0.930 . S
H918 C953 0.931 . S
N919 Eu888 2.657 . S
N919 C920 1.334 . S
N919 C924 1.362 . S
C920 H912 0.929 . S
C920 N919 1.334 . S
C920 C923 1.413 . S
C921 H915 0.930 . S
C921 C922 1.392 . S
C921 C923 1.367 . S
C922 C921 1.392 . S
C922 C924 1.420 . S
C922 C954 1.423 . S
C923 H909 0.930 . S
C923 C920 1.413 . S
C923 C921 1.367 . S
C924 N919 1.362 . S
C924 C922 1.420 . S
C924 C928 1.429 . S
H925 C930 0.930 . S
N926 Eu888 2.609 . S
N926 C928 1.377 . S
N926 C929 1.321 . S
C927 H913 0.930 . S
C927 C929 1.400 . S
C927 C930 1.386 . S
C928 C924 1.429 . S
C928 N926 1.377 . S
C928 C931 1.411 . S
C929 H911 0.930 . S
C929 N926 1.321 . S
C929 C927 1.400 . S
C930 H925 0.930 . S
C930 C927 1.386 . S
C930 C931 1.395 . S
C931 C928 1.411 . S
C931 C930 1.395 . S
C931 C953 1.420 . S
O932 Eu888 2.558 . S
O932 C952 1.257 . S
O933 Eu888 2.612 . S
O933 Eu899 2.380 1_554 S
O933 C944 1.276 . S
O934 Eu899 2.432 . S
O934 C951 1.264 1_556 S
O935 Eu888 2.339 . S
O935 C951 1.254 . S
O936 Eu888 2.563 . S
O936 C944 1.235 . S
O937 Eu888 2.419 . S
O937 C952 1.249 . S
O938 Eu899 2.558 . S
O938 C963 1.257 . S
O939 Eu888 2.380 1_556 S
O939 Eu899 2.612 . S
O939 C955 1.276 . S
O940 Eu888 2.432 . S
O940 C962 1.264 1_554 S
O941 Eu899 2.339 . S
O941 C962 1.254 . S
O942 Eu899 2.563 . S
O942 C955 1.235 . S
O943 Eu899 2.419 . S
O943 C963 1.249 . S
C944 O933 1.276 . S
C944 O936 1.235 . S
C945 C947 1.393 . S
C945 C949 1.395 . S
C945 C952 1.492 . S
C946 C947 1.392 . S
C946 C948 1.386 . S
C947 C945 1.393 . S
C947 C946 1.392 . S
C947 H964 0.930 . S
C948 C946 1.386 . S
C948 C950 1.395 . S
C948 H965 0.930 . S
C949 C945 1.395 . S
C949 C950 1.379 . S
C949 H966 0.930 . S
C950 C948 1.395 . S
C950 C949 1.379 . S
C950 H967 0.930 . S
C951 O934 1.264 1_554 S
C951 O935 1.254 . S
C952 Eu888 2.848 . S
C952 O932 1.257 . S
C952 O937 1.249 . S
C952 C945 1.492 . S
C953 H918 0.931 . S
C953 C931 1.420 . S
C953 C954 1.351 . S
C954 H916 0.930 . S
C954 C922 1.423 . S
C954 C953 1.351 . S
C955 O939 1.276 . S
C955 O942 1.235 . S
C956 C957 1.393 . S
C956 C960 1.395 . S
C956 C963 1.492 . S
C957 C956 1.393 . S
C957 C958 1.392 . S
C957 H968 0.930 . S
C958 C957 1.392 . S
C958 C959 1.386 . S
C959 C958 1.386 . S
C959 C961 1.395 . S
C959 H969 0.930 . S
C960 C956 1.395 . S
C960 C961 1.379 . S
C960 H970 0.930 . S
C961 C959 1.395 . S
C961 C960 1.379 . S
C961 H971 0.930 . S
C962 O940 1.264 1_556 S
C962 O941 1.254 . S
C963 Eu899 2.848 . S
C963 O938 1.257 . S
C963 O943 1.249 . S
C963 C956 1.492 . S
H964 C947 0.930 . S
H965 C948 0.930 . S
H966 C949 0.930 . S
H967 C950 0.930 . S
H968 C957 0.930 . S
H969 C959 0.930 . S
H970 C960 0.930 . S
H971 C961 0.930 . S
Eu972 N1003 2.657 . S
Eu972 N1010 2.609 . S
Eu972 O1016 2.558 . S
Eu972 O1017 2.612 . S
Eu972 O1019 2.339 . S
Eu972 O1020 2.563 . S
Eu972 O1021 2.419 . S
Eu972 O1023 2.380 . S
Eu972 O1024 2.432 . S
Eu972 C1036 2.848 . S
C973 C976 1.429 . S
C973 C977 1.411 . S
C973 N980 1.377 . S
C974 C976 1.420 . S
C974 C978 1.423 . S
C974 C986 1.392 . S
C975 C977 1.420 . S
C975 C978 1.351 . S
C975 H998 0.931 . S
C976 C973 1.429 . S
C976 C974 1.420 . S
C976 N984 1.362 . S
C977 C973 1.411 . S
C977 C975 1.420 . S
C977 C982 1.395 . S
C978 C974 1.423 . S
C978 C975 1.351 . S
C978 H990 0.930 . S
C979 C981 1.400 . S
C979 C982 1.386 . S
C979 H991 0.930 . S
N980 C973 1.377 . S
N980 C981 1.321 . S
N980 Eu983 2.609 . S
C981 C979 1.400 . S
C981 N980 1.321 . S
C981 H988 0.930 . S
C982 C977 1.395 . S
C982 C979 1.386 . S
C982 H1001 0.930 . S
Eu983 N980 2.609 . S
Eu983 N984 2.657 . S
Eu983 O1017 2.380 . S
Eu983 O1018 2.432 . S
Eu983 O1022 2.558 . S
Eu983 O1023 2.612 . S
Eu983 O1025 2.339 . S
Eu983 O1026 2.563 . S
Eu983 O1027 2.419 . S
Eu983 C1047 2.848 . S
N984 C976 1.362 . S
N984 Eu983 2.657 . S
N984 C985 1.334 . S
C985 N984 1.334 . S
C985 C987 1.413 . S
C985 H992 0.929 . S
C986 C974 1.392 . S
C986 C987 1.367 . S
C986 H994 0.930 . S
C987 C985 1.413 . S
C987 C986 1.367 . S
C987 H989 0.930 . S
H988 C981 0.930 . S
H989 C987 0.930 . S
H990 C978 0.930 . S
H991 C979 0.930 . S
H992 C985 0.929 . S
H993 C1007 0.930 . S
H994 C986 0.930 . S
H995 C1013 0.930 . S
H996 C1004 0.929 . S
H997 C1011 0.930 . S
H998 C975 0.931 . S
H999 C1005 0.930 . S
H1000 C1038 0.930 . S
H1001 C982 0.930 . S
H1002 C1037 0.931 . S
N1003 Eu972 2.657 . S
N1003 C1004 1.334 . S
N1003 C1008 1.362 . S
C1004 H996 0.929 . S
C1004 N1003 1.334 . S
C1004 C1007 1.413 . S
C1005 H999 0.930 . S
C1005 C1006 1.392 . S
C1005 C1007 1.367 . S
C1006 C1005 1.392 . S
C1006 C1008 1.420 . S
C1006 C1038 1.423 . S
C1007 H993 0.930 . S
C1007 C1004 1.413 . S
C1007 C1005 1.367 . S
C1008 N1003 1.362 . S
C1008 C1006 1.420 . S
C1008 C1012 1.429 . S
H1009 C1014 0.930 . S
N1010 Eu972 2.609 . S
N1010 C1012 1.377 . S
N1010 C1013 1.321 . S
C1011 H997 0.930 . S
C1011 C1013 1.400 . S
C1011 C1014 1.386 . S
C1012 C1008 1.429 . S
C1012 N1010 1.377 . S
C1012 C1015 1.411 . S
C1013 H995 0.930 . S
C1013 N1010 1.321 . S
C1013 C1011 1.400 . S
C1014 H1009 0.930 . S
C1014 C1011 1.386 . S
C1014 C1015 1.395 . S
C1015 C1012 1.411 . S
C1015 C1014 1.395 . S
C1015 C1037 1.420 . S
O1016 Eu972 2.558 . S
O1016 C1036 1.257 . S
O1017 Eu972 2.612 . S
O1017 Eu983 2.380 . S
O1017 C1028 1.276 . S
O1018 Eu983 2.432 . S
O1018 C1035 1.264 . S
O1019 Eu972 2.339 . S
O1019 C1035 1.254 . S
O1020 Eu972 2.563 . S
O1020 C1028 1.235 . S
O1021 Eu972 2.419 . S
O1021 C1036 1.249 . S
O1022 Eu983 2.558 . S
O1022 C1047 1.257 . S
O1023 Eu972 2.380 . S
O1023 Eu983 2.612 . S
O1023 C1039 1.276 . S
O1024 Eu972 2.432 . S
O1024 C1046 1.264 . S
O1025 Eu983 2.339 . S
O1025 C1046 1.254 . S
O1026 Eu983 2.563 . S
O1026 C1039 1.235 . S
O1027 Eu983 2.419 . S
O1027 C1047 1.249 . S
C1028 O1017 1.276 . S
C1028 O1020 1.235 . S
C1029 C1031 1.393 . S
C1029 C1033 1.395 . S
C1029 C1036 1.492 . S
C1030 C1031 1.392 . S
C1030 C1032 1.386 . S
C1031 C1029 1.393 . S
C1031 C1030 1.392 . S
C1031 H1048 0.930 . S
C1032 C1030 1.386 . S
C1032 C1034 1.395 . S
C1032 H1049 0.930 . S
C1033 C1029 1.395 . S
C1033 C1034 1.379 . S
C1033 H1050 0.930 . S
C1034 C1032 1.395 . S
C1034 C1033 1.379 . S
C1034 H1051 0.930 . S
C1035 O1018 1.264 . S
C1035 O1019 1.254 . S
C1036 Eu972 2.848 . S
C1036 O1016 1.257 . S
C1036 O1021 1.249 . S
C1036 C1029 1.492 . S
C1037 H1002 0.931 . S
C1037 C1015 1.420 . S
C1037 C1038 1.351 . S
C1038 H1000 0.930 . S
C1038 C1006 1.423 . S
C1038 C1037 1.351 . S
C1039 O1023 1.276 . S
C1039 O1026 1.235 . S
C1040 C1041 1.393 . S
C1040 C1044 1.395 . S
C1040 C1047 1.492 . S
C1041 C1040 1.393 . S
C1041 C1042 1.392 . S
C1041 H1052 0.930 . S
C1042 C1041 1.392 . S
C1042 C1043 1.386 . S
C1043 C1042 1.386 . S
C1043 C1045 1.395 . S
C1043 H1053 0.930 . S
C1044 C1040 1.395 . S
C1044 C1045 1.379 . S
C1044 H1054 0.930 . S
C1045 C1043 1.395 . S
C1045 C1044 1.379 . S
C1045 H1055 0.930 . S
C1046 O1024 1.264 . S
C1046 O1025 1.254 . S
C1047 Eu983 2.848 . S
C1047 O1022 1.257 . S
C1047 O1027 1.249 . S
C1047 C1040 1.492 . S
H1048 C1031 0.930 . S
H1049 C1032 0.930 . S
H1050 C1033 0.930 . S
H1051 C1034 0.930 . S
H1052 C1041 0.930 . S
H1053 C1043 0.930 . S
H1054 C1044 0.930 . S
H1055 C1045 0.930 . S
Eu1056 N1087 2.657 . S
Eu1056 N1094 2.609 . S
Eu1056 O1100 2.558 . S
Eu1056 O1101 2.612 . S
Eu1056 O1103 2.339 . S
Eu1056 O1104 2.563 . S
Eu1056 O1105 2.419 . S
Eu1056 O1107 2.380 . S
Eu1056 O1108 2.432 . S
Eu1056 C1120 2.848 . S
C1057 C1060 1.429 . S
C1057 C1061 1.411 . S
C1057 N1064 1.377 . S
C1058 C1060 1.420 . S
C1058 C1062 1.423 . S
C1058 C1070 1.392 . S
C1059 C1061 1.420 . S
C1059 C1062 1.351 . S
C1059 H1082 0.931 . S
C1060 C1057 1.429 . S
C1060 C1058 1.420 . S
C1060 N1068 1.362 . S
C1061 C1057 1.411 . S
C1061 C1059 1.420 . S
C1061 C1066 1.395 . S
C1062 C1058 1.423 . S
C1062 C1059 1.351 . S
C1062 H1074 0.930 . S
C1063 C1065 1.400 . S
C1063 C1066 1.386 . S
C1063 H1075 0.930 . S
N1064 C1057 1.377 . S
N1064 C1065 1.321 . S
N1064 Eu1067 2.609 . S
C1065 C1063 1.400 . S
C1065 N1064 1.321 . S
C1065 H1072 0.930 . S
C1066 C1061 1.395 . S
C1066 C1063 1.386 . S
C1066 H1085 0.930 . S
Eu1067 N1064 2.609 . S
Eu1067 N1068 2.657 . S
Eu1067 O1101 2.380 . S
Eu1067 O1102 2.432 . S
Eu1067 O1106 2.558 . S
Eu1067 O1107 2.612 . S
Eu1067 O1109 2.339 . S
Eu1067 O1110 2.563 . S
Eu1067 O1111 2.419 . S
Eu1067 C1131 2.848 . S
N1068 C1060 1.362 . S
N1068 Eu1067 2.657 . S
N1068 C1069 1.334 . S
C1069 N1068 1.334 . S
C1069 C1071 1.413 . S
C1069 H1076 0.929 . S
C1070 C1058 1.392 . S
C1070 C1071 1.367 . S
C1070 H1078 0.930 . S
C1071 C1069 1.413 . S
C1071 C1070 1.367 . S
C1071 H1073 0.930 . S
H1072 C1065 0.930 . S
H1073 C1071 0.930 . S
H1074 C1062 0.930 . S
H1075 C1063 0.930 . S
H1076 C1069 0.929 . S
H1077 C1091 0.930 . S
H1078 C1070 0.930 . S
H1079 C1097 0.930 . S
H1080 C1088 0.929 . S
H1081 C1095 0.930 . S
H1082 C1059 0.931 . S
H1083 C1089 0.930 . S
H1084 C1122 0.930 . S
H1085 C1066 0.930 . S
H1086 C1121 0.931 . S
N1087 Eu1056 2.657 . S
N1087 C1088 1.334 . S
N1087 C1092 1.362 . S
C1088 H1080 0.929 . S
C1088 N1087 1.334 . S
C1088 C1091 1.413 . S
C1089 H1083 0.930 . S
C1089 C1090 1.392 . S
C1089 C1091 1.367 . S
C1090 C1089 1.392 . S
C1090 C1092 1.420 . S
C1090 C1122 1.423 . S
C1091 H1077 0.930 . S
C1091 C1088 1.413 . S
C1091 C1089 1.367 . S
C1092 N1087 1.362 . S
C1092 C1090 1.420 . S
C1092 C1096 1.429 . S
H1093 C1098 0.930 . S
N1094 Eu1056 2.609 . S
N1094 C1096 1.377 . S
N1094 C1097 1.321 . S
C1095 H1081 0.930 . S
C1095 C1097 1.400 . S
C1095 C1098 1.386 . S
C1096 C1092 1.429 . S
C1096 N1094 1.377 . S
C1096 C1099 1.411 . S
C1097 H1079 0.930 . S
C1097 N1094 1.321 . S
C1097 C1095 1.400 . S
C1098 H1093 0.930 . S
C1098 C1095 1.386 . S
C1098 C1099 1.395 . S
C1099 C1096 1.411 . S
C1099 C1098 1.395 . S
C1099 C1121 1.420 . S
O1100 Eu1056 2.558 . S
O1100 C1120 1.257 . S
O1101 Eu1056 2.612 . S
O1101 Eu1067 2.380 . S
O1101 C1112 1.276 . S
O1102 Eu1067 2.432 . S
O1102 C1119 1.264 . S
O1103 Eu1056 2.339 . S
O1103 C1119 1.254 . S
O1104 Eu1056 2.563 . S
O1104 C1112 1.235 . S
O1105 Eu1056 2.419 . S
O1105 C1120 1.249 . S
O1106 Eu1067 2.558 . S
O1106 C1131 1.257 . S
O1107 Eu1056 2.380 . S
O1107 Eu1067 2.612 . S
O1107 C1123 1.276 . S
O1108 Eu1056 2.432 . S
O1108 C1130 1.264 . S
O1109 Eu1067 2.339 . S
O1109 C1130 1.254 . S
O1110 Eu1067 2.563 . S
O1110 C1123 1.235 . S
O1111 Eu1067 2.419 . S
O1111 C1131 1.249 . S
C1112 O1101 1.276 . S
C1112 O1104 1.235 . S
C1113 C1115 1.393 . S
C1113 C1117 1.395 . S
C1113 C1120 1.492 . S
C1114 C1115 1.392 . S
C1114 C1116 1.386 . S
C1115 C1113 1.393 . S
C1115 C1114 1.392 . S
C1115 H1132 0.930 . S
C1116 C1114 1.386 . S
C1116 C1118 1.395 . S
C1116 H1133 0.930 . S
C1117 C1113 1.395 . S
C1117 C1118 1.379 . S
C1117 H1134 0.930 . S
C1118 C1116 1.395 . S
C1118 C1117 1.379 . S
C1118 H1135 0.930 . S
C1119 O1102 1.264 . S
C1119 O1103 1.254 . S
C1120 Eu1056 2.848 . S
C1120 O1100 1.257 . S
C1120 O1105 1.249 . S
C1120 C1113 1.492 . S
C1121 H1086 0.931 . S
C1121 C1099 1.420 . S
C1121 C1122 1.351 . S
C1122 H1084 0.930 . S
C1122 C1090 1.423 . S
C1122 C1121 1.351 . S
C1123 O1107 1.276 . S
C1123 O1110 1.235 . S
C1124 C1125 1.393 . S
C1124 C1128 1.395 . S
C1124 C1131 1.492 . S
C1125 C1124 1.393 . S
C1125 C1126 1.392 . S
C1125 H1136 0.930 . S
C1126 C1125 1.392 . S
C1126 C1127 1.386 . S
C1127 C1126 1.386 . S
C1127 C1129 1.395 . S
C1127 H1137 0.930 . S
C1128 C1124 1.395 . S
C1128 C1129 1.379 . S
C1128 H1138 0.930 . S
C1129 C1127 1.395 . S
C1129 C1128 1.379 . S
C1129 H1139 0.930 . S
C1130 O1108 1.264 . S
C1130 O1109 1.254 . S
C1131 Eu1067 2.848 . S
C1131 O1106 1.257 . S
C1131 O1111 1.249 . S
C1131 C1124 1.492 . S
H1132 C1115 0.930 . S
H1133 C1116 0.930 . S
H1134 C1117 0.930 . S
H1135 C1118 0.930 . S
H1136 C1125 0.930 . S
H1137 C1127 0.930 . S
H1138 C1128 0.930 . S
H1139 C1129 0.930 . S
Eu1140 N1171 2.657 . S
Eu1140 N1178 2.609 . S
Eu1140 O1184 2.558 . S
Eu1140 O1185 2.612 . S
Eu1140 O1187 2.339 . S
Eu1140 O1188 2.563 . S
Eu1140 O1189 2.419 . S
Eu1140 O1191 2.380 . S
Eu1140 O1192 2.432 . S
Eu1140 C1204 2.848 . S
C1141 C1144 1.429 . S
C1141 C1145 1.411 . S
C1141 N1148 1.377 . S
C1142 C1144 1.420 . S
C1142 C1146 1.423 . S
C1142 C1154 1.392 . S
C1143 C1145 1.420 . S
C1143 C1146 1.351 . S
C1143 H1166 0.931 . S
C1144 C1141 1.429 . S
C1144 C1142 1.420 . S
C1144 N1152 1.362 . S
C1145 C1141 1.411 . S
C1145 C1143 1.420 . S
C1145 C1150 1.395 . S
C1146 C1142 1.423 . S
C1146 C1143 1.351 . S
C1146 H1158 0.930 . S
C1147 C1149 1.400 . S
C1147 C1150 1.386 . S
C1147 H1159 0.930 . S
N1148 C1141 1.377 . S
N1148 C1149 1.321 . S
N1148 Eu1151 2.609 . S
C1149 C1147 1.400 . S
C1149 N1148 1.321 . S
C1149 H1156 0.930 . S
C1150 C1145 1.395 . S
C1150 C1147 1.386 . S
C1150 H1169 0.930 . S
Eu1151 N1148 2.609 . S
Eu1151 N1152 2.657 . S
Eu1151 O1185 2.380 . S
Eu1151 O1186 2.432 . S
Eu1151 O1190 2.558 . S
Eu1151 O1191 2.612 . S
Eu1151 O1193 2.339 . S
Eu1151 O1194 2.563 . S
Eu1151 O1195 2.419 . S
Eu1151 C1215 2.848 . S
N1152 C1144 1.362 . S
N1152 Eu1151 2.657 . S
N1152 C1153 1.334 . S
C1153 N1152 1.334 . S
C1153 C1155 1.413 . S
C1153 H1160 0.929 . S
C1154 C1142 1.392 . S
C1154 C1155 1.367 . S
C1154 H1162 0.930 . S
C1155 C1153 1.413 . S
C1155 C1154 1.367 . S
C1155 H1157 0.930 . S
H1156 C1149 0.930 . S
H1157 C1155 0.930 . S
H1158 C1146 0.930 . S
H1159 C1147 0.930 . S
H1160 C1153 0.929 . S
H1161 C1175 0.930 . S
H1162 C1154 0.930 . S
H1163 C1181 0.930 . S
H1164 C1172 0.929 . S
H1165 C1179 0.930 . S
H1166 C1143 0.931 . S
H1167 C1173 0.930 . S
H1168 C1206 0.930 . S
H1169 C1150 0.930 . S
H1170 C1205 0.931 . S
N1171 Eu1140 2.657 . S
N1171 C1172 1.334 . S
N1171 C1176 1.362 . S
C1172 H1164 0.929 . S
C1172 N1171 1.334 . S
C1172 C1175 1.413 . S
C1173 H1167 0.930 . S
C1173 C1174 1.392 . S
C1173 C1175 1.367 . S
C1174 C1173 1.392 . S
C1174 C1176 1.420 . S
C1174 C1206 1.423 . S
C1175 H1161 0.930 . S
C1175 C1172 1.413 . S
C1175 C1173 1.367 . S
C1176 N1171 1.362 . S
C1176 C1174 1.420 . S
C1176 C1180 1.429 . S
H1177 C1182 0.930 . S
N1178 Eu1140 2.609 . S
N1178 C1180 1.377 . S
N1178 C1181 1.321 . S
C1179 H1165 0.930 . S
C1179 C1181 1.400 . S
C1179 C1182 1.386 . S
C1180 C1176 1.429 . S
C1180 N1178 1.377 . S
C1180 C1183 1.411 . S
C1181 H1163 0.930 . S
C1181 N1178 1.321 . S
C1181 C1179 1.400 . S
C1182 H1177 0.930 . S
C1182 C1179 1.386 . S
C1182 C1183 1.395 . S
C1183 C1180 1.411 . S
C1183 C1182 1.395 . S
C1183 C1205 1.420 . S
O1184 Eu1140 2.558 . S
O1184 C1204 1.257 . S
O1185 Eu1140 2.612 . S
O1185 Eu1151 2.380 . S
O1185 C1196 1.276 . S
O1186 Eu1151 2.432 . S
O1186 C1203 1.264 . S
O1187 Eu1140 2.339 . S
O1187 C1203 1.254 . S
O1188 Eu1140 2.563 . S
O1188 C1196 1.235 . S
O1189 Eu1140 2.419 . S
O1189 C1204 1.249 . S
O1190 Eu1151 2.558 . S
O1190 C1215 1.257 . S
O1191 Eu1140 2.380 . S
O1191 Eu1151 2.612 . S
O1191 C1207 1.276 . S
O1192 Eu1140 2.432 . S
O1192 C1214 1.264 . S
O1193 Eu1151 2.339 . S
O1193 C1214 1.254 . S
O1194 Eu1151 2.563 . S
O1194 C1207 1.235 . S
O1195 Eu1151 2.419 . S
O1195 C1215 1.249 . S
C1196 O1185 1.276 . S
C1196 O1188 1.235 . S
C1197 C1199 1.393 . S
C1197 C1201 1.395 . S
C1197 C1204 1.492 . S
C1198 C1199 1.392 . S
C1198 C1200 1.386 . S
C1199 C1197 1.393 . S
C1199 C1198 1.392 . S
C1199 H1216 0.930 . S
C1200 C1198 1.386 . S
C1200 C1202 1.395 . S
C1200 H1217 0.930 . S
C1201 C1197 1.395 . S
C1201 C1202 1.379 . S
C1201 H1218 0.930 . S
C1202 C1200 1.395 . S
C1202 C1201 1.379 . S
C1202 H1219 0.930 . S
C1203 O1186 1.264 . S
C1203 O1187 1.254 . S
C1204 Eu1140 2.848 . S
C1204 O1184 1.257 . S
C1204 O1189 1.249 . S
C1204 C1197 1.492 . S
C1205 H1170 0.931 . S
C1205 C1183 1.420 . S
C1205 C1206 1.351 . S
C1206 H1168 0.930 . S
C1206 C1174 1.423 . S
C1206 C1205 1.351 . S
C1207 O1191 1.276 . S
C1207 O1194 1.235 . S
C1208 C1209 1.393 . S
C1208 C1212 1.395 . S
C1208 C1215 1.492 . S
C1209 C1208 1.393 . S
C1209 C1210 1.392 . S
C1209 H1220 0.930 . S
C1210 C1209 1.392 . S
C1210 C1211 1.386 . S
C1211 C1210 1.386 . S
C1211 C1213 1.395 . S
C1211 H1221 0.930 . S
C1212 C1208 1.395 . S
C1212 C1213 1.379 . S
C1212 H1222 0.930 . S
C1213 C1211 1.395 . S
C1213 C1212 1.379 . S
C1213 H1223 0.930 . S
C1214 O1192 1.264 . S
C1214 O1193 1.254 . S
C1215 Eu1151 2.848 . S
C1215 O1190 1.257 . S
C1215 O1195 1.249 . S
C1215 C1208 1.492 . S
H1216 C1199 0.930 . S
H1217 C1200 0.930 . S
H1218 C1201 0.930 . S
H1219 C1202 0.930 . S
H1220 C1209 0.930 . S
H1221 C1211 0.930 . S
H1222 C1212 0.930 . S
H1223 C1213 0.930 . S
Eu1224 N1255 2.657 . S
Eu1224 N1262 2.609 . S
Eu1224 O1268 2.558 . S
Eu1224 O1269 2.612 . S
Eu1224 O1271 2.339 . S
Eu1224 O1272 2.563 . S
Eu1224 O1273 2.419 . S
Eu1224 O1275 2.380 . S
Eu1224 O1276 2.432 . S
Eu1224 C1288 2.848 . S
C1225 C1228 1.429 . S
C1225 C1229 1.411 . S
C1225 N1232 1.377 . S
C1226 C1228 1.420 . S
C1226 C1230 1.423 . S
C1226 C1238 1.392 . S
C1227 C1229 1.420 . S
C1227 C1230 1.351 . S
C1227 H1250 0.931 . S
C1228 C1225 1.429 . S
C1228 C1226 1.420 . S
C1228 N1236 1.362 . S
C1229 C1225 1.411 . S
C1229 C1227 1.420 . S
C1229 C1234 1.395 . S
C1230 C1226 1.423 . S
C1230 C1227 1.351 . S
C1230 H1242 0.930 . S
C1231 C1233 1.400 . S
C1231 C1234 1.386 . S
C1231 H1243 0.930 . S
N1232 C1225 1.377 . S
N1232 C1233 1.321 . S
N1232 Eu1235 2.609 . S
C1233 C1231 1.400 . S
C1233 N1232 1.321 . S
C1233 H1240 0.930 . S
C1234 C1229 1.395 . S
C1234 C1231 1.386 . S
C1234 H1253 0.930 . S
Eu1235 N1232 2.609 . S
Eu1235 N1236 2.657 . S
Eu1235 O1269 2.380 . S
Eu1235 O1270 2.432 . S
Eu1235 O1274 2.558 . S
Eu1235 O1275 2.612 . S
Eu1235 O1277 2.339 . S
Eu1235 O1278 2.563 . S
Eu1235 O1279 2.419 . S
Eu1235 C1299 2.848 . S
N1236 C1228 1.362 . S
N1236 Eu1235 2.657 . S
N1236 C1237 1.334 . S
C1237 N1236 1.334 . S
C1237 C1239 1.413 . S
C1237 H1244 0.929 . S
C1238 C1226 1.392 . S
C1238 C1239 1.367 . S
C1238 H1246 0.930 . S
C1239 C1237 1.413 . S
C1239 C1238 1.367 . S
C1239 H1241 0.930 . S
H1240 C1233 0.930 . S
H1241 C1239 0.930 . S
H1242 C1230 0.930 . S
H1243 C1231 0.930 . S
H1244 C1237 0.929 . S
H1245 C1259 0.930 . S
H1246 C1238 0.930 . S
H1247 C1265 0.930 . S
H1248 C1256 0.929 . S
H1249 C1263 0.930 . S
H1250 C1227 0.931 . S
H1251 C1257 0.930 . S
H1252 C1290 0.930 . S
H1253 C1234 0.930 . S
H1254 C1289 0.931 . S
N1255 Eu1224 2.657 . S
N1255 C1256 1.334 . S
N1255 C1260 1.362 . S
C1256 H1248 0.929 . S
C1256 N1255 1.334 . S
C1256 C1259 1.413 . S
C1257 H1251 0.930 . S
C1257 C1258 1.392 . S
C1257 C1259 1.367 . S
C1258 C1257 1.392 . S
C1258 C1260 1.420 . S
C1258 C1290 1.423 . S
C1259 H1245 0.930 . S
C1259 C1256 1.413 . S
C1259 C1257 1.367 . S
C1260 N1255 1.362 . S
C1260 C1258 1.420 . S
C1260 C1264 1.429 . S
H1261 C1266 0.930 . S
N1262 Eu1224 2.609 . S
N1262 C1264 1.377 . S
N1262 C1265 1.321 . S
C1263 H1249 0.930 . S
C1263 C1265 1.400 . S
C1263 C1266 1.386 . S
C1264 C1260 1.429 . S
C1264 N1262 1.377 . S
C1264 C1267 1.411 . S
C1265 H1247 0.930 . S
C1265 N1262 1.321 . S
C1265 C1263 1.400 . S
C1266 H1261 0.930 . S
C1266 C1263 1.386 . S
C1266 C1267 1.395 . S
C1267 C1264 1.411 . S
C1267 C1266 1.395 . S
C1267 C1289 1.420 . S
O1268 Eu1224 2.558 . S
O1268 C1288 1.257 . S
O1269 Eu1224 2.612 . S
O1269 Eu1235 2.380 . S
O1269 C1280 1.276 . S
O1270 Eu1235 2.432 . S
O1270 C1287 1.264 . S
O1271 Eu1224 2.339 . S
O1271 C1287 1.254 . S
O1272 Eu1224 2.563 . S
O1272 C1280 1.235 . S
O1273 Eu1224 2.419 . S
O1273 C1288 1.249 . S
O1274 Eu1235 2.558 . S
O1274 C1299 1.257 . S
O1275 Eu1224 2.380 . S
O1275 Eu1235 2.612 . S
O1275 C1291 1.276 . S
O1276 Eu1224 2.432 . S
O1276 C1298 1.264 . S
O1277 Eu1235 2.339 . S
O1277 C1298 1.254 . S
O1278 Eu1235 2.563 . S
O1278 C1291 1.235 . S
O1279 Eu1235 2.419 . S
O1279 C1299 1.249 . S
C1280 O1269 1.276 . S
C1280 O1272 1.235 . S
C1281 C1283 1.393 . S
C1281 C1285 1.395 . S
C1281 C1288 1.492 . S
C1282 C1283 1.392 . S
C1282 C1284 1.386 . S
C1283 C1281 1.393 . S
C1283 C1282 1.392 . S
C1283 H1300 0.930 . S
C1284 C1282 1.386 . S
C1284 C1286 1.395 . S
C1284 H1301 0.930 . S
C1285 C1281 1.395 . S
C1285 C1286 1.379 . S
C1285 H1302 0.930 . S
C1286 C1284 1.395 . S
C1286 C1285 1.379 . S
C1286 H1303 0.930 . S
C1287 O1270 1.264 . S
C1287 O1271 1.254 . S
C1288 Eu1224 2.848 . S
C1288 O1268 1.257 . S
C1288 O1273 1.249 . S
C1288 C1281 1.492 . S
C1289 H1254 0.931 . S
C1289 C1267 1.420 . S
C1289 C1290 1.351 . S
C1290 H1252 0.930 . S
C1290 C1258 1.423 . S
C1290 C1289 1.351 . S
C1291 O1275 1.276 . S
C1291 O1278 1.235 . S
C1292 C1293 1.393 . S
C1292 C1296 1.395 . S
C1292 C1299 1.492 . S
C1293 C1292 1.393 . S
C1293 C1294 1.392 . S
C1293 H1304 0.930 . S
C1294 C1293 1.392 . S
C1294 C1295 1.386 . S
C1295 C1294 1.386 . S
C1295 C1297 1.395 . S
C1295 H1305 0.930 . S
C1296 C1292 1.395 . S
C1296 C1297 1.379 . S
C1296 H1306 0.930 . S
C1297 C1295 1.395 . S
C1297 C1296 1.379 . S
C1297 H1307 0.930 . S
C1298 O1276 1.264 . S
C1298 O1277 1.254 . S
C1299 Eu1235 2.848 . S
C1299 O1274 1.257 . S
C1299 O1279 1.249 . S
C1299 C1292 1.492 . S
H1300 C1283 0.930 . S
H1301 C1284 0.930 . S
H1302 C1285 0.930 . S
H1303 C1286 0.930 . S
H1304 C1293 0.930 . S
H1305 C1295 0.930 . S
H1306 C1296 0.930 . S
H1307 C1297 0.930 . S
Eu1308 N1339 2.657 . S
Eu1308 N1346 2.609 . S
Eu1308 O1352 2.558 . S
Eu1308 O1353 2.612 . S
Eu1308 O1355 2.339 . S
Eu1308 O1356 2.563 . S
Eu1308 O1357 2.419 . S
Eu1308 O1359 2.380 . S
Eu1308 O1360 2.432 . S
Eu1308 C1372 2.848 . S
C1309 C1312 1.429 . S
C1309 C1313 1.411 . S
C1309 N1316 1.377 . S
C1310 C1312 1.420 . S
C1310 C1314 1.423 . S
C1310 C1322 1.392 . S
C1311 C1313 1.420 . S
C1311 C1314 1.351 . S
C1311 H1334 0.931 . S
C1312 C1309 1.429 . S
C1312 C1310 1.420 . S
C1312 N1320 1.362 . S
C1313 C1309 1.411 . S
C1313 C1311 1.420 . S
C1313 C1318 1.395 . S
C1314 C1310 1.423 . S
C1314 C1311 1.351 . S
C1314 H1326 0.930 . S
C1315 C1317 1.400 . S
C1315 C1318 1.386 . S
C1315 H1327 0.930 . S
N1316 C1309 1.377 . S
N1316 C1317 1.321 . S
N1316 Eu1319 2.609 . S
C1317 C1315 1.400 . S
C1317 N1316 1.321 . S
C1317 H1324 0.930 . S
C1318 C1313 1.395 . S
C1318 C1315 1.386 . S
C1318 H1337 0.930 . S
Eu1319 N1316 2.609 . S
Eu1319 N1320 2.657 . S
Eu1319 O1353 2.380 . S
Eu1319 O1354 2.432 . S
Eu1319 O1358 2.558 . S
Eu1319 O1359 2.612 . S
Eu1319 O1361 2.339 . S
Eu1319 O1362 2.563 . S
Eu1319 O1363 2.419 . S
Eu1319 C1383 2.848 . S
N1320 C1312 1.362 . S
N1320 Eu1319 2.657 . S
N1320 C1321 1.334 . S
C1321 N1320 1.334 . S
C1321 C1323 1.413 . S
C1321 H1328 0.929 . S
C1322 C1310 1.392 . S
C1322 C1323 1.367 . S
C1322 H1330 0.930 . S
C1323 C1321 1.413 . S
C1323 C1322 1.367 . S
C1323 H1325 0.930 . S
H1324 C1317 0.930 . S
H1325 C1323 0.930 . S
H1326 C1314 0.930 . S
H1327 C1315 0.930 . S
H1328 C1321 0.929 . S
H1329 C1343 0.930 . S
H1330 C1322 0.930 . S
H1331 C1349 0.930 . S
H1332 C1340 0.929 . S
H1333 C1347 0.930 . S
H1334 C1311 0.931 . S
H1335 C1341 0.930 . S
H1336 C1374 0.930 . S
H1337 C1318 0.930 . S
H1338 C1373 0.931 . S
N1339 Eu1308 2.657 . S
N1339 C1340 1.334 . S
N1339 C1344 1.362 . S
C1340 H1332 0.929 . S
C1340 N1339 1.334 . S
C1340 C1343 1.413 . S
C1341 H1335 0.930 . S
C1341 C1342 1.392 . S
C1341 C1343 1.367 . S
C1342 C1341 1.392 . S
C1342 C1344 1.420 . S
C1342 C1374 1.423 . S
C1343 H1329 0.930 . S
C1343 C1340 1.413 . S
C1343 C1341 1.367 . S
C1344 N1339 1.362 . S
C1344 C1342 1.420 . S
C1344 C1348 1.429 . S
H1345 C1350 0.930 . S
N1346 Eu1308 2.609 . S
N1346 C1348 1.377 . S
N1346 C1349 1.321 . S
C1347 H1333 0.930 . S
C1347 C1349 1.400 . S
C1347 C1350 1.386 . S
C1348 C1344 1.429 . S
C1348 N1346 1.377 . S
C1348 C1351 1.411 . S
C1349 H1331 0.930 . S
C1349 N1346 1.321 . S
C1349 C1347 1.400 . S
C1350 H1345 0.930 . S
C1350 C1347 1.386 . S
C1350 C1351 1.395 . S
C1351 C1348 1.411 . S
C1351 C1350 1.395 . S
C1351 C1373 1.420 . S
O1352 Eu1308 2.558 . S
O1352 C1372 1.257 . S
O1353 Eu1308 2.612 . S
O1353 Eu1319 2.380 . S
O1353 C1364 1.276 . S
O1354 Eu1319 2.432 . S
O1354 C1371 1.264 . S
O1355 Eu1308 2.339 . S
O1355 C1371 1.254 . S
O1356 Eu1308 2.563 . S
O1356 C1364 1.235 . S
O1357 Eu1308 2.419 . S
O1357 C1372 1.249 . S
O1358 Eu1319 2.558 . S
O1358 C1383 1.257 . S
O1359 Eu1308 2.380 . S
O1359 Eu1319 2.612 . S
O1359 C1375 1.276 . S
O1360 Eu1308 2.432 . S
O1360 C1382 1.264 . S
O1361 Eu1319 2.339 . S
O1361 C1382 1.254 . S
O1362 Eu1319 2.563 . S
O1362 C1375 1.235 . S
O1363 Eu1319 2.419 . S
O1363 C1383 1.249 . S
C1364 O1353 1.276 . S
C1364 O1356 1.235 . S
C1365 C1367 1.393 . S
C1365 C1369 1.395 . S
C1365 C1372 1.492 . S
C1366 C1367 1.392 . S
C1366 C1368 1.386 . S
C1367 C1365 1.393 . S
C1367 C1366 1.392 . S
C1367 H1384 0.930 . S
C1368 C1366 1.386 . S
C1368 C1370 1.395 . S
C1368 H1385 0.930 . S
C1369 C1365 1.395 . S
C1369 C1370 1.379 . S
C1369 H1386 0.930 . S
C1370 C1368 1.395 . S
C1370 C1369 1.379 . S
C1370 H1387 0.930 . S
C1371 O1354 1.264 . S
C1371 O1355 1.254 . S
C1372 Eu1308 2.848 . S
C1372 O1352 1.257 . S
C1372 O1357 1.249 . S
C1372 C1365 1.492 . S
C1373 H1338 0.931 . S
C1373 C1351 1.420 . S
C1373 C1374 1.351 . S
C1374 H1336 0.930 . S
C1374 C1342 1.423 . S
C1374 C1373 1.351 . S
C1375 O1359 1.276 . S
C1375 O1362 1.235 . S
C1376 C1377 1.393 . S
C1376 C1380 1.395 . S
C1376 C1383 1.492 . S
C1377 C1376 1.393 . S
C1377 C1378 1.392 . S
C1377 H1388 0.930 . S
C1378 C1377 1.392 . S
C1378 C1379 1.386 . S
C1379 C1378 1.386 . S
C1379 C1381 1.395 . S
C1379 H1389 0.930 . S
C1380 C1376 1.395 . S
C1380 C1381 1.379 . S
C1380 H1390 0.930 . S
C1381 C1379 1.395 . S
C1381 C1380 1.379 . S
C1381 H1391 0.930 . S
C1382 O1360 1.264 . S
C1382 O1361 1.254 . S
C1383 Eu1319 2.848 . S
C1383 O1358 1.257 . S
C1383 O1363 1.249 . S
C1383 C1376 1.492 . S
H1384 C1367 0.930 . S
H1385 C1368 0.930 . S
H1386 C1369 0.930 . S
H1387 C1370 0.930 . S
H1388 C1377 0.930 . S
H1389 C1379 0.930 . S
H1390 C1380 0.930 . S
H1391 C1381 0.930 . S
Eu1392 N1423 2.657 . S
Eu1392 N1430 2.609 . S
Eu1392 O1436 2.558 . S
Eu1392 O1437 2.612 . S
Eu1392 O1439 2.339 . S
Eu1392 O1440 2.563 . S
Eu1392 O1441 2.419 . S
Eu1392 O1443 2.380 . S
Eu1392 O1444 2.432 . S
Eu1392 C1456 2.848 . S
C1393 C1396 1.429 . S
C1393 C1397 1.411 . S
C1393 N1400 1.377 . S
C1394 C1396 1.420 . S
C1394 C1398 1.423 . S
C1394 C1406 1.392 . S
C1395 C1397 1.420 . S
C1395 C1398 1.351 . S
C1395 H1418 0.931 . S
C1396 C1393 1.429 . S
C1396 C1394 1.420 . S
C1396 N1404 1.362 . S
C1397 C1393 1.411 . S
C1397 C1395 1.420 . S
C1397 C1402 1.395 . S
C1398 C1394 1.423 . S
C1398 C1395 1.351 . S
C1398 H1410 0.930 . S
C1399 C1401 1.400 . S
C1399 C1402 1.386 . S
C1399 H1411 0.930 . S
N1400 C1393 1.377 . S
N1400 C1401 1.321 . S
N1400 Eu1403 2.609 . S
C1401 C1399 1.400 . S
C1401 N1400 1.321 . S
C1401 H1408 0.930 . S
C1402 C1397 1.395 . S
C1402 C1399 1.386 . S
C1402 H1421 0.930 . S
Eu1403 N1400 2.609 . S
Eu1403 N1404 2.657 . S
Eu1403 O1437 2.380 . S
Eu1403 O1438 2.432 . S
Eu1403 O1442 2.558 . S
Eu1403 O1443 2.612 . S
Eu1403 O1445 2.339 . S
Eu1403 O1446 2.563 . S
Eu1403 O1447 2.419 . S
Eu1403 C1467 2.848 . S
N1404 C1396 1.362 . S
N1404 Eu1403 2.657 . S
N1404 C1405 1.334 . S
C1405 N1404 1.334 . S
C1405 C1407 1.413 . S
C1405 H1412 0.929 . S
C1406 C1394 1.392 . S
C1406 C1407 1.367 . S
C1406 H1414 0.930 . S
C1407 C1405 1.413 . S
C1407 C1406 1.367 . S
C1407 H1409 0.930 . S
H1408 C1401 0.930 . S
H1409 C1407 0.930 . S
H1410 C1398 0.930 . S
H1411 C1399 0.930 . S
H1412 C1405 0.929 . S
H1413 C1427 0.930 . S
H1414 C1406 0.930 . S
H1415 C1433 0.930 . S
H1416 C1424 0.929 . S
H1417 C1431 0.930 . S
H1418 C1395 0.931 . S
H1419 C1425 0.930 . S
H1420 C1458 0.930 . S
H1421 C1402 0.930 . S
H1422 C1457 0.931 . S
N1423 Eu1392 2.657 . S
N1423 C1424 1.334 . S
N1423 C1428 1.362 . S
C1424 H1416 0.929 . S
C1424 N1423 1.334 . S
C1424 C1427 1.413 . S
C1425 H1419 0.930 . S
C1425 C1426 1.392 . S
C1425 C1427 1.367 . S
C1426 C1425 1.392 . S
C1426 C1428 1.420 . S
C1426 C1458 1.423 . S
C1427 H1413 0.930 . S
C1427 C1424 1.413 . S
C1427 C1425 1.367 . S
C1428 N1423 1.362 . S
C1428 C1426 1.420 . S
C1428 C1432 1.429 . S
H1429 C1434 0.930 . S
N1430 Eu1392 2.609 . S
N1430 C1432 1.377 . S
N1430 C1433 1.321 . S
C1431 H1417 0.930 . S
C1431 C1433 1.400 . S
C1431 C1434 1.386 . S
C1432 C1428 1.429 . S
C1432 N1430 1.377 . S
C1432 C1435 1.411 . S
C1433 H1415 0.930 . S
C1433 N1430 1.321 . S
C1433 C1431 1.400 . S
C1434 H1429 0.930 . S
C1434 C1431 1.386 . S
C1434 C1435 1.395 . S
C1435 C1432 1.411 . S
C1435 C1434 1.395 . S
C1435 C1457 1.420 . S
O1436 Eu1392 2.558 . S
O1436 C1456 1.257 . S
O1437 Eu1392 2.612 . S
O1437 Eu1403 2.380 . S
O1437 C1448 1.276 . S
O1438 Eu1403 2.432 . S
O1438 C1455 1.264 . S
O1439 Eu1392 2.339 . S
O1439 C1455 1.254 . S
O1440 Eu1392 2.563 . S
O1440 C1448 1.235 . S
O1441 Eu1392 2.419 . S
O1441 C1456 1.249 . S
O1442 Eu1403 2.558 . S
O1442 C1467 1.257 . S
O1443 Eu1392 2.380 . S
O1443 Eu1403 2.612 . S
O1443 C1459 1.276 . S
O1444 Eu1392 2.432 . S
O1444 C1466 1.264 . S
O1445 Eu1403 2.339 . S
O1445 C1466 1.254 . S
O1446 Eu1403 2.563 . S
O1446 C1459 1.235 . S
O1447 Eu1403 2.419 . S
O1447 C1467 1.249 . S
C1448 O1437 1.276 . S
C1448 O1440 1.235 . S
C1449 C1451 1.393 . S
C1449 C1453 1.395 . S
C1449 C1456 1.492 . S
C1450 C1451 1.392 . S
C1450 C1452 1.386 . S
C1451 C1449 1.393 . S
C1451 C1450 1.392 . S
C1451 H1468 0.930 . S
C1452 C1450 1.386 . S
C1452 C1454 1.395 . S
C1452 H1469 0.930 . S
C1453 C1449 1.395 . S
C1453 C1454 1.379 . S
C1453 H1470 0.930 . S
C1454 C1452 1.395 . S
C1454 C1453 1.379 . S
C1454 H1471 0.930 . S
C1455 O1438 1.264 . S
C1455 O1439 1.254 . S
C1456 Eu1392 2.848 . S
C1456 O1436 1.257 . S
C1456 O1441 1.249 . S
C1456 C1449 1.492 . S
C1457 H1422 0.931 . S
C1457 C1435 1.420 . S
C1457 C1458 1.351 . S
C1458 H1420 0.930 . S
C1458 C1426 1.423 . S
C1458 C1457 1.351 . S
C1459 O1443 1.276 . S
C1459 O1446 1.235 . S
C1460 C1461 1.393 . S
C1460 C1464 1.395 . S
C1460 C1467 1.492 . S
C1461 C1460 1.393 . S
C1461 C1462 1.392 . S
C1461 H1472 0.930 . S
C1462 C1461 1.392 . S
C1462 C1463 1.386 . S
C1463 C1462 1.386 . S
C1463 C1465 1.395 . S
C1463 H1473 0.930 . S
C1464 C1460 1.395 . S
C1464 C1465 1.379 . S
C1464 H1474 0.930 . S
C1465 C1463 1.395 . S
C1465 C1464 1.379 . S
C1465 H1475 0.930 . S
C1466 O1444 1.264 . S
C1466 O1445 1.254 . S
C1467 Eu1403 2.848 . S
C1467 O1442 1.257 . S
C1467 O1447 1.249 . S
C1467 C1460 1.492 . S
H1468 C1451 0.930 . S
H1469 C1452 0.930 . S
H1470 C1453 0.930 . S
H1471 C1454 0.930 . S
H1472 C1461 0.930 . S
H1473 C1463 0.930 . S
H1474 C1464 0.930 . S
H1475 C1465 0.930 . S
H1476 C1482 0.930 . S
H1477 C1485 0.930 . S
H1478 C1486 0.930 . S
H1479 C1487 0.930 . S
H1480 C1490 0.930 . S
H1481 C1491 0.930 . S
C1482 H1476 0.930 . S
C1482 C1483 1.355 . S
C1482 C1484 1.415 . S
C1483 C1482 1.355 . S
C1483 C1485 1.419 . S
C1484 C1482 1.415 . S
C1484 C1489 1.425 . S
C1484 C1491 1.409 . S
C1485 H1477 0.930 . S
C1485 C1483 1.419 . S
C1485 C1486 1.362 . S
C1486 H1478 0.930 . S
C1486 C1485 1.362 . S
C1486 C1489 1.409 . S
C1487 H1479 0.930 . S
C1487 C1488 1.355 . S
C1487 C1489 1.415 . S
C1488 C1487 1.355 . S
C1488 C1490 1.419 . S
C1489 C1484 1.425 . S
C1489 C1486 1.409 . S
C1489 C1487 1.415 . S
C1490 H1480 0.930 . S
C1490 C1488 1.419 . S
C1490 C1491 1.362 . S
C1491 H1481 0.930 . S
C1491 C1484 1.409 . S
C1491 C1490 1.362 . S
H1492 C1498 0.930 . S
H1493 C1501 0.930 . S
H1494 C1502 0.930 . S
H1495 C1503 0.930 . S
H1496 C1506 0.930 . S
H1497 C1507 0.930 . S
C1498 H1492 0.930 . S
C1498 C1499 1.355 . S
C1498 C1500 1.415 . S
C1499 C1498 1.355 . S
C1499 C1501 1.419 . S
C1500 C1498 1.415 . S
C1500 C1505 1.425 . S
C1500 C1507 1.409 . S
C1501 H1493 0.930 . S
C1501 C1499 1.419 . S
C1501 C1502 1.362 . S
C1502 H1494 0.930 . S
C1502 C1501 1.362 . S
C1502 C1505 1.409 . S
C1503 H1495 0.930 . S
C1503 C1504 1.355 . S
C1503 C1505 1.415 . S
C1504 C1503 1.355 . S
C1504 C1506 1.419 . S
C1505 C1500 1.425 . S
C1505 C1502 1.409 . S
C1505 C1503 1.415 . S
C1506 H1496 0.930 . S
C1506 C1504 1.419 . S
C1506 C1507 1.362 . S
C1507 H1497 0.930 . S
C1507 C1500 1.409 . S
C1507 C1506 1.362 . S
H1508 C1514 0.930 . S
H1509 C1517 0.930 . S
H1510 C1518 0.930 . S
H1511 C1519 0.930 . S
H1512 C1522 0.930 1_556 S
H1513 C1523 0.930 . S
C1514 H1508 0.930 . S
C1514 C1515 1.355 . S
C1514 C1516 1.415 . S
C1515 C1514 1.355 . S
C1515 C1517 1.419 . S
C1516 C1514 1.415 . S
C1516 C1521 1.425 . S
C1516 C1523 1.409 . S
C1517 H1509 0.930 . S
C1517 C1515 1.419 . S
C1517 C1518 1.362 . S
C1518 H1510 0.930 . S
C1518 C1517 1.362 . S
C1518 C1521 1.409 . S
C1519 H1511 0.930 . S
C1519 C1520 1.355 . S
C1519 C1521 1.415 . S
C1520 C1519 1.355 . S
C1520 C1522 1.419 . S
C1521 C1516 1.425 . S
C1521 C1518 1.409 . S
C1521 C1519 1.415 . S
C1522 H1512 0.930 1_554 S
C1522 C1520 1.419 . S
C1522 C1523 1.362 . S
C1523 H1513 0.930 . S
C1523 C1516 1.409 . S
C1523 C1522 1.362 . S
H1524 C1530 0.930 . S
H1525 C1533 0.930 . S
H1526 C1534 0.930 . S
H1527 C1535 0.930 . S
H1528 C1538 0.930 . S
H1529 C1539 0.930 . S
C1530 H1524 0.930 . S
C1530 C1531 1.355 . S
C1530 C1532 1.415 . S
C1531 C1530 1.355 . S
C1531 C1533 1.419 . S
C1532 C1530 1.415 . S
C1532 C1537 1.425 . S
C1532 C1539 1.409 . S
C1533 H1525 0.930 . S
C1533 C1531 1.419 . S
C1533 C1534 1.362 . S
C1534 H1526 0.930 . S
C1534 C1533 1.362 . S
C1534 C1537 1.409 . S
C1535 H1527 0.930 . S
C1535 C1536 1.355 . S
C1535 C1537 1.415 . S
C1536 C1535 1.355 . S
C1536 C1538 1.419 . S
C1537 C1532 1.425 . S
C1537 C1534 1.409 . S
C1537 C1535 1.415 . S
C1538 H1528 0.930 . S
C1538 C1536 1.419 . S
C1538 C1539 1.362 . S
C1539 H1529 0.930 . S
C1539 C1532 1.409 . S
C1539 C1538 1.362 . S
H1540 C1546 0.930 . S
H1541 C1549 0.930 . S
H1542 C1550 0.930 . S
H1543 C1551 0.930 . S
H1544 C1554 0.930 1_554 S
H1545 C1555 0.930 1_554 S
C1546 H1540 0.930 . S
C1546 C1547 1.355 . S
C1546 C1548 1.415 . S
C1547 C1546 1.355 . S
C1547 C1549 1.419 . S
C1548 C1546 1.415 . S
C1548 C1553 1.425 . S
C1548 C1555 1.409 . S
C1549 H1541 0.930 . S
C1549 C1547 1.419 . S
C1549 C1550 1.362 . S
C1550 H1542 0.930 . S
C1550 C1549 1.362 . S
C1550 C1553 1.409 . S
C1551 H1543 0.930 . S
C1551 C1552 1.355 . S
C1551 C1553 1.415 . S
C1552 C1551 1.355 . S
C1552 C1554 1.419 . S
C1553 C1548 1.425 . S
C1553 C1550 1.409 . S
C1553 C1551 1.415 . S
C1554 H1544 0.930 1_556 S
C1554 C1552 1.419 . S
C1554 C1555 1.362 . S
C1555 H1545 0.930 1_556 S
C1555 C1548 1.409 . S
C1555 C1554 1.362 . S
H1556 C1562 0.930 . S
H1557 C1565 0.930 . S
H1558 C1566 0.930 1_554 S
H1559 C1567 0.930 1_554 S
H1560 C1570 0.930 . S
H1561 C1571 0.930 . S
C1562 H1556 0.930 . S
C1562 C1563 1.355 . S
C1562 C1564 1.415 . S
C1563 C1562 1.355 . S
C1563 C1565 1.419 . S
C1564 C1562 1.415 . S
C1564 C1569 1.425 . S
C1564 C1571 1.409 . S
C1565 H1557 0.930 . S
C1565 C1563 1.419 . S
C1565 C1566 1.362 . S
C1566 H1558 0.930 1_556 S
C1566 C1565 1.362 . S
C1566 C1569 1.409 . S
C1567 H1559 0.930 1_556 S
C1567 C1568 1.355 . S
C1567 C1569 1.415 . S
C1568 C1567 1.355 . S
C1568 C1570 1.419 . S
C1569 C1564 1.425 . S
C1569 C1566 1.409 . S
C1569 C1567 1.415 . S
C1570 H1560 0.930 . S
C1570 C1568 1.419 . S
C1570 C1571 1.362 . S
C1571 H1561 0.930 . S
C1571 C1564 1.409 . S
C1571 C1570 1.362 . S
H1572 C1578 0.930 . S
H1573 C1581 0.930 . S
H1574 C1582 0.930 . S
H1575 C1583 0.930 . S
H1576 C1586 0.930 . S
H1577 C1587 0.930 . S
C1578 H1572 0.930 . S
C1578 C1579 1.355 . S
C1578 C1580 1.415 . S
C1579 C1578 1.355 . S
C1579 C1581 1.419 . S
C1580 C1578 1.415 . S
C1580 C1585 1.425 . S
C1580 C1587 1.409 . S
C1581 H1573 0.930 . S
C1581 C1579 1.419 . S
C1581 C1582 1.362 . S
C1582 H1574 0.930 . S
C1582 C1581 1.362 . S
C1582 C1585 1.409 . S
C1583 H1575 0.930 . S
C1583 C1584 1.355 . S
C1583 C1585 1.415 . S
C1584 C1583 1.355 . S
C1584 C1586 1.419 . S
C1585 C1580 1.425 . S
C1585 C1582 1.409 . S
C1585 C1583 1.415 . S
C1586 H1576 0.930 . S
C1586 C1584 1.419 . S
C1586 C1587 1.362 . S
C1587 H1577 0.930 . S
C1587 C1580 1.409 . S
C1587 C1586 1.362 . S
H1588 C1594 0.930 . S
H1589 C1597 0.930 . S
H1590 C1598 0.930 1_554 S
H1591 C1599 0.930 1_554 S
H1592 C1602 0.930 . S
H1593 C1603 0.930 . S
C1594 H1588 0.930 . S
C1594 C1595 1.355 . S
C1594 C1596 1.415 . S
C1595 C1594 1.355 . S
C1595 C1597 1.419 . S
C1596 C1594 1.415 . S
C1596 C1601 1.425 . S
C1596 C1603 1.409 . S
C1597 H1589 0.930 . S
C1597 C1595 1.419 . S
C1597 C1598 1.362 . S
C1598 H1590 0.930 1_556 S
C1598 C1597 1.362 . S
C1598 C1601 1.409 . S
C1599 H1591 0.930 1_556 S
C1599 C1600 1.355 . S
C1599 C1601 1.415 . S
C1600 C1599 1.355 . S
C1600 C1602 1.419 . S
C1601 C1596 1.425 . S
C1601 C1598 1.409 . S
C1601 C1599 1.415 . S
C1602 H1592 0.930 . S
C1602 C1600 1.419 . S
C1602 C1603 1.362 . S
C1603 H1593 0.930 . S
C1603 C1596 1.409 . S
C1603 C1602 1.362 . S
H1604 C1610 0.930 . S
H1605 C1613 0.930 . S
H1606 C1614 0.930 . S
H1607 C1615 0.930 . S
H1608 C1618 0.930 . S
H1609 C1619 0.930 . S
C1610 H1604 0.930 . S
C1610 C1611 1.355 . S
C1610 C1612 1.415 . S
C1611 C1610 1.355 . S
C1611 C1613 1.419 . S
C1612 C1610 1.415 . S
C1612 C1617 1.425 . S
C1612 C1619 1.409 . S
C1613 H1605 0.930 . S
C1613 C1611 1.419 . S
C1613 C1614 1.362 . S
C1614 H1606 0.930 . S
C1614 C1613 1.362 . S
C1614 C1617 1.409 . S
C1615 H1607 0.930 . S
C1615 C1616 1.355 . S
C1615 C1617 1.415 . S
C1616 C1615 1.355 . S
C1616 C1618 1.419 . S
C1617 C1612 1.425 . S
C1617 C1614 1.409 . S
C1617 C1615 1.415 . S
C1618 H1608 0.930 . S
C1618 C1616 1.419 . S
C1618 C1619 1.362 . S
C1619 H1609 0.930 . S
C1619 C1612 1.409 . S
C1619 C1618 1.362 . S
H1620 C1626 0.930 . S
H1621 C1629 0.930 . S
H1622 C1630 0.930 . S
H1623 C1631 0.930 . S
H1624 C1634 0.933 1_556 S
H1625 C1635 0.930 . S
C1626 H1620 0.930 . S
C1626 C1627 1.355 . S
C1626 C1628 1.415 . S
C1627 C1626 1.355 . S
C1627 C1629 1.419 . S
C1628 C1626 1.415 . S
C1628 C1633 1.425 . S
C1628 C1635 1.409 . S
C1629 H1621 0.930 . S
C1629 C1627 1.419 . S
C1629 C1630 1.362 . S
C1630 H1622 0.930 . S
C1630 C1629 1.362 . S
C1630 C1633 1.409 . S
C1631 H1623 0.930 . S
C1631 C1632 1.355 . S
C1631 C1633 1.415 . S
C1632 C1631 1.355 . S
C1632 C1634 1.419 . S
C1633 C1628 1.425 . S
C1633 C1630 1.409 . S
C1633 C1631 1.415 . S
C1634 H1624 0.933 1_554 S
C1634 C1632 1.419 . S
C1634 C1635 1.362 . S
C1635 H1625 0.930 . S
C1635 C1628 1.409 . S
C1635 C1634 1.362 . S
H1636 C1642 0.930 . S
H1637 C1645 0.930 . S
H1638 C1646 0.930 . S
H1639 C1647 0.930 . S
H1640 C1650 0.930 . S
H1641 C1651 0.930 . S
C1642 H1636 0.930 . S
C1642 C1643 1.355 . S
C1642 C1644 1.415 . S
C1643 C1642 1.355 . S
C1643 C1645 1.419 . S
C1644 C1642 1.415 . S
C1644 C1649 1.425 . S
C1644 C1651 1.409 . S
C1645 H1637 0.930 . S
C1645 C1643 1.419 . S
C1645 C1646 1.362 . S
C1646 H1638 0.930 . S
C1646 C1645 1.362 . S
C1646 C1649 1.409 . S
C1647 H1639 0.930 . S
C1647 C1648 1.355 . S
C1647 C1649 1.415 . S
C1648 C1647 1.355 . S
C1648 C1650 1.419 . S
C1649 C1644 1.425 . S
C1649 C1646 1.409 . S
C1649 C1647 1.415 . S
C1650 H1640 0.930 . S
C1650 C1648 1.419 . S
C1650 C1651 1.362 . S
C1651 H1641 0.930 . S
C1651 C1644 1.409 . S
C1651 C1650 1.362 . S
H1652 C1658 0.930 . S
H1653 C1661 0.930 . S
H1654 C1662 0.930 . S
H1655 C1663 0.930 . S
H1656 C1666 0.930 1_556 S
H1657 C1667 0.930 1_556 S
C1658 H1652 0.930 . S
C1658 C1659 1.355 . S
C1658 C1660 1.415 . S
C1659 C1658 1.355 . S
C1659 C1661 1.419 . S
C1660 C1658 1.415 . S
C1660 C1665 1.425 . S
C1660 C1667 1.409 . S
C1661 H1653 0.930 . S
C1661 C1659 1.419 . S
C1661 C1662 1.362 . S
C1662 H1654 0.930 . S
C1662 C1661 1.362 . S
C1662 C1665 1.409 . S
C1663 H1655 0.930 . S
C1663 C1664 1.355 . S
C1663 C1665 1.415 . S
C1664 C1663 1.355 . S
C1664 C1666 1.419 . S
C1665 C1660 1.425 . S
C1665 C1662 1.409 . S
C1665 C1663 1.415 . S
C1666 H1656 0.930 1_554 S
C1666 C1664 1.419 . S
C1666 C1667 1.362 . S
C1667 H1657 0.930 1_554 S
C1667 C1660 1.409 . S
C1667 C1666 1.362 . S
H1668 C1674 0.930 . S
H1669 C1677 0.930 . S
H1670 C1678 0.930 . S
H1671 C1679 0.930 . S
H1672 C1682 0.930 . S
H1673 C1683 0.930 . S
C1674 H1668 0.930 . S
C1674 C1675 1.355 . S
C1674 C1676 1.415 . S
C1675 C1674 1.355 . S
C1675 C1677 1.419 . S
C1676 C1674 1.415 . S
C1676 C1681 1.425 . S
C1676 C1683 1.409 . S
C1677 H1669 0.930 . S
C1677 C1675 1.419 . S
C1677 C1678 1.362 . S
C1678 H1670 0.930 . S
C1678 C1677 1.362 . S
C1678 C1681 1.409 . S
C1679 H1671 0.930 . S
C1679 C1680 1.355 . S
C1679 C1681 1.415 . S
C1680 C1679 1.355 . S
C1680 C1682 1.419 . S
C1681 C1676 1.425 . S
C1681 C1678 1.409 . S
C1681 C1679 1.415 . S
C1682 H1672 0.930 . S
C1682 C1680 1.419 . S
C1682 C1683 1.362 . S
C1683 H1673 0.930 . S
C1683 C1676 1.409 . S
C1683 C1682 1.362 . S
H1684 C1690 0.930 . S
H1685 C1693 0.930 . S
H1686 C1694 0.930 . S
H1687 C1695 0.930 . S
H1688 C1698 0.930 . S
H1689 C1699 0.930 . S
C1690 H1684 0.930 . S
C1690 C1691 1.355 . S
C1690 C1692 1.415 . S
C1691 C1690 1.355 . S
C1691 C1693 1.419 . S
C1692 C1690 1.415 . S
C1692 C1697 1.425 . S
C1692 C1699 1.409 . S
C1693 H1685 0.930 . S
C1693 C1691 1.419 . S
C1693 C1694 1.362 . S
C1694 H1686 0.930 . S
C1694 C1693 1.362 . S
C1694 C1697 1.409 . S
C1695 H1687 0.930 . S
C1695 C1696 1.355 . S
C1695 C1697 1.415 . S
C1696 C1695 1.355 . S
C1696 C1698 1.419 . S
C1697 C1692 1.425 . S
C1697 C1694 1.409 . S
C1697 C1695 1.415 . S
C1698 H1688 0.930 . S
C1698 C1696 1.419 . S
C1698 C1699 1.362 . S
C1699 H1689 0.930 . S
C1699 C1692 1.409 . S
C1699 C1698 1.362 . S
H1700 C1706 0.930 . S
H1701 C1709 0.930 . S
H1702 C1710 0.930 . S
H1703 C1711 0.930 . S
H1704 C1714 0.930 . S
H1705 C1715 0.930 . S
C1706 H1700 0.930 . S
C1706 C1707 1.355 . S
C1706 C1708 1.415 . S
C1707 C1706 1.355 . S
C1707 C1709 1.419 . S
C1708 C1706 1.415 . S
C1708 C1713 1.425 . S
C1708 C1715 1.409 . S
C1709 H1701 0.930 . S
C1709 C1707 1.419 . S
C1709 C1710 1.362 . S
C1710 H1702 0.930 . S
C1710 C1709 1.362 . S
C1710 C1713 1.409 . S
C1711 H1703 0.930 . S
C1711 C1712 1.355 . S
C1711 C1713 1.415 . S
C1712 C1711 1.355 . S
C1712 C1714 1.419 . S
C1713 C1708 1.425 . S
C1713 C1710 1.409 . S
C1713 C1711 1.415 . S
C1714 H1704 0.930 . S
C1714 C1712 1.419 . S
C1714 C1715 1.362 . S
C1715 H1705 0.930 . S
C1715 C1708 1.409 . S
C1715 C1714 1.362 . S
H1716 C1722 0.930 . S
H1717 C1725 0.930 . S
H1718 C1726 0.930 . S
H1719 C1727 0.930 . S
H1720 C1730 0.930 . S
H1721 C1731 0.930 . S
C1722 H1716 0.930 . S
C1722 C1723 1.355 . S
C1722 C1724 1.415 . S
C1723 C1722 1.355 . S
C1723 C1725 1.419 . S
C1724 C1722 1.415 . S
C1724 C1729 1.425 . S
C1724 C1731 1.409 . S
C1725 H1717 0.930 . S
C1725 C1723 1.419 . S
C1725 C1726 1.362 . S
C1726 H1718 0.930 . S
C1726 C1725 1.362 . S
C1726 C1729 1.409 . S
C1727 H1719 0.930 . S
C1727 C1728 1.355 . S
C1727 C1729 1.415 . S
C1728 C1727 1.355 . S
C1728 C1730 1.419 . S
C1729 C1724 1.425 . S
C1729 C1726 1.409 . S
C1729 C1727 1.415 . S
C1730 H1720 0.930 . S
C1730 C1728 1.419 . S
C1730 C1731 1.362 . S
C1731 H1721 0.930 . S
C1731 C1724 1.409 . S
C1731 C1730 1.362 . S
H1732 C1738 0.930 . S
H1733 C1741 0.930 . S
H1734 C1742 0.930 . S
H1735 C1743 0.930 . S
H1736 C1746 0.930 . S
H1737 C1747 0.930 . S
C1738 H1732 0.930 . S
C1738 C1739 1.355 . S
C1738 C1740 1.415 . S
C1739 C1738 1.355 . S
C1739 C1741 1.419 . S
C1740 C1738 1.415 . S
C1740 C1745 1.425 . S
C1740 C1747 1.409 . S
C1741 H1733 0.930 . S
C1741 C1739 1.419 . S
C1741 C1742 1.362 . S
C1742 H1734 0.930 . S
C1742 C1741 1.362 . S
C1742 C1745 1.409 . S
C1743 H1735 0.930 . S
C1743 C1744 1.355 . S
C1743 C1745 1.415 . S
C1744 C1743 1.355 . S
C1744 C1746 1.419 . S
C1745 C1740 1.425 . S
C1745 C1742 1.409 . S
C1745 C1743 1.415 . S
C1746 H1736 0.930 . S
C1746 C1744 1.419 . S
C1746 C1747 1.362 . S
C1747 H1737 0.930 . S
C1747 C1740 1.409 . S
C1747 C1746 1.362 . S
H1748 C1754 0.930 . S
H1749 C1757 0.930 . S
H1750 C1758 0.930 . S
H1751 C1759 0.930 . S
H1752 C1762 0.930 . S
H1753 C1763 0.930 . S
C1754 H1748 0.930 . S
C1754 C1755 1.355 . S
C1754 C1756 1.415 . S
C1755 C1754 1.355 . S
C1755 C1757 1.419 . S
C1756 C1754 1.415 . S
C1756 C1761 1.425 . S
C1756 C1763 1.409 . S
C1757 H1749 0.930 . S
C1757 C1755 1.419 . S
C1757 C1758 1.362 . S
C1758 H1750 0.930 . S
C1758 C1757 1.362 . S
C1758 C1761 1.409 . S
C1759 H1751 0.930 . S
C1759 C1760 1.355 . S
C1759 C1761 1.415 . S
C1760 C1759 1.355 . S
C1760 C1762 1.419 . S
C1761 C1756 1.425 . S
C1761 C1758 1.409 . S
C1761 C1759 1.415 . S
C1762 H1752 0.930 . S
C1762 C1760 1.419 . S
C1762 C1763 1.362 . S
C1763 H1753 0.930 . S
C1763 C1756 1.409 . S
C1763 C1762 1.362 . S
H1764 C1770 0.930 . S
H1765 C1773 0.930 . S
H1766 C1774 0.930 . S
H1767 C1775 0.930 . S
H1768 C1778 0.930 . S
H1769 C1779 0.930 . S
C1770 H1764 0.930 . S
C1770 C1771 1.355 . S
C1770 C1772 1.415 . S
C1771 C1770 1.355 . S
C1771 C1773 1.419 . S
C1772 C1770 1.415 . S
C1772 C1777 1.425 . S
C1772 C1779 1.409 . S
C1773 H1765 0.930 . S
C1773 C1771 1.419 . S
C1773 C1774 1.362 . S
C1774 H1766 0.930 . S
C1774 C1773 1.362 . S
C1774 C1777 1.409 . S
C1775 H1767 0.930 . S
C1775 C1776 1.355 . S
C1775 C1777 1.415 . S
C1776 C1775 1.355 . S
C1776 C1778 1.419 . S
C1777 C1772 1.425 . S
C1777 C1774 1.409 . S
C1777 C1775 1.415 . S
C1778 H1768 0.930 . S
C1778 C1776 1.419 . S
C1778 C1779 1.362 . S
C1779 H1769 0.930 . S
C1779 C1772 1.409 . S
C1779 C1778 1.362 . S
H1780 C1786 0.930 . S
H1781 C1789 0.930 . S
H1782 C1790 0.930 . S
H1783 C1791 0.930 . S
H1784 C1794 0.930 . S
H1785 C1795 0.930 . S
C1786 H1780 0.930 . S
C1786 C1787 1.355 . S
C1786 C1788 1.415 . S
C1787 C1786 1.355 . S
C1787 C1789 1.419 . S
C1788 C1786 1.415 . S
C1788 C1793 1.425 . S
C1788 C1795 1.409 . S
C1789 H1781 0.930 . S
C1789 C1787 1.419 . S
C1789 C1790 1.362 . S
C1790 H1782 0.930 . S
C1790 C1789 1.362 . S
C1790 C1793 1.409 . S
C1791 H1783 0.930 . S
C1791 C1792 1.355 . S
C1791 C1793 1.415 . S
C1792 C1791 1.355 . S
C1792 C1794 1.419 . S
C1793 C1788 1.425 . S
C1793 C1790 1.409 . S
C1793 C1791 1.415 . S
C1794 H1784 0.930 . S
C1794 C1792 1.419 . S
C1794 C1795 1.362 . S
C1795 H1785 0.930 . S
C1795 C1788 1.409 . S
C1795 C1794 1.362 . S
H1796 C1802 0.930 . S
H1797 C1805 0.930 . S
H1798 C1806 0.930 . S
H1799 C1807 0.930 . S
H1800 C1810 0.930 . S
H1801 C1811 0.930 . S
C1802 H1796 0.930 . S
C1802 C1803 1.355 . S
C1802 C1804 1.415 . S
C1803 C1802 1.355 . S
C1803 C1805 1.419 . S
C1804 C1802 1.415 . S
C1804 C1809 1.425 . S
C1804 C1811 1.409 . S
C1805 H1797 0.930 . S
C1805 C1803 1.419 . S
C1805 C1806 1.362 . S
C1806 H1798 0.930 . S
C1806 C1805 1.362 . S
C1806 C1809 1.409 . S
C1807 H1799 0.930 . S
C1807 C1808 1.355 . S
C1807 C1809 1.415 . S
C1808 C1807 1.355 . S
C1808 C1810 1.419 . S
C1809 C1804 1.425 . S
C1809 C1806 1.409 . S
C1809 C1807 1.415 . S
C1810 H1800 0.930 . S
C1810 C1808 1.419 . S
C1810 C1811 1.362 . S
C1811 H1801 0.930 . S
C1811 C1804 1.409 . S
C1811 C1810 1.362 . S
H1812 C1818 0.930 . S
H1813 C1821 0.930 . S
H1814 C1822 0.930 . S
H1815 C1823 0.930 . S
H1816 C1826 0.930 . S
H1817 C1827 0.930 . S
C1818 H1812 0.930 . S
C1818 C1819 1.355 . S
C1818 C1820 1.415 . S
C1819 C1818 1.355 . S
C1819 C1821 1.419 . S
C1820 C1818 1.415 . S
C1820 C1825 1.425 . S
C1820 C1827 1.409 . S
C1821 H1813 0.930 . S
C1821 C1819 1.419 . S
C1821 C1822 1.362 . S
C1822 H1814 0.930 . S
C1822 C1821 1.362 . S
C1822 C1825 1.409 . S
C1823 H1815 0.930 . S
C1823 C1824 1.355 . S
C1823 C1825 1.415 . S
C1824 C1823 1.355 . S
C1824 C1826 1.419 . S
C1825 C1820 1.425 . S
C1825 C1822 1.409 . S
C1825 C1823 1.415 . S
C1826 H1816 0.930 . S
C1826 C1824 1.419 . S
C1826 C1827 1.362 . S
C1827 H1817 0.930 . S
C1827 C1820 1.409 . S
C1827 C1826 1.362 . S
H1828 C1834 0.930 . S
H1829 C1837 0.930 . S
H1830 C1838 0.930 . S
H1831 C1839 0.930 . S
H1832 C1842 0.930 . S
H1833 C1843 0.930 . S
C1834 H1828 0.930 . S
C1834 C1835 1.355 . S
C1834 C1836 1.415 . S
C1835 C1834 1.355 . S
C1835 C1837 1.419 . S
C1836 C1834 1.415 . S
C1836 C1841 1.425 . S
C1836 C1843 1.409 . S
C1837 H1829 0.930 . S
C1837 C1835 1.419 . S
C1837 C1838 1.362 . S
C1838 H1830 0.930 . S
C1838 C1837 1.362 . S
C1838 C1841 1.409 . S
C1839 H1831 0.930 . S
C1839 C1840 1.355 . S
C1839 C1841 1.415 . S
C1840 C1839 1.355 . S
C1840 C1842 1.419 . S
C1841 C1836 1.425 . S
C1841 C1838 1.409 . S
C1841 C1839 1.415 . S
C1842 H1832 0.930 . S
C1842 C1840 1.419 . S
C1842 C1843 1.362 . S
C1843 H1833 0.930 . S
C1843 C1836 1.409 . S
C1843 C1842 1.362 . S
H1844 C1850 0.930 . S
H1845 C1853 0.930 . S
H1846 C1854 0.930 . S
H1847 C1855 0.930 . S
H1848 C1858 0.930 . S
H1849 C1859 0.930 . S
C1850 H1844 0.930 . S
C1850 C1851 1.355 . S
C1850 C1852 1.415 . S
C1851 C1850 1.355 . S
C1851 C1853 1.419 . S
C1852 C1850 1.415 . S
C1852 C1857 1.425 . S
C1852 C1859 1.409 . S
C1853 H1845 0.930 . S
C1853 C1851 1.419 . S
C1853 C1854 1.362 . S
C1854 H1846 0.930 . S
C1854 C1853 1.362 . S
C1854 C1857 1.409 . S
C1855 H1847 0.930 . S
C1855 C1856 1.355 . S
C1855 C1857 1.415 . S
C1856 C1855 1.355 . S
C1856 C1858 1.419 . S
C1857 C1852 1.425 . S
C1857 C1854 1.409 . S
C1857 C1855 1.415 . S
C1858 H1848 0.930 . S
C1858 C1856 1.419 . S
C1858 C1859 1.362 . S
C1859 H1849 0.930 . S
C1859 C1852 1.409 . S
C1859 C1858 1.362 . S
H1860 C1866 0.930 . S
H1861 C1869 0.930 . S
H1862 C1870 0.930 . S
H1863 C1871 0.930 . S
H1864 C1874 0.930 . S
H1865 C1875 0.930 . S
C1866 H1860 0.930 . S
C1866 C1867 1.355 . S
C1866 C1868 1.415 . S
C1867 C1866 1.355 . S
C1867 C1869 1.419 . S
C1868 C1866 1.415 . S
C1868 C1873 1.425 . S
C1868 C1875 1.409 . S
C1869 H1861 0.930 . S
C1869 C1867 1.419 . S
C1869 C1870 1.362 . S
C1870 H1862 0.930 . S
C1870 C1869 1.362 . S
C1870 C1873 1.409 . S
C1871 H1863 0.930 . S
C1871 C1872 1.355 . S
C1871 C1873 1.415 . S
C1872 C1871 1.355 . S
C1872 C1874 1.419 . S
C1873 C1868 1.425 . S
C1873 C1870 1.409 . S
C1873 C1871 1.415 . S
C1874 H1864 0.930 . S
C1874 C1872 1.419 . S
C1874 C1875 1.362 . S
C1875 H1865 0.930 . S
C1875 C1868 1.409 . S
C1875 C1874 1.362 . S
H1876 C1882 0.930 . S
H1877 C1885 0.930 . S
H1878 C1886 0.930 . S
H1879 C1887 0.930 . S
H1880 C1890 0.930 . S
H1881 C1891 0.930 . S
C1882 H1876 0.930 . S
C1882 C1883 1.355 . S
C1882 C1884 1.415 . S
C1883 C1882 1.355 . S
C1883 C1885 1.419 . S
C1884 C1882 1.415 . S
C1884 C1889 1.425 . S
C1884 C1891 1.409 . S
C1885 H1877 0.930 . S
C1885 C1883 1.419 . S
C1885 C1886 1.362 . S
C1886 H1878 0.930 . S
C1886 C1885 1.362 . S
C1886 C1889 1.409 . S
C1887 H1879 0.930 . S
C1887 C1888 1.355 . S
C1887 C1889 1.415 . S
C1888 C1887 1.355 . S
C1888 C1890 1.419 . S
C1889 C1884 1.425 . S
C1889 C1886 1.409 . S
C1889 C1887 1.415 . S
C1890 H1880 0.930 . S
C1890 C1888 1.419 . S
C1890 C1891 1.362 . S
C1891 H1881 0.930 . S
C1891 C1884 1.409 . S
C1891 C1890 1.362 . S
H1892 C1898 0.930 . S
H1893 C1901 0.930 . S
H1894 C1902 0.930 . S
H1895 C1903 0.930 . S
H1896 C1906 0.930 . S
H1897 C1907 0.930 . S
C1898 H1892 0.930 . S
C1898 C1899 1.355 . S
C1898 C1900 1.415 . S
C1899 C1898 1.355 . S
C1899 C1901 1.419 . S
C1900 C1898 1.415 . S
C1900 C1905 1.425 . S
C1900 C1907 1.409 . S
C1901 H1893 0.930 . S
C1901 C1899 1.419 . S
C1901 C1902 1.362 . S
C1902 H1894 0.930 . S
C1902 C1901 1.362 . S
C1902 C1905 1.409 . S
C1903 H1895 0.930 . S
C1903 C1904 1.355 . S
C1903 C1905 1.415 . S
C1904 C1903 1.355 . S
C1904 C1906 1.419 . S
C1905 C1900 1.425 . S
C1905 C1902 1.409 . S
C1905 C1903 1.415 . S
C1906 H1896 0.930 . S
C1906 C1904 1.419 . S
C1906 C1907 1.362 . S
C1907 H1897 0.930 . S
C1907 C1900 1.409 . S
C1907 C1906 1.362 . S
H1908 C1914 0.930 . S
H1909 C1917 0.930 . S
H1910 C1918 0.930 . S
H1911 C1919 0.930 . S
H1912 C1922 0.930 . S
H1913 C1923 0.930 . S
C1914 H1908 0.930 . S
C1914 C1915 1.355 . S
C1914 C1916 1.415 . S
C1915 C1914 1.355 . S
C1915 C1917 1.419 . S
C1916 C1914 1.415 . S
C1916 C1921 1.425 . S
C1916 C1923 1.409 . S
C1917 H1909 0.930 . S
C1917 C1915 1.419 . S
C1917 C1918 1.362 . S
C1918 H1910 0.930 . S
C1918 C1917 1.362 . S
C1918 C1921 1.409 . S
C1919 H1911 0.930 . S
C1919 C1920 1.355 . S
C1919 C1921 1.415 . S
C1920 C1919 1.355 . S
C1920 C1922 1.419 . S
C1921 C1916 1.425 . S
C1921 C1918 1.409 . S
C1921 C1919 1.415 . S
C1922 H1912 0.930 . S
C1922 C1920 1.419 . S
C1922 C1923 1.362 . S
C1923 H1913 0.930 . S
C1923 C1916 1.409 . S
C1923 C1922 1.362 . S
H1924 C1930 0.930 . S
H1925 C1933 0.930 . S
H1926 C1934 0.930 . S
H1927 C1935 0.930 . S
H1928 C1938 0.930 . S
H1929 C1939 0.930 . S
C1930 H1924 0.930 . S
C1930 C1931 1.355 . S
C1930 C1932 1.415 . S
C1931 C1930 1.355 . S
C1931 C1933 1.419 . S
C1932 C1930 1.415 . S
C1932 C1937 1.425 . S
C1932 C1939 1.409 . S
C1933 H1925 0.930 . S
C1933 C1931 1.419 . S
C1933 C1934 1.362 . S
C1934 H1926 0.930 . S
C1934 C1933 1.362 . S
C1934 C1937 1.409 . S
C1935 H1927 0.930 . S
C1935 C1936 1.355 . S
C1935 C1937 1.415 . S
C1936 C1935 1.355 . S
C1936 C1938 1.419 . S
C1937 C1932 1.425 . S
C1937 C1934 1.409 . S
C1937 C1935 1.415 . S
C1938 H1928 0.930 . S
C1938 C1936 1.419 . S
C1938 C1939 1.362 . S
C1939 H1929 0.930 . S
C1939 C1932 1.409 . S
C1939 C1938 1.362 . S
H1940 C1946 0.930 . S
H1941 C1949 0.930 . S
H1942 C1950 0.930 . S
H1943 C1951 0.930 . S
H1944 C1954 0.930 . S
H1945 C1955 0.930 . S
C1946 H1940 0.930 . S
C1946 C1947 1.355 . S
C1946 C1948 1.415 . S
C1947 C1946 1.355 . S
C1947 C1949 1.419 . S
C1948 C1946 1.415 . S
C1948 C1953 1.425 . S
C1948 C1955 1.409 . S
C1949 H1941 0.930 . S
C1949 C1947 1.419 . S
C1949 C1950 1.362 . S
C1950 H1942 0.930 . S
C1950 C1949 1.362 . S
C1950 C1953 1.409 . S
C1951 H1943 0.930 . S
C1951 C1952 1.355 . S
C1951 C1953 1.415 . S
C1952 C1951 1.355 . S
C1952 C1954 1.419 . S
C1953 C1948 1.425 . S
C1953 C1950 1.409 . S
C1953 C1951 1.415 . S
C1954 H1944 0.930 . S
C1954 C1952 1.419 . S
C1954 C1955 1.362 . S
C1955 H1945 0.930 . S
C1955 C1948 1.409 . S
C1955 C1954 1.362 . S
H1956 C1962 0.930 . S
H1957 C1965 0.930 . S
H1958 C1966 0.930 . S
H1959 C1967 0.930 . S
H1960 C1970 0.930 . S
H1961 C1971 0.930 . S
C1962 H1956 0.930 . S
C1962 C1963 1.355 . S
C1962 C1964 1.415 . S
C1963 C1962 1.355 . S
C1963 C1965 1.419 . S
C1964 C1962 1.415 . S
C1964 C1969 1.425 . S
C1964 C1971 1.409 . S
C1965 H1957 0.930 . S
C1965 C1963 1.419 . S
C1965 C1966 1.362 . S
C1966 H1958 0.930 . S
C1966 C1965 1.362 . S
C1966 C1969 1.409 . S
C1967 H1959 0.930 . S
C1967 C1968 1.355 . S
C1967 C1969 1.415 . S
C1968 C1967 1.355 . S
C1968 C1970 1.419 . S
C1969 C1964 1.425 . S
C1969 C1966 1.409 . S
C1969 C1967 1.415 . S
C1970 H1960 0.930 . S
C1970 C1968 1.419 . S
C1970 C1971 1.362 . S
C1971 H1961 0.930 . S
C1971 C1964 1.409 . S
C1971 C1970 1.362 . S
H1972 C1978 0.930 . S
H1973 C1981 0.930 . S
H1974 C1982 0.930 . S
H1975 C1983 0.930 . S
H1976 C1986 0.930 . S
H1977 C1987 0.930 . S
C1978 H1972 0.930 . S
C1978 C1979 1.355 . S
C1978 C1980 1.415 . S
C1979 C1978 1.355 . S
C1979 C1981 1.419 . S
C1980 C1978 1.415 . S
C1980 C1985 1.425 . S
C1980 C1987 1.409 . S
C1981 H1973 0.930 . S
C1981 C1979 1.419 . S
C1981 C1982 1.362 . S
C1982 H1974 0.930 . S
C1982 C1981 1.362 . S
C1982 C1985 1.409 . S
C1983 H1975 0.930 . S
C1983 C1984 1.355 . S
C1983 C1985 1.415 . S
C1984 C1983 1.355 . S
C1984 C1986 1.419 . S
C1985 C1980 1.425 . S
C1985 C1982 1.409 . S
C1985 C1983 1.415 . S
C1986 H1976 0.930 . S
C1986 C1984 1.419 . S
C1986 C1987 1.362 . S
C1987 H1977 0.930 . S
C1987 C1980 1.409 . S
C1987 C1986 1.362 . S
H1988 C1994 0.930 . S
H1989 C1997 0.930 . S
H1990 C1998 0.930 . S
H1991 C1999 0.930 . S
H1992 C2002 0.930 . S
H1993 C2003 0.930 . S
C1994 H1988 0.930 . S
C1994 C1995 1.355 . S
C1994 C1996 1.415 . S
C1995 C1994 1.355 . S
C1995 C1997 1.419 . S
C1996 C1994 1.415 . S
C1996 C2001 1.425 . S
C1996 C2003 1.409 . S
C1997 H1989 0.930 . S
C1997 C1995 1.419 . S
C1997 C1998 1.362 . S
C1998 H1990 0.930 . S
C1998 C1997 1.362 . S
C1998 C2001 1.409 . S
C1999 H1991 0.930 . S
C1999 C2000 1.355 . S
C1999 C2001 1.415 . S
C2000 C1999 1.355 . S
C2000 C2002 1.419 . S
C2001 C1996 1.425 . S
C2001 C1998 1.409 . S
C2001 C1999 1.415 . S
C2002 H1992 0.930 . S
C2002 C2000 1.419 . S
C2002 C2003 1.362 . S
C2003 H1993 0.930 . S
C2003 C1996 1.409 . S
C2003 C2002 1.362 . S
H2004 C2010 0.930 . S
H2005 C2013 0.930 . S
H2006 C2014 0.930 . S
H2007 C2015 0.930 . S
H2008 C2018 0.930 . S
H2009 C2019 0.930 . S
C2010 H2004 0.930 . S
C2010 C2011 1.355 . S
C2010 C2012 1.415 . S
C2011 C2010 1.355 . S
C2011 C2013 1.419 . S
C2012 C2010 1.415 . S
C2012 C2017 1.425 . S
C2012 C2019 1.409 . S
C2013 H2005 0.930 . S
C2013 C2011 1.419 . S
C2013 C2014 1.362 . S
C2014 H2006 0.930 . S
C2014 C2013 1.362 . S
C2014 C2017 1.409 . S
C2015 H2007 0.930 . S
C2015 C2016 1.355 . S
C2015 C2017 1.415 . S
C2016 C2015 1.355 . S
C2016 C2018 1.419 . S
C2017 C2012 1.425 . S
C2017 C2014 1.409 . S
C2017 C2015 1.415 . S
C2018 H2008 0.930 . S
C2018 C2016 1.419 . S
C2018 C2019 1.362 . S
C2019 H2009 0.930 . S
C2019 C2012 1.409 . S
C2019 C2018 1.362 . S
H2020 C2026 0.930 . S
H2021 C2029 0.930 . S
H2022 C2030 0.930 . S
H2023 C2031 0.930 . S
H2024 C2034 0.930 . S
H2025 C2035 0.930 . S
C2026 H2020 0.930 . S
C2026 C2027 1.355 . S
C2026 C2028 1.415 . S
C2027 C2026 1.355 . S
C2027 C2029 1.419 . S
C2028 C2026 1.415 . S
C2028 C2033 1.425 . S
C2028 C2035 1.409 . S
C2029 H2021 0.930 . S
C2029 C2027 1.419 . S
C2029 C2030 1.362 . S
C2030 H2022 0.930 . S
C2030 C2029 1.362 . S
C2030 C2033 1.409 . S
C2031 H2023 0.930 . S
C2031 C2032 1.355 . S
C2031 C2033 1.415 . S
C2032 C2031 1.355 . S
C2032 C2034 1.419 . S
C2033 C2028 1.425 . S
C2033 C2030 1.409 . S
C2033 C2031 1.415 . S
C2034 H2024 0.930 . S
C2034 C2032 1.419 . S
C2034 C2035 1.362 . S
C2035 H2025 0.930 . S
C2035 C2028 1.409 . S
C2035 C2034 1.362 . S
H2036 C2042 0.930 . S
H2037 C2045 0.930 . S
H2038 C2046 0.930 . S
H2039 C2047 0.930 . S
H2040 C2050 0.930 . S
H2041 C2051 0.930 . S
C2042 H2036 0.930 . S
C2042 C2043 1.355 . S
C2042 C2044 1.415 . S
C2043 C2042 1.355 . S
C2043 C2045 1.419 . S
C2044 C2042 1.415 . S
C2044 C2049 1.425 . S
C2044 C2051 1.409 . S
C2045 H2037 0.930 . S
C2045 C2043 1.419 . S
C2045 C2046 1.362 . S
C2046 H2038 0.930 . S
C2046 C2045 1.362 . S
C2046 C2049 1.409 . S
C2047 H2039 0.930 . S
C2047 C2048 1.355 . S
C2047 C2049 1.415 . S
C2048 C2047 1.355 . S
C2048 C2050 1.419 . S
C2049 C2044 1.425 . S
C2049 C2046 1.409 . S
C2049 C2047 1.415 . S
C2050 H2040 0.930 . S
C2050 C2048 1.419 . S
C2050 C2051 1.362 . S
C2051 H2041 0.930 . S
C2051 C2044 1.409 . S
C2051 C2050 1.362 . S
H2052 C2058 0.930 . S
H2053 C2061 0.930 . S
H2054 C2062 0.930 . S
H2055 C2063 0.930 . S
H2056 C2066 0.930 . S
H2057 C2067 0.930 . S
C2058 H2052 0.930 . S
C2058 C2059 1.355 . S
C2058 C2060 1.415 . S
C2059 C2058 1.355 . S
C2059 C2061 1.419 . S
C2060 C2058 1.415 . S
C2060 C2065 1.425 . S
C2060 C2067 1.409 . S
C2061 H2053 0.930 . S
C2061 C2059 1.419 . S
C2061 C2062 1.362 . S
C2062 H2054 0.930 . S
C2062 C2061 1.362 . S
C2062 C2065 1.409 . S
C2063 H2055 0.930 . S
C2063 C2064 1.355 . S
C2063 C2065 1.415 . S
C2064 C2063 1.355 . S
C2064 C2066 1.419 . S
C2065 C2060 1.425 . S
C2065 C2062 1.409 . S
C2065 C2063 1.415 . S
C2066 H2056 0.930 . S
C2066 C2064 1.419 . S
C2066 C2067 1.362 . S
C2067 H2057 0.930 . S
C2067 C2060 1.409 . S
C2067 C2066 1.362 . S
H2068 C2074 0.930 . S
H2069 C2077 0.930 . S
H2070 C2078 0.930 . S
H2071 C2079 0.930 . S
H2072 C2082 0.930 1_655 S
H2073 C2083 0.930 1_655 S
C2074 H2068 0.930 . S
C2074 C2075 1.355 . S
C2074 C2076 1.415 . S
C2075 C2074 1.355 . S
C2075 C2077 1.419 . S
C2076 C2074 1.415 . S
C2076 C2081 1.425 . S
C2076 C2083 1.409 . S
C2077 H2069 0.930 . S
C2077 C2075 1.419 . S
C2077 C2078 1.362 . S
C2078 H2070 0.930 . S
C2078 C2077 1.362 . S
C2078 C2081 1.409 . S
C2079 H2071 0.930 . S
C2079 C2080 1.355 . S
C2079 C2081 1.415 . S
C2080 C2079 1.355 . S
C2080 C2082 1.419 . S
C2081 C2076 1.425 . S
C2081 C2078 1.409 . S
C2081 C2079 1.415 . S
C2082 H2072 0.930 1_455 S
C2082 C2080 1.419 . S
C2082 C2083 1.362 . S
C2083 H2073 0.930 1_455 S
C2083 C2076 1.409 . S
C2083 C2082 1.362 . S
H2084 C2090 0.930 . S
H2085 C2093 0.930 . S
H2086 C2094 0.930 . S
H2087 C2095 0.930 . S
H2088 C2098 0.930 . S
H2089 C2099 0.930 . S
C2090 H2084 0.930 . S
C2090 C2091 1.355 . S
C2090 C2092 1.415 . S
C2091 C2090 1.355 . S
C2091 C2093 1.419 . S
C2092 C2090 1.415 . S
C2092 C2097 1.425 . S
C2092 C2099 1.409 . S
C2093 H2085 0.930 . S
C2093 C2091 1.419 . S
C2093 C2094 1.362 . S
C2094 H2086 0.930 . S
C2094 C2093 1.362 . S
C2094 C2097 1.409 . S
C2095 H2087 0.930 . S
C2095 C2096 1.355 . S
C2095 C2097 1.415 . S
C2096 C2095 1.355 . S
C2096 C2098 1.419 . S
C2097 C2092 1.425 . S
C2097 C2094 1.409 . S
C2097 C2095 1.415 . S
C2098 H2088 0.930 . S
C2098 C2096 1.419 . S
C2098 C2099 1.362 . S
C2099 H2089 0.930 . S
C2099 C2092 1.409 . S
C2099 C2098 1.362 . S
H2100 C2106 0.930 . S
H2101 C2109 0.930 . S
H2102 C2110 0.930 . S
H2103 C2111 0.930 . S
H2104 C2114 0.930 1_455 S
H2105 C2115 0.930 1_455 S
C2106 H2100 0.930 . S
C2106 C2107 1.355 . S
C2106 C2108 1.415 . S
C2107 C2106 1.355 . S
C2107 C2109 1.419 . S
C2108 C2106 1.415 . S
C2108 C2113 1.425 . S
C2108 C2115 1.409 . S
C2109 H2101 0.930 . S
C2109 C2107 1.419 . S
C2109 C2110 1.362 . S
C2110 H2102 0.930 . S
C2110 C2109 1.362 . S
C2110 C2113 1.409 . S
C2111 H2103 0.930 . S
C2111 C2112 1.355 . S
C2111 C2113 1.415 . S
C2112 C2111 1.355 . S
C2112 C2114 1.419 . S
C2113 C2108 1.425 . S
C2113 C2110 1.409 . S
C2113 C2111 1.415 . S
C2114 H2104 0.930 1_655 S
C2114 C2112 1.419 . S
C2114 C2115 1.362 . S
C2115 H2105 0.930 1_655 S
C2115 C2108 1.409 . S
C2115 C2114 1.362 . S
H2116 C2122 0.930 . S
H2117 C2125 0.930 . S
H2118 C2126 0.930 . S
H2119 C2127 0.930 . S
H2120 C2130 0.930 . S
H2121 C2131 0.930 . S
C2122 H2116 0.930 . S
C2122 C2123 1.355 . S
C2122 C2124 1.415 . S
C2123 C2122 1.355 . S
C2123 C2125 1.419 . S
C2124 C2122 1.415 . S
C2124 C2129 1.425 . S
C2124 C2131 1.409 . S
C2125 H2117 0.930 . S
C2125 C2123 1.419 . S
C2125 C2126 1.362 . S
C2126 H2118 0.930 . S
C2126 C2125 1.362 . S
C2126 C2129 1.409 . S
C2127 H2119 0.930 . S
C2127 C2128 1.355 . S
C2127 C2129 1.415 . S
C2128 C2127 1.355 . S
C2128 C2130 1.419 . S
C2129 C2124 1.425 . S
C2129 C2126 1.409 . S
C2129 C2127 1.415 . S
C2130 H2120 0.930 . S
C2130 C2128 1.419 . S
C2130 C2131 1.362 . S
C2131 H2121 0.930 . S
C2131 C2124 1.409 . S
C2131 C2130 1.362 . S
H2132 C2138 0.930 . S
H2133 C2141 0.930 . S
H2134 C2142 0.930 . S
H2135 C2143 0.930 . S
H2136 C2146 0.930 . S
H2137 C2147 0.930 . S
C2138 H2132 0.930 . S
C2138 C2139 1.355 . S
C2138 C2140 1.415 . S
C2139 C2138 1.355 . S
C2139 C2141 1.419 . S
C2140 C2138 1.415 . S
C2140 C2145 1.425 . S
C2140 C2147 1.409 . S
C2141 H2133 0.930 . S
C2141 C2139 1.419 . S
C2141 C2142 1.362 . S
C2142 H2134 0.930 . S
C2142 C2141 1.362 . S
C2142 C2145 1.409 . S
C2143 H2135 0.930 . S
C2143 C2144 1.355 . S
C2143 C2145 1.415 . S
C2144 C2143 1.355 . S
C2144 C2146 1.419 . S
C2145 C2140 1.425 . S
C2145 C2142 1.409 . S
C2145 C2143 1.415 . S
C2146 H2136 0.930 . S
C2146 C2144 1.419 . S
C2146 C2147 1.362 . S
C2147 H2137 0.930 . S
C2147 C2140 1.409 . S
C2147 C2146 1.362 . S
H2148 C2154 0.930 . S
H2149 C2157 0.930 . S
H2150 C2158 0.930 . S
H2151 C2159 0.930 . S
H2152 C2162 0.930 . S
H2153 C2163 0.930 . S
C2154 H2148 0.930 . S
C2154 C2155 1.355 . S
C2154 C2156 1.415 . S
C2155 C2154 1.355 . S
C2155 C2157 1.419 . S
C2156 C2154 1.415 . S
C2156 C2161 1.425 . S
C2156 C2163 1.409 . S
C2157 H2149 0.930 . S
C2157 C2155 1.419 . S
C2157 C2158 1.362 . S
C2158 H2150 0.930 . S
C2158 C2157 1.362 . S
C2158 C2161 1.409 . S
C2159 H2151 0.930 . S
C2159 C2160 1.355 . S
C2159 C2161 1.415 . S
C2160 C2159 1.355 . S
C2160 C2162 1.419 . S
C2161 C2156 1.425 . S
C2161 C2158 1.409 . S
C2161 C2159 1.415 . S
C2162 H2152 0.930 . S
C2162 C2160 1.419 . S
C2162 C2163 1.362 . S
C2163 H2153 0.930 . S
C2163 C2156 1.409 . S
C2163 C2162 1.362 . S
H2164 C2170 0.930 . S
H2165 C2173 0.930 . S
H2166 C2174 0.930 . S
H2167 C2175 0.930 . S
H2168 C2178 0.930 . S
H2169 C2179 0.930 . S
C2170 H2164 0.930 . S
C2170 C2171 1.355 . S
C2170 C2172 1.415 . S
C2171 C2170 1.355 . S
C2171 C2173 1.419 . S
C2172 C2170 1.415 . S
C2172 C2177 1.425 . S
C2172 C2179 1.409 . S
C2173 H2165 0.930 . S
C2173 C2171 1.419 . S
C2173 C2174 1.362 . S
C2174 H2166 0.930 . S
C2174 C2173 1.362 . S
C2174 C2177 1.409 . S
C2175 H2167 0.930 . S
C2175 C2176 1.355 . S
C2175 C2177 1.415 . S
C2176 C2175 1.355 . S
C2176 C2178 1.419 . S
C2177 C2172 1.425 . S
C2177 C2174 1.409 . S
C2177 C2175 1.415 . S
C2178 H2168 0.930 . S
C2178 C2176 1.419 . S
C2178 C2179 1.362 . S
C2179 H2169 0.930 . S
C2179 C2172 1.409 . S
C2179 C2178 1.362 . S
H2180 C2186 0.930 . S
H2181 C2189 0.930 . S
H2182 C2190 0.930 . S
H2183 C2191 0.930 . S
H2184 C2194 0.930 . S
H2185 C2195 0.930 . S
C2186 H2180 0.930 . S
C2186 C2187 1.355 . S
C2186 C2188 1.415 . S
C2187 C2186 1.355 . S
C2187 C2189 1.419 . S
C2188 C2186 1.415 . S
C2188 C2193 1.425 . S
C2188 C2195 1.409 . S
C2189 H2181 0.930 . S
C2189 C2187 1.419 . S
C2189 C2190 1.362 . S
C2190 H2182 0.930 . S
C2190 C2189 1.362 . S
C2190 C2193 1.409 . S
C2191 H2183 0.930 . S
C2191 C2192 1.355 . S
C2191 C2193 1.415 . S
C2192 C2191 1.355 . S
C2192 C2194 1.419 . S
C2193 C2188 1.425 . S
C2193 C2190 1.409 . S
C2193 C2191 1.415 . S
C2194 H2184 0.930 . S
C2194 C2192 1.419 . S
C2194 C2195 1.362 . S
C2195 H2185 0.930 . S
C2195 C2188 1.409 . S
C2195 C2194 1.362 . S
H2196 C2202 0.930 . S
H2197 C2205 0.930 . S
H2198 C2206 0.930 . S
H2199 C2207 0.930 . S
H2200 C2210 0.930 . S
H2201 C2211 0.930 . S
C2202 H2196 0.930 . S
C2202 C2203 1.355 . S
C2202 C2204 1.415 . S
C2203 C2202 1.355 . S
C2203 C2205 1.419 . S
C2204 C2202 1.415 . S
C2204 C2209 1.425 . S
C2204 C2211 1.409 . S
C2205 H2197 0.930 . S
C2205 C2203 1.419 . S
C2205 C2206 1.362 . S
C2206 H2198 0.930 . S
C2206 C2205 1.362 . S
C2206 C2209 1.409 . S
C2207 H2199 0.930 . S
C2207 C2208 1.355 . S
C2207 C2209 1.415 . S
C2208 C2207 1.355 . S
C2208 C2210 1.419 . S
C2209 C2204 1.425 . S
C2209 C2206 1.409 . S
C2209 C2207 1.415 . S
C2210 H2200 0.930 . S
C2210 C2208 1.419 . S
C2210 C2211 1.362 . S
C2211 H2201 0.930 . S
C2211 C2204 1.409 . S
C2211 C2210 1.362 . S
H2212 C2218 0.930 . S
H2213 C2221 0.930 . S
H2214 C2222 0.930 . S
H2215 C2223 0.930 . S
H2216 C2226 0.930 . S
H2217 C2227 0.930 . S
C2218 H2212 0.930 . S
C2218 C2219 1.355 . S
C2218 C2220 1.415 . S
C2219 C2218 1.355 . S
C2219 C2221 1.419 . S
C2220 C2218 1.415 . S
C2220 C2225 1.425 . S
C2220 C2227 1.409 . S
C2221 H2213 0.930 . S
C2221 C2219 1.419 . S
C2221 C2222 1.362 . S
C2222 H2214 0.930 . S
C2222 C2221 1.362 . S
C2222 C2225 1.409 . S
C2223 H2215 0.930 . S
C2223 C2224 1.355 . S
C2223 C2225 1.415 . S
C2224 C2223 1.355 . S
C2224 C2226 1.419 . S
C2225 C2220 1.425 . S
C2225 C2222 1.409 . S
C2225 C2223 1.415 . S
C2226 H2216 0.930 . S
C2226 C2224 1.419 . S
C2226 C2227 1.362 . S
C2227 H2217 0.930 . S
C2227 C2220 1.409 . S
C2227 C2226 1.362 . S
H2228 C2234 0.930 . S
H2229 C2237 0.930 . S
H2230 C2238 0.930 . S
H2231 C2239 0.930 . S
H2232 C2242 0.930 . S
H2233 C2243 0.930 . S
C2234 H2228 0.930 . S
C2234 C2235 1.355 . S
C2234 C2236 1.415 . S
C2235 C2234 1.355 . S
C2235 C2237 1.419 . S
C2236 C2234 1.415 . S
C2236 C2241 1.425 . S
C2236 C2243 1.409 . S
C2237 H2229 0.930 . S
C2237 C2235 1.419 . S
C2237 C2238 1.362 . S
C2238 H2230 0.930 . S
C2238 C2237 1.362 . S
C2238 C2241 1.409 . S
C2239 H2231 0.930 . S
C2239 C2240 1.355 . S
C2239 C2241 1.415 . S
C2240 C2239 1.355 . S
C2240 C2242 1.419 . S
C2241 C2236 1.425 . S
C2241 C2238 1.409 . S
C2241 C2239 1.415 . S
C2242 H2232 0.930 . S
C2242 C2240 1.419 . S
C2242 C2243 1.362 . S
C2243 H2233 0.930 . S
C2243 C2236 1.409 . S
C2243 C2242 1.362 . S
H2244 C2250 0.930 . S
H2245 C2253 0.930 . S
H2246 C2254 0.930 . S
H2247 C2255 0.930 . S
H2248 C2258 0.930 . S
H2249 C2259 0.930 . S
C2250 H2244 0.930 . S
C2250 C2251 1.355 . S
C2250 C2252 1.415 . S
C2251 C2250 1.355 . S
C2251 C2253 1.419 . S
C2252 C2250 1.415 . S
C2252 C2257 1.425 . S
C2252 C2259 1.409 . S
C2253 H2245 0.930 . S
C2253 C2251 1.419 . S
C2253 C2254 1.362 . S
C2254 H2246 0.930 . S
C2254 C2253 1.362 . S
C2254 C2257 1.409 . S
C2255 H2247 0.930 . S
C2255 C2256 1.355 . S
C2255 C2257 1.415 . S
C2256 C2255 1.355 . S
C2256 C2258 1.419 . S
C2257 C2252 1.425 . S
C2257 C2254 1.409 . S
C2257 C2255 1.415 . S
C2258 H2248 0.930 . S
C2258 C2256 1.419 . S
C2258 C2259 1.362 . S
C2259 H2249 0.930 . S
C2259 C2252 1.409 . S
C2259 C2258 1.362 . S
H2260 C2266 0.930 . S
H2261 C2269 0.930 . S
H2262 C2270 0.930 . S
H2263 C2271 0.930 . S
H2264 C2274 0.930 . S
H2265 C2275 0.930 . S
C2266 H2260 0.930 . S
C2266 C2267 1.355 . S
C2266 C2268 1.415 . S
C2267 C2266 1.355 . S
C2267 C2269 1.419 . S
C2268 C2266 1.415 . S
C2268 C2273 1.425 . S
C2268 C2275 1.409 . S
C2269 H2261 0.930 . S
C2269 C2267 1.419 . S
C2269 C2270 1.362 . S
C2270 H2262 0.930 . S
C2270 C2269 1.362 . S
C2270 C2273 1.409 . S
C2271 H2263 0.930 . S
C2271 C2272 1.355 . S
C2271 C2273 1.415 . S
C2272 C2271 1.355 . S
C2272 C2274 1.419 . S
C2273 C2268 1.425 . S
C2273 C2270 1.409 . S
C2273 C2271 1.415 . S
C2274 H2264 0.930 . S
C2274 C2272 1.419 . S
C2274 C2275 1.362 . S
C2275 H2265 0.930 . S
C2275 C2268 1.409 . S
C2275 C2274 1.362 . S
H2276 C2282 0.930 . S
H2277 C2285 0.930 . S
H2278 C2286 0.930 . S
H2279 C2287 0.930 . S
H2280 C2290 0.930 . S
H2281 C2291 0.930 . S
C2282 H2276 0.930 . S
C2282 C2283 1.355 . S
C2282 C2284 1.415 . S
C2283 C2282 1.355 . S
C2283 C2285 1.419 . S
C2284 C2282 1.415 . S
C2284 C2289 1.425 . S
C2284 C2291 1.409 . S
C2285 H2277 0.930 . S
C2285 C2283 1.419 . S
C2285 C2286 1.362 . S
C2286 H2278 0.930 . S
C2286 C2285 1.362 . S
C2286 C2289 1.409 . S
C2287 H2279 0.930 . S
C2287 C2288 1.355 . S
C2287 C2289 1.415 . S
C2288 C2287 1.355 . S
C2288 C2290 1.419 . S
C2289 C2284 1.425 . S
C2289 C2286 1.409 . S
C2289 C2287 1.415 . S
C2290 H2280 0.930 . S
C2290 C2288 1.419 . S
C2290 C2291 1.362 . S
C2291 H2281 0.930 . S
C2291 C2284 1.409 . S
C2291 C2290 1.362 . S
H2292 C2298 0.930 . S
H2293 C2301 0.930 . S
H2294 C2302 0.930 . S
H2295 C2303 0.930 . S
H2296 C2306 0.930 . S
H2297 C2307 0.930 . S
C2298 H2292 0.930 . S
C2298 C2299 1.355 . S
C2298 C2300 1.415 . S
C2299 C2298 1.355 . S
C2299 C2301 1.419 . S
C2300 C2298 1.415 . S
C2300 C2305 1.425 . S
C2300 C2307 1.409 . S
C2301 H2293 0.930 . S
C2301 C2299 1.419 . S
C2301 C2302 1.362 . S
C2302 H2294 0.930 . S
C2302 C2301 1.362 . S
C2302 C2305 1.409 . S
C2303 H2295 0.930 . S
C2303 C2304 1.355 . S
C2303 C2305 1.415 . S
C2304 C2303 1.355 . S
C2304 C2306 1.419 . S
C2305 C2300 1.425 . S
C2305 C2302 1.409 . S
C2305 C2303 1.415 . S
C2306 H2296 0.930 . S
C2306 C2304 1.419 . S
C2306 C2307 1.362 . S
C2307 H2297 0.930 . S
C2307 C2300 1.409 . S
C2307 C2306 1.362 . S
H2308 C2314 0.930 . S
H2309 C2317 0.930 . S
H2310 C2318 0.930 . S
H2311 C2319 0.930 . S
H2312 C2322 0.930 . S
H2313 C2323 0.930 . S
C2314 H2308 0.930 . S
C2314 C2315 1.355 . S
C2314 C2316 1.415 . S
C2315 C2314 1.355 . S
C2315 C2317 1.419 . S
C2316 C2314 1.415 . S
C2316 C2321 1.425 . S
C2316 C2323 1.409 . S
C2317 H2309 0.930 . S
C2317 C2315 1.419 . S
C2317 C2318 1.362 . S
C2318 H2310 0.930 . S
C2318 C2317 1.362 . S
C2318 C2321 1.409 . S
C2319 H2311 0.930 . S
C2319 C2320 1.355 . S
C2319 C2321 1.415 . S
C2320 C2319 1.355 . S
C2320 C2322 1.419 . S
C2321 C2316 1.425 . S
C2321 C2318 1.409 . S
C2321 C2319 1.415 . S
C2322 H2312 0.930 . S
C2322 C2320 1.419 . S
C2322 C2323 1.362 . S
C2323 H2313 0.930 . S
C2323 C2316 1.409 . S
C2323 C2322 1.362 . S
H2324 C2330 0.930 . S
H2325 C2333 0.930 . S
H2326 C2334 0.930 . S
H2327 C2335 0.930 . S
H2328 C2338 0.930 . S
H2329 C2339 0.930 . S
C2330 H2324 0.930 . S
C2330 C2331 1.355 . S
C2330 C2332 1.415 . S
C2331 C2330 1.355 . S
C2331 C2333 1.419 . S
C2332 C2330 1.415 . S
C2332 C2337 1.425 . S
C2332 C2339 1.409 . S
C2333 H2325 0.930 . S
C2333 C2331 1.419 . S
C2333 C2334 1.362 . S
C2334 H2326 0.930 . S
C2334 C2333 1.362 . S
C2334 C2337 1.409 . S
C2335 H2327 0.930 . S
C2335 C2336 1.355 . S
C2335 C2337 1.415 . S
C2336 C2335 1.355 . S
C2336 C2338 1.419 . S
C2337 C2332 1.425 . S
C2337 C2334 1.409 . S
C2337 C2335 1.415 . S
C2338 H2328 0.930 . S
C2338 C2336 1.419 . S
C2338 C2339 1.362 . S
C2339 H2329 0.930 . S
C2339 C2332 1.409 . S
C2339 C2338 1.362 . S
C1483 C522 1.462 . S
C1488 C787 1.347 . S
C1499 C562 1.459 . S
C1504 C871 1.351 . S
C1515 C495 1.486 . S
C1520 C951 1.442 . S
C1531 C455 1.452 . S
C1536 C867 1.426 . S
C1552 C955 1.362 . S
C1547 C362 1.409 . S
C1563 C402 1.454 . S
C1568 C783 1.427 . S
C1584 C776 1.451 . S
C1579 C442 1.486 . S
C1600 C860 1.333 . S
C1595 C375 1.443 . S
C1611 C415 1.483 . S
C1616 C962 1.410 . S
C1627 C535 1.435 . S
C1632 C878 1.378 . S
C1643 C575 1.385 . S
C1648 C944 1.277 . S
C1664 C794 1.402 . S
C1659 C482 1.425 . S
C1680 C1039 1.433 . S
C1675 C42 1.473 1_455 S
C1691 C82 1.467 . S
C1696 C1123 1.432 . S
C1707 C15 1.474 1_565 S
C1712 C1203 1.414 . S
C1723 C695 1.456 . S
C1728 C1119 1.432 . S
C1739 C602 1.408 . S
C1744 C1207 1.343 . S
C1755 C642 1.457 . S
C1760 C1035 1.412 . S
C1771 C682 1.425 . S
C1776 C1028 1.392 . S
C1787 C615 1.441 . S
C1792 C1112 1.414 . S
C1808 C1214 1.427 . S
C1803 C655 1.485 . S
C1819 C55 1.449 1_565 S
C1824 C1130 1.416 . S
C1840 C1196 1.354 . S
C1835 C95 1.364 1_455 S
C1851 C2 1.458 . S
C1856 C1046 1.449 . S
C1872 C1291 1.429 . S
C1867 C282 1.472 . S
C1883 C322 1.455 . S
C1888 C1375 1.357 . S
C1904 C1455 1.482 . S
C1899 C255 1.509 . S
C1920 C1371 1.369 . S
C1915 C215 1.428 1_545 S
C1936 C1459 1.348 . S
C1931 C122 1.409 1_655 S
C1947 C162 1.445 . S
C1952 C1287 1.362 . S
C1963 C202 1.436 1_655 S
C1968 C1280 1.427 . S
C1979 C135 1.447 . S
C1984 C1364 1.396 . S
C2000 C1466 1.416 . S
C1995 C175 1.481 1_545 S
C2011 C295 1.436 . S
C2016 C1382 1.380 . S
C2027 C335 1.367 . S
C2032 C1448 1.327 . S
C2043 C242 1.467 . S
C2048 C1298 1.454 . S
C2059 C621 1.414 . S
C2064 C790 1.354 . S
C2080 C874 1.296 . S
C2075 C661 1.514 . S
C2091 C701 1.457 . S
C2096 C946 1.301 . S
C2107 C261 1.482 . S
C2112 C862 1.327 . S
C2123 C301 1.478 . S
C2128 C958 1.279 . S
C2144 C778 1.302 . S
C2139 C341 1.435 . S
C2155 C141 1.408 . S
C2160 C1042 1.343 . S
C2171 C181 1.498 . S
C2176 C1126 1.385 . S
C2187 C221 1.458 . S
C2192 C1198 1.304 . S
C2203 C501 1.484 . S
C2208 C1114 1.339 . S
C2224 C1210 1.303 . S
C2219 C541 1.477 . S
C2235 C581 1.422 . S
C2240 C1030 1.299 . S
C2251 C381 1.409 . S
C2256 C1294 1.340 . S
C2267 C421 1.507 . S
C2272 C1378 1.345 . S
C2288 C1450 1.372 . S
C2283 C461 1.475 . S
C2299 C21 1.503 . S
C2304 C1366 1.345 . S
C2315 C61 1.463 . S
C2320 C1462 1.363 . S
C2331 C101 1.402 . S
C2336 C1282 1.378 . S
