# Generated by pormake.
# Topology nia, (6,6)-cn, num edge types: 1
# Building blocks:
#     Node 0, Type 0, BuildingBlock: MIFKUJ_clean_sbu_0, # of connection points: 6
#     Node 1, Type 0, BuildingBlock: MIFKUJ_clean_sbu_0, # of connection points: 6
#     Node 2, Type 1, BuildingBlock: MIDCAF_clean_sbu_0, # of connection points: 6
#     Node 3, Type 1, BuildingBlock: MIDCAF_clean_sbu_0, # of connection points: 6
#     Edge 4, Type (0, 1), BuildingBlock: CIFDUS_clean_linker_0, # of connection points: 2
#     Edge 5, Type (0, 1), BuildingBlock: CIFDUS_clean_linker_0, # of connection points: 2
#     Edge 6, Type (0, 1), BuildingBlock: CIFDUS_clean_linker_0, # of connection points: 2
#     Edge 7, Type (0, 1), BuildingBlock: CIFDUS_clean_linker_0, # of connection points: 2
#     Edge 8, Type (0, 1), BuildingBlock: CIFDUS_clean_linker_0, # of connection points: 2
#     Edge 9, Type (0, 1), BuildingBlock: CIFDUS_clean_linker_0, # of connection points: 2
#     Edge 10, Type (0, 1), BuildingBlock: CIFDUS_clean_linker_0, # of connection points: 2
#     Edge 11, Type (0, 1), BuildingBlock: CIFDUS_clean_linker_0, # of connection points: 2
#     Edge 12, Type (0, 1), BuildingBlock: CIFDUS_clean_linker_0, # of connection points: 2
#     Edge 13, Type (0, 1), BuildingBlock: CIFDUS_clean_linker_0, # of connection points: 2
#     Edge 14, Type (0, 1), BuildingBlock: CIFDUS_clean_linker_0, # of connection points: 2
#     Edge 15, Type (0, 1), BuildingBlock: CIFDUS_clean_linker_0, # of connection points: 2
# Relax obj value: 0.176
# Max RMSD: 0.251
# Mean RMSD: 0.185
data_MOF--net-nia--node1-MIFKUJ_clean_sbu_0--node2-MIDCAF_clean_sbu_0--edge1-CIFDUS_clean_linker_0
_symmetry_space_group_name_H-M    P1
_symmetry_Int_Tables_number       1
_symmetry_cell_setting            triclinic
loop_
_symmetry_equiv_pos_as_xyz
'x, y, z'
_cell_length_a     22.488746
_cell_length_b     22.401648
_cell_length_c     27.086314
_cell_angle_alpha  88.615392
_cell_angle_beta   87.982928
_cell_angle_gamma 127.01044
loop_
_atom_site_label
_atom_site_type_symbol
_atom_site_fract_x
_atom_site_fract_y
_atom_site_fract_z
_atom_type_partial_charge
Zn0 Zn 0.01197 0.92043 0.05599 0.0
Zn1 Zn -0.00177 0.04003 0.9999 0.0
C2 C -0.01836 0.84711 0.96119 0.0
O3 O 0.05335 0.87863 0.9567 0.0
C4 C 0.06961 0.11948 0.09414 0.0
O5 O 0.09236 0.07854 0.10285 0.0
O6 O 0.03057 0.85746 0.09682 0.0
O7 O 0.11289 0.00975 0.02908 0.0
O8 O 0.08364 0.04734 0.96448 0.0
C9 C 0.07689 0.88239 0.13045 0.0
O10 O 0.11315 0.95264 0.1415 0.0
O11 O 0.95511 0.85823 0.99902 0.0
C12 C 0.9077 0.07902 0.97674 0.0
O13 O 0.89376 0.0605 1.02438 0.0
O14 O 0.95756 0.07819 0.95384 0.0
O15 O 0.90557 0.93899 1.02437 0.0
O16 O 0.94266 0.93228 0.09648 0.0
O17 O 0.03442 0.1104 0.05586 0.0
C18 C 0.12964 0.04196 0.98612 0.0
C19 C 0.89211 0.92343 0.07068 0.0
Zn20 Zn 0.05938 0.97187 0.50944 0.0
Zn21 Zn 0.95374 -0.00935 0.57637 0.0
C22 C 0.1958 0.10238 0.54372 0.0
O23 O 0.19732 0.13145 0.50057 0.0
C24 C 0.85745 0.94297 0.49383 0.0
O25 O 0.88374 0.01358 0.48976 0.0
O26 O 0.08968 0.92733 0.45963 0.0
O27 O 0.97573 0.8797 0.55028 0.0
O28 O 0.97878 0.93432 0.61748 0.0
C29 C 0.15514 0.95621 0.44145 0.0
O30 O 0.21056 0.02397 0.4528 0.0
O31 O 0.14287 0.03408 0.55537 0.0
C32 C 0.93935 0.07015 0.65028 0.0
O33 O 0.01138 0.10382 0.65127 0.0
O34 O 0.90149 0.01703 0.62163 0.0
O35 O 0.03618 0.0875 0.54154 0.0
O36 O 0.04313 0.04118 0.47263 0.0
O37 O 0.87973 0.92145 0.5275 0.0
C38 C 0.96772 0.87834 0.59711 0.0
C39 C 0.04828 0.09335 0.49492 0.0
Zn40 Zn 0.34045 0.64536 0.19294 0.0
Zn41 Zn 0.34093 0.64001 0.38315 0.0
Zn42 Zn 0.35082 0.64591 0.28789 0.0
C43 C 0.49096 0.71126 0.35216 0.0
C44 C 0.25215 0.49386 0.36132 0.0
O45 O 0.29716 0.69946 0.26386 0.0
O46 O 0.28412 0.6853 0.18347 0.0
C47 C 0.49348 0.72849 0.21132 0.0
O48 O 0.4668 0.7092 0.30936 0.0
O49 O 0.44595 0.67866 0.38972 0.0
O50 O 0.26238 0.53248 0.3977 0.0
O51 O 0.28323 0.52643 0.31824 0.0
O52 O 0.44956 0.71097 0.17723 0.0
O53 O 0.46745 0.70825 0.25667 0.0
O54 O 0.2879 0.5278 0.26611 0.0
O55 O 0.28628 0.53794 0.1847 0.0
C56 C 0.26974 0.49805 0.22384 0.0
O57 O 0.30777 0.70779 0.31403 0.0
O58 O 0.3175 0.71057 0.39513 0.0
C59 C 0.27423 0.7076 0.22296 0.0
C60 C 0.30236 0.7299 0.35637 0.0
Zn61 Zn 0.67255 0.32957 0.86507 0.0
Zn62 Zn 0.68322 0.31462 0.68146 0.0
Zn63 Zn 0.67588 0.324 0.77157 0.0
C64 C 0.78728 0.46245 0.69316 0.0
C65 C 0.5416 0.27003 0.70338 0.0
O66 O 0.72662 0.27248 0.80366 0.0
O67 O 0.72811 0.29123 0.88358 0.0
C68 C 0.75297 0.47614 0.8279 0.0
O69 O 0.7511 0.43926 0.73586 0.0
O70 O 0.77535 0.41552 0.66237 0.0
O71 O 0.5893 0.29773 0.66725 0.0
O72 O 0.56073 0.26743 0.74723 0.0
O73 O 0.72162 0.43754 0.86797 0.0
O74 O 0.74575 0.44409 0.78737 0.0
O75 O 0.55602 0.26439 0.79907 0.0
O76 O 0.56516 0.26196 0.87991 0.0
C77 C 0.52526 0.24363 0.84345 0.0
O78 O 0.71667 0.2573 0.75392 0.0
O79 O 0.68536 0.22806 0.67697 0.0
C80 C 0.74391 0.26736 0.84767 0.0
C81 C 0.70982 0.22052 0.71588 0.0
H82 H 0.18144 0.92039 0.19727 0.0
H83 H 0.01535 0.73738 0.11239 0.0
H84 H 0.05708 0.66415 0.13858 0.0
H85 H 0.14905 0.65695 0.17786 0.0
H86 H 0.31851 0.84004 0.26005 0.0
H87 H 0.26615 0.90762 0.24398 0.0
C88 C 0.1537 0.86411 0.18506 0.0
C89 C 0.09606 0.83501 0.15223 0.0
C90 C 0.17854 0.82225 0.19991 0.0
C91 C 0.06035 0.76166 0.13717 0.0
C92 C 0.0842 0.71962 0.15209 0.0
C93 C 0.17356 0.71113 0.19294 0.0
C94 C 0.23667 0.74327 0.22068 0.0
C95 C 0.1445 0.75014 0.18224 0.0
C96 C 0.26851 0.81349 0.23987 0.0
C97 C 0.23925 0.8525 0.22997 0.0
H98 H 0.21967 0.05744 0.63101 0.0
H99 H 0.31062 0.25041 0.53051 0.0
H100 H 0.42052 0.3237 0.57808 0.0
H101 H 0.49812 0.32834 0.64057 0.0
H102 H 0.41322 0.13608 0.7394 0.0
H103 H 0.29254 0.06781 0.70139 0.0
C104 C 0.26313 0.11578 0.61994 0.0
C105 C 0.2576 0.14788 0.57658 0.0
C106 C 0.32708 0.15777 0.64729 0.0
C107 C 0.31393 0.22381 0.56312 0.0
C108 C 0.37682 0.26598 0.59039 0.0
C109 C 0.4524 0.27211 0.65461 0.0
C110 C 0.46415 0.23691 0.69236 0.0
C111 C 0.38498 0.23285 0.63145 0.0
C112 C 0.40492 0.16433 0.71057 0.0
C113 C 0.33644 0.12509 0.68836 0.0
H114 H 0.18223 0.19167 0.15708 0.0
H115 H -0.0017 0.18256 0.10401 0.0
H116 H 0.03727 0.29288 0.14848 0.0
H117 H 0.1331 0.40163 0.19235 0.0
H118 H 0.32406 0.41917 0.23814 0.0
H119 H 0.27233 0.29524 0.20815 0.0
C120 C 0.14999 0.2131 0.15608 0.0
C121 C 0.08813 0.17969 0.12678 0.0
C122 C 0.17396 0.27802 0.1807 0.0
C123 C 0.04685 0.20803 0.1257 0.0
C124 C 0.06896 0.27102 0.15119 0.0
C125 C 0.16182 0.37681 0.19721 0.0
C126 C 0.2307 0.41765 0.21883 0.0
C127 C 0.13372 0.30782 0.17742 0.0
C128 C 0.2693 0.38692 0.22346 0.0
C129 C 0.24036 0.31677 0.20549 0.0
H130 H 0.79199 0.00811 0.66149 0.0
H131 H 0.00968 0.20163 0.6966 0.0
H132 H 0.95523 0.26207 0.7263 0.0
H133 H 0.84894 0.26738 0.7296 0.0
H134 H 0.63201 0.075 0.6945 0.0
H135 H 0.68295 0.00667 0.67638 0.0
C136 C 0.82739 0.06303 0.67634 0.0
C137 C 0.90491 0.10084 0.676 0.0
C138 C 0.79591 0.09784 0.69276 0.0
C139 C 0.94989 0.17153 0.69602 0.0
C140 C 0.91889 0.20632 0.71283 0.0
C141 C 0.81243 0.20919 0.72068 0.0
C142 C 0.73681 0.17512 0.71489 0.0
C143 C 0.84241 0.17098 0.70985 0.0
C144 C 0.69034 0.10149 0.69986 0.0
C145 C 0.71949 0.06274 0.68933 0.0
H146 H 0.83263 0.86406 0.16543 0.0
H147 H 0.78226 0.91521 1.02514 0.0
H148 H 0.65931 0.8681 0.05878 0.0
H149 H 0.56357 0.80708 0.12545 0.0
H150 H 0.60311 0.73941 0.2631 0.0
H151 H 0.73292 0.79966 0.23371 0.0
C152 C 0.79477 0.86512 0.14241 0.0
C153 C 0.8174 0.89411 0.09292 0.0
C154 C 0.72221 0.83533 0.1616 0.0
C155 C 0.76719 0.89423 0.06345 0.0
C156 C 0.69646 0.86703 0.08258 0.0
C157 C 0.60048 0.80567 0.14935 0.0
C158 C 0.57392 0.76994 0.19686 0.0
C159 C 0.67319 0.83682 0.13129 0.0
C160 C 0.62273 0.7687 0.22707 0.0
C161 C 0.69665 0.8021 0.20988 0.0
H162 H -0.01228 0.77451 0.57615 0.0
H163 H 0.8829 0.82686 0.68471 0.0
H164 H 0.82264 0.7041 0.72787 0.0
H165 H 0.78849 0.57653 0.72818 0.0
H166 H 0.89844 0.52801 0.62087 0.0
H167 H 0.96769 0.65462 0.58355 0.0
C168 C 0.95216 0.75923 0.60951 0.0
C169 C 0.93859 0.80879 0.62678 0.0
C170 C 0.91824 0.68914 0.63407 0.0
C171 C 0.89374 0.78922 0.67059 0.0
C172 C 0.85909 0.71901 0.69512 0.0
C173 C 0.8295 0.59449 0.69781 0.0
C174 C 0.83823 0.54287 0.67741 0.0
C175 C 0.86947 0.66776 0.67644 0.0
C176 C 0.89026 0.5665 0.6371 0.0
C177 C 0.92987 0.63888 0.61564 0.0
H178 H 0.28989 -0.00824 0.41068 0.0
H179 H 0.05331 0.81439 0.41143 0.0
H180 H 0.07795 0.73019 0.37857 0.0
H181 H 0.16715 0.70236 0.35953 0.0
H182 H 0.40277 0.8781 0.36352 0.0
H183 H 0.37843 0.96768 0.384 0.0
C184 C 0.24363 0.93508 0.40295 0.0
C185 C 0.16993 0.90927 0.41424 0.0
C186 C 0.25815 0.8864 0.38514 0.0
C187 C 0.1107 0.83564 0.40363 0.0
C188 C 0.12469 0.78728 0.38491 0.0
C189 C 0.21281 0.76068 0.36394 0.0
C190 C 0.28649 0.78429 0.36001 0.0
C191 C 0.19818 0.8113 0.37703 0.0
C192 C 0.34567 0.85941 0.36626 0.0
C193 C 0.33173 0.91037 0.37813 0.0
H194 H 0.1946 0.12466 0.89743 0.0
H195 H 0.2273 0.01835 1.01759 0.0
H196 H 0.3471 0.0625 0.97922 0.0
H197 H 0.44665 0.13808 0.91594 0.0
H198 H 0.42303 0.25288 0.79752 0.0
H199 H 0.2947 0.19645 0.82961 0.0
C200 C 0.22793 0.11107 0.91506 0.0
C201 C 0.20208 0.06908 0.96083 0.0
C202 C 0.29803 0.13738 0.89283 0.0
C203 C 0.24583 0.05143 0.98288 0.0
C204 C 0.31441 0.07629 0.96082 0.0
C205 C 0.41302 0.14997 0.89666 0.0
C206 C 0.44393 0.19932 0.85446 0.0
C207 C 0.34146 0.12016 0.91641 0.0
C208 C 0.39986 0.21399 0.82964 0.0
C209 C 0.327 0.18264 0.84848 0.0
H210 H 0.1394 0.16361 0.41057 0.0
H211 H 0.00359 0.17731 0.51923 0.0
H212 H 0.04666 0.29821 0.48207 0.0
H213 H 0.1327 0.40593 0.42504 0.0
H214 H 0.28001 0.40118 0.3226 0.0
H215 H 0.22145 0.27056 0.34928 0.0
C216 C 0.11847 0.19269 0.42542 0.0
C217 C 0.06891 0.16199 0.46778 0.0
C218 C 0.14533 0.26371 0.40469 0.0
C219 C 0.04247 0.2003 0.48698 0.0
C220 C 0.06694 0.26938 0.46574 0.0
C221 C 0.15085 0.37565 0.40786 0.0
C222 C 0.20897 0.4121 0.37072 0.0
C223 C 0.11985 0.3025 0.42553 0.0
C224 C 0.23281 0.37285 0.34929 0.0
C225 C 0.20044 0.29879 0.36551 0.0
H226 H 0.9494 0.1719 0.89402 0.0
H227 H 0.76801 0.03008 1.00361 0.0
H228 H 0.69787 0.06998 0.96916 0.0
H229 H 0.69226 0.15317 0.91319 0.0
H230 H 0.87668 0.3049 0.80883 0.0
H231 H 0.94083 0.25229 0.83458 0.0
C232 C 0.8941 0.1491 0.90971 0.0
C233 C 0.86412 0.09866 0.95148 0.0
C234 C 0.85455 0.17388 0.89044 0.0
C235 C 0.79262 0.06971 0.97181 0.0
C236 C 0.75235 0.09235 0.95212 0.0
C237 C 0.74594 0.17358 0.89557 0.0
C238 C 0.77888 0.23063 0.85804 0.0
C239 C 0.78345 0.14561 0.91228 0.0
C240 C 0.849 0.25828 0.83608 0.0
C241 C 0.88613 0.2292 0.85153 0.0
H242 H 0.81025 0.96986 0.41074 0.0
H243 H 0.76742 0.7911 0.5086 0.0
H244 H 0.65476 0.70056 0.4669 0.0
H245 H 0.55956 0.67523 0.41114 0.0
H246 H 0.6 0.85242 0.3135 0.0
H247 H 0.72349 0.94037 0.34561 0.0
C248 C 0.77677 0.91094 0.42246 0.0
C249 C 0.79627 0.88751 0.46344 0.0
C250 C 0.71173 0.85899 0.39836 0.0
C251 C 0.75324 0.81081 0.47757 0.0
C252 C 0.68868 0.75892 0.45379 0.0
C253 C 0.59642 0.7327 0.39603 0.0
C254 C 0.5711 0.75779 0.36039 0.0
C255 C 0.66615 0.7828 0.41537 0.0
C256 C 0.61887 0.83205 0.3408 0.0
C257 C 0.68898 0.88237 0.35955 0.0
H258 H 0.01478 0.79382 0.88357 0.0
H259 H 0.83145 0.77255 0.96165 0.0
H260 H 0.74265 0.66147 0.91791 0.0
H261 H 0.71746 0.55814 0.87017 0.0
H262 H 0.89846 0.57488 0.79373 0.0
H263 H -0.01217 0.70098 0.82283 0.0
C264 C 0.95546 0.76579 0.89024 0.0
C265 C 0.92983 0.79015 0.92696 0.0
C266 C 0.90429 0.70095 0.86536 0.0
C267 C 0.85278 0.75405 0.93446 0.0
C268 C 0.80179 0.69044 0.90943 0.0
C269 C 0.77629 0.59068 0.8586 0.0
C270 C 0.80191 0.55785 0.83039 0.0
C271 C 0.82693 0.66154 0.87668 0.0
C272 C 0.87787 0.59973 0.81534 0.0
C273 C 0.92887 0.67129 0.83248 0.0
loop_
_geom_bond_atom_site_label_1
_geom_bond_atom_site_label_2
_geom_bond_distance
_geom_bond_site_symmetry_2
_ccdc_geom_bond_type
Zn0 O6 1.969 . S
Zn0 O7 1.965 1_565 S
Zn0 O11 2.024 1_454 S
Zn0 O16 1.969 1_455 S
Zn1 O8 1.969 . S
Zn1 O14 1.969 . S
Zn1 O15 1.965 1_446 S
Zn1 O17 2.024 1_556 S
C2 O3 1.229 . S
C2 O11 1.058 . S
O3 C2 1.229 . S
C4 O5 1.229 . S
C4 O17 1.058 . S
O5 C4 1.229 . S
O6 Zn0 1.969 . S
O6 C9 1.267 . S
O7 Zn0 1.965 1_545 S
O7 C18 1.260 1_554 S
O8 Zn1 1.969 . S
O8 C18 1.258 . S
C9 O6 1.267 . S
C9 O10 1.228 . S
O10 C9 1.228 . S
O11 Zn0 2.024 1_656 S
O11 C2 1.058 . S
C12 O13 1.228 . S
C12 O14 1.267 1_655 S
O13 C12 1.228 . S
O14 Zn1 1.969 . S
O14 C12 1.267 1_455 S
O15 Zn1 1.965 1_664 S
O15 C19 1.260 . S
O16 Zn0 1.969 1_655 S
O16 C19 1.258 . S
O17 Zn1 2.024 1_554 S
O17 C4 1.058 . S
C18 O7 1.260 1_556 S
C18 O8 1.258 . S
C19 O15 1.260 . S
C19 O16 1.258 . S
Zn20 O26 1.969 1_545 S
Zn20 O27 1.965 1_545 S
Zn20 O31 2.024 . S
Zn20 O36 1.969 . S
Zn21 O28 1.971 . S
Zn21 O34 1.968 1_565 S
Zn21 O35 1.964 1_665 S
Zn21 O37 2.024 . S
C22 O23 1.229 . S
C22 O31 1.058 . S
O23 C22 1.229 . S
C24 O25 1.229 . S
C24 O37 1.058 . S
O25 C24 1.229 . S
O26 Zn20 1.969 1_565 S
O26 C29 1.267 . S
O27 Zn20 1.965 1_565 S
O27 C38 1.260 1_455 S
O28 Zn21 1.971 . S
O28 C38 1.258 . S
C29 O26 1.267 . S
C29 O30 1.228 . S
O30 C29 1.228 . S
O31 Zn20 2.024 . S
O31 C22 1.058 . S
C32 O33 1.228 . S
C32 O34 1.267 . S
O33 C32 1.228 . S
O34 Zn21 1.968 1_545 S
O34 C32 1.267 . S
O35 Zn21 1.964 1_445 S
O35 C39 1.260 . S
O36 Zn20 1.969 . S
O36 C39 1.258 . S
O37 Zn21 2.024 . S
O37 C24 1.058 . S
C38 O27 1.260 1_655 S
C38 O28 1.258 . S
C39 O35 1.260 . S
C39 O36 1.258 . S
Zn40 O46 1.920 . S
Zn40 O52 1.898 . S
Zn40 O55 1.905 . S
Zn41 O49 1.905 . S
Zn41 O50 1.898 . S
Zn41 O58 1.920 . S
Zn42 O45 2.080 . S
Zn42 O48 2.114 . S
Zn42 O51 2.120 . S
Zn42 O53 2.120 . S
Zn42 O54 2.114 . S
Zn42 O57 2.080 . S
C43 O48 1.166 . S
C43 O49 1.182 . S
C44 O50 1.167 . S
C44 O51 1.299 . S
O45 Zn42 2.080 . S
O45 C59 1.305 . S
O46 Zn40 1.920 . S
O46 C59 1.234 . S
C47 O52 1.167 . S
C47 O53 1.299 . S
O48 Zn42 2.114 . S
O48 C43 1.166 . S
O49 Zn41 1.905 . S
O49 C43 1.182 . S
O50 Zn41 1.898 . S
O50 C44 1.167 . S
O51 Zn42 2.120 . S
O51 C44 1.299 . S
O52 Zn40 1.898 . S
O52 C47 1.167 . S
O53 Zn42 2.120 . S
O53 C47 1.299 . S
O54 Zn42 2.114 . S
O54 C56 1.166 . S
O55 Zn40 1.905 . S
O55 C56 1.182 . S
C56 O54 1.166 . S
C56 O55 1.182 . S
O57 Zn42 2.080 . S
O57 C60 1.305 . S
O58 Zn41 1.920 . S
O58 C60 1.234 . S
C59 O45 1.305 . S
C59 O46 1.234 . S
C60 O57 1.305 . S
C60 O58 1.234 . S
Zn61 O67 1.920 . S
Zn61 O73 1.898 . S
Zn61 O76 1.905 . S
Zn62 O70 1.905 . S
Zn62 O71 1.898 . S
Zn62 O79 1.920 . S
Zn63 O66 2.080 . S
Zn63 O69 2.114 . S
Zn63 O72 2.120 . S
Zn63 O74 2.120 . S
Zn63 O75 2.114 . S
Zn63 O78 2.080 . S
C64 O69 1.166 . S
C64 O70 1.182 . S
C65 O71 1.167 . S
C65 O72 1.299 . S
O66 Zn63 2.080 . S
O66 C80 1.305 . S
O67 Zn61 1.920 . S
O67 C80 1.234 . S
C68 O73 1.167 . S
C68 O74 1.299 . S
O69 Zn63 2.114 . S
O69 C64 1.166 . S
O70 Zn62 1.905 . S
O70 C64 1.182 . S
O71 Zn62 1.898 . S
O71 C65 1.167 . S
O72 Zn63 2.120 . S
O72 C65 1.299 . S
O73 Zn61 1.898 . S
O73 C68 1.167 . S
O74 Zn63 2.120 . S
O74 C68 1.299 . S
O75 Zn63 2.114 . S
O75 C77 1.166 . S
O76 Zn61 1.905 . S
O76 C77 1.182 . S
C77 O75 1.166 . S
C77 O76 1.182 . S
O78 Zn63 2.080 . S
O78 C81 1.305 . S
O79 Zn62 1.920 . S
O79 C81 1.234 . S
C80 O66 1.305 . S
C80 O67 1.234 . S
C81 O78 1.305 . S
C81 O79 1.234 . S
H82 C88 0.930 . S
H83 C91 0.930 . S
H84 C92 0.930 . S
H85 C93 0.930 . S
H86 C96 0.930 . S
H87 C97 0.930 . S
C88 H82 0.930 . S
C88 C89 1.355 . S
C88 C90 1.415 . S
C89 C88 1.355 . S
C89 C91 1.419 . S
C90 C88 1.415 . S
C90 C95 1.425 . S
C90 C97 1.409 . S
C91 H83 0.930 . S
C91 C89 1.419 . S
C91 C92 1.362 . S
C92 H84 0.930 . S
C92 C91 1.362 . S
C92 C95 1.409 . S
C93 H85 0.930 . S
C93 C94 1.355 . S
C93 C95 1.415 . S
C94 C93 1.355 . S
C94 C96 1.419 . S
C95 C90 1.425 . S
C95 C92 1.409 . S
C95 C93 1.415 . S
C96 H86 0.930 . S
C96 C94 1.419 . S
C96 C97 1.362 . S
C97 H87 0.930 . S
C97 C90 1.409 . S
C97 C96 1.362 . S
H98 C104 0.930 . S
H99 C107 0.930 . S
H100 C108 0.930 . S
H101 C109 0.930 . S
H102 C112 0.930 . S
H103 C113 0.930 . S
C104 H98 0.930 . S
C104 C105 1.355 . S
C104 C106 1.415 . S
C105 C104 1.355 . S
C105 C107 1.419 . S
C106 C104 1.415 . S
C106 C111 1.425 . S
C106 C113 1.409 . S
C107 H99 0.930 . S
C107 C105 1.419 . S
C107 C108 1.362 . S
C108 H100 0.930 . S
C108 C107 1.362 . S
C108 C111 1.409 . S
C109 H101 0.930 . S
C109 C110 1.355 . S
C109 C111 1.415 . S
C110 C109 1.355 . S
C110 C112 1.419 . S
C111 C106 1.425 . S
C111 C108 1.409 . S
C111 C109 1.415 . S
C112 H102 0.930 . S
C112 C110 1.419 . S
C112 C113 1.362 . S
C113 H103 0.930 . S
C113 C106 1.409 . S
C113 C112 1.362 . S
H114 C120 0.930 . S
H115 C123 0.930 . S
H116 C124 0.930 . S
H117 C125 0.930 . S
H118 C128 0.930 . S
H119 C129 0.930 . S
C120 H114 0.930 . S
C120 C121 1.355 . S
C120 C122 1.415 . S
C121 C120 1.355 . S
C121 C123 1.419 . S
C122 C120 1.415 . S
C122 C127 1.425 . S
C122 C129 1.409 . S
C123 H115 0.930 . S
C123 C121 1.419 . S
C123 C124 1.362 . S
C124 H116 0.930 . S
C124 C123 1.362 . S
C124 C127 1.409 . S
C125 H117 0.930 . S
C125 C126 1.355 . S
C125 C127 1.415 . S
C126 C125 1.355 . S
C126 C128 1.419 . S
C127 C122 1.425 . S
C127 C124 1.409 . S
C127 C125 1.415 . S
C128 H118 0.930 . S
C128 C126 1.419 . S
C128 C129 1.362 . S
C129 H119 0.930 . S
C129 C122 1.409 . S
C129 C128 1.362 . S
H130 C136 0.930 . S
H131 C139 0.930 . S
H132 C140 0.930 . S
H133 C141 0.930 . S
H134 C144 0.930 . S
H135 C145 0.930 . S
C136 H130 0.930 . S
C136 C137 1.355 . S
C136 C138 1.415 . S
C137 C136 1.355 . S
C137 C139 1.419 . S
C138 C136 1.415 . S
C138 C143 1.425 . S
C138 C145 1.409 . S
C139 H131 0.930 . S
C139 C137 1.419 . S
C139 C140 1.362 . S
C140 H132 0.930 . S
C140 C139 1.362 . S
C140 C143 1.409 . S
C141 H133 0.930 . S
C141 C142 1.355 . S
C141 C143 1.415 . S
C142 C141 1.355 . S
C142 C144 1.419 . S
C143 C138 1.425 . S
C143 C140 1.409 . S
C143 C141 1.415 . S
C144 H134 0.930 . S
C144 C142 1.419 . S
C144 C145 1.362 . S
C145 H135 0.930 . S
C145 C138 1.409 . S
C145 C144 1.362 . S
H146 C152 0.930 . S
H147 C155 0.930 . S
H148 C156 0.930 . S
H149 C157 0.930 . S
H150 C160 0.930 . S
H151 C161 0.930 . S
C152 H146 0.930 . S
C152 C153 1.355 . S
C152 C154 1.415 . S
C153 C152 1.355 . S
C153 C155 1.419 . S
C154 C152 1.415 . S
C154 C159 1.425 . S
C154 C161 1.409 . S
C155 H147 0.930 . S
C155 C153 1.419 . S
C155 C156 1.362 . S
C156 H148 0.930 . S
C156 C155 1.362 . S
C156 C159 1.409 . S
C157 H149 0.930 . S
C157 C158 1.355 . S
C157 C159 1.415 . S
C158 C157 1.355 . S
C158 C160 1.419 . S
C159 C154 1.425 . S
C159 C156 1.409 . S
C159 C157 1.415 . S
C160 H150 0.930 . S
C160 C158 1.419 . S
C160 C161 1.362 . S
C161 H151 0.930 . S
C161 C154 1.409 . S
C161 C160 1.362 . S
H162 C168 0.930 . S
H163 C171 0.930 1_455 S
H164 C172 0.930 . S
H165 C173 0.930 . S
H166 C176 0.930 . S
H167 C177 0.930 . S
C168 H162 0.930 . S
C168 C169 1.355 . S
C168 C170 1.415 . S
C169 C168 1.355 . S
C169 C171 1.419 . S
C170 C168 1.415 . S
C170 C175 1.425 . S
C170 C177 1.409 . S
C171 H163 0.930 1_655 S
C171 C169 1.419 . S
C171 C172 1.362 . S
C172 H164 0.930 . S
C172 C171 1.362 . S
C172 C175 1.409 . S
C173 H165 0.930 . S
C173 C174 1.355 . S
C173 C175 1.415 . S
C174 C173 1.355 . S
C174 C176 1.419 . S
C175 C170 1.425 . S
C175 C172 1.409 . S
C175 C173 1.415 . S
C176 H166 0.930 . S
C176 C174 1.419 . S
C176 C177 1.362 . S
C177 H167 0.930 . S
C177 C170 1.409 . S
C177 C176 1.362 . S
H178 C184 0.930 . S
H179 C187 0.930 . S
H180 C188 0.930 . S
H181 C189 0.930 . S
H182 C192 0.930 . S
H183 C193 0.930 . S
C184 H178 0.930 . S
C184 C185 1.355 . S
C184 C186 1.415 . S
C185 C184 1.355 . S
C185 C187 1.419 . S
C186 C184 1.415 . S
C186 C191 1.425 . S
C186 C193 1.409 . S
C187 H179 0.930 . S
C187 C185 1.419 . S
C187 C188 1.362 . S
C188 H180 0.930 . S
C188 C187 1.362 . S
C188 C191 1.409 . S
C189 H181 0.930 . S
C189 C190 1.355 . S
C189 C191 1.415 . S
C190 C189 1.355 . S
C190 C192 1.419 . S
C191 C186 1.425 . S
C191 C188 1.409 . S
C191 C189 1.415 . S
C192 H182 0.930 . S
C192 C190 1.419 . S
C192 C193 1.362 . S
C193 H183 0.930 . S
C193 C186 1.409 . S
C193 C192 1.362 . S
H194 C200 0.930 . S
H195 C203 0.930 . S
H196 C204 0.930 . S
H197 C205 0.930 . S
H198 C208 0.930 . S
H199 C209 0.930 . S
C200 H194 0.930 . S
C200 C201 1.355 . S
C200 C202 1.415 . S
C201 C200 1.355 . S
C201 C203 1.419 . S
C202 C200 1.415 . S
C202 C207 1.425 . S
C202 C209 1.409 . S
C203 H195 0.930 . S
C203 C201 1.419 . S
C203 C204 1.362 . S
C204 H196 0.930 . S
C204 C203 1.362 . S
C204 C207 1.409 . S
C205 H197 0.930 . S
C205 C206 1.355 . S
C205 C207 1.415 . S
C206 C205 1.355 . S
C206 C208 1.419 . S
C207 C202 1.425 . S
C207 C204 1.409 . S
C207 C205 1.415 . S
C208 H198 0.930 . S
C208 C206 1.419 . S
C208 C209 1.362 . S
C209 H199 0.930 . S
C209 C202 1.409 . S
C209 C208 1.362 . S
H210 C216 0.930 . S
H211 C219 0.930 . S
H212 C220 0.930 . S
H213 C221 0.930 . S
H214 C224 0.930 . S
H215 C225 0.930 . S
C216 H210 0.930 . S
C216 C217 1.355 . S
C216 C218 1.415 . S
C217 C216 1.355 . S
C217 C219 1.419 . S
C218 C216 1.415 . S
C218 C223 1.425 . S
C218 C225 1.409 . S
C219 H211 0.930 . S
C219 C217 1.419 . S
C219 C220 1.362 . S
C220 H212 0.930 . S
C220 C219 1.362 . S
C220 C223 1.409 . S
C221 H213 0.930 . S
C221 C222 1.355 . S
C221 C223 1.415 . S
C222 C221 1.355 . S
C222 C224 1.419 . S
C223 C218 1.425 . S
C223 C220 1.409 . S
C223 C221 1.415 . S
C224 H214 0.930 . S
C224 C222 1.419 . S
C224 C225 1.362 . S
C225 H215 0.930 . S
C225 C218 1.409 . S
C225 C224 1.362 . S
H226 C232 0.930 . S
H227 C235 0.930 . S
H228 C236 0.930 . S
H229 C237 0.930 . S
H230 C240 0.930 . S
H231 C241 0.930 . S
C232 H226 0.930 . S
C232 C233 1.355 . S
C232 C234 1.415 . S
C233 C232 1.355 . S
C233 C235 1.419 . S
C234 C232 1.415 . S
C234 C239 1.425 . S
C234 C241 1.409 . S
C235 H227 0.930 . S
C235 C233 1.419 . S
C235 C236 1.362 . S
C236 H228 0.930 . S
C236 C235 1.362 . S
C236 C239 1.409 . S
C237 H229 0.930 . S
C237 C238 1.355 . S
C237 C239 1.415 . S
C238 C237 1.355 . S
C238 C240 1.419 . S
C239 C234 1.425 . S
C239 C236 1.409 . S
C239 C237 1.415 . S
C240 H230 0.930 . S
C240 C238 1.419 . S
C240 C241 1.362 . S
C241 H231 0.930 . S
C241 C234 1.409 . S
C241 C240 1.362 . S
H242 C248 0.930 . S
H243 C251 0.930 . S
H244 C252 0.930 . S
H245 C253 0.930 . S
H246 C256 0.930 . S
H247 C257 0.930 . S
C248 H242 0.930 . S
C248 C249 1.355 . S
C248 C250 1.415 . S
C249 C248 1.355 . S
C249 C251 1.419 . S
C250 C248 1.415 . S
C250 C255 1.425 . S
C250 C257 1.409 . S
C251 H243 0.930 . S
C251 C249 1.419 . S
C251 C252 1.362 . S
C252 H244 0.930 . S
C252 C251 1.362 . S
C252 C255 1.409 . S
C253 H245 0.930 . S
C253 C254 1.355 . S
C253 C255 1.415 . S
C254 C253 1.355 . S
C254 C256 1.419 . S
C255 C250 1.425 . S
C255 C252 1.409 . S
C255 C253 1.415 . S
C256 H246 0.930 . S
C256 C254 1.419 . S
C256 C257 1.362 . S
C257 H247 0.930 . S
C257 C250 1.409 . S
C257 C256 1.362 . S
H258 C264 0.930 . S
H259 C267 0.930 . S
H260 C268 0.930 . S
H261 C269 0.930 . S
H262 C272 0.930 . S
H263 C273 0.930 . S
C264 H258 0.930 . S
C264 C265 1.355 . S
C264 C266 1.415 . S
C265 C264 1.355 . S
C265 C267 1.419 . S
C266 C264 1.415 . S
C266 C271 1.425 . S
C266 C273 1.409 . S
C267 H259 0.930 . S
C267 C265 1.419 . S
C267 C268 1.362 . S
C268 H260 0.930 . S
C268 C267 1.362 . S
C268 C271 1.409 . S
C269 H261 0.930 . S
C269 C270 1.355 . S
C269 C271 1.415 . S
C270 C269 1.355 . S
C270 C272 1.419 . S
C271 C266 1.425 . S
C271 C268 1.409 . S
C271 C269 1.415 . S
C272 H262 0.930 . S
C272 C270 1.419 . S
C272 C273 1.362 . S
C273 H263 0.930 . S
C273 C266 1.409 . S
C273 C272 1.362 . S
C89 C9 1.414 . S
C94 C59 1.325 . S
C105 C22 1.277 . S
C110 C65 1.141 . S
C121 C4 1.341 . S
C126 C56 1.190 . S
C137 C32 1.535 . S
C142 C81 1.467 . S
C153 C19 1.817 . S
C158 C47 1.712 . S
C174 C64 1.604 . S
C169 C38 1.756 . S
C185 C29 1.448 . S
C190 C60 1.301 . S
C206 C77 1.669 . S
C201 C18 1.756 . S
C222 C44 1.645 . S
C217 C39 1.834 . S
C238 C80 1.435 . S
C233 C12 1.535 . S
C254 C43 1.178 . S
C249 C24 1.340 . S
C270 C68 1.107 . S
C265 C2 1.279 . S
