# Generated by pormake.
# Topology gar, (4,6)-cn, num edge types: 1
# Building blocks:
#     Node 0, Type 0, BuildingBlock: UXUYUI_clean_sbu_0, # of connection points: 4
#     Node 1, Type 0, BuildingBlock: UXUYUI_clean_sbu_0, # of connection points: 4
#     Node 2, Type 0, BuildingBlock: UXUYUI_clean_sbu_0, # of connection points: 4
#     Node 3, Type 0, BuildingBlock: UXUYUI_clean_sbu_0, # of connection points: 4
#     Node 4, Type 0, BuildingBlock: UXUYUI_clean_sbu_0, # of connection points: 4
#     Node 5, Type 0, BuildingBlock: UXUYUI_clean_sbu_0, # of connection points: 4
#     Node 6, Type 0, BuildingBlock: UXUYUI_clean_sbu_0, # of connection points: 4
#     Node 7, Type 0, BuildingBlock: UXUYUI_clean_sbu_0, # of connection points: 4
#     Node 8, Type 0, BuildingBlock: UXUYUI_clean_sbu_0, # of connection points: 4
#     Node 9, Type 0, BuildingBlock: UXUYUI_clean_sbu_0, # of connection points: 4
#     Node 10, Type 0, BuildingBlock: UXUYUI_clean_sbu_0, # of connection points: 4
#     Node 11, Type 0, BuildingBlock: UXUYUI_clean_sbu_0, # of connection points: 4
#     Node 12, Type 0, BuildingBlock: UXUYUI_clean_sbu_0, # of connection points: 4
#     Node 13, Type 0, BuildingBlock: UXUYUI_clean_sbu_0, # of connection points: 4
#     Node 14, Type 0, BuildingBlock: UXUYUI_clean_sbu_0, # of connection points: 4
#     Node 15, Type 0, BuildingBlock: UXUYUI_clean_sbu_0, # of connection points: 4
#     Node 16, Type 0, BuildingBlock: UXUYUI_clean_sbu_0, # of connection points: 4
#     Node 17, Type 0, BuildingBlock: UXUYUI_clean_sbu_0, # of connection points: 4
#     Node 18, Type 0, BuildingBlock: UXUYUI_clean_sbu_0, # of connection points: 4
#     Node 19, Type 0, BuildingBlock: UXUYUI_clean_sbu_0, # of connection points: 4
#     Node 20, Type 0, BuildingBlock: UXUYUI_clean_sbu_0, # of connection points: 4
#     Node 21, Type 0, BuildingBlock: UXUYUI_clean_sbu_0, # of connection points: 4
#     Node 22, Type 0, BuildingBlock: UXUYUI_clean_sbu_0, # of connection points: 4
#     Node 23, Type 0, BuildingBlock: UXUYUI_clean_sbu_0, # of connection points: 4
#     Node 24, Type 1, BuildingBlock: PAMTUU_clean_sbu_0, # of connection points: 6
#     Node 25, Type 1, BuildingBlock: PAMTUU_clean_sbu_0, # of connection points: 6
#     Node 26, Type 1, BuildingBlock: PAMTUU_clean_sbu_0, # of connection points: 6
#     Node 27, Type 1, BuildingBlock: PAMTUU_clean_sbu_0, # of connection points: 6
#     Node 28, Type 1, BuildingBlock: PAMTUU_clean_sbu_0, # of connection points: 6
#     Node 29, Type 1, BuildingBlock: PAMTUU_clean_sbu_0, # of connection points: 6
#     Node 30, Type 1, BuildingBlock: PAMTUU_clean_sbu_0, # of connection points: 6
#     Node 31, Type 1, BuildingBlock: PAMTUU_clean_sbu_0, # of connection points: 6
#     Node 32, Type 1, BuildingBlock: PAMTUU_clean_sbu_0, # of connection points: 6
#     Node 33, Type 1, BuildingBlock: PAMTUU_clean_sbu_0, # of connection points: 6
#     Node 34, Type 1, BuildingBlock: PAMTUU_clean_sbu_0, # of connection points: 6
#     Node 35, Type 1, BuildingBlock: PAMTUU_clean_sbu_0, # of connection points: 6
#     Node 36, Type 1, BuildingBlock: PAMTUU_clean_sbu_0, # of connection points: 6
#     Node 37, Type 1, BuildingBlock: PAMTUU_clean_sbu_0, # of connection points: 6
#     Node 38, Type 1, BuildingBlock: PAMTUU_clean_sbu_0, # of connection points: 6
#     Node 39, Type 1, BuildingBlock: PAMTUU_clean_sbu_0, # of connection points: 6
#     Edge 40, Type (0, 1), BuildingBlock: ZUJKAS_clean_linker_0, # of connection points: 2
#     Edge 41, Type (0, 1), BuildingBlock: ZUJKAS_clean_linker_0, # of connection points: 2
#     Edge 42, Type (0, 1), BuildingBlock: ZUJKAS_clean_linker_0, # of connection points: 2
#     Edge 43, Type (0, 1), BuildingBlock: ZUJKAS_clean_linker_0, # of connection points: 2
#     Edge 44, Type (0, 1), BuildingBlock: ZUJKAS_clean_linker_0, # of connection points: 2
#     Edge 45, Type (0, 1), BuildingBlock: ZUJKAS_clean_linker_0, # of connection points: 2
#     Edge 46, Type (0, 1), BuildingBlock: ZUJKAS_clean_linker_0, # of connection points: 2
#     Edge 47, Type (0, 1), BuildingBlock: ZUJKAS_clean_linker_0, # of connection points: 2
#     Edge 48, Type (0, 1), BuildingBlock: ZUJKAS_clean_linker_0, # of connection points: 2
#     Edge 49, Type (0, 1), BuildingBlock: ZUJKAS_clean_linker_0, # of connection points: 2
#     Edge 50, Type (0, 1), BuildingBlock: ZUJKAS_clean_linker_0, # of connection points: 2
#     Edge 51, Type (0, 1), BuildingBlock: ZUJKAS_clean_linker_0, # of connection points: 2
#     Edge 52, Type (0, 1), BuildingBlock: ZUJKAS_clean_linker_0, # of connection points: 2
#     Edge 53, Type (0, 1), BuildingBlock: ZUJKAS_clean_linker_0, # of connection points: 2
#     Edge 54, Type (0, 1), BuildingBlock: ZUJKAS_clean_linker_0, # of connection points: 2
#     Edge 55, Type (0, 1), BuildingBlock: ZUJKAS_clean_linker_0, # of connection points: 2
#     Edge 56, Type (0, 1), BuildingBlock: ZUJKAS_clean_linker_0, # of connection points: 2
#     Edge 57, Type (0, 1), BuildingBlock: ZUJKAS_clean_linker_0, # of connection points: 2
#     Edge 58, Type (0, 1), BuildingBlock: ZUJKAS_clean_linker_0, # of connection points: 2
#     Edge 59, Type (0, 1), BuildingBlock: ZUJKAS_clean_linker_0, # of connection points: 2
#     Edge 60, Type (0, 1), BuildingBlock: ZUJKAS_clean_linker_0, # of connection points: 2
#     Edge 61, Type (0, 1), BuildingBlock: ZUJKAS_clean_linker_0, # of connection points: 2
#     Edge 62, Type (0, 1), BuildingBlock: ZUJKAS_clean_linker_0, # of connection points: 2
#     Edge 63, Type (0, 1), BuildingBlock: ZUJKAS_clean_linker_0, # of connection points: 2
#     Edge 64, Type (0, 1), BuildingBlock: ZUJKAS_clean_linker_0, # of connection points: 2
#     Edge 65, Type (0, 1), BuildingBlock: ZUJKAS_clean_linker_0, # of connection points: 2
#     Edge 66, Type (0, 1), BuildingBlock: ZUJKAS_clean_linker_0, # of connection points: 2
#     Edge 67, Type (0, 1), BuildingBlock: ZUJKAS_clean_linker_0, # of connection points: 2
#     Edge 68, Type (0, 1), BuildingBlock: ZUJKAS_clean_linker_0, # of connection points: 2
#     Edge 69, Type (0, 1), BuildingBlock: ZUJKAS_clean_linker_0, # of connection points: 2
#     Edge 70, Type (0, 1), BuildingBlock: ZUJKAS_clean_linker_0, # of connection points: 2
#     Edge 71, Type (0, 1), BuildingBlock: ZUJKAS_clean_linker_0, # of connection points: 2
#     Edge 72, Type (0, 1), BuildingBlock: ZUJKAS_clean_linker_0, # of connection points: 2
#     Edge 73, Type (0, 1), BuildingBlock: ZUJKAS_clean_linker_0, # of connection points: 2
#     Edge 74, Type (0, 1), BuildingBlock: ZUJKAS_clean_linker_0, # of connection points: 2
#     Edge 75, Type (0, 1), BuildingBlock: ZUJKAS_clean_linker_0, # of connection points: 2
#     Edge 76, Type (0, 1), BuildingBlock: ZUJKAS_clean_linker_0, # of connection points: 2
#     Edge 77, Type (0, 1), BuildingBlock: ZUJKAS_clean_linker_0, # of connection points: 2
#     Edge 78, Type (0, 1), BuildingBlock: ZUJKAS_clean_linker_0, # of connection points: 2
#     Edge 79, Type (0, 1), BuildingBlock: ZUJKAS_clean_linker_0, # of connection points: 2
#     Edge 80, Type (0, 1), BuildingBlock: ZUJKAS_clean_linker_0, # of connection points: 2
#     Edge 81, Type (0, 1), BuildingBlock: ZUJKAS_clean_linker_0, # of connection points: 2
#     Edge 82, Type (0, 1), BuildingBlock: ZUJKAS_clean_linker_0, # of connection points: 2
#     Edge 83, Type (0, 1), BuildingBlock: ZUJKAS_clean_linker_0, # of connection points: 2
#     Edge 84, Type (0, 1), BuildingBlock: ZUJKAS_clean_linker_0, # of connection points: 2
#     Edge 85, Type (0, 1), BuildingBlock: ZUJKAS_clean_linker_0, # of connection points: 2
#     Edge 86, Type (0, 1), BuildingBlock: ZUJKAS_clean_linker_0, # of connection points: 2
#     Edge 87, Type (0, 1), BuildingBlock: ZUJKAS_clean_linker_0, # of connection points: 2
#     Edge 88, Type (0, 1), BuildingBlock: ZUJKAS_clean_linker_0, # of connection points: 2
#     Edge 89, Type (0, 1), BuildingBlock: ZUJKAS_clean_linker_0, # of connection points: 2
#     Edge 90, Type (0, 1), BuildingBlock: ZUJKAS_clean_linker_0, # of connection points: 2
#     Edge 91, Type (0, 1), BuildingBlock: ZUJKAS_clean_linker_0, # of connection points: 2
#     Edge 92, Type (0, 1), BuildingBlock: ZUJKAS_clean_linker_0, # of connection points: 2
#     Edge 93, Type (0, 1), BuildingBlock: ZUJKAS_clean_linker_0, # of connection points: 2
#     Edge 94, Type (0, 1), BuildingBlock: ZUJKAS_clean_linker_0, # of connection points: 2
#     Edge 95, Type (0, 1), BuildingBlock: ZUJKAS_clean_linker_0, # of connection points: 2
#     Edge 96, Type (0, 1), BuildingBlock: ZUJKAS_clean_linker_0, # of connection points: 2
#     Edge 97, Type (0, 1), BuildingBlock: ZUJKAS_clean_linker_0, # of connection points: 2
#     Edge 98, Type (0, 1), BuildingBlock: ZUJKAS_clean_linker_0, # of connection points: 2
#     Edge 99, Type (0, 1), BuildingBlock: ZUJKAS_clean_linker_0, # of connection points: 2
#     Edge 100, Type (0, 1), BuildingBlock: ZUJKAS_clean_linker_0, # of connection points: 2
#     Edge 101, Type (0, 1), BuildingBlock: ZUJKAS_clean_linker_0, # of connection points: 2
#     Edge 102, Type (0, 1), BuildingBlock: ZUJKAS_clean_linker_0, # of connection points: 2
#     Edge 103, Type (0, 1), BuildingBlock: ZUJKAS_clean_linker_0, # of connection points: 2
#     Edge 104, Type (0, 1), BuildingBlock: ZUJKAS_clean_linker_0, # of connection points: 2
#     Edge 105, Type (0, 1), BuildingBlock: ZUJKAS_clean_linker_0, # of connection points: 2
#     Edge 106, Type (0, 1), BuildingBlock: ZUJKAS_clean_linker_0, # of connection points: 2
#     Edge 107, Type (0, 1), BuildingBlock: ZUJKAS_clean_linker_0, # of connection points: 2
#     Edge 108, Type (0, 1), BuildingBlock: ZUJKAS_clean_linker_0, # of connection points: 2
#     Edge 109, Type (0, 1), BuildingBlock: ZUJKAS_clean_linker_0, # of connection points: 2
#     Edge 110, Type (0, 1), BuildingBlock: ZUJKAS_clean_linker_0, # of connection points: 2
#     Edge 111, Type (0, 1), BuildingBlock: ZUJKAS_clean_linker_0, # of connection points: 2
#     Edge 112, Type (0, 1), BuildingBlock: ZUJKAS_clean_linker_0, # of connection points: 2
#     Edge 113, Type (0, 1), BuildingBlock: ZUJKAS_clean_linker_0, # of connection points: 2
#     Edge 114, Type (0, 1), BuildingBlock: ZUJKAS_clean_linker_0, # of connection points: 2
#     Edge 115, Type (0, 1), BuildingBlock: ZUJKAS_clean_linker_0, # of connection points: 2
#     Edge 116, Type (0, 1), BuildingBlock: ZUJKAS_clean_linker_0, # of connection points: 2
#     Edge 117, Type (0, 1), BuildingBlock: ZUJKAS_clean_linker_0, # of connection points: 2
#     Edge 118, Type (0, 1), BuildingBlock: ZUJKAS_clean_linker_0, # of connection points: 2
#     Edge 119, Type (0, 1), BuildingBlock: ZUJKAS_clean_linker_0, # of connection points: 2
#     Edge 120, Type (0, 1), BuildingBlock: ZUJKAS_clean_linker_0, # of connection points: 2
#     Edge 121, Type (0, 1), BuildingBlock: ZUJKAS_clean_linker_0, # of connection points: 2
#     Edge 122, Type (0, 1), BuildingBlock: ZUJKAS_clean_linker_0, # of connection points: 2
#     Edge 123, Type (0, 1), BuildingBlock: ZUJKAS_clean_linker_0, # of connection points: 2
#     Edge 124, Type (0, 1), BuildingBlock: ZUJKAS_clean_linker_0, # of connection points: 2
#     Edge 125, Type (0, 1), BuildingBlock: ZUJKAS_clean_linker_0, # of connection points: 2
#     Edge 126, Type (0, 1), BuildingBlock: ZUJKAS_clean_linker_0, # of connection points: 2
#     Edge 127, Type (0, 1), BuildingBlock: ZUJKAS_clean_linker_0, # of connection points: 2
#     Edge 128, Type (0, 1), BuildingBlock: ZUJKAS_clean_linker_0, # of connection points: 2
#     Edge 129, Type (0, 1), BuildingBlock: ZUJKAS_clean_linker_0, # of connection points: 2
#     Edge 130, Type (0, 1), BuildingBlock: ZUJKAS_clean_linker_0, # of connection points: 2
#     Edge 131, Type (0, 1), BuildingBlock: ZUJKAS_clean_linker_0, # of connection points: 2
#     Edge 132, Type (0, 1), BuildingBlock: ZUJKAS_clean_linker_0, # of connection points: 2
#     Edge 133, Type (0, 1), BuildingBlock: ZUJKAS_clean_linker_0, # of connection points: 2
#     Edge 134, Type (0, 1), BuildingBlock: ZUJKAS_clean_linker_0, # of connection points: 2
#     Edge 135, Type (0, 1), BuildingBlock: ZUJKAS_clean_linker_0, # of connection points: 2
# Relax obj value: 0.167
# Max RMSD: 0.293
# Mean RMSD: 0.201
data_MOF--net-gar--node1-UXUYUI_clean_sbu_0--node2-PAMTUU_clean_sbu_0--edge1-ZUJKAS_clean_linker_0
_symmetry_space_group_name_H-M    P1
_symmetry_Int_Tables_number       1
_symmetry_cell_setting            triclinic
loop_
_symmetry_equiv_pos_as_xyz
'x, y, z'
_cell_length_a     89.039606
_cell_length_b     84.814849
_cell_length_c     87.927769
_cell_angle_alpha  93.484687
_cell_angle_beta   93.092661
_cell_angle_gamma 105.85178
loop_
_atom_site_label
_atom_site_type_symbol
_atom_site_fract_x
_atom_site_fract_y
_atom_site_fract_z
_atom_type_partial_charge
Li0 Li 0.02126 0.26172 0.36967 0.0
Li1 Li 0.03939 0.28088 0.39128 0.0
Li2 Li 0.05177 0.26442 0.3706 0.0
Li3 Li 0.03526 0.24664 0.39029 0.0
C4 C 0.03976 0.29114 0.35652 0.0
N5 N 0.03945 0.30996 0.33204 0.0
C6 C 0.03669 0.30639 0.35858 0.0
C7 C 0.04282 0.2855 0.34208 0.0
C8 C 0.03654 0.31571 0.34604 0.0
C9 C 0.04257 0.29519 0.32982 0.0
C10 C 0.00454 0.25871 0.39458 0.0
C11 C 0.97917 0.24036 0.39782 0.0
N12 N 0.9727 0.25306 0.39659 0.0
C13 C 0.99767 0.27159 0.39337 0.0
C14 C 0.99526 0.24296 0.39681 0.0
C15 C 0.98153 0.26848 0.39441 0.0
C16 C 0.9872 0.2468 0.35665 0.0
N17 N 0.99949 0.26077 0.35794 0.0
C18 C 0.98203 0.27506 0.34612 0.0
C19 C 0.9969 0.27475 0.35271 0.0
C20 C 0.96898 0.26092 0.34478 0.0
C21 C 0.97208 0.24661 0.35023 0.0
H22 H 0.98891 0.2357 0.36098 0.0
H23 H 0.0063 0.28598 0.35384 0.0
C24 C 0.05089 0.31713 0.40087 0.0
N25 N 0.04068 0.30267 0.40407 0.0
C26 C 0.05094 0.33238 0.40853 0.0
C27 C 0.03008 0.31805 0.42294 0.0
C28 C 0.03045 0.30306 0.41505 0.0
C29 C 0.04034 0.33328 0.41979 0.0
H30 H 0.05895 0.31696 0.39212 0.0
H31 H 0.02223 0.29171 0.41756 0.0
C32 C 0.0339 0.23351 0.35512 0.0
N33 N 0.03613 0.21251 0.33063 0.0
C34 C 0.0394 0.21986 0.35751 0.0
C35 C 0.02937 0.2364 0.34032 0.0
C36 C 0.04049 0.20941 0.34496 0.0
C37 C 0.03063 0.22566 0.32808 0.0
C38 C 0.07053 0.26834 0.39603 0.0
C39 C 0.07621 0.25452 0.39543 0.0
C40 C 0.08098 0.28406 0.39785 0.0
C41 C 0.09236 0.25668 0.39669 0.0
C42 C 0.09706 0.2857 0.39908 0.0
N43 N 0.10236 0.27209 0.39847 0.0
C44 C 0.08276 0.28033 0.35631 0.0
C45 C 0.07708 0.25161 0.35559 0.0
C46 C 0.09726 0.28131 0.34966 0.0
N47 N 0.07273 0.2656 0.35925 0.0
C48 C 0.09139 0.25204 0.34884 0.0
C49 C 0.10206 0.26705 0.34568 0.0
H50 H 0.07968 0.29156 0.35927 0.0
H51 H 0.06963 0.23989 0.35818 0.0
C52 C 0.02425 0.21075 0.39688 0.0
N53 N 0.03387 0.22576 0.40239 0.0
C54 C 0.0237 0.19625 0.40444 0.0
C55 C 0.04282 0.21242 0.42351 0.0
C56 C 0.04305 0.22662 0.41559 0.0
C57 C 0.0331 0.19666 0.41807 0.0
H58 H 0.01697 0.20988 0.38644 0.0
H59 H 0.05082 0.23837 0.42 0.0
O60 O 0.04001 0.28186 0.36865 0.0
O61 O 0.02019 0.26137 0.39302 0.0
O62 O 0.03272 0.24385 0.36724 0.0
O63 O 0.0548 0.26647 0.3942 0.0
H64 H 0.0343 0.31091 0.36971 0.0
H65 H 0.04542 0.27381 0.34037 0.0
H66 H 0.0341 0.32751 0.34743 0.0
H67 H 0.04489 0.29098 0.31856 0.0
H68 H 0.97182 0.22823 0.39951 0.0
H69 H 0.00468 0.2838 0.3914 0.0
H70 H 1.00042 0.23285 0.39763 0.0
H71 H 0.97603 0.27831 0.3934 0.0
H72 H 0.98095 0.28652 0.34208 0.0
H73 H 0.96281 0.23527 0.34995 0.0
H74 H 0.05937 0.34339 0.40559 0.0
H75 H 0.02144 0.31761 0.43121 0.0
H76 H 0.04293 0.21747 0.36891 0.0
H77 H 0.02488 0.2468 0.33834 0.0
H78 H 0.04481 0.19885 0.34662 0.0
H79 H 0.02721 0.22776 0.31655 0.0
H80 H 0.06822 0.24227 0.3938 0.0
H81 H 0.07672 0.29486 0.39818 0.0
H82 H 0.09694 0.2461 0.39617 0.0
H83 H 0.10532 0.29779 0.40045 0.0
H84 H 0.10458 0.29332 0.34756 0.0
H85 H 0.09417 0.24054 0.34647 0.0
H86 H 0.01574 0.18479 0.39957 0.0
H87 H 0.05056 0.21385 0.43372 0.0
Li88 Li 0.03263 0.7929 0.64268 0.0
Li89 Li 0.04611 0.77854 0.66303 0.0
Li90 Li 0.02886 0.75958 0.64191 0.0
Li91 Li 0.01505 0.77462 0.66374 0.0
C92 C 0.06203 0.78462 0.63478 0.0
N93 N 0.09128 0.79627 0.62404 0.0
C94 C 0.07264 0.79877 0.64191 0.0
C95 C 0.06625 0.77639 0.62218 0.0
C96 C 0.08738 0.80447 0.63631 0.0
C97 C 0.08111 0.78248 0.61692 0.0
C98 C 0.0409 0.80626 0.67828 0.0
C99 C 0.0444 0.81362 0.70541 0.0
N100 N 0.05613 0.82717 0.70304 0.0
C101 C 0.05289 0.8203 0.67608 0.0
C102 C 0.03653 0.80291 0.69302 0.0
C103 C 0.06049 0.8307 0.68876 0.0
C104 C 0.01995 0.81802 0.62704 0.0
N105 N 0.03341 0.81362 0.63029 0.0
C106 C 0.04763 0.83755 0.61772 0.0
C107 C 0.04712 0.82329 0.62565 0.0
C108 C 0.03395 0.8425 0.61422 0.0
C109 C 0.01996 0.83218 0.61912 0.0
H110 H 0.00903 0.81058 0.6307 0.0
H111 H 0.05787 0.82006 0.62811 0.0
C112 C 0.07779 0.77252 0.66709 0.0
N113 N 0.06783 0.77927 0.67488 0.0
C114 C 0.09265 0.7723 0.67369 0.0
C115 C 0.08712 0.78521 0.69684 0.0
C116 C 0.0724 0.78547 0.68969 0.0
C117 C 0.09781 0.77868 0.68888 0.0
H118 H 0.07423 0.76706 0.65558 0.0
H119 H 0.06464 0.79061 0.69615 0.0
C120 C 1.00087 0.7668 0.62919 0.0
N121 N 0.977 0.75332 0.6069 0.0
C122 C 0.98716 0.75554 0.63288 0.0
C123 C 1.00248 0.77123 0.61419 0.0
C124 C 0.97522 0.74885 0.62143 0.0
C125 C 0.99026 0.76428 0.60308 0.0
C126 C 0.03392 0.7514 0.67683 0.0
C127 C 0.04451 0.74218 0.6744 0.0
C128 C 0.03002 0.75464 0.69165 0.0
C129 C 0.05117 0.73644 0.68692 0.0
C130 C 0.03691 0.74866 0.70387 0.0
N131 N 0.04726 0.73978 0.70127 0.0
C132 C 0.04179 0.73353 0.62877 0.0
C133 C 0.01484 0.72744 0.62177 0.0
C134 C 0.04253 0.71861 0.62106 0.0
N135 N 0.0281 0.73787 0.62912 0.0
C136 C 0.01507 0.71234 0.61391 0.0
C137 C 0.02907 0.70747 0.61337 0.0
H138 H 0.0523 0.7416 0.6347 0.0
H139 H 1.00392 0.73067 0.62204 0.0
C140 C 0.98889 0.78715 0.67667 0.0
N141 N 0.99406 0.77339 0.67489 0.0
C142 C 0.97457 0.78688 0.68336 0.0
C143 C 0.97057 0.75831 0.68659 0.0
C144 C 0.98498 0.75909 0.67984 0.0
C145 C 0.96481 0.77231 0.68855 0.0
H146 H 0.99579 0.79853 0.67272 0.0
H147 H 0.98879 0.74805 0.6785 0.0
O148 O 0.04764 0.77873 0.64023 0.0
O149 O 0.03346 0.79581 0.66606 0.0
O150 O 0.0127 0.77341 0.6402 0.0
O151 O 0.02777 0.75768 0.66481 0.0
H152 H 0.06956 0.8052 0.65174 0.0
H153 H 0.05814 0.76545 0.6165 0.0
H154 H 0.09573 0.81538 0.64174 0.0
H155 H 0.08456 0.77624 0.60717 0.0
H156 H 0.0412 0.81116 0.7169 0.0
H157 H 0.05627 0.82315 0.66471 0.0
H158 H 0.02719 0.79214 0.69487 0.0
H159 H 0.06983 0.84159 0.68726 0.0
H160 H 0.05882 0.84452 0.61421 0.0
H161 H 0.00897 0.83512 0.61715 0.0
H162 H 0.09994 0.76676 0.6669 0.0
H163 H 0.09018 0.79036 0.70852 0.0
H164 H 0.9858 0.75196 0.64445 0.0
H165 H 0.01305 0.77994 0.61119 0.0
H166 H 0.96454 0.74009 0.6241 0.0
H167 H 0.99131 0.76758 0.59141 0.0
H168 H 0.04772 0.73967 0.663 0.0
H169 H 0.02182 0.76175 0.69368 0.0
H170 H 0.05948 0.72938 0.68524 0.0
H171 H 0.03404 0.75111 0.71541 0.0
H172 H 0.05366 0.71575 0.62147 0.0
H173 H 1.00428 0.70462 0.60818 0.0
H174 H 0.97111 0.79815 0.68411 0.0
H175 H 0.96408 0.74666 0.69037 0.0
Li176 Li 0.52107 0.76251 0.87128 0.0
Li177 Li 0.53921 0.78089 0.89342 0.0
Li178 Li 0.55272 0.76555 0.8724 0.0
Li179 Li 0.53639 0.74885 0.89271 0.0
C180 C 0.54022 0.79025 0.85725 0.0
N181 N 0.5405 0.8055 0.83036 0.0
C182 C 0.5406 0.80685 0.85759 0.0
C183 C 0.54006 0.78142 0.84328 0.0
C184 C 0.54071 0.81433 0.84386 0.0
C185 C 0.54019 0.78935 0.8298 0.0
C186 C 0.51186 0.76733 0.90519 0.0
C187 C 0.50734 0.77221 0.93162 0.0
N188 N 0.49656 0.78005 0.92727 0.0
C189 C 0.50072 0.77539 0.90096 0.0
C190 C 0.51521 0.76569 0.92062 0.0
C191 C 0.49311 0.78175 0.9123 0.0
C192 C 0.48662 0.74828 0.8597 0.0
N193 N 0.49943 0.76158 0.85945 0.0
C194 C 0.48265 0.7754 0.84581 0.0
C195 C 0.49744 0.77501 0.85255 0.0
C196 C 0.4691 0.76194 0.846 0.0
C197 C 0.47159 0.74819 0.85312 0.0
H198 H 0.48788 0.73769 0.86535 0.0
H199 H 0.5073 0.78575 0.85245 0.0
C200 C 0.54886 0.80901 0.91889 0.0
N201 N 0.53965 0.80281 0.90574 0.0
C202 C 0.54845 0.82404 0.92674 0.0
C203 C 0.52921 0.82651 0.90761 0.0
C204 C 0.52991 0.81144 0.90018 0.0
C205 C 0.53855 0.83329 0.9212 0.0
H206 H 0.55669 0.80239 0.92337 0.0
H207 H 0.5225 0.8066 0.88985 0.0
C208 C 0.53592 0.73493 0.85757 0.0
N209 N 0.54096 0.71476 0.83368 0.0
C210 C 0.54764 0.72694 0.85923 0.0
C211 C 0.52676 0.73269 0.84378 0.0
C212 C 0.55001 0.71678 0.84701 0.0
C213 C 0.52949 0.72244 0.83183 0.0
C214 C 0.56434 0.764 0.90736 0.0
C215 C 0.57566 0.75589 0.9042 0.0
C216 C 0.56117 0.76699 0.92249 0.0
C217 C 0.5837 0.75095 0.91628 0.0
C218 C 0.56946 0.76186 0.93425 0.0
N219 N 0.58045 0.75401 0.93093 0.0
C220 C 0.58779 0.77477 0.86828 0.0
C221 C 0.57356 0.76023 0.84617 0.0
C222 C 0.60221 0.77553 0.86163 0.0
N223 N 0.57356 0.76708 0.86071 0.0
C224 C 0.58775 0.76071 0.8391 0.0
C225 C 0.60269 0.7684 0.8467 0.0
H226 H 0.58811 0.78029 0.87976 0.0
H227 H 0.56251 0.7542 0.83987 0.0
C228 C 0.52409 0.72242 0.91497 0.0
N229 N 0.53541 0.728 0.9051 0.0
C230 C 0.52355 0.70829 0.92317 0.0
C231 C 0.54621 0.70538 0.91115 0.0
C232 C 0.54635 0.71954 0.90323 0.0
C233 C 0.53469 0.69925 0.92142 0.0
H234 H 0.51526 0.72884 0.91653 0.0
H235 H 0.55542 0.72375 0.89556 0.0
O236 O 0.53993 0.78263 0.87052 0.0
O237 O 0.51977 0.76148 0.8943 0.0
O238 O 0.53351 0.74505 0.86931 0.0
O239 O 0.55608 0.76857 0.89569 0.0
H240 H 0.5408 0.81386 0.86833 0.0
H241 H 0.53979 0.76858 0.84285 0.0
H242 H 0.54097 0.82716 0.84393 0.0
H243 H 0.54003 0.78266 0.81889 0.0
H244 H 0.50984 0.77108 0.94362 0.0
H245 H 0.4981 0.77688 0.88906 0.0
H246 H 0.52385 0.75953 0.92407 0.0
H247 H 0.48451 0.7881 0.90921 0.0
H248 H 0.482 0.78635 0.84045 0.0
H249 H 0.46191 0.73743 0.85404 0.0
H250 H 0.55611 0.82848 0.93699 0.0
H251 H 0.52113 0.83265 0.90274 0.0
H252 H 0.55502 0.72881 0.86972 0.0
H253 H 0.51767 0.73885 0.84233 0.0
H254 H 0.55909 0.71058 0.8481 0.0
H255 H 0.52251 0.72059 0.82108 0.0
H256 H 0.57804 0.7532 0.89254 0.0
H257 H 0.55232 0.77309 0.92511 0.0
H258 H 0.59245 0.7446 0.914 0.0
H259 H 0.56711 0.76406 0.94602 0.0
H260 H 0.61297 0.78149 0.86846 0.0
H261 H 0.58687 0.75515 0.82757 0.0
H262 H 0.5142 0.70437 0.93064 0.0
H263 H 0.55534 0.69943 0.90929 0.0
Li264 Li 0.53258 0.29402 0.14392 0.0
Li265 Li 0.54574 0.27921 0.16418 0.0
Li266 Li 0.52849 0.25988 0.14296 0.0
Li267 Li 0.51503 0.27559 0.16396 0.0
C268 C 0.56344 0.28382 0.14032 0.0
N269 N 0.59563 0.29264 0.13988 0.0
C270 C 0.57172 0.30029 0.1396 0.0
C271 C 0.57148 0.27181 0.14067 0.0
C272 C 0.58801 0.3045 0.1394 0.0
C273 C 0.58778 0.27653 0.14049 0.0
C274 C 0.54088 0.30886 0.17775 0.0
C275 C 0.54433 0.3215 0.20348 0.0
N276 N 0.55633 0.33386 0.19933 0.0
C277 C 0.55315 0.32174 0.1737 0.0
C278 C 0.53634 0.30876 0.19272 0.0
C279 C 0.56085 0.33425 0.18479 0.0
C280 C 0.5296 0.32793 0.13901 0.0
N281 N 0.53369 0.31501 0.132 0.0
C282 C 0.53889 0.33069 0.10956 0.0
C283 C 0.5383 0.31635 0.11742 0.0
C284 C 0.53475 0.3443 0.11649 0.0
C285 C 0.53005 0.34247 0.13158 0.0
H286 H 0.52586 0.32702 0.15051 0.0
H287 H 0.54162 0.30626 0.11174 0.0
C288 C 0.57015 0.26547 0.17972 0.0
N289 N 0.56728 0.27997 0.17626 0.0
C290 C 0.58487 0.26487 0.18643 0.0
C291 C 0.59415 0.29407 0.18598 0.0
C292 C 0.57919 0.29415 0.17936 0.0
C293 C 0.59746 0.27927 0.1897 0.0
H294 H 0.56112 0.25407 0.17689 0.0
H295 H 0.57734 0.30569 0.17638 0.0
C296 C 0.49752 0.2696 0.13519 0.0
N297 N 0.46617 0.26066 0.12536 0.0
C298 C 0.48838 0.25349 0.13615 0.0
C299 C 0.49077 0.28118 0.12922 0.0
C300 C 0.47254 0.2492 0.13112 0.0
C301 C 0.47488 0.27641 0.12431 0.0
C302 C 0.5287 0.25066 0.17846 0.0
C303 C 0.52747 0.23384 0.1773 0.0
C304 C 0.5313 0.25933 0.19281 0.0
C305 C 0.52893 0.22598 0.19058 0.0
C306 C 0.53269 0.25103 0.20583 0.0
N307 N 0.53149 0.23466 0.20445 0.0
C308 C 0.53736 0.22937 0.13551 0.0
C309 C 0.51795 0.23207 0.11743 0.0
C310 C 0.53783 0.21437 0.12781 0.0
N311 N 0.52756 0.23812 0.13036 0.0
C312 C 0.51804 0.21705 0.10936 0.0
C313 C 0.52813 0.20775 0.11437 0.0
H314 H 0.54491 0.23399 0.14579 0.0
H315 H 0.51015 0.2389 0.11325 0.0
C316 C 0.48448 0.28357 0.17022 0.0
N317 N 0.49389 0.27413 0.17487 0.0
C318 C 0.47 0.28293 0.17669 0.0
C319 C 0.47461 0.26304 0.1931 0.0
C320 C 0.48899 0.26395 0.18624 0.0
C321 C 0.46454 0.27254 0.18845 0.0
H322 H 0.48816 0.29178 0.16135 0.0
H323 H 0.49617 0.25633 0.19006 0.0
O324 O 0.54756 0.27957 0.14109 0.0
O325 O 0.53323 0.2965 0.16707 0.0
O326 O 0.51296 0.27406 0.14025 0.0
O327 O 0.52755 0.25864 0.1656 0.0
H328 H 0.56564 0.30971 0.13929 0.0
H329 H 0.56524 0.25903 0.14131 0.0
H330 H 0.59459 0.31721 0.13892 0.0
H331 H 0.59418 0.26738 0.1409 0.0
H332 H 0.54098 0.32158 0.21512 0.0
H333 H 0.55671 0.32203 0.16213 0.0
H334 H 0.5267 0.29899 0.19597 0.0
H335 H 0.57043 0.34426 0.18183 0.0
H336 H 0.54282 0.3311 0.09812 0.0
H337 H 0.52644 0.35212 0.13768 0.0
H338 H 0.58642 0.25298 0.18859 0.0
H339 H 0.60305 0.30569 0.18818 0.0
H340 H 0.49348 0.24442 0.1408 0.0
H341 H 0.49773 0.29372 0.12846 0.0
H342 H 0.4653 0.23678 0.13182 0.0
H343 H 0.46947 0.28523 0.11969 0.0
H344 H 0.52537 0.22693 0.16627 0.0
H345 H 0.53234 0.27236 0.19386 0.0
H346 H 0.52802 0.21297 0.18987 0.0
H347 H 0.53475 0.2576 0.21701 0.0
H348 H 0.54567 0.20791 0.1326 0.0
H349 H 0.51036 0.21293 0.09908 0.0
H350 H 0.46327 0.29085 0.17255 0.0
H351 H 0.47134 0.2546 0.20188 0.0
Li352 Li 0.06286 0.79976 0.11393 0.0
Li353 Li 0.07736 0.78733 0.13336 0.0
Li354 Li 0.06028 0.77047 0.11366 0.0
Li355 Li 0.0486 0.78217 0.13392 0.0
C356 C 0.08409 0.78174 0.09832 0.0
N357 N 0.09212 0.76634 0.07268 0.0
C358 C 0.0962 0.77423 0.09946 0.0
C359 C 0.07611 0.78152 0.08414 0.0
C360 C 0.10007 0.76647 0.08636 0.0
C361 C 0.08034 0.77366 0.07131 0.0
C362 C 0.07286 0.81855 0.14365 0.0
C363 C 0.07706 0.8394 0.16454 0.0
N364 N 0.08886 0.84914 0.15732 0.0
C365 C 0.08501 0.82875 0.13641 0.0
C366 C 0.06881 0.82389 0.1578 0.0
C367 C 0.09296 0.84419 0.14352 0.0
C368 C 0.05253 0.82737 0.10927 0.0
N369 N 0.06238 0.81902 0.10377 0.0
C370 C 0.07056 0.83882 0.08543 0.0
C371 C 0.07136 0.82444 0.09209 0.0
C372 C 0.06053 0.84778 0.09095 0.0
C373 C 0.05143 0.84181 0.10304 0.0
H374 H 0.04555 0.8228 0.11859 0.0
H375 H 0.07925 0.8177 0.08803 0.0
C376 C 0.10164 0.77549 0.14391 0.0
N377 N 0.0964 0.78907 0.14555 0.0
C378 C 0.11523 0.7747 0.15215 0.0
C379 C 0.11783 0.80191 0.16385 0.0
C380 C 0.10412 0.80214 0.15539 0.0
C381 C 0.1236 0.78806 0.16226 0.0
H382 H 0.09514 0.76514 0.13624 0.0
H383 H 0.09969 0.81273 0.15679 0.0
C384 C 0.03105 0.77192 0.10264 0.0
N385 N 0.0061 0.75219 0.0842 0.0
C386 C 0.02186 0.75739 0.1078 0.0
C387 C 0.02753 0.7765 0.08817 0.0
C388 C 0.0093 0.74755 0.09828 0.0
C389 C 0.01486 0.76634 0.079 0.0
C390 C 0.06184 0.76201 0.15016 0.0
C391 C 0.0601 0.74561 0.15302 0.0
C392 C 0.06423 0.77396 0.16241 0.0
C393 C 0.06076 0.7414 0.16811 0.0
C394 C 0.06483 0.76926 0.17733 0.0
N395 N 0.0631 0.75321 0.17985 0.0
C396 C 0.0667 0.74067 0.10816 0.0
C397 C 0.04991 0.74492 0.08796 0.0
C398 C 0.06644 0.72534 0.10127 0.0
N399 N 0.05843 0.75009 0.10157 0.0
C400 C 0.04918 0.72951 0.08072 0.0
C401 C 0.05749 0.71948 0.08742 0.0
H402 H 0.0735 0.74508 0.11889 0.0
H403 H 0.04373 0.75269 0.08266 0.0
C404 C 0.0257 0.79368 0.14763 0.0
N405 N 0.0312 0.78027 0.14607 0.0
C406 C 0.01261 0.79321 0.15584 0.0
C407 C 0.01117 0.76515 0.16086 0.0
C408 C 0.02422 0.76612 0.15242 0.0
C409 C 0.00512 0.7788 0.16262 0.0
H410 H 0.0314 0.8047 0.1423 0.0
H411 H 0.0287 0.75555 0.15085 0.0
O412 O 0.07981 0.78898 0.11106 0.0
O413 O 0.06482 0.80347 0.13688 0.0
O414 O 0.04339 0.78171 0.11173 0.0
O415 O 0.06127 0.76623 0.13541 0.0
H416 H 0.1025 0.77431 0.11034 0.0
H417 H 0.06656 0.7871 0.08312 0.0
H418 H 0.10937 0.76053 0.08708 0.0
H419 H 0.07419 0.77327 0.06028 0.0
H420 H 0.07408 0.84369 0.17551 0.0
H421 H 0.08833 0.82474 0.12549 0.0
H422 H 0.05939 0.81612 0.1635 0.0
H423 H 0.1024 0.85221 0.13808 0.0
H424 H 0.07792 0.84303 0.07626 0.0
H425 H 0.04338 0.84811 0.10755 0.0
H426 H 0.11898 0.76362 0.15076 0.0
H427 H 0.12391 0.81253 0.17144 0.0
H428 H 0.0245 0.75369 0.11897 0.0
H429 H 0.03456 0.78775 0.08406 0.0
H430 H 1.00211 0.73622 0.10207 0.0
H431 H 0.01201 0.76968 0.06774 0.0
H432 H 0.05824 0.73622 0.14366 0.0
H433 H 0.06562 0.78671 0.16046 0.0
H434 H 0.05943 0.72874 0.17048 0.0
H435 H 0.06668 0.77837 0.18691 0.0
H436 H 0.07293 0.71798 0.10692 0.0
H437 H 0.04229 0.72556 0.06995 0.0
H438 H 0.00826 0.80394 0.15659 0.0
H439 H 0.00596 0.75385 0.166 0.0
Li440 Li 0.50719 0.77014 0.42242 0.0
Li441 Li 0.49077 0.75294 0.40158 0.0
Li442 Li 0.50452 0.74014 0.4211 0.0
Li443 Li 0.51868 0.75713 0.40177 0.0
C444 C 0.48183 0.75038 0.43779 0.0
N445 N 0.46952 0.74746 0.46598 0.0
C446 C 0.46618 0.74999 0.43918 0.0
C447 C 0.49119 0.74916 0.45069 0.0
C448 C 0.46018 0.74856 0.45355 0.0
C449 C 0.48476 0.74771 0.46485 0.0
C450 C 0.50004 0.78198 0.39085 0.0
C451 C 0.49112 0.78626 0.36544 0.0
N452 N 0.48426 0.79748 0.37145 0.0
C453 C 0.49295 0.7936 0.39677 0.0
C454 C 0.49918 0.77832 0.37506 0.0
C455 C 0.48501 0.80129 0.38678 0.0
C456 C 0.521 0.80369 0.43056 0.0
N457 N 0.50984 0.79053 0.43474 0.0
C458 C 0.50114 0.80803 0.4526 0.0
C459 C 0.50002 0.79244 0.44562 0.0
C460 C 0.51243 0.82184 0.44834 0.0
C461 C 0.52261 0.81946 0.43732 0.0
H462 H 0.52823 0.80206 0.42143 0.0
H463 H 0.49093 0.78206 0.44858 0.0
C464 C 0.46724 0.74152 0.37636 0.0
N465 N 0.47157 0.75099 0.38977 0.0
C466 C 0.45345 0.74149 0.36786 0.0
C467 C 0.44887 0.76077 0.38722 0.0
C468 C 0.46259 0.7603 0.39538 0.0
C469 C 0.44418 0.75138 0.37321 0.0
H470 H 0.47455 0.73418 0.37216 0.0
H471 H 0.4663 0.76766 0.4061 0.0
C472 C 0.53635 0.76898 0.43262 0.0
N473 N 0.56121 0.79073 0.44972 0.0
C474 C 0.54699 0.78116 0.42558 0.0
C475 C 0.53845 0.76776 0.44833 0.0
C476 C 0.55946 0.79207 0.43443 0.0
C477 C 0.55107 0.77891 0.45678 0.0
C478 C 0.50778 0.7272 0.38782 0.0
C479 C 0.51414 0.71468 0.39224 0.0
C480 C 0.5079 0.73111 0.37261 0.0
C481 C 0.5207 0.7064 0.38136 0.0
C482 C 0.5146 0.72257 0.36208 0.0
N483 N 0.52081 0.7105 0.36664 0.0
C484 C 0.49115 0.70863 0.43232 0.0
C485 C 0.5184 0.72015 0.43809 0.0
C486 C 0.49175 0.69416 0.4389 0.0
N487 N 0.5044 0.72118 0.43192 0.0
C488 C 0.51954 0.70595 0.44478 0.0
C489 C 0.50615 0.69257 0.44505 0.0
H490 H 0.4802 0.70969 0.42716 0.0
H491 H 0.52879 0.73023 0.43747 0.0
C492 C 0.5401 0.7705 0.37951 0.0
N493 N 0.53651 0.75918 0.39001 0.0
C494 C 0.55329 0.77178 0.3712 0.0
C495 C 0.55882 0.74979 0.38472 0.0
C496 C 0.54566 0.74907 0.39287 0.0
C497 C 0.5628 0.76126 0.37371 0.0
H498 H 0.53281 0.77861 0.37765 0.0
H499 H 0.54272 0.74044 0.40154 0.0
O500 O 0.48785 0.75172 0.4238 0.0
O501 O 0.50757 0.77405 0.40047 0.0
O502 O 0.52396 0.75828 0.42418 0.0
O503 O 0.50157 0.73565 0.39836 0.0
H504 H 0.45876 0.75082 0.42928 0.0
H505 H 0.50328 0.74937 0.44977 0.0
H506 H 0.4481 0.7483 0.45481 0.0
H507 H 0.49188 0.7468 0.47494 0.0
H508 H 0.49029 0.78347 0.35321 0.0
H509 H 0.49334 0.79648 0.40896 0.0
H510 H 0.50454 0.76933 0.37027 0.0
H511 H 0.47939 0.81023 0.39121 0.0
H512 H 0.49308 0.80929 0.46109 0.0
H513 H 0.53128 0.82977 0.43344 0.0
H514 H 0.45029 0.73413 0.35707 0.0
H515 H 0.44197 0.76839 0.39187 0.0
H516 H 0.54551 0.78237 0.41347 0.0
H517 H 0.53048 0.7583 0.45397 0.0
H518 H 0.56771 0.80163 0.42915 0.0
H519 H 0.5528 0.77814 0.46896 0.0
H520 H 0.51412 0.71147 0.40395 0.0
H521 H 0.50304 0.74076 0.369 0.0
H522 H 0.52574 0.69675 0.38464 0.0
H523 H 0.51488 0.72555 0.35029 0.0
H524 H 0.48115 0.68412 0.4387 0.0
H525 H 0.53084 0.70544 0.44956 0.0
H526 H 0.55593 0.78077 0.36279 0.0
H527 H 0.56597 0.74165 0.3872 0.0
Li528 Li 0.5632 0.29845 0.61349 0.0
Li529 Li 0.57711 0.28713 0.63302 0.0
Li530 Li 0.55914 0.26824 0.61222 0.0
Li531 Li 0.54904 0.28211 0.63293 0.0
C532 C 0.59083 0.29345 0.60218 0.0
N533 N 0.61497 0.30895 0.58518 0.0
C534 C 0.60114 0.30852 0.60774 0.0
C535 C 0.59277 0.28626 0.58796 0.0
C536 C 0.61329 0.31616 0.59898 0.0
C537 C 0.60505 0.29429 0.57954 0.0
C538 C 0.57472 0.31581 0.64566 0.0
C539 C 0.58639 0.32626 0.67095 0.0
N540 N 0.59437 0.34045 0.66525 0.0
C541 C 0.583 0.33052 0.64005 0.0
C542 C 0.57637 0.31367 0.66124 0.0
C543 C 0.59289 0.34283 0.65014 0.0
C544 C 0.55371 0.32602 0.60769 0.0
N545 N 0.56306 0.3171 0.60214 0.0
C546 C 0.57044 0.3356 0.58258 0.0
C547 C 0.57124 0.32149 0.5897 0.0
C548 C 0.56094 0.34512 0.58817 0.0
C549 C 0.55247 0.34009 0.60089 0.0
H550 H 0.54728 0.32222 0.61756 0.0
H551 H 0.57833 0.31407 0.5852 0.0
C552 C 0.59788 0.27422 0.64955 0.0
N553 N 0.59628 0.28879 0.64508 0.0
C554 C 0.61149 0.27352 0.65779 0.0
C555 C 0.62172 0.30287 0.65682 0.0
C556 C 0.6079 0.30299 0.64851 0.0
C557 C 0.6237 0.28795 0.66148 0.0
H558 H 0.58861 0.26305 0.64657 0.0
H559 H 0.60662 0.31443 0.6447 0.0
C560 C 0.53654 0.27863 0.59595 0.0
N561 N 0.52343 0.27478 0.56629 0.0
C562 C 0.52032 0.27501 0.59311 0.0
C563 C 0.5461 0.28025 0.58372 0.0
C564 C 0.51391 0.2731 0.57803 0.0
C565 C 0.53925 0.27829 0.56881 0.0
C566 C 0.55328 0.25617 0.6449 0.0
C567 C 0.54198 0.24147 0.64005 0.0
C568 C 0.55619 0.26113 0.66047 0.0
C569 C 0.53361 0.23204 0.65091 0.0
C570 C 0.54757 0.25136 0.67097 0.0
N571 N 0.53654 0.23714 0.66602 0.0
C572 C 0.56987 0.24342 0.59819 0.0
C573 C 0.54239 0.23861 0.59439 0.0
C574 C 0.56898 0.22817 0.59066 0.0
N575 N 0.5567 0.24827 0.59998 0.0
C576 C 0.54095 0.22322 0.58679 0.0
C577 C 0.55435 0.21773 0.585 0.0
H578 H 0.58106 0.25123 0.60301 0.0
H579 H 0.53206 0.24266 0.59617 0.0
C580 C 0.53187 0.291 0.65681 0.0
N581 N 0.53146 0.27974 0.64501 0.0
C582 C 0.51874 0.28986 0.66515 0.0
C583 C 0.50503 0.26548 0.6491 0.0
C584 C 0.51839 0.26716 0.64101 0.0
C585 C 0.50502 0.277 0.6613 0.0
H586 H 0.54228 0.30108 0.65955 0.0
H587 H 0.51831 0.25851 0.63143 0.0
O588 O 0.5788 0.2858 0.61051 0.0
O589 O 0.56494 0.30364 0.63598 0.0
O590 O 0.54291 0.28032 0.61065 0.0
O591 O 0.56134 0.26575 0.63443 0.0
H592 H 0.59962 0.31437 0.61858 0.0
H593 H 0.58482 0.27463 0.58345 0.0
H594 H 0.62133 0.32786 0.60313 0.0
H595 H 0.60668 0.28888 0.5685 0.0
H596 H 0.58783 0.32474 0.68302 0.0
H597 H 0.58193 0.3324 0.62804 0.0
H598 H 0.57007 0.30236 0.66576 0.0
H599 H 0.59942 0.35424 0.64595 0.0
H600 H 0.57699 0.33889 0.57267 0.0
H601 H 0.54514 0.34712 0.6057 0.0
H602 H 0.6124 0.26177 0.6613 0.0
H603 H 0.6309 0.31427 0.65925 0.0
H604 H 0.51277 0.27363 0.60248 0.0
H605 H 0.55865 0.28295 0.5857 0.0
H606 H 0.50137 0.27028 0.57566 0.0
H607 H 0.54651 0.27953 0.55923 0.0
H608 H 0.53959 0.23749 0.62802 0.0
H609 H 0.56496 0.27244 0.66438 0.0
H610 H 0.52476 0.22068 0.64733 0.0
H611 H 0.54963 0.25509 0.68306 0.0
H612 H 0.57959 0.22438 0.58979 0.0
H613 H 0.52945 0.21565 0.58251 0.0
H614 H 0.51924 0.29922 0.67424 0.0
H615 H 0.49482 0.25525 0.64581 0.0
Li616 Li 0.00707 0.2708 0.92183 0.0
Li617 Li 0.9901 0.25298 0.90098 0.0
Li618 Li 0.00471 0.24195 0.92092 0.0
Li619 Li 0.0192 0.25735 0.90161 0.0
C620 C 0.98026 0.25962 0.93394 0.0
N621 N 0.96622 0.27515 0.95516 0.0
C622 C 0.96736 0.26505 0.92942 0.0
C623 C 0.98588 0.26187 0.94929 0.0
C624 C 0.96045 0.27292 0.94031 0.0
C625 C 0.97867 0.26981 0.95984 0.0
C626 C 0.01235 0.28749 0.89269 0.0
C627 C 0.01234 0.30399 0.8713 0.0
N628 N 0.02372 0.31642 0.87897 0.0
C629 C 0.02403 0.30043 0.90037 0.0
C630 C 0.00642 0.28928 0.87805 0.0
C631 C 0.02963 0.31496 0.89324 0.0
C632 C 0.01949 0.29801 0.9448 0.0
N633 N 0.00849 0.29132 0.93314 0.0
C634 C 0.99911 0.3152 0.93438 0.0
C635 C 0.99835 0.29953 0.92795 0.0
C636 C 0.01054 0.32266 0.94623 0.0
C637 C 0.02069 0.31374 0.95158 0.0
H638 H 0.0276 0.29135 0.94856 0.0
H639 H 0.98984 0.29401 0.91854 0.0
C640 C 0.9624 0.23647 0.8815 0.0
N641 N 0.97154 0.25103 0.88825 0.0
C642 C 0.94871 0.23593 0.87261 0.0
C643 C 0.95413 0.26532 0.87787 0.0
C644 C 0.96771 0.2653 0.88654 0.0
C645 C 0.94436 0.25049 0.87082 0.0
H646 H 0.96565 0.22526 0.88313 0.0
H647 H 0.97515 0.2767 0.89211 0.0
C648 C 0.03291 0.25406 0.93406 0.0
N649 N 0.04919 0.23983 0.95421 0.0
C650 C 0.04348 0.24587 0.92872 0.0
C651 C 0.03079 0.25521 0.94968 0.0
C652 C 0.05156 0.23872 0.93908 0.0
C653 C 0.03907 0.24788 0.95968 0.0
C654 C 0.99992 0.22982 0.88349 0.0
C655 C 0.99582 0.21279 0.88021 0.0
C656 C 1.00154 0.24016 0.87155 0.0
C657 C 0.99339 0.20638 0.86498 0.0
C658 C 0.99901 0.23328 0.85647 0.0
N659 N 0.99502 0.21667 0.85353 0.0
C660 C 0.99668 0.21925 0.94459 0.0
C661 C 0.01245 0.21285 0.92562 0.0
C662 C 0.99699 0.20504 0.95182 0.0
N663 N 1.00439 0.22287 0.93175 0.0
C664 C 0.01319 0.19867 0.93252 0.0
C665 C 0.00533 0.19447 0.94578 0.0
H666 H 0.99021 0.22731 0.94917 0.0
H667 H 0.01844 0.216 0.91538 0.0
C668 C 0.04641 0.27363 0.88647 0.0
N669 N 0.03676 0.25884 0.88938 0.0
C670 C 0.05938 0.27443 0.87799 0.0
C671 C 0.05252 0.24476 0.87583 0.0
C672 C 0.03965 0.24454 0.88431 0.0
C673 C 0.06261 0.25986 0.87256 0.0
H674 H 0.04426 0.28484 0.89095 0.0
H675 H 0.03209 0.23292 0.88706 0.0
O676 O 0.98741 0.25223 0.92338 0.0
O677 O 0.00646 0.27327 0.89958 0.0
O678 O 0.02458 0.26075 0.92403 0.0
O679 O 1.00222 0.23622 0.89836 0.0
H680 H 0.96275 0.26327 0.91763 0.0
H681 H 0.99578 0.25766 0.95299 0.0
H682 H 0.95051 0.27728 0.93695 0.0
H683 H 0.98298 0.27175 0.97173 0.0
H684 H 0.00786 0.30553 0.85997 0.0
H685 H 0.02892 0.2992 0.91162 0.0
H686 H 0.99733 0.27942 0.87195 0.0
H687 H 0.03872 0.32504 0.89903 0.0
H688 H 0.99088 0.32145 0.93001 0.0
H689 H 0.0298 0.31905 0.96056 0.0
H690 H 0.94145 0.22421 0.86746 0.0
H691 H 0.95135 0.27686 0.87664 0.0
H692 H 0.0453 0.24489 0.91668 0.0
H693 H 0.02279 0.26164 0.95403 0.0
H694 H 0.05968 0.23223 0.93509 0.0
H695 H 0.03746 0.24858 0.97178 0.0
H696 H 0.99452 0.20463 0.88935 0.0
H697 H 0.00475 0.25335 0.87388 0.0
H698 H 0.9902 0.19322 0.86226 0.0
H699 H 1.00023 0.24114 0.84711 0.0
H700 H 0.99056 0.20227 0.96188 0.0
H701 H 0.02004 0.19118 0.92755 0.0
H702 H 0.06701 0.28635 0.87601 0.0
H703 H 0.0545 0.23322 0.87182 0.0
Li704 Li 0.44024 0.04246 0.30313 0.0
Li705 Li 0.41792 0.02291 0.28851 0.0
Li706 Li 0.44028 0.04038 0.2757 0.0
Li707 Li 0.42119 0.05211 0.28683 0.0
C708 C 0.44864 0.0139 0.29687 0.0
N709 N 0.46566 0.99586 0.31173 0.0
C710 C 0.44095 0.99935 0.30312 0.0
C711 C 0.465 0.01917 0.29805 0.0
C712 C 0.44976 0.99043 0.31062 0.0
C713 C 0.47339 0.00991 0.30565 0.0
C714 C 0.40665 0.03315 0.31529 0.0
C715 C 0.37986 0.02489 0.32202 0.0
N716 N 0.38467 0.0201 0.33549 0.0
C717 C 0.41133 0.02829 0.32927 0.0
C718 C 0.39079 0.03157 0.31169 0.0
C719 C 0.40004 0.02168 0.3393 0.0
C720 C 0.46191 0.06354 0.32451 0.0
N721 N 0.45372 0.04753 0.32118 0.0
C722 C 0.46641 0.0395 0.34274 0.0
C723 C 0.45553 0.03561 0.33017 0.0
C724 C 0.47529 0.05587 0.34622 0.0
C725 C 0.47283 0.06803 0.33707 0.0
H726 H 0.46003 0.07283 0.31734 0.0
H727 H 0.44853 0.02307 0.32762 0.0
C728 C 0.39938 0.99485 0.27224 0.0
N729 N 0.40306 1.00192 0.28674 0.0
C730 C 0.38876 0.97935 0.26946 0.0
C731 C 0.38595 0.97856 0.29662 0.0
C732 C 0.39668 0.99408 0.29888 0.0
C733 C 0.38194 0.971 0.28175 0.0
H734 H 0.40481 1.00124 0.26281 0.0
H735 H 0.40016 0.99961 0.31034 0.0
C736 C 0.45703 0.07123 0.2843 0.0
N737 N 0.483 0.09212 0.27331 0.0
C738 C 0.45557 0.08475 0.27663 0.0
C739 C 0.47174 0.0685 0.28661 0.0
C740 C 0.46883 0.09514 0.27111 0.0
C741 C 0.48471 0.07915 0.2809 0.0
C742 C 0.40536 0.03584 0.26038 0.0
C743 C 0.40786 0.04176 0.24597 0.0
C744 C 0.39017 0.03098 0.26511 0.0
C745 C 0.3951 0.04305 0.23666 0.0
C746 C 0.37771 0.03244 0.25548 0.0
N747 N 0.38042 0.03843 0.24158 0.0
C748 C 0.46158 0.02988 0.2585 0.0
C749 C 0.45499 0.05321 0.24973 0.0
C750 C 0.47251 0.03083 0.24764 0.0
N751 N 0.45334 0.04115 0.25951 0.0
C752 C 0.46587 0.05469 0.23871 0.0
C753 C 0.47487 0.04347 0.23769 0.0
H754 H 0.45979 0.02024 0.26624 0.0
H755 H 0.44804 0.06182 0.25066 0.0
C756 C 0.40168 0.07117 0.29614 0.0
N757 N 0.41024 0.06788 0.28466 0.0
C758 C 0.39185 0.08122 0.29394 0.0
C759 C 0.40057 0.08496 0.26846 0.0
C760 C 0.41027 0.07491 0.2712 0.0
C761 C 0.39096 0.08788 0.27981 0.0
H762 H 0.40216 0.06564 0.30684 0.0
H763 H 0.41752 0.07235 0.26244 0.0
O764 O 0.44019 0.02275 0.28945 0.0
O765 O 0.41758 0.03974 0.30538 0.0
O766 O 0.44414 0.06075 0.28955 0.0
O767 O 0.41775 0.0348 0.26978 0.0
H768 H 0.42833 0.99502 0.30225 0.0
H769 H 0.47118 0.0303 0.29318 0.0
H770 H 0.44394 0.97919 0.31556 0.0
H771 H 0.48605 0.0139 0.3067 0.0
H772 H 0.36755 0.02355 0.31935 0.0
H773 H 0.42352 0.02957 0.33234 0.0
H774 H 0.38695 0.03552 0.30108 0.0
H775 H 0.40351 0.01779 0.35012 0.0
H776 H 0.46768 0.02986 0.34982 0.0
H777 H 0.47939 0.0808 0.33951 0.0
H778 H 0.38593 0.97395 0.25781 0.0
H779 H 0.3812 0.97235 0.30643 0.0
H780 H 0.44431 0.08715 0.27488 0.0
H781 H 0.47309 0.05821 0.29267 0.0
H782 H 0.46786 0.10558 0.26505 0.0
H783 H 0.49614 0.07709 0.2825 0.0
H784 H 0.41955 0.04548 0.2421 0.0
H785 H 0.38802 0.02609 0.27609 0.0
H786 H 0.39686 0.04775 0.22553 0.0
H787 H 0.3659 0.02881 0.25904 0.0
H788 H 0.47924 0.02195 0.2472 0.0
H789 H 0.46717 0.06441 0.23103 0.0
H790 H 0.38458 0.08319 0.30295 0.0
H791 H 0.4004 0.09016 0.25753 0.0
Li792 Li 0.29083 0.18882 0.52729 0.0
Li793 Li 0.30227 0.16806 0.51316 0.0
Li794 Li 0.29009 0.18763 0.49836 0.0
Li795 Li 0.27436 0.1657 0.512 0.0
C796 C 0.32239 0.20411 0.51898 0.0
N797 N 0.35004 0.22681 0.52996 0.0
C798 C 0.33302 0.19951 0.52883 0.0
C799 C 0.32593 0.22017 0.51451 0.0
C800 C 0.3469 0.2112 0.53433 0.0
C801 C 0.33993 0.23149 0.52024 0.0
C802 C 0.27939 0.15284 0.53732 0.0
C803 C 0.27003 0.12394 0.54094 0.0
N804 N 0.25992 0.12725 0.55091 0.0
C805 C 0.26898 0.15598 0.54765 0.0
C806 C 0.27997 0.13671 0.53394 0.0
C807 C 0.2592 0.14287 0.55438 0.0
C808 C 0.27899 0.20452 0.55187 0.0
N809 N 0.29217 0.2012 0.54706 0.0
C810 C 0.30539 0.21057 0.57185 0.0
C811 C 0.30526 0.20417 0.55674 0.0
C812 C 0.29184 0.21377 0.57729 0.0
C813 C 0.27858 0.21086 0.56691 0.0
H814 H 0.2685 0.20154 0.54424 0.0
H815 H 0.31545 0.20097 0.55297 0.0
C816 C 0.32646 0.15646 0.50084 0.0
N817 N 0.31855 0.15729 0.51352 0.0
C818 C 0.33827 0.14845 0.50079 0.0
C819 C 0.3336 0.14233 0.52688 0.0
C820 C 0.32195 0.15053 0.52644 0.0
C821 C 0.34197 0.14116 0.51393 0.0
H822 H 0.32356 0.16201 0.49073 0.0
H823 H 0.31554 0.15144 0.53641 0.0
C824 C 0.27052 0.20376 0.5114 0.0
N825 N 0.2654 0.23428 0.5095 0.0
C826 C 0.2559 0.20501 0.50594 0.0
C827 C 0.28254 0.218 0.51588 0.0
C828 C 0.25354 0.22056 0.50506 0.0
C829 C 0.27972 0.23333 0.51485 0.0
C830 C 0.27894 0.15076 0.48504 0.0
C831 C 0.26593 0.15232 0.47628 0.0
C832 C 0.28315 0.13605 0.48378 0.0
C833 C 0.25722 0.13901 0.46647 0.0
C834 C 0.27415 0.12304 0.47381 0.0
N835 N 0.26147 0.12477 0.46545 0.0
C836 C 0.30561 0.20463 0.4737 0.0
C837 C 0.27801 0.19882 0.47146 0.0
C838 C 0.30656 0.21075 0.45918 0.0
N839 N 0.29147 0.19869 0.4795 0.0
C840 C 0.27842 0.20472 0.45688 0.0
C841 C 0.29282 0.21061 0.45039 0.0
H842 H 0.31616 0.20415 0.48014 0.0
H843 H 0.26688 0.19391 0.47618 0.0
C844 C 0.24252 0.15686 0.51719 0.0
N845 N 0.25382 0.15037 0.51194 0.0
C846 C 0.22743 0.1468 0.51856 0.0
C847 C 0.23572 0.12349 0.50894 0.0
C848 C 0.25073 0.13398 0.50793 0.0
C849 C 0.22387 0.12987 0.51442 0.0
H850 H 0.24531 0.16986 0.52058 0.0
H851 H 0.25995 0.12893 0.50429 0.0
O852 O 0.30882 0.19281 0.51335 0.0
O853 O 0.28874 0.16546 0.53031 0.0
O854 O 0.27303 0.18861 0.51206 0.0
O855 O 0.28762 0.16362 0.49471 0.0
H856 H 0.3305 0.18711 0.53234 0.0
H857 H 0.31795 0.22384 0.50666 0.0
H858 H 0.35518 0.20785 0.54206 0.0
H859 H 0.34279 0.24398 0.51694 0.0
H860 H 0.27027 0.11138 0.53836 0.0
H861 H 0.26833 0.16839 0.55031 0.0
H862 H 0.28781 0.13405 0.5258 0.0
H863 H 0.25101 0.1451 0.56233 0.0
H864 H 0.31598 0.21273 0.57926 0.0
H865 H 0.26774 0.21277 0.57052 0.0
H866 H 0.34453 0.14812 0.49061 0.0
H867 H 0.33582 0.13674 0.53721 0.0
H868 H 0.2465 0.19408 0.50234 0.0
H869 H 0.29388 0.21725 0.52019 0.0
H870 H 0.24228 0.22172 0.50083 0.0
H871 H 0.28891 0.24446 0.51831 0.0
H872 H 0.2625 0.16361 0.4772 0.0
H873 H 0.29321 0.13468 0.49049 0.0
H874 H 0.24706 0.13999 0.45968 0.0
H875 H 0.27722 0.11155 0.47275 0.0
H876 H 0.31793 0.21497 0.45467 0.0
H877 H 0.26751 0.20453 0.4507 0.0
H878 H 0.21863 0.15225 0.52276 0.0
H879 H 0.23353 0.11046 0.50585 0.0
Li880 Li 0.16575 0.02673 0.80686 0.0
Li881 Li 0.14389 0.00698 0.81547 0.0
Li882 Li 0.16243 0.99763 0.80028 0.0
Li883 Li 0.14393 0.01118 0.78927 0.0
C884 C 0.18091 0.01116 0.82798 0.0
N885 N 0.21013 0.01381 0.84199 0.0
C886 C 0.18315 0.01245 0.84391 0.0
C887 C 0.19352 0.01115 0.81918 0.0
C888 C 0.19802 0.01382 0.85078 0.0
C889 C 0.20819 0.0125 0.82647 0.0
C890 C 0.13545 0.03391 0.81591 0.0
C891 C 0.11077 0.03471 0.82547 0.0
N892 N 0.11854 0.04615 0.83677 0.0
C893 C 0.1432 0.04568 0.82762 0.0
C894 C 0.11911 0.0284 0.81479 0.0
C895 C 0.13443 0.05173 0.83804 0.0
C896 C 0.17487 0.05959 0.803 0.0
N897 N 0.17985 0.04815 0.81041 0.0
C898 C 0.20305 0.0685 0.82057 0.0
C899 C 0.19355 0.05232 0.81929 0.0
C900 C 0.19831 0.08047 0.81274 0.0
C901 C 0.18397 0.07584 0.80391 0.0
H902 H 0.16379 0.05602 0.79625 0.0
H903 H 0.1972 0.04325 0.82543 0.0
C904 C 0.11707 0.99072 0.82958 0.0
N905 N 0.13126 1.00203 0.83185 0.0
C906 C 0.10717 0.98778 0.84143 0.0
C907 C 0.12696 0.00782 0.85783 0.0
C908 C 0.13645 0.0104 0.84564 0.0
C909 C 0.11207 0.99648 0.85572 0.0
H910 H 0.11337 0.98412 0.81854 0.0
H911 H 0.1478 0.01935 0.84701 0.0
C912 C 0.17577 0.02638 0.7779 0.0
N913 N 0.1947 0.04913 0.76091 0.0
C914 C 0.16968 0.03749 0.77023 0.0
C915 C 0.19145 0.02669 0.77673 0.0
C916 C 0.17945 0.04894 0.76175 0.0
C917 C 0.20084 0.03832 0.76814 0.0
C918 C 0.12843 0.97971 0.78809 0.0
C919 C 0.13234 0.9675 0.77903 0.0
C920 C 0.11341 0.98179 0.78617 0.0
C921 C 0.12121 0.95772 0.76805 0.0
C922 C 0.10263 0.97178 0.77505 0.0
N923 N 0.10672 0.96006 0.76629 0.0
C924 C 0.17506 0.97183 0.80748 0.0
C925 C 0.1773 0.97986 0.7821 0.0
C926 C 0.18314 0.96018 0.80448 0.0
N927 N 0.1725 0.98142 0.79636 0.0
C928 C 0.18528 0.9683 0.77855 0.0
C929 C 0.18839 0.95841 0.78987 0.0
H930 H 0.17101 0.97342 0.8187 0.0
H931 H 0.17499 0.98769 0.77353 0.0
C932 C 0.12234 0.02221 0.77157 0.0
N933 N 0.13182 0.0121 0.77134 0.0
C934 C 0.11287 0.02277 0.75861 0.0
C935 C 0.12329 0.00265 0.74541 0.0
C936 C 0.13269 0.00262 0.75858 0.0
C937 C 0.11321 0.0128 0.74538 0.0
H938 H 0.12214 0.02983 0.78181 0.0
H939 H 0.14058 0.99492 0.75873 0.0
O940 O 0.16634 0.00953 0.82115 0.0
O941 O 0.14384 0.02762 0.80576 0.0
O942 O 0.16643 0.01516 0.78638 0.0
O943 O 0.13924 0.98953 0.79879 0.0
H944 H 0.1735 0.01237 0.8509 0.0
H945 H 0.19202 0.01028 0.80688 0.0
H946 H 0.19993 0.01486 0.8631 0.0
H947 H 0.21805 0.01254 0.81978 0.0
H948 H 0.09812 0.03047 0.8248 0.0
H949 H 0.15584 0.04995 0.82879 0.0
H950 H 0.11293 0.01915 0.80592 0.0
H951 H 0.14027 0.0608 0.84719 0.0
H952 H 0.21393 0.07163 0.82767 0.0
H953 H 0.17993 0.08461 0.79752 0.0
H954 H 0.09584 0.97881 0.83947 0.0
H955 H 0.13106 0.0149 0.86865 0.0
H956 H 0.1576 0.03748 0.771 0.0
H957 H 0.19633 0.01802 0.78233 0.0
H958 H 0.17491 0.0577 0.75588 0.0
H959 H 0.213 0.03874 0.7672 0.0
H960 H 0.14383 0.9656 0.78042 0.0
H961 H 0.11022 0.99127 0.79297 0.0
H962 H 0.1241 0.94827 0.76092 0.0
H963 H 0.09103 0.97339 0.77334 0.0
H964 H 0.18528 0.95267 0.81343 0.0
H965 H 0.18934 0.96741 0.76722 0.0
H966 H 0.10524 0.03076 0.75898 0.0
H967 H 0.12403 0.995 0.7353 0.0
Li968 Li 0.2719 0.91662 0.00233 0.0
Li969 Li 0.28938 0.90217 0.01321 0.0
Li970 Li 0.29908 0.92769 -0.00027 0.0
Li971 Li 0.28586 0.90174 0.98525 0.0
C972 C 0.282 0.9326 0.02973 0.0
N973 N 0.2678 0.94784 0.05105 0.0
C974 C 0.27772 0.92536 0.04329 0.0
C975 C 0.27926 0.94771 0.02712 0.0
C976 C 0.27051 0.93324 0.0539 0.0
C977 C 0.272 0.95518 0.038 0.0
C978 C 0.2618 0.87694 0.00144 0.0
C979 C 0.2586 0.8478 0.9972 0.0
N980 N 0.24528 0.84477 0.00472 0.0
C981 C 0.24793 0.87352 0.0089 0.0
C982 C 0.26706 0.86397 0.99535 0.0
C983 C 0.23981 0.85719 0.01054 0.0
C984 C 0.24876 0.93134 0.99407 0.0
N985 N 0.25319 0.92225 0.00473 0.0
C986 C 0.23266 0.92488 0.02012 0.0
C987 C 0.24519 0.91851 0.01736 0.0
C988 C 0.2283 0.93496 0.00964 0.0
C989 C 0.23627 0.93787 0.99631 0.0
H990 H 0.25525 0.93395 0.98406 0.0
H991 H 0.24895 0.91115 0.02558 0.0
C992 C 0.30854 0.89164 0.03446 0.0
N993 N 0.29344 0.89036 0.02974 0.0
C994 C 0.3119 0.88307 0.04665 0.0
C995 C 0.28409 0.87242 0.04911 0.0
C996 C 0.2813 0.8812 0.03691 0.0
C997 C 0.29956 0.87323 0.05407 0.0
H998 H 0.31798 0.89932 0.02875 0.0
H999 H 0.26945 0.88098 0.03337 0.0
C1000 C 0.28704 0.93615 0.97429 0.0
N1001 N 0.29793 0.96184 0.95625 0.0
C1002 C 0.29252 0.93325 0.96008 0.0
C1003 C 0.28689 0.95208 0.97922 0.0
C1004 C 0.29803 0.9464 0.95116 0.0
C1005 C 0.29251 0.96492 0.96997 0.0
C1006 C 0.31568 0.89794 0.99494 0.0
C1007 C 0.33003 0.90516 0.98908 0.0
C1008 C 0.31173 0.8813 0.99763 0.0
C1009 C 0.34003 0.8955 0.98568 0.0
C1010 C 0.32205 0.87205 0.99411 0.0
N1011 N 0.33586 0.87927 0.98823 0.0
C1012 C 0.3189 0.95862 0.0112 0.0
C1013 C 0.32435 0.94839 0.98702 0.0
C1014 C 0.33182 0.97233 0.01122 0.0
N1015 N 0.31559 0.94695 0.99929 0.0
C1016 C 0.33732 0.96187 0.98654 0.0
C1017 C 0.34137 0.9739 0.99889 0.0
H1018 H 0.31182 0.95705 0.02089 0.0
H1019 H 0.3215 0.93879 0.97781 0.0
C1020 C 0.26971 0.88055 0.96062 0.0
N1021 N 0.28426 0.88918 0.9665 0.0
C1022 C 0.26771 0.87176 0.94639 0.0
C1023 C 0.29572 0.88103 0.94453 0.0
C1024 C 0.29716 0.88963 0.95879 0.0
C1025 C 0.28083 0.87202 0.93813 0.0
H1026 H 0.25964 0.88066 0.96693 0.0
H1027 H 0.30851 0.89707 0.96347 0.0
O1028 O 0.28888 0.92495 0.01912 0.0
O1029 O 0.26987 0.89289 -0.00027 0.0
O1030 O 0.28177 0.92344 0.98328 0.0
O1031 O 0.30576 0.90726 0.99829 0.0
H1032 H 0.27986 0.91376 0.04557 0.0
H1033 H 0.28256 0.95352 0.01674 0.0
H1034 H 0.26705 0.92772 0.0644 0.0
H1035 H 0.26968 0.96679 0.03605 0.0
H1036 H 0.26258 0.83766 0.99258 0.0
H1037 H 0.24354 0.88337 0.01348 0.0
H1038 H 0.27743 0.86631 0.98906 0.0
H1039 H 0.22914 0.85438 0.01641 0.0
H1040 H 0.22666 0.92225 0.03046 0.0
H1041 H 0.23334 0.94571 0.98802 0.0
H1042 H 0.32398 0.88402 0.05014 0.0
H1043 H 0.27426 0.86534 0.0548 0.0
H1044 H 0.2926 0.921 0.95601 0.0
H1045 H 0.28259 0.95455 0.99012 0.0
H1046 H 0.30239 0.94435 0.94018 0.0
H1047 H 0.29257 0.97733 0.9737 0.0
H1048 H 0.3334 0.91807 0.98711 0.0
H1049 H 0.30095 0.87563 0.00262 0.0
H1050 H 0.35111 0.90091 0.98104 0.0
H1051 H 0.31912 0.85914 0.99613 0.0
H1052 H 0.33459 0.98135 0.02096 0.0
H1053 H 0.34456 0.96238 0.97697 0.0
H1054 H 0.25604 0.86488 0.94189 0.0
H1055 H 0.30609 0.88184 0.93839 0.0
Li1056 Li 0.26832 0.37141 0.02273 0.0
Li1057 Li 0.27864 0.35262 0.03689 0.0
Li1058 Li 0.29685 0.37548 0.02398 0.0
Li1059 Li 0.27867 0.35127 0.0083 0.0
C1060 C 0.27675 0.38058 0.05401 0.0
N1061 N 0.26347 0.38699 0.08053 0.0
C1062 C 0.26131 0.37205 0.05623 0.0
C1063 C 0.28544 0.39235 0.06527 0.0
C1064 C 0.25481 0.37547 0.06972 0.0
C1065 C 0.27851 0.39543 0.0786 0.0
C1066 C 0.24973 0.33247 0.02266 0.0
C1067 C 0.24259 0.30286 0.02117 0.0
N1068 N 0.22839 0.3027 0.02625 0.0
C1069 C 0.23504 0.33204 0.02778 0.0
C1070 C 0.25353 0.31779 0.01926 0.0
C1071 C 0.22442 0.31686 0.02955 0.0
C1072 C 0.23858 0.37601 0.01423 0.0
N1073 N 0.25269 0.38315 0.02194 0.0
C1074 C 0.24472 0.40718 0.02893 0.0
C1075 C 0.25597 0.39848 0.02913 0.0
C1076 C 0.22994 0.40012 0.02116 0.0
C1077 C 0.227 0.38431 0.01367 0.0
H1078 H 0.23634 0.36387 0.00847 0.0
H1079 H 0.26733 0.40393 0.03509 0.0
C1080 C 0.29055 0.34764 0.06606 0.0
N1081 N 0.27756 0.34209 0.05621 0.0
C1082 C 0.29054 0.34282 0.08104 0.0
C1083 C 0.26389 0.32626 0.07554 0.0
C1084 C 0.26438 0.33149 0.06068 0.0
C1085 C 0.27702 0.3321 0.08609 0.0
H1086 H 0.30083 0.35626 0.0624 0.0
H1087 H 0.25402 0.32745 0.05297 0.0
C1088 C 0.27738 0.38569 0.99776 0.0
N1089 N 0.26543 0.40726 0.98198 0.0
C1090 C 0.26571 0.37971 0.98593 0.0
C1091 C 0.28304 0.4026 0.00156 0.0
C1092 C 0.2598 0.39083 0.97809 0.0
C1093 C 0.27683 0.41331 0.99344 0.0
C1094 C 0.30281 0.33966 0.01991 0.0
C1095 C 0.31533 0.34287 0.01057 0.0
C1096 C 0.29717 0.32399 0.02499 0.0
C1097 C 0.32178 0.33018 0.00615 0.0
C1098 C 0.30394 0.31162 0.02033 0.0
N1099 N 0.31598 0.31494 0.01106 0.0
C1100 C 0.32602 0.39676 0.03707 0.0
C1101 C 0.32239 0.3941 0.01004 0.0
C1102 C 0.34108 0.40731 0.03647 0.0
N1103 N 0.31707 0.39041 0.02395 0.0
C1104 C 0.33731 0.4046 0.0089 0.0
C1105 C 0.34692 0.41134 0.02223 0.0
H1106 H 0.32149 0.39355 0.04798 0.0
H1107 H 0.31505 0.38872 -0.00021 0.0
C1108 C 0.26613 0.32739 0.98165 0.0
N1109 N 0.27831 0.33974 0.98835 0.0
C1110 C 0.26656 0.32111 0.96655 0.0
C1111 C 0.29191 0.34042 0.96544 0.0
C1112 C 0.29099 0.34631 0.98048 0.0
C1113 C 0.27958 0.32767 0.95815 0.0
H1114 H 0.25589 0.32265 0.98783 0.0
H1115 H 0.30027 0.35653 0.98578 0.0
O1116 O 0.28346 0.37724 0.04102 0.0
O1117 O 0.26027 0.34723 0.02095 0.0
O1118 O 0.28297 0.375 0.00586 0.0
O1119 O 0.29627 0.35188 0.02426 0.0
H1120 H 0.25445 0.36285 0.04766 0.0
H1121 H 0.29743 0.39901 0.06373 0.0
H1122 H 0.24288 0.36895 0.07159 0.0
H1123 H 0.2851 0.40451 0.08742 0.0
H1124 H 0.24537 0.29139 0.01859 0.0
H1125 H 0.23191 0.34331 0.03045 0.0
H1126 H 0.26475 0.31792 0.01509 0.0
H1127 H 0.21304 0.31633 0.03357 0.0
H1128 H 0.24751 0.41922 0.03504 0.0
H1129 H 0.21592 0.37846 0.00731 0.0
H1130 H 0.30103 0.34754 0.08862 0.0
H1131 H 0.25312 0.31819 0.07889 0.0
H1132 H 0.26117 0.36663 0.98294 0.0
H1133 H 0.29201 0.40736 0.01077 0.0
H1134 H 0.25071 0.3864 0.96894 0.0
H1135 H 0.28103 0.42644 0.99629 0.0
H1136 H 0.31998 0.35503 0.00675 0.0
H1137 H 0.2877 0.32142 0.0325 0.0
H1138 H 0.3314 0.33244 0.99883 0.0
H1139 H 0.29964 0.2994 0.02411 0.0
H1140 H 0.34802 0.41234 0.04703 0.0
H1141 H 0.34139 0.40713 0.99768 0.0
H1142 H 0.25675 0.31126 0.96151 0.0
H1143 H 0.30202 0.34624 0.95944 0.0
Li1144 Li 0.78189 0.14187 0.04972 0.0
Li1145 Li 0.79179 0.12422 0.03265 0.0
Li1146 Li 0.7742 0.13922 0.02302 0.0
Li1147 Li 0.76515 0.11578 0.03803 0.0
C1148 C 0.80673 0.1617 0.03884 0.0
N1149 N 0.82928 0.18888 0.0523 0.0
C1150 C 0.82185 0.16067 0.04266 0.0
C1151 C 0.80309 0.17657 0.04176 0.0
C1152 C 0.83309 0.17456 0.04947 0.0
C1153 C 0.81465 0.19016 0.04861 0.0
C1154 C 0.77788 0.10853 0.06303 0.0
C1155 C 0.76905 0.08058 0.06998 0.0
N1156 N 0.76476 0.0861 0.08346 0.0
C1157 C 0.77341 0.11393 0.07697 0.0
C1158 C 0.77573 0.09172 0.05952 0.0
C1159 C 0.7668 0.1024 0.08714 0.0
C1160 C 0.77522 0.16227 0.07328 0.0
N1161 N 0.7865 0.15593 0.06783 0.0
C1162 C 0.80417 0.1685 0.08929 0.0
C1163 C 0.8007 0.15867 0.07558 0.0
C1164 C 0.79271 0.17512 0.09536 0.0
C1165 C 0.77805 0.17187 0.08712 0.0
H1166 H 0.76388 0.15951 0.06706 0.0
H1167 H 0.80928 0.15307 0.07116 0.0
C1168 C 0.81744 0.12179 0.01628 0.0
N1169 N 0.80913 0.11668 0.02844 0.0
C1170 C 0.82912 0.11465 0.01209 0.0
C1171 C 0.8238 0.09773 0.03345 0.0
C1172 C 0.8123 0.10522 0.03723 0.0
C1173 C 0.83213 0.10222 0.02057 0.0
H1174 H 0.81463 0.13103 0.00958 0.0
H1175 H 0.80568 0.10166 0.04699 0.0
C1176 C 0.74905 0.14347 0.03454 0.0
N1177 N 0.72622 0.15601 0.02166 0.0
C1178 C 0.73496 0.13284 0.02808 0.0
C1179 C 0.75151 0.16046 0.03453 0.0
C1180 C 0.72356 0.13943 0.02162 0.0
C1181 C 0.73983 0.16656 0.02793 0.0
C1182 C 0.77912 0.10809 0.0066 0.0
C1183 C 0.7833 0.11558 0.99313 0.0
C1184 C 0.78159 0.09276 0.00875 0.0
C1185 C 0.78992 0.10762 0.98205 0.0
C1186 C 0.78829 0.08523 0.99742 0.0
N1187 N 0.79228 0.09275 0.98441 0.0
C1188 C 0.77913 0.16476 0.0035 0.0
C1189 C 0.75621 0.1429 0.99672 0.0
C1190 C 0.77632 0.17274 0.99072 0.0
N1191 N 0.76914 0.15014 0.00622 0.0
C1192 C 0.75288 0.1505 0.98381 0.0
C1193 C 0.76313 0.16552 0.98062 0.0
H1194 H 0.78945 0.17008 0.01109 0.0
H1195 H 0.74868 0.13106 0.999 0.0
C1196 C 0.73902 0.09949 0.05271 0.0
N1197 N 0.74796 0.09787 0.04101 0.0
C1198 C 0.72577 0.08687 0.05497 0.0
C1199 C 0.73145 0.07103 0.03329 0.0
C1200 C 0.74454 0.084 0.03141 0.0
C1201 C 0.72172 0.0725 0.04503 0.0
H1202 H 0.742 0.11078 0.06004 0.0
H1203 H 0.75178 0.08315 0.02212 0.0
O1204 O 0.79554 0.14822 0.03225 0.0
O1205 O 0.78412 0.11961 0.05279 0.0
O1206 O 0.76047 0.13729 0.04068 0.0
O1207 O 0.77285 0.11581 0.01769 0.0
H1208 H 0.82486 0.14926 0.04051 0.0
H1209 H 0.79142 0.17755 0.03894 0.0
H1210 H 0.84482 0.17393 0.05256 0.0
H1211 H 0.81197 0.20172 0.05103 0.0
H1212 H 0.7672 0.06753 0.06735 0.0
H1213 H 0.77491 0.12685 0.07989 0.0
H1214 H 0.77888 0.08727 0.04869 0.0
H1215 H 0.76324 0.10641 0.09794 0.0
H1216 H 0.81569 0.17079 0.09506 0.0
H1217 H 0.76867 0.17629 0.09148 0.0
H1218 H 0.83535 0.1184 0.00208 0.0
H1219 H 0.82608 0.08845 0.04046 0.0
H1220 H 0.73291 0.11966 0.02788 0.0
H1221 H 0.76238 0.16884 0.03945 0.0
H1222 H 0.71262 0.13136 0.01651 0.0
H1223 H 0.74161 0.17968 0.02776 0.0
H1224 H 0.78159 0.12748 0.99128 0.0
H1225 H 0.77871 0.0869 0.01921 0.0
H1226 H 0.79326 0.11331 0.9716 0.0
H1227 H 0.7904 0.07344 0.999 0.0
H1228 H 0.78444 0.18437 0.9887 0.0
H1229 H 0.74272 0.14444 0.97617 0.0
H1230 H 0.71842 0.08868 0.06396 0.0
H1231 H 0.72876 0.06014 0.02542 0.0
Li1232 Li 0.1525 0.51719 0.24574 0.0
Li1233 Li 0.12883 0.4994 0.25487 0.0
Li1234 Li 0.14946 0.48818 0.24393 0.0
Li1235 Li 0.13203 0.49823 0.22753 0.0
C1236 C 0.16141 0.51186 0.27395 0.0
N1237 N 0.18296 0.53091 0.29619 0.0
C1238 C 0.15634 0.51854 0.28697 0.0
C1239 C 0.17744 0.51465 0.27235 0.0
C1240 C 0.16742 0.5282 0.29806 0.0
C1241 C 0.18815 0.52438 0.28368 0.0
C1242 C 0.11879 0.52462 0.24279 0.0
C1243 C 0.09151 0.5238 0.23952 0.0
N1244 N 0.09496 0.5394 0.24614 0.0
C1245 C 0.12209 0.54071 0.2494 0.0
C1246 C 0.1034 0.51615 0.23767 0.0
C1247 C 0.10987 0.54794 0.25107 0.0
C1248 C 0.17849 0.54259 0.2391 0.0
N1249 N 0.16705 0.53816 0.24889 0.0
C1250 C 0.17669 0.56381 0.26373 0.0
C1251 C 0.16588 0.54842 0.26096 0.0
C1252 C 0.18868 0.56876 0.25383 0.0
C1253 C 0.18951 0.55793 0.24137 0.0
H1254 H 0.179 0.53426 0.22947 0.0
H1255 H 0.15659 0.5446 0.2685 0.0
C1256 C 0.10586 0.48166 0.27253 0.0
N1257 N 0.11411 0.49707 0.26969 0.0
C1258 C 0.09485 0.47941 0.28344 0.0
C1259 C 0.10137 0.50895 0.28854 0.0
C1260 C 0.11218 0.51061 0.27747 0.0
C1261 C 0.09253 0.49318 0.29164 0.0
H1262 H 0.10792 0.47111 0.26641 0.0
H1263 H 0.11928 0.52268 0.27532 0.0
C1264 C 0.16537 0.49776 0.21926 0.0
N1265 N 0.18602 0.48594 0.20267 0.0
C1266 C 0.16046 0.48938 0.20489 0.0
C1267 C 0.18083 0.50034 0.22509 0.0
C1268 C 0.17107 0.48346 0.1967 0.0
C1269 C 0.19108 0.49419 0.21657 0.0
C1270 C 0.11456 0.46677 0.23422 0.0
C1271 C 0.11778 0.45265 0.22785 0.0
C1272 C 0.09905 0.46748 0.23416 0.0
C1273 C 0.10548 0.43964 0.22119 0.0
C1274 C 0.08707 0.45422 0.2274 0.0
N1275 N 0.09051 0.4407 0.22109 0.0
C1276 C 0.16604 0.47124 0.26065 0.0
C1277 C 0.1624 0.4623 0.23429 0.0
C1278 C 0.17508 0.46058 0.26341 0.0
N1279 N 0.16023 0.47217 0.24624 0.0
C1280 C 0.17143 0.45144 0.23651 0.0
C1281 C 0.17803 0.45068 0.25121 0.0
H1282 H 0.16385 0.47897 0.27 0.0
H1283 H 0.1573 0.46297 0.22301 0.0
C1284 C 0.11765 0.51011 0.20402 0.0
N1285 N 0.12087 0.49624 0.20843 0.0
C1286 C 0.10786 0.50945 0.19101 0.0
C1287 C 0.10582 0.48046 0.18665 0.0
C1288 C 0.11559 0.48168 0.19983 0.0
C1289 C 0.10157 0.4944 0.18236 0.0
H1290 H 0.1224 0.52162 0.21084 0.0
H1291 H 0.1188 0.47098 0.20327 0.0
O1292 O 0.15074 0.50257 0.26286 0.0
O1293 O 0.13062 0.51734 0.24111 0.0
O1294 O 0.15513 0.50362 0.22745 0.0
O1295 O 0.12649 0.47962 0.24078 0.0
H1296 H 0.144 0.51638 0.28847 0.0
H1297 H 0.18155 0.50943 0.26243 0.0
H1298 H 0.16367 0.53354 0.30815 0.0
H1299 H 0.20059 0.52674 0.28253 0.0
H1300 H 0.07955 0.51736 0.23562 0.0
H1301 H 0.13394 0.54755 0.25323 0.0
H1302 H 0.1007 0.50389 0.23215 0.0
H1303 H 0.11225 0.56036 0.25624 0.0
H1304 H 0.17571 0.57169 0.27357 0.0
H1305 H 0.19839 0.56136 0.23331 0.0
H1306 H 0.08828 0.46705 0.28547 0.0
H1307 H 0.10029 0.51988 0.2949 0.0
H1308 H 0.14859 0.48742 0.20013 0.0
H1309 H 0.18487 0.50693 0.23611 0.0
H1310 H 0.16741 0.47687 0.18561 0.0
H1311 H 0.20305 0.49599 0.221 0.0
H1312 H 0.12965 0.45176 0.22794 0.0
H1313 H 0.09625 0.47805 0.23943 0.0
H1314 H 0.10783 0.4287 0.21612 0.0
H1315 H 0.07503 0.45465 0.22725 0.0
H1316 H 0.18007 0.46045 0.27489 0.0
H1317 H 0.17328 0.4438 0.22686 0.0
H1318 H 0.10515 0.52055 0.18779 0.0
H1319 H 0.10128 0.46869 0.18013 0.0
Li1320 Li 0.76499 0.87294 0.52239 0.0
Li1321 Li 0.77588 0.85429 0.53711 0.0
Li1322 Li 0.79326 0.87696 0.52306 0.0
Li1323 Li 0.7762 0.85228 0.50808 0.0
C1324 C 0.77587 0.8901 0.54932 0.0
N1325 N 0.76615 0.91315 0.56679 0.0
C1326 C 0.76782 0.88565 0.5623 0.0
C1327 C 0.77915 0.90632 0.54533 0.0
C1328 C 0.76296 0.89747 0.57096 0.0
C1329 C 0.77409 0.91779 0.55427 0.0
C1330 C 0.74819 0.83295 0.52243 0.0
C1331 C 0.74291 0.80349 0.51888 0.0
N1332 N 0.72894 0.80178 0.52508 0.0
C1333 C 0.7337 0.83092 0.52857 0.0
C1334 C 0.75278 0.81915 0.51738 0.0
C1335 C 0.72416 0.81505 0.52989 0.0
C1336 C 0.74693 0.89274 0.50992 0.0
N1337 N 0.74859 0.88369 0.52182 0.0
C1338 C 0.72725 0.89044 0.53354 0.0
C1339 C 0.73887 0.88219 0.53339 0.0
C1340 C 0.72545 0.90015 0.52154 0.0
C1341 C 0.73542 0.90112 0.50956 0.0
H1342 H 0.75455 0.89348 0.50069 0.0
H1343 H 0.74016 0.87459 0.54254 0.0
C1344 C 0.78813 0.84347 0.56419 0.0
N1345 N 0.7746 0.84384 0.55641 0.0
C1346 C 0.78801 0.83823 0.57903 0.0
C1347 C 0.76002 0.83367 0.57768 0.0
C1348 C 0.76067 0.83896 0.56286 0.0
C1349 C 0.77384 0.83345 0.58614 0.0
H1350 H 0.79914 0.84779 0.55905 0.0
H1351 H 0.7501 0.83983 0.55678 0.0
C1352 C 0.78639 0.88736 0.49588 0.0
N1353 N 0.8027 0.91063 0.47765 0.0
C1354 C 0.79324 0.88253 0.4831 0.0
C1355 C 0.78777 0.90403 0.49931 0.0
C1356 C 0.80145 0.89448 0.47405 0.0
C1357 C 0.79608 0.9156 0.48998 0.0
C1358 C 0.80103 0.84159 0.52278 0.0
C1359 C 0.81543 0.84457 0.51628 0.0
C1360 C 0.79441 0.82625 0.5282 0.0
C1361 C 0.82282 0.83204 0.51503 0.0
C1362 C 0.80217 0.81404 0.52676 0.0
N1363 N 0.81609 0.81716 0.52025 0.0
C1364 C 0.81882 0.90429 0.53501 0.0
C1365 C 0.82241 0.89097 0.51158 0.0
C1366 C 0.83366 0.91545 0.53498 0.0
N1367 N 0.81348 0.89242 0.52336 0.0
C1368 C 0.83724 0.90185 0.51105 0.0
C1369 C 0.84307 0.91433 0.52284 0.0
H1370 H 0.8116 0.90506 0.54437 0.0
H1371 H 0.81805 0.88125 0.50261 0.0
C1372 C 0.76469 0.84289 0.47736 0.0
N1373 N 0.77462 0.83972 0.48834 0.0
C1374 C 0.76458 0.83699 0.46209 0.0
C1375 C 0.78445 0.824 0.46963 0.0
C1376 C 0.78418 0.83016 0.48477 0.0
C1377 C 0.7748 0.82766 0.45793 0.0
H1378 H 0.75736 0.85073 0.48035 0.0
H1379 H 0.79199 0.82768 0.49351 0.0
O1380 O 0.78056 0.87864 0.5406 0.0
O1381 O 0.75766 0.84839 0.52107 0.0
O1382 O 0.77839 0.87585 0.50496 0.0
O1383 O 0.79364 0.85372 0.52411 0.0
H1384 H 0.76525 0.87318 0.56562 0.0
H1385 H 0.78555 0.91004 0.53546 0.0
H1386 H 0.75663 0.89416 0.58098 0.0
H1387 H 0.77649 0.93037 0.55127 0.0
H1388 H 0.74635 0.79269 0.51509 0.0
H1389 H 0.72993 0.84151 0.53239 0.0
H1390 H 0.7638 0.82051 0.51229 0.0
H1391 H 0.71296 0.81329 0.53473 0.0
H1392 H 0.71965 0.88907 0.54287 0.0
H1393 H 0.73453 0.90851 0.50011 0.0
H1394 H 0.79902 0.83855 0.58508 0.0
H1395 H 0.74878 0.83 0.58252 0.0
H1396 H 0.79247 0.86973 0.48033 0.0
H1397 H 0.78246 0.908 0.50905 0.0
H1398 H 0.80688 0.89091 0.46419 0.0
H1399 H 0.79726 0.92854 0.49253 0.0
H1400 H 0.82081 0.85639 0.51214 0.0
H1401 H 0.78342 0.8238 0.53351 0.0
H1402 H 0.83391 0.83415 0.50993 0.0
H1403 H 0.79714 0.8021 0.53086 0.0
H1404 H 0.83765 0.92491 0.54428 0.0
H1405 H 0.84419 0.90028 0.50163 0.0
H1406 H 0.75704 0.84035 0.45356 0.0
H1407 H 0.79233 0.81663 0.46711 0.0
Li1408 Li 0.92563 0.0274 0.2485 0.0
Li1409 Li 0.90458 0.0133 0.23062 0.0
Li1410 Li 0.92659 0.0333 0.22256 0.0
Li1411 Li 0.9069 0.04181 0.23755 0.0
C1412 C 0.93536 0.00359 0.23779 0.0
N1413 N 0.95337 0.98675 0.25298 0.0
C1414 C 0.92841 0.98804 0.24266 0.0
C1415 C 0.9515 0.01055 0.24067 0.0
C1416 C 0.93771 0.97972 0.25029 0.0
C1417 C 0.96039 1.00185 0.24838 0.0
C1418 C 0.89054 0.01369 0.25743 0.0
C1419 C 0.86466 0.00877 0.26643 0.0
N1420 N 0.86516 0.99354 0.27001 0.0
C1421 C 0.8908 0.998 0.26124 0.0
C1422 C 0.87736 0.01914 0.26006 0.0
C1423 C 0.87785 0.98799 0.26756 0.0
C1424 C 0.95099 0.03983 0.27017 0.0
N1425 N 0.93808 0.02695 0.26664 0.0
C1426 C 0.94432 0.01345 0.28815 0.0
C1427 C 0.93447 0.014 0.27544 0.0
C1428 C 0.95799 0.02638 0.29183 0.0
C1429 C 0.96121 0.03976 0.28272 0.0
H1430 H 0.95349 0.05008 0.26314 0.0
H1431 H 0.92413 0.00396 0.27248 0.0
C1432 C 0.89445 0.98116 0.21662 0.0
N1433 N 0.88939 0.993 0.22412 0.0
C1434 C 0.88429 0.96552 0.21301 0.0
C1435 C 0.86357 0.97496 0.22377 0.0
C1436 C 0.87409 0.99047 0.22695 0.0
C1437 C 0.86877 0.96206 0.21718 0.0
H1438 H 0.90652 0.98375 0.21384 0.0
H1439 H 0.87013 1.00033 0.23213 0.0
C1440 C 0.94054 0.06277 0.23541 0.0
N1441 N 0.9612 0.08906 0.22377 0.0
C1442 C 0.93548 0.07612 0.23091 0.0
C1443 C 0.95615 0.06287 0.23409 0.0
C1444 C 0.9461 0.08928 0.22505 0.0
C1445 C 0.9664 0.07624 0.22814 0.0
C1446 C 0.89431 0.02255 0.20504 0.0
C1447 C 0.89991 0.01441 0.19328 0.0
C1448 C 0.87835 0.02144 0.20488 0.0
C1449 C 0.88939 0.00519 0.18153 0.0
C1450 C 0.86821 0.0121 0.19293 0.0
N1451 N 0.87389 0.00423 0.18161 0.0
C1452 C 0.95092 0.03169 0.20418 0.0
C1453 C 0.93784 0.0516 0.19796 0.0
C1454 C 0.96136 0.03661 0.19305 0.0
N1455 N 0.93965 0.03938 0.20656 0.0
C1456 C 0.94798 0.05687 0.1866 0.0
C1457 C 0.95999 0.0494 0.18416 0.0
H1458 H 0.95179 0.0217 0.21089 0.0
H1459 H 0.92862 0.05736 0.20006 0.0
C1460 C 0.89639 0.06338 0.25622 0.0
N1461 N 0.89624 0.05748 0.2415 0.0
C1462 C 0.88751 0.07407 0.25992 0.0
C1463 C 0.87907 0.07285 0.23312 0.0
C1464 C 0.8881 0.06215 0.22995 0.0
C1465 C 0.87851 0.0787 0.24831 0.0
H1466 H 0.90309 0.05941 0.26509 0.0
H1467 H 0.88839 0.05732 0.21834 0.0
O1468 O 0.92641 0.01205 0.23047 0.0
O1469 O 0.90309 0.02372 0.25122 0.0
O1470 O 0.93023 0.04961 0.24089 0.0
O1471 O 0.90437 0.0313 0.21681 0.0
H1472 H 0.91594 0.9825 0.24077 0.0
H1473 H 0.95707 0.0227 0.23733 0.0
H1474 H 0.93245 0.96772 0.25416 0.0
H1475 H 0.97286 0.00717 0.25078 0.0
H1476 H 0.85437 0.01281 0.26848 0.0
H1477 H 0.90069 0.99341 0.25896 0.0
H1478 H 0.87686 0.03118 0.25709 0.0
H1479 H 0.87786 0.97577 0.27043 0.0
H1480 H 0.94123 0.00303 0.29502 0.0
H1481 H 0.97166 0.04994 0.28504 0.0
H1482 H 0.88868 0.95611 0.20745 0.0
H1483 H 0.85173 0.97296 0.22716 0.0
H1484 H 0.92347 0.07628 0.23182 0.0
H1485 H 0.96026 0.05258 0.23732 0.0
H1486 H 0.94232 0.09965 0.22146 0.0
H1487 H 0.97846 0.07639 0.22692 0.0
H1488 H 0.91222 0.01505 0.1933 0.0
H1489 H 0.8738 0.02751 0.214 0.0
H1490 H 0.89354 0.99876 0.17238 0.0
H1491 H 0.85581 0.01104 0.1927 0.0
H1492 H 0.9702 0.03023 0.19118 0.0
H1493 H 0.94653 0.06672 0.17989 0.0
H1494 H 0.88754 0.07852 0.27174 0.0
H1495 H 0.8722 0.07605 0.22387 0.0
Li1496 Li 0.28838 0.64437 0.54935 0.0
Li1497 Li 0.2998 0.62797 0.5322 0.0
Li1498 Li 0.28006 0.64102 0.52316 0.0
Li1499 Li 0.27247 0.61743 0.53775 0.0
C1500 C 0.31264 0.66533 0.53823 0.0
N1501 N 0.33506 0.69289 0.55121 0.0
C1502 C 0.32772 0.66442 0.54248 0.0
C1503 C 0.30903 0.6803 0.5404 0.0
C1504 C 0.33887 0.67848 0.54906 0.0
C1505 C 0.3205 0.69408 0.54704 0.0
C1506 C 0.28949 0.61494 0.56542 0.0
C1507 C 0.29366 0.59462 0.58196 0.0
N1508 N 0.2852 0.59998 0.59254 0.0
C1509 C 0.28073 0.62016 0.5764 0.0
C1510 C 0.29596 0.60201 0.56819 0.0
C1511 C 0.27875 0.61249 0.59006 0.0
C1512 C 0.28037 0.6639 0.5727 0.0
N1513 N 0.29238 0.65863 0.56748 0.0
C1514 C 0.30914 0.67209 0.58927 0.0
C1515 C 0.30655 0.6624 0.57547 0.0
C1516 C 0.29685 0.6775 0.59515 0.0
C1517 C 0.28231 0.67327 0.5866 0.0
H1518 H 0.26908 0.6603 0.56636 0.0
H1519 H 0.31577 0.65767 0.57125 0.0
C1520 C 0.32007 0.61813 0.5129 0.0
N1521 N 0.31736 0.6211 0.52771 0.0
C1522 C 0.33133 0.61014 0.5094 0.0
C1523 C 0.33728 0.60931 0.53649 0.0
C1524 C 0.32592 0.61732 0.53945 0.0
C1525 C 0.33979 0.60525 0.5213 0.0
H1526 H 0.31298 0.6213 0.50383 0.0
H1527 H 0.32346 0.61994 0.55109 0.0
C1528 C 0.25519 0.64505 0.53577 0.0
N1529 N 0.23242 0.65909 0.52527 0.0
C1530 C 0.24004 0.6352 0.53146 0.0
C1531 C 0.2587 0.66206 0.53495 0.0
C1532 C 0.2287 0.64253 0.52614 0.0
C1533 C 0.24705 0.66892 0.52955 0.0
C1534 C 0.28111 0.60327 0.5115 0.0
C1535 C 0.27688 0.59884 0.49597 0.0
C1536 C 0.28508 0.59199 0.52078 0.0
C1537 C 0.27674 0.58316 0.48995 0.0
C1538 C 0.28483 0.57646 0.51433 0.0
N1539 N 0.2807 0.5724 0.49918 0.0
C1540 C 0.28356 0.66462 0.50173 0.0
C1541 C 0.25982 0.64318 0.49815 0.0
C1542 C 0.27959 0.67159 0.4887 0.0
N1543 N 0.27369 0.6507 0.50615 0.0
C1544 C 0.25526 0.64989 0.48517 0.0
C1545 C 0.2653 0.66417 0.48027 0.0
H1546 H 0.29462 0.67016 0.5082 0.0
H1547 H 0.25241 0.63188 0.50177 0.0
C1548 C 0.25299 0.5896 0.55168 0.0
N1549 N 0.25595 0.59805 0.539 0.0
C1550 C 0.23969 0.5763 0.55166 0.0
C1551 C 0.23325 0.58008 0.52531 0.0
C1552 C 0.24653 0.59339 0.5259 0.0
C1553 C 0.22954 0.57162 0.53842 0.0
H1554 H 0.26056 0.59335 0.56195 0.0
H1555 H 0.24902 0.60047 0.51606 0.0
O1556 O 0.30154 0.65169 0.53179 0.0
O1557 O 0.29182 0.62241 0.55205 0.0
O1558 O 0.2665 0.6381 0.54087 0.0
O1559 O 0.28113 0.61853 0.51753 0.0
H1560 H 0.33076 0.65297 0.54079 0.0
H1561 H 0.29748 0.68127 0.53703 0.0
H1562 H 0.35056 0.67794 0.55249 0.0
H1563 H 0.31783 0.70572 0.54887 0.0
H1564 H 0.29859 0.5846 0.58424 0.0
H1565 H 0.27519 0.62974 0.57429 0.0
H1566 H 0.30261 0.59765 0.55976 0.0
H1567 H 0.27198 0.61639 0.59864 0.0
H1568 H 0.3206 0.67516 0.59531 0.0
H1569 H 0.27232 0.67667 0.59078 0.0
H1570 H 0.33308 0.6074 0.49754 0.0
H1571 H 0.34344 0.60562 0.54599 0.0
H1572 H 0.23705 0.62205 0.53221 0.0
H1573 H 0.27033 0.66986 0.53836 0.0
H1574 H 0.21694 0.63505 0.52269 0.0
H1575 H 0.24965 0.68206 0.52875 0.0
H1576 H 0.2737 0.60742 0.48866 0.0
H1577 H 0.28829 0.59518 0.53283 0.0
H1578 H 0.27348 0.57956 0.47795 0.0
H1579 H 0.28789 0.56761 0.52137 0.0
H1580 H 0.28759 0.68266 0.48525 0.0
H1581 H 0.24422 0.64376 0.47882 0.0
H1582 H 0.23711 0.57006 0.56199 0.0
H1583 H 0.2255 0.57707 0.51499 0.0
Li1584 Li 0.40039 0.51362 0.73164 0.0
Li1585 Li 0.4238 0.52962 0.74725 0.0
Li1586 Li 0.40584 0.54302 0.73653 0.0
Li1587 Li 0.42239 0.53147 0.72091 0.0
C1588 C 0.39773 0.51656 0.76339 0.0
N1589 N 0.39002 0.49647 0.78703 0.0
C1590 C 0.4038 0.50309 0.76467 0.0
C1591 C 0.38773 0.51979 0.77415 0.0
C1592 C 0.39977 0.4931 0.77671 0.0
C1593 C 0.38397 0.50949 0.786 0.0
C1594 C 0.43097 0.5036 0.72381 0.0
C1595 C 0.45583 0.50332 0.7143 0.0
N1596 N 0.44919 0.48797 0.70748 0.0
C1597 C 0.42448 0.48772 0.71692 0.0
C1598 C 0.44684 0.51135 0.7227 0.0
C1599 C 0.43385 0.48007 0.70865 0.0
C1600 C 0.3834 0.48582 0.71347 0.0
N1601 N 0.38405 0.49383 0.72745 0.0
C1602 C 0.36258 0.47261 0.73467 0.0
C1603 C 0.37348 0.4879 0.73774 0.0
C1604 C 0.36238 0.46347 0.72075 0.0
C1605 C 0.37265 0.47049 0.70987 0.0
H1606 H 0.39158 0.49116 0.70528 0.0
H1607 H 0.37362 0.49478 0.74848 0.0
C1608 C 0.4356 0.53886 0.77764 0.0
N1609 N 0.437 0.52976 0.76481 0.0
C1610 C 0.44524 0.53938 0.79078 0.0
C1611 C 0.45734 0.52091 0.77728 0.0
C1612 C 0.44749 0.52078 0.76441 0.0
C1613 C 0.45627 0.5303 0.79068 0.0
H1614 H 0.42694 0.54567 0.77763 0.0
H1615 H 0.44817 0.51345 0.75416 0.0
C1616 C 0.38471 0.52858 0.71192 0.0
N1617 N 0.35402 0.5263 0.70257 0.0
C1618 C 0.38045 0.52942 0.69652 0.0
C1619 C 0.37334 0.52653 0.72256 0.0
C1620 C 0.36488 0.52825 0.69202 0.0
C1621 C 0.3579 0.52542 0.7176 0.0
C1622 C 0.44024 0.56027 0.74639 0.0
C1623 C 0.43662 0.57181 0.75653 0.0
C1624 C 0.45558 0.55901 0.74661 0.0
C1625 C 0.44835 0.58167 0.76693 0.0
C1626 C 0.46697 0.56906 0.7572 0.0
N1627 N 0.46314 0.58007 0.76707 0.0
C1628 C 0.39216 0.56218 0.75424 0.0
C1629 C 0.3921 0.56784 0.72813 0.0
C1630 C 0.38338 0.57306 0.7574 0.0
N1631 N 0.39609 0.55964 0.73979 0.0
C1632 C 0.38326 0.57886 0.73077 0.0
C1633 C 0.37863 0.58138 0.74554 0.0
H1634 H 0.39565 0.5555 0.76324 0.0
H1635 H 0.39542 0.56546 0.71674 0.0
C1636 C 0.4298 0.5218 0.6921 0.0
N1637 N 0.43382 0.53396 0.70359 0.0
C1638 C 0.4393 0.52217 0.68 0.0
C1639 C 0.45626 0.5481 0.69135 0.0
C1640 C 0.44653 0.54712 0.70334 0.0
C1641 C 0.45281 0.53534 0.6797 0.0
H1642 H 0.41954 0.51154 0.69268 0.0
H1643 H 0.44933 0.55661 0.71264 0.0
O1644 O 0.40161 0.52671 0.75183 0.0
O1645 O 0.42189 0.51135 0.73184 0.0
O1646 O 0.39994 0.52971 0.71641 0.0
O1647 O 0.42884 0.55029 0.7363 0.0
H1648 H 0.41151 0.5003 0.75649 0.0
H1649 H 0.38284 0.53008 0.77331 0.0
H1650 H 0.40439 0.48264 0.77783 0.0
H1651 H 0.37623 0.51184 0.79439 0.0
H1652 H 0.46807 0.50929 0.71319 0.0
H1653 H 0.41239 0.48127 0.71807 0.0
H1654 H 0.45212 0.52355 0.72808 0.0
H1655 H 0.42894 0.46781 0.7032 0.0
H1656 H 0.35492 0.4677 0.74344 0.0
H1657 H 0.37266 0.46401 0.69887 0.0
H1658 H 0.44388 0.54655 0.80097 0.0
H1659 H 0.46575 0.51381 0.77673 0.0
H1660 H 0.38912 0.53097 0.68815 0.0
H1661 H 0.37638 0.52582 0.73452 0.0
H1662 H 0.36142 0.5289 0.68014 0.0
H1663 H 0.34899 0.52386 0.72572 0.0
H1664 H 0.42489 0.5731 0.75646 0.0
H1665 H 0.45866 0.55028 0.73879 0.0
H1666 H 0.44567 0.59057 0.77491 0.0
H1667 H 0.47884 0.56809 0.75758 0.0
H1668 H 0.37989 0.57449 0.7689 0.0
H1669 H 0.37993 0.58518 0.72136 0.0
H1670 H 0.43621 0.51224 0.67106 0.0
H1671 H 0.46661 0.55842 0.69143 0.0
Li1672 Li 0.63054 0.99643 0.75484 0.0
Li1673 Li 0.6524 0.01462 0.74314 0.0
Li1674 Li 0.6306 0.9961 0.7282 0.0
Li1675 Li 0.64929 0.98494 0.74232 0.0
C1676 C 0.62218 0.02296 0.73382 0.0
N1677 N 0.60577 0.03868 0.71531 0.0
C1678 C 0.63011 0.0369 0.72682 0.0
C1679 C 0.6059 0.01707 0.73148 0.0
C1680 C 0.6216 0.04467 0.7175 0.0
C1681 C 0.59782 0.02516 0.72204 0.0
C1682 C 0.66157 0.0087 0.7732 0.0
C1683 C 0.68523 0.01596 0.78991 0.0
N1684 N 0.67872 0.02508 0.79941 0.0
C1685 C 0.65507 0.01801 0.78322 0.0
C1686 C 0.67673 0.00755 0.77664 0.0
C1687 C 0.66395 0.02626 0.79636 0.0
C1688 C 0.6204 0.98382 0.78228 0.0
N1689 N 0.61827 0.99413 0.77165 0.0
C1690 C 0.59723 0.99984 0.78443 0.0
C1691 C 0.60711 0.00224 0.77255 0.0
C1692 C 0.59898 0.98906 0.79547 0.0
C1693 C 0.61075 0.98101 0.79434 0.0
H1694 H 0.62949 0.97765 0.78123 0.0
H1695 H 0.60582 0.01045 0.76397 0.0
C1696 C 0.67869 0.0413 0.73642 0.0
N1697 N 0.66688 0.036 0.74569 0.0
C1698 C 0.68914 0.05691 0.73931 0.0
C1699 C 0.67461 0.06172 0.76071 0.0
C1700 C 0.66447 0.04602 0.75741 0.0
C1701 C 0.68724 0.06729 0.75168 0.0
H1702 H 0.68002 0.0336 0.72669 0.0
H1703 H 0.65452 0.04187 0.76409 0.0
C1704 C 0.61531 0.9655 0.74723 0.0
N1705 N 0.59348 0.9435 0.7624 0.0
C1706 C 0.61925 0.95247 0.75387 0.0
C1707 C 0.60018 0.96719 0.74812 0.0
C1708 C 0.60806 0.94151 0.76153 0.0
C1709 C 0.58934 0.956 0.75591 0.0
C1710 C 0.66786 1.00129 0.72022 0.0
C1711 C 0.67021 1.00149 0.70464 0.0
C1712 C 0.68048 0.00245 0.73079 0.0
C1713 C 0.68523 0.00296 0.6999 0.0
C1714 C 0.69531 0.00387 0.7256 0.0
N1715 N 0.69736 0.0041 0.71039 0.0
C1716 C 0.62157 0.00397 0.69911 0.0
C1717 C 0.60452 0.98043 0.70838 0.0
C1718 C 0.61149 0.0025 0.68609 0.0
N1719 N 0.61776 0.99316 0.71 0.0
C1720 C 0.59412 0.97849 0.69557 0.0
C1721 C 0.5975 0.98969 0.6843 0.0
H1722 H 0.63228 0.01389 0.70071 0.0
H1723 H 0.60198 0.97182 0.71704 0.0
C1724 C 0.66335 0.96544 0.75803 0.0
N1725 N 0.66006 0.96906 0.74363 0.0
C1726 C 0.67243 0.95476 0.76049 0.0
C1727 C 0.67431 0.95148 0.73315 0.0
C1728 C 0.66504 0.96217 0.73122 0.0
C1729 C 0.67818 0.94783 0.74797 0.0
H1730 H 0.65912 0.97112 0.76762 0.0
H1731 H 0.66215 0.96531 0.7199 0.0
O1732 O 0.63033 0.01508 0.74285 0.0
O1733 O 0.65301 1.00035 0.76034 0.0
O1734 O 0.6262 0.97654 0.7399 0.0
O1735 O 0.65316 0.99949 0.72496 0.0
H1736 H 0.64271 0.0416 0.72844 0.0
H1737 H 0.59958 0.0062 0.73667 0.0
H1738 H 0.62759 0.05543 0.71197 0.0
H1739 H 0.58523 0.02065 0.72003 0.0
H1740 H 0.69698 0.0152 0.79269 0.0
H1741 H 0.64336 0.01906 0.78079 0.0
H1742 H 0.68189 1.00016 0.76922 0.0
H1743 H 0.65909 0.0336 0.80414 0.0
H1744 H 0.58824 0.00623 0.7849 0.0
H1745 H 0.61261 0.97284 0.8028 0.0
H1746 H 0.69866 0.06075 0.73199 0.0
H1747 H 0.6724 0.06951 0.77005 0.0
H1748 H 0.63081 0.95083 0.75316 0.0
H1749 H 0.59694 0.97726 0.74315 0.0
H1750 H 0.61098 0.93142 0.76679 0.0
H1751 H 0.57767 0.9573 0.75684 0.0
H1752 H 0.66052 1.0005 0.69632 0.0
H1753 H 0.67883 0.00231 0.74285 0.0
H1754 H 0.68723 0.00316 0.68788 0.0
H1755 H 0.70518 0.0048 0.73367 0.0
H1756 H 0.61447 0.01144 0.67767 0.0
H1757 H 0.58363 0.96825 0.69443 0.0
H1758 H 0.67535 0.95241 0.77209 0.0
H1759 H 0.67851 0.94627 0.72325 0.0
Li1760 Li 0.79363 0.69299 0.02724 0.0
Li1761 Li 0.80466 0.67274 0.0133 0.0
Li1762 Li 0.7925 0.69168 0.9984 0.0
Li1763 Li 0.77584 0.66843 0.01116 0.0
C1764 C 0.82295 0.71067 0.01942 0.0
N1765 N 0.8463 0.73778 0.03173 0.0
C1766 C 0.83543 0.70863 0.02869 0.0
C1767 C 0.82246 0.72646 0.01621 0.0
C1768 C 0.84708 0.72251 0.03487 0.0
C1769 C 0.83435 0.74002 0.0226 0.0
C1770 C 0.79095 0.65703 0.03879 0.0
C1771 C 0.7859 0.62828 0.04304 0.0
N1772 N 0.79308 0.63246 0.05734 0.0
C1773 C 0.79811 0.66104 0.05358 0.0
C1774 C 0.78465 0.64053 0.03351 0.0
C1775 C 0.79915 0.64844 0.06276 0.0
C1776 C 0.78117 0.70831 0.0514 0.0
N1777 N 0.79457 0.70521 0.04699 0.0
C1778 C 0.80701 0.71442 0.07213 0.0
C1779 C 0.80742 0.70826 0.05702 0.0
C1780 C 0.79319 0.71734 0.07715 0.0
C1781 C 0.78024 0.71445 0.0664 0.0
H1782 H 0.77094 0.70542 0.04343 0.0
H1783 H 0.81776 0.70511 0.05358 0.0
C1784 C 0.82544 0.6569 1e-05 0.0
N1785 N 0.821 0.66194 0.01361 0.0
C1786 C 0.83697 0.64857 -0.00042 0.0
C1787 C 0.83946 0.65104 0.02717 0.0
C1788 C 0.82792 0.65939 0.02706 0.0
C1789 C 0.84409 0.64543 0.0133 0.0
H1790 H 0.81991 0.65926 0.98946 0.0
H1791 H 0.82457 0.66392 0.03772 0.0
C1792 C 0.76873 0.70386 0.00872 0.0
N1793 N 0.75529 0.72832 0.00113 0.0
C1794 C 0.754 0.69979 0.00079 0.0
C1795 C 0.77657 0.72032 0.01295 0.0
C1796 C 0.74742 0.71235 0.99701 0.0
C1797 C 0.7696 0.73252 0.00897 0.0
C1798 C 0.78485 0.6539 0.98472 0.0
C1799 C 0.77825 0.6549 0.97015 0.0
C1800 C 0.78637 0.6388 0.98905 0.0
C1801 C 0.77299 0.64068 0.96025 0.0
C1802 C 0.78098 0.62486 0.97882 0.0
N1803 N 0.77444 0.62607 0.96476 0.0
C1804 C 0.8074 0.71051 0.97433 0.0
C1805 C 0.77984 0.70048 0.97059 0.0
C1806 C 0.8082 0.71633 0.95968 0.0
N1807 N 0.79336 0.70262 0.97946 0.0
C1808 C 0.7801 0.7061 0.95592 0.0
C1809 C 0.79443 0.71393 0.95008 0.0
H1810 H 0.81805 0.71177 0.98139 0.0
H1811 H 0.76884 0.69378 0.97464 0.0
C1812 C 0.74983 0.6496 0.02451 0.0
N1813 N 0.7557 0.65285 0.01073 0.0
C1814 C 0.73498 0.63882 0.02538 0.0
C1815 C 0.73237 0.63492 0.99781 0.0
C1816 C 0.74726 0.64587 0.99748 0.0
C1817 C 0.72601 0.63135 0.0119 0.0
H1818 H 0.75667 0.65552 0.03487 0.0
H1819 H 0.75192 0.649 0.98665 0.0
O1820 O 0.81147 0.69725 0.01324 0.0
O1821 O 0.78983 0.66922 0.02966 0.0
O1822 O 0.77538 0.69176 0.01244 0.0
O1823 O 0.79007 0.66771 0.99456 0.0
H1824 H 0.83602 0.69647 0.03117 0.0
H1825 H 0.81304 0.72821 0.00879 0.0
H1826 H 0.85675 0.72113 0.04216 0.0
H1827 H 0.83409 0.75232 0.02025 0.0
H1828 H 0.7811 0.61546 0.03909 0.0
H1829 H 0.80295 0.67374 0.05789 0.0
H1830 H 0.77871 0.63719 0.02226 0.0
H1831 H 0.80477 0.65137 0.07419 0.0
H1832 H 0.81723 0.71612 0.07998 0.0
H1833 H 0.76936 0.71664 0.06958 0.0
H1834 H 0.84009 0.64439 0.98862 0.0
H1835 H 0.84484 0.64918 0.03801 0.0
H1836 H 0.74778 0.68707 0.99751 0.0
H1837 H 0.78787 0.72361 0.0193 0.0
H1838 H 0.73606 0.70941 0.9908 0.0
H1839 H 0.77554 0.74532 0.01214 0.0
H1840 H 0.77709 0.6665 0.96655 0.0
H1841 H 0.7918 0.63786 0.00012 0.0
H1842 H 0.76775 0.64126 0.94898 0.0
H1843 H 0.78206 0.61308 0.98204 0.0
H1844 H 0.81956 0.72207 0.95572 0.0
H1845 H 0.76913 0.7041 0.94914 0.0
H1846 H 0.73058 0.63635 0.03649 0.0
H1847 H 0.72574 0.62966 0.98714 0.0
Li1848 Li 0.91437 0.52402 0.79145 0.0
Li1849 Li 0.93354 0.54141 0.81032 0.0
Li1850 Li 0.91686 0.55268 0.79441 0.0
Li1851 Li 0.93794 0.54371 0.78408 0.0
C1852 C 0.90057 0.54271 0.8177 0.0
N1853 N 0.88068 0.55665 0.83332 0.0
C1854 C 0.90544 0.55094 0.83213 0.0
C1855 C 0.88555 0.54147 0.81125 0.0
C1856 C 0.89521 0.55792 0.83984 0.0
C1857 C 0.87569 0.54865 0.81931 0.0
C1858 C 0.94432 0.51581 0.80384 0.0
C1859 C 0.96804 0.51389 0.81721 0.0
N1860 N 0.95998 0.49942 0.8224 0.0
C1861 C 0.93628 0.50089 0.80923 0.0
C1862 C 0.96035 0.52232 0.80776 0.0
C1863 C 0.94441 0.49279 0.81861 0.0
C1864 C 0.9044 0.49206 0.77691 0.0
N1865 N 0.90049 0.50283 0.78697 0.0
C1866 C 0.87672 0.48292 0.79128 0.0
C1867 C 0.887 0.49862 0.79414 0.0
C1868 C 0.88045 0.47149 0.78099 0.0
C1869 C 0.89444 0.47624 0.77366 0.0
H1870 H 0.91535 0.49573 0.77156 0.0
H1871 H 0.88429 0.50738 0.8022 0.0
C1872 C 0.95648 0.55482 0.83399 0.0
N1873 N 0.94356 0.54221 0.82971 0.0
C1874 C 0.96568 0.55432 0.84713 0.0
C1875 C 0.9475 0.52833 0.85167 0.0
C1876 C 0.93859 0.52942 0.83847 0.0
C1877 C 0.96148 0.54068 0.85585 0.0
H1878 H 0.95992 0.565 0.82693 0.0
H1879 H 0.92814 0.51967 0.83477 0.0
C1880 C 0.90777 0.52937 0.76333 0.0
N1881 N 0.89052 0.50782 0.73983 0.0
C1882 C 0.91535 0.52301 0.75196 0.0
C1883 C 0.89141 0.52485 0.7627 0.0
C1884 C 0.90642 0.51212 0.74018 0.0
C1885 C 0.8829 0.5139 0.75075 0.0
C1886 C 0.95108 0.5743 0.79554 0.0
C1887 C 0.94759 0.58776 0.7893 0.0
C1888 C 0.9666 0.57357 0.79685 0.0
C1889 C 0.95969 0.60022 0.78433 0.0
C1890 C 0.97835 0.58626 0.79173 0.0
N1891 N 0.97468 0.59921 0.78562 0.0
C1892 C 0.90677 0.5801 0.80464 0.0
C1893 C 0.8983 0.56876 0.77926 0.0
C1894 C 0.89853 0.59179 0.80309 0.0
N1895 N 0.90621 0.56874 0.79288 0.0
C1896 C 0.89005 0.58025 0.77716 0.0
C1897 C 0.89003 0.59186 0.7892 0.0
H1898 H 0.91354 0.58001 0.8152 0.0
H1899 H 0.89838 0.55982 0.77001 0.0
C1900 C 0.96237 0.53821 0.7674 0.0
N1901 N 0.95263 0.54788 0.76933 0.0
C1902 C 0.97217 0.54038 0.75541 0.0
C1903 C 0.96214 0.56286 0.74814 0.0
C1904 C 0.95233 0.56003 0.76006 0.0
C1905 C 0.97192 0.55266 0.74542 0.0
H1906 H 0.96207 0.52841 0.77477 0.0
H1907 H 0.94416 0.56725 0.76171 0.0
O1908 O 0.91045 0.53592 0.80991 0.0
O1909 O 0.93651 0.52407 0.79489 0.0
O1910 O 0.91629 0.53984 0.77511 0.0
O1911 O 0.93939 0.56191 0.80037 0.0
H1912 H 0.91703 0.55204 0.83728 0.0
H1913 H 0.88165 0.53526 0.80003 0.0
H1914 H 0.89884 0.56438 0.851 0.0
H1915 H 0.86409 0.54791 0.81441 0.0
H1916 H 0.98041 0.51886 0.82046 0.0
H1917 H 0.92386 0.49571 0.80637 0.0
H1918 H 0.96673 0.53388 0.80372 0.0
H1919 H 0.93833 0.48128 0.82294 0.0
H1920 H 0.866 0.47975 0.79709 0.0
H1921 H 0.89785 0.4677 0.76583 0.0
H1922 H 0.97617 0.56427 0.85021 0.0
H1923 H 0.94389 0.51758 0.85805 0.0
H1924 H 0.92799 0.5263 0.75227 0.0
H1925 H 0.88536 0.52958 0.77148 0.0
H1926 H 0.91213 0.50704 0.73133 0.0
H1927 H 0.87024 0.51021 0.75019 0.0
H1928 H 0.93567 0.58855 0.78817 0.0
H1929 H 0.96951 0.5632 0.80156 0.0
H1930 H 0.95714 0.61067 0.7794 0.0
H1931 H 0.99038 0.58579 0.79257 0.0
H1932 H 0.89884 0.60068 0.81256 0.0
H1933 H 0.88348 0.57983 0.76633 0.0
H1934 H 0.97922 0.53197 0.75355 0.0
H1935 H 0.96167 0.57258 0.74086 0.0
Li1936 Li 0.79209 0.40131 0.5125 0.0
Li1937 Li 0.77421 0.41534 0.50322 0.0
Li1938 Li 0.78689 0.39923 0.48547 0.0
Li1939 Li 0.80224 0.42547 0.50037 0.0
C1940 C 0.76255 0.37968 0.5087 0.0
N1941 N 0.74454 0.35579 0.52522 0.0
C1942 C 0.75851 0.38387 0.52323 0.0
C1943 C 0.7574 0.36338 0.50253 0.0
C1944 C 0.7494 0.3716 0.53141 0.0
C1945 C 0.74831 0.35147 0.51107 0.0
C1946 C 0.79045 0.43831 0.52598 0.0
C1947 C 0.78794 0.46566 0.52347 0.0
N1948 N 0.78842 0.4681 0.53894 0.0
C1949 C 0.7909 0.44108 0.54185 0.0
C1950 C 0.78893 0.45068 0.51671 0.0
C1951 C 0.78986 0.45622 0.54819 0.0
C1952 C 0.80532 0.39944 0.54131 0.0
N1953 N 0.79694 0.38985 0.52912 0.0
C1954 C 0.79662 0.36551 0.5415 0.0
C1955 C 0.79276 0.37318 0.52886 0.0
C1956 C 0.8051 0.37511 0.55439 0.0
C1957 C 0.80961 0.39231 0.55409 0.0
H1958 H 0.80881 0.41266 0.54103 0.0
H1959 H 0.78649 0.36583 0.51885 0.0
C1960 C 0.74848 0.42481 0.49251 0.0
N1961 N 0.75608 0.42207 0.50545 0.0
C1962 C 0.73664 0.43258 0.49345 0.0
C1963 C 0.74011 0.43363 0.52103 0.0
C1964 C 0.75189 0.42584 0.51955 0.0
C1965 C 0.73265 0.43749 0.50786 0.0
H1966 H 0.75208 0.42156 0.48147 0.0
H1967 H 0.75817 0.42352 0.52964 0.0
C1968 C 0.81807 0.39747 0.5032 0.0
N1969 N 0.83858 0.3828 0.51737 0.0
C1970 C 0.83058 0.40693 0.51301 0.0
C1971 C 0.81603 0.38058 0.50051 0.0
C1972 C 0.84081 0.39927 0.52009 0.0
C1973 C 0.82652 0.37339 0.50781 0.0
C1974 C 0.78717 0.4315 0.47227 0.0
C1975 C 0.79505 0.42718 0.46005 0.0
C1976 C 0.78152 0.44532 0.47177 0.0
C1977 C 0.79741 0.43693 0.44767 0.0
C1978 C 0.7841 0.45475 0.45918 0.0
N1979 N 0.79194 0.4504 0.4475 0.0
C1980 C 0.76961 0.38308 0.45891 0.0
C1981 C 0.79599 0.38199 0.461 0.0
C1982 C 0.76719 0.37466 0.44446 0.0
N1983 N 0.78384 0.38659 0.46675 0.0
C1984 C 0.79409 0.37354 0.44662 0.0
C1985 C 0.77958 0.36991 0.4381 0.0
H1986 H 0.76026 0.38711 0.46379 0.0
H1987 H 0.80722 0.38518 0.46746 0.0
C1988 C 0.82582 0.45366 0.51299 0.0
N1989 N 0.81968 0.44425 0.49987 0.0
C1990 C 0.83914 0.46686 0.51292 0.0
C1991 C 0.84003 0.46011 0.48595 0.0
C1992 C 0.82657 0.44715 0.48652 0.0
C1993 C 0.84657 0.47006 0.49932 0.0
H1994 H 0.82076 0.45065 0.52368 0.0
H1995 H 0.82207 0.43896 0.47646 0.0
O1996 O 0.77163 0.39142 0.50058 0.0
O1997 O 0.79115 0.42341 0.51964 0.0
O1998 O 0.80771 0.40467 0.49649 0.0
O1999 O 0.78447 0.42189 0.48437 0.0
H2000 H 0.76259 0.3964 0.52822 0.0
H2001 H 0.76049 0.35998 0.49129 0.0
H2002 H 0.74626 0.37463 0.54271 0.0
H2003 H 0.74427 0.33879 0.50647 0.0
H2004 H 0.7868 0.47534 0.51642 0.0
H2005 H 0.79194 0.43158 0.54919 0.0
H2006 H 0.78866 0.44877 0.50446 0.0
H2007 H 0.79018 0.45853 0.56045 0.0
H2008 H 0.79277 0.35223 0.54124 0.0
H2009 H 0.81648 0.4002 0.56359 0.0
H2010 H 0.73096 0.43512 0.48304 0.0
H2011 H 0.73744 0.43734 0.53235 0.0
H2012 H 0.83225 0.42001 0.51525 0.0
H2013 H 0.80629 0.37307 0.49308 0.0
H2014 H 0.8505 0.40641 0.52778 0.0
H2015 H 0.82502 0.36031 0.50593 0.0
H2016 H 0.7996 0.41662 0.46023 0.0
H2017 H 0.77512 0.44873 0.48093 0.0
H2018 H 0.80361 0.43379 0.43822 0.0
H2019 H 0.77983 0.4655 0.45868 0.0
H2020 H 0.75589 0.37228 0.4382 0.0
H2021 H 0.80388 0.36992 0.44222 0.0
H2022 H 0.84384 0.47415 0.52352 0.0
H2023 H 0.84567 0.46175 0.47532 0.0
Li2024 Li 0.64251 0.51 0.31327 0.0
Li2025 Li 0.66345 0.52902 0.30283 0.0
Li2026 Li 0.64166 0.51228 0.28585 0.0
Li2027 Li 0.66151 0.50044 0.29867 0.0
C2028 C 0.62977 0.53642 0.3038 0.0
N2029 N 0.60594 0.55111 0.30757 0.0
C2030 C 0.63305 0.55233 0.31086 0.0
C2031 C 0.61441 0.52806 0.29852 0.0
C2032 C 0.62083 0.55952 0.31271 0.0
C2033 C 0.60252 0.53568 0.30056 0.0
C2034 C 0.66918 0.52185 0.33286 0.0
C2035 C 0.68228 0.52504 0.35807 0.0
N2036 N 0.67657 0.53802 0.36168 0.0
C2037 C 0.66348 0.53523 0.33683 0.0
C2038 C 0.67867 0.51671 0.34356 0.0
C2039 C 0.66733 0.54323 0.35145 0.0
C2040 C 0.62682 0.4896 0.33431 0.0
N2041 N 0.62981 0.50509 0.32971 0.0
C2042 C 0.61407 0.5125 0.34842 0.0
C2043 C 0.62381 0.51655 0.33658 0.0
C2044 C 0.61066 0.49655 0.35337 0.0
C2045 C 0.61717 0.485 0.34617 0.0
H2046 H 0.63194 0.48081 0.3287 0.0
H2047 H 0.62661 0.52887 0.33297 0.0
C2048 C 0.67364 0.56191 0.29766 0.0
N2049 N 0.67778 0.55005 0.30518 0.0
C2050 C 0.68405 0.57747 0.29774 0.0
C2051 C 0.70267 0.56844 0.31364 0.0
C2052 C 0.69191 0.55295 0.31314 0.0
C2053 C 0.69882 0.58081 0.30568 0.0
H2054 H 0.66237 0.5591 0.29129 0.0
H2055 H 0.69495 0.54314 0.31877 0.0
C2056 C 0.6256 0.479 0.29417 0.0
N2057 N 0.59946 0.45245 0.28806 0.0
C2058 C 0.62702 0.46421 0.28736 0.0
C2059 C 0.61091 0.48025 0.298 0.0
C2060 C 0.61366 0.45094 0.28432 0.0
C2061 C 0.59783 0.4667 0.29479 0.0
C2062 C 0.67726 0.52627 0.27752 0.0
C2063 C 0.67583 0.53752 0.26695 0.0
C2064 C 0.6921 0.52557 0.28288 0.0
C2065 C 0.68935 0.54804 0.26201 0.0
C2066 C 0.70534 0.53629 0.27765 0.0
N2067 N 0.7037 0.54722 0.26743 0.0
C2068 C 0.62801 0.5264 0.26329 0.0
C2069 C 0.61992 0.49723 0.26079 0.0
C2070 C 0.61792 0.52702 0.25082 0.0
N2071 N 0.62866 0.51166 0.26809 0.0
C2072 C 0.60956 0.49728 0.24834 0.0
C2073 C 0.60841 0.51232 0.24331 0.0
H2074 H 0.63515 0.53766 0.26935 0.0
H2075 H 0.62088 0.48569 0.26464 0.0
C2076 C 0.67964 0.47996 0.30795 0.0
N2077 N 0.67258 0.48501 0.29585 0.0
C2078 C 0.68919 0.46962 0.3055 0.0
C2079 C 0.68362 0.46974 0.27824 0.0
C2080 C 0.67421 0.48005 0.28122 0.0
C2081 C 0.69142 0.4646 0.29047 0.0
H2082 H 0.67814 0.48427 0.31943 0.0
H2083 H 0.66842 0.48441 0.27189 0.0
O2084 O 0.64166 0.52928 0.30188 0.0
O2085 O 0.66554 0.51373 0.31863 0.0
O2086 O 0.63859 0.49209 0.29715 0.0
O2087 O 0.66419 0.51628 0.28291 0.0
H2088 H 0.64489 0.55903 0.31495 0.0
H2089 H 0.61169 0.5159 0.29276 0.0
H2090 H 0.62319 0.57179 0.31822 0.0
H2091 H 0.59057 0.52934 0.29652 0.0
H2092 H 0.68961 0.52119 0.36645 0.0
H2093 H 0.6562 0.53944 0.32873 0.0
H2094 H 0.68321 0.5064 0.34068 0.0
H2095 H 0.66298 0.5536 0.35466 0.0
H2096 H 0.6092 0.52174 0.35359 0.0
H2097 H 0.61503 0.47267 0.34982 0.0
H2098 H 0.68063 0.58678 0.2916 0.0
H2099 H 0.71401 0.57058 0.31978 0.0
H2100 H 0.63833 0.46304 0.28438 0.0
H2101 H 0.60962 0.49147 0.30354 0.0
H2102 H 0.61457 0.43943 0.27899 0.0
H2103 H 0.5864 0.4675 0.29769 0.0
H2104 H 0.6644 0.53824 0.26276 0.0
H2105 H 0.69339 0.517 0.29117 0.0
H2106 H 0.68844 0.5569 0.25391 0.0
H2107 H 0.71691 0.53597 0.28178 0.0
H2108 H 0.61728 0.53886 0.24731 0.0
H2109 H 0.60259 0.4857 0.24266 0.0
H2110 H 0.69511 0.466 0.31522 0.0
H2111 H 0.68487 0.46592 0.26651 0.0
Tb2112 Tb 0.05118 0.03199 0.02341 0.0
Tb2113 Tb 0.01489 0.01106 0.01479 0.0
C2114 C 0.02583 0.03252 0.04582 0.0
C2115 C 0.09345 0.04105 0.02804 0.0
C2116 C 0.11957 0.02895 0.02565 0.0
C2117 C 0.12116 0.04442 0.0333 0.0
C2118 C 0.10813 0.05048 0.03444 0.0
C2119 C 0.09183 0.02557 0.02053 0.0
C2120 C 0.10479 0.01958 0.0193 0.0
C2121 C 0.07964 0.04699 0.02933 0.0
O2122 O 0.04753 0.00894 0.03445 0.0
O2123 O 0.02731 0.99274 0.01845 0.0
O2124 O 0.02675 0.01305 0.99389 0.0
O2125 O 0.05129 0.01489 0.00415 0.0
O2126 O 0.9942 0.99481 0.02105 0.0
O2127 O 0.99578 0.00355 0.9985 0.0
O2128 O 0.01505 0.03671 0.01405 0.0
O2129 O 0.04073 0.04674 0.00897 0.0
O2130 O 0.03795 0.04159 0.03964 0.0
O2131 O 0.01735 0.01844 0.03907 0.0
C2132 C 0.0388 0.99434 0.02894 0.0
O2133 O 0.07192 0.04725 0.01636 0.0
O2134 O 0.07038 0.04038 0.0396 0.0
C2135 C 0.04086 0.01156 0.99249 0.0
C2136 C 0.9728 1.00213 0.01008 0.0
C2137 C 0.94831 0.01694 0.00971 0.0
C2138 C 0.94646 1.00177 0.00137 0.0
C2139 C 0.95873 0.99444 0.00149 0.0
C2140 C 0.97442 0.01691 0.01891 0.0
C2141 C 0.96224 0.02424 0.01875 0.0
C2142 C 0.9865 0.9961 0.00837 0.0
C2143 C 0.0264 0.04816 0.00902 0.0
H2144 H 0.13246 0.05182 0.0383 0.0
H2145 H 0.10947 0.06243 0.04034 0.0
H2146 H 0.08051 0.01804 0.01571 0.0
H2147 H 0.10318 0.00746 0.01364 0.0
H2148 H 0.93584 0.99598 0.99425 0.0
H2149 H 0.95746 0.98315 0.99446 0.0
H2150 H 0.98531 0.02307 0.0255 0.0
H2151 H 0.96385 0.03582 0.02544 0.0
Tb2152 Tb 0.27378 0.77171 0.28437 0.0
Tb2153 Tb 0.29248 0.76773 0.2539 0.0
C2154 C 0.25911 0.77366 0.2518 0.0
C2155 C 0.25518 0.7634 0.32052 0.0
C2156 C 0.24824 0.74412 0.34548 0.0
C2157 C 0.24082 0.7565 0.34294 0.0
C2158 C 0.2443 0.76609 0.33055 0.0
C2159 C 0.26233 0.75082 0.32273 0.0
C2160 C 0.25894 0.7413 0.33515 0.0
C2161 C 0.25909 0.77375 0.3078 0.0
O2162 O 0.265 0.74637 0.27501 0.0
O2163 O 0.28645 0.74382 0.26294 0.0
O2164 O 0.30942 0.77209 0.27353 0.0
O2165 O 0.29298 0.76214 0.29204 0.0
O2166 O 0.29338 0.75507 0.23285 0.0
O2167 O 0.31261 0.7756 0.24196 0.0
O2168 O 0.29224 0.79324 0.25615 0.0
O2169 O 0.29022 0.79539 0.28201 0.0
O2170 O 0.26169 0.78028 0.26591 0.0
O2171 O 0.26829 0.76543 0.24599 0.0
C2172 C 0.27325 0.73727 0.26896 0.0
O2173 O 0.27394 0.78094 0.30705 0.0
O2174 O 0.25236 0.76718 0.29452 0.0
C2175 C 0.30705 0.76636 0.287 0.0
C2176 C 0.30675 0.77276 0.21559 0.0
C2177 C 0.30752 0.78769 0.18789 0.0
C2178 C 0.31648 0.77666 0.1905 0.0
C2179 C 0.31608 0.76924 0.20429 0.0
C2180 C 0.29774 0.7837 0.21305 0.0
C2181 C 0.29814 0.79112 0.1993 0.0
C2182 C 0.30662 0.76533 0.23016 0.0
C2183 C 0.29398 0.80212 0.2692 0.0
H2184 H 0.23237 0.75883 0.35055 0.0
H2185 H 0.2386 0.77569 0.32887 0.0
H2186 H 0.27071 0.74855 0.315 0.0
H2187 H 0.26506 0.73206 0.33688 0.0
H2188 H 0.32368 0.77366 0.18185 0.0
H2189 H 0.32308 0.7608 0.20614 0.0
H2190 H 0.29052 0.78658 0.22175 0.0
H2191 H 0.2913 0.79975 0.19773 0.0
Tb2192 Tb 0.51493 0.01817 0.51736 0.0
Tb2193 Tb 0.55292 0.02244 0.51406 0.0
C2194 C 0.53523 0.00688 0.54213 0.0
C2195 C 0.47642 0.02812 0.51864 0.0
C2196 C 0.45627 0.04878 0.51798 0.0
C2197 C 0.4562 0.0384 0.52987 0.0
C2198 C 0.46614 0.02817 0.53016 0.0
C2199 C 0.47674 0.03869 0.50686 0.0
C2200 C 0.46672 0.04886 0.5065 0.0
C2201 C 0.48633 0.01667 0.51901 0.0
O2202 O 0.52791 0.04021 0.5314 0.0
O2203 O 0.55093 0.04716 0.51947 0.0
O2204 O 0.54226 0.02564 0.49211 0.0
O2205 O 0.52271 0.03576 0.50069 0.0
O2206 O 0.57637 0.03013 0.52306 0.0
O2207 O 0.57031 0.01912 0.49998 0.0
O2208 O 0.54164 0.99631 0.51139 0.0
O2209 O 0.51674 0.99663 0.50328 0.0
O2210 O 0.5215 0.00365 0.53454 0.0
O2211 O 0.54807 0.01631 0.53721 0.0
C2212 C 0.54087 0.05107 0.52838 0.0
O2213 O 0.49247 0.01364 0.50638 0.0
O2214 O 0.49624 0.01859 0.5309 0.0
C2215 C 0.5322 0.03422 0.49021 0.0
C2216 C 0.59209 0.01394 0.51294 0.0
C2217 C 0.61265 0.99393 0.51583 0.0
C2218 C 0.61327 0.00395 0.50357 0.0
C2219 C 0.60312 0.01384 0.50217 0.0
C2220 C 0.59134 0.00393 0.5252 0.0
C2221 C 0.60159 0.99407 0.52667 0.0
C2222 C 0.58142 0.02436 0.51085 0.0
C2223 C 0.52778 0.98903 0.50458 0.0
H2224 H 0.4482 0.03789 0.53879 0.0
H2225 H 0.46566 0.02012 0.53934 0.0
H2226 H 0.48465 0.03903 0.49786 0.0
H2227 H 0.4672 0.05686 0.49729 0.0
H2228 H 0.62176 0.00432 0.49514 0.0
H2229 H 0.60386 0.02144 0.49261 0.0
H2230 H 0.5828 0.00366 0.53357 0.0
H2231 H 0.6007 0.98636 0.53614 0.0
Tb2232 Tb 0.30281 0.27016 0.76995 0.0
Tb2233 Tb 0.26673 0.27331 0.76472 0.0
C2234 C 0.27399 0.24211 0.77738 0.0
C2235 C 0.34375 0.26927 0.7636 0.0
C2236 C 0.36944 0.27128 0.74563 0.0
C2237 C 0.37001 0.26687 0.76079 0.0
C2238 C 0.35729 0.26591 0.76967 0.0
C2239 C 0.34298 0.27356 0.74847 0.0
C2240 C 0.35574 0.27456 0.73955 0.0
C2241 C 0.33057 0.26814 0.77322 0.0
O2242 O 0.29337 0.2573 0.74767 0.0
O2243 O 0.27407 0.26975 0.74177 0.0
O2244 O 0.28292 0.29749 0.76378 0.0
O2245 O 0.3039 0.28992 0.75531 0.0
O2246 O 0.2431 0.26356 0.75662 0.0
O2247 O 0.25161 0.28828 0.7672 0.0
O2248 O 0.2715 0.27474 0.78935 0.0
O2249 O 0.29838 0.2836 0.79062 0.0
O2250 O 0.28834 0.25067 0.78178 0.0
O2251 O 0.26483 0.24774 0.76826 0.0
C2252 C 0.28359 0.26106 0.73764 0.0
O2253 O 0.32658 0.28167 0.77603 0.0
O2254 O 0.31839 0.25552 0.76989 0.0
C2255 C 0.29591 0.30069 0.7568 0.0
C2256 C 0.22554 0.27419 0.77105 0.0
C2257 C 0.19889 0.27062 0.78806 0.0
C2258 C 0.20671 0.28597 0.78308 0.0
C2259 C 0.2198 0.2877 0.77463 0.0
C2260 C 0.21794 0.25883 0.77615 0.0
C2261 C 0.20472 0.25707 0.78455 0.0
C2262 C 0.23933 0.27657 0.76191 0.0
C2263 C 0.28501 0.28152 0.7971 0.0
H2264 H 0.38022 0.26396 0.76576 0.0
H2265 H 0.35803 0.26248 0.7813 0.0
H2266 H 0.33256 0.27618 0.74359 0.0
H2267 H 0.35495 0.27813 0.72798 0.0
H2268 H 0.20279 0.29676 0.78582 0.0
H2269 H 0.2255 0.29967 0.77087 0.0
H2270 H 0.22212 0.24818 0.7736 0.0
H2271 H 0.19892 0.24502 0.78805 0.0
Tb2272 Tb 0.0325 0.02976 0.53169 0.0
Tb2273 Tb 0.03477 0.00953 0.50008 0.0
C2274 C 1.0031 0.00734 0.51379 0.0
C2275 C 0.03619 0.0426 0.57245 0.0
C2276 C 0.04555 0.03663 0.60201 0.0
C2277 C 0.03335 0.044 0.5997 0.0
C2278 C 0.02871 0.047 0.58498 0.0
C2279 C 0.0484 0.03529 0.57472 0.0
C2280 C 0.0531 0.03241 0.58941 0.0
C2281 C 0.03045 0.0444 0.55695 0.0
O2282 O 0.0316 0.00481 0.53881 0.0
O2283 O 0.03944 0.99315 0.51743 0.0
O2284 O 0.05703 0.02799 0.50496 0.0
O2285 O 0.05692 0.03001 0.53088 0.0
O2286 O 0.0233 0.99666 0.47984 0.0
O2287 O 0.0479 0.99931 0.48511 0.0
O2288 O 0.02934 0.03215 0.49253 0.0
O2289 O 0.03515 0.04864 0.51497 0.0
O2290 O 0.00933 0.02231 0.51989 0.0
O2291 O 0.01202 0.99877 0.50831 0.0
C2292 C 0.03581 0.99254 0.53185 0.0
O2293 O 0.04117 0.05013 0.54761 0.0
O2294 O 0.01968 0.03164 0.55071 0.0
C2295 C 0.06449 0.03224 0.51847 0.0
C2296 C 0.03921 0.99979 0.45941 0.0
C2297 C 0.03969 0.00773 0.42881 0.0
C2298 C 0.04204 0.9927 0.43282 0.0
C2299 C 0.04168 0.98872 0.44801 0.0
C2300 C 0.03808 0.01528 0.45567 0.0
C2301 C 0.03822 0.01919 0.44051 0.0
C2302 C 0.03618 0.99458 0.47478 0.0
C2303 C 0.03205 0.04686 0.49998 0.0
H2304 H 0.02741 0.04743 0.60927 0.0
H2305 H 0.01915 0.05248 0.58334 0.0
H2306 H 0.0541 0.03154 0.56512 0.0
H2307 H 0.06238 0.02648 0.59087 0.0
H2308 H 0.04354 0.98374 0.42415 0.0
H2309 H 0.04268 0.97675 0.45075 0.0
H2310 H 0.03625 0.02401 0.46437 0.0
H2311 H 0.03618 0.03078 0.43792 0.0
Tb2312 Tb 0.29192 0.78749 0.76117 0.0
Tb2313 Tb 0.27469 0.75318 0.77413 0.0
C2314 C 0.28965 0.75475 0.74264 0.0
C2315 C 0.30012 0.83055 0.75307 0.0
C2316 C 0.28804 0.85786 0.75517 0.0
C2317 C 0.29165 0.85192 0.74095 0.0
C2318 C 0.2977 0.83836 0.73992 0.0
C2319 C 0.29694 0.83682 0.76733 0.0
C2320 C 0.291 0.85035 0.76836 0.0
C2321 C 0.30455 0.81509 0.75174 0.0
O2322 O 0.26743 0.78073 0.75045 0.0
O2323 O 0.255 0.76329 0.76757 0.0
O2324 O 0.27774 0.77144 0.79313 0.0
O2325 O 0.27958 0.79419 0.77995 0.0
O2326 O 0.25814 0.73006 0.77065 0.0
O2327 O 0.27183 0.73765 0.79208 0.0
O2328 O 0.30005 0.75445 0.77692 0.0
O2329 O 0.31005 0.78226 0.77686 0.0
O2330 O 0.29887 0.76928 0.74717 0.0
O2331 O 0.27759 0.74788 0.75016 0.0
C2332 C 0.25428 0.7725 0.75609 0.0
O2333 O 0.309 0.81013 0.76451 0.0
O2334 O 0.29493 0.80308 0.74315 0.0
C2335 C 0.27735 0.7867 0.79255 0.0
C2336 C 0.26874 0.71101 0.78194 0.0
C2337 C 0.28269 0.68519 0.78053 0.0
C2338 C 0.26932 0.68389 0.78869 0.0
C2339 C 0.26242 0.69688 0.78949 0.0
C2340 C 0.28176 0.712 0.77339 0.0
C2341 C 0.2887 0.69922 0.77273 0.0
C2342 C 0.26273 0.72534 0.78348 0.0
C2343 C 0.31195 0.76781 0.77988 0.0
H2344 H 0.28948 0.85754 0.73062 0.0
H2345 H 0.3 0.83365 0.72882 0.0
H2346 H 0.29851 0.83095 0.77767 0.0
H2347 H 0.28803 0.85442 0.77943 0.0
H2348 H 0.26451 0.67309 0.79471 0.0
H2349 H 0.25239 0.69602 0.79617 0.0
H2350 H 0.28672 0.7228 0.76741 0.0
H2351 H 0.29882 0.70033 0.76613 0.0
Tb2352 Tb 0.52738 0.01052 0.03277 0.0
Tb2353 Tb 0.53634 0.02973 0.00269 0.0
C2354 C 0.5615 0.02447 0.02565 0.0
C2355 C 0.52557 0.0032 0.07318 0.0
C2356 C 0.53394 0.01564 0.10376 0.0
C2357 C 0.53398 0.99948 0.09906 0.0
C2358 C 0.52978 0.99331 0.08388 0.0
C2359 C 0.52596 0.01947 0.07771 0.0
C2360 C 0.53 0.02559 0.09287 0.0
C2361 C 0.52161 0.99682 0.05717 0.0
O2362 O 0.526 0.03579 0.03929 0.0
O2363 O 0.53984 0.05005 0.02071 0.0
O2364 O 0.51292 0.02963 0.0078 0.0
O2365 O 0.50651 0.00472 0.01735 0.0
O2366 O 0.55228 0.04541 0.98969 0.0
O2367 O 0.52792 0.0353 0.98164 0.0
O2368 O 0.53074 0.00342 0.99414 0.0
O2369 O 0.53239 0.99173 0.01682 0.0
O2370 O 0.55163 0.02461 0.03607 0.0
O2371 O 0.55687 0.0231 0.01115 0.0
C2372 C 0.53301 0.04992 0.03374 0.0
O2373 O 0.5117 0.00278 0.04953 0.0
O2374 O 0.53354 0.99623 0.04942 0.0
C2375 C 0.50234 0.0164 0.01073 0.0
C2376 C 0.54603 0.03714 0.96351 0.0
C2377 C 0.54864 0.02176 0.935 0.0
C2378 C 0.54281 0.0356 0.93593 0.0
C2379 C 0.54153 0.04323 0.9501 0.0
C2380 C 0.55222 0.0236 0.96269 0.0
C2381 C 0.55361 0.01602 0.94852 0.0
C2382 C 0.54187 0.04318 0.97814 0.0
C2383 C 0.53171 0.99065 0.00172 0.0
H2384 H 0.53715 0.99158 0.10714 0.0
H2385 H 0.52983 0.98083 0.08049 0.0
H2386 H 0.523 0.02742 0.06957 0.0
H2387 H 0.52958 0.03798 0.09611 0.0
H2388 H 0.53869 0.04017 0.92574 0.0
H2389 H 0.53641 0.05345 0.95061 0.0
H2390 H 0.55547 0.01856 0.97299 0.0
H2391 H 0.55836 0.00554 0.94817 0.0
Tb2392 Tb 0.2757 0.25128 0.26064 0.0
Tb2393 Tb 0.29172 0.28835 0.27497 0.0
C2394 C 0.27622 0.28182 0.24101 0.0
C2395 C 0.26908 0.20699 0.25246 0.0
C2396 C 0.28176 0.18041 0.25548 0.0
C2397 C 0.27268 0.18125 0.24213 0.0
C2398 C 0.26635 0.19448 0.24065 0.0
C2399 C 0.2778 0.20596 0.26595 0.0
C2400 C 0.28403 0.19273 0.26747 0.0
C2401 C 0.26417 0.2218 0.25014 0.0
O2402 O 0.30128 0.25446 0.25851 0.0
O2403 O 0.31034 0.28251 0.26189 0.0
O2404 O 0.29931 0.27319 0.29124 0.0
O2405 O 0.28039 0.24906 0.28488 0.0
O2406 O 0.30805 0.31127 0.27394 0.0
O2407 O 0.29409 0.30628 0.29323 0.0
O2408 O 0.26745 0.28244 0.28272 0.0
O2409 O 0.25511 0.2597 0.26672 0.0
O2410 O 0.2746 0.26602 0.24151 0.0
O2411 O 0.28053 0.29215 0.25326 0.0
C2412 C 0.31255 0.26823 0.25739 0.0
O2413 O 0.25944 0.22836 0.26206 0.0
O2414 O 0.2738 0.23281 0.24303 0.0
C2415 C 0.29117 0.25862 0.29465 0.0
C2416 C 0.29892 0.33262 0.28463 0.0
C2417 C 0.28678 0.35968 0.28237 0.0
C2418 C 0.29346 0.35684 0.29642 0.0
C2419 C 0.29954 0.34338 0.29753 0.0
C2420 C 0.29262 0.3357 0.27051 0.0
C2421 C 0.28667 0.34916 0.26938 0.0
C2422 C 0.3036 0.3175 0.28621 0.0
C2423 C 0.25444 0.27116 0.27738 0.0
H2424 H 0.27077 0.17188 0.23275 0.0
H2425 H 0.25976 0.19522 0.23012 0.0
H2426 H 0.28025 0.21566 0.2751 0.0
H2427 H 0.29124 0.19256 0.27775 0.0
H2428 H 0.29366 0.36479 0.30659 0.0
H2429 H 0.30426 0.34108 0.30852 0.0
H2430 H 0.29182 0.32743 0.26043 0.0
H2431 H 0.28129 0.35086 0.25847 0.0
Tb2432 Tb 0.53529 0.53254 0.03555 0.0
Tb2433 Tb 0.53799 0.51283 0.00383 0.0
C2434 C 0.50592 0.50955 0.01717 0.0
C2435 C 0.5301 0.54066 0.07601 0.0
C2436 C 0.52929 0.52915 0.10527 0.0
C2437 C 0.53148 0.54597 0.10349 0.0
C2438 C 0.53198 0.5517 0.08891 0.0
C2439 C 0.52684 0.52374 0.07771 0.0
C2440 C 0.52651 0.51802 0.09225 0.0
C2441 C 0.53359 0.54686 0.06106 0.0
O2442 O 0.54061 0.50978 0.04286 0.0
O2443 O 0.53542 0.49361 0.02021 0.0
O2444 O 0.56109 0.52042 0.01583 0.0
O2445 O 0.55801 0.54374 0.02747 0.0
O2446 O 0.52891 0.49347 0.98692 0.0
O2447 O 0.55147 0.51078 0.98539 0.0
O2448 O 0.53916 0.538 0.99719 0.0
O2449 O 0.53006 0.54876 0.01825 0.0
O2450 O 0.51338 0.51367 0.03066 0.0
O2451 O 0.51345 0.51223 0.00476 0.0
C2452 C 0.53815 0.49518 0.03525 0.0
O2453 O 0.54655 0.54484 0.05613 0.0
O2454 O 0.5221 0.54271 0.05045 0.0
C2455 C 0.56712 0.53541 0.02197 0.0
C2456 C 0.53573 0.5021 0.96283 0.0
C2457 C 0.52823 0.50976 0.93328 0.0
C2458 C 0.53616 0.49772 0.9354 0.0
C2459 C 0.53994 0.49396 0.95013 0.0
C2460 C 0.52768 0.51399 0.96076 0.0
C2461 C 0.52396 0.51779 0.9461 0.0
C2462 C 0.54036 0.49892 0.97828 0.0
C2463 C 0.53424 0.54983 0.00402 0.0
H2464 H 0.53383 0.55481 0.11335 0.0
H2465 H 0.53461 0.5648 0.08775 0.0
H2466 H 0.52534 0.51505 0.06782 0.0
H2467 H 0.52472 0.50499 0.09335 0.0
H2468 H 0.53966 0.49143 0.92571 0.0
H2469 H 0.54627 0.48484 0.9516 0.0
H2470 H 0.52436 0.52039 0.97049 0.0
H2471 H 0.51762 0.52691 0.9448 0.0
Tb2472 Tb 0.79118 0.28667 0.26133 0.0
Tb2473 Tb 0.77441 0.25165 0.27346 0.0
C2474 C 0.78952 0.25441 0.24215 0.0
C2475 C 0.79594 0.32836 0.2518 0.0
C2476 C 0.78266 0.35444 0.25662 0.0
C2477 C 0.7988 0.35764 0.25499 0.0
C2478 C 0.80544 0.3446 0.25268 0.0
C2479 C 0.77973 0.32524 0.25269 0.0
C2480 C 0.77314 0.33817 0.25501 0.0
C2481 C 0.80288 0.31463 0.25225 0.0
O2482 O 0.76677 0.28002 0.2506 0.0
O2483 O 0.75447 0.26142 0.26688 0.0
O2484 O 0.77663 0.26928 0.2928 0.0
O2485 O 0.77815 0.29227 0.28006 0.0
O2486 O 0.75689 0.22922 0.27024 0.0
O2487 O 0.77296 0.23487 0.29029 0.0
O2488 O 0.79991 0.25346 0.27613 0.0
O2489 O 0.80953 0.28142 0.27669 0.0
O2490 O 0.79859 0.26891 0.24707 0.0
O2491 O 0.77746 0.24713 0.24948 0.0
C2492 C 0.75368 0.27117 0.25586 0.0
O2493 O 0.80565 0.31071 0.26602 0.0
O2494 O 0.79593 0.30171 0.24308 0.0
C2495 C 0.77585 0.28442 0.29246 0.0
C2496 C 0.76639 0.20805 0.27913 0.0
C2497 C 0.77777 0.18045 0.27515 0.0
C2498 C 0.7697 0.18267 0.28806 0.0
C2499 C 0.76403 0.19642 0.29003 0.0
C2500 C 0.7741 0.20565 0.26605 0.0
C2501 C 0.77968 0.19192 0.26404 0.0
C2502 C 0.76233 0.22347 0.28209 0.0
C2503 C 0.81165 0.26696 0.27937 0.0
H2504 H 0.80634 0.37012 0.25625 0.0
H2505 H 0.81801 0.34716 0.25224 0.0
H2506 H 0.77223 0.31278 0.25224 0.0
H2507 H 0.76062 0.33543 0.25602 0.0
H2508 H 0.76807 0.17397 0.29677 0.0
H2509 H 0.75825 0.19823 0.30026 0.0
H2510 H 0.77629 0.21467 0.25763 0.0
H2511 H 0.78613 0.1907 0.25414 0.0
Tb2512 Tb 0.03345 0.51133 0.53173 0.0
Tb2513 Tb 0.0397 0.53054 0.5012 0.0
C2514 C 0.06637 0.52578 0.52157 0.0
C2515 C 0.02589 0.50142 0.57133 0.0
C2516 C 0.02043 0.51201 0.60085 0.0
C2517 C 0.02933 0.50077 0.59875 0.0
C2518 C 0.03201 0.49551 0.58408 0.0
C2519 C 0.01686 0.51247 0.5733 0.0
C2520 C 0.01405 0.51764 0.58796 0.0
C2521 C 0.03044 0.49733 0.55622 0.0
O2522 O 0.038 0.53762 0.54024 0.0
O2523 O 0.03548 0.54933 0.51765 0.0
O2524 O 0.0154 0.5165 0.49971 0.0
O2525 O 0.01212 0.51746 0.52517 0.0
O2526 O 0.05438 0.53854 0.48372 0.0
O2527 O 0.03217 0.54415 0.48473 0.0
O2528 O 0.04136 0.50546 0.49423 0.0
O2529 O 0.02906 0.49111 0.51352 0.0
O2530 O 0.05649 0.5122 0.52478 0.0
O2531 O 0.06125 0.53725 0.51568 0.0
C2532 C 0.03658 0.55034 0.53276 0.0
O2533 O 0.01953 0.49413 0.54501 0.0
O2534 O 0.04354 0.50716 0.55258 0.0
C2535 C 0.00647 0.51654 0.51101 0.0
C2536 C 0.03967 0.53722 0.46073 0.0
C2537 C 0.03445 0.52269 0.4307 0.0
C2538 C 0.02802 0.51363 0.44278 0.0
C2539 C 0.03063 0.52084 0.45771 0.0
C2540 C 0.04557 0.54652 0.4487 0.0
C2541 C 0.04295 0.53931 0.43374 0.0
C2542 C 0.04391 0.54407 0.47652 0.0
C2543 C 0.03504 0.4913 0.50005 0.0
H2544 H 0.03458 0.49639 0.60843 0.0
H2545 H 0.03924 0.48718 0.58269 0.0
H2546 H 0.01224 0.51734 0.56353 0.0
H2547 H 0.00694 0.5261 0.5892 0.0
H2548 H 0.02135 0.50084 0.44075 0.0
H2549 H 0.02601 0.51351 0.46695 0.0
H2550 H 0.05264 0.55914 0.45091 0.0
H2551 H 0.04825 0.54652 0.42468 0.0
Tb2552 Tb 0.80223 0.77287 0.27013 0.0
Tb2553 Tb 0.76566 0.77454 0.26446 0.0
C2554 C 0.77408 0.7441 0.27732 0.0
C2555 C 0.84327 0.77207 0.26377 0.0
C2556 C 0.86874 0.77284 0.24575 0.0
C2557 C 0.865 0.76153 0.25695 0.0
C2558 C 0.85242 0.76118 0.26588 0.0
C2559 C 0.84682 0.78329 0.25248 0.0
C2560 C 0.85951 0.78372 0.2436 0.0
C2561 C 0.83012 0.77134 0.27345 0.0
O2562 O 0.79332 0.75993 0.24775 0.0
O2563 O 0.7734 0.77143 0.2416 0.0
O2564 O 0.78093 0.7991 0.26305 0.0
O2565 O 0.80297 0.79275 0.25569 0.0
O2566 O 0.74221 0.76365 0.25627 0.0
O2567 O 0.74961 0.78843 0.26672 0.0
O2568 O 0.7704 0.77643 0.28914 0.0
O2569 O 0.79726 0.78611 0.29065 0.0
O2570 O 0.78809 0.75329 0.2821 0.0
O2571 O 0.76486 0.74919 0.26782 0.0
C2572 C 0.78341 0.76328 0.2376 0.0
O2573 O 0.82597 0.78483 0.27596 0.0
O2574 O 0.81806 0.7585 0.27067 0.0
C2575 C 0.79427 0.8029 0.25664 0.0
C2576 C 0.72398 0.77312 0.27021 0.0
C2577 C 0.69784 0.76938 0.28784 0.0
C2578 C 0.69729 0.77425 0.27284 0.0
C2579 C 0.71024 0.77609 0.26413 0.0
C2580 C 0.7246 0.76807 0.28508 0.0
C2581 C 0.71162 0.7662 0.29383 0.0
C2582 C 0.73777 0.77634 0.2612 0.0
C2583 C 0.78378 0.78364 0.29698 0.0
H2584 H 0.87197 0.75311 0.259 0.0
H2585 H 0.84985 0.75242 0.2745 0.0
H2586 H 0.83983 0.7917 0.25052 0.0
H2587 H 0.862 0.79245 0.23495 0.0
H2588 H 0.68699 0.77706 0.26795 0.0
H2589 H 0.70962 0.78015 0.25272 0.0
H2590 H 0.73517 0.76577 0.28997 0.0
H2591 H 0.71239 0.76227 0.30526 0.0
Tb2592 Tb 0.77581 0.27214 0.7814 0.0
Tb2593 Tb 0.79254 0.2654 0.7502 0.0
C2594 C 0.76053 0.2737 0.74861 0.0
C2595 C 0.76229 0.26838 0.82004 0.0
C2596 C 0.7598 0.25212 0.84709 0.0
C2597 C 0.75196 0.26422 0.84487 0.0
C2598 C 0.7532 0.27229 0.83141 0.0
C2599 C 0.77024 0.25644 0.82223 0.0
C2600 C 0.769 0.24836 0.83564 0.0
C2601 C 0.76296 0.2762 0.80563 0.0
O2602 O 0.77442 0.24618 0.77974 0.0
O2603 O 0.77506 0.24278 0.75377 0.0
O2604 O 0.80468 0.25662 0.76851 0.0
O2605 O 0.79985 0.27287 0.7884 0.0
O2606 O 0.79062 0.25519 0.72761 0.0
O2607 O 0.81318 0.26769 0.73902 0.0
O2608 O 0.80329 0.29079 0.75865 0.0
O2609 O 0.78338 0.29575 0.77193 0.0
O2610 O 0.75831 0.26869 0.76236 0.0
O2611 O 0.77428 0.27647 0.74296 0.0
C2612 C 0.77168 0.23675 0.76695 0.0
O2613 O 0.77673 0.28517 0.80267 0.0
O2614 O 0.75585 0.26649 0.79383 0.0
C2615 C 0.80809 0.26365 0.78245 0.0
C2616 C 0.80931 0.27126 0.71311 0.0
C2617 C 0.81576 0.29012 0.68783 0.0
C2618 C 0.82039 0.27558 0.68863 0.0
C2619 C 0.81717 0.26621 0.7012 0.0
C2620 C 0.80488 0.28586 0.71251 0.0
C2621 C 0.80804 0.2952 0.69996 0.0
C2622 C 0.80552 0.26125 0.72607 0.0
C2623 C 0.79637 0.30099 0.76514 0.0
H2624 H 0.74492 0.26749 0.85355 0.0
H2625 H 0.74698 0.28147 0.82982 0.0
H2626 H 0.77723 0.25321 0.81346 0.0
H2627 H 0.77499 0.23893 0.83691 0.0
H2628 H 0.82649 0.27145 0.67955 0.0
H2629 H 0.8207 0.25498 0.70158 0.0
H2630 H 0.79878 0.2899 0.72166 0.0
H2631 H 0.80408 0.30617 0.69959 0.0
Tb2632 Tb 0.77545 0.75258 0.75998 0.0
Tb2633 Tb 0.79178 0.78918 0.77462 0.0
C2634 C 0.77613 0.78313 0.74074 0.0
C2635 C 0.76763 0.70817 0.75305 0.0
C2636 C 0.78038 0.68209 0.75843 0.0
C2637 C 0.77306 0.68289 0.74404 0.0
C2638 C 0.76671 0.69589 0.74137 0.0
C2639 C 0.77434 0.70701 0.7676 0.0
C2640 C 0.7806 0.69403 0.77029 0.0
C2641 C 0.76348 0.72315 0.74959 0.0
O2642 O 0.80106 0.7556 0.75787 0.0
O2643 O 0.81035 0.78365 0.76124 0.0
O2644 O 0.80012 0.77331 0.78959 0.0
O2645 O 0.7799 0.75022 0.78423 0.0
O2646 O 0.80432 0.81373 0.7726 0.0
O2647 O 0.79811 0.80506 0.79456 0.0
O2648 O 0.76783 0.78297 0.78314 0.0
O2649 O 0.75515 0.76169 0.76578 0.0
O2650 O 0.77514 0.76745 0.74089 0.0
O2651 O 0.7798 0.79307 0.7533 0.0
C2652 C 0.81243 0.7693 0.75671 0.0
O2653 O 0.75805 0.73029 0.76068 0.0
O2654 O 0.77405 0.73367 0.74293 0.0
C2655 C 0.79145 0.75922 0.79353 0.0
C2656 C 0.79694 0.83158 0.78994 0.0
C2657 C 0.78343 0.85779 0.79168 0.0
C2658 C 0.79972 0.86085 0.79122 0.0
C2659 C 0.80644 0.84778 0.79037 0.0
C2660 C 0.78075 0.82853 0.79093 0.0
C2661 C 0.77406 0.84153 0.79185 0.0
C2662 C 0.80361 0.81786 0.78698 0.0
C2663 C 0.75463 0.77242 0.77719 0.0
H2664 H 0.77273 0.67379 0.73475 0.0
H2665 H 0.7617 0.69674 0.73005 0.0
H2666 H 0.7754 0.71652 0.77671 0.0
H2667 H 0.78644 0.69391 0.7814 0.0
H2668 H 0.80718 0.87328 0.79108 0.0
H2669 H 0.81895 0.85027 0.78949 0.0
H2670 H 0.7732 0.81608 0.7904 0.0
H2671 H 0.76144 0.83875 0.79184 0.0
Tb2672 Tb 0.55264 0.52904 0.51934 0.0
Tb2673 Tb 0.51627 0.50771 0.51069 0.0
C2674 C 0.52642 0.52838 0.54146 0.0
C2675 C 0.59525 0.54108 0.52209 0.0
C2676 C 0.62228 0.53097 0.5179 0.0
C2677 C 0.62296 0.54488 0.52775 0.0
C2678 C 0.60948 0.54991 0.52983 0.0
C2679 C 0.59459 0.52744 0.51198 0.0
C2680 C 0.60801 0.52245 0.50986 0.0
C2681 C 0.58081 0.54512 0.52543 0.0
O2682 O 0.55269 0.50357 0.52101 0.0
O2683 O 0.52677 0.49318 0.52531 0.0
O2684 O 0.52952 0.4975 0.495 0.0
O2685 O 0.55096 0.51996 0.49548 0.0
O2686 O 0.49537 0.49317 0.51813 0.0
O2687 O 0.49724 0.49846 0.49447 0.0
O2688 O 0.51987 0.53026 0.49898 0.0
O2689 O 0.53973 0.54684 0.51507 0.0
O2690 O 0.54069 0.52731 0.54021 0.0
O2691 O 0.51617 0.52515 0.52965 0.0
C2692 C 0.54121 0.49202 0.52577 0.0
O2693 O 0.5723 0.54713 0.51357 0.0
O2694 O 0.57244 0.53575 0.53485 0.0
C2695 C 0.54215 0.50583 0.48907 0.0
C2696 C 0.47401 0.4986 0.50541 0.0
C2697 C 0.44771 0.51043 0.50771 0.0
C2698 C 0.44587 0.49369 0.50363 0.0
C2699 C 0.45899 0.48779 0.50253 0.0
C2700 C 0.47588 0.51533 0.50927 0.0
C2701 C 0.46284 0.52121 0.5104 0.0
C2702 C 0.48783 0.49259 0.50489 0.0
C2703 C 0.52838 0.54496 0.50437 0.0
H2704 H 0.63384 0.55168 0.53402 0.0
H2705 H 0.61007 0.56039 0.53776 0.0
H2706 H 0.58359 0.52036 0.50609 0.0
H2707 H 0.60706 0.51149 0.50244 0.0
H2708 H 0.43431 0.48515 0.50157 0.0
H2709 H 0.45744 0.47482 0.49959 0.0
H2710 H 0.48746 0.52383 0.5115 0.0
H2711 H 0.46459 0.53422 0.51328 0.0
Tb2712 Tb 0.01558 0.5203 0.01419 0.0
Tb2713 Tb 0.05678 0.52267 0.0217 0.0
C2714 C 0.02573 0.51114 0.04308 0.0
C2715 C 0.9791 0.53352 0.00546 0.0
C2716 C 0.95784 0.55274 0.00846 0.0
C2717 C 0.95253 0.53547 0.00757 0.0
C2718 C 0.96305 0.52598 0.00604 0.0
C2719 C 0.98451 0.55079 0.00664 0.0
C2720 C 0.97397 0.5603 0.00806 0.0
C2721 C 0.98976 0.52313 0.00286 0.0
O2722 O 0.02648 0.5426 0.029 0.0
O2723 O 0.05363 0.54715 0.02709 0.0
O2724 O 0.05471 0.52248 0.99732 0.0
O2725 O 0.0346 0.53309 0.00124 0.0
O2726 O 0.06924 0.51454 0.03909 0.0
O2727 O 0.08134 0.53022 0.02241 0.0
O2728 O 0.0457 0.49781 0.01188 0.0
O2729 O 0.01924 0.49668 0.00595 0.0
O2730 O 0.01255 0.51245 0.03716 0.0
O2731 O 0.03751 0.51554 0.03491 0.0
C2732 C 0.0412 0.55196 0.03092 0.0
O2733 O 1.00335 0.53018 0.998 0.0
O2734 O 0.99088 0.51306 0.0132 0.0
C2735 C 0.04216 0.52593 0.99195 0.0
C2736 C 0.09329 0.51027 0.03164 0.0
C2737 C 0.1146 0.49092 0.02902 0.0
C2738 C 0.11665 0.50537 0.02138 0.0
C2739 C 0.10619 0.51495 0.02274 0.0
C2740 C 0.09116 0.49576 0.03924 0.0
C2741 C 0.10167 0.48618 0.03791 0.0
C2742 C 0.08269 0.52097 0.03353 0.0
C2743 C 0.03122 0.49011 0.00635 0.0
H2744 H 0.94017 0.52927 0.00768 0.0
H2745 H 0.95859 0.5127 0.00507 0.0
H2746 H 0.99685 0.55697 0.00629 0.0
H2747 H 0.97845 0.57357 0.0089 0.0
H2748 H 0.12633 0.5093 0.01426 0.0
H2749 H 0.10827 0.52612 0.01686 0.0
H2750 H 0.08148 0.49187 0.04638 0.0
H2751 H 0.09984 0.47527 0.04414 0.0
H2752 H 0.00635 0.18943 0.97648 0.0
H2753 H 0.00795 0.16456 0.98832 0.0
H2754 H 0.00802 0.14022 0.94383 0.0
H2755 H 0.00541 0.1646 0.93185 0.0
H2756 H 0.98991 0.11991 0.96153 0.0
H2757 H 0.04691 0.14982 0.99378 0.0
H2758 H 0.03178 0.15925 0.99827 0.0
H2759 H 0.0386 0.15983 0.97935 0.0
C2760 C 0.00648 0.17874 0.96917 0.0
C2761 C 0.00591 0.17919 0.95316 0.0
C2762 C 0.00763 0.16456 0.976 0.0
C2763 C 0.0085 0.15061 0.96701 0.0
C2764 C 0.00753 0.15087 0.95104 0.0
H2765 H 0.0458 0.07204 0.99409 0.0
H2766 H 0.04049 0.09642 0.98431 0.0
C2767 C 0.00621 0.16494 0.94421 0.0
C2768 C 0.01049 0.13572 0.97411 0.0
H2769 H 0.03465 0.1223 0.99855 0.0
C2770 C 0.99968 0.12043 0.96964 0.0
C2771 C 0.02335 0.13635 0.98456 0.0
C2772 C 0.03591 0.15216 0.98917 0.0
C2773 C 1.00143 0.10579 0.97523 0.0
C2774 C 0.01413 0.10647 0.98591 0.0
C2775 C 0.02485 0.12177 0.99047 0.0
C2776 C 0.01705 0.09143 0.9919 0.0
C2777 C 0.98997 0.0897 0.96919 0.0
C2778 C 0.00568 0.08048 -0.00044 0.0
C2779 C 0.00862 0.06635 0.00504 0.0
C2780 C 0.0231 0.06304 0.0032 0.0
C2781 C 0.03452 0.07417 0.99573 0.0
C2782 C 0.03152 0.08817 0.99014 0.0
H2783 H 0.98371 0.09086 0.95822 0.0
H2784 H 0.99597 0.07993 0.96739 0.0
H2785 H 0.98109 0.08577 0.97758 0.0
H2786 H 0.99458 0.08291 0.00142 0.0
H2787 H 0.99961 0.05811 0.01085 0.0
H2788 H 0.13335 0.79947 0.19206 0.0
H2789 H 0.15699 0.79784 0.20667 0.0
H2790 H 0.16998 0.77279 0.16751 0.0
H2791 H 0.14677 0.77496 0.15264 0.0
H2792 H 0.16535 0.77 0.21369 0.0
H2793 H 0.21018 0.80863 0.17994 0.0
H2794 H 0.18983 0.80836 0.17799 0.0
H2795 H 0.19626 0.79209 0.16877 0.0
C2796 C 0.14137 0.79388 0.18645 0.0
C2797 C 0.13814 0.7874 0.17113 0.0
C2798 C 0.15483 0.79285 0.19486 0.0
C2799 C 0.16538 0.7854 0.18812 0.0
C2800 C 0.16219 0.77889 0.17287 0.0
H2801 H 0.25032 0.76271 0.22175 0.0
H2802 H 0.22751 0.76537 0.20636 0.0
C2803 C 0.14877 0.77995 0.16444 0.0
C2804 C 0.17938 0.78387 0.19724 0.0
H2805 H 0.21933 0.79373 0.19868 0.0
C2806 C 0.17716 0.77527 0.21046 0.0
C2807 C 0.19478 0.79067 0.19296 0.0
C2808 C 0.19797 0.80058 0.17922 0.0
C2809 C 0.18988 0.77309 0.2194 0.0
C2810 C 0.20528 0.77993 0.21515 0.0
C2811 C 0.20752 0.78847 0.2019 0.0
C2812 C 0.21922 0.77854 0.22444 0.0
C2813 C 0.18671 0.76316 0.23314 0.0
C2814 C 0.22228 0.78532 0.23962 0.0
C2815 C 0.23527 0.7838 0.24845 0.0
C2816 C 0.24555 0.77555 0.24225 0.0
C2817 C 0.24262 0.76905 0.22692 0.0
C2818 C 0.2296 0.77058 0.21809 0.0
H2819 H 0.17447 0.75517 0.23247 0.0
H2820 H 0.1948 0.75532 0.2343 0.0
H2821 H 0.18852 0.77165 0.2436 0.0
H2822 H 0.21462 0.79182 0.24464 0.0
H2823 H 0.23719 0.78906 0.26016 0.0
H2824 H 0.48794 0.83485 0.45316 0.0
H2825 H 0.48913 0.86306 0.46223 0.0
H2826 H 0.53953 0.87519 0.46709 0.0
H2827 H 0.53844 0.84706 0.45788 0.0
H2828 H 0.50088 0.8814 0.48882 0.0
H2829 H 0.53286 0.91049 0.44089 0.0
H2830 H 0.52425 0.88858 0.44062 0.0
H2831 H 0.54297 0.89808 0.45078 0.0
C2832 C 0.49928 0.84348 0.45628 0.0
C2833 C 0.51311 0.83872 0.45471 0.0
C2834 C 0.49994 0.85963 0.4614 0.0
C2835 C 0.51442 0.87136 0.46502 0.0
C2836 C 0.52823 0.8665 0.46393 0.0
H2837 H 0.5489 0.97115 0.50236 0.0
H2838 H 0.54427 0.94264 0.49254 0.0
C2839 C 0.52759 0.8504 0.45872 0.0
C2840 C 0.51512 0.88864 0.47003 0.0
H2841 H 0.53122 0.92849 0.4623 0.0
C2842 C 0.50738 0.89169 0.48293 0.0
C2843 C 0.52349 0.90208 0.46227 0.0
C2844 C 0.53123 0.89966 0.44778 0.0
C2845 C 0.50829 0.90782 0.48861 0.0
C2846 C 0.51707 0.92122 0.48111 0.0
C2847 C 0.52453 0.91818 0.46804 0.0
C2848 C 0.51947 0.93852 0.48713 0.0
C2849 C 0.50033 0.91046 0.50288 0.0
C2850 C 0.50703 0.94576 0.48723 0.0
C2851 C 0.50963 0.96221 0.49282 0.0
C2852 C 0.52472 0.97165 0.49843 0.0
C2853 C 0.5371 0.96429 0.49821 0.0
C2854 C 0.53451 0.94796 0.49257 0.0
H2855 H 0.49619 0.89896 0.5087 0.0
H2856 H 0.50843 0.91992 0.51102 0.0
H2857 H 0.49007 0.91498 0.49982 0.0
H2858 H 0.49535 0.93872 0.48289 0.0
H2859 H 0.49984 0.96748 0.49279 0.0
H2860 H 0.50315 0.28384 0.69198 0.0
H2861 H 0.47966 0.28284 0.70551 0.0
H2862 H 0.45097 0.26653 0.6634 0.0
H2863 H 0.47437 0.26786 0.64966 0.0
H2864 H 0.45668 0.30026 0.69907 0.0
H2865 H 0.43105 0.23242 0.69367 0.0
H2866 H 0.45136 0.24203 0.69089 0.0
H2867 H 0.43645 0.24171 0.6762 0.0
C2868 C 0.49187 0.28013 0.68554 0.0
C2869 C 0.4907 0.27589 0.6697 0.0
C2870 C 0.47845 0.27948 0.69332 0.0
C2871 C 0.46358 0.27442 0.68548 0.0
C2872 C 0.46232 0.27017 0.66971 0.0
H2873 H 0.3694 0.26138 0.71529 0.0
H2874 H 0.39205 0.26295 0.70024 0.0
C2875 C 0.47573 0.27089 0.66189 0.0
C2876 C 0.44944 0.27406 0.69375 0.0
H2877 H 0.41572 0.24832 0.70456 0.0
C2878 C 0.44773 0.28892 0.7003 0.0
C2879 C 0.43774 0.25925 0.69523 0.0
C2880 C 0.43922 0.2429 0.68874 0.0
C2881 C 0.43455 0.28939 0.70821 0.0
C2882 C 0.42296 0.27453 0.70992 0.0
C2883 C 0.42461 0.25969 0.70324 0.0
C2884 C 0.40923 0.27407 0.71892 0.0
C2885 C 0.43305 0.30583 0.71442 0.0
C2886 C 0.41137 0.27969 0.73444 0.0
C2887 C 0.39848 0.27899 0.74301 0.0
C2888 C 0.38313 0.27243 0.73631 0.0
C2889 C 0.38103 0.26673 0.72076 0.0
C2890 C 0.39396 0.2675 0.71217 0.0
H2891 H 0.44018 0.31606 0.70833 0.0
H2892 H 0.42067 0.30622 0.71347 0.0
H2893 H 0.43732 0.30797 0.72666 0.0
H2894 H 0.42304 0.2845 0.73998 0.0
H2895 H 0.40055 0.28364 0.75491 0.0
H2896 H 0.01029 0.84988 0.59578 0.0
H2897 H 0.01092 0.87449 0.58242 0.0
H2898 H 0.05879 0.896 0.59961 0.0
H2899 H 0.05829 0.87152 0.61302 0.0
H2900 H 0.01391 0.90558 0.58942 0.0
H2901 H 0.06492 0.90546 0.55656 0.0
H2902 H 0.05577 0.88849 0.56737 0.0
H2903 H 0.0697 0.90649 0.57673 0.0
C2904 C 0.02104 0.85977 0.59689 0.0
C2905 C 0.03428 0.85809 0.60569 0.0
C2906 C 0.02139 0.87406 0.58905 0.0
C2907 C 0.03502 0.88747 0.58943 0.0
C2908 C 0.04817 0.88595 0.5984 0.0
H2909 H 0.03153 0.98724 0.56253 0.0
H2910 H 0.0315 0.96291 0.57619 0.0
C2911 C 0.04784 0.87167 0.60624 0.0
C2912 C 0.03531 0.90293 0.58081 0.0
H2913 H 0.05626 0.92961 0.55635 0.0
C2914 C 0.02323 0.91072 0.58219 0.0
C2915 C 0.04716 0.90997 0.57095 0.0
C2916 C 0.06003 0.90209 0.56766 0.0
C2917 C 0.02279 0.92499 0.57451 0.0
C2918 C 0.03498 0.93243 0.56514 0.0
C2919 C 0.04691 0.92446 0.56354 0.0
C2920 C 0.03541 0.94803 0.55669 0.0
C2921 C 0.00881 0.93158 0.57621 0.0
C2922 C 0.03832 0.94882 0.54103 0.0
C2923 C 0.03861 0.96305 0.53314 0.0
C2924 C 0.03605 0.97733 0.54048 0.0
C2925 C 0.03341 0.97667 0.5562 0.0
C2926 C 0.03322 0.96246 0.56411 0.0
H2927 H 0.99847 0.92191 0.57928 0.0
H2928 H 0.01164 0.94156 0.58555 0.0
H2929 H 0.00556 0.93658 0.56553 0.0
H2930 H 0.04019 0.93822 0.53473 0.0
H2931 H 0.0407 0.96277 0.52112 0.0
H2932 H 0.44276 0.73594 0.83496 0.0
H2933 H 0.4171 0.7368 0.82422 0.0
H2934 H 0.43163 0.7896 0.83032 0.0
H2935 H 0.45719 0.78892 0.8412 0.0
H2936 H 0.39298 0.74669 0.83391 0.0
H2937 H 0.41425 0.78577 0.78725 0.0
H2938 H 0.427 0.77708 0.7986 0.0
H2939 H 0.4224 0.79547 0.80567 0.0
C2940 C 0.44068 0.74785 0.83417 0.0
C2941 C 0.45276 0.76236 0.83909 0.0
C2942 C 0.42574 0.74831 0.82784 0.0
C2943 C 0.422 0.76328 0.82589 0.0
C2944 C 0.43391 0.77776 0.831 0.0
H2945 H 0.33897 0.79298 0.78908 0.0
H2946 H 0.36438 0.79143 0.80006 0.0
C2947 C 0.44882 0.77732 0.83736 0.0
C2948 C 0.40577 0.76372 0.8189 0.0
H2949 H 0.38738 0.78113 0.79161 0.0
C2950 C 0.39188 0.75419 0.82459 0.0
C2951 C 0.40373 0.77344 0.80666 0.0
C2952 C 0.41761 0.78339 0.79907 0.0
C2953 C 0.37658 0.75443 0.81891 0.0
C2954 C 0.37453 0.76415 0.80665 0.0
C2955 C 0.38844 0.77362 0.80093 0.0
C2956 C 0.35834 0.7649 0.79977 0.0
C2957 C 0.36275 0.74463 0.82668 0.0
C2958 C 0.34583 0.75062 0.79543 0.0
C2959 C 0.331 0.75151 0.78916 0.0
C2960 C 0.32793 0.76671 0.78667 0.0
C2961 C 0.34052 0.78096 0.79074 0.0
C2962 C 0.35529 0.78007 0.79708 0.0
H2963 H 0.36619 0.74248 0.83854 0.0
H2964 H 0.35336 0.75095 0.82709 0.0
H2965 H 0.35795 0.73244 0.82027 0.0
H2966 H 0.34752 0.7386 0.79665 0.0
H2967 H 0.32192 0.74015 0.78613 0.0
H2968 H 0.50443 0.18414 0.09656 0.0
H2969 H 0.50532 0.15817 0.08338 0.0
H2970 H 0.55381 0.16785 0.09914 0.0
H2971 H 0.55307 0.19378 0.11226 0.0
H2972 H 0.5204 0.14907 0.0607 0.0
H2973 H 0.53911 0.12212 0.11152 0.0
H2974 H 0.53294 0.14067 0.11298 0.0
H2975 H 0.55258 0.14142 0.10837 0.0
C2976 C 0.51538 0.18093 0.09725 0.0
C2977 C 0.52862 0.19148 0.10586 0.0
C2978 C 0.51585 0.16581 0.08965 0.0
C2979 C 0.52954 0.16042 0.09034 0.0
C2980 C 0.54285 0.17107 0.09865 0.0
H2981 H 0.54529 0.0819 0.02575 0.0
H2982 H 0.54455 0.1079 0.039 0.0
C2983 C 0.5424 0.18615 0.10625 0.0
C2984 C 0.52995 0.14397 0.08225 0.0
H2985 H 0.54001 0.10806 0.08748 0.0
C2986 C 0.5247 0.14016 0.06666 0.0
C2987 C 0.53526 0.13182 0.08974 0.0
C2988 C 0.54014 0.13409 0.1066 0.0
C2989 C 0.52488 0.12517 0.05851 0.0
C2990 C 0.53075 0.1133 0.06586 0.0
C2991 C 0.53569 0.11695 0.08153 0.0
C2992 C 0.53156 0.09705 0.05768 0.0
C2993 C 0.51831 0.12205 0.04209 0.0
C2994 C 0.52508 0.08177 0.0637 0.0
C2995 C 0.52562 0.0667 0.0561 0.0
C2996 C 0.5328 0.06618 0.04218 0.0
C2997 C 0.53954 0.08149 0.03632 0.0
C2998 C 0.53899 0.09655 0.04391 0.0
H2999 H 0.51005 0.12945 0.0396 0.0
H3000 H 0.52805 0.12564 0.0345 0.0
H3001 H 0.5121 0.10886 0.03924 0.0
H3002 H 0.51933 0.08144 0.07427 0.0
H3003 H 0.52027 0.05538 0.06116 0.0
H3004 H 0.11024 0.24376 0.32596 0.0
H3005 H 0.13517 0.24476 0.31501 0.0
H3006 H 0.15535 0.2931 0.33726 0.0
H3007 H 0.13063 0.29204 0.3486 0.0
H3008 H 0.15303 0.26299 0.29533 0.0
H3009 H 0.19 0.27404 0.3495 0.0
H3010 H 0.16892 0.2685 0.34905 0.0
H3011 H 0.17988 0.28942 0.34701 0.0
C3012 C 0.11994 0.25461 0.32882 0.0
C3013 C 0.11786 0.26775 0.33853 0.0
C3014 C 0.13442 0.25522 0.32232 0.0
C3015 C 0.14781 0.26888 0.32529 0.0
C3016 C 0.14573 0.28209 0.33483 0.0
H3017 H 0.2472 0.29379 0.2983 0.0
H3018 H 0.22218 0.29327 0.30903 0.0
C3019 C 0.13122 0.28155 0.34126 0.0
C3020 C 0.16357 0.26937 0.31824 0.0
H3021 H 0.20336 0.27643 0.3268 0.0
C3022 C 0.16397 0.26586 0.30234 0.0
C3023 C 0.1783 0.27318 0.32695 0.0
C3024 C 0.17931 0.27635 0.34408 0.0
C3025 C 0.17813 0.26642 0.29511 0.0
C3026 C 0.19288 0.27009 0.30383 0.0
C3027 C 0.19246 0.2736 0.31975 0.0
C3028 C 0.20866 0.27042 0.29682 0.0
C3029 C 0.17706 0.26369 0.27794 0.0
C3030 C 0.2103 0.25777 0.28626 0.0
C3031 C 0.22479 0.25817 0.27988 0.0
C3032 C 0.23861 0.2711 0.28387 0.0
C3033 C 0.23707 0.28361 0.29464 0.0
C3034 C 0.22254 0.28327 0.30093 0.0
H3035 H 0.16667 0.26675 0.2727 0.0
H3036 H 0.18766 0.27122 0.27305 0.0
H3037 H 0.17576 0.25052 0.27467 0.0
H3038 H 0.20038 0.24725 0.28304 0.0
H3039 H 0.22517 0.24806 0.27192 0.0
H3040 H 0.95184 0.05412 0.15489 0.0
H3041 H 0.96846 0.05728 0.13344 0.0
H3042 H 0.00836 0.05829 0.16397 0.0
H3043 H 0.99172 0.05497 0.18553 0.0
H3044 H 0.99682 0.07955 0.12622 0.0
H3045 H 1.0025 0.01682 0.13504 0.0
H3046 H 0.98872 0.02519 0.14472 0.0
H3047 H 0.00918 0.03203 0.15086 0.0
C3048 C 0.96423 0.05544 0.15709 0.0
C3049 C 0.97049 0.05408 0.17179 0.0
C3050 C 0.9737 0.05724 0.14485 0.0
C3051 C 0.98954 0.05775 0.14715 0.0
C3052 C 0.99609 0.05764 0.16199 0.0
H3053 H 0.04287 0.05839 0.06532 0.0
H3054 H 0.03646 0.06654 0.09084 0.0
C3055 C 0.9866 0.05572 0.17424 0.0
C3056 C 0.99849 0.05638 0.13378 0.0
H3057 H 0.01247 0.02882 0.11315 0.0
C3058 C 1.00053 0.06862 0.12343 0.0
C3059 C 1.00314 0.04199 0.13023 0.0
C3060 C 1.00071 0.02817 0.1407 0.0
C3061 C 0.00648 0.06651 0.10924 0.0
C3062 C 0.01057 0.05186 0.10551 0.0
C3063 C 0.00929 0.04002 0.11617 0.0
C3064 C 0.01445 0.0476 0.09002 0.0
C3065 C 0.00751 0.07945 0.09801 0.0
C3066 C 1.00421 0.03422 0.08127 0.0
C3067 C 0.00784 0.02946 0.06682 0.0
C3068 C 0.0218 0.03803 0.06087 0.0
C3069 C 0.03198 0.0516 0.06959 0.0
C3070 C 0.02834 0.05631 0.08412 0.0
H3071 H 1.00193 0.08905 0.10193 0.0
H3072 H 0.01999 0.08551 0.09645 0.0
H3073 H 1.00182 0.07373 0.0867 0.0
H3074 H 0.99341 0.02738 0.08569 0.0
H3075 H 0.99972 0.01902 0.06037 0.0
H3076 H 0.28332 0.67266 0.45653 0.0
H3077 H 0.27707 0.68541 0.43371 0.0
H3078 H 0.23182 0.68436 0.4496 0.0
H3079 H 0.2379 0.67115 0.47234 0.0
H3080 H 0.23025 0.67577 0.4189 0.0
H3081 H 0.27755 0.73321 0.43425 0.0
H3082 H 0.28476 0.71543 0.4332 0.0
H3083 H 0.27155 0.71762 0.44747 0.0
C3084 C 0.27205 0.67518 0.45514 0.0
C3085 C 0.26115 0.67116 0.46622 0.0
C3086 C 0.26851 0.68248 0.44215 0.0
C3087 C 0.25415 0.68619 0.44019 0.0
C3088 C 0.24302 0.6817 0.45099 0.0
H3089 H 0.2451 0.75585 0.37443 0.0
H3090 H 0.24343 0.74129 0.39762 0.0
C3091 C 0.24648 0.67418 0.46392 0.0
C3092 C 0.25095 0.69503 0.42697 0.0
H3093 H 0.26601 0.72951 0.40867 0.0
C3094 C 0.23795 0.6876 0.41671 0.0
C3095 C 0.26085 0.71061 0.42434 0.0
C3096 C 0.27435 0.71977 0.43549 0.0
C3097 C 0.23493 0.6951 0.40353 0.0
C3098 C 0.24539 0.71021 0.40045 0.0
C3099 C 0.25806 0.71786 0.41099 0.0
C3100 C 0.2439 0.71814 0.38614 0.0
C3101 C 0.22056 0.68681 0.39309 0.0
C3102 C 0.24443 0.70985 0.37197 0.0
C3103 C 0.24513 0.71808 0.35864 0.0
C3104 C 0.24558 0.73481 0.35929 0.0
C3105 C 0.24456 0.74292 0.37347 0.0
C3106 C 0.24371 0.73464 0.38676 0.0
H3107 H 0.21139 0.67865 0.39935 0.0
H3108 H 0.21556 0.69597 0.38775 0.0
H3109 H 0.22379 0.6791 0.38388 0.0
H3110 H 0.24494 0.69722 0.37126 0.0
H3111 H 0.24571 0.71143 0.34787 0.0
H3112 H 0.60478 0.99262 0.65476 0.0
H3113 H 0.58676 0.98977 0.63218 0.0
H3114 H 0.54754 0.97921 0.6603 0.0
H3115 H 0.56557 0.98249 0.68311 0.0
H3116 H 0.5604 0.96104 0.62179 0.0
H3117 H 0.54331 0.01865 0.63549 0.0
H3118 H 0.56076 0.01526 0.64447 0.0
H3119 H 0.54187 0.00398 0.6497 0.0
C3120 C 0.59234 0.98985 0.65616 0.0
C3121 C 0.58657 0.98786 0.67067 0.0
C3122 C 0.58207 0.98806 0.64327 0.0
C3123 C 0.5659 0.98431 0.64467 0.0
C3124 C 0.56002 0.98218 0.65908 0.0
H3125 H 0.51201 0.99586 0.56126 0.0
H3126 H 0.51495 0.9861 0.5867 0.0
C3127 C 0.57031 0.98396 0.67203 0.0
C3128 C 0.55545 0.9831 0.63086 0.0
H3129 H 0.53678 0.0061 0.61065 0.0
C3130 C 0.55485 0.97063 0.61944 0.0
C3131 C 0.54811 0.99555 0.628 0.0
C3132 C 0.54851 0.00919 0.63999 0.0
C3133 C 0.54817 0.97102 0.60476 0.0
C3134 C 0.54218 0.98432 0.6015 0.0
C3135 C 0.54144 0.99594 0.61328 0.0
C3136 C 0.53963 0.98822 0.58567 0.0
C3137 C 0.54844 0.9578 0.5926 0.0
C3138 C 0.55257 0.99265 0.57686 0.0
C3139 C 0.55101 0.99838 0.56256 0.0
C3140 C 0.53645 0.99974 0.5568 0.0
C3141 C 0.52335 0.99485 0.56544 0.0
C3142 C 0.52499 0.98928 0.57991 0.0
H3143 H 0.54845 0.94612 0.59768 0.0
H3144 H 0.53822 0.95547 0.58411 0.0
H3145 H 0.55928 0.96181 0.58651 0.0
H3146 H 0.56404 0.99222 0.5813 0.0
H3147 H 0.56127 1.00197 0.55611 0.0
H3148 H 0.25551 0.31827 0.93547 0.0
H3149 H 0.25685 0.30983 0.90858 0.0
H3150 H 0.30642 0.31616 0.91644 0.0
H3151 H 0.30509 0.32394 0.94342 0.0
H3152 H 0.2731 0.3271 0.88681 0.0
H3153 H 0.29295 0.27129 0.89369 0.0
H3154 H 0.28564 0.28132 0.90917 0.0
H3155 H 0.30549 0.2893 0.90419 0.0
C3156 C 0.26666 0.31755 0.93159 0.0
C3157 C 0.28018 0.32178 0.94177 0.0
C3158 C 0.26743 0.31284 0.91612 0.0
C3159 C 0.2817 0.31211 0.91041 0.0
C3160 C 0.29519 0.31627 0.92053 0.0
H3161 H 0.31014 0.29245 0.81857 0.0
H3162 H 0.30963 0.30024 0.84587 0.0
C3163 C 0.29443 0.32095 0.93599 0.0
C3164 C 0.28256 0.30764 0.89378 0.0
H3165 H 0.29362 0.28098 0.86883 0.0
C3166 C 0.27751 0.31695 0.88291 0.0
C3167 C 0.28838 0.29444 0.88857 0.0
C3168 C 0.29329 0.28341 0.8995 0.0
C3169 C 0.27829 0.31359 0.86712 0.0
C3170 C 0.2841 0.3004 0.86193 0.0
C3171 C 0.28924 0.29113 0.87277 0.0
C3172 C 0.28448 0.29574 0.8453 0.0
C3173 C 0.27314 0.32439 0.85612 0.0
C3174 C 0.27053 0.29043 0.83586 0.0
C3175 C 0.27078 0.28593 0.82029 0.0
C3176 C 0.28499 0.28659 0.81369 0.0
C3177 C 0.29898 0.29186 0.82318 0.0
C3178 C 0.29871 0.29628 0.83883 0.0
H3179 H 0.27293 0.33635 0.86189 0.0
H3180 H 0.28099 0.32681 0.84662 0.0
H3181 H 0.26112 0.31807 0.85114 0.0
H3182 H 0.25938 0.28961 0.84058 0.0
H3183 H 0.25974 0.2819 0.81343 0.0
H3184 H 0.9668 0.99983 0.30113 0.0
H3185 H 0.98409 0.99887 0.32338 0.0
H3186 H 0.99189 0.05094 0.334 0.0
H3187 H 0.97396 0.05187 0.31228 0.0
H3188 H 0.01509 0.01492 0.33083 0.0
H3189 H 0.97747 0.0321 0.37368 0.0
H3190 H 0.97071 0.02637 0.35388 0.0
H3191 H 0.98304 0.0467 0.35963 0.0
C3192 C 0.97201 0.01104 0.30833 0.0
C3193 C 0.96886 0.02589 0.30504 0.0
C3194 C 0.98202 0.0105 0.32092 0.0
C3195 C 0.98907 0.02479 0.33042 0.0
C3196 C 0.98632 0.03972 0.32695 0.0
H3197 H 0.04822 0.03689 0.41511 0.0
H3198 H 0.03837 0.04227 0.38998 0.0
C3199 C 0.97621 0.04025 0.31443 0.0
C3200 C 0.99908 0.02394 0.34411 0.0
H3201 H 1.00191 0.02934 0.38302 0.0
C3202 C 0.01227 0.01815 0.34224 0.0
C3203 C 0.99528 0.0281 0.35897 0.0
C3204 C 0.98078 0.03352 0.36173 0.0
C3205 C 0.02169 0.01625 0.35492 0.0
C3206 C 0.01781 0.02032 0.36969 0.0
C3207 C 0.00487 0.02645 0.37157 0.0
C3208 C 0.02604 0.01685 0.38349 0.0
C3209 C 0.03559 0.00971 0.35254 0.0
C3210 C 0.02251 1.00075 0.38791 0.0
C3211 C 0.02778 0.99766 0.40234 0.0
C3212 C 0.03675 0.01064 0.41257 0.0
C3213 C 0.04111 0.02665 0.40764 0.0
C3214 C 0.03563 0.02975 0.39326 0.0
H3215 H 0.03843 0.00948 0.34039 0.0
H3216 H 0.04601 0.01732 0.3597 0.0
H3217 H 0.03302 0.99699 0.35617 0.0
H3218 H 0.01491 0.99071 0.38054 0.0
H3219 H 0.02393 0.98523 0.40577 0.0
H3220 H 0.28331 0.70163 0.60441 0.0
H3221 H 0.28465 0.71483 0.62996 0.0
H3222 H 0.31717 0.68883 0.6458 0.0
H3223 H 0.31478 0.67437 0.62063 0.0
H3224 H 0.29617 0.68724 0.66508 0.0
H3225 H 0.31693 0.75207 0.65175 0.0
H3226 H 0.29912 0.74184 0.6406 0.0
H3227 H 0.31651 0.73528 0.63798 0.0
C3228 C 0.29067 0.69857 0.61332 0.0
C3229 C 0.29889 0.68683 0.61037 0.0
C3230 C 0.29166 0.70641 0.6279 0.0
C3231 C 0.30128 0.70312 0.63975 0.0
C3232 C 0.30976 0.69168 0.6368 0.0
H3233 H 0.31592 0.76232 0.72681 0.0
H3234 H 0.32016 0.74904 0.7026 0.0
C3235 C 0.30852 0.68355 0.6223 0.0
C3236 C 0.30167 0.71075 0.65543 0.0
H3237 H 0.30524 0.74732 0.67572 0.0
C3238 C 0.29838 0.70041 0.66743 0.0
C3239 C 0.30481 0.72795 0.6586 0.0
C3240 C 0.30971 0.73991 0.64656 0.0
C3241 C 0.29762 0.70673 0.68239 0.0
C3242 C 0.29964 0.72379 0.6853 0.0
C3243 C 0.30347 0.7342 0.67343 0.0
C3244 C 0.29744 0.73109 0.70045 0.0
C3245 C 0.2948 0.69505 0.69489 0.0
C3246 C 0.28326 0.7254 0.70728 0.0
C3247 C 0.28089 0.73282 0.72121 0.0
C3248 C 0.29252 0.74629 0.72839 0.0
C3249 C 0.30672 0.75197 0.72154 0.0
C3250 C 0.30916 0.74441 0.70771 0.0
H3251 H 0.29888 0.68405 0.69199 0.0
H3252 H 0.30084 0.70109 0.70596 0.0
H3253 H 0.28205 0.69074 0.69629 0.0
H3254 H 0.27387 0.71546 0.70167 0.0
H3255 H 0.26977 0.72826 0.72612 0.0
H3256 H 0.59094 0.01279 0.81259 0.0
H3257 H 0.57563 0.00953 0.8349 0.0
H3258 H 0.56922 0.95712 0.83021 0.0
H3259 H 0.58462 0.9603 0.80767 0.0
H3260 H 0.54444 0.98989 0.83861 0.0
H3261 H 0.59039 0.97198 0.87375 0.0
H3262 H 0.59445 0.98096 0.85582 0.0
H3263 H 0.58252 0.96018 0.85601 0.0
C3264 C 0.58607 1.00054 0.81614 0.0
C3265 C 0.58899 0.98681 0.80846 0.0
C3266 C 0.57735 0.99869 0.82888 0.0
C3267 C 0.57141 0.9831 0.83418 0.0
C3268 C 0.57388 0.96926 0.82633 0.0
H3269 H 0.54165 0.98854 0.92763 0.0
H3270 H 0.54329 0.97459 0.90279 0.0
C3271 C 0.58269 0.97111 0.81355 0.0
C3272 C 0.56353 0.98193 0.84852 0.0
H3273 H 0.57139 0.98053 0.88668 0.0
C3274 C 0.55004 0.98739 0.8491 0.0
C3275 C 0.57083 0.97849 0.86211 0.0
C3276 C 0.58538 0.97263 0.86203 0.0
C3277 C 0.54447 0.99093 0.86311 0.0
C3278 C 0.55272 0.98907 0.87674 0.0
C3279 C 0.5652 0.98201 0.87613 0.0
C3280 C 0.55048 0.99706 0.89142 0.0
C3281 C 0.53043 0.99762 0.86326 0.0
C3282 C 0.55428 0.01426 0.89319 0.0
C3283 C 0.55368 0.02226 0.90733 0.0
C3284 C 0.54924 0.01318 0.91998 0.0
C3285 C 0.54533 0.99589 0.91814 0.0
C3286 C 0.54607 0.98789 0.90396 0.0
H3287 H 0.52263 0.99337 0.85265 0.0
H3288 H 0.52361 0.99387 0.87328 0.0
H3289 H 0.53445 0.01125 0.86391 0.0
H3290 H 0.55814 0.02153 0.88368 0.0
H3291 H 0.55704 0.03557 0.90843 0.0
H3292 H 0.26311 0.30203 0.09671 0.0
H3293 H 0.26211 0.29459 0.12321 0.0
H3294 H 0.28899 0.34388 0.1388 0.0
H3295 H 0.28975 0.35153 0.11241 0.0
H3296 H 0.28709 0.29574 0.14457 0.0
H3297 H 0.25197 0.33626 0.16582 0.0
H3298 H 0.25333 0.33163 0.14571 0.0
H3299 H 0.26908 0.34655 0.15665 0.0
C3300 C 0.26867 0.31137 0.10577 0.0
C3301 C 0.27649 0.32742 0.10231 0.0
C3302 C 0.26815 0.30706 0.12094 0.0
C3303 C 0.27527 0.31871 0.1331 0.0
C3304 C 0.28315 0.33471 0.1297 0.0
H3305 H 0.28577 0.31367 0.23257 0.0
H3306 H 0.28544 0.32285 0.20664 0.0
C3307 C 0.28374 0.33902 0.11453 0.0
C3308 C 0.27488 0.31395 0.14924 0.0
H3309 H 0.26259 0.32232 0.18433 0.0
C3310 C 0.28167 0.30151 0.15323 0.0
C3311 C 0.26794 0.32156 0.16065 0.0
C3312 C 0.26004 0.33465 0.15702 0.0
C3313 C 0.28189 0.29661 0.16826 0.0
C3314 C 0.27473 0.30402 0.17965 0.0
C3315 C 0.26805 0.31657 0.17568 0.0
C3316 C 0.27392 0.29872 0.19562 0.0
C3317 C 0.29018 0.28381 0.17184 0.0
C3318 C 0.26703 0.28222 0.19826 0.0
C3319 C 0.26726 0.27694 0.21304 0.0
C3320 C 0.27417 0.28805 0.2257 0.0
C3321 C 0.28032 0.30475 0.22316 0.0
C3322 C 0.28019 0.31002 0.20829 0.0
H3323 H 0.29896 0.28317 0.16348 0.0
H3324 H 0.2962 0.28639 0.18348 0.0
H3325 H 0.28148 0.27156 0.17123 0.0
H3326 H 0.26166 0.27331 0.18882 0.0
H3327 H 0.26225 0.26401 0.21449 0.0
H3328 H 0.22497 0.95078 0.0366 0.0
H3329 H 0.20646 0.96686 0.04147 0.0
H3330 H 0.18672 0.95496 0.99492 0.0
H3331 H 0.20484 0.93848 0.99008 0.0
H3332 H 0.20446 0.99419 0.02558 0.0
H3333 H 0.14826 0.94496 0.02013 0.0
H3334 H 0.16699 0.94078 0.02311 0.0
H3335 H 0.16016 0.9444 0.00437 0.0
C3336 C 0.21641 0.95126 0.02753 0.0
C3337 C 0.21624 0.94334 0.01299 0.0
C3338 C 0.20597 0.96054 0.0303 0.0
C3339 C 0.19519 0.96189 0.01859 0.0
C3340 C 0.19482 0.95378 0.00415 0.0
H3341 H 0.12799 0.014 0.00061 0.0
H3342 H 0.14777 0.99893 -0.00019 0.0
C3343 C 0.20523 0.94451 0.00137 0.0
C3344 C 0.18491 0.97256 0.02114 0.0
H3345 H 0.14662 0.97251 0.01915 0.0
C3346 C 0.1918 0.98949 0.02438 0.0
C3347 C 0.16846 0.96626 0.01955 0.0
C3348 C 0.1605 0.94808 0.01674 0.0
C3349 C 0.18259 1.00044 0.02548 0.0
C3350 C 0.16616 0.99417 0.02342 0.0
C3351 C 0.15927 0.97721 0.0206 0.0
C3352 C 0.15578 0.00496 0.02367 0.0
C3353 C 0.19042 0.01864 0.02828 0.0
C3354 C 0.15408 0.01355 0.0373 0.0
C3355 C 0.14278 0.02214 0.0378 0.0
C3356 C 0.13303 0.02208 0.02469 0.0
C3357 C 0.13527 0.01406 0.0109 0.0
C3358 C 0.14654 0.00551 0.01042 0.0
H3359 H 0.2032 0.02168 0.02689 0.0
H3360 H 0.18508 0.02562 0.02032 0.0
H3361 H 0.18871 0.02281 0.0401 0.0
H3362 H 0.16101 0.01302 0.04767 0.0
H3363 H 0.14114 0.02809 0.04859 0.0
H3364 H 0.70327 0.63581 0.03 0.0
H3365 H 0.67679 0.61776 0.0311 0.0
H3366 H 0.68569 0.58412 0.99627 0.0
H3367 H 0.71235 0.60202 0.99523 0.0
H3368 H 0.65337 0.60725 0.00512 0.0
H3369 H 0.66832 0.55517 0.032 0.0
H3370 H 0.68173 0.57557 0.03315 0.0
H3371 H 0.67866 0.56265 0.0157 0.0
C3372 C 0.69968 0.62447 0.0227 0.0
C3373 C 0.70995 0.6203 0.01258 0.0
C3374 C 0.68452 0.61423 0.02329 0.0
C3375 C 0.67937 0.59955 0.01389 0.0
C3376 C 0.68953 0.59531 0.00375 0.0
H3377 H 0.58892 0.52451 0.00667 0.0
H3378 H 0.61629 0.5396 0.00415 0.0
C3379 C 0.7047 0.60561 0.00308 0.0
C3380 C 0.66315 0.58902 0.01441 0.0
H3381 H 0.64159 0.55224 0.02549 0.0
C3382 C 0.65078 0.59521 0.00954 0.0
C3383 C 0.65986 0.57327 0.02005 0.0
C3384 C 0.67279 0.56622 0.02563 0.0
C3385 C 0.63513 0.58609 0.01022 0.0
C3386 C 0.6318 0.57054 0.01633 0.0
C3387 C 0.64419 0.56419 0.02089 0.0
C3388 C 0.61552 0.56098 0.01849 0.0
C3389 C 0.62234 0.59313 0.00423 0.0
C3390 C 0.60617 0.56778 0.02775 0.0
C3391 C 0.59058 0.55926 0.02917 0.0
C3392 C 0.58403 0.54364 0.02149 0.0
C3393 C 0.5936 0.53652 0.01272 0.0
C3394 C 0.60923 0.54513 0.01125 0.0
H3395 H 0.62666 0.60241 0.99592 0.0
H3396 H 0.61228 0.58334 0.99859 0.0
H3397 H 0.61809 0.59934 0.01389 0.0
H3398 H 0.61091 0.57981 0.03377 0.0
H3399 H 0.5836 0.56504 0.03614 0.0
H3400 H 0.71298 0.46829 0.26917 0.0
H3401 H 0.72997 0.45069 0.26358 0.0
H3402 H 0.71138 0.42067 0.29978 0.0
H3403 H 0.69401 0.43793 0.30519 0.0
H3404 H 0.75288 0.44253 0.28376 0.0
H3405 H 0.70431 0.38833 0.26102 0.0
H3406 H 0.70196 0.4088 0.26337 0.0
H3407 H 0.70197 0.39695 0.27962 0.0
C3408 C 0.71242 0.45785 0.27585 0.0
C3409 C 0.70207 0.45433 0.2875 0.0
C3410 C 0.72221 0.44794 0.27273 0.0
C3411 C 0.72172 0.43436 0.28117 0.0
C3412 C 0.71171 0.43103 0.29305 0.0
H3413 H 0.76357 0.35516 0.2794 0.0
H3414 H 0.7501 0.37597 0.28554 0.0
C3415 C 0.70191 0.44094 0.29618 0.0
C3416 C 0.73152 0.42349 0.27736 0.0
H3417 H 0.72949 0.38425 0.26446 0.0
C3418 C 0.74784 0.4298 0.27947 0.0
C3419 C 0.72477 0.40698 0.27169 0.0
C3420 C 0.7073 0.39985 0.26865 0.0
C3421 C 0.75767 0.41977 0.27647 0.0
C3422 C 0.7509 0.40319 0.27104 0.0
C3423 C 0.73458 0.397 0.26869 0.0
C3424 C 0.76038 0.39173 0.26819 0.0
C3425 C 0.77514 0.42681 0.27954 0.0
C3426 C 0.77074 0.39391 0.25652 0.0
C3427 C 0.77847 0.38202 0.25299 0.0
C3428 C 0.77571 0.36779 0.26098 0.0
C3429 C 0.76568 0.36593 0.27293 0.0
C3430 C 0.75806 0.3778 0.27649 0.0
H3431 H 0.7782 0.43864 0.28671 0.0
H3432 H 0.7803 0.41803 0.28532 0.0
H3433 H 0.78056 0.42909 0.26852 0.0
H3434 H 0.77243 0.4045 0.24985 0.0
H3435 H 0.78611 0.38363 0.24369 0.0
H3436 H 0.85765 0.49119 0.47743 0.0
H3437 H 0.88475 0.50776 0.47594 0.0
H3438 H 0.89732 0.49306 0.51985 0.0
H3439 H 0.87062 0.47631 0.52132 0.0
H3440 H 0.91207 0.52769 0.51378 0.0
H3441 H 0.91687 0.48047 0.46857 0.0
H3442 H 0.90183 0.49076 0.46602 0.0
H3443 H 0.9007 0.47669 0.48062 0.0
C3444 C 0.86617 0.49168 0.48684 0.0
C3445 C 0.86202 0.48232 0.49943 0.0
C3446 C 0.88157 0.50121 0.486 0.0
C3447 C 0.89293 0.50147 0.49774 0.0
C3448 C 0.88861 0.49306 0.51074 0.0
H3449 H 0.98354 0.51227 0.53089 0.0
H3450 H 0.95651 0.51263 0.52557 0.0
C3451 C 0.87331 0.48353 0.51157 0.0
C3452 C 0.90969 0.50848 0.49589 0.0
H3453 H 0.94007 0.49774 0.48042 0.0
C3454 C 0.91824 0.52148 0.5062 0.0
C3455 C 0.9176 0.50036 0.48591 0.0
C3456 C 0.90887 0.48625 0.47465 0.0
C3457 C 0.93463 0.52589 0.5075 0.0
C3458 C 0.94249 0.51671 0.49855 0.0
C3459 C 0.93396 0.50465 0.48735 0.0
C3460 C 0.95917 0.51784 0.50189 0.0
C3461 C 0.9433 0.53991 0.51884 0.0
C3462 C 0.96946 0.52001 0.49018 0.0
C3463 C 0.98483 0.51939 0.49309 0.0
C3464 C 0.99012 0.51661 0.50778 0.0
C3465 C 0.97981 0.51449 0.51948 0.0
C3466 C 0.96442 0.51494 0.51652 0.0
H3467 H 0.93672 0.54926 0.52015 0.0
H3468 H 0.9445 0.53514 0.53018 0.0
H3469 H 0.95516 0.54598 0.51534 0.0
H3470 H 0.96554 0.52202 0.47876 0.0
H3471 H 0.99257 0.52119 0.48387 0.0
H3472 H 0.38443 0.11181 0.29831 0.0
H3473 H 0.36432 0.12602 0.29336 0.0
H3474 H 0.3516 0.09897 0.24927 0.0
H3475 H 0.37144 0.08449 0.25422 0.0
H3476 H 0.3616 0.14507 0.26729 0.0
H3477 H 0.30997 0.09133 0.27149 0.0
H3478 H 0.32935 0.09216 0.27941 0.0
H3479 H 0.32454 0.08805 0.25921 0.0
C3480 C 0.37729 0.10887 0.2876 0.0
C3481 C 0.37945 0.09708 0.27664 0.0
C3482 C 0.3659 0.11699 0.28479 0.0
C3483 C 0.35646 0.11332 0.27106 0.0
C3484 C 0.35871 0.10175 0.26 0.0
H3485 H 0.29836 0.17025 0.23367 0.0
H3486 H 0.31563 0.15247 0.2367 0.0
C3487 C 0.37012 0.09366 0.26278 0.0
C3488 C 0.34438 0.1218 0.26818 0.0
H3489 H 0.30489 0.11571 0.26362 0.0
C3490 C 0.3492 0.1387 0.26647 0.0
C3491 C 0.32828 0.11334 0.26727 0.0
C3492 C 0.32264 0.09523 0.26955 0.0
C3493 C 0.33823 0.14745 0.26372 0.0
C3494 C 0.32213 0.13894 0.26252 0.0
C3495 C 0.3173 0.12206 0.26439 0.0
C3496 C 0.31018 0.14763 0.25993 0.0
C3497 C 0.3439 0.16575 0.26235 0.0
C3498 C 0.30101 0.15009 0.27181 0.0
C3499 C 0.29107 0.16011 0.2701 0.0
C3500 C 0.29017 0.16771 0.25645 0.0
C3501 C 0.29872 0.16442 0.24425 0.0
C3502 C 0.30867 0.15441 0.246 0.0
H3503 H 0.35645 0.17087 0.26634 0.0
H3504 H 0.34246 0.16828 0.2502 0.0
H3505 H 0.33688 0.17228 0.26906 0.0
H3506 H 0.30205 0.14483 0.28261 0.0
H3507 H 0.28447 0.16235 0.2796 0.0
H3508 H 0.36311 0.14029 0.53766 0.0
H3509 H 0.38287 0.12517 0.53808 0.0
H3510 H 0.36903 0.10705 0.49113 0.0
H3511 H 0.34895 0.12176 0.49066 0.0
H3512 H 0.37783 0.09044 0.53184 0.0
H3513 H 0.41713 0.12667 0.49177 0.0
H3514 H 0.40254 0.13418 0.50105 0.0
H3515 H 0.39686 0.11921 0.48495 0.0
C3516 C 0.36414 0.13301 0.52743 0.0
C3517 C 0.35437 0.13231 0.51411 0.0
C3518 C 0.37554 0.12446 0.52768 0.0
C3519 C 0.37756 0.11517 0.51459 0.0
C3520 C 0.36788 0.11442 0.50128 0.0
H3521 H 0.43893 0.05416 0.49311 0.0
H3522 H 0.41995 0.07029 0.4925 0.0
C3523 C 0.35642 0.12289 0.50103 0.0
C3524 C 0.38946 0.10585 0.51502 0.0
H3525 H 0.42294 0.1026 0.4995 0.0
C3526 C 0.38774 0.09313 0.52483 0.0
C3527 C 0.40231 0.10933 0.50579 0.0
C3528 C 0.40497 0.12317 0.49537 0.0
C3529 C 0.39838 0.08358 0.52547 0.0
C3530 C 0.41134 0.08713 0.51633 0.0
C3531 C 0.41304 0.09988 0.50651 0.0
C3532 C 0.4232 0.07772 0.51671 0.0
C3533 C 0.39535 0.06948 0.53562 0.0
C3534 C 0.43161 0.0768 0.53045 0.0
C3535 C 0.44243 0.06755 0.53084 0.0
C3536 C 0.44524 0.05919 0.51744 0.0
C3537 C 0.43713 0.06053 0.50361 0.0
C3538 C 0.42623 0.0697 0.50325 0.0
H3539 H 0.38287 0.06545 0.53825 0.0
H3540 H 0.39854 0.05877 0.53024 0.0
H3541 H 0.40253 0.0735 0.5466 0.0
H3542 H 0.42983 0.08327 0.5409 0.0
H3543 H 0.44868 0.06703 0.54163 0.0
H3544 H 0.71646 0.60045 0.32968 0.0
H3545 H 0.73354 0.62853 0.32897 0.0
H3546 H 0.72356 0.62573 0.28017 0.0
H3547 H 0.70673 0.59773 0.28076 0.0
H3548 H 0.75624 0.64045 0.29135 0.0
H3549 H 0.71332 0.66674 0.32039 0.0
H3550 H 0.71995 0.65117 0.32951 0.0
H3551 H 0.70803 0.6459 0.31185 0.0
C3552 C 0.71814 0.60578 0.3188 0.0
C3553 C 0.71016 0.59709 0.3053 0.0
C3554 C 0.7278 0.62178 0.31843 0.0
C3555 C 0.72962 0.62915 0.30454 0.0
C3556 C 0.72223 0.6202 0.29098 0.0
H3557 H 0.74555 0.72182 0.27068 0.0
H3558 H 0.73652 0.69432 0.27952 0.0
C3559 C 0.71255 0.6043 0.29135 0.0
C3560 C 0.7383 0.64654 0.304 0.0
H3561 H 0.73452 0.68525 0.31058 0.0
C3562 C 0.75173 0.65032 0.29579 0.0
C3563 C 0.73217 0.65924 0.30972 0.0
C3564 C 0.71753 0.65568 0.3183 0.0
C3565 C 0.75887 0.66653 0.29259 0.0
C3566 C 0.75242 0.67916 0.29786 0.0
C3567 C 0.73939 0.67546 0.30663 0.0
C3568 C 0.75799 0.69597 0.29307 0.0
C3569 C 0.77271 0.66993 0.28288 0.0
C3570 C 0.77299 0.70596 0.29792 0.0
C3571 C 0.77823 0.72167 0.29285 0.0
C3572 C 0.76849 0.72761 0.2829 0.0
C3573 C 0.75336 0.7176 0.27828 0.0
C3574 C 0.74816 0.70192 0.28335 0.0
H3575 H 0.77479 0.65844 0.27786 0.0
H3576 H 0.77092 0.67754 0.27348 0.0
H3577 H 0.78339 0.67692 0.29002 0.0
H3578 H 0.78064 0.70158 0.30558 0.0
H3579 H 0.78992 0.72911 0.29669 0.0
H3580 H 0.87157 0.45276 0.75385 0.0
H3581 H 0.85573 0.42404 0.75001 0.0
H3582 H 0.85025 0.42321 0.79842 0.0
H3583 H 0.86631 0.45173 0.8024 0.0
H3584 H 0.86098 0.39717 0.78499 0.0
H3585 H 0.80778 0.40446 0.75334 0.0
H3586 H 0.82619 0.4146 0.74612 0.0
H3587 H 0.82158 0.42126 0.76463 0.0
C3588 C 0.86695 0.44645 0.76366 0.0
C3589 C 0.87015 0.45448 0.77843 0.0
C3590 C 0.85779 0.43014 0.76143 0.0
C3591 C 0.85171 0.42165 0.77392 0.0
C3592 C 0.85476 0.42966 0.78864 0.0
H3593 H 0.78654 0.326 0.77862 0.0
H3594 H 0.79978 0.35545 0.78 0.0
C3595 C 0.86385 0.44595 0.79087 0.0
C3596 C 0.84301 0.40409 0.77185 0.0
H3597 H 0.80931 0.37721 0.75562 0.0
C3598 C 0.84968 0.39278 0.77858 0.0
C3599 C 0.82824 0.39852 0.76357 0.0
C3600 C 0.82041 0.41031 0.75658 0.0
C3601 C 0.842 0.37594 0.77717 0.0
C3602 C 0.82737 0.37032 0.76865 0.0
C3603 C 0.8206 0.38163 0.76203 0.0
C3604 C 0.81884 0.35271 0.76679 0.0
C3605 C 0.84946 0.36431 0.78499 0.0
C3606 C 0.82506 0.34156 0.75861 0.0
C3607 C 0.81757 0.32476 0.75782 0.0
C3608 C 0.80371 0.31885 0.76516 0.0
C3609 C 0.79724 0.33014 0.7729 0.0
C3610 C 0.80475 0.34696 0.77368 0.0
H3611 H 0.85896 0.37091 0.7937 0.0
H3612 H 0.84061 0.35505 0.79061 0.0
H3613 H 0.85459 0.35765 0.77635 0.0
H3614 H 0.83583 0.34586 0.75305 0.0
H3615 H 0.82279 0.31641 0.75163 0.0
H3616 H 0.06053 0.85442 0.06071 0.0
H3617 H 0.05797 0.87958 0.04978 0.0
H3618 H 0.0552 0.90109 0.09483 0.0
H3619 H 0.05813 0.87623 0.10593 0.0
H3620 H 0.02931 0.89942 0.06701 0.0
H3621 H 0.09208 0.92924 0.05895 0.0
H3622 H 0.0843 0.90729 0.05496 0.0
H3623 H 0.08627 0.91608 0.07425 0.0
C3624 C 0.05961 0.86458 0.06833 0.0
C3625 C 0.05949 0.86323 0.08422 0.0
C3626 C 0.05808 0.87891 0.06205 0.0
C3627 C 0.05642 0.89215 0.07152 0.0
C3628 C 0.05644 0.89096 0.08735 0.0
H3629 H 0.05848 0.99223 0.05337 0.0
H3630 H 0.06258 0.96733 0.06344 0.0
C3631 C 0.05801 0.87669 0.09365 0.0
C3632 C 0.05415 0.90707 0.06491 0.0
H3633 H 0.07379 0.94308 0.05095 0.0
C3634 C 0.039 0.90897 0.06344 0.0
C3635 C 0.06685 0.91953 0.06046 0.0
C3636 C 0.08336 0.9181 0.06222 0.0
C3637 C 0.03618 0.92304 0.05758 0.0
C3638 C 0.04887 0.93544 0.05285 0.0
C3639 C 0.06406 0.93355 0.05446 0.0
C3640 C 0.04663 0.95056 0.04643 0.0
C3641 C 0.01969 0.92463 0.05687 0.0
C3642 C 0.03654 0.94948 0.03334 0.0
C3643 C 0.03406 0.96369 0.02764 0.0
C3644 C 0.04182 0.97933 0.03476 0.0
C3645 C 0.05228 0.98041 0.04761 0.0
C3646 C 0.05465 0.96617 0.05338 0.0
H3647 H 0.01236 0.91661 0.06477 0.0
H3648 H 0.01958 0.93752 0.05977 0.0
H3649 H 0.0142 0.92082 0.04511 0.0
H3650 H 0.03054 0.93763 0.02751 0.0
H3651 H 0.02606 0.96238 0.01762 0.0
H3652 H 0.93256 0.23366 0.84319 0.0
H3653 H 0.90882 0.23434 0.82805 0.0
H3654 H 0.8994 0.26774 0.8628 0.0
H3655 H 0.92292 0.26693 0.87811 0.0
H3656 H 0.87279 0.24041 0.85116 0.0
H3657 H 0.90452 0.27493 0.8053 0.0
H3658 H 0.91003 0.25686 0.81011 0.0
H3659 H 0.9139 0.27425 0.82389 0.0
C3660 C 0.92535 0.24103 0.84766 0.0
C3661 C 0.92969 0.25034 0.8618 0.0
C3662 C 0.91188 0.24151 0.83895 0.0
C3663 C 0.9025 0.25127 0.84423 0.0
C3664 C 0.90656 0.26023 0.85848 0.0
H3665 H 0.81803 0.27493 0.81217 0.0
H3666 H 0.84057 0.2712 0.82714 0.0
C3667 C 0.92005 0.25983 0.86716 0.0
C3668 C 0.88847 0.25225 0.83489 0.0
H3669 H 0.87696 0.26637 0.80192 0.0
C3670 C 0.87366 0.24607 0.84039 0.0
C3671 C 0.8897 0.25963 0.82084 0.0
C3672 C 0.90537 0.26693 0.81467 0.0
C3673 C 0.85999 0.24692 0.83213 0.0
C3674 C 0.86123 0.2545 0.81817 0.0
C3675 C 0.87604 0.26057 0.81262 0.0
C3676 C 0.84733 0.25647 0.80921 0.0
C3677 C 0.84435 0.23945 0.83829 0.0
C3678 C 0.84384 0.24975 0.79403 0.0
C3679 C 0.83103 0.25196 0.78538 0.0
C3680 C 0.8215 0.26106 0.79172 0.0
C3681 C 0.82507 0.26782 0.80693 0.0
C3682 C 0.83789 0.26559 0.81556 0.0
H3683 H 0.84508 0.23021 0.84653 0.0
H3684 H 0.84041 0.24929 0.84438 0.0
H3685 H 0.83536 0.23346 0.82892 0.0
H3686 H 0.85103 0.24276 0.78887 0.0
H3687 H 0.82867 0.24663 0.7737 0.0
H3688 H 0.53205 0.189 0.58872 0.0
H3689 H 0.53073 0.16128 0.57814 0.0
H3690 H 0.57244 0.18061 0.55483 0.0
H3691 H 0.57382 0.20841 0.56529 0.0
H3692 H 0.52856 0.14846 0.54779 0.0
H3693 H 0.58347 0.14489 0.57876 0.0
H3694 H 0.57398 0.16057 0.58376 0.0
H3695 H 0.58556 0.16224 0.56751 0.0
C3696 C 0.54085 0.18741 0.5812 0.0
C3697 C 0.55308 0.20096 0.57791 0.0
C3698 C 0.54013 0.17153 0.57523 0.0
C3699 C 0.55164 0.16884 0.56592 0.0
C3700 C 0.56364 0.18235 0.56229 0.0
H3701 H 0.56459 0.07811 0.52279 0.0
H3702 H 0.56751 0.10691 0.53138 0.0
C3703 C 0.5644 0.19824 0.56827 0.0
C3704 C 0.55098 0.15187 0.55998 0.0
H3705 H 0.57071 0.12253 0.56102 0.0
C3706 C 0.53777 0.14279 0.55068 0.0
C3707 C 0.56305 0.14452 0.56371 0.0
C3708 C 0.57727 0.15347 0.57409 0.0
C3709 C 0.53631 0.12657 0.54498 0.0
C3710 C 0.54825 0.11912 0.54893 0.0
C3711 C 0.56158 0.12827 0.55802 0.0
C3712 C 0.54683 0.10166 0.54413 0.0
C3713 C 0.52206 0.11762 0.53464 0.0
C3714 C 0.53449 0.08914 0.54878 0.0
C3715 C 0.53278 0.07272 0.54392 0.0
C3716 C 0.54347 0.06842 0.53438 0.0
C3717 C 0.55613 0.08096 0.53011 0.0
C3718 C 0.55781 0.09743 0.53499 0.0
H3719 H 0.51642 0.1263 0.52929 0.0
H3720 H 0.52514 0.10973 0.52545 0.0
H3721 H 0.51336 0.10963 0.54145 0.0
H3722 H 0.52609 0.09208 0.55613 0.0
H3723 H 0.52294 0.06342 0.54753 0.0
H3724 H 0.57223 0.73594 0.36041 0.0
H3725 H 0.59555 0.7376 0.34642 0.0
H3726 H 0.60857 0.7905 0.35354 0.0
H3727 H 0.5851 0.78892 0.36733 0.0
H3728 H 0.61192 0.78075 0.32464 0.0
H3729 H 0.64008 0.74688 0.36393 0.0
H3730 H 0.62071 0.73526 0.35685 0.0
H3731 H 0.62347 0.75397 0.36882 0.0
C3732 C 0.58013 0.74792 0.35909 0.0
C3733 C 0.57687 0.7623 0.36504 0.0
C3734 C 0.59349 0.74885 0.35115 0.0
C3735 C 0.60401 0.76415 0.34921 0.0
C3736 C 0.60067 0.77855 0.35496 0.0
H3737 H 0.698 0.7789 0.31827 0.0
H3738 H 0.67544 0.77784 0.33329 0.0
C3739 C 0.58723 0.77763 0.36279 0.0
C3740 C 0.61827 0.76518 0.34083 0.0
H3741 H 0.65102 0.75163 0.33988 0.0
C3742 C 0.62051 0.77445 0.32803 0.0
C3743 C 0.62962 0.75718 0.34539 0.0
C3744 C 0.62846 0.74791 0.35959 0.0
C3745 C 0.63357 0.77562 0.31945 0.0
C3746 C 0.64452 0.767 0.32359 0.0
C3747 C 0.6425 0.75805 0.3366 0.0
C3748 C 0.65817 0.76714 0.31457 0.0
C3749 C 0.63564 0.78629 0.30617 0.0
C3750 C 0.65595 0.76112 0.29916 0.0
C3751 C 0.6688 0.76162 0.29056 0.0
C3752 C 0.68417 0.76807 0.29723 0.0
C3753 C 0.68635 0.77371 0.3128 0.0
C3754 C 0.67347 0.7732 0.32139 0.0
H3755 H 0.62885 0.79548 0.30711 0.0
H3756 H 0.64816 0.7929 0.30539 0.0
H3757 H 0.63138 0.77844 0.2954 0.0
H3758 H 0.64425 0.75601 0.29376 0.0
H3759 H 0.66669 0.75688 0.2787 0.0
H3760 H 0.03929 0.19313 0.44918 0.0
H3761 H 0.0392 0.16837 0.46214 0.0
H3762 H 0.02549 0.13904 0.41941 0.0
H3763 H 0.02616 0.16373 0.40626 0.0
H3764 H 0.01786 0.14102 0.46743 0.0
H3765 H 0.05974 0.12022 0.43275 0.0
H3766 H 0.05651 0.14018 0.43136 0.0
H3767 H 0.04314 0.12221 0.42136 0.0
C3768 C 0.03648 0.18153 0.44234 0.0
C3769 C 0.03285 0.18099 0.42637 0.0
C3770 C 0.03631 0.16713 0.44992 0.0
C3771 C 0.03266 0.15139 0.44197 0.0
C3772 C 0.02881 0.15077 0.42607 0.0
H3773 H 0.02579 0.04936 0.46876 0.0
H3774 H 0.02565 0.07388 0.45526 0.0
C3775 C 0.02896 0.16514 0.41848 0.0
C3776 C 0.03255 0.13582 0.45029 0.0
H3777 H 0.04619 0.10137 0.44961 0.0
C3778 C 0.02418 0.13248 0.46349 0.0
C3779 C 0.04062 0.12419 0.44547 0.0
C3780 C 0.05064 0.12692 0.43206 0.0
C3781 C 0.02338 0.11817 0.47154 0.0
C3782 C 0.03151 0.10658 0.46677 0.0
C3783 C 0.03985 0.1099 0.45355 0.0
C3784 C 0.0316 0.09117 0.47527 0.0
C3785 C 0.01324 0.11541 0.48487 0.0
C3786 C 0.03524 0.09207 0.49122 0.0
C3787 C 0.03525 0.0779 0.49905 0.0
C3788 C 0.03181 0.06204 0.49134 0.0
C3789 C 0.02844 0.06113 0.47534 0.0
C3790 C 0.02839 0.07534 0.4675 0.0
H3791 H 1.00395 0.12186 0.48393 0.0
H3792 H 0.00757 0.10213 0.48571 0.0
H3793 H 0.02059 0.12042 0.49559 0.0
H3794 H 0.03833 0.10388 0.49775 0.0
H3795 H 0.03812 0.07948 0.51127 0.0
H3796 H 0.60533 0.2571 0.20906 0.0
H3797 H 0.63098 0.25625 0.21984 0.0
H3798 H 0.65298 0.29906 0.19691 0.0
H3799 H 0.62739 0.30011 0.18625 0.0
H3800 H 0.65622 0.25122 0.21041 0.0
H3801 H 0.67629 0.31494 0.23645 0.0
H3802 H 0.65649 0.30607 0.22847 0.0
H3803 H 0.6719 0.31438 0.21627 0.0
C3804 C 0.61553 0.26642 0.2062 0.0
C3805 C 0.61371 0.27878 0.19665 0.0
C3806 C 0.63046 0.26594 0.21253 0.0
C3807 C 0.64447 0.2778 0.20975 0.0
C3808 C 0.64271 0.28998 0.19999 0.0
H3809 H 0.74662 0.29219 0.23501 0.0
H3810 H 0.72098 0.29351 0.2242 0.0
C3811 C 0.62779 0.29053 0.19373 0.0
C3812 C 0.66066 0.27709 0.21665 0.0
H3813 H 0.69556 0.30033 0.23543 0.0
C3814 C 0.66468 0.26204 0.21596 0.0
C3815 C 0.67222 0.29098 0.22406 0.0
C3816 C 0.66898 0.30746 0.22652 0.0
C3817 C 0.67947 0.26057 0.22191 0.0
C3818 C 0.69103 0.27447 0.22922 0.0
C3819 C 0.68706 0.28953 0.2299 0.0
C3820 C 0.70713 0.27365 0.23615 0.0
C3821 C 0.68268 0.24405 0.21982 0.0
C3822 C 0.70858 0.26229 0.24692 0.0
C3823 C 0.72341 0.26156 0.25324 0.0
C3824 C 0.73763 0.27216 0.24916 0.0
C3825 C 0.73619 0.28367 0.23854 0.0
C3826 C 0.72133 0.28447 0.23229 0.0
H3827 H 0.6751 0.23618 0.21024 0.0
H3828 H 0.6951 0.24538 0.21758 0.0
H3829 H 0.68019 0.23759 0.23039 0.0
H3830 H 0.69815 0.25399 0.25066 0.0
H3831 H 0.7237 0.25255 0.26138 0.0
H3832 H 0.54311 0.8438 0.95238 0.0
H3833 H 0.54183 0.86982 0.9652 0.0
H3834 H 0.5318 0.88686 0.9217 0.0
H3835 H 0.53286 0.8609 0.90886 0.0
H3836 H 0.55735 0.90072 0.96605 0.0
H3837 H 0.49811 0.89897 0.94259 0.0
H3838 H 0.50593 0.8816 0.93998 0.0
H3839 H 0.51098 0.89828 0.92775 0.0
C3840 C 0.54064 0.85301 0.94541 0.0
C3841 C 0.53795 0.84971 0.92936 0.0
C3842 C 0.53985 0.86808 0.95288 0.0
C3843 C 0.53629 0.88063 0.9447 0.0
C3844 C 0.53396 0.8775 0.92864 0.0
H3845 H 0.52986 0.98226 0.97028 0.0
H3846 H 0.53113 0.95641 0.95682 0.0
C3847 C 0.53465 0.86241 0.92119 0.0
C3848 C 0.53541 0.89691 0.95288 0.0
H3849 H 0.51301 0.92427 0.95562 0.0
C3850 C 0.54754 0.90569 0.96376 0.0
C3851 C 0.52274 0.90393 0.95018 0.0
C3852 C 0.50863 0.89514 0.93962 0.0
C3853 C 0.54753 0.92095 0.97154 0.0
C3854 C 0.53491 0.92797 0.96879 0.0
C3855 C 0.5228 0.91925 0.95789 0.0
C3856 C 0.53397 0.94408 0.97718 0.0
C3857 C 0.56142 0.92965 0.9824 0.0
C3858 C 0.53485 0.94622 0.9933 0.0
C3859 C 0.53404 0.96109 0.00108 0.0
C3860 C 0.53227 0.97457 0.99314 0.0
C3861 C 0.53122 0.97238 0.97699 0.0
C3862 C 0.53195 0.95743 0.9692 0.0
H3863 H 0.57194 0.92558 0.9799 0.0
H3864 H 0.56432 0.94318 0.98186 0.0
H3865 H 0.55862 0.92676 0.99424 0.0
H3866 H 0.53601 0.93627 -1e-05 0.0
H3867 H 0.53485 0.96198 0.01344 0.0
H3868 H 0.938 0.74561 0.69072 0.0
H3869 H 0.91329 0.74496 0.70191 0.0
H3870 H 0.93008 0.79688 0.71448 0.0
H3871 H 0.95479 0.79769 0.70343 0.0
H3872 H 0.90333 0.74991 0.72904 0.0
H3873 H 0.88899 0.79771 0.69592 0.0
H3874 H 0.90495 0.78934 0.69158 0.0
H3875 H 0.90746 0.80528 0.70679 0.0
C3876 C 0.93669 0.75702 0.69587 0.0
C3877 C 0.94902 0.77176 0.69574 0.0
C3878 C 0.92221 0.75661 0.70234 0.0
C3879 C 0.91906 0.77092 0.70897 0.0
C3880 C 0.93144 0.78558 0.70911 0.0
H3881 H 0.83904 0.79509 0.75368 0.0
H3882 H 0.86372 0.79489 0.74276 0.0
C3883 C 0.9459 0.78601 0.70267 0.0
C3884 C 0.9032 0.77042 0.71586 0.0
H3885 H 0.87332 0.78931 0.71655 0.0
C3886 C 0.89682 0.75853 0.72614 0.0
C3887 C 0.89415 0.7815 0.71246 0.0
C3888 C 0.89912 0.79406 0.70098 0.0
C3889 C 0.88249 0.75773 0.73317 0.0
C3890 C 0.87345 0.76884 0.72979 0.0
C3891 C 0.87981 0.78067 0.71947 0.0
C3892 C 0.85773 0.76865 0.73687 0.0
C3893 C 0.87756 0.74521 0.74471 0.0
C3894 C 0.84529 0.7541 0.73743 0.0
C3895 C 0.83092 0.75418 0.74391 0.0
C3896 C 0.82808 0.76885 0.75005 0.0
C3897 C 0.84043 0.78341 0.7493 0.0
C3898 C 0.85478 0.78331 0.74289 0.0
H3899 H 0.88771 0.74154 0.74972 0.0
H3900 H 0.87182 0.75 0.75414 0.0
H3901 H 0.86918 0.73399 0.73896 0.0
H3902 H 0.84648 0.74252 0.73258 0.0
H3903 H 0.82191 0.74265 0.74393 0.0
H3904 H 0.11965 0.99289 0.88545 0.0
H3905 H 0.10281 0.99093 0.90668 0.0
H3906 H 0.0641 0.99251 0.87568 0.0
H3907 H 0.08102 0.99487 0.85436 0.0
H3908 H 0.06997 0.01539 0.90098 0.0
H3909 H 0.06687 0.95311 0.91866 0.0
H3910 H 0.08655 0.96504 0.91652 0.0
H3911 H 0.07267 0.95951 0.90011 0.0
C3912 C 0.10753 0.99271 0.88316 0.0
C3913 C 0.10161 0.99404 0.86831 0.0
C3914 C 0.09789 0.99138 0.89523 0.0
C3915 C 0.08218 0.99126 0.89263 0.0
C3916 C 0.07616 0.99235 0.8778 0.0
H3917 H 0.02249 0.00462 0.96571 0.0
H3918 H 0.03017 0.99782 0.9404 0.0
C3919 C 0.08579 0.99365 0.86569 0.0
C3920 C 0.07264 0.99165 0.90571 0.0
H3921 H 0.06143 0.97215 0.93769 0.0
C3922 C 0.06775 0.0058 0.90886 0.0
C3923 C 0.06982 0.97907 0.91587 0.0
C3924 C 0.07412 0.96325 0.91255 0.0
C3925 C 0.06099 0.00819 0.92251 0.0
C3926 C 0.05896 0.99599 0.93305 0.0
C3927 C 0.06311 0.98147 0.92954 0.0
C3928 C 0.05383 0.99877 0.94833 0.0
C3929 C 0.05689 0.02411 0.92595 0.0
C3930 C 0.06455 1.0011 0.96109 0.0
C3931 C 0.06026 0.00498 0.97554 0.0
C3932 C 0.04514 0.00652 0.9774 0.0
C3933 C 0.03427 0.00364 0.96462 0.0
C3934 C 0.0386 0.99977 0.95017 0.0
H3935 H 0.06133 0.03325 0.91756 0.0
H3936 H 0.04397 0.02163 0.92565 0.0
H3937 H 0.06178 0.0296 0.93757 0.0
H3938 H 0.07637 1.00034 0.95979 0.0
H3939 H 0.06886 0.00704 0.98517 0.0
H3940 H 0.80526 0.38615 0.58431 0.0
H3941 H 0.81081 0.37305 0.60702 0.0
H3942 H 0.81784 0.33272 0.57865 0.0
H3943 H 0.81333 0.34627 0.55582 0.0
H3944 H 0.79421 0.34431 0.61537 0.0
H3945 H 0.85519 0.34198 0.609 0.0
H3946 H 0.84608 0.35438 0.59769 0.0
H3947 H 0.84221 0.33269 0.59261 0.0
C3948 C 0.8084 0.37472 0.58285 0.0
C3949 C 0.80891 0.36731 0.5682 0.0
C3950 C 0.81144 0.36718 0.59587 0.0
C3951 C 0.81496 0.35204 0.59453 0.0
C3952 C 0.81552 0.3446 0.57996 0.0
H3953 H 0.81204 0.2781 0.65789 0.0
H3954 H 0.8136 0.29376 0.63528 0.0
C3955 C 0.81266 0.35224 0.56691 0.0
C3956 C 0.81684 0.34351 0.60838 0.0
H3957 H 0.84131 0.32562 0.62776 0.0
C3958 C 0.80458 0.34038 0.61814 0.0
C3959 C 0.83039 0.33839 0.61195 0.0
C3960 C 0.84428 0.34217 0.60234 0.0
C3961 C 0.80537 0.332 0.63125 0.0
C3962 C 0.81875 0.32663 0.63464 0.0
C3963 C 0.83107 0.32978 0.625 0.0
C3964 C 0.81985 0.31747 0.64812 0.0
C3965 C 0.79184 0.32872 0.64134 0.0
C3966 C 0.82322 0.32575 0.6627 0.0
C3967 C 0.82247 0.31689 0.67562 0.0
C3968 C 0.81825 0.2996 0.67413 0.0
C3969 C 0.81549 0.2914 0.65942 0.0
C3970 C 0.81631 0.3003 0.64651 0.0
H3971 H 0.78167 0.33232 0.63632 0.0
H3972 H 0.78803 0.31546 0.64338 0.0
H3973 H 0.79567 0.33574 0.6526 0.0
H3974 H 0.826 0.33904 0.66407 0.0
H3975 H 0.82491 0.32356 0.68679 0.0
H3976 H 0.47837 0.08066 0.36836 0.0
H3977 H 0.49383 0.08475 0.3929 0.0
H3978 H 0.51248 0.04459 0.37927 0.0
H3979 H 0.4972 0.04054 0.35469 0.0
H3980 H 0.48714 0.05731 0.41104 0.0
H3981 H 0.55053 0.07913 0.40238 0.0
H3982 H 0.53557 0.08239 0.38918 0.0
H3983 H 0.53953 0.06271 0.3889 0.0
C3984 C 0.48618 0.07308 0.37042 0.0
C3985 C 0.48652 0.06018 0.35977 0.0
C3986 C 0.49499 0.07544 0.38439 0.0
C3987 C 0.50438 0.06509 0.38776 0.0
C3988 C 0.50552 0.0529 0.37674 0.0
H3989 H 0.54104 0.02551 0.46244 0.0
H3990 H 0.53595 0.03621 0.43803 0.0
C3991 C 0.49665 0.05046 0.36282 0.0
C3992 C 0.51049 0.06478 0.40358 0.0
H3993 H 0.54365 0.06638 0.42561 0.0
C3994 C 0.49952 0.05964 0.41437 0.0
C3995 C 0.5266 0.06757 0.40767 0.0
C3996 C 0.53878 0.07339 0.39647 0.0
C3997 C 0.50414 0.05637 0.429 0.0
C3998 C 0.52026 0.05888 0.43308 0.0
C3999 C 0.53132 0.06457 0.42244 0.0
C4000 C 0.52561 0.05441 0.44794 0.0
C4001 C 0.49162 0.0493 0.4396 0.0
C4002 C 0.52199 0.06154 0.46157 0.0
C4003 C 0.52453 0.05521 0.47542 0.0
C4004 C 0.53111 0.04195 0.47586 0.0
C4005 C 0.53586 0.03568 0.46237 0.0
C4006 C 0.53303 0.04182 0.44846 0.0
H4007 H 0.47989 0.04444 0.43339 0.0
H4008 H 0.49438 0.03921 0.44566 0.0
H4009 H 0.49092 0.05909 0.44827 0.0
H4010 H 0.51659 0.07153 0.4614 0.0
H4011 H 0.52106 0.06048 0.48573 0.0
H4012 H 0.8156 0.73892 0.09701 0.0
H4013 H 0.81391 0.74644 0.12409 0.0
H4014 H 0.76644 0.71551 0.12169 0.0
H4015 H 0.76817 0.70753 0.09481 0.0
H4016 H 0.79406 0.76166 0.13848 0.0
H4017 H 0.78637 0.69927 0.15816 0.0
H4018 H 0.79265 0.70451 0.13949 0.0
H4019 H 0.77228 0.70017 0.14309 0.0
C4020 C 0.80483 0.73358 0.10225 0.0
C4021 C 0.79204 0.72254 0.0936 0.0
C4022 C 0.80385 0.73798 0.11775 0.0
C4023 C 0.79013 0.73137 0.12508 0.0
C4024 C 0.77727 0.72057 0.11644 0.0
H4025 H 0.76543 0.76837 0.21288 0.0
H4026 H 0.76702 0.76079 0.18583 0.0
C4027 C 0.77822 0.71618 0.10095 0.0
C4028 C 0.78923 0.73585 0.14169 0.0
H4029 H 0.78265 0.7196 0.17623 0.0
C4030 C 0.79159 0.75246 0.14673 0.0
C4031 C 0.78621 0.72391 0.15257 0.0
C4032 C 0.78438 0.70598 0.14813 0.0
C4033 C 0.79076 0.75739 0.1622 0.0
C4034 C 0.78725 0.74539 0.173 0.0
C4035 C 0.78516 0.72881 0.168 0.0
C4036 C 0.78603 0.74978 0.18956 0.0
C4037 C 0.79397 0.77548 0.1669 0.0
C4038 C 0.79584 0.74573 0.20084 0.0
C4039 C 0.79489 0.74996 0.21637 0.0
C4040 C 0.78401 0.75827 0.22107 0.0
C4041 C 0.77401 0.76206 0.20976 0.0
C4042 C 0.77498 0.75783 0.19422 0.0
H4043 H 0.80048 0.78322 0.15832 0.0
H4044 H 0.78268 0.77849 0.16793 0.0
H4045 H 0.80082 0.77875 0.17813 0.0
H4046 H 0.80441 0.73946 0.1976 0.0
H4047 H 0.8028 0.7468 0.22468 0.0
H4048 H 0.10954 0.0399 0.73239 0.0
H4049 H 0.09401 0.04083 0.7089 0.0
H4050 H 0.07905 0.98779 0.70364 0.0
H4051 H 0.09487 0.98681 0.72707 0.0
H4052 H 0.08902 1.00041 0.67786 0.0
H4053 H 0.0476 0.0325 0.70023 0.0
H4054 H 0.06742 0.04387 0.70592 0.0
H4055 H 0.05956 0.02378 0.71255 0.0
C4056 C 0.10275 0.02845 0.72634 0.0
C4057 C 0.10333 0.01328 0.73151 0.0
C4058 C 0.09381 0.02899 0.71299 0.0
C4059 C 0.0851 0.01438 0.70474 0.0
C4060 C 0.08559 0.99919 0.70994 0.0
H4061 H 0.02654 0.02222 0.62358 0.0
H4062 H 0.03456 0.01482 0.64867 0.0
C4063 C 0.09466 0.99865 0.72324 0.0
C4064 C 0.07656 0.01508 0.69006 0.0
H4065 H 0.05151 0.03399 0.67324 0.0
C4066 C 0.0806 0.0075 0.67687 0.0
C4067 C 0.06536 0.02406 0.68882 0.0
C4068 C 0.05961 0.03134 0.70268 0.0
C4069 C 0.07443 0.0095 0.66237 0.0
C4070 C 0.06432 0.0197 0.66107 0.0
C4071 C 0.05951 0.02643 0.67429 0.0
C4072 C 0.05938 0.02429 0.6461 0.0
C4073 C 0.07898 1.00085 0.64859 0.0
C4074 C 0.07069 0.03243 0.63662 0.0
C4075 C 0.06617 0.03663 0.62236 0.0
C4076 C 0.05024 0.03296 0.61745 0.0
C4077 C 0.0389 0.02527 0.62716 0.0
C4078 C 0.04344 0.02097 0.64141 0.0
H4079 H 0.08228 0.98965 0.65163 0.0
H4080 H 0.06929 0.99727 0.63946 0.0
H4081 H 0.08928 0.00923 0.64396 0.0
H4082 H 0.08303 0.03554 0.64026 0.0
H4083 H 0.07512 0.0428 0.61519 0.0
H4084 H 0.75434 0.3455 0.42534 0.0
H4085 H 0.75142 0.33105 0.3999 0.0
H4086 H 0.79713 0.36066 0.39047 0.0
H4087 H 0.80007 0.37534 0.41572 0.0
H4088 H 0.75393 0.34421 0.36972 0.0
H4089 H 0.79863 0.31188 0.38461 0.0
H4090 H 0.78951 0.32158 0.39889 0.0
H4091 H 0.80487 0.33382 0.38866 0.0
C4092 C 0.76369 0.34906 0.41778 0.0
C4093 C 0.7775 0.36145 0.42258 0.0
C4094 C 0.76201 0.34078 0.40329 0.0
C4095 C 0.77414 0.34471 0.39346 0.0
C4096 C 0.78775 0.35733 0.39804 0.0
H4097 H 0.77793 0.31712 0.29784 0.0
H4098 H 0.77577 0.33154 0.32222 0.0
C4099 C 0.78944 0.36562 0.41248 0.0
C4100 C 0.77283 0.33528 0.37858 0.0
H4101 H 0.78927 0.3094 0.35862 0.0
C4102 C 0.76158 0.33652 0.36726 0.0
C4103 C 0.78272 0.32515 0.37557 0.0
C4104 C 0.79454 0.32286 0.38759 0.0
C4105 C 0.7602 0.32809 0.35278 0.0
C4106 C 0.77045 0.31838 0.34963 0.0
C4107 C 0.78148 0.31693 0.36108 0.0
C4108 C 0.77008 0.30959 0.33454 0.0
C4109 C 0.74771 0.32951 0.34106 0.0
C4110 C 0.76763 0.2925 0.33345 0.0
C4111 C 0.76903 0.28427 0.31962 0.0
C4112 C 0.77294 0.29299 0.30664 0.0
C4113 C 0.77487 0.31005 0.30763 0.0
C4114 C 0.77354 0.3183 0.32152 0.0
H4115 H 0.73835 0.33374 0.34645 0.0
H4116 H 0.75309 0.33861 0.33298 0.0
H4117 H 0.74233 0.31755 0.33441 0.0
H4118 H 0.76499 0.28559 0.3434 0.0
H4119 H 0.76738 0.27111 0.31923 0.0
H4120 H 0.49642 0.07111 0.23016 0.0
H4121 H 0.51546 0.07289 0.2107 0.0
H4122 H 0.49847 0.02045 0.2 0.0
H4123 H 0.47955 0.01858 0.21932 0.0
H4124 H 0.53184 0.03314 0.20264 0.0
H4125 H 0.50227 0.06767 0.16456 0.0
H4126 H 0.50834 0.07612 0.18389 0.0
H4127 H 0.4928 0.05744 0.18031 0.0
C4128 C 0.49676 0.06 0.22359 0.0
C4129 C 0.48651 0.04471 0.22617 0.0
C4130 C 0.50765 0.06103 0.21257 0.0
C4131 C 0.50828 0.04681 0.20394 0.0
C4132 C 0.49821 0.03154 0.20667 0.0
H4133 H 0.52387 0.99849 0.12824 0.0
H4134 H 0.52403 0.00946 0.15442 0.0
C4135 C 0.48742 0.03049 0.21768 0.0
C4136 C 0.51871 0.04757 0.19141 0.0
H4137 H 0.52078 0.05617 0.15414 0.0
C4138 C 0.52976 0.03853 0.19213 0.0
C4139 C 0.51605 0.05479 0.17782 0.0
C4140 C 0.50419 0.06451 0.17645 0.0
C4141 C 0.53727 0.03537 0.17918 0.0
C4142 C 0.53347 0.04127 0.16523 0.0
C4143 C 0.52362 0.05165 0.16489 0.0
C4144 C 0.53688 0.03431 0.15047 0.0
C4145 C 0.54852 0.02498 0.18033 0.0
C4146 C 0.54427 0.04462 0.13961 0.0
C4147 C 0.54428 0.03833 0.12456 0.0
C4148 C 0.53665 0.0217 0.12012 0.0
C4149 C 0.53007 0.01127 0.13128 0.0
C4150 C 0.53018 0.01753 0.1463 0.0
H4151 H 0.55447 0.02658 0.19198 0.0
H4152 H 0.54193 0.01182 0.17805 0.0
H4153 H 0.55752 0.02808 0.17189 0.0
H4154 H 0.54937 0.05764 0.14261 0.0
H4155 H 0.54968 0.04662 0.11627 0.0
H4156 H 0.77633 0.69784 0.92442 0.0
H4157 H 0.77717 0.7059 0.89823 0.0
H4158 H 0.81469 0.7493 0.91261 0.0
H4159 H 0.81386 0.7414 0.93894 0.0
H4160 H 0.77233 0.73333 0.88632 0.0
H4161 H 0.83256 0.73037 0.87653 0.0
H4162 H 0.82235 0.72177 0.89261 0.0
H4163 H 0.83137 0.74353 0.89294 0.0
C4164 C 0.78471 0.70919 0.92212 0.0
C4165 C 0.79502 0.71895 0.93396 0.0
C4166 C 0.78523 0.71374 0.90704 0.0
C4167 C 0.79615 0.7281 0.90328 0.0
C4168 C 0.8064 0.73795 0.91506 0.0
H4169 H 0.81209 0.77596 0.81745 0.0
H4170 H 0.81356 0.76852 0.84391 0.0
C4171 C 0.80589 0.73341 0.93017 0.0
C4172 C 0.79642 0.7329 0.88715 0.0
H4173 H 0.81963 0.7412 0.85715 0.0
C4174 C 0.78267 0.73499 0.87995 0.0
C4175 C 0.80991 0.73516 0.87876 0.0
C4176 C 0.82486 0.73246 0.88552 0.0
C4177 C 0.78208 0.73938 0.86478 0.0
C4178 C 0.79552 0.74149 0.85634 0.0
C4179 C 0.80932 0.73958 0.86356 0.0
C4180 C 0.79536 0.74553 0.83999 0.0
C4181 C 0.76711 0.74205 0.85802 0.0
C4182 C 0.785 0.73488 0.82879 0.0
C4183 C 0.78416 0.73907 0.81364 0.0
C4184 C 0.79373 0.75401 0.80924 0.0
C4185 C 0.80454 0.76436 0.82036 0.0
C4186 C 0.80538 0.76014 0.83554 0.0
H4187 H 0.75951 0.74437 0.86702 0.0
H4188 H 0.76958 0.75258 0.85074 0.0
H4189 H 0.76049 0.73087 0.85079 0.0
H4190 H 0.77739 0.72336 0.8318 0.0
H4191 H 0.77573 0.73072 0.80546 0.0
H4192 H 0.86167 0.11597 0.0123 0.0
H4193 H 0.88154 0.10176 0.00668 0.0
H4194 H 0.84866 0.0553 0.01342 0.0
H4195 H 0.82871 0.06933 0.0187 0.0
H4196 H 0.89184 0.08278 0.0282 0.0
H4197 H 0.86805 0.04583 0.97358 0.0
H4198 H 0.86174 0.06342 0.98018 0.0
H4199 H 0.85427 0.04395 0.98801 0.0
C4200 C 0.85862 0.1027 0.01225 0.0
C4201 C 0.84375 0.09372 0.016 0.0
C4202 C 0.86994 0.09464 0.00908 0.0
C4203 C 0.86643 0.07752 0.00946 0.0
C4204 C 0.85145 0.06849 0.0128 0.0
H4205 H 0.9168 0.00437 0.01138 0.0
H4206 H 0.89693 0.01951 0.0104 0.0
C4207 C 0.84017 0.07653 0.01599 0.0
C4208 C 0.87881 0.06921 0.00796 0.0
H4209 H 0.88868 0.03858 0.98748 0.0
C4210 C 0.8913 0.07326 0.0192 0.0
C4211 C 0.87785 0.05672 0.99628 0.0
C4212 C 0.86483 0.05229 0.98374 0.0
C4213 C 0.90273 0.06477 0.01932 0.0
C4214 C 0.90173 0.05218 0.00771 0.0
C4215 C 0.88933 0.04826 0.99635 0.0
C4216 C 0.91344 0.04289 0.00728 0.0
C4217 C 0.91548 0.069 0.03216 0.0
C4218 C 0.92911 0.05104 0.00547 0.0
C4219 C 0.9404 0.0425 0.0061 0.0
C4220 C 0.93614 0.02565 0.00841 0.0
C4221 C 0.92034 0.01736 0.00962 0.0
C4222 C 0.90904 0.02596 0.00907 0.0
H4223 H 0.91235 0.07596 0.04205 0.0
H4224 H 0.91793 0.05772 0.03616 0.0
H4225 H 0.92639 0.07678 0.02799 0.0
H4226 H 0.93262 0.06403 0.00374 0.0
H4227 H 0.95248 0.04907 0.00479 0.0
H4228 H 0.37381 0.41172 0.03915 0.0
H4229 H 0.40028 0.42942 0.03704 0.0
H4230 H 0.38305 0.45297 0.00051 0.0
H4231 H 0.35647 0.43564 0.00279 0.0
H4232 H 0.41807 0.43228 0.01094 0.0
H4233 H 0.40774 0.49169 0.03072 0.0
H4234 H 0.39448 0.47206 0.03388 0.0
H4235 H 0.39436 0.48002 0.01542 0.0
C4236 C 0.3756 0.42082 0.03081 0.0
C4237 C 0.36299 0.4223 0.02118 0.0
C4238 C 0.39075 0.43083 0.02954 0.0
C4239 C 0.39359 0.4426 0.01872 0.0
C4240 C 0.38107 0.44411 0.00908 0.0
H4241 H 0.487 0.49387 0.99187 0.0
H4242 H 0.4594 0.47791 0.9911 0.0
C4243 C 0.36592 0.43409 0.01031 0.0
C4244 C 0.40972 0.45309 0.01738 0.0
H4245 H 0.43257 0.49285 0.02179 0.0
C4246 C 0.42125 0.44553 0.01325 0.0
C4247 C 0.41382 0.47035 0.02051 0.0
C4248 C 0.40201 0.47906 0.02551 0.0
C4249 C 0.43682 0.45477 0.01221 0.0
C4250 C 0.44089 0.47205 0.01522 0.0
C4251 C 0.42935 0.47962 0.01932 0.0
C4252 C 0.4573 0.48234 0.01528 0.0
C4253 C 0.44889 0.44596 0.00833 0.0
C4254 C 0.46508 0.49046 0.02903 0.0
C4255 C 0.48076 0.49957 0.02951 0.0
C4256 C 0.48898 0.50086 0.0162 0.0
C4257 C 0.48102 0.49311 0.00231 0.0
C4258 C 0.46529 0.48391 0.00187 0.0
H4259 H 0.44446 0.43248 0.00914 0.0
H4260 H 0.4521 0.44812 0.99646 0.0
H4261 H 0.45968 0.45076 0.01606 0.0
H4262 H 0.45911 0.48945 0.03949 0.0
H4263 H 0.48648 0.50543 0.04039 0.0
H4264 H 0.38057 0.60324 0.77012 0.0
H4265 H 0.36182 0.61859 0.77627 0.0
H4266 H 0.33461 0.59885 0.73391 0.0
H4267 H 0.3531 0.5831 0.72779 0.0
H4268 H 0.34183 0.63455 0.74148 0.0
H4269 H 0.31583 0.59659 0.7879 0.0
H4270 H 0.33688 0.60328 0.78894 0.0
H4271 H 0.32641 0.58928 0.77332 0.0
C4272 C 0.37056 0.60211 0.76215 0.0
C4273 C 0.36822 0.59189 0.74854 0.0
C4274 C 0.3599 0.61085 0.76568 0.0
C4275 C 0.34678 0.60952 0.75565 0.0
C4276 C 0.34466 0.59984 0.7418 0.0
H4277 H 0.26993 0.65256 0.77214 0.0
H4278 H 0.28444 0.63228 0.76648 0.0
C4279 C 0.35528 0.59101 0.73828 0.0
C4280 C 0.33545 0.61853 0.75956 0.0
H4281 H 0.30946 0.62195 0.78581 0.0
C4282 C 0.3346 0.63171 0.75105 0.0
C4283 C 0.32601 0.61458 0.77196 0.0
C4284 C 0.32617 0.60008 0.78102 0.0
C4285 C 0.32494 0.64157 0.75504 0.0
C4286 C 0.31607 0.63811 0.76789 0.0
C4287 C 0.31641 0.62452 0.77603 0.0
C4288 C 0.30711 0.64915 0.77344 0.0
C4289 C 0.32449 0.65581 0.74569 0.0
C4290 C 0.31514 0.66492 0.7798 0.0
C4291 C 0.30697 0.67638 0.78303 0.0
C4292 C 0.29067 0.67216 0.77996 0.0
C4293 C 0.2825 0.656 0.77462 0.0
C4294 C 0.29073 0.6445 0.77135 0.0
H4295 H 0.32922 0.65462 0.73437 0.0
H4296 H 0.31234 0.65678 0.74392 0.0
H4297 H 0.33171 0.66741 0.75191 0.0
H4298 H 0.3278 0.66856 0.78163 0.0
H4299 H 0.31345 0.68877 0.7873 0.0
H4300 H 0.21537 0.54593 0.51756 0.0
H4301 H 0.18744 0.53112 0.51502 0.0
H4302 H 0.18081 0.55675 0.55694 0.0
H4303 H 0.20864 0.57112 0.55976 0.0
H4304 H 0.16115 0.52575 0.55303 0.0
H4305 H 0.16011 0.55917 0.50056 0.0
H4306 H 0.17199 0.54514 0.5002 0.0
H4307 H 0.17732 0.56306 0.51352 0.0
C4308 C 0.20798 0.54797 0.52644 0.0
C4309 C 0.21403 0.55976 0.53875 0.0
C4310 C 0.19208 0.5396 0.52495 0.0
C4311 C 0.18206 0.54324 0.53557 0.0
C4312 C 0.18837 0.55385 0.54859 0.0
H4313 H 0.09034 0.55392 0.52274 0.0
H4314 H 0.11837 0.5564 0.52619 0.0
C4315 C 0.20427 0.56202 0.55021 0.0
C4316 C 0.16495 0.53798 0.53225 0.0
H4317 H 0.13604 0.54385 0.50811 0.0
C4318 C 0.1556 0.52952 0.54313 0.0
C4319 C 0.15785 0.54324 0.51945 0.0
C4320 C 0.16729 0.55328 0.50782 0.0
C4321 C 0.1393 0.5266 0.54182 0.0
C4322 C 0.13225 0.53191 0.52903 0.0
C4323 C 0.14155 0.53983 0.51788 0.0
C4324 C 0.11533 0.53027 0.52734 0.0
C4325 C 0.12992 0.51862 0.55449 0.0
C4326 C 0.10444 0.51478 0.52675 0.0
C4327 C 0.08848 0.51338 0.52504 0.0
C4328 C 0.08321 0.52744 0.52355 0.0
C4329 C 0.09412 0.54292 0.52386 0.0
C4330 C 0.11009 0.54433 0.52582 0.0
H4331 H 0.13742 0.51927 0.56516 0.0
H4332 H 0.12055 0.52452 0.55704 0.0
H4333 H 0.12434 0.50545 0.5509 0.0
H4334 H 0.10826 0.50376 0.52746 0.0
H4335 H 0.08029 0.50126 0.52463 0.0
H4336 H 0.70576 0.94983 0.73517 0.0
H4337 H 0.72502 0.93512 0.74195 0.0
H4338 H 0.69442 0.90902 0.77412 0.0
H4339 H 0.67497 0.92329 0.7671 0.0
H4340 H 0.73915 0.93667 0.77161 0.0
H4341 H 0.70754 0.87262 0.75028 0.0
H4342 H 0.70187 0.8902 0.74404 0.0
H4343 H 0.69627 0.88235 0.76206 0.0
C4344 C 0.70299 0.94063 0.74338 0.0
C4345 C 0.68891 0.93763 0.75062 0.0
C4346 C 0.71402 0.93237 0.74731 0.0
C4347 C 0.71101 0.92096 0.75842 0.0
C4348 C 0.6968 0.91762 0.76534 0.0
H4349 H 0.75919 0.86301 0.80706 0.0
H4350 H 0.74281 0.88071 0.79995 0.0
C4351 C 0.68578 0.92585 0.76142 0.0
C4352 C 0.72311 0.91328 0.76356 0.0
H4353 H 0.72984 0.87611 0.76781 0.0
C4354 C 0.73723 0.92345 0.77066 0.0
C4355 C 0.72045 0.89605 0.76227 0.0
C4356 C 0.70577 0.88467 0.75412 0.0
C4357 C 0.74866 0.91672 0.77693 0.0
C4358 C 0.74579 0.89949 0.77597 0.0
C4359 C 0.73181 0.88935 0.76865 0.0
C4360 C 0.75723 0.89155 0.78219 0.0
C4361 C 0.76352 0.92794 0.78485 0.0
C4362 C 0.77092 0.89229 0.7748 0.0
C4363 C 0.78021 0.88213 0.77874 0.0
C4364 C 0.77584 0.87109 0.79007 0.0
C4365 C 0.76271 0.87129 0.79818 0.0
C4366 C 0.7534 0.88139 0.79419 0.0
H4367 H 0.7628 0.94077 0.78685 0.0
H4368 H 0.76617 0.92338 0.79598 0.0
H4369 H 0.77342 0.92806 0.77767 0.0
H4370 H 0.77386 0.89992 0.76536 0.0
H4371 H 0.79013 0.88207 0.77216 0.0
H4372 H 0.71701 0.91706 0.54569 0.0
H4373 H 0.69707 0.93204 0.54554 0.0
H4374 H 0.68684 0.91931 0.49715 0.0
H4375 H 0.70639 0.90392 0.49727 0.0
H4376 H 0.69569 0.95872 0.52895 0.0
H4377 H 0.64348 0.90576 0.51368 0.0
H4378 H 0.66218 0.90326 0.52032 0.0
H4379 H 0.65872 0.90736 0.50081 0.0
C4380 C 0.71035 0.91724 0.53505 0.0
C4381 C 0.71326 0.9092 0.5215 0.0
C4382 C 0.69904 0.9259 0.53497 0.0
C4383 C 0.69031 0.9266 0.52138 0.0
C4384 C 0.69323 0.91869 0.50783 0.0
H4385 H 0.62117 0.97534 0.49309 0.0
H4386 H 0.64004 0.95919 0.49509 0.0
C4387 C 0.70455 0.91005 0.50788 0.0
C4388 C 0.67847 0.93601 0.52128 0.0
H4389 H 0.63972 0.9324 0.51278 0.0
C4390 C 0.68343 0.95296 0.52554 0.0
C4391 C 0.66248 0.92846 0.51681 0.0
C4392 C 0.65633 0.91018 0.51278 0.0
C4393 C 0.6729 0.96264 0.52505 0.0
C4394 C 0.65694 0.95512 0.52043 0.0
C4395 C 0.65196 0.93815 0.51631 0.0
C4396 C 0.6453 0.96471 0.51945 0.0
C4397 C 0.67903 0.98093 0.52905 0.0
C4398 C 0.64179 0.97296 0.53254 0.0
C4399 C 0.63104 0.98226 0.53143 0.0
C4400 C 0.62357 0.98347 0.51721 0.0
C4401 C 0.6269 0.97489 0.50418 0.0
C4402 C 0.63761 0.96557 0.50531 0.0
H4403 H 0.69198 0.98528 0.52892 0.0
H4404 H 0.67374 0.98782 0.52097 0.0
H4405 H 0.67586 0.98389 0.5407 0.0
H4406 H 0.64741 0.97224 0.54361 0.0
H4407 H 0.62881 0.98877 0.54167 0.0
H4408 H 0.37072 0.4373 0.70793 0.0
H4409 H 0.35706 0.40827 0.70868 0.0
H4410 H 0.31918 0.42125 0.73011 0.0
H4411 H 0.33243 0.45037 0.72878 0.0
H4412 H 0.35192 0.3964 0.73671 0.0
H4413 H 0.2959 0.38188 0.70099 0.0
H4414 H 0.31196 0.39979 0.69885 0.0
H4415 H 0.29913 0.39987 0.71395 0.0
C4416 C 0.35919 0.43402 0.71222 0.0
C4417 C 0.35271 0.44615 0.71842 0.0
C4418 C 0.35144 0.41741 0.71272 0.0
C4419 C 0.3371 0.41264 0.71939 0.0
C4420 C 0.33011 0.42467 0.72468 0.0
H4421 H 0.28445 0.32739 0.76022 0.0
H4422 H 0.29436 0.35408 0.74986 0.0
C4423 C 0.33781 0.44131 0.72411 0.0
C4424 C 0.33081 0.39544 0.72306 0.0
H4425 H 0.29815 0.36275 0.7194 0.0
C4426 C 0.34025 0.38894 0.73273 0.0
C4427 C 0.31552 0.38589 0.71801 0.0
C4428 C 0.30508 0.39214 0.70726 0.0
C4429 C 0.33468 0.37326 0.73787 0.0
C4430 C 0.31934 0.36374 0.73293 0.0
C4431 C 0.30992 0.37013 0.72311 0.0
C4432 C 0.31278 0.3473 0.73828 0.0
C4433 C 0.34505 0.36729 0.74897 0.0
C4434 C 0.31975 0.33466 0.73496 0.0
C4435 C 0.31425 0.31949 0.74098 0.0
C4436 C 0.30156 0.31667 0.75028 0.0
C4437 C 0.2943 0.32921 0.75318 0.0
C4438 C 0.29988 0.34443 0.74722 0.0
H4439 H 0.35483 0.37754 0.75442 0.0
H4440 H 0.33824 0.36086 0.75809 0.0
H4441 H 0.3502 0.35848 0.74276 0.0
H4442 H 0.32955 0.33659 0.72784 0.0
H4443 H 0.31996 0.31 0.73836 0.0
H4444 H 0.18265 0.59768 0.26275 0.0
H4445 H 0.20116 0.62499 0.26662 0.0
H4446 H 0.23864 0.60483 0.25394 0.0
H4447 H 0.22025 0.57726 0.2504 0.0
H4448 H 0.23159 0.63456 0.28685 0.0
H4449 H 0.23736 0.64299 0.22478 0.0
H4450 H 0.22064 0.62848 0.23151 0.0
H4451 H 0.23926 0.62416 0.23202 0.0
C4452 C 0.19486 0.59897 0.26099 0.0
C4453 C 0.19998 0.58529 0.25629 0.0
C4454 C 0.20538 0.61458 0.26313 0.0
C4455 C 0.22117 0.61682 0.26049 0.0
C4456 C 0.22643 0.60327 0.2559 0.0
H4457 H 0.28704 0.71425 0.25772 0.0
H4458 H 0.27678 0.68433 0.25692 0.0
C4459 C 0.2159 0.58759 0.25382 0.0
C4460 C 0.23195 0.63351 0.26235 0.0
H4461 H 0.2495 0.66563 0.24208 0.0
C4462 C 0.23571 0.64134 0.27711 0.0
C4463 C 0.23736 0.64213 0.24959 0.0
C4464 C 0.23346 0.63413 0.23353 0.0
C4465 C 0.24438 0.65788 0.27942 0.0
C4466 C 0.249 0.66681 0.26659 0.0
C4467 C 0.24588 0.65873 0.25188 0.0
C4468 C 0.2558 0.68482 0.26804 0.0
C4469 C 0.24833 0.66566 0.29555 0.0
C4470 C 0.24732 0.69494 0.27445 0.0
C4471 C 0.25313 0.71198 0.27496 0.0
C4472 C 0.26745 0.71922 0.26889 0.0
C4473 C 0.27597 0.70905 0.26251 0.0
C4474 C 0.27015 0.69197 0.26205 0.0
H4475 H 0.24884 0.65633 0.30376 0.0
H4476 H 0.25972 0.6753 0.29659 0.0
H4477 H 0.23907 0.67143 0.29885 0.0
H4478 H 0.23601 0.68965 0.27876 0.0
H4479 H 0.24624 0.71945 0.27991 0.0
H4480 H 0.52955 0.67755 0.44177 0.0
H4481 H 0.53177 0.6521 0.45199 0.0
H4482 H 0.48764 0.64617 0.47206 0.0
H4483 H 0.48556 0.67202 0.46232 0.0
H4484 H 0.5103 0.64044 0.49193 0.0
H4485 H 0.50773 0.60552 0.43607 0.0
H4486 H 0.52272 0.62474 0.43794 0.0
H4487 H 0.50247 0.62461 0.43792 0.0
C4488 C 0.52035 0.67095 0.44847 0.0
C4489 C 0.50737 0.6769 0.45122 0.0
C4490 C 0.52155 0.65625 0.45414 0.0
C4491 C 0.50974 0.64705 0.46257 0.0
C4492 C 0.49683 0.65299 0.46547 0.0
H4493 H 0.50398 0.54638 0.48455 0.0
H4494 H 0.49854 0.5709 0.47493 0.0
C4495 C 0.49562 0.66773 0.45981 0.0
C4496 C 0.51111 0.63147 0.46864 0.0
H4497 H 0.516 0.59387 0.45795 0.0
C4498 C 0.51143 0.63021 0.48449 0.0
C4499 C 0.51234 0.618 0.45893 0.0
C4500 C 0.51114 0.61817 0.44176 0.0
C4501 C 0.51342 0.61607 0.49093 0.0
C4502 C 0.51544 0.60294 0.48127 0.0
C4503 C 0.51463 0.604 0.46538 0.0
C4504 C 0.51859 0.58808 0.48739 0.0
C4505 C 0.5132 0.6153 0.50802 0.0
C4506 C 0.53177 0.58954 0.49745 0.0
C4507 C 0.53488 0.57556 0.50302 0.0
C4508 C 0.52498 0.55977 0.49849 0.0
C4509 C 0.51187 0.55833 0.48827 0.0
C4510 C 0.50873 0.57234 0.48276 0.0
H4511 H 0.50697 0.62379 0.51314 0.0
H4512 H 0.5075 0.60264 0.51106 0.0
H4513 H 0.52541 0.61905 0.51321 0.0
H4514 H 0.53977 0.60149 0.50089 0.0
H4515 H 0.54515 0.57715 0.51076 0.0
H4516 H 0.63992 0.26508 0.65733 0.0
H4517 H 0.66362 0.26348 0.67175 0.0
H4518 H 0.66467 0.30777 0.69912 0.0
H4519 H 0.64092 0.30949 0.68469 0.0
H4520 H 0.6938 0.30753 0.69013 0.0
H4521 H 0.66535 0.24912 0.71489 0.0
H4522 H 0.6631 0.24778 0.69441 0.0
H4523 H 0.65432 0.26107 0.70534 0.0
C4524 C 0.64511 0.27442 0.6665 0.0
C4525 C 0.63842 0.28732 0.66996 0.0
C4526 C 0.65867 0.27348 0.67473 0.0
C4527 C 0.66575 0.28532 0.68671 0.0
C4528 C 0.65935 0.29845 0.68996 0.0
H4529 H 0.73169 0.2733 0.75796 0.0
H4530 H 0.70933 0.277 0.74281 0.0
C4531 C 0.64581 0.29945 0.68168 0.0
C4532 C 0.67978 0.28396 0.69586 0.0
H4533 H 0.69306 0.25856 0.71849 0.0
C4534 C 0.69365 0.29686 0.69637 0.0
C4535 C 0.6795 0.27012 0.70417 0.0
C4536 C 0.66474 0.2563 0.70483 0.0
C4537 C 0.70729 0.29619 0.70482 0.0
C4538 C 0.70714 0.28209 0.71271 0.0
C4539 C 0.69322 0.26929 0.71232 0.0
C4540 C 0.7211 0.2805 0.72187 0.0
C4541 C 0.72161 0.31075 0.70548 0.0
C4542 C 0.7352 0.28117 0.71513 0.0
C4543 C 0.74811 0.27918 0.72383 0.0
C4544 C 0.74708 0.27624 0.73936 0.0
C4545 C 0.73291 0.27551 0.74602 0.0
C4546 C 0.72009 0.27762 0.73737 0.0
H4547 H 0.71857 0.3221 0.7025 0.0
H4548 H 0.72785 0.31305 0.71703 0.0
H4549 H 0.72974 0.30822 0.69714 0.0
H4550 H 0.73615 0.28298 0.7031 0.0
H4551 H 0.75881 0.2797 0.71831 0.0
H4552 H 0.01703 0.33558 0.9761 0.0
H4553 H 0.0198 0.3639 0.98611 0.0
H4554 H 0.01006 0.37683 0.94067 0.0
H4555 H 0.00786 0.34879 0.93052 0.0
H4556 H 0.03514 0.39932 0.95569 0.0
H4557 H 0.98514 0.38608 0.99241 0.0
H4558 H 0.999 0.37467 0.99631 0.0
H4559 H 0.98792 0.37114 0.97811 0.0
C4560 C 0.01556 0.34447 0.96823 0.0
C4561 C 0.0121 0.33983 0.95251 0.0
C4562 C 0.01695 0.36061 0.97399 0.0
C4563 C 0.01484 0.37243 0.96418 0.0
C4564 C 0.01158 0.36789 0.94849 0.0
H4565 H 1.00426 0.4696 0.99148 0.0
H4566 H 1.00002 0.44122 0.98082 0.0
C4567 C 0.01021 0.3518 0.94272 0.0
C4568 C 0.01654 0.38968 0.97013 0.0
H4569 H 1.0022 0.41329 0.99526 0.0
C4570 C 0.02789 0.40237 0.9643 0.0
C4571 C 0.00692 0.39369 0.9812 0.0
C4572 C 0.99395 0.38071 0.98728 0.0
C4573 C 0.03012 0.41891 0.96946 0.0
C4574 C 0.02092 0.42287 0.98096 0.0
C4575 C 0.00933 0.41023 0.98655 0.0
C4576 C 0.0234 0.44004 0.98751 0.0
C4577 C 0.04218 0.43202 0.9624 0.0
C4578 C 0.03786 0.44871 0.99501 0.0
C4579 C 0.04035 0.4649 0.00108 0.0
C4580 C 0.02837 0.4728 -8e-05 0.0
C4581 C 0.01377 0.46397 0.99259 0.0
C4582 C 0.01131 0.44773 0.98649 0.0
H4583 H 0.04497 0.42753 0.95105 0.0
H4584 H 0.03809 0.44314 0.96104 0.0
H4585 H 0.05315 0.43561 0.96996 0.0
H4586 H 0.04725 0.44291 0.99624 0.0
H4587 H 0.05171 0.47116 0.00675 0.0
H4588 H 0.97911 0.75252 0.16371 0.0
H4589 H 0.9559 0.75141 0.17774 0.0
H4590 H 0.97544 0.80206 0.19465 0.0
H4591 H 0.99897 0.80322 0.18118 0.0
H4592 H 0.95583 0.76079 0.2119 0.0
H4593 H 0.93008 0.79743 0.17293 0.0
H4594 H 0.94388 0.7866 0.16686 0.0
H4595 H 0.95058 0.80532 0.17895 0.0
C4596 C 0.97862 0.76339 0.17057 0.0
C4597 C 0.99098 0.77798 0.17125 0.0
C4598 C 0.96528 0.76274 0.17848 0.0
C4599 C 0.96393 0.7767 0.18707 0.0
C4600 C 0.97621 0.79123 0.1879 0.0
H4601 H 0.89116 0.79993 0.23839 0.0
H4602 H 0.9142 0.8006 0.22417 0.0
C4603 C 0.98962 0.79187 0.18011 0.0
C4604 C 0.94974 0.77604 0.1953 0.0
H4605 H 0.91717 0.78988 0.19522 0.0
C4606 C 0.94732 0.76708 0.20826 0.0
C4607 C 0.93879 0.78438 0.19053 0.0
C4608 C 0.94081 0.79392 0.17651 0.0
C4609 C 0.9343 0.76645 0.21678 0.0
C4610 C 0.92319 0.77464 0.21192 0.0
C4611 C 0.92565 0.78359 0.19892 0.0
C4612 C 0.909 0.77416 0.22022 0.0
C4613 C 0.93284 0.75743 0.23115 0.0
C4614 C 0.89822 0.7591 0.22244 0.0
C4615 C 0.8851 0.75868 0.23061 0.0
C4616 C 0.88235 0.77334 0.23653 0.0
C4617 C 0.8929 0.78844 0.2339 0.0
C4618 C 0.9061 0.78883 0.22583 0.0
H4619 H 0.94432 0.75613 0.23562 0.0
H4620 H 0.92801 0.76386 0.24023 0.0
H4621 H 0.92482 0.74489 0.22856 0.0
H4622 H 0.89995 0.74764 0.21784 0.0
H4623 H 0.87704 0.74688 0.23221 0.0
H4624 H 0.53119 0.34842 0.08512 0.0
H4625 H 0.53224 0.3734 0.07217 0.0
H4626 H 0.5398 0.40155 0.11565 0.0
H4627 H 0.53941 0.37684 0.12865 0.0
H4628 H 0.51529 0.39453 0.07091 0.0
H4629 H 0.57354 0.43163 0.09532 0.0
H4630 H 0.56638 0.40997 0.09775 0.0
H4631 H 0.56039 0.42475 0.10981 0.0
C4632 C 0.53336 0.35989 0.09207 0.0
C4633 C 0.53531 0.36007 0.10822 0.0
C4634 C 0.53382 0.37438 0.08452 0.0
C4635 C 0.53644 0.38993 0.09264 0.0
C4636 C 0.5382 0.39013 0.10875 0.0
H4637 H 0.54216 0.49203 0.06664 0.0
H4638 H 0.54148 0.46725 0.08004 0.0
C4639 C 0.53771 0.37566 0.11631 0.0
C4640 C 0.53693 0.40562 0.08435 0.0
H4641 H 0.55832 0.4459 0.08165 0.0
C4642 C 0.52482 0.40567 0.07328 0.0
C4643 C 0.54919 0.42059 0.08714 0.0
C4644 C 0.56319 0.42175 0.09803 0.0
C4645 C 0.52441 0.41985 0.06545 0.0
C4646 C 0.53669 0.4348 0.0682 0.0
C4647 C 0.54879 0.43477 0.07929 0.0
C4648 C 0.53724 0.4504 0.05976 0.0
C4649 C 0.51037 0.41869 0.0546 0.0
C4650 C 0.53541 0.44993 0.04363 0.0
C4651 C 0.53578 0.46424 0.03587 0.0
C4652 C 0.53816 0.47987 0.04379 0.0
C4653 C 0.54028 0.48044 0.05992 0.0
C4654 C 0.5399 0.46608 0.06769 0.0
H4655 H 0.5 0.40891 0.05743 0.0
H4656 H 0.50726 0.43051 0.0548 0.0
H4657 H 0.51307 0.41552 0.04282 0.0
H4658 H 0.53385 0.43843 0.03687 0.0
H4659 H 0.53418 0.46298 0.02352 0.0
H4660 H 0.95589 0.28751 0.34204 0.0
H4661 H 0.93021 0.28789 0.33114 0.0
H4662 H 0.9179 0.23552 0.32096 0.0
H4663 H 0.94365 0.23497 0.33154 0.0
H4664 H 0.91471 0.28066 0.30331 0.0
H4665 H 0.87921 0.23779 0.34102 0.0
H4666 H 0.9001 0.24615 0.34466 0.0
H4667 H 0.89221 0.22904 0.33069 0.0
C4668 C 0.94796 0.27594 0.33742 0.0
C4669 C 0.95253 0.26117 0.33799 0.0
C4670 C 0.93294 0.2762 0.33116 0.0
C4671 C 0.92147 0.26172 0.32528 0.0
C4672 C 0.92597 0.24697 0.3257 0.0
H4673 H 0.82246 0.23948 0.28443 0.0
H4674 H 0.84831 0.23835 0.29483 0.0
C4675 C 0.94103 0.24669 0.33187 0.0
C4676 C 0.90518 0.26217 0.31852 0.0
H4677 H 0.86535 0.24544 0.32026 0.0
C4678 C 0.90397 0.27296 0.30716 0.0
C4679 C 0.89074 0.25218 0.32314 0.0
C4680 C 0.89055 0.24075 0.33564 0.0
C4681 C 0.88931 0.27379 0.30027 0.0
C4682 C 0.87484 0.26395 0.30502 0.0
C4683 C 0.87606 0.25312 0.31636 0.0
C4684 C 0.85853 0.26469 0.29847 0.0
C4685 C 0.88967 0.28488 0.28745 0.0
C4686 C 0.8548 0.27976 0.29701 0.0
C4687 C 0.8399 0.28042 0.29085 0.0
C4688 C 0.82773 0.26604 0.28604 0.0
C4689 C 0.83128 0.25093 0.28782 0.0
C4690 C 0.84627 0.25028 0.29389 0.0
H4691 H 0.90076 0.28689 0.28167 0.0
H4692 H 0.87974 0.27972 0.27875 0.0
H4693 H 0.88896 0.29706 0.29218 0.0
H4694 H 0.8634 0.29122 0.30084 0.0
H4695 H 0.83789 0.29238 0.28998 0.0
H4696 H 0.00572 0.67746 0.60807 0.0
H4697 H 0.00699 0.65148 0.59522 0.0
H4698 H 0.05499 0.67361 0.58655 0.0
H4699 H 0.05384 0.69958 0.5993 0.0
H4700 H 0.01116 0.64079 0.56739 0.0
H4701 H 0.06092 0.63323 0.60361 0.0
H4702 H 0.05122 0.64877 0.60834 0.0
H4703 H 0.06588 0.65221 0.59463 0.0
C4704 C 0.0166 0.67699 0.60342 0.0
C4705 C 0.0297 0.6911 0.6051 0.0
C4706 C 0.01734 0.66187 0.59602 0.0
C4707 C 0.03122 0.65999 0.59 0.0
C4708 C 0.04421 0.67412 0.5914 0.0
H4709 H 0.0341 0.57933 0.52125 0.0
H4710 H 0.0328 0.60489 0.53481 0.0
C4711 C 0.0435 0.68923 0.5988 0.0
C4712 C 0.03198 0.64355 0.58209 0.0
H4713 H 0.05342 0.61524 0.58094 0.0
C4714 C 0.02045 0.63529 0.57046 0.0
C4715 C 0.04381 0.63574 0.58597 0.0
C4716 C 0.05606 0.64283 0.59892 0.0
C4717 C 0.0206 0.62012 0.5626 0.0
C4718 C 0.0328 0.61268 0.56603 0.0
C4719 C 0.04412 0.62072 0.57791 0.0
C4720 C 0.03396 0.59667 0.55756 0.0
C4721 C 0.00729 0.61202 0.55089 0.0
C4722 C 0.03566 0.58313 0.56546 0.0
C4723 C 0.03656 0.56828 0.5576 0.0
C4724 C 0.03595 0.56634 0.54146 0.0
C4725 C 0.03452 0.58 0.53361 0.0
C4726 C 0.03362 0.59479 0.54145 0.0
H4727 H 0.99668 0.61609 0.553 0.0
H4728 H 0.01083 0.6155 0.53937 0.0
H4729 H 1.00417 0.59842 0.55087 0.0
H4730 H 0.03608 0.58393 0.57782 0.0
H4731 H 0.03766 0.55826 0.56424 0.0
H4732 H 0.60935 0.74759 0.82317 0.0
H4733 H 0.63406 0.74854 0.81184 0.0
H4734 H 0.65726 0.7915 0.84148 0.0
H4735 H 0.63271 0.79071 0.85283 0.0
H4736 H 0.65401 0.76804 0.7955 0.0
H4737 H 0.68886 0.76766 0.8492 0.0
H4738 H 0.66792 0.76412 0.84853 0.0
H4739 H 0.68068 0.78477 0.84943 0.0
C4740 C 0.61958 0.75738 0.82739 0.0
C4741 C 0.6184 0.76897 0.83933 0.0
C4742 C 0.63401 0.75786 0.8208 0.0
C4743 C 0.64821 0.76985 0.82579 0.0
C4744 C 0.64701 0.78161 0.83748 0.0
H4745 H 0.74811 0.79313 0.80045 0.0
H4746 H 0.72315 0.79252 0.81137 0.0
C4747 C 0.63262 0.78115 0.84408 0.0
C4748 C 0.66393 0.77023 0.81863 0.0
H4749 H 0.7031 0.77335 0.82718 0.0
C4750 C 0.66465 0.7691 0.80256 0.0
C4751 C 0.67831 0.77167 0.82739 0.0
C4752 C 0.67893 0.77196 0.84458 0.0
C4753 C 0.67882 0.76977 0.79528 0.0
C4754 C 0.69321 0.77119 0.80404 0.0
C4755 C 0.69247 0.7723 0.82011 0.0
C4756 C 0.70895 0.77159 0.79692 0.0
C4757 C 0.6782 0.76955 0.7781 0.0
C4758 C 0.71016 0.76003 0.78502 0.0
C4759 C 0.72464 0.76045 0.7786 0.0
C4760 C 0.73883 0.77235 0.7838 0.0
C4761 C 0.73769 0.78378 0.79584 0.0
C4762 C 0.72319 0.78338 0.80223 0.0
H4763 H 0.66834 0.77398 0.77352 0.0
H4764 H 0.68924 0.77733 0.77415 0.0
H4765 H 0.67632 0.75674 0.77319 0.0
H4766 H 0.69989 0.75032 0.78076 0.0
H4767 H 0.72469 0.75118 0.76958 0.0
H4768 H 0.46454 0.51061 0.66942 0.0
H4769 H 0.48095 0.51048 0.64799 0.0
H4770 H 0.48079 0.5603 0.64063 0.0
H4771 H 0.46471 0.5606 0.66228 0.0
H4772 H 0.47247 0.51332 0.6193 0.0
H4773 H 0.5263 0.56305 0.63724 0.0
H4774 H 0.512 0.5544 0.65043 0.0
H4775 H 0.5091 0.57004 0.63855 0.0
C4776 C 0.46817 0.52156 0.66329 0.0
C4777 C 0.46337 0.53559 0.66737 0.0
C4778 C 0.47758 0.52151 0.65115 0.0
C4779 C 0.48226 0.53546 0.6429 0.0
C4780 C 0.47767 0.54958 0.64713 0.0
H4781 H 0.4992 0.53517 0.54816 0.0
H4782 H 0.4896 0.53765 0.57344 0.0
C4783 C 0.46841 0.5497 0.65939 0.0
C4784 C 0.4905 0.53466 0.62891 0.0
H4785 H 0.52179 0.55492 0.61024 0.0
C4786 C 0.48336 0.5223 0.6174 0.0
C4787 C 0.50481 0.54624 0.62656 0.0
C4788 C 0.51358 0.55906 0.63893 0.0
C4789 C 0.48985 0.52153 0.60335 0.0
C4790 C 0.50355 0.53379 0.60062 0.0
C4791 C 0.51108 0.54577 0.61231 0.0
C4792 C 0.51015 0.53428 0.58562 0.0
C4793 C 0.48197 0.50757 0.59159 0.0
C4794 C 0.5252 0.53248 0.58427 0.0
C4795 C 0.53082 0.53128 0.56987 0.0
C4796 C 0.52139 0.53182 0.55666 0.0
C4797 C 0.50664 0.5345 0.55813 0.0
C4798 C 0.50112 0.53585 0.57253 0.0
H4799 H 0.47457 0.4969 0.59696 0.0
H4800 H 0.47428 0.51181 0.5834 0.0
H4801 H 0.49072 0.50338 0.58511 0.0
H4802 H 0.53236 0.53137 0.5943 0.0
H4803 H 0.54226 0.52928 0.56909 0.0
H4804 H 0.7357 0.16986 0.9685 0.0
H4805 H 0.73175 0.18302 0.94504 0.0
H4806 H 0.7808 0.19204 0.93775 0.0
H4807 H 0.78477 0.17874 0.96089 0.0
H4808 H 0.74783 0.21618 0.93848 0.0
H4809 H 0.75778 0.16904 0.89673 0.0
H4810 H 0.75308 0.16489 0.91608 0.0
H4811 H 0.77273 0.17546 0.91214 0.0
C4812 C 0.74558 0.17452 0.96178 0.0
C4813 C 0.76054 0.17332 0.9665 0.0
C4814 C 0.74332 0.18206 0.94847 0.0
C4815 C 0.75595 0.18827 0.93964 0.0
C4816 C 0.77087 0.18709 0.94433 0.0
H4817 H 0.7828 0.244 0.86402 0.0
H4818 H 0.78002 0.22816 0.8865 0.0
C4819 C 0.77315 0.17965 0.95762 0.0
C4820 C 0.75386 0.19657 0.92575 0.0
H4821 H 0.75946 0.19548 0.88771 0.0
C4822 C 0.7501 0.21157 0.92731 0.0
C4823 C 0.75681 0.19043 0.91126 0.0
C4824 C 0.76018 0.17399 0.90888 0.0
C4825 C 0.75005 0.22108 0.91481 0.0
C4826 C 0.75366 0.21524 0.90045 0.0
C4827 C 0.7568 0.19993 0.89879 0.0
C4828 C 0.75516 0.22522 0.88717 0.0
C4829 C 0.74686 0.23761 0.91716 0.0
C4830 C 0.74206 0.22875 0.88017 0.0
C4831 C 0.74359 0.23773 0.86726 0.0
C4832 C 0.75824 0.24323 0.86116 0.0
C4833 C 0.77133 0.23976 0.86833 0.0
C4834 C 0.76979 0.23079 0.8812 0.0
H4835 H 0.74691 0.24151 0.92946 0.0
H4836 H 0.75572 0.24714 0.91184 0.0
H4837 H 0.7352 0.23693 0.91158 0.0
H4838 H 0.73064 0.22432 0.88452 0.0
H4839 H 0.73325 0.24001 0.86185 0.0
H4840 H 0.10172 0.47957 0.154 0.0
H4841 H 0.08438 0.47973 0.13143 0.0
H4842 H 0.05913 0.50674 0.15831 0.0
H4843 H 0.07648 0.50676 0.18085 0.0
H4844 H 0.05152 0.46871 0.1256 0.0
H4845 H 0.07488 0.53646 0.12407 0.0
H4846 H 0.08425 0.52458 0.13572 0.0
H4847 H 0.06718 0.52988 0.1418 0.0
C4848 C 0.09235 0.48537 0.15509 0.0
C4849 C 0.09053 0.49337 0.16903 0.0
C4850 C 0.0825 0.48545 0.14225 0.0
C4851 C 0.07071 0.49348 0.14325 0.0
C4852 C 0.0684 0.50079 0.15732 0.0
H4853 H 0.01262 0.51664 0.06946 0.0
H4854 H 0.02105 0.51053 0.09507 0.0
C4855 C 0.0783 0.50081 0.17012 0.0
C4856 C 0.06138 0.49494 0.12939 0.0
H4857 H 0.05444 0.52292 0.10571 0.0
C4858 C 0.05203 0.48055 0.12129 0.0
C4859 C 0.06223 0.51044 0.12384 0.0
C4860 C 0.07277 0.52623 0.1317 0.0
C4861 C 0.04354 0.48125 0.1076 0.0
C4862 C 0.04452 0.49672 0.10203 0.0
C4863 C 0.05358 0.51113 0.11027 0.0
C4864 C 0.03771 0.49822 0.08682 0.0
C4865 C 0.0338 0.46551 0.09905 0.0
C4866 C 0.04428 0.49314 0.07397 0.0
C4867 C 0.03955 0.49662 0.05957 0.0
C4868 C 0.02817 0.50517 0.05788 0.0
C4869 C 0.02115 0.50973 0.07063 0.0
C4870 C 0.02601 0.50635 0.08514 0.0
H4871 H 0.03121 0.45516 0.10654 0.0
H4872 H 0.0226 0.46706 0.09409 0.0
H4873 H 0.04033 0.46221 0.08952 0.0
H4874 H 0.05352 0.48712 0.07512 0.0
H4875 H 0.04511 0.49302 0.04979 0.0
H4876 H 0.80106 0.82657 0.44317 0.0
H4877 H 0.80291 0.81924 0.41614 0.0
H4878 H 0.75295 0.80969 0.40812 0.0
H4879 H 0.75096 0.81695 0.43514 0.0
H4880 H 0.79028 0.79101 0.39777 0.0
H4881 H 0.76836 0.84112 0.37589 0.0
H4882 H 0.77387 0.84057 0.39586 0.0
H4883 H 0.75505 0.8283 0.38764 0.0
C4884 C 0.79041 0.82276 0.43573 0.0
C4885 C 0.77585 0.82247 0.44146 0.0
C4886 C 0.79151 0.81865 0.4202 0.0
C4887 C 0.77813 0.81421 0.40992 0.0
C4888 C 0.76353 0.81351 0.41566 0.0
H4889 H 0.75819 0.78303 0.31317 0.0
H4890 H 0.75748 0.7904 0.34036 0.0
C4891 C 0.76241 0.81765 0.43118 0.0
C4892 C 0.77943 0.8102 0.39329 0.0
H4893 H 0.77106 0.82061 0.35741 0.0
C4894 C 0.78617 0.79757 0.38896 0.0
C4895 C 0.77412 0.81875 0.3817 0.0
C4896 C 0.76759 0.83305 0.38548 0.0
C4897 C 0.78736 0.79299 0.37348 0.0
C4898 C 0.78188 0.80141 0.36191 0.0
C4899 C 0.77524 0.81411 0.36623 0.0
C4900 C 0.78257 0.79701 0.34527 0.0
C4901 C 0.79409 0.77886 0.3696 0.0
C4902 C 0.79695 0.79845 0.33879 0.0
C4903 C 0.79743 0.79428 0.32313 0.0
C4904 C 0.78352 0.78856 0.31357 0.0
C4905 C 0.76916 0.78731 0.32011 0.0
C4906 C 0.76872 0.79155 0.33571 0.0
H4907 H 0.79435 0.77129 0.37943 0.0
H4908 H 0.7872 0.77082 0.35975 0.0
H4909 H 0.80627 0.78378 0.36639 0.0
H4910 H 0.80784 0.8029 0.34583 0.0
H4911 H 0.8087 0.79544 0.31855 0.0
H4912 H 0.47166 0.55645 0.81062 0.0
H4913 H 0.48753 0.55592 0.83415 0.0
H4914 H 0.47919 0.5035 0.82564 0.0
H4915 H 0.4633 0.50389 0.80225 0.0
H4916 H 0.47725 0.53813 0.85895 0.0
H4917 H 0.52664 0.51956 0.83484 0.0
H4918 H 0.51332 0.52757 0.82347 0.0
H4919 H 0.50785 0.50636 0.82776 0.0
C4920 C 0.47325 0.54483 0.81378 0.0
C4921 C 0.46631 0.53022 0.80459 0.0
C4922 C 0.48238 0.54457 0.82712 0.0
C4923 C 0.48475 0.52973 0.83141 0.0
C4924 C 0.47785 0.51515 0.82227 0.0
H4925 H 0.51601 0.48841 0.90837 0.0
H4926 H 0.50719 0.49504 0.88332 0.0
C4927 C 0.46875 0.51539 0.80894 0.0
C4928 C 0.49347 0.52917 0.846 0.0
H4929 H 0.5235 0.51615 0.8615 0.0
C4930 C 0.48752 0.53359 0.85955 0.0
C4931 C 0.50684 0.52323 0.84664 0.0
C4932 C 0.51414 0.51906 0.83239 0.0
C4933 C 0.49415 0.53147 0.87382 0.0
C4934 C 0.50719 0.52499 0.87445 0.0
C4935 C 0.51346 0.52107 0.86091 0.0
C4936 C 0.51387 0.52132 0.88905 0.0
C4937 C 0.48672 0.53545 0.88806 0.0
C4938 C 0.52089 0.53397 0.90032 0.0
C4939 C 0.52592 0.53023 0.91461 0.0
C4940 C 0.5241 0.51379 0.91777 0.0
C4941 C 0.51765 0.50119 0.90621 0.0
C4942 C 0.51258 0.50494 0.89194 0.0
H4943 H 0.47498 0.53724 0.88542 0.0
H4944 H 0.48552 0.52551 0.89595 0.0
H4945 H 0.4943 0.54697 0.89411 0.0
H4946 H 0.52221 0.5467 0.89815 0.0
H4947 H 0.53112 0.5402 0.92323 0.0
H4948 H 0.78173 0.20117 0.10468 0.0
H4949 H 0.78482 0.21516 0.13011 0.0
H4950 H 0.81458 0.18591 0.14548 0.0
H4951 H 0.8104 0.17079 0.1205 0.0
H4952 H 0.79457 0.18637 0.1651 0.0
H4953 H 0.81937 0.25051 0.15144 0.0
H4954 H 0.80114 0.24161 0.14048 0.0
H4955 H 0.81751 0.23334 0.13763 0.0
C4956 C 0.78885 0.19759 0.11346 0.0
C4957 C 0.79576 0.18476 0.11046 0.0
C4958 C 0.79088 0.20587 0.12795 0.0
C4959 C 0.80023 0.20187 0.13964 0.0
C4960 C 0.80743 0.18933 0.13661 0.0
H4961 H 0.81626 0.26175 0.22693 0.0
H4962 H 0.82081 0.2484 0.20281 0.0
C4963 C 0.80515 0.1808 0.12222 0.0
C4964 C 0.80143 0.20978 0.15532 0.0
H4965 H 0.80723 0.24688 0.17542 0.0
C4966 C 0.7976 0.19962 0.16738 0.0
C4967 C 0.8057 0.22706 0.1584 0.0
C4968 C 0.81133 0.23873 0.1463 0.0
C4969 C 0.79724 0.20624 0.18229 0.0
C4970 C 0.80016 0.22345 0.1851 0.0
C4971 C 0.80472 0.23366 0.17321 0.0
C4972 C 0.79777 0.23104 0.20004 0.0
C4973 C 0.79373 0.19468 0.19485 0.0
C4974 C 0.78328 0.22579 0.20641 0.0
C4975 C 0.78075 0.23319 0.22025 0.0
C4976 C 0.79253 0.24628 0.22781 0.0
C4977 C 0.80698 0.25169 0.22135 0.0
C4978 C 0.80959 0.24408 0.20759 0.0
H4979 H 0.79751 0.18343 0.19217 0.0
H4980 H 0.79962 0.20063 0.20601 0.0
H4981 H 0.7809 0.19074 0.19592 0.0
H4982 H 0.77381 0.21614 0.20054 0.0
H4983 H 0.76943 0.22889 0.22484 0.0
H4984 H 0.07267 0.51168 0.29858 0.0
H4985 H 0.05778 0.51088 0.32121 0.0
H4986 H 0.07235 0.469 0.33484 0.0
H4987 H 0.08789 0.47018 0.31268 0.0
H4988 H 0.034 0.48686 0.33375 0.0
H4989 H 0.09021 0.50443 0.36986 0.0
H4990 H 0.08942 0.5052 0.3494 0.0
H4991 H 0.08685 0.48586 0.35767 0.0
C4992 C 0.07268 0.50228 0.30638 0.0
C4993 C 0.08168 0.49119 0.304 0.0
C4994 C 0.06403 0.50172 0.31918 0.0
C4995 C 0.06421 0.49004 0.32975 0.0
C4996 C 0.07228 0.47824 0.32687 0.0
H4997 H 0.03925 0.49287 0.42349 0.0
H4998 H 0.04296 0.48149 0.39825 0.0
C4999 C 0.08104 0.47886 0.31414 0.0
C5000 C 0.05728 0.49132 0.34444 0.0
H5001 H 0.06716 0.501 0.38251 0.0
C5002 C 0.04118 0.48979 0.34445 0.0
C5003 C 0.06677 0.49528 0.35832 0.0
C5004 C 0.08429 0.49794 0.35888 0.0
C5005 C 0.03432 0.49228 0.35807 0.0
C5006 C 0.04388 0.49649 0.37185 0.0
C5007 C 0.05988 0.49759 0.37188 0.0
C5008 C 0.03805 0.50127 0.38628 0.0
C5009 C 0.017 0.49057 0.35761 0.0
C5010 C 0.0337 0.51595 0.38778 0.0
C5011 C 0.03157 0.5225 0.40218 0.0
C5012 C 0.03382 0.51446 0.41527 0.0
C5013 C 0.03724 0.49924 0.4136 0.0
C5014 C 0.0394 0.49273 0.39921 0.0
H5015 H 0.01071 0.4832 0.34715 0.0
H5016 H 0.01185 0.48472 0.3678 0.0
H5017 H 0.01509 0.50297 0.35764 0.0
H5018 H 0.03291 0.52286 0.37795 0.0
H5019 H 0.02883 0.53418 0.40316 0.0
H5020 H 0.75568 0.84067 0.60851 0.0
H5021 H 0.75548 0.83363 0.63506 0.0
H5022 H 0.79109 0.80893 0.62748 0.0
H5023 H 0.79133 0.81586 0.60087 0.0
H5024 H 0.74863 0.80426 0.64744 0.0
H5025 H 0.81 0.83855 0.6655 0.0
H5026 H 0.80041 0.84132 0.64765 0.0
H5027 H 0.80836 0.82409 0.64931 0.0
C5028 C 0.76341 0.83363 0.6124 0.0
C5029 C 0.77355 0.82889 0.60241 0.0
C5030 C 0.76334 0.82968 0.62768 0.0
C5031 C 0.77347 0.82098 0.63347 0.0
C5032 C 0.78345 0.81603 0.62349 0.0
H5033 H 0.76523 0.76546 0.7134 0.0
H5034 H 0.76401 0.77551 0.68815 0.0
C5035 C 0.78355 0.81999 0.60821 0.0
C5036 C 0.77327 0.81675 0.64978 0.0
H5037 H 0.79655 0.81991 0.68277 0.0
C5038 C 0.75911 0.80778 0.65516 0.0
C5039 C 0.78684 0.82155 0.66006 0.0
C5040 C 0.80223 0.83205 0.65541 0.0
C5041 C 0.75824 0.80308 0.67027 0.0
C5042 C 0.77197 0.8072 0.68032 0.0
C5043 C 0.78603 0.8166 0.6751 0.0
C5044 C 0.77211 0.80128 0.69603 0.0
C5045 C 0.74255 0.79384 0.67534 0.0
C5046 C 0.77729 0.81235 0.70906 0.0
C5047 C 0.77806 0.8066 0.72369 0.0
C5048 C 0.77383 0.78962 0.7256 0.0
C5049 C 0.76851 0.77862 0.71251 0.0
C5050 C 0.76771 0.78436 0.69797 0.0
H5051 H 0.73277 0.79618 0.66828 0.0
H5052 H 0.74136 0.78045 0.67401 0.0
H5053 H 0.74138 0.79729 0.68751 0.0
H5054 H 0.78085 0.82547 0.7079 0.0
H5055 H 0.78236 0.81544 0.73344 0.0
H5056 H 0.73132 0.46337 0.49153 0.0
H5057 H 0.71355 0.48064 0.49412 0.0
H5058 H 0.69177 0.45218 0.53007 0.0
H5059 H 0.70925 0.4345 0.52727 0.0
H5060 H 0.67076 0.45777 0.50709 0.0
H5061 H 0.71518 0.51535 0.52971 0.0
H5062 H 0.71989 0.50588 0.51245 0.0
H5063 H 0.7188 0.4954 0.52968 0.0
C5064 C 0.72263 0.46067 0.49987 0.0
C5065 C 0.72159 0.44757 0.50917 0.0
C5066 C 0.71267 0.47068 0.50147 0.0
C5067 C 0.70161 0.4678 0.51245 0.0
C5068 C 0.70039 0.45463 0.52164 0.0
H5069 H 0.6423 0.52767 0.54128 0.0
H5070 H 0.66255 0.51321 0.53998 0.0
C5071 C 0.71036 0.4446 0.52006 0.0
C5072 C 0.69091 0.47818 0.51392 0.0
H5073 H 0.68983 0.51765 0.5221 0.0
C5074 C 0.67489 0.47085 0.51045 0.0
C5075 C 0.69643 0.49516 0.51844 0.0
C5076 C 0.7135 0.50342 0.52293 0.0
C5077 C 0.66417 0.48018 0.51106 0.0
C5078 C 0.66975 0.49727 0.51504 0.0
C5079 C 0.68572 0.50456 0.51886 0.0
C5080 C 0.65901 0.50767 0.5155 0.0
C5081 C 0.64696 0.47169 0.50757 0.0
C5082 C 0.65086 0.50979 0.50206 0.0
C5083 C 0.63939 0.51811 0.50273 0.0
C5084 C 0.63597 0.52443 0.51686 0.0
C5085 C 0.6448 0.52306 0.53021 0.0
C5086 C 0.65628 0.51474 0.52952 0.0
H5087 H 0.64433 0.45815 0.50806 0.0
H5088 H 0.63982 0.47643 0.51572 0.0
H5089 H 0.64333 0.47418 0.49589 0.0
H5090 H 0.65306 0.50459 0.49112 0.0
H5091 H 0.63291 0.51922 0.49225 0.0
H5092 H 0.20608 0.10556 0.49381 0.0
H5093 H 0.17941 0.08832 0.496 0.0
H5094 H 0.17916 0.11192 0.54081 0.0
H5095 H 0.20566 0.12942 0.53853 0.0
H5096 H 0.16707 0.06619 0.51577 0.0
H5097 H 0.13965 0.1175 0.5206 0.0
H5098 H 0.15944 0.12039 0.51527 0.0
H5099 H 0.15518 0.11933 0.53503 0.0
C5100 C 0.20034 0.10703 0.50414 0.0
C5101 C 0.2079 0.11897 0.51593 0.0
C5102 C 0.18509 0.0972 0.50537 0.0
C5103 C 0.17712 0.09905 0.51844 0.0
C5104 C 0.18485 0.1106 0.53043 0.0
H5105 H 0.08306 0.04905 0.54348 0.0
H5106 H 0.11079 0.06453 0.54437 0.0
C5107 C 0.20002 0.12056 0.52913 0.0
C5108 C 0.16077 0.08884 0.51951 0.0
H5109 H 0.12357 0.09099 0.52466 0.0
C5110 C 0.15757 0.07163 0.51769 0.0
C5111 C 0.14833 0.09592 0.522 0.0
C5112 C 0.15076 0.11429 0.52319 0.0
C5113 C 0.14233 0.06135 0.51837 0.0
C5114 C 0.12995 0.06845 0.52087 0.0
C5115 C 0.13314 0.08561 0.52287 0.0
C5116 C 0.11346 0.05833 0.52063 0.0
C5117 C 0.13955 0.04296 0.51649 0.0
C5118 C 0.10582 0.04976 0.50699 0.0
C5119 C 0.09001 0.04101 0.50642 0.0
C5120 C 0.08151 0.04062 0.5195 0.0
C5121 C 0.08928 0.04901 0.53324 0.0
C5122 C 0.1051 0.05789 0.53376 0.0
H5123 H 0.15061 0.0394 0.51821 0.0
H5124 H 0.13121 0.0368 0.52468 0.0
H5125 H 0.13436 0.03836 0.50476 0.0
H5126 H 0.112 0.05014 0.49668 0.0
H5127 H 0.0844 0.03471 0.49565 0.0
H5128 H 0.18492 0.93692 0.76476 0.0
H5129 H 0.20183 0.91947 0.75825 0.0
H5130 H 0.22987 0.93684 0.80066 0.0
H5131 H 0.21294 0.95417 0.80729 0.0
H5132 H 0.23324 0.93038 0.75446 0.0
H5133 H 0.22219 0.8874 0.80034 0.0
H5134 H 0.20966 0.9003 0.79598 0.0
H5135 H 0.2278 0.90863 0.80743 0.0
C5136 C 0.19462 0.93687 0.77274 0.0
C5137 C 0.19766 0.94682 0.78653 0.0
C5138 C 0.20421 0.92691 0.76903 0.0
C5139 C 0.21693 0.92677 0.77906 0.0
C5140 C 0.21986 0.93651 0.79294 0.0
H5141 H 0.29381 0.88396 0.77645 0.0
H5142 H 0.277 0.90197 0.78117 0.0
C5143 C 0.21022 0.9464 0.79671 0.0
C5144 C 0.22775 0.91724 0.77458 0.0
H5145 H 0.24408 0.88752 0.78584 0.0
C5146 C 0.23554 0.92092 0.76124 0.0
C5147 C 0.23066 0.90494 0.7835 0.0
C5148 C 0.22203 0.89995 0.79753 0.0
C5149 C 0.24649 0.9128 0.75672 0.0
C5150 C 0.24958 0.90073 0.76577 0.0
C5151 C 0.24171 0.89695 0.77904 0.0
C5152 C 0.26075 0.89157 0.76162 0.0
C5153 C 0.2549 0.91735 0.74249 0.0
C5154 C 0.25724 0.88011 0.74888 0.0
C5155 C 0.26675 0.86977 0.7462 0.0
C5156 C 0.27981 0.87075 0.75629 0.0
C5157 C 0.28372 0.88287 0.76859 0.0
C5158 C 0.27419 0.89315 0.77128 0.0
H5159 H 0.25347 0.92906 0.73849 0.0
H5160 H 0.26759 0.91851 0.74456 0.0
H5161 H 0.25008 0.90748 0.73322 0.0
H5162 H 0.24674 0.87861 0.74147 0.0
H5163 H 0.26333 0.86037 0.73678 0.0
H5164 H 0.3626 0.98365 0.02339 0.0
H5165 H 0.38991 0.99903 0.02308 0.0
H5166 H 0.38228 0.00767 0.9758 0.0
H5167 H 0.35472 0.99221 0.97603 0.0
H5168 H 0.40362 0.99096 0.98011 0.0
H5169 H 0.41808 0.04512 0.02192 0.0
H5170 H 0.40684 0.02721 0.03016 0.0
H5171 H 0.39825 0.03512 0.01433 0.0
C5172 C 0.36652 0.98944 0.01311 0.0
C5173 C 0.35657 0.98661 -0.00032 0.0
C5174 C 0.38217 0.99829 0.01297 0.0
C5175 C 0.38808 0.00459 -0.00055 0.0
C5176 C 0.37788 0.00296 0.98636 0.0
H5177 H 0.49017 0.04015 0.00014 0.0
H5178 H 0.46258 0.0389 0.99546 0.0
C5179 C 0.3622 0.99406 0.98649 0.0
C5180 C 0.40515 0.00972 0.9983 0.0
H5181 H 0.4392 0.03249 0.01745 0.0
C5182 C 0.41141 1.00036 0.988 0.0
C5183 C 0.41529 0.022 0.00855 0.0
C5184 C 0.40924 0.03304 0.01925 0.0
C5185 C 0.42751 1.00216 0.98841 0.0
C5186 C 0.43748 0.01344 -0.00046 0.0
C5187 C 0.4314 0.02365 0.00911 0.0
C5188 C 0.45408 0.01406 0.00204 0.0
C5189 C 0.43368 0.99162 0.97729 0.0
C5190 C 0.45828 1.00049 0.00739 0.0
C5191 C 0.47401 1.00113 0.01012 0.0
C5192 C 0.48571 0.01538 0.00754 0.0
C5193 C 0.48141 0.02895 0.00216 0.0
C5194 C 0.46569 0.02831 -0.00049 0.0
H5195 H 0.42539 0.98701 0.96707 0.0
H5196 H 0.44517 0.99857 0.97352 0.0
H5197 H 0.43535 0.98083 0.98298 0.0
H5198 H 0.44937 0.98947 0.0096 0.0
H5199 H 0.47698 0.99053 0.01431 0.0
H5200 H 0.87006 0.59934 0.80898 0.0
H5201 H 0.85128 0.61515 0.804 0.0
H5202 H 0.86954 0.62576 0.76016 0.0
H5203 H 0.88837 0.61005 0.76506 0.0
H5204 H 0.85532 0.64848 0.79557 0.0
H5205 H 0.82254 0.60065 0.75058 0.0
H5206 H 0.83684 0.59709 0.76432 0.0
H5207 H 0.84308 0.60875 0.74829 0.0
C5208 C 0.87028 0.60536 0.79844 0.0
C5209 C 0.88048 0.60337 0.78731 0.0
C5210 C 0.85954 0.61428 0.79559 0.0
C5211 C 0.85891 0.62123 0.78161 0.0
C5212 C 0.86972 0.62014 0.77088 0.0
H5213 H 0.8004 0.67373 0.73926 0.0
H5214 H 0.81881 0.6578 0.74497 0.0
C5215 C 0.88043 0.61122 0.77369 0.0
C5216 C 0.84644 0.62892 0.77789 0.0
H5217 H 0.81419 0.62479 0.75365 0.0
C5218 C 0.84627 0.64332 0.78647 0.0
C5219 C 0.83472 0.62201 0.76601 0.0
C5220 C 0.83416 0.60619 0.75683 0.0
C5221 C 0.83474 0.65126 0.78324 0.0
C5222 C 0.82304 0.64434 0.77134 0.0
C5223 C 0.8232 0.62993 0.76279 0.0
C5224 C 0.81077 0.65222 0.76732 0.0
C5225 C 0.83539 0.66716 0.7923 0.0
C5226 C 0.79981 0.65363 0.77779 0.0
C5227 C 0.78921 0.66258 0.77453 0.0
C5228 C 0.78944 0.67015 0.76073 0.0
C5229 C 0.79984 0.66785 0.7499 0.0
C5230 C 0.81043 0.6589 0.75318 0.0
H5231 H 0.84695 0.67258 0.7987 0.0
H5232 H 0.83298 0.67629 0.78468 0.0
H5233 H 0.8263 0.66478 0.80068 0.0
H5234 H 0.79978 0.64823 0.78864 0.0
H5235 H 0.78118 0.66403 0.78298 0.0
H5236 H 0.84743 0.62146 0.03167 0.0
H5237 H 0.86727 0.60637 0.03124 0.0
H5238 H 0.8877 0.63325 0.99389 0.0
H5239 H 0.86812 0.64864 0.99443 0.0
H5240 H 0.87327 0.58658 0.00581 0.0
H5241 H 0.92523 0.63848 0.02563 0.0
H5242 H 0.90543 0.63922 0.02819 0.0
H5243 H 0.91327 0.64216 0.00985 0.0
C5244 C 0.85626 0.62432 0.02349 0.0
C5245 C 0.85621 0.63632 0.01312 0.0
C5246 C 0.86753 0.61561 0.0232 0.0
C5247 C 0.87906 0.61883 0.01266 0.0
C5248 C 0.87904 0.63075 0.00227 0.0
H5249 H 0.95717 0.57969 0.99305 0.0
H5250 H 0.93795 0.59552 0.99409 0.0
C5251 C 0.86774 0.63941 0.0025 0.0
C5252 C 0.89083 0.60939 0.01226 0.0
H5253 H 0.93002 0.61333 0.01738 0.0
C5254 C 0.88568 0.59239 0.0084 0.0
C5255 C 0.907 0.61705 0.01554 0.0
C5256 C 0.91312 0.63521 0.02016 0.0
C5257 C 0.89629 0.58284 0.00748 0.0
C5258 C 0.91248 0.59046 0.01092 0.0
C5259 C 0.91762 0.60749 0.01477 0.0
C5260 C 0.92428 0.58099 0.01056 0.0
C5261 C 0.89007 0.56478 0.00243 0.0
C5262 C 0.92319 0.56776 0.0197 0.0
C5263 C 0.93411 0.55866 0.01908 0.0
C5264 C 0.94652 0.56276 0.00949 0.0
C5265 C 0.94783 0.57629 0.00065 0.0
C5266 C 0.93682 0.58531 0.00119 0.0
H5267 H 0.87844 0.56198 0.99601 0.0
H5268 H 0.89823 0.56059 0.99509 0.0
H5269 H 0.88868 0.55759 0.01264 0.0
H5270 H 0.91389 0.56448 0.02735 0.0
H5271 H 0.93294 0.5485 0.02623 0.0
H5272 H 0.23009 0.09094 0.81146 0.0
H5273 H 0.24619 0.11913 0.80974 0.0
H5274 H 0.20517 0.13662 0.81258 0.0
H5275 H 0.18917 0.10869 0.81501 0.0
H5276 H 0.24263 0.13753 0.78662 0.0
H5277 H 0.23634 0.17025 0.84123 0.0
H5278 H 0.23113 0.14809 0.83849 0.0
H5279 H 0.21769 0.15915 0.83196 0.0
C5280 C 0.22459 0.10086 0.81218 0.0
C5281 C 0.20835 0.09761 0.81331 0.0
C5282 C 0.23378 0.11692 0.81111 0.0
C5283 C 0.2269 0.12996 0.81124 0.0
C5284 C 0.21079 0.1268 0.81282 0.0
H5285 H 0.24426 0.22166 0.77281 0.0
H5286 H 0.23435 0.19442 0.78211 0.0
C5287 C 0.20161 0.11079 0.81397 0.0
C5288 C 0.23611 0.14657 0.80802 0.0
H5289 H 0.24411 0.18716 0.82026 0.0
C5290 C 0.24322 0.14835 0.79411 0.0
C5291 C 0.23688 0.16065 0.81784 0.0
C5292 C 0.23023 0.15943 0.83328 0.0
C5293 C 0.25041 0.16394 0.78944 0.0
C5294 C 0.25039 0.17797 0.79887 0.0
C5295 C 0.24391 0.17626 0.81304 0.0
C5296 C 0.25639 0.19452 0.79376 0.0
C5297 C 0.25757 0.16545 0.77424 0.0
C5298 C 0.27201 0.20343 0.79736 0.0
C5299 C 0.27775 0.21896 0.79206 0.0
C5300 C 0.26789 0.22575 0.78308 0.0
C5301 C 0.25217 0.21676 0.77963 0.0
C5302 C 0.24647 0.20125 0.78495 0.0
H5303 H 0.25742 0.1533 0.76863 0.0
H5304 H 0.25103 0.17156 0.76653 0.0
H5305 H 0.26986 0.17327 0.77583 0.0
H5306 H 0.27977 0.19829 0.80414 0.0
H5307 H 0.28992 0.22556 0.79492 0.0
H5308 H 0.38556 0.94566 0.2631 0.0
H5309 H 0.36853 0.91751 0.25955 0.0
H5310 H 0.33748 0.93003 0.29122 0.0
H5311 H 0.35436 0.95837 0.29466 0.0
H5312 H 0.361 0.89677 0.28464 0.0
H5313 H 0.30849 0.9055 0.25277 0.0
H5314 H 0.32754 0.92024 0.25338 0.0
H5315 H 0.31601 0.91915 0.2696 0.0
C5316 C 0.37496 0.9425 0.26909 0.0
C5317 C 0.37125 0.95419 0.27913 0.0
C5318 C 0.36531 0.92643 0.2671 0.0
C5319 C 0.35173 0.92183 0.27501 0.0
C5320 C 0.34783 0.93348 0.28487 0.0
H5321 H 0.30035 0.82414 0.29425 0.0
H5322 H 0.31356 0.85351 0.2953 0.0
C5323 C 0.35753 0.94957 0.28693 0.0
C5324 C 0.34228 0.90453 0.27372 0.0
H5325 H 0.3066 0.87889 0.26085 0.0
C5326 C 0.34911 0.89283 0.27942 0.0
C5327 C 0.32685 0.89955 0.26682 0.0
C5328 C 0.31926 0.9117 0.26017 0.0
C5329 C 0.34082 0.87618 0.27856 0.0
C5330 C 0.32529 0.87121 0.27191 0.0
C5331 C 0.3185 0.88286 0.26602 0.0
C5332 C 0.31605 0.85387 0.27099 0.0
C5333 C 0.34873 0.86397 0.28464 0.0
C5334 C 0.31277 0.84456 0.25688 0.0
C5335 C 0.30525 0.82775 0.25621 0.0
C5336 C 0.30085 0.82007 0.26965 0.0
C5337 C 0.30366 0.82964 0.28369 0.0
C5338 C 0.3112 0.84641 0.28434 0.0
H5339 H 0.36159 0.86932 0.28676 0.0
H5340 H 0.3439 0.85999 0.29559 0.0
H5341 H 0.34644 0.85288 0.27652 0.0
H5342 H 0.31645 0.85021 0.24648 0.0
H5343 H 0.30319 0.82073 0.24521 0.0
H5344 H 0.58465 0.36933 0.57796 0.0
H5345 H 0.58279 0.39483 0.56726 0.0
H5346 H 0.5329 0.38042 0.57113 0.0
H5347 H 0.53467 0.35504 0.58187 0.0
H5348 H 0.56628 0.40051 0.54162 0.0
H5349 H 0.54599 0.42568 0.59381 0.0
H5350 H 0.55398 0.40828 0.59377 0.0
H5351 H 0.53391 0.4056 0.58707 0.0
C5352 C 0.57327 0.37155 0.57643 0.0
C5353 C 0.55983 0.36022 0.58093 0.0
C5354 C 0.57224 0.38615 0.57037 0.0
C5355 C 0.55776 0.38972 0.56872 0.0
C5356 C 0.54426 0.37817 0.57271 0.0
H5357 H 0.52016 0.46516 0.53529 0.0
H5358 H 0.52533 0.44084 0.54535 0.0
C5359 C 0.54529 0.36364 0.57883 0.0
C5360 C 0.55667 0.40543 0.56276 0.0
H5361 H 0.5438 0.43917 0.57114 0.0
C5362 C 0.5615 0.40905 0.54812 0.0
C5363 C 0.55051 0.41662 0.57129 0.0
C5364 C 0.54595 0.41396 0.58741 0.0
C5365 C 0.55976 0.42322 0.54153 0.0
C5366 C 0.55322 0.43416 0.54992 0.0
C5367 C 0.54872 0.43072 0.56469 0.0
C5368 C 0.55034 0.44894 0.54343 0.0
C5369 C 0.56443 0.42605 0.52546 0.0
C5370 C 0.56272 0.46168 0.53908 0.0
C5371 C 0.5598 0.47566 0.53325 0.0
C5372 C 0.54446 0.47721 0.53179 0.0
C5373 C 0.53213 0.46443 0.53624 0.0
C5374 C 0.53505 0.45049 0.54202 0.0
H5375 H 0.5658 0.41471 0.51936 0.0
H5376 H 0.55564 0.43043 0.51877 0.0
H5377 H 0.57582 0.43562 0.52589 0.0
H5378 H 0.57465 0.46091 0.54037 0.0
H5379 H 0.56958 0.48529 0.53001 0.0
H5380 H 0.42101 0.72587 0.35865 0.0
H5381 H 0.39706 0.72731 0.3444 0.0
H5382 H 0.41105 0.78009 0.3531 0.0
H5383 H 0.43483 0.77869 0.36753 0.0
H5384 H 0.38079 0.76732 0.3581 0.0
H5385 H 0.39263 0.74162 0.30192 0.0
H5386 H 0.3927 0.72828 0.31698 0.0
H5387 H 0.40735 0.74777 0.31768 0.0
C5388 C 0.41904 0.73778 0.35739 0.0
C5389 C 0.42982 0.75216 0.3642 0.0
C5390 C 0.40537 0.7386 0.34921 0.0
C5391 C 0.40235 0.75384 0.34748 0.0
C5392 C 0.41311 0.7682 0.35428 0.0
H5393 H 0.33796 0.77687 0.28155 0.0
H5394 H 0.36038 0.77352 0.29682 0.0
C5395 C 0.42669 0.76737 0.36255 0.0
C5396 C 0.38789 0.75491 0.33884 0.0
H5397 H 0.3676 0.74595 0.30386 0.0
C5398 C 0.3779 0.76265 0.34623 0.0
C5399 C 0.3842 0.74896 0.32331 0.0
C5400 C 0.39485 0.74134 0.31444 0.0
C5401 C 0.36438 0.76468 0.33854 0.0
C5402 C 0.36053 0.75842 0.3231 0.0
C5403 C 0.37048 0.75062 0.31573 0.0
C5404 C 0.34669 0.76054 0.31412 0.0
C5405 C 0.35465 0.77395 0.34687 0.0
C5406 C 0.33146 0.75429 0.31871 0.0
C5407 C 0.31855 0.75631 0.31003 0.0
C5408 C 0.32062 0.76443 0.29649 0.0
C5409 C 0.33589 0.77055 0.2919 0.0
C5410 C 0.34876 0.76862 0.30061 0.0
H5411 H 0.36133 0.78157 0.35706 0.0
H5412 H 0.35047 0.78209 0.33926 0.0
H5413 H 0.34429 0.76504 0.35085 0.0
H5414 H 0.32954 0.74768 0.3289 0.0
H5415 H 0.30694 0.75133 0.31383 0.0
H5416 H 0.03154 0.69581 0.07489 0.0
H5417 H 0.02993 0.66771 0.06503 0.0
H5418 H 0.07987 0.67748 0.07387 0.0
H5419 H 0.08152 0.70548 0.08395 0.0
H5420 H 0.04312 0.65548 0.04155 0.0
H5421 H 0.06426 0.63666 0.09621 0.0
H5422 H 0.05876 0.65553 0.095 0.0
H5423 H 0.07761 0.65433 0.08949 0.0
C5424 C 0.04219 0.69201 0.07462 0.0
C5425 C 0.05663 0.70283 0.08034 0.0
C5426 C 0.04126 0.67592 0.06904 0.0
C5427 C 0.05473 0.67033 0.06904 0.0
C5428 C 0.06925 0.68132 0.07419 0.0
H5429 H 0.06911 0.5754 0.03934 0.0
H5430 H 0.07288 0.60424 0.04838 0.0
C5431 C 0.07018 0.69735 0.07988 0.0
C5432 C 0.05356 0.65303 0.06363 0.0
H5433 H 0.0609 0.61765 0.07453 0.0
C5434 C 0.04698 0.64722 0.04878 0.0
C5435 C 0.05862 0.64222 0.07306 0.0
C5436 C 0.06507 0.64742 0.08937 0.0
C5437 C 0.04541 0.63096 0.04308 0.0
C5438 C 0.0504 0.62016 0.05253 0.0
C5439 C 0.05714 0.62599 0.0673 0.0
C5440 C 0.04817 0.6026 0.04744 0.0
C5441 C 0.03857 0.62551 0.02692 0.0
C5442 C 0.03304 0.59205 0.04426 0.0
C5443 C 0.03082 0.5756 0.03916 0.0
C5444 C 0.04372 0.56927 0.03714 0.0
C5445 C 0.0589 0.57982 0.04067 0.0
C5446 C 0.06109 0.59631 0.04585 0.0
H5447 H 0.03908 0.63615 0.01998 0.0
H5448 H 0.04483 0.6174 0.02121 0.0
H5449 H 0.0261 0.61846 0.02713 0.0
H5450 H 0.02289 0.59657 0.04568 0.0
H5451 H 0.01895 0.56792 0.0366 0.0
H5452 H 0.07391 0.28015 0.85023 0.0
H5453 H 0.097 0.2812 0.83602 0.0
H5454 H 0.10611 0.24217 0.86099 0.0
H5455 H 0.08304 0.24101 0.87522 0.0
H5456 H 0.1277 0.2878 0.8465 0.0
H5457 H 0.10751 0.22506 0.81719 0.0
H5458 H 0.0945 0.23459 0.82688 0.0
H5459 H 0.10723 0.22542 0.8376 0.0
C5460 C 0.08084 0.27181 0.85272 0.0
C5461 C 0.07656 0.26042 0.8638 0.0
C5462 C 0.094 0.27238 0.84455 0.0
C5463 C 0.10313 0.26157 0.84725 0.0
C5464 C 0.09901 0.25033 0.85842 0.0
H5465 H 0.19017 0.25182 0.81222 0.0
H5466 H 0.16702 0.24948 0.8267 0.0
C5467 C 0.08582 0.2497 0.86656 0.0
C5468 C 0.1172 0.2624 0.83866 0.0
H5469 H 0.13401 0.23984 0.81491 0.0
C5470 C 0.12905 0.27733 0.83954 0.0
C5471 C 0.11895 0.24872 0.82961 0.0
C5472 C 0.10632 0.23258 0.82762 0.0
C5473 C 0.14267 0.2789 0.83175 0.0
C5474 C 0.1444 0.26523 0.82272 0.0
C5475 C 0.13264 0.25027 0.8219 0.0
C5476 C 0.15821 0.26636 0.81375 0.0
C5477 C 0.1552 0.29512 0.83336 0.0
C5478 C 0.16073 0.27637 0.8015 0.0
C5479 C 0.17381 0.27759 0.79309 0.0
C5480 C 0.1847 0.26885 0.79678 0.0
C5481 C 0.18198 0.25861 0.80895 0.0
C5482 C 0.16881 0.25732 0.8173 0.0
H5483 H 0.1537 0.30317 0.84328 0.0
H5484 H 0.16702 0.29315 0.83471 0.0
H5485 H 0.1546 0.30165 0.82288 0.0
H5486 H 0.15251 0.2832 0.79841 0.0
H5487 H 0.17529 0.28529 0.7836 0.0
H5488 H 0.54515 0.67177 0.91303 0.0
H5489 H 0.54468 0.64742 0.92672 0.0
H5490 H 0.52324 0.66648 0.96363 0.0
H5491 H 0.52356 0.69081 0.94998 0.0
H5492 H 0.5575 0.64052 0.95167 0.0
H5493 H 0.49439 0.62191 0.96045 0.0
H5494 H 0.50272 0.63799 0.94837 0.0
H5495 H 0.50372 0.64228 0.96879 0.0
C5496 C 0.54033 0.67099 0.92408 0.0
C5497 C 0.53431 0.68375 0.93006 0.0
C5498 C 0.54001 0.65676 0.932 0.0
C5499 C 0.53358 0.65439 0.94634 0.0
C5500 C 0.52779 0.66723 0.95246 0.0
H5501 H 0.52469 0.57745 0.01349 0.0
H5502 H 0.52471 0.60194 -0.00011 0.0
C5503 C 0.52805 0.68144 0.94452 0.0
C5504 C 0.53335 0.63888 0.95486 0.0
H5505 H 0.51005 0.60811 0.97418 0.0
C5506 C 0.54701 0.63347 0.95645 0.0
C5507 C 0.51985 0.62919 0.96138 0.0
C5508 C 0.5043 0.63301 0.95955 0.0
C5509 C 0.54765 0.6194 0.96436 0.0
C5510 C 0.53417 0.60978 0.97092 0.0
C5511 C 0.52052 0.61518 0.96937 0.0
C5512 C 0.534 0.59425 0.97935 0.0
C5513 C 0.56309 0.61533 0.966 0.0
C5514 C 0.53887 0.58105 0.97262 0.0
C5515 C 0.53882 0.56685 0.98046 0.0
C5516 C 0.53382 0.56503 0.99544 0.0
C5517 C 0.5287 0.57811 0.00208 0.0
C5518 C 0.52869 0.5923 0.9942 0.0
H5519 H 0.57309 0.62624 0.96473 0.0
H5520 H 0.56482 0.61057 0.97726 0.0
H5521 H 0.56331 0.60576 0.9569 0.0
H5522 H 0.54263 0.58159 0.96112 0.0
H5523 H 0.54277 0.55723 0.97469 0.0
H5524 H 0.1263 0.78254 0.67553 0.0
H5525 H 0.15183 0.78169 0.68688 0.0
H5526 H 0.13235 0.77333 0.73035 0.0
H5527 H 0.10676 0.77422 0.71908 0.0
H5528 H 0.17225 0.80121 0.71172 0.0
H5529 H 0.15406 0.73622 0.72567 0.0
H5530 H 0.14246 0.74451 0.71254 0.0
H5531 H 0.14225 0.74877 0.73277 0.0
C5532 C 0.12727 0.7804 0.6875 0.0
C5533 C 0.11397 0.77838 0.69616 0.0
C5534 C 0.14212 0.78 0.69409 0.0
C5535 C 0.14445 0.77721 0.70962 0.0
C5536 C 0.13123 0.77526 0.71833 0.0
H5537 H 0.22468 0.76152 0.76714 0.0
H5538 H 0.19923 0.76325 0.75637 0.0
C5539 C 0.11642 0.77593 0.71181 0.0
C5540 C 0.16056 0.77655 0.7166 0.0
H5541 H 0.17974 0.75153 0.73426 0.0
C5542 C 0.17381 0.79027 0.71659 0.0
C5543 C 0.16308 0.76249 0.72325 0.0
C5544 C 0.14979 0.74708 0.72351 0.0
C5545 C 0.18895 0.7905 0.72314 0.0
C5546 C 0.19161 0.77628 0.72951 0.0
C5547 C 0.17827 0.76255 0.7295 0.0
C5548 C 0.20781 0.77539 0.7363 0.0
C5549 C 0.20174 0.80644 0.72369 0.0
C5550 C 0.22183 0.78132 0.72893 0.0
C5551 C 0.23665 0.7806 0.73533 0.0
C5552 C 0.23828 0.77351 0.74927 0.0
C5553 C 0.22425 0.76718 0.75647 0.0
C5554 C 0.20946 0.76813 0.75018 0.0
H5555 H 0.19684 0.81717 0.72365 0.0
H5556 H 0.2099 0.80809 0.73403 0.0
H5557 H 0.20843 0.80653 0.71339 0.0
H5558 H 0.22139 0.78637 0.71798 0.0
H5559 H 0.24689 0.78544 0.72914 0.0
H5560 H 0.03093 0.33982 0.44892 0.0
H5561 H 0.02966 0.36586 0.46153 0.0
H5562 H 0.04823 0.39108 0.42272 0.0
H5563 H 0.04877 0.36505 0.40969 0.0
H5564 H 0.04992 0.39352 0.47203 0.0
H5565 H 0.01337 0.41111 0.42697 0.0
H5566 H 0.01659 0.39101 0.42642 0.0
H5567 H 0.03104 0.40818 0.42 0.0
C5568 C 0.03451 0.35076 0.4428 0.0
C5569 C 0.03985 0.34976 0.42796 0.0
C5570 C 0.03391 0.3659 0.45021 0.0
C5571 C 0.0385 0.38086 0.44318 0.0
C5572 C 0.0441 0.37997 0.4285 0.0
H5573 H 0.04539 0.48574 0.47135 0.0
H5574 H 0.04629 0.45968 0.45811 0.0
C5575 C 0.04468 0.36484 0.42105 0.0
C5576 C 0.03778 0.39721 0.4513 0.0
H5577 H 0.02506 0.43175 0.4469 0.0
C5578 C 0.04436 0.40174 0.46646 0.0
C5579 C 0.03062 0.40839 0.44438 0.0
C5580 C 0.02237 0.40438 0.42861 0.0
C5581 C 0.0443 0.41682 0.47454 0.0
C5582 C 0.03716 0.428 0.46761 0.0
C5583 C 0.03061 0.4235 0.45245 0.0
C5584 C 0.03635 0.44425 0.47582 0.0
C5585 C 0.05242 0.42081 0.49036 0.0
C5586 C 0.03016 0.44481 0.49026 0.0
C5587 C 0.02962 0.45984 0.49792 0.0
C5588 C 0.03515 0.47507 0.49148 0.0
C5589 C 0.04105 0.47448 0.47689 0.0
C5590 C 0.04156 0.45942 0.46922 0.0
H5591 H 0.06129 0.41396 0.49216 0.0
H5592 H 0.0583 0.43417 0.49254 0.0
H5593 H 0.04363 0.41718 0.49891 0.0
H5594 H 0.02557 0.43354 0.49566 0.0
H5595 H 0.02488 0.45949 0.50901 0.0
H5596 H 0.45513 0.26451 0.21781 0.0
H5597 H 0.43019 0.26307 0.22892 0.0
H5598 H 0.41249 0.2778 0.18722 0.0
H5599 H 0.43711 0.27871 0.17585 0.0
H5600 H 0.41402 0.28359 0.23686 0.0
H5601 H 0.37538 0.24066 0.1923 0.0
H5602 H 0.39639 0.24489 0.19295 0.0
H5603 H 0.38682 0.2588 0.18458 0.0
C5604 C 0.44596 0.26724 0.21076 0.0
C5605 C 0.44872 0.27166 0.19562 0.0
C5606 C 0.43148 0.26652 0.21731 0.0
C5607 C 0.41876 0.26998 0.20908 0.0
C5608 C 0.42153 0.27456 0.19403 0.0
H5609 H 0.33863 0.29437 0.25396 0.0
H5610 H 0.36324 0.29467 0.24278 0.0
C5611 C 0.43602 0.27534 0.18749 0.0
C5612 C 0.403 0.26912 0.21628 0.0
H5613 H 0.36273 0.25385 0.21022 0.0
C5614 C 0.40288 0.27702 0.23091 0.0
C5615 C 0.388 0.2604 0.20907 0.0
C5616 C 0.38659 0.25056 0.19394 0.0
C5617 C 0.38877 0.27678 0.23812 0.0
C5618 C 0.37375 0.2686 0.23065 0.0
C5619 C 0.37388 0.26038 0.21618 0.0
C5620 C 0.358 0.26836 0.23762 0.0
C5621 C 0.39027 0.28504 0.25402 0.0
C5622 C 0.34586 0.25362 0.23834 0.0
C5623 C 0.33141 0.25343 0.24478 0.0
C5624 C 0.32824 0.26801 0.25074 0.0
C5625 C 0.34032 0.28274 0.2498 0.0
C5626 C 0.35471 0.28292 0.2434 0.0
H5627 H 0.40179 0.28584 0.26001 0.0
H5628 H 0.38936 0.29777 0.25329 0.0
H5629 H 0.3809 0.27836 0.26101 0.0
H5630 H 0.34757 0.24206 0.234 0.0
H5631 H 0.32264 0.24175 0.24501 0.0
H5632 H 0.5878 0.46793 0.35619 0.0
H5633 H 0.57134 0.46115 0.37775 0.0
H5634 H 0.59441 0.50865 0.40076 0.0
H5635 H 0.61114 0.51536 0.37967 0.0
H5636 H 0.58787 0.46946 0.41493 0.0
H5637 H 0.54063 0.49585 0.39365 0.0
H5638 H 0.55137 0.48609 0.38099 0.0
H5639 H 0.56043 0.50631 0.38988 0.0
C5640 C 0.58945 0.47684 0.36593 0.0
C5641 C 0.6007 0.49221 0.36623 0.0
C5642 C 0.58001 0.47298 0.37812 0.0
C5643 C 0.58172 0.48448 0.39065 0.0
C5644 C 0.59295 0.49972 0.39104 0.0
H5645 H 0.57062 0.51452 0.47727 0.0
H5646 H 0.57778 0.5041 0.45304 0.0
C5647 C 0.60239 0.50356 0.37896 0.0
C5648 C 0.57202 0.48091 0.40364 0.0
H5649 H 0.54313 0.4932 0.42044 0.0
C5650 C 0.57776 0.47413 0.41606 0.0
C5651 C 0.55886 0.48698 0.40489 0.0
C5652 C 0.55233 0.49415 0.39164 0.0
C5653 C 0.57139 0.47455 0.43023 0.0
C5654 C 0.5592 0.48209 0.43188 0.0
C5655 C 0.55254 0.48748 0.41909 0.0
C5656 C 0.555 0.48695 0.44705 0.0
C5657 C 0.57832 0.46783 0.44355 0.0
C5658 C 0.53978 0.48083 0.45152 0.0
C5659 C 0.53565 0.48674 0.46538 0.0
C5660 C 0.54663 0.49908 0.47476 0.0
C5661 C 0.5619 0.50508 0.47025 0.0
C5662 C 0.56605 0.49903 0.4565 0.0
H5663 H 0.58399 0.4583 0.43964 0.0
H5664 H 0.58738 0.47797 0.45009 0.0
H5665 H 0.56922 0.46245 0.45138 0.0
H5666 H 0.53109 0.47165 0.44421 0.0
H5667 H 0.52377 0.48194 0.46857 0.0
H5668 H 0.28445 0.84179 0.05969 0.0
H5669 H 0.28827 0.82745 0.08226 0.0
H5670 H 0.32575 0.86948 0.10031 0.0
H5671 H 0.32174 0.88411 0.07794 0.0
H5672 H 0.31583 0.81999 0.09487 0.0
H5673 H 0.29381 0.86158 0.13373 0.0
H5674 H 0.29068 0.86069 0.1132 0.0
H5675 H 0.30948 0.87139 0.12248 0.0
C5676 C 0.29348 0.84799 0.06848 0.0
C5677 C 0.3027 0.86413 0.06714 0.0
C5678 C 0.29572 0.83975 0.08128 0.0
C5679 C 0.30716 0.84752 0.09295 0.0
C5680 C 0.31674 0.8634 0.09145 0.0
H5681 H 0.3332 0.80088 0.17229 0.0
H5682 H 0.33403 0.81518 0.14884 0.0
C5683 C 0.31452 0.87166 0.07863 0.0
C5684 C 0.30855 0.83916 0.10695 0.0
H5685 H 0.3022 0.84056 0.14484 0.0
C5686 C 0.31297 0.8245 0.10583 0.0
C5687 C 0.30461 0.84508 0.12113 0.0
C5688 C 0.29926 0.86048 0.12278 0.0
C5689 C 0.31345 0.81548 0.1186 0.0
C5690 C 0.30953 0.82141 0.13278 0.0
C5691 C 0.30526 0.83614 0.13391 0.0
C5692 C 0.30908 0.81217 0.14648 0.0
C5693 C 0.3177 0.79945 0.11678 0.0
C5694 C 0.29478 0.80588 0.15287 0.0
C5695 C 0.29425 0.79769 0.16618 0.0
C5696 C 0.30804 0.79577 0.17339 0.0
C5697 C 0.32235 0.80197 0.16687 0.0
C5698 C 0.32286 0.81015 0.15351 0.0
H5699 H 0.31756 0.79512 0.10458 0.0
H5700 H 0.32965 0.80114 0.12217 0.0
H5701 H 0.30949 0.78977 0.12259 0.0
H5702 H 0.28403 0.80735 0.14755 0.0
H5703 H 0.28303 0.79285 0.17082 0.0
H5704 H 0.95378 0.52951 0.88371 0.0
H5705 H 0.97158 0.52533 0.90432 0.0
H5706 H 0.0109 0.54341 0.87744 0.0
H5707 H 0.99323 0.54729 0.85664 0.0
H5708 H 0.99475 0.50527 0.90057 0.0
H5709 H 0.02057 0.57143 0.92037 0.0
H5710 H 1.0017 0.56408 0.90982 0.0
H5711 H 0.01922 0.56561 0.90019 0.0
C5712 C 0.9662 0.53254 0.88218 0.0
C5713 C 0.97214 0.53883 0.86863 0.0
C5714 C 0.97631 0.53019 0.89393 0.0
C5715 C 0.99245 0.53417 0.8923 0.0
C5716 C 0.99845 0.54046 0.87886 0.0
H5717 H 0.0604 0.53558 0.96845 0.0
H5718 H 0.05094 0.5354 0.94156 0.0
C5719 C 0.98836 0.54276 0.86708 0.0
C5720 C 1.00299 0.53162 0.90471 0.0
H5721 H 0.02873 0.55201 0.9341 0.0
C5722 C 1.00237 0.51545 0.90781 0.0
C5723 C 0.01294 0.54499 0.91391 0.0
C5724 C 0.01369 0.56255 0.91104 0.0
C5725 C 0.01111 0.51228 0.92037 0.0
C5726 C 0.02042 0.52565 0.93007 0.0
C5727 C 0.02166 0.54182 0.92649 0.0
C5728 C 0.0268 0.52326 0.94523 0.0
C5729 C 0.00992 0.49469 0.92342 0.0
C5730 C 0.01635 0.51634 0.95594 0.0
C5731 C 0.02167 0.51656 0.97108 0.0
C5732 C 0.03746 0.5238 0.97571 0.0
C5733 C 0.04815 0.52994 0.96495 0.0
C5734 C 0.04279 0.52984 0.94971 0.0
H5735 H 0.00714 0.48655 0.91266 0.0
H5736 H 0.02095 0.49353 0.92913 0.0
H5737 H 1.0003 0.49028 0.93098 0.0
H5738 H 1.00393 0.51151 0.95275 0.0
H5739 H 0.01336 0.51143 0.97925 0.0
H5740 H 0.27628 0.23513 0.58945 0.0
H5741 H 0.27482 0.24334 0.61639 0.0
H5742 H 0.30457 0.21332 0.62959 0.0
H5743 H 0.30588 0.20479 0.60279 0.0
H5744 H 0.26379 0.22349 0.64033 0.0
H5745 H 0.3263 0.25783 0.65287 0.0
H5746 H 0.31749 0.25226 0.63362 0.0
H5747 H 0.32314 0.23724 0.64447 0.0
C5748 C 0.28249 0.23019 0.59805 0.0
C5749 C 0.2913 0.21933 0.59377 0.0
C5750 C 0.28169 0.23498 0.61349 0.0
C5751 C 0.28978 0.22917 0.62508 0.0
C5752 C 0.29852 0.2183 0.6209 0.0
H5753 H 0.30083 0.24214 0.72459 0.0
H5754 H 0.30169 0.23431 0.69749 0.0
C5755 C 0.29929 0.21346 0.60548 0.0
C5756 C 0.28874 0.23411 0.64154 0.0
H5757 H 0.31078 0.2529 0.6741 0.0
C5758 C 0.27405 0.23001 0.6477 0.0
C5759 C 0.30212 0.24256 0.65122 0.0
C5760 C 0.31815 0.24788 0.64522 0.0
C5761 C 0.27242 0.23376 0.66326 0.0
C5762 C 0.28581 0.24223 0.67296 0.0
C5763 C 0.30049 0.24639 0.66676 0.0
C5764 C 0.28491 0.2468 0.68956 0.0
C5765 C 0.25641 0.22813 0.66924 0.0
C5766 C 0.2753 0.25658 0.69428 0.0
C5767 C 0.27469 0.261 0.70983 0.0
C5768 C 0.28382 0.25591 0.7211 0.0
C5769 C 0.29355 0.24624 0.71632 0.0
C5770 C 0.29409 0.24177 0.70077 0.0
H5771 H 0.24852 0.21785 0.66174 0.0
H5772 H 0.25714 0.22406 0.68096 0.0
H5773 H 0.25103 0.23849 0.66963 0.0
H5774 H 0.26841 0.26103 0.68591 0.0
H5775 H 0.26719 0.26861 0.713 0.0
H5776 H 0.61401 0.53096 0.21901 0.0
H5777 H 0.59562 0.53172 0.19761 0.0
H5778 H 0.55931 0.49547 0.21704 0.0
H5779 H 0.57781 0.49444 0.23838 0.0
H5780 H 0.55974 0.48833 0.18714 0.0
H5781 H 0.56083 0.55353 0.19715 0.0
H5782 H 0.58026 0.55158 0.19577 0.0
H5783 H 0.56896 0.54287 0.21116 0.0
C5784 C 0.60207 0.52327 0.21877 0.0
C5785 C 0.59728 0.51271 0.23036 0.0
C5786 C 0.59156 0.52377 0.20661 0.0
C5787 C 0.576 0.51395 0.20596 0.0
C5788 C 0.57123 0.50325 0.21742 0.0
H5789 H 0.51722 0.53628 0.13199 0.0
H5790 H 0.52484 0.53005 0.15769 0.0
C5791 C 0.5818 0.50262 0.22954 0.0
C5792 C 0.565 0.51443 0.19291 0.0
H5793 H 0.55236 0.5411 0.17153 0.0
C5794 C 0.55787 0.49982 0.18386 0.0
C5795 C 0.5622 0.52932 0.18888 0.0
C5796 C 0.56833 0.54516 0.19887 0.0
C5797 C 0.54887 0.49989 0.1703 0.0
C5798 C 0.54739 0.51505 0.16549 0.0
C5799 C 0.55365 0.52948 0.17509 0.0
C5800 C 0.54085 0.51659 0.14999 0.0
C5801 C 0.54125 0.48374 0.1612 0.0
C5802 C 0.54715 0.51092 0.13715 0.0
C5803 C 0.54264 0.51424 0.12255 0.0
C5804 C 0.53201 0.52361 0.12052 0.0
C5805 C 0.52542 0.529 0.1333 0.0
C5806 C 0.52975 0.52544 0.14793 0.0
H5807 H 0.53813 0.47355 0.16884 0.0
H5808 H 0.53051 0.48412 0.15439 0.0
H5809 H 0.54964 0.48087 0.15333 0.0
H5810 H 0.55615 0.50461 0.13844 0.0
H5811 H 0.54817 0.51026 0.11291 0.0
H5812 H 0.29894 0.85367 0.92632 0.0
H5813 H 0.29643 0.84026 0.90053 0.0
H5814 H 0.25609 0.85736 0.88938 0.0
H5815 H 0.25857 0.87092 0.91514 0.0
H5816 H 0.25212 0.82403 0.88025 0.0
H5817 H 0.30723 0.86404 0.86147 0.0
H5818 H 0.30978 0.85495 0.879 0.0
H5819 H 0.29829 0.86937 0.87826 0.0
C5820 C 0.28961 0.85467 0.91834 0.0
C5821 C 0.279 0.8634 0.92271 0.0
C5822 C 0.2882 0.84703 0.90363 0.0
C5823 C 0.27624 0.84809 0.89304 0.0
C5824 C 0.26544 0.8565 0.89743 0.0
H5825 H 0.27653 0.81874 0.79624 0.0
H5826 H 0.27437 0.83415 0.82007 0.0
C5827 C 0.26682 0.86414 0.91214 0.0
C5828 C 0.27491 0.84022 0.87741 0.0
H5829 H 0.29506 0.83955 0.84561 0.0
C5830 C 0.26142 0.8275 0.8726 0.0
C5831 C 0.28697 0.845 0.86741 0.0
C5832 C 0.30133 0.8592 0.87171 0.0
C5833 C 0.25994 0.81897 0.85819 0.0
C5834 C 0.27238 0.82317 0.84853 0.0
C5835 C 0.2856 0.83631 0.85312 0.0
C5836 C 0.27234 0.81357 0.83395 0.0
C5837 C 0.24512 0.80552 0.85347 0.0
C5838 C 0.27191 0.79692 0.83393 0.0
C5839 C 0.27313 0.78809 0.82039 0.0
C5840 C 0.27495 0.79581 0.80663 0.0
C5841 C 0.27514 0.81244 0.80664 0.0
C5842 C 0.27391 0.82126 0.82022 0.0
H5843 H 0.23515 0.80718 0.85986 0.0
H5844 H 0.24193 0.80511 0.84104 0.0
H5845 H 0.24694 0.79349 0.856 0.0
H5846 H 0.27106 0.79087 0.84448 0.0
H5847 H 0.27299 0.77532 0.8208 0.0
H5848 H 1.00085 0.5479 0.74154 0.0
H5849 H 0.01207 0.5442 0.71726 0.0
H5850 H 0.97359 0.55612 0.6932 0.0
H5851 H 0.96181 0.5588 0.71712 0.0
H5852 H 0.97684 0.5266 0.68339 0.0
H5853 H 0.03416 0.574 0.68584 0.0
H5854 H 0.03138 0.56195 0.7021 0.0
H5855 H 0.01914 0.57522 0.69852 0.0
C5856 C 0.99486 0.54989 0.73109 0.0
C5857 C 0.98035 0.55351 0.73129 0.0
C5858 C 1.00142 0.54802 0.71726 0.0
C5859 C 0.99369 0.55001 0.70349 0.0
C5860 C 0.97975 0.55462 0.70375 0.0
H5861 H 0.02078 0.54322 0.61108 0.0
H5862 H 0.0151 0.55256 0.63642 0.0
C5863 C 0.9731 0.55629 0.71749 0.0
C5864 C 0.99882 0.54509 0.68873 0.0
H5865 H 0.0292 0.55264 0.66571 0.0
C5866 C 0.98826 0.53236 0.67948 0.0
C5867 C 0.0137 0.55267 0.68372 0.0
C5868 C 0.02521 0.56682 0.69298 0.0
C5869 C 0.99213 0.52698 0.66528 0.0
C5870 C 0.00717 0.53422 0.66043 0.0
C5871 C 0.01775 0.54703 0.66961 0.0
C5872 C 0.01185 0.52887 0.64562 0.0
C5873 C 0.97997 0.51383 0.65549 0.0
C5874 C 0.01217 0.51255 0.64259 0.0
C5875 C 0.01506 0.50709 0.62807 0.0
C5876 C 0.01792 0.51794 0.61642 0.0
C5877 C 0.01825 0.53447 0.61972 0.0
C5878 C 0.01521 0.53988 0.63421 0.0
H5879 H 0.96796 0.51274 0.65906 0.0
H5880 H 0.98025 0.5164 0.64326 0.0
H5881 H 0.9824 0.50178 0.65662 0.0
H5882 H 0.00983 0.50396 0.65137 0.0
H5883 H 0.01465 0.49427 0.62588 0.0
H5884 H 0.27306 0.19659 0.42512 0.0
H5885 H 0.27415 0.20506 0.39903 0.0
H5886 H 0.31483 0.24536 0.41317 0.0
H5887 H 0.31392 0.23684 0.43929 0.0
H5888 H 0.27148 0.2325 0.3873 0.0
H5889 H 0.3303 0.2259 0.37653 0.0
H5890 H 0.32019 0.21811 0.39292 0.0
H5891 H 0.33041 0.23959 0.39293 0.0
C5892 C 0.28223 0.20731 0.42274 0.0
C5893 C 0.29342 0.21598 0.43442 0.0
C5894 C 0.28288 0.21211 0.40774 0.0
C5895 C 0.29475 0.22571 0.40393 0.0
C5896 C 0.30581 0.23455 0.4156 0.0
H5897 H 0.31138 0.27525 0.31895 0.0
H5898 H 0.31262 0.26741 0.3453 0.0
C5899 C 0.30524 0.22969 0.43061 0.0
C5900 C 0.29519 0.23079 0.38786 0.0
H5901 H 0.31835 0.2385 0.35774 0.0
C5902 C 0.28173 0.23373 0.38086 0.0
C5903 C 0.30854 0.23247 0.37932 0.0
C5904 C 0.32313 0.2287 0.38573 0.0
C5905 C 0.2813 0.2384 0.36576 0.0
C5906 C 0.29462 0.24004 0.35724 0.0
C5907 C 0.30814 0.23727 0.36424 0.0
C5908 C 0.29458 0.24435 0.34099 0.0
C5909 C 0.26662 0.24179 0.35912 0.0
C5910 C 0.28436 0.23382 0.32963 0.0
C5911 C 0.28368 0.23821 0.31453 0.0
C5912 C 0.29323 0.25327 0.31036 0.0
C5913 C 0.30385 0.26356 0.32167 0.0
C5914 C 0.30456 0.25911 0.33678 0.0
H5915 H 0.25897 0.24392 0.36815 0.0
H5916 H 0.26951 0.25269 0.3523 0.0
H5917 H 0.25988 0.23104 0.35143 0.0
H5918 H 0.27674 0.22224 0.33248 0.0
H5919 H 0.27538 0.2299 0.30621 0.0
H5920 H 0.36838 0.60739 0.53557 0.0
H5921 H 0.38441 0.58841 0.53169 0.0
H5922 H 0.35099 0.56076 0.49579 0.0
H5923 H 0.33467 0.57942 0.49979 0.0
H5924 H 0.37182 0.55201 0.53342 0.0
H5925 H 0.39558 0.57107 0.47792 0.0
H5926 H 0.38853 0.58459 0.4906 0.0
H5927 H 0.3749 0.56767 0.47965 0.0
C5928 C 0.36447 0.5973 0.52682 0.0
C5929 C 0.3503 0.5949 0.51796 0.0
C5930 C 0.37364 0.58654 0.5246 0.0
C5931 C 0.36883 0.57334 0.51343 0.0
C5932 C 0.3549 0.57106 0.50434 0.0
H5933 H 0.42145 0.50387 0.4882 0.0
H5934 H 0.39985 0.51656 0.48959 0.0
C5935 C 0.34568 0.58177 0.50658 0.0
C5936 C 0.37813 0.56156 0.5118 0.0
H5937 H 0.4035 0.54982 0.48901 0.0
C5938 C 0.37867 0.55139 0.52368 0.0
C5939 C 0.38681 0.56076 0.49896 0.0
C5940 C 0.38657 0.57163 0.48604 0.0
C5941 C 0.38807 0.54061 0.52322 0.0
C5942 C 0.39734 0.54035 0.51071 0.0
C5943 C 0.39632 0.55008 0.49856 0.0
C5944 C 0.40928 0.53131 0.51067 0.0
C5945 C 0.3881 0.52973 0.53617 0.0
C5946 C 0.42158 0.5354 0.52211 0.0
C5947 C 0.43379 0.52815 0.52141 0.0
C5948 C 0.43399 0.51684 0.50913 0.0
C5949 C 0.42147 0.51244 0.49785 0.0
C5950 C 0.40921 0.5197 0.49859 0.0
H5951 H 0.37696 0.52735 0.54189 0.0
H5952 H 0.38992 0.51778 0.53211 0.0
H5953 H 0.39775 0.53599 0.54484 0.0
H5954 H 0.42199 0.54461 0.53134 0.0
H5955 H 0.44324 0.53162 0.53032 0.0
H5956 H 0.85692 0.92886 0.49825 0.0
H5957 H 0.88378 0.94604 0.49736 0.0
H5958 H 0.89199 0.94348 0.5458 0.0
H5959 H 0.8653 0.92581 0.54673 0.0
H5960 H 0.89986 0.97628 0.51253 0.0
H5961 H 0.92688 0.92702 0.52772 0.0
H5962 H 0.90629 0.92296 0.52218 0.0
H5963 H 0.91383 0.93141 0.5412 0.0
C5964 C 0.86446 0.93186 0.50871 0.0
C5965 C 0.85901 0.9258 0.52254 0.0
C5966 C 0.87977 0.94179 0.5082 0.0
C5967 C 0.88994 0.94582 0.52146 0.0
C5968 C 0.8844 0.94028 0.53538 0.0
H5969 H 0.98179 0.01846 0.52957 0.0
H5970 H 0.95414 0.00424 0.53152 0.0
C5971 C 0.86909 0.93032 0.53591 0.0
C5972 C 0.90645 0.95547 0.52059 0.0
H5973 H 0.9441 0.95337 0.52572 0.0
C5974 C 0.90956 0.97131 0.51543 0.0
C5975 C 0.91905 0.94885 0.52417 0.0
C5976 C 0.91641 0.93157 0.529 0.0
C5977 C 0.92495 0.98074 0.5138 0.0
C5978 C 0.93756 0.97424 0.51769 0.0
C5979 C 0.93443 0.95839 0.52283 0.0
C5980 C 0.95411 0.98336 0.51606 0.0
C5981 C 0.92752 0.99738 0.50754 0.0
C5982 C 0.96335 0.97626 0.5069 0.0
C5983 C 0.97916 0.98425 0.50592 0.0
C5984 C 0.98609 0.99954 0.51406 0.0
C5985 C 0.97677 0.00678 0.52304 0.0
C5986 C 0.96094 0.99869 0.52411 0.0
H5987 H 0.91673 0.99863 0.50138 0.0
H5988 H 0.9309 0.00706 0.51714 0.0
H5989 H 0.93706 0.99959 0.49963 0.0
H5990 H 0.95833 0.96443 0.50061 0.0
H5991 H 0.986 0.97833 0.49889 0.0
H5992 H 0.85937 0.07589 0.27173 0.0
H5993 H 0.84131 0.0922 0.27749 0.0
H5994 H 0.85551 0.12046 0.23897 0.0
H5995 H 0.87395 0.10448 0.23335 0.0
H5996 H 0.85422 0.13921 0.26684 0.0
H5997 H 0.79997 0.08841 0.25145 0.0
H5998 H 0.81395 0.08387 0.26478 0.0
H5999 H 0.8189 0.08767 0.24556 0.0
C6000 C 0.85879 0.08571 0.2646 0.0
C6001 C 0.86803 0.08894 0.25208 0.0
C6002 C 0.84836 0.09486 0.26781 0.0
C6003 C 0.84698 0.10729 0.2585 0.0
C6004 C 0.85639 0.11078 0.24618 0.0
H6005 H 0.77825 0.16046 0.24977 0.0
H6006 H 0.79461 0.14169 0.2466 0.0
C6007 C 0.86682 0.10163 0.24296 0.0
C6008 C 0.83579 0.11676 0.26167 0.0
H6009 H 0.79679 0.11344 0.26232 0.0
C6010 C 0.84166 0.13362 0.2659 0.0
C6011 C 0.81946 0.10933 0.26024 0.0
C6012 C 0.81262 0.09135 0.25514 0.0
C6013 C 0.83157 0.14333 0.26881 0.0
C6014 C 0.81524 0.13584 0.26767 0.0
C6015 C 0.80935 0.119 0.26336 0.0
C6016 C 0.80411 0.14556 0.27013 0.0
C6017 C 0.8384 0.16156 0.27275 0.0
C6018 C 0.80372 0.1534 0.28454 0.0
C6019 C 0.79448 0.16415 0.28637 0.0
C6020 C 0.78548 0.16713 0.2738 0.0
C6021 C 0.78523 0.15851 0.25959 0.0
C6022 C 0.79448 0.14777 0.25778 0.0
H6023 H 0.85086 0.16584 0.27011 0.0
H6024 H 0.83165 0.16864 0.26642 0.0
H6025 H 0.83777 0.16437 0.28515 0.0
H6026 H 0.81098 0.15163 0.29421 0.0
H6027 H 0.795 0.17075 0.29741 0.0
H6028 H 0.70774 0.06064 0.07063 0.0
H6029 H 0.68047 0.04464 0.07188 0.0
H6030 H 0.67413 0.04082 0.02267 0.0
H6031 H 0.7011 0.0568 0.02132 0.0
H6032 H 0.65771 0.05745 0.06128 0.0
H6033 H 0.64858 0.99576 0.03211 0.0
H6034 H 0.66774 0.00849 0.03926 0.0
H6035 H 0.65935 0.01134 0.02087 0.0
C6036 C 0.70061 0.05603 0.06008 0.0
C6037 C 0.70652 0.06008 0.04588 0.0
C6038 C 0.68511 0.0468 0.06082 0.0
C6039 C 0.67537 0.04137 0.04737 0.0
C6040 C 0.68156 0.04447 0.03317 0.0
H6041 H 0.58579 0.02749 0.00743 0.0
H6042 H 0.61294 0.02917 0.0153 0.0
C6043 C 0.69701 0.05369 0.03243 0.0
C6044 C 0.65825 0.03543 0.04801 0.0
H6045 H 0.62608 0.00703 0.03083 0.0
C6046 C 0.65073 0.04617 0.05503 0.0
C6047 C 0.64926 0.02077 0.03978 0.0
C6048 C 0.65668 0.00837 0.03272 0.0
C6049 C 0.6345 0.04335 0.05295 0.0
C6050 C 0.62562 0.02923 0.04385 0.0
C6051 C 0.633 0.0179 0.03771 0.0
C6052 C 0.60899 0.027 0.03925 0.0
C6053 C 0.62716 0.05608 0.05957 0.0
C6054 C 0.59784 0.02507 0.05014 0.0
C6055 C 0.58237 0.02432 0.04573 0.0
C6056 C 0.57783 0.02532 0.03032 0.0
C6057 C 0.58896 0.0268 0.01939 0.0
C6058 C 0.60443 0.02765 0.02384 0.0
H6059 H 0.63607 0.0676 0.06403 0.0
H6060 H 0.61915 0.05913 0.05082 0.0
H6061 H 0.62019 0.05108 0.06915 0.0
H6062 H 0.60115 0.02431 0.06205 0.0
H6063 H 0.57399 0.02295 0.05438 0.0
H6064 H 0.20139 0.44692 0.2338 0.0
H6065 H 0.2204 0.43161 0.23946 0.0
H6066 H 0.198 0.41651 0.28055 0.0
H6067 H 0.17865 0.4313 0.27472 0.0
H6068 H 0.24077 0.43778 0.26618 0.0
H6069 H 0.20251 0.37356 0.25984 0.0
H6070 H 0.19669 0.39043 0.25213 0.0
H6071 H 0.19559 0.38734 0.27213 0.0
C6072 C 0.2003 0.44 0.24383 0.0
C6073 C 0.18856 0.44024 0.25382 0.0
C6074 C 0.21121 0.43141 0.2471 0.0
C6075 C 0.21046 0.4229 0.26033 0.0
C6076 C 0.19858 0.42284 0.27016 0.0
H6077 H 0.26615 0.36626 0.30181 0.0
H6078 H 0.24885 0.3838 0.29773 0.0
C6079 C 0.18765 0.43139 0.2669 0.0
C6080 C 0.22261 0.41483 0.26433 0.0
H6081 H 0.22827 0.37769 0.27106 0.0
C6082 C 0.2381 0.42463 0.26719 0.0
C6083 C 0.21895 0.39772 0.26567 0.0
C6084 C 0.20256 0.3866 0.26215 0.0
C6085 C 0.25011 0.41774 0.27159 0.0
C6086 C 0.24643 0.40065 0.27297 0.0
C6087 C 0.23094 0.39085 0.27011 0.0
C6088 C 0.25853 0.39243 0.27672 0.0
C6089 C 0.26654 0.42878 0.27493 0.0
C6090 C 0.26987 0.39188 0.26642 0.0
C6091 C 0.27983 0.38199 0.26877 0.0
C6092 C 0.27846 0.37244 0.2814 0.0
C6093 C 0.2676 0.37368 0.29211 0.0
C6094 C 0.25766 0.38357 0.28974 0.0
H6095 H 0.2667 0.44186 0.27712 0.0
H6096 H 0.27244 0.425 0.28497 0.0
H6097 H 0.27342 0.42783 0.26493 0.0
H6098 H 0.27051 0.39846 0.25618 0.0
H6099 H 0.28815 0.38128 0.26039 0.0
H6100 H 0.19822 0.38749 0.02282 0.0
H6101 H 0.17823 0.40231 0.02287 0.0
H6102 H 0.21381 0.448 0.02023 0.0
H6103 H 0.23378 0.43322 0.01938 0.0
H6104 H 0.175 0.42597 0.04343 0.0
H6105 H 0.18228 0.45093 0.98666 0.0
H6106 H 0.19088 0.43506 0.99239 0.0
H6107 H 0.20017 0.45627 0.99863 0.0
C6108 C 0.2018 0.40065 0.02193 0.0
C6109 C 0.21767 0.40911 0.02101 0.0
C6110 C 0.19034 0.40913 0.02209 0.0
C6111 C 0.19446 0.42624 0.02131 0.0
C6112 C 0.21027 0.43475 0.0205 0.0
H6113 H 0.14655 0.50212 0.0287 0.0
H6114 H 0.16535 0.48596 0.02665 0.0
C6115 C 0.22173 0.42628 0.02024 0.0
C6116 C 0.1823 0.43526 0.02197 0.0
H6117 H 0.16682 0.46206 0.0033 0.0
C6118 C 0.17312 0.43375 0.03459 0.0
C6119 C 0.17984 0.44542 0.01043 0.0
C6120 C 0.18871 0.44691 0.99619 0.0
C6121 C 0.16184 0.44243 0.03618 0.0
C6122 C 0.15955 0.45274 0.02474 0.0
C6123 C 0.16863 0.45417 0.01207 0.0
C6124 C 0.14797 0.4624 0.02585 0.0
C6125 C 0.15278 0.44082 0.05029 0.0
C6126 C 0.13191 0.45451 0.02589 0.0
C6127 C 0.12107 0.46372 0.02694 0.0
C6128 C 0.12609 0.48102 0.0279 0.0
C6129 C 0.14221 0.48884 0.02775 0.0
C6130 C 0.153 0.47962 0.02667 0.0
H6131 H 0.15843 0.43557 0.05953 0.0
H6132 H 0.15161 0.45295 0.05469 0.0
H6133 H 0.14085 0.43251 0.04736 0.0
H6134 H 0.12773 0.44121 0.02496 0.0
H6135 H 0.10875 0.45726 0.02676 0.0
H6136 H 0.83693 0.9509 0.21014 0.0
H6137 H 0.82003 0.92318 0.21271 0.0
H6138 H 0.86061 0.90674 0.22429 0.0
H6139 H 0.87752 0.93433 0.2224 0.0
H6140 H 0.83273 0.88489 0.20119 0.0
H6141 H 0.819 0.90604 0.25884 0.0
H6142 H 0.8182 0.91826 0.24289 0.0
H6143 H 0.83672 0.91654 0.25047 0.0
C6144 C 0.84228 0.94137 0.21313 0.0
C6145 C 0.8586 0.9449 0.21616 0.0
C6146 C 0.83261 0.92556 0.21447 0.0
C6147 C 0.83916 0.91308 0.2187 0.0
C6148 C 0.85542 0.91628 0.22091 0.0
H6149 H 0.82214 0.81613 0.2446 0.0
H6150 H 0.83068 0.84256 0.23365 0.0
C6151 C 0.86507 0.93206 0.21972 0.0
C6152 C 0.82921 0.89705 0.22235 0.0
H6153 H 0.81115 0.87771 0.25199 0.0
C6154 C 0.82773 0.88328 0.21216 0.0
C6155 C 0.82273 0.89515 0.23665 0.0
C6156 C 0.82419 0.90972 0.24794 0.0
C6157 C 0.82032 0.86743 0.21617 0.0
C6158 C 0.81471 0.86542 0.23088 0.0
C6159 C 0.81552 0.87931 0.24074 0.0
C6160 C 0.80909 0.84906 0.23677 0.0
C6161 C 0.81877 0.853 0.2047 0.0
C6162 C 0.79432 0.8442 0.2426 0.0
C6163 C 0.78948 0.8292 0.24911 0.0
C6164 C 0.79939 0.81884 0.24992 0.0
C6165 C 0.81419 0.82378 0.24407 0.0
C6166 C 0.81903 0.8388 0.23766 0.0
H6167 H 0.81856 0.85674 0.19281 0.0
H6168 H 0.82902 0.84808 0.20651 0.0
H6169 H 0.80798 0.84299 0.20595 0.0
H6170 H 0.78656 0.85206 0.24217 0.0
H6171 H 0.77799 0.82573 0.25349 0.0
H6172 H 0.69954 0.08929 0.7311 0.0
H6173 H 0.7166 0.11721 0.73646 0.0
H6174 H 0.71618 0.11126 0.78481 0.0
H6175 H 0.69927 0.08314 0.77956 0.0
H6176 H 0.70877 0.1399 0.77571 0.0
H6177 H 0.76326 0.13318 0.7518 0.0
H6178 H 0.74605 0.12508 0.73903 0.0
H6179 H 0.74787 0.11582 0.75665 0.0
C6180 C 0.70332 0.09378 0.74286 0.0
C6181 C 0.69808 0.084 0.75491 0.0
C6182 C 0.71307 0.10973 0.7459 0.0
C6183 C 0.7178 0.11614 0.76101 0.0
C6184 C 0.71269 0.10643 0.77307 0.0
H6185 H 0.76529 0.21908 0.79204 0.0
H6186 H 0.7533 0.18947 0.79231 0.0
C6187 C 0.70297 0.09045 0.77005 0.0
C6188 C 0.72718 0.1334 0.76414 0.0
H6189 H 0.76125 0.16062 0.7562 0.0
C6190 C 0.72035 0.14444 0.77168 0.0
C6191 C 0.74226 0.13917 0.75885 0.0
C6192 C 0.75038 0.12768 0.75125 0.0
C6193 C 0.72789 0.16134 0.77336 0.0
C6194 C 0.74275 0.1672 0.7676 0.0
C6195 C 0.74983 0.15605 0.76057 0.0
C6196 C 0.75063 0.18494 0.76769 0.0
C6197 C 0.71954 0.17284 0.78059 0.0
C6198 C 0.75346 0.19204 0.75377 0.0
C6199 C 0.76042 0.20886 0.75356 0.0
C6200 C 0.76465 0.21889 0.76729 0.0
C6201 C 0.76204 0.2117 0.78126 0.0
C6202 C 0.75514 0.19481 0.78144 0.0
H6203 H 0.70691 0.16672 0.78147 0.0
H6204 H 0.72495 0.17719 0.7923 0.0
H6205 H 0.72061 0.18376 0.77393 0.0
H6206 H 0.75007 0.18458 0.74303 0.0
H6207 H 0.7623 0.21398 0.74261 0.0
loop_
_geom_bond_atom_site_label_1
_geom_bond_atom_site_label_2
_geom_bond_distance
_geom_bond_site_symmetry_2
_ccdc_geom_bond_type
Li0 N17 1.990 1_455 S
Li0 O60 1.956 . S
Li0 O61 1.970 . S
Li0 O62 1.961 . S
Li1 N25 1.990 . S
Li1 O60 1.970 . S
Li1 O61 1.956 . S
Li1 O63 1.961 . S
Li2 N47 1.990 . S
Li2 O60 1.961 . S
Li2 O62 1.956 . S
Li2 O63 1.970 . S
Li3 N53 1.990 . S
Li3 O61 1.961 . S
Li3 O62 1.970 . S
Li3 O63 1.956 . S
C4 C6 1.348 . S
C4 C7 1.356 . S
C4 O60 1.325 . S
N5 C8 1.314 . S
N5 C9 1.279 . S
C6 C4 1.348 . S
C6 C8 1.353 . S
C6 H64 0.929 . S
C7 C4 1.356 . S
C7 C9 1.358 . S
C7 H65 0.930 . S
C8 N5 1.314 . S
C8 C6 1.353 . S
C8 H66 0.930 . S
C9 N5 1.279 . S
C9 C7 1.358 . S
C9 H67 0.930 . S
C10 C13 1.348 . S
C10 C14 1.356 . S
C10 O61 1.325 1_655 S
C11 N12 1.279 . S
C11 C14 1.358 . S
C11 H68 0.930 . S
N12 C11 1.279 . S
N12 C15 1.314 . S
C13 C10 1.348 . S
C13 C15 1.353 . S
C13 H69 0.929 . S
C14 C10 1.356 . S
C14 C11 1.358 . S
C14 H70 0.930 1_655 S
C15 N12 1.314 . S
C15 C13 1.353 . S
C15 H71 0.930 . S
C16 N17 1.314 . S
C16 C21 1.353 . S
C16 H22 0.930 . S
N17 Li0 1.990 1_655 S
N17 C16 1.314 . S
N17 C19 1.279 . S
C18 C19 1.358 . S
C18 C20 1.356 . S
C18 H72 0.930 . S
C19 N17 1.279 . S
C19 C18 1.358 . S
C19 H23 0.930 . S
C20 C18 1.356 . S
C20 C21 1.348 . S
C21 C16 1.353 . S
C21 C20 1.348 . S
C21 H73 0.929 . S
H22 C16 0.930 . S
H23 C19 0.930 . S
C24 N25 1.314 . S
C24 C26 1.353 . S
C24 H30 0.930 . S
N25 Li1 1.990 . S
N25 C24 1.314 . S
N25 C28 1.279 . S
C26 C24 1.353 . S
C26 C29 1.348 . S
C26 H74 0.929 . S
C27 C28 1.358 . S
C27 C29 1.356 . S
C27 H75 0.930 . S
C28 N25 1.279 . S
C28 C27 1.358 . S
C28 H31 0.930 . S
C29 C26 1.348 . S
C29 C27 1.356 . S
H30 C24 0.930 . S
H31 C28 0.930 . S
C32 C34 1.348 . S
C32 C35 1.356 . S
C32 O62 1.325 . S
N33 C36 1.314 . S
N33 C37 1.279 . S
C34 C32 1.348 . S
C34 C36 1.353 . S
C34 H76 0.929 . S
C35 C32 1.356 . S
C35 C37 1.358 . S
C35 H77 0.930 . S
C36 N33 1.314 . S
C36 C34 1.353 . S
C36 H78 0.930 . S
C37 N33 1.279 . S
C37 C35 1.358 . S
C37 H79 0.930 . S
C38 C39 1.348 . S
C38 C40 1.356 . S
C38 O63 1.325 . S
C39 C38 1.348 . S
C39 C41 1.353 . S
C39 H80 0.929 . S
C40 C38 1.356 . S
C40 C42 1.358 . S
C40 H81 0.930 . S
C41 C39 1.353 . S
C41 N43 1.314 . S
C41 H82 0.930 . S
C42 C40 1.358 . S
C42 N43 1.279 . S
C42 H83 0.930 . S
N43 C41 1.314 . S
N43 C42 1.279 . S
C44 C46 1.353 . S
C44 N47 1.314 . S
C44 H50 0.930 . S
C45 N47 1.279 . S
C45 C48 1.358 . S
C45 H51 0.930 . S
C46 C44 1.353 . S
C46 C49 1.348 . S
C46 H84 0.929 . S
N47 Li2 1.990 . S
N47 C44 1.314 . S
N47 C45 1.279 . S
C48 C45 1.358 . S
C48 C49 1.356 . S
C48 H85 0.930 . S
C49 C46 1.348 . S
C49 C48 1.356 . S
H50 C44 0.930 . S
H51 C45 0.930 . S
C52 N53 1.314 . S
C52 C54 1.353 . S
C52 H58 0.961 . S
N53 Li3 1.990 . S
N53 C52 1.314 . S
N53 C56 1.279 . S
C54 C52 1.353 . S
C54 C57 1.348 . S
C54 H86 0.929 1_455 S
C55 C56 1.358 . S
C55 C57 1.356 . S
C55 H87 0.930 . S
C56 N53 1.279 . S
C56 C55 1.358 . S
C56 H59 0.930 . S
C57 C54 1.348 . S
C57 C55 1.356 . S
H58 C52 0.961 . S
H59 C56 0.930 . S
O60 Li0 1.956 . S
O60 Li1 1.970 . S
O60 Li2 1.961 . S
O60 C4 1.325 . S
O61 Li0 1.970 . S
O61 Li1 1.956 . S
O61 Li3 1.961 . S
O61 C10 1.325 1_455 S
O62 Li0 1.961 . S
O62 Li2 1.956 . S
O62 Li3 1.970 . S
O62 C32 1.325 . S
O63 Li1 1.961 . S
O63 Li2 1.970 . S
O63 Li3 1.956 . S
O63 C38 1.325 . S
H64 C6 0.929 . S
H65 C7 0.930 . S
H66 C8 0.930 . S
H67 C9 0.930 . S
H68 C11 0.930 . S
H69 C13 0.929 . S
H70 C14 0.930 1_455 S
H71 C15 0.930 . S
H72 C18 0.930 . S
H73 C21 0.929 . S
H74 C26 0.929 . S
H75 C27 0.930 . S
H76 C34 0.929 . S
H77 C35 0.930 . S
H78 C36 0.930 . S
H79 C37 0.930 . S
H80 C39 0.929 . S
H81 C40 0.930 . S
H82 C41 0.930 . S
H83 C42 0.930 . S
H84 C46 0.929 . S
H85 C48 0.930 . S
H86 C54 0.929 1_655 S
H87 C55 0.930 . S
Li88 N105 1.990 . S
Li88 O148 1.956 . S
Li88 O149 1.970 . S
Li88 O150 1.961 . S
Li89 N113 1.990 . S
Li89 O148 1.970 . S
Li89 O149 1.956 . S
Li89 O151 1.961 . S
Li90 N135 1.990 . S
Li90 O148 1.961 . S
Li90 O150 1.956 . S
Li90 O151 1.970 . S
Li91 N141 1.990 . S
Li91 O149 1.961 . S
Li91 O150 1.970 . S
Li91 O151 1.956 . S
C92 C94 1.348 . S
C92 C95 1.356 . S
C92 O148 1.325 . S
N93 C96 1.314 . S
N93 C97 1.279 . S
C94 C92 1.348 . S
C94 C96 1.353 . S
C94 H152 0.929 . S
C95 C92 1.356 . S
C95 C97 1.358 . S
C95 H153 0.930 . S
C96 N93 1.314 . S
C96 C94 1.353 . S
C96 H154 0.930 . S
C97 N93 1.279 . S
C97 C95 1.358 . S
C97 H155 0.930 . S
C98 C101 1.348 . S
C98 C102 1.356 . S
C98 O149 1.325 . S
C99 N100 1.279 . S
C99 C102 1.358 . S
C99 H156 0.930 . S
N100 C99 1.279 . S
N100 C103 1.314 . S
C101 C98 1.348 . S
C101 C103 1.353 . S
C101 H157 0.929 . S
C102 C98 1.356 . S
C102 C99 1.358 . S
C102 H158 0.930 . S
C103 N100 1.314 . S
C103 C101 1.353 . S
C103 H159 0.930 . S
C104 N105 1.314 . S
C104 C109 1.353 . S
C104 H110 0.930 . S
N105 Li88 1.990 . S
N105 C104 1.314 . S
N105 C107 1.279 . S
C106 C107 1.358 . S
C106 C108 1.356 . S
C106 H160 0.930 . S
C107 N105 1.279 . S
C107 C106 1.358 . S
C107 H111 0.930 . S
C108 C106 1.356 . S
C108 C109 1.348 . S
C109 C104 1.353 . S
C109 C108 1.348 . S
C109 H161 0.929 . S
H110 C104 0.930 . S
H111 C107 0.930 . S
C112 N113 1.314 . S
C112 C114 1.353 . S
C112 H118 0.930 . S
N113 Li89 1.990 . S
N113 C112 1.314 . S
N113 C116 1.279 . S
C114 C112 1.353 . S
C114 C117 1.348 . S
C114 H162 0.929 . S
C115 C116 1.358 . S
C115 C117 1.356 . S
C115 H163 0.930 . S
C116 N113 1.279 . S
C116 C115 1.358 . S
C116 H119 0.930 . S
C117 C114 1.348 . S
C117 C115 1.356 . S
H118 C112 0.930 . S
H119 C116 0.930 . S
C120 C122 1.348 1_455 S
C120 C123 1.356 . S
C120 O150 1.325 . S
N121 C124 1.314 . S
N121 C125 1.279 . S
C122 C120 1.348 1_655 S
C122 C124 1.353 . S
C122 H164 0.929 . S
C123 C120 1.356 . S
C123 C125 1.358 1_455 S
C123 H165 0.930 . S
C124 N121 1.314 . S
C124 C122 1.353 . S
C124 H166 0.930 . S
C125 N121 1.279 . S
C125 C123 1.358 1_655 S
C125 H167 0.930 . S
C126 C127 1.348 . S
C126 C128 1.356 . S
C126 O151 1.325 . S
C127 C126 1.348 . S
C127 C129 1.353 . S
C127 H168 0.929 . S
C128 C126 1.356 . S
C128 C130 1.358 . S
C128 H169 0.930 . S
C129 C127 1.353 . S
C129 N131 1.314 . S
C129 H170 0.930 . S
C130 C128 1.358 . S
C130 N131 1.279 . S
C130 H171 0.930 . S
N131 C129 1.314 . S
N131 C130 1.279 . S
C132 C134 1.353 . S
C132 N135 1.314 . S
C132 H138 0.930 . S
C133 N135 1.279 . S
C133 C136 1.358 . S
C133 H139 0.930 . S
C134 C132 1.353 . S
C134 C137 1.348 . S
C134 H172 0.929 . S
N135 Li90 1.990 . S
N135 C132 1.314 . S
N135 C133 1.279 . S
C136 C133 1.358 . S
C136 C137 1.356 . S
C136 H173 0.930 . S
C137 C134 1.348 . S
C137 C136 1.356 . S
H138 C132 0.930 . S
H139 C133 0.930 . S
C140 N141 1.314 1_655 S
C140 C142 1.353 . S
C140 H146 0.940 . S
N141 Li91 1.990 . S
N141 C140 1.314 1_455 S
N141 C144 1.279 1_455 S
C142 C140 1.353 . S
C142 C145 1.348 . S
C142 H174 0.929 . S
C143 C144 1.358 . S
C143 C145 1.356 . S
C143 H175 0.930 . S
C144 N141 1.279 1_655 S
C144 C143 1.358 . S
C144 H147 0.981 . S
C145 C142 1.348 . S
C145 C143 1.356 . S
H146 C140 0.940 . S
H147 C144 0.981 . S
O148 Li88 1.956 . S
O148 Li89 1.970 . S
O148 Li90 1.961 . S
O148 C92 1.325 . S
O149 Li88 1.970 . S
O149 Li89 1.956 . S
O149 Li91 1.961 . S
O149 C98 1.325 . S
O150 Li88 1.961 . S
O150 Li90 1.956 . S
O150 Li91 1.970 . S
O150 C120 1.325 . S
O151 Li89 1.961 . S
O151 Li90 1.970 . S
O151 Li91 1.956 . S
O151 C126 1.325 . S
H152 C94 0.929 . S
H153 C95 0.930 . S
H154 C96 0.930 . S
H155 C97 0.930 . S
H156 C99 0.930 . S
H157 C101 0.929 . S
H158 C102 0.930 . S
H159 C103 0.930 . S
H160 C106 0.930 . S
H161 C109 0.929 . S
H162 C114 0.929 . S
H163 C115 0.930 . S
H164 C122 0.929 . S
H165 C123 0.930 . S
H166 C124 0.930 . S
H167 C125 0.930 . S
H168 C127 0.929 . S
H169 C128 0.930 . S
H170 C129 0.930 . S
H171 C130 0.930 . S
H172 C134 0.929 . S
H173 C136 0.930 . S
H174 C142 0.929 . S
H175 C143 0.930 . S
Li176 N193 1.990 . S
Li176 O236 1.956 . S
Li176 O237 1.970 . S
Li176 O238 1.961 . S
Li177 N201 1.990 . S
Li177 O236 1.970 . S
Li177 O237 1.956 . S
Li177 O239 1.961 . S
Li178 N223 1.990 . S
Li178 O236 1.961 . S
Li178 O238 1.956 . S
Li178 O239 1.970 . S
Li179 N229 1.990 . S
Li179 O237 1.961 . S
Li179 O238 1.970 . S
Li179 O239 1.956 . S
C180 C182 1.348 . S
C180 C183 1.356 . S
C180 O236 1.325 . S
N181 C184 1.314 . S
N181 C185 1.279 . S
C182 C180 1.348 . S
C182 C184 1.353 . S
C182 H240 0.929 . S
C183 C180 1.356 . S
C183 C185 1.358 . S
C183 H241 0.930 . S
C184 N181 1.314 . S
C184 C182 1.353 . S
C184 H242 0.930 . S
C185 N181 1.279 . S
C185 C183 1.358 . S
C185 H243 0.930 . S
C186 C189 1.348 . S
C186 C190 1.356 . S
C186 O237 1.325 . S
C187 N188 1.279 . S
C187 C190 1.358 . S
C187 H244 0.930 . S
N188 C187 1.279 . S
N188 C191 1.314 . S
C189 C186 1.348 . S
C189 C191 1.353 . S
C189 H245 0.929 . S
C190 C186 1.356 . S
C190 C187 1.358 . S
C190 H246 0.930 . S
C191 N188 1.314 . S
C191 C189 1.353 . S
C191 H247 0.930 . S
C192 N193 1.314 . S
C192 C197 1.353 . S
C192 H198 0.930 . S
N193 Li176 1.990 . S
N193 C192 1.314 . S
N193 C195 1.279 . S
C194 C195 1.358 . S
C194 C196 1.356 . S
C194 H248 0.930 . S
C195 N193 1.279 . S
C195 C194 1.358 . S
C195 H199 0.930 . S
C196 C194 1.356 . S
C196 C197 1.348 . S
C197 C192 1.353 . S
C197 C196 1.348 . S
C197 H249 0.929 . S
H198 C192 0.930 . S
H199 C195 0.930 . S
C200 N201 1.314 . S
C200 C202 1.353 . S
C200 H206 0.930 . S
N201 Li177 1.990 . S
N201 C200 1.314 . S
N201 C204 1.279 . S
C202 C200 1.353 . S
C202 C205 1.348 . S
C202 H250 0.929 . S
C203 C204 1.358 . S
C203 C205 1.356 . S
C203 H251 0.930 . S
C204 N201 1.279 . S
C204 C203 1.358 . S
C204 H207 0.930 . S
C205 C202 1.348 . S
C205 C203 1.356 . S
H206 C200 0.930 . S
H207 C204 0.930 . S
C208 C210 1.348 . S
C208 C211 1.356 . S
C208 O238 1.325 . S
N209 C212 1.314 . S
N209 C213 1.279 . S
C210 C208 1.348 . S
C210 C212 1.353 . S
C210 H252 0.929 . S
C211 C208 1.356 . S
C211 C213 1.358 . S
C211 H253 0.930 . S
C212 N209 1.314 . S
C212 C210 1.353 . S
C212 H254 0.930 . S
C213 N209 1.279 . S
C213 C211 1.358 . S
C213 H255 0.930 . S
C214 C215 1.348 . S
C214 C216 1.356 . S
C214 O239 1.325 . S
C215 C214 1.348 . S
C215 C217 1.353 . S
C215 H256 0.929 . S
C216 C214 1.356 . S
C216 C218 1.358 . S
C216 H257 0.930 . S
C217 C215 1.353 . S
C217 N219 1.314 . S
C217 H258 0.930 . S
C218 C216 1.358 . S
C218 N219 1.279 . S
C218 H259 0.930 . S
N219 C217 1.314 . S
N219 C218 1.279 . S
C220 C222 1.353 . S
C220 N223 1.314 . S
C220 H226 0.930 . S
C221 N223 1.279 . S
C221 C224 1.358 . S
C221 H227 0.930 . S
C222 C220 1.353 . S
C222 C225 1.348 . S
C222 H260 0.929 . S
N223 Li178 1.990 . S
N223 C220 1.314 . S
N223 C221 1.279 . S
C224 C221 1.358 . S
C224 C225 1.356 . S
C224 H261 0.930 . S
C225 C222 1.348 . S
C225 C224 1.356 . S
H226 C220 0.930 . S
H227 C221 0.930 . S
C228 N229 1.314 . S
C228 C230 1.353 . S
C228 H234 0.930 . S
N229 Li179 1.990 . S
N229 C228 1.314 . S
N229 C232 1.279 . S
C230 C228 1.353 . S
C230 C233 1.348 . S
C230 H262 0.929 . S
C231 C232 1.358 . S
C231 C233 1.356 . S
C231 H263 0.930 . S
C232 N229 1.279 . S
C232 C231 1.358 . S
C232 H235 0.930 . S
C233 C230 1.348 . S
C233 C231 1.356 . S
H234 C228 0.930 . S
H235 C232 0.930 . S
O236 Li176 1.956 . S
O236 Li177 1.970 . S
O236 Li178 1.961 . S
O236 C180 1.325 . S
O237 Li176 1.970 . S
O237 Li177 1.956 . S
O237 Li179 1.961 . S
O237 C186 1.325 . S
O238 Li176 1.961 . S
O238 Li178 1.956 . S
O238 Li179 1.970 . S
O238 C208 1.325 . S
O239 Li177 1.961 . S
O239 Li178 1.970 . S
O239 Li179 1.956 . S
O239 C214 1.325 . S
H240 C182 0.929 . S
H241 C183 0.930 . S
H242 C184 0.930 . S
H243 C185 0.930 . S
H244 C187 0.930 . S
H245 C189 0.929 . S
H246 C190 0.930 . S
H247 C191 0.930 . S
H248 C194 0.930 . S
H249 C197 0.929 . S
H250 C202 0.929 . S
H251 C203 0.930 . S
H252 C210 0.929 . S
H253 C211 0.930 . S
H254 C212 0.930 . S
H255 C213 0.930 . S
H256 C215 0.929 . S
H257 C216 0.930 . S
H258 C217 0.930 . S
H259 C218 0.930 . S
H260 C222 0.929 . S
H261 C224 0.930 . S
H262 C230 0.929 . S
H263 C231 0.930 . S
Li264 N281 1.990 . S
Li264 O324 1.956 . S
Li264 O325 1.970 . S
Li264 O326 1.961 . S
Li265 N289 1.990 . S
Li265 O324 1.970 . S
Li265 O325 1.956 . S
Li265 O327 1.961 . S
Li266 N311 1.990 . S
Li266 O324 1.961 . S
Li266 O326 1.956 . S
Li266 O327 1.970 . S
Li267 N317 1.990 . S
Li267 O325 1.961 . S
Li267 O326 1.970 . S
Li267 O327 1.956 . S
C268 C270 1.348 . S
C268 C271 1.356 . S
C268 O324 1.325 . S
N269 C272 1.314 . S
N269 C273 1.279 . S
C270 C268 1.348 . S
C270 C272 1.353 . S
C270 H328 0.929 . S
C271 C268 1.356 . S
C271 C273 1.358 . S
C271 H329 0.930 . S
C272 N269 1.314 . S
C272 C270 1.353 . S
C272 H330 0.930 . S
C273 N269 1.279 . S
C273 C271 1.358 . S
C273 H331 0.930 . S
C274 C277 1.348 . S
C274 C278 1.356 . S
C274 O325 1.325 . S
C275 N276 1.279 . S
C275 C278 1.358 . S
C275 H332 0.930 . S
N276 C275 1.279 . S
N276 C279 1.314 . S
C277 C274 1.348 . S
C277 C279 1.353 . S
C277 H333 0.929 . S
C278 C274 1.356 . S
C278 C275 1.358 . S
C278 H334 0.930 . S
C279 N276 1.314 . S
C279 C277 1.353 . S
C279 H335 0.930 . S
C280 N281 1.314 . S
C280 C285 1.353 . S
C280 H286 0.930 . S
N281 Li264 1.990 . S
N281 C280 1.314 . S
N281 C283 1.279 . S
C282 C283 1.358 . S
C282 C284 1.356 . S
C282 H336 0.930 . S
C283 N281 1.279 . S
C283 C282 1.358 . S
C283 H287 0.930 . S
C284 C282 1.356 . S
C284 C285 1.348 . S
C285 C280 1.353 . S
C285 C284 1.348 . S
C285 H337 0.929 . S
H286 C280 0.930 . S
H287 C283 0.930 . S
C288 N289 1.314 . S
C288 C290 1.353 . S
C288 H294 0.930 . S
N289 Li265 1.990 . S
N289 C288 1.314 . S
N289 C292 1.279 . S
C290 C288 1.353 . S
C290 C293 1.348 . S
C290 H338 0.929 . S
C291 C292 1.358 . S
C291 C293 1.356 . S
C291 H339 0.930 . S
C292 N289 1.279 . S
C292 C291 1.358 . S
C292 H295 0.930 . S
C293 C290 1.348 . S
C293 C291 1.356 . S
H294 C288 0.930 . S
H295 C292 0.930 . S
C296 C298 1.348 . S
C296 C299 1.356 . S
C296 O326 1.325 . S
N297 C300 1.314 . S
N297 C301 1.279 . S
C298 C296 1.348 . S
C298 C300 1.353 . S
C298 H340 0.929 . S
C299 C296 1.356 . S
C299 C301 1.358 . S
C299 H341 0.930 . S
C300 N297 1.314 . S
C300 C298 1.353 . S
C300 H342 0.930 . S
C301 N297 1.279 . S
C301 C299 1.358 . S
C301 H343 0.930 . S
C302 C303 1.348 . S
C302 C304 1.356 . S
C302 O327 1.325 . S
C303 C302 1.348 . S
C303 C305 1.353 . S
C303 H344 0.929 . S
C304 C302 1.356 . S
C304 C306 1.358 . S
C304 H345 0.930 . S
C305 C303 1.353 . S
C305 N307 1.314 . S
C305 H346 0.930 . S
C306 C304 1.358 . S
C306 N307 1.279 . S
C306 H347 0.930 . S
N307 C305 1.314 . S
N307 C306 1.279 . S
C308 C310 1.353 . S
C308 N311 1.314 . S
C308 H314 0.930 . S
C309 N311 1.279 . S
C309 C312 1.358 . S
C309 H315 0.930 . S
C310 C308 1.353 . S
C310 C313 1.348 . S
C310 H348 0.929 . S
N311 Li266 1.990 . S
N311 C308 1.314 . S
N311 C309 1.279 . S
C312 C309 1.358 . S
C312 C313 1.356 . S
C312 H349 0.930 . S
C313 C310 1.348 . S
C313 C312 1.356 . S
H314 C308 0.930 . S
H315 C309 0.930 . S
C316 N317 1.314 . S
C316 C318 1.353 . S
C316 H322 0.930 . S
N317 Li267 1.990 . S
N317 C316 1.314 . S
N317 C320 1.279 . S
C318 C316 1.353 . S
C318 C321 1.348 . S
C318 H350 0.929 . S
C319 C320 1.358 . S
C319 C321 1.356 . S
C319 H351 0.930 . S
C320 N317 1.279 . S
C320 C319 1.358 . S
C320 H323 0.930 . S
C321 C318 1.348 . S
C321 C319 1.356 . S
H322 C316 0.930 . S
H323 C320 0.930 . S
O324 Li264 1.956 . S
O324 Li265 1.970 . S
O324 Li266 1.961 . S
O324 C268 1.325 . S
O325 Li264 1.970 . S
O325 Li265 1.956 . S
O325 Li267 1.961 . S
O325 C274 1.325 . S
O326 Li264 1.961 . S
O326 Li266 1.956 . S
O326 Li267 1.970 . S
O326 C296 1.325 . S
O327 Li265 1.961 . S
O327 Li266 1.970 . S
O327 Li267 1.956 . S
O327 C302 1.325 . S
H328 C270 0.929 . S
H329 C271 0.930 . S
H330 C272 0.930 . S
H331 C273 0.930 . S
H332 C275 0.930 . S
H333 C277 0.929 . S
H334 C278 0.930 . S
H335 C279 0.930 . S
H336 C282 0.930 . S
H337 C285 0.929 . S
H338 C290 0.929 . S
H339 C291 0.930 . S
H340 C298 0.929 . S
H341 C299 0.930 . S
H342 C300 0.930 . S
H343 C301 0.930 . S
H344 C303 0.929 . S
H345 C304 0.930 . S
H346 C305 0.930 . S
H347 C306 0.930 . S
H348 C310 0.929 . S
H349 C312 0.930 . S
H350 C318 0.929 . S
H351 C319 0.930 . S
Li352 N369 1.990 . S
Li352 O412 1.956 . S
Li352 O413 1.970 . S
Li352 O414 1.961 . S
Li353 N377 1.990 . S
Li353 O412 1.970 . S
Li353 O413 1.956 . S
Li353 O415 1.961 . S
Li354 N399 1.990 . S
Li354 O412 1.961 . S
Li354 O414 1.956 . S
Li354 O415 1.970 . S
Li355 N405 1.990 . S
Li355 O413 1.961 . S
Li355 O414 1.970 . S
Li355 O415 1.956 . S
C356 C358 1.348 . S
C356 C359 1.356 . S
C356 O412 1.325 . S
N357 C360 1.314 . S
N357 C361 1.279 . S
C358 C356 1.348 . S
C358 C360 1.353 . S
C358 H416 0.929 . S
C359 C356 1.356 . S
C359 C361 1.358 . S
C359 H417 0.930 . S
C360 N357 1.314 . S
C360 C358 1.353 . S
C360 H418 0.930 . S
C361 N357 1.279 . S
C361 C359 1.358 . S
C361 H419 0.930 . S
C362 C365 1.348 . S
C362 C366 1.356 . S
C362 O413 1.325 . S
C363 N364 1.279 . S
C363 C366 1.358 . S
C363 H420 0.930 . S
N364 C363 1.279 . S
N364 C367 1.314 . S
C365 C362 1.348 . S
C365 C367 1.353 . S
C365 H421 0.929 . S
C366 C362 1.356 . S
C366 C363 1.358 . S
C366 H422 0.930 . S
C367 N364 1.314 . S
C367 C365 1.353 . S
C367 H423 0.930 . S
C368 N369 1.314 . S
C368 C373 1.353 . S
C368 H374 0.930 . S
N369 Li352 1.990 . S
N369 C368 1.314 . S
N369 C371 1.279 . S
C370 C371 1.358 . S
C370 C372 1.356 . S
C370 H424 0.930 . S
C371 N369 1.279 . S
C371 C370 1.358 . S
C371 H375 0.930 . S
C372 C370 1.356 . S
C372 C373 1.348 . S
C373 C368 1.353 . S
C373 C372 1.348 . S
C373 H425 0.929 . S
H374 C368 0.930 . S
H375 C371 0.930 . S
C376 N377 1.314 . S
C376 C378 1.353 . S
C376 H382 0.930 . S
N377 Li353 1.990 . S
N377 C376 1.314 . S
N377 C380 1.279 . S
C378 C376 1.353 . S
C378 C381 1.348 . S
C378 H426 0.929 . S
C379 C380 1.358 . S
C379 C381 1.356 . S
C379 H427 0.930 . S
C380 N377 1.279 . S
C380 C379 1.358 . S
C380 H383 0.930 . S
C381 C378 1.348 . S
C381 C379 1.356 . S
H382 C376 0.930 . S
H383 C380 0.930 . S
C384 C386 1.348 . S
C384 C387 1.356 . S
C384 O414 1.325 . S
N385 C388 1.314 . S
N385 C389 1.279 . S
C386 C384 1.348 . S
C386 C388 1.353 . S
C386 H428 0.929 . S
C387 C384 1.356 . S
C387 C389 1.358 . S
C387 H429 0.930 . S
C388 N385 1.314 . S
C388 C386 1.353 . S
C388 H430 0.930 1_455 S
C389 N385 1.279 . S
C389 C387 1.358 . S
C389 H431 0.930 . S
C390 C391 1.348 . S
C390 C392 1.356 . S
C390 O415 1.325 . S
C391 C390 1.348 . S
C391 C393 1.353 . S
C391 H432 0.929 . S
C392 C390 1.356 . S
C392 C394 1.358 . S
C392 H433 0.930 . S
C393 C391 1.353 . S
C393 N395 1.314 . S
C393 H434 0.930 . S
C394 C392 1.358 . S
C394 N395 1.279 . S
C394 H435 0.930 . S
N395 C393 1.314 . S
N395 C394 1.279 . S
C396 C398 1.353 . S
C396 N399 1.314 . S
C396 H402 0.930 . S
C397 N399 1.279 . S
C397 C400 1.358 . S
C397 H403 0.930 . S
C398 C396 1.353 . S
C398 C401 1.348 . S
C398 H436 0.929 . S
N399 Li354 1.990 . S
N399 C396 1.314 . S
N399 C397 1.279 . S
C400 C397 1.358 . S
C400 C401 1.356 . S
C400 H437 0.930 . S
C401 C398 1.348 . S
C401 C400 1.356 . S
H402 C396 0.930 . S
H403 C397 0.930 . S
C404 N405 1.314 . S
C404 C406 1.353 . S
C404 H410 0.930 . S
N405 Li355 1.990 . S
N405 C404 1.314 . S
N405 C408 1.279 . S
C406 C404 1.353 . S
C406 C409 1.365 . S
C406 H438 0.929 . S
C407 C408 1.358 . S
C407 C409 1.399 . S
C407 H439 0.930 . S
C408 N405 1.279 . S
C408 C407 1.358 . S
C408 H411 0.930 . S
C409 C406 1.365 . S
C409 C407 1.399 . S
H410 C404 0.930 . S
H411 C408 0.930 . S
O412 Li352 1.956 . S
O412 Li353 1.970 . S
O412 Li354 1.961 . S
O412 C356 1.325 . S
O413 Li352 1.970 . S
O413 Li353 1.956 . S
O413 Li355 1.961 . S
O413 C362 1.325 . S
O414 Li352 1.961 . S
O414 Li354 1.956 . S
O414 Li355 1.970 . S
O414 C384 1.325 . S
O415 Li353 1.961 . S
O415 Li354 1.970 . S
O415 Li355 1.956 . S
O415 C390 1.325 . S
H416 C358 0.929 . S
H417 C359 0.930 . S
H418 C360 0.930 . S
H419 C361 0.930 . S
H420 C363 0.930 . S
H421 C365 0.929 . S
H422 C366 0.930 . S
H423 C367 0.930 . S
H424 C370 0.930 . S
H425 C373 0.929 . S
H426 C378 0.929 . S
H427 C379 0.930 . S
H428 C386 0.929 . S
H429 C387 0.930 . S
H430 C388 0.930 1_655 S
H431 C389 0.930 . S
H432 C391 0.929 . S
H433 C392 0.930 . S
H434 C393 0.930 . S
H435 C394 0.930 . S
H436 C398 0.929 . S
H437 C400 0.930 . S
H438 C406 0.929 . S
H439 C407 0.930 . S
Li440 N457 1.990 . S
Li440 O500 1.956 . S
Li440 O501 1.970 . S
Li440 O502 1.961 . S
Li441 N465 1.990 . S
Li441 O500 1.970 . S
Li441 O501 1.956 . S
Li441 O503 1.961 . S
Li442 N487 1.990 . S
Li442 O500 1.961 . S
Li442 O502 1.956 . S
Li442 O503 1.970 . S
Li443 N493 1.990 . S
Li443 O501 1.961 . S
Li443 O502 1.970 . S
Li443 O503 1.956 . S
C444 C446 1.348 . S
C444 C447 1.356 . S
C444 O500 1.325 . S
N445 C448 1.314 . S
N445 C449 1.279 . S
C446 C444 1.348 . S
C446 C448 1.353 . S
C446 H504 0.929 . S
C447 C444 1.356 . S
C447 C449 1.358 . S
C447 H505 0.930 . S
C448 N445 1.314 . S
C448 C446 1.353 . S
C448 H506 0.930 . S
C449 N445 1.279 . S
C449 C447 1.358 . S
C449 H507 0.930 . S
C450 C453 1.348 . S
C450 C454 1.356 . S
C450 O501 1.325 . S
C451 N452 1.279 . S
C451 C454 1.358 . S
C451 H508 0.930 . S
N452 C451 1.279 . S
N452 C455 1.314 . S
C453 C450 1.348 . S
C453 C455 1.353 . S
C453 H509 0.929 . S
C454 C450 1.356 . S
C454 C451 1.358 . S
C454 H510 0.930 . S
C455 N452 1.314 . S
C455 C453 1.353 . S
C455 H511 0.930 . S
C456 N457 1.314 . S
C456 C461 1.353 . S
C456 H462 0.930 . S
N457 Li440 1.990 . S
N457 C456 1.314 . S
N457 C459 1.279 . S
C458 C459 1.358 . S
C458 C460 1.356 . S
C458 H512 0.930 . S
C459 N457 1.279 . S
C459 C458 1.358 . S
C459 H463 0.930 . S
C460 C458 1.356 . S
C460 C461 1.348 . S
C461 C456 1.353 . S
C461 C460 1.348 . S
C461 H513 0.929 . S
H462 C456 0.930 . S
H463 C459 0.930 . S
C464 N465 1.314 . S
C464 C466 1.353 . S
C464 H470 0.930 . S
N465 Li441 1.990 . S
N465 C464 1.314 . S
N465 C468 1.279 . S
C466 C464 1.353 . S
C466 C469 1.348 . S
C466 H514 0.929 . S
C467 C468 1.358 . S
C467 C469 1.356 . S
C467 H515 0.930 . S
C468 N465 1.279 . S
C468 C467 1.358 . S
C468 H471 0.930 . S
C469 C466 1.348 . S
C469 C467 1.356 . S
H470 C464 0.930 . S
H471 C468 0.930 . S
C472 C474 1.348 . S
C472 C475 1.356 . S
C472 O502 1.325 . S
N473 C476 1.314 . S
N473 C477 1.279 . S
C474 C472 1.348 . S
C474 C476 1.353 . S
C474 H516 0.929 . S
C475 C472 1.356 . S
C475 C477 1.358 . S
C475 H517 0.930 . S
C476 N473 1.314 . S
C476 C474 1.353 . S
C476 H518 0.930 . S
C477 N473 1.279 . S
C477 C475 1.358 . S
C477 H519 0.930 . S
C478 C479 1.348 . S
C478 C480 1.356 . S
C478 O503 1.325 . S
C479 C478 1.348 . S
C479 C481 1.353 . S
C479 H520 0.929 . S
C480 C478 1.356 . S
C480 C482 1.358 . S
C480 H521 0.930 . S
C481 C479 1.353 . S
C481 N483 1.314 . S
C481 H522 0.930 . S
C482 C480 1.358 . S
C482 N483 1.279 . S
C482 H523 0.930 . S
N483 C481 1.314 . S
N483 C482 1.279 . S
C484 C486 1.353 . S
C484 N487 1.314 . S
C484 H490 0.930 . S
C485 N487 1.279 . S
C485 C488 1.358 . S
C485 H491 0.930 . S
C486 C484 1.353 . S
C486 C489 1.348 . S
C486 H524 0.929 . S
N487 Li442 1.990 . S
N487 C484 1.314 . S
N487 C485 1.279 . S
C488 C485 1.358 . S
C488 C489 1.356 . S
C488 H525 0.930 . S
C489 C486 1.348 . S
C489 C488 1.356 . S
H490 C484 0.930 . S
H491 C485 0.930 . S
C492 N493 1.314 . S
C492 C494 1.353 . S
C492 H498 0.930 . S
N493 Li443 1.990 . S
N493 C492 1.314 . S
N493 C496 1.279 . S
C494 C492 1.353 . S
C494 C497 1.348 . S
C494 H526 0.929 . S
C495 C496 1.358 . S
C495 C497 1.356 . S
C495 H527 0.930 . S
C496 N493 1.279 . S
C496 C495 1.358 . S
C496 H499 0.930 . S
C497 C494 1.348 . S
C497 C495 1.356 . S
H498 C492 0.930 . S
H499 C496 0.930 . S
O500 Li440 1.956 . S
O500 Li441 1.970 . S
O500 Li442 1.961 . S
O500 C444 1.325 . S
O501 Li440 1.970 . S
O501 Li441 1.956 . S
O501 Li443 1.961 . S
O501 C450 1.325 . S
O502 Li440 1.961 . S
O502 Li442 1.956 . S
O502 Li443 1.970 . S
O502 C472 1.325 . S
O503 Li441 1.961 . S
O503 Li442 1.970 . S
O503 Li443 1.956 . S
O503 C478 1.325 . S
H504 C446 0.929 . S
H505 C447 0.930 . S
H506 C448 0.930 . S
H507 C449 0.930 . S
H508 C451 0.930 . S
H509 C453 0.929 . S
H510 C454 0.930 . S
H511 C455 0.930 . S
H512 C458 0.930 . S
H513 C461 0.929 . S
H514 C466 0.929 . S
H515 C467 0.930 . S
H516 C474 0.929 . S
H517 C475 0.930 . S
H518 C476 0.930 . S
H519 C477 0.930 . S
H520 C479 0.929 . S
H521 C480 0.930 . S
H522 C481 0.930 . S
H523 C482 0.930 . S
H524 C486 0.929 . S
H525 C488 0.930 . S
H526 C494 0.929 . S
H527 C495 0.930 . S
Li528 N545 1.990 . S
Li528 O588 1.956 . S
Li528 O589 1.970 . S
Li528 O590 1.961 . S
Li529 N553 1.990 . S
Li529 O588 1.970 . S
Li529 O589 1.956 . S
Li529 O591 1.961 . S
Li530 N575 1.990 . S
Li530 O588 1.961 . S
Li530 O590 1.956 . S
Li530 O591 1.970 . S
Li531 N581 1.990 . S
Li531 O589 1.961 . S
Li531 O590 1.970 . S
Li531 O591 1.956 . S
C532 C534 1.348 . S
C532 C535 1.356 . S
C532 O588 1.325 . S
N533 C536 1.314 . S
N533 C537 1.279 . S
C534 C532 1.348 . S
C534 C536 1.353 . S
C534 H592 0.929 . S
C535 C532 1.356 . S
C535 C537 1.358 . S
C535 H593 0.930 . S
C536 N533 1.314 . S
C536 C534 1.353 . S
C536 H594 0.930 . S
C537 N533 1.279 . S
C537 C535 1.358 . S
C537 H595 0.930 . S
C538 C541 1.348 . S
C538 C542 1.356 . S
C538 O589 1.325 . S
C539 N540 1.279 . S
C539 C542 1.358 . S
C539 H596 0.930 . S
N540 C539 1.279 . S
N540 C543 1.314 . S
C541 C538 1.348 . S
C541 C543 1.353 . S
C541 H597 0.929 . S
C542 C538 1.356 . S
C542 C539 1.358 . S
C542 H598 0.930 . S
C543 N540 1.314 . S
C543 C541 1.353 . S
C543 H599 0.930 . S
C544 N545 1.314 . S
C544 C549 1.353 . S
C544 H550 0.930 . S
N545 Li528 1.990 . S
N545 C544 1.314 . S
N545 C547 1.279 . S
C546 C547 1.358 . S
C546 C548 1.356 . S
C546 H600 0.930 . S
C547 N545 1.279 . S
C547 C546 1.358 . S
C547 H551 0.930 . S
C548 C546 1.356 . S
C548 C549 1.348 . S
C549 C544 1.353 . S
C549 C548 1.348 . S
C549 H601 0.929 . S
H550 C544 0.930 . S
H551 C547 0.930 . S
C552 N553 1.314 . S
C552 C554 1.353 . S
C552 H558 0.930 . S
N553 Li529 1.990 . S
N553 C552 1.314 . S
N553 C556 1.279 . S
C554 C552 1.353 . S
C554 C557 1.348 . S
C554 H602 0.929 . S
C555 C556 1.358 . S
C555 C557 1.356 . S
C555 H603 0.930 . S
C556 N553 1.279 . S
C556 C555 1.358 . S
C556 H559 0.930 . S
C557 C554 1.348 . S
C557 C555 1.356 . S
H558 C552 0.930 . S
H559 C556 0.930 . S
C560 C562 1.348 . S
C560 C563 1.356 . S
C560 O590 1.325 . S
N561 C564 1.314 . S
N561 C565 1.279 . S
C562 C560 1.348 . S
C562 C564 1.353 . S
C562 H604 0.929 . S
C563 C560 1.356 . S
C563 C565 1.358 . S
C563 H605 0.930 . S
C564 N561 1.314 . S
C564 C562 1.353 . S
C564 H606 0.930 . S
C565 N561 1.279 . S
C565 C563 1.358 . S
C565 H607 0.930 . S
C566 C567 1.348 . S
C566 C568 1.356 . S
C566 O591 1.325 . S
C567 C566 1.348 . S
C567 C569 1.353 . S
C567 H608 0.929 . S
C568 C566 1.356 . S
C568 C570 1.358 . S
C568 H609 0.930 . S
C569 C567 1.353 . S
C569 N571 1.314 . S
C569 H610 0.930 . S
C570 C568 1.358 . S
C570 N571 1.279 . S
C570 H611 0.930 . S
N571 C569 1.314 . S
N571 C570 1.279 . S
C572 C574 1.353 . S
C572 N575 1.314 . S
C572 H578 0.930 . S
C573 N575 1.279 . S
C573 C576 1.358 . S
C573 H579 0.930 . S
C574 C572 1.353 . S
C574 C577 1.348 . S
C574 H612 0.929 . S
N575 Li530 1.990 . S
N575 C572 1.314 . S
N575 C573 1.279 . S
C576 C573 1.358 . S
C576 C577 1.356 . S
C576 H613 0.930 . S
C577 C574 1.348 . S
C577 C576 1.356 . S
H578 C572 0.930 . S
H579 C573 0.930 . S
C580 N581 1.314 . S
C580 C582 1.353 . S
C580 H586 0.930 . S
N581 Li531 1.990 . S
N581 C580 1.314 . S
N581 C584 1.279 . S
C582 C580 1.353 . S
C582 C585 1.348 . S
C582 H614 0.929 . S
C583 C584 1.358 . S
C583 C585 1.356 . S
C583 H615 0.930 . S
C584 N581 1.279 . S
C584 C583 1.358 . S
C584 H587 0.930 . S
C585 C582 1.348 . S
C585 C583 1.356 . S
H586 C580 0.930 . S
H587 C584 0.930 . S
O588 Li528 1.956 . S
O588 Li529 1.970 . S
O588 Li530 1.961 . S
O588 C532 1.325 . S
O589 Li528 1.970 . S
O589 Li529 1.956 . S
O589 Li531 1.961 . S
O589 C538 1.325 . S
O590 Li528 1.961 . S
O590 Li530 1.956 . S
O590 Li531 1.970 . S
O590 C560 1.325 . S
O591 Li529 1.961 . S
O591 Li530 1.970 . S
O591 Li531 1.956 . S
O591 C566 1.325 . S
H592 C534 0.929 . S
H593 C535 0.930 . S
H594 C536 0.930 . S
H595 C537 0.930 . S
H596 C539 0.930 . S
H597 C541 0.929 . S
H598 C542 0.930 . S
H599 C543 0.930 . S
H600 C546 0.930 . S
H601 C549 0.929 . S
H602 C554 0.929 . S
H603 C555 0.930 . S
H604 C562 0.929 . S
H605 C563 0.930 . S
H606 C564 0.930 . S
H607 C565 0.930 . S
H608 C567 0.929 . S
H609 C568 0.930 . S
H610 C569 0.930 . S
H611 C570 0.930 . S
H612 C574 0.929 . S
H613 C576 0.930 . S
H614 C582 0.929 . S
H615 C583 0.930 . S
Li616 N633 1.990 . S
Li616 O676 1.956 1_455 S
Li616 O677 1.970 . S
Li616 O678 1.961 . S
Li617 N641 1.990 . S
Li617 O676 1.970 . S
Li617 O677 1.956 1_655 S
Li617 O679 1.961 . S
Li618 N663 1.990 . S
Li618 O676 1.961 . S
Li618 O678 1.956 1_655 S
Li618 O679 1.970 . S
Li619 N669 1.990 . S
Li619 O677 1.961 . S
Li619 O678 1.970 . S
Li619 O679 1.956 1_455 S
C620 C622 1.348 . S
C620 C623 1.356 . S
C620 O676 1.325 . S
N621 C624 1.314 . S
N621 C625 1.279 . S
C622 C620 1.348 . S
C622 C624 1.353 . S
C622 H680 0.929 . S
C623 C620 1.356 . S
C623 C625 1.358 . S
C623 H681 0.930 . S
C624 N621 1.314 . S
C624 C622 1.353 . S
C624 H682 0.930 . S
C625 N621 1.279 . S
C625 C623 1.358 . S
C625 H683 0.930 . S
C626 C629 1.348 . S
C626 C630 1.356 . S
C626 O677 1.325 . S
C627 N628 1.279 . S
C627 C630 1.358 . S
C627 H684 0.930 . S
N628 C627 1.279 . S
N628 C631 1.314 . S
C629 C626 1.348 . S
C629 C631 1.353 . S
C629 H685 0.929 1_455 S
C630 C626 1.356 . S
C630 C627 1.358 . S
C630 H686 0.930 . S
C631 N628 1.314 . S
C631 C629 1.353 . S
C631 H687 0.930 . S
C632 N633 1.314 . S
C632 C637 1.353 . S
C632 H638 0.930 . S
N633 Li616 1.990 . S
N633 C632 1.314 . S
N633 C635 1.279 1_455 S
C634 C635 1.358 . S
C634 C636 1.356 1_655 S
C634 H688 0.930 . S
C635 N633 1.279 1_655 S
C635 C634 1.358 . S
C635 H639 0.930 . S
C636 C634 1.356 1_455 S
C636 C637 1.348 . S
C637 C632 1.353 . S
C637 C636 1.348 . S
C637 H689 0.929 . S
H638 C632 0.930 . S
H639 C635 0.930 . S
C640 N641 1.314 . S
C640 C642 1.353 . S
C640 H646 0.930 . S
N641 Li617 1.990 . S
N641 C640 1.314 . S
N641 C644 1.279 . S
C642 C640 1.353 . S
C642 C645 1.348 . S
C642 H690 0.929 . S
C643 C644 1.358 . S
C643 C645 1.356 . S
C643 H691 0.930 . S
C644 N641 1.279 . S
C644 C643 1.358 . S
C644 H647 0.930 . S
C645 C642 1.348 . S
C645 C643 1.356 . S
H646 C640 0.930 . S
H647 C644 0.930 . S
C648 C650 1.348 . S
C648 C651 1.356 . S
C648 O678 1.325 . S
N649 C652 1.314 . S
N649 C653 1.279 . S
C650 C648 1.348 . S
C650 C652 1.353 . S
C650 H692 0.929 . S
C651 C648 1.356 . S
C651 C653 1.358 . S
C651 H693 0.930 . S
C652 N649 1.314 . S
C652 C650 1.353 . S
C652 H694 0.930 . S
C653 N649 1.279 . S
C653 C651 1.358 . S
C653 H695 0.930 . S
C654 C655 1.348 . S
C654 C656 1.356 . S
C654 O679 1.325 . S
C655 C654 1.348 . S
C655 C657 1.353 . S
C655 H696 0.912 1_655 S
C656 C654 1.356 . S
C656 C658 1.358 . S
C656 H697 0.930 . S
C657 C655 1.353 . S
C657 N659 1.314 . S
C657 H698 0.930 . S
C658 C656 1.358 . S
C658 N659 1.279 . S
C658 H699 0.930 . S
N659 C657 1.314 . S
N659 C658 1.279 . S
C660 C662 1.353 . S
C660 N663 1.314 . S
C660 H666 0.930 . S
C661 N663 1.279 1_455 S
C661 C664 1.358 . S
C661 H667 0.930 . S
C662 C660 1.353 . S
C662 C665 1.348 . S
C662 H700 0.929 . S
N663 Li618 1.990 . S
N663 C660 1.314 . S
N663 C661 1.279 1_655 S
C664 C661 1.358 . S
C664 C665 1.356 1_455 S
C664 H701 0.930 . S
C665 C662 1.348 . S
C665 C664 1.356 1_655 S
H666 C660 0.930 . S
H667 C661 0.930 . S
C668 N669 1.314 . S
C668 C670 1.353 . S
C668 H674 0.930 . S
N669 Li619 1.990 . S
N669 C668 1.314 . S
N669 C672 1.279 . S
C670 C668 1.353 . S
C670 C673 1.348 . S
C670 H702 0.929 . S
C671 C672 1.358 . S
C671 C673 1.356 . S
C671 H703 0.930 . S
C672 N669 1.279 . S
C672 C671 1.358 . S
C672 H675 0.930 . S
C673 C670 1.348 . S
C673 C671 1.356 . S
H674 C668 0.930 . S
H675 C672 0.930 . S
O676 Li616 1.956 1_655 S
O676 Li617 1.970 . S
O676 Li618 1.961 . S
O676 C620 1.325 . S
O677 Li616 1.970 . S
O677 Li617 1.956 1_455 S
O677 Li619 1.961 . S
O677 C626 1.325 . S
O678 Li616 1.961 . S
O678 Li618 1.956 1_455 S
O678 Li619 1.970 . S
O678 C648 1.325 . S
O679 Li617 1.961 . S
O679 Li618 1.970 . S
O679 Li619 1.956 1_655 S
O679 C654 1.325 . S
H680 C622 0.929 . S
H681 C623 0.930 . S
H682 C624 0.930 . S
H683 C625 0.930 . S
H684 C627 0.930 . S
H685 C629 0.929 1_655 S
H686 C630 0.930 . S
H687 C631 0.930 . S
H688 C634 0.930 . S
H689 C637 0.929 . S
H690 C642 0.929 . S
H691 C643 0.930 . S
H692 C650 0.929 . S
H693 C651 0.930 . S
H694 C652 0.930 . S
H695 C653 0.930 . S
H696 C655 0.912 1_455 S
H697 C656 0.930 . S
H698 C657 0.930 . S
H699 C658 0.930 . S
H700 C662 0.929 . S
H701 C664 0.930 . S
H702 C670 0.929 . S
H703 C671 0.930 . S
Li704 N721 1.990 . S
Li704 O764 1.956 . S
Li704 O765 1.970 . S
Li704 O766 1.961 . S
Li705 N729 1.990 1_545 S
Li705 O764 1.970 . S
Li705 O765 1.956 . S
Li705 O767 1.961 . S
Li706 N751 1.990 . S
Li706 O764 1.961 . S
Li706 O766 1.956 . S
Li706 O767 1.970 . S
Li707 N757 1.990 . S
Li707 O765 1.961 . S
Li707 O766 1.970 . S
Li707 O767 1.956 . S
C708 C710 1.348 . S
C708 C711 1.356 1_565 S
C708 O764 1.325 1_565 S
N709 C712 1.314 . S
N709 C713 1.279 . S
C710 C708 1.348 . S
C710 C712 1.353 . S
C710 H768 0.929 . S
C711 C708 1.356 1_545 S
C711 C713 1.358 1_545 S
C711 H769 0.930 . S
C712 N709 1.314 . S
C712 C710 1.353 . S
C712 H770 0.930 . S
C713 N709 1.279 . S
C713 C711 1.358 1_565 S
C713 H771 0.930 . S
C714 C717 1.348 . S
C714 C718 1.356 . S
C714 O765 1.325 . S
C715 N716 1.279 . S
C715 C718 1.358 . S
C715 H772 0.930 . S
N716 C715 1.279 . S
N716 C719 1.314 . S
C717 C714 1.348 . S
C717 C719 1.353 . S
C717 H773 0.929 . S
C718 C714 1.356 . S
C718 C715 1.358 . S
C718 H774 0.930 . S
C719 N716 1.314 . S
C719 C717 1.353 . S
C719 H775 0.930 . S
C720 N721 1.314 . S
C720 C725 1.353 . S
C720 H726 0.930 . S
N721 Li704 1.990 . S
N721 C720 1.314 . S
N721 C723 1.279 . S
C722 C723 1.358 . S
C722 C724 1.356 . S
C722 H776 0.930 . S
C723 N721 1.279 . S
C723 C722 1.358 . S
C723 H727 0.930 . S
C724 C722 1.356 . S
C724 C725 1.348 . S
C725 C720 1.353 . S
C725 C724 1.348 . S
C725 H777 0.929 . S
H726 C720 0.930 . S
H727 C723 0.930 . S
C728 N729 1.314 . S
C728 C730 1.353 . S
C728 H734 0.930 . S
N729 Li705 1.990 1_565 S
N729 C728 1.314 . S
N729 C732 1.279 . S
C730 C728 1.353 . S
C730 C733 1.348 . S
C730 H778 0.929 . S
C731 C732 1.358 . S
C731 C733 1.356 . S
C731 H779 0.930 . S
C732 N729 1.279 . S
C732 C731 1.358 . S
C732 H735 0.930 . S
C733 C730 1.348 . S
C733 C731 1.356 . S
H734 C728 0.930 . S
H735 C732 0.930 . S
C736 C738 1.348 . S
C736 C739 1.356 . S
C736 O766 1.325 . S
N737 C740 1.314 . S
N737 C741 1.279 . S
C738 C736 1.348 . S
C738 C740 1.353 . S
C738 H780 0.929 . S
C739 C736 1.356 . S
C739 C741 1.358 . S
C739 H781 0.930 . S
C740 N737 1.314 . S
C740 C738 1.353 . S
C740 H782 0.930 . S
C741 N737 1.279 . S
C741 C739 1.358 . S
C741 H783 0.930 . S
C742 C743 1.348 . S
C742 C744 1.356 . S
C742 O767 1.325 . S
C743 C742 1.348 . S
C743 C745 1.353 . S
C743 H784 0.929 . S
C744 C742 1.356 . S
C744 C746 1.358 . S
C744 H785 0.930 . S
C745 C743 1.353 . S
C745 N747 1.314 . S
C745 H786 0.930 . S
C746 C744 1.358 . S
C746 N747 1.279 . S
C746 H787 0.930 . S
N747 C745 1.314 . S
N747 C746 1.279 . S
C748 C750 1.353 . S
C748 N751 1.314 . S
C748 H754 0.930 . S
C749 N751 1.279 . S
C749 C752 1.358 . S
C749 H755 0.930 . S
C750 C748 1.353 . S
C750 C753 1.348 . S
C750 H788 0.929 . S
N751 Li706 1.990 . S
N751 C748 1.314 . S
N751 C749 1.279 . S
C752 C749 1.358 . S
C752 C753 1.356 . S
C752 H789 0.930 . S
C753 C750 1.348 . S
C753 C752 1.356 . S
H754 C748 0.930 . S
H755 C749 0.930 . S
C756 N757 1.314 . S
C756 C758 1.353 . S
C756 H762 0.930 . S
N757 Li707 1.990 . S
N757 C756 1.314 . S
N757 C760 1.279 . S
C758 C756 1.353 . S
C758 C761 1.348 . S
C758 H790 0.929 . S
C759 C760 1.358 . S
C759 C761 1.356 . S
C759 H791 0.930 . S
C760 N757 1.279 . S
C760 C759 1.358 . S
C760 H763 0.930 . S
C761 C758 1.348 . S
C761 C759 1.356 . S
H762 C756 0.930 . S
H763 C760 0.930 . S
O764 Li704 1.956 . S
O764 Li705 1.970 . S
O764 Li706 1.961 . S
O764 C708 1.325 1_545 S
O765 Li704 1.970 . S
O765 Li705 1.956 . S
O765 Li707 1.961 . S
O765 C714 1.325 . S
O766 Li704 1.961 . S
O766 Li706 1.956 . S
O766 Li707 1.970 . S
O766 C736 1.325 . S
O767 Li705 1.961 . S
O767 Li706 1.970 . S
O767 Li707 1.956 . S
O767 C742 1.325 . S
H768 C710 0.929 . S
H769 C711 0.930 . S
H770 C712 0.930 . S
H771 C713 0.930 . S
H772 C715 0.930 . S
H773 C717 0.929 . S
H774 C718 0.930 . S
H775 C719 0.930 . S
H776 C722 0.930 . S
H777 C725 0.929 . S
H778 C730 0.929 . S
H779 C731 0.930 . S
H780 C738 0.929 . S
H781 C739 0.930 . S
H782 C740 0.930 . S
H783 C741 0.930 . S
H784 C743 0.929 . S
H785 C744 0.930 . S
H786 C745 0.930 . S
H787 C746 0.930 . S
H788 C750 0.929 . S
H789 C752 0.930 . S
H790 C758 0.929 . S
H791 C759 0.930 . S
Li792 N809 1.990 . S
Li792 O852 1.956 . S
Li792 O853 1.970 . S
Li792 O854 1.961 . S
Li793 N817 1.990 . S
Li793 O852 1.970 . S
Li793 O853 1.956 . S
Li793 O855 1.961 . S
Li794 N839 1.990 . S
Li794 O852 1.961 . S
Li794 O854 1.956 . S
Li794 O855 1.970 . S
Li795 N845 1.990 . S
Li795 O853 1.961 . S
Li795 O854 1.970 . S
Li795 O855 1.956 . S
C796 C798 1.348 . S
C796 C799 1.356 . S
C796 O852 1.325 . S
N797 C800 1.314 . S
N797 C801 1.279 . S
C798 C796 1.348 . S
C798 C800 1.353 . S
C798 H856 0.929 . S
C799 C796 1.356 . S
C799 C801 1.358 . S
C799 H857 0.930 . S
C800 N797 1.314 . S
C800 C798 1.353 . S
C800 H858 0.930 . S
C801 N797 1.279 . S
C801 C799 1.358 . S
C801 H859 0.930 . S
C802 C805 1.348 . S
C802 C806 1.356 . S
C802 O853 1.325 . S
C803 N804 1.279 . S
C803 C806 1.358 . S
C803 H860 0.930 . S
N804 C803 1.279 . S
N804 C807 1.314 . S
C805 C802 1.348 . S
C805 C807 1.353 . S
C805 H861 0.929 . S
C806 C802 1.356 . S
C806 C803 1.358 . S
C806 H862 0.930 . S
C807 N804 1.314 . S
C807 C805 1.353 . S
C807 H863 0.930 . S
C808 N809 1.314 . S
C808 C813 1.353 . S
C808 H814 0.930 . S
N809 Li792 1.990 . S
N809 C808 1.314 . S
N809 C811 1.279 . S
C810 C811 1.358 . S
C810 C812 1.356 . S
C810 H864 0.930 . S
C811 N809 1.279 . S
C811 C810 1.358 . S
C811 H815 0.930 . S
C812 C810 1.356 . S
C812 C813 1.348 . S
C813 C808 1.353 . S
C813 C812 1.348 . S
C813 H865 0.929 . S
H814 C808 0.930 . S
H815 C811 0.930 . S
C816 N817 1.314 . S
C816 C818 1.353 . S
C816 H822 0.930 . S
N817 Li793 1.990 . S
N817 C816 1.314 . S
N817 C820 1.279 . S
C818 C816 1.353 . S
C818 C821 1.348 . S
C818 H866 0.929 . S
C819 C820 1.358 . S
C819 C821 1.356 . S
C819 H867 0.930 . S
C820 N817 1.279 . S
C820 C819 1.358 . S
C820 H823 0.930 . S
C821 C818 1.348 . S
C821 C819 1.356 . S
H822 C816 0.930 . S
H823 C820 0.930 . S
C824 C826 1.348 . S
C824 C827 1.356 . S
C824 O854 1.325 . S
N825 C828 1.314 . S
N825 C829 1.279 . S
C826 C824 1.348 . S
C826 C828 1.353 . S
C826 H868 0.929 . S
C827 C824 1.356 . S
C827 C829 1.358 . S
C827 H869 0.930 . S
C828 N825 1.314 . S
C828 C826 1.353 . S
C828 H870 0.930 . S
C829 N825 1.279 . S
C829 C827 1.358 . S
C829 H871 0.930 . S
C830 C831 1.348 . S
C830 C832 1.356 . S
C830 O855 1.325 . S
C831 C830 1.348 . S
C831 C833 1.353 . S
C831 H872 0.929 . S
C832 C830 1.356 . S
C832 C834 1.358 . S
C832 H873 0.930 . S
C833 C831 1.353 . S
C833 N835 1.314 . S
C833 H874 0.930 . S
C834 C832 1.358 . S
C834 N835 1.279 . S
C834 H875 0.930 . S
N835 C833 1.314 . S
N835 C834 1.279 . S
C836 C838 1.353 . S
C836 N839 1.314 . S
C836 H842 0.930 . S
C837 N839 1.279 . S
C837 C840 1.358 . S
C837 H843 0.930 . S
C838 C836 1.353 . S
C838 C841 1.348 . S
C838 H876 0.929 . S
N839 Li794 1.990 . S
N839 C836 1.314 . S
N839 C837 1.279 . S
C840 C837 1.358 . S
C840 C841 1.356 . S
C840 H877 0.930 . S
C841 C838 1.348 . S
C841 C840 1.356 . S
H842 C836 0.930 . S
H843 C837 0.930 . S
C844 N845 1.314 . S
C844 C846 1.353 . S
C844 H850 0.930 . S
N845 Li795 1.990 . S
N845 C844 1.314 . S
N845 C848 1.279 . S
C846 C844 1.353 . S
C846 C849 1.348 . S
C846 H878 0.929 . S
C847 C848 1.358 . S
C847 C849 1.356 . S
C847 H879 0.930 . S
C848 N845 1.279 . S
C848 C847 1.358 . S
C848 H851 0.930 . S
C849 C846 1.348 . S
C849 C847 1.356 . S
H850 C844 0.930 . S
H851 C848 0.930 . S
O852 Li792 1.956 . S
O852 Li793 1.970 . S
O852 Li794 1.961 . S
O852 C796 1.325 . S
O853 Li792 1.970 . S
O853 Li793 1.956 . S
O853 Li795 1.961 . S
O853 C802 1.325 . S
O854 Li792 1.961 . S
O854 Li794 1.956 . S
O854 Li795 1.970 . S
O854 C824 1.325 . S
O855 Li793 1.961 . S
O855 Li794 1.970 . S
O855 Li795 1.956 . S
O855 C830 1.325 . S
H856 C798 0.929 . S
H857 C799 0.930 . S
H858 C800 0.930 . S
H859 C801 0.930 . S
H860 C803 0.930 . S
H861 C805 0.929 . S
H862 C806 0.930 . S
H863 C807 0.930 . S
H864 C810 0.930 . S
H865 C813 0.929 . S
H866 C818 0.929 . S
H867 C819 0.930 . S
H868 C826 0.929 . S
H869 C827 0.930 . S
H870 C828 0.930 . S
H871 C829 0.930 . S
H872 C831 0.929 . S
H873 C832 0.930 . S
H874 C833 0.930 . S
H875 C834 0.930 . S
H876 C838 0.929 . S
H877 C840 0.930 . S
H878 C846 0.929 . S
H879 C847 0.930 . S
Li880 N897 1.990 . S
Li880 O940 1.956 . S
Li880 O941 1.970 . S
Li880 O942 1.961 . S
Li881 N905 1.990 . S
Li881 O940 1.970 . S
Li881 O941 1.956 . S
Li881 O943 1.961 . S
Li882 N927 1.990 1_545 S
Li882 O940 1.961 . S
Li882 O942 1.956 . S
Li882 O943 1.970 . S
Li883 N933 1.990 . S
Li883 O941 1.961 . S
Li883 O942 1.970 . S
Li883 O943 1.956 . S
C884 C886 1.348 . S
C884 C887 1.356 . S
C884 O940 1.325 . S
N885 C888 1.314 . S
N885 C889 1.279 . S
C886 C884 1.348 . S
C886 C888 1.353 . S
C886 H944 0.929 . S
C887 C884 1.356 . S
C887 C889 1.358 . S
C887 H945 0.930 . S
C888 N885 1.314 . S
C888 C886 1.353 . S
C888 H946 0.930 . S
C889 N885 1.279 . S
C889 C887 1.358 . S
C889 H947 0.930 . S
C890 C893 1.348 . S
C890 C894 1.356 . S
C890 O941 1.325 . S
C891 N892 1.279 . S
C891 C894 1.358 . S
C891 H948 0.930 . S
N892 C891 1.279 . S
N892 C895 1.314 . S
C893 C890 1.348 . S
C893 C895 1.353 . S
C893 H949 0.929 . S
C894 C890 1.356 . S
C894 C891 1.358 . S
C894 H950 0.930 . S
C895 N892 1.314 . S
C895 C893 1.353 . S
C895 H951 0.930 . S
C896 N897 1.314 . S
C896 C901 1.353 . S
C896 H902 0.930 . S
N897 Li880 1.990 . S
N897 C896 1.314 . S
N897 C899 1.279 . S
C898 C899 1.358 . S
C898 C900 1.356 . S
C898 H952 0.930 . S
C899 N897 1.279 . S
C899 C898 1.358 . S
C899 H903 0.930 . S
C900 C898 1.356 . S
C900 C901 1.348 . S
C901 C896 1.353 . S
C901 C900 1.348 . S
C901 H953 0.929 . S
H902 C896 0.930 . S
H903 C899 0.930 . S
C904 N905 1.314 . S
C904 C906 1.353 . S
C904 H910 0.930 1_545 S
N905 Li881 1.990 . S
N905 C904 1.314 . S
N905 C908 1.279 . S
C906 C904 1.353 . S
C906 C909 1.348 . S
C906 H954 0.929 1_545 S
C907 C908 1.358 . S
C907 C909 1.356 . S
C907 H955 0.930 . S
C908 N905 1.279 . S
C908 C907 1.358 . S
C908 H911 0.930 . S
C909 C906 1.348 . S
C909 C907 1.356 . S
H910 C904 0.930 1_565 S
H911 C908 0.930 . S
C912 C914 1.348 . S
C912 C915 1.356 . S
C912 O942 1.325 . S
N913 C916 1.314 . S
N913 C917 1.279 . S
C914 C912 1.348 . S
C914 C916 1.353 . S
C914 H956 0.929 . S
C915 C912 1.356 . S
C915 C917 1.358 . S
C915 H957 0.930 . S
C916 N913 1.314 . S
C916 C914 1.353 . S
C916 H958 0.930 . S
C917 N913 1.279 . S
C917 C915 1.358 . S
C917 H959 0.930 . S
C918 C919 1.348 . S
C918 C920 1.356 . S
C918 O943 1.325 1_565 S
C919 C918 1.348 . S
C919 C921 1.353 . S
C919 H960 0.929 . S
C920 C918 1.356 . S
C920 C922 1.358 . S
C920 H961 0.930 . S
C921 C919 1.353 . S
C921 N923 1.314 . S
C921 H962 0.930 . S
C922 C920 1.358 . S
C922 N923 1.279 . S
C922 H963 0.930 . S
N923 C921 1.314 . S
N923 C922 1.279 . S
C924 C926 1.353 . S
C924 N927 1.314 . S
C924 H930 0.930 . S
C925 N927 1.279 . S
C925 C928 1.358 . S
C925 H931 0.930 . S
C926 C924 1.353 . S
C926 C929 1.348 . S
C926 H964 0.929 . S
N927 Li882 1.990 1_565 S
N927 C924 1.314 . S
N927 C925 1.279 . S
C928 C925 1.358 . S
C928 C929 1.356 . S
C928 H965 0.930 . S
C929 C926 1.348 . S
C929 C928 1.356 . S
H930 C924 0.930 . S
H931 C925 0.930 . S
C932 N933 1.314 . S
C932 C934 1.353 . S
C932 H938 0.930 . S
N933 Li883 1.990 . S
N933 C932 1.314 . S
N933 C936 1.279 . S
C934 C932 1.353 . S
C934 C937 1.348 . S
C934 H966 0.929 . S
C935 C936 1.359 . S
C935 C937 1.354 . S
C935 H967 0.931 1_545 S
C936 N933 1.279 . S
C936 C935 1.359 . S
C936 H939 0.930 1_545 S
C937 C934 1.348 . S
C937 C935 1.354 . S
H938 C932 0.930 . S
H939 C936 0.930 1_565 S
O940 Li880 1.956 . S
O940 Li881 1.970 . S
O940 Li882 1.961 . S
O940 C884 1.325 . S
O941 Li880 1.970 . S
O941 Li881 1.956 . S
O941 Li883 1.961 . S
O941 C890 1.325 . S
O942 Li880 1.961 . S
O942 Li882 1.956 . S
O942 Li883 1.970 . S
O942 C912 1.325 . S
O943 Li881 1.961 . S
O943 Li882 1.970 . S
O943 Li883 1.956 . S
O943 C918 1.325 1_545 S
H944 C886 0.929 . S
H945 C887 0.930 . S
H946 C888 0.930 . S
H947 C889 0.930 . S
H948 C891 0.930 . S
H949 C893 0.929 . S
H950 C894 0.930 . S
H951 C895 0.930 . S
H952 C898 0.930 . S
H953 C901 0.929 . S
H954 C906 0.929 1_565 S
H955 C907 0.930 . S
H956 C914 0.929 . S
H957 C915 0.930 . S
H958 C916 0.930 . S
H959 C917 0.930 . S
H960 C919 0.929 . S
H961 C920 0.930 . S
H962 C921 0.930 . S
H963 C922 0.930 . S
H964 C926 0.929 . S
H965 C928 0.930 . S
H966 C934 0.929 . S
H967 C935 0.931 1_565 S
Li968 N985 1.990 . S
Li968 O1028 1.987 . S
Li968 O1029 1.970 1_554 S
Li968 O1030 1.928 1_554 S
Li969 N993 1.990 . S
Li969 O1028 1.970 . S
Li969 O1029 1.956 1_554 S
Li969 O1031 1.986 . S
Li970 N1015 1.988 . S
Li970 O1028 2.005 . S
Li970 O1030 1.917 1_554 S
Li970 O1031 1.972 . S
Li971 N1021 1.990 . S
Li971 O1029 1.961 . S
Li971 O1030 1.970 . S
Li971 O1031 1.931 1_556 S
C972 C974 1.348 . S
C972 C975 1.356 . S
C972 O1028 1.325 . S
N973 C976 1.314 . S
N973 C977 1.279 . S
C974 C972 1.348 . S
C974 C976 1.353 . S
C974 H1032 0.929 . S
C975 C972 1.356 . S
C975 C977 1.358 . S
C975 H1033 0.930 . S
C976 N973 1.314 . S
C976 C974 1.353 . S
C976 H1034 0.930 . S
C977 N973 1.279 . S
C977 C975 1.358 . S
C977 H1035 0.930 . S
C978 C981 1.348 1_556 S
C978 C982 1.356 . S
C978 O1029 1.325 . S
C979 N980 1.279 . S
C979 C982 1.358 . S
C979 H1036 0.930 . S
N980 C979 1.279 . S
N980 C983 1.314 1_556 S
C981 C978 1.348 1_554 S
C981 C983 1.353 . S
C981 H1037 0.929 . S
C982 C978 1.356 . S
C982 C979 1.358 . S
C982 H1038 0.930 . S
C983 N980 1.314 1_554 S
C983 C981 1.353 . S
C983 H1039 0.930 . S
C984 N985 1.256 1_556 S
C984 C989 1.353 . S
C984 H990 0.930 . S
N985 Li968 1.990 . S
N985 C984 1.256 1_554 S
N985 C987 1.338 . S
C986 C987 1.358 . S
C986 C988 1.367 . S
C986 H1040 0.930 . S
C987 N985 1.338 . S
C987 C986 1.358 . S
C987 H991 0.930 . S
C988 C986 1.367 . S
C988 C989 1.337 1_554 S
C989 C984 1.353 . S
C989 C988 1.337 1_556 S
C989 H1041 0.929 . S
H990 C984 0.930 . S
H991 C987 0.930 . S
C992 N993 1.314 . S
C992 C994 1.353 . S
C992 H998 0.930 . S
N993 Li969 1.990 . S
N993 C992 1.314 . S
N993 C996 1.279 . S
C994 C992 1.353 . S
C994 C997 1.348 . S
C994 H1042 0.929 . S
C995 C996 1.358 . S
C995 C997 1.356 . S
C995 H1043 0.930 . S
C996 N993 1.279 . S
C996 C995 1.358 . S
C996 H999 0.930 . S
C997 C994 1.348 . S
C997 C995 1.356 . S
H998 C992 0.930 . S
H999 C996 0.930 . S
C1000 C1002 1.348 . S
C1000 C1003 1.356 . S
C1000 O1030 1.325 . S
N1001 C1004 1.314 . S
N1001 C1005 1.279 . S
C1002 C1000 1.348 . S
C1002 C1004 1.353 . S
C1002 H1044 0.929 . S
C1003 C1000 1.356 . S
C1003 C1005 1.358 . S
C1003 H1045 0.930 . S
C1004 N1001 1.314 . S
C1004 C1002 1.353 . S
C1004 H1046 0.930 . S
C1005 N1001 1.279 . S
C1005 C1003 1.358 . S
C1005 H1047 0.930 . S
C1006 C1007 1.348 1_554 S
C1006 C1008 1.356 . S
C1006 O1031 1.324 . S
C1007 C1006 1.348 1_556 S
C1007 C1009 1.353 . S
C1007 H1048 0.929 . S
C1008 C1006 1.356 . S
C1008 C1010 1.358 . S
C1008 H1049 0.930 . S
C1009 C1007 1.353 . S
C1009 N1011 1.314 . S
C1009 H1050 0.930 . S
C1010 C1008 1.358 . S
C1010 N1011 1.279 1_554 S
C1010 H1051 0.930 . S
N1011 C1009 1.314 . S
N1011 C1010 1.279 1_556 S
C1012 C1014 1.353 . S
C1012 N1015 1.314 . S
C1012 H1018 0.930 . S
C1013 N1015 1.279 1_556 S
C1013 C1016 1.358 . S
C1013 H1019 0.930 . S
C1014 C1012 1.353 . S
C1014 C1017 1.348 . S
C1014 H1052 0.929 . S
N1015 Li970 1.988 . S
N1015 C1012 1.314 . S
N1015 C1013 1.279 1_554 S
C1016 C1013 1.358 . S
C1016 C1017 1.356 1_556 S
C1016 H1053 0.930 . S
C1017 C1014 1.348 . S
C1017 C1016 1.356 1_554 S
H1018 C1012 0.930 . S
H1019 C1013 0.930 . S
C1020 N1021 1.314 . S
C1020 C1022 1.353 . S
C1020 H1026 0.930 . S
N1021 Li971 1.990 . S
N1021 C1020 1.314 . S
N1021 C1024 1.279 . S
C1022 C1020 1.353 . S
C1022 C1025 1.348 . S
C1022 H1054 0.929 . S
C1023 C1024 1.358 . S
C1023 C1025 1.356 . S
C1023 H1055 0.930 . S
C1024 N1021 1.279 . S
C1024 C1023 1.358 . S
C1024 H1027 0.930 . S
C1025 C1022 1.348 . S
C1025 C1023 1.356 . S
H1026 C1020 0.930 . S
H1027 C1024 0.930 . S
O1028 Li968 1.987 . S
O1028 Li969 1.970 . S
O1028 Li970 2.005 . S
O1028 C972 1.325 . S
O1029 Li968 1.970 1_556 S
O1029 Li969 1.956 1_556 S
O1029 Li971 1.961 . S
O1029 C978 1.325 . S
O1030 Li968 1.928 1_556 S
O1030 Li970 1.917 1_556 S
O1030 Li971 1.970 . S
O1030 C1000 1.325 . S
O1031 Li969 1.986 . S
O1031 Li970 1.972 . S
O1031 Li971 1.931 1_554 S
O1031 C1006 1.324 . S
H1032 C974 0.929 . S
H1033 C975 0.930 . S
H1034 C976 0.930 . S
H1035 C977 0.930 . S
H1036 C979 0.930 . S
H1037 C981 0.929 . S
H1038 C982 0.930 . S
H1039 C983 0.930 . S
H1040 C986 0.930 . S
H1041 C989 0.929 . S
H1042 C994 0.929 . S
H1043 C995 0.930 . S
H1044 C1002 0.929 . S
H1045 C1003 0.930 . S
H1046 C1004 0.930 . S
H1047 C1005 0.930 . S
H1048 C1007 0.929 . S
H1049 C1008 0.930 . S
H1050 C1009 0.930 . S
H1051 C1010 0.930 . S
H1052 C1014 0.929 . S
H1053 C1016 0.930 . S
H1054 C1022 0.929 . S
H1055 C1023 0.930 . S
Li1056 N1073 1.990 . S
Li1056 O1116 1.956 . S
Li1056 O1117 1.970 . S
Li1056 O1118 2.002 . S
Li1057 N1081 1.990 . S
Li1057 O1116 1.970 . S
Li1057 O1117 1.956 . S
Li1057 O1119 1.961 . S
Li1058 N1103 1.990 . S
Li1058 O1116 1.961 . S
Li1058 O1118 1.993 . S
Li1058 O1119 1.970 . S
Li1059 N1109 1.990 1_554 S
Li1059 O1117 1.961 . S
Li1059 O1118 1.976 . S
Li1059 O1119 1.956 . S
C1060 C1062 1.348 . S
C1060 C1063 1.356 . S
C1060 O1116 1.325 . S
N1061 C1064 1.314 . S
N1061 C1065 1.279 . S
C1062 C1060 1.348 . S
C1062 C1064 1.353 . S
C1062 H1120 0.929 . S
C1063 C1060 1.356 . S
C1063 C1065 1.358 . S
C1063 H1121 0.930 . S
C1064 N1061 1.314 . S
C1064 C1062 1.353 . S
C1064 H1122 0.930 . S
C1065 N1061 1.279 . S
C1065 C1063 1.358 . S
C1065 H1123 0.930 . S
C1066 C1069 1.348 . S
C1066 C1070 1.356 . S
C1066 O1117 1.325 . S
C1067 N1068 1.279 . S
C1067 C1070 1.358 . S
C1067 H1124 0.930 . S
N1068 C1067 1.279 . S
N1068 C1071 1.314 . S
C1069 C1066 1.348 . S
C1069 C1071 1.353 . S
C1069 H1125 0.929 . S
C1070 C1066 1.356 . S
C1070 C1067 1.358 . S
C1070 H1126 0.930 . S
C1071 N1068 1.314 . S
C1071 C1069 1.353 . S
C1071 H1127 0.930 . S
C1072 N1073 1.314 . S
C1072 C1077 1.353 . S
C1072 H1078 0.930 1_554 S
N1073 Li1056 1.990 . S
N1073 C1072 1.314 . S
N1073 C1075 1.279 . S
C1074 C1075 1.358 . S
C1074 C1076 1.356 . S
C1074 H1128 0.930 . S
C1075 N1073 1.279 . S
C1075 C1074 1.358 . S
C1075 H1079 0.930 . S
C1076 C1074 1.356 . S
C1076 C1077 1.348 . S
C1077 C1072 1.353 . S
C1077 C1076 1.348 . S
C1077 H1129 0.929 1_554 S
H1078 C1072 0.930 1_556 S
H1079 C1075 0.930 . S
C1080 N1081 1.314 . S
C1080 C1082 1.353 . S
C1080 H1086 0.930 . S
N1081 Li1057 1.990 . S
N1081 C1080 1.314 . S
N1081 C1084 1.279 . S
C1082 C1080 1.353 . S
C1082 C1085 1.348 . S
C1082 H1130 0.929 . S
C1083 C1084 1.358 . S
C1083 C1085 1.356 . S
C1083 H1131 0.930 . S
C1084 N1081 1.279 . S
C1084 C1083 1.358 . S
C1084 H1087 0.930 . S
C1085 C1082 1.348 . S
C1085 C1083 1.356 . S
H1086 C1080 0.930 . S
H1087 C1084 0.930 . S
C1088 C1090 1.348 . S
C1088 C1091 1.356 . S
C1088 O1118 1.283 1_556 S
N1089 C1092 1.314 . S
N1089 C1093 1.279 . S
C1090 C1088 1.348 . S
C1090 C1092 1.353 . S
C1090 H1132 0.929 . S
C1091 C1088 1.356 . S
C1091 C1093 1.358 . S
C1091 H1133 0.930 1_556 S
C1092 N1089 1.314 . S
C1092 C1090 1.353 . S
C1092 H1134 0.930 . S
C1093 N1089 1.279 . S
C1093 C1091 1.358 . S
C1093 H1135 0.930 . S
C1094 C1095 1.348 . S
C1094 C1096 1.356 . S
C1094 O1119 1.325 . S
C1095 C1094 1.348 . S
C1095 C1097 1.353 . S
C1095 H1136 0.929 . S
C1096 C1094 1.356 . S
C1096 C1098 1.358 . S
C1096 H1137 0.930 . S
C1097 C1095 1.353 . S
C1097 N1099 1.314 . S
C1097 H1138 0.930 . S
C1098 C1096 1.358 . S
C1098 N1099 1.279 . S
C1098 H1139 0.930 . S
N1099 C1097 1.314 . S
N1099 C1098 1.279 . S
C1100 C1102 1.353 . S
C1100 N1103 1.314 . S
C1100 H1106 0.930 . S
C1101 N1103 1.279 . S
C1101 C1104 1.358 . S
C1101 H1107 0.930 1_554 S
C1102 C1100 1.353 . S
C1102 C1105 1.348 . S
C1102 H1140 0.929 . S
N1103 Li1058 1.990 . S
N1103 C1100 1.314 . S
N1103 C1101 1.279 . S
C1104 C1101 1.358 . S
C1104 C1105 1.356 . S
C1104 H1141 0.894 1_554 S
C1105 C1102 1.348 . S
C1105 C1104 1.356 . S
H1106 C1100 0.930 . S
H1107 C1101 0.930 1_556 S
C1108 N1109 1.314 . S
C1108 C1110 1.353 . S
C1108 H1114 0.930 . S
N1109 Li1059 1.990 1_556 S
N1109 C1108 1.314 . S
N1109 C1112 1.279 . S
C1110 C1108 1.353 . S
C1110 C1113 1.348 . S
C1110 H1142 0.929 . S
C1111 C1112 1.358 . S
C1111 C1113 1.356 . S
C1111 H1143 0.930 . S
C1112 N1109 1.279 . S
C1112 C1111 1.358 . S
C1112 H1115 0.930 . S
C1113 C1110 1.348 . S
C1113 C1111 1.356 . S
H1114 C1108 0.930 . S
H1115 C1112 0.930 . S
O1116 Li1056 1.956 . S
O1116 Li1057 1.970 . S
O1116 Li1058 1.961 . S
O1116 C1060 1.325 . S
O1117 Li1056 1.970 . S
O1117 Li1057 1.956 . S
O1117 Li1059 1.961 . S
O1117 C1066 1.325 . S
O1118 Li1056 2.002 . S
O1118 Li1058 1.993 . S
O1118 Li1059 1.976 . S
O1118 C1088 1.283 1_554 S
O1119 Li1057 1.961 . S
O1119 Li1058 1.970 . S
O1119 Li1059 1.956 . S
O1119 C1094 1.325 . S
H1120 C1062 0.929 . S
H1121 C1063 0.930 . S
H1122 C1064 0.930 . S
H1123 C1065 0.930 . S
H1124 C1067 0.930 . S
H1125 C1069 0.929 . S
H1126 C1070 0.930 . S
H1127 C1071 0.930 . S
H1128 C1074 0.930 . S
H1129 C1077 0.929 1_556 S
H1130 C1082 0.929 . S
H1131 C1083 0.930 . S
H1132 C1090 0.929 . S
H1133 C1091 0.930 1_554 S
H1134 C1092 0.930 . S
H1135 C1093 0.930 . S
H1136 C1095 0.929 . S
H1137 C1096 0.930 . S
H1138 C1097 0.930 . S
H1139 C1098 0.930 . S
H1140 C1102 0.929 . S
H1141 C1104 0.894 1_556 S
H1142 C1110 0.929 . S
H1143 C1111 0.930 . S
Li1144 N1161 1.990 . S
Li1144 O1204 1.956 . S
Li1144 O1205 1.970 . S
Li1144 O1206 1.961 . S
Li1145 N1169 1.990 . S
Li1145 O1204 1.970 . S
Li1145 O1205 1.956 . S
Li1145 O1207 1.961 . S
Li1146 N1191 1.990 . S
Li1146 O1204 1.961 . S
Li1146 O1206 1.956 . S
Li1146 O1207 1.970 . S
Li1147 N1197 1.990 . S
Li1147 O1205 1.961 . S
Li1147 O1206 1.970 . S
Li1147 O1207 1.956 . S
C1148 C1150 1.348 . S
C1148 C1151 1.356 . S
C1148 O1204 1.325 . S
N1149 C1152 1.314 . S
N1149 C1153 1.279 . S
C1150 C1148 1.348 . S
C1150 C1152 1.353 . S
C1150 H1208 0.929 . S
C1151 C1148 1.356 . S
C1151 C1153 1.358 . S
C1151 H1209 0.930 . S
C1152 N1149 1.314 . S
C1152 C1150 1.353 . S
C1152 H1210 0.930 . S
C1153 N1149 1.279 . S
C1153 C1151 1.358 . S
C1153 H1211 0.930 . S
C1154 C1157 1.348 . S
C1154 C1158 1.356 . S
C1154 O1205 1.325 . S
C1155 N1156 1.279 . S
C1155 C1158 1.358 . S
C1155 H1212 0.930 . S
N1156 C1155 1.279 . S
N1156 C1159 1.314 . S
C1157 C1154 1.348 . S
C1157 C1159 1.353 . S
C1157 H1213 0.929 . S
C1158 C1154 1.356 . S
C1158 C1155 1.358 . S
C1158 H1214 0.930 . S
C1159 N1156 1.314 . S
C1159 C1157 1.353 . S
C1159 H1215 0.930 . S
C1160 N1161 1.314 . S
C1160 C1165 1.353 . S
C1160 H1166 0.930 . S
N1161 Li1144 1.990 . S
N1161 C1160 1.314 . S
N1161 C1163 1.279 . S
C1162 C1163 1.358 . S
C1162 C1164 1.356 . S
C1162 H1216 0.930 . S
C1163 N1161 1.279 . S
C1163 C1162 1.358 . S
C1163 H1167 0.930 . S
C1164 C1162 1.356 . S
C1164 C1165 1.348 . S
C1165 C1160 1.353 . S
C1165 C1164 1.348 . S
C1165 H1217 0.929 . S
H1166 C1160 0.930 . S
H1167 C1163 0.930 . S
C1168 N1169 1.314 . S
C1168 C1170 1.353 . S
C1168 H1174 0.930 . S
N1169 Li1145 1.990 . S
N1169 C1168 1.314 . S
N1169 C1172 1.279 . S
C1170 C1168 1.353 . S
C1170 C1173 1.348 . S
C1170 H1218 0.929 . S
C1171 C1172 1.358 . S
C1171 C1173 1.356 . S
C1171 H1219 0.930 . S
C1172 N1169 1.279 . S
C1172 C1171 1.358 . S
C1172 H1175 0.930 . S
C1173 C1170 1.348 . S
C1173 C1171 1.356 . S
H1174 C1168 0.930 . S
H1175 C1172 0.930 . S
C1176 C1178 1.348 . S
C1176 C1179 1.356 . S
C1176 O1206 1.325 . S
N1177 C1180 1.314 . S
N1177 C1181 1.279 . S
C1178 C1176 1.348 . S
C1178 C1180 1.353 . S
C1178 H1220 0.929 . S
C1179 C1176 1.356 . S
C1179 C1181 1.358 . S
C1179 H1221 0.930 . S
C1180 N1177 1.314 . S
C1180 C1178 1.353 . S
C1180 H1222 0.930 . S
C1181 N1177 1.279 . S
C1181 C1179 1.358 . S
C1181 H1223 0.930 . S
C1182 C1183 1.348 1_554 S
C1182 C1184 1.356 . S
C1182 O1207 1.325 . S
C1183 C1182 1.348 1_556 S
C1183 C1185 1.353 . S
C1183 H1224 0.929 . S
C1184 C1182 1.356 . S
C1184 C1186 1.358 1_554 S
C1184 H1225 0.930 . S
C1185 C1183 1.353 . S
C1185 N1187 1.314 . S
C1185 H1226 0.930 . S
C1186 C1184 1.358 1_556 S
C1186 N1187 1.279 . S
C1186 H1227 0.930 . S
N1187 C1185 1.314 . S
N1187 C1186 1.279 . S
C1188 C1190 1.353 . S
C1188 N1191 1.314 1_556 S
C1188 H1194 0.929 . S
C1189 N1191 1.261 1_556 S
C1189 C1192 1.403 . S
C1189 H1195 0.903 1_556 S
C1190 C1188 1.353 . S
C1190 C1193 1.348 . S
C1190 H1228 0.929 . S
N1191 Li1146 1.990 . S
N1191 C1188 1.314 1_554 S
N1191 C1189 1.261 1_554 S
C1192 C1189 1.403 . S
C1192 C1193 1.356 . S
C1192 H1229 0.930 . S
C1193 C1190 1.348 . S
C1193 C1192 1.356 . S
H1194 C1188 0.929 . S
H1195 C1189 0.903 1_554 S
C1196 N1197 1.314 . S
C1196 C1198 1.353 . S
C1196 H1202 0.930 . S
N1197 Li1147 1.990 . S
N1197 C1196 1.314 . S
N1197 C1200 1.279 . S
C1198 C1196 1.353 . S
C1198 C1201 1.348 . S
C1198 H1230 0.929 . S
C1199 C1200 1.358 . S
C1199 C1201 1.356 . S
C1199 H1231 0.930 . S
C1200 N1197 1.279 . S
C1200 C1199 1.358 . S
C1200 H1203 0.930 . S
C1201 C1198 1.348 . S
C1201 C1199 1.356 . S
H1202 C1196 0.930 . S
H1203 C1200 0.930 . S
O1204 Li1144 1.956 . S
O1204 Li1145 1.970 . S
O1204 Li1146 1.961 . S
O1204 C1148 1.325 . S
O1205 Li1144 1.970 . S
O1205 Li1145 1.956 . S
O1205 Li1147 1.961 . S
O1205 C1154 1.325 . S
O1206 Li1144 1.961 . S
O1206 Li1146 1.956 . S
O1206 Li1147 1.970 . S
O1206 C1176 1.325 . S
O1207 Li1145 1.961 . S
O1207 Li1146 1.970 . S
O1207 Li1147 1.956 . S
O1207 C1182 1.325 . S
H1208 C1150 0.929 . S
H1209 C1151 0.930 . S
H1210 C1152 0.930 . S
H1211 C1153 0.930 . S
H1212 C1155 0.930 . S
H1213 C1157 0.929 . S
H1214 C1158 0.930 . S
H1215 C1159 0.930 . S
H1216 C1162 0.930 . S
H1217 C1165 0.929 . S
H1218 C1170 0.929 . S
H1219 C1171 0.930 . S
H1220 C1178 0.929 . S
H1221 C1179 0.930 . S
H1222 C1180 0.930 . S
H1223 C1181 0.930 . S
H1224 C1183 0.929 . S
H1225 C1184 0.930 . S
H1226 C1185 0.930 . S
H1227 C1186 0.930 . S
H1228 C1190 0.929 . S
H1229 C1192 0.930 . S
H1230 C1198 0.929 . S
H1231 C1199 0.930 . S
Li1232 N1249 1.990 . S
Li1232 O1292 1.956 . S
Li1232 O1293 1.970 . S
Li1232 O1294 1.961 . S
Li1233 N1257 1.990 . S
Li1233 O1292 1.970 . S
Li1233 O1293 1.956 . S
Li1233 O1295 1.961 . S
Li1234 N1279 1.990 . S
Li1234 O1292 1.961 . S
Li1234 O1294 1.956 . S
Li1234 O1295 1.970 . S
Li1235 N1285 1.990 . S
Li1235 O1293 1.961 . S
Li1235 O1294 1.970 . S
Li1235 O1295 1.956 . S
C1236 C1238 1.348 . S
C1236 C1239 1.356 . S
C1236 O1292 1.325 . S
N1237 C1240 1.314 . S
N1237 C1241 1.279 . S
C1238 C1236 1.348 . S
C1238 C1240 1.353 . S
C1238 H1296 0.929 . S
C1239 C1236 1.356 . S
C1239 C1241 1.358 . S
C1239 H1297 0.930 . S
C1240 N1237 1.314 . S
C1240 C1238 1.353 . S
C1240 H1298 0.930 . S
C1241 N1237 1.279 . S
C1241 C1239 1.358 . S
C1241 H1299 0.930 . S
C1242 C1245 1.348 . S
C1242 C1246 1.356 . S
C1242 O1293 1.325 . S
C1243 N1244 1.279 . S
C1243 C1246 1.358 . S
C1243 H1300 0.930 . S
N1244 C1243 1.279 . S
N1244 C1247 1.314 . S
C1245 C1242 1.348 . S
C1245 C1247 1.353 . S
C1245 H1301 0.929 . S
C1246 C1242 1.356 . S
C1246 C1243 1.358 . S
C1246 H1302 0.930 . S
C1247 N1244 1.314 . S
C1247 C1245 1.353 . S
C1247 H1303 0.930 . S
C1248 N1249 1.314 . S
C1248 C1253 1.353 . S
C1248 H1254 0.930 . S
N1249 Li1232 1.990 . S
N1249 C1248 1.314 . S
N1249 C1251 1.279 . S
C1250 C1251 1.358 . S
C1250 C1252 1.356 . S
C1250 H1304 0.930 . S
C1251 N1249 1.279 . S
C1251 C1250 1.358 . S
C1251 H1255 0.930 . S
C1252 C1250 1.356 . S
C1252 C1253 1.348 . S
C1253 C1248 1.353 . S
C1253 C1252 1.348 . S
C1253 H1305 0.929 . S
H1254 C1248 0.930 . S
H1255 C1251 0.930 . S
C1256 N1257 1.314 . S
C1256 C1258 1.353 . S
C1256 H1262 0.930 . S
N1257 Li1233 1.990 . S
N1257 C1256 1.314 . S
N1257 C1260 1.279 . S
C1258 C1256 1.353 . S
C1258 C1261 1.348 . S
C1258 H1306 0.929 . S
C1259 C1260 1.358 . S
C1259 C1261 1.356 . S
C1259 H1307 0.930 . S
C1260 N1257 1.279 . S
C1260 C1259 1.358 . S
C1260 H1263 0.930 . S
C1261 C1258 1.348 . S
C1261 C1259 1.356 . S
H1262 C1256 0.930 . S
H1263 C1260 0.930 . S
C1264 C1266 1.348 . S
C1264 C1267 1.356 . S
C1264 O1294 1.325 . S
N1265 C1268 1.314 . S
N1265 C1269 1.279 . S
C1266 C1264 1.348 . S
C1266 C1268 1.353 . S
C1266 H1308 0.929 . S
C1267 C1264 1.356 . S
C1267 C1269 1.358 . S
C1267 H1309 0.930 . S
C1268 N1265 1.314 . S
C1268 C1266 1.353 . S
C1268 H1310 0.930 . S
C1269 N1265 1.279 . S
C1269 C1267 1.358 . S
C1269 H1311 0.930 . S
C1270 C1271 1.348 . S
C1270 C1272 1.356 . S
C1270 O1295 1.325 . S
C1271 C1270 1.348 . S
C1271 C1273 1.353 . S
C1271 H1312 0.929 . S
C1272 C1270 1.356 . S
C1272 C1274 1.358 . S
C1272 H1313 0.930 . S
C1273 C1271 1.353 . S
C1273 N1275 1.314 . S
C1273 H1314 0.930 . S
C1274 C1272 1.358 . S
C1274 N1275 1.279 . S
C1274 H1315 0.930 . S
N1275 C1273 1.314 . S
N1275 C1274 1.279 . S
C1276 C1278 1.353 . S
C1276 N1279 1.314 . S
C1276 H1282 0.930 . S
C1277 N1279 1.279 . S
C1277 C1280 1.358 . S
C1277 H1283 0.930 . S
C1278 C1276 1.353 . S
C1278 C1281 1.348 . S
C1278 H1316 0.929 . S
N1279 Li1234 1.990 . S
N1279 C1276 1.314 . S
N1279 C1277 1.279 . S
C1280 C1277 1.358 . S
C1280 C1281 1.356 . S
C1280 H1317 0.930 . S
C1281 C1278 1.348 . S
C1281 C1280 1.356 . S
H1282 C1276 0.930 . S
H1283 C1277 0.930 . S
C1284 N1285 1.314 . S
C1284 C1286 1.353 . S
C1284 H1290 0.930 . S
N1285 Li1235 1.990 . S
N1285 C1284 1.314 . S
N1285 C1288 1.279 . S
C1286 C1284 1.353 . S
C1286 C1289 1.348 . S
C1286 H1318 0.929 . S
C1287 C1288 1.358 . S
C1287 C1289 1.356 . S
C1287 H1319 0.930 . S
C1288 N1285 1.279 . S
C1288 C1287 1.358 . S
C1288 H1291 0.930 . S
C1289 C1286 1.348 . S
C1289 C1287 1.356 . S
H1290 C1284 0.930 . S
H1291 C1288 0.930 . S
O1292 Li1232 1.956 . S
O1292 Li1233 1.970 . S
O1292 Li1234 1.961 . S
O1292 C1236 1.325 . S
O1293 Li1232 1.970 . S
O1293 Li1233 1.956 . S
O1293 Li1235 1.961 . S
O1293 C1242 1.325 . S
O1294 Li1232 1.961 . S
O1294 Li1234 1.956 . S
O1294 Li1235 1.970 . S
O1294 C1264 1.325 . S
O1295 Li1233 1.961 . S
O1295 Li1234 1.970 . S
O1295 Li1235 1.956 . S
O1295 C1270 1.325 . S
H1296 C1238 0.929 . S
H1297 C1239 0.930 . S
H1298 C1240 0.930 . S
H1299 C1241 0.930 . S
H1300 C1243 0.930 . S
H1301 C1245 0.929 . S
H1302 C1246 0.930 . S
H1303 C1247 0.930 . S
H1304 C1250 0.930 . S
H1305 C1253 0.929 . S
H1306 C1258 0.929 . S
H1307 C1259 0.930 . S
H1308 C1266 0.929 . S
H1309 C1267 0.930 . S
H1310 C1268 0.930 . S
H1311 C1269 0.930 . S
H1312 C1271 0.929 . S
H1313 C1272 0.930 . S
H1314 C1273 0.930 . S
H1315 C1274 0.930 . S
H1316 C1278 0.929 . S
H1317 C1280 0.930 . S
H1318 C1286 0.929 . S
H1319 C1287 0.930 . S
Li1320 N1337 1.990 . S
Li1320 O1380 1.956 . S
Li1320 O1381 1.970 . S
Li1320 O1382 1.961 . S
Li1321 N1345 1.990 . S
Li1321 O1380 1.970 . S
Li1321 O1381 1.956 . S
Li1321 O1383 1.961 . S
Li1322 N1367 1.990 . S
Li1322 O1380 1.961 . S
Li1322 O1382 1.956 . S
Li1322 O1383 1.970 . S
Li1323 N1373 1.990 . S
Li1323 O1381 1.961 . S
Li1323 O1382 1.970 . S
Li1323 O1383 1.956 . S
C1324 C1326 1.348 . S
C1324 C1327 1.356 . S
C1324 O1380 1.325 . S
N1325 C1328 1.314 . S
N1325 C1329 1.279 . S
C1326 C1324 1.348 . S
C1326 C1328 1.353 . S
C1326 H1384 0.929 . S
C1327 C1324 1.356 . S
C1327 C1329 1.358 . S
C1327 H1385 0.930 . S
C1328 N1325 1.314 . S
C1328 C1326 1.353 . S
C1328 H1386 0.930 . S
C1329 N1325 1.279 . S
C1329 C1327 1.358 . S
C1329 H1387 0.930 . S
C1330 C1333 1.348 . S
C1330 C1334 1.356 . S
C1330 O1381 1.325 . S
C1331 N1332 1.279 . S
C1331 C1334 1.358 . S
C1331 H1388 0.930 . S
N1332 C1331 1.279 . S
N1332 C1335 1.314 . S
C1333 C1330 1.348 . S
C1333 C1335 1.353 . S
C1333 H1389 0.929 . S
C1334 C1330 1.356 . S
C1334 C1331 1.358 . S
C1334 H1390 0.930 . S
C1335 N1332 1.314 . S
C1335 C1333 1.353 . S
C1335 H1391 0.930 . S
C1336 N1337 1.314 . S
C1336 C1341 1.353 . S
C1336 H1342 0.930 . S
N1337 Li1320 1.990 . S
N1337 C1336 1.314 . S
N1337 C1339 1.279 . S
C1338 C1339 1.358 . S
C1338 C1340 1.356 . S
C1338 H1392 0.930 . S
C1339 N1337 1.279 . S
C1339 C1338 1.358 . S
C1339 H1343 0.930 . S
C1340 C1338 1.356 . S
C1340 C1341 1.348 . S
C1341 C1336 1.353 . S
C1341 C1340 1.348 . S
C1341 H1393 0.929 . S
H1342 C1336 0.930 . S
H1343 C1339 0.930 . S
C1344 N1345 1.314 . S
C1344 C1346 1.353 . S
C1344 H1350 0.930 . S
N1345 Li1321 1.990 . S
N1345 C1344 1.314 . S
N1345 C1348 1.279 . S
C1346 C1344 1.353 . S
C1346 C1349 1.348 . S
C1346 H1394 0.929 . S
C1347 C1348 1.358 . S
C1347 C1349 1.356 . S
C1347 H1395 0.930 . S
C1348 N1345 1.279 . S
C1348 C1347 1.358 . S
C1348 H1351 0.930 . S
C1349 C1346 1.348 . S
C1349 C1347 1.356 . S
H1350 C1344 0.930 . S
H1351 C1348 0.930 . S
C1352 C1354 1.348 . S
C1352 C1355 1.356 . S
C1352 O1382 1.325 . S
N1353 C1356 1.314 . S
N1353 C1357 1.279 . S
C1354 C1352 1.348 . S
C1354 C1356 1.353 . S
C1354 H1396 0.929 . S
C1355 C1352 1.356 . S
C1355 C1357 1.358 . S
C1355 H1397 0.930 . S
C1356 N1353 1.314 . S
C1356 C1354 1.353 . S
C1356 H1398 0.930 . S
C1357 N1353 1.279 . S
C1357 C1355 1.358 . S
C1357 H1399 0.930 . S
C1358 C1359 1.348 . S
C1358 C1360 1.356 . S
C1358 O1383 1.325 . S
C1359 C1358 1.348 . S
C1359 C1361 1.353 . S
C1359 H1400 0.929 . S
C1360 C1358 1.356 . S
C1360 C1362 1.358 . S
C1360 H1401 0.930 . S
C1361 C1359 1.353 . S
C1361 N1363 1.314 . S
C1361 H1402 0.930 . S
C1362 C1360 1.358 . S
C1362 N1363 1.279 . S
C1362 H1403 0.930 . S
N1363 C1361 1.314 . S
N1363 C1362 1.279 . S
C1364 C1366 1.353 . S
C1364 N1367 1.314 . S
C1364 H1370 0.930 . S
C1365 N1367 1.279 . S
C1365 C1368 1.358 . S
C1365 H1371 0.930 . S
C1366 C1364 1.353 . S
C1366 C1369 1.348 . S
C1366 H1404 0.929 . S
N1367 Li1322 1.990 . S
N1367 C1364 1.314 . S
N1367 C1365 1.279 . S
C1368 C1365 1.358 . S
C1368 C1369 1.356 . S
C1368 H1405 0.930 . S
C1369 C1366 1.348 . S
C1369 C1368 1.356 . S
H1370 C1364 0.930 . S
H1371 C1365 0.930 . S
C1372 N1373 1.314 . S
C1372 C1374 1.353 . S
C1372 H1378 0.930 . S
N1373 Li1323 1.990 . S
N1373 C1372 1.314 . S
N1373 C1376 1.279 . S
C1374 C1372 1.353 . S
C1374 C1377 1.348 . S
C1374 H1406 0.929 . S
C1375 C1376 1.358 . S
C1375 C1377 1.356 . S
C1375 H1407 0.930 . S
C1376 N1373 1.279 . S
C1376 C1375 1.358 . S
C1376 H1379 0.930 . S
C1377 C1374 1.348 . S
C1377 C1375 1.356 . S
H1378 C1372 0.930 . S
H1379 C1376 0.930 . S
O1380 Li1320 1.956 . S
O1380 Li1321 1.970 . S
O1380 Li1322 1.961 . S
O1380 C1324 1.325 . S
O1381 Li1320 1.970 . S
O1381 Li1321 1.956 . S
O1381 Li1323 1.961 . S
O1381 C1330 1.325 . S
O1382 Li1320 1.961 . S
O1382 Li1322 1.956 . S
O1382 Li1323 1.970 . S
O1382 C1352 1.325 . S
O1383 Li1321 1.961 . S
O1383 Li1322 1.970 . S
O1383 Li1323 1.956 . S
O1383 C1358 1.325 . S
H1384 C1326 0.929 . S
H1385 C1327 0.930 . S
H1386 C1328 0.930 . S
H1387 C1329 0.930 . S
H1388 C1331 0.930 . S
H1389 C1333 0.929 . S
H1390 C1334 0.930 . S
H1391 C1335 0.930 . S
H1392 C1338 0.930 . S
H1393 C1341 0.929 . S
H1394 C1346 0.929 . S
H1395 C1347 0.930 . S
H1396 C1354 0.929 . S
H1397 C1355 0.930 . S
H1398 C1356 0.930 . S
H1399 C1357 0.930 . S
H1400 C1359 0.929 . S
H1401 C1360 0.930 . S
H1402 C1361 0.930 . S
H1403 C1362 0.930 . S
H1404 C1366 0.929 . S
H1405 C1368 0.930 . S
H1406 C1374 0.929 . S
H1407 C1375 0.930 . S
Li1408 N1425 1.990 . S
Li1408 O1468 1.956 1_545 S
Li1408 O1469 1.970 . S
Li1408 O1470 1.961 . S
Li1409 N1433 1.990 . S
Li1409 O1468 1.970 . S
Li1409 O1469 1.956 1_565 S
Li1409 O1471 1.961 1_565 S
Li1410 N1455 1.990 . S
Li1410 O1468 1.961 1_545 S
Li1410 O1470 1.956 . S
Li1410 O1471 1.970 . S
Li1411 N1461 1.990 . S
Li1411 O1469 1.961 . S
Li1411 O1470 1.970 . S
Li1411 O1471 1.956 . S
C1412 C1414 1.348 . S
C1412 C1415 1.356 . S
C1412 O1468 1.325 . S
N1413 C1416 1.314 . S
N1413 C1417 1.279 . S
C1414 C1412 1.348 . S
C1414 C1416 1.353 . S
C1414 H1472 0.929 . S
C1415 C1412 1.356 . S
C1415 C1417 1.358 . S
C1415 H1473 0.930 1_565 S
C1416 N1413 1.314 . S
C1416 C1414 1.353 . S
C1416 H1474 0.930 . S
C1417 N1413 1.279 . S
C1417 C1415 1.358 . S
C1417 H1475 0.930 . S
C1418 C1421 1.348 . S
C1418 C1422 1.356 . S
C1418 O1469 1.325 . S
C1419 N1420 1.279 . S
C1419 C1422 1.358 . S
C1419 H1476 0.930 . S
N1420 C1419 1.279 . S
N1420 C1423 1.314 . S
C1421 C1418 1.348 . S
C1421 C1423 1.353 . S
C1421 H1477 0.929 . S
C1422 C1418 1.356 . S
C1422 C1419 1.358 . S
C1422 H1478 0.930 . S
C1423 N1420 1.314 . S
C1423 C1421 1.353 . S
C1423 H1479 0.930 . S
C1424 N1425 1.314 . S
C1424 C1429 1.353 . S
C1424 H1430 0.930 . S
N1425 Li1408 1.990 . S
N1425 C1424 1.314 . S
N1425 C1427 1.279 . S
C1426 C1427 1.358 . S
C1426 C1428 1.356 . S
C1426 H1480 0.930 . S
C1427 N1425 1.279 . S
C1427 C1426 1.358 . S
C1427 H1431 0.930 1_545 S
C1428 C1426 1.356 . S
C1428 C1429 1.348 . S
C1429 C1424 1.353 . S
C1429 C1428 1.348 . S
C1429 H1481 0.929 . S
H1430 C1424 0.930 . S
H1431 C1427 0.930 1_565 S
C1432 N1433 1.314 . S
C1432 C1434 1.353 . S
C1432 H1438 0.930 . S
N1433 Li1409 1.990 . S
N1433 C1432 1.314 . S
N1433 C1436 1.279 . S
C1434 C1432 1.353 . S
C1434 C1437 1.348 . S
C1434 H1482 0.929 . S
C1435 C1436 1.358 . S
C1435 C1437 1.356 . S
C1435 H1483 0.930 . S
C1436 N1433 1.279 . S
C1436 C1435 1.358 . S
C1436 H1439 0.930 . S
C1437 C1434 1.348 . S
C1437 C1435 1.356 . S
H1438 C1432 0.930 . S
H1439 C1436 0.930 . S
C1440 C1442 1.348 . S
C1440 C1443 1.356 . S
C1440 O1470 1.325 . S
N1441 C1444 1.314 . S
N1441 C1445 1.279 . S
C1442 C1440 1.348 . S
C1442 C1444 1.353 . S
C1442 H1484 0.929 . S
C1443 C1440 1.356 . S
C1443 C1445 1.358 . S
C1443 H1485 0.930 . S
C1444 N1441 1.314 . S
C1444 C1442 1.353 . S
C1444 H1486 0.930 . S
C1445 N1441 1.279 . S
C1445 C1443 1.358 . S
C1445 H1487 0.930 . S
C1446 C1447 1.348 . S
C1446 C1448 1.356 . S
C1446 O1471 1.325 . S
C1447 C1446 1.348 . S
C1447 C1449 1.353 . S
C1447 H1488 0.929 . S
C1448 C1446 1.356 . S
C1448 C1450 1.353 . S
C1448 H1489 0.927 1_545 S
C1449 C1447 1.353 . S
C1449 N1451 1.314 . S
C1449 H1490 0.930 . S
C1450 C1448 1.353 . S
C1450 N1451 1.294 . S
C1450 H1491 0.924 1_545 S
N1451 C1449 1.314 . S
N1451 C1450 1.294 . S
C1452 C1454 1.353 . S
C1452 N1455 1.314 . S
C1452 H1458 0.930 1_545 S
C1453 N1455 1.279 . S
C1453 C1456 1.358 . S
C1453 H1459 0.930 . S
C1454 C1452 1.353 . S
C1454 C1457 1.348 . S
C1454 H1492 0.929 1_545 S
N1455 Li1410 1.990 . S
N1455 C1452 1.314 . S
N1455 C1453 1.279 . S
C1456 C1453 1.358 . S
C1456 C1457 1.356 . S
C1456 H1493 0.930 . S
C1457 C1454 1.348 . S
C1457 C1456 1.356 . S
H1458 C1452 0.930 1_565 S
H1459 C1453 0.930 . S
C1460 N1461 1.314 . S
C1460 C1462 1.353 . S
C1460 H1466 0.930 . S
N1461 Li1411 1.990 . S
N1461 C1460 1.314 . S
N1461 C1464 1.279 . S
C1462 C1460 1.353 . S
C1462 C1465 1.348 . S
C1462 H1494 0.929 . S
C1463 C1464 1.358 . S
C1463 C1465 1.356 . S
C1463 H1495 0.930 . S
C1464 N1461 1.279 . S
C1464 C1463 1.358 . S
C1464 H1467 0.930 . S
C1465 C1462 1.348 . S
C1465 C1463 1.356 . S
H1466 C1460 0.930 . S
H1467 C1464 0.930 . S
O1468 Li1408 1.956 1_565 S
O1468 Li1409 1.970 . S
O1468 Li1410 1.961 1_565 S
O1468 C1412 1.325 . S
O1469 Li1408 1.970 . S
O1469 Li1409 1.956 1_545 S
O1469 Li1411 1.961 . S
O1469 C1418 1.325 . S
O1470 Li1408 1.961 . S
O1470 Li1410 1.956 . S
O1470 Li1411 1.970 . S
O1470 C1440 1.325 . S
O1471 Li1409 1.961 1_545 S
O1471 Li1410 1.970 . S
O1471 Li1411 1.956 . S
O1471 C1446 1.325 . S
H1472 C1414 0.929 . S
H1473 C1415 0.930 1_545 S
H1474 C1416 0.930 . S
H1475 C1417 0.930 . S
H1476 C1419 0.930 . S
H1477 C1421 0.929 . S
H1478 C1422 0.930 . S
H1479 C1423 0.930 . S
H1480 C1426 0.930 . S
H1481 C1429 0.929 . S
H1482 C1434 0.929 . S
H1483 C1435 0.930 . S
H1484 C1442 0.929 . S
H1485 C1443 0.930 . S
H1486 C1444 0.930 . S
H1487 C1445 0.930 . S
H1488 C1447 0.929 . S
H1489 C1448 0.927 1_565 S
H1490 C1449 0.930 . S
H1491 C1450 0.924 1_565 S
H1492 C1454 0.929 1_565 S
H1493 C1456 0.930 . S
H1494 C1462 0.929 . S
H1495 C1463 0.930 . S
Li1496 N1513 1.990 . S
Li1496 O1556 1.956 . S
Li1496 O1557 1.970 . S
Li1496 O1558 1.961 . S
Li1497 N1521 1.990 . S
Li1497 O1556 1.970 . S
Li1497 O1557 1.956 . S
Li1497 O1559 1.961 . S
Li1498 N1543 1.990 . S
Li1498 O1556 1.961 . S
Li1498 O1558 1.956 . S
Li1498 O1559 1.970 . S
Li1499 N1549 1.990 . S
Li1499 O1557 1.961 . S
Li1499 O1558 1.970 . S
Li1499 O1559 1.956 . S
C1500 C1502 1.348 . S
C1500 C1503 1.356 . S
C1500 O1556 1.325 . S
N1501 C1504 1.314 . S
N1501 C1505 1.279 . S
C1502 C1500 1.348 . S
C1502 C1504 1.353 . S
C1502 H1560 0.929 . S
C1503 C1500 1.356 . S
C1503 C1505 1.358 . S
C1503 H1561 0.930 . S
C1504 N1501 1.314 . S
C1504 C1502 1.353 . S
C1504 H1562 0.930 . S
C1505 N1501 1.279 . S
C1505 C1503 1.358 . S
C1505 H1563 0.930 . S
C1506 C1509 1.348 . S
C1506 C1510 1.356 . S
C1506 O1557 1.325 . S
C1507 N1508 1.279 . S
C1507 C1510 1.358 . S
C1507 H1564 0.930 . S
N1508 C1507 1.279 . S
N1508 C1511 1.314 . S
C1509 C1506 1.348 . S
C1509 C1511 1.353 . S
C1509 H1565 0.929 . S
C1510 C1506 1.356 . S
C1510 C1507 1.358 . S
C1510 H1566 0.930 . S
C1511 N1508 1.314 . S
C1511 C1509 1.353 . S
C1511 H1567 0.930 . S
C1512 N1513 1.314 . S
C1512 C1517 1.353 . S
C1512 H1518 0.930 . S
N1513 Li1496 1.990 . S
N1513 C1512 1.314 . S
N1513 C1515 1.279 . S
C1514 C1515 1.358 . S
C1514 C1516 1.356 . S
C1514 H1568 0.930 . S
C1515 N1513 1.279 . S
C1515 C1514 1.358 . S
C1515 H1519 0.930 . S
C1516 C1514 1.356 . S
C1516 C1517 1.348 . S
C1517 C1512 1.353 . S
C1517 C1516 1.348 . S
C1517 H1569 0.929 . S
H1518 C1512 0.930 . S
H1519 C1515 0.930 . S
C1520 N1521 1.314 . S
C1520 C1522 1.353 . S
C1520 H1526 0.930 . S
N1521 Li1497 1.990 . S
N1521 C1520 1.314 . S
N1521 C1524 1.279 . S
C1522 C1520 1.353 . S
C1522 C1525 1.348 . S
C1522 H1570 0.929 . S
C1523 C1524 1.358 . S
C1523 C1525 1.356 . S
C1523 H1571 0.930 . S
C1524 N1521 1.279 . S
C1524 C1523 1.358 . S
C1524 H1527 0.930 . S
C1525 C1522 1.348 . S
C1525 C1523 1.356 . S
H1526 C1520 0.930 . S
H1527 C1524 0.930 . S
C1528 C1530 1.348 . S
C1528 C1531 1.356 . S
C1528 O1558 1.325 . S
N1529 C1532 1.314 . S
N1529 C1533 1.279 . S
C1530 C1528 1.348 . S
C1530 C1532 1.353 . S
C1530 H1572 0.929 . S
C1531 C1528 1.356 . S
C1531 C1533 1.358 . S
C1531 H1573 0.930 . S
C1532 N1529 1.314 . S
C1532 C1530 1.353 . S
C1532 H1574 0.930 . S
C1533 N1529 1.279 . S
C1533 C1531 1.358 . S
C1533 H1575 0.930 . S
C1534 C1535 1.348 . S
C1534 C1536 1.356 . S
C1534 O1559 1.325 . S
C1535 C1534 1.348 . S
C1535 C1537 1.353 . S
C1535 H1576 0.929 . S
C1536 C1534 1.356 . S
C1536 C1538 1.358 . S
C1536 H1577 0.930 . S
C1537 C1535 1.353 . S
C1537 N1539 1.314 . S
C1537 H1578 0.930 . S
C1538 C1536 1.358 . S
C1538 N1539 1.279 . S
C1538 H1579 0.930 . S
N1539 C1537 1.314 . S
N1539 C1538 1.279 . S
C1540 C1542 1.353 . S
C1540 N1543 1.314 . S
C1540 H1546 0.930 . S
C1541 N1543 1.279 . S
C1541 C1544 1.358 . S
C1541 H1547 0.930 . S
C1542 C1540 1.353 . S
C1542 C1545 1.348 . S
C1542 H1580 0.929 . S
N1543 Li1498 1.990 . S
N1543 C1540 1.314 . S
N1543 C1541 1.279 . S
C1544 C1541 1.358 . S
C1544 C1545 1.356 . S
C1544 H1581 0.930 . S
C1545 C1542 1.348 . S
C1545 C1544 1.356 . S
H1546 C1540 0.930 . S
H1547 C1541 0.930 . S
C1548 N1549 1.314 . S
C1548 C1550 1.353 . S
C1548 H1554 0.930 . S
N1549 Li1499 1.990 . S
N1549 C1548 1.314 . S
N1549 C1552 1.279 . S
C1550 C1548 1.353 . S
C1550 C1553 1.348 . S
C1550 H1582 0.929 . S
C1551 C1552 1.358 . S
C1551 C1553 1.356 . S
C1551 H1583 0.930 . S
C1552 N1549 1.279 . S
C1552 C1551 1.358 . S
C1552 H1555 0.930 . S
C1553 C1550 1.348 . S
C1553 C1551 1.356 . S
H1554 C1548 0.930 . S
H1555 C1552 0.930 . S
O1556 Li1496 1.956 . S
O1556 Li1497 1.970 . S
O1556 Li1498 1.961 . S
O1556 C1500 1.325 . S
O1557 Li1496 1.970 . S
O1557 Li1497 1.956 . S
O1557 Li1499 1.961 . S
O1557 C1506 1.325 . S
O1558 Li1496 1.961 . S
O1558 Li1498 1.956 . S
O1558 Li1499 1.970 . S
O1558 C1528 1.325 . S
O1559 Li1497 1.961 . S
O1559 Li1498 1.970 . S
O1559 Li1499 1.956 . S
O1559 C1534 1.325 . S
H1560 C1502 0.929 . S
H1561 C1503 0.930 . S
H1562 C1504 0.930 . S
H1563 C1505 0.930 . S
H1564 C1507 0.930 . S
H1565 C1509 0.929 . S
H1566 C1510 0.930 . S
H1567 C1511 0.930 . S
H1568 C1514 0.930 . S
H1569 C1517 0.929 . S
H1570 C1522 0.929 . S
H1571 C1523 0.930 . S
H1572 C1530 0.929 . S
H1573 C1531 0.930 . S
H1574 C1532 0.930 . S
H1575 C1533 0.930 . S
H1576 C1535 0.929 . S
H1577 C1536 0.930 . S
H1578 C1537 0.930 . S
H1579 C1538 0.930 . S
H1580 C1542 0.929 . S
H1581 C1544 0.930 . S
H1582 C1550 0.929 . S
H1583 C1551 0.930 . S
Li1584 N1601 1.990 . S
Li1584 O1644 1.956 . S
Li1584 O1645 1.970 . S
Li1584 O1646 1.961 . S
Li1585 N1609 1.990 . S
Li1585 O1644 1.970 . S
Li1585 O1645 1.956 . S
Li1585 O1647 1.961 . S
Li1586 N1631 1.990 . S
Li1586 O1644 1.961 . S
Li1586 O1646 1.956 . S
Li1586 O1647 1.970 . S
Li1587 N1637 1.990 . S
Li1587 O1645 1.961 . S
Li1587 O1646 1.970 . S
Li1587 O1647 1.956 . S
C1588 C1590 1.348 . S
C1588 C1591 1.356 . S
C1588 O1644 1.325 . S
N1589 C1592 1.314 . S
N1589 C1593 1.279 . S
C1590 C1588 1.348 . S
C1590 C1592 1.353 . S
C1590 H1648 0.929 . S
C1591 C1588 1.356 . S
C1591 C1593 1.358 . S
C1591 H1649 0.930 . S
C1592 N1589 1.314 . S
C1592 C1590 1.353 . S
C1592 H1650 0.930 . S
C1593 N1589 1.279 . S
C1593 C1591 1.358 . S
C1593 H1651 0.930 . S
C1594 C1597 1.348 . S
C1594 C1598 1.356 . S
C1594 O1645 1.325 . S
C1595 N1596 1.279 . S
C1595 C1598 1.358 . S
C1595 H1652 0.930 . S
N1596 C1595 1.279 . S
N1596 C1599 1.314 . S
C1597 C1594 1.348 . S
C1597 C1599 1.353 . S
C1597 H1653 0.929 . S
C1598 C1594 1.356 . S
C1598 C1595 1.358 . S
C1598 H1654 0.930 . S
C1599 N1596 1.314 . S
C1599 C1597 1.353 . S
C1599 H1655 0.930 . S
C1600 N1601 1.314 . S
C1600 C1605 1.353 . S
C1600 H1606 0.930 . S
N1601 Li1584 1.990 . S
N1601 C1600 1.314 . S
N1601 C1603 1.279 . S
C1602 C1603 1.358 . S
C1602 C1604 1.356 . S
C1602 H1656 0.930 . S
C1603 N1601 1.279 . S
C1603 C1602 1.358 . S
C1603 H1607 0.930 . S
C1604 C1602 1.356 . S
C1604 C1605 1.348 . S
C1605 C1600 1.353 . S
C1605 C1604 1.348 . S
C1605 H1657 0.929 . S
H1606 C1600 0.930 . S
H1607 C1603 0.930 . S
C1608 N1609 1.314 . S
C1608 C1610 1.353 . S
C1608 H1614 0.930 . S
N1609 Li1585 1.990 . S
N1609 C1608 1.314 . S
N1609 C1612 1.279 . S
C1610 C1608 1.353 . S
C1610 C1613 1.348 . S
C1610 H1658 0.929 . S
C1611 C1612 1.358 . S
C1611 C1613 1.356 . S
C1611 H1659 0.930 . S
C1612 N1609 1.279 . S
C1612 C1611 1.358 . S
C1612 H1615 0.930 . S
C1613 C1610 1.348 . S
C1613 C1611 1.356 . S
H1614 C1608 0.930 . S
H1615 C1612 0.930 . S
C1616 C1618 1.348 . S
C1616 C1619 1.356 . S
C1616 O1646 1.325 . S
N1617 C1620 1.314 . S
N1617 C1621 1.279 . S
C1618 C1616 1.348 . S
C1618 C1620 1.353 . S
C1618 H1660 0.929 . S
C1619 C1616 1.356 . S
C1619 C1621 1.358 . S
C1619 H1661 0.930 . S
C1620 N1617 1.314 . S
C1620 C1618 1.353 . S
C1620 H1662 0.930 . S
C1621 N1617 1.279 . S
C1621 C1619 1.358 . S
C1621 H1663 0.930 . S
C1622 C1623 1.348 . S
C1622 C1624 1.356 . S
C1622 O1647 1.325 . S
C1623 C1622 1.348 . S
C1623 C1625 1.353 . S
C1623 H1664 0.929 . S
C1624 C1622 1.356 . S
C1624 C1626 1.358 . S
C1624 H1665 0.930 . S
C1625 C1623 1.353 . S
C1625 N1627 1.314 . S
C1625 H1666 0.930 . S
C1626 C1624 1.358 . S
C1626 N1627 1.279 . S
C1626 H1667 0.930 . S
N1627 C1625 1.314 . S
N1627 C1626 1.279 . S
C1628 C1630 1.353 . S
C1628 N1631 1.314 . S
C1628 H1634 0.930 . S
C1629 N1631 1.279 . S
C1629 C1632 1.358 . S
C1629 H1635 0.930 . S
C1630 C1628 1.353 . S
C1630 C1633 1.348 . S
C1630 H1668 0.929 . S
N1631 Li1586 1.990 . S
N1631 C1628 1.314 . S
N1631 C1629 1.279 . S
C1632 C1629 1.358 . S
C1632 C1633 1.356 . S
C1632 H1669 0.930 . S
C1633 C1630 1.348 . S
C1633 C1632 1.356 . S
H1634 C1628 0.930 . S
H1635 C1629 0.930 . S
C1636 N1637 1.314 . S
C1636 C1638 1.353 . S
C1636 H1642 0.930 . S
N1637 Li1587 1.990 . S
N1637 C1636 1.314 . S
N1637 C1640 1.279 . S
C1638 C1636 1.353 . S
C1638 C1641 1.348 . S
C1638 H1670 0.929 . S
C1639 C1640 1.358 . S
C1639 C1641 1.356 . S
C1639 H1671 0.930 . S
C1640 N1637 1.279 . S
C1640 C1639 1.358 . S
C1640 H1643 0.930 . S
C1641 C1638 1.348 . S
C1641 C1639 1.356 . S
H1642 C1636 0.930 . S
H1643 C1640 0.930 . S
O1644 Li1584 1.956 . S
O1644 Li1585 1.970 . S
O1644 Li1586 1.961 . S
O1644 C1588 1.325 . S
O1645 Li1584 1.970 . S
O1645 Li1585 1.956 . S
O1645 Li1587 1.961 . S
O1645 C1594 1.325 . S
O1646 Li1584 1.961 . S
O1646 Li1586 1.956 . S
O1646 Li1587 1.970 . S
O1646 C1616 1.325 . S
O1647 Li1585 1.961 . S
O1647 Li1586 1.970 . S
O1647 Li1587 1.956 . S
O1647 C1622 1.325 . S
H1648 C1590 0.929 . S
H1649 C1591 0.930 . S
H1650 C1592 0.930 . S
H1651 C1593 0.930 . S
H1652 C1595 0.930 . S
H1653 C1597 0.929 . S
H1654 C1598 0.930 . S
H1655 C1599 0.930 . S
H1656 C1602 0.930 . S
H1657 C1605 0.929 . S
H1658 C1610 0.929 . S
H1659 C1611 0.930 . S
H1660 C1618 0.929 . S
H1661 C1619 0.930 . S
H1662 C1620 0.930 . S
H1663 C1621 0.930 . S
H1664 C1623 0.929 . S
H1665 C1624 0.930 . S
H1666 C1625 0.930 . S
H1667 C1626 0.930 . S
H1668 C1630 0.929 . S
H1669 C1632 0.930 . S
H1670 C1638 0.929 . S
H1671 C1639 0.930 . S
Li1672 N1689 1.990 . S
Li1672 O1732 1.956 . S
Li1672 O1733 1.970 . S
Li1672 O1734 1.961 1_545 S
Li1673 N1697 1.990 . S
Li1673 O1732 1.970 . S
Li1673 O1733 1.956 . S
Li1673 O1735 1.961 . S
Li1674 N1719 1.990 . S
Li1674 O1732 1.961 . S
Li1674 O1734 1.956 1_545 S
Li1674 O1735 1.970 . S
Li1675 N1725 1.990 . S
Li1675 O1733 1.961 1_565 S
Li1675 O1734 1.970 . S
Li1675 O1735 1.956 1_565 S
C1676 C1678 1.348 . S
C1676 C1679 1.356 . S
C1676 O1732 1.325 . S
N1677 C1680 1.314 . S
N1677 C1681 1.279 . S
C1678 C1676 1.348 . S
C1678 C1680 1.353 . S
C1678 H1736 0.929 . S
C1679 C1676 1.356 . S
C1679 C1681 1.358 . S
C1679 H1737 0.930 . S
C1680 N1677 1.314 . S
C1680 C1678 1.353 . S
C1680 H1738 0.930 . S
C1681 N1677 1.279 . S
C1681 C1679 1.358 . S
C1681 H1739 0.930 . S
C1682 C1685 1.348 . S
C1682 C1686 1.356 . S
C1682 O1733 1.325 . S
C1683 N1684 1.279 . S
C1683 C1686 1.358 . S
C1683 H1740 0.930 . S
N1684 C1683 1.279 . S
N1684 C1687 1.314 . S
C1685 C1682 1.348 . S
C1685 C1687 1.353 . S
C1685 H1741 0.929 . S
C1686 C1682 1.356 . S
C1686 C1683 1.358 . S
C1686 H1742 0.930 . S
C1687 N1684 1.314 . S
C1687 C1685 1.353 . S
C1687 H1743 0.930 . S
C1688 N1689 1.314 1_565 S
C1688 C1693 1.353 . S
C1688 H1694 0.930 . S
N1689 Li1672 1.990 . S
N1689 C1688 1.314 1_545 S
N1689 C1691 1.279 . S
C1690 C1691 1.358 . S
C1690 C1692 1.356 . S
C1690 H1744 0.930 . S
C1691 N1689 1.279 . S
C1691 C1690 1.358 . S
C1691 H1695 0.930 . S
C1692 C1690 1.356 . S
C1692 C1693 1.348 1_545 S
C1693 C1688 1.353 . S
C1693 C1692 1.348 1_565 S
C1693 H1745 0.929 . S
H1694 C1688 0.930 . S
H1695 C1691 0.930 . S
C1696 N1697 1.314 . S
C1696 C1698 1.353 . S
C1696 H1702 0.930 . S
N1697 Li1673 1.990 . S
N1697 C1696 1.314 . S
N1697 C1700 1.279 . S
C1698 C1696 1.353 . S
C1698 C1701 1.348 . S
C1698 H1746 0.929 . S
C1699 C1700 1.358 . S
C1699 C1701 1.356 . S
C1699 H1747 0.930 . S
C1700 N1697 1.279 . S
C1700 C1699 1.358 . S
C1700 H1703 0.930 . S
C1701 C1698 1.348 . S
C1701 C1699 1.356 . S
H1702 C1696 0.930 . S
H1703 C1700 0.930 . S
C1704 C1706 1.348 . S
C1704 C1707 1.356 . S
C1704 O1734 1.325 . S
N1705 C1708 1.314 . S
N1705 C1709 1.279 . S
C1706 C1704 1.348 . S
C1706 C1708 1.353 . S
C1706 H1748 0.929 . S
C1707 C1704 1.356 . S
C1707 C1709 1.358 . S
C1707 H1749 0.930 . S
C1708 N1705 1.314 . S
C1708 C1706 1.353 . S
C1708 H1750 0.930 . S
C1709 N1705 1.279 . S
C1709 C1707 1.358 . S
C1709 H1751 0.930 . S
C1710 C1711 1.348 . S
C1710 C1712 1.356 . S
C1710 O1735 1.325 . S
C1711 C1710 1.348 . S
C1711 C1713 1.353 . S
C1711 H1752 0.929 . S
C1712 C1710 1.356 . S
C1712 C1714 1.358 . S
C1712 H1753 0.930 . S
C1713 C1711 1.353 . S
C1713 N1715 1.314 . S
C1713 H1754 0.930 . S
C1714 C1712 1.358 . S
C1714 N1715 1.279 . S
C1714 H1755 0.930 . S
N1715 C1713 1.314 . S
N1715 C1714 1.279 . S
C1716 C1718 1.353 . S
C1716 N1719 1.314 . S
C1716 H1722 0.930 . S
C1717 N1719 1.279 1_565 S
C1717 C1720 1.358 . S
C1717 H1723 0.930 . S
C1718 C1716 1.353 . S
C1718 C1721 1.402 . S
C1718 H1756 0.929 . S
N1719 Li1674 1.990 . S
N1719 C1716 1.314 . S
N1719 C1717 1.279 1_545 S
C1720 C1717 1.358 . S
C1720 C1721 1.298 1_565 S
C1720 H1757 0.930 . S
C1721 C1718 1.402 . S
C1721 C1720 1.298 1_545 S
H1722 C1716 0.930 . S
H1723 C1717 0.930 . S
C1724 N1725 1.314 . S
C1724 C1726 1.353 . S
C1724 H1730 0.930 . S
N1725 Li1675 1.990 . S
N1725 C1724 1.314 . S
N1725 C1728 1.279 . S
C1726 C1724 1.353 . S
C1726 C1729 1.348 . S
C1726 H1758 0.929 . S
C1727 C1728 1.358 . S
C1727 C1729 1.356 . S
C1727 H1759 0.930 . S
C1728 N1725 1.279 . S
C1728 C1727 1.358 . S
C1728 H1731 0.930 . S
C1729 C1726 1.348 . S
C1729 C1727 1.356 . S
H1730 C1724 0.930 . S
H1731 C1728 0.930 . S
O1732 Li1672 1.956 . S
O1732 Li1673 1.970 . S
O1732 Li1674 1.961 . S
O1732 C1676 1.325 . S
O1733 Li1672 1.970 . S
O1733 Li1673 1.956 . S
O1733 Li1675 1.961 1_545 S
O1733 C1682 1.325 . S
O1734 Li1672 1.961 1_565 S
O1734 Li1674 1.956 1_565 S
O1734 Li1675 1.970 . S
O1734 C1704 1.325 . S
O1735 Li1673 1.961 . S
O1735 Li1674 1.970 . S
O1735 Li1675 1.956 1_545 S
O1735 C1710 1.325 . S
H1736 C1678 0.929 . S
H1737 C1679 0.930 . S
H1738 C1680 0.930 . S
H1739 C1681 0.930 . S
H1740 C1683 0.930 . S
H1741 C1685 0.929 . S
H1742 C1686 0.930 . S
H1743 C1687 0.930 . S
H1744 C1690 0.930 . S
H1745 C1693 0.929 . S
H1746 C1698 0.929 . S
H1747 C1699 0.930 . S
H1748 C1706 0.929 . S
H1749 C1707 0.930 . S
H1750 C1708 0.930 . S
H1751 C1709 0.930 . S
H1752 C1711 0.929 . S
H1753 C1712 0.930 . S
H1754 C1713 0.930 . S
H1755 C1714 0.930 . S
H1756 C1718 0.929 . S
H1757 C1720 0.930 . S
H1758 C1726 0.929 . S
H1759 C1727 0.930 . S
Li1760 N1777 1.990 . S
Li1760 O1820 1.956 . S
Li1760 O1821 1.970 . S
Li1760 O1822 1.961 . S
Li1761 N1785 1.990 . S
Li1761 O1820 1.970 . S
Li1761 O1821 1.956 . S
Li1761 O1823 1.961 . S
Li1762 N1807 1.990 1_554 S
Li1762 O1820 1.961 . S
Li1762 O1822 1.956 . S
Li1762 O1823 1.970 . S
Li1763 N1813 1.990 . S
Li1763 O1821 1.961 . S
Li1763 O1822 1.970 . S
Li1763 O1823 1.956 . S
C1764 C1766 1.348 . S
C1764 C1767 1.356 . S
C1764 O1820 1.325 . S
N1765 C1768 1.314 . S
N1765 C1769 1.279 . S
C1766 C1764 1.348 . S
C1766 C1768 1.353 . S
C1766 H1824 0.929 . S
C1767 C1764 1.356 . S
C1767 C1769 1.358 . S
C1767 H1825 0.930 . S
C1768 N1765 1.314 . S
C1768 C1766 1.353 . S
C1768 H1826 0.930 . S
C1769 N1765 1.279 . S
C1769 C1767 1.358 . S
C1769 H1827 0.930 . S
C1770 C1773 1.348 . S
C1770 C1774 1.356 . S
C1770 O1821 1.325 . S
C1771 N1772 1.279 . S
C1771 C1774 1.358 . S
C1771 H1828 0.930 . S
N1772 C1771 1.279 . S
N1772 C1775 1.314 . S
C1773 C1770 1.348 . S
C1773 C1775 1.353 . S
C1773 H1829 0.929 . S
C1774 C1770 1.356 . S
C1774 C1771 1.358 . S
C1774 H1830 0.930 . S
C1775 N1772 1.314 . S
C1775 C1773 1.353 . S
C1775 H1831 0.930 . S
C1776 N1777 1.314 . S
C1776 C1781 1.353 . S
C1776 H1782 0.930 . S
N1777 Li1760 1.990 . S
N1777 C1776 1.314 . S
N1777 C1779 1.279 . S
C1778 C1779 1.358 . S
C1778 C1780 1.356 . S
C1778 H1832 0.930 . S
C1779 N1777 1.279 . S
C1779 C1778 1.358 . S
C1779 H1783 0.930 . S
C1780 C1778 1.356 . S
C1780 C1781 1.348 . S
C1781 C1776 1.353 . S
C1781 C1780 1.348 . S
C1781 H1833 0.929 . S
H1782 C1776 0.930 . S
H1783 C1779 0.930 . S
C1784 N1785 1.314 . S
C1784 C1786 1.353 . S
C1784 H1790 0.888 1_554 S
N1785 Li1761 1.990 . S
N1785 C1784 1.314 . S
N1785 C1788 1.279 . S
C1786 C1784 1.353 . S
C1786 C1789 1.348 . S
C1786 H1834 0.929 1_554 S
C1787 C1788 1.358 . S
C1787 C1789 1.356 . S
C1787 H1835 0.930 . S
C1788 N1785 1.279 . S
C1788 C1787 1.358 . S
C1788 H1791 0.930 . S
C1789 C1786 1.348 . S
C1789 C1787 1.356 . S
H1790 C1784 0.888 1_556 S
H1791 C1788 0.930 . S
C1792 C1794 1.348 . S
C1792 C1795 1.356 . S
C1792 O1822 1.325 . S
N1793 C1796 1.314 . S
N1793 C1797 1.279 . S
C1794 C1792 1.348 . S
C1794 C1796 1.353 . S
C1794 H1836 0.929 . S
C1795 C1792 1.356 . S
C1795 C1797 1.358 . S
C1795 H1837 0.930 . S
C1796 N1793 1.314 . S
C1796 C1794 1.353 . S
C1796 H1838 0.930 . S
C1797 N1793 1.279 . S
C1797 C1795 1.358 . S
C1797 H1839 0.930 . S
C1798 C1799 1.348 . S
C1798 C1800 1.356 . S
C1798 O1823 1.325 1_556 S
C1799 C1798 1.348 . S
C1799 C1801 1.353 . S
C1799 H1840 0.929 . S
C1800 C1798 1.356 . S
C1800 C1802 1.358 . S
C1800 H1841 0.988 . S
C1801 C1799 1.353 . S
C1801 N1803 1.314 . S
C1801 H1842 0.930 . S
C1802 C1800 1.358 . S
C1802 N1803 1.279 . S
C1802 H1843 0.930 . S
N1803 C1801 1.314 . S
N1803 C1802 1.279 . S
C1804 C1806 1.353 . S
C1804 N1807 1.314 . S
C1804 H1810 0.930 . S
C1805 N1807 1.279 . S
C1805 C1808 1.358 . S
C1805 H1811 0.930 . S
C1806 C1804 1.353 . S
C1806 C1809 1.348 . S
C1806 H1844 0.929 . S
N1807 Li1762 1.990 1_556 S
N1807 C1804 1.314 . S
N1807 C1805 1.279 . S
C1808 C1805 1.358 . S
C1808 C1809 1.356 . S
C1808 H1845 0.930 . S
C1809 C1806 1.348 . S
C1809 C1808 1.356 . S
H1810 C1804 0.930 . S
H1811 C1805 0.930 . S
C1812 N1813 1.314 . S
C1812 C1814 1.353 . S
C1812 H1818 0.930 . S
N1813 Li1763 1.990 . S
N1813 C1812 1.314 . S
N1813 C1816 1.279 . S
C1814 C1812 1.353 . S
C1814 C1817 1.348 . S
C1814 H1846 0.929 . S
C1815 C1816 1.358 . S
C1815 C1817 1.356 . S
C1815 H1847 0.930 1_554 S
C1816 N1813 1.279 . S
C1816 C1815 1.358 . S
C1816 H1819 0.930 1_554 S
C1817 C1814 1.348 . S
C1817 C1815 1.356 . S
H1818 C1812 0.930 . S
H1819 C1816 0.930 1_556 S
O1820 Li1760 1.956 . S
O1820 Li1761 1.970 . S
O1820 Li1762 1.961 . S
O1820 C1764 1.325 . S
O1821 Li1760 1.970 . S
O1821 Li1761 1.956 . S
O1821 Li1763 1.961 . S
O1821 C1770 1.325 . S
O1822 Li1760 1.961 . S
O1822 Li1762 1.956 . S
O1822 Li1763 1.970 . S
O1822 C1792 1.325 . S
O1823 Li1761 1.961 . S
O1823 Li1762 1.970 . S
O1823 Li1763 1.956 . S
O1823 C1798 1.325 1_554 S
H1824 C1766 0.929 . S
H1825 C1767 0.930 . S
H1826 C1768 0.930 . S
H1827 C1769 0.930 . S
H1828 C1771 0.930 . S
H1829 C1773 0.929 . S
H1830 C1774 0.930 . S
H1831 C1775 0.930 . S
H1832 C1778 0.930 . S
H1833 C1781 0.929 . S
H1834 C1786 0.929 1_556 S
H1835 C1787 0.930 . S
H1836 C1794 0.929 . S
H1837 C1795 0.930 . S
H1838 C1796 0.930 . S
H1839 C1797 0.930 . S
H1840 C1799 0.929 . S
H1841 C1800 0.988 . S
H1842 C1801 0.930 . S
H1843 C1802 0.930 . S
H1844 C1806 0.929 . S
H1845 C1808 0.930 . S
H1846 C1814 0.929 . S
H1847 C1815 0.930 1_556 S
Li1848 N1865 1.990 . S
Li1848 O1908 1.956 . S
Li1848 O1909 1.970 . S
Li1848 O1910 1.961 . S
Li1849 N1873 1.990 . S
Li1849 O1908 1.970 . S
Li1849 O1909 1.956 . S
Li1849 O1911 1.961 . S
Li1850 N1895 1.990 . S
Li1850 O1908 1.961 . S
Li1850 O1910 1.956 . S
Li1850 O1911 1.970 . S
Li1851 N1901 1.990 . S
Li1851 O1909 1.961 . S
Li1851 O1910 1.970 . S
Li1851 O1911 1.956 . S
C1852 C1854 1.348 . S
C1852 C1855 1.356 . S
C1852 O1908 1.325 . S
N1853 C1856 1.314 . S
N1853 C1857 1.279 . S
C1854 C1852 1.348 . S
C1854 C1856 1.353 . S
C1854 H1912 0.929 . S
C1855 C1852 1.356 . S
C1855 C1857 1.358 . S
C1855 H1913 0.930 . S
C1856 N1853 1.314 . S
C1856 C1854 1.353 . S
C1856 H1914 0.930 . S
C1857 N1853 1.279 . S
C1857 C1855 1.358 . S
C1857 H1915 0.930 . S
C1858 C1861 1.348 . S
C1858 C1862 1.356 . S
C1858 O1909 1.325 . S
C1859 N1860 1.279 . S
C1859 C1862 1.358 . S
C1859 H1916 0.930 . S
N1860 C1859 1.279 . S
N1860 C1863 1.314 . S
C1861 C1858 1.348 . S
C1861 C1863 1.353 . S
C1861 H1917 0.929 . S
C1862 C1858 1.356 . S
C1862 C1859 1.358 . S
C1862 H1918 0.930 . S
C1863 N1860 1.314 . S
C1863 C1861 1.353 . S
C1863 H1919 0.930 . S
C1864 N1865 1.314 . S
C1864 C1869 1.353 . S
C1864 H1870 0.930 . S
N1865 Li1848 1.990 . S
N1865 C1864 1.314 . S
N1865 C1867 1.279 . S
C1866 C1867 1.358 . S
C1866 C1868 1.356 . S
C1866 H1920 0.930 . S
C1867 N1865 1.279 . S
C1867 C1866 1.358 . S
C1867 H1871 0.930 . S
C1868 C1866 1.356 . S
C1868 C1869 1.348 . S
C1869 C1864 1.353 . S
C1869 C1868 1.348 . S
C1869 H1921 0.929 . S
H1870 C1864 0.930 . S
H1871 C1867 0.930 . S
C1872 N1873 1.314 . S
C1872 C1874 1.353 . S
C1872 H1878 0.930 . S
N1873 Li1849 1.990 . S
N1873 C1872 1.314 . S
N1873 C1876 1.279 . S
C1874 C1872 1.353 . S
C1874 C1877 1.348 . S
C1874 H1922 0.929 . S
C1875 C1876 1.358 . S
C1875 C1877 1.356 . S
C1875 H1923 0.930 . S
C1876 N1873 1.279 . S
C1876 C1875 1.358 . S
C1876 H1879 0.930 . S
C1877 C1874 1.348 . S
C1877 C1875 1.356 . S
H1878 C1872 0.930 . S
H1879 C1876 0.930 . S
C1880 C1882 1.348 . S
C1880 C1883 1.356 . S
C1880 O1910 1.325 . S
N1881 C1884 1.314 . S
N1881 C1885 1.279 . S
C1882 C1880 1.348 . S
C1882 C1884 1.353 . S
C1882 H1924 0.929 . S
C1883 C1880 1.356 . S
C1883 C1885 1.358 . S
C1883 H1925 0.930 . S
C1884 N1881 1.314 . S
C1884 C1882 1.353 . S
C1884 H1926 0.930 . S
C1885 N1881 1.279 . S
C1885 C1883 1.358 . S
C1885 H1927 0.930 . S
C1886 C1887 1.348 . S
C1886 C1888 1.356 . S
C1886 O1911 1.325 . S
C1887 C1886 1.348 . S
C1887 C1889 1.353 . S
C1887 H1928 0.929 . S
C1888 C1886 1.356 . S
C1888 C1890 1.358 . S
C1888 H1929 0.930 . S
C1889 C1887 1.353 . S
C1889 N1891 1.314 . S
C1889 H1930 0.930 . S
C1890 C1888 1.358 . S
C1890 N1891 1.279 . S
C1890 H1931 0.930 . S
N1891 C1889 1.314 . S
N1891 C1890 1.279 . S
C1892 C1894 1.353 . S
C1892 N1895 1.314 . S
C1892 H1898 0.930 . S
C1893 N1895 1.279 . S
C1893 C1896 1.358 . S
C1893 H1899 0.930 . S
C1894 C1892 1.353 . S
C1894 C1897 1.348 . S
C1894 H1932 0.929 . S
N1895 Li1850 1.990 . S
N1895 C1892 1.314 . S
N1895 C1893 1.279 . S
C1896 C1893 1.358 . S
C1896 C1897 1.356 . S
C1896 H1933 0.930 . S
C1897 C1894 1.348 . S
C1897 C1896 1.356 . S
H1898 C1892 0.930 . S
H1899 C1893 0.930 . S
C1900 N1901 1.314 . S
C1900 C1902 1.353 . S
C1900 H1906 0.930 . S
N1901 Li1851 1.990 . S
N1901 C1900 1.314 . S
N1901 C1904 1.279 . S
C1902 C1900 1.353 . S
C1902 C1905 1.348 . S
C1902 H1934 0.929 . S
C1903 C1904 1.358 . S
C1903 C1905 1.356 . S
C1903 H1935 0.930 . S
C1904 N1901 1.279 . S
C1904 C1903 1.358 . S
C1904 H1907 0.930 . S
C1905 C1902 1.348 . S
C1905 C1903 1.356 . S
H1906 C1900 0.930 . S
H1907 C1904 0.930 . S
O1908 Li1848 1.956 . S
O1908 Li1849 1.970 . S
O1908 Li1850 1.961 . S
O1908 C1852 1.325 . S
O1909 Li1848 1.970 . S
O1909 Li1849 1.956 . S
O1909 Li1851 1.961 . S
O1909 C1858 1.325 . S
O1910 Li1848 1.961 . S
O1910 Li1850 1.956 . S
O1910 Li1851 1.970 . S
O1910 C1880 1.325 . S
O1911 Li1849 1.961 . S
O1911 Li1850 1.970 . S
O1911 Li1851 1.956 . S
O1911 C1886 1.325 . S
H1912 C1854 0.929 . S
H1913 C1855 0.930 . S
H1914 C1856 0.930 . S
H1915 C1857 0.930 . S
H1916 C1859 0.930 . S
H1917 C1861 0.929 . S
H1918 C1862 0.930 . S
H1919 C1863 0.930 . S
H1920 C1866 0.930 . S
H1921 C1869 0.929 . S
H1922 C1874 0.929 . S
H1923 C1875 0.930 . S
H1924 C1882 0.929 . S
H1925 C1883 0.930 . S
H1926 C1884 0.930 . S
H1927 C1885 0.930 . S
H1928 C1887 0.929 . S
H1929 C1888 0.930 . S
H1930 C1889 0.930 . S
H1931 C1890 0.930 . S
H1932 C1894 0.929 . S
H1933 C1896 0.930 . S
H1934 C1902 0.929 . S
H1935 C1903 0.930 . S
Li1936 N1953 1.990 . S
Li1936 O1996 1.956 . S
Li1936 O1997 1.970 . S
Li1936 O1998 1.961 . S
Li1937 N1961 1.990 . S
Li1937 O1996 1.970 . S
Li1937 O1997 1.956 . S
Li1937 O1999 1.961 . S
Li1938 N1983 1.990 . S
Li1938 O1996 1.961 . S
Li1938 O1998 1.956 . S
Li1938 O1999 1.970 . S
Li1939 N1989 1.990 . S
Li1939 O1997 1.961 . S
Li1939 O1998 1.970 . S
Li1939 O1999 1.956 . S
C1940 C1942 1.348 . S
C1940 C1943 1.356 . S
C1940 O1996 1.325 . S
N1941 C1944 1.314 . S
N1941 C1945 1.279 . S
C1942 C1940 1.348 . S
C1942 C1944 1.353 . S
C1942 H2000 0.929 . S
C1943 C1940 1.356 . S
C1943 C1945 1.358 . S
C1943 H2001 0.930 . S
C1944 N1941 1.314 . S
C1944 C1942 1.353 . S
C1944 H2002 0.930 . S
C1945 N1941 1.279 . S
C1945 C1943 1.358 . S
C1945 H2003 0.930 . S
C1946 C1949 1.348 . S
C1946 C1950 1.356 . S
C1946 O1997 1.325 . S
C1947 N1948 1.279 . S
C1947 C1950 1.358 . S
C1947 H2004 0.930 . S
N1948 C1947 1.279 . S
N1948 C1951 1.314 . S
C1949 C1946 1.348 . S
C1949 C1951 1.353 . S
C1949 H2005 0.929 . S
C1950 C1946 1.356 . S
C1950 C1947 1.358 . S
C1950 H2006 0.930 . S
C1951 N1948 1.314 . S
C1951 C1949 1.353 . S
C1951 H2007 0.930 . S
C1952 N1953 1.314 . S
C1952 C1957 1.353 . S
C1952 H1958 0.930 . S
N1953 Li1936 1.990 . S
N1953 C1952 1.314 . S
N1953 C1955 1.279 . S
C1954 C1955 1.358 . S
C1954 C1956 1.356 . S
C1954 H2008 0.930 . S
C1955 N1953 1.279 . S
C1955 C1954 1.358 . S
C1955 H1959 0.930 . S
C1956 C1954 1.356 . S
C1956 C1957 1.348 . S
C1957 C1952 1.353 . S
C1957 C1956 1.348 . S
C1957 H2009 0.929 . S
H1958 C1952 0.930 . S
H1959 C1955 0.930 . S
C1960 N1961 1.314 . S
C1960 C1962 1.353 . S
C1960 H1966 0.930 . S
N1961 Li1937 1.990 . S
N1961 C1960 1.314 . S
N1961 C1964 1.279 . S
C1962 C1960 1.353 . S
C1962 C1965 1.348 . S
C1962 H2010 0.929 . S
C1963 C1964 1.358 . S
C1963 C1965 1.356 . S
C1963 H2011 0.930 . S
C1964 N1961 1.279 . S
C1964 C1963 1.358 . S
C1964 H1967 0.930 . S
C1965 C1962 1.348 . S
C1965 C1963 1.356 . S
H1966 C1960 0.930 . S
H1967 C1964 0.930 . S
C1968 C1970 1.348 . S
C1968 C1971 1.356 . S
C1968 O1998 1.325 . S
N1969 C1972 1.314 . S
N1969 C1973 1.279 . S
C1970 C1968 1.348 . S
C1970 C1972 1.353 . S
C1970 H2012 0.929 . S
C1971 C1968 1.356 . S
C1971 C1973 1.358 . S
C1971 H2013 0.930 . S
C1972 N1969 1.314 . S
C1972 C1970 1.353 . S
C1972 H2014 0.930 . S
C1973 N1969 1.279 . S
C1973 C1971 1.358 . S
C1973 H2015 0.930 . S
C1974 C1975 1.348 . S
C1974 C1976 1.356 . S
C1974 O1999 1.325 . S
C1975 C1974 1.348 . S
C1975 C1977 1.353 . S
C1975 H2016 0.929 . S
C1976 C1974 1.356 . S
C1976 C1978 1.358 . S
C1976 H2017 0.930 . S
C1977 C1975 1.353 . S
C1977 N1979 1.314 . S
C1977 H2018 0.930 . S
C1978 C1976 1.358 . S
C1978 N1979 1.279 . S
C1978 H2019 0.930 . S
N1979 C1977 1.314 . S
N1979 C1978 1.279 . S
C1980 C1982 1.353 . S
C1980 N1983 1.314 . S
C1980 H1986 0.930 . S
C1981 N1983 1.279 . S
C1981 C1984 1.358 . S
C1981 H1987 0.930 . S
C1982 C1980 1.353 . S
C1982 C1985 1.348 . S
C1982 H2020 0.929 . S
N1983 Li1938 1.990 . S
N1983 C1980 1.314 . S
N1983 C1981 1.279 . S
C1984 C1981 1.358 . S
C1984 C1985 1.356 . S
C1984 H2021 0.930 . S
C1985 C1982 1.348 . S
C1985 C1984 1.356 . S
H1986 C1980 0.930 . S
H1987 C1981 0.930 . S
C1988 N1989 1.314 . S
C1988 C1990 1.353 . S
C1988 H1994 0.930 . S
N1989 Li1939 1.990 . S
N1989 C1988 1.314 . S
N1989 C1992 1.279 . S
C1990 C1988 1.353 . S
C1990 C1993 1.348 . S
C1990 H2022 0.929 . S
C1991 C1992 1.358 . S
C1991 C1993 1.356 . S
C1991 H2023 0.930 . S
C1992 N1989 1.279 . S
C1992 C1991 1.358 . S
C1992 H1995 0.930 . S
C1993 C1990 1.348 . S
C1993 C1991 1.356 . S
H1994 C1988 0.930 . S
H1995 C1992 0.930 . S
O1996 Li1936 1.956 . S
O1996 Li1937 1.970 . S
O1996 Li1938 1.961 . S
O1996 C1940 1.325 . S
O1997 Li1936 1.970 . S
O1997 Li1937 1.956 . S
O1997 Li1939 1.961 . S
O1997 C1946 1.325 . S
O1998 Li1936 1.961 . S
O1998 Li1938 1.956 . S
O1998 Li1939 1.970 . S
O1998 C1968 1.325 . S
O1999 Li1937 1.961 . S
O1999 Li1938 1.970 . S
O1999 Li1939 1.956 . S
O1999 C1974 1.325 . S
H2000 C1942 0.929 . S
H2001 C1943 0.930 . S
H2002 C1944 0.930 . S
H2003 C1945 0.930 . S
H2004 C1947 0.930 . S
H2005 C1949 0.929 . S
H2006 C1950 0.930 . S
H2007 C1951 0.930 . S
H2008 C1954 0.930 . S
H2009 C1957 0.929 . S
H2010 C1962 0.929 . S
H2011 C1963 0.930 . S
H2012 C1970 0.929 . S
H2013 C1971 0.930 . S
H2014 C1972 0.930 . S
H2015 C1973 0.930 . S
H2016 C1975 0.929 . S
H2017 C1976 0.930 . S
H2018 C1977 0.930 . S
H2019 C1978 0.930 . S
H2020 C1982 0.929 . S
H2021 C1984 0.930 . S
H2022 C1990 0.929 . S
H2023 C1991 0.930 . S
Li2024 N2041 1.990 . S
Li2024 O2084 1.956 . S
Li2024 O2085 1.970 . S
Li2024 O2086 1.961 . S
Li2025 N2049 1.990 . S
Li2025 O2084 1.970 . S
Li2025 O2085 1.956 . S
Li2025 O2087 1.961 . S
Li2026 N2071 1.990 . S
Li2026 O2084 1.961 . S
Li2026 O2086 1.956 . S
Li2026 O2087 1.970 . S
Li2027 N2077 1.990 . S
Li2027 O2085 1.961 . S
Li2027 O2086 1.970 . S
Li2027 O2087 1.956 . S
C2028 C2030 1.348 . S
C2028 C2031 1.356 . S
C2028 O2084 1.325 . S
N2029 C2032 1.314 . S
N2029 C2033 1.279 . S
C2030 C2028 1.348 . S
C2030 C2032 1.353 . S
C2030 H2088 0.929 . S
C2031 C2028 1.356 . S
C2031 C2033 1.358 . S
C2031 H2089 0.930 . S
C2032 N2029 1.314 . S
C2032 C2030 1.353 . S
C2032 H2090 0.930 . S
C2033 N2029 1.279 . S
C2033 C2031 1.358 . S
C2033 H2091 0.930 . S
C2034 C2037 1.348 . S
C2034 C2038 1.356 . S
C2034 O2085 1.325 . S
C2035 N2036 1.279 . S
C2035 C2038 1.358 . S
C2035 H2092 0.930 . S
N2036 C2035 1.279 . S
N2036 C2039 1.314 . S
C2037 C2034 1.348 . S
C2037 C2039 1.353 . S
C2037 H2093 0.929 . S
C2038 C2034 1.356 . S
C2038 C2035 1.358 . S
C2038 H2094 0.930 . S
C2039 N2036 1.314 . S
C2039 C2037 1.353 . S
C2039 H2095 0.930 . S
C2040 N2041 1.314 . S
C2040 C2045 1.353 . S
C2040 H2046 0.930 . S
N2041 Li2024 1.990 . S
N2041 C2040 1.314 . S
N2041 C2043 1.279 . S
C2042 C2043 1.358 . S
C2042 C2044 1.356 . S
C2042 H2096 0.930 . S
C2043 N2041 1.279 . S
C2043 C2042 1.358 . S
C2043 H2047 0.930 . S
C2044 C2042 1.356 . S
C2044 C2045 1.348 . S
C2045 C2040 1.353 . S
C2045 C2044 1.348 . S
C2045 H2097 0.929 . S
H2046 C2040 0.930 . S
H2047 C2043 0.930 . S
C2048 N2049 1.314 . S
C2048 C2050 1.353 . S
C2048 H2054 0.930 . S
N2049 Li2025 1.990 . S
N2049 C2048 1.314 . S
N2049 C2052 1.279 . S
C2050 C2048 1.353 . S
C2050 C2053 1.348 . S
C2050 H2098 0.929 . S
C2051 C2052 1.358 . S
C2051 C2053 1.356 . S
C2051 H2099 0.930 . S
C2052 N2049 1.279 . S
C2052 C2051 1.358 . S
C2052 H2055 0.930 . S
C2053 C2050 1.348 . S
C2053 C2051 1.356 . S
H2054 C2048 0.930 . S
H2055 C2052 0.930 . S
C2056 C2058 1.348 . S
C2056 C2059 1.356 . S
C2056 O2086 1.325 . S
N2057 C2060 1.314 . S
N2057 C2061 1.279 . S
C2058 C2056 1.348 . S
C2058 C2060 1.353 . S
C2058 H2100 0.929 . S
C2059 C2056 1.356 . S
C2059 C2061 1.358 . S
C2059 H2101 0.930 . S
C2060 N2057 1.314 . S
C2060 C2058 1.353 . S
C2060 H2102 0.930 . S
C2061 N2057 1.279 . S
C2061 C2059 1.358 . S
C2061 H2103 0.930 . S
C2062 C2063 1.348 . S
C2062 C2064 1.356 . S
C2062 O2087 1.325 . S
C2063 C2062 1.348 . S
C2063 C2065 1.353 . S
C2063 H2104 0.929 . S
C2064 C2062 1.356 . S
C2064 C2066 1.358 . S
C2064 H2105 0.930 . S
C2065 C2063 1.353 . S
C2065 N2067 1.314 . S
C2065 H2106 0.930 . S
C2066 C2064 1.358 . S
C2066 N2067 1.279 . S
C2066 H2107 0.930 . S
N2067 C2065 1.314 . S
N2067 C2066 1.279 . S
C2068 C2070 1.353 . S
C2068 N2071 1.314 . S
C2068 H2074 0.930 . S
C2069 N2071 1.279 . S
C2069 C2072 1.358 . S
C2069 H2075 0.930 . S
C2070 C2068 1.353 . S
C2070 C2073 1.348 . S
C2070 H2108 0.929 . S
N2071 Li2026 1.990 . S
N2071 C2068 1.314 . S
N2071 C2069 1.279 . S
C2072 C2069 1.358 . S
C2072 C2073 1.356 . S
C2072 H2109 0.930 . S
C2073 C2070 1.348 . S
C2073 C2072 1.356 . S
H2074 C2068 0.930 . S
H2075 C2069 0.930 . S
C2076 N2077 1.314 . S
C2076 C2078 1.353 . S
C2076 H2082 0.930 . S
N2077 Li2027 1.990 . S
N2077 C2076 1.314 . S
N2077 C2080 1.279 . S
C2078 C2076 1.353 . S
C2078 C2081 1.348 . S
C2078 H2110 0.929 . S
C2079 C2080 1.358 . S
C2079 C2081 1.356 . S
C2079 H2111 0.930 . S
C2080 N2077 1.279 . S
C2080 C2079 1.358 . S
C2080 H2083 0.930 . S
C2081 C2078 1.348 . S
C2081 C2079 1.356 . S
H2082 C2076 0.930 . S
H2083 C2080 0.930 . S
O2084 Li2024 1.956 . S
O2084 Li2025 1.970 . S
O2084 Li2026 1.961 . S
O2084 C2028 1.325 . S
O2085 Li2024 1.970 . S
O2085 Li2025 1.956 . S
O2085 Li2027 1.961 . S
O2085 C2034 1.325 . S
O2086 Li2024 1.961 . S
O2086 Li2026 1.956 . S
O2086 Li2027 1.970 . S
O2086 C2056 1.325 . S
O2087 Li2025 1.961 . S
O2087 Li2026 1.970 . S
O2087 Li2027 1.956 . S
O2087 C2062 1.325 . S
H2088 C2030 0.929 . S
H2089 C2031 0.930 . S
H2090 C2032 0.930 . S
H2091 C2033 0.930 . S
H2092 C2035 0.930 . S
H2093 C2037 0.929 . S
H2094 C2038 0.930 . S
H2095 C2039 0.930 . S
H2096 C2042 0.930 . S
H2097 C2045 0.929 . S
H2098 C2050 0.929 . S
H2099 C2051 0.930 . S
H2100 C2058 0.929 . S
H2101 C2059 0.930 . S
H2102 C2060 0.930 . S
H2103 C2061 0.930 . S
H2104 C2063 0.929 . S
H2105 C2064 0.930 . S
H2106 C2065 0.930 . S
H2107 C2066 0.930 . S
H2108 C2070 0.929 . S
H2109 C2072 0.930 . S
H2110 C2078 0.929 . S
H2111 C2079 0.930 . S
Tb2112 C2121 2.764 . S
Tb2112 O2122 2.325 1_545 S
Tb2112 O2125 2.303 . S
Tb2112 O2129 2.322 . S
Tb2112 O2130 2.349 . S
Tb2112 O2133 2.415 . S
Tb2112 O2134 2.399 . S
Tb2113 O2123 2.322 1_545 S
Tb2113 O2124 2.349 1_554 S
Tb2113 O2126 2.415 1_455 S
Tb2113 O2127 2.399 1_454 S
Tb2113 O2128 2.325 . S
Tb2113 O2131 2.303 . S
Tb2113 C2142 2.764 1_455 S
C2114 O2130 1.261 . S
C2114 O2131 1.257 . S
C2115 C2118 1.358 . S
C2115 C2119 1.332 . S
C2115 C2121 1.504 . S
C2116 C2117 1.373 . S
C2116 C2120 1.308 1_545 S
C2117 C2116 1.373 . S
C2117 C2118 1.429 . S
C2117 H2144 0.932 . S
C2118 C2115 1.358 . S
C2118 C2117 1.429 . S
C2118 H2145 0.930 . S
C2119 C2115 1.332 . S
C2119 C2120 1.394 1_545 S
C2119 H2146 0.932 1_545 S
C2120 C2116 1.308 1_565 S
C2120 C2119 1.394 1_565 S
C2120 H2147 0.929 . S
C2121 Tb2112 2.764 . S
C2121 C2115 1.504 . S
C2121 O2133 1.239 . S
C2121 O2134 1.263 . S
O2122 Tb2112 2.325 1_565 S
O2122 C2132 1.236 . S
O2123 Tb2113 2.322 1_565 S
O2123 C2132 1.257 . S
O2124 Tb2113 2.349 1_556 S
O2124 C2135 1.261 . S
O2125 Tb2112 2.303 . S
O2125 C2135 1.257 1_554 S
O2126 Tb2113 2.415 1_655 S
O2126 C2142 1.239 . S
O2127 Tb2113 2.399 1_656 S
O2127 C2142 1.263 1_556 S
O2128 Tb2113 2.325 . S
O2128 C2143 1.236 . S
O2129 Tb2112 2.322 . S
O2129 C2143 1.257 . S
O2130 Tb2112 2.349 . S
O2130 C2114 1.261 . S
O2131 Tb2113 2.303 . S
O2131 C2114 1.257 . S
C2132 O2122 1.236 . S
C2132 O2123 1.257 . S
O2133 Tb2112 2.415 . S
O2133 C2121 1.239 . S
O2134 Tb2112 2.399 . S
O2134 C2121 1.263 . S
C2135 O2124 1.261 . S
C2135 O2125 1.257 1_556 S
C2136 C2139 1.358 1_554 S
C2136 C2140 1.332 . S
C2136 C2142 1.504 . S
C2137 C2138 1.373 . S
C2137 C2141 1.308 1_556 S
C2138 C2137 1.373 . S
C2138 C2139 1.429 . S
C2138 H2148 0.932 . S
C2139 C2136 1.358 1_556 S
C2139 C2138 1.429 . S
C2139 H2149 0.930 . S
C2140 C2136 1.332 . S
C2140 C2141 1.394 . S
C2140 H2150 0.932 . S
C2141 C2137 1.308 1_554 S
C2141 C2140 1.394 . S
C2141 H2151 0.929 . S
C2142 Tb2113 2.764 1_655 S
C2142 O2126 1.239 . S
C2142 O2127 1.263 1_554 S
C2142 C2136 1.504 . S
C2143 O2128 1.236 . S
C2143 O2129 1.257 . S
H2144 C2117 0.932 . S
H2145 C2118 0.930 . S
H2146 C2119 0.932 1_565 S
H2147 C2120 0.929 . S
H2148 C2138 0.932 . S
H2149 C2139 0.930 . S
H2150 C2140 0.932 . S
H2151 C2141 0.929 . S
Tb2152 C2161 2.764 . S
Tb2152 O2162 2.325 . S
Tb2152 O2165 2.303 . S
Tb2152 O2169 2.322 . S
Tb2152 O2170 2.349 . S
Tb2152 O2173 2.415 . S
Tb2152 O2174 2.399 . S
Tb2153 O2163 2.322 . S
Tb2153 O2164 2.349 . S
Tb2153 O2166 2.415 . S
Tb2153 O2167 2.399 . S
Tb2153 O2168 2.325 . S
Tb2153 O2171 2.303 . S
Tb2153 C2182 2.764 . S
C2154 O2170 1.261 . S
C2154 O2171 1.257 . S
C2155 C2158 1.358 . S
C2155 C2159 1.332 . S
C2155 C2161 1.504 . S
C2156 C2157 1.373 . S
C2156 C2160 1.308 . S
C2157 C2156 1.373 . S
C2157 C2158 1.429 . S
C2157 H2184 0.932 . S
C2158 C2155 1.358 . S
C2158 C2157 1.429 . S
C2158 H2185 0.930 . S
C2159 C2155 1.332 . S
C2159 C2160 1.394 . S
C2159 H2186 0.932 . S
C2160 C2156 1.308 . S
C2160 C2159 1.394 . S
C2160 H2187 0.929 . S
C2161 Tb2152 2.764 . S
C2161 C2155 1.504 . S
C2161 O2173 1.239 . S
C2161 O2174 1.263 . S
O2162 Tb2152 2.325 . S
O2162 C2172 1.236 . S
O2163 Tb2153 2.322 . S
O2163 C2172 1.257 . S
O2164 Tb2153 2.349 . S
O2164 C2175 1.261 . S
O2165 Tb2152 2.303 . S
O2165 C2175 1.257 . S
O2166 Tb2153 2.415 . S
O2166 C2182 1.239 . S
O2167 Tb2153 2.399 . S
O2167 C2182 1.263 . S
O2168 Tb2153 2.325 . S
O2168 C2183 1.236 . S
O2169 Tb2152 2.322 . S
O2169 C2183 1.257 . S
O2170 Tb2152 2.349 . S
O2170 C2154 1.261 . S
O2171 Tb2153 2.303 . S
O2171 C2154 1.257 . S
C2172 O2162 1.236 . S
C2172 O2163 1.257 . S
O2173 Tb2152 2.415 . S
O2173 C2161 1.239 . S
O2174 Tb2152 2.399 . S
O2174 C2161 1.263 . S
C2175 O2164 1.261 . S
C2175 O2165 1.257 . S
C2176 C2179 1.358 . S
C2176 C2180 1.332 . S
C2176 C2182 1.504 . S
C2177 C2178 1.373 . S
C2177 C2181 1.308 . S
C2178 C2177 1.373 . S
C2178 C2179 1.429 . S
C2178 H2188 0.932 . S
C2179 C2176 1.358 . S
C2179 C2178 1.429 . S
C2179 H2189 0.930 . S
C2180 C2176 1.332 . S
C2180 C2181 1.394 . S
C2180 H2190 0.932 . S
C2181 C2177 1.308 . S
C2181 C2180 1.394 . S
C2181 H2191 0.929 . S
C2182 Tb2153 2.764 . S
C2182 O2166 1.239 . S
C2182 O2167 1.263 . S
C2182 C2176 1.504 . S
C2183 O2168 1.236 . S
C2183 O2169 1.257 . S
H2184 C2157 0.932 . S
H2185 C2158 0.930 . S
H2186 C2159 0.932 . S
H2187 C2160 0.929 . S
H2188 C2178 0.932 . S
H2189 C2179 0.930 . S
H2190 C2180 0.932 . S
H2191 C2181 0.929 . S
Tb2192 C2201 2.764 . S
Tb2192 O2202 2.325 . S
Tb2192 O2205 2.303 . S
Tb2192 O2209 2.322 1_545 S
Tb2192 O2210 2.349 . S
Tb2192 O2213 2.415 . S
Tb2192 O2214 2.399 . S
Tb2193 O2203 2.322 . S
Tb2193 O2204 2.349 . S
Tb2193 O2206 2.415 . S
Tb2193 O2207 2.399 . S
Tb2193 O2208 2.325 1_545 S
Tb2193 O2211 2.303 . S
Tb2193 C2222 2.764 . S
C2194 O2210 1.261 . S
C2194 O2211 1.257 . S
C2195 C2198 1.358 . S
C2195 C2199 1.332 . S
C2195 C2201 1.504 . S
C2196 C2197 1.373 . S
C2196 C2200 1.308 . S
C2197 C2196 1.373 . S
C2197 C2198 1.429 . S
C2197 H2224 0.932 . S
C2198 C2195 1.358 . S
C2198 C2197 1.429 . S
C2198 H2225 0.930 . S
C2199 C2195 1.332 . S
C2199 C2200 1.394 . S
C2199 H2226 0.932 . S
C2200 C2196 1.308 . S
C2200 C2199 1.394 . S
C2200 H2227 0.929 . S
C2201 Tb2192 2.764 . S
C2201 C2195 1.504 . S
C2201 O2213 1.239 . S
C2201 O2214 1.263 . S
O2202 Tb2192 2.325 . S
O2202 C2212 1.236 . S
O2203 Tb2193 2.322 . S
O2203 C2212 1.257 . S
O2204 Tb2193 2.349 . S
O2204 C2215 1.261 . S
O2205 Tb2192 2.303 . S
O2205 C2215 1.257 . S
O2206 Tb2193 2.415 . S
O2206 C2222 1.239 . S
O2207 Tb2193 2.399 . S
O2207 C2222 1.263 . S
O2208 Tb2193 2.325 1_565 S
O2208 C2223 1.236 . S
O2209 Tb2192 2.322 1_565 S
O2209 C2223 1.257 . S
O2210 Tb2192 2.349 . S
O2210 C2194 1.261 . S
O2211 Tb2193 2.303 . S
O2211 C2194 1.257 . S
C2212 O2202 1.236 . S
C2212 O2203 1.257 . S
O2213 Tb2192 2.415 . S
O2213 C2201 1.239 . S
O2214 Tb2192 2.399 . S
O2214 C2201 1.263 . S
C2215 O2204 1.261 . S
C2215 O2205 1.257 . S
C2216 C2219 1.358 . S
C2216 C2220 1.332 . S
C2216 C2222 1.504 1_565 S
C2217 C2218 1.373 . S
C2217 C2221 1.308 . S
C2218 C2217 1.373 . S
C2218 C2219 1.429 . S
C2218 H2228 0.932 . S
C2219 C2216 1.358 . S
C2219 C2218 1.429 . S
C2219 H2229 0.930 1_565 S
C2220 C2216 1.332 . S
C2220 C2221 1.394 . S
C2220 H2230 0.932 . S
C2221 C2217 1.308 . S
C2221 C2220 1.394 . S
C2221 H2231 0.929 . S
C2222 Tb2193 2.764 . S
C2222 O2206 1.239 . S
C2222 O2207 1.263 . S
C2222 C2216 1.504 1_545 S
C2223 O2208 1.236 . S
C2223 O2209 1.257 . S
H2224 C2197 0.932 . S
H2225 C2198 0.930 . S
H2226 C2199 0.932 . S
H2227 C2200 0.929 . S
H2228 C2218 0.932 . S
H2229 C2219 0.930 1_545 S
H2230 C2220 0.932 . S
H2231 C2221 0.929 . S
Tb2232 C2241 2.764 . S
Tb2232 O2242 2.325 . S
Tb2232 O2245 2.303 . S
Tb2232 O2249 2.322 . S
Tb2232 O2250 2.349 . S
Tb2232 O2253 2.415 . S
Tb2232 O2254 2.399 . S
Tb2233 O2243 2.322 . S
Tb2233 O2244 2.349 . S
Tb2233 O2246 2.415 . S
Tb2233 O2247 2.399 . S
Tb2233 O2248 2.325 . S
Tb2233 O2251 2.303 . S
Tb2233 C2262 2.764 . S
C2234 O2250 1.261 . S
C2234 O2251 1.257 . S
C2235 C2238 1.358 . S
C2235 C2239 1.332 . S
C2235 C2241 1.504 . S
C2236 C2237 1.373 . S
C2236 C2240 1.308 . S
C2237 C2236 1.373 . S
C2237 C2238 1.429 . S
C2237 H2264 0.932 . S
C2238 C2235 1.358 . S
C2238 C2237 1.429 . S
C2238 H2265 0.930 . S
C2239 C2235 1.332 . S
C2239 C2240 1.394 . S
C2239 H2266 0.932 . S
C2240 C2236 1.308 . S
C2240 C2239 1.394 . S
C2240 H2267 0.929 . S
C2241 Tb2232 2.764 . S
C2241 C2235 1.504 . S
C2241 O2253 1.239 . S
C2241 O2254 1.263 . S
O2242 Tb2232 2.325 . S
O2242 C2252 1.236 . S
O2243 Tb2233 2.322 . S
O2243 C2252 1.257 . S
O2244 Tb2233 2.349 . S
O2244 C2255 1.261 . S
O2245 Tb2232 2.303 . S
O2245 C2255 1.257 . S
O2246 Tb2233 2.415 . S
O2246 C2262 1.239 . S
O2247 Tb2233 2.399 . S
O2247 C2262 1.263 . S
O2248 Tb2233 2.325 . S
O2248 C2263 1.236 . S
O2249 Tb2232 2.322 . S
O2249 C2263 1.257 . S
O2250 Tb2232 2.349 . S
O2250 C2234 1.261 . S
O2251 Tb2233 2.303 . S
O2251 C2234 1.257 . S
C2252 O2242 1.236 . S
C2252 O2243 1.257 . S
O2253 Tb2232 2.415 . S
O2253 C2241 1.239 . S
O2254 Tb2232 2.399 . S
O2254 C2241 1.263 . S
C2255 O2244 1.261 . S
C2255 O2245 1.257 . S
C2256 C2259 1.358 . S
C2256 C2260 1.332 . S
C2256 C2262 1.504 . S
C2257 C2258 1.373 . S
C2257 C2261 1.308 . S
C2258 C2257 1.373 . S
C2258 C2259 1.429 . S
C2258 H2268 0.932 . S
C2259 C2256 1.358 . S
C2259 C2258 1.429 . S
C2259 H2269 0.930 . S
C2260 C2256 1.332 . S
C2260 C2261 1.394 . S
C2260 H2270 0.932 . S
C2261 C2257 1.308 . S
C2261 C2260 1.394 . S
C2261 H2271 0.929 . S
C2262 Tb2233 2.764 . S
C2262 O2246 1.239 . S
C2262 O2247 1.263 . S
C2262 C2256 1.504 . S
C2263 O2248 1.236 . S
C2263 O2249 1.257 . S
H2264 C2237 0.932 . S
H2265 C2238 0.930 . S
H2266 C2239 0.932 . S
H2267 C2240 0.929 . S
H2268 C2258 0.932 . S
H2269 C2259 0.930 . S
H2270 C2260 0.932 . S
H2271 C2261 0.929 . S
Tb2272 C2281 2.764 . S
Tb2272 O2282 2.325 . S
Tb2272 O2285 2.303 . S
Tb2272 O2289 2.322 . S
Tb2272 O2290 2.349 . S
Tb2272 O2293 2.415 . S
Tb2272 O2294 2.399 . S
Tb2273 O2283 2.322 1_545 S
Tb2273 O2284 2.349 . S
Tb2273 O2286 2.415 . S
Tb2273 O2287 2.399 . S
Tb2273 O2288 2.325 . S
Tb2273 O2291 2.303 . S
Tb2273 C2302 2.764 . S
C2274 O2290 1.261 . S
C2274 O2291 1.261 . S
C2275 C2278 1.358 . S
C2275 C2279 1.332 . S
C2275 C2281 1.504 . S
C2276 C2277 1.373 . S
C2276 C2280 1.308 . S
C2277 C2276 1.373 . S
C2277 C2278 1.429 . S
C2277 H2304 0.932 . S
C2278 C2275 1.358 . S
C2278 C2277 1.429 . S
C2278 H2305 0.930 . S
C2279 C2275 1.332 . S
C2279 C2280 1.394 . S
C2279 H2306 0.932 . S
C2280 C2276 1.308 . S
C2280 C2279 1.394 . S
C2280 H2307 0.929 . S
C2281 Tb2272 2.764 . S
C2281 C2275 1.504 . S
C2281 O2293 1.239 . S
C2281 O2294 1.263 . S
O2282 Tb2272 2.325 . S
O2282 C2292 1.236 1_545 S
O2283 Tb2273 2.322 1_565 S
O2283 C2292 1.257 . S
O2284 Tb2273 2.349 . S
O2284 C2295 1.261 . S
O2285 Tb2272 2.303 . S
O2285 C2295 1.257 . S
O2286 Tb2273 2.415 . S
O2286 C2302 1.239 . S
O2287 Tb2273 2.399 . S
O2287 C2302 1.263 . S
O2288 Tb2273 2.325 . S
O2288 C2303 1.236 . S
O2289 Tb2272 2.322 . S
O2289 C2303 1.257 . S
O2290 Tb2272 2.349 . S
O2290 C2274 1.261 . S
O2291 Tb2273 2.303 . S
O2291 C2274 1.261 . S
C2292 O2282 1.236 1_565 S
C2292 O2283 1.257 . S
O2293 Tb2272 2.415 . S
O2293 C2281 1.239 . S
O2294 Tb2272 2.399 . S
O2294 C2281 1.263 . S
C2295 O2284 1.261 . S
C2295 O2285 1.257 . S
C2296 C2299 1.358 . S
C2296 C2300 1.350 . S
C2296 C2302 1.504 . S
C2297 C2298 1.373 . S
C2297 C2301 1.308 1_455 S
C2298 C2297 1.373 . S
C2298 C2299 1.429 . S
C2298 H2308 0.932 . S
C2299 C2296 1.358 . S
C2299 C2298 1.429 . S
C2299 H2309 0.930 . S
C2300 C2296 1.350 . S
C2300 C2301 1.389 1_455 S
C2300 H2310 0.919 1_455 S
C2301 C2297 1.308 1_655 S
C2301 C2300 1.389 1_655 S
C2301 H2311 0.929 . S
C2302 Tb2273 2.764 . S
C2302 O2286 1.239 . S
C2302 O2287 1.263 . S
C2302 C2296 1.504 . S
C2303 O2288 1.236 . S
C2303 O2289 1.257 . S
H2304 C2277 0.932 . S
H2305 C2278 0.930 . S
H2306 C2279 0.932 . S
H2307 C2280 0.929 . S
H2308 C2298 0.932 . S
H2309 C2299 0.930 . S
H2310 C2300 0.919 1_655 S
H2311 C2301 0.929 . S
Tb2312 C2321 2.764 . S
Tb2312 O2322 2.325 . S
Tb2312 O2325 2.303 . S
Tb2312 O2329 2.322 . S
Tb2312 O2330 2.349 . S
Tb2312 O2333 2.415 . S
Tb2312 O2334 2.399 . S
Tb2313 O2323 2.322 . S
Tb2313 O2324 2.349 . S
Tb2313 O2326 2.415 . S
Tb2313 O2327 2.399 . S
Tb2313 O2328 2.325 . S
Tb2313 O2331 2.303 . S
Tb2313 C2342 2.764 . S
C2314 O2330 1.261 . S
C2314 O2331 1.257 . S
C2315 C2318 1.358 . S
C2315 C2319 1.332 . S
C2315 C2321 1.504 . S
C2316 C2317 1.373 . S
C2316 C2320 1.308 . S
C2317 C2316 1.373 . S
C2317 C2318 1.429 . S
C2317 H2344 0.932 . S
C2318 C2315 1.358 . S
C2318 C2317 1.429 . S
C2318 H2345 0.930 . S
C2319 C2315 1.332 . S
C2319 C2320 1.394 . S
C2319 H2346 0.932 . S
C2320 C2316 1.308 . S
C2320 C2319 1.394 . S
C2320 H2347 0.929 . S
C2321 Tb2312 2.764 . S
C2321 C2315 1.504 . S
C2321 O2333 1.239 . S
C2321 O2334 1.263 . S
O2322 Tb2312 2.325 . S
O2322 C2332 1.236 . S
O2323 Tb2313 2.322 . S
O2323 C2332 1.257 . S
O2324 Tb2313 2.349 . S
O2324 C2335 1.261 . S
O2325 Tb2312 2.303 . S
O2325 C2335 1.257 . S
O2326 Tb2313 2.415 . S
O2326 C2342 1.239 . S
O2327 Tb2313 2.399 . S
O2327 C2342 1.263 . S
O2328 Tb2313 2.325 . S
O2328 C2343 1.236 . S
O2329 Tb2312 2.322 . S
O2329 C2343 1.257 . S
O2330 Tb2312 2.349 . S
O2330 C2314 1.261 . S
O2331 Tb2313 2.303 . S
O2331 C2314 1.257 . S
C2332 O2322 1.236 . S
C2332 O2323 1.257 . S
O2333 Tb2312 2.415 . S
O2333 C2321 1.239 . S
O2334 Tb2312 2.399 . S
O2334 C2321 1.263 . S
C2335 O2324 1.261 . S
C2335 O2325 1.257 . S
C2336 C2339 1.358 . S
C2336 C2340 1.332 . S
C2336 C2342 1.504 . S
C2337 C2338 1.373 . S
C2337 C2341 1.308 . S
C2338 C2337 1.373 . S
C2338 C2339 1.429 . S
C2338 H2348 0.932 . S
C2339 C2336 1.358 . S
C2339 C2338 1.429 . S
C2339 H2349 0.930 . S
C2340 C2336 1.332 . S
C2340 C2341 1.394 . S
C2340 H2350 0.932 . S
C2341 C2337 1.308 . S
C2341 C2340 1.394 . S
C2341 H2351 0.929 . S
C2342 Tb2313 2.764 . S
C2342 O2326 1.239 . S
C2342 O2327 1.263 . S
C2342 C2336 1.504 . S
C2343 O2328 1.236 . S
C2343 O2329 1.257 . S
H2344 C2317 0.932 . S
H2345 C2318 0.930 . S
H2346 C2319 0.932 . S
H2347 C2320 0.929 . S
H2348 C2338 0.932 . S
H2349 C2339 0.930 . S
H2350 C2340 0.932 . S
H2351 C2341 0.929 . S
Tb2352 C2361 2.764 . S
Tb2352 O2362 2.325 . S
Tb2352 O2365 2.303 . S
Tb2352 O2369 2.322 1_545 S
Tb2352 O2370 2.349 . S
Tb2352 O2373 2.415 . S
Tb2352 O2374 2.399 . S
Tb2353 O2363 2.322 1_556 S
Tb2353 O2364 2.349 . S
Tb2353 O2366 2.415 . S
Tb2353 O2367 2.399 . S
Tb2353 O2368 2.329 1_545 S
Tb2353 O2371 2.303 1_556 S
Tb2353 C2382 2.764 . S
C2354 O2370 1.261 . S
C2354 O2371 1.257 . S
C2355 C2358 1.358 . S
C2355 C2359 1.332 . S
C2355 C2361 1.504 . S
C2356 C2357 1.373 . S
C2356 C2360 1.308 . S
C2357 C2356 1.373 . S
C2357 C2358 1.429 . S
C2357 H2384 0.932 . S
C2358 C2355 1.358 . S
C2358 C2357 1.429 . S
C2358 H2385 0.930 . S
C2359 C2355 1.332 . S
C2359 C2360 1.394 . S
C2359 H2386 0.932 . S
C2360 C2356 1.308 . S
C2360 C2359 1.394 . S
C2360 H2387 0.929 . S
C2361 Tb2352 2.764 . S
C2361 C2355 1.504 . S
C2361 O2373 1.239 . S
C2361 O2374 1.263 . S
O2362 Tb2352 2.325 . S
O2362 C2372 1.236 . S
O2363 Tb2353 2.322 1_554 S
O2363 C2372 1.257 . S
O2364 Tb2353 2.349 . S
O2364 C2375 1.261 1_556 S
O2365 Tb2352 2.303 . S
O2365 C2375 1.257 . S
O2366 Tb2353 2.415 . S
O2366 C2382 1.239 . S
O2367 Tb2353 2.399 . S
O2367 C2382 1.263 . S
O2368 Tb2353 2.329 1_565 S
O2368 C2383 1.233 1_556 S
O2369 Tb2352 2.322 1_565 S
O2369 C2383 1.257 . S
O2370 Tb2352 2.349 . S
O2370 C2354 1.261 . S
O2371 Tb2353 2.303 1_554 S
O2371 C2354 1.257 . S
C2372 O2362 1.236 . S
C2372 O2363 1.257 . S
O2373 Tb2352 2.415 . S
O2373 C2361 1.239 . S
O2374 Tb2352 2.399 . S
O2374 C2361 1.263 . S
C2375 O2364 1.261 1_554 S
C2375 O2365 1.257 . S
C2376 C2379 1.358 . S
C2376 C2380 1.332 . S
C2376 C2382 1.504 . S
C2377 C2378 1.373 . S
C2377 C2381 1.308 . S
C2378 C2377 1.373 . S
C2378 C2379 1.429 . S
C2378 H2388 0.932 . S
C2379 C2376 1.358 . S
C2379 C2378 1.429 . S
C2379 H2389 0.930 . S
C2380 C2376 1.332 . S
C2380 C2381 1.394 . S
C2380 H2390 0.932 . S
C2381 C2377 1.308 . S
C2381 C2380 1.394 . S
C2381 H2391 0.929 . S
C2382 Tb2353 2.764 . S
C2382 O2366 1.239 . S
C2382 O2367 1.263 . S
C2382 C2376 1.504 . S
C2383 O2368 1.233 1_554 S
C2383 O2369 1.257 . S
H2384 C2357 0.932 . S
H2385 C2358 0.930 . S
H2386 C2359 0.932 . S
H2387 C2360 0.929 . S
H2388 C2378 0.932 . S
H2389 C2379 0.930 . S
H2390 C2380 0.932 . S
H2391 C2381 0.929 . S
Tb2392 C2401 2.764 . S
Tb2392 O2402 2.325 . S
Tb2392 O2405 2.303 . S
Tb2392 O2409 2.322 . S
Tb2392 O2410 2.349 . S
Tb2392 O2413 2.415 . S
Tb2392 O2414 2.399 . S
Tb2393 O2403 2.322 . S
Tb2393 O2404 2.349 . S
Tb2393 O2406 2.415 . S
Tb2393 O2407 2.399 . S
Tb2393 O2408 2.325 . S
Tb2393 O2411 2.303 . S
Tb2393 C2422 2.764 . S
C2394 O2410 1.261 . S
C2394 O2411 1.257 . S
C2395 C2398 1.358 . S
C2395 C2399 1.332 . S
C2395 C2401 1.504 . S
C2396 C2397 1.373 . S
C2396 C2400 1.308 . S
C2397 C2396 1.373 . S
C2397 C2398 1.429 . S
C2397 H2424 0.932 . S
C2398 C2395 1.358 . S
C2398 C2397 1.429 . S
C2398 H2425 0.930 . S
C2399 C2395 1.332 . S
C2399 C2400 1.394 . S
C2399 H2426 0.932 . S
C2400 C2396 1.308 . S
C2400 C2399 1.394 . S
C2400 H2427 0.929 . S
C2401 Tb2392 2.764 . S
C2401 C2395 1.504 . S
C2401 O2413 1.239 . S
C2401 O2414 1.263 . S
O2402 Tb2392 2.325 . S
O2402 C2412 1.236 . S
O2403 Tb2393 2.322 . S
O2403 C2412 1.257 . S
O2404 Tb2393 2.349 . S
O2404 C2415 1.261 . S
O2405 Tb2392 2.303 . S
O2405 C2415 1.257 . S
O2406 Tb2393 2.415 . S
O2406 C2422 1.239 . S
O2407 Tb2393 2.399 . S
O2407 C2422 1.263 . S
O2408 Tb2393 2.325 . S
O2408 C2423 1.236 . S
O2409 Tb2392 2.322 . S
O2409 C2423 1.257 . S
O2410 Tb2392 2.349 . S
O2410 C2394 1.261 . S
O2411 Tb2393 2.303 . S
O2411 C2394 1.257 . S
C2412 O2402 1.236 . S
C2412 O2403 1.257 . S
O2413 Tb2392 2.415 . S
O2413 C2401 1.239 . S
O2414 Tb2392 2.399 . S
O2414 C2401 1.263 . S
C2415 O2404 1.261 . S
C2415 O2405 1.257 . S
C2416 C2419 1.358 . S
C2416 C2420 1.332 . S
C2416 C2422 1.504 . S
C2417 C2418 1.373 . S
C2417 C2421 1.308 . S
C2418 C2417 1.373 . S
C2418 C2419 1.429 . S
C2418 H2428 0.932 . S
C2419 C2416 1.358 . S
C2419 C2418 1.429 . S
C2419 H2429 0.930 . S
C2420 C2416 1.332 . S
C2420 C2421 1.394 . S
C2420 H2430 0.932 . S
C2421 C2417 1.308 . S
C2421 C2420 1.394 . S
C2421 H2431 0.929 . S
C2422 Tb2393 2.764 . S
C2422 O2406 1.239 . S
C2422 O2407 1.263 . S
C2422 C2416 1.504 . S
C2423 O2408 1.236 . S
C2423 O2409 1.257 . S
H2424 C2397 0.932 . S
H2425 C2398 0.930 . S
H2426 C2399 0.932 . S
H2427 C2400 0.929 . S
H2428 C2418 0.932 . S
H2429 C2419 0.930 . S
H2430 C2420 0.932 . S
H2431 C2421 0.929 . S
Tb2432 C2441 2.764 . S
Tb2432 O2442 2.325 . S
Tb2432 O2445 2.303 . S
Tb2432 O2449 2.322 . S
Tb2432 O2450 2.349 . S
Tb2432 O2453 2.415 . S
Tb2432 O2454 2.399 . S
Tb2433 O2443 2.322 1_556 S
Tb2433 O2444 2.349 1_556 S
Tb2433 O2446 2.415 . S
Tb2433 O2447 2.399 . S
Tb2433 O2448 2.325 . S
Tb2433 O2451 2.303 1_556 S
Tb2433 C2462 2.764 . S
C2434 O2450 1.261 . S
C2434 O2451 1.257 . S
C2435 C2438 1.358 . S
C2435 C2439 1.332 . S
C2435 C2441 1.504 . S
C2436 C2437 1.373 . S
C2436 C2440 1.308 . S
C2437 C2436 1.373 . S
C2437 C2438 1.429 . S
C2437 H2464 0.932 . S
C2438 C2435 1.358 . S
C2438 C2437 1.429 . S
C2438 H2465 0.930 . S
C2439 C2435 1.332 . S
C2439 C2440 1.394 . S
C2439 H2466 0.932 . S
C2440 C2436 1.308 . S
C2440 C2439 1.394 . S
C2440 H2467 0.929 . S
C2441 Tb2432 2.764 . S
C2441 C2435 1.504 . S
C2441 O2453 1.239 . S
C2441 O2454 1.263 . S
O2442 Tb2432 2.325 . S
O2442 C2452 1.236 . S
O2443 Tb2433 2.322 1_554 S
O2443 C2452 1.257 . S
O2444 Tb2433 2.349 1_554 S
O2444 C2455 1.261 . S
O2445 Tb2432 2.303 . S
O2445 C2455 1.257 . S
O2446 Tb2433 2.415 . S
O2446 C2462 1.239 . S
O2447 Tb2433 2.399 . S
O2447 C2462 1.263 . S
O2448 Tb2433 2.325 . S
O2448 C2463 1.236 1_556 S
O2449 Tb2432 2.322 . S
O2449 C2463 1.257 . S
O2450 Tb2432 2.349 . S
O2450 C2434 1.261 . S
O2451 Tb2433 2.303 1_554 S
O2451 C2434 1.257 . S
C2452 O2442 1.236 . S
C2452 O2443 1.257 . S
O2453 Tb2432 2.415 . S
O2453 C2441 1.239 . S
O2454 Tb2432 2.399 . S
O2454 C2441 1.263 . S
C2455 O2444 1.261 . S
C2455 O2445 1.257 . S
C2456 C2459 1.358 . S
C2456 C2460 1.332 . S
C2456 C2462 1.504 . S
C2457 C2458 1.373 . S
C2457 C2461 1.308 . S
C2458 C2457 1.373 . S
C2458 C2459 1.429 . S
C2458 H2468 0.932 . S
C2459 C2456 1.358 . S
C2459 C2458 1.429 . S
C2459 H2469 0.930 . S
C2460 C2456 1.332 . S
C2460 C2461 1.394 . S
C2460 H2470 0.932 . S
C2461 C2457 1.308 . S
C2461 C2460 1.394 . S
C2461 H2471 0.929 . S
C2462 Tb2433 2.764 . S
C2462 O2446 1.239 . S
C2462 O2447 1.263 . S
C2462 C2456 1.504 . S
C2463 O2448 1.236 1_554 S
C2463 O2449 1.257 . S
H2464 C2437 0.932 . S
H2465 C2438 0.930 . S
H2466 C2439 0.932 . S
H2467 C2440 0.929 . S
H2468 C2458 0.932 . S
H2469 C2459 0.930 . S
H2470 C2460 0.932 . S
H2471 C2461 0.929 . S
Tb2472 C2481 2.764 . S
Tb2472 O2482 2.325 . S
Tb2472 O2485 2.303 . S
Tb2472 O2489 2.322 . S
Tb2472 O2490 2.349 . S
Tb2472 O2493 2.415 . S
Tb2472 O2494 2.399 . S
Tb2473 O2483 2.322 . S
Tb2473 O2484 2.349 . S
Tb2473 O2486 2.415 . S
Tb2473 O2487 2.399 . S
Tb2473 O2488 2.325 . S
Tb2473 O2491 2.303 . S
Tb2473 C2502 2.764 . S
C2474 O2490 1.261 . S
C2474 O2491 1.257 . S
C2475 C2478 1.358 . S
C2475 C2479 1.332 . S
C2475 C2481 1.504 . S
C2476 C2477 1.373 . S
C2476 C2480 1.308 . S
C2477 C2476 1.373 . S
C2477 C2478 1.429 . S
C2477 H2504 0.932 . S
C2478 C2475 1.358 . S
C2478 C2477 1.429 . S
C2478 H2505 0.930 . S
C2479 C2475 1.332 . S
C2479 C2480 1.394 . S
C2479 H2506 0.932 . S
C2480 C2476 1.308 . S
C2480 C2479 1.394 . S
C2480 H2507 0.929 . S
C2481 Tb2472 2.764 . S
C2481 C2475 1.504 . S
C2481 O2493 1.239 . S
C2481 O2494 1.263 . S
O2482 Tb2472 2.325 . S
O2482 C2492 1.236 . S
O2483 Tb2473 2.322 . S
O2483 C2492 1.257 . S
O2484 Tb2473 2.349 . S
O2484 C2495 1.261 . S
O2485 Tb2472 2.303 . S
O2485 C2495 1.257 . S
O2486 Tb2473 2.415 . S
O2486 C2502 1.239 . S
O2487 Tb2473 2.399 . S
O2487 C2502 1.263 . S
O2488 Tb2473 2.325 . S
O2488 C2503 1.236 . S
O2489 Tb2472 2.322 . S
O2489 C2503 1.257 . S
O2490 Tb2472 2.349 . S
O2490 C2474 1.261 . S
O2491 Tb2473 2.303 . S
O2491 C2474 1.257 . S
C2492 O2482 1.236 . S
C2492 O2483 1.257 . S
O2493 Tb2472 2.415 . S
O2493 C2481 1.239 . S
O2494 Tb2472 2.399 . S
O2494 C2481 1.263 . S
C2495 O2484 1.261 . S
C2495 O2485 1.257 . S
C2496 C2499 1.358 . S
C2496 C2500 1.332 . S
C2496 C2502 1.504 . S
C2497 C2498 1.373 . S
C2497 C2501 1.308 . S
C2498 C2497 1.373 . S
C2498 C2499 1.429 . S
C2498 H2508 0.932 . S
C2499 C2496 1.358 . S
C2499 C2498 1.429 . S
C2499 H2509 0.930 . S
C2500 C2496 1.332 . S
C2500 C2501 1.394 . S
C2500 H2510 0.932 . S
C2501 C2497 1.308 . S
C2501 C2500 1.394 . S
C2501 H2511 0.929 . S
C2502 Tb2473 2.764 . S
C2502 O2486 1.239 . S
C2502 O2487 1.263 . S
C2502 C2496 1.504 . S
C2503 O2488 1.236 . S
C2503 O2489 1.257 . S
H2504 C2477 0.932 . S
H2505 C2478 0.930 . S
H2506 C2479 0.932 . S
H2507 C2480 0.929 . S
H2508 C2498 0.932 . S
H2509 C2499 0.930 . S
H2510 C2500 0.932 . S
H2511 C2501 0.929 . S
Tb2512 C2521 2.764 . S
Tb2512 O2522 2.325 . S
Tb2512 O2525 2.303 . S
Tb2512 O2529 2.322 . S
Tb2512 O2530 2.349 . S
Tb2512 O2533 2.415 . S
Tb2512 O2534 2.399 . S
Tb2513 O2523 2.322 . S
Tb2513 O2524 2.349 . S
Tb2513 O2526 2.415 . S
Tb2513 O2527 2.399 . S
Tb2513 O2528 2.325 . S
Tb2513 O2531 2.303 . S
Tb2513 C2542 2.764 . S
C2514 O2530 1.261 . S
C2514 O2531 1.257 . S
C2515 C2518 1.358 . S
C2515 C2519 1.332 . S
C2515 C2521 1.504 . S
C2516 C2517 1.373 . S
C2516 C2520 1.308 1_455 S
C2517 C2516 1.373 . S
C2517 C2518 1.429 . S
C2517 H2544 0.932 . S
C2518 C2515 1.358 . S
C2518 C2517 1.429 . S
C2518 H2545 0.930 . S
C2519 C2515 1.332 . S
C2519 C2520 1.394 1_455 S
C2519 H2546 0.932 1_455 S
C2520 C2516 1.308 1_655 S
C2520 C2519 1.394 1_655 S
C2520 H2547 0.929 . S
C2521 Tb2512 2.764 . S
C2521 C2515 1.504 . S
C2521 O2533 1.239 . S
C2521 O2534 1.263 . S
O2522 Tb2512 2.325 . S
O2522 C2532 1.236 . S
O2523 Tb2513 2.322 . S
O2523 C2532 1.257 . S
O2524 Tb2513 2.349 . S
O2524 C2535 1.261 . S
O2525 Tb2512 2.303 . S
O2525 C2535 1.257 . S
O2526 Tb2513 2.415 . S
O2526 C2542 1.239 . S
O2527 Tb2513 2.399 . S
O2527 C2542 1.263 . S
O2528 Tb2513 2.325 . S
O2528 C2543 1.236 . S
O2529 Tb2512 2.322 . S
O2529 C2543 1.257 . S
O2530 Tb2512 2.349 . S
O2530 C2514 1.261 . S
O2531 Tb2513 2.303 . S
O2531 C2514 1.257 . S
C2532 O2522 1.236 . S
C2532 O2523 1.257 . S
O2533 Tb2512 2.415 . S
O2533 C2521 1.239 . S
O2534 Tb2512 2.399 . S
O2534 C2521 1.263 . S
C2535 O2524 1.261 . S
C2535 O2525 1.257 . S
C2536 C2539 1.358 . S
C2536 C2540 1.332 . S
C2536 C2542 1.504 . S
C2537 C2538 1.373 . S
C2537 C2541 1.308 . S
C2538 C2537 1.373 . S
C2538 C2539 1.429 . S
C2538 H2548 0.932 . S
C2539 C2536 1.358 . S
C2539 C2538 1.429 . S
C2539 H2549 0.930 . S
C2540 C2536 1.332 . S
C2540 C2541 1.394 . S
C2540 H2550 0.932 . S
C2541 C2537 1.308 . S
C2541 C2540 1.394 . S
C2541 H2551 0.929 . S
C2542 Tb2513 2.764 . S
C2542 O2526 1.239 . S
C2542 O2527 1.263 . S
C2542 C2536 1.504 . S
C2543 O2528 1.236 . S
C2543 O2529 1.257 . S
H2544 C2517 0.932 . S
H2545 C2518 0.930 . S
H2546 C2519 0.932 1_655 S
H2547 C2520 0.929 . S
H2548 C2538 0.932 . S
H2549 C2539 0.930 . S
H2550 C2540 0.932 . S
H2551 C2541 0.929 . S
Tb2552 C2561 2.764 . S
Tb2552 O2562 2.325 . S
Tb2552 O2565 2.303 . S
Tb2552 O2569 2.322 . S
Tb2552 O2570 2.349 . S
Tb2552 O2573 2.415 . S
Tb2552 O2574 2.399 . S
Tb2553 O2563 2.322 . S
Tb2553 O2564 2.349 . S
Tb2553 O2566 2.415 . S
Tb2553 O2567 2.399 . S
Tb2553 O2568 2.325 . S
Tb2553 O2571 2.303 . S
Tb2553 C2582 2.764 . S
C2554 O2570 1.261 . S
C2554 O2571 1.257 . S
C2555 C2558 1.358 . S
C2555 C2559 1.332 . S
C2555 C2561 1.504 . S
C2556 C2557 1.373 . S
C2556 C2560 1.308 . S
C2557 C2556 1.373 . S
C2557 C2558 1.429 . S
C2557 H2584 0.932 . S
C2558 C2555 1.358 . S
C2558 C2557 1.429 . S
C2558 H2585 0.930 . S
C2559 C2555 1.332 . S
C2559 C2560 1.394 . S
C2559 H2586 0.932 . S
C2560 C2556 1.308 . S
C2560 C2559 1.394 . S
C2560 H2587 0.929 . S
C2561 Tb2552 2.764 . S
C2561 C2555 1.504 . S
C2561 O2573 1.239 . S
C2561 O2574 1.263 . S
O2562 Tb2552 2.325 . S
O2562 C2572 1.236 . S
O2563 Tb2553 2.322 . S
O2563 C2572 1.257 . S
O2564 Tb2553 2.349 . S
O2564 C2575 1.261 . S
O2565 Tb2552 2.303 . S
O2565 C2575 1.257 . S
O2566 Tb2553 2.415 . S
O2566 C2582 1.239 . S
O2567 Tb2553 2.399 . S
O2567 C2582 1.263 . S
O2568 Tb2553 2.325 . S
O2568 C2583 1.236 . S
O2569 Tb2552 2.322 . S
O2569 C2583 1.257 . S
O2570 Tb2552 2.349 . S
O2570 C2554 1.261 . S
O2571 Tb2553 2.303 . S
O2571 C2554 1.257 . S
C2572 O2562 1.236 . S
C2572 O2563 1.257 . S
O2573 Tb2552 2.415 . S
O2573 C2561 1.239 . S
O2574 Tb2552 2.399 . S
O2574 C2561 1.263 . S
C2575 O2564 1.261 . S
C2575 O2565 1.257 . S
C2576 C2579 1.358 . S
C2576 C2580 1.332 . S
C2576 C2582 1.504 . S
C2577 C2578 1.373 . S
C2577 C2581 1.308 . S
C2578 C2577 1.373 . S
C2578 C2579 1.429 . S
C2578 H2588 0.932 . S
C2579 C2576 1.358 . S
C2579 C2578 1.429 . S
C2579 H2589 0.930 . S
C2580 C2576 1.332 . S
C2580 C2581 1.394 . S
C2580 H2590 0.932 . S
C2581 C2577 1.308 . S
C2581 C2580 1.394 . S
C2581 H2591 0.929 . S
C2582 Tb2553 2.764 . S
C2582 O2566 1.239 . S
C2582 O2567 1.263 . S
C2582 C2576 1.504 . S
C2583 O2568 1.236 . S
C2583 O2569 1.257 . S
H2584 C2557 0.932 . S
H2585 C2558 0.930 . S
H2586 C2559 0.932 . S
H2587 C2560 0.929 . S
H2588 C2578 0.932 . S
H2589 C2579 0.930 . S
H2590 C2580 0.932 . S
H2591 C2581 0.929 . S
Tb2592 C2601 2.764 . S
Tb2592 O2602 2.325 . S
Tb2592 O2605 2.303 . S
Tb2592 O2609 2.322 . S
Tb2592 O2610 2.349 . S
Tb2592 O2613 2.415 . S
Tb2592 O2614 2.399 . S
Tb2593 O2603 2.322 . S
Tb2593 O2604 2.349 . S
Tb2593 O2606 2.415 . S
Tb2593 O2607 2.399 . S
Tb2593 O2608 2.325 . S
Tb2593 O2611 2.303 . S
Tb2593 C2622 2.764 . S
C2594 O2610 1.261 . S
C2594 O2611 1.257 . S
C2595 C2598 1.358 . S
C2595 C2599 1.332 . S
C2595 C2601 1.504 . S
C2596 C2597 1.373 . S
C2596 C2600 1.308 . S
C2597 C2596 1.373 . S
C2597 C2598 1.429 . S
C2597 H2624 0.932 . S
C2598 C2595 1.358 . S
C2598 C2597 1.429 . S
C2598 H2625 0.930 . S
C2599 C2595 1.332 . S
C2599 C2600 1.394 . S
C2599 H2626 0.932 . S
C2600 C2596 1.308 . S
C2600 C2599 1.394 . S
C2600 H2627 0.929 . S
C2601 Tb2592 2.764 . S
C2601 C2595 1.504 . S
C2601 O2613 1.239 . S
C2601 O2614 1.263 . S
O2602 Tb2592 2.325 . S
O2602 C2612 1.236 . S
O2603 Tb2593 2.322 . S
O2603 C2612 1.257 . S
O2604 Tb2593 2.349 . S
O2604 C2615 1.261 . S
O2605 Tb2592 2.303 . S
O2605 C2615 1.257 . S
O2606 Tb2593 2.415 . S
O2606 C2622 1.239 . S
O2607 Tb2593 2.399 . S
O2607 C2622 1.263 . S
O2608 Tb2593 2.325 . S
O2608 C2623 1.236 . S
O2609 Tb2592 2.322 . S
O2609 C2623 1.257 . S
O2610 Tb2592 2.349 . S
O2610 C2594 1.261 . S
O2611 Tb2593 2.303 . S
O2611 C2594 1.257 . S
C2612 O2602 1.236 . S
C2612 O2603 1.257 . S
O2613 Tb2592 2.415 . S
O2613 C2601 1.239 . S
O2614 Tb2592 2.399 . S
O2614 C2601 1.263 . S
C2615 O2604 1.261 . S
C2615 O2605 1.257 . S
C2616 C2619 1.358 . S
C2616 C2620 1.332 . S
C2616 C2622 1.504 . S
C2617 C2618 1.373 . S
C2617 C2621 1.308 . S
C2618 C2617 1.373 . S
C2618 C2619 1.429 . S
C2618 H2628 0.932 . S
C2619 C2616 1.358 . S
C2619 C2618 1.429 . S
C2619 H2629 0.930 . S
C2620 C2616 1.332 . S
C2620 C2621 1.394 . S
C2620 H2630 0.932 . S
C2621 C2617 1.308 . S
C2621 C2620 1.394 . S
C2621 H2631 0.929 . S
C2622 Tb2593 2.764 . S
C2622 O2606 1.239 . S
C2622 O2607 1.263 . S
C2622 C2616 1.504 . S
C2623 O2608 1.236 . S
C2623 O2609 1.257 . S
H2624 C2597 0.932 . S
H2625 C2598 0.930 . S
H2626 C2599 0.932 . S
H2627 C2600 0.929 . S
H2628 C2618 0.932 . S
H2629 C2619 0.930 . S
H2630 C2620 0.932 . S
H2631 C2621 0.929 . S
Tb2632 C2641 2.764 . S
Tb2632 O2642 2.325 . S
Tb2632 O2645 2.303 . S
Tb2632 O2649 2.322 . S
Tb2632 O2650 2.349 . S
Tb2632 O2653 2.415 . S
Tb2632 O2654 2.399 . S
Tb2633 O2643 2.322 . S
Tb2633 O2644 2.349 . S
Tb2633 O2646 2.415 . S
Tb2633 O2647 2.399 . S
Tb2633 O2648 2.325 . S
Tb2633 O2651 2.303 . S
Tb2633 C2662 2.764 . S
C2634 O2650 1.261 . S
C2634 O2651 1.257 . S
C2635 C2638 1.358 . S
C2635 C2639 1.332 . S
C2635 C2641 1.504 . S
C2636 C2637 1.373 . S
C2636 C2640 1.308 . S
C2637 C2636 1.373 . S
C2637 C2638 1.429 . S
C2637 H2664 0.932 . S
C2638 C2635 1.358 . S
C2638 C2637 1.429 . S
C2638 H2665 0.930 . S
C2639 C2635 1.332 . S
C2639 C2640 1.394 . S
C2639 H2666 0.932 . S
C2640 C2636 1.308 . S
C2640 C2639 1.394 . S
C2640 H2667 0.929 . S
C2641 Tb2632 2.764 . S
C2641 C2635 1.504 . S
C2641 O2653 1.239 . S
C2641 O2654 1.263 . S
O2642 Tb2632 2.325 . S
O2642 C2652 1.236 . S
O2643 Tb2633 2.322 . S
O2643 C2652 1.257 . S
O2644 Tb2633 2.349 . S
O2644 C2655 1.261 . S
O2645 Tb2632 2.303 . S
O2645 C2655 1.257 . S
O2646 Tb2633 2.415 . S
O2646 C2662 1.239 . S
O2647 Tb2633 2.399 . S
O2647 C2662 1.263 . S
O2648 Tb2633 2.325 . S
O2648 C2663 1.236 . S
O2649 Tb2632 2.322 . S
O2649 C2663 1.257 . S
O2650 Tb2632 2.349 . S
O2650 C2634 1.261 . S
O2651 Tb2633 2.303 . S
O2651 C2634 1.257 . S
C2652 O2642 1.236 . S
C2652 O2643 1.257 . S
O2653 Tb2632 2.415 . S
O2653 C2641 1.239 . S
O2654 Tb2632 2.399 . S
O2654 C2641 1.263 . S
C2655 O2644 1.261 . S
C2655 O2645 1.257 . S
C2656 C2659 1.358 . S
C2656 C2660 1.332 . S
C2656 C2662 1.504 . S
C2657 C2658 1.373 . S
C2657 C2661 1.308 . S
C2658 C2657 1.373 . S
C2658 C2659 1.429 . S
C2658 H2668 0.932 . S
C2659 C2656 1.358 . S
C2659 C2658 1.429 . S
C2659 H2669 0.930 . S
C2660 C2656 1.332 . S
C2660 C2661 1.394 . S
C2660 H2670 0.932 . S
C2661 C2657 1.308 . S
C2661 C2660 1.394 . S
C2661 H2671 0.929 . S
C2662 Tb2633 2.764 . S
C2662 O2646 1.239 . S
C2662 O2647 1.263 . S
C2662 C2656 1.504 . S
C2663 O2648 1.236 . S
C2663 O2649 1.257 . S
H2664 C2637 0.932 . S
H2665 C2638 0.930 . S
H2666 C2639 0.932 . S
H2667 C2640 0.929 . S
H2668 C2658 0.932 . S
H2669 C2659 0.930 . S
H2670 C2660 0.932 . S
H2671 C2661 0.929 . S
Tb2672 C2681 2.764 . S
Tb2672 O2682 2.325 . S
Tb2672 O2685 2.303 . S
Tb2672 O2689 2.322 . S
Tb2672 O2690 2.349 . S
Tb2672 O2693 2.415 . S
Tb2672 O2694 2.399 . S
Tb2673 O2683 2.322 . S
Tb2673 O2684 2.349 . S
Tb2673 O2686 2.415 . S
Tb2673 O2687 2.399 . S
Tb2673 O2688 2.325 . S
Tb2673 O2691 2.303 . S
Tb2673 C2702 2.764 . S
C2674 O2690 1.261 . S
C2674 O2691 1.257 . S
C2675 C2678 1.358 . S
C2675 C2679 1.332 . S
C2675 C2681 1.504 . S
C2676 C2677 1.373 . S
C2676 C2680 1.308 . S
C2677 C2676 1.373 . S
C2677 C2678 1.429 . S
C2677 H2704 0.932 . S
C2678 C2675 1.358 . S
C2678 C2677 1.429 . S
C2678 H2705 0.930 . S
C2679 C2675 1.332 . S
C2679 C2680 1.394 . S
C2679 H2706 0.932 . S
C2680 C2676 1.308 . S
C2680 C2679 1.394 . S
C2680 H2707 0.929 . S
C2681 Tb2672 2.764 . S
C2681 C2675 1.504 . S
C2681 O2693 1.239 . S
C2681 O2694 1.263 . S
O2682 Tb2672 2.325 . S
O2682 C2692 1.236 . S
O2683 Tb2673 2.322 . S
O2683 C2692 1.257 . S
O2684 Tb2673 2.349 . S
O2684 C2695 1.261 . S
O2685 Tb2672 2.303 . S
O2685 C2695 1.257 . S
O2686 Tb2673 2.415 . S
O2686 C2702 1.239 . S
O2687 Tb2673 2.399 . S
O2687 C2702 1.263 . S
O2688 Tb2673 2.325 . S
O2688 C2703 1.236 . S
O2689 Tb2672 2.322 . S
O2689 C2703 1.257 . S
O2690 Tb2672 2.349 . S
O2690 C2674 1.261 . S
O2691 Tb2673 2.303 . S
O2691 C2674 1.257 . S
C2692 O2682 1.236 . S
C2692 O2683 1.257 . S
O2693 Tb2672 2.415 . S
O2693 C2681 1.239 . S
O2694 Tb2672 2.399 . S
O2694 C2681 1.263 . S
C2695 O2684 1.261 . S
C2695 O2685 1.257 . S
C2696 C2699 1.358 . S
C2696 C2700 1.332 . S
C2696 C2702 1.504 . S
C2697 C2698 1.373 . S
C2697 C2701 1.308 . S
C2698 C2697 1.373 . S
C2698 C2699 1.429 . S
C2698 H2708 0.932 . S
C2699 C2696 1.358 . S
C2699 C2698 1.429 . S
C2699 H2709 0.930 . S
C2700 C2696 1.332 . S
C2700 C2701 1.394 . S
C2700 H2710 0.932 . S
C2701 C2697 1.308 . S
C2701 C2700 1.394 . S
C2701 H2711 0.929 . S
C2702 Tb2673 2.764 . S
C2702 O2686 1.239 . S
C2702 O2687 1.263 . S
C2702 C2696 1.504 . S
C2703 O2688 1.236 . S
C2703 O2689 1.257 . S
H2704 C2677 0.932 . S
H2705 C2678 0.930 . S
H2706 C2679 0.932 . S
H2707 C2680 0.929 . S
H2708 C2698 0.932 . S
H2709 C2699 0.930 . S
H2710 C2700 0.932 . S
H2711 C2701 0.929 . S
Tb2712 C2721 2.764 1_455 S
Tb2712 O2722 2.325 . S
Tb2712 O2725 2.303 . S
Tb2712 O2729 2.322 . S
Tb2712 O2730 2.349 . S
Tb2712 O2733 2.415 1_455 S
Tb2712 O2734 2.399 1_455 S
Tb2713 O2723 2.322 . S
Tb2713 O2724 2.349 1_554 S
Tb2713 O2726 2.415 . S
Tb2713 O2727 2.399 1_554 S
Tb2713 O2728 2.325 . S
Tb2713 O2731 2.303 . S
Tb2713 C2742 2.764 . S
C2714 O2730 1.261 . S
C2714 O2731 1.257 . S
C2715 C2718 1.358 . S
C2715 C2719 1.332 . S
C2715 C2721 1.504 . S
C2716 C2717 1.373 . S
C2716 C2720 1.308 . S
C2717 C2716 1.373 . S
C2717 C2718 1.429 . S
C2717 H2744 0.932 . S
C2718 C2715 1.358 . S
C2718 C2717 1.429 . S
C2718 H2745 0.930 . S
C2719 C2715 1.332 . S
C2719 C2720 1.394 . S
C2719 H2746 0.932 . S
C2720 C2716 1.308 . S
C2720 C2719 1.394 . S
C2720 H2747 0.929 . S
C2721 Tb2712 2.764 1_655 S
C2721 C2715 1.504 . S
C2721 O2733 1.239 . S
C2721 O2734 1.263 . S
O2722 Tb2712 2.325 . S
O2722 C2732 1.236 . S
O2723 Tb2713 2.322 . S
O2723 C2732 1.257 . S
O2724 Tb2713 2.349 1_556 S
O2724 C2735 1.261 . S
O2725 Tb2712 2.303 . S
O2725 C2735 1.257 1_554 S
O2726 Tb2713 2.415 . S
O2726 C2742 1.239 . S
O2727 Tb2713 2.399 1_556 S
O2727 C2742 1.263 1_556 S
O2728 Tb2713 2.325 . S
O2728 C2743 1.236 . S
O2729 Tb2712 2.322 . S
O2729 C2743 1.257 . S
O2730 Tb2712 2.349 . S
O2730 C2714 1.261 . S
O2731 Tb2713 2.303 . S
O2731 C2714 1.257 . S
C2732 O2722 1.236 . S
C2732 O2723 1.257 . S
O2733 Tb2712 2.415 1_655 S
O2733 C2721 1.239 . S
O2734 Tb2712 2.399 1_655 S
O2734 C2721 1.263 . S
C2735 O2724 1.261 . S
C2735 O2725 1.257 1_556 S
C2736 C2739 1.358 1_554 S
C2736 C2740 1.332 . S
C2736 C2742 1.504 . S
C2737 C2738 1.374 . S
C2737 C2741 1.307 1_556 S
C2738 C2737 1.374 . S
C2738 C2739 1.429 . S
C2738 H2748 0.932 . S
C2739 C2736 1.358 1_556 S
C2739 C2738 1.429 . S
C2739 H2749 0.930 . S
C2740 C2736 1.332 . S
C2740 C2741 1.394 . S
C2740 H2750 0.932 . S
C2741 C2737 1.307 1_554 S
C2741 C2740 1.394 . S
C2741 H2751 0.929 . S
C2742 Tb2713 2.764 . S
C2742 O2726 1.239 . S
C2742 O2727 1.263 1_554 S
C2742 C2736 1.504 . S
C2743 O2728 1.236 . S
C2743 O2729 1.257 . S
H2744 C2717 0.932 . S
H2745 C2718 0.930 . S
H2746 C2719 0.932 . S
H2747 C2720 0.929 . S
H2748 C2738 0.932 . S
H2749 C2739 0.930 . S
H2750 C2740 0.932 . S
H2751 C2741 0.929 . S
H2752 C2760 0.929 . S
H2753 C2762 0.930 . S
H2754 C2764 0.930 . S
H2755 C2767 0.928 . S
H2756 C2770 0.930 . S
H2757 C2772 0.960 . S
H2758 C2772 0.960 . S
H2759 C2772 0.960 . S
C2760 H2752 0.929 . S
C2760 C2761 1.377 . S
C2760 C2762 1.384 . S
C2761 C2760 1.377 . S
C2761 C2767 1.408 . S
C2762 H2753 0.930 . S
C2762 C2760 1.384 . S
C2762 C2763 1.372 1_655 S
C2763 C2762 1.372 1_455 S
C2763 C2764 1.400 . S
C2763 C2768 1.490 . S
C2764 H2754 0.930 . S
C2764 C2763 1.400 . S
C2764 C2767 1.370 1_455 S
H2765 C2781 0.930 . S
H2766 C2782 0.931 . S
C2767 H2755 0.928 . S
C2767 C2761 1.408 . S
C2767 C2764 1.370 1_655 S
C2768 C2763 1.490 . S
C2768 C2770 1.395 1_455 S
C2768 C2771 1.403 . S
H2769 C2775 0.930 . S
C2770 H2756 0.930 . S
C2770 C2768 1.395 1_655 S
C2770 C2773 1.403 . S
C2771 C2768 1.403 . S
C2771 C2772 1.524 . S
C2771 C2775 1.400 . S
C2772 H2757 0.960 . S
C2772 H2758 0.960 . S
C2772 H2759 0.960 . S
C2772 C2771 1.524 . S
C2773 C2770 1.403 . S
C2773 C2774 1.392 1_655 S
C2773 C2777 1.495 1_556 S
C2774 C2773 1.392 1_455 S
C2774 C2775 1.385 . S
C2774 C2776 1.495 . S
C2775 H2769 0.930 . S
C2775 C2771 1.400 . S
C2775 C2774 1.385 . S
C2776 C2774 1.495 . S
C2776 C2778 1.336 1_556 S
C2776 C2782 1.411 . S
C2777 C2773 1.495 1_554 S
C2777 H2783 0.959 . S
C2777 H2784 0.961 1_554 S
C2777 H2785 0.960 . S
C2778 C2776 1.336 1_554 S
C2778 C2779 1.394 . S
C2778 H2786 0.930 . S
C2779 C2778 1.394 . S
C2779 C2780 1.383 . S
C2779 H2787 0.929 . S
C2780 C2779 1.383 . S
C2780 C2781 1.377 1_554 S
C2781 H2765 0.930 . S
C2781 C2780 1.377 1_556 S
C2781 C2782 1.379 . S
C2782 H2766 0.931 . S
C2782 C2776 1.411 . S
C2782 C2781 1.379 . S
H2783 C2777 0.959 . S
H2784 C2777 0.961 1_556 S
H2785 C2777 0.960 . S
H2786 C2778 0.930 . S
H2787 C2779 0.929 . S
H2788 C2796 0.929 . S
H2789 C2798 0.930 . S
H2790 C2800 0.930 . S
H2791 C2803 0.929 . S
H2792 C2806 0.930 . S
H2793 C2808 0.960 . S
H2794 C2808 0.960 . S
H2795 C2808 0.960 . S
C2796 H2788 0.929 . S
C2796 C2797 1.377 . S
C2796 C2798 1.384 . S
C2797 C2796 1.377 . S
C2797 C2803 1.390 . S
C2798 H2789 0.930 . S
C2798 C2796 1.384 . S
C2798 C2799 1.372 . S
C2799 C2798 1.372 . S
C2799 C2800 1.400 . S
C2799 C2804 1.490 . S
C2800 H2790 0.930 . S
C2800 C2799 1.400 . S
C2800 C2803 1.386 . S
H2801 C2817 0.930 . S
H2802 C2818 0.931 . S
C2803 H2791 0.929 . S
C2803 C2797 1.390 . S
C2803 C2800 1.386 . S
C2804 C2799 1.490 . S
C2804 C2806 1.395 . S
C2804 C2807 1.403 . S
H2805 C2811 0.930 . S
C2806 H2792 0.930 . S
C2806 C2804 1.395 . S
C2806 C2809 1.403 . S
C2807 C2804 1.403 . S
C2807 C2808 1.524 . S
C2807 C2811 1.400 . S
C2808 H2793 0.960 . S
C2808 H2794 0.960 . S
C2808 H2795 0.960 . S
C2808 C2807 1.524 . S
C2809 C2806 1.403 . S
C2809 C2810 1.392 . S
C2809 C2813 1.495 . S
C2810 C2809 1.392 . S
C2810 C2811 1.385 . S
C2810 C2812 1.478 . S
C2811 H2805 0.930 . S
C2811 C2807 1.400 . S
C2811 C2810 1.385 . S
C2812 C2810 1.478 . S
C2812 C2814 1.381 . S
C2812 C2818 1.383 . S
C2813 C2809 1.495 . S
C2813 H2819 0.959 . S
C2813 H2820 0.961 . S
C2813 H2821 0.960 . S
C2814 C2812 1.381 . S
C2814 C2815 1.394 . S
C2814 H2822 0.930 . S
C2815 C2814 1.394 . S
C2815 C2816 1.383 . S
C2815 H2823 0.929 . S
C2816 C2815 1.383 . S
C2816 C2817 1.377 . S
C2817 H2801 0.930 . S
C2817 C2816 1.377 . S
C2817 C2818 1.379 . S
C2818 H2802 0.931 . S
C2818 C2812 1.383 . S
C2818 C2817 1.379 . S
H2819 C2813 0.959 . S
H2820 C2813 0.961 . S
H2821 C2813 0.960 . S
H2822 C2814 0.930 . S
H2823 C2815 0.929 . S
H2824 C2832 0.929 . S
H2825 C2834 0.930 . S
H2826 C2836 0.930 . S
H2827 C2839 0.929 . S
H2828 C2842 0.930 . S
H2829 C2844 0.960 . S
H2830 C2844 0.960 . S
H2831 C2844 0.960 . S
C2832 H2824 0.929 . S
C2832 C2833 1.377 . S
C2832 C2834 1.384 . S
C2833 C2832 1.377 . S
C2833 C2839 1.390 . S
C2834 H2825 0.930 . S
C2834 C2832 1.384 . S
C2834 C2835 1.372 . S
C2835 C2834 1.372 . S
C2835 C2836 1.400 . S
C2835 C2840 1.490 . S
C2836 H2826 0.930 . S
C2836 C2835 1.400 . S
C2836 C2839 1.386 . S
H2837 C2853 0.930 . S
H2838 C2854 0.931 . S
C2839 H2827 0.929 . S
C2839 C2833 1.390 . S
C2839 C2836 1.386 . S
C2840 C2835 1.490 . S
C2840 C2842 1.395 . S
C2840 C2843 1.403 . S
H2841 C2847 0.930 . S
C2842 H2828 0.930 . S
C2842 C2840 1.395 . S
C2842 C2845 1.403 . S
C2843 C2840 1.403 . S
C2843 C2844 1.524 . S
C2843 C2847 1.400 . S
C2844 H2829 0.960 . S
C2844 H2830 0.960 . S
C2844 H2831 0.960 . S
C2844 C2843 1.524 . S
C2845 C2842 1.403 . S
C2845 C2846 1.392 . S
C2845 C2849 1.495 . S
C2846 C2845 1.392 . S
C2846 C2847 1.385 . S
C2846 C2848 1.478 . S
C2847 H2841 0.930 . S
C2847 C2843 1.400 . S
C2847 C2846 1.385 . S
C2848 C2846 1.478 . S
C2848 C2850 1.381 . S
C2848 C2854 1.383 . S
C2849 C2845 1.495 . S
C2849 H2855 0.959 . S
C2849 H2856 0.961 . S
C2849 H2857 0.960 . S
C2850 C2848 1.381 . S
C2850 C2851 1.394 . S
C2850 H2858 0.930 . S
C2851 C2850 1.394 . S
C2851 C2852 1.383 . S
C2851 H2859 0.929 . S
C2852 C2851 1.383 . S
C2852 C2853 1.377 . S
C2853 H2837 0.930 . S
C2853 C2852 1.377 . S
C2853 C2854 1.379 . S
C2854 H2838 0.931 . S
C2854 C2848 1.383 . S
C2854 C2853 1.379 . S
H2855 C2849 0.959 . S
H2856 C2849 0.961 . S
H2857 C2849 0.960 . S
H2858 C2850 0.930 . S
H2859 C2851 0.929 . S
H2860 C2868 0.929 . S
H2861 C2870 0.930 . S
H2862 C2872 0.930 . S
H2863 C2875 0.929 . S
H2864 C2878 0.930 . S
H2865 C2880 0.960 . S
H2866 C2880 0.960 . S
H2867 C2880 0.960 . S
C2868 H2860 0.929 . S
C2868 C2869 1.377 . S
C2868 C2870 1.384 . S
C2869 C2868 1.377 . S
C2869 C2875 1.390 . S
C2870 H2861 0.930 . S
C2870 C2868 1.384 . S
C2870 C2871 1.372 . S
C2871 C2870 1.372 . S
C2871 C2872 1.400 . S
C2871 C2876 1.490 . S
C2872 H2862 0.930 . S
C2872 C2871 1.400 . S
C2872 C2875 1.386 . S
H2873 C2889 0.930 . S
H2874 C2890 0.931 . S
C2875 H2863 0.929 . S
C2875 C2869 1.390 . S
C2875 C2872 1.386 . S
C2876 C2871 1.490 . S
C2876 C2878 1.395 . S
C2876 C2879 1.403 . S
H2877 C2883 0.930 . S
C2878 H2864 0.930 . S
C2878 C2876 1.395 . S
C2878 C2881 1.403 . S
C2879 C2876 1.403 . S
C2879 C2880 1.524 . S
C2879 C2883 1.400 . S
C2880 H2865 0.960 . S
C2880 H2866 0.960 . S
C2880 H2867 0.960 . S
C2880 C2879 1.524 . S
C2881 C2878 1.403 . S
C2881 C2882 1.392 . S
C2881 C2885 1.495 . S
C2882 C2881 1.392 . S
C2882 C2883 1.385 . S
C2882 C2884 1.478 . S
C2883 H2877 0.930 . S
C2883 C2879 1.400 . S
C2883 C2882 1.385 . S
C2884 C2882 1.478 . S
C2884 C2886 1.381 . S
C2884 C2890 1.383 . S
C2885 C2881 1.495 . S
C2885 H2891 0.959 . S
C2885 H2892 0.961 . S
C2885 H2893 0.960 . S
C2886 C2884 1.381 . S
C2886 C2887 1.394 . S
C2886 H2894 0.930 . S
C2887 C2886 1.394 . S
C2887 C2888 1.383 . S
C2887 H2895 0.929 . S
C2888 C2887 1.383 . S
C2888 C2889 1.377 . S
C2889 H2873 0.930 . S
C2889 C2888 1.377 . S
C2889 C2890 1.379 . S
C2890 H2874 0.931 . S
C2890 C2884 1.383 . S
C2890 C2889 1.379 . S
H2891 C2885 0.959 . S
H2892 C2885 0.961 . S
H2893 C2885 0.960 . S
H2894 C2886 0.930 . S
H2895 C2887 0.929 . S
H2896 C2904 0.929 . S
H2897 C2906 0.930 . S
H2898 C2908 0.930 . S
H2899 C2911 0.929 . S
H2900 C2914 0.930 . S
H2901 C2916 0.960 . S
H2902 C2916 0.960 . S
H2903 C2916 0.960 . S
C2904 H2896 0.929 . S
C2904 C2905 1.377 . S
C2904 C2906 1.384 . S
C2905 C2904 1.377 . S
C2905 C2911 1.390 . S
C2906 H2897 0.930 . S
C2906 C2904 1.384 . S
C2906 C2907 1.372 . S
C2907 C2906 1.372 . S
C2907 C2908 1.400 . S
C2907 C2912 1.490 . S
C2908 H2898 0.930 . S
C2908 C2907 1.400 . S
C2908 C2911 1.386 . S
H2909 C2925 0.930 . S
H2910 C2926 0.931 . S
C2911 H2899 0.929 . S
C2911 C2905 1.390 . S
C2911 C2908 1.386 . S
C2912 C2907 1.490 . S
C2912 C2914 1.395 . S
C2912 C2915 1.403 . S
H2913 C2919 0.930 . S
C2914 H2900 0.930 . S
C2914 C2912 1.395 . S
C2914 C2917 1.403 . S
C2915 C2912 1.403 . S
C2915 C2916 1.524 . S
C2915 C2919 1.400 . S
C2916 H2901 0.960 . S
C2916 H2902 0.960 . S
C2916 H2903 0.960 . S
C2916 C2915 1.524 . S
C2917 C2914 1.403 . S
C2917 C2918 1.392 . S
C2917 C2921 1.495 . S
C2918 C2917 1.392 . S
C2918 C2919 1.385 . S
C2918 C2920 1.478 . S
C2919 H2913 0.930 . S
C2919 C2915 1.400 . S
C2919 C2918 1.385 . S
C2920 C2918 1.478 . S
C2920 C2922 1.381 . S
C2920 C2926 1.383 . S
C2921 C2917 1.495 . S
C2921 H2927 0.959 . S
C2921 H2928 0.961 . S
C2921 H2929 0.960 . S
C2922 C2920 1.381 . S
C2922 C2923 1.394 . S
C2922 H2930 0.930 . S
C2923 C2922 1.394 . S
C2923 C2924 1.383 . S
C2923 H2931 0.929 . S
C2924 C2923 1.383 . S
C2924 C2925 1.377 . S
C2925 H2909 0.930 . S
C2925 C2924 1.377 . S
C2925 C2926 1.379 . S
C2926 H2910 0.931 . S
C2926 C2920 1.383 . S
C2926 C2925 1.379 . S
H2927 C2921 0.959 . S
H2928 C2921 0.961 . S
H2929 C2921 0.960 . S
H2930 C2922 0.930 . S
H2931 C2923 0.929 . S
H2932 C2940 0.929 . S
H2933 C2942 0.930 . S
H2934 C2944 0.930 . S
H2935 C2947 0.929 . S
H2936 C2950 0.930 . S
H2937 C2952 0.960 . S
H2938 C2952 0.960 . S
H2939 C2952 0.960 . S
C2940 H2932 0.929 . S
C2940 C2941 1.377 . S
C2940 C2942 1.384 . S
C2941 C2940 1.377 . S
C2941 C2947 1.390 . S
C2942 H2933 0.930 . S
C2942 C2940 1.384 . S
C2942 C2943 1.372 . S
C2943 C2942 1.372 . S
C2943 C2944 1.400 . S
C2943 C2948 1.490 . S
C2944 H2934 0.930 . S
C2944 C2943 1.400 . S
C2944 C2947 1.386 . S
H2945 C2961 0.930 . S
H2946 C2962 0.931 . S
C2947 H2935 0.929 . S
C2947 C2941 1.390 . S
C2947 C2944 1.386 . S
C2948 C2943 1.490 . S
C2948 C2950 1.395 . S
C2948 C2951 1.403 . S
H2949 C2955 0.930 . S
C2950 H2936 0.930 . S
C2950 C2948 1.395 . S
C2950 C2953 1.403 . S
C2951 C2948 1.403 . S
C2951 C2952 1.524 . S
C2951 C2955 1.400 . S
C2952 H2937 0.960 . S
C2952 H2938 0.960 . S
C2952 H2939 0.960 . S
C2952 C2951 1.524 . S
C2953 C2950 1.403 . S
C2953 C2954 1.392 . S
C2953 C2957 1.495 . S
C2954 C2953 1.392 . S
C2954 C2955 1.385 . S
C2954 C2956 1.478 . S
C2955 H2949 0.930 . S
C2955 C2951 1.400 . S
C2955 C2954 1.385 . S
C2956 C2954 1.478 . S
C2956 C2958 1.381 . S
C2956 C2962 1.383 . S
C2957 C2953 1.495 . S
C2957 H2963 0.959 . S
C2957 H2964 0.961 . S
C2957 H2965 0.960 . S
C2958 C2956 1.381 . S
C2958 C2959 1.394 . S
C2958 H2966 0.930 . S
C2959 C2958 1.394 . S
C2959 C2960 1.383 . S
C2959 H2967 0.929 . S
C2960 C2959 1.383 . S
C2960 C2961 1.377 . S
C2961 H2945 0.930 . S
C2961 C2960 1.377 . S
C2961 C2962 1.379 . S
C2962 H2946 0.931 . S
C2962 C2956 1.383 . S
C2962 C2961 1.379 . S
H2963 C2957 0.959 . S
H2964 C2957 0.961 . S
H2965 C2957 0.960 . S
H2966 C2958 0.930 . S
H2967 C2959 0.929 . S
H2968 C2976 0.929 . S
H2969 C2978 0.930 . S
H2970 C2980 0.930 . S
H2971 C2983 0.929 . S
H2972 C2986 0.930 . S
H2973 C2988 0.960 . S
H2974 C2988 0.960 . S
H2975 C2988 0.960 . S
C2976 H2968 0.929 . S
C2976 C2977 1.377 . S
C2976 C2978 1.384 . S
C2977 C2976 1.377 . S
C2977 C2983 1.390 . S
C2978 H2969 0.930 . S
C2978 C2976 1.384 . S
C2978 C2979 1.372 . S
C2979 C2978 1.372 . S
C2979 C2980 1.400 . S
C2979 C2984 1.490 . S
C2980 H2970 0.930 . S
C2980 C2979 1.400 . S
C2980 C2983 1.386 . S
H2981 C2997 0.930 . S
H2982 C2998 0.931 . S
C2983 H2971 0.929 . S
C2983 C2977 1.390 . S
C2983 C2980 1.386 . S
C2984 C2979 1.490 . S
C2984 C2986 1.395 . S
C2984 C2987 1.403 . S
H2985 C2991 0.930 . S
C2986 H2972 0.930 . S
C2986 C2984 1.395 . S
C2986 C2989 1.403 . S
C2987 C2984 1.403 . S
C2987 C2988 1.524 . S
C2987 C2991 1.400 . S
C2988 H2973 0.960 . S
C2988 H2974 0.960 . S
C2988 H2975 0.960 . S
C2988 C2987 1.524 . S
C2989 C2986 1.403 . S
C2989 C2990 1.392 . S
C2989 C2993 1.495 . S
C2990 C2989 1.392 . S
C2990 C2991 1.385 . S
C2990 C2992 1.478 . S
C2991 H2985 0.930 . S
C2991 C2987 1.400 . S
C2991 C2990 1.385 . S
C2992 C2990 1.478 . S
C2992 C2994 1.381 . S
C2992 C2998 1.383 . S
C2993 C2989 1.495 . S
C2993 H2999 0.959 . S
C2993 H3000 0.961 . S
C2993 H3001 0.960 . S
C2994 C2992 1.381 . S
C2994 C2995 1.394 . S
C2994 H3002 0.930 . S
C2995 C2994 1.394 . S
C2995 C2996 1.383 . S
C2995 H3003 0.929 . S
C2996 C2995 1.383 . S
C2996 C2997 1.377 . S
C2997 H2981 0.930 . S
C2997 C2996 1.377 . S
C2997 C2998 1.379 . S
C2998 H2982 0.931 . S
C2998 C2992 1.383 . S
C2998 C2997 1.379 . S
H2999 C2993 0.959 . S
H3000 C2993 0.961 . S
H3001 C2993 0.960 . S
H3002 C2994 0.930 . S
H3003 C2995 0.929 . S
H3004 C3012 0.929 . S
H3005 C3014 0.930 . S
H3006 C3016 0.930 . S
H3007 C3019 0.929 . S
H3008 C3022 0.930 . S
H3009 C3024 0.960 . S
H3010 C3024 0.960 . S
H3011 C3024 0.960 . S
C3012 H3004 0.929 . S
C3012 C3013 1.377 . S
C3012 C3014 1.384 . S
C3013 C3012 1.377 . S
C3013 C3019 1.390 . S
C3014 H3005 0.930 . S
C3014 C3012 1.384 . S
C3014 C3015 1.372 . S
C3015 C3014 1.372 . S
C3015 C3016 1.400 . S
C3015 C3020 1.490 . S
C3016 H3006 0.930 . S
C3016 C3015 1.400 . S
C3016 C3019 1.386 . S
H3017 C3033 0.930 . S
H3018 C3034 0.931 . S
C3019 H3007 0.929 . S
C3019 C3013 1.390 . S
C3019 C3016 1.386 . S
C3020 C3015 1.490 . S
C3020 C3022 1.395 . S
C3020 C3023 1.403 . S
H3021 C3027 0.930 . S
C3022 H3008 0.930 . S
C3022 C3020 1.395 . S
C3022 C3025 1.403 . S
C3023 C3020 1.403 . S
C3023 C3024 1.524 . S
C3023 C3027 1.400 . S
C3024 H3009 0.960 . S
C3024 H3010 0.960 . S
C3024 H3011 0.960 . S
C3024 C3023 1.524 . S
C3025 C3022 1.403 . S
C3025 C3026 1.392 . S
C3025 C3029 1.495 . S
C3026 C3025 1.392 . S
C3026 C3027 1.385 . S
C3026 C3028 1.478 . S
C3027 H3021 0.930 . S
C3027 C3023 1.400 . S
C3027 C3026 1.385 . S
C3028 C3026 1.478 . S
C3028 C3030 1.381 . S
C3028 C3034 1.383 . S
C3029 C3025 1.495 . S
C3029 H3035 0.959 . S
C3029 H3036 0.961 . S
C3029 H3037 0.960 . S
C3030 C3028 1.381 . S
C3030 C3031 1.394 . S
C3030 H3038 0.930 . S
C3031 C3030 1.394 . S
C3031 C3032 1.383 . S
C3031 H3039 0.929 . S
C3032 C3031 1.383 . S
C3032 C3033 1.377 . S
C3033 H3017 0.930 . S
C3033 C3032 1.377 . S
C3033 C3034 1.379 . S
C3034 H3018 0.931 . S
C3034 C3028 1.383 . S
C3034 C3033 1.379 . S
H3035 C3029 0.959 . S
H3036 C3029 0.961 . S
H3037 C3029 0.960 . S
H3038 C3030 0.930 . S
H3039 C3031 0.929 . S
H3040 C3048 0.929 . S
H3041 C3050 0.930 . S
H3042 C3052 0.930 . S
H3043 C3055 0.929 . S
H3044 C3058 0.930 . S
H3045 C3060 0.960 . S
H3046 C3060 0.960 . S
H3047 C3060 0.960 . S
C3048 H3040 0.929 . S
C3048 C3049 1.377 . S
C3048 C3050 1.384 . S
C3049 C3048 1.377 . S
C3049 C3055 1.390 . S
C3050 H3041 0.930 . S
C3050 C3048 1.384 . S
C3050 C3051 1.372 . S
C3051 C3050 1.372 . S
C3051 C3052 1.400 . S
C3051 C3056 1.490 . S
C3052 H3042 0.930 . S
C3052 C3051 1.400 . S
C3052 C3055 1.386 . S
H3053 C3069 0.930 . S
H3054 C3070 0.931 . S
C3055 H3043 0.929 . S
C3055 C3049 1.390 . S
C3055 C3052 1.386 . S
C3056 C3051 1.490 . S
C3056 C3058 1.395 . S
C3056 C3059 1.403 . S
H3057 C3063 0.930 . S
C3058 H3044 0.930 . S
C3058 C3056 1.395 . S
C3058 C3061 1.403 1_655 S
C3059 C3056 1.403 . S
C3059 C3060 1.524 1_545 S
C3059 C3063 1.400 . S
C3060 H3045 0.960 . S
C3060 H3046 0.960 . S
C3060 H3047 0.960 . S
C3060 C3059 1.524 1_565 S
C3061 C3058 1.403 1_455 S
C3061 C3062 1.392 1_455 S
C3061 C3065 1.495 . S
C3062 C3061 1.392 1_655 S
C3062 C3063 1.385 . S
C3062 C3064 1.478 1_655 S
C3063 H3057 0.930 . S
C3063 C3059 1.400 . S
C3063 C3062 1.385 . S
C3064 C3062 1.478 1_455 S
C3064 C3066 1.381 . S
C3064 C3070 1.383 . S
C3065 C3061 1.495 . S
C3065 H3071 0.959 . S
C3065 H3072 0.961 . S
C3065 H3073 0.960 . S
C3066 C3064 1.381 . S
C3066 C3067 1.394 . S
C3066 H3074 0.930 1_455 S
C3067 C3066 1.394 . S
C3067 C3068 1.383 . S
C3067 H3075 0.929 . S
C3068 C3067 1.383 . S
C3068 C3069 1.377 . S
C3069 H3053 0.930 . S
C3069 C3068 1.377 . S
C3069 C3070 1.379 . S
C3070 H3054 0.931 . S
C3070 C3064 1.383 . S
C3070 C3069 1.379 . S
H3071 C3065 0.959 . S
H3072 C3065 0.961 . S
H3073 C3065 0.960 . S
H3074 C3066 0.930 1_655 S
H3075 C3067 0.929 . S
H3076 C3084 0.929 . S
H3077 C3086 0.930 . S
H3078 C3088 0.930 . S
H3079 C3091 0.929 . S
H3080 C3094 0.930 . S
H3081 C3096 0.960 . S
H3082 C3096 0.960 . S
H3083 C3096 0.960 . S
C3084 H3076 0.929 . S
C3084 C3085 1.377 . S
C3084 C3086 1.384 . S
C3085 C3084 1.377 . S
C3085 C3091 1.390 . S
C3086 H3077 0.930 . S
C3086 C3084 1.384 . S
C3086 C3087 1.372 . S
C3087 C3086 1.372 . S
C3087 C3088 1.400 . S
C3087 C3092 1.490 . S
C3088 H3078 0.930 . S
C3088 C3087 1.400 . S
C3088 C3091 1.386 . S
H3089 C3105 0.930 . S
H3090 C3106 0.931 . S
C3091 H3079 0.929 . S
C3091 C3085 1.390 . S
C3091 C3088 1.386 . S
C3092 C3087 1.490 . S
C3092 C3094 1.395 . S
C3092 C3095 1.403 . S
H3093 C3099 0.930 . S
C3094 H3080 0.930 . S
C3094 C3092 1.395 . S
C3094 C3097 1.403 . S
C3095 C3092 1.403 . S
C3095 C3096 1.524 . S
C3095 C3099 1.400 . S
C3096 H3081 0.960 . S
C3096 H3082 0.960 . S
C3096 H3083 0.960 . S
C3096 C3095 1.524 . S
C3097 C3094 1.403 . S
C3097 C3098 1.392 . S
C3097 C3101 1.495 . S
C3098 C3097 1.392 . S
C3098 C3099 1.385 . S
C3098 C3100 1.478 . S
C3099 H3093 0.930 . S
C3099 C3095 1.400 . S
C3099 C3098 1.385 . S
C3100 C3098 1.478 . S
C3100 C3102 1.381 . S
C3100 C3106 1.383 . S
C3101 C3097 1.495 . S
C3101 H3107 0.959 . S
C3101 H3108 0.961 . S
C3101 H3109 0.960 . S
C3102 C3100 1.381 . S
C3102 C3103 1.394 . S
C3102 H3110 0.930 . S
C3103 C3102 1.394 . S
C3103 C3104 1.383 . S
C3103 H3111 0.929 . S
C3104 C3103 1.383 . S
C3104 C3105 1.377 . S
C3105 H3089 0.930 . S
C3105 C3104 1.377 . S
C3105 C3106 1.379 . S
C3106 H3090 0.931 . S
C3106 C3100 1.383 . S
C3106 C3105 1.379 . S
H3107 C3101 0.959 . S
H3108 C3101 0.961 . S
H3109 C3101 0.960 . S
H3110 C3102 0.930 . S
H3111 C3103 0.929 . S
H3112 C3120 0.929 . S
H3113 C3122 0.930 . S
H3114 C3124 0.930 . S
H3115 C3127 0.929 . S
H3116 C3130 0.930 . S
H3117 C3132 0.960 . S
H3118 C3132 0.960 . S
H3119 C3132 0.960 . S
C3120 H3112 0.929 . S
C3120 C3121 1.372 1_565 S
C3120 C3122 1.384 . S
C3121 C3120 1.372 1_545 S
C3121 C3127 1.399 . S
C3122 H3113 0.930 . S
C3122 C3120 1.384 . S
C3122 C3123 1.372 1_565 S
C3123 C3122 1.372 1_545 S
C3123 C3124 1.400 . S
C3123 C3128 1.490 . S
C3124 H3114 0.930 . S
C3124 C3123 1.400 . S
C3124 C3127 1.386 . S
H3125 C3141 0.930 . S
H3126 C3142 0.931 . S
C3127 H3115 0.929 . S
C3127 C3121 1.399 . S
C3127 C3124 1.386 . S
C3128 C3123 1.490 . S
C3128 C3130 1.395 1_545 S
C3128 C3131 1.403 . S
H3129 C3135 0.930 . S
C3130 H3116 0.930 . S
C3130 C3128 1.395 1_565 S
C3130 C3133 1.403 . S
C3131 C3128 1.403 . S
C3131 C3132 1.524 . S
C3131 C3135 1.400 . S
C3132 H3117 0.960 . S
C3132 H3118 0.960 . S
C3132 H3119 0.960 . S
C3132 C3131 1.524 . S
C3133 C3130 1.403 . S
C3133 C3134 1.392 1_565 S
C3133 C3137 1.495 . S
C3134 C3133 1.392 1_545 S
C3134 C3135 1.385 . S
C3134 C3136 1.478 . S
C3135 H3129 0.930 . S
C3135 C3131 1.400 . S
C3135 C3134 1.385 . S
C3136 C3134 1.478 . S
C3136 C3138 1.381 . S
C3136 C3142 1.383 . S
C3137 C3133 1.495 . S
C3137 H3143 0.959 . S
C3137 H3144 0.961 . S
C3137 H3145 0.960 . S
C3138 C3136 1.381 . S
C3138 C3139 1.394 . S
C3138 H3146 0.897 1_545 S
C3139 C3138 1.394 . S
C3139 C3140 1.383 . S
C3139 H3147 0.929 . S
C3140 C3139 1.383 . S
C3140 C3141 1.377 . S
C3141 H3125 0.930 . S
C3141 C3140 1.377 . S
C3141 C3142 1.379 . S
C3142 H3126 0.931 . S
C3142 C3136 1.383 . S
C3142 C3141 1.379 . S
H3143 C3137 0.959 . S
H3144 C3137 0.961 . S
H3145 C3137 0.960 . S
H3146 C3138 0.897 1_565 S
H3147 C3139 0.929 . S
H3148 C3156 0.929 . S
H3149 C3158 0.930 . S
H3150 C3160 0.930 . S
H3151 C3163 0.929 . S
H3152 C3166 0.930 . S
H3153 C3168 0.960 . S
H3154 C3168 0.960 . S
H3155 C3168 0.960 . S
C3156 H3148 0.929 . S
C3156 C3157 1.377 . S
C3156 C3158 1.384 . S
C3157 C3156 1.377 . S
C3157 C3163 1.390 . S
C3158 H3149 0.930 . S
C3158 C3156 1.384 . S
C3158 C3159 1.372 . S
C3159 C3158 1.372 . S
C3159 C3160 1.400 . S
C3159 C3164 1.490 . S
C3160 H3150 0.930 . S
C3160 C3159 1.400 . S
C3160 C3163 1.386 . S
H3161 C3177 0.930 . S
H3162 C3178 0.931 . S
C3163 H3151 0.929 . S
C3163 C3157 1.390 . S
C3163 C3160 1.386 . S
C3164 C3159 1.490 . S
C3164 C3166 1.395 . S
C3164 C3167 1.403 . S
H3165 C3171 0.930 . S
C3166 H3152 0.930 . S
C3166 C3164 1.395 . S
C3166 C3169 1.403 . S
C3167 C3164 1.403 . S
C3167 C3168 1.524 . S
C3167 C3171 1.400 . S
C3168 H3153 0.960 . S
C3168 H3154 0.960 . S
C3168 H3155 0.960 . S
C3168 C3167 1.524 . S
C3169 C3166 1.403 . S
C3169 C3170 1.392 . S
C3169 C3173 1.495 . S
C3170 C3169 1.392 . S
C3170 C3171 1.385 . S
C3170 C3172 1.478 . S
C3171 H3165 0.930 . S
C3171 C3167 1.400 . S
C3171 C3170 1.385 . S
C3172 C3170 1.478 . S
C3172 C3174 1.381 . S
C3172 C3178 1.383 . S
C3173 C3169 1.495 . S
C3173 H3179 0.959 . S
C3173 H3180 0.961 . S
C3173 H3181 0.960 . S
C3174 C3172 1.381 . S
C3174 C3175 1.394 . S
C3174 H3182 0.930 . S
C3175 C3174 1.394 . S
C3175 C3176 1.383 . S
C3175 H3183 0.929 . S
C3176 C3175 1.383 . S
C3176 C3177 1.377 . S
C3177 H3161 0.930 . S
C3177 C3176 1.377 . S
C3177 C3178 1.379 . S
C3178 H3162 0.931 . S
C3178 C3172 1.383 . S
C3178 C3177 1.379 . S
H3179 C3173 0.959 . S
H3180 C3173 0.961 . S
H3181 C3173 0.960 . S
H3182 C3174 0.930 . S
H3183 C3175 0.929 . S
H3184 C3192 0.929 . S
H3185 C3194 0.930 . S
H3186 C3196 0.930 . S
H3187 C3199 0.929 . S
H3188 C3202 0.890 1_455 S
H3189 C3204 0.960 . S
H3190 C3204 0.960 1_565 S
H3191 C3204 0.960 . S
C3192 H3184 0.929 . S
C3192 C3193 1.377 . S
C3192 C3194 1.384 . S
C3193 C3192 1.377 . S
C3193 C3199 1.390 . S
C3194 H3185 0.930 . S
C3194 C3192 1.384 . S
C3194 C3195 1.372 . S
C3195 C3194 1.372 . S
C3195 C3196 1.400 . S
C3195 C3200 1.490 . S
C3196 H3186 0.930 . S
C3196 C3195 1.400 . S
C3196 C3199 1.386 . S
H3197 C3213 0.930 . S
H3198 C3214 0.931 . S
C3199 H3187 0.929 . S
C3199 C3193 1.390 . S
C3199 C3196 1.386 . S
C3200 C3195 1.490 . S
C3200 C3202 1.395 . S
C3200 C3203 1.403 . S
H3201 C3207 0.930 . S
C3202 H3188 0.890 1_655 S
C3202 C3200 1.395 . S
C3202 C3205 1.376 1_655 S
C3203 C3200 1.403 . S
C3203 C3204 1.524 . S
C3203 C3207 1.400 . S
C3204 H3189 0.960 . S
C3204 H3190 0.960 1_545 S
C3204 H3191 0.960 . S
C3204 C3203 1.524 . S
C3205 C3202 1.376 1_455 S
C3205 C3206 1.350 1_455 S
C3205 C3209 1.567 . S
C3206 C3205 1.350 1_655 S
C3206 C3207 1.385 . S
C3206 C3208 1.478 . S
C3207 H3201 0.930 . S
C3207 C3203 1.400 . S
C3207 C3206 1.385 . S
C3208 C3206 1.478 . S
C3208 C3210 1.381 1_655 S
C3208 C3214 1.383 . S
C3209 C3205 1.567 . S
C3209 H3215 0.959 . S
C3209 H3216 0.961 . S
C3209 H3217 0.960 . S
C3210 C3208 1.381 1_455 S
C3210 C3211 1.394 1_545 S
C3210 H3218 0.930 1_545 S
C3211 C3210 1.394 1_565 S
C3211 C3212 1.383 1_565 S
C3211 H3219 0.929 . S
C3212 C3211 1.383 1_545 S
C3212 C3213 1.377 1_455 S
C3213 H3197 0.930 . S
C3213 C3212 1.377 1_655 S
C3213 C3214 1.379 . S
C3214 H3198 0.931 . S
C3214 C3208 1.383 . S
C3214 C3213 1.379 . S
H3215 C3209 0.959 . S
H3216 C3209 0.961 . S
H3217 C3209 0.960 . S
H3218 C3210 0.930 1_565 S
H3219 C3211 0.929 . S
H3220 C3228 0.929 . S
H3221 C3230 0.930 . S
H3222 C3232 0.930 . S
H3223 C3235 0.929 . S
H3224 C3238 0.930 . S
H3225 C3240 0.960 . S
H3226 C3240 0.960 . S
H3227 C3240 0.960 . S
C3228 H3220 0.929 . S
C3228 C3229 1.377 . S
C3228 C3230 1.384 . S
C3229 C3228 1.377 . S
C3229 C3235 1.390 . S
C3230 H3221 0.930 . S
C3230 C3228 1.384 . S
C3230 C3231 1.372 . S
C3231 C3230 1.372 . S
C3231 C3232 1.400 . S
C3231 C3236 1.490 . S
C3232 H3222 0.930 . S
C3232 C3231 1.400 . S
C3232 C3235 1.386 . S
H3233 C3249 0.930 . S
H3234 C3250 0.931 . S
C3235 H3223 0.929 . S
C3235 C3229 1.390 . S
C3235 C3232 1.386 . S
C3236 C3231 1.490 . S
C3236 C3238 1.395 . S
C3236 C3239 1.403 . S
H3237 C3243 0.930 . S
C3238 H3224 0.930 . S
C3238 C3236 1.395 . S
C3238 C3241 1.403 . S
C3239 C3236 1.403 . S
C3239 C3240 1.524 . S
C3239 C3243 1.400 . S
C3240 H3225 0.960 . S
C3240 H3226 0.960 . S
C3240 H3227 0.960 . S
C3240 C3239 1.524 . S
C3241 C3238 1.403 . S
C3241 C3242 1.392 . S
C3241 C3245 1.495 . S
C3242 C3241 1.392 . S
C3242 C3243 1.385 . S
C3242 C3244 1.478 . S
C3243 H3237 0.930 . S
C3243 C3239 1.400 . S
C3243 C3242 1.385 . S
C3244 C3242 1.478 . S
C3244 C3246 1.381 . S
C3244 C3250 1.383 . S
C3245 C3241 1.495 . S
C3245 H3251 0.959 . S
C3245 H3252 0.961 . S
C3245 H3253 0.960 . S
C3246 C3244 1.381 . S
C3246 C3247 1.394 . S
C3246 H3254 0.930 . S
C3247 C3246 1.394 . S
C3247 C3248 1.383 . S
C3247 H3255 0.929 . S
C3248 C3247 1.383 . S
C3248 C3249 1.377 . S
C3249 H3233 0.930 . S
C3249 C3248 1.377 . S
C3249 C3250 1.379 . S
C3250 H3234 0.931 . S
C3250 C3244 1.383 . S
C3250 C3249 1.379 . S
H3251 C3245 0.959 . S
H3252 C3245 0.961 . S
H3253 C3245 0.960 . S
H3254 C3246 0.930 . S
H3255 C3247 0.929 . S
H3256 C3264 0.929 . S
H3257 C3266 0.930 . S
H3258 C3268 0.930 . S
H3259 C3271 0.929 . S
H3260 C3274 0.930 . S
H3261 C3276 0.960 . S
H3262 C3276 0.960 . S
H3263 C3276 0.960 1_565 S
C3264 H3256 0.929 . S
C3264 C3265 1.377 . S
C3264 C3266 1.384 . S
C3265 C3264 1.377 . S
C3265 C3271 1.390 1_545 S
C3266 H3257 0.930 . S
C3266 C3264 1.384 . S
C3266 C3267 1.372 . S
C3267 C3266 1.372 . S
C3267 C3268 1.400 1_545 S
C3267 C3272 1.490 . S
C3268 H3258 0.930 . S
C3268 C3267 1.400 1_565 S
C3268 C3271 1.386 . S
H3269 C3285 0.930 1_565 S
H3270 C3286 0.931 1_565 S
C3271 H3259 0.929 . S
C3271 C3265 1.390 1_565 S
C3271 C3268 1.386 . S
C3272 C3267 1.490 . S
C3272 C3274 1.395 . S
C3272 C3275 1.403 . S
H3273 C3279 0.930 . S
C3274 H3260 0.930 . S
C3274 C3272 1.395 . S
C3274 C3277 1.403 . S
C3275 C3272 1.403 . S
C3275 C3276 1.524 . S
C3275 C3279 1.400 . S
C3276 H3261 0.960 . S
C3276 H3262 0.960 . S
C3276 H3263 0.960 1_545 S
C3276 C3275 1.524 . S
C3277 C3274 1.403 . S
C3277 C3278 1.392 . S
C3277 C3281 1.495 . S
C3278 C3277 1.392 . S
C3278 C3279 1.385 . S
C3278 C3280 1.478 . S
C3279 H3273 0.930 . S
C3279 C3275 1.400 . S
C3279 C3278 1.385 . S
C3280 C3278 1.478 . S
C3280 C3282 1.381 . S
C3280 C3286 1.383 . S
C3281 C3277 1.495 . S
C3281 H3287 0.959 . S
C3281 H3288 0.961 . S
C3281 H3289 0.960 . S
C3282 C3280 1.381 . S
C3282 C3283 1.394 . S
C3282 H3290 0.930 . S
C3283 C3282 1.394 . S
C3283 C3284 1.383 . S
C3283 H3291 0.929 . S
C3284 C3283 1.383 . S
C3284 C3285 1.377 . S
C3285 H3269 0.930 1_545 S
C3285 C3284 1.377 . S
C3285 C3286 1.379 . S
C3286 H3270 0.931 1_545 S
C3286 C3280 1.383 . S
C3286 C3285 1.379 . S
H3287 C3281 0.959 . S
H3288 C3281 0.961 . S
H3289 C3281 0.960 . S
H3290 C3282 0.930 . S
H3291 C3283 0.929 . S
H3292 C3300 0.929 . S
H3293 C3302 0.930 . S
H3294 C3304 0.930 . S
H3295 C3307 0.929 . S
H3296 C3310 0.930 . S
H3297 C3312 0.960 . S
H3298 C3312 0.960 . S
H3299 C3312 0.960 . S
C3300 H3292 0.929 . S
C3300 C3301 1.377 . S
C3300 C3302 1.384 . S
C3301 C3300 1.377 . S
C3301 C3307 1.390 . S
C3302 H3293 0.930 . S
C3302 C3300 1.384 . S
C3302 C3303 1.372 . S
C3303 C3302 1.372 . S
C3303 C3304 1.400 . S
C3303 C3308 1.490 . S
C3304 H3294 0.930 . S
C3304 C3303 1.400 . S
C3304 C3307 1.386 . S
H3305 C3321 0.930 . S
H3306 C3322 0.931 . S
C3307 H3295 0.929 . S
C3307 C3301 1.390 . S
C3307 C3304 1.386 . S
C3308 C3303 1.490 . S
C3308 C3310 1.395 . S
C3308 C3311 1.403 . S
H3309 C3315 0.930 . S
C3310 H3296 0.930 . S
C3310 C3308 1.395 . S
C3310 C3313 1.403 . S
C3311 C3308 1.403 . S
C3311 C3312 1.524 . S
C3311 C3315 1.400 . S
C3312 H3297 0.960 . S
C3312 H3298 0.960 . S
C3312 H3299 0.960 . S
C3312 C3311 1.524 . S
C3313 C3310 1.403 . S
C3313 C3314 1.392 . S
C3313 C3317 1.495 . S
C3314 C3313 1.392 . S
C3314 C3315 1.385 . S
C3314 C3316 1.478 . S
C3315 H3309 0.930 . S
C3315 C3311 1.400 . S
C3315 C3314 1.385 . S
C3316 C3314 1.478 . S
C3316 C3318 1.381 . S
C3316 C3322 1.383 . S
C3317 C3313 1.495 . S
C3317 H3323 0.959 . S
C3317 H3324 0.961 . S
C3317 H3325 0.960 . S
C3318 C3316 1.381 . S
C3318 C3319 1.394 . S
C3318 H3326 0.930 . S
C3319 C3318 1.394 . S
C3319 C3320 1.383 . S
C3319 H3327 0.929 . S
C3320 C3319 1.383 . S
C3320 C3321 1.377 . S
C3321 H3305 0.930 . S
C3321 C3320 1.377 . S
C3321 C3322 1.379 . S
C3322 H3306 0.931 . S
C3322 C3316 1.383 . S
C3322 C3321 1.379 . S
H3323 C3317 0.959 . S
H3324 C3317 0.961 . S
H3325 C3317 0.960 . S
H3326 C3318 0.930 . S
H3327 C3319 0.929 . S
H3328 C3336 0.929 . S
H3329 C3338 0.930 . S
H3330 C3340 0.930 . S
H3331 C3343 0.929 . S
H3332 C3346 0.930 . S
H3333 C3348 0.960 . S
H3334 C3348 0.960 . S
H3335 C3348 0.934 1_556 S
C3336 H3328 0.929 . S
C3336 C3337 1.377 . S
C3336 C3338 1.384 . S
C3337 C3336 1.377 . S
C3337 C3343 1.390 1_554 S
C3338 H3329 0.930 . S
C3338 C3336 1.384 . S
C3338 C3339 1.372 . S
C3339 C3338 1.372 . S
C3339 C3340 1.400 1_554 S
C3339 C3344 1.490 . S
C3340 H3330 0.930 . S
C3340 C3339 1.400 1_556 S
C3340 C3343 1.386 . S
H3341 C3357 0.930 . S
H3342 C3358 0.931 . S
C3343 H3331 0.929 . S
C3343 C3337 1.390 1_556 S
C3343 C3340 1.386 . S
C3344 C3339 1.490 . S
C3344 C3346 1.395 . S
C3344 C3347 1.403 . S
H3345 C3351 0.930 . S
C3346 H3332 0.930 . S
C3346 C3344 1.395 . S
C3346 C3349 1.403 . S
C3347 C3344 1.403 . S
C3347 C3348 1.524 . S
C3347 C3351 1.400 . S
C3348 H3333 0.960 . S
C3348 H3334 0.960 . S
C3348 H3335 0.934 1_554 S
C3348 C3347 1.524 . S
C3349 C3346 1.403 . S
C3349 C3350 1.392 . S
C3349 C3353 1.495 1_565 S
C3350 C3349 1.392 . S
C3350 C3351 1.385 . S
C3350 C3352 1.478 . S
C3351 H3345 0.930 . S
C3351 C3347 1.400 . S
C3351 C3350 1.385 . S
C3352 C3350 1.478 . S
C3352 C3354 1.381 . S
C3352 C3358 1.383 . S
C3353 C3349 1.495 1_545 S
C3353 H3359 0.959 . S
C3353 H3360 0.961 . S
C3353 H3361 0.960 . S
C3354 C3352 1.381 . S
C3354 C3355 1.394 . S
C3354 H3362 0.930 . S
C3355 C3354 1.394 . S
C3355 C3356 1.391 . S
C3355 H3363 0.921 1_565 S
C3356 C3355 1.391 . S
C3356 C3357 1.381 . S
C3357 H3341 0.930 . S
C3357 C3356 1.381 . S
C3357 C3358 1.379 . S
C3358 H3342 0.931 . S
C3358 C3352 1.383 . S
C3358 C3357 1.379 . S
H3359 C3353 0.959 . S
H3360 C3353 0.961 . S
H3361 C3353 0.960 . S
H3362 C3354 0.930 . S
H3363 C3355 0.921 1_545 S
H3364 C3372 0.929 . S
H3365 C3374 0.930 . S
H3366 C3376 0.930 . S
H3367 C3379 0.929 . S
H3368 C3382 0.951 . S
H3369 C3384 0.960 . S
H3370 C3384 0.960 . S
H3371 C3384 0.960 . S
C3372 H3364 0.929 . S
C3372 C3373 1.377 . S
C3372 C3374 1.384 . S
C3373 C3372 1.377 . S
C3373 C3379 1.390 . S
C3374 H3365 0.930 . S
C3374 C3372 1.384 . S
C3374 C3375 1.372 . S
C3375 C3374 1.372 . S
C3375 C3376 1.400 . S
C3375 C3380 1.490 . S
C3376 H3366 0.930 . S
C3376 C3375 1.400 . S
C3376 C3379 1.386 . S
H3377 C3393 0.930 . S
H3378 C3394 0.931 . S
C3379 H3367 0.929 . S
C3379 C3373 1.390 . S
C3379 C3376 1.386 . S
C3380 C3375 1.490 . S
C3380 C3382 1.395 . S
C3380 C3383 1.403 . S
H3381 C3387 0.930 . S
C3382 H3368 0.951 . S
C3382 C3380 1.395 . S
C3382 C3385 1.403 . S
C3383 C3380 1.403 . S
C3383 C3384 1.524 . S
C3383 C3387 1.400 . S
C3384 H3369 0.960 . S
C3384 H3370 0.960 . S
C3384 H3371 0.960 . S
C3384 C3383 1.524 . S
C3385 C3382 1.403 . S
C3385 C3386 1.392 . S
C3385 C3389 1.495 1_554 S
C3386 C3385 1.392 . S
C3386 C3387 1.385 . S
C3386 C3388 1.478 . S
C3387 H3381 0.930 . S
C3387 C3383 1.400 . S
C3387 C3386 1.385 . S
C3388 C3386 1.478 . S
C3388 C3390 1.381 . S
C3388 C3394 1.383 . S
C3389 C3385 1.495 1_556 S
C3389 H3395 0.959 . S
C3389 H3396 0.961 . S
C3389 H3397 0.934 1_556 S
C3390 C3388 1.381 . S
C3390 C3391 1.394 . S
C3390 H3398 0.930 . S
C3391 C3390 1.394 . S
C3391 C3392 1.383 . S
C3391 H3399 0.929 . S
C3392 C3391 1.383 . S
C3392 C3393 1.377 . S
C3393 H3377 0.930 . S
C3393 C3392 1.377 . S
C3393 C3394 1.379 . S
C3394 H3378 0.931 . S
C3394 C3388 1.383 . S
C3394 C3393 1.379 . S
H3395 C3389 0.959 . S
H3396 C3389 0.961 . S
H3397 C3389 0.934 1_554 S
H3398 C3390 0.930 . S
H3399 C3391 0.929 . S
H3400 C3408 0.929 . S
H3401 C3410 0.930 . S
H3402 C3412 0.930 . S
H3403 C3415 0.929 . S
H3404 C3418 0.930 . S
H3405 C3420 0.960 . S
H3406 C3420 0.960 . S
H3407 C3420 0.960 . S
C3408 H3400 0.929 . S
C3408 C3409 1.377 . S
C3408 C3410 1.384 . S
C3409 C3408 1.377 . S
C3409 C3415 1.390 . S
C3410 H3401 0.930 . S
C3410 C3408 1.384 . S
C3410 C3411 1.372 . S
C3411 C3410 1.372 . S
C3411 C3412 1.400 . S
C3411 C3416 1.490 . S
C3412 H3402 0.930 . S
C3412 C3411 1.400 . S
C3412 C3415 1.386 . S
H3413 C3429 0.930 . S
H3414 C3430 0.931 . S
C3415 H3403 0.929 . S
C3415 C3409 1.390 . S
C3415 C3412 1.386 . S
C3416 C3411 1.490 . S
C3416 C3418 1.395 . S
C3416 C3419 1.403 . S
H3417 C3423 0.930 . S
C3418 H3404 0.930 . S
C3418 C3416 1.395 . S
C3418 C3421 1.403 . S
C3419 C3416 1.403 . S
C3419 C3420 1.524 . S
C3419 C3423 1.400 . S
C3420 H3405 0.960 . S
C3420 H3406 0.960 . S
C3420 H3407 0.960 . S
C3420 C3419 1.524 . S
C3421 C3418 1.403 . S
C3421 C3422 1.392 . S
C3421 C3425 1.495 . S
C3422 C3421 1.392 . S
C3422 C3423 1.385 . S
C3422 C3424 1.478 . S
C3423 H3417 0.930 . S
C3423 C3419 1.400 . S
C3423 C3422 1.385 . S
C3424 C3422 1.478 . S
C3424 C3426 1.381 . S
C3424 C3430 1.383 . S
C3425 C3421 1.495 . S
C3425 H3431 0.959 . S
C3425 H3432 0.961 . S
C3425 H3433 0.960 . S
C3426 C3424 1.381 . S
C3426 C3427 1.394 . S
C3426 H3434 0.930 . S
C3427 C3426 1.394 . S
C3427 C3428 1.383 . S
C3427 H3435 0.929 . S
C3428 C3427 1.383 . S
C3428 C3429 1.377 . S
C3429 H3413 0.930 . S
C3429 C3428 1.377 . S
C3429 C3430 1.379 . S
C3430 H3414 0.931 . S
C3430 C3424 1.383 . S
C3430 C3429 1.379 . S
H3431 C3425 0.959 . S
H3432 C3425 0.961 . S
H3433 C3425 0.960 . S
H3434 C3426 0.930 . S
H3435 C3427 0.929 . S
H3436 C3444 0.929 . S
H3437 C3446 0.930 . S
H3438 C3448 0.930 . S
H3439 C3451 0.929 . S
H3440 C3454 0.930 . S
H3441 C3456 0.960 . S
H3442 C3456 0.960 . S
H3443 C3456 0.960 . S
C3444 H3436 0.929 . S
C3444 C3445 1.377 . S
C3444 C3446 1.384 . S
C3445 C3444 1.377 . S
C3445 C3451 1.390 . S
C3446 H3437 0.930 . S
C3446 C3444 1.384 . S
C3446 C3447 1.372 . S
C3447 C3446 1.372 . S
C3447 C3448 1.400 . S
C3447 C3452 1.490 . S
C3448 H3438 0.930 . S
C3448 C3447 1.400 . S
C3448 C3451 1.386 . S
H3449 C3465 0.930 . S
H3450 C3466 0.931 . S
C3451 H3439 0.929 . S
C3451 C3445 1.390 . S
C3451 C3448 1.386 . S
C3452 C3447 1.490 . S
C3452 C3454 1.395 . S
C3452 C3455 1.403 . S
H3453 C3459 0.930 . S
C3454 H3440 0.930 . S
C3454 C3452 1.395 . S
C3454 C3457 1.403 . S
C3455 C3452 1.403 . S
C3455 C3456 1.524 . S
C3455 C3459 1.400 . S
C3456 H3441 0.960 . S
C3456 H3442 0.960 . S
C3456 H3443 0.960 . S
C3456 C3455 1.524 . S
C3457 C3454 1.403 . S
C3457 C3458 1.392 . S
C3457 C3461 1.495 . S
C3458 C3457 1.392 . S
C3458 C3459 1.385 . S
C3458 C3460 1.478 . S
C3459 H3453 0.930 . S
C3459 C3455 1.400 . S
C3459 C3458 1.385 . S
C3460 C3458 1.478 . S
C3460 C3462 1.381 . S
C3460 C3466 1.383 . S
C3461 C3457 1.495 . S
C3461 H3467 0.959 . S
C3461 H3468 0.961 . S
C3461 H3469 0.960 . S
C3462 C3460 1.381 . S
C3462 C3463 1.394 . S
C3462 H3470 0.930 . S
C3463 C3462 1.394 . S
C3463 C3464 1.357 1_655 S
C3463 H3471 0.929 . S
C3464 C3463 1.357 1_455 S
C3464 C3465 1.360 1_455 S
C3465 H3449 0.930 . S
C3465 C3464 1.360 1_655 S
C3465 C3466 1.379 . S
C3466 H3450 0.931 . S
C3466 C3460 1.383 . S
C3466 C3465 1.379 . S
H3467 C3461 0.959 . S
H3468 C3461 0.961 . S
H3469 C3461 0.960 . S
H3470 C3462 0.930 . S
H3471 C3463 0.929 . S
H3472 C3480 0.929 . S
H3473 C3482 0.930 . S
H3474 C3484 0.930 . S
H3475 C3487 0.929 . S
H3476 C3490 0.930 . S
H3477 C3492 0.960 . S
H3478 C3492 0.960 . S
H3479 C3492 0.960 . S
C3480 H3472 0.929 . S
C3480 C3481 1.377 . S
C3480 C3482 1.384 . S
C3481 C3480 1.377 . S
C3481 C3487 1.390 . S
C3482 H3473 0.930 . S
C3482 C3480 1.384 . S
C3482 C3483 1.372 . S
C3483 C3482 1.372 . S
C3483 C3484 1.400 . S
C3483 C3488 1.490 . S
C3484 H3474 0.930 . S
C3484 C3483 1.400 . S
C3484 C3487 1.386 . S
H3485 C3501 0.930 . S
H3486 C3502 0.931 . S
C3487 H3475 0.929 . S
C3487 C3481 1.390 . S
C3487 C3484 1.386 . S
C3488 C3483 1.490 . S
C3488 C3490 1.395 . S
C3488 C3491 1.403 . S
H3489 C3495 0.930 . S
C3490 H3476 0.930 . S
C3490 C3488 1.395 . S
C3490 C3493 1.403 . S
C3491 C3488 1.403 . S
C3491 C3492 1.524 . S
C3491 C3495 1.400 . S
C3492 H3477 0.960 . S
C3492 H3478 0.960 . S
C3492 H3479 0.960 . S
C3492 C3491 1.524 . S
C3493 C3490 1.403 . S
C3493 C3494 1.392 . S
C3493 C3497 1.495 . S
C3494 C3493 1.392 . S
C3494 C3495 1.385 . S
C3494 C3496 1.478 . S
C3495 H3489 0.930 . S
C3495 C3491 1.400 . S
C3495 C3494 1.385 . S
C3496 C3494 1.478 . S
C3496 C3498 1.381 . S
C3496 C3502 1.383 . S
C3497 C3493 1.495 . S
C3497 H3503 0.959 . S
C3497 H3504 0.961 . S
C3497 H3505 0.960 . S
C3498 C3496 1.381 . S
C3498 C3499 1.394 . S
C3498 H3506 0.930 . S
C3499 C3498 1.394 . S
C3499 C3500 1.383 . S
C3499 H3507 0.929 . S
C3500 C3499 1.383 . S
C3500 C3501 1.377 . S
C3501 H3485 0.930 . S
C3501 C3500 1.377 . S
C3501 C3502 1.379 . S
C3502 H3486 0.931 . S
C3502 C3496 1.383 . S
C3502 C3501 1.379 . S
H3503 C3497 0.959 . S
H3504 C3497 0.961 . S
H3505 C3497 0.960 . S
H3506 C3498 0.930 . S
H3507 C3499 0.929 . S
H3508 C3516 0.929 . S
H3509 C3518 0.930 . S
H3510 C3520 0.930 . S
H3511 C3523 0.929 . S
H3512 C3526 0.930 . S
H3513 C3528 0.960 . S
H3514 C3528 0.960 . S
H3515 C3528 0.960 . S
C3516 H3508 0.929 . S
C3516 C3517 1.377 . S
C3516 C3518 1.384 . S
C3517 C3516 1.377 . S
C3517 C3523 1.390 . S
C3518 H3509 0.930 . S
C3518 C3516 1.384 . S
C3518 C3519 1.372 . S
C3519 C3518 1.372 . S
C3519 C3520 1.400 . S
C3519 C3524 1.490 . S
C3520 H3510 0.930 . S
C3520 C3519 1.400 . S
C3520 C3523 1.386 . S
H3521 C3537 0.930 . S
H3522 C3538 0.931 . S
C3523 H3511 0.929 . S
C3523 C3517 1.390 . S
C3523 C3520 1.386 . S
C3524 C3519 1.490 . S
C3524 C3526 1.395 . S
C3524 C3527 1.403 . S
H3525 C3531 0.930 . S
C3526 H3512 0.930 . S
C3526 C3524 1.395 . S
C3526 C3529 1.403 . S
C3527 C3524 1.403 . S
C3527 C3528 1.524 . S
C3527 C3531 1.400 . S
C3528 H3513 0.960 . S
C3528 H3514 0.960 . S
C3528 H3515 0.960 . S
C3528 C3527 1.524 . S
C3529 C3526 1.403 . S
C3529 C3530 1.392 . S
C3529 C3533 1.495 . S
C3530 C3529 1.392 . S
C3530 C3531 1.385 . S
C3530 C3532 1.478 . S
C3531 H3525 0.930 . S
C3531 C3527 1.400 . S
C3531 C3530 1.385 . S
C3532 C3530 1.478 . S
C3532 C3534 1.381 . S
C3532 C3538 1.383 . S
C3533 C3529 1.495 . S
C3533 H3539 0.959 . S
C3533 H3540 0.961 . S
C3533 H3541 0.960 . S
C3534 C3532 1.381 . S
C3534 C3535 1.394 . S
C3534 H3542 0.930 . S
C3535 C3534 1.394 . S
C3535 C3536 1.383 . S
C3535 H3543 0.929 . S
C3536 C3535 1.383 . S
C3536 C3537 1.377 . S
C3537 H3521 0.930 . S
C3537 C3536 1.377 . S
C3537 C3538 1.379 . S
C3538 H3522 0.931 . S
C3538 C3532 1.383 . S
C3538 C3537 1.379 . S
H3539 C3533 0.959 . S
H3540 C3533 0.961 . S
H3541 C3533 0.960 . S
H3542 C3534 0.930 . S
H3543 C3535 0.929 . S
H3544 C3552 0.929 . S
H3545 C3554 0.930 . S
H3546 C3556 0.930 . S
H3547 C3559 0.929 . S
H3548 C3562 0.930 . S
H3549 C3564 0.960 . S
H3550 C3564 0.960 . S
H3551 C3564 0.960 . S
C3552 H3544 0.929 . S
C3552 C3553 1.377 . S
C3552 C3554 1.384 . S
C3553 C3552 1.377 . S
C3553 C3559 1.390 . S
C3554 H3545 0.930 . S
C3554 C3552 1.384 . S
C3554 C3555 1.372 . S
C3555 C3554 1.372 . S
C3555 C3556 1.400 . S
C3555 C3560 1.490 . S
C3556 H3546 0.930 . S
C3556 C3555 1.400 . S
C3556 C3559 1.386 . S
H3557 C3573 0.930 . S
H3558 C3574 0.931 . S
C3559 H3547 0.929 . S
C3559 C3553 1.390 . S
C3559 C3556 1.386 . S
C3560 C3555 1.490 . S
C3560 C3562 1.395 . S
C3560 C3563 1.403 . S
H3561 C3567 0.930 . S
C3562 H3548 0.930 . S
C3562 C3560 1.395 . S
C3562 C3565 1.403 . S
C3563 C3560 1.403 . S
C3563 C3564 1.524 . S
C3563 C3567 1.400 . S
C3564 H3549 0.960 . S
C3564 H3550 0.960 . S
C3564 H3551 0.960 . S
C3564 C3563 1.524 . S
C3565 C3562 1.403 . S
C3565 C3566 1.392 . S
C3565 C3569 1.495 . S
C3566 C3565 1.392 . S
C3566 C3567 1.385 . S
C3566 C3568 1.478 . S
C3567 H3561 0.930 . S
C3567 C3563 1.400 . S
C3567 C3566 1.385 . S
C3568 C3566 1.478 . S
C3568 C3570 1.381 . S
C3568 C3574 1.383 . S
C3569 C3565 1.495 . S
C3569 H3575 0.959 . S
C3569 H3576 0.961 . S
C3569 H3577 0.960 . S
C3570 C3568 1.381 . S
C3570 C3571 1.394 . S
C3570 H3578 0.930 . S
C3571 C3570 1.394 . S
C3571 C3572 1.383 . S
C3571 H3579 0.929 . S
C3572 C3571 1.383 . S
C3572 C3573 1.377 . S
C3573 H3557 0.930 . S
C3573 C3572 1.377 . S
C3573 C3574 1.379 . S
C3574 H3558 0.931 . S
C3574 C3568 1.383 . S
C3574 C3573 1.379 . S
H3575 C3569 0.959 . S
H3576 C3569 0.961 . S
H3577 C3569 0.960 . S
H3578 C3570 0.930 . S
H3579 C3571 0.929 . S
H3580 C3588 0.929 . S
H3581 C3590 0.930 . S
H3582 C3592 0.930 . S
H3583 C3595 0.929 . S
H3584 C3598 0.930 . S
H3585 C3600 0.960 . S
H3586 C3600 0.960 . S
H3587 C3600 0.960 . S
C3588 H3580 0.929 . S
C3588 C3589 1.377 . S
C3588 C3590 1.384 . S
C3589 C3588 1.377 . S
C3589 C3595 1.390 . S
C3590 H3581 0.930 . S
C3590 C3588 1.384 . S
C3590 C3591 1.372 . S
C3591 C3590 1.372 . S
C3591 C3592 1.400 . S
C3591 C3596 1.490 . S
C3592 H3582 0.930 . S
C3592 C3591 1.400 . S
C3592 C3595 1.386 . S
H3593 C3609 0.930 . S
H3594 C3610 0.931 . S
C3595 H3583 0.929 . S
C3595 C3589 1.390 . S
C3595 C3592 1.386 . S
C3596 C3591 1.490 . S
C3596 C3598 1.395 . S
C3596 C3599 1.403 . S
H3597 C3603 0.930 . S
C3598 H3584 0.930 . S
C3598 C3596 1.395 . S
C3598 C3601 1.403 . S
C3599 C3596 1.403 . S
C3599 C3600 1.524 . S
C3599 C3603 1.400 . S
C3600 H3585 0.960 . S
C3600 H3586 0.960 . S
C3600 H3587 0.960 . S
C3600 C3599 1.524 . S
C3601 C3598 1.403 . S
C3601 C3602 1.392 . S
C3601 C3605 1.495 . S
C3602 C3601 1.392 . S
C3602 C3603 1.385 . S
C3602 C3604 1.478 . S
C3603 H3597 0.930 . S
C3603 C3599 1.400 . S
C3603 C3602 1.385 . S
C3604 C3602 1.478 . S
C3604 C3606 1.381 . S
C3604 C3610 1.383 . S
C3605 C3601 1.495 . S
C3605 H3611 0.959 . S
C3605 H3612 0.961 . S
C3605 H3613 0.960 . S
C3606 C3604 1.381 . S
C3606 C3607 1.394 . S
C3606 H3614 0.930 . S
C3607 C3606 1.394 . S
C3607 C3608 1.383 . S
C3607 H3615 0.929 . S
C3608 C3607 1.383 . S
C3608 C3609 1.377 . S
C3609 H3593 0.930 . S
C3609 C3608 1.377 . S
C3609 C3610 1.379 . S
C3610 H3594 0.931 . S
C3610 C3604 1.383 . S
C3610 C3609 1.379 . S
H3611 C3605 0.959 . S
H3612 C3605 0.961 . S
H3613 C3605 0.960 . S
H3614 C3606 0.930 . S
H3615 C3607 0.929 . S
H3616 C3624 0.929 . S
H3617 C3626 0.930 . S
H3618 C3628 0.930 . S
H3619 C3631 0.929 . S
H3620 C3634 0.930 . S
H3621 C3636 0.960 . S
H3622 C3636 0.960 . S
H3623 C3636 0.960 . S
C3624 H3616 0.929 . S
C3624 C3625 1.377 . S
C3624 C3626 1.384 . S
C3625 C3624 1.377 . S
C3625 C3631 1.390 . S
C3626 H3617 0.930 . S
C3626 C3624 1.384 . S
C3626 C3627 1.372 . S
C3627 C3626 1.372 . S
C3627 C3628 1.400 . S
C3627 C3632 1.490 . S
C3628 H3618 0.930 . S
C3628 C3627 1.400 . S
C3628 C3631 1.386 . S
H3629 C3645 0.930 . S
H3630 C3646 0.931 . S
C3631 H3619 0.929 . S
C3631 C3625 1.390 . S
C3631 C3628 1.386 . S
C3632 C3627 1.490 . S
C3632 C3634 1.395 . S
C3632 C3635 1.403 . S
H3633 C3639 0.930 . S
C3634 H3620 0.930 . S
C3634 C3632 1.395 . S
C3634 C3637 1.403 . S
C3635 C3632 1.403 . S
C3635 C3636 1.524 . S
C3635 C3639 1.400 . S
C3636 H3621 0.960 . S
C3636 H3622 0.960 . S
C3636 H3623 0.960 . S
C3636 C3635 1.524 . S
C3637 C3634 1.403 . S
C3637 C3638 1.392 . S
C3637 C3641 1.495 . S
C3638 C3637 1.392 . S
C3638 C3639 1.385 . S
C3638 C3640 1.478 . S
C3639 H3633 0.930 . S
C3639 C3635 1.400 . S
C3639 C3638 1.385 . S
C3640 C3638 1.478 . S
C3640 C3642 1.381 . S
C3640 C3646 1.383 . S
C3641 C3637 1.495 . S
C3641 H3647 0.959 . S
C3641 H3648 0.961 . S
C3641 H3649 0.960 . S
C3642 C3640 1.381 . S
C3642 C3643 1.394 . S
C3642 H3650 0.930 . S
C3643 C3642 1.394 . S
C3643 C3644 1.383 . S
C3643 H3651 0.929 . S
C3644 C3643 1.383 . S
C3644 C3645 1.377 . S
C3645 H3629 0.930 . S
C3645 C3644 1.377 . S
C3645 C3646 1.379 . S
C3646 H3630 0.931 . S
C3646 C3640 1.383 . S
C3646 C3645 1.379 . S
H3647 C3641 0.959 . S
H3648 C3641 0.961 . S
H3649 C3641 0.960 . S
H3650 C3642 0.930 . S
H3651 C3643 0.929 . S
H3652 C3660 0.929 . S
H3653 C3662 0.930 . S
H3654 C3664 0.930 . S
H3655 C3667 0.929 . S
H3656 C3670 0.930 . S
H3657 C3672 0.960 . S
H3658 C3672 0.960 . S
H3659 C3672 0.960 . S
C3660 H3652 0.929 . S
C3660 C3661 1.377 . S
C3660 C3662 1.384 . S
C3661 C3660 1.377 . S
C3661 C3667 1.390 . S
C3662 H3653 0.930 . S
C3662 C3660 1.384 . S
C3662 C3663 1.372 . S
C3663 C3662 1.372 . S
C3663 C3664 1.400 . S
C3663 C3668 1.490 . S
C3664 H3654 0.930 . S
C3664 C3663 1.400 . S
C3664 C3667 1.386 . S
H3665 C3681 0.930 . S
H3666 C3682 0.931 . S
C3667 H3655 0.929 . S
C3667 C3661 1.390 . S
C3667 C3664 1.386 . S
C3668 C3663 1.490 . S
C3668 C3670 1.395 . S
C3668 C3671 1.403 . S
H3669 C3675 0.930 . S
C3670 H3656 0.930 . S
C3670 C3668 1.395 . S
C3670 C3673 1.403 . S
C3671 C3668 1.403 . S
C3671 C3672 1.524 . S
C3671 C3675 1.400 . S
C3672 H3657 0.960 . S
C3672 H3658 0.960 . S
C3672 H3659 0.960 . S
C3672 C3671 1.524 . S
C3673 C3670 1.403 . S
C3673 C3674 1.392 . S
C3673 C3677 1.495 . S
C3674 C3673 1.392 . S
C3674 C3675 1.385 . S
C3674 C3676 1.478 . S
C3675 H3669 0.930 . S
C3675 C3671 1.400 . S
C3675 C3674 1.385 . S
C3676 C3674 1.478 . S
C3676 C3678 1.381 . S
C3676 C3682 1.383 . S
C3677 C3673 1.495 . S
C3677 H3683 0.959 . S
C3677 H3684 0.961 . S
C3677 H3685 0.960 . S
C3678 C3676 1.381 . S
C3678 C3679 1.394 . S
C3678 H3686 0.930 . S
C3679 C3678 1.394 . S
C3679 C3680 1.383 . S
C3679 H3687 0.929 . S
C3680 C3679 1.383 . S
C3680 C3681 1.377 . S
C3681 H3665 0.930 . S
C3681 C3680 1.377 . S
C3681 C3682 1.379 . S
C3682 H3666 0.931 . S
C3682 C3676 1.383 . S
C3682 C3681 1.379 . S
H3683 C3677 0.959 . S
H3684 C3677 0.961 . S
H3685 C3677 0.960 . S
H3686 C3678 0.930 . S
H3687 C3679 0.929 . S
H3688 C3696 0.929 . S
H3689 C3698 0.930 . S
H3690 C3700 0.930 . S
H3691 C3703 0.929 . S
H3692 C3706 0.930 . S
H3693 C3708 0.960 . S
H3694 C3708 0.960 . S
H3695 C3708 0.960 . S
C3696 H3688 0.929 . S
C3696 C3697 1.377 . S
C3696 C3698 1.384 . S
C3697 C3696 1.377 . S
C3697 C3703 1.390 . S
C3698 H3689 0.930 . S
C3698 C3696 1.384 . S
C3698 C3699 1.372 . S
C3699 C3698 1.372 . S
C3699 C3700 1.400 . S
C3699 C3704 1.490 . S
C3700 H3690 0.930 . S
C3700 C3699 1.400 . S
C3700 C3703 1.386 . S
H3701 C3717 0.930 . S
H3702 C3718 0.931 . S
C3703 H3691 0.929 . S
C3703 C3697 1.390 . S
C3703 C3700 1.386 . S
C3704 C3699 1.490 . S
C3704 C3706 1.395 . S
C3704 C3707 1.403 . S
H3705 C3711 0.930 . S
C3706 H3692 0.930 . S
C3706 C3704 1.395 . S
C3706 C3709 1.403 . S
C3707 C3704 1.403 . S
C3707 C3708 1.524 . S
C3707 C3711 1.400 . S
C3708 H3693 0.960 . S
C3708 H3694 0.960 . S
C3708 H3695 0.960 . S
C3708 C3707 1.524 . S
C3709 C3706 1.403 . S
C3709 C3710 1.392 . S
C3709 C3713 1.495 . S
C3710 C3709 1.392 . S
C3710 C3711 1.385 . S
C3710 C3712 1.478 . S
C3711 H3705 0.930 . S
C3711 C3707 1.400 . S
C3711 C3710 1.385 . S
C3712 C3710 1.478 . S
C3712 C3714 1.381 . S
C3712 C3718 1.383 . S
C3713 C3709 1.495 . S
C3713 H3719 0.959 . S
C3713 H3720 0.961 . S
C3713 H3721 0.960 . S
C3714 C3712 1.381 . S
C3714 C3715 1.394 . S
C3714 H3722 0.930 . S
C3715 C3714 1.394 . S
C3715 C3716 1.383 . S
C3715 H3723 0.929 . S
C3716 C3715 1.383 . S
C3716 C3717 1.377 . S
C3717 H3701 0.930 . S
C3717 C3716 1.377 . S
C3717 C3718 1.379 . S
C3718 H3702 0.931 . S
C3718 C3712 1.383 . S
C3718 C3717 1.379 . S
H3719 C3713 0.959 . S
H3720 C3713 0.961 . S
H3721 C3713 0.960 . S
H3722 C3714 0.930 . S
H3723 C3715 0.929 . S
H3724 C3732 0.929 . S
H3725 C3734 0.930 . S
H3726 C3736 0.930 . S
H3727 C3739 0.929 . S
H3728 C3742 0.930 . S
H3729 C3744 0.960 . S
H3730 C3744 0.960 . S
H3731 C3744 0.960 . S
C3732 H3724 0.929 . S
C3732 C3733 1.377 . S
C3732 C3734 1.384 . S
C3733 C3732 1.377 . S
C3733 C3739 1.390 . S
C3734 H3725 0.930 . S
C3734 C3732 1.384 . S
C3734 C3735 1.372 . S
C3735 C3734 1.372 . S
C3735 C3736 1.400 . S
C3735 C3740 1.490 . S
C3736 H3726 0.930 . S
C3736 C3735 1.400 . S
C3736 C3739 1.386 . S
H3737 C3753 0.930 . S
H3738 C3754 0.931 . S
C3739 H3727 0.929 . S
C3739 C3733 1.390 . S
C3739 C3736 1.386 . S
C3740 C3735 1.490 . S
C3740 C3742 1.395 . S
C3740 C3743 1.403 . S
H3741 C3747 0.930 . S
C3742 H3728 0.930 . S
C3742 C3740 1.395 . S
C3742 C3745 1.403 . S
C3743 C3740 1.403 . S
C3743 C3744 1.524 . S
C3743 C3747 1.400 . S
C3744 H3729 0.960 . S
C3744 H3730 0.960 . S
C3744 H3731 0.960 . S
C3744 C3743 1.524 . S
C3745 C3742 1.403 . S
C3745 C3746 1.392 . S
C3745 C3749 1.495 . S
C3746 C3745 1.392 . S
C3746 C3747 1.385 . S
C3746 C3748 1.478 . S
C3747 H3741 0.930 . S
C3747 C3743 1.400 . S
C3747 C3746 1.385 . S
C3748 C3746 1.478 . S
C3748 C3750 1.381 . S
C3748 C3754 1.383 . S
C3749 C3745 1.495 . S
C3749 H3755 0.959 . S
C3749 H3756 0.961 . S
C3749 H3757 0.960 . S
C3750 C3748 1.381 . S
C3750 C3751 1.394 . S
C3750 H3758 0.930 . S
C3751 C3750 1.394 . S
C3751 C3752 1.383 . S
C3751 H3759 0.929 . S
C3752 C3751 1.383 . S
C3752 C3753 1.377 . S
C3753 H3737 0.930 . S
C3753 C3752 1.377 . S
C3753 C3754 1.379 . S
C3754 H3738 0.931 . S
C3754 C3748 1.383 . S
C3754 C3753 1.379 . S
H3755 C3749 0.959 . S
H3756 C3749 0.961 . S
H3757 C3749 0.960 . S
H3758 C3750 0.930 . S
H3759 C3751 0.929 . S
H3760 C3768 0.929 . S
H3761 C3770 0.930 . S
H3762 C3772 0.930 . S
H3763 C3775 0.929 . S
H3764 C3778 0.930 . S
H3765 C3780 0.960 . S
H3766 C3780 0.960 . S
H3767 C3780 0.960 . S
C3768 H3760 0.929 . S
C3768 C3769 1.377 . S
C3768 C3770 1.384 . S
C3769 C3768 1.377 . S
C3769 C3775 1.390 . S
C3770 H3761 0.930 . S
C3770 C3768 1.384 . S
C3770 C3771 1.372 . S
C3771 C3770 1.372 . S
C3771 C3772 1.400 . S
C3771 C3776 1.490 . S
C3772 H3762 0.930 . S
C3772 C3771 1.400 . S
C3772 C3775 1.386 . S
H3773 C3789 0.930 . S
H3774 C3790 0.961 . S
C3775 H3763 0.929 . S
C3775 C3769 1.390 . S
C3775 C3772 1.386 . S
C3776 C3771 1.490 . S
C3776 C3778 1.395 . S
C3776 C3779 1.403 . S
H3777 C3783 0.930 . S
C3778 H3764 0.930 . S
C3778 C3776 1.395 . S
C3778 C3781 1.403 . S
C3779 C3776 1.403 . S
C3779 C3780 1.524 . S
C3779 C3783 1.400 . S
C3780 H3765 0.960 . S
C3780 H3766 0.960 . S
C3780 H3767 0.960 . S
C3780 C3779 1.524 . S
C3781 C3778 1.403 . S
C3781 C3782 1.392 . S
C3781 C3785 1.495 . S
C3782 C3781 1.392 . S
C3782 C3783 1.385 . S
C3782 C3784 1.478 . S
C3783 H3777 0.930 . S
C3783 C3779 1.400 . S
C3783 C3782 1.385 . S
C3784 C3782 1.478 . S
C3784 C3786 1.381 . S
C3784 C3790 1.383 . S
C3785 C3781 1.495 . S
C3785 H3791 0.959 . S
C3785 H3792 1.015 . S
C3785 H3793 0.960 . S
C3786 C3784 1.381 . S
C3786 C3787 1.394 . S
C3786 H3794 0.930 . S
C3787 C3786 1.394 . S
C3787 C3788 1.383 . S
C3787 H3795 0.929 . S
C3788 C3787 1.383 . S
C3788 C3789 1.377 . S
C3789 H3773 0.930 . S
C3789 C3788 1.377 . S
C3789 C3790 1.379 . S
C3790 H3774 0.961 . S
C3790 C3784 1.383 . S
C3790 C3789 1.379 . S
H3791 C3785 0.959 . S
H3792 C3785 1.015 . S
H3793 C3785 0.960 . S
H3794 C3786 0.930 . S
H3795 C3787 0.929 . S
H3796 C3804 0.929 . S
H3797 C3806 0.930 . S
H3798 C3808 0.930 . S
H3799 C3811 0.929 . S
H3800 C3814 0.930 . S
H3801 C3816 0.960 . S
H3802 C3816 0.960 . S
H3803 C3816 0.960 . S
C3804 H3796 0.929 . S
C3804 C3805 1.377 . S
C3804 C3806 1.384 . S
C3805 C3804 1.377 . S
C3805 C3811 1.390 . S
C3806 H3797 0.930 . S
C3806 C3804 1.384 . S
C3806 C3807 1.372 . S
C3807 C3806 1.372 . S
C3807 C3808 1.400 . S
C3807 C3812 1.490 . S
C3808 H3798 0.930 . S
C3808 C3807 1.400 . S
C3808 C3811 1.386 . S
H3809 C3825 0.930 . S
H3810 C3826 0.931 . S
C3811 H3799 0.929 . S
C3811 C3805 1.390 . S
C3811 C3808 1.386 . S
C3812 C3807 1.490 . S
C3812 C3814 1.395 . S
C3812 C3815 1.403 . S
H3813 C3819 0.930 . S
C3814 H3800 0.930 . S
C3814 C3812 1.395 . S
C3814 C3817 1.403 . S
C3815 C3812 1.403 . S
C3815 C3816 1.524 . S
C3815 C3819 1.400 . S
C3816 H3801 0.960 . S
C3816 H3802 0.960 . S
C3816 H3803 0.960 . S
C3816 C3815 1.524 . S
C3817 C3814 1.403 . S
C3817 C3818 1.392 . S
C3817 C3821 1.495 . S
C3818 C3817 1.392 . S
C3818 C3819 1.385 . S
C3818 C3820 1.478 . S
C3819 H3813 0.930 . S
C3819 C3815 1.400 . S
C3819 C3818 1.385 . S
C3820 C3818 1.478 . S
C3820 C3822 1.381 . S
C3820 C3826 1.383 . S
C3821 C3817 1.495 . S
C3821 H3827 0.959 . S
C3821 H3828 0.961 . S
C3821 H3829 0.960 . S
C3822 C3820 1.381 . S
C3822 C3823 1.394 . S
C3822 H3830 0.930 . S
C3823 C3822 1.394 . S
C3823 C3824 1.383 . S
C3823 H3831 0.929 . S
C3824 C3823 1.383 . S
C3824 C3825 1.377 . S
C3825 H3809 0.930 . S
C3825 C3824 1.377 . S
C3825 C3826 1.379 . S
C3826 H3810 0.931 . S
C3826 C3820 1.383 . S
C3826 C3825 1.379 . S
H3827 C3821 0.959 . S
H3828 C3821 0.961 . S
H3829 C3821 0.960 . S
H3830 C3822 0.930 . S
H3831 C3823 0.929 . S
H3832 C3840 0.929 . S
H3833 C3842 0.930 . S
H3834 C3844 0.930 . S
H3835 C3847 0.929 . S
H3836 C3850 0.930 . S
H3837 C3852 0.960 . S
H3838 C3852 0.960 . S
H3839 C3852 0.960 . S
C3840 H3832 0.929 . S
C3840 C3841 1.377 . S
C3840 C3842 1.384 . S
C3841 C3840 1.377 . S
C3841 C3847 1.390 . S
C3842 H3833 0.930 . S
C3842 C3840 1.384 . S
C3842 C3843 1.372 . S
C3843 C3842 1.372 . S
C3843 C3844 1.400 . S
C3843 C3848 1.490 . S
C3844 H3834 0.930 . S
C3844 C3843 1.400 . S
C3844 C3847 1.386 . S
H3845 C3861 0.930 . S
H3846 C3862 0.931 . S
C3847 H3835 0.929 . S
C3847 C3841 1.390 . S
C3847 C3844 1.386 . S
C3848 C3843 1.490 . S
C3848 C3850 1.395 . S
C3848 C3851 1.403 . S
H3849 C3855 0.930 . S
C3850 H3836 0.930 . S
C3850 C3848 1.395 . S
C3850 C3853 1.403 . S
C3851 C3848 1.403 . S
C3851 C3852 1.524 . S
C3851 C3855 1.400 . S
C3852 H3837 0.960 . S
C3852 H3838 0.960 . S
C3852 H3839 0.960 . S
C3852 C3851 1.524 . S
C3853 C3850 1.403 . S
C3853 C3854 1.392 . S
C3853 C3857 1.495 . S
C3854 C3853 1.392 . S
C3854 C3855 1.385 . S
C3854 C3856 1.478 . S
C3855 H3849 0.930 . S
C3855 C3851 1.400 . S
C3855 C3854 1.385 . S
C3856 C3854 1.478 . S
C3856 C3858 1.381 . S
C3856 C3862 1.383 . S
C3857 C3853 1.495 . S
C3857 H3863 0.959 . S
C3857 H3864 0.961 . S
C3857 H3865 0.960 . S
C3858 C3856 1.381 . S
C3858 C3859 1.412 . S
C3858 H3866 0.930 . S
C3859 C3858 1.412 . S
C3859 C3860 1.406 . S
C3859 H3867 0.890 1_556 S
C3860 C3859 1.406 . S
C3860 C3861 1.377 . S
C3861 H3845 0.930 . S
C3861 C3860 1.377 . S
C3861 C3862 1.379 . S
C3862 H3846 0.931 . S
C3862 C3856 1.383 . S
C3862 C3861 1.379 . S
H3863 C3857 0.959 . S
H3864 C3857 0.961 . S
H3865 C3857 0.960 . S
H3866 C3858 0.930 . S
H3867 C3859 0.890 1_554 S
H3868 C3876 0.929 . S
H3869 C3878 0.930 . S
H3870 C3880 0.930 . S
H3871 C3883 0.929 . S
H3872 C3886 0.930 . S
H3873 C3888 0.960 . S
H3874 C3888 0.960 . S
H3875 C3888 0.960 . S
C3876 H3868 0.929 . S
C3876 C3877 1.377 . S
C3876 C3878 1.384 . S
C3877 C3876 1.377 . S
C3877 C3883 1.390 . S
C3878 H3869 0.930 . S
C3878 C3876 1.384 . S
C3878 C3879 1.372 . S
C3879 C3878 1.372 . S
C3879 C3880 1.400 . S
C3879 C3884 1.490 . S
C3880 H3870 0.930 . S
C3880 C3879 1.400 . S
C3880 C3883 1.386 . S
H3881 C3897 0.930 . S
H3882 C3898 0.931 . S
C3883 H3871 0.929 . S
C3883 C3877 1.390 . S
C3883 C3880 1.386 . S
C3884 C3879 1.490 . S
C3884 C3886 1.395 . S
C3884 C3887 1.403 . S
H3885 C3891 0.930 . S
C3886 H3872 0.930 . S
C3886 C3884 1.395 . S
C3886 C3889 1.403 . S
C3887 C3884 1.403 . S
C3887 C3888 1.524 . S
C3887 C3891 1.400 . S
C3888 H3873 0.960 . S
C3888 H3874 0.960 . S
C3888 H3875 0.960 . S
C3888 C3887 1.524 . S
C3889 C3886 1.403 . S
C3889 C3890 1.392 . S
C3889 C3893 1.495 . S
C3890 C3889 1.392 . S
C3890 C3891 1.385 . S
C3890 C3892 1.478 . S
C3891 H3885 0.930 . S
C3891 C3887 1.400 . S
C3891 C3890 1.385 . S
C3892 C3890 1.478 . S
C3892 C3894 1.381 . S
C3892 C3898 1.383 . S
C3893 C3889 1.495 . S
C3893 H3899 0.959 . S
C3893 H3900 0.961 . S
C3893 H3901 0.960 . S
C3894 C3892 1.381 . S
C3894 C3895 1.394 . S
C3894 H3902 0.930 . S
C3895 C3894 1.394 . S
C3895 C3896 1.383 . S
C3895 H3903 0.929 . S
C3896 C3895 1.383 . S
C3896 C3897 1.377 . S
C3897 H3881 0.930 . S
C3897 C3896 1.377 . S
C3897 C3898 1.379 . S
C3898 H3882 0.931 . S
C3898 C3892 1.383 . S
C3898 C3897 1.379 . S
H3899 C3893 0.959 . S
H3900 C3893 0.961 . S
H3901 C3893 0.960 . S
H3902 C3894 0.930 . S
H3903 C3895 0.929 . S
H3904 C3912 0.929 . S
H3905 C3914 0.930 . S
H3906 C3916 0.930 . S
H3907 C3919 0.929 . S
H3908 C3922 0.930 . S
H3909 C3924 0.960 . S
H3910 C3924 0.960 . S
H3911 C3924 0.960 . S
C3912 H3904 0.929 . S
C3912 C3913 1.377 . S
C3912 C3914 1.384 . S
C3913 C3912 1.377 . S
C3913 C3919 1.390 . S
C3914 H3905 0.930 . S
C3914 C3912 1.384 . S
C3914 C3915 1.372 . S
C3915 C3914 1.372 . S
C3915 C3916 1.400 . S
C3915 C3920 1.490 . S
C3916 H3906 0.930 . S
C3916 C3915 1.400 . S
C3916 C3919 1.386 . S
H3917 C3933 0.930 . S
H3918 C3934 0.931 . S
C3919 H3907 0.929 . S
C3919 C3913 1.390 . S
C3919 C3916 1.386 . S
C3920 C3915 1.490 . S
C3920 C3922 1.395 . S
C3920 C3923 1.418 . S
H3921 C3927 0.930 1_565 S
C3922 H3908 0.930 . S
C3922 C3920 1.395 . S
C3922 C3925 1.403 . S
C3923 C3920 1.418 . S
C3923 C3924 1.506 1_545 S
C3923 C3927 1.403 . S
C3924 H3909 0.960 . S
C3924 H3910 0.960 . S
C3924 H3911 0.960 . S
C3924 C3923 1.506 1_565 S
C3925 C3922 1.403 . S
C3925 C3926 1.392 . S
C3925 C3929 1.495 . S
C3926 C3925 1.392 . S
C3926 C3927 1.385 . S
C3926 C3928 1.478 . S
C3927 H3921 0.930 1_545 S
C3927 C3923 1.403 . S
C3927 C3926 1.385 . S
C3928 C3926 1.478 . S
C3928 C3930 1.381 . S
C3928 C3934 1.383 . S
C3929 C3925 1.495 . S
C3929 H3935 0.959 . S
C3929 H3936 0.961 . S
C3929 H3937 0.960 . S
C3930 C3928 1.381 . S
C3930 C3931 1.394 . S
C3930 H3938 0.930 . S
C3931 C3930 1.394 . S
C3931 C3932 1.383 . S
C3931 H3939 0.929 . S
C3932 C3931 1.383 . S
C3932 C3933 1.377 . S
C3933 H3917 0.930 . S
C3933 C3932 1.377 . S
C3933 C3934 1.379 . S
C3934 H3918 0.931 . S
C3934 C3928 1.383 . S
C3934 C3933 1.379 . S
H3935 C3929 0.959 . S
H3936 C3929 0.961 . S
H3937 C3929 0.960 . S
H3938 C3930 0.930 . S
H3939 C3931 0.929 . S
H3940 C3948 0.929 . S
H3941 C3950 0.930 . S
H3942 C3952 0.930 . S
H3943 C3955 0.929 . S
H3944 C3958 0.930 . S
H3945 C3960 0.960 . S
H3946 C3960 0.960 . S
H3947 C3960 0.960 . S
C3948 H3940 0.929 . S
C3948 C3949 1.377 . S
C3948 C3950 1.384 . S
C3949 C3948 1.377 . S
C3949 C3955 1.390 . S
C3950 H3941 0.930 . S
C3950 C3948 1.384 . S
C3950 C3951 1.372 . S
C3951 C3950 1.372 . S
C3951 C3952 1.400 . S
C3951 C3956 1.490 . S
C3952 H3942 0.930 . S
C3952 C3951 1.400 . S
C3952 C3955 1.386 . S
H3953 C3969 0.930 . S
H3954 C3970 0.931 . S
C3955 H3943 0.929 . S
C3955 C3949 1.390 . S
C3955 C3952 1.386 . S
C3956 C3951 1.490 . S
C3956 C3958 1.395 . S
C3956 C3959 1.403 . S
H3957 C3963 0.930 . S
C3958 H3944 0.930 . S
C3958 C3956 1.395 . S
C3958 C3961 1.403 . S
C3959 C3956 1.403 . S
C3959 C3960 1.524 . S
C3959 C3963 1.400 . S
C3960 H3945 0.960 . S
C3960 H3946 0.960 . S
C3960 H3947 0.960 . S
C3960 C3959 1.524 . S
C3961 C3958 1.403 . S
C3961 C3962 1.392 . S
C3961 C3965 1.495 . S
C3962 C3961 1.392 . S
C3962 C3963 1.385 . S
C3962 C3964 1.478 . S
C3963 H3957 0.930 . S
C3963 C3959 1.400 . S
C3963 C3962 1.385 . S
C3964 C3962 1.478 . S
C3964 C3966 1.381 . S
C3964 C3970 1.383 . S
C3965 C3961 1.495 . S
C3965 H3971 0.959 . S
C3965 H3972 0.961 . S
C3965 H3973 0.960 . S
C3966 C3964 1.381 . S
C3966 C3967 1.394 . S
C3966 H3974 0.930 . S
C3967 C3966 1.394 . S
C3967 C3968 1.383 . S
C3967 H3975 0.929 . S
C3968 C3967 1.383 . S
C3968 C3969 1.377 . S
C3969 H3953 0.930 . S
C3969 C3968 1.377 . S
C3969 C3970 1.379 . S
C3970 H3954 0.931 . S
C3970 C3964 1.383 . S
C3970 C3969 1.379 . S
H3971 C3965 0.959 . S
H3972 C3965 0.961 . S
H3973 C3965 0.960 . S
H3974 C3966 0.930 . S
H3975 C3967 0.929 . S
H3976 C3984 0.929 . S
H3977 C3986 0.930 . S
H3978 C3988 0.930 . S
H3979 C3991 0.929 . S
H3980 C3994 0.930 . S
H3981 C3996 0.960 . S
H3982 C3996 0.960 . S
H3983 C3996 0.960 . S
C3984 H3976 0.929 . S
C3984 C3985 1.377 . S
C3984 C3986 1.384 . S
C3985 C3984 1.377 . S
C3985 C3991 1.390 . S
C3986 H3977 0.930 . S
C3986 C3984 1.384 . S
C3986 C3987 1.372 . S
C3987 C3986 1.372 . S
C3987 C3988 1.400 . S
C3987 C3992 1.490 . S
C3988 H3978 0.930 . S
C3988 C3987 1.400 . S
C3988 C3991 1.386 . S
H3989 C4005 0.930 . S
H3990 C4006 0.931 . S
C3991 H3979 0.929 . S
C3991 C3985 1.390 . S
C3991 C3988 1.386 . S
C3992 C3987 1.490 . S
C3992 C3994 1.395 . S
C3992 C3995 1.403 . S
H3993 C3999 0.930 . S
C3994 H3980 0.930 . S
C3994 C3992 1.395 . S
C3994 C3997 1.403 . S
C3995 C3992 1.403 . S
C3995 C3996 1.524 . S
C3995 C3999 1.400 . S
C3996 H3981 0.960 . S
C3996 H3982 0.960 . S
C3996 H3983 0.960 . S
C3996 C3995 1.524 . S
C3997 C3994 1.403 . S
C3997 C3998 1.392 . S
C3997 C4001 1.495 . S
C3998 C3997 1.392 . S
C3998 C3999 1.385 . S
C3998 C4000 1.478 . S
C3999 H3993 0.930 . S
C3999 C3995 1.400 . S
C3999 C3998 1.385 . S
C4000 C3998 1.478 . S
C4000 C4002 1.381 . S
C4000 C4006 1.383 . S
C4001 C3997 1.495 . S
C4001 H4007 0.959 . S
C4001 H4008 0.961 . S
C4001 H4009 0.960 . S
C4002 C4000 1.381 . S
C4002 C4003 1.394 . S
C4002 H4010 0.930 . S
C4003 C4002 1.394 . S
C4003 C4004 1.383 . S
C4003 H4011 0.929 . S
C4004 C4003 1.383 . S
C4004 C4005 1.377 . S
C4005 H3989 0.930 . S
C4005 C4004 1.377 . S
C4005 C4006 1.379 . S
C4006 H3990 0.931 . S
C4006 C4000 1.383 . S
C4006 C4005 1.379 . S
H4007 C4001 0.959 . S
H4008 C4001 0.961 . S
H4009 C4001 0.960 . S
H4010 C4002 0.930 . S
H4011 C4003 0.929 . S
H4012 C4020 0.929 . S
H4013 C4022 0.930 . S
H4014 C4024 0.930 . S
H4015 C4027 0.929 . S
H4016 C4030 0.930 . S
H4017 C4032 0.960 . S
H4018 C4032 0.960 . S
H4019 C4032 0.960 . S
C4020 H4012 0.929 . S
C4020 C4021 1.377 . S
C4020 C4022 1.384 . S
C4021 C4020 1.377 . S
C4021 C4027 1.390 . S
C4022 H4013 0.930 . S
C4022 C4020 1.384 . S
C4022 C4023 1.372 . S
C4023 C4022 1.372 . S
C4023 C4024 1.400 . S
C4023 C4028 1.490 . S
C4024 H4014 0.930 . S
C4024 C4023 1.400 . S
C4024 C4027 1.386 . S
H4025 C4041 0.930 . S
H4026 C4042 0.931 . S
C4027 H4015 0.929 . S
C4027 C4021 1.390 . S
C4027 C4024 1.386 . S
C4028 C4023 1.490 . S
C4028 C4030 1.395 . S
C4028 C4031 1.403 . S
H4029 C4035 0.930 . S
C4030 H4016 0.930 . S
C4030 C4028 1.395 . S
C4030 C4033 1.403 . S
C4031 C4028 1.403 . S
C4031 C4032 1.524 . S
C4031 C4035 1.400 . S
C4032 H4017 0.960 . S
C4032 H4018 0.960 . S
C4032 H4019 0.960 . S
C4032 C4031 1.524 . S
C4033 C4030 1.403 . S
C4033 C4034 1.392 . S
C4033 C4037 1.495 . S
C4034 C4033 1.392 . S
C4034 C4035 1.385 . S
C4034 C4036 1.478 . S
C4035 H4029 0.930 . S
C4035 C4031 1.400 . S
C4035 C4034 1.385 . S
C4036 C4034 1.478 . S
C4036 C4038 1.381 . S
C4036 C4042 1.383 . S
C4037 C4033 1.495 . S
C4037 H4043 0.959 . S
C4037 H4044 0.961 . S
C4037 H4045 0.960 . S
C4038 C4036 1.381 . S
C4038 C4039 1.394 . S
C4038 H4046 0.930 . S
C4039 C4038 1.394 . S
C4039 C4040 1.383 . S
C4039 H4047 0.929 . S
C4040 C4039 1.383 . S
C4040 C4041 1.377 . S
C4041 H4025 0.930 . S
C4041 C4040 1.377 . S
C4041 C4042 1.379 . S
C4042 H4026 0.931 . S
C4042 C4036 1.383 . S
C4042 C4041 1.379 . S
H4043 C4037 0.959 . S
H4044 C4037 0.961 . S
H4045 C4037 0.960 . S
H4046 C4038 0.930 . S
H4047 C4039 0.929 . S
H4048 C4056 0.929 . S
H4049 C4058 0.930 . S
H4050 C4060 0.930 1_565 S
H4051 C4063 0.929 1_565 S
H4052 C4066 0.930 . S
H4053 C4068 0.960 . S
H4054 C4068 0.960 . S
H4055 C4068 0.960 . S
C4056 H4048 0.929 . S
C4056 C4057 1.377 . S
C4056 C4058 1.384 . S
C4057 C4056 1.377 . S
C4057 C4063 1.390 . S
C4058 H4049 0.930 . S
C4058 C4056 1.384 . S
C4058 C4059 1.372 . S
C4059 C4058 1.372 . S
C4059 C4060 1.400 . S
C4059 C4064 1.490 . S
C4060 H4050 0.930 1_545 S
C4060 C4059 1.400 . S
C4060 C4063 1.386 . S
H4061 C4077 0.930 . S
H4062 C4078 0.931 . S
C4063 H4051 0.929 1_545 S
C4063 C4057 1.390 . S
C4063 C4060 1.386 . S
C4064 C4059 1.490 . S
C4064 C4066 1.395 . S
C4064 C4067 1.403 . S
H4065 C4071 0.930 . S
C4066 H4052 0.930 . S
C4066 C4064 1.395 . S
C4066 C4069 1.403 . S
C4067 C4064 1.403 . S
C4067 C4068 1.524 . S
C4067 C4071 1.400 . S
C4068 H4053 0.960 . S
C4068 H4054 0.960 . S
C4068 H4055 0.960 . S
C4068 C4067 1.524 . S
C4069 C4066 1.403 . S
C4069 C4070 1.392 . S
C4069 C4073 1.495 . S
C4070 C4069 1.392 . S
C4070 C4071 1.385 . S
C4070 C4072 1.478 . S
C4071 H4065 0.930 . S
C4071 C4067 1.400 . S
C4071 C4070 1.385 . S
C4072 C4070 1.478 . S
C4072 C4074 1.381 . S
C4072 C4078 1.383 . S
C4073 C4069 1.495 . S
C4073 H4079 0.959 . S
C4073 H4080 0.961 . S
C4073 H4081 0.960 . S
C4074 C4072 1.381 . S
C4074 C4075 1.394 . S
C4074 H4082 0.930 . S
C4075 C4074 1.394 . S
C4075 C4076 1.383 . S
C4075 H4083 0.929 . S
C4076 C4075 1.383 . S
C4076 C4077 1.377 . S
C4077 H4061 0.930 . S
C4077 C4076 1.377 . S
C4077 C4078 1.379 . S
C4078 H4062 0.931 . S
C4078 C4072 1.383 . S
C4078 C4077 1.379 . S
H4079 C4073 0.959 . S
H4080 C4073 0.961 . S
H4081 C4073 0.960 . S
H4082 C4074 0.930 . S
H4083 C4075 0.929 . S
H4084 C4092 0.929 . S
H4085 C4094 0.930 . S
H4086 C4096 0.930 . S
H4087 C4099 0.929 . S
H4088 C4102 0.930 . S
H4089 C4104 0.960 . S
H4090 C4104 0.960 . S
H4091 C4104 0.960 . S
C4092 H4084 0.929 . S
C4092 C4093 1.377 . S
C4092 C4094 1.384 . S
C4093 C4092 1.377 . S
C4093 C4099 1.390 . S
C4094 H4085 0.930 . S
C4094 C4092 1.384 . S
C4094 C4095 1.372 . S
C4095 C4094 1.372 . S
C4095 C4096 1.400 . S
C4095 C4100 1.490 . S
C4096 H4086 0.930 . S
C4096 C4095 1.400 . S
C4096 C4099 1.386 . S
H4097 C4113 0.930 . S
H4098 C4114 0.931 . S
C4099 H4087 0.929 . S
C4099 C4093 1.390 . S
C4099 C4096 1.386 . S
C4100 C4095 1.490 . S
C4100 C4102 1.395 . S
C4100 C4103 1.403 . S
H4101 C4107 0.930 . S
C4102 H4088 0.930 . S
C4102 C4100 1.395 . S
C4102 C4105 1.403 . S
C4103 C4100 1.403 . S
C4103 C4104 1.524 . S
C4103 C4107 1.400 . S
C4104 H4089 0.960 . S
C4104 H4090 0.960 . S
C4104 H4091 0.960 . S
C4104 C4103 1.524 . S
C4105 C4102 1.403 . S
C4105 C4106 1.392 . S
C4105 C4109 1.495 . S
C4106 C4105 1.392 . S
C4106 C4107 1.385 . S
C4106 C4108 1.478 . S
C4107 H4101 0.930 . S
C4107 C4103 1.400 . S
C4107 C4106 1.385 . S
C4108 C4106 1.478 . S
C4108 C4110 1.381 . S
C4108 C4114 1.383 . S
C4109 C4105 1.495 . S
C4109 H4115 0.959 . S
C4109 H4116 0.961 . S
C4109 H4117 0.960 . S
C4110 C4108 1.381 . S
C4110 C4111 1.394 . S
C4110 H4118 0.930 . S
C4111 C4110 1.394 . S
C4111 C4112 1.383 . S
C4111 H4119 0.929 . S
C4112 C4111 1.383 . S
C4112 C4113 1.377 . S
C4113 H4097 0.930 . S
C4113 C4112 1.377 . S
C4113 C4114 1.379 . S
C4114 H4098 0.931 . S
C4114 C4108 1.383 . S
C4114 C4113 1.379 . S
H4115 C4109 0.959 . S
H4116 C4109 0.961 . S
H4117 C4109 0.960 . S
H4118 C4110 0.930 . S
H4119 C4111 0.929 . S
H4120 C4128 0.929 . S
H4121 C4130 0.930 . S
H4122 C4132 0.930 . S
H4123 C4135 0.929 . S
H4124 C4138 0.930 . S
H4125 C4140 0.960 . S
H4126 C4140 0.960 . S
H4127 C4140 0.960 . S
C4128 H4120 0.929 . S
C4128 C4129 1.377 . S
C4128 C4130 1.384 . S
C4129 C4128 1.377 . S
C4129 C4135 1.390 . S
C4130 H4121 0.930 . S
C4130 C4128 1.384 . S
C4130 C4131 1.372 . S
C4131 C4130 1.372 . S
C4131 C4132 1.400 . S
C4131 C4136 1.490 . S
C4132 H4122 0.930 . S
C4132 C4131 1.400 . S
C4132 C4135 1.386 . S
H4133 C4149 0.930 1_565 S
H4134 C4150 0.931 1_565 S
C4135 H4123 0.929 . S
C4135 C4129 1.390 . S
C4135 C4132 1.386 . S
C4136 C4131 1.490 . S
C4136 C4138 1.395 . S
C4136 C4139 1.403 . S
H4137 C4143 0.930 . S
C4138 H4124 0.930 . S
C4138 C4136 1.395 . S
C4138 C4141 1.403 . S
C4139 C4136 1.403 . S
C4139 C4140 1.524 . S
C4139 C4143 1.400 . S
C4140 H4125 0.960 . S
C4140 H4126 0.960 . S
C4140 H4127 0.960 . S
C4140 C4139 1.524 . S
C4141 C4138 1.403 . S
C4141 C4142 1.392 . S
C4141 C4145 1.495 . S
C4142 C4141 1.392 . S
C4142 C4143 1.385 . S
C4142 C4144 1.478 . S
C4143 H4137 0.930 . S
C4143 C4139 1.400 . S
C4143 C4142 1.385 . S
C4144 C4142 1.478 . S
C4144 C4146 1.381 . S
C4144 C4150 1.383 . S
C4145 C4141 1.495 . S
C4145 H4151 0.959 . S
C4145 H4152 0.961 . S
C4145 H4153 0.960 . S
C4146 C4144 1.381 . S
C4146 C4147 1.394 . S
C4146 H4154 0.930 . S
C4147 C4146 1.394 . S
C4147 C4148 1.383 . S
C4147 H4155 0.929 . S
C4148 C4147 1.383 . S
C4148 C4149 1.377 . S
C4149 H4133 0.930 1_545 S
C4149 C4148 1.377 . S
C4149 C4150 1.379 . S
C4150 H4134 0.931 1_545 S
C4150 C4144 1.383 . S
C4150 C4149 1.379 . S
H4151 C4145 0.959 . S
H4152 C4145 0.961 . S
H4153 C4145 0.960 . S
H4154 C4146 0.930 . S
H4155 C4147 0.929 . S
H4156 C4164 0.929 . S
H4157 C4166 0.930 . S
H4158 C4168 0.930 . S
H4159 C4171 0.929 . S
H4160 C4174 0.930 . S
H4161 C4176 0.960 . S
H4162 C4176 0.960 . S
H4163 C4176 0.960 . S
C4164 H4156 0.929 . S
C4164 C4165 1.377 . S
C4164 C4166 1.384 . S
C4165 C4164 1.377 . S
C4165 C4171 1.390 . S
C4166 H4157 0.930 . S
C4166 C4164 1.384 . S
C4166 C4167 1.372 . S
C4167 C4166 1.372 . S
C4167 C4168 1.400 . S
C4167 C4172 1.490 . S
C4168 H4158 0.930 . S
C4168 C4167 1.400 . S
C4168 C4171 1.386 . S
H4169 C4185 0.930 . S
H4170 C4186 0.931 . S
C4171 H4159 0.929 . S
C4171 C4165 1.390 . S
C4171 C4168 1.386 . S
C4172 C4167 1.490 . S
C4172 C4174 1.395 . S
C4172 C4175 1.403 . S
H4173 C4179 0.930 . S
C4174 H4160 0.930 . S
C4174 C4172 1.395 . S
C4174 C4177 1.403 . S
C4175 C4172 1.403 . S
C4175 C4176 1.524 . S
C4175 C4179 1.400 . S
C4176 H4161 0.960 . S
C4176 H4162 0.960 . S
C4176 H4163 0.960 . S
C4176 C4175 1.524 . S
C4177 C4174 1.403 . S
C4177 C4178 1.392 . S
C4177 C4181 1.495 . S
C4178 C4177 1.392 . S
C4178 C4179 1.385 . S
C4178 C4180 1.478 . S
C4179 H4173 0.930 . S
C4179 C4175 1.400 . S
C4179 C4178 1.385 . S
C4180 C4178 1.478 . S
C4180 C4182 1.381 . S
C4180 C4186 1.383 . S
C4181 C4177 1.495 . S
C4181 H4187 0.959 . S
C4181 H4188 0.961 . S
C4181 H4189 0.960 . S
C4182 C4180 1.381 . S
C4182 C4183 1.394 . S
C4182 H4190 0.930 . S
C4183 C4182 1.394 . S
C4183 C4184 1.383 . S
C4183 H4191 0.929 . S
C4184 C4183 1.383 . S
C4184 C4185 1.377 . S
C4185 H4169 0.930 . S
C4185 C4184 1.377 . S
C4185 C4186 1.379 . S
C4186 H4170 0.931 . S
C4186 C4180 1.383 . S
C4186 C4185 1.379 . S
H4187 C4181 0.959 . S
H4188 C4181 0.961 . S
H4189 C4181 0.960 . S
H4190 C4182 0.930 . S
H4191 C4183 0.929 . S
H4192 C4200 0.929 . S
H4193 C4202 0.930 . S
H4194 C4204 0.930 . S
H4195 C4207 0.929 . S
H4196 C4210 0.930 . S
H4197 C4212 0.960 . S
H4198 C4212 0.960 . S
H4199 C4212 0.960 . S
C4200 H4192 0.929 . S
C4200 C4201 1.377 . S
C4200 C4202 1.384 . S
C4201 C4200 1.377 . S
C4201 C4207 1.390 . S
C4202 H4193 0.930 . S
C4202 C4200 1.384 . S
C4202 C4203 1.372 . S
C4203 C4202 1.372 . S
C4203 C4204 1.400 . S
C4203 C4208 1.490 . S
C4204 H4194 0.930 . S
C4204 C4203 1.400 . S
C4204 C4207 1.386 . S
H4205 C4221 0.930 . S
H4206 C4222 0.931 . S
C4207 H4195 0.929 . S
C4207 C4201 1.390 . S
C4207 C4204 1.386 . S
C4208 C4203 1.490 . S
C4208 C4210 1.395 . S
C4208 C4211 1.403 . S
H4209 C4215 0.930 1_556 S
C4210 H4196 0.930 . S
C4210 C4208 1.395 . S
C4210 C4213 1.403 . S
C4211 C4208 1.403 . S
C4211 C4212 1.524 1_554 S
C4211 C4215 1.400 . S
C4212 H4197 0.960 . S
C4212 H4198 0.960 . S
C4212 H4199 0.960 . S
C4212 C4211 1.524 1_556 S
C4213 C4210 1.403 . S
C4213 C4214 1.392 . S
C4213 C4217 1.495 . S
C4214 C4213 1.392 . S
C4214 C4215 1.385 . S
C4214 C4216 1.478 . S
C4215 H4209 0.930 1_554 S
C4215 C4211 1.400 . S
C4215 C4214 1.385 . S
C4216 C4214 1.478 . S
C4216 C4218 1.381 . S
C4216 C4222 1.383 . S
C4217 C4213 1.495 . S
C4217 H4223 0.959 . S
C4217 H4224 0.961 . S
C4217 H4225 0.960 . S
C4218 C4216 1.381 . S
C4218 C4219 1.394 . S
C4218 H4226 0.930 . S
C4219 C4218 1.394 . S
C4219 C4220 1.383 1_554 S
C4219 H4227 0.938 . S
C4220 C4219 1.383 1_556 S
C4220 C4221 1.377 . S
C4221 H4205 0.930 . S
C4221 C4220 1.377 . S
C4221 C4222 1.379 1_556 S
C4222 H4206 0.931 . S
C4222 C4216 1.383 . S
C4222 C4221 1.379 1_554 S
H4223 C4217 0.959 . S
H4224 C4217 0.961 . S
H4225 C4217 0.960 . S
H4226 C4218 0.930 . S
H4227 C4219 0.938 . S
H4228 C4236 0.929 . S
H4229 C4238 0.930 . S
H4230 C4240 0.930 . S
H4231 C4243 0.929 . S
H4232 C4246 0.930 . S
H4233 C4248 0.960 . S
H4234 C4248 0.960 . S
H4235 C4248 0.960 . S
C4236 H4228 0.929 . S
C4236 C4237 1.377 . S
C4236 C4238 1.384 . S
C4237 C4236 1.377 . S
C4237 C4243 1.390 . S
C4238 H4229 0.930 . S
C4238 C4236 1.384 . S
C4238 C4239 1.372 . S
C4239 C4238 1.372 . S
C4239 C4240 1.400 . S
C4239 C4244 1.490 . S
C4240 H4230 0.930 . S
C4240 C4239 1.400 . S
C4240 C4243 1.386 . S
H4241 C4257 0.930 . S
H4242 C4258 0.931 . S
C4243 H4231 0.929 . S
C4243 C4237 1.390 . S
C4243 C4240 1.386 . S
C4244 C4239 1.490 . S
C4244 C4246 1.395 . S
C4244 C4247 1.403 . S
H4245 C4251 0.930 . S
C4246 H4232 0.930 . S
C4246 C4244 1.395 . S
C4246 C4249 1.403 . S
C4247 C4244 1.403 . S
C4247 C4248 1.524 . S
C4247 C4251 1.400 . S
C4248 H4233 0.960 . S
C4248 H4234 0.960 . S
C4248 H4235 0.960 . S
C4248 C4247 1.524 . S
C4249 C4246 1.403 . S
C4249 C4250 1.392 . S
C4249 C4253 1.495 . S
C4250 C4249 1.392 . S
C4250 C4251 1.385 . S
C4250 C4252 1.478 . S
C4251 H4245 0.930 . S
C4251 C4247 1.400 . S
C4251 C4250 1.385 . S
C4252 C4250 1.478 . S
C4252 C4254 1.381 . S
C4252 C4258 1.383 . S
C4253 C4249 1.495 . S
C4253 H4259 0.959 . S
C4253 H4260 1.003 . S
C4253 H4261 0.960 . S
C4254 C4252 1.381 . S
C4254 C4255 1.394 . S
C4254 H4262 0.930 . S
C4255 C4254 1.394 . S
C4255 C4256 1.383 . S
C4255 H4263 0.929 . S
C4256 C4255 1.383 . S
C4256 C4257 1.377 . S
C4257 H4241 0.930 . S
C4257 C4256 1.377 . S
C4257 C4258 1.379 . S
C4258 H4242 0.931 . S
C4258 C4252 1.383 . S
C4258 C4257 1.379 . S
H4259 C4253 0.959 . S
H4260 C4253 1.003 . S
H4261 C4253 0.960 . S
H4262 C4254 0.930 . S
H4263 C4255 0.929 . S
H4264 C4272 0.929 . S
H4265 C4274 0.930 . S
H4266 C4276 0.930 . S
H4267 C4279 0.929 . S
H4268 C4282 0.930 . S
H4269 C4284 0.960 . S
H4270 C4284 0.960 . S
H4271 C4284 0.960 . S
C4272 H4264 0.929 . S
C4272 C4273 1.377 . S
C4272 C4274 1.384 . S
C4273 C4272 1.377 . S
C4273 C4279 1.390 . S
C4274 H4265 0.930 . S
C4274 C4272 1.384 . S
C4274 C4275 1.372 . S
C4275 C4274 1.372 . S
C4275 C4276 1.400 . S
C4275 C4280 1.490 . S
C4276 H4266 0.930 . S
C4276 C4275 1.400 . S
C4276 C4279 1.386 . S
H4277 C4293 0.930 . S
H4278 C4294 0.931 . S
C4279 H4267 0.929 . S
C4279 C4273 1.390 . S
C4279 C4276 1.386 . S
C4280 C4275 1.490 . S
C4280 C4282 1.395 . S
C4280 C4283 1.403 . S
H4281 C4287 0.930 . S
C4282 H4268 0.930 . S
C4282 C4280 1.395 . S
C4282 C4285 1.403 . S
C4283 C4280 1.403 . S
C4283 C4284 1.524 . S
C4283 C4287 1.400 . S
C4284 H4269 0.960 . S
C4284 H4270 0.960 . S
C4284 H4271 0.960 . S
C4284 C4283 1.524 . S
C4285 C4282 1.403 . S
C4285 C4286 1.392 . S
C4285 C4289 1.495 . S
C4286 C4285 1.392 . S
C4286 C4287 1.385 . S
C4286 C4288 1.478 . S
C4287 H4281 0.930 . S
C4287 C4283 1.400 . S
C4287 C4286 1.385 . S
C4288 C4286 1.478 . S
C4288 C4290 1.381 . S
C4288 C4294 1.383 . S
C4289 C4285 1.495 . S
C4289 H4295 0.959 . S
C4289 H4296 0.961 . S
C4289 H4297 0.960 . S
C4290 C4288 1.381 . S
C4290 C4291 1.394 . S
C4290 H4298 0.930 . S
C4291 C4290 1.394 . S
C4291 C4292 1.383 . S
C4291 H4299 0.929 . S
C4292 C4291 1.383 . S
C4292 C4293 1.377 . S
C4293 H4277 0.930 . S
C4293 C4292 1.377 . S
C4293 C4294 1.379 . S
C4294 H4278 0.931 . S
C4294 C4288 1.383 . S
C4294 C4293 1.379 . S
H4295 C4289 0.959 . S
H4296 C4289 0.961 . S
H4297 C4289 0.960 . S
H4298 C4290 0.930 . S
H4299 C4291 0.929 . S
H4300 C4308 0.929 . S
H4301 C4310 0.930 . S
H4302 C4312 0.930 . S
H4303 C4315 0.929 . S
H4304 C4318 0.930 . S
H4305 C4320 0.960 . S
H4306 C4320 0.960 . S
H4307 C4320 0.960 . S
C4308 H4300 0.929 . S
C4308 C4309 1.377 . S
C4308 C4310 1.384 . S
C4309 C4308 1.377 . S
C4309 C4315 1.390 . S
C4310 H4301 0.930 . S
C4310 C4308 1.384 . S
C4310 C4311 1.372 . S
C4311 C4310 1.372 . S
C4311 C4312 1.400 . S
C4311 C4316 1.490 . S
C4312 H4302 0.930 . S
C4312 C4311 1.400 . S
C4312 C4315 1.386 . S
H4313 C4329 0.930 . S
H4314 C4330 0.931 . S
C4315 H4303 0.929 . S
C4315 C4309 1.390 . S
C4315 C4312 1.386 . S
C4316 C4311 1.490 . S
C4316 C4318 1.395 . S
C4316 C4319 1.403 . S
H4317 C4323 0.930 . S
C4318 H4304 0.930 . S
C4318 C4316 1.395 . S
C4318 C4321 1.403 . S
C4319 C4316 1.403 . S
C4319 C4320 1.524 . S
C4319 C4323 1.400 . S
C4320 H4305 0.960 . S
C4320 H4306 0.960 . S
C4320 H4307 0.960 . S
C4320 C4319 1.524 . S
C4321 C4318 1.403 . S
C4321 C4322 1.392 . S
C4321 C4325 1.495 . S
C4322 C4321 1.392 . S
C4322 C4323 1.385 . S
C4322 C4324 1.478 . S
C4323 H4317 0.930 . S
C4323 C4319 1.400 . S
C4323 C4322 1.385 . S
C4324 C4322 1.478 . S
C4324 C4326 1.381 . S
C4324 C4330 1.383 . S
C4325 C4321 1.495 . S
C4325 H4331 0.959 . S
C4325 H4332 0.961 . S
C4325 H4333 0.960 . S
C4326 C4324 1.381 . S
C4326 C4327 1.394 . S
C4326 H4334 0.930 . S
C4327 C4326 1.394 . S
C4327 C4328 1.383 . S
C4327 H4335 0.929 . S
C4328 C4327 1.383 . S
C4328 C4329 1.377 . S
C4329 H4313 0.930 . S
C4329 C4328 1.377 . S
C4329 C4330 1.379 . S
C4330 H4314 0.931 . S
C4330 C4324 1.383 . S
C4330 C4329 1.379 . S
H4331 C4325 0.959 . S
H4332 C4325 0.961 . S
H4333 C4325 0.960 . S
H4334 C4326 0.930 . S
H4335 C4327 0.929 . S
H4336 C4344 0.929 . S
H4337 C4346 0.930 . S
H4338 C4348 0.930 . S
H4339 C4351 0.929 . S
H4340 C4354 0.930 . S
H4341 C4356 0.960 . S
H4342 C4356 0.960 . S
H4343 C4356 0.960 . S
C4344 H4336 0.929 . S
C4344 C4345 1.377 . S
C4344 C4346 1.384 . S
C4345 C4344 1.377 . S
C4345 C4351 1.390 . S
C4346 H4337 0.930 . S
C4346 C4344 1.384 . S
C4346 C4347 1.372 . S
C4347 C4346 1.372 . S
C4347 C4348 1.400 . S
C4347 C4352 1.490 . S
C4348 H4338 0.930 . S
C4348 C4347 1.400 . S
C4348 C4351 1.386 . S
H4349 C4365 0.930 . S
H4350 C4366 0.931 . S
C4351 H4339 0.929 . S
C4351 C4345 1.390 . S
C4351 C4348 1.386 . S
C4352 C4347 1.490 . S
C4352 C4354 1.395 . S
C4352 C4355 1.403 . S
H4353 C4359 0.930 . S
C4354 H4340 0.930 . S
C4354 C4352 1.395 . S
C4354 C4357 1.403 . S
C4355 C4352 1.403 . S
C4355 C4356 1.524 . S
C4355 C4359 1.400 . S
C4356 H4341 0.960 . S
C4356 H4342 0.960 . S
C4356 H4343 0.960 . S
C4356 C4355 1.524 . S
C4357 C4354 1.403 . S
C4357 C4358 1.392 . S
C4357 C4361 1.495 . S
C4358 C4357 1.392 . S
C4358 C4359 1.385 . S
C4358 C4360 1.478 . S
C4359 H4353 0.930 . S
C4359 C4355 1.400 . S
C4359 C4358 1.385 . S
C4360 C4358 1.478 . S
C4360 C4362 1.381 . S
C4360 C4366 1.383 . S
C4361 C4357 1.495 . S
C4361 H4367 0.959 . S
C4361 H4368 0.961 . S
C4361 H4369 0.960 . S
C4362 C4360 1.381 . S
C4362 C4363 1.394 . S
C4362 H4370 0.930 . S
C4363 C4362 1.394 . S
C4363 C4364 1.383 . S
C4363 H4371 0.929 . S
C4364 C4363 1.383 . S
C4364 C4365 1.377 . S
C4365 H4349 0.930 . S
C4365 C4364 1.377 . S
C4365 C4366 1.379 . S
C4366 H4350 0.931 . S
C4366 C4360 1.383 . S
C4366 C4365 1.379 . S
H4367 C4361 0.959 . S
H4368 C4361 0.961 . S
H4369 C4361 0.960 . S
H4370 C4362 0.930 . S
H4371 C4363 0.929 . S
H4372 C4380 0.929 . S
H4373 C4382 0.930 . S
H4374 C4384 0.930 . S
H4375 C4387 0.929 . S
H4376 C4390 0.930 . S
H4377 C4392 0.960 . S
H4378 C4392 0.960 . S
H4379 C4392 0.960 . S
C4380 H4372 0.929 . S
C4380 C4381 1.377 . S
C4380 C4382 1.384 . S
C4381 C4380 1.377 . S
C4381 C4387 1.390 . S
C4382 H4373 0.930 . S
C4382 C4380 1.384 . S
C4382 C4383 1.372 . S
C4383 C4382 1.372 . S
C4383 C4384 1.400 . S
C4383 C4388 1.490 . S
C4384 H4374 0.930 . S
C4384 C4383 1.400 . S
C4384 C4387 1.386 . S
H4385 C4401 0.930 . S
H4386 C4402 0.931 . S
C4387 H4375 0.929 . S
C4387 C4381 1.390 . S
C4387 C4384 1.386 . S
C4388 C4383 1.490 . S
C4388 C4390 1.395 . S
C4388 C4391 1.403 . S
H4389 C4395 0.930 . S
C4390 H4376 0.930 . S
C4390 C4388 1.395 . S
C4390 C4393 1.403 . S
C4391 C4388 1.403 . S
C4391 C4392 1.524 . S
C4391 C4395 1.400 . S
C4392 H4377 0.960 . S
C4392 H4378 0.960 . S
C4392 H4379 0.960 . S
C4392 C4391 1.524 . S
C4393 C4390 1.403 . S
C4393 C4394 1.392 . S
C4393 C4397 1.495 . S
C4394 C4393 1.392 . S
C4394 C4395 1.385 . S
C4394 C4396 1.478 . S
C4395 H4389 0.930 . S
C4395 C4391 1.400 . S
C4395 C4394 1.385 . S
C4396 C4394 1.478 . S
C4396 C4398 1.381 . S
C4396 C4402 1.383 . S
C4397 C4393 1.495 . S
C4397 H4403 0.959 . S
C4397 H4404 0.961 . S
C4397 H4405 0.960 . S
C4398 C4396 1.381 . S
C4398 C4399 1.394 . S
C4398 H4406 0.930 . S
C4399 C4398 1.394 . S
C4399 C4400 1.383 . S
C4399 H4407 0.929 . S
C4400 C4399 1.383 . S
C4400 C4401 1.377 . S
C4401 H4385 0.930 . S
C4401 C4400 1.377 . S
C4401 C4402 1.379 . S
C4402 H4386 0.931 . S
C4402 C4396 1.383 . S
C4402 C4401 1.379 . S
H4403 C4397 0.959 . S
H4404 C4397 0.961 . S
H4405 C4397 0.960 . S
H4406 C4398 0.930 . S
H4407 C4399 0.929 . S
H4408 C4416 0.929 . S
H4409 C4418 0.930 . S
H4410 C4420 0.930 . S
H4411 C4423 0.929 . S
H4412 C4426 0.930 . S
H4413 C4428 0.960 . S
H4414 C4428 0.960 . S
H4415 C4428 0.960 . S
C4416 H4408 0.929 . S
C4416 C4417 1.377 . S
C4416 C4418 1.384 . S
C4417 C4416 1.377 . S
C4417 C4423 1.390 . S
C4418 H4409 0.930 . S
C4418 C4416 1.384 . S
C4418 C4419 1.372 . S
C4419 C4418 1.372 . S
C4419 C4420 1.400 . S
C4419 C4424 1.490 . S
C4420 H4410 0.930 . S
C4420 C4419 1.400 . S
C4420 C4423 1.386 . S
H4421 C4437 0.930 . S
H4422 C4438 0.931 . S
C4423 H4411 0.929 . S
C4423 C4417 1.390 . S
C4423 C4420 1.386 . S
C4424 C4419 1.490 . S
C4424 C4426 1.395 . S
C4424 C4427 1.403 . S
H4425 C4431 0.930 . S
C4426 H4412 0.930 . S
C4426 C4424 1.395 . S
C4426 C4429 1.403 . S
C4427 C4424 1.403 . S
C4427 C4428 1.524 . S
C4427 C4431 1.400 . S
C4428 H4413 0.960 . S
C4428 H4414 0.960 . S
C4428 H4415 0.960 . S
C4428 C4427 1.524 . S
C4429 C4426 1.403 . S
C4429 C4430 1.392 . S
C4429 C4433 1.495 . S
C4430 C4429 1.392 . S
C4430 C4431 1.385 . S
C4430 C4432 1.478 . S
C4431 H4425 0.930 . S
C4431 C4427 1.400 . S
C4431 C4430 1.385 . S
C4432 C4430 1.478 . S
C4432 C4434 1.381 . S
C4432 C4438 1.383 . S
C4433 C4429 1.495 . S
C4433 H4439 0.959 . S
C4433 H4440 0.961 . S
C4433 H4441 0.960 . S
C4434 C4432 1.381 . S
C4434 C4435 1.394 . S
C4434 H4442 0.930 . S
C4435 C4434 1.394 . S
C4435 C4436 1.383 . S
C4435 H4443 0.929 . S
C4436 C4435 1.383 . S
C4436 C4437 1.377 . S
C4437 H4421 0.930 . S
C4437 C4436 1.377 . S
C4437 C4438 1.379 . S
C4438 H4422 0.931 . S
C4438 C4432 1.383 . S
C4438 C4437 1.379 . S
H4439 C4433 0.959 . S
H4440 C4433 0.961 . S
H4441 C4433 0.960 . S
H4442 C4434 0.930 . S
H4443 C4435 0.929 . S
H4444 C4452 0.929 . S
H4445 C4454 0.930 . S
H4446 C4456 0.930 . S
H4447 C4459 0.929 . S
H4448 C4462 0.930 . S
H4449 C4464 0.960 . S
H4450 C4464 0.960 . S
H4451 C4464 0.960 . S
C4452 H4444 0.929 . S
C4452 C4453 1.377 . S
C4452 C4454 1.384 . S
C4453 C4452 1.377 . S
C4453 C4459 1.390 . S
C4454 H4445 0.930 . S
C4454 C4452 1.384 . S
C4454 C4455 1.372 . S
C4455 C4454 1.372 . S
C4455 C4456 1.400 . S
C4455 C4460 1.490 . S
C4456 H4446 0.930 . S
C4456 C4455 1.400 . S
C4456 C4459 1.386 . S
H4457 C4473 0.930 . S
H4458 C4474 0.931 . S
C4459 H4447 0.929 . S
C4459 C4453 1.390 . S
C4459 C4456 1.386 . S
C4460 C4455 1.490 . S
C4460 C4462 1.395 . S
C4460 C4463 1.403 . S
H4461 C4467 0.930 . S
C4462 H4448 0.930 . S
C4462 C4460 1.395 . S
C4462 C4465 1.403 . S
C4463 C4460 1.403 . S
C4463 C4464 1.524 . S
C4463 C4467 1.400 . S
C4464 H4449 0.960 . S
C4464 H4450 0.960 . S
C4464 H4451 0.960 . S
C4464 C4463 1.524 . S
C4465 C4462 1.403 . S
C4465 C4466 1.392 . S
C4465 C4469 1.495 . S
C4466 C4465 1.392 . S
C4466 C4467 1.385 . S
C4466 C4468 1.478 . S
C4467 H4461 0.930 . S
C4467 C4463 1.400 . S
C4467 C4466 1.385 . S
C4468 C4466 1.478 . S
C4468 C4470 1.381 . S
C4468 C4474 1.383 . S
C4469 C4465 1.495 . S
C4469 H4475 0.959 . S
C4469 H4476 0.961 . S
C4469 H4477 0.960 . S
C4470 C4468 1.381 . S
C4470 C4471 1.394 . S
C4470 H4478 0.930 . S
C4471 C4470 1.394 . S
C4471 C4472 1.383 . S
C4471 H4479 0.929 . S
C4472 C4471 1.383 . S
C4472 C4473 1.377 . S
C4473 H4457 0.930 . S
C4473 C4472 1.377 . S
C4473 C4474 1.379 . S
C4474 H4458 0.931 . S
C4474 C4468 1.383 . S
C4474 C4473 1.379 . S
H4475 C4469 0.959 . S
H4476 C4469 0.961 . S
H4477 C4469 0.960 . S
H4478 C4470 0.930 . S
H4479 C4471 0.929 . S
H4480 C4488 0.929 . S
H4481 C4490 0.930 . S
H4482 C4492 0.930 . S
H4483 C4495 0.929 . S
H4484 C4498 0.930 . S
H4485 C4500 0.960 . S
H4486 C4500 0.960 . S
H4487 C4500 0.960 . S
C4488 H4480 0.929 . S
C4488 C4489 1.377 . S
C4488 C4490 1.384 . S
C4489 C4488 1.377 . S
C4489 C4495 1.390 . S
C4490 H4481 0.930 . S
C4490 C4488 1.384 . S
C4490 C4491 1.372 . S
C4491 C4490 1.372 . S
C4491 C4492 1.400 . S
C4491 C4496 1.490 . S
C4492 H4482 0.930 . S
C4492 C4491 1.400 . S
C4492 C4495 1.386 . S
H4493 C4509 0.930 . S
H4494 C4510 0.931 . S
C4495 H4483 0.929 . S
C4495 C4489 1.390 . S
C4495 C4492 1.386 . S
C4496 C4491 1.490 . S
C4496 C4498 1.395 . S
C4496 C4499 1.403 . S
H4497 C4503 0.930 . S
C4498 H4484 0.930 . S
C4498 C4496 1.395 . S
C4498 C4501 1.403 . S
C4499 C4496 1.403 . S
C4499 C4500 1.524 . S
C4499 C4503 1.400 . S
C4500 H4485 0.960 . S
C4500 H4486 0.960 . S
C4500 H4487 0.960 . S
C4500 C4499 1.524 . S
C4501 C4498 1.403 . S
C4501 C4502 1.392 . S
C4501 C4505 1.495 . S
C4502 C4501 1.392 . S
C4502 C4503 1.385 . S
C4502 C4504 1.478 . S
C4503 H4497 0.930 . S
C4503 C4499 1.400 . S
C4503 C4502 1.385 . S
C4504 C4502 1.478 . S
C4504 C4506 1.381 . S
C4504 C4510 1.383 . S
C4505 C4501 1.495 . S
C4505 H4511 0.959 . S
C4505 H4512 0.961 . S
C4505 H4513 0.960 . S
C4506 C4504 1.381 . S
C4506 C4507 1.394 . S
C4506 H4514 0.930 . S
C4507 C4506 1.394 . S
C4507 C4508 1.383 . S
C4507 H4515 0.929 . S
C4508 C4507 1.383 . S
C4508 C4509 1.377 . S
C4509 H4493 0.930 . S
C4509 C4508 1.377 . S
C4509 C4510 1.379 . S
C4510 H4494 0.931 . S
C4510 C4504 1.383 . S
C4510 C4509 1.379 . S
H4511 C4505 0.959 . S
H4512 C4505 0.961 . S
H4513 C4505 0.960 . S
H4514 C4506 0.930 . S
H4515 C4507 0.929 . S
H4516 C4524 0.929 . S
H4517 C4526 0.930 . S
H4518 C4528 0.930 . S
H4519 C4531 0.929 . S
H4520 C4534 0.930 . S
H4521 C4536 0.960 . S
H4522 C4536 0.960 . S
H4523 C4536 0.960 . S
C4524 H4516 0.929 . S
C4524 C4525 1.377 . S
C4524 C4526 1.384 . S
C4525 C4524 1.377 . S
C4525 C4531 1.390 . S
C4526 H4517 0.930 . S
C4526 C4524 1.384 . S
C4526 C4527 1.372 . S
C4527 C4526 1.372 . S
C4527 C4528 1.400 . S
C4527 C4532 1.490 . S
C4528 H4518 0.930 . S
C4528 C4527 1.400 . S
C4528 C4531 1.386 . S
H4529 C4545 0.930 . S
H4530 C4546 0.931 . S
C4531 H4519 0.929 . S
C4531 C4525 1.390 . S
C4531 C4528 1.386 . S
C4532 C4527 1.490 . S
C4532 C4534 1.395 . S
C4532 C4535 1.403 . S
H4533 C4539 0.930 . S
C4534 H4520 0.930 . S
C4534 C4532 1.395 . S
C4534 C4537 1.403 . S
C4535 C4532 1.403 . S
C4535 C4536 1.524 . S
C4535 C4539 1.400 . S
C4536 H4521 0.960 . S
C4536 H4522 0.960 . S
C4536 H4523 0.960 . S
C4536 C4535 1.524 . S
C4537 C4534 1.403 . S
C4537 C4538 1.392 . S
C4537 C4541 1.495 . S
C4538 C4537 1.392 . S
C4538 C4539 1.385 . S
C4538 C4540 1.478 . S
C4539 H4533 0.930 . S
C4539 C4535 1.400 . S
C4539 C4538 1.385 . S
C4540 C4538 1.478 . S
C4540 C4542 1.381 . S
C4540 C4546 1.383 . S
C4541 C4537 1.495 . S
C4541 H4547 0.959 . S
C4541 H4548 0.961 . S
C4541 H4549 0.960 . S
C4542 C4540 1.381 . S
C4542 C4543 1.394 . S
C4542 H4550 0.930 . S
C4543 C4542 1.394 . S
C4543 C4544 1.383 . S
C4543 H4551 0.929 . S
C4544 C4543 1.383 . S
C4544 C4545 1.377 . S
C4545 H4529 0.930 . S
C4545 C4544 1.377 . S
C4545 C4546 1.379 . S
C4546 H4530 0.931 . S
C4546 C4540 1.383 . S
C4546 C4545 1.379 . S
H4547 C4541 0.959 . S
H4548 C4541 0.961 . S
H4549 C4541 0.960 . S
H4550 C4542 0.930 . S
H4551 C4543 0.929 . S
H4552 C4560 0.929 . S
H4553 C4562 0.930 . S
H4554 C4564 0.930 . S
H4555 C4567 0.904 1_655 S
H4556 C4570 0.930 . S
H4557 C4572 0.960 . S
H4558 C4572 0.960 . S
H4559 C4572 0.960 . S
C4560 H4552 0.929 . S
C4560 C4561 1.377 . S
C4560 C4562 1.384 . S
C4561 C4560 1.377 . S
C4561 C4567 1.390 . S
C4562 H4553 0.930 . S
C4562 C4560 1.384 . S
C4562 C4563 1.372 . S
C4563 C4562 1.372 . S
C4563 C4564 1.400 . S
C4563 C4568 1.490 . S
C4564 H4554 0.930 . S
C4564 C4563 1.400 . S
C4564 C4567 1.386 . S
H4565 C4581 0.930 . S
H4566 C4582 0.931 . S
C4567 H4555 0.904 1_455 S
C4567 C4561 1.390 . S
C4567 C4564 1.386 . S
C4568 C4563 1.490 . S
C4568 C4570 1.395 . S
C4568 C4571 1.403 . S
H4569 C4575 0.894 1_655 S
C4570 H4556 0.930 . S
C4570 C4568 1.395 . S
C4570 C4573 1.403 . S
C4571 C4568 1.403 . S
C4571 C4572 1.524 1_455 S
C4571 C4575 1.400 . S
C4572 H4557 0.960 . S
C4572 H4558 0.960 . S
C4572 H4559 0.960 . S
C4572 C4571 1.524 1_655 S
C4573 C4570 1.403 . S
C4573 C4574 1.392 . S
C4573 C4577 1.495 . S
C4574 C4573 1.392 . S
C4574 C4575 1.385 . S
C4574 C4576 1.478 . S
C4575 H4569 0.894 1_455 S
C4575 C4571 1.400 . S
C4575 C4574 1.385 . S
C4576 C4574 1.478 . S
C4576 C4578 1.381 1_556 S
C4576 C4582 1.383 . S
C4577 C4573 1.495 . S
C4577 H4583 0.959 . S
C4577 H4584 0.961 . S
C4577 H4585 0.960 1_556 S
C4578 C4576 1.381 1_554 S
C4578 C4579 1.394 . S
C4578 H4586 0.930 . S
C4579 C4578 1.394 . S
C4579 C4580 1.383 . S
C4579 H4587 0.929 . S
C4580 C4579 1.383 . S
C4580 C4581 1.377 1_554 S
C4581 H4565 0.930 . S
C4581 C4580 1.377 1_556 S
C4581 C4582 1.379 . S
C4582 H4566 0.931 . S
C4582 C4576 1.383 . S
C4582 C4581 1.379 . S
H4583 C4577 0.959 . S
H4584 C4577 0.961 . S
H4585 C4577 0.960 1_554 S
H4586 C4578 0.930 . S
H4587 C4579 0.929 . S
H4588 C4596 0.929 . S
H4589 C4598 0.930 . S
H4590 C4600 0.930 . S
H4591 C4603 0.929 . S
H4592 C4606 0.930 . S
H4593 C4608 0.960 . S
H4594 C4608 0.960 . S
H4595 C4608 0.960 . S
C4596 H4588 0.929 . S
C4596 C4597 1.377 . S
C4596 C4598 1.384 . S
C4597 C4596 1.377 . S
C4597 C4603 1.390 . S
C4598 H4589 0.930 . S
C4598 C4596 1.384 . S
C4598 C4599 1.372 . S
C4599 C4598 1.372 . S
C4599 C4600 1.400 . S
C4599 C4604 1.490 . S
C4600 H4590 0.930 . S
C4600 C4599 1.400 . S
C4600 C4603 1.386 . S
H4601 C4617 0.930 . S
H4602 C4618 0.931 . S
C4603 H4591 0.929 . S
C4603 C4597 1.390 . S
C4603 C4600 1.386 . S
C4604 C4599 1.490 . S
C4604 C4606 1.395 . S
C4604 C4607 1.403 . S
H4605 C4611 0.930 . S
C4606 H4592 0.930 . S
C4606 C4604 1.395 . S
C4606 C4609 1.403 . S
C4607 C4604 1.403 . S
C4607 C4608 1.524 . S
C4607 C4611 1.400 . S
C4608 H4593 0.960 . S
C4608 H4594 0.960 . S
C4608 H4595 0.960 . S
C4608 C4607 1.524 . S
C4609 C4606 1.403 . S
C4609 C4610 1.392 . S
C4609 C4613 1.495 . S
C4610 C4609 1.392 . S
C4610 C4611 1.385 . S
C4610 C4612 1.478 . S
C4611 H4605 0.930 . S
C4611 C4607 1.400 . S
C4611 C4610 1.385 . S
C4612 C4610 1.478 . S
C4612 C4614 1.381 . S
C4612 C4618 1.383 . S
C4613 C4609 1.495 . S
C4613 H4619 0.959 . S
C4613 H4620 0.961 . S
C4613 H4621 0.960 . S
C4614 C4612 1.381 . S
C4614 C4615 1.394 . S
C4614 H4622 0.930 . S
C4615 C4614 1.394 . S
C4615 C4616 1.383 . S
C4615 H4623 0.929 . S
C4616 C4615 1.383 . S
C4616 C4617 1.377 . S
C4617 H4601 0.930 . S
C4617 C4616 1.377 . S
C4617 C4618 1.379 . S
C4618 H4602 0.931 . S
C4618 C4612 1.383 . S
C4618 C4617 1.379 . S
H4619 C4613 0.959 . S
H4620 C4613 0.961 . S
H4621 C4613 0.960 . S
H4622 C4614 0.930 . S
H4623 C4615 0.929 . S
H4624 C4632 0.929 . S
H4625 C4634 0.930 . S
H4626 C4636 0.930 . S
H4627 C4639 0.929 . S
H4628 C4642 0.930 . S
H4629 C4644 0.960 . S
H4630 C4644 0.960 . S
H4631 C4644 0.960 . S
C4632 H4624 0.929 . S
C4632 C4633 1.377 . S
C4632 C4634 1.384 . S
C4633 C4632 1.377 . S
C4633 C4639 1.390 . S
C4634 H4625 0.930 . S
C4634 C4632 1.384 . S
C4634 C4635 1.372 . S
C4635 C4634 1.372 . S
C4635 C4636 1.400 . S
C4635 C4640 1.490 . S
C4636 H4626 0.930 . S
C4636 C4635 1.400 . S
C4636 C4639 1.386 . S
H4637 C4653 0.930 . S
H4638 C4654 0.931 . S
C4639 H4627 0.929 . S
C4639 C4633 1.390 . S
C4639 C4636 1.386 . S
C4640 C4635 1.490 . S
C4640 C4642 1.395 . S
C4640 C4643 1.403 . S
H4641 C4647 0.930 . S
C4642 H4628 0.930 . S
C4642 C4640 1.395 . S
C4642 C4645 1.403 . S
C4643 C4640 1.403 . S
C4643 C4644 1.524 . S
C4643 C4647 1.400 . S
C4644 H4629 0.960 . S
C4644 H4630 0.960 . S
C4644 H4631 0.960 . S
C4644 C4643 1.524 . S
C4645 C4642 1.403 . S
C4645 C4646 1.392 . S
C4645 C4649 1.495 . S
C4646 C4645 1.392 . S
C4646 C4647 1.385 . S
C4646 C4648 1.478 . S
C4647 H4641 0.930 . S
C4647 C4643 1.400 . S
C4647 C4646 1.385 . S
C4648 C4646 1.478 . S
C4648 C4650 1.381 . S
C4648 C4654 1.383 . S
C4649 C4645 1.495 . S
C4649 H4655 0.959 . S
C4649 H4656 0.961 . S
C4649 H4657 0.960 . S
C4650 C4648 1.381 . S
C4650 C4651 1.394 . S
C4650 H4658 0.930 . S
C4651 C4650 1.394 . S
C4651 C4652 1.383 . S
C4651 H4659 0.929 . S
C4652 C4651 1.383 . S
C4652 C4653 1.377 . S
C4653 H4637 0.930 . S
C4653 C4652 1.377 . S
C4653 C4654 1.379 . S
C4654 H4638 0.931 . S
C4654 C4648 1.383 . S
C4654 C4653 1.379 . S
H4655 C4649 0.959 . S
H4656 C4649 0.961 . S
H4657 C4649 0.960 . S
H4658 C4650 0.930 . S
H4659 C4651 0.929 . S
H4660 C4668 0.929 . S
H4661 C4670 0.930 . S
H4662 C4672 0.930 . S
H4663 C4675 0.929 . S
H4664 C4678 0.930 . S
H4665 C4680 0.960 . S
H4666 C4680 0.960 . S
H4667 C4680 0.960 . S
C4668 H4660 0.929 . S
C4668 C4669 1.377 . S
C4668 C4670 1.384 . S
C4669 C4668 1.377 . S
C4669 C4675 1.390 . S
C4670 H4661 0.930 . S
C4670 C4668 1.384 . S
C4670 C4671 1.372 . S
C4671 C4670 1.372 . S
C4671 C4672 1.400 . S
C4671 C4676 1.490 . S
C4672 H4662 0.930 . S
C4672 C4671 1.400 . S
C4672 C4675 1.386 . S
H4673 C4689 0.930 . S
H4674 C4690 0.931 . S
C4675 H4663 0.929 . S
C4675 C4669 1.390 . S
C4675 C4672 1.386 . S
C4676 C4671 1.490 . S
C4676 C4678 1.395 . S
C4676 C4679 1.403 . S
H4677 C4683 0.930 . S
C4678 H4664 0.930 . S
C4678 C4676 1.395 . S
C4678 C4681 1.403 . S
C4679 C4676 1.403 . S
C4679 C4680 1.524 . S
C4679 C4683 1.400 . S
C4680 H4665 0.960 . S
C4680 H4666 0.960 . S
C4680 H4667 0.960 . S
C4680 C4679 1.524 . S
C4681 C4678 1.403 . S
C4681 C4682 1.392 . S
C4681 C4685 1.495 . S
C4682 C4681 1.392 . S
C4682 C4683 1.385 . S
C4682 C4684 1.478 . S
C4683 H4677 0.930 . S
C4683 C4679 1.400 . S
C4683 C4682 1.385 . S
C4684 C4682 1.478 . S
C4684 C4686 1.381 . S
C4684 C4690 1.383 . S
C4685 C4681 1.495 . S
C4685 H4691 0.959 . S
C4685 H4692 0.961 . S
C4685 H4693 0.960 . S
C4686 C4684 1.381 . S
C4686 C4687 1.394 . S
C4686 H4694 0.930 . S
C4687 C4686 1.394 . S
C4687 C4688 1.383 . S
C4687 H4695 0.929 . S
C4688 C4687 1.383 . S
C4688 C4689 1.377 . S
C4689 H4673 0.930 . S
C4689 C4688 1.377 . S
C4689 C4690 1.379 . S
C4690 H4674 0.931 . S
C4690 C4684 1.383 . S
C4690 C4689 1.379 . S
H4691 C4685 0.959 . S
H4692 C4685 0.961 . S
H4693 C4685 0.960 . S
H4694 C4686 0.930 . S
H4695 C4687 0.929 . S
H4696 C4704 0.929 . S
H4697 C4706 0.930 . S
H4698 C4708 0.930 . S
H4699 C4711 0.929 . S
H4700 C4714 0.909 1_655 S
H4701 C4716 0.960 . S
H4702 C4716 0.960 . S
H4703 C4716 0.960 . S
C4704 H4696 0.929 . S
C4704 C4705 1.377 . S
C4704 C4706 1.384 . S
C4705 C4704 1.377 . S
C4705 C4711 1.390 . S
C4706 H4697 0.930 . S
C4706 C4704 1.384 . S
C4706 C4707 1.372 . S
C4707 C4706 1.372 . S
C4707 C4708 1.400 . S
C4707 C4712 1.490 . S
C4708 H4698 0.930 . S
C4708 C4707 1.400 . S
C4708 C4711 1.386 . S
H4709 C4725 0.930 . S
H4710 C4726 0.931 . S
C4711 H4699 0.929 . S
C4711 C4705 1.390 . S
C4711 C4708 1.386 . S
C4712 C4707 1.490 . S
C4712 C4714 1.395 . S
C4712 C4715 1.403 . S
H4713 C4719 0.930 . S
C4714 H4700 0.909 1_455 S
C4714 C4712 1.395 . S
C4714 C4717 1.403 . S
C4715 C4712 1.403 . S
C4715 C4716 1.524 . S
C4715 C4719 1.400 . S
C4716 H4701 0.960 . S
C4716 H4702 0.960 . S
C4716 H4703 0.960 . S
C4716 C4715 1.524 . S
C4717 C4714 1.403 . S
C4717 C4718 1.392 . S
C4717 C4721 1.495 1_455 S
C4718 C4717 1.392 . S
C4718 C4719 1.385 . S
C4718 C4720 1.478 . S
C4719 H4713 0.930 . S
C4719 C4715 1.400 . S
C4719 C4718 1.385 . S
C4720 C4718 1.478 . S
C4720 C4722 1.381 . S
C4720 C4726 1.383 . S
C4721 C4717 1.495 1_655 S
C4721 H4727 0.959 . S
C4721 H4728 0.961 . S
C4721 H4729 0.960 . S
C4722 C4720 1.381 . S
C4722 C4723 1.394 . S
C4722 H4730 0.930 . S
C4723 C4722 1.394 . S
C4723 C4724 1.383 . S
C4723 H4731 0.929 . S
C4724 C4723 1.383 . S
C4724 C4725 1.377 . S
C4725 H4709 0.930 . S
C4725 C4724 1.377 . S
C4725 C4726 1.379 . S
C4726 H4710 0.931 . S
C4726 C4720 1.383 . S
C4726 C4725 1.379 . S
H4727 C4721 0.959 . S
H4728 C4721 0.961 . S
H4729 C4721 0.960 . S
H4730 C4722 0.930 . S
H4731 C4723 0.929 . S
H4732 C4740 0.929 . S
H4733 C4742 0.930 . S
H4734 C4744 0.930 . S
H4735 C4747 0.929 . S
H4736 C4750 0.930 . S
H4737 C4752 0.960 . S
H4738 C4752 0.960 . S
H4739 C4752 0.960 . S
C4740 H4732 0.929 . S
C4740 C4741 1.377 . S
C4740 C4742 1.384 . S
C4741 C4740 1.377 . S
C4741 C4747 1.390 . S
C4742 H4733 0.930 . S
C4742 C4740 1.384 . S
C4742 C4743 1.372 . S
C4743 C4742 1.372 . S
C4743 C4744 1.400 . S
C4743 C4748 1.490 . S
C4744 H4734 0.930 . S
C4744 C4743 1.400 . S
C4744 C4747 1.386 . S
H4745 C4761 0.930 . S
H4746 C4762 0.931 . S
C4747 H4735 0.929 . S
C4747 C4741 1.390 . S
C4747 C4744 1.386 . S
C4748 C4743 1.490 . S
C4748 C4750 1.395 . S
C4748 C4751 1.403 . S
H4749 C4755 0.930 . S
C4750 H4736 0.930 . S
C4750 C4748 1.395 . S
C4750 C4753 1.403 . S
C4751 C4748 1.403 . S
C4751 C4752 1.524 . S
C4751 C4755 1.400 . S
C4752 H4737 0.960 . S
C4752 H4738 0.960 . S
C4752 H4739 0.960 . S
C4752 C4751 1.524 . S
C4753 C4750 1.403 . S
C4753 C4754 1.392 . S
C4753 C4757 1.495 . S
C4754 C4753 1.392 . S
C4754 C4755 1.385 . S
C4754 C4756 1.478 . S
C4755 H4749 0.930 . S
C4755 C4751 1.400 . S
C4755 C4754 1.385 . S
C4756 C4754 1.478 . S
C4756 C4758 1.381 . S
C4756 C4762 1.383 . S
C4757 C4753 1.495 . S
C4757 H4763 0.959 . S
C4757 H4764 0.961 . S
C4757 H4765 0.960 . S
C4758 C4756 1.381 . S
C4758 C4759 1.394 . S
C4758 H4766 0.930 . S
C4759 C4758 1.394 . S
C4759 C4760 1.383 . S
C4759 H4767 0.929 . S
C4760 C4759 1.383 . S
C4760 C4761 1.377 . S
C4761 H4745 0.930 . S
C4761 C4760 1.377 . S
C4761 C4762 1.379 . S
C4762 H4746 0.931 . S
C4762 C4756 1.383 . S
C4762 C4761 1.379 . S
H4763 C4757 0.959 . S
H4764 C4757 0.961 . S
H4765 C4757 0.960 . S
H4766 C4758 0.930 . S
H4767 C4759 0.929 . S
H4768 C4776 0.929 . S
H4769 C4778 0.930 . S
H4770 C4780 0.930 . S
H4771 C4783 0.929 . S
H4772 C4786 0.930 . S
H4773 C4788 0.960 . S
H4774 C4788 0.960 . S
H4775 C4788 0.960 . S
C4776 H4768 0.929 . S
C4776 C4777 1.377 . S
C4776 C4778 1.384 . S
C4777 C4776 1.377 . S
C4777 C4783 1.390 . S
C4778 H4769 0.930 . S
C4778 C4776 1.384 . S
C4778 C4779 1.372 . S
C4779 C4778 1.372 . S
C4779 C4780 1.400 . S
C4779 C4784 1.490 . S
C4780 H4770 0.930 . S
C4780 C4779 1.400 . S
C4780 C4783 1.386 . S
H4781 C4797 0.930 . S
H4782 C4798 0.931 . S
C4783 H4771 0.929 . S
C4783 C4777 1.390 . S
C4783 C4780 1.386 . S
C4784 C4779 1.490 . S
C4784 C4786 1.395 . S
C4784 C4787 1.403 . S
H4785 C4791 0.930 . S
C4786 H4772 0.930 . S
C4786 C4784 1.395 . S
C4786 C4789 1.403 . S
C4787 C4784 1.403 . S
C4787 C4788 1.524 . S
C4787 C4791 1.400 . S
C4788 H4773 0.960 . S
C4788 H4774 0.960 . S
C4788 H4775 0.960 . S
C4788 C4787 1.524 . S
C4789 C4786 1.403 . S
C4789 C4790 1.392 . S
C4789 C4793 1.495 . S
C4790 C4789 1.392 . S
C4790 C4791 1.385 . S
C4790 C4792 1.478 . S
C4791 H4785 0.930 . S
C4791 C4787 1.400 . S
C4791 C4790 1.385 . S
C4792 C4790 1.478 . S
C4792 C4794 1.381 . S
C4792 C4798 1.383 . S
C4793 C4789 1.495 . S
C4793 H4799 0.959 . S
C4793 H4800 0.961 . S
C4793 H4801 0.960 . S
C4794 C4792 1.381 . S
C4794 C4795 1.394 . S
C4794 H4802 0.930 . S
C4795 C4794 1.394 . S
C4795 C4796 1.383 . S
C4795 H4803 0.929 . S
C4796 C4795 1.383 . S
C4796 C4797 1.377 . S
C4797 H4781 0.930 . S
C4797 C4796 1.377 . S
C4797 C4798 1.379 . S
C4798 H4782 0.931 . S
C4798 C4792 1.383 . S
C4798 C4797 1.379 . S
H4799 C4793 0.959 . S
H4800 C4793 0.961 . S
H4801 C4793 0.960 . S
H4802 C4794 0.930 . S
H4803 C4795 0.929 . S
H4804 C4812 0.929 . S
H4805 C4814 0.930 . S
H4806 C4816 0.930 . S
H4807 C4819 0.929 . S
H4808 C4822 0.930 . S
H4809 C4824 0.960 . S
H4810 C4824 0.960 . S
H4811 C4824 0.960 . S
C4812 H4804 0.929 . S
C4812 C4813 1.377 . S
C4812 C4814 1.384 . S
C4813 C4812 1.377 . S
C4813 C4819 1.390 . S
C4814 H4805 0.930 . S
C4814 C4812 1.384 . S
C4814 C4815 1.372 . S
C4815 C4814 1.372 . S
C4815 C4816 1.400 . S
C4815 C4820 1.490 . S
C4816 H4806 0.930 . S
C4816 C4815 1.400 . S
C4816 C4819 1.386 . S
H4817 C4833 0.930 . S
H4818 C4834 0.931 . S
C4819 H4807 0.929 . S
C4819 C4813 1.390 . S
C4819 C4816 1.386 . S
C4820 C4815 1.490 . S
C4820 C4822 1.395 . S
C4820 C4823 1.403 . S
H4821 C4827 0.930 . S
C4822 H4808 0.930 . S
C4822 C4820 1.395 . S
C4822 C4825 1.403 . S
C4823 C4820 1.403 . S
C4823 C4824 1.524 . S
C4823 C4827 1.400 . S
C4824 H4809 0.960 . S
C4824 H4810 0.960 . S
C4824 H4811 0.960 . S
C4824 C4823 1.524 . S
C4825 C4822 1.403 . S
C4825 C4826 1.392 . S
C4825 C4829 1.495 . S
C4826 C4825 1.392 . S
C4826 C4827 1.385 . S
C4826 C4828 1.478 . S
C4827 H4821 0.930 . S
C4827 C4823 1.400 . S
C4827 C4826 1.385 . S
C4828 C4826 1.478 . S
C4828 C4830 1.381 . S
C4828 C4834 1.383 . S
C4829 C4825 1.495 . S
C4829 H4835 0.959 . S
C4829 H4836 0.961 . S
C4829 H4837 0.960 . S
C4830 C4828 1.381 . S
C4830 C4831 1.394 . S
C4830 H4838 0.930 . S
C4831 C4830 1.394 . S
C4831 C4832 1.383 . S
C4831 H4839 0.929 . S
C4832 C4831 1.383 . S
C4832 C4833 1.377 . S
C4833 H4817 0.930 . S
C4833 C4832 1.377 . S
C4833 C4834 1.379 . S
C4834 H4818 0.931 . S
C4834 C4828 1.383 . S
C4834 C4833 1.379 . S
H4835 C4829 0.959 . S
H4836 C4829 0.961 . S
H4837 C4829 0.960 . S
H4838 C4830 0.930 . S
H4839 C4831 0.929 . S
H4840 C4848 0.929 . S
H4841 C4850 0.930 . S
H4842 C4852 0.930 . S
H4843 C4855 0.929 . S
H4844 C4858 0.930 . S
H4845 C4860 0.960 . S
H4846 C4860 0.960 . S
H4847 C4860 0.960 . S
C4848 H4840 0.929 . S
C4848 C4849 1.377 . S
C4848 C4850 1.384 . S
C4849 C4848 1.377 . S
C4849 C4855 1.390 . S
C4850 H4841 0.930 . S
C4850 C4848 1.384 . S
C4850 C4851 1.372 . S
C4851 C4850 1.372 . S
C4851 C4852 1.400 . S
C4851 C4856 1.490 . S
C4852 H4842 0.930 . S
C4852 C4851 1.400 . S
C4852 C4855 1.386 . S
H4853 C4869 0.930 . S
H4854 C4870 0.931 . S
C4855 H4843 0.929 . S
C4855 C4849 1.390 . S
C4855 C4852 1.386 . S
C4856 C4851 1.490 . S
C4856 C4858 1.395 . S
C4856 C4859 1.403 . S
H4857 C4863 0.930 . S
C4858 H4844 0.930 . S
C4858 C4856 1.395 . S
C4858 C4861 1.403 . S
C4859 C4856 1.403 . S
C4859 C4860 1.524 . S
C4859 C4863 1.400 . S
C4860 H4845 0.960 . S
C4860 H4846 0.960 . S
C4860 H4847 0.960 . S
C4860 C4859 1.524 . S
C4861 C4858 1.403 . S
C4861 C4862 1.392 . S
C4861 C4865 1.495 . S
C4862 C4861 1.392 . S
C4862 C4863 1.385 . S
C4862 C4864 1.478 . S
C4863 H4857 0.930 . S
C4863 C4859 1.400 . S
C4863 C4862 1.385 . S
C4864 C4862 1.478 . S
C4864 C4866 1.381 . S
C4864 C4870 1.383 . S
C4865 C4861 1.495 . S
C4865 H4871 0.959 . S
C4865 H4872 0.961 . S
C4865 H4873 0.960 . S
C4866 C4864 1.381 . S
C4866 C4867 1.394 . S
C4866 H4874 0.930 . S
C4867 C4866 1.394 . S
C4867 C4868 1.383 . S
C4867 H4875 0.929 . S
C4868 C4867 1.383 . S
C4868 C4869 1.377 . S
C4869 H4853 0.930 . S
C4869 C4868 1.377 . S
C4869 C4870 1.379 . S
C4870 H4854 0.931 . S
C4870 C4864 1.383 . S
C4870 C4869 1.379 . S
H4871 C4865 0.959 . S
H4872 C4865 0.961 . S
H4873 C4865 0.960 . S
H4874 C4866 0.930 . S
H4875 C4867 0.929 . S
H4876 C4884 0.929 . S
H4877 C4886 0.930 . S
H4878 C4888 0.930 . S
H4879 C4891 0.929 . S
H4880 C4894 0.930 . S
H4881 C4896 0.960 . S
H4882 C4896 0.960 . S
H4883 C4896 0.960 . S
C4884 H4876 0.929 . S
C4884 C4885 1.377 . S
C4884 C4886 1.384 . S
C4885 C4884 1.377 . S
C4885 C4891 1.390 . S
C4886 H4877 0.930 . S
C4886 C4884 1.384 . S
C4886 C4887 1.372 . S
C4887 C4886 1.372 . S
C4887 C4888 1.400 . S
C4887 C4892 1.490 . S
C4888 H4878 0.930 . S
C4888 C4887 1.400 . S
C4888 C4891 1.386 . S
H4889 C4905 0.930 . S
H4890 C4906 0.931 . S
C4891 H4879 0.929 . S
C4891 C4885 1.390 . S
C4891 C4888 1.386 . S
C4892 C4887 1.490 . S
C4892 C4894 1.395 . S
C4892 C4895 1.403 . S
H4893 C4899 0.930 . S
C4894 H4880 0.930 . S
C4894 C4892 1.395 . S
C4894 C4897 1.403 . S
C4895 C4892 1.403 . S
C4895 C4896 1.524 . S
C4895 C4899 1.400 . S
C4896 H4881 0.960 . S
C4896 H4882 0.960 . S
C4896 H4883 0.960 . S
C4896 C4895 1.524 . S
C4897 C4894 1.403 . S
C4897 C4898 1.392 . S
C4897 C4901 1.495 . S
C4898 C4897 1.392 . S
C4898 C4899 1.385 . S
C4898 C4900 1.478 . S
C4899 H4893 0.930 . S
C4899 C4895 1.400 . S
C4899 C4898 1.385 . S
C4900 C4898 1.478 . S
C4900 C4902 1.381 . S
C4900 C4906 1.383 . S
C4901 C4897 1.495 . S
C4901 H4907 0.959 . S
C4901 H4908 0.961 . S
C4901 H4909 0.960 . S
C4902 C4900 1.381 . S
C4902 C4903 1.394 . S
C4902 H4910 0.930 . S
C4903 C4902 1.394 . S
C4903 C4904 1.383 . S
C4903 H4911 0.929 . S
C4904 C4903 1.383 . S
C4904 C4905 1.377 . S
C4905 H4889 0.930 . S
C4905 C4904 1.377 . S
C4905 C4906 1.379 . S
C4906 H4890 0.931 . S
C4906 C4900 1.383 . S
C4906 C4905 1.379 . S
H4907 C4901 0.959 . S
H4908 C4901 0.961 . S
H4909 C4901 0.960 . S
H4910 C4902 0.930 . S
H4911 C4903 0.929 . S
H4912 C4920 0.929 . S
H4913 C4922 0.930 . S
H4914 C4924 0.930 . S
H4915 C4927 0.929 . S
H4916 C4930 0.930 . S
H4917 C4932 0.960 . S
H4918 C4932 0.960 . S
H4919 C4932 0.960 . S
C4920 H4912 0.929 . S
C4920 C4921 1.377 . S
C4920 C4922 1.384 . S
C4921 C4920 1.377 . S
C4921 C4927 1.390 . S
C4922 H4913 0.930 . S
C4922 C4920 1.384 . S
C4922 C4923 1.372 . S
C4923 C4922 1.372 . S
C4923 C4924 1.400 . S
C4923 C4928 1.490 . S
C4924 H4914 0.930 . S
C4924 C4923 1.400 . S
C4924 C4927 1.386 . S
H4925 C4941 0.930 . S
H4926 C4942 0.931 . S
C4927 H4915 0.929 . S
C4927 C4921 1.390 . S
C4927 C4924 1.386 . S
C4928 C4923 1.490 . S
C4928 C4930 1.395 . S
C4928 C4931 1.403 . S
H4929 C4935 0.930 . S
C4930 H4916 0.930 . S
C4930 C4928 1.395 . S
C4930 C4933 1.403 . S
C4931 C4928 1.403 . S
C4931 C4932 1.524 . S
C4931 C4935 1.400 . S
C4932 H4917 0.960 . S
C4932 H4918 0.960 . S
C4932 H4919 0.960 . S
C4932 C4931 1.524 . S
C4933 C4930 1.403 . S
C4933 C4934 1.392 . S
C4933 C4937 1.495 . S
C4934 C4933 1.392 . S
C4934 C4935 1.385 . S
C4934 C4936 1.478 . S
C4935 H4929 0.930 . S
C4935 C4931 1.400 . S
C4935 C4934 1.385 . S
C4936 C4934 1.478 . S
C4936 C4938 1.381 . S
C4936 C4942 1.383 . S
C4937 C4933 1.495 . S
C4937 H4943 0.959 . S
C4937 H4944 0.961 . S
C4937 H4945 0.960 . S
C4938 C4936 1.381 . S
C4938 C4939 1.394 . S
C4938 H4946 0.930 . S
C4939 C4938 1.394 . S
C4939 C4940 1.383 . S
C4939 H4947 0.929 . S
C4940 C4939 1.383 . S
C4940 C4941 1.377 . S
C4941 H4925 0.930 . S
C4941 C4940 1.377 . S
C4941 C4942 1.379 . S
C4942 H4926 0.931 . S
C4942 C4936 1.383 . S
C4942 C4941 1.379 . S
H4943 C4937 0.959 . S
H4944 C4937 0.961 . S
H4945 C4937 0.960 . S
H4946 C4938 0.930 . S
H4947 C4939 0.929 . S
H4948 C4956 0.929 . S
H4949 C4958 0.930 . S
H4950 C4960 0.930 . S
H4951 C4963 0.929 . S
H4952 C4966 0.930 . S
H4953 C4968 0.960 . S
H4954 C4968 0.960 . S
H4955 C4968 0.960 . S
C4956 H4948 0.929 . S
C4956 C4957 1.377 . S
C4956 C4958 1.384 . S
C4957 C4956 1.377 . S
C4957 C4963 1.390 . S
C4958 H4949 0.930 . S
C4958 C4956 1.384 . S
C4958 C4959 1.372 . S
C4959 C4958 1.372 . S
C4959 C4960 1.400 . S
C4959 C4964 1.490 . S
C4960 H4950 0.930 . S
C4960 C4959 1.400 . S
C4960 C4963 1.386 . S
H4961 C4977 0.930 . S
H4962 C4978 0.931 . S
C4963 H4951 0.929 . S
C4963 C4957 1.390 . S
C4963 C4960 1.386 . S
C4964 C4959 1.490 . S
C4964 C4966 1.395 . S
C4964 C4967 1.403 . S
H4965 C4971 0.930 . S
C4966 H4952 0.930 . S
C4966 C4964 1.395 . S
C4966 C4969 1.403 . S
C4967 C4964 1.403 . S
C4967 C4968 1.524 . S
C4967 C4971 1.400 . S
C4968 H4953 0.960 . S
C4968 H4954 0.960 . S
C4968 H4955 0.960 . S
C4968 C4967 1.524 . S
C4969 C4966 1.403 . S
C4969 C4970 1.392 . S
C4969 C4973 1.495 . S
C4970 C4969 1.392 . S
C4970 C4971 1.385 . S
C4970 C4972 1.478 . S
C4971 H4965 0.930 . S
C4971 C4967 1.400 . S
C4971 C4970 1.385 . S
C4972 C4970 1.478 . S
C4972 C4974 1.381 . S
C4972 C4978 1.383 . S
C4973 C4969 1.495 . S
C4973 H4979 0.959 . S
C4973 H4980 0.961 . S
C4973 H4981 0.960 . S
C4974 C4972 1.381 . S
C4974 C4975 1.394 . S
C4974 H4982 0.930 . S
C4975 C4974 1.394 . S
C4975 C4976 1.383 . S
C4975 H4983 0.929 . S
C4976 C4975 1.383 . S
C4976 C4977 1.377 . S
C4977 H4961 0.930 . S
C4977 C4976 1.377 . S
C4977 C4978 1.379 . S
C4978 H4962 0.931 . S
C4978 C4972 1.383 . S
C4978 C4977 1.379 . S
H4979 C4973 0.959 . S
H4980 C4973 0.961 . S
H4981 C4973 0.960 . S
H4982 C4974 0.930 . S
H4983 C4975 0.929 . S
H4984 C4992 0.929 . S
H4985 C4994 0.930 . S
H4986 C4996 0.930 . S
H4987 C4999 0.929 . S
H4988 C5002 0.930 . S
H4989 C5004 0.960 . S
H4990 C5004 0.960 . S
H4991 C5004 0.960 . S
C4992 H4984 0.929 . S
C4992 C4993 1.377 . S
C4992 C4994 1.384 . S
C4993 C4992 1.377 . S
C4993 C4999 1.390 . S
C4994 H4985 0.930 . S
C4994 C4992 1.384 . S
C4994 C4995 1.372 . S
C4995 C4994 1.372 . S
C4995 C4996 1.400 . S
C4995 C5000 1.490 . S
C4996 H4986 0.930 . S
C4996 C4995 1.400 . S
C4996 C4999 1.386 . S
H4997 C5013 0.930 . S
H4998 C5014 0.931 . S
C4999 H4987 0.929 . S
C4999 C4993 1.390 . S
C4999 C4996 1.386 . S
C5000 C4995 1.490 . S
C5000 C5002 1.395 . S
C5000 C5003 1.403 . S
H5001 C5007 0.930 . S
C5002 H4988 0.930 . S
C5002 C5000 1.395 . S
C5002 C5005 1.403 . S
C5003 C5000 1.403 . S
C5003 C5004 1.524 . S
C5003 C5007 1.400 . S
C5004 H4989 0.960 . S
C5004 H4990 0.960 . S
C5004 H4991 0.960 . S
C5004 C5003 1.524 . S
C5005 C5002 1.403 . S
C5005 C5006 1.392 . S
C5005 C5009 1.495 . S
C5006 C5005 1.392 . S
C5006 C5007 1.385 . S
C5006 C5008 1.478 . S
C5007 H5001 0.930 . S
C5007 C5003 1.400 . S
C5007 C5006 1.385 . S
C5008 C5006 1.478 . S
C5008 C5010 1.381 . S
C5008 C5014 1.383 . S
C5009 C5005 1.495 . S
C5009 H5015 0.959 . S
C5009 H5016 0.961 . S
C5009 H5017 0.960 . S
C5010 C5008 1.381 . S
C5010 C5011 1.394 . S
C5010 H5018 0.930 . S
C5011 C5010 1.394 . S
C5011 C5012 1.383 . S
C5011 H5019 0.929 . S
C5012 C5011 1.383 . S
C5012 C5013 1.377 . S
C5013 H4997 0.930 . S
C5013 C5012 1.377 . S
C5013 C5014 1.379 . S
C5014 H4998 0.931 . S
C5014 C5008 1.383 . S
C5014 C5013 1.379 . S
H5015 C5009 0.959 . S
H5016 C5009 0.961 . S
H5017 C5009 0.960 . S
H5018 C5010 0.930 . S
H5019 C5011 0.929 . S
H5020 C5028 0.929 . S
H5021 C5030 0.930 . S
H5022 C5032 0.930 . S
H5023 C5035 0.929 . S
H5024 C5038 0.930 . S
H5025 C5040 0.960 . S
H5026 C5040 0.960 . S
H5027 C5040 0.960 . S
C5028 H5020 0.929 . S
C5028 C5029 1.377 . S
C5028 C5030 1.384 . S
C5029 C5028 1.377 . S
C5029 C5035 1.390 . S
C5030 H5021 0.930 . S
C5030 C5028 1.384 . S
C5030 C5031 1.372 . S
C5031 C5030 1.372 . S
C5031 C5032 1.400 . S
C5031 C5036 1.490 . S
C5032 H5022 0.930 . S
C5032 C5031 1.400 . S
C5032 C5035 1.386 . S
H5033 C5049 0.930 . S
H5034 C5050 0.931 . S
C5035 H5023 0.929 . S
C5035 C5029 1.390 . S
C5035 C5032 1.386 . S
C5036 C5031 1.490 . S
C5036 C5038 1.395 . S
C5036 C5039 1.403 . S
H5037 C5043 0.930 . S
C5038 H5024 0.930 . S
C5038 C5036 1.395 . S
C5038 C5041 1.403 . S
C5039 C5036 1.403 . S
C5039 C5040 1.524 . S
C5039 C5043 1.400 . S
C5040 H5025 0.960 . S
C5040 H5026 0.960 . S
C5040 H5027 0.960 . S
C5040 C5039 1.524 . S
C5041 C5038 1.403 . S
C5041 C5042 1.392 . S
C5041 C5045 1.495 . S
C5042 C5041 1.392 . S
C5042 C5043 1.385 . S
C5042 C5044 1.478 . S
C5043 H5037 0.930 . S
C5043 C5039 1.400 . S
C5043 C5042 1.385 . S
C5044 C5042 1.478 . S
C5044 C5046 1.381 . S
C5044 C5050 1.383 . S
C5045 C5041 1.495 . S
C5045 H5051 0.959 . S
C5045 H5052 0.961 . S
C5045 H5053 0.960 . S
C5046 C5044 1.381 . S
C5046 C5047 1.394 . S
C5046 H5054 0.930 . S
C5047 C5046 1.394 . S
C5047 C5048 1.383 . S
C5047 H5055 0.929 . S
C5048 C5047 1.383 . S
C5048 C5049 1.377 . S
C5049 H5033 0.930 . S
C5049 C5048 1.377 . S
C5049 C5050 1.379 . S
C5050 H5034 0.931 . S
C5050 C5044 1.383 . S
C5050 C5049 1.379 . S
H5051 C5045 0.959 . S
H5052 C5045 0.961 . S
H5053 C5045 0.960 . S
H5054 C5046 0.930 . S
H5055 C5047 0.929 . S
H5056 C5064 0.929 . S
H5057 C5066 0.930 . S
H5058 C5068 0.930 . S
H5059 C5071 0.929 . S
H5060 C5074 0.930 . S
H5061 C5076 0.960 . S
H5062 C5076 0.960 . S
H5063 C5076 0.960 . S
C5064 H5056 0.929 . S
C5064 C5065 1.377 . S
C5064 C5066 1.384 . S
C5065 C5064 1.377 . S
C5065 C5071 1.390 . S
C5066 H5057 0.930 . S
C5066 C5064 1.384 . S
C5066 C5067 1.372 . S
C5067 C5066 1.372 . S
C5067 C5068 1.400 . S
C5067 C5072 1.490 . S
C5068 H5058 0.930 . S
C5068 C5067 1.400 . S
C5068 C5071 1.386 . S
H5069 C5085 0.930 . S
H5070 C5086 0.931 . S
C5071 H5059 0.929 . S
C5071 C5065 1.390 . S
C5071 C5068 1.386 . S
C5072 C5067 1.490 . S
C5072 C5074 1.395 . S
C5072 C5075 1.403 . S
H5073 C5079 0.930 . S
C5074 H5060 0.930 . S
C5074 C5072 1.395 . S
C5074 C5077 1.403 . S
C5075 C5072 1.403 . S
C5075 C5076 1.524 . S
C5075 C5079 1.400 . S
C5076 H5061 0.960 . S
C5076 H5062 0.960 . S
C5076 H5063 0.960 . S
C5076 C5075 1.524 . S
C5077 C5074 1.403 . S
C5077 C5078 1.392 . S
C5077 C5081 1.495 . S
C5078 C5077 1.392 . S
C5078 C5079 1.385 . S
C5078 C5080 1.478 . S
C5079 H5073 0.930 . S
C5079 C5075 1.400 . S
C5079 C5078 1.385 . S
C5080 C5078 1.478 . S
C5080 C5082 1.381 . S
C5080 C5086 1.383 . S
C5081 C5077 1.495 . S
C5081 H5087 0.959 . S
C5081 H5088 0.961 . S
C5081 H5089 0.960 . S
C5082 C5080 1.381 . S
C5082 C5083 1.394 . S
C5082 H5090 0.930 . S
C5083 C5082 1.394 . S
C5083 C5084 1.383 . S
C5083 H5091 0.929 . S
C5084 C5083 1.383 . S
C5084 C5085 1.377 . S
C5085 H5069 0.930 . S
C5085 C5084 1.377 . S
C5085 C5086 1.379 . S
C5086 H5070 0.931 . S
C5086 C5080 1.383 . S
C5086 C5085 1.379 . S
H5087 C5081 0.959 . S
H5088 C5081 0.961 . S
H5089 C5081 0.960 . S
H5090 C5082 0.930 . S
H5091 C5083 0.929 . S
H5092 C5100 0.929 . S
H5093 C5102 0.930 . S
H5094 C5104 0.930 . S
H5095 C5107 0.929 . S
H5096 C5110 0.930 . S
H5097 C5112 0.960 . S
H5098 C5112 0.960 . S
H5099 C5112 0.960 . S
C5100 H5092 0.929 . S
C5100 C5101 1.377 . S
C5100 C5102 1.384 . S
C5101 C5100 1.377 . S
C5101 C5107 1.390 . S
C5102 H5093 0.930 . S
C5102 C5100 1.384 . S
C5102 C5103 1.372 . S
C5103 C5102 1.372 . S
C5103 C5104 1.400 . S
C5103 C5108 1.490 . S
C5104 H5094 0.930 . S
C5104 C5103 1.400 . S
C5104 C5107 1.386 . S
H5105 C5121 0.930 . S
H5106 C5122 0.931 . S
C5107 H5095 0.929 . S
C5107 C5101 1.390 . S
C5107 C5104 1.386 . S
C5108 C5103 1.490 . S
C5108 C5110 1.395 . S
C5108 C5111 1.403 . S
H5109 C5115 0.930 . S
C5110 H5096 0.930 . S
C5110 C5108 1.395 . S
C5110 C5113 1.403 . S
C5111 C5108 1.403 . S
C5111 C5112 1.524 . S
C5111 C5115 1.400 . S
C5112 H5097 0.960 . S
C5112 H5098 0.960 . S
C5112 H5099 0.960 . S
C5112 C5111 1.524 . S
C5113 C5110 1.403 . S
C5113 C5114 1.392 . S
C5113 C5117 1.495 . S
C5114 C5113 1.392 . S
C5114 C5115 1.385 . S
C5114 C5116 1.478 . S
C5115 H5109 0.930 . S
C5115 C5111 1.400 . S
C5115 C5114 1.385 . S
C5116 C5114 1.478 . S
C5116 C5118 1.381 . S
C5116 C5122 1.383 . S
C5117 C5113 1.495 . S
C5117 H5123 0.959 . S
C5117 H5124 0.961 . S
C5117 H5125 0.960 . S
C5118 C5116 1.381 . S
C5118 C5119 1.394 . S
C5118 H5126 0.930 . S
C5119 C5118 1.394 . S
C5119 C5120 1.383 . S
C5119 H5127 0.929 . S
C5120 C5119 1.383 . S
C5120 C5121 1.377 . S
C5121 H5105 0.930 . S
C5121 C5120 1.377 . S
C5121 C5122 1.379 . S
C5122 H5106 0.931 . S
C5122 C5116 1.383 . S
C5122 C5121 1.379 . S
H5123 C5117 0.959 . S
H5124 C5117 0.961 . S
H5125 C5117 0.960 . S
H5126 C5118 0.930 . S
H5127 C5119 0.929 . S
H5128 C5136 0.929 . S
H5129 C5138 0.930 . S
H5130 C5140 0.930 . S
H5131 C5143 0.929 . S
H5132 C5146 0.930 . S
H5133 C5148 0.960 . S
H5134 C5148 0.960 . S
H5135 C5148 0.960 . S
C5136 H5128 0.929 . S
C5136 C5137 1.377 . S
C5136 C5138 1.384 . S
C5137 C5136 1.377 . S
C5137 C5143 1.390 . S
C5138 H5129 0.930 . S
C5138 C5136 1.384 . S
C5138 C5139 1.372 . S
C5139 C5138 1.372 . S
C5139 C5140 1.400 . S
C5139 C5144 1.490 . S
C5140 H5130 0.930 . S
C5140 C5139 1.400 . S
C5140 C5143 1.386 . S
H5141 C5157 0.930 . S
H5142 C5158 0.931 . S
C5143 H5131 0.929 . S
C5143 C5137 1.390 . S
C5143 C5140 1.386 . S
C5144 C5139 1.490 . S
C5144 C5146 1.395 . S
C5144 C5147 1.403 . S
H5145 C5151 0.930 . S
C5146 H5132 0.930 . S
C5146 C5144 1.395 . S
C5146 C5149 1.403 . S
C5147 C5144 1.403 . S
C5147 C5148 1.524 . S
C5147 C5151 1.400 . S
C5148 H5133 0.960 . S
C5148 H5134 0.960 . S
C5148 H5135 0.960 . S
C5148 C5147 1.524 . S
C5149 C5146 1.403 . S
C5149 C5150 1.392 . S
C5149 C5153 1.495 . S
C5150 C5149 1.392 . S
C5150 C5151 1.385 . S
C5150 C5152 1.478 . S
C5151 H5145 0.930 . S
C5151 C5147 1.400 . S
C5151 C5150 1.385 . S
C5152 C5150 1.478 . S
C5152 C5154 1.381 . S
C5152 C5158 1.383 . S
C5153 C5149 1.495 . S
C5153 H5159 0.959 . S
C5153 H5160 0.961 . S
C5153 H5161 0.960 . S
C5154 C5152 1.381 . S
C5154 C5155 1.394 . S
C5154 H5162 0.930 . S
C5155 C5154 1.394 . S
C5155 C5156 1.383 . S
C5155 H5163 0.929 . S
C5156 C5155 1.383 . S
C5156 C5157 1.377 . S
C5157 H5141 0.930 . S
C5157 C5156 1.377 . S
C5157 C5158 1.379 . S
C5158 H5142 0.931 . S
C5158 C5152 1.383 . S
C5158 C5157 1.379 . S
H5159 C5153 0.959 . S
H5160 C5153 0.961 . S
H5161 C5153 0.960 . S
H5162 C5154 0.930 . S
H5163 C5155 0.929 . S
H5164 C5172 0.929 . S
H5165 C5174 0.930 . S
H5166 C5176 0.930 . S
H5167 C5179 0.929 . S
H5168 C5182 0.930 . S
H5169 C5184 0.960 . S
H5170 C5184 0.960 . S
H5171 C5184 0.960 . S
C5172 H5164 0.929 . S
C5172 C5173 1.377 . S
C5172 C5174 1.384 . S
C5173 C5172 1.377 . S
C5173 C5179 1.390 1_554 S
C5174 H5165 0.930 . S
C5174 C5172 1.384 . S
C5174 C5175 1.372 . S
C5175 C5174 1.372 . S
C5175 C5176 1.400 1_554 S
C5175 C5180 1.490 . S
C5176 H5166 0.930 . S
C5176 C5175 1.400 1_556 S
C5176 C5179 1.386 . S
H5177 C5193 0.930 1_556 S
H5178 C5194 0.915 1_556 S
C5179 H5167 0.929 . S
C5179 C5173 1.390 1_556 S
C5179 C5176 1.386 . S
C5180 C5175 1.490 . S
C5180 C5182 1.395 . S
C5180 C5183 1.403 . S
H5181 C5187 0.930 . S
C5182 H5168 0.930 . S
C5182 C5180 1.395 . S
C5182 C5185 1.403 . S
C5183 C5180 1.403 . S
C5183 C5184 1.524 1_565 S
C5183 C5187 1.400 1_565 S
C5184 H5169 0.960 . S
C5184 H5170 0.960 . S
C5184 H5171 0.960 . S
C5184 C5183 1.524 1_545 S
C5185 C5182 1.403 . S
C5185 C5186 1.392 . S
C5185 C5189 1.495 . S
C5186 C5185 1.392 . S
C5186 C5187 1.385 1_565 S
C5186 C5188 1.478 . S
C5187 H5181 0.930 . S
C5187 C5183 1.400 1_545 S
C5187 C5186 1.385 1_545 S
C5188 C5186 1.478 . S
C5188 C5190 1.381 . S
C5188 C5194 1.398 1_565 S
C5189 C5185 1.495 . S
C5189 H5195 0.959 . S
C5189 H5196 0.961 1_554 S
C5189 H5197 0.960 . S
C5190 C5188 1.381 . S
C5190 C5191 1.394 . S
C5190 H5198 0.930 . S
C5191 C5190 1.394 . S
C5191 C5192 1.383 1_565 S
C5191 H5199 0.929 . S
C5192 C5191 1.383 1_545 S
C5192 C5193 1.377 . S
C5193 H5177 0.930 1_554 S
C5193 C5192 1.377 . S
C5193 C5194 1.380 . S
C5194 H5178 0.915 1_554 S
C5194 C5188 1.398 1_545 S
C5194 C5193 1.380 . S
H5195 C5189 0.959 . S
H5196 C5189 0.961 1_556 S
H5197 C5189 0.960 . S
H5198 C5190 0.930 . S
H5199 C5191 0.929 . S
H5200 C5208 0.929 . S
H5201 C5210 0.930 . S
H5202 C5212 0.930 . S
H5203 C5215 0.929 . S
H5204 C5218 0.930 . S
H5205 C5220 0.960 . S
H5206 C5220 0.960 . S
H5207 C5220 0.960 . S
C5208 H5200 0.929 . S
C5208 C5209 1.377 . S
C5208 C5210 1.384 . S
C5209 C5208 1.377 . S
C5209 C5215 1.390 . S
C5210 H5201 0.930 . S
C5210 C5208 1.384 . S
C5210 C5211 1.372 . S
C5211 C5210 1.372 . S
C5211 C5212 1.400 . S
C5211 C5216 1.490 . S
C5212 H5202 0.930 . S
C5212 C5211 1.400 . S
C5212 C5215 1.386 . S
H5213 C5229 0.930 . S
H5214 C5230 0.931 . S
C5215 H5203 0.929 . S
C5215 C5209 1.390 . S
C5215 C5212 1.386 . S
C5216 C5211 1.490 . S
C5216 C5218 1.395 . S
C5216 C5219 1.403 . S
H5217 C5223 0.930 . S
C5218 H5204 0.930 . S
C5218 C5216 1.395 . S
C5218 C5221 1.403 . S
C5219 C5216 1.403 . S
C5219 C5220 1.524 . S
C5219 C5223 1.400 . S
C5220 H5205 0.960 . S
C5220 H5206 0.960 . S
C5220 H5207 0.960 . S
C5220 C5219 1.524 . S
C5221 C5218 1.403 . S
C5221 C5222 1.392 . S
C5221 C5225 1.495 . S
C5222 C5221 1.392 . S
C5222 C5223 1.385 . S
C5222 C5224 1.478 . S
C5223 H5217 0.930 . S
C5223 C5219 1.400 . S
C5223 C5222 1.385 . S
C5224 C5222 1.478 . S
C5224 C5226 1.381 . S
C5224 C5230 1.383 . S
C5225 C5221 1.495 . S
C5225 H5231 0.959 . S
C5225 H5232 0.961 . S
C5225 H5233 0.960 . S
C5226 C5224 1.381 . S
C5226 C5227 1.394 . S
C5226 H5234 0.930 . S
C5227 C5226 1.394 . S
C5227 C5228 1.383 . S
C5227 H5235 0.929 . S
C5228 C5227 1.383 . S
C5228 C5229 1.377 . S
C5229 H5213 0.930 . S
C5229 C5228 1.377 . S
C5229 C5230 1.379 . S
C5230 H5214 0.931 . S
C5230 C5224 1.383 . S
C5230 C5229 1.379 . S
H5231 C5225 0.959 . S
H5232 C5225 0.961 . S
H5233 C5225 0.960 . S
H5234 C5226 0.930 . S
H5235 C5227 0.929 . S
H5236 C5244 0.929 . S
H5237 C5246 0.930 . S
H5238 C5248 0.930 . S
H5239 C5251 0.929 . S
H5240 C5254 0.930 . S
H5241 C5256 0.960 . S
H5242 C5256 0.960 . S
H5243 C5256 0.960 . S
C5244 H5236 0.929 . S
C5244 C5245 1.377 . S
C5244 C5246 1.384 . S
C5245 C5244 1.377 . S
C5245 C5251 1.390 . S
C5246 H5237 0.930 . S
C5246 C5244 1.384 . S
C5246 C5247 1.372 . S
C5247 C5246 1.372 . S
C5247 C5248 1.400 . S
C5247 C5252 1.490 . S
C5248 H5238 0.930 . S
C5248 C5247 1.400 . S
C5248 C5251 1.386 . S
H5249 C5265 0.930 . S
H5250 C5266 0.931 . S
C5251 H5239 0.929 . S
C5251 C5245 1.390 . S
C5251 C5248 1.386 . S
C5252 C5247 1.490 . S
C5252 C5254 1.395 . S
C5252 C5255 1.403 . S
H5253 C5259 0.930 . S
C5254 H5240 0.930 . S
C5254 C5252 1.395 . S
C5254 C5257 1.403 . S
C5255 C5252 1.403 . S
C5255 C5256 1.524 . S
C5255 C5259 1.400 . S
C5256 H5241 0.960 . S
C5256 H5242 0.960 . S
C5256 H5243 0.960 . S
C5256 C5255 1.524 . S
C5257 C5254 1.403 . S
C5257 C5258 1.392 . S
C5257 C5261 1.495 . S
C5258 C5257 1.392 . S
C5258 C5259 1.385 . S
C5258 C5260 1.478 . S
C5259 H5253 0.930 . S
C5259 C5255 1.400 . S
C5259 C5258 1.385 . S
C5260 C5258 1.478 . S
C5260 C5262 1.381 . S
C5260 C5266 1.383 . S
C5261 C5257 1.495 . S
C5261 H5267 0.959 . S
C5261 H5268 0.961 . S
C5261 H5269 0.960 . S
C5262 C5260 1.381 . S
C5262 C5263 1.394 . S
C5262 H5270 0.930 . S
C5263 C5262 1.394 . S
C5263 C5264 1.383 . S
C5263 H5271 0.929 . S
C5264 C5263 1.383 . S
C5264 C5265 1.377 . S
C5265 H5249 0.930 . S
C5265 C5264 1.377 . S
C5265 C5266 1.379 . S
C5266 H5250 0.931 . S
C5266 C5260 1.383 . S
C5266 C5265 1.379 . S
H5267 C5261 0.959 . S
H5268 C5261 0.961 . S
H5269 C5261 0.960 . S
H5270 C5262 0.930 . S
H5271 C5263 0.929 . S
H5272 C5280 0.929 . S
H5273 C5282 0.930 . S
H5274 C5284 0.930 . S
H5275 C5287 0.929 . S
H5276 C5290 0.930 . S
H5277 C5292 0.960 . S
H5278 C5292 0.960 . S
H5279 C5292 0.960 . S
C5280 H5272 0.929 . S
C5280 C5281 1.377 . S
C5280 C5282 1.384 . S
C5281 C5280 1.377 . S
C5281 C5287 1.390 . S
C5282 H5273 0.930 . S
C5282 C5280 1.384 . S
C5282 C5283 1.372 . S
C5283 C5282 1.372 . S
C5283 C5284 1.400 . S
C5283 C5288 1.490 . S
C5284 H5274 0.930 . S
C5284 C5283 1.400 . S
C5284 C5287 1.386 . S
H5285 C5301 0.930 . S
H5286 C5302 0.931 . S
C5287 H5275 0.929 . S
C5287 C5281 1.390 . S
C5287 C5284 1.386 . S
C5288 C5283 1.490 . S
C5288 C5290 1.395 . S
C5288 C5291 1.403 . S
H5289 C5295 0.930 . S
C5290 H5276 0.930 . S
C5290 C5288 1.395 . S
C5290 C5293 1.403 . S
C5291 C5288 1.403 . S
C5291 C5292 1.524 . S
C5291 C5295 1.400 . S
C5292 H5277 0.960 . S
C5292 H5278 0.960 . S
C5292 H5279 0.960 . S
C5292 C5291 1.524 . S
C5293 C5290 1.403 . S
C5293 C5294 1.392 . S
C5293 C5297 1.495 . S
C5294 C5293 1.392 . S
C5294 C5295 1.385 . S
C5294 C5296 1.478 . S
C5295 H5289 0.930 . S
C5295 C5291 1.400 . S
C5295 C5294 1.385 . S
C5296 C5294 1.478 . S
C5296 C5298 1.381 . S
C5296 C5302 1.383 . S
C5297 C5293 1.495 . S
C5297 H5303 0.959 . S
C5297 H5304 0.961 . S
C5297 H5305 0.960 . S
C5298 C5296 1.381 . S
C5298 C5299 1.394 . S
C5298 H5306 0.930 . S
C5299 C5298 1.394 . S
C5299 C5300 1.383 . S
C5299 H5307 0.929 . S
C5300 C5299 1.383 . S
C5300 C5301 1.377 . S
C5301 H5285 0.930 . S
C5301 C5300 1.377 . S
C5301 C5302 1.379 . S
C5302 H5286 0.931 . S
C5302 C5296 1.383 . S
C5302 C5301 1.379 . S
H5303 C5297 0.959 . S
H5304 C5297 0.961 . S
H5305 C5297 0.960 . S
H5306 C5298 0.930 . S
H5307 C5299 0.929 . S
H5308 C5316 0.929 . S
H5309 C5318 0.930 . S
H5310 C5320 0.930 . S
H5311 C5323 0.929 . S
H5312 C5326 0.930 . S
H5313 C5328 0.960 . S
H5314 C5328 0.960 . S
H5315 C5328 0.960 . S
C5316 H5308 0.929 . S
C5316 C5317 1.377 . S
C5316 C5318 1.384 . S
C5317 C5316 1.377 . S
C5317 C5323 1.390 . S
C5318 H5309 0.930 . S
C5318 C5316 1.384 . S
C5318 C5319 1.372 . S
C5319 C5318 1.372 . S
C5319 C5320 1.400 . S
C5319 C5324 1.490 . S
C5320 H5310 0.930 . S
C5320 C5319 1.400 . S
C5320 C5323 1.386 . S
H5321 C5337 0.930 . S
H5322 C5338 0.931 . S
C5323 H5311 0.929 . S
C5323 C5317 1.390 . S
C5323 C5320 1.386 . S
C5324 C5319 1.490 . S
C5324 C5326 1.395 . S
C5324 C5327 1.403 . S
H5325 C5331 0.930 . S
C5326 H5312 0.930 . S
C5326 C5324 1.395 . S
C5326 C5329 1.403 . S
C5327 C5324 1.403 . S
C5327 C5328 1.524 . S
C5327 C5331 1.400 . S
C5328 H5313 0.960 . S
C5328 H5314 0.960 . S
C5328 H5315 0.960 . S
C5328 C5327 1.524 . S
C5329 C5326 1.403 . S
C5329 C5330 1.392 . S
C5329 C5333 1.495 . S
C5330 C5329 1.392 . S
C5330 C5331 1.385 . S
C5330 C5332 1.478 . S
C5331 H5325 0.930 . S
C5331 C5327 1.400 . S
C5331 C5330 1.385 . S
C5332 C5330 1.478 . S
C5332 C5334 1.381 . S
C5332 C5338 1.383 . S
C5333 C5329 1.495 . S
C5333 H5339 0.959 . S
C5333 H5340 0.961 . S
C5333 H5341 0.960 . S
C5334 C5332 1.381 . S
C5334 C5335 1.394 . S
C5334 H5342 0.930 . S
C5335 C5334 1.394 . S
C5335 C5336 1.383 . S
C5335 H5343 0.929 . S
C5336 C5335 1.383 . S
C5336 C5337 1.377 . S
C5337 H5321 0.930 . S
C5337 C5336 1.377 . S
C5337 C5338 1.379 . S
C5338 H5322 0.931 . S
C5338 C5332 1.383 . S
C5338 C5337 1.379 . S
H5339 C5333 0.959 . S
H5340 C5333 0.961 . S
H5341 C5333 0.960 . S
H5342 C5334 0.930 . S
H5343 C5335 0.929 . S
H5344 C5352 0.929 . S
H5345 C5354 0.930 . S
H5346 C5356 0.930 . S
H5347 C5359 0.929 . S
H5348 C5362 0.930 . S
H5349 C5364 0.960 . S
H5350 C5364 0.960 . S
H5351 C5364 0.960 . S
C5352 H5344 0.929 . S
C5352 C5353 1.377 . S
C5352 C5354 1.384 . S
C5353 C5352 1.377 . S
C5353 C5359 1.390 . S
C5354 H5345 0.930 . S
C5354 C5352 1.384 . S
C5354 C5355 1.372 . S
C5355 C5354 1.372 . S
C5355 C5356 1.400 . S
C5355 C5360 1.490 . S
C5356 H5346 0.930 . S
C5356 C5355 1.400 . S
C5356 C5359 1.386 . S
H5357 C5373 0.930 . S
H5358 C5374 0.931 . S
C5359 H5347 0.929 . S
C5359 C5353 1.390 . S
C5359 C5356 1.386 . S
C5360 C5355 1.490 . S
C5360 C5362 1.395 . S
C5360 C5363 1.403 . S
H5361 C5367 0.930 . S
C5362 H5348 0.930 . S
C5362 C5360 1.395 . S
C5362 C5365 1.403 . S
C5363 C5360 1.403 . S
C5363 C5364 1.524 . S
C5363 C5367 1.400 . S
C5364 H5349 0.960 . S
C5364 H5350 0.960 . S
C5364 H5351 0.960 . S
C5364 C5363 1.524 . S
C5365 C5362 1.403 . S
C5365 C5366 1.392 . S
C5365 C5369 1.495 . S
C5366 C5365 1.392 . S
C5366 C5367 1.385 . S
C5366 C5368 1.478 . S
C5367 H5361 0.930 . S
C5367 C5363 1.400 . S
C5367 C5366 1.385 . S
C5368 C5366 1.478 . S
C5368 C5370 1.381 . S
C5368 C5374 1.383 . S
C5369 C5365 1.495 . S
C5369 H5375 0.959 . S
C5369 H5376 0.961 . S
C5369 H5377 0.960 . S
C5370 C5368 1.381 . S
C5370 C5371 1.394 . S
C5370 H5378 0.930 . S
C5371 C5370 1.394 . S
C5371 C5372 1.383 . S
C5371 H5379 0.929 . S
C5372 C5371 1.383 . S
C5372 C5373 1.377 . S
C5373 H5357 0.930 . S
C5373 C5372 1.377 . S
C5373 C5374 1.379 . S
C5374 H5358 0.931 . S
C5374 C5368 1.383 . S
C5374 C5373 1.379 . S
H5375 C5369 0.959 . S
H5376 C5369 0.961 . S
H5377 C5369 0.960 . S
H5378 C5370 0.930 . S
H5379 C5371 0.929 . S
H5380 C5388 0.929 . S
H5381 C5390 0.930 . S
H5382 C5392 0.930 . S
H5383 C5395 0.929 . S
H5384 C5398 0.930 . S
H5385 C5400 0.960 . S
H5386 C5400 0.960 . S
H5387 C5400 0.960 . S
C5388 H5380 0.929 . S
C5388 C5389 1.377 . S
C5388 C5390 1.384 . S
C5389 C5388 1.377 . S
C5389 C5395 1.390 . S
C5390 H5381 0.930 . S
C5390 C5388 1.384 . S
C5390 C5391 1.372 . S
C5391 C5390 1.372 . S
C5391 C5392 1.400 . S
C5391 C5396 1.490 . S
C5392 H5382 0.930 . S
C5392 C5391 1.400 . S
C5392 C5395 1.386 . S
H5393 C5409 0.930 . S
H5394 C5410 0.931 . S
C5395 H5383 0.929 . S
C5395 C5389 1.390 . S
C5395 C5392 1.386 . S
C5396 C5391 1.490 . S
C5396 C5398 1.395 . S
C5396 C5399 1.403 . S
H5397 C5403 0.930 . S
C5398 H5384 0.930 . S
C5398 C5396 1.395 . S
C5398 C5401 1.403 . S
C5399 C5396 1.403 . S
C5399 C5400 1.524 . S
C5399 C5403 1.400 . S
C5400 H5385 0.960 . S
C5400 H5386 0.960 . S
C5400 H5387 0.960 . S
C5400 C5399 1.524 . S
C5401 C5398 1.403 . S
C5401 C5402 1.392 . S
C5401 C5405 1.495 . S
C5402 C5401 1.392 . S
C5402 C5403 1.385 . S
C5402 C5404 1.478 . S
C5403 H5397 0.930 . S
C5403 C5399 1.400 . S
C5403 C5402 1.385 . S
C5404 C5402 1.478 . S
C5404 C5406 1.381 . S
C5404 C5410 1.383 . S
C5405 C5401 1.495 . S
C5405 H5411 0.959 . S
C5405 H5412 0.961 . S
C5405 H5413 0.960 . S
C5406 C5404 1.381 . S
C5406 C5407 1.394 . S
C5406 H5414 0.930 . S
C5407 C5406 1.394 . S
C5407 C5408 1.383 . S
C5407 H5415 0.929 . S
C5408 C5407 1.383 . S
C5408 C5409 1.377 . S
C5409 H5393 0.930 . S
C5409 C5408 1.377 . S
C5409 C5410 1.379 . S
C5410 H5394 0.931 . S
C5410 C5404 1.383 . S
C5410 C5409 1.379 . S
H5411 C5405 0.959 . S
H5412 C5405 0.961 . S
H5413 C5405 0.960 . S
H5414 C5406 0.930 . S
H5415 C5407 0.929 . S
H5416 C5424 0.929 . S
H5417 C5426 0.930 . S
H5418 C5428 0.930 . S
H5419 C5431 0.929 . S
H5420 C5434 0.930 . S
H5421 C5436 0.960 . S
H5422 C5436 0.960 . S
H5423 C5436 0.960 . S
C5424 H5416 0.929 . S
C5424 C5425 1.377 . S
C5424 C5426 1.384 . S
C5425 C5424 1.377 . S
C5425 C5431 1.390 . S
C5426 H5417 0.930 . S
C5426 C5424 1.384 . S
C5426 C5427 1.372 . S
C5427 C5426 1.372 . S
C5427 C5428 1.400 . S
C5427 C5432 1.490 . S
C5428 H5418 0.930 . S
C5428 C5427 1.400 . S
C5428 C5431 1.386 . S
H5429 C5445 0.930 . S
H5430 C5446 0.931 . S
C5431 H5419 0.929 . S
C5431 C5425 1.390 . S
C5431 C5428 1.386 . S
C5432 C5427 1.490 . S
C5432 C5434 1.395 . S
C5432 C5435 1.403 . S
H5433 C5439 0.930 . S
C5434 H5420 0.930 . S
C5434 C5432 1.395 . S
C5434 C5437 1.403 . S
C5435 C5432 1.403 . S
C5435 C5436 1.524 . S
C5435 C5439 1.400 . S
C5436 H5421 0.960 . S
C5436 H5422 0.960 . S
C5436 H5423 0.960 . S
C5436 C5435 1.524 . S
C5437 C5434 1.403 . S
C5437 C5438 1.392 . S
C5437 C5441 1.495 . S
C5438 C5437 1.392 . S
C5438 C5439 1.385 . S
C5438 C5440 1.478 . S
C5439 H5433 0.930 . S
C5439 C5435 1.400 . S
C5439 C5438 1.385 . S
C5440 C5438 1.478 . S
C5440 C5442 1.381 . S
C5440 C5446 1.383 . S
C5441 C5437 1.495 . S
C5441 H5447 0.959 . S
C5441 H5448 0.961 . S
C5441 H5449 0.960 . S
C5442 C5440 1.381 . S
C5442 C5443 1.394 . S
C5442 H5450 0.930 . S
C5443 C5442 1.394 . S
C5443 C5444 1.383 . S
C5443 H5451 0.929 . S
C5444 C5443 1.383 . S
C5444 C5445 1.377 . S
C5445 H5429 0.930 . S
C5445 C5444 1.377 . S
C5445 C5446 1.379 . S
C5446 H5430 0.931 . S
C5446 C5440 1.383 . S
C5446 C5445 1.379 . S
H5447 C5441 0.959 . S
H5448 C5441 0.961 . S
H5449 C5441 0.960 . S
H5450 C5442 0.930 . S
H5451 C5443 0.929 . S
H5452 C5460 0.929 . S
H5453 C5462 0.930 . S
H5454 C5464 0.930 . S
H5455 C5467 0.929 . S
H5456 C5470 0.930 . S
H5457 C5472 0.960 . S
H5458 C5472 0.960 . S
H5459 C5472 0.960 . S
C5460 H5452 0.929 . S
C5460 C5461 1.377 . S
C5460 C5462 1.384 . S
C5461 C5460 1.377 . S
C5461 C5467 1.390 . S
C5462 H5453 0.930 . S
C5462 C5460 1.384 . S
C5462 C5463 1.372 . S
C5463 C5462 1.372 . S
C5463 C5464 1.400 . S
C5463 C5468 1.490 . S
C5464 H5454 0.930 . S
C5464 C5463 1.400 . S
C5464 C5467 1.386 . S
H5465 C5481 0.930 . S
H5466 C5482 0.931 . S
C5467 H5455 0.929 . S
C5467 C5461 1.390 . S
C5467 C5464 1.386 . S
C5468 C5463 1.490 . S
C5468 C5470 1.395 . S
C5468 C5471 1.403 . S
H5469 C5475 0.930 . S
C5470 H5456 0.930 . S
C5470 C5468 1.395 . S
C5470 C5473 1.403 . S
C5471 C5468 1.403 . S
C5471 C5472 1.524 . S
C5471 C5475 1.400 . S
C5472 H5457 0.960 . S
C5472 H5458 0.960 . S
C5472 H5459 0.960 . S
C5472 C5471 1.524 . S
C5473 C5470 1.403 . S
C5473 C5474 1.392 . S
C5473 C5477 1.495 . S
C5474 C5473 1.392 . S
C5474 C5475 1.385 . S
C5474 C5476 1.478 . S
C5475 H5469 0.930 . S
C5475 C5471 1.400 . S
C5475 C5474 1.385 . S
C5476 C5474 1.478 . S
C5476 C5478 1.381 . S
C5476 C5482 1.383 . S
C5477 C5473 1.495 . S
C5477 H5483 0.959 . S
C5477 H5484 0.961 . S
C5477 H5485 0.960 . S
C5478 C5476 1.381 . S
C5478 C5479 1.394 . S
C5478 H5486 0.930 . S
C5479 C5478 1.394 . S
C5479 C5480 1.383 . S
C5479 H5487 0.929 . S
C5480 C5479 1.383 . S
C5480 C5481 1.377 . S
C5481 H5465 0.930 . S
C5481 C5480 1.377 . S
C5481 C5482 1.379 . S
C5482 H5466 0.931 . S
C5482 C5476 1.383 . S
C5482 C5481 1.379 . S
H5483 C5477 0.959 . S
H5484 C5477 0.961 . S
H5485 C5477 0.960 . S
H5486 C5478 0.930 . S
H5487 C5479 0.929 . S
H5488 C5496 0.929 . S
H5489 C5498 0.930 . S
H5490 C5500 0.930 . S
H5491 C5503 0.929 . S
H5492 C5506 0.930 . S
H5493 C5508 0.960 . S
H5494 C5508 0.960 . S
H5495 C5508 0.960 . S
C5496 H5488 0.929 . S
C5496 C5497 1.377 . S
C5496 C5498 1.384 . S
C5497 C5496 1.377 . S
C5497 C5503 1.390 . S
C5498 H5489 0.930 . S
C5498 C5496 1.384 . S
C5498 C5499 1.372 . S
C5499 C5498 1.372 . S
C5499 C5500 1.400 . S
C5499 C5504 1.490 . S
C5500 H5490 0.930 . S
C5500 C5499 1.400 . S
C5500 C5503 1.386 . S
H5501 C5517 0.930 1_554 S
H5502 C5518 0.931 . S
C5503 H5491 0.929 . S
C5503 C5497 1.390 . S
C5503 C5500 1.386 . S
C5504 C5499 1.490 . S
C5504 C5506 1.395 . S
C5504 C5507 1.403 . S
H5505 C5511 0.930 . S
C5506 H5492 0.930 . S
C5506 C5504 1.395 . S
C5506 C5509 1.403 . S
C5507 C5504 1.403 . S
C5507 C5508 1.524 . S
C5507 C5511 1.400 . S
C5508 H5493 0.960 . S
C5508 H5494 0.960 . S
C5508 H5495 0.960 . S
C5508 C5507 1.524 . S
C5509 C5506 1.403 . S
C5509 C5510 1.392 . S
C5509 C5513 1.495 . S
C5510 C5509 1.392 . S
C5510 C5511 1.385 . S
C5510 C5512 1.478 . S
C5511 H5505 0.930 . S
C5511 C5507 1.400 . S
C5511 C5510 1.385 . S
C5512 C5510 1.478 . S
C5512 C5514 1.381 . S
C5512 C5518 1.383 . S
C5513 C5509 1.495 . S
C5513 H5519 0.959 . S
C5513 H5520 0.961 . S
C5513 H5521 0.960 . S
C5514 C5512 1.381 . S
C5514 C5515 1.394 . S
C5514 H5522 0.930 . S
C5515 C5514 1.394 . S
C5515 C5516 1.383 . S
C5515 H5523 0.929 . S
C5516 C5515 1.383 . S
C5516 C5517 1.377 . S
C5517 H5501 0.930 1_556 S
C5517 C5516 1.377 . S
C5517 C5518 1.379 . S
C5518 H5502 0.931 . S
C5518 C5512 1.383 . S
C5518 C5517 1.379 . S
H5519 C5513 0.959 . S
H5520 C5513 0.961 . S
H5521 C5513 0.960 . S
H5522 C5514 0.930 . S
H5523 C5515 0.929 . S
H5524 C5532 0.929 . S
H5525 C5534 0.930 . S
H5526 C5536 0.930 . S
H5527 C5539 0.929 . S
H5528 C5542 0.930 . S
H5529 C5544 0.960 . S
H5530 C5544 0.960 . S
H5531 C5544 0.960 . S
C5532 H5524 0.929 . S
C5532 C5533 1.377 . S
C5532 C5534 1.384 . S
C5533 C5532 1.377 . S
C5533 C5539 1.390 . S
C5534 H5525 0.930 . S
C5534 C5532 1.384 . S
C5534 C5535 1.372 . S
C5535 C5534 1.372 . S
C5535 C5536 1.400 . S
C5535 C5540 1.490 . S
C5536 H5526 0.930 . S
C5536 C5535 1.400 . S
C5536 C5539 1.386 . S
H5537 C5553 0.930 . S
H5538 C5554 0.931 . S
C5539 H5527 0.929 . S
C5539 C5533 1.390 . S
C5539 C5536 1.386 . S
C5540 C5535 1.490 . S
C5540 C5542 1.395 . S
C5540 C5543 1.403 . S
H5541 C5547 0.930 . S
C5542 H5528 0.930 . S
C5542 C5540 1.395 . S
C5542 C5545 1.403 . S
C5543 C5540 1.403 . S
C5543 C5544 1.524 . S
C5543 C5547 1.400 . S
C5544 H5529 0.960 . S
C5544 H5530 0.960 . S
C5544 H5531 0.960 . S
C5544 C5543 1.524 . S
C5545 C5542 1.403 . S
C5545 C5546 1.392 . S
C5545 C5549 1.495 . S
C5546 C5545 1.392 . S
C5546 C5547 1.385 . S
C5546 C5548 1.478 . S
C5547 H5541 0.930 . S
C5547 C5543 1.400 . S
C5547 C5546 1.385 . S
C5548 C5546 1.478 . S
C5548 C5550 1.381 . S
C5548 C5554 1.383 . S
C5549 C5545 1.495 . S
C5549 H5555 0.959 . S
C5549 H5556 0.961 . S
C5549 H5557 0.960 . S
C5550 C5548 1.381 . S
C5550 C5551 1.394 . S
C5550 H5558 0.930 . S
C5551 C5550 1.394 . S
C5551 C5552 1.383 . S
C5551 H5559 0.929 . S
C5552 C5551 1.383 . S
C5552 C5553 1.377 . S
C5553 H5537 0.930 . S
C5553 C5552 1.377 . S
C5553 C5554 1.379 . S
C5554 H5538 0.931 . S
C5554 C5548 1.383 . S
C5554 C5553 1.379 . S
H5555 C5549 0.959 . S
H5556 C5549 0.961 . S
H5557 C5549 0.960 . S
H5558 C5550 0.930 . S
H5559 C5551 0.929 . S
H5560 C5568 0.929 . S
H5561 C5570 0.930 . S
H5562 C5572 0.930 . S
H5563 C5575 0.929 . S
H5564 C5578 0.930 . S
H5565 C5580 0.960 . S
H5566 C5580 0.960 . S
H5567 C5580 0.960 . S
C5568 H5560 0.929 . S
C5568 C5569 1.377 . S
C5568 C5570 1.384 . S
C5569 C5568 1.377 . S
C5569 C5575 1.390 . S
C5570 H5561 0.930 . S
C5570 C5568 1.384 . S
C5570 C5571 1.372 . S
C5571 C5570 1.372 . S
C5571 C5572 1.400 . S
C5571 C5576 1.490 . S
C5572 H5562 0.930 . S
C5572 C5571 1.400 . S
C5572 C5575 1.386 . S
H5573 C5589 0.930 . S
H5574 C5590 0.931 . S
C5575 H5563 0.929 . S
C5575 C5569 1.390 . S
C5575 C5572 1.386 . S
C5576 C5571 1.490 . S
C5576 C5578 1.395 . S
C5576 C5579 1.403 . S
H5577 C5583 0.930 . S
C5578 H5564 0.930 . S
C5578 C5576 1.395 . S
C5578 C5581 1.403 . S
C5579 C5576 1.403 . S
C5579 C5580 1.524 . S
C5579 C5583 1.400 . S
C5580 H5565 0.960 . S
C5580 H5566 0.960 . S
C5580 H5567 0.960 . S
C5580 C5579 1.524 . S
C5581 C5578 1.403 . S
C5581 C5582 1.392 . S
C5581 C5585 1.495 . S
C5582 C5581 1.392 . S
C5582 C5583 1.385 . S
C5582 C5584 1.478 . S
C5583 H5577 0.930 . S
C5583 C5579 1.400 . S
C5583 C5582 1.385 . S
C5584 C5582 1.478 . S
C5584 C5586 1.381 . S
C5584 C5590 1.383 . S
C5585 C5581 1.495 . S
C5585 H5591 0.959 . S
C5585 H5592 0.961 . S
C5585 H5593 0.960 . S
C5586 C5584 1.381 . S
C5586 C5587 1.394 . S
C5586 H5594 0.930 . S
C5587 C5586 1.394 . S
C5587 C5588 1.383 . S
C5587 H5595 0.929 . S
C5588 C5587 1.383 . S
C5588 C5589 1.377 . S
C5589 H5573 0.930 . S
C5589 C5588 1.377 . S
C5589 C5590 1.379 . S
C5590 H5574 0.931 . S
C5590 C5584 1.383 . S
C5590 C5589 1.379 . S
H5591 C5585 0.959 . S
H5592 C5585 0.961 . S
H5593 C5585 0.960 . S
H5594 C5586 0.930 . S
H5595 C5587 0.929 . S
H5596 C5604 0.929 . S
H5597 C5606 0.930 . S
H5598 C5608 0.930 . S
H5599 C5611 0.929 . S
H5600 C5614 0.930 . S
H5601 C5616 0.960 . S
H5602 C5616 0.960 . S
H5603 C5616 0.960 . S
C5604 H5596 0.929 . S
C5604 C5605 1.377 . S
C5604 C5606 1.384 . S
C5605 C5604 1.377 . S
C5605 C5611 1.390 . S
C5606 H5597 0.930 . S
C5606 C5604 1.384 . S
C5606 C5607 1.372 . S
C5607 C5606 1.372 . S
C5607 C5608 1.400 . S
C5607 C5612 1.490 . S
C5608 H5598 0.930 . S
C5608 C5607 1.400 . S
C5608 C5611 1.386 . S
H5609 C5625 0.930 . S
H5610 C5626 0.931 . S
C5611 H5599 0.929 . S
C5611 C5605 1.390 . S
C5611 C5608 1.386 . S
C5612 C5607 1.490 . S
C5612 C5614 1.395 . S
C5612 C5615 1.403 . S
H5613 C5619 0.930 . S
C5614 H5600 0.930 . S
C5614 C5612 1.395 . S
C5614 C5617 1.403 . S
C5615 C5612 1.403 . S
C5615 C5616 1.524 . S
C5615 C5619 1.400 . S
C5616 H5601 0.960 . S
C5616 H5602 0.960 . S
C5616 H5603 0.960 . S
C5616 C5615 1.524 . S
C5617 C5614 1.403 . S
C5617 C5618 1.392 . S
C5617 C5621 1.495 . S
C5618 C5617 1.392 . S
C5618 C5619 1.385 . S
C5618 C5620 1.478 . S
C5619 H5613 0.930 . S
C5619 C5615 1.400 . S
C5619 C5618 1.385 . S
C5620 C5618 1.478 . S
C5620 C5622 1.381 . S
C5620 C5626 1.383 . S
C5621 C5617 1.495 . S
C5621 H5627 0.959 . S
C5621 H5628 0.961 . S
C5621 H5629 0.960 . S
C5622 C5620 1.381 . S
C5622 C5623 1.394 . S
C5622 H5630 0.930 . S
C5623 C5622 1.394 . S
C5623 C5624 1.383 . S
C5623 H5631 0.929 . S
C5624 C5623 1.383 . S
C5624 C5625 1.377 . S
C5625 H5609 0.930 . S
C5625 C5624 1.377 . S
C5625 C5626 1.379 . S
C5626 H5610 0.931 . S
C5626 C5620 1.383 . S
C5626 C5625 1.379 . S
H5627 C5621 0.959 . S
H5628 C5621 0.961 . S
H5629 C5621 0.960 . S
H5630 C5622 0.930 . S
H5631 C5623 0.929 . S
H5632 C5640 0.929 . S
H5633 C5642 0.930 . S
H5634 C5644 0.930 . S
H5635 C5647 0.929 . S
H5636 C5650 0.930 . S
H5637 C5652 0.960 . S
H5638 C5652 0.960 . S
H5639 C5652 0.960 . S
C5640 H5632 0.929 . S
C5640 C5641 1.377 . S
C5640 C5642 1.384 . S
C5641 C5640 1.377 . S
C5641 C5647 1.390 . S
C5642 H5633 0.930 . S
C5642 C5640 1.384 . S
C5642 C5643 1.372 . S
C5643 C5642 1.372 . S
C5643 C5644 1.400 . S
C5643 C5648 1.490 . S
C5644 H5634 0.930 . S
C5644 C5643 1.400 . S
C5644 C5647 1.386 . S
H5645 C5661 0.930 . S
H5646 C5662 0.931 . S
C5647 H5635 0.929 . S
C5647 C5641 1.390 . S
C5647 C5644 1.386 . S
C5648 C5643 1.490 . S
C5648 C5650 1.395 . S
C5648 C5651 1.403 . S
H5649 C5655 0.930 . S
C5650 H5636 0.930 . S
C5650 C5648 1.395 . S
C5650 C5653 1.403 . S
C5651 C5648 1.403 . S
C5651 C5652 1.524 . S
C5651 C5655 1.400 . S
C5652 H5637 0.960 . S
C5652 H5638 0.960 . S
C5652 H5639 0.960 . S
C5652 C5651 1.524 . S
C5653 C5650 1.403 . S
C5653 C5654 1.392 . S
C5653 C5657 1.495 . S
C5654 C5653 1.392 . S
C5654 C5655 1.385 . S
C5654 C5656 1.478 . S
C5655 H5649 0.930 . S
C5655 C5651 1.400 . S
C5655 C5654 1.385 . S
C5656 C5654 1.478 . S
C5656 C5658 1.381 . S
C5656 C5662 1.383 . S
C5657 C5653 1.495 . S
C5657 H5663 0.959 . S
C5657 H5664 0.961 . S
C5657 H5665 0.960 . S
C5658 C5656 1.381 . S
C5658 C5659 1.394 . S
C5658 H5666 0.930 . S
C5659 C5658 1.394 . S
C5659 C5660 1.383 . S
C5659 H5667 0.929 . S
C5660 C5659 1.383 . S
C5660 C5661 1.377 . S
C5661 H5645 0.930 . S
C5661 C5660 1.377 . S
C5661 C5662 1.379 . S
C5662 H5646 0.931 . S
C5662 C5656 1.383 . S
C5662 C5661 1.379 . S
H5663 C5657 0.959 . S
H5664 C5657 0.961 . S
H5665 C5657 0.960 . S
H5666 C5658 0.930 . S
H5667 C5659 0.929 . S
H5668 C5676 0.929 . S
H5669 C5678 0.930 . S
H5670 C5680 0.930 . S
H5671 C5683 0.929 . S
H5672 C5686 0.930 . S
H5673 C5688 0.960 . S
H5674 C5688 0.960 . S
H5675 C5688 0.960 . S
C5676 H5668 0.929 . S
C5676 C5677 1.377 . S
C5676 C5678 1.384 . S
C5677 C5676 1.377 . S
C5677 C5683 1.390 . S
C5678 H5669 0.930 . S
C5678 C5676 1.384 . S
C5678 C5679 1.372 . S
C5679 C5678 1.372 . S
C5679 C5680 1.400 . S
C5679 C5684 1.490 . S
C5680 H5670 0.930 . S
C5680 C5679 1.400 . S
C5680 C5683 1.386 . S
H5681 C5697 0.930 . S
H5682 C5698 0.931 . S
C5683 H5671 0.929 . S
C5683 C5677 1.390 . S
C5683 C5680 1.386 . S
C5684 C5679 1.490 . S
C5684 C5686 1.395 . S
C5684 C5687 1.403 . S
H5685 C5691 0.930 . S
C5686 H5672 0.930 . S
C5686 C5684 1.395 . S
C5686 C5689 1.403 . S
C5687 C5684 1.403 . S
C5687 C5688 1.524 . S
C5687 C5691 1.400 . S
C5688 H5673 0.960 . S
C5688 H5674 0.960 . S
C5688 H5675 0.960 . S
C5688 C5687 1.524 . S
C5689 C5686 1.403 . S
C5689 C5690 1.392 . S
C5689 C5693 1.495 . S
C5690 C5689 1.392 . S
C5690 C5691 1.385 . S
C5690 C5692 1.478 . S
C5691 H5685 0.930 . S
C5691 C5687 1.400 . S
C5691 C5690 1.385 . S
C5692 C5690 1.478 . S
C5692 C5694 1.381 . S
C5692 C5698 1.383 . S
C5693 C5689 1.495 . S
C5693 H5699 0.959 . S
C5693 H5700 0.961 . S
C5693 H5701 0.960 . S
C5694 C5692 1.381 . S
C5694 C5695 1.394 . S
C5694 H5702 0.930 . S
C5695 C5694 1.394 . S
C5695 C5696 1.383 . S
C5695 H5703 0.929 . S
C5696 C5695 1.383 . S
C5696 C5697 1.377 . S
C5697 H5681 0.930 . S
C5697 C5696 1.377 . S
C5697 C5698 1.379 . S
C5698 H5682 0.931 . S
C5698 C5692 1.383 . S
C5698 C5697 1.379 . S
H5699 C5693 0.959 . S
H5700 C5693 0.961 . S
H5701 C5693 0.960 . S
H5702 C5694 0.930 . S
H5703 C5695 0.929 . S
H5704 C5712 0.929 . S
H5705 C5714 0.930 . S
H5706 C5716 0.883 1_455 S
H5707 C5719 0.929 . S
H5708 C5722 0.930 . S
H5709 C5724 0.960 . S
H5710 C5724 0.960 . S
H5711 C5724 0.960 . S
C5712 H5704 0.929 . S
C5712 C5713 1.377 . S
C5712 C5714 1.384 . S
C5713 C5712 1.377 . S
C5713 C5719 1.390 . S
C5714 H5705 0.930 . S
C5714 C5712 1.384 . S
C5714 C5715 1.372 . S
C5715 C5714 1.372 . S
C5715 C5716 1.400 . S
C5715 C5720 1.490 . S
C5716 H5706 0.883 1_655 S
C5716 C5715 1.400 . S
C5716 C5719 1.386 . S
H5717 C5733 0.930 . S
H5718 C5734 0.931 . S
C5719 H5707 0.929 . S
C5719 C5713 1.390 . S
C5719 C5716 1.386 . S
C5720 C5715 1.490 . S
C5720 C5722 1.395 . S
C5720 C5723 1.403 . S
H5721 C5727 0.930 1_455 S
C5722 H5708 0.930 . S
C5722 C5720 1.395 . S
C5722 C5725 1.403 . S
C5723 C5720 1.403 . S
C5723 C5724 1.524 . S
C5723 C5727 1.400 . S
C5724 H5709 0.960 . S
C5724 H5710 0.960 . S
C5724 H5711 0.960 . S
C5724 C5723 1.524 . S
C5725 C5722 1.403 . S
C5725 C5726 1.392 1_655 S
C5725 C5729 1.495 . S
C5726 C5725 1.392 1_455 S
C5726 C5727 1.381 1_455 S
C5726 C5728 1.482 . S
C5727 H5721 0.930 1_655 S
C5727 C5723 1.400 . S
C5727 C5726 1.381 1_655 S
C5728 C5726 1.482 . S
C5728 C5730 1.381 1_455 S
C5728 C5734 1.383 . S
C5729 C5725 1.495 . S
C5729 H5735 0.959 . S
C5729 H5736 0.961 1_655 S
C5729 H5737 0.960 . S
C5730 C5728 1.381 1_655 S
C5730 C5731 1.394 1_655 S
C5730 H5738 0.930 . S
C5731 C5730 1.394 1_455 S
C5731 C5732 1.383 . S
C5731 H5739 0.929 1_455 S
C5732 C5731 1.383 . S
C5732 C5733 1.377 . S
C5733 H5717 0.930 . S
C5733 C5732 1.377 . S
C5733 C5734 1.379 . S
C5734 H5718 0.931 . S
C5734 C5728 1.383 . S
C5734 C5733 1.379 . S
H5735 C5729 0.959 . S
H5736 C5729 0.961 1_455 S
H5737 C5729 0.960 . S
H5738 C5730 0.930 . S
H5739 C5731 0.929 1_655 S
H5740 C5748 0.929 . S
H5741 C5750 0.930 . S
H5742 C5752 0.930 . S
H5743 C5755 0.929 . S
H5744 C5758 0.930 . S
H5745 C5760 0.960 . S
H5746 C5760 0.960 . S
H5747 C5760 0.960 . S
C5748 H5740 0.929 . S
C5748 C5749 1.377 . S
C5748 C5750 1.384 . S
C5749 C5748 1.377 . S
C5749 C5755 1.390 . S
C5750 H5741 0.930 . S
C5750 C5748 1.384 . S
C5750 C5751 1.372 . S
C5751 C5750 1.372 . S
C5751 C5752 1.400 . S
C5751 C5756 1.490 . S
C5752 H5742 0.930 . S
C5752 C5751 1.400 . S
C5752 C5755 1.386 . S
H5753 C5769 0.930 . S
H5754 C5770 0.931 . S
C5755 H5743 0.929 . S
C5755 C5749 1.390 . S
C5755 C5752 1.386 . S
C5756 C5751 1.490 . S
C5756 C5758 1.395 . S
C5756 C5759 1.403 . S
H5757 C5763 0.930 . S
C5758 H5744 0.930 . S
C5758 C5756 1.395 . S
C5758 C5761 1.403 . S
C5759 C5756 1.403 . S
C5759 C5760 1.524 . S
C5759 C5763 1.400 . S
C5760 H5745 0.960 . S
C5760 H5746 0.960 . S
C5760 H5747 0.960 . S
C5760 C5759 1.524 . S
C5761 C5758 1.403 . S
C5761 C5762 1.392 . S
C5761 C5765 1.495 . S
C5762 C5761 1.392 . S
C5762 C5763 1.385 . S
C5762 C5764 1.478 . S
C5763 H5757 0.930 . S
C5763 C5759 1.400 . S
C5763 C5762 1.385 . S
C5764 C5762 1.478 . S
C5764 C5766 1.381 . S
C5764 C5770 1.383 . S
C5765 C5761 1.495 . S
C5765 H5771 0.959 . S
C5765 H5772 0.961 . S
C5765 H5773 0.960 . S
C5766 C5764 1.381 . S
C5766 C5767 1.394 . S
C5766 H5774 0.930 . S
C5767 C5766 1.394 . S
C5767 C5768 1.383 . S
C5767 H5775 0.929 . S
C5768 C5767 1.383 . S
C5768 C5769 1.377 . S
C5769 H5753 0.930 . S
C5769 C5768 1.377 . S
C5769 C5770 1.379 . S
C5770 H5754 0.931 . S
C5770 C5764 1.383 . S
C5770 C5769 1.379 . S
H5771 C5765 0.959 . S
H5772 C5765 0.961 . S
H5773 C5765 0.960 . S
H5774 C5766 0.930 . S
H5775 C5767 0.929 . S
H5776 C5784 0.929 . S
H5777 C5786 0.930 . S
H5778 C5788 0.930 . S
H5779 C5791 0.929 . S
H5780 C5794 0.930 . S
H5781 C5796 0.960 . S
H5782 C5796 0.960 . S
H5783 C5796 0.960 . S
C5784 H5776 0.929 . S
C5784 C5785 1.377 . S
C5784 C5786 1.384 . S
C5785 C5784 1.377 . S
C5785 C5791 1.390 . S
C5786 H5777 0.930 . S
C5786 C5784 1.384 . S
C5786 C5787 1.372 . S
C5787 C5786 1.372 . S
C5787 C5788 1.400 . S
C5787 C5792 1.490 . S
C5788 H5778 0.930 . S
C5788 C5787 1.400 . S
C5788 C5791 1.386 . S
H5789 C5805 0.930 . S
H5790 C5806 0.931 . S
C5791 H5779 0.929 . S
C5791 C5785 1.390 . S
C5791 C5788 1.386 . S
C5792 C5787 1.490 . S
C5792 C5794 1.395 . S
C5792 C5795 1.403 . S
H5793 C5799 0.930 . S
C5794 H5780 0.930 . S
C5794 C5792 1.395 . S
C5794 C5797 1.403 . S
C5795 C5792 1.403 . S
C5795 C5796 1.524 . S
C5795 C5799 1.400 . S
C5796 H5781 0.960 . S
C5796 H5782 0.960 . S
C5796 H5783 0.960 . S
C5796 C5795 1.524 . S
C5797 C5794 1.403 . S
C5797 C5798 1.392 . S
C5797 C5801 1.495 . S
C5798 C5797 1.392 . S
C5798 C5799 1.385 . S
C5798 C5800 1.478 . S
C5799 H5793 0.930 . S
C5799 C5795 1.400 . S
C5799 C5798 1.385 . S
C5800 C5798 1.478 . S
C5800 C5802 1.381 . S
C5800 C5806 1.383 . S
C5801 C5797 1.495 . S
C5801 H5807 0.959 . S
C5801 H5808 0.961 . S
C5801 H5809 0.960 . S
C5802 C5800 1.381 . S
C5802 C5803 1.394 . S
C5802 H5810 0.930 . S
C5803 C5802 1.394 . S
C5803 C5804 1.383 . S
C5803 H5811 0.929 . S
C5804 C5803 1.383 . S
C5804 C5805 1.377 . S
C5805 H5789 0.930 . S
C5805 C5804 1.377 . S
C5805 C5806 1.379 . S
C5806 H5790 0.931 . S
C5806 C5800 1.383 . S
C5806 C5805 1.379 . S
H5807 C5801 0.959 . S
H5808 C5801 0.961 . S
H5809 C5801 0.960 . S
H5810 C5802 0.930 . S
H5811 C5803 0.929 . S
H5812 C5820 0.929 . S
H5813 C5822 0.930 . S
H5814 C5824 0.930 . S
H5815 C5827 0.929 . S
H5816 C5830 0.930 . S
H5817 C5832 0.960 . S
H5818 C5832 0.960 . S
H5819 C5832 0.960 . S
C5820 H5812 0.929 . S
C5820 C5821 1.377 . S
C5820 C5822 1.384 . S
C5821 C5820 1.377 . S
C5821 C5827 1.390 . S
C5822 H5813 0.930 . S
C5822 C5820 1.384 . S
C5822 C5823 1.372 . S
C5823 C5822 1.372 . S
C5823 C5824 1.400 . S
C5823 C5828 1.490 . S
C5824 H5814 0.930 . S
C5824 C5823 1.400 . S
C5824 C5827 1.386 . S
H5825 C5841 0.930 . S
H5826 C5842 0.931 . S
C5827 H5815 0.929 . S
C5827 C5821 1.390 . S
C5827 C5824 1.386 . S
C5828 C5823 1.490 . S
C5828 C5830 1.395 . S
C5828 C5831 1.403 . S
H5829 C5835 0.930 . S
C5830 H5816 0.930 . S
C5830 C5828 1.395 . S
C5830 C5833 1.403 . S
C5831 C5828 1.403 . S
C5831 C5832 1.524 . S
C5831 C5835 1.400 . S
C5832 H5817 0.960 . S
C5832 H5818 0.960 . S
C5832 H5819 0.960 . S
C5832 C5831 1.524 . S
C5833 C5830 1.403 . S
C5833 C5834 1.392 . S
C5833 C5837 1.495 . S
C5834 C5833 1.392 . S
C5834 C5835 1.385 . S
C5834 C5836 1.478 . S
C5835 H5829 0.930 . S
C5835 C5831 1.400 . S
C5835 C5834 1.385 . S
C5836 C5834 1.478 . S
C5836 C5838 1.381 . S
C5836 C5842 1.383 . S
C5837 C5833 1.495 . S
C5837 H5843 0.959 . S
C5837 H5844 0.961 . S
C5837 H5845 0.960 . S
C5838 C5836 1.381 . S
C5838 C5839 1.394 . S
C5838 H5846 0.930 . S
C5839 C5838 1.394 . S
C5839 C5840 1.383 . S
C5839 H5847 0.929 . S
C5840 C5839 1.383 . S
C5840 C5841 1.377 . S
C5841 H5825 0.930 . S
C5841 C5840 1.377 . S
C5841 C5842 1.379 . S
C5842 H5826 0.931 . S
C5842 C5836 1.383 . S
C5842 C5841 1.379 . S
H5843 C5837 0.959 . S
H5844 C5837 0.961 . S
H5845 C5837 0.960 . S
H5846 C5838 0.930 . S
H5847 C5839 0.929 . S
H5848 C5856 0.929 . S
H5849 C5858 0.930 . S
H5850 C5860 0.930 . S
H5851 C5863 0.929 . S
H5852 C5866 0.930 . S
H5853 C5868 0.960 1_455 S
H5854 C5868 0.960 1_455 S
H5855 C5868 0.960 . S
C5856 H5848 0.929 . S
C5856 C5857 1.377 . S
C5856 C5858 1.384 . S
C5857 C5856 1.377 . S
C5857 C5863 1.390 . S
C5858 H5849 0.930 . S
C5858 C5856 1.384 . S
C5858 C5859 1.372 . S
C5859 C5858 1.372 . S
C5859 C5860 1.400 . S
C5859 C5864 1.490 . S
C5860 H5850 0.930 . S
C5860 C5859 1.400 . S
C5860 C5863 1.386 . S
H5861 C5877 0.930 . S
H5862 C5878 0.931 . S
C5863 H5851 0.929 . S
C5863 C5857 1.390 . S
C5863 C5860 1.386 . S
C5864 C5859 1.490 . S
C5864 C5866 1.395 . S
C5864 C5867 1.403 . S
H5865 C5871 0.930 1_455 S
C5866 H5852 0.930 . S
C5866 C5864 1.395 . S
C5866 C5869 1.403 . S
C5867 C5864 1.403 . S
C5867 C5868 1.524 . S
C5867 C5871 1.400 . S
C5868 H5853 0.960 1_655 S
C5868 H5854 0.960 1_655 S
C5868 H5855 0.960 . S
C5868 C5867 1.524 . S
C5869 C5866 1.403 . S
C5869 C5870 1.392 . S
C5869 C5873 1.495 . S
C5870 C5869 1.392 . S
C5870 C5871 1.385 . S
C5870 C5872 1.478 . S
C5871 H5865 0.930 1_655 S
C5871 C5867 1.400 . S
C5871 C5870 1.385 . S
C5872 C5870 1.478 . S
C5872 C5874 1.381 1_655 S
C5872 C5878 1.383 . S
C5873 C5869 1.495 . S
C5873 H5879 0.959 . S
C5873 H5880 0.961 . S
C5873 H5881 0.960 . S
C5874 C5872 1.381 1_455 S
C5874 C5875 1.394 . S
C5874 H5882 0.930 . S
C5875 C5874 1.394 . S
C5875 C5876 1.383 . S
C5875 H5883 0.929 . S
C5876 C5875 1.383 . S
C5876 C5877 1.377 1_455 S
C5877 H5861 0.930 . S
C5877 C5876 1.377 1_655 S
C5877 C5878 1.379 . S
C5878 H5862 0.931 . S
C5878 C5872 1.383 . S
C5878 C5877 1.379 . S
H5879 C5873 0.959 . S
H5880 C5873 0.961 . S
H5881 C5873 0.960 . S
H5882 C5874 0.930 . S
H5883 C5875 0.929 . S
H5884 C5892 0.929 . S
H5885 C5894 0.930 . S
H5886 C5896 0.930 . S
H5887 C5899 0.929 . S
H5888 C5902 0.930 . S
H5889 C5904 0.960 . S
H5890 C5904 0.960 . S
H5891 C5904 0.960 . S
C5892 H5884 0.929 . S
C5892 C5893 1.377 . S
C5892 C5894 1.384 . S
C5893 C5892 1.377 . S
C5893 C5899 1.390 . S
C5894 H5885 0.930 . S
C5894 C5892 1.384 . S
C5894 C5895 1.372 . S
C5895 C5894 1.372 . S
C5895 C5896 1.400 . S
C5895 C5900 1.490 . S
C5896 H5886 0.930 . S
C5896 C5895 1.400 . S
C5896 C5899 1.386 . S
H5897 C5913 0.930 . S
H5898 C5914 0.931 . S
C5899 H5887 0.929 . S
C5899 C5893 1.390 . S
C5899 C5896 1.386 . S
C5900 C5895 1.490 . S
C5900 C5902 1.395 . S
C5900 C5903 1.403 . S
H5901 C5907 0.930 . S
C5902 H5888 0.930 . S
C5902 C5900 1.395 . S
C5902 C5905 1.403 . S
C5903 C5900 1.403 . S
C5903 C5904 1.524 . S
C5903 C5907 1.400 . S
C5904 H5889 0.960 . S
C5904 H5890 0.960 . S
C5904 H5891 0.960 . S
C5904 C5903 1.524 . S
C5905 C5902 1.403 . S
C5905 C5906 1.392 . S
C5905 C5909 1.495 . S
C5906 C5905 1.392 . S
C5906 C5907 1.385 . S
C5906 C5908 1.478 . S
C5907 H5901 0.930 . S
C5907 C5903 1.400 . S
C5907 C5906 1.385 . S
C5908 C5906 1.478 . S
C5908 C5910 1.381 . S
C5908 C5914 1.383 . S
C5909 C5905 1.495 . S
C5909 H5915 0.959 . S
C5909 H5916 0.961 . S
C5909 H5917 0.960 . S
C5910 C5908 1.381 . S
C5910 C5911 1.394 . S
C5910 H5918 0.930 . S
C5911 C5910 1.394 . S
C5911 C5912 1.383 . S
C5911 H5919 0.929 . S
C5912 C5911 1.383 . S
C5912 C5913 1.377 . S
C5913 H5897 0.930 . S
C5913 C5912 1.377 . S
C5913 C5914 1.379 . S
C5914 H5898 0.931 . S
C5914 C5908 1.383 . S
C5914 C5913 1.379 . S
H5915 C5909 0.959 . S
H5916 C5909 0.961 . S
H5917 C5909 0.960 . S
H5918 C5910 0.930 . S
H5919 C5911 0.929 . S
H5920 C5928 0.929 . S
H5921 C5930 0.930 . S
H5922 C5932 0.930 . S
H5923 C5935 0.929 . S
H5924 C5938 0.930 . S
H5925 C5940 0.960 . S
H5926 C5940 0.960 . S
H5927 C5940 0.960 . S
C5928 H5920 0.929 . S
C5928 C5929 1.377 . S
C5928 C5930 1.384 . S
C5929 C5928 1.377 . S
C5929 C5935 1.390 . S
C5930 H5921 0.930 . S
C5930 C5928 1.384 . S
C5930 C5931 1.372 . S
C5931 C5930 1.372 . S
C5931 C5932 1.400 . S
C5931 C5936 1.490 . S
C5932 H5922 0.930 . S
C5932 C5931 1.400 . S
C5932 C5935 1.386 . S
H5933 C5949 0.930 . S
H5934 C5950 0.931 . S
C5935 H5923 0.929 . S
C5935 C5929 1.390 . S
C5935 C5932 1.386 . S
C5936 C5931 1.490 . S
C5936 C5938 1.395 . S
C5936 C5939 1.403 . S
H5937 C5943 0.930 . S
C5938 H5924 0.930 . S
C5938 C5936 1.395 . S
C5938 C5941 1.403 . S
C5939 C5936 1.403 . S
C5939 C5940 1.524 . S
C5939 C5943 1.400 . S
C5940 H5925 0.960 . S
C5940 H5926 0.960 . S
C5940 H5927 0.960 . S
C5940 C5939 1.524 . S
C5941 C5938 1.403 . S
C5941 C5942 1.392 . S
C5941 C5945 1.495 . S
C5942 C5941 1.392 . S
C5942 C5943 1.385 . S
C5942 C5944 1.478 . S
C5943 H5937 0.930 . S
C5943 C5939 1.400 . S
C5943 C5942 1.385 . S
C5944 C5942 1.478 . S
C5944 C5946 1.381 . S
C5944 C5950 1.383 . S
C5945 C5941 1.495 . S
C5945 H5951 0.959 . S
C5945 H5952 0.961 . S
C5945 H5953 0.960 . S
C5946 C5944 1.381 . S
C5946 C5947 1.394 . S
C5946 H5954 0.930 . S
C5947 C5946 1.394 . S
C5947 C5948 1.383 . S
C5947 H5955 0.929 . S
C5948 C5947 1.383 . S
C5948 C5949 1.377 . S
C5949 H5933 0.930 . S
C5949 C5948 1.377 . S
C5949 C5950 1.379 . S
C5950 H5934 0.931 . S
C5950 C5944 1.383 . S
C5950 C5949 1.379 . S
H5951 C5945 0.959 . S
H5952 C5945 0.961 . S
H5953 C5945 0.960 . S
H5954 C5946 0.930 . S
H5955 C5947 0.929 . S
H5956 C5964 0.929 . S
H5957 C5966 0.930 . S
H5958 C5968 0.930 . S
H5959 C5971 0.929 . S
H5960 C5974 0.930 . S
H5961 C5976 0.960 . S
H5962 C5976 0.960 . S
H5963 C5976 0.960 . S
C5964 H5956 0.929 . S
C5964 C5965 1.377 . S
C5964 C5966 1.384 . S
C5965 C5964 1.377 . S
C5965 C5971 1.390 . S
C5966 H5957 0.930 . S
C5966 C5964 1.384 . S
C5966 C5967 1.372 . S
C5967 C5966 1.372 . S
C5967 C5968 1.400 . S
C5967 C5972 1.490 . S
C5968 H5958 0.930 . S
C5968 C5967 1.400 . S
C5968 C5971 1.386 . S
H5969 C5985 0.930 . S
H5970 C5986 0.931 . S
C5971 H5959 0.929 . S
C5971 C5965 1.390 . S
C5971 C5968 1.386 . S
C5972 C5967 1.490 . S
C5972 C5974 1.395 . S
C5972 C5975 1.403 . S
H5973 C5979 0.930 . S
C5974 H5960 0.930 . S
C5974 C5972 1.395 . S
C5974 C5977 1.403 . S
C5975 C5972 1.403 . S
C5975 C5976 1.524 . S
C5975 C5979 1.400 . S
C5976 H5961 0.960 . S
C5976 H5962 0.960 . S
C5976 H5963 0.960 . S
C5976 C5975 1.524 . S
C5977 C5974 1.403 . S
C5977 C5978 1.392 . S
C5977 C5981 1.495 . S
C5978 C5977 1.392 . S
C5978 C5979 1.385 . S
C5978 C5980 1.478 . S
C5979 H5973 0.930 . S
C5979 C5975 1.400 . S
C5979 C5978 1.385 . S
C5980 C5978 1.478 . S
C5980 C5982 1.381 . S
C5980 C5986 1.383 . S
C5981 C5977 1.495 . S
C5981 H5987 0.975 . S
C5981 H5988 0.960 . S
C5981 H5989 0.960 1_565 S
C5982 C5980 1.381 . S
C5982 C5983 1.394 1_565 S
C5982 H5990 0.930 . S
C5983 C5982 1.394 1_545 S
C5983 C5984 1.372 1_545 S
C5983 H5991 0.929 . S
C5984 C5983 1.372 1_565 S
C5984 C5985 1.394 . S
C5985 H5969 0.930 . S
C5985 C5984 1.394 . S
C5985 C5986 1.379 . S
C5986 H5970 0.931 . S
C5986 C5980 1.383 . S
C5986 C5985 1.379 . S
H5987 C5981 0.975 . S
H5988 C5981 0.960 . S
H5989 C5981 0.960 1_545 S
H5990 C5982 0.930 . S
H5991 C5983 0.929 . S
H5992 C6000 0.929 . S
H5993 C6002 0.930 . S
H5994 C6004 0.930 . S
H5995 C6007 0.929 . S
H5996 C6010 0.930 . S
H5997 C6012 0.960 . S
H5998 C6012 0.960 . S
H5999 C6012 0.960 . S
C6000 H5992 0.929 . S
C6000 C6001 1.377 . S
C6000 C6002 1.384 . S
C6001 C6000 1.377 . S
C6001 C6007 1.390 . S
C6002 H5993 0.930 . S
C6002 C6000 1.384 . S
C6002 C6003 1.372 . S
C6003 C6002 1.372 . S
C6003 C6004 1.400 . S
C6003 C6008 1.490 . S
C6004 H5994 0.930 . S
C6004 C6003 1.400 . S
C6004 C6007 1.386 . S
H6005 C6021 0.930 . S
H6006 C6022 0.931 . S
C6007 H5995 0.929 . S
C6007 C6001 1.390 . S
C6007 C6004 1.386 . S
C6008 C6003 1.490 . S
C6008 C6010 1.395 . S
C6008 C6011 1.403 . S
H6009 C6015 0.930 . S
C6010 H5996 0.930 . S
C6010 C6008 1.395 . S
C6010 C6013 1.403 . S
C6011 C6008 1.403 . S
C6011 C6012 1.524 . S
C6011 C6015 1.400 . S
C6012 H5997 0.960 . S
C6012 H5998 0.960 . S
C6012 H5999 0.960 . S
C6012 C6011 1.524 . S
C6013 C6010 1.403 . S
C6013 C6014 1.392 . S
C6013 C6017 1.495 . S
C6014 C6013 1.392 . S
C6014 C6015 1.385 . S
C6014 C6016 1.478 . S
C6015 H6009 0.930 . S
C6015 C6011 1.400 . S
C6015 C6014 1.385 . S
C6016 C6014 1.478 . S
C6016 C6018 1.381 . S
C6016 C6022 1.383 . S
C6017 C6013 1.495 . S
C6017 H6023 0.959 . S
C6017 H6024 0.961 . S
C6017 H6025 0.960 . S
C6018 C6016 1.381 . S
C6018 C6019 1.394 . S
C6018 H6026 0.930 . S
C6019 C6018 1.394 . S
C6019 C6020 1.383 . S
C6019 H6027 0.929 . S
C6020 C6019 1.383 . S
C6020 C6021 1.377 . S
C6021 H6005 0.930 . S
C6021 C6020 1.377 . S
C6021 C6022 1.379 . S
C6022 H6006 0.931 . S
C6022 C6016 1.383 . S
C6022 C6021 1.379 . S
H6023 C6017 0.959 . S
H6024 C6017 0.961 . S
H6025 C6017 0.960 . S
H6026 C6018 0.930 . S
H6027 C6019 0.929 . S
H6028 C6036 0.929 . S
H6029 C6038 0.930 . S
H6030 C6040 0.930 . S
H6031 C6043 0.929 . S
H6032 C6046 0.930 . S
H6033 C6048 0.944 1_556 S
H6034 C6048 0.960 . S
H6035 C6048 0.990 . S
C6036 H6028 0.929 . S
C6036 C6037 1.377 . S
C6036 C6038 1.384 . S
C6037 C6036 1.377 . S
C6037 C6043 1.390 . S
C6038 H6029 0.930 . S
C6038 C6036 1.384 . S
C6038 C6039 1.372 . S
C6039 C6038 1.372 . S
C6039 C6040 1.400 . S
C6039 C6044 1.490 . S
C6040 H6030 0.930 . S
C6040 C6039 1.400 . S
C6040 C6043 1.386 . S
H6041 C6057 0.930 . S
H6042 C6058 0.931 . S
C6043 H6031 0.929 . S
C6043 C6037 1.390 . S
C6043 C6040 1.386 . S
C6044 C6039 1.490 . S
C6044 C6046 1.395 . S
C6044 C6047 1.403 . S
H6045 C6051 0.930 . S
C6046 H6032 0.930 . S
C6046 C6044 1.395 . S
C6046 C6049 1.403 . S
C6047 C6044 1.403 . S
C6047 C6048 1.524 . S
C6047 C6051 1.400 . S
C6048 H6033 0.944 1_554 S
C6048 H6034 0.960 . S
C6048 H6035 0.990 . S
C6048 C6047 1.524 . S
C6049 C6046 1.403 . S
C6049 C6050 1.392 . S
C6049 C6053 1.495 . S
C6050 C6049 1.392 . S
C6050 C6051 1.385 . S
C6050 C6052 1.478 . S
C6051 H6045 0.930 . S
C6051 C6047 1.400 . S
C6051 C6050 1.385 . S
C6052 C6050 1.478 . S
C6052 C6054 1.381 . S
C6052 C6058 1.383 . S
C6053 C6049 1.495 . S
C6053 H6059 0.959 . S
C6053 H6060 0.961 . S
C6053 H6061 0.960 . S
C6054 C6052 1.381 . S
C6054 C6055 1.394 . S
C6054 H6062 0.930 . S
C6055 C6054 1.394 . S
C6055 C6056 1.383 . S
C6055 H6063 0.929 . S
C6056 C6055 1.383 . S
C6056 C6057 1.377 . S
C6057 H6041 0.930 . S
C6057 C6056 1.377 . S
C6057 C6058 1.379 . S
C6058 H6042 0.931 . S
C6058 C6052 1.383 . S
C6058 C6057 1.379 . S
H6059 C6053 0.959 . S
H6060 C6053 0.961 . S
H6061 C6053 0.960 . S
H6062 C6054 0.930 . S
H6063 C6055 0.929 . S
H6064 C6072 0.929 . S
H6065 C6074 0.930 . S
H6066 C6076 0.930 . S
H6067 C6079 0.929 . S
H6068 C6082 0.930 . S
H6069 C6084 0.960 . S
H6070 C6084 0.960 . S
H6071 C6084 0.960 . S
C6072 H6064 0.929 . S
C6072 C6073 1.377 . S
C6072 C6074 1.384 . S
C6073 C6072 1.377 . S
C6073 C6079 1.390 . S
C6074 H6065 0.930 . S
C6074 C6072 1.384 . S
C6074 C6075 1.372 . S
C6075 C6074 1.372 . S
C6075 C6076 1.400 . S
C6075 C6080 1.490 . S
C6076 H6066 0.930 . S
C6076 C6075 1.400 . S
C6076 C6079 1.386 . S
H6077 C6093 0.930 . S
H6078 C6094 0.931 . S
C6079 H6067 0.929 . S
C6079 C6073 1.390 . S
C6079 C6076 1.386 . S
C6080 C6075 1.490 . S
C6080 C6082 1.395 . S
C6080 C6083 1.403 . S
H6081 C6087 0.930 . S
C6082 H6068 0.930 . S
C6082 C6080 1.395 . S
C6082 C6085 1.403 . S
C6083 C6080 1.403 . S
C6083 C6084 1.524 . S
C6083 C6087 1.400 . S
C6084 H6069 0.960 . S
C6084 H6070 0.960 . S
C6084 H6071 0.960 . S
C6084 C6083 1.524 . S
C6085 C6082 1.403 . S
C6085 C6086 1.392 . S
C6085 C6089 1.495 . S
C6086 C6085 1.392 . S
C6086 C6087 1.385 . S
C6086 C6088 1.478 . S
C6087 H6081 0.930 . S
C6087 C6083 1.400 . S
C6087 C6086 1.385 . S
C6088 C6086 1.478 . S
C6088 C6090 1.381 . S
C6088 C6094 1.383 . S
C6089 C6085 1.495 . S
C6089 H6095 0.959 . S
C6089 H6096 0.961 . S
C6089 H6097 0.960 . S
C6090 C6088 1.381 . S
C6090 C6091 1.394 . S
C6090 H6098 0.930 . S
C6091 C6090 1.394 . S
C6091 C6092 1.383 . S
C6091 H6099 0.929 . S
C6092 C6091 1.383 . S
C6092 C6093 1.377 . S
C6093 H6077 0.930 . S
C6093 C6092 1.377 . S
C6093 C6094 1.379 . S
C6094 H6078 0.931 . S
C6094 C6088 1.383 . S
C6094 C6093 1.379 . S
H6095 C6089 0.959 . S
H6096 C6089 0.961 . S
H6097 C6089 0.960 . S
H6098 C6090 0.930 . S
H6099 C6091 0.929 . S
H6100 C6108 0.929 . S
H6101 C6110 0.930 . S
H6102 C6112 0.930 . S
H6103 C6115 0.929 . S
H6104 C6118 0.930 . S
H6105 C6120 0.960 . S
H6106 C6120 0.960 . S
H6107 C6120 0.960 . S
C6108 H6100 0.929 . S
C6108 C6109 1.377 . S
C6108 C6110 1.384 . S
C6109 C6108 1.377 . S
C6109 C6115 1.390 . S
C6110 H6101 0.930 . S
C6110 C6108 1.384 . S
C6110 C6111 1.372 . S
C6111 C6110 1.372 . S
C6111 C6112 1.400 . S
C6111 C6116 1.490 . S
C6112 H6102 0.930 . S
C6112 C6111 1.400 . S
C6112 C6115 1.386 . S
H6113 C6129 0.930 . S
H6114 C6130 0.931 . S
C6115 H6103 0.929 . S
C6115 C6109 1.390 . S
C6115 C6112 1.386 . S
C6116 C6111 1.490 . S
C6116 C6118 1.395 . S
C6116 C6119 1.403 1_554 S
H6117 C6123 0.930 . S
C6118 H6104 0.930 . S
C6118 C6116 1.395 . S
C6118 C6121 1.403 . S
C6119 C6116 1.403 1_556 S
C6119 C6120 1.524 . S
C6119 C6123 1.400 . S
C6120 H6105 0.960 . S
C6120 H6106 0.960 . S
C6120 H6107 0.960 . S
C6120 C6119 1.524 . S
C6121 C6118 1.403 . S
C6121 C6122 1.392 . S
C6121 C6125 1.495 . S
C6122 C6121 1.392 . S
C6122 C6123 1.385 1_554 S
C6122 C6124 1.478 . S
C6123 H6117 0.930 . S
C6123 C6119 1.400 . S
C6123 C6122 1.385 1_556 S
C6124 C6122 1.478 . S
C6124 C6126 1.381 . S
C6124 C6130 1.383 . S
C6125 C6121 1.495 . S
C6125 H6131 0.959 . S
C6125 H6132 0.961 . S
C6125 H6133 0.960 . S
C6126 C6124 1.381 . S
C6126 C6127 1.401 . S
C6126 H6134 0.930 . S
C6127 C6126 1.401 . S
C6127 C6128 1.379 1_554 S
C6127 H6135 0.928 1_554 S
C6128 C6127 1.379 1_556 S
C6128 C6129 1.377 1_556 S
C6129 H6113 0.930 . S
C6129 C6128 1.377 1_554 S
C6129 C6130 1.379 . S
C6130 H6114 0.931 . S
C6130 C6124 1.383 . S
C6130 C6129 1.379 . S
H6131 C6125 0.959 . S
H6132 C6125 0.961 . S
H6133 C6125 0.960 . S
H6134 C6126 0.930 . S
H6135 C6127 0.928 1_556 S
H6136 C6144 0.929 . S
H6137 C6146 0.930 . S
H6138 C6148 0.930 . S
H6139 C6151 0.929 . S
H6140 C6154 0.930 . S
H6141 C6156 0.960 . S
H6142 C6156 0.960 . S
H6143 C6156 0.960 . S
C6144 H6136 0.929 . S
C6144 C6145 1.377 . S
C6144 C6146 1.384 . S
C6145 C6144 1.377 . S
C6145 C6151 1.390 . S
C6146 H6137 0.930 . S
C6146 C6144 1.384 . S
C6146 C6147 1.372 . S
C6147 C6146 1.372 . S
C6147 C6148 1.400 . S
C6147 C6152 1.490 . S
C6148 H6138 0.930 . S
C6148 C6147 1.400 . S
C6148 C6151 1.386 . S
H6149 C6165 0.930 . S
H6150 C6166 0.931 . S
C6151 H6139 0.929 . S
C6151 C6145 1.390 . S
C6151 C6148 1.386 . S
C6152 C6147 1.490 . S
C6152 C6154 1.395 . S
C6152 C6155 1.403 . S
H6153 C6159 0.930 . S
C6154 H6140 0.930 . S
C6154 C6152 1.395 . S
C6154 C6157 1.403 . S
C6155 C6152 1.403 . S
C6155 C6156 1.524 . S
C6155 C6159 1.400 . S
C6156 H6141 0.960 . S
C6156 H6142 0.960 . S
C6156 H6143 0.960 . S
C6156 C6155 1.524 . S
C6157 C6154 1.403 . S
C6157 C6158 1.392 . S
C6157 C6161 1.495 . S
C6158 C6157 1.392 . S
C6158 C6159 1.385 . S
C6158 C6160 1.478 . S
C6159 H6153 0.930 . S
C6159 C6155 1.400 . S
C6159 C6158 1.385 . S
C6160 C6158 1.478 . S
C6160 C6162 1.381 . S
C6160 C6166 1.383 . S
C6161 C6157 1.495 . S
C6161 H6167 0.959 . S
C6161 H6168 0.961 . S
C6161 H6169 0.960 . S
C6162 C6160 1.381 . S
C6162 C6163 1.394 . S
C6162 H6170 0.930 . S
C6163 C6162 1.394 . S
C6163 C6164 1.383 . S
C6163 H6171 0.929 . S
C6164 C6163 1.383 . S
C6164 C6165 1.377 . S
C6165 H6149 0.930 . S
C6165 C6164 1.377 . S
C6165 C6166 1.379 . S
C6166 H6150 0.931 . S
C6166 C6160 1.383 . S
C6166 C6165 1.379 . S
H6167 C6161 0.959 . S
H6168 C6161 0.961 . S
H6169 C6161 0.960 . S
H6170 C6162 0.930 . S
H6171 C6163 0.929 . S
H6172 C6180 0.929 . S
H6173 C6182 0.930 . S
H6174 C6184 0.930 . S
H6175 C6187 0.929 . S
H6176 C6190 0.930 . S
H6177 C6192 0.960 . S
H6178 C6192 0.960 . S
H6179 C6192 0.960 . S
C6180 H6172 0.929 . S
C6180 C6181 1.377 . S
C6180 C6182 1.384 . S
C6181 C6180 1.377 . S
C6181 C6187 1.390 . S
C6182 H6173 0.930 . S
C6182 C6180 1.384 . S
C6182 C6183 1.372 . S
C6183 C6182 1.372 . S
C6183 C6184 1.400 . S
C6183 C6188 1.490 . S
C6184 H6174 0.930 . S
C6184 C6183 1.400 . S
C6184 C6187 1.386 . S
H6185 C6201 0.930 . S
H6186 C6202 0.931 . S
C6187 H6175 0.929 . S
C6187 C6181 1.390 . S
C6187 C6184 1.386 . S
C6188 C6183 1.490 . S
C6188 C6190 1.395 . S
C6188 C6191 1.403 . S
H6189 C6195 0.930 . S
C6190 H6176 0.930 . S
C6190 C6188 1.395 . S
C6190 C6193 1.403 . S
C6191 C6188 1.403 . S
C6191 C6192 1.524 . S
C6191 C6195 1.400 . S
C6192 H6177 0.960 . S
C6192 H6178 0.960 . S
C6192 H6179 0.960 . S
C6192 C6191 1.524 . S
C6193 C6190 1.403 . S
C6193 C6194 1.392 . S
C6193 C6197 1.495 . S
C6194 C6193 1.392 . S
C6194 C6195 1.385 . S
C6194 C6196 1.478 . S
C6195 H6189 0.930 . S
C6195 C6191 1.400 . S
C6195 C6194 1.385 . S
C6196 C6194 1.478 . S
C6196 C6198 1.381 . S
C6196 C6202 1.383 . S
C6197 C6193 1.495 . S
C6197 H6203 0.959 . S
C6197 H6204 0.961 . S
C6197 H6205 0.960 . S
C6198 C6196 1.381 . S
C6198 C6199 1.394 . S
C6198 H6206 0.930 . S
C6199 C6198 1.394 . S
C6199 C6200 1.383 . S
C6199 H6207 0.929 . S
C6200 C6199 1.383 . S
C6200 C6201 1.377 . S
C6201 H6185 0.930 . S
C6201 C6200 1.377 . S
C6201 C6202 1.379 . S
C6202 H6186 0.931 . S
C6202 C6196 1.383 . S
C6202 C6201 1.379 . S
H6203 C6197 0.959 . S
H6204 C6197 0.961 . S
H6205 C6197 0.960 . S
H6206 C6198 0.930 . S
H6207 C6199 0.929 . S
C2761 C665 1.835 . S
C2780 C2143 1.833 . S
C2797 C381 1.614 . S
C2816 C2154 1.600 . S
C2833 C460 1.335 . S
C2852 C2223 1.350 . S
C2888 C2236 1.198 . S
C2869 C585 1.226 . S
C2905 C108 2.460 . S
C2924 C2292 2.417 . S
C2960 C2343 1.793 . S
C2941 C196 1.799 . S
C2996 C2372 2.383 . S
C2977 C313 2.394 . S
C3013 C49 2.253 . S
C3032 C2423 2.253 . S
C3068 C2114 0.882 . S
C3049 C1457 0.882 . S
C3085 C1545 0.673 . S
C3104 C2156 0.723 . S
C3140 C2194 1.032 . S
C3121 C1721 1.035 . S
C3176 C2263 1.453 . S
C3157 C1113 1.437 . S
C3193 C1428 0.389 . S
C3212 C2297 0.415 . S
C3248 C2314 1.338 . S
C3229 C1516 1.346 . S
C3284 C2377 0.281 . S
C3265 C1692 0.154 . S
C3320 C2394 1.974 . S
C3301 C1085 2.015 . S
C3356 C2116 1.352 1_565 S
C3337 C988 1.380 . S
C3373 C1817 1.556 . S
C3392 C2455 1.499 . S
C3428 C2476 1.118 . S
C3409 C2081 1.136 . S
C3464 C2535 0.310 . S
C3445 C1993 0.272 . S
C3481 C761 0.670 . S
C3500 C2396 0.646 . S
C3517 C821 1.231 . S
C3536 C2196 1.230 . S
C3553 C2053 0.802 . S
C3572 C2554 0.768 . S
C3608 C2623 0.796 . S
C3589 C1868 0.825 . S
C3644 C2132 1.845 . S
C3625 C372 1.838 . S
C3680 C2615 1.616 . S
C3661 C645 1.615 . S
C3697 C577 1.330 . S
C3716 C2212 1.334 . S
C3733 C497 1.223 . S
C3752 C2577 1.227 . S
C3788 C2303 2.426 . S
C3769 C57 2.454 . S
C3805 C293 1.797 . S
C3824 C2492 1.801 . S
C3860 C2383 2.381 1_556 S
C3841 C205 2.387 . S
C3896 C2652 2.232 . S
C3877 C145 2.250 . S
C3932 C2135 0.860 . S
C3913 C909 0.879 . S
C3968 C2617 0.633 . S
C3949 C1956 0.660 . S
C3985 C724 1.027 . S
C4004 C2215 1.031 . S
C4021 C1780 1.428 . S
C4040 C2572 1.459 . S
C4057 C937 0.382 . S
C4076 C2276 0.341 . S
C4112 C2495 1.339 . S
C4093 C1985 1.342 . S
C4129 C753 0.170 . S
C4148 C2356 0.281 . S
C4165 C1809 2.006 . S
C4184 C2655 1.969 . S
C4201 C1173 1.380 . S
C4220 C2137 1.314 . S
C4237 C1105 1.554 . S
C4256 C2434 1.519 . S
C4273 C1633 1.138 . S
C4292 C2337 1.060 . S
C4309 C1553 0.263 . S
C4328 C2514 0.263 . S
C4364 C2657 0.726 . S
C4345 C1729 0.667 . S
C4381 C1340 1.232 . S
C4400 C2217 1.223 . S
C4436 C2255 0.827 . S
C4417 C1604 0.802 . S
C4472 C2172 0.828 . S
C4453 C1252 0.818 . S
C4489 C489 1.833 . S
C4508 C2703 1.852 . S
C4544 C2594 1.619 . S
C4525 C557 1.610 . S
C4561 C636 1.341 . S
C4580 C2743 1.336 . S
C4597 C409 1.172 1_655 S
C4616 C2556 1.226 . S
C4633 C284 2.461 . S
C4652 C2452 2.413 . S
C4688 C2503 1.817 . S
C4669 C20 1.793 . S
C4724 C2532 2.385 . S
C4705 C137 2.394 . S
C4760 C2663 2.252 . S
C4741 C225 2.253 . S
C4796 C2674 0.888 . S
C4777 C1641 0.885 . S
C4813 C1193 0.664 . S
C4832 C2596 0.688 . S
C4868 C2714 1.011 . S
C4849 C1289 1.027 . S
C4904 C2583 1.467 . S
C4885 C1377 1.428 . S
C4940 C2457 0.354 . S
C4921 C1613 0.413 . S
C4957 C1164 1.346 . S
C4976 C2474 1.337 . S
C5012 C2537 0.244 . S
C4993 C1261 0.161 . S
C5029 C1349 2.012 . S
C5048 C2634 1.996 . S
C5084 C2676 1.329 . S
C5065 C1965 1.387 . S
C5101 C849 1.557 . S
C5120 C2295 1.515 . S
C5156 C2316 1.144 . S
C5137 C929 1.140 . S
C5192 C2375 0.280 . S
C5173 C1017 0.277 . S
C5228 C2636 0.630 . S
C5209 C1897 0.668 . S
C5245 C1789 1.230 . S
C5264 C2716 1.217 . S
C5300 C2234 0.780 . S
C5281 C900 0.806 . S
C5336 C2183 0.790 . S
C5317 C733 0.822 . S
C5353 C548 1.835 . S
C5372 C2692 1.841 . S
C5408 C2175 1.615 . S
C5389 C469 1.608 . S
C5425 C401 1.330 . S
C5444 C2732 1.336 . S
C5461 C673 1.224 . S
C5480 C2257 1.208 . S
C5497 C233 2.456 . S
C5516 C2463 2.410 1_556 S
C5552 C2332 1.791 . S
C5533 C117 1.790 . S
C5569 C29 2.386 . S
C5588 C2543 2.378 . S
C5605 C321 2.253 . S
C5624 C2412 2.247 . S
C5660 C2695 0.900 . S
C5641 C2044 0.881 . S
C5677 C997 0.668 . S
C5696 C2177 0.676 . S
C5732 C2735 0.999 . S
C5713 C1877 1.021 . S
C5749 C812 1.432 . S
C5768 C2252 1.456 . S
C5785 C2073 0.381 . S
C5804 C2436 0.337 . S
C5840 C2335 1.322 . S
C5821 C1025 1.346 . S
C5857 C1905 0.179 . S
C5876 C2516 0.231 . S
C5912 C2415 1.970 . S
C5893 C841 2.006 . S
C5948 C2697 1.331 . S
C5929 C1525 1.383 . S
C5984 C2274 1.501 1_665 S
C5965 C1369 1.552 . S
C6001 C1465 1.138 . S
C6020 C2497 1.091 . S
C6056 C2354 0.226 . S
C6037 C1201 0.294 . S
C6073 C1281 0.669 . S
C6092 C2417 0.709 . S
C6109 C1076 1.230 . S
C6128 C2737 1.180 . S
C6164 C2575 0.791 . S
C6145 C1437 0.794 . S
C6200 C2612 0.799 . S
C6181 C1701 0.821 . S
