# Generated by pormake.
# Topology anh, (6,3)-cn, num edge types: 1
# Building blocks:
#     Node 0, Type 0, BuildingBlock: PAMTUU_clean_sbu_0, # of connection points: 6
#     Node 1, Type 0, BuildingBlock: PAMTUU_clean_sbu_0, # of connection points: 6
#     Node 2, Type 0, BuildingBlock: PAMTUU_clean_sbu_0, # of connection points: 6
#     Node 3, Type 1, BuildingBlock: WUSLED_clean_sbu_0, # of connection points: 3
#     Node 4, Type 1, BuildingBlock: WUSLED_clean_sbu_0, # of connection points: 3
#     Node 5, Type 1, BuildingBlock: WUSLED_clean_sbu_0, # of connection points: 3
#     Node 6, Type 1, BuildingBlock: WUSLED_clean_sbu_0, # of connection points: 3
#     Node 7, Type 1, BuildingBlock: WUSLED_clean_sbu_0, # of connection points: 3
#     Node 8, Type 1, BuildingBlock: WUSLED_clean_sbu_0, # of connection points: 3
#     Edge 9, Type (0, 1), BuildingBlock: XUDNAN_clean_linker_2, # of connection points: 2
#     Edge 10, Type (0, 1), BuildingBlock: XUDNAN_clean_linker_2, # of connection points: 2
#     Edge 11, Type (0, 1), BuildingBlock: XUDNAN_clean_linker_2, # of connection points: 2
#     Edge 12, Type (0, 1), BuildingBlock: XUDNAN_clean_linker_2, # of connection points: 2
#     Edge 13, Type (0, 1), BuildingBlock: XUDNAN_clean_linker_2, # of connection points: 2
#     Edge 14, Type (0, 1), BuildingBlock: XUDNAN_clean_linker_2, # of connection points: 2
#     Edge 15, Type (0, 1), BuildingBlock: XUDNAN_clean_linker_2, # of connection points: 2
#     Edge 16, Type (0, 1), BuildingBlock: XUDNAN_clean_linker_2, # of connection points: 2
#     Edge 17, Type (0, 1), BuildingBlock: XUDNAN_clean_linker_2, # of connection points: 2
#     Edge 18, Type (0, 1), BuildingBlock: XUDNAN_clean_linker_2, # of connection points: 2
#     Edge 19, Type (0, 1), BuildingBlock: XUDNAN_clean_linker_2, # of connection points: 2
#     Edge 20, Type (0, 1), BuildingBlock: XUDNAN_clean_linker_2, # of connection points: 2
#     Edge 21, Type (0, 1), BuildingBlock: XUDNAN_clean_linker_2, # of connection points: 2
#     Edge 22, Type (0, 1), BuildingBlock: XUDNAN_clean_linker_2, # of connection points: 2
#     Edge 23, Type (0, 1), BuildingBlock: XUDNAN_clean_linker_2, # of connection points: 2
#     Edge 24, Type (0, 1), BuildingBlock: XUDNAN_clean_linker_2, # of connection points: 2
#     Edge 25, Type (0, 1), BuildingBlock: XUDNAN_clean_linker_2, # of connection points: 2
#     Edge 26, Type (0, 1), BuildingBlock: XUDNAN_clean_linker_2, # of connection points: 2
# Relax obj value: 0.218
# Max RMSD: 0.182
# Mean RMSD: 0.148
data_MOF--net-anh--node1-PAMTUU_clean_sbu_0--node2-WUSLED_clean_sbu_0--edge1-XUDNAN_clean_linker_2
_symmetry_space_group_name_H-M    P1
_symmetry_Int_Tables_number       1
_symmetry_cell_setting            triclinic
loop_
_symmetry_equiv_pos_as_xyz
'x, y, z'
_cell_length_a     38.388689
_cell_length_b     38.634548
_cell_length_c     69.676244
_cell_angle_alpha  93.347984
_cell_angle_beta   90.754059
_cell_angle_gamma 119.72676
loop_
_atom_site_label
_atom_site_type_symbol
_atom_site_fract_x
_atom_site_fract_y
_atom_site_fract_z
_atom_type_partial_charge
Tb0 Tb 0.12082 0.64762 0.17675 0.0
Tb1 Tb 0.15556 0.58677 0.16958 0.0
C2 C 0.13449 0.62345 0.13555 0.0
C3 C 1.05091 0.67983 0.19197 0.0
C4 C 0.97132 0.64941 0.20285 0.0
C5 C 0.98993 0.68388 0.19254 0.0
C6 C 1.02949 0.6989 0.18708 0.0
C7 C 1.03333 0.64705 0.20335 0.0
C8 C 0.99391 0.63207 0.20882 0.0
C9 C 1.08888 0.69012 0.18303 0.0
O10 O 1.06645 0.58765 0.17254 0.0
O11 O 1.09242 0.54574 0.17543 0.0
O12 O 0.16429 0.60335 0.20045 0.0
O13 O 0.11293 0.61695 0.20255 0.0
O14 O 0.18345 0.56586 0.1503 0.0
O15 O 0.16387 0.53943 0.17741 0.0
O16 O 0.20989 0.64677 0.17144 0.0
O17 O 0.18548 0.68692 0.18364 0.0
O18 O 0.14092 0.65363 0.14753 0.0
O19 O 0.12917 0.59017 0.14218 0.0
C20 C 1.06146 0.55165 0.17486 0.0
O21 O 0.11698 0.69147 0.19434 0.0
O22 O 1.08487 0.67016 0.1666 0.0
C23 C 0.13785 0.60761 0.21056 0.0
C24 C 0.21683 0.53337 0.16279 0.0
C25 C 0.27191 0.50525 0.15937 0.0
C26 C 0.24652 0.49553 0.17492 0.0
C27 C 0.21908 0.50928 0.17655 0.0
C28 C 0.24403 0.54525 0.148 0.0
C29 C 0.27119 0.53135 0.1463 0.0
C30 C 0.18189 0.53954 0.16167 0.0
C31 C 0.21587 0.6818 0.17888 0.0
H32 H 0.9731 0.69755 0.18752 0.0
H33 H 1.04252 0.72398 0.17815 0.0
H34 H 1.04929 0.63168 0.20714 0.0
H35 H 0.98042 0.60565 0.21686 0.0
H36 H 0.24668 0.47594 0.18538 0.0
H37 H 0.1982 0.49927 0.188 0.0
H38 H 0.24274 0.56328 0.13697 0.0
H39 H 0.28971 0.53901 0.13393 0.0
Tb40 Tb 0.60801 1.05949 0.50199 0.0
Tb41 Tb 0.70353 0.11848 0.50881 0.0
C42 C 0.66277 0.08929 0.46751 0.0
C43 C 0.50993 0.97067 0.50436 0.0
C44 C 0.46321 0.89313 0.5164 0.0
C45 C 0.44825 0.91982 0.51691 0.0
C46 C 0.47147 0.95833 0.5109 0.0
C47 C 0.52561 0.94466 0.50467 0.0
C48 C 0.50237 0.90613 0.51056 0.0
C49 C 0.53403 1.01103 0.49786 0.0
O50 O 0.63181 1.01764 0.50224 0.0
O51 O 0.69705 1.05995 0.51366 0.0
O52 O 0.67712 0.11687 0.53646 0.0
O53 O 0.62336 1.05422 0.53116 0.0
O54 O 0.75709 0.15981 0.49705 0.0
O55 O 0.75686 0.1434 0.52617 0.0
O56 O 0.68071 0.16031 0.50578 0.0
O57 O 0.61382 0.11821 0.51016 0.0
O58 O 0.62978 0.08541 0.47467 0.0
O59 O 0.69159 0.0924 0.47909 0.0
C60 C 0.66676 1.02351 0.50917 0.0
O61 O 0.54992 1.03968 0.51155 0.0
O62 O 0.5595 1.0151 0.48472 0.0
C63 C 0.64852 0.08408 0.54299 0.0
C64 C 0.7958 0.2115 0.52009 0.0
C65 C 0.81661 0.29236 0.52433 0.0
C66 C 0.83718 0.27972 0.51175 0.0
C67 C 0.82683 0.23958 0.50964 0.0
C68 C 0.77777 0.2246 0.53396 0.0
C69 C 0.78852 0.26487 0.53624 0.0
C70 C 0.777 0.16896 0.51359 0.0
C71 C 0.64459 0.15465 0.5091 0.0
H72 H 0.41789 0.91031 0.52106 0.0
H73 H 0.45913 0.97821 0.51101 0.0
H74 H 0.55551 0.9538 0.49997 0.0
H75 H 0.51455 0.8861 0.51005 0.0
H76 H 0.85984 0.30052 0.50277 0.0
H77 H 0.841 0.23004 0.49885 0.0
H78 H 0.75348 0.20342 0.54212 0.0
H79 H 0.77282 0.27377 0.54638 0.0
Tb80 Tb 0.65175 0.58607 0.83431 0.0
Tb81 Tb 0.71233 0.68051 0.84397 0.0
C82 C 0.68977 0.64345 0.80178 0.0
C83 C 0.60257 0.47483 0.83151 0.0
C84 C 0.59039 0.39942 0.84007 0.0
C85 C 0.60095 0.41289 0.82158 0.0
C86 C 0.60682 0.45013 0.81734 0.0
C87 C 0.59326 0.46203 0.85022 0.0
C88 C 0.58703 0.42449 0.85443 0.0
C89 C 0.60566 0.51252 0.82612 0.0
O90 O 0.71185 0.59146 0.83631 0.0
O91 O 0.75363 0.65737 0.84737 0.0
O92 O 0.68614 0.65563 0.87084 0.0
O93 O 0.67249 0.5915 0.86386 0.0
O94 O 0.73504 0.73845 0.83504 0.0
O95 O 0.7536 0.72883 0.86266 0.0
O96 O 0.65238 0.67419 0.83981 0.0
O97 O 0.6118 0.608 0.84446 0.0
O98 O 0.65584 0.61605 0.80813 0.0
O99 O 0.7199 0.66641 0.81404 0.0
C100 C 0.74746 0.62107 0.84293 0.0
O101 O 0.59911 0.53346 0.83945 0.0
O102 O 0.63592 0.53494 0.81588 0.0
C103 C 0.67954 0.62108 0.87639 0.0
C104 C 0.73744 0.78032 0.86119 0.0
C105 C 0.69016 0.81471 0.87209 0.0
C106 C 0.69215 0.78668 0.88336 0.0
C107 C 0.71531 0.76938 0.87788 0.0
C108 C 0.73867 0.8111 0.85106 0.0
C109 C 0.71509 0.82796 0.85635 0.0
C110 C 0.75178 0.75465 0.85204 0.0
C111 C 0.61696 0.6441 0.84346 0.0
H112 H 0.6029 0.39387 0.81009 0.0
H113 H 0.61364 0.45917 0.8028 0.0
H114 H 0.58986 0.48051 0.86149 0.0
H115 H 0.57888 0.41475 0.86877 0.0
H116 H 0.67405 0.77637 0.89579 0.0
H117 H 0.71365 0.74558 0.88601 0.0
H118 H 0.75523 0.81977 0.83807 0.0
H119 H 0.71412 0.84901 0.84707 0.0
C120 C 0.73803 0.22185 0.20696 0.0
C121 C 0.77762 0.23102 0.21214 0.0
C122 C 0.80673 0.2992 0.20085 0.0
C123 C 0.81129 0.26902 0.20921 0.0
C124 C 0.76697 0.28935 0.19552 0.0
C125 C 0.73363 0.25182 0.19857 0.0
U126 U 0.6512 0.12197 0.22871 0.0
O127 O 0.5868 0.08961 0.21859 0.0
O128 O 0.62258 1.0601 0.21505 0.0
C129 C 0.58703 1.05689 0.21244 0.0
C130 C 0.70138 0.18056 0.20762 0.0
C131 C 0.54931 1.01649 0.21332 0.0
C132 C 0.47698 0.97286 0.20456 0.0
C133 C 0.51156 1.01128 0.20736 0.0
C134 C 0.51625 0.94332 0.21418 0.0
C135 C 0.47869 0.93783 0.20745 0.0
C136 C 0.5508 0.98171 0.21693 0.0
C137 C 0.65612 0.11481 0.28579 0.0
C138 C 0.66254 0.07615 0.31078 0.0
C139 C 0.64589 0.12743 0.31955 0.0
C140 C 0.64653 0.13557 0.30011 0.0
C141 C 0.65523 0.0985 0.32528 0.0
C142 C 0.66311 0.08425 0.29135 0.0
C143 C 0.66637 0.13063 0.26634 0.0
O144 O 0.70582 0.15008 0.21161 0.0
O145 O 0.66842 0.17783 0.21447 0.0
O146 O 0.64392 0.14284 0.25792 0.0
O147 O 0.68078 0.11426 0.25409 0.0
H148 H 0.78271 0.20872 0.21829 0.0
H149 H 0.84091 0.27474 0.21365 0.0
H150 H 0.76125 0.31038 0.18848 0.0
H151 H 0.70405 0.24586 0.19382 0.0
H152 H 0.44927 0.97066 0.19926 0.0
H153 H 0.50904 1.03701 0.20403 0.0
H154 H 0.51935 0.91775 0.2171 0.0
H155 H 0.57903 0.98393 0.22133 0.0
H156 H 0.66913 1.05311 0.31451 0.0
H157 H 0.6404 0.1455 0.33021 0.0
H158 H 0.6417 0.15978 0.29642 0.0
H159 H 0.67091 0.06775 0.28084 0.0
C160 C 0.65526 0.69278 0.54514 0.0
C161 C 0.68662 0.72797 0.55459 0.0
C162 C 0.66303 0.77003 0.53988 0.0
C163 C 0.69024 0.76571 0.55213 0.0
C164 C 0.63075 0.73447 0.53106 0.0
C165 C 0.62705 0.69671 0.53361 0.0
U166 U 0.65551 0.59261 0.56051 0.0
O167 O 0.62135 0.53382 0.54403 0.0
O168 O 0.6868 0.56514 0.5446 0.0
C169 C 0.6534 0.53222 0.53893 0.0
C170 C 0.65453 0.65315 0.5445 0.0
C171 C 0.65244 0.49256 0.53921 0.0
C172 C 0.6759 0.44736 0.52604 0.0
C173 C 0.67957 0.4857 0.52839 0.0
C174 C 0.61844 0.42153 0.54574 0.0
C175 C 0.64466 0.41415 0.53431 0.0
C176 C 0.62213 0.45983 0.54808 0.0
C177 C 0.66003 0.60393 0.61851 0.0
C178 C 0.64498 0.58701 0.65178 0.0
C179 C 0.69168 0.65513 0.64516 0.0
C180 C 0.686 0.64386 0.62527 0.0
C181 C 0.67201 0.62665 0.65881 0.0
C182 C 0.63905 0.57594 0.63198 0.0
C183 C 0.65811 0.58883 0.59816 0.0
O184 O 0.68752 0.65249 0.54916 0.0
O185 O 0.62184 0.62057 0.5487 0.0
O186 O 0.62428 0.57402 0.58776 0.0
O187 O 0.69029 0.6066 0.58807 0.0
H188 H 0.70915 0.72658 0.5635 0.0
H189 H 0.71506 0.79172 0.5597 0.0
H190 H 0.60917 0.73579 0.52142 0.0
H191 H 0.6028 0.67051 0.52583 0.0
H192 H 0.69668 0.44351 0.51704 0.0
H193 H 0.70302 0.50988 0.52112 0.0
H194 H 0.59445 0.39746 0.55281 0.0
H195 H 0.6005 0.4635 0.55649 0.0
H196 H 0.62962 0.56386 0.66157 0.0
H197 H 0.7121 0.68614 0.64981 0.0
H198 H 0.70276 0.66612 0.61526 0.0
H199 H 0.61929 0.54481 0.6272 0.0
C200 C 1.07529 0.61634 0.88027 0.0
C201 C 1.06744 0.64693 0.88692 0.0
C202 C 0.99739 0.60893 0.87359 0.0
C203 C 1.0291 0.64319 0.88373 0.0
C204 C 1.00573 0.57861 0.86699 0.0
C205 C 1.04364 0.5822 0.87032 0.0
U206 U 0.18249 0.62769 0.89742 0.0
O207 O 0.21256 0.59958 0.88116 0.0
O208 O 0.23834 0.66443 0.88242 0.0
C209 C 0.24221 0.63376 0.87625 0.0
C210 C 0.11691 0.62136 0.88046 0.0
C211 C 0.28401 0.6395 0.87538 0.0
C212 C 0.34975 0.67368 0.86105 0.0
C213 C 0.3117 0.66928 0.86418 0.0
C214 C 0.33438 0.61855 0.88038 0.0
C215 C 0.36224 0.64864 0.86913 0.0
C216 C 0.29583 0.61395 0.8834 0.0
C217 C 0.17251 0.62811 0.95437 0.0
C218 C 0.14465 0.59351 0.98351 0.0
C219 C 0.17012 0.6646 0.98374 0.0
C220 C 0.17983 0.66391 0.96443 0.0
C221 C 0.15282 0.62953 0.99371 0.0
C222 C 0.15448 0.59286 0.96416 0.0
C223 C 0.19002 0.62879 0.93525 0.0
O224 O 0.14821 0.65566 0.88674 0.0
O225 O 0.12149 0.59055 0.88356 0.0
O226 O 0.17403 0.59575 0.92383 0.0
O227 O 0.20285 0.66114 0.92581 0.0
H228 H 1.09113 0.67416 0.89428 0.0
H229 H 1.02444 0.66729 0.88924 0.0
H230 H 0.98328 0.55218 0.85861 0.0
H231 H 1.04862 0.55853 0.8644 0.0
H232 H 0.36906 0.69647 0.85181 0.0
H233 H 0.30347 0.68886 0.85733 0.0
H234 H 0.34236 0.59862 0.887 0.0
H235 H 0.27522 0.59018 0.89186 0.0
H236 H 0.13099 0.56577 0.99052 0.0
H237 H 0.17772 0.69315 0.99104 0.0
H238 H 0.19461 0.6919 0.95765 0.0
H239 H 0.14915 0.56485 0.95706 0.0
C240 C 1.00184 0.6022 0.47519 0.0
C241 C 0.96632 0.58624 0.46366 0.0
C242 C 0.92727 0.55817 0.49166 0.0
C243 C 0.92915 0.56486 0.47191 0.0
C244 C 0.96285 0.57887 0.50338 0.0
C245 C 0.99982 0.6007 0.49517 0.0
U246 U 1.066 0.60354 0.4331 0.0
O247 O 0.12927 0.64529 0.42811 0.0
O248 O 0.11006 0.58289 0.43321 0.0
C249 C 0.14039 0.6191 0.43191 0.0
C250 C 1.04003 0.61184 0.46675 0.0
C251 C 0.172 0.63232 0.44715 0.0
C252 C 0.20236 0.66824 0.47796 0.0
C253 C 0.17176 0.65466 0.46369 0.0
C254 C 0.23244 0.63502 0.45993 0.0
C255 C 0.23353 0.65922 0.47612 0.0
C256 C 0.20194 0.62181 0.44552 0.0
C257 C 1.02984 0.57222 0.38132 0.0
C258 C 1.04192 0.59496 0.34903 0.0
C259 C 1.05739 0.54422 0.35788 0.0
C260 C 1.04399 0.54572 0.37631 0.0
C261 C 1.05726 0.56939 0.34412 0.0
C262 C 1.02815 0.59615 0.36737 0.0
C263 C 1.02066 0.57829 0.40137 0.0
O264 O 1.04228 0.58021 0.46071 0.0
O265 O 1.05463 0.64037 0.45479 0.0
O266 O 1.03889 0.61584 0.40832 0.0
O267 O 1.02104 0.55387 0.41367 0.0
H268 H 0.96743 0.58728 0.44816 0.0
H269 H 0.90225 0.55029 0.46253 0.0
H270 H 0.963 0.57461 0.51859 0.0
H271 H 1.02705 0.61291 0.50426 0.0
H272 H 0.20245 0.68736 0.48997 0.0
H273 H 0.1484 0.66245 0.46538 0.0
H274 H 0.25565 0.62709 0.45818 0.0
H275 H 0.20204 0.60386 0.433 0.0
H276 H 1.04185 0.61522 0.33895 0.0
H277 H 1.06828 0.52364 0.3545 0.0
H278 H 1.04574 0.52684 0.38673 0.0
H279 H 1.01758 0.61696 0.37088 0.0
C280 C 0.48242 0.92686 0.79882 0.0
C281 C 0.50671 0.9113 0.79243 0.0
C282 C 0.50533 0.88668 0.82383 0.0
C283 C 0.51828 0.8915 0.80492 0.0
C284 C 0.47823 0.89915 0.82966 0.0
C285 C 0.467 0.91941 0.8172 0.0
U286 U 0.49546 0.98384 0.75376 0.0
O287 O 0.46367 1.0151 0.74481 0.0
O288 O 0.52852 1.04866 0.75204 0.0
C289 C 0.49587 1.05044 0.74839 0.0
C290 C 0.47928 0.9567 0.78805 0.0
C291 C 0.49194 0.0787 0.76181 0.0
C292 C 0.48373 0.09741 0.79462 0.0
C293 C 0.47852 0.06804 0.78036 0.0
C294 C 0.51426 0.14787 0.77165 0.0
C295 C 0.50295 0.13772 0.79052 0.0
C296 C 0.50881 0.11854 0.7574 0.0
C297 C 0.5348 0.96813 0.70761 0.0
C298 C 0.55863 1.02281 0.68674 0.0
C299 C 0.56289 0.96374 0.67714 0.0
C300 C 0.54552 0.94693 0.69423 0.0
C301 C 0.57014 1.00213 0.6734 0.0
C302 C 0.54102 1.00591 0.70363 0.0
C303 C 0.51929 0.95256 0.72624 0.0
O304 O 0.5141 0.98651 0.7838 0.0
O305 O 0.45203 0.94347 0.77376 0.0
O306 O 0.4812 0.94134 0.7284 0.0
O307 O 0.54273 0.97493 0.74108 0.0
H308 H 0.519 0.91695 0.7783 0.0
H309 H 0.53916 0.88194 0.80019 0.0
H310 H 0.46815 0.89584 0.84424 0.0
H311 H 0.44844 0.93153 0.82237 0.0
H312 H 0.47484 0.08895 0.80907 0.0
H313 H 0.46612 1.03741 0.78407 0.0
H314 H 0.52859 0.17874 0.76808 0.0
H315 H 0.5198 0.12727 0.74323 0.0
H316 H 0.56321 1.0521 0.68409 0.0
H317 H 0.57156 0.9472 0.6671 0.0
H318 H 0.54104 0.91779 0.69713 0.0
H319 H 0.53281 1.02266 0.71379 0.0
C320 C 0.63393 0.45278 0.13103 0.0
C321 C 0.67234 0.45952 0.12685 0.0
C322 C 0.69673 0.48869 0.15951 0.0
C323 C 0.70345 0.47712 0.14103 0.0
C324 C 0.65789 0.48063 0.1638 0.0
C325 C 0.62669 0.46268 0.14966 0.0
U326 U 0.60053 0.44722 0.07863 0.0
O327 O 0.54599 0.40132 0.06212 0.0
O328 O 0.55708 0.46267 0.06705 0.0
C329 C 0.53103 0.42542 0.06142 0.0
C330 C 0.60243 0.43978 0.11575 0.0
C331 C 0.49166 0.41179 0.06956 0.0
C332 C 0.45121 0.39029 0.09759 0.0
C333 C 0.48271 0.3927 0.08685 0.0
C334 C 0.43585 0.42387 0.07332 0.0
C335 C 0.42883 0.40758 0.09132 0.0
C336 C 0.467 0.42583 0.06248 0.0
C337 C 0.67421 0.49707 0.04047 0.0
C338 C 0.64858 0.49705 1.0084 0.0
C339 C 0.71557 0.5487 0.01952 0.0
C340 C 0.71054 0.53118 0.03701 0.0
C341 C 0.68432 0.53229 1.00519 0.0
C342 C 0.64346 0.47973 0.02595 0.0
C343 C 0.66664 0.48348 0.06002 0.0
O344 O 0.60036 0.46922 0.10835 0.0
O345 O 0.59929 0.41218 0.10272 0.0
O346 O 0.64704 0.44454 0.06143 0.0
O347 O 0.65331 0.50254 0.07114 0.0
H348 H 0.67864 0.45262 0.11246 0.0
H349 H 0.73324 0.48356 0.13722 0.0
H350 H 0.65192 0.48915 0.17793 0.0
H351 H 0.59724 0.45792 0.15306 0.0
H352 H 0.44647 0.37786 0.11149 0.0
H353 H 0.50187 0.38233 0.09276 0.0
H354 H 0.41875 0.4372 0.06819 0.0
H355 H 0.47378 0.44111 0.04931 0.0
H356 H 0.62383 0.48398 0.99772 0.0
H357 H 0.74358 0.57562 0.01736 0.0
H358 H 0.73441 0.54521 0.04814 0.0
H359 H 0.61488 0.4538 0.02849 0.0
H360 H 0.34666 0.53704 0.14461 0.0
H361 H 0.24976 0.42692 0.1639 0.0
H362 H 0.28334 0.3905 0.15151 0.0
H363 H 0.35243 0.49608 0.1008 0.0
H364 H 0.40615 0.52571 0.09943 0.0
H365 H 0.37959 0.54491 0.11342 0.0
H366 H 0.4247 0.55536 0.14369 0.0
H367 H 0.45195 0.53678 0.1297 0.0
H368 H 0.42936 0.51406 0.15143 0.0
H369 H 0.32325 0.36445 0.13324 0.0
H370 H 0.36655 0.35194 0.11101 0.0
H371 H 0.43336 0.47822 0.10188 0.0
C372 C 0.33281 0.50541 0.14659 0.0
C373 C 0.29561 0.48498 0.1553 0.0
C374 C 0.27866 0.44354 0.15764 0.0
C375 C 0.29739 0.42246 0.15052 0.0
C376 C 0.33303 0.44324 0.14113 0.0
C377 C 0.35072 0.4839 0.13931 0.0
C378 C 0.38659 0.49859 0.12687 0.0
C379 C 0.38081 0.51741 0.10908 0.0
C380 C 0.42545 0.52793 0.13863 0.0
C381 C 0.38541 0.45963 0.12136 0.0
C382 C 0.35489 0.42809 0.13001 0.0
C383 C 0.34745 0.38899 0.12652 0.0
C384 C 0.37194 0.3821 0.11386 0.0
C385 C 0.40268 0.41405 0.10462 0.0
C386 C 0.40957 0.4532 0.10857 0.0
H387 H 0.82001 0.32947 0.49199 0.0
H388 H 0.82345 0.34594 0.55419 0.0
H389 H 0.83498 0.4145 0.5516 0.0
H390 H 0.90028 0.41879 0.48553 0.0
H391 H 0.88169 0.42642 0.46319 0.0
H392 H 0.86394 0.37669 0.47011 0.0
H393 H 0.78997 0.36268 0.46747 0.0
H394 H 0.80886 0.4127 0.46017 0.0
H395 H 0.77721 0.39643 0.48034 0.0
H396 H 0.8578 0.48436 0.54233 0.0
H397 H 0.89679 0.54897 0.52803 0.0
H398 H 0.88032 0.48593 0.47209 0.0
C399 C 0.82275 0.34734 0.50509 0.0
C400 C 0.82128 0.33265 0.52329 0.0
C401 C 0.82443 0.35667 0.54008 0.0
C402 C 0.83061 0.39547 0.53872 0.0
C403 C 0.83296 0.40943 0.52047 0.0
C404 C 0.82902 0.38588 0.50395 0.0
C405 C 0.83893 0.40926 0.48628 0.0
C406 C 0.87325 0.40773 0.47569 0.0
C407 C 0.8015 0.39435 0.47278 0.0
C408 C 0.85189 0.45046 0.49551 0.0
C409 C 0.84685 0.44985 0.51514 0.0
C410 C 0.86125 0.48507 0.52694 0.0
C411 C 0.88354 0.5217 0.51869 0.0
C412 C 0.89209 0.52273 0.49892 0.0
C413 C 0.87375 0.48661 0.48711 0.0
H414 H 0.69435 0.88624 0.86613 0.0
H415 H 0.61283 0.76681 0.88281 0.0
H416 H 0.55622 0.77891 0.87891 0.0
H417 H 0.63422 0.93588 0.88327 0.0
H418 H 0.64673 0.96404 0.86224 0.0
H419 H 0.682 0.95171 0.87276 0.0
H420 H 0.68481 0.91882 0.83974 0.0
H421 H 0.64925 0.93035 0.82922 0.0
H422 H 0.63891 0.87936 0.82799 0.0
H423 H 0.50674 0.79722 0.86569 0.0
H424 H 0.47079 0.82061 0.84483 0.0
H425 H 0.584 0.92494 0.83424 0.0
C426 C 0.66476 0.863 0.8695 0.0
C427 C 0.65828 0.82559 0.87472 0.0
C428 C 0.61902 0.7961 0.87913 0.0
C429 C 0.58641 0.80259 0.87681 0.0
C430 C 0.59346 0.83865 0.87008 0.0
C431 C 0.63188 0.86862 0.86674 0.0
C432 C 0.63114 0.90162 0.85643 0.0
C433 C 0.64961 0.94062 0.86946 0.0
C434 C 0.65224 0.90784 0.83722 0.0
C435 C 0.58639 0.88418 0.85324 0.0
C436 C 0.56497 0.84854 0.86177 0.0
C437 C 0.5232 0.8254 0.85923 0.0
C438 C 0.50303 0.83872 0.84737 0.0
C439 C 0.52494 0.87428 0.838 0.0
C440 C 0.56682 0.89762 0.84136 0.0
H441 H 0.9198 0.57014 0.19512 0.0
H442 H 0.92349 0.68127 0.21312 0.0
H443 H 0.84933 0.64696 0.20975 0.0
H444 H 0.85218 0.54208 0.15901 0.0
H445 H 0.82583 0.48914 0.16194 0.0
H446 H 0.87728 0.5192 0.17045 0.0
H447 H 0.85878 0.4965 0.20528 0.0
H448 H 0.80769 0.46447 0.196 0.0
H449 H 0.8184 0.49999 0.21629 0.0
H450 H 0.77721 0.60414 0.1989 0.0
H451 H 0.71403 0.55773 0.18043 0.0
H452 H 0.75776 0.47475 0.16912 0.0
C453 C 0.90493 0.58684 0.19925 0.0
C454 C 0.92725 0.6282 0.20464 0.0
C455 C 0.90682 0.64947 0.20908 0.0
C456 C 0.86475 0.63016 0.20733 0.0
C457 C 0.84368 0.58959 0.20125 0.0
C458 C 0.86314 0.56811 0.19743 0.0
C459 C 0.83455 0.52653 0.18852 0.0
C460 C 0.84829 0.51884 0.16882 0.0
C461 C 0.82952 0.49496 0.20234 0.0
C462 C 0.79658 0.52894 0.18653 0.0
C463 C 0.80204 0.565 0.19457 0.0
C464 C 0.77226 0.57545 0.19298 0.0
C465 C 0.73645 0.54887 0.18249 0.0
C466 C 0.73107 0.51263 0.17346 0.0
C467 C 0.76109 0.50216 0.176 0.0
H468 H 0.45067 0.83063 0.4922 0.0
H469 H 0.4121 0.86053 0.54562 0.0
H470 H 0.35539 0.79132 0.54519 0.0
H471 H 0.36372 0.78629 0.4701 0.0
H472 H 0.3674 0.74732 0.45634 0.0
H473 H 0.4121 0.7925 0.46438 0.0
H474 H 0.43864 0.75193 0.48165 0.0
H475 H 0.39368 0.70619 0.47351 0.0
H476 H 0.40828 0.71734 0.4988 0.0
H477 H 0.29539 0.72673 0.53501 0.0
H478 H 0.23624 0.67618 0.51529 0.0
H479 H 0.3119 0.69035 0.46731 0.0
C480 C 0.43157 0.82184 0.50435 0.0
C481 C 0.43589 0.85045 0.51908 0.0
C482 C 0.40935 0.83872 0.53432 0.0
C483 C 0.3773 0.79941 0.53424 0.0
C484 C 0.37233 0.77233 0.51883 0.0
C485 C 0.39905 0.78304 0.5042 0.0
C486 C 0.38276 0.75207 0.48726 0.0
C487 C 0.38137 0.77067 0.46845 0.0
C488 C 0.4073 0.7306 0.4852 0.0
C489 C 0.34119 0.7243 0.49381 0.0
C490 C 0.33639 0.73532 0.51242 0.0
C491 C 0.29905 0.71731 0.52061 0.0
C492 C 0.26551 0.68889 0.50921 0.0
C493 C 0.26936 0.67957 0.48966 0.0
C494 C 0.30802 0.69604 0.4823 0.0
H495 H 0.63 0.36005 0.82925 0.0
H496 H 0.52352 0.3446 0.85708 0.0
H497 H 0.49506 0.27151 0.85394 0.0
H498 H 0.58375 0.29318 0.794 0.0
H499 H 0.61734 0.27332 0.79165 0.0
H500 H 0.63583 0.32314 0.80211 0.0
H501 H 0.6608 0.30632 0.83301 0.0
H502 H 0.64305 0.25628 0.82249 0.0
H503 H 0.6265 0.26393 0.84564 0.0
H504 H 0.47073 0.20224 0.83994 0.0
H505 H 0.45425 0.1436 0.81741 0.0
H506 H 0.57566 0.204 0.79793 0.0
C507 C 0.60149 0.3412 0.83544 0.0
C508 C 0.57894 0.35774 0.84339 0.0
C509 C 0.54154 0.33247 0.85119 0.0
C510 C 0.52512 0.29088 0.84944 0.0
C511 C 0.5468 0.27523 0.84013 0.0
C512 C 0.58467 0.29975 0.83361 0.0
C513 C 0.59882 0.27623 0.82114 0.0
C514 C 0.6095 0.29243 0.80105 0.0
C515 C 0.63439 0.27565 0.83118 0.0
C516 C 0.5616 0.23545 0.82014 0.0
C517 C 0.53239 0.23499 0.83172 0.0
C518 C 0.49375 0.20187 0.83128 0.0
C519 C 0.48456 0.16881 0.81841 0.0
C520 C 0.51369 0.16966 0.80596 0.0
C521 C 0.55291 0.20281 0.80734 0.0
H522 H 0.60925 0.94226 0.51233 0.0
H523 H 0.73782 1.02436 0.51494 0.0
H524 H 0.74973 0.96963 0.52268 0.0
H525 H 0.61 0.88613 0.55205 0.0
H526 H 0.57152 0.8383 0.54142 0.0
H527 H 0.57228 0.88337 0.53535 0.0
H528 H 0.57385 0.86494 0.49929 0.0
H529 H 0.57297 0.81971 0.50518 0.0
H530 H 0.61253 0.85481 0.49117 0.0
H531 H 0.74881 0.9063 0.53045 0.0
H532 H 0.73535 0.83947 0.53762 0.0
H533 H 0.6071 0.79551 0.53128 0.0
C534 C 0.63993 0.94868 0.51428 0.0
C535 C 0.67259 0.98828 0.5128 0.0
C536 C 0.71213 0.99484 0.51589 0.0
C537 C 0.71928 0.96371 0.52032 0.0
C538 C 0.68671 0.92544 0.52183 0.0
C539 C 0.64773 0.91765 0.51891 0.0
C540 C 0.6183 0.87366 0.52188 0.0
C541 C 0.59143 0.87017 0.53867 0.0
C542 C 0.59291 0.852 0.50327 0.0
C543 C 0.64686 0.85808 0.5268 0.0
C544 C 0.68616 0.8887 0.52667 0.0
C545 C 0.71808 0.88222 0.53072 0.0
C546 C 0.70998 0.8438 0.53501 0.0
C547 C 0.67006 0.8113 0.53545 0.0
C548 C 0.63808 0.81904 0.53112 0.0
H549 H 0.82985 0.6743 0.85027 0.0
H550 H 0.7419 0.54769 0.84442 0.0
H551 H 0.79504 0.53188 0.85222 0.0
H552 H 0.9111 0.66419 0.82874 0.0
H553 H 0.94995 0.70305 0.84465 0.0
H554 H 0.90506 0.70487 0.83878 0.0
H555 H 0.89269 0.70902 0.87503 0.0
H556 H 0.9374 0.70695 0.88101 0.0
H557 H 0.88986 0.67098 0.88979 0.0
H558 H 0.85718 0.52926 0.86222 0.0
H559 H 0.92388 0.53923 0.8707 0.0
H560 H 0.97502 0.66744 0.8681 0.0
C561 C 0.82174 0.64321 0.85054 0.0
C562 C 0.78113 0.61227 0.84664 0.0
C563 C 0.77237 0.57208 0.84717 0.0
C564 C 0.80251 0.56274 0.85171 0.0
C565 C 0.84191 0.59376 0.85558 0.0
C566 C 0.8518 0.63322 0.85482 0.0
C567 C 0.89689 0.66066 0.85917 0.0
C568 C 0.91694 0.68461 0.8418 0.0
C569 C 0.90466 0.68856 0.87733 0.0
C570 C 0.9107 0.6305 0.86261 0.0
C571 C 0.87825 0.59213 0.8606 0.0
C572 C 0.88284 0.55918 0.86348 0.0
C573 C 0.92137 0.56528 0.86817 0.0
C574 C 0.95592 0.60413 0.86973 0.0
C575 C 0.94989 0.63722 0.86709 0.0
H576 H 0.24323 0.76132 0.19311 0.0
H577 H 0.28661 0.6823 0.172 0.0
H578 H 0.35635 0.73775 0.17708 0.0
H579 H 0.31891 0.85016 0.17172 0.0
H580 H 0.32386 0.8842 0.19177 0.0
H581 H 0.277 0.83839 0.18664 0.0
H582 H 0.27927 0.81884 0.22131 0.0
H583 H 0.32613 0.86459 0.22655 0.0
H584 H 0.32274 0.81721 0.23015 0.0
H585 H 0.4227 0.80244 0.18441 0.0
H586 H 0.47919 0.87 0.1929 0.0
H587 H 0.39526 0.90947 0.20986 0.0
C588 C 0.26733 0.75556 0.18953 0.0
C589 C 0.25861 0.71667 0.18207 0.0
C590 C 0.29167 0.7112 0.17767 0.0
C591 C 0.33174 0.74278 0.18054 0.0
C592 C 0.33917 0.78042 0.18787 0.0
C593 C 0.30788 0.78704 0.19229 0.0
C594 C 0.32447 0.83062 0.19994 0.0
C595 C 0.3102 0.85211 0.18673 0.0
C596 C 0.31243 0.83294 0.22072 0.0
C597 C 0.36985 0.84742 0.19912 0.0
C598 C 0.3775 0.81776 0.19213 0.0
C599 C 0.41685 0.82569 0.19001 0.0
C600 C 0.44908 0.86453 0.19511 0.0
C601 C 0.44271 0.89601 0.20243 0.0
C602 C 0.40197 0.88679 0.20431 0.0
H603 H 0.70097 0.23726 0.51396 0.0
H604 H 0.57273 0.15344 0.51149 0.0
H605 H 0.5597 0.20941 0.51719 0.0
H606 H 0.69886 0.30496 0.55214 0.0
H607 H 0.73693 0.34982 0.54238 0.0
H608 H 0.73669 0.30341 0.53773 0.0
H609 H 0.73479 0.30993 0.50101 0.0
H610 H 0.73581 0.35675 0.50596 0.0
H611 H 0.69622 0.31754 0.49047 0.0
H612 H 0.55963 0.27466 0.52358 0.0
H613 H 0.57253 0.34339 0.52992 0.0
H614 H 0.70085 0.38765 0.52894 0.0
C615 C 0.6701 0.23062 0.51448 0.0
C616 C 0.63788 0.19019 0.51212 0.0
C617 C 0.59811 0.18353 0.51317 0.0
C618 C 0.59031 0.21538 0.51642 0.0
C619 C 0.62246 0.25451 0.51872 0.0
C620 C 0.66164 0.26238 0.51782 0.0
C621 C 0.6905 0.30748 0.52118 0.0
C622 C 0.71734 0.317 0.53947 0.0
C623 C 0.71583 0.32389 0.50359 0.0
C624 C 0.66152 0.32358 0.52387 0.0
C625 C 0.6224 0.29232 0.52249 0.0
C626 C 0.59024 0.29925 0.52477 0.0
C627 C 0.59802 0.33877 0.52859 0.0
C628 C 0.63781 0.37187 0.53026 0.0
C629 C 0.66996 0.36365 0.5277 0.0
H630 H 0.53693 0.58985 0.85097 0.0
H631 H 0.61772 0.71564 0.84382 0.0
H632 H 0.56245 0.72943 0.84963 0.0
H633 H 0.44837 0.58455 0.82792 0.0
H634 H 0.41382 0.55084 0.84425 0.0
H635 H 0.45949 0.55022 0.83934 0.0
H636 H 0.47887 0.56182 0.87579 0.0
H637 H 0.43334 0.56265 0.8808 0.0
H638 H 0.48128 0.60425 0.88932 0.0
H639 H 0.499 0.73066 0.85712 0.0
H640 H 0.43217 0.71952 0.86469 0.0
H641 H 0.38907 0.59234 0.86618 0.0
C642 C 0.54308 0.62034 0.85062 0.0
C643 C 0.58226 0.65158 0.84681 0.0
C644 C 0.58844 0.69097 0.84657 0.0
C645 C 0.55708 0.69922 0.84998 0.0
C646 C 0.51917 0.66798 0.85378 0.0
C647 C 0.51188 0.62924 0.85405 0.0
C648 C 0.468 0.60126 0.85838 0.0
C649 C 0.44613 0.56985 0.84146 0.0
C650 C 0.46522 0.58131 0.87719 0.0
C651 C 0.45189 0.63033 0.86057 0.0
C652 C 0.48214 0.66864 0.85786 0.0
C653 C 0.47513 0.70077 0.85922 0.0
C654 C 0.43648 0.69387 0.86333 0.0
C655 C 0.40411 0.65482 0.86579 0.0
C656 C 0.41255 0.62268 0.86453 0.0
H657 H 1.03529 0.46995 0.17771 0.0
H658 H 0.9921 0.55476 0.18026 0.0
H659 H 0.92485 0.50084 0.18746 0.0
H660 H 0.94333 0.38562 0.15498 0.0
H661 H 0.9466 0.34871 0.16837 0.0
H662 H 0.99166 0.3938 0.16334 0.0
H663 H 1.0117 0.40909 0.19971 0.0
H664 H 0.96658 0.36417 0.20486 0.0
H665 H 0.97724 0.41173 0.21626 0.0
H666 H 0.86164 0.43765 0.19513 0.0
H667 H 0.80755 0.37128 0.20187 0.0
H668 H 0.88807 0.32357 0.1932 0.0
C669 C 1.01166 0.47722 0.17963 0.0
C670 C 1.01971 0.5173 0.1782 0.0
C671 C 0.98741 0.52484 0.181 0.0
C672 C 0.9488 0.49417 0.18519 0.0
C673 C 0.94202 0.45534 0.18652 0.0
C674 C 0.97247 0.44662 0.18371 0.0
C675 C 0.95672 0.40207 0.18592 0.0
C676 C 0.95976 0.38132 0.16703 0.0
C677 C 0.97942 0.39644 0.20268 0.0
C678 C 0.91277 0.38716 0.19044 0.0
C679 C 0.90523 0.41863 0.19075 0.0
C680 C 0.86731 0.41289 0.19477 0.0
C681 C 0.83631 0.37441 0.19839 0.0
C682 C 0.84221 0.34077 0.19778 0.0
C683 C 0.88169 0.34791 0.19389 0.0
H684 H 0.14775 0.58167 0.10541 0.0
H685 H 0.11715 0.6745 0.1178 0.0
H686 H 0.11526 0.68336 0.08312 0.0
H687 H 0.21397 0.63049 0.06778 0.0
H688 H 0.19992 0.58513 0.05309 0.0
H689 H 0.19633 0.58394 0.07881 0.0
H690 H 0.12128 0.52972 0.0743 0.0
H691 H 0.12462 0.53082 0.04854 0.0
H692 H 1.08753 0.53917 0.06022 0.0
H693 H 0.11712 0.68297 0.04716 0.0
H694 H 0.12639 0.67619 0.01254 0.0
H695 H 0.1599 0.58645 0.02281 0.0
C696 C 0.14019 0.60351 0.10078 0.0
C697 C 0.13231 0.62721 0.11442 0.0
C698 C 0.1233 0.65598 0.10773 0.0
C699 C 0.12201 0.66116 0.088 0.0
C700 C 0.13018 0.63765 0.07497 0.0
C701 C 0.13938 0.60956 0.08103 0.0
C702 C 0.149 0.58976 0.06397 0.0
C703 C 0.19238 0.59783 0.06604 0.0
C704 C 0.1188 0.54469 0.06162 0.0
C705 C 0.14385 0.6112 0.04745 0.0
C706 C 0.13262 0.63841 0.05416 0.0
C707 C 0.12617 0.66193 0.04176 0.0
C708 C 0.13185 0.65803 0.02205 0.0
C709 C 0.14436 0.6311 0.0147 0.0
C710 C 0.14997 0.60708 0.02773 0.0
H711 H 0.615 0.09491 0.43895 0.0
H712 H 0.72094 0.08348 0.4476 0.0
H713 H 0.72907 0.08291 0.41255 0.0
H714 H 0.57699 1.0317 0.39448 0.0
H715 H 0.56019 1.06248 0.38367 0.0
H716 H 0.56188 1.06113 0.40946 0.0
H717 H 0.60714 0.1381 0.41312 0.0
H718 H 0.60556 0.13969 0.38735 0.0
H719 H 0.65322 0.16136 0.40062 0.0
H720 H 0.72597 0.08338 0.37648 0.0
H721 H 0.71382 0.08793 0.34217 0.0
H722 H 0.61042 0.10024 0.35618 0.0
C723 C 0.63984 0.09214 0.43348 0.0
C724 C 0.66726 0.08908 0.44619 0.0
C725 C 0.6995 0.08587 0.43832 0.0
C726 C 0.70435 0.08543 0.41835 0.0
C727 C 0.67688 0.08848 0.40627 0.0
C728 C 0.64536 0.09201 0.41351 0.0
C729 C 0.62074 0.09584 0.39731 0.0
C730 C 0.57738 1.06069 0.39617 0.0
C731 C 0.62174 0.13615 0.39975 0.0
C732 C 0.64335 0.09392 0.37986 0.0
C733 C 0.67546 0.08939 0.38541 0.0
C734 C 0.70081 0.08678 0.37198 0.0
C735 C 0.6934 0.08908 0.35243 0.0
C736 C 0.66091 0.0941 0.34623 0.0
C737 C 0.6356 0.09654 0.3603 0.0
H738 H 0.63256 0.60288 0.77196 0.0
H739 H 0.75717 0.69467 0.78346 0.0
H740 H 0.76544 0.70185 0.74858 0.0
H741 H 0.64762 0.55653 0.7293 0.0
H742 H 0.60165 0.54654 0.71696 0.0
H743 H 0.6051 0.54923 0.74286 0.0
H744 H 0.58453 0.60379 0.74445 0.0
H745 H 0.58098 0.60124 0.71854 0.0
H746 H 0.61289 0.64838 0.73196 0.0
H747 H 0.76095 0.69738 0.71212 0.0
H748 H 0.74424 0.68198 0.67732 0.0
H749 H 0.62156 0.59503 0.68921 0.0
C750 C 0.66158 0.62464 0.76718 0.0
C751 C 0.69423 0.64822 0.78063 0.0
C752 C 0.73163 0.67625 0.77361 0.0
C753 C 0.73665 0.68057 0.75375 0.0
C754 C 0.70396 0.65682 0.74093 0.0
C755 C 0.66709 0.62948 0.74737 0.0
C756 C 0.63693 0.60735 0.73053 0.0
C757 C 0.62195 0.56224 0.72988 0.0
C758 C 0.60175 0.6157 0.73143 0.0
C759 C 0.66269 0.6262 0.71362 0.0
C760 C 0.70123 0.6547 0.71996 0.0
C761 C 0.7307 0.67541 0.70703 0.0
C762 C 0.7207 0.66663 0.68717 0.0
C763 C 0.68137 0.63741 0.68015 0.0
C764 C 0.65204 0.61729 0.6938 0.0
H765 H 0.59777 1.01696 0.56062 0.0
H766 H 0.69015 0.14108 0.57269 0.0
H767 H 0.68202 0.1329 0.60761 0.0
H768 H 0.53381 1.01358 0.5976 0.0
H769 H 0.51936 0.96325 0.60297 0.0
H770 H 0.53354 0.9788 0.57909 0.0
H771 H 0.58776 0.9576 0.58075 0.0
H772 H 0.57385 0.94203 0.60466 0.0
H773 H 0.62518 0.97789 0.60035 0.0
H774 H 0.66166 0.11148 0.64113 0.0
H775 H 0.63128 0.07859 0.67067 0.0
H776 H 0.55297 0.96842 0.6363 0.0
C777 C 0.61644 1.04252 0.57055 0.0
C778 C 0.64456 0.07975 0.56392 0.0
C779 C 0.66842 0.11229 0.57745 0.0
C780 C 0.66404 0.1079 0.59729 0.0
C781 C 0.63588 0.07075 0.60329 0.0
C782 C 0.61261 1.03862 0.5903 0.0
C783 C 0.58408 1.00201 0.60037 0.0
C784 C 0.5401 0.98865 0.59467 0.0
C785 C 0.59329 0.96787 0.59629 0.0
C786 C 0.59457 1.01863 0.62113 0.0
C787 C 0.62454 1.05831 0.62252 0.0
C788 C 0.63833 0.0804 0.64021 0.0
C789 C 0.62078 1.06153 0.65687 0.0
C790 C 0.58983 1.02098 0.65574 0.0
C791 C 0.57695 0.99926 0.63762 0.0
H792 H 0.65887 0.55142 0.8931 0.0
H793 H 0.70479 0.67831 0.90657 0.0
H794 H 0.71158 0.66943 0.94098 0.0
H795 H 0.60127 0.51791 0.93548 0.0
H796 H 0.61238 0.47817 0.93804 0.0
H797 H 0.61066 0.49459 0.91455 0.0
H798 H 0.68277 0.50771 0.90933 0.0
H799 H 0.68489 0.49159 0.93283 0.0
H800 H 0.72283 0.54033 0.92658 0.0
H801 H 0.71565 0.64706 0.97373 0.0
H802 H 0.71262 0.61212 1.00278 0.0
H803 H 0.6633 0.49981 0.96786 0.0
C804 C 0.67018 0.57737 0.90327 0.0
C805 C 0.68137 0.6156 0.89713 0.0
C806 C 0.69592 0.64871 0.91093 0.0
C807 C 0.7 0.644 0.9305 0.0
C808 C 0.68918 0.60597 0.93601 0.0
C809 C 0.67423 0.57318 0.92282 0.0
C810 C 0.66464 0.53552 0.93246 0.0
C811 C 0.61956 0.50474 0.92999 0.0
C812 C 0.69032 0.51776 0.92485 0.0
C813 C 0.67671 0.55227 0.95316 0.0
C814 C 0.69099 0.59299 0.95489 0.0
C815 C 0.70446 0.61518 0.97256 0.0
C816 C 0.70291 0.59513 0.98895 0.0
C817 C 0.68784 0.5533 0.98755 0.0
C818 C 0.6747 0.53175 0.96937 0.0
H819 H 1.07868 0.60366 0.23284 0.0
H820 H 0.18564 0.59224 0.23475 0.0
H821 H 0.17557 0.5784 0.26922 0.0
H822 H 1.09354 0.65336 0.27897 0.0
H823 H 1.04083 0.62812 0.28363 0.0
H824 H 1.05648 0.63607 0.25928 0.0
H825 H 1.01308 0.56012 0.24996 0.0
H826 H 0.99722 0.55177 0.27428 0.0
H827 H 1.02038 0.52535 0.26324 0.0
H828 H 0.1541 0.56839 0.30407 0.0
H829 H 0.12393 0.56311 0.33563 0.0
H830 H 1.02974 0.57832 0.30924 0.0
C831 C 0.10022 0.59832 0.24038 0.0
C832 C 0.13315 0.59925 0.2311 0.0
C833 C 0.16026 0.59176 0.2416 0.0
C834 C 0.15472 0.58384 0.26113 0.0
C835 C 0.12182 0.58328 0.26979 0.0
C836 C 1.09504 0.59022 0.25964 0.0
C837 C 1.06228 0.58846 0.27202 0.0
C838 C 1.06338 0.62891 0.27357 0.0
C839 C 1.02079 0.55438 0.26442 0.0
C840 C 1.07484 0.57973 0.29092 0.0
C841 C 0.1092 0.57682 0.28943 0.0
C842 C 0.12698 0.57022 0.30531 0.0
C843 C 0.10941 0.56697 0.32316 0.0
C844 C 1.07431 0.57019 0.32498 0.0
C845 C 1.05674 0.57613 0.30848 0.0
loop_
_geom_bond_atom_site_label_1
_geom_bond_atom_site_label_2
_geom_bond_distance
_geom_bond_site_symmetry_2
_ccdc_geom_bond_type
Tb0 C9 2.764 1_455 S
Tb0 O10 2.325 1_455 S
Tb0 O13 2.303 . S
Tb0 O17 2.322 . S
Tb0 O18 2.349 . S
Tb0 O21 2.415 1_455 S
Tb0 O22 2.399 1_455 S
Tb1 O11 2.323 . S
Tb1 O12 2.349 . S
Tb1 O14 2.415 . S
Tb1 O15 2.399 . S
Tb1 O16 2.325 . S
Tb1 O19 2.303 . S
Tb1 C30 2.764 . S
C2 O18 1.261 . S
C2 O19 1.257 . S
C3 C6 1.358 . S
C3 C7 1.332 . S
C3 C9 1.504 . S
C4 C5 1.373 . S
C4 C8 1.308 . S
C5 C4 1.373 . S
C5 C6 1.429 . S
C5 H32 0.932 . S
C6 C3 1.358 . S
C6 C5 1.429 . S
C6 H33 0.930 . S
C7 C3 1.332 . S
C7 C8 1.394 . S
C7 H34 0.932 . S
C8 C4 1.308 . S
C8 C7 1.394 . S
C8 H35 0.929 . S
C9 Tb0 2.764 1_655 S
C9 C3 1.504 . S
C9 O21 1.239 . S
C9 O22 1.263 . S
O10 Tb0 2.325 1_655 S
O10 C20 1.236 . S
O11 Tb1 2.323 . S
O11 C20 1.257 1_455 S
O12 Tb1 2.349 . S
O12 C23 1.261 . S
O13 Tb0 2.303 . S
O13 C23 1.257 . S
O14 Tb1 2.415 . S
O14 C30 1.239 . S
O15 Tb1 2.399 . S
O15 C30 1.263 . S
O16 Tb1 2.325 . S
O16 C31 1.236 . S
O17 Tb0 2.322 . S
O17 C31 1.257 . S
O18 Tb0 2.349 . S
O18 C2 1.261 . S
O19 Tb1 2.303 . S
O19 C2 1.257 . S
C20 O10 1.236 . S
C20 O11 1.257 1_655 S
O21 Tb0 2.415 1_655 S
O21 C9 1.239 . S
O22 Tb0 2.399 1_655 S
O22 C9 1.263 . S
C23 O12 1.261 . S
C23 O13 1.257 . S
C24 C27 1.358 . S
C24 C28 1.332 . S
C24 C30 1.504 . S
C25 C26 1.373 . S
C25 C29 1.308 . S
C26 C25 1.373 . S
C26 C27 1.429 . S
C26 H36 0.932 . S
C27 C24 1.358 . S
C27 C26 1.429 . S
C27 H37 0.930 . S
C28 C24 1.332 . S
C28 C29 1.394 . S
C28 H38 0.932 . S
C29 C25 1.308 . S
C29 C28 1.394 . S
C29 H39 0.929 . S
C30 Tb1 2.764 . S
C30 O14 1.239 . S
C30 O15 1.263 . S
C30 C24 1.504 . S
C31 O16 1.236 . S
C31 O17 1.257 . S
H32 C5 0.932 . S
H33 C6 0.930 . S
H34 C7 0.932 . S
H35 C8 0.929 . S
H36 C26 0.932 . S
H37 C27 0.930 . S
H38 C28 0.932 . S
H39 C29 0.929 . S
Tb40 C49 2.766 1_545 S
Tb40 O50 2.327 1_545 S
Tb40 O53 2.303 . S
Tb40 O57 2.320 . S
Tb40 O58 2.349 . S
Tb40 O61 2.417 1_545 S
Tb40 O62 2.400 1_545 S
Tb41 O51 2.322 1_545 S
Tb41 O52 2.349 . S
Tb41 O54 2.415 . S
Tb41 O55 2.399 . S
Tb41 O56 2.325 . S
Tb41 O59 2.303 . S
Tb41 C70 2.764 . S
C42 O58 1.261 . S
C42 O59 1.257 . S
C43 C46 1.358 . S
C43 C47 1.332 . S
C43 C49 1.504 . S
C44 C45 1.373 . S
C44 C48 1.308 . S
C45 C44 1.373 . S
C45 C46 1.429 . S
C45 H72 0.932 . S
C46 C43 1.358 . S
C46 C45 1.429 . S
C46 H73 0.930 . S
C47 C43 1.332 . S
C47 C48 1.394 . S
C47 H74 0.932 . S
C48 C44 1.308 . S
C48 C47 1.394 . S
C48 H75 0.929 . S
C49 Tb40 2.766 1_565 S
C49 C43 1.504 . S
C49 O61 1.239 . S
C49 O62 1.263 . S
O50 Tb40 2.327 1_565 S
O50 C60 1.236 . S
O51 Tb41 2.322 1_565 S
O51 C60 1.257 . S
O52 Tb41 2.349 . S
O52 C63 1.261 . S
O53 Tb40 2.303 . S
O53 C63 1.257 . S
O54 Tb41 2.415 . S
O54 C70 1.239 . S
O55 Tb41 2.399 . S
O55 C70 1.263 . S
O56 Tb41 2.325 . S
O56 C71 1.236 . S
O57 Tb40 2.320 . S
O57 C71 1.257 . S
O58 Tb40 2.349 . S
O58 C42 1.261 . S
O59 Tb41 2.303 . S
O59 C42 1.257 . S
C60 O50 1.236 . S
C60 O51 1.257 . S
O61 Tb40 2.417 1_565 S
O61 C49 1.239 . S
O62 Tb40 2.400 1_565 S
O62 C49 1.263 . S
C63 O52 1.261 . S
C63 O53 1.257 . S
C64 C67 1.358 . S
C64 C68 1.332 . S
C64 C70 1.504 . S
C65 C66 1.373 . S
C65 C69 1.308 . S
C66 C65 1.373 . S
C66 C67 1.429 . S
C66 H76 0.932 . S
C67 C64 1.358 . S
C67 C66 1.429 . S
C67 H77 0.930 . S
C68 C64 1.332 . S
C68 C69 1.394 . S
C68 H78 0.932 . S
C69 C65 1.308 . S
C69 C68 1.394 . S
C69 H79 0.929 . S
C70 Tb41 2.764 . S
C70 O54 1.239 . S
C70 O55 1.263 . S
C70 C64 1.504 . S
C71 O56 1.236 . S
C71 O57 1.257 . S
H72 C45 0.932 . S
H73 C46 0.930 . S
H74 C47 0.932 . S
H75 C48 0.929 . S
H76 C66 0.932 . S
H77 C67 0.930 . S
H78 C68 0.932 . S
H79 C69 0.929 . S
Tb80 C89 2.764 . S
Tb80 O90 2.325 . S
Tb80 O93 2.303 . S
Tb80 O97 2.322 . S
Tb80 O98 2.349 . S
Tb80 O101 2.415 . S
Tb80 O102 2.399 . S
Tb81 O91 2.322 . S
Tb81 O92 2.349 . S
Tb81 O94 2.415 . S
Tb81 O95 2.399 . S
Tb81 O96 2.325 . S
Tb81 O99 2.303 . S
Tb81 C110 2.764 . S
C82 O98 1.261 . S
C82 O99 1.257 . S
C83 C86 1.358 . S
C83 C87 1.332 . S
C83 C89 1.504 . S
C84 C85 1.373 . S
C84 C88 1.308 . S
C85 C84 1.373 . S
C85 C86 1.429 . S
C85 H112 0.932 . S
C86 C83 1.358 . S
C86 C85 1.429 . S
C86 H113 0.930 . S
C87 C83 1.332 . S
C87 C88 1.394 . S
C87 H114 0.932 . S
C88 C84 1.308 . S
C88 C87 1.394 . S
C88 H115 0.929 . S
C89 Tb80 2.764 . S
C89 C83 1.504 . S
C89 O101 1.239 . S
C89 O102 1.263 . S
O90 Tb80 2.325 . S
O90 C100 1.236 . S
O91 Tb81 2.322 . S
O91 C100 1.257 . S
O92 Tb81 2.349 . S
O92 C103 1.261 . S
O93 Tb80 2.303 . S
O93 C103 1.257 . S
O94 Tb81 2.415 . S
O94 C110 1.239 . S
O95 Tb81 2.399 . S
O95 C110 1.263 . S
O96 Tb81 2.325 . S
O96 C111 1.236 . S
O97 Tb80 2.322 . S
O97 C111 1.257 . S
O98 Tb80 2.349 . S
O98 C82 1.261 . S
O99 Tb81 2.303 . S
O99 C82 1.257 . S
C100 O90 1.236 . S
C100 O91 1.257 . S
O101 Tb80 2.415 . S
O101 C89 1.239 . S
O102 Tb80 2.399 . S
O102 C89 1.263 . S
C103 O92 1.261 . S
C103 O93 1.257 . S
C104 C107 1.358 . S
C104 C108 1.332 . S
C104 C110 1.504 . S
C105 C106 1.373 . S
C105 C109 1.308 . S
C106 C105 1.373 . S
C106 C107 1.429 . S
C106 H116 0.932 . S
C107 C104 1.358 . S
C107 C106 1.429 . S
C107 H117 0.930 . S
C108 C104 1.332 . S
C108 C109 1.394 . S
C108 H118 0.932 . S
C109 C105 1.308 . S
C109 C108 1.394 . S
C109 H119 0.929 . S
C110 Tb81 2.764 . S
C110 O94 1.239 . S
C110 O95 1.263 . S
C110 C104 1.504 . S
C111 O96 1.236 . S
C111 O97 1.257 . S
H112 C85 0.932 . S
H113 C86 0.930 . S
H114 C87 0.932 . S
H115 C88 0.929 . S
H116 C106 0.932 . S
H117 C107 0.930 . S
H118 C108 0.932 . S
H119 C109 0.929 . S
C120 C121 1.264 . S
C120 C125 1.479 . S
C120 C130 1.465 . S
C121 C120 1.264 . S
C121 C123 1.339 . S
C121 H148 0.931 . S
C122 C123 1.395 . S
C122 C124 1.320 . S
C123 C121 1.339 . S
C123 C122 1.395 . S
C123 H149 0.929 . S
C124 C122 1.320 . S
C124 C125 1.405 . S
C124 H150 0.930 . S
C125 C120 1.479 . S
C125 C124 1.405 . S
C125 H151 0.931 . S
U126 O127 2.454 1_545 S
U126 O128 2.458 1_545 S
U126 C129 2.984 1_545 S
U126 C130 2.847 . S
U126 C143 2.882 . S
U126 O144 2.441 . S
U126 O145 2.420 . S
U126 O146 2.455 . S
U126 O147 2.449 . S
O127 U126 2.454 1_565 S
O127 C129 1.353 . S
O128 U126 2.458 1_565 S
O128 C129 1.286 . S
C129 U126 2.984 1_565 S
C129 O127 1.353 . S
C129 O128 1.286 . S
C129 C131 1.363 . S
C130 C120 1.465 . S
C130 U126 2.847 . S
C130 O144 1.249 . S
C130 O145 1.202 . S
C131 C129 1.363 . S
C131 C133 1.408 . S
C131 C136 1.342 . S
C132 C133 1.310 . S
C132 C135 1.461 . S
C132 H152 0.932 . S
C133 C131 1.408 . S
C133 C132 1.310 . S
C133 H153 0.930 . S
C134 C135 1.474 . S
C134 C136 1.285 . S
C134 H154 0.929 . S
C135 C132 1.461 . S
C135 C134 1.474 . S
C136 C131 1.342 . S
C136 C134 1.285 . S
C136 H155 0.930 . S
C137 C140 1.424 . S
C137 C142 1.245 . S
C137 C143 1.428 . S
C138 C141 1.260 . S
C138 C142 1.477 . S
C138 H156 0.932 . S
C139 C140 1.384 . S
C139 C141 1.479 . S
C139 H157 0.929 . S
C140 C137 1.424 . S
C140 C139 1.384 . S
C140 H158 0.928 . S
C141 C138 1.260 . S
C141 C139 1.479 . S
C142 C137 1.245 . S
C142 C138 1.477 . S
C142 H159 0.932 1_545 S
C143 U126 2.882 . S
C143 C137 1.428 . S
C143 O146 1.301 . S
C143 O147 1.282 . S
O144 U126 2.441 . S
O144 C130 1.249 . S
O145 U126 2.420 . S
O145 C130 1.202 . S
O146 U126 2.455 . S
O146 C143 1.301 . S
O147 U126 2.449 . S
O147 C143 1.282 . S
H148 C121 0.931 . S
H149 C123 0.929 . S
H150 C124 0.930 . S
H151 C125 0.931 . S
H152 C132 0.932 . S
H153 C133 0.930 . S
H154 C134 0.929 . S
H155 C136 0.930 . S
H156 C138 0.932 . S
H157 C139 0.929 . S
H158 C140 0.928 . S
H159 C142 0.932 1_565 S
C160 C161 1.264 . S
C160 C165 1.479 . S
C160 C170 1.465 . S
C161 C160 1.264 . S
C161 C163 1.339 . S
C161 H188 0.931 . S
C162 C163 1.395 . S
C162 C164 1.320 . S
C163 C161 1.339 . S
C163 C162 1.395 . S
C163 H189 0.929 . S
C164 C162 1.320 . S
C164 C165 1.405 . S
C164 H190 0.930 . S
C165 C160 1.479 . S
C165 C164 1.405 . S
C165 H191 0.931 . S
U166 O167 2.454 . S
U166 O168 2.458 . S
U166 C169 2.984 . S
U166 C170 2.847 . S
U166 C183 2.882 . S
U166 O184 2.441 . S
U166 O185 2.420 . S
U166 O186 2.455 . S
U166 O187 2.449 . S
O167 U166 2.454 . S
O167 C169 1.353 . S
O168 U166 2.458 . S
O168 C169 1.286 . S
C169 U166 2.984 . S
C169 O167 1.353 . S
C169 O168 1.286 . S
C169 C171 1.363 . S
C170 C160 1.465 . S
C170 U166 2.847 . S
C170 O184 1.249 . S
C170 O185 1.202 . S
C171 C169 1.363 . S
C171 C173 1.408 . S
C171 C176 1.342 . S
C172 C173 1.310 . S
C172 C175 1.461 . S
C172 H192 0.932 . S
C173 C171 1.408 . S
C173 C172 1.310 . S
C173 H193 0.930 . S
C174 C175 1.474 . S
C174 C176 1.285 . S
C174 H194 0.929 . S
C175 C172 1.461 . S
C175 C174 1.474 . S
C176 C171 1.342 . S
C176 C174 1.285 . S
C176 H195 0.930 . S
C177 C180 1.424 . S
C177 C182 1.245 . S
C177 C183 1.428 . S
C178 C181 1.260 . S
C178 C182 1.477 . S
C178 H196 0.932 . S
C179 C180 1.384 . S
C179 C181 1.479 . S
C179 H197 0.929 . S
C180 C177 1.424 . S
C180 C179 1.384 . S
C180 H198 0.928 . S
C181 C178 1.260 . S
C181 C179 1.479 . S
C182 C177 1.245 . S
C182 C178 1.477 . S
C182 H199 0.932 . S
C183 U166 2.882 . S
C183 C177 1.428 . S
C183 O186 1.301 . S
C183 O187 1.282 . S
O184 U166 2.441 . S
O184 C170 1.249 . S
O185 U166 2.420 . S
O185 C170 1.202 . S
O186 U166 2.455 . S
O186 C183 1.301 . S
O187 U166 2.449 . S
O187 C183 1.282 . S
H188 C161 0.931 . S
H189 C163 0.929 . S
H190 C164 0.930 . S
H191 C165 0.931 . S
H192 C172 0.932 . S
H193 C173 0.930 . S
H194 C174 0.929 . S
H195 C176 0.930 . S
H196 C178 0.932 . S
H197 C179 0.929 . S
H198 C180 0.928 . S
H199 C182 0.932 . S
C200 C201 1.264 . S
C200 C205 1.479 . S
C200 C210 1.465 . S
C201 C200 1.264 . S
C201 C203 1.339 . S
C201 H228 0.931 . S
C202 C203 1.395 . S
C202 C204 1.320 . S
C203 C201 1.339 . S
C203 C202 1.395 . S
C203 H229 0.929 . S
C204 C202 1.320 . S
C204 C205 1.405 . S
C204 H230 0.930 . S
C205 C200 1.479 . S
C205 C204 1.405 . S
C205 H231 0.931 . S
U206 O207 2.454 . S
U206 O208 2.458 . S
U206 C209 2.984 . S
U206 C210 2.847 1_455 S
U206 C223 2.882 . S
U206 O224 2.441 . S
U206 O225 2.420 1_455 S
U206 O226 2.455 . S
U206 O227 2.449 . S
O207 U206 2.454 . S
O207 C209 1.353 . S
O208 U206 2.458 . S
O208 C209 1.286 . S
C209 U206 2.984 . S
C209 O207 1.353 . S
C209 O208 1.286 . S
C209 C211 1.363 . S
C210 C200 1.465 . S
C210 U206 2.847 1_655 S
C210 O224 1.249 1_655 S
C210 O225 1.202 . S
C211 C209 1.363 . S
C211 C213 1.408 . S
C211 C216 1.342 . S
C212 C213 1.310 . S
C212 C215 1.461 . S
C212 H232 0.932 . S
C213 C211 1.408 . S
C213 C212 1.310 . S
C213 H233 0.930 . S
C214 C215 1.474 . S
C214 C216 1.285 . S
C214 H234 0.929 . S
C215 C212 1.461 . S
C215 C214 1.474 . S
C216 C211 1.342 . S
C216 C214 1.285 . S
C216 H235 0.930 . S
C217 C220 1.424 . S
C217 C222 1.245 . S
C217 C223 1.428 . S
C218 C221 1.260 . S
C218 C222 1.477 . S
C218 H236 0.932 . S
C219 C220 1.384 . S
C219 C221 1.479 . S
C219 H237 0.963 . S
C220 C217 1.424 . S
C220 C219 1.384 . S
C220 H238 0.928 . S
C221 C218 1.260 . S
C221 C219 1.479 . S
C222 C217 1.245 . S
C222 C218 1.477 . S
C222 H239 0.932 . S
C223 U206 2.882 . S
C223 C217 1.428 . S
C223 O226 1.301 . S
C223 O227 1.282 . S
O224 U206 2.441 . S
O224 C210 1.249 1_455 S
O225 U206 2.420 1_655 S
O225 C210 1.202 . S
O226 U206 2.455 . S
O226 C223 1.301 . S
O227 U206 2.449 . S
O227 C223 1.282 . S
H228 C201 0.931 . S
H229 C203 0.929 . S
H230 C204 0.930 . S
H231 C205 0.931 . S
H232 C212 0.932 . S
H233 C213 0.930 . S
H234 C214 0.929 . S
H235 C216 0.930 . S
H236 C218 0.932 . S
H237 C219 0.963 . S
H238 C220 0.928 . S
H239 C222 0.932 . S
C240 C241 1.264 . S
C240 C245 1.479 . S
C240 C250 1.465 . S
C241 C240 1.264 . S
C241 C243 1.339 . S
C241 H268 0.931 . S
C242 C243 1.395 . S
C242 C244 1.320 . S
C243 C241 1.339 . S
C243 C242 1.395 . S
C243 H269 0.929 . S
C244 C242 1.320 . S
C244 C245 1.405 . S
C244 H270 0.930 . S
C245 C240 1.479 . S
C245 C244 1.405 . S
C245 H271 0.931 . S
U246 O247 2.454 1_655 S
U246 O248 2.458 1_655 S
U246 C249 2.984 1_655 S
U246 C250 2.847 . S
U246 C263 2.882 . S
U246 O264 2.441 . S
U246 O265 2.420 . S
U246 O266 2.455 1_655 S
U246 O267 2.449 . S
O247 U246 2.454 1_455 S
O247 C249 1.353 . S
O248 U246 2.458 1_455 S
O248 C249 1.286 . S
C249 U246 2.984 1_455 S
C249 O247 1.353 . S
C249 O248 1.286 . S
C249 C251 1.363 . S
C250 C240 1.465 . S
C250 U246 2.847 . S
C250 O264 1.249 . S
C250 O265 1.202 . S
C251 C249 1.363 . S
C251 C253 1.408 . S
C251 C256 1.342 . S
C252 C253 1.310 . S
C252 C255 1.461 . S
C252 H272 0.932 . S
C253 C251 1.408 . S
C253 C252 1.310 . S
C253 H273 0.930 . S
C254 C255 1.474 . S
C254 C256 1.285 . S
C254 H274 0.929 . S
C255 C252 1.461 . S
C255 C254 1.474 . S
C256 C251 1.342 . S
C256 C254 1.285 . S
C256 H275 0.930 . S
C257 C260 1.424 . S
C257 C262 1.245 1_655 S
C257 C263 1.428 . S
C258 C261 1.260 1_455 S
C258 C262 1.477 . S
C258 H276 0.932 . S
C259 C260 1.384 . S
C259 C261 1.479 . S
C259 H277 0.929 . S
C260 C257 1.424 . S
C260 C259 1.384 . S
C260 H278 0.928 . S
C261 C258 1.260 1_655 S
C261 C259 1.479 . S
C262 C257 1.245 1_455 S
C262 C258 1.477 . S
C262 H279 0.932 . S
C263 U246 2.882 . S
C263 C257 1.428 . S
C263 O266 1.301 1_655 S
C263 O267 1.282 . S
O264 U246 2.441 . S
O264 C250 1.249 . S
O265 U246 2.420 . S
O265 C250 1.202 . S
O266 U246 2.455 1_455 S
O266 C263 1.301 1_455 S
O267 U246 2.449 . S
O267 C263 1.282 . S
H268 C241 0.931 . S
H269 C243 0.929 . S
H270 C244 0.930 . S
H271 C245 0.931 . S
H272 C252 0.932 . S
H273 C253 0.930 . S
H274 C254 0.929 . S
H275 C256 0.930 . S
H276 C258 0.932 . S
H277 C259 0.929 . S
H278 C260 0.928 . S
H279 C262 0.932 . S
C280 C281 1.264 . S
C280 C285 1.479 . S
C280 C290 1.465 . S
C281 C280 1.264 . S
C281 C283 1.339 . S
C281 H308 0.931 . S
C282 C283 1.395 . S
C282 C284 1.320 . S
C283 C281 1.339 . S
C283 C282 1.395 . S
C283 H309 0.929 . S
C284 C282 1.320 . S
C284 C285 1.405 . S
C284 H310 0.930 . S
C285 C280 1.479 . S
C285 C284 1.405 . S
C285 H311 0.931 . S
U286 O287 2.454 1_565 S
U286 O288 2.458 1_565 S
U286 C289 2.984 1_565 S
U286 C290 2.847 . S
U286 C303 2.882 . S
U286 O304 2.441 . S
U286 O305 2.420 . S
U286 O306 2.455 1_565 S
U286 O307 2.449 . S
O287 U286 2.454 1_545 S
O287 C289 1.353 . S
O288 U286 2.458 1_545 S
O288 C289 1.286 . S
C289 U286 2.984 1_545 S
C289 O287 1.353 . S
C289 O288 1.286 . S
C289 C291 1.363 . S
C290 C280 1.465 . S
C290 U286 2.847 . S
C290 O304 1.249 . S
C290 O305 1.202 . S
C291 C289 1.363 . S
C291 C293 1.408 . S
C291 C296 1.342 . S
C292 C293 1.310 . S
C292 C295 1.461 . S
C292 H312 0.932 . S
C293 C291 1.408 . S
C293 C292 1.310 . S
C293 H313 0.930 . S
C294 C295 1.474 . S
C294 C296 1.285 . S
C294 H314 0.929 . S
C295 C292 1.461 . S
C295 C294 1.474 . S
C296 C291 1.342 . S
C296 C294 1.285 . S
C296 H315 0.930 . S
C297 C300 1.424 . S
C297 C302 1.245 1_565 S
C297 C303 1.428 . S
C298 C301 1.260 1_545 S
C298 C302 1.477 . S
C298 H316 0.932 . S
C299 C300 1.384 . S
C299 C301 1.479 . S
C299 H317 0.929 . S
C300 C297 1.424 . S
C300 C299 1.384 . S
C300 H318 0.928 . S
C301 C298 1.260 1_565 S
C301 C299 1.479 . S
C302 C297 1.245 1_545 S
C302 C298 1.477 . S
C302 H319 0.932 . S
C303 U286 2.882 . S
C303 C297 1.428 . S
C303 O306 1.301 1_565 S
C303 O307 1.282 . S
O304 U286 2.441 . S
O304 C290 1.249 . S
O305 U286 2.420 . S
O305 C290 1.202 . S
O306 U286 2.455 1_545 S
O306 C303 1.301 1_545 S
O307 U286 2.449 . S
O307 C303 1.282 . S
H308 C281 0.931 . S
H309 C283 0.929 . S
H310 C284 0.930 . S
H311 C285 0.931 . S
H312 C292 0.932 . S
H313 C293 0.930 . S
H314 C294 0.929 . S
H315 C296 0.930 . S
H316 C298 0.932 . S
H317 C299 0.929 . S
H318 C300 0.928 . S
H319 C302 0.932 . S
C320 C321 1.264 . S
C320 C325 1.479 . S
C320 C330 1.465 . S
C321 C320 1.264 . S
C321 C323 1.339 . S
C321 H348 0.931 . S
C322 C323 1.395 . S
C322 C324 1.320 . S
C323 C321 1.339 . S
C323 C322 1.395 . S
C323 H349 0.929 . S
C324 C322 1.320 . S
C324 C325 1.405 . S
C324 H350 0.930 . S
C325 C320 1.479 . S
C325 C324 1.405 . S
C325 H351 0.931 . S
U326 O327 2.454 . S
U326 O328 2.458 . S
U326 C329 2.984 . S
U326 C330 2.847 . S
U326 C343 2.882 . S
U326 O344 2.441 . S
U326 O345 2.420 . S
U326 O346 2.455 . S
U326 O347 2.449 . S
O327 U326 2.454 . S
O327 C329 1.353 . S
O328 U326 2.458 . S
O328 C329 1.286 . S
C329 U326 2.984 . S
C329 O327 1.353 . S
C329 O328 1.286 . S
C329 C331 1.363 . S
C330 C320 1.465 . S
C330 U326 2.847 . S
C330 O344 1.249 . S
C330 O345 1.202 . S
C331 C329 1.363 . S
C331 C333 1.408 . S
C331 C336 1.342 . S
C332 C333 1.310 . S
C332 C335 1.461 . S
C332 H352 0.932 . S
C333 C331 1.408 . S
C333 C332 1.310 . S
C333 H353 0.930 . S
C334 C335 1.474 . S
C334 C336 1.285 . S
C334 H354 0.929 . S
C335 C332 1.461 . S
C335 C334 1.474 . S
C336 C331 1.342 . S
C336 C334 1.285 . S
C336 H355 0.930 . S
C337 C340 1.424 . S
C337 C342 1.245 . S
C337 C343 1.428 . S
C338 C341 1.260 1_554 S
C338 C342 1.477 . S
C338 H356 0.932 1_554 S
C339 C340 1.384 . S
C339 C341 1.479 1_554 S
C339 H357 0.948 . S
C340 C337 1.424 . S
C340 C339 1.384 . S
C340 H358 0.928 . S
C341 C338 1.260 1_556 S
C341 C339 1.479 1_556 S
C342 C337 1.245 . S
C342 C338 1.477 . S
C342 H359 0.932 . S
C343 U326 2.882 . S
C343 C337 1.428 . S
C343 O346 1.301 . S
C343 O347 1.282 . S
O344 U326 2.441 . S
O344 C330 1.249 . S
O345 U326 2.420 . S
O345 C330 1.202 . S
O346 U326 2.455 . S
O346 C343 1.301 . S
O347 U326 2.449 . S
O347 C343 1.282 . S
H348 C321 0.931 . S
H349 C323 0.929 . S
H350 C324 0.930 . S
H351 C325 0.931 . S
H352 C332 0.932 . S
H353 C333 0.930 . S
H354 C334 0.929 . S
H355 C336 0.930 . S
H356 C338 0.932 1_556 S
H357 C339 0.948 . S
H358 C340 0.928 . S
H359 C342 0.932 . S
H360 C372 0.930 . S
H361 C374 0.930 . S
H362 C375 0.930 . S
H363 C379 0.959 . S
H364 C379 0.959 . S
H365 C379 0.961 . S
H366 C380 0.960 . S
H367 C380 0.961 . S
H368 C380 0.959 . S
H369 C383 0.929 . S
H370 C384 0.931 . S
H371 C386 0.930 . S
C372 H360 0.930 . S
C372 C373 1.399 . S
C372 C377 1.399 . S
C373 C372 1.399 . S
C373 C374 1.376 . S
C374 H361 0.930 . S
C374 C373 1.376 . S
C374 C375 1.388 . S
C375 H362 0.930 . S
C375 C374 1.388 . S
C375 C376 1.390 . S
C376 C375 1.390 . S
C376 C377 1.394 . S
C376 C382 1.465 . S
C377 C372 1.399 . S
C377 C376 1.394 . S
C377 C378 1.516 . S
C378 C377 1.516 . S
C378 C379 1.502 . S
C378 C380 1.561 . S
C378 C381 1.526 . S
C379 H363 0.959 . S
C379 H364 0.959 . S
C379 H365 0.961 . S
C379 C378 1.502 . S
C380 H366 0.960 . S
C380 H367 0.961 . S
C380 H368 0.959 . S
C380 C378 1.561 . S
C381 C378 1.526 . S
C381 C382 1.396 . S
C381 C386 1.390 . S
C382 C376 1.465 . S
C382 C381 1.396 . S
C382 C383 1.399 . S
C383 H369 0.929 . S
C383 C382 1.399 . S
C383 C384 1.385 . S
C384 H370 0.931 . S
C384 C383 1.385 . S
C384 C385 1.389 . S
C385 C384 1.389 . S
C385 C386 1.387 . S
C386 H371 0.930 . S
C386 C381 1.390 . S
C386 C385 1.387 . S
H387 C399 0.930 . S
H388 C401 0.930 . S
H389 C402 0.930 . S
H390 C406 0.959 . S
H391 C406 0.959 . S
H392 C406 0.961 . S
H393 C407 0.960 . S
H394 C407 0.961 . S
H395 C407 0.959 . S
H396 C410 0.929 . S
H397 C411 0.931 . S
H398 C413 0.930 . S
C399 H387 0.930 . S
C399 C400 1.399 . S
C399 C404 1.399 . S
C400 C399 1.399 . S
C400 C401 1.376 . S
C401 H388 0.930 . S
C401 C400 1.376 . S
C401 C402 1.388 . S
C402 H389 0.930 . S
C402 C401 1.388 . S
C402 C403 1.390 . S
C403 C402 1.390 . S
C403 C404 1.394 . S
C403 C409 1.465 . S
C404 C399 1.399 . S
C404 C403 1.394 . S
C404 C405 1.516 . S
C405 C404 1.516 . S
C405 C406 1.502 . S
C405 C407 1.561 . S
C405 C408 1.526 . S
C406 H390 0.959 . S
C406 H391 0.959 . S
C406 H392 0.961 . S
C406 C405 1.502 . S
C407 H393 0.960 . S
C407 H394 0.961 . S
C407 H395 0.959 . S
C407 C405 1.561 . S
C408 C405 1.526 . S
C408 C409 1.396 . S
C408 C413 1.390 . S
C409 C403 1.465 . S
C409 C408 1.396 . S
C409 C410 1.399 . S
C410 H396 0.929 . S
C410 C409 1.399 . S
C410 C411 1.385 . S
C411 H397 0.931 . S
C411 C410 1.385 . S
C411 C412 1.389 . S
C412 C411 1.389 . S
C412 C413 1.387 . S
C413 H398 0.930 . S
C413 C408 1.390 . S
C413 C412 1.387 . S
H414 C426 0.930 . S
H415 C428 0.930 . S
H416 C429 0.930 . S
H417 C433 0.959 . S
H418 C433 0.959 . S
H419 C433 0.961 . S
H420 C434 0.960 . S
H421 C434 0.961 . S
H422 C434 0.959 . S
H423 C437 0.929 . S
H424 C438 0.931 . S
H425 C440 0.930 . S
C426 H414 0.930 . S
C426 C427 1.399 . S
C426 C431 1.399 . S
C427 C426 1.399 . S
C427 C428 1.376 . S
C428 H415 0.930 . S
C428 C427 1.376 . S
C428 C429 1.388 . S
C429 H416 0.930 . S
C429 C428 1.388 . S
C429 C430 1.390 . S
C430 C429 1.390 . S
C430 C431 1.394 . S
C430 C436 1.465 . S
C431 C426 1.399 . S
C431 C430 1.394 . S
C431 C432 1.516 . S
C432 C431 1.516 . S
C432 C433 1.502 . S
C432 C434 1.561 . S
C432 C435 1.526 . S
C433 H417 0.959 . S
C433 H418 0.959 . S
C433 H419 0.961 . S
C433 C432 1.502 . S
C434 H420 0.960 . S
C434 H421 0.961 . S
C434 H422 0.959 . S
C434 C432 1.561 . S
C435 C432 1.526 . S
C435 C436 1.396 . S
C435 C440 1.390 . S
C436 C430 1.465 . S
C436 C435 1.396 . S
C436 C437 1.399 . S
C437 H423 0.929 . S
C437 C436 1.399 . S
C437 C438 1.385 . S
C438 H424 0.931 . S
C438 C437 1.385 . S
C438 C439 1.389 . S
C439 C438 1.389 . S
C439 C440 1.387 . S
C440 H425 0.930 . S
C440 C435 1.390 . S
C440 C439 1.387 . S
H441 C453 0.930 . S
H442 C455 0.930 . S
H443 C456 0.930 . S
H444 C460 0.959 . S
H445 C460 0.959 . S
H446 C460 0.961 . S
H447 C461 0.960 . S
H448 C461 0.961 . S
H449 C461 0.959 . S
H450 C464 0.929 . S
H451 C465 0.931 . S
H452 C467 0.930 . S
C453 H441 0.930 . S
C453 C454 1.399 . S
C453 C458 1.399 . S
C454 C453 1.399 . S
C454 C455 1.376 . S
C455 H442 0.930 . S
C455 C454 1.376 . S
C455 C456 1.388 . S
C456 H443 0.930 . S
C456 C455 1.388 . S
C456 C457 1.390 . S
C457 C456 1.390 . S
C457 C458 1.394 . S
C457 C463 1.465 . S
C458 C453 1.399 . S
C458 C457 1.394 . S
C458 C459 1.516 . S
C459 C458 1.516 . S
C459 C460 1.502 . S
C459 C461 1.561 . S
C459 C462 1.526 . S
C460 H444 0.959 . S
C460 H445 0.959 . S
C460 H446 0.961 . S
C460 C459 1.502 . S
C461 H447 0.960 . S
C461 H448 0.961 . S
C461 H449 0.959 . S
C461 C459 1.561 . S
C462 C459 1.526 . S
C462 C463 1.396 . S
C462 C467 1.390 . S
C463 C457 1.465 . S
C463 C462 1.396 . S
C463 C464 1.399 . S
C464 H450 0.929 . S
C464 C463 1.399 . S
C464 C465 1.385 . S
C465 H451 0.931 . S
C465 C464 1.385 . S
C465 C466 1.389 . S
C466 C465 1.389 . S
C466 C467 1.387 . S
C467 H452 0.930 . S
C467 C462 1.390 . S
C467 C466 1.387 . S
H468 C480 0.930 . S
H469 C482 0.930 . S
H470 C483 0.930 . S
H471 C487 0.959 . S
H472 C487 0.959 . S
H473 C487 0.961 . S
H474 C488 0.960 . S
H475 C488 0.961 . S
H476 C488 0.959 . S
H477 C491 0.929 . S
H478 C492 0.931 . S
H479 C494 0.930 . S
C480 H468 0.930 . S
C480 C481 1.399 . S
C480 C485 1.399 . S
C481 C480 1.399 . S
C481 C482 1.376 . S
C482 H469 0.930 . S
C482 C481 1.376 . S
C482 C483 1.388 . S
C483 H470 0.930 . S
C483 C482 1.388 . S
C483 C484 1.390 . S
C484 C483 1.390 . S
C484 C485 1.394 . S
C484 C490 1.465 . S
C485 C480 1.399 . S
C485 C484 1.394 . S
C485 C486 1.516 . S
C486 C485 1.516 . S
C486 C487 1.502 . S
C486 C488 1.561 . S
C486 C489 1.526 . S
C487 H471 0.959 . S
C487 H472 0.959 . S
C487 H473 0.961 . S
C487 C486 1.502 . S
C488 H474 0.960 . S
C488 H475 0.961 . S
C488 H476 0.959 . S
C488 C486 1.561 . S
C489 C486 1.526 . S
C489 C490 1.396 . S
C489 C494 1.390 . S
C490 C484 1.465 . S
C490 C489 1.396 . S
C490 C491 1.399 . S
C491 H477 0.929 . S
C491 C490 1.399 . S
C491 C492 1.385 . S
C492 H478 0.931 . S
C492 C491 1.385 . S
C492 C493 1.389 . S
C493 C492 1.389 . S
C493 C494 1.387 . S
C494 H479 0.930 . S
C494 C489 1.390 . S
C494 C493 1.387 . S
H495 C507 0.930 . S
H496 C509 0.930 . S
H497 C510 0.930 . S
H498 C514 0.959 . S
H499 C514 0.959 . S
H500 C514 0.961 . S
H501 C515 0.960 . S
H502 C515 0.961 . S
H503 C515 0.959 . S
H504 C518 0.929 . S
H505 C519 0.931 . S
H506 C521 0.930 . S
C507 H495 0.930 . S
C507 C508 1.399 . S
C507 C512 1.399 . S
C508 C507 1.399 . S
C508 C509 1.376 . S
C509 H496 0.930 . S
C509 C508 1.376 . S
C509 C510 1.388 . S
C510 H497 0.930 . S
C510 C509 1.388 . S
C510 C511 1.390 . S
C511 C510 1.390 . S
C511 C512 1.394 . S
C511 C517 1.465 . S
C512 C507 1.399 . S
C512 C511 1.394 . S
C512 C513 1.516 . S
C513 C512 1.516 . S
C513 C514 1.502 . S
C513 C515 1.561 . S
C513 C516 1.526 . S
C514 H498 0.959 . S
C514 H499 0.959 . S
C514 H500 0.961 . S
C514 C513 1.502 . S
C515 H501 0.960 . S
C515 H502 0.961 . S
C515 H503 0.959 . S
C515 C513 1.561 . S
C516 C513 1.526 . S
C516 C517 1.396 . S
C516 C521 1.390 . S
C517 C511 1.465 . S
C517 C516 1.396 . S
C517 C518 1.399 . S
C518 H504 0.929 . S
C518 C517 1.399 . S
C518 C519 1.385 . S
C519 H505 0.931 . S
C519 C518 1.385 . S
C519 C520 1.389 . S
C520 C519 1.389 . S
C520 C521 1.387 . S
C521 H506 0.930 . S
C521 C516 1.390 . S
C521 C520 1.387 . S
H522 C534 0.930 . S
H523 C536 0.930 . S
H524 C537 0.930 . S
H525 C541 0.959 . S
H526 C541 0.959 . S
H527 C541 0.961 . S
H528 C542 0.960 . S
H529 C542 0.961 . S
H530 C542 0.959 . S
H531 C545 0.929 . S
H532 C546 0.931 . S
H533 C548 0.930 . S
C534 H522 0.930 . S
C534 C535 1.399 . S
C534 C539 1.399 . S
C535 C534 1.399 . S
C535 C536 1.376 . S
C536 H523 0.930 . S
C536 C535 1.376 . S
C536 C537 1.388 . S
C537 H524 0.930 . S
C537 C536 1.388 . S
C537 C538 1.390 . S
C538 C537 1.390 . S
C538 C539 1.394 . S
C538 C544 1.465 . S
C539 C534 1.399 . S
C539 C538 1.394 . S
C539 C540 1.516 . S
C540 C539 1.516 . S
C540 C541 1.502 . S
C540 C542 1.561 . S
C540 C543 1.526 . S
C541 H525 0.959 . S
C541 H526 0.959 . S
C541 H527 0.961 . S
C541 C540 1.502 . S
C542 H528 0.960 . S
C542 H529 0.961 . S
C542 H530 0.959 . S
C542 C540 1.561 . S
C543 C540 1.526 . S
C543 C544 1.396 . S
C543 C548 1.390 . S
C544 C538 1.465 . S
C544 C543 1.396 . S
C544 C545 1.399 . S
C545 H531 0.929 . S
C545 C544 1.399 . S
C545 C546 1.385 . S
C546 H532 0.931 . S
C546 C545 1.385 . S
C546 C547 1.389 . S
C547 C546 1.389 . S
C547 C548 1.387 . S
C548 H533 0.930 . S
C548 C543 1.390 . S
C548 C547 1.387 . S
H549 C561 0.930 . S
H550 C563 0.930 . S
H551 C564 0.930 . S
H552 C568 0.959 . S
H553 C568 0.959 . S
H554 C568 0.961 . S
H555 C569 0.960 . S
H556 C569 0.961 . S
H557 C569 0.959 . S
H558 C572 0.929 . S
H559 C573 0.931 . S
H560 C575 0.930 . S
C561 H549 0.930 . S
C561 C562 1.399 . S
C561 C566 1.399 . S
C562 C561 1.399 . S
C562 C563 1.376 . S
C563 H550 0.930 . S
C563 C562 1.376 . S
C563 C564 1.388 . S
C564 H551 0.930 . S
C564 C563 1.388 . S
C564 C565 1.390 . S
C565 C564 1.390 . S
C565 C566 1.394 . S
C565 C571 1.465 . S
C566 C561 1.399 . S
C566 C565 1.394 . S
C566 C567 1.516 . S
C567 C566 1.516 . S
C567 C568 1.502 . S
C567 C569 1.561 . S
C567 C570 1.526 . S
C568 H552 0.959 . S
C568 H553 0.959 . S
C568 H554 0.961 . S
C568 C567 1.502 . S
C569 H555 0.960 . S
C569 H556 0.961 . S
C569 H557 0.959 . S
C569 C567 1.561 . S
C570 C567 1.526 . S
C570 C571 1.396 . S
C570 C575 1.390 . S
C571 C565 1.465 . S
C571 C570 1.396 . S
C571 C572 1.399 . S
C572 H558 0.929 . S
C572 C571 1.399 . S
C572 C573 1.385 . S
C573 H559 0.931 . S
C573 C572 1.385 . S
C573 C574 1.389 . S
C574 C573 1.389 . S
C574 C575 1.387 . S
C575 H560 0.930 . S
C575 C570 1.390 . S
C575 C574 1.387 . S
H576 C588 0.930 . S
H577 C590 0.930 . S
H578 C591 0.930 . S
H579 C595 0.959 . S
H580 C595 0.959 . S
H581 C595 0.961 . S
H582 C596 0.960 . S
H583 C596 0.961 . S
H584 C596 0.959 . S
H585 C599 0.929 . S
H586 C600 0.931 . S
H587 C602 0.930 . S
C588 H576 0.930 . S
C588 C589 1.399 . S
C588 C593 1.399 . S
C589 C588 1.399 . S
C589 C590 1.376 . S
C590 H577 0.930 . S
C590 C589 1.376 . S
C590 C591 1.388 . S
C591 H578 0.930 . S
C591 C590 1.388 . S
C591 C592 1.390 . S
C592 C591 1.390 . S
C592 C593 1.394 . S
C592 C598 1.465 . S
C593 C588 1.399 . S
C593 C592 1.394 . S
C593 C594 1.516 . S
C594 C593 1.516 . S
C594 C595 1.502 . S
C594 C596 1.561 . S
C594 C597 1.526 . S
C595 H579 0.959 . S
C595 H580 0.959 . S
C595 H581 0.961 . S
C595 C594 1.502 . S
C596 H582 0.960 . S
C596 H583 0.961 . S
C596 H584 0.959 . S
C596 C594 1.561 . S
C597 C594 1.526 . S
C597 C598 1.396 . S
C597 C602 1.390 . S
C598 C592 1.465 . S
C598 C597 1.396 . S
C598 C599 1.399 . S
C599 H585 0.929 . S
C599 C598 1.399 . S
C599 C600 1.385 . S
C600 H586 0.931 . S
C600 C599 1.385 . S
C600 C601 1.389 . S
C601 C600 1.389 . S
C601 C602 1.387 . S
C602 H587 0.930 . S
C602 C597 1.390 . S
C602 C601 1.387 . S
H603 C615 0.930 . S
H604 C617 0.930 . S
H605 C618 0.930 . S
H606 C622 0.959 . S
H607 C622 0.959 . S
H608 C622 0.961 . S
H609 C623 0.960 . S
H610 C623 0.961 . S
H611 C623 0.959 . S
H612 C626 0.929 . S
H613 C627 0.931 . S
H614 C629 0.930 . S
C615 H603 0.930 . S
C615 C616 1.399 . S
C615 C620 1.399 . S
C616 C615 1.399 . S
C616 C617 1.376 . S
C617 H604 0.930 . S
C617 C616 1.376 . S
C617 C618 1.388 . S
C618 H605 0.930 . S
C618 C617 1.388 . S
C618 C619 1.390 . S
C619 C618 1.390 . S
C619 C620 1.394 . S
C619 C625 1.465 . S
C620 C615 1.399 . S
C620 C619 1.394 . S
C620 C621 1.516 . S
C621 C620 1.516 . S
C621 C622 1.502 . S
C621 C623 1.561 . S
C621 C624 1.526 . S
C622 H606 0.959 . S
C622 H607 0.959 . S
C622 H608 0.961 . S
C622 C621 1.502 . S
C623 H609 0.960 . S
C623 H610 0.961 . S
C623 H611 0.959 . S
C623 C621 1.561 . S
C624 C621 1.526 . S
C624 C625 1.396 . S
C624 C629 1.390 . S
C625 C619 1.465 . S
C625 C624 1.396 . S
C625 C626 1.399 . S
C626 H612 0.929 . S
C626 C625 1.399 . S
C626 C627 1.385 . S
C627 H613 0.931 . S
C627 C626 1.385 . S
C627 C628 1.389 . S
C628 C627 1.389 . S
C628 C629 1.387 . S
C629 H614 0.930 . S
C629 C624 1.390 . S
C629 C628 1.387 . S
H630 C642 0.930 . S
H631 C644 0.930 . S
H632 C645 0.930 . S
H633 C649 0.959 . S
H634 C649 0.959 . S
H635 C649 0.961 . S
H636 C650 0.960 . S
H637 C650 0.961 . S
H638 C650 0.959 . S
H639 C653 0.929 . S
H640 C654 0.931 . S
H641 C656 0.930 . S
C642 H630 0.930 . S
C642 C643 1.399 . S
C642 C647 1.399 . S
C643 C642 1.399 . S
C643 C644 1.376 . S
C644 H631 0.930 . S
C644 C643 1.376 . S
C644 C645 1.388 . S
C645 H632 0.930 . S
C645 C644 1.388 . S
C645 C646 1.390 . S
C646 C645 1.390 . S
C646 C647 1.394 . S
C646 C652 1.465 . S
C647 C642 1.399 . S
C647 C646 1.394 . S
C647 C648 1.516 . S
C648 C647 1.516 . S
C648 C649 1.502 . S
C648 C650 1.561 . S
C648 C651 1.526 . S
C649 H633 0.959 . S
C649 H634 0.959 . S
C649 H635 0.961 . S
C649 C648 1.502 . S
C650 H636 0.960 . S
C650 H637 0.961 . S
C650 H638 0.959 . S
C650 C648 1.561 . S
C651 C648 1.526 . S
C651 C652 1.396 . S
C651 C656 1.390 . S
C652 C646 1.465 . S
C652 C651 1.396 . S
C652 C653 1.399 . S
C653 H639 0.929 . S
C653 C652 1.399 . S
C653 C654 1.385 . S
C654 H640 0.931 . S
C654 C653 1.385 . S
C654 C655 1.389 . S
C655 C654 1.389 . S
C655 C656 1.387 . S
C656 H641 0.930 . S
C656 C651 1.390 . S
C656 C655 1.387 . S
H657 C669 0.930 . S
H658 C671 0.930 . S
H659 C672 0.930 . S
H660 C676 0.959 . S
H661 C676 0.959 . S
H662 C676 0.961 . S
H663 C677 0.960 . S
H664 C677 0.961 . S
H665 C677 0.959 . S
H666 C680 0.929 . S
H667 C681 0.931 . S
H668 C683 0.930 . S
C669 H657 0.930 . S
C669 C670 1.399 . S
C669 C674 1.399 . S
C670 C669 1.399 . S
C670 C671 1.376 . S
C671 H658 0.930 . S
C671 C670 1.376 . S
C671 C672 1.388 . S
C672 H659 0.930 . S
C672 C671 1.388 . S
C672 C673 1.390 . S
C673 C672 1.390 . S
C673 C674 1.394 . S
C673 C679 1.465 . S
C674 C669 1.399 . S
C674 C673 1.394 . S
C674 C675 1.516 . S
C675 C674 1.516 . S
C675 C676 1.502 . S
C675 C677 1.561 . S
C675 C678 1.526 . S
C676 H660 0.959 . S
C676 H661 0.959 . S
C676 H662 0.961 . S
C676 C675 1.502 . S
C677 H663 0.960 . S
C677 H664 0.961 . S
C677 H665 0.959 . S
C677 C675 1.561 . S
C678 C675 1.526 . S
C678 C679 1.396 . S
C678 C683 1.390 . S
C679 C673 1.465 . S
C679 C678 1.396 . S
C679 C680 1.399 . S
C680 H666 0.929 . S
C680 C679 1.399 . S
C680 C681 1.385 . S
C681 H667 0.931 . S
C681 C680 1.385 . S
C681 C682 1.389 . S
C682 C681 1.389 . S
C682 C683 1.387 . S
C683 H668 0.930 . S
C683 C678 1.390 . S
C683 C682 1.387 . S
H684 C696 0.930 . S
H685 C698 0.930 1_655 S
H686 C699 0.951 . S
H687 C703 0.959 . S
H688 C703 0.959 . S
H689 C703 0.961 . S
H690 C704 0.960 . S
H691 C704 0.961 . S
H692 C704 0.959 . S
H693 C707 0.929 1_655 S
H694 C708 0.931 1_655 S
H695 C710 0.930 . S
C696 H684 0.930 . S
C696 C697 1.399 . S
C696 C701 1.399 . S
C697 C696 1.399 . S
C697 C698 1.376 . S
C698 H685 0.930 1_455 S
C698 C697 1.376 . S
C698 C699 1.384 1_455 S
C699 H686 0.951 . S
C699 C698 1.384 1_655 S
C699 C700 1.373 1_655 S
C700 C699 1.373 1_455 S
C700 C701 1.394 . S
C700 C706 1.465 . S
C701 C696 1.399 . S
C701 C700 1.394 . S
C701 C702 1.516 . S
C702 C701 1.516 . S
C702 C703 1.502 . S
C702 C704 1.561 . S
C702 C705 1.526 . S
C703 H687 0.959 . S
C703 H688 0.959 . S
C703 H689 0.961 . S
C703 C702 1.502 . S
C704 H690 0.960 . S
C704 H691 0.961 . S
C704 H692 0.959 . S
C704 C702 1.561 . S
C705 C702 1.526 . S
C705 C706 1.396 . S
C705 C710 1.390 . S
C706 C700 1.465 . S
C706 C705 1.396 . S
C706 C707 1.399 . S
C707 H693 0.929 1_455 S
C707 C706 1.399 . S
C707 C708 1.385 . S
C708 H694 0.931 1_455 S
C708 C707 1.385 . S
C708 C709 1.389 . S
C709 C708 1.389 . S
C709 C710 1.387 . S
C710 H695 0.930 . S
C710 C705 1.390 . S
C710 C709 1.387 . S
H711 C723 0.930 . S
H712 C725 0.930 1_565 S
H713 C726 0.930 . S
H714 C730 0.959 . S
H715 C730 0.959 . S
H716 C730 0.961 . S
H717 C731 0.960 . S
H718 C731 0.961 . S
H719 C731 0.959 . S
H720 C734 0.939 . S
H721 C735 0.931 1_565 S
H722 C737 0.930 . S
C723 H711 0.930 . S
C723 C724 1.399 . S
C723 C728 1.399 . S
C724 C723 1.399 . S
C724 C725 1.376 . S
C725 H712 0.930 1_545 S
C725 C724 1.376 . S
C725 C726 1.388 1_545 S
C726 H713 0.930 . S
C726 C725 1.388 1_565 S
C726 C727 1.390 1_565 S
C727 C726 1.390 1_545 S
C727 C728 1.394 . S
C727 C733 1.465 . S
C728 C723 1.399 . S
C728 C727 1.394 . S
C728 C729 1.516 . S
C729 C728 1.516 . S
C729 C730 1.502 . S
C729 C731 1.561 . S
C729 C732 1.526 . S
C730 H714 0.959 . S
C730 H715 0.959 . S
C730 H716 0.961 . S
C730 C729 1.502 . S
C731 H717 0.960 . S
C731 H718 0.961 . S
C731 H719 0.959 . S
C731 C729 1.561 . S
C732 C729 1.526 . S
C732 C733 1.396 . S
C732 C737 1.390 . S
C733 C727 1.465 . S
C733 C732 1.396 . S
C733 C734 1.392 1_545 S
C734 H720 0.939 . S
C734 C733 1.392 1_565 S
C734 C735 1.382 1_565 S
C735 H721 0.931 1_545 S
C735 C734 1.382 1_545 S
C735 C736 1.389 . S
C736 C735 1.389 . S
C736 C737 1.387 . S
C737 H722 0.930 . S
C737 C732 1.390 . S
C737 C736 1.387 . S
H738 C750 0.930 . S
H739 C752 0.930 . S
H740 C753 0.930 . S
H741 C757 0.959 . S
H742 C757 0.959 . S
H743 C757 0.961 . S
H744 C758 0.960 . S
H745 C758 0.961 . S
H746 C758 0.959 . S
H747 C761 0.929 . S
H748 C762 0.931 . S
H749 C764 0.930 . S
C750 H738 0.930 . S
C750 C751 1.399 . S
C750 C755 1.399 . S
C751 C750 1.399 . S
C751 C752 1.376 . S
C752 H739 0.930 . S
C752 C751 1.376 . S
C752 C753 1.388 . S
C753 H740 0.930 . S
C753 C752 1.388 . S
C753 C754 1.390 . S
C754 C753 1.390 . S
C754 C755 1.394 . S
C754 C760 1.465 . S
C755 C750 1.399 . S
C755 C754 1.394 . S
C755 C756 1.516 . S
C756 C755 1.516 . S
C756 C757 1.502 . S
C756 C758 1.561 . S
C756 C759 1.526 . S
C757 H741 0.959 . S
C757 H742 0.959 . S
C757 H743 0.961 . S
C757 C756 1.502 . S
C758 H744 0.960 . S
C758 H745 0.961 . S
C758 H746 0.959 . S
C758 C756 1.561 . S
C759 C756 1.526 . S
C759 C760 1.396 . S
C759 C764 1.390 . S
C760 C754 1.465 . S
C760 C759 1.396 . S
C760 C761 1.399 . S
C761 H747 0.929 . S
C761 C760 1.399 . S
C761 C762 1.385 . S
C762 H748 0.931 . S
C762 C761 1.385 . S
C762 C763 1.389 . S
C763 C762 1.389 . S
C763 C764 1.387 . S
C764 H749 0.930 . S
C764 C759 1.390 . S
C764 C763 1.387 . S
H765 C777 0.930 . S
H766 C779 0.930 . S
H767 C780 0.930 . S
H768 C784 0.959 . S
H769 C784 0.959 . S
H770 C784 0.961 . S
H771 C785 0.960 . S
H772 C785 0.961 . S
H773 C785 0.959 . S
H774 C788 0.929 . S
H775 C789 0.931 . S
H776 C791 0.930 . S
C777 H765 0.930 . S
C777 C778 1.399 1_565 S
C777 C782 1.399 . S
C778 C777 1.399 1_545 S
C778 C779 1.376 . S
C779 H766 0.930 . S
C779 C778 1.376 . S
C779 C780 1.388 . S
C780 H767 0.930 . S
C780 C779 1.388 . S
C780 C781 1.390 . S
C781 C780 1.390 . S
C781 C782 1.394 1_545 S
C781 C787 1.465 . S
C782 C777 1.399 . S
C782 C781 1.394 1_565 S
C782 C783 1.516 . S
C783 C782 1.516 . S
C783 C784 1.502 . S
C783 C785 1.561 . S
C783 C786 1.526 . S
C784 H768 0.959 . S
C784 H769 0.959 . S
C784 H770 0.961 . S
C784 C783 1.502 . S
C785 H771 0.960 . S
C785 H772 0.961 . S
C785 H773 0.959 . S
C785 C783 1.561 . S
C786 C783 1.526 . S
C786 C787 1.396 1_565 S
C786 C791 1.390 . S
C787 C781 1.465 . S
C787 C786 1.396 1_545 S
C787 C788 1.399 . S
C788 H774 0.929 . S
C788 C787 1.399 . S
C788 C789 1.385 . S
C789 H775 0.931 . S
C789 C788 1.385 . S
C789 C790 1.389 1_545 S
C790 C789 1.389 1_565 S
C790 C791 1.387 . S
C791 H776 0.930 . S
C791 C786 1.390 . S
C791 C790 1.387 . S
H792 C804 0.930 . S
H793 C806 0.930 . S
H794 C807 0.930 . S
H795 C811 0.959 . S
H796 C811 0.959 . S
H797 C811 0.961 . S
H798 C812 0.960 . S
H799 C812 0.961 . S
H800 C812 0.959 . S
H801 C815 0.929 . S
H802 C816 0.931 . S
H803 C818 0.930 . S
C804 H792 0.930 . S
C804 C805 1.399 . S
C804 C809 1.399 . S
C805 C804 1.399 . S
C805 C806 1.376 . S
C806 H793 0.930 . S
C806 C805 1.376 . S
C806 C807 1.388 . S
C807 H794 0.930 . S
C807 C806 1.388 . S
C807 C808 1.390 . S
C808 C807 1.390 . S
C808 C809 1.394 . S
C808 C814 1.465 . S
C809 C804 1.399 . S
C809 C808 1.394 . S
C809 C810 1.516 . S
C810 C809 1.516 . S
C810 C811 1.502 . S
C810 C812 1.561 . S
C810 C813 1.526 . S
C811 H795 0.959 . S
C811 H796 0.959 . S
C811 H797 0.961 . S
C811 C810 1.502 . S
C812 H798 0.960 . S
C812 H799 0.961 . S
C812 H800 0.959 . S
C812 C810 1.561 . S
C813 C810 1.526 . S
C813 C814 1.396 . S
C813 C818 1.390 . S
C814 C808 1.465 . S
C814 C813 1.396 . S
C814 C815 1.399 . S
C815 H801 0.929 . S
C815 C814 1.399 . S
C815 C816 1.385 . S
C816 H802 0.931 . S
C816 C815 1.385 . S
C816 C817 1.389 . S
C817 C816 1.389 . S
C817 C818 1.387 . S
C818 H803 0.930 . S
C818 C813 1.390 . S
C818 C817 1.387 . S
H819 C831 0.930 . S
H820 C833 0.930 . S
H821 C834 0.930 . S
H822 C838 0.959 . S
H823 C838 0.959 . S
H824 C838 0.961 . S
H825 C839 0.960 . S
H826 C839 0.961 . S
H827 C839 0.959 . S
H828 C842 0.929 . S
H829 C843 0.931 . S
H830 C845 0.930 . S
C831 H819 0.930 . S
C831 C832 1.399 . S
C831 C836 1.399 . S
C832 C831 1.399 . S
C832 C833 1.376 1_455 S
C833 H820 0.930 . S
C833 C832 1.376 1_655 S
C833 C834 1.388 . S
C834 H821 0.930 . S
C834 C833 1.388 . S
C834 C835 1.390 . S
C835 C834 1.390 . S
C835 C836 1.394 1_655 S
C835 C841 1.465 . S
C836 C831 1.399 . S
C836 C835 1.394 1_455 S
C836 C837 1.516 . S
C837 C836 1.516 . S
C837 C838 1.502 . S
C837 C839 1.561 . S
C837 C840 1.526 . S
C838 H822 0.959 . S
C838 H823 0.959 . S
C838 H824 0.961 . S
C838 C837 1.502 . S
C839 H825 0.960 . S
C839 H826 0.961 . S
C839 H827 0.959 . S
C839 C837 1.561 . S
C840 C837 1.526 . S
C840 C841 1.396 1_455 S
C840 C845 1.390 . S
C841 C835 1.465 . S
C841 C840 1.396 1_655 S
C841 C842 1.399 . S
C842 H828 0.929 . S
C842 C841 1.399 . S
C842 C843 1.385 . S
C843 H829 0.931 . S
C843 C842 1.385 . S
C843 C844 1.389 . S
C844 C843 1.389 . S
C844 C845 1.387 1_655 S
C845 H830 0.930 . S
C845 C840 1.390 . S
C845 C844 1.387 1_455 S
C373 C25 0.327 . S
C385 C335 0.407 . S
C400 C65 0.264 . S
C412 C242 0.185 . S
C427 C105 0.258 . S
C439 C282 0.296 . S
C454 C4 0.476 . S
C466 C322 0.214 . S
C493 C255 0.448 . S
C481 C44 0.455 . S
C520 C295 0.444 . S
C508 C84 0.368 . S
C535 C60 2.944 . S
C547 C162 2.897 . S
C562 C100 3.143 . S
C574 C202 3.109 . S
C589 C31 3.189 . S
C601 C135 3.092 . S
C628 C175 3.092 . S
C616 C71 3.176 . S
C655 C215 2.926 . S
C643 C111 2.971 . S
C670 C20 2.938 . S
C682 C122 2.910 . S
C709 C221 1.762 1_554 S
C697 C2 1.719 . S
C724 C42 1.749 . S
C736 C141 1.787 . S
C751 C82 1.772 . S
C763 C181 1.790 . S
C790 C301 1.105 . S
C778 C63 1.063 . S
C817 C341 1.131 . S
C805 C103 1.123 . S
C832 C23 1.099 . S
C844 C261 1.102 . S
