# Generated by pormake.
# Topology myd, (4,6)-cn, num edge types: 1
# Building blocks:
#     Node 0, Type 0, BuildingBlock: NAWXER_clean_sbu_0, # of connection points: 4
#     Node 1, Type 0, BuildingBlock: NAWXER_clean_sbu_0, # of connection points: 4
#     Node 2, Type 0, BuildingBlock: NAWXER_clean_sbu_0, # of connection points: 4
#     Node 3, Type 0, BuildingBlock: NAWXER_clean_sbu_0, # of connection points: 4
#     Node 4, Type 0, BuildingBlock: NAWXER_clean_sbu_0, # of connection points: 4
#     Node 5, Type 0, BuildingBlock: NAWXER_clean_sbu_0, # of connection points: 4
#     Node 6, Type 0, BuildingBlock: NAWXER_clean_sbu_0, # of connection points: 4
#     Node 7, Type 0, BuildingBlock: NAWXER_clean_sbu_0, # of connection points: 4
#     Node 8, Type 0, BuildingBlock: NAWXER_clean_sbu_0, # of connection points: 4
#     Node 9, Type 0, BuildingBlock: NAWXER_clean_sbu_0, # of connection points: 4
#     Node 10, Type 0, BuildingBlock: NAWXER_clean_sbu_0, # of connection points: 4
#     Node 11, Type 0, BuildingBlock: NAWXER_clean_sbu_0, # of connection points: 4
#     Node 12, Type 1, BuildingBlock: MIDCAF_clean_sbu_0, # of connection points: 6
#     Node 13, Type 1, BuildingBlock: MIDCAF_clean_sbu_0, # of connection points: 6
#     Node 14, Type 1, BuildingBlock: MIDCAF_clean_sbu_0, # of connection points: 6
#     Node 15, Type 1, BuildingBlock: MIDCAF_clean_sbu_0, # of connection points: 6
#     Node 16, Type 1, BuildingBlock: MIDCAF_clean_sbu_0, # of connection points: 6
#     Node 17, Type 1, BuildingBlock: MIDCAF_clean_sbu_0, # of connection points: 6
#     Node 18, Type 1, BuildingBlock: MIDCAF_clean_sbu_0, # of connection points: 6
#     Node 19, Type 1, BuildingBlock: MIDCAF_clean_sbu_0, # of connection points: 6
#     Edge 20, Type (0, 1), BuildingBlock: KIFKEQ_clean_linker_1, # of connection points: 2
#     Edge 21, Type (0, 1), BuildingBlock: KIFKEQ_clean_linker_1, # of connection points: 2
#     Edge 22, Type (0, 1), BuildingBlock: KIFKEQ_clean_linker_1, # of connection points: 2
#     Edge 23, Type (0, 1), BuildingBlock: KIFKEQ_clean_linker_1, # of connection points: 2
#     Edge 24, Type (0, 1), BuildingBlock: KIFKEQ_clean_linker_1, # of connection points: 2
#     Edge 25, Type (0, 1), BuildingBlock: KIFKEQ_clean_linker_1, # of connection points: 2
#     Edge 26, Type (0, 1), BuildingBlock: KIFKEQ_clean_linker_1, # of connection points: 2
#     Edge 27, Type (0, 1), BuildingBlock: KIFKEQ_clean_linker_1, # of connection points: 2
#     Edge 28, Type (0, 1), BuildingBlock: KIFKEQ_clean_linker_1, # of connection points: 2
#     Edge 29, Type (0, 1), BuildingBlock: KIFKEQ_clean_linker_1, # of connection points: 2
#     Edge 30, Type (0, 1), BuildingBlock: KIFKEQ_clean_linker_1, # of connection points: 2
#     Edge 31, Type (0, 1), BuildingBlock: KIFKEQ_clean_linker_1, # of connection points: 2
#     Edge 32, Type (0, 1), BuildingBlock: KIFKEQ_clean_linker_1, # of connection points: 2
#     Edge 33, Type (0, 1), BuildingBlock: KIFKEQ_clean_linker_1, # of connection points: 2
#     Edge 34, Type (0, 1), BuildingBlock: KIFKEQ_clean_linker_1, # of connection points: 2
#     Edge 35, Type (0, 1), BuildingBlock: KIFKEQ_clean_linker_1, # of connection points: 2
#     Edge 36, Type (0, 1), BuildingBlock: KIFKEQ_clean_linker_1, # of connection points: 2
#     Edge 37, Type (0, 1), BuildingBlock: KIFKEQ_clean_linker_1, # of connection points: 2
#     Edge 38, Type (0, 1), BuildingBlock: KIFKEQ_clean_linker_1, # of connection points: 2
#     Edge 39, Type (0, 1), BuildingBlock: KIFKEQ_clean_linker_1, # of connection points: 2
#     Edge 40, Type (0, 1), BuildingBlock: KIFKEQ_clean_linker_1, # of connection points: 2
#     Edge 41, Type (0, 1), BuildingBlock: KIFKEQ_clean_linker_1, # of connection points: 2
#     Edge 42, Type (0, 1), BuildingBlock: KIFKEQ_clean_linker_1, # of connection points: 2
#     Edge 43, Type (0, 1), BuildingBlock: KIFKEQ_clean_linker_1, # of connection points: 2
#     Edge 44, Type (0, 1), BuildingBlock: KIFKEQ_clean_linker_1, # of connection points: 2
#     Edge 45, Type (0, 1), BuildingBlock: KIFKEQ_clean_linker_1, # of connection points: 2
#     Edge 46, Type (0, 1), BuildingBlock: KIFKEQ_clean_linker_1, # of connection points: 2
#     Edge 47, Type (0, 1), BuildingBlock: KIFKEQ_clean_linker_1, # of connection points: 2
#     Edge 48, Type (0, 1), BuildingBlock: KIFKEQ_clean_linker_1, # of connection points: 2
#     Edge 49, Type (0, 1), BuildingBlock: KIFKEQ_clean_linker_1, # of connection points: 2
#     Edge 50, Type (0, 1), BuildingBlock: KIFKEQ_clean_linker_1, # of connection points: 2
#     Edge 51, Type (0, 1), BuildingBlock: KIFKEQ_clean_linker_1, # of connection points: 2
#     Edge 52, Type (0, 1), BuildingBlock: KIFKEQ_clean_linker_1, # of connection points: 2
#     Edge 53, Type (0, 1), BuildingBlock: KIFKEQ_clean_linker_1, # of connection points: 2
#     Edge 54, Type (0, 1), BuildingBlock: KIFKEQ_clean_linker_1, # of connection points: 2
#     Edge 55, Type (0, 1), BuildingBlock: KIFKEQ_clean_linker_1, # of connection points: 2
#     Edge 56, Type (0, 1), BuildingBlock: KIFKEQ_clean_linker_1, # of connection points: 2
#     Edge 57, Type (0, 1), BuildingBlock: KIFKEQ_clean_linker_1, # of connection points: 2
#     Edge 58, Type (0, 1), BuildingBlock: KIFKEQ_clean_linker_1, # of connection points: 2
#     Edge 59, Type (0, 1), BuildingBlock: KIFKEQ_clean_linker_1, # of connection points: 2
#     Edge 60, Type (0, 1), BuildingBlock: KIFKEQ_clean_linker_1, # of connection points: 2
#     Edge 61, Type (0, 1), BuildingBlock: KIFKEQ_clean_linker_1, # of connection points: 2
#     Edge 62, Type (0, 1), BuildingBlock: KIFKEQ_clean_linker_1, # of connection points: 2
#     Edge 63, Type (0, 1), BuildingBlock: KIFKEQ_clean_linker_1, # of connection points: 2
#     Edge 64, Type (0, 1), BuildingBlock: KIFKEQ_clean_linker_1, # of connection points: 2
#     Edge 65, Type (0, 1), BuildingBlock: KIFKEQ_clean_linker_1, # of connection points: 2
#     Edge 66, Type (0, 1), BuildingBlock: KIFKEQ_clean_linker_1, # of connection points: 2
#     Edge 67, Type (0, 1), BuildingBlock: KIFKEQ_clean_linker_1, # of connection points: 2
# Relax obj value: 0.163
# Max RMSD: 0.104
# Mean RMSD: 0.094
data_MOF--net-myd--node1-NAWXER_clean_sbu_0--node2-MIDCAF_clean_sbu_0--edge1-KIFKEQ_clean_linker_1
_symmetry_space_group_name_H-M    P1
_symmetry_Int_Tables_number       1
_symmetry_cell_setting            triclinic
loop_
_symmetry_equiv_pos_as_xyz
'x, y, z'
_cell_length_a     45.414952
_cell_length_b     45.565277
_cell_length_c     45.409734
_cell_angle_alpha  90.03046
_cell_angle_beta   90.106331
_cell_angle_gamma 90.047027
loop_
_atom_site_label
_atom_site_type_symbol
_atom_site_fract_x
_atom_site_fract_y
_atom_site_fract_z
_atom_type_partial_charge
C0 C 0.96681 0.2245 0.25756 0.0
C1 C 0.97922 0.30485 0.32782 0.0
O2 O 0.9939 0.23081 0.26246 0.0
Zn3 Zn 0.01922 0.26163 0.28818 0.0
O4 O 0.94656 0.23855 0.27073 0.0
Zn5 Zn 0.97282 0.26357 0.2935 0.0
O6 O 0.99053 0.2904 0.25873 0.0
O7 O 0.03862 0.28418 0.25704 0.0
O8 O 0.9557 0.29183 0.32014 0.0
O9 O 1.00402 0.29582 0.31769 0.0
O10 O 0.04223 0.23479 0.31261 0.0
O11 O 0.99472 0.2327 0.32223 0.0
C12 C 0.01547 0.29619 0.24681 0.0
C13 C 0.02104 0.2236 0.32704 0.0
C14 C 1.00091 0.79285 0.26854 0.0
C15 C 0.9936 0.71224 0.19767 0.0
O16 O 0.02579 0.78465 0.25803 0.0
Zn17 Zn 0.043 0.75303 0.22746 0.0
O18 O 0.97736 0.78048 0.25971 0.0
Zn19 Zn 0.99631 0.753 0.23299 0.0
O20 O 0.02074 0.72723 0.26402 0.0
O21 O 0.06799 0.72903 0.2525 0.0
O22 O 0.97273 0.72406 0.21202 0.0
O23 O 0.02004 0.72132 0.20157 0.0
O24 O 0.06114 0.77783 0.19845 0.0
O25 O 0.01261 0.78135 0.19869 0.0
C26 C 0.04751 0.72 0.26923 0.0
C27 C 0.03765 0.78887 0.18801 0.0
C28 C 0.32055 0.02716 0.20057 0.0
C29 C 0.24675 0.01478 0.27887 0.0
O30 O 0.31788 1.00035 0.20882 0.0
Zn31 Zn 0.29494 0.97643 0.24285 0.0
O32 O 0.3072 0.0471 0.21485 0.0
Zn33 Zn 0.28577 0.02193 0.24231 0.0
O34 O 0.31759 0.00914 0.27514 0.0
O35 O 0.32517 0.96181 0.26936 0.0
O36 O 0.25472 0.03876 0.26692 0.0
O37 O 0.26012 0.99093 0.27197 0.0
O38 O 0.27295 0.94824 0.21976 0.0
O39 O 0.25968 0.99451 0.21295 0.0
C40 C 0.33067 0.98547 0.28306 0.0
C41 C 0.25687 0.96711 0.20682 0.0
C42 C 0.76842 0.51242 0.22112 0.0
C43 C 0.69248 0.52045 0.29631 0.0
O44 O 0.75875 0.48756 0.23018 0.0
Zn45 Zn 0.72756 0.47041 0.2612 0.0
O46 O 0.75822 0.53607 0.23197 0.0
Zn47 Zn 0.73113 0.51722 0.25894 0.0
O48 O 0.76163 0.49643 0.28785 0.0
O49 O 0.75259 0.44881 0.28872 0.0
O50 O 0.70734 0.54114 0.28491 0.0
O51 O 0.69785 0.49379 0.2891 0.0
O52 O 0.7014 0.44926 0.23498 0.0
O53 O 0.69984 0.49745 0.22925 0.0
C54 C 0.76775 0.47067 0.29728 0.0
C55 C 0.69088 0.47169 0.22204 0.0
C56 C 0.21622 0.33577 0.98869 0.0
C57 C 0.28648 0.25497 0.97987 0.0
O58 O 0.22283 0.32274 0.96478 0.0
Zn59 Zn 0.25168 0.29601 0.98153 0.0
O60 O 0.22824 0.32798 0.01296 0.0
Zn61 Zn 0.25859 0.29667 0.02913 0.0
O62 O 0.29052 0.32053 0.04478 0.0
O63 O 0.28554 0.32429 0.99643 0.0
O64 O 0.28231 0.26451 0.00597 0.0
O65 O 0.27374 0.26738 0.95816 0.0
O66 O 0.22448 0.26764 0.00604 0.0
O67 O 0.23395 0.27148 0.0536 0.0
C68 C 0.29856 0.33162 0.02035 0.0
C69 C 0.21954 0.2597 0.03256 0.0
C70 C 0.22618 0.76686 0.52143 0.0
C71 C 0.30819 0.69665 0.52844 0.0
O72 O 0.23306 0.75489 0.49674 0.0
Zn73 Zn 0.26407 0.72262 0.47978 0.0
O74 O 0.23941 0.75886 0.54486 0.0
Zn75 Zn 0.26515 0.73049 0.52585 0.0
O76 O 0.28982 0.7607 0.499 0.0
O77 O 0.28652 0.74693 0.45243 0.0
O78 O 0.29548 0.71044 0.54911 0.0
O79 O 0.29822 0.69918 0.50213 0.0
O80 O 0.23823 0.69247 0.46414 0.0
O81 O 0.23327 0.69789 0.51211 0.0
C82 C 0.29598 0.76482 0.47176 0.0
C83 C 0.22518 0.68568 0.4879 0.0
C84 C 0.70431 0.83249 0.52983 0.0
C85 C 0.78247 0.75805 0.52916 0.0
O86 O 0.71323 0.82672 0.50359 0.0
Zn87 Zn 0.74825 0.80066 0.48362 0.0
O88 O 0.71838 0.82192 0.55158 0.0
Zn89 Zn 0.74655 0.79821 0.52985 0.0
O90 O 0.77917 0.82884 0.51408 0.0
O91 O 0.77673 0.82754 0.46579 0.0
O92 O 0.77107 0.77034 0.55155 0.0
O93 O 0.77584 0.76732 0.50331 0.0
O94 O 0.72537 0.77554 0.45787 0.0
O95 O 0.71752 0.76839 0.5054 0.0
C96 C 0.78873 0.83752 0.48898 0.0
C97 C 0.71193 0.762 0.47836 0.0
C98 C 0.4869 0.79212 0.76156 0.0
C99 C 0.50244 0.71303 0.83404 0.0
O100 O 0.46621 0.77753 0.77369 0.0
Zn101 Zn 0.49151 0.75327 0.79923 0.0
O102 O 0.51353 0.78749 0.76935 0.0
Zn103 Zn 0.53907 0.76076 0.79734 0.0
O104 O 0.56178 0.73936 0.76747 0.0
O105 O 0.5141 0.72999 0.76636 0.0
O106 O 0.52578 0.72654 0.82594 0.0
O107 O 0.47749 0.72089 0.82386 0.0
O108 O 0.50788 0.78432 0.82993 0.0
O109 O 0.55583 0.79015 0.8237 0.0
C110 C 0.53985 0.72629 0.75574 0.0
C111 C 0.53213 0.79679 0.83709 0.0
C112 C 0.53223 0.22357 0.75842 0.0
C113 C 0.52327 0.30164 0.68524 0.0
O114 O 0.50537 0.22856 0.7512 0.0
Zn115 Zn 0.48138 0.25835 0.72297 0.0
O116 O 0.55273 0.23859 0.74684 0.0
Zn117 Zn 0.52751 0.26204 0.72156 0.0
O118 O 0.50609 0.2897 0.75366 0.0
O119 O 0.4585 0.28024 0.75173 0.0
O120 O 0.54628 0.2903 0.69631 0.0
O121 O 0.49788 0.29178 0.69291 0.0
O122 O 0.46061 0.23112 0.69786 0.0
O123 O 0.5087 0.22953 0.69158 0.0
C124 C 0.47989 0.29417 0.76315 0.0
C125 C 0.48283 0.2199 0.68519 0.0
C126 C 0.74572 0.48581 0.72132 0.0
C127 C 0.82272 0.49433 0.79531 0.0
O128 O 0.75175 0.51256 0.72786 0.0
Zn129 Zn 0.78228 0.5365 0.75528 0.0
O130 O 0.7612 0.46519 0.73205 0.0
Zn131 Zn 0.7857 0.49006 0.75652 0.0
O132 O 0.75287 0.50937 0.78484 0.0
O133 O 0.75495 0.55763 0.78039 0.0
O134 O 0.81212 0.47129 0.78366 0.0
O135 O 0.81372 0.51959 0.78658 0.0
O136 O 0.80532 0.55855 0.72697 0.0
O137 O 0.81428 0.511 0.72535 0.0
C138 C 0.74312 0.53494 0.7916 0.0
C139 C 0.81935 0.53708 0.71603 0.0
C140 C 0.25834 0.03575 0.73623 0.0
C141 C 0.18672 0.03499 0.81677 0.0
O142 O 0.24955 0.00981 0.74299 0.0
Zn143 Zn 0.21766 0.98942 0.77225 0.0
O144 O 0.24614 0.05791 0.74812 0.0
Zn145 Zn 0.21984 0.03559 0.7734 0.0
O146 O 0.25257 0.01195 0.79948 0.0
O147 O 0.24399 0.96437 0.79463 0.0
O148 O 0.197 0.05674 0.80268 0.0
O149 O 0.19241 0.00894 0.8076 0.0
O150 O 0.19028 0.97091 0.74482 0.0
O151 O 0.18861 0.01903 0.74166 0.0
C152 C 0.2594 0.98518 0.80527 0.0
C153 C 0.17993 0.99376 0.73267 0.0
C154 C 0.71982 0.19093 1.00074 0.0
C155 C 0.79634 0.26589 1.00311 0.0
O156 O 0.72813 0.19689 0.02716 0.0
Zn157 Zn 0.7598 0.22563 0.04836 0.0
O158 O 0.73211 0.20378 0.97919 0.0
Zn159 Zn 0.75867 0.22775 1.0017 0.0
O160 O 0.78946 0.19644 0.01976 0.0
O161 O 0.78655 0.19919 0.06819 0.0
O162 O 0.78353 0.25526 0.98061 0.0
O163 O 0.78953 0.25647 0.0288 0.0
O164 O 0.73555 0.25157 0.07207 0.0
O165 O 0.7288 0.25665 0.02413 0.0
C166 C 0.79803 0.18794 0.04534 0.0
C167 C 0.7224 0.26383 0.05065 0.0
Zn168 Zn 0.06237 0.0559 0.11629 0.0
Zn169 Zn 0.01396 0.01206 0.02144 0.0
Zn170 Zn 0.04165 0.03991 0.06689 0.0
C171 C 0.06443 0.04323 0.99974 0.0
C172 C 0.0293 0.9696 0.06335 0.0
O173 O 0.00855 0.06792 0.09129 0.0
O174 O 0.02875 0.07422 0.13521 0.0
C175 C 0.09391 0.08331 0.06885 0.0
O176 O 0.06656 0.05255 0.0265 0.0
O177 O 0.04452 0.02514 0.9926 0.0
O178 O 0.01527 0.97146 0.03934 0.0
O179 O 0.0412 0.99261 0.07479 0.0
O180 O 0.09142 0.08176 0.09651 0.0
O181 O 0.07689 0.0683 0.05195 0.0
O182 O 0.06492 1.00409 0.09258 0.0
O183 O 0.0791 0.02183 0.13564 0.0
C184 C 0.07846 1.00097 0.11748 0.0
O185 O 0.99579 0.05624 0.06556 0.0
O186 O 0.9776 0.03666 0.0247 0.0
C187 C 0.00751 0.07811 0.11782 0.0
C188 C 0.97478 0.05356 0.0466 0.0
Zn189 Zn 0.00724 0.51597 1.00467 0.0
Zn190 Zn 0.92338 0.41237 0.09014 0.0
Zn191 Zn 0.9782 0.47883 0.03463 0.0
C192 C 0.93815 0.48202 0.08533 0.0
C193 C 0.93128 0.43566 0.02368 0.0
O194 O 0.02257 0.46122 0.0364 0.0
O195 O 0.04512 0.49355 0.00798 0.0
C196 C 0.98267 0.54677 0.05253 0.0
O197 O 0.95341 0.50005 0.0701 0.0
O198 O 0.94031 0.45486 0.07841 0.0
O199 O 0.93591 0.43604 0.05145 0.0
O200 O 0.94568 0.45424 0.00828 0.0
O201 O 0.99972 0.55049 0.03086 0.0
O202 O 0.97147 0.52126 0.05737 0.0
O203 O 0.95831 0.47607 0.99044 0.0
O204 O 0.98301 0.51126 0.96797 0.0
C205 C 0.96316 0.49176 0.96738 0.0
O206 O 1.00564 0.44476 0.05711 0.0
O207 O 0.96216 0.43097 0.07137 0.0
C208 C 0.0458 0.47018 0.023 0.0
C209 C 0.98997 0.4269 0.07223 0.0
Zn210 Zn 0.01053 0.01014 0.50814 0.0
Zn211 Zn 0.10268 0.91642 0.4229 0.0
Zn212 Zn 0.04256 0.97841 0.47765 0.0
C213 C 0.09191 0.93753 0.48927 0.0
C214 C 0.03421 0.92752 0.43869 0.0
O215 O 0.04745 0.02155 0.45557 0.0
O216 O 0.01008 0.04289 0.47797 0.0
C217 C 0.05804 0.99329 0.54458 0.0
O218 O 0.0758 0.95449 0.50494 0.0
O219 O 0.0868 0.93766 0.4616 0.0
O220 O 0.0619 0.9324 0.44061 0.0
O221 O 0.01747 0.94428 0.45387 0.0
O222 O 0.03833 0.01284 0.54295 0.0
O223 O 0.06191 0.97562 0.52275 0.0
O224 O 0.99777 0.95823 0.47327 0.0
O225 O 0.97614 0.98169 0.50982 0.0
C226 C 0.97537 0.96186 0.4903 0.0
O227 O 0.06851 1.00207 0.44295 0.0
O228 O 0.08318 0.95735 0.43535 0.0
C229 C 0.02977 0.04347 0.45825 0.0
C230 C 0.08569 0.98459 0.42906 0.0
Zn231 Zn 0.94321 0.58282 0.44168 0.0
Zn232 Zn 1.00287 0.516 0.50687 0.0
Zn233 Zn 0.97056 0.55317 0.4735 0.0
C234 C 0.98035 0.48289 0.46006 0.0
C235 C 0.0404 0.56194 0.48727 0.0
O236 O 0.93794 0.57953 0.49966 0.0
O237 O 0.93624 0.61658 0.46861 0.0
C238 C 0.91966 0.5301 0.43257 0.0
O239 O 0.96823 0.50792 0.45443 0.0
O240 O 0.99708 0.48003 0.48213 0.0
O241 O 0.0407 0.53917 0.50322 0.0
O242 O 0.01652 0.56978 0.47403 0.0
O243 O 0.90946 0.55575 0.43446 0.0
O244 O 0.94581 0.52477 0.44222 0.0
O245 O 1.00149 0.58234 0.44994 0.0
O246 O 0.97372 0.58665 0.41043 0.0
C247 C 0.99847 0.5896 0.42272 0.0
O248 O 0.95073 0.55697 0.51735 0.0
O249 O 0.97531 0.5222 0.54097 0.0
C250 C 0.93028 0.60614 0.49362 0.0
C251 C 0.95512 0.54134 0.54053 0.0
Zn252 Zn 0.4023 0.9504 0.55908 0.0
Zn253 Zn 0.49297 1.00068 0.51215 0.0
Zn254 Zn 0.45035 0.97197 0.54231 0.0
C255 C 0.45116 0.98481 0.47058 0.0
C256 C 0.46919 0.03967 0.55513 0.0
O257 O 0.46685 0.93556 0.56901 0.0
O258 O 0.42286 0.92077 0.58371 0.0
C259 C 0.39734 0.93765 0.50365 0.0
O260 O 0.44009 0.97417 0.49448 0.0
O261 O 0.47588 0.99753 0.47123 0.0
O262 O 0.48804 0.03825 0.5347 0.0
O263 O 0.45271 0.01726 0.56081 0.0
O264 O 0.38096 0.93478 0.52574 0.0
O265 O 0.42231 0.95115 0.50612 0.0
O266 O 0.42759 1.00311 0.57393 0.0
O267 O 0.38359 0.98301 0.57918 0.0
C268 C 0.40121 1.00363 0.5846 0.0
O269 O 0.49155 0.94693 0.55218 0.0
O270 O 0.52385 0.9722 0.5258 0.0
C271 C 0.45056 0.91824 0.58433 0.0
C272 C 0.51807 0.95099 0.54283 0.0
Zn273 Zn 0.51252 0.51666 0.50843 0.0
Zn274 Zn 0.60455 0.55966 0.55009 0.0
Zn275 Zn 0.55339 0.5464 0.53706 0.0
C276 C 0.60215 0.50864 0.57613 0.0
C277 C 0.60824 0.58092 0.49897 0.0
O278 O 0.51337 0.57157 0.54908 0.0
O279 O 0.48279 0.54687 0.5203 0.0
C280 C 0.53244 0.47805 0.55033 0.0
O281 O 0.57543 0.51309 0.56724 0.0
O282 O 0.62223 0.52622 0.56907 0.0
O283 O 0.62756 0.57513 0.51793 0.0
O284 O 0.58159 0.57116 0.50249 0.0
O285 O 0.51315 0.47902 0.53033 0.0
O286 O 0.54944 0.50043 0.55481 0.0
O287 O 0.56329 0.54762 0.48993 0.0
O288 O 0.5315 0.51739 0.46889 0.0
C289 C 0.55359 0.53411 0.46702 0.0
O290 O 0.54008 0.58212 0.56448 0.0
O291 O 0.58664 0.59085 0.57592 0.0
C292 C 0.48738 0.5676 0.53835 0.0
C293 C 0.55957 0.59697 0.57853 0.0
Zn294 Zn 0.51599 0.50148 0.00979 0.0
Zn295 Zn 0.57897 0.43349 0.9402 0.0
Zn296 Zn 0.54519 0.4657 0.9736 0.0
C297 C 0.60078 0.42488 0.99545 0.0
C298 C 0.52139 0.41251 0.9329 0.0
O299 O 0.54468 0.51161 0.95575 0.0
O300 O 0.51743 0.53781 0.98641 0.0
C301 C 0.56173 0.47782 0.04236 0.0
O302 O 0.57882 0.44202 1.00085 0.0
O303 O 0.60708 0.41803 0.96932 0.0
O304 O 0.54762 0.40705 0.92564 0.0
O305 O 0.51563 0.43373 0.95079 0.0
O306 O 0.54282 0.49802 0.04403 0.0
O307 O 0.56454 0.46272 0.01851 0.0
O308 O 0.50049 0.44812 0.97421 0.0
O309 O 0.4798 0.47687 0.00766 0.0
C310 C 0.47829 0.45526 0.99024 0.0
O311 O 0.56597 0.49527 0.94079 0.0
O312 O 0.59261 0.46487 0.9137 0.0
C313 C 0.53214 0.53603 0.96295 0.0
C314 C 0.58378 0.4905 0.91928 0.0
Zn315 Zn 0.50274 0.01749 1.0036 0.0
Zn316 Zn 0.45974 0.06112 0.91631 0.0
Zn317 Zn 0.47714 0.04398 0.95917 0.0
C318 C 0.51289 0.07253 0.90599 0.0
C319 C 0.43358 0.01086 0.9152 0.0
O320 O 0.44919 0.05507 0.99799 0.0
O321 O 0.47173 0.02921 0.03259 0.0
C322 C 0.54274 0.0592 0.98109 0.0
O323 O 0.50937 0.07274 0.93424 0.0
O324 O 0.4946 0.05871 0.89035 0.0
O325 O 0.42624 0.03607 0.9067 0.0
O326 O 0.45611 0.00785 0.93228 0.0
O327 O 0.53977 0.04094 1.00182 0.0
O328 O 0.52181 0.06286 0.96227 0.0
O329 O 0.47968 0.99687 0.94837 0.0
O330 O 0.50385 0.9772 0.98583 0.0
C331 C 0.4923 0.97462 0.96062 0.0
O332 O 0.44134 0.07302 0.97272 0.0
O333 O 0.44974 0.09988 0.93341 0.0
C334 C 0.45098 0.04603 0.02484 0.0
C335 C 0.43765 0.09701 0.95825 0.0
H336 H 0.06407 0.18123 0.32564 0.0
H337 H 0.98871 0.20999 0.37548 0.0
H338 H 0.06773 0.13737 0.35647 0.0
H339 H 0.99331 0.16759 0.40747 0.0
H340 H 0.98358 0.07572 0.43937 0.0
H341 H 0.98348 0.11866 0.40809 0.0
H342 H 0.07833 0.11363 0.40091 0.0
H343 H 0.07791 0.06908 0.43125 0.0
C344 C 0.04868 0.17848 0.34362 0.0
C345 C 0.02593 0.19896 0.34796 0.0
C346 C 0.0508 0.15331 0.36143 0.0
C347 C 0.03049 0.14827 0.38437 0.0
C348 C 0.00877 0.16979 0.38949 0.0
C349 C 0.00627 0.19446 0.37132 0.0
C350 C 1.00445 0.08371 0.43106 0.0
C351 C 0.03076 0.06904 0.43793 0.0
C352 C 1.00449 0.10869 0.41326 0.0
C353 C 0.03097 0.12046 0.40227 0.0
C354 C 0.0574 0.10538 0.40871 0.0
C355 C 0.05725 0.07982 0.42617 0.0
H356 H 0.0201 0.34851 0.33342 0.0
H357 H 0.93541 0.32047 0.36617 0.0
H358 H 0.01757 0.39232 0.36449 0.0
H359 H 0.93328 0.36407 0.39777 0.0
H360 H 0.968 0.42645 0.47525 0.0
H361 H 0.96574 0.38349 0.44273 0.0
H362 H 0.98281 0.43908 0.36777 0.0
H363 H 0.98464 0.48209 0.40033 0.0
C364 C 1.00103 0.35159 0.34738 0.0
C365 C 0.97799 0.33096 0.34737 0.0
C366 C 0.9995 0.37679 0.36498 0.0
C367 C 0.97518 0.38163 0.38344 0.0
C368 C 0.95229 0.36085 0.38376 0.0
C369 C 0.95351 0.33595 0.36566 0.0
C370 C 0.97077 0.42947 0.45176 0.0
C371 C 0.97604 0.45756 0.44017 0.0
C372 C 0.96943 0.40495 0.43318 0.0
C373 C 0.97414 0.40796 0.40275 0.0
C374 C 0.97916 0.43614 0.39115 0.0
C375 C 0.9799 0.46073 0.40968 0.0
H376 H 0.99498 0.80337 0.14831 0.0
H377 H 0.08301 0.82635 0.17631 0.0
H378 H 0.99481 0.84518 0.11438 0.0
H379 H 0.08236 0.86858 0.14295 0.0
H380 H 0.03494 0.96083 0.12231 0.0
H381 H 0.04111 0.91465 0.14838 0.0
H382 H 0.03002 0.86724 0.0669 0.0
H383 H 0.02613 0.91401 0.04007 0.0
C384 C 0.0144 0.81712 0.14691 0.0
C385 C 0.03896 0.81174 0.16503 0.0
C386 C 0.01433 0.84085 0.12742 0.0
C387 C 0.03856 0.85989 0.12619 0.0
C388 C 0.06349 0.85402 0.14353 0.0
C389 C 0.06384 0.8299 0.16254 0.0
C390 C 0.03509 0.94073 0.10966 0.0
C391 C 0.03145 0.94117 0.07894 0.0
C392 C 0.03819 0.91428 0.12469 0.0
C393 C 0.03656 0.88758 0.10949 0.0
C394 C 0.0317 0.8877 0.07894 0.0
C395 C 0.02937 0.91436 0.0637 0.0
H396 H 0.03072 0.69306 0.15516 0.0
H397 H 0.94415 0.6776 0.19141 0.0
H398 H 0.02307 0.65382 0.11984 0.0
H399 H 0.93656 0.63772 0.15564 0.0
H400 H 0.96262 0.54532 0.10973 0.0
H401 H 0.96062 0.58637 0.14452 0.0
H402 H 0.98967 0.6453 0.07607 0.0
H403 H 0.99137 0.60468 0.04136 0.0
C404 C 0.00999 0.68129 0.15559 0.0
C405 C 0.98803 0.68848 0.17611 0.0
C406 C 1.00555 0.6589 0.13518 0.0
C407 C 0.97913 0.64289 0.13484 0.0
C408 C 0.95713 0.64977 0.15546 0.0
C409 C 0.96143 0.67261 0.17578 0.0
C410 C 0.96777 0.56715 0.10191 0.0
C411 C 0.97731 0.57168 0.0728 0.0
C412 C 0.96667 0.59064 0.12186 0.0
C413 C 0.97534 0.61892 0.11305 0.0
C414 C 0.98329 0.62364 0.08357 0.0
C415 C 0.98425 0.60034 0.0637 0.0
H416 H 0.33232 0.99099 0.1543 0.0
H417 H 0.34702 0.07937 0.18536 0.0
H418 H 0.3601 1.00191 0.10961 0.0
H419 H 0.37567 0.09003 0.14073 0.0
H420 H 0.46053 0.06759 0.07956 0.0
H421 H 0.42612 0.06755 0.12094 0.0
H422 H 0.35688 0.03749 0.06314 0.0
H423 H 0.39132 0.03843 0.02139 0.0
C424 C 0.34155 0.01275 0.15162 0.0
C425 C 0.33762 0.03424 0.17353 0.0
C426 C 0.3572 0.01908 0.12585 0.0
C427 C 0.36987 0.04689 0.12154 0.0
C428 C 0.36603 0.06844 0.14341 0.0
C429 C 0.3497 0.06232 0.16895 0.0
C430 C 0.43767 0.06206 0.0755 0.0
C431 C 0.42849 0.0533 0.04724 0.0
C432 C 0.418 0.06196 0.0992 0.0
C433 C 0.38887 0.0523 0.09534 0.0
C434 C 0.37925 0.04495 0.06675 0.0
C435 C 0.39882 0.04577 0.04282 0.0
H436 H 0.64971 0.51128 0.20555 0.0
H437 H 0.68397 0.42573 0.18348 0.0
H438 H 0.61824 0.51003 0.16234 0.0
H439 H 0.65321 0.42492 0.13904 0.0
H440 H 0.57364 0.42753 0.07316 0.0
H441 H 0.60415 0.42314 0.1177 0.0
H442 H 0.62565 0.51542 0.11139 0.0
H443 H 0.59475 0.51957 0.06785 0.0
C444 C 0.65045 0.49215 0.19139 0.0
C445 C 0.66947 0.46874 0.1977 0.0
C446 C 0.6326 0.49151 0.16643 0.0
C447 C 0.63372 0.46771 0.14671 0.0
C448 C 0.65178 0.44359 0.15373 0.0
C449 C 0.6694 0.44404 0.17914 0.0
C450 C 0.58546 0.44656 0.08117 0.0
C451 C 0.58212 0.47381 0.06721 0.0
C452 C 0.60277 0.44417 0.10669 0.0
C453 C 0.61694 0.46906 0.11851 0.0
C454 C 0.61437 0.49598 0.10355 0.0
C455 C 0.59691 0.49836 0.07843 0.0
H456 H 0.3723 0.94459 0.2987 0.0
H457 H 0.33304 0.02611 0.32715 0.0
H458 H 0.40244 0.94363 0.34362 0.0
H459 H 0.36263 0.02471 0.3721 0.0
H460 H 0.39182 0.98895 0.46342 0.0
H461 H 0.36378 0.98855 0.4174 0.0
H462 H 0.44427 0.97723 0.36838 0.0
H463 H 0.47248 0.9779 0.41461 0.0
C464 C 0.37019 0.96233 0.31444 0.0
C465 C 0.3503 0.98546 0.3093 0.0
C466 C 0.38747 0.9618 0.34008 0.0
C467 C 0.38473 0.98401 0.36139 0.0
C468 C 0.36502 0.00719 0.35615 0.0
C469 C 0.34823 0.00806 0.3303 0.0
C470 C 0.40351 0.986 0.44286 0.0
C471 C 0.43431 0.98316 0.44262 0.0
C472 C 0.38748 0.98605 0.41652 0.0
C473 C 0.40186 0.98292 0.38932 0.0
C474 C 0.43263 0.97953 0.38905 0.0
C475 C 0.44875 0.98003 0.41544 0.0
H476 H 0.69035 0.56441 0.33742 0.0
H477 H 0.64201 0.48994 0.30393 0.0
H478 H 0.6544 0.56989 0.3771 0.0
H479 H 0.60518 0.49634 0.3421 0.0
H480 H 0.57017 0.48753 0.43477 0.0
H481 H 0.60196 0.48678 0.39193 0.0
H482 H 0.60638 0.58167 0.39354 0.0
H483 H 0.57489 0.58193 0.43734 0.0
C484 C 0.67166 0.54965 0.33822 0.0
C485 C 0.66913 0.52648 0.31799 0.0
C486 C 0.65095 0.55284 0.36083 0.0
C487 C 0.62705 0.53323 0.36322 0.0
C488 C 0.62374 0.51126 0.34167 0.0
C489 C 0.64473 0.50768 0.31961 0.0
C490 C 0.57772 0.50821 0.42572 0.0
C491 C 0.57052 0.53477 0.43944 0.0
C492 C 0.59585 0.50787 0.40102 0.0
C493 C 0.60678 0.53419 0.389 0.0
C494 C 0.59884 0.56094 0.40241 0.0
C495 C 0.5809 0.56118 0.42748 0.0
H496 H 0.21688 0.3843 0.02275 0.0
H497 H 0.16418 0.33803 0.95851 0.0
H498 H 0.17609 0.41797 0.03203 0.0
H499 H 0.12294 0.37153 0.96831 0.0
H500 H 0.04918 0.41068 0.02901 0.0
H501 H 0.09167 0.37956 0.01805 0.0
H502 H 0.14457 0.45663 1.00211 0.0
H503 H 0.10206 0.48782 0.01253 0.0
C504 C 0.19668 0.38171 0.01027 0.0
C505 C 0.19357 0.35874 0.98985 0.0
C506 C 0.1734 0.40088 0.01564 0.0
C507 C 0.14641 0.39702 1.00113 0.0
C508 C 0.14356 0.37467 0.97995 0.0
C509 C 0.16715 0.35581 0.97409 0.0
C510 C 0.07 0.42099 0.02369 0.0
C511 C 0.07237 0.45167 0.02165 0.0
C512 C 0.09413 0.40319 0.01703 0.0
C513 C 0.12111 0.4158 0.00882 0.0
C514 C 0.12389 0.44645 0.00823 0.0
C515 C 0.09965 0.46423 0.01431 0.0
H516 H 0.18048 0.68311 0.52782 0.0
H517 H 0.2105 0.64412 0.44654 0.0
H518 H 0.13568 0.6534 0.52553 0.0
H519 H 0.16583 0.61374 0.44479 0.0
H520 H 0.09688 0.54239 0.48184 0.0
H521 H 0.14215 0.57184 0.48052 0.0
H522 H 0.09046 0.65098 0.48688 0.0
H523 H 0.04519 0.62152 0.4877 0.0
C524 C 0.17771 0.66793 0.50965 0.0
C525 C 0.19914 0.66591 0.4874 0.0
C526 C 0.15194 0.65112 0.50825 0.0
C527 C 0.14725 0.6314 0.48491 0.0
C528 C 0.16893 0.62877 0.46302 0.0
C529 C 0.19446 0.64614 0.46404 0.0
C530 C 0.09524 0.5661 0.48261 0.0
C531 C 0.06756 0.57975 0.48454 0.0
C532 C 0.12108 0.58291 0.48176 0.0
C533 C 0.11978 0.61366 0.48364 0.0
C534 C 0.09208 0.6273 0.48544 0.0
C535 C 0.06621 0.61051 0.48563 0.0
H536 H 0.82911 0.84239 0.44437 0.0
H537 H 0.80784 0.87711 0.53005 0.0
H538 H 0.87446 0.87103 0.44388 0.0
H539 H 0.85187 0.90739 0.52893 0.0
H540 H 0.94543 0.93785 0.53583 0.0
H541 H 0.9012 0.90798 0.53458 0.0
H542 H 0.89972 0.91432 0.43948 0.0
H543 H 0.94535 0.94282 0.44115 0.0
C544 C 0.83385 0.85664 0.46288 0.0
C545 C 0.81486 0.85732 0.48732 0.0
C546 C 0.85994 0.87328 0.4626 0.0
C547 C 0.86755 0.89162 0.48651 0.0
C548 C 0.84774 0.893 0.51042 0.0
C549 C 0.82209 0.87584 0.51098 0.0
C550 C 0.93574 0.9326 0.51464 0.0
C551 C 0.94903 0.94248 0.48857 0.0
C552 C 0.90999 0.91569 0.51385 0.0
C553 C 0.89605 0.90877 0.48693 0.0
C554 C 0.90966 0.91858 0.46073 0.0
C555 C 0.93595 0.93498 0.46156 0.0
H556 H 0.34476 0.69611 0.57717 0.0
H557 H 0.33225 0.65595 0.49186 0.0
H558 H 0.38931 0.66621 0.58466 0.0
H559 H 0.37607 0.62628 0.4995 0.0
H560 H 0.4299 0.55286 0.53545 0.0
H561 H 0.38737 0.58489 0.53681 0.0
H562 H 0.44332 0.6584 0.55837 0.0
H563 H 0.48679 0.62587 0.55685 0.0
C564 C 0.35138 0.68087 0.56012 0.0
C565 C 0.33476 0.6783 0.53398 0.0
C566 C 0.37699 0.66397 0.56433 0.0
C567 C 0.38611 0.64384 0.54272 0.0
C568 C 0.36949 0.64142 0.51668 0.0
C569 C 0.34434 0.65849 0.5123 0.0
C570 C 0.43333 0.57577 0.54088 0.0
C571 C 0.46191 0.58688 0.54547 0.0
C572 C 0.40885 0.59413 0.54161 0.0
C573 C 0.41203 0.62424 0.54708 0.0
C574 C 0.44026 0.63523 0.55397 0.0
C575 C 0.4651 0.61665 0.55315 0.0
H576 H 0.46855 0.66311 0.83731 0.0
H577 H 0.54458 0.70561 0.87553 0.0
H578 H 0.47847 0.61927 0.86737 0.0
H579 H 0.55409 0.66232 0.90562 0.0
H580 H 0.53303 0.59321 0.97909 0.0
H581 H 0.52562 0.63606 0.94772 0.0
H582 H 0.52282 0.58005 0.87109 0.0
H583 H 0.53072 0.53691 0.90263 0.0
C584 C 0.48705 0.66323 0.8524 0.0
C585 C 0.50571 0.68777 0.8542 0.0
C586 C 0.49294 0.63809 0.86927 0.0
C587 C 0.51719 0.63741 0.88859 0.0
C588 C 0.53529 0.66226 0.89089 0.0
C589 C 0.52977 0.68703 0.87372 0.0
C590 C 0.53139 0.59009 0.95548 0.0
C591 C 0.53266 0.5618 0.94325 0.0
C592 C 0.52706 0.61458 0.93757 0.0
C593 C 0.52332 0.61129 0.90706 0.0
C594 C 0.52533 0.58309 0.89462 0.0
C595 C 0.53027 0.55852 0.91256 0.0
H596 H 0.49797 0.79876 0.8858 0.0
H597 H 0.56254 0.84858 0.83724 0.0
H598 H 0.48857 0.84121 0.91735 0.0
H599 H 0.5526 0.89143 0.86853 0.0
H600 H 0.48997 0.96679 0.90105 0.0
H601 H 0.50294 0.92266 0.8734 0.0
H602 H 0.51694 0.87584 0.95479 0.0
H603 H 0.50445 0.92012 0.98264 0.0
C604 C 0.51055 0.81867 0.88229 0.0
C605 C 0.53105 0.82045 0.8592 0.0
C606 C 0.50513 0.8429 0.90029 0.0
C607 C 0.51964 0.86958 0.89511 0.0
C608 C 0.54098 0.87109 0.87275 0.0
C609 C 0.5469 0.84657 0.85511 0.0
C610 C 0.49541 0.94701 0.9131 0.0
C611 C 0.49609 0.94691 0.94406 0.0
C612 C 0.50321 0.9219 0.89725 0.0
C613 C 0.51134 0.89607 0.91202 0.0
C614 C 0.51091 0.89557 0.94293 0.0
C615 C 0.50365 0.92084 0.95881 0.0
H616 H 0.5702 0.33849 0.67753 0.0
H617 H 0.48195 0.32174 0.64611 0.0
H618 H 0.57384 0.38079 0.64456 0.0
H619 H 0.4859 0.36376 0.61273 0.0
H620 H 0.5191 0.4216 0.53519 0.0
H621 H 0.51754 0.37845 0.56726 0.0
H622 H 0.54669 0.4315 0.64047 0.0
H623 H 0.5463 0.47492 0.60865 0.0
C624 C 0.55166 0.34368 0.66344 0.0
C625 C 0.52577 0.32671 0.66445 0.0
C626 C 0.55373 0.368 0.64468 0.0
C627 C 0.53019 0.37554 0.62605 0.0
C628 C 0.50448 0.35832 0.6267 0.0
C629 C 0.50217 0.33435 0.64589 0.0
C630 C 0.52541 0.42399 0.55808 0.0
C631 C 0.53403 0.45151 0.56923 0.0
C632 C 0.52442 0.39931 0.57643 0.0
C633 C 0.53224 0.40153 0.60631 0.0
C634 C 0.54113 0.42897 0.6174 0.0
C635 C 0.54153 0.45375 0.59912 0.0
H636 H 0.43399 0.1854 0.67712 0.0
H637 H 0.52328 0.19717 0.64673 0.0
H638 H 0.42872 0.14249 0.64514 0.0
H639 H 0.51786 0.15445 0.61461 0.0
H640 H 0.44995 0.04646 0.61194 0.0
H641 H 0.45067 0.09097 0.64211 0.0
H642 H 0.48907 0.13879 0.56969 0.0
H643 H 0.4871 0.09463 0.5393 0.0
C644 C 0.45242 0.17902 0.66344 0.0
C645 C 0.47907 0.19481 0.66448 0.0
C646 C 0.44943 0.1543 0.64527 0.0
C647 C 0.47285 0.14504 0.62732 0.0
C648 C 0.4993 0.16115 0.62796 0.0
C649 C 0.50245 0.18559 0.64646 0.0
C650 C 0.45734 0.06671 0.60213 0.0
C651 C 0.46762 0.06705 0.57299 0.0
C652 C 0.45818 0.09217 0.61952 0.0
C653 C 0.46998 0.11846 0.60831 0.0
C654 C 0.48008 0.11886 0.57908 0.0
C655 C 0.47884 0.09354 0.56164 0.0
H656 H 0.8182 0.57808 0.6719 0.0
H657 H 0.86921 0.50604 0.70644 0.0
H658 H 0.85109 0.58107 0.62938 0.0
H659 H 0.90317 0.51014 0.66544 0.0
H660 H 0.93666 0.49651 0.57433 0.0
H661 H 0.9044 0.49779 0.6166 0.0
H662 H 0.89713 0.59212 0.60823 0.0
H663 H 0.92864 0.59029 0.56447 0.0
C664 C 0.83684 0.56331 0.67065 0.0
C665 C 0.84098 0.54156 0.69218 0.0
C666 C 0.8558 0.56507 0.64636 0.0
C667 C 0.87961 0.54546 0.64346 0.0
C668 C 0.88454 0.52492 0.66613 0.0
C669 C 0.86523 0.52271 0.68988 0.0
C670 C 0.92821 0.51755 0.58154 0.0
C671 C 0.93523 0.54331 0.56618 0.0
C672 C 0.90984 0.51838 0.60604 0.0
C673 C 0.89847 0.54515 0.61649 0.0
C674 C 0.90525 0.57104 0.60085 0.0
C675 C 0.92331 0.57008 0.57578 0.0
H676 H 0.13812 0.03288 0.71464 0.0
H677 H 0.17726 0.94985 0.69159 0.0
H678 H 0.10805 0.03119 0.67036 0.0
H679 H 0.14897 0.94895 0.64596 0.0
H680 H 0.07884 0.94458 0.57362 0.0
H681 H 0.10632 0.94311 0.61992 0.0
H682 H 0.10807 0.0381 0.62126 0.0
H683 H 0.07904 0.03906 0.57642 0.0
C684 C 0.14036 0.01427 0.69996 0.0
C685 C 0.16003 0.9915 0.7067 0.0
C686 C 0.12336 0.01341 0.67418 0.0
C687 C 0.12617 0.99017 0.65377 0.0
C688 C 0.14562 0.9671 0.66095 0.0
C689 C 0.16204 0.96762 0.68719 0.0
C690 C 0.08535 0.96503 0.58387 0.0
C691 C 0.07676 0.99189 0.57142 0.0
C692 C 0.1012 0.96431 0.6105 0.0
C693 C 0.10945 0.99051 0.62504 0.0
C694 C 0.10151 0.01733 0.61173 0.0
C695 C 0.08507 0.01798 0.58565 0.0
H696 H 0.85128 0.53928 0.82295 0.0
H697 H 0.84394 0.44469 0.82209 0.0
H698 H 0.88633 0.53628 0.86337 0.0
H699 H 0.8795 0.44172 0.86246 0.0
H700 H 0.91578 0.45516 0.95803 0.0
H701 H 0.88296 0.4542 0.91547 0.0
H702 H 0.93656 0.52001 0.87297 0.0
H703 H 0.96894 0.5214 0.91557 0.0
C704 C 0.85728 0.51781 0.83124 0.0
C705 C 0.8448 0.49223 0.81926 0.0
C706 C 0.87753 0.51609 0.85433 0.0
C707 C 0.8858 0.48875 0.86605 0.0
C708 C 0.8734 0.46311 0.85405 0.0
C709 C 0.85317 0.46483 0.83082 0.0
C710 C 0.92068 0.46925 0.9396 0.0
C711 C 0.94478 0.48861 0.94051 0.0
C712 C 0.90195 0.4686 0.91508 0.0
C713 C 0.90696 0.48731 0.89098 0.0
C714 C 0.93175 0.50576 0.89142 0.0
C715 C 0.9504 0.5064 0.91585 0.0
H716 H 0.15901 0.08504 0.83593 0.0
H717 H 0.1769 0.99538 0.86092 0.0
H718 H 0.13231 0.09246 0.88224 0.0
H719 H 0.15078 1.00304 0.90732 0.0
H720 H 0.12384 0.03419 0.99917 0.0
H721 H 0.15565 0.03481 0.95539 0.0
H722 H 0.08401 0.07004 0.90387 0.0
H723 H 0.0522 0.06855 0.94728 0.0
C724 C 0.15733 0.06695 0.8513 0.0
C725 C 0.16992 0.03954 0.84456 0.0
C726 C 0.1421 0.07123 0.87783 0.0
C727 C 0.13969 0.04843 0.89856 0.0
C728 C 0.1526 0.02117 0.892 0.0
C729 C 0.16729 0.01669 0.86524 0.0
C730 C 0.11531 0.043 0.97871 0.0
C731 C 0.08572 0.05166 0.97663 0.0
C732 C 0.13334 0.04301 0.95359 0.0
C733 C 0.12225 0.05227 0.92612 0.0
C734 C 0.09326 0.06294 0.92469 0.0
C735 C 0.0751 0.06224 0.94956 0.0
H736 H 0.68652 0.8619 0.57958 0.0
H737 H 0.6587 0.84049 0.49119 0.0
H738 H 0.64002 0.88803 0.58768 0.0
H739 H 0.61204 0.86595 0.4996 0.0
H740 H 0.52033 0.89141 0.53487 0.0
H741 H 0.56514 0.86104 0.53388 0.0
H742 H 0.61626 0.93501 0.56414 0.0
H743 H 0.57185 0.96536 0.56421 0.0
C744 C 0.67051 0.86273 0.56189 0.0
C745 C 0.67653 0.8493 0.53463 0.0
C746 C 0.64384 0.87763 0.56658 0.0
C747 C 0.62219 0.87882 0.54439 0.0
C748 C 0.62807 0.86511 0.51727 0.0
C749 C 0.65498 0.85081 0.51235 0.0
C750 C 0.541 0.90083 0.54218 0.0
C751 C 0.54257 0.93064 0.54992 0.0
C752 C 0.5667 0.8836 0.54127 0.0
C753 C 0.59431 0.8957 0.54874 0.0
C754 C 0.59539 0.92498 0.5584 0.0
C755 C 0.56993 0.94232 0.55858 0.0
H756 H 0.69376 0.15476 0.04087 0.0
H757 H 0.6903 0.17987 0.94916 0.0
H758 H 0.65217 0.12186 0.03328 0.0
H759 H 0.64859 0.1467 0.94158 0.0
H760 H 0.55128 0.11302 0.95575 0.0
H761 H 0.5956 0.1435 0.95765 0.0
H762 H 0.64006 0.07575 0.0071 0.0
H763 H 0.59603 0.04527 1.00464 0.0
C764 C 0.68426 0.15314 0.01904 0.0
C765 C 0.69538 0.16996 0.99563 0.0
C766 C 0.6605 0.13414 0.01465 0.0
C767 C 0.64715 0.13163 0.9868 0.0
C768 C 0.65832 0.14832 0.96332 0.0
C769 C 0.6823 0.16717 0.96765 0.0
C770 C 0.5708 0.10433 0.96611 0.0
C771 C 0.57021 0.07667 0.97968 0.0
C772 C 0.59613 0.12183 0.96744 0.0
C773 C 0.62127 0.11208 0.98271 0.0
C774 C 0.62091 0.08405 0.99554 0.0
C775 C 0.5957 0.06656 0.99405 0.0
H776 H 0.35026 0.33027 0.05136 0.0
H777 H 0.30363 0.37774 0.98351 0.0
H778 H 0.39448 0.35995 0.04163 0.0
H779 H 0.34733 0.40759 0.97432 0.0
H780 H 0.4227 0.47457 0.99898 0.0
H781 H 0.37863 0.44495 0.0071 0.0
H782 H 0.42899 0.36607 0.99213 0.0
H783 H 0.47326 0.39585 0.98335 0.0
C784 C 0.34934 0.34742 0.03487 0.0
C785 C 0.32364 0.35191 0.01827 0.0
C786 C 0.37461 0.36405 0.02905 0.0
C787 C 0.37419 0.38573 0.00704 0.0
C788 C 0.34814 0.39092 0.99132 0.0
C789 C 0.32319 0.37396 0.99666 0.0
C790 C 0.42425 0.45093 0.99693 0.0
C791 C 0.45127 0.43744 0.99046 0.0
C792 C 0.39911 0.43405 1.00167 0.0
C793 C 0.40067 0.40334 1.00061 0.0
C794 C 0.42747 0.38976 0.99338 0.0
C795 C 0.45259 0.40675 0.988 0.0
H796 H 0.83578 0.17888 0.09165 0.0
H797 H 0.81436 0.14746 1.00452 0.0
H798 H 0.87812 0.14586 0.09333 0.0
H799 H 0.85543 0.11344 0.00666 0.0
H800 H 0.94921 0.08275 1.00183 0.0
H801 H 0.90624 0.11432 1.00311 0.0
H802 H 0.89667 0.09736 0.09635 0.0
H803 H 0.94065 0.06623 0.09485 0.0
C804 C 0.83984 0.16453 0.07307 0.0
C805 C 0.82194 0.16599 0.04782 0.0
C806 C 0.86405 0.14547 0.07406 0.0
C807 C 0.87063 0.12715 0.04996 0.0
C808 C 0.85176 0.12779 0.02531 0.0
C809 C 0.82798 0.14716 0.02413 0.0
C810 C 0.93786 0.08576 0.02258 0.0
C811 C 0.94835 0.07232 0.04831 0.0
C812 C 0.91303 0.10372 0.02334 0.0
C813 C 0.89755 0.10828 0.04978 0.0
C814 C 0.90814 0.09473 0.07564 0.0
C815 C 0.93336 0.07697 0.07489 0.0
H816 H 0.9295 0.22547 0.21002 0.0
H817 H 0.99004 0.17033 0.25792 0.0
H818 H 0.92575 0.18778 0.17114 0.0
H819 H 0.9857 0.1327 0.22011 0.0
H820 H 0.97069 0.06296 0.16151 0.0
H821 H 0.94796 0.09797 0.19514 0.0
H822 H 0.96868 0.16846 0.13523 0.0
H823 H 0.99116 0.13313 0.10135 0.0
C824 C 0.94121 0.20493 0.21261 0.0
C825 C 0.95998 0.20058 0.23686 0.0
C826 C 0.93915 0.18351 0.19042 0.0
C827 C 0.95517 0.15721 0.19277 0.0
C828 C 0.97266 0.15248 0.21791 0.0
C829 C 0.97529 0.17405 0.2395 0.0
C830 C 0.96876 0.08568 0.15474 0.0
C831 C 0.98271 0.09547 0.12902 0.0
C832 C 0.95597 0.10575 0.17407 0.0
C833 C 0.9572 0.13596 0.16808 0.0
C834 C 0.9674 0.14528 0.14038 0.0
C835 C 0.98016 0.12507 0.1209 0.0
H836 H 0.96923 0.32389 0.22097 0.0
H837 H 0.06337 0.31273 0.21285 0.0
H838 H 0.96864 0.35309 0.17648 0.0
H839 H 0.06262 0.34239 0.16753 0.0
H840 H 0.03987 0.42848 0.10696 0.0
H841 H 0.05029 0.39561 0.14881 0.0
H842 H 0.97655 0.34124 0.12354 0.0
H843 H 0.96603 0.37396 0.08261 0.0
C844 C 0.98991 0.32768 0.20975 0.0
C845 C 0.01632 0.31565 0.22049 0.0
C846 C 0.98952 0.34435 0.18403 0.0
C847 C 0.0155 0.34963 0.16813 0.0
C848 C 0.04222 0.33859 0.17925 0.0
C849 C 0.04262 0.32159 0.20515 0.0
C850 C 0.02658 0.40896 0.10993 0.0
C851 C 1.00194 0.40391 0.09184 0.0
C852 C 0.03244 0.39022 0.1339 0.0
C853 C 0.01376 0.36626 0.1399 0.0
C854 C 0.99089 0.35991 0.12 0.0
C855 C 0.98499 0.37856 0.09641 0.0
H856 H 0.95583 0.80727 0.30666 0.0
H857 H 0.04593 0.82847 0.28461 0.0
H858 H 0.95943 0.83904 0.35037 0.0
H859 H 0.04932 0.85973 0.32767 0.0
H860 H 0.0619 0.87778 0.42259 0.0
H861 H 0.04957 0.8455 0.38171 0.0
H862 H 0.96969 0.89448 0.36626 0.0
H863 H 0.98227 0.92717 0.40755 0.0
C864 C 0.97616 0.81901 0.31083 0.0
C865 C 1.00073 0.81502 0.2924 0.0
C866 C 0.9782 0.83711 0.33582 0.0
C867 C 1.00486 0.85125 0.3427 0.0
C868 C 0.02873 0.84849 0.32331 0.0
C869 C 0.0267 0.83065 0.29853 0.0
C870 C 0.04146 0.8814 0.41081 0.0
C871 C 0.02313 0.90507 0.41805 0.0
C872 C 0.03444 0.86298 0.38737 0.0
C873 C 0.00898 0.86789 0.37048 0.0
C874 C 0.98945 0.89026 0.37896 0.0
C875 C 0.99653 0.90882 0.40264 0.0
H876 H 0.0843 0.67256 0.27476 0.0
H877 H 0.02431 0.72795 0.32297 0.0
H878 H 0.08642 0.63867 0.31692 0.0
H879 H 0.0268 0.69491 0.36486 0.0
H880 H 0.03081 0.63733 0.43846 0.0
H881 H 0.05691 0.66974 0.40438 0.0
H882 H 0.04301 0.60715 0.33426 0.0
H883 H 0.01726 0.57489 0.36839 0.0
C884 C 0.07237 0.67789 0.29469 0.0
C885 C 0.05383 0.70249 0.29567 0.0
C886 C 0.07359 0.65861 0.31874 0.0
C887 C 0.05686 0.6642 0.34421 0.0
C888 C 0.0403 0.69017 0.3458 0.0
C889 C 0.03858 0.70893 0.32169 0.0
C890 C 0.0349 0.62983 0.41622 0.0
C891 C 0.02218 0.60372 0.40595 0.0
C892 C 0.04956 0.64847 0.39664 0.0
C893 C 0.05167 0.64111 0.3666 0.0
C894 C 0.04195 0.61335 0.35727 0.0
C895 C 0.02707 0.59493 0.37675 0.0
H896 H 0.21994 0.91986 0.211 0.0
H897 H 0.24063 0.99474 0.15672 0.0
H898 H 0.17429 0.91223 0.18286 0.0
H899 H 0.19583 0.98681 0.12831 0.0
H900 H 0.08494 0.97152 0.16897 0.0
H901 H 0.1308 0.9488 0.18478 0.0
H902 H 0.16357 0.95338 0.09573 0.0
H903 H 0.11721 0.97568 0.07984 0.0
C904 C 0.21527 0.93394 0.19236 0.0
C905 C 0.23352 0.95806 0.18612 0.0
C906 C 0.18922 0.92958 0.1763 0.0
C907 C 0.18153 0.94884 0.15333 0.0
C908 C 0.20129 0.9713 0.14556 0.0
C909 C 0.22683 0.97605 0.16199 0.0
C910 C 0.10127 0.96605 0.15248 0.0
C911 C 0.09787 0.97578 0.12335 0.0
C912 C 0.12759 0.95302 0.16151 0.0
C913 C 0.15104 0.95003 0.1416 0.0
C914 C 0.14593 0.95576 0.11157 0.0
C915 C 0.11931 0.96832 0.10243 0.0
H916 H 0.78319 0.46827 0.18431 0.0
H917 H 0.80775 0.55674 0.20846 0.0
H918 H 0.826 0.46483 0.15276 0.0
H919 H 0.85141 0.55305 0.1767 0.0
H920 H 0.90912 0.53459 0.0897 0.0
H921 H 0.86792 0.54585 0.12282 0.0
H922 H 0.87907 0.46155 0.16487 0.0
H923 H 0.91959 0.45032 0.13186 0.0
C924 C 0.79772 0.48709 0.18277 0.0
C925 C 0.79236 0.51263 0.19919 0.0
C926 C 0.82235 0.48504 0.1648 0.0
C927 C 0.84242 0.5084 0.16289 0.0
C928 C 0.83634 0.53467 0.17796 0.0
C929 C 0.8114 0.53678 0.19604 0.0
C930 C 0.90309 0.51885 0.10652 0.0
C931 C 0.91718 0.49144 0.10808 0.0
C932 C 0.87955 0.52526 0.12538 0.0
C933 C 0.86992 0.50428 0.14591 0.0
C934 C 0.88552 0.47781 0.14872 0.0
C935 C 0.90877 0.47141 0.12991 0.0
H936 H 0.21924 0.966 0.29934 0.0
H937 H 0.2175 0.06053 0.30645 0.0
H938 H 0.17993 0.96239 0.33501 0.0
H939 H 0.17804 0.05679 0.34331 0.0
H940 H 0.08663 0.03128 0.38962 0.0
H941 H 0.12515 0.04157 0.35273 0.0
H942 H 0.17662 0.9696 0.38712 0.0
H943 H 0.13855 0.95923 0.42276 0.0
C944 C 0.2106 0.98611 0.30866 0.0
C945 C 0.22193 0.01355 0.30025 0.0
C946 C 0.188 0.98403 0.3293 0.0
C947 C 0.17611 0.00927 0.34256 0.0
C948 C 0.18669 0.0369 0.33356 0.0
C949 C 0.2094 0.03903 0.31257 0.0
C950 C 0.1064 0.01802 0.38936 0.0
C951 C 0.10936 0.99413 0.40873 0.0
C952 C 0.12844 0.02386 0.36828 0.0
C953 C 0.15372 0.00594 0.36646 0.0
C954 C 0.15711 0.98326 0.38712 0.0
C955 C 0.13524 0.97735 0.40771 0.0
H956 H 0.82101 0.49483 0.28917 0.0
H957 H 0.77233 0.43955 0.34888 0.0
H958 H 0.86161 0.49736 0.32408 0.0
H959 H 0.81313 0.44254 0.3846 0.0
H960 H 0.86353 0.51514 0.44499 0.0
H961 H 0.82945 0.48895 0.41268 0.0
H962 H 0.90085 0.47017 0.35291 0.0
H963 H 0.93481 0.49677 0.38529 0.0
C964 C 0.81937 0.48266 0.30961 0.0
C965 C 0.79361 0.46717 0.31653 0.0
C966 C 0.84272 0.48387 0.3295 0.0
C967 C 0.84059 0.4701 0.35707 0.0
C968 C 0.81535 0.45328 0.36344 0.0
C969 C 0.79211 0.45152 0.34309 0.0
C970 C 0.87208 0.50435 0.42553 0.0
C971 C 0.90177 0.50763 0.41768 0.0
C972 C 0.85263 0.48922 0.40711 0.0
C973 C 0.86246 0.47763 0.3802 0.0
C974 C 0.8927 0.47888 0.37355 0.0
C975 C 0.91223 0.49378 0.3922 0.0
H976 H 0.20454 0.2327 0.08464 0.0
H977 H 0.1889 0.22996 0.9907 0.0
H978 H 0.17474 0.18841 0.09042 0.0
H979 H 0.16057 0.18541 0.99629 0.0
H980 H 0.08649 0.12115 0.02294 0.0
H981 H 0.11596 0.16514 0.01377 0.0
H982 H 0.17841 0.13726 0.08013 0.0
H983 H 0.14826 0.09425 0.08998 0.0
C984 C 0.19468 0.22278 0.06531 0.0
C985 C 0.19922 0.23482 0.03728 0.0
C986 C 0.17791 0.19721 0.06851 0.0
C987 C 0.16561 0.1831 0.0437 0.0
C988 C 0.16947 0.19574 0.01586 0.0
C989 C 0.18591 0.22132 0.01271 0.0
C990 C 0.10695 0.12416 0.03488 0.0
C991 C 0.11513 0.10459 0.05722 0.0
C992 C 0.12376 0.1494 0.02984 0.0
C993 C 0.14917 0.15511 0.04682 0.0
C994 C 0.15846 0.1341 0.06742 0.0
C995 C 0.14149 0.10923 0.07271 0.0
H996 H 0.21046 0.80357 0.56735 0.0
H997 H 0.19297 0.78582 0.47544 0.0
H998 H 0.17888 0.84736 0.5645 0.0
H999 H 0.16194 0.82897 0.47279 0.0
H1000 H 0.14341 0.92365 0.46388 0.0
H1001 H 0.17571 0.88287 0.47586 0.0
H1002 H 0.12332 0.86361 0.55268 0.0
H1003 H 0.09057 0.90496 0.54044 0.0
C1004 C 0.19965 0.80874 0.54672 0.0
C1005 C 0.20456 0.79133 0.52154 0.0
C1006 C 0.18161 0.83377 0.54513 0.0
C1007 C 0.16843 0.84186 0.51829 0.0
C1008 C 0.17231 0.82366 0.49363 0.0
C1009 C 0.19006 0.79879 0.49522 0.0
C1010 C 0.1391 0.91117 0.4837 0.0
C1011 C 0.11447 0.91742 0.50119 0.0
C1012 C 0.15752 0.88771 0.49048 0.0
C1013 C 0.15169 0.86969 0.51486 0.0
C1014 C 0.12831 0.87717 0.53375 0.0
C1015 C 0.10973 0.90092 0.5269 0.0
H1016 H 0.82468 0.74821 0.57153 0.0
H1017 H 0.7859 0.71075 0.49323 0.0
H1018 H 0.86112 0.70817 0.57257 0.0
H1019 H 0.82133 0.6705 0.49493 0.0
H1020 H 0.87654 0.59131 0.51548 0.0
H1021 H 0.83862 0.62619 0.53166 0.0
H1022 H 0.90258 0.69618 0.52977 0.0
H1023 H 0.94003 0.66161 0.51262 0.0
C1024 C 0.82357 0.73112 0.55497 0.0
C1025 C 0.80263 0.73266 0.53218 0.0
C1026 C 0.84435 0.70828 0.55559 0.0
C1027 C 0.84382 0.6861 0.53401 0.0
C1028 C 0.822 0.68703 0.51208 0.0
C1029 C 0.80189 0.71021 0.51097 0.0
C1030 C 0.88272 0.61389 0.51977 0.0
C1031 C 0.91119 0.62381 0.51301 0.0
C1032 C 0.86102 0.63386 0.52878 0.0
C1033 C 0.86768 0.66389 0.53183 0.0
C1034 C 0.8969 0.67316 0.52786 0.0
C1035 C 0.91834 0.65338 0.51813 0.0
H1036 H 0.28496 0.81799 0.49419 0.0
H1037 H 0.34026 0.77381 0.43101 0.0
H1038 H 0.31115 0.86349 0.48572 0.0
H1039 H 0.36747 0.82005 0.42272 0.0
H1040 H 0.4267 0.892 0.47961 0.0
H1041 H 0.4011 0.84987 0.45832 0.0
H1042 H 0.32263 0.90235 0.44844 0.0
H1043 H 0.348 0.94398 0.47076 0.0
C1044 C 0.30262 0.81819 0.47815 0.0
C1045 C 0.3108 0.79241 0.46346 0.0
C1046 C 0.31742 0.84439 0.47297 0.0
C1047 C 0.34122 0.84553 0.45325 0.0
C1048 C 0.34905 0.81986 0.43784 0.0
C1049 C 0.33359 0.7935 0.44258 0.0
C1050 C 0.4046 0.89503 0.47109 0.0
C1051 C 0.38911 0.92098 0.47718 0.0
C1052 C 0.38983 0.8708 0.45902 0.0
C1053 C 0.35956 0.87257 0.45267 0.0
C1054 C 0.3458 0.9002 0.45377 0.0
C1055 C 0.36039 0.92416 0.46625 0.0
H1056 H 0.59 0.7062 0.72803 0.0
H1057 H 0.49497 0.70628 0.72184 0.0
H1058 H 0.59234 0.67681 0.68294 0.0
H1059 H 0.49734 0.67827 0.67679 0.0
H1060 H 0.51268 0.59849 0.61614 0.0
H1061 H 0.50768 0.63064 0.65897 0.0
H1062 H 0.58431 0.67964 0.63105 0.0
H1063 H 0.5898 0.64682 0.58916 0.0
C1064 C 0.56972 0.70008 0.71704 0.0
C1065 C 0.5424 0.70839 0.72869 0.0
C1066 C 0.57098 0.68347 0.6911 0.0
C1067 C 0.54495 0.67517 0.67621 0.0
C1068 C 0.51776 0.68375 0.68786 0.0
C1069 C 0.51649 0.69999 0.71377 0.0
C1070 C 0.52792 0.6166 0.61889 0.0
C1071 C 0.55171 0.62012 0.59962 0.0
C1072 C 0.52522 0.63497 0.64345 0.0
C1073 C 0.54605 0.65736 0.64881 0.0
C1074 C 0.56848 0.66208 0.62814 0.0
C1075 C 0.57137 0.64355 0.60393 0.0
H1076 H 0.43497 0.80459 0.73234 0.0
H1077 H 0.52789 0.82524 0.73348 0.0
H1078 H 0.42923 0.83433 0.68785 0.0
H1079 H 0.52249 0.85343 0.6888 0.0
H1080 H 0.49549 0.92627 0.62352 0.0
H1081 H 0.50426 0.89676 0.66763 0.0
H1082 H 0.44072 0.83288 0.63694 0.0
H1083 H 0.43124 0.8631 0.59378 0.0
C1084 C 0.45408 0.81554 0.72325 0.0
C1085 C 0.48182 0.8124 0.7365 0.0
C1086 C 0.45094 0.83229 0.69752 0.0
C1087 C 0.47553 0.84604 0.6844 0.0
C1088 C 0.50302 0.84348 0.69825 0.0
C1089 C 0.50609 0.82707 0.72395 0.0
C1090 C 0.48419 0.90546 0.62587 0.0
C1091 C 0.46277 0.89688 0.60535 0.0
C1092 C 0.48896 0.8886 0.65126 0.0
C1093 C 0.47263 0.8627 0.65628 0.0
C1094 C 0.45295 0.85313 0.63439 0.0
C1095 C 0.44793 0.87013 0.60935 0.0
H1096 H 0.50842 0.34541 0.77368 0.0
H1097 H 0.44192 0.28802 0.80955 0.0
H1098 H 0.50596 0.37593 0.81789 0.0
H1099 H 0.44034 0.31811 0.85458 0.0
H1100 H 0.48506 0.43559 0.89194 0.0
H1101 H 0.46544 0.40813 0.84983 0.0
H1102 H 0.48845 0.3268 0.89256 0.0
H1103 H 0.50902 0.35433 0.93409 0.0
C1104 C 0.49294 0.33962 0.79087 0.0
C1105 C 0.47534 0.31442 0.78821 0.0
C1106 C 0.4914 0.35716 0.81607 0.0
C1107 C 0.4728 0.34947 0.83952 0.0
C1108 C 0.45464 0.32464 0.83666 0.0
C1109 C 0.45553 0.30751 0.81096 0.0
C1110 C 0.48436 0.41184 0.89305 0.0
C1111 C 0.49825 0.39701 0.91633 0.0
C1112 C 0.47345 0.39615 0.86882 0.0
C1113 C 0.47565 0.36539 0.86791 0.0
C1114 C 0.48627 0.35048 0.89282 0.0
C1115 C 0.49784 0.3662 0.91668 0.0
H1116 H 0.50402 0.17169 0.76438 0.0
H1117 H 0.57454 0.22336 0.80168 0.0
H1118 H 0.51132 0.13448 0.80234 0.0
H1119 H 0.58113 0.18626 0.84067 0.0
H1120 H 0.52119 0.13043 0.9181 0.0
H1121 H 0.53611 0.16749 0.88223 0.0
H1122 H 0.55859 0.09914 0.8206 0.0
H1123 H 0.54489 0.06202 0.85692 0.0
C1124 C 0.52125 0.17494 0.7806 0.0
C1125 C 0.53873 0.20033 0.78013 0.0
C1126 C 0.52554 0.1536 0.80219 0.0
C1127 C 0.54692 0.15749 0.82422 0.0
C1128 C 0.56468 0.18274 0.82373 0.0
C1129 C 0.56094 0.20383 0.80149 0.0
C1130 C 0.53147 0.12326 0.89784 0.0
C1131 C 0.53246 0.09329 0.89056 0.0
C1132 C 0.53961 0.14453 0.8771 0.0
C1133 C 0.54829 0.13607 0.84867 0.0
C1134 C 0.55204 0.10614 0.84243 0.0
C1135 C 0.54435 0.08494 0.86327 0.0
H1136 H 0.70004 0.52236 0.71118 0.0
H1137 H 0.73153 0.43517 0.69109 0.0
H1138 H 0.65755 0.51446 0.6802 0.0
H1139 H 0.68818 0.42707 0.65955 0.0
H1140 H 0.64255 0.46555 0.5706 0.0
H1141 H 0.67334 0.44931 0.61139 0.0
H1142 H 0.61177 0.48741 0.67283 0.0
H1143 H 0.58207 0.50508 0.63188 0.0
C1144 C 0.69776 0.50133 0.70025 0.0
C1145 C 0.71941 0.47957 0.70318 0.0
C1146 C 0.67301 0.49657 0.68285 0.0
C1147 C 0.66919 0.46994 0.66767 0.0
C1148 C 0.69045 0.44774 0.67112 0.0
C1149 C 0.71526 0.45242 0.68902 0.0
C1150 C 0.63473 0.46884 0.59289 0.0
C1151 C 0.6099 0.4864 0.59814 0.0
C1152 C 0.65242 0.4596 0.61633 0.0
C1153 C 0.64541 0.4679 0.64527 0.0
C1154 C 0.618 0.48123 0.65066 0.0
C1155 C 0.60061 0.49087 0.62721 0.0
H1156 H 0.27371 0.08349 0.70219 0.0
H1157 H 0.30068 0.99553 0.72505 0.0
H1158 H 0.31502 0.08684 0.66732 0.0
H1159 H 0.34156 0.99895 0.69092 0.0
H1160 H 0.42012 0.00881 0.64073 0.0
H1161 H 0.38909 0.02528 0.68137 0.0
H1162 H 0.32603 0.05955 0.61904 0.0
H1163 H 0.35738 0.04334 0.57854 0.0
C1164 C 0.2886 0.06507 0.70002 0.0
C1165 C 0.28375 0.03912 0.71608 0.0
C1166 C 0.31222 0.067 0.68016 0.0
C1167 C 0.33177 0.0433 0.67663 0.0
C1168 C 0.32732 0.01783 0.69349 0.0
C1169 C 0.30358 0.01571 0.71278 0.0
C1170 C 0.4006 0.02156 0.6358 0.0
C1171 C 0.39133 0.0252 0.60654 0.0
C1172 C 0.38256 0.03058 0.65904 0.0
C1173 C 0.35482 0.04314 0.65337 0.0
C1174 C 0.34729 0.05003 0.62415 0.0
C1175 C 0.36534 0.04093 0.60092 0.0
H1176 H 0.72359 0.58148 0.82543 0.0
H1177 H 0.70168 0.49316 0.79842 0.0
H1178 H 0.67848 0.58303 0.85564 0.0
H1179 H 0.65724 0.49494 0.82764 0.0
H1180 H 0.57248 0.5021 0.86223 0.0
H1181 H 0.60831 0.52354 0.82852 0.0
H1182 H 0.66148 0.55093 0.90246 0.0
H1183 H 0.62508 0.52996 0.9362 0.0
C1184 C 0.70911 0.56259 0.82578 0.0
C1185 C 0.71629 0.53709 0.80984 0.0
C1186 C 0.68336 0.56353 0.84291 0.0
C1187 C 0.66414 0.53932 0.84351 0.0
C1188 C 0.67125 0.51419 0.82711 0.0
C1189 C 0.697 0.51303 0.81068 0.0
C1190 C 0.5909 0.51431 0.87124 0.0
C1191 C 0.59621 0.5144 0.90164 0.0
C1192 C 0.61152 0.52637 0.852 0.0
C1193 C 0.63797 0.5382 0.86293 0.0
C1194 C 0.64127 0.54196 0.89348 0.0
C1195 C 0.6204 0.53007 0.91279 0.0
H1196 H 0.30935 0.01711 0.80405 0.0
H1197 H 0.27143 0.93961 0.84341 0.0
H1198 H 0.35481 0.00898 0.83121 0.0
H1199 H 0.31727 0.93194 0.87172 0.0
H1200 H 0.38616 0.98633 0.94132 0.0
H1201 H 0.34349 0.96933 0.91311 0.0
H1202 H 0.39654 0.96708 0.83449 0.0
H1203 H 0.43915 0.98382 0.8628 0.0
C1204 C 0.31077 0.9983 0.81857 0.0
C1205 C 0.2868 0.97913 0.82181 0.0
C1206 C 0.33694 0.99344 0.83385 0.0
C1207 C 0.33968 0.9696 0.85325 0.0
C1208 C 0.31576 0.95028 0.85663 0.0
C1209 C 0.28963 0.95471 0.84057 0.0
C1210 C 0.38919 0.9801 0.91849 0.0
C1211 C 0.4159 0.98621 0.9042 0.0
C1212 C 0.36468 0.97063 0.90226 0.0
C1213 C 0.36667 0.96744 0.87157 0.0
C1214 C 0.39445 0.96952 0.85813 0.0
C1215 C 0.41893 0.97876 0.87439 0.0
H1216 H 0.7105 0.72604 0.42984 0.0
H1217 H 0.66608 0.74353 0.51194 0.0
H1218 H 0.6796 0.68236 0.42255 0.0
H1219 H 0.6351 0.70051 0.50448 0.0
H1220 H 0.65837 0.58721 0.46697 0.0
H1221 H 0.67907 0.63442 0.45239 0.0
H1222 H 0.59617 0.67636 0.4718 0.0
H1223 H 0.57539 0.62892 0.48606 0.0
C1224 C 0.6937 0.72096 0.44595 0.0
C1225 C 0.69086 0.73805 0.47159 0.0
C1226 C 0.67606 0.69597 0.44178 0.0
C1227 C 0.65478 0.68808 0.46283 0.0
C1228 C 0.65093 0.7062 0.4876 0.0
C1229 C 0.6689 0.73072 0.49204 0.0
C1230 C 0.6441 0.60625 0.46651 0.0
C1231 C 0.61537 0.60447 0.47783 0.0
C1232 C 0.65599 0.63336 0.45829 0.0
C1233 C 0.63945 0.6592 0.46163 0.0
C1234 C 0.60954 0.65684 0.46938 0.0
C1235 C 0.59751 0.6296 0.47716 0.0
H1236 H 0.66861 0.26807 0.0258 0.0
H1237 H 0.7281 0.31283 0.08483 0.0
H1238 H 0.63644 0.31093 0.0252 0.0
H1239 H 0.69625 0.35652 0.0834 0.0
H1240 H 0.57734 0.38581 0.03337 0.0
H1241 H 0.60466 0.34692 0.05868 0.0
H1242 H 0.68652 0.38809 0.03383 0.0
H1243 H 0.65913 0.42655 0.00805 0.0
C1244 C 0.67432 0.28688 0.03927 0.0
C1245 C 0.70064 0.28725 0.05543 0.0
C1246 C 0.65589 0.31135 0.03906 0.0
C1247 C 0.66383 0.33697 0.05437 0.0
C1248 C 0.68956 0.33692 0.07163 0.0
C1249 C 0.70766 0.312 0.07251 0.0
C1250 C 0.60113 0.38729 0.03467 0.0
C1251 C 0.61624 0.4092 0.01911 0.0
C1252 C 0.61673 0.36499 0.04896 0.0
C1253 C 0.64765 0.36448 0.04806 0.0
C1254 C 0.6627 0.38814 0.03514 0.0
C1255 C 0.64708 0.41015 0.02041 0.0
H1256 H 0.31575 0.23647 0.93021 0.0
H1257 H 0.30139 0.2157 0.02194 0.0
H1258 H 0.35221 0.19691 0.92738 0.0
H1259 H 0.33783 0.1769 0.01922 0.0
H1260 H 0.38807 0.0918 0.99232 0.0
H1261 H 0.34895 0.12861 0.99707 0.0
H1262 H 0.40205 0.19082 0.9488 0.0
H1263 H 0.44066 0.15431 0.94394 0.0
C1264 C 0.32014 0.22332 0.94958 0.0
C1265 C 0.30606 0.22942 0.97632 0.0
C1266 C 0.3411 0.20087 0.94809 0.0
C1267 C 0.34808 0.1841 0.97324 0.0
C1268 C 0.33289 0.18935 0.99951 0.0
C1269 C 0.31218 0.21178 1.00104 0.0
C1270 C 0.39156 0.11358 0.98345 0.0
C1271 C 0.4172 0.1202 0.96761 0.0
C1272 C 0.36913 0.13454 0.98588 0.0
C1273 C 0.37219 0.16228 0.97253 0.0
C1274 C 0.39869 0.16934 0.95845 0.0
C1275 C 0.42093 0.14855 0.95603 0.0
H1276 H 0.83711 0.28151 0.04376 0.0
H1277 H 0.8055 0.3038 0.95679 0.0
H1278 H 0.87158 0.32212 0.04198 0.0
H1279 H 0.84048 0.34501 0.95505 0.0
H1280 H 0.87819 0.43686 0.99486 0.0
H1281 H 0.84702 0.39397 0.98396 0.0
H1282 H 0.9165 0.3367 0.01427 0.0
H1283 H 0.94709 0.37932 0.02536 0.0
C1284 C 0.83769 0.29497 0.02411 0.0
C1285 C 0.81857 0.28945 1.00042 0.0
C1286 C 0.85762 0.31816 0.02301 0.0
C1287 C 0.85886 0.33662 0.99828 0.0
C1288 C 0.83994 0.33109 0.97437 0.0
C1289 C 0.82011 0.30747 0.97531 0.0
C1290 C 0.88696 0.41501 0.99816 0.0
C1291 C 0.91491 0.41112 0.01074 0.0
C1292 C 0.86922 0.39053 0.99199 0.0
C1293 C 0.87926 0.36205 0.99861 0.0
C1294 C 0.90806 0.35838 0.00931 0.0
C1295 C 0.9256 0.38269 0.0155 0.0
loop_
_geom_bond_atom_site_label_1
_geom_bond_atom_site_label_2
_geom_bond_distance
_geom_bond_site_symmetry_2
_ccdc_geom_bond_type
C0 O2 1.247 . S
C0 O4 1.258 1_455 S
C1 O8 1.247 . S
C1 O9 1.258 1_655 S
O2 C0 1.247 . S
O2 Zn3 2.028 . S
Zn3 O2 2.028 . S
Zn3 O7 2.035 . S
Zn3 O9 2.035 . S
Zn3 O10 2.028 . S
O4 C0 1.258 1_655 S
O4 Zn5 2.035 . S
Zn5 O4 2.035 . S
Zn5 O6 2.028 . S
Zn5 O8 2.028 . S
Zn5 O11 2.035 . S
O6 Zn5 2.028 . S
O6 C12 1.247 . S
O7 Zn3 2.035 . S
O7 C12 1.258 1_455 S
O8 C1 1.247 . S
O8 Zn5 2.028 . S
O9 C1 1.258 1_455 S
O9 Zn3 2.035 . S
O10 Zn3 2.028 . S
O10 C13 1.247 . S
O11 Zn5 2.035 . S
O11 C13 1.258 1_655 S
C12 O6 1.247 . S
C12 O7 1.258 1_655 S
C13 O10 1.247 . S
C13 O11 1.258 1_455 S
C14 O16 1.247 . S
C14 O18 1.258 1_455 S
C15 O22 1.247 . S
C15 O23 1.258 1_655 S
O16 C14 1.247 . S
O16 Zn17 2.028 . S
Zn17 O16 2.028 . S
Zn17 O21 2.035 . S
Zn17 O23 2.035 . S
Zn17 O24 2.028 . S
O18 C14 1.258 1_655 S
O18 Zn19 2.035 . S
Zn19 O18 2.035 . S
Zn19 O20 2.028 . S
Zn19 O22 2.028 . S
Zn19 O25 2.035 . S
O20 Zn19 2.028 . S
O20 C26 1.247 . S
O21 Zn17 2.035 . S
O21 C26 1.258 1_455 S
O22 C15 1.247 . S
O22 Zn19 2.028 . S
O23 C15 1.258 1_455 S
O23 Zn17 2.035 . S
O24 Zn17 2.028 . S
O24 C27 1.247 . S
O25 Zn19 2.035 . S
O25 C27 1.258 1_655 S
C26 O20 1.247 . S
C26 O21 1.258 1_655 S
C27 O24 1.247 . S
C27 O25 1.258 1_455 S
C28 O30 1.247 1_545 S
C28 O32 1.258 . S
C29 O36 1.247 1_565 S
C29 O37 1.258 . S
O30 C28 1.247 1_565 S
O30 Zn31 2.028 . S
Zn31 O30 2.028 . S
Zn31 O35 2.035 . S
Zn31 O37 2.035 . S
Zn31 O38 2.028 . S
O32 C28 1.258 . S
O32 Zn33 2.035 . S
Zn33 O32 2.035 . S
Zn33 O34 2.028 . S
Zn33 O36 2.028 . S
Zn33 O39 2.035 . S
O34 Zn33 2.028 . S
O34 C40 1.247 1_545 S
O35 Zn31 2.035 . S
O35 C40 1.258 . S
O36 C29 1.247 1_545 S
O36 Zn33 2.028 . S
O37 C29 1.258 . S
O37 Zn31 2.035 . S
O38 Zn31 2.028 . S
O38 C41 1.247 1_565 S
O39 Zn33 2.035 . S
O39 C41 1.258 . S
C40 O34 1.247 1_565 S
C40 O35 1.258 . S
C41 O38 1.247 1_545 S
C41 O39 1.258 . S
C42 O44 1.247 . S
C42 O46 1.258 . S
C43 O50 1.247 . S
C43 O51 1.258 . S
O44 C42 1.247 . S
O44 Zn45 2.028 . S
Zn45 O44 2.028 . S
Zn45 O49 2.035 . S
Zn45 O51 2.035 . S
Zn45 O52 2.028 . S
O46 C42 1.258 . S
O46 Zn47 2.035 . S
Zn47 O46 2.035 . S
Zn47 O48 2.028 . S
Zn47 O50 2.028 . S
Zn47 O53 2.035 . S
O48 Zn47 2.028 . S
O48 C54 1.247 . S
O49 Zn45 2.035 . S
O49 C54 1.258 . S
O50 C43 1.247 . S
O50 Zn47 2.028 . S
O51 C43 1.258 . S
O51 Zn45 2.035 . S
O52 Zn45 2.028 . S
O52 C55 1.247 . S
O53 Zn47 2.035 . S
O53 C55 1.258 . S
C54 O48 1.247 . S
C54 O49 1.258 . S
C55 O52 1.247 . S
C55 O53 1.258 . S
C56 O58 1.247 1_554 S
C56 O60 1.258 . S
C57 O64 1.247 1_556 S
C57 O65 1.258 . S
O58 C56 1.247 1_556 S
O58 Zn59 2.028 . S
Zn59 O58 2.028 . S
Zn59 O63 2.035 . S
Zn59 O65 2.035 . S
Zn59 O66 2.028 . S
O60 C56 1.258 . S
O60 Zn61 2.035 . S
Zn61 O60 2.035 . S
Zn61 O62 2.028 . S
Zn61 O64 2.028 . S
Zn61 O67 2.035 . S
O62 Zn61 2.028 . S
O62 C68 1.247 1_554 S
O63 Zn59 2.035 . S
O63 C68 1.258 . S
O64 C57 1.247 1_554 S
O64 Zn61 2.028 . S
O65 C57 1.258 . S
O65 Zn59 2.035 . S
O66 Zn59 2.028 . S
O66 C69 1.247 1_556 S
O67 Zn61 2.035 . S
O67 C69 1.258 . S
C68 O62 1.247 1_556 S
C68 O63 1.258 . S
C69 O66 1.247 1_554 S
C69 O67 1.258 . S
C70 O72 1.247 . S
C70 O74 1.258 . S
C71 O78 1.247 . S
C71 O79 1.258 . S
O72 C70 1.247 . S
O72 Zn73 2.028 . S
Zn73 O72 2.028 . S
Zn73 O77 2.035 . S
Zn73 O79 2.035 . S
Zn73 O80 2.028 . S
O74 C70 1.258 . S
O74 Zn75 2.035 . S
Zn75 O74 2.035 . S
Zn75 O76 2.028 . S
Zn75 O78 2.028 . S
Zn75 O81 2.035 . S
O76 Zn75 2.028 . S
O76 C82 1.247 . S
O77 Zn73 2.035 . S
O77 C82 1.258 . S
O78 C71 1.247 . S
O78 Zn75 2.028 . S
O79 C71 1.258 . S
O79 Zn73 2.035 . S
O80 Zn73 2.028 . S
O80 C83 1.247 . S
O81 Zn75 2.035 . S
O81 C83 1.258 . S
C82 O76 1.247 . S
C82 O77 1.258 . S
C83 O80 1.247 . S
C83 O81 1.258 . S
C84 O86 1.247 . S
C84 O88 1.258 . S
C85 O92 1.247 . S
C85 O93 1.258 . S
O86 C84 1.247 . S
O86 Zn87 2.028 . S
Zn87 O86 2.028 . S
Zn87 O91 2.035 . S
Zn87 O93 2.035 . S
Zn87 O94 2.028 . S
O88 C84 1.258 . S
O88 Zn89 2.035 . S
Zn89 O88 2.035 . S
Zn89 O90 2.028 . S
Zn89 O92 2.028 . S
Zn89 O95 2.035 . S
O90 Zn89 2.028 . S
O90 C96 1.247 . S
O91 Zn87 2.035 . S
O91 C96 1.258 . S
O92 C85 1.247 . S
O92 Zn89 2.028 . S
O93 C85 1.258 . S
O93 Zn87 2.035 . S
O94 Zn87 2.028 . S
O94 C97 1.247 . S
O95 Zn89 2.035 . S
O95 C97 1.258 . S
C96 O90 1.247 . S
C96 O91 1.258 . S
C97 O94 1.247 . S
C97 O95 1.258 . S
C98 O100 1.247 . S
C98 O102 1.258 . S
C99 O106 1.247 . S
C99 O107 1.258 . S
O100 C98 1.247 . S
O100 Zn101 2.028 . S
Zn101 O100 2.028 . S
Zn101 O105 2.035 . S
Zn101 O107 2.035 . S
Zn101 O108 2.028 . S
O102 C98 1.258 . S
O102 Zn103 2.035 . S
Zn103 O102 2.035 . S
Zn103 O104 2.028 . S
Zn103 O106 2.028 . S
Zn103 O109 2.035 . S
O104 Zn103 2.028 . S
O104 C110 1.247 . S
O105 Zn101 2.035 . S
O105 C110 1.258 . S
O106 C99 1.247 . S
O106 Zn103 2.028 . S
O107 C99 1.258 . S
O107 Zn101 2.035 . S
O108 Zn101 2.028 . S
O108 C111 1.247 . S
O109 Zn103 2.035 . S
O109 C111 1.258 . S
C110 O104 1.247 . S
C110 O105 1.258 . S
C111 O108 1.247 . S
C111 O109 1.258 . S
C112 O114 1.247 . S
C112 O116 1.258 . S
C113 O120 1.247 . S
C113 O121 1.258 . S
O114 C112 1.247 . S
O114 Zn115 2.028 . S
Zn115 O114 2.028 . S
Zn115 O119 2.035 . S
Zn115 O121 2.035 . S
Zn115 O122 2.028 . S
O116 C112 1.258 . S
O116 Zn117 2.035 . S
Zn117 O116 2.035 . S
Zn117 O118 2.028 . S
Zn117 O120 2.028 . S
Zn117 O123 2.035 . S
O118 Zn117 2.028 . S
O118 C124 1.247 . S
O119 Zn115 2.035 . S
O119 C124 1.258 . S
O120 C113 1.247 . S
O120 Zn117 2.028 . S
O121 C113 1.258 . S
O121 Zn115 2.035 . S
O122 Zn115 2.028 . S
O122 C125 1.247 . S
O123 Zn117 2.035 . S
O123 C125 1.258 . S
C124 O118 1.247 . S
C124 O119 1.258 . S
C125 O122 1.247 . S
C125 O123 1.258 . S
C126 O128 1.247 . S
C126 O130 1.258 . S
C127 O134 1.247 . S
C127 O135 1.258 . S
O128 C126 1.247 . S
O128 Zn129 2.028 . S
Zn129 O128 2.028 . S
Zn129 O133 2.035 . S
Zn129 O135 2.035 . S
Zn129 O136 2.028 . S
O130 C126 1.258 . S
O130 Zn131 2.035 . S
Zn131 O130 2.035 . S
Zn131 O132 2.028 . S
Zn131 O134 2.028 . S
Zn131 O137 2.035 . S
O132 Zn131 2.028 . S
O132 C138 1.247 . S
O133 Zn129 2.035 . S
O133 C138 1.258 . S
O134 C127 1.247 . S
O134 Zn131 2.028 . S
O135 C127 1.258 . S
O135 Zn129 2.035 . S
O136 Zn129 2.028 . S
O136 C139 1.247 . S
O137 Zn131 2.035 . S
O137 C139 1.258 . S
C138 O132 1.247 . S
C138 O133 1.258 . S
C139 O136 1.247 . S
C139 O137 1.258 . S
C140 O142 1.247 . S
C140 O144 1.258 1_565 S
C141 O148 1.247 . S
C141 O149 1.258 1_545 S
O142 C140 1.247 . S
O142 Zn143 2.028 . S
Zn143 O142 2.028 . S
Zn143 O147 2.035 . S
Zn143 O149 2.035 . S
Zn143 O150 2.028 . S
O144 C140 1.258 1_545 S
O144 Zn145 2.035 . S
Zn145 O144 2.035 . S
Zn145 O146 2.028 . S
Zn145 O148 2.028 . S
Zn145 O151 2.035 . S
O146 Zn145 2.028 . S
O146 C152 1.247 . S
O147 Zn143 2.035 . S
O147 C152 1.258 1_565 S
O148 C141 1.247 . S
O148 Zn145 2.028 . S
O149 C141 1.258 1_565 S
O149 Zn143 2.035 . S
O150 Zn143 2.028 . S
O150 C153 1.247 . S
O151 Zn145 2.035 . S
O151 C153 1.258 1_545 S
C152 O146 1.247 . S
C152 O147 1.258 1_545 S
C153 O150 1.247 . S
C153 O151 1.258 1_565 S
C154 O156 1.247 1_556 S
C154 O158 1.258 . S
C155 O162 1.247 1_554 S
C155 O163 1.258 . S
O156 C154 1.247 1_554 S
O156 Zn157 2.028 . S
Zn157 O156 2.028 . S
Zn157 O161 2.035 . S
Zn157 O163 2.035 . S
Zn157 O164 2.028 . S
O158 C154 1.258 . S
O158 Zn159 2.035 . S
Zn159 O158 2.035 . S
Zn159 O160 2.028 . S
Zn159 O162 2.028 . S
Zn159 O165 2.035 . S
O160 Zn159 2.028 . S
O160 C166 1.247 1_556 S
O161 Zn157 2.035 . S
O161 C166 1.258 . S
O162 C155 1.247 1_556 S
O162 Zn159 2.028 . S
O163 C155 1.258 . S
O163 Zn157 2.035 . S
O164 Zn157 2.028 . S
O164 C167 1.247 1_554 S
O165 Zn159 2.035 . S
O165 C167 1.258 . S
C166 O160 1.247 1_554 S
C166 O161 1.258 . S
C167 O164 1.247 1_556 S
C167 O165 1.258 . S
Zn168 O174 1.920 . S
Zn168 O180 1.898 . S
Zn168 O183 1.905 . S
Zn169 O177 1.905 1_554 S
Zn169 O178 1.898 1_545 S
Zn169 O186 1.920 1_455 S
Zn170 O173 2.080 . S
Zn170 O176 2.114 . S
Zn170 O179 2.120 . S
Zn170 O181 2.120 . S
Zn170 O182 2.114 . S
Zn170 O185 2.080 . S
C171 O176 1.166 1_556 S
C171 O177 1.182 . S
C172 O178 1.167 . S
C172 O179 1.299 1_565 S
O173 Zn170 2.080 . S
O173 C187 1.305 . S
O174 Zn168 1.920 . S
O174 C187 1.234 . S
C175 O180 1.167 . S
C175 O181 1.299 . S
O176 Zn170 2.114 . S
O176 C171 1.166 1_554 S
O177 Zn169 1.905 1_556 S
O177 C171 1.182 . S
O178 Zn169 1.898 1_565 S
O178 C172 1.167 . S
O179 Zn170 2.120 . S
O179 C172 1.299 1_545 S
O180 Zn168 1.898 . S
O180 C175 1.167 . S
O181 Zn170 2.120 . S
O181 C175 1.299 . S
O182 Zn170 2.114 . S
O182 C184 1.166 . S
O183 Zn168 1.905 . S
O183 C184 1.182 . S
C184 O182 1.166 . S
C184 O183 1.182 . S
O185 Zn170 2.080 . S
O185 C188 1.305 1_455 S
O186 Zn169 1.920 1_655 S
O186 C188 1.234 . S
C187 O173 1.305 . S
C187 O174 1.234 . S
C188 O185 1.305 1_655 S
C188 O186 1.234 . S
Zn189 O195 1.920 1_655 S
Zn189 O201 1.898 . S
Zn189 O204 1.905 1_554 S
Zn190 O198 1.905 . S
Zn190 O199 1.898 . S
Zn190 O207 1.920 . S
Zn191 O194 2.080 . S
Zn191 O197 2.114 . S
Zn191 O200 2.120 . S
Zn191 O202 2.120 . S
Zn191 O203 2.114 . S
Zn191 O206 2.080 . S
C192 O197 1.166 . S
C192 O198 1.182 . S
C193 O199 1.167 . S
C193 O200 1.299 . S
O194 Zn191 2.080 . S
O194 C208 1.305 1_655 S
O195 Zn189 1.920 1_455 S
O195 C208 1.234 . S
C196 O201 1.167 . S
C196 O202 1.299 . S
O197 Zn191 2.114 . S
O197 C192 1.166 . S
O198 Zn190 1.905 . S
O198 C192 1.182 . S
O199 Zn190 1.898 . S
O199 C193 1.167 . S
O200 Zn191 2.120 . S
O200 C193 1.299 . S
O201 Zn189 1.898 . S
O201 C196 1.167 . S
O202 Zn191 2.120 . S
O202 C196 1.299 . S
O203 Zn191 2.114 . S
O203 C205 1.166 1_554 S
O204 Zn189 1.905 1_556 S
O204 C205 1.182 . S
C205 O203 1.166 1_556 S
C205 O204 1.182 . S
O206 Zn191 2.080 . S
O206 C209 1.305 . S
O207 Zn190 1.920 . S
O207 C209 1.234 . S
C208 O194 1.305 1_455 S
C208 O195 1.234 . S
C209 O206 1.305 . S
C209 O207 1.234 . S
Zn210 O216 1.902 1_565 S
Zn210 O222 1.905 . S
Zn210 O225 1.923 1_455 S
Zn211 O219 1.905 . S
Zn211 O220 1.898 . S
Zn211 O228 1.920 . S
Zn212 O215 2.080 . S
Zn212 O218 2.114 . S
Zn212 O221 2.120 . S
Zn212 O223 2.120 . S
Zn212 O224 2.114 . S
Zn212 O227 2.080 . S
C213 O218 1.166 . S
C213 O219 1.182 . S
C214 O220 1.167 . S
C214 O221 1.299 . S
O215 Zn212 2.080 . S
O215 C229 1.305 1_565 S
O216 Zn210 1.902 1_545 S
O216 C229 1.234 . S
C217 O222 1.167 . S
C217 O223 1.299 . S
O218 Zn212 2.114 . S
O218 C213 1.166 . S
O219 Zn211 1.905 . S
O219 C213 1.182 . S
O220 Zn211 1.898 . S
O220 C214 1.167 . S
O221 Zn212 2.120 . S
O221 C214 1.299 . S
O222 Zn210 1.905 . S
O222 C217 1.167 . S
O223 Zn212 2.120 . S
O223 C217 1.299 . S
O224 Zn212 2.114 . S
O224 C226 1.166 1_455 S
O225 Zn210 1.923 1_655 S
O225 C226 1.182 . S
C226 O224 1.166 1_655 S
C226 O225 1.182 . S
O227 Zn212 2.080 . S
O227 C230 1.305 . S
O228 Zn211 1.920 . S
O228 C230 1.234 . S
C229 O215 1.305 1_545 S
C229 O216 1.234 . S
C230 O227 1.305 . S
C230 O228 1.234 . S
Zn231 O237 1.920 . S
Zn231 O243 1.898 . S
Zn231 O246 1.905 . S
Zn232 O240 1.905 . S
Zn232 O241 1.898 1_655 S
Zn232 O249 1.920 . S
Zn233 O236 2.080 . S
Zn233 O239 2.114 . S
Zn233 O242 2.120 . S
Zn233 O244 2.120 . S
Zn233 O245 2.114 . S
Zn233 O248 2.080 . S
C234 O239 1.166 . S
C234 O240 1.182 . S
C235 O241 1.167 . S
C235 O242 1.299 1_455 S
O236 Zn233 2.080 . S
O236 C250 1.305 . S
O237 Zn231 1.920 . S
O237 C250 1.234 . S
C238 O243 1.167 . S
C238 O244 1.299 . S
O239 Zn233 2.114 . S
O239 C234 1.166 . S
O240 Zn232 1.905 . S
O240 C234 1.182 . S
O241 Zn232 1.898 1_455 S
O241 C235 1.167 . S
O242 Zn233 2.120 . S
O242 C235 1.299 1_655 S
O243 Zn231 1.898 . S
O243 C238 1.167 . S
O244 Zn233 2.120 . S
O244 C238 1.299 . S
O245 Zn233 2.114 . S
O245 C247 1.166 . S
O246 Zn231 1.905 . S
O246 C247 1.182 . S
C247 O245 1.166 . S
C247 O246 1.182 . S
O248 Zn233 2.080 . S
O248 C251 1.305 . S
O249 Zn232 1.920 . S
O249 C251 1.234 . S
C250 O236 1.305 . S
C250 O237 1.234 . S
C251 O248 1.305 . S
C251 O249 1.234 . S
Zn252 O258 1.920 . S
Zn252 O264 1.898 . S
Zn252 O267 1.905 . S
Zn253 O261 1.906 1_545 S
Zn253 O262 1.896 . S
Zn253 O270 1.922 1_545 S
Zn254 O257 2.080 . S
Zn254 O260 2.114 . S
Zn254 O263 2.120 . S
Zn254 O265 2.120 . S
Zn254 O266 2.114 . S
Zn254 O269 2.080 . S
C255 O260 1.166 . S
C255 O261 1.182 . S
C256 O262 1.167 . S
C256 O263 1.299 1_545 S
O257 Zn254 2.080 . S
O257 C271 1.305 . S
O258 Zn252 1.920 . S
O258 C271 1.234 . S
C259 O264 1.167 . S
C259 O265 1.299 . S
O260 Zn254 2.114 . S
O260 C255 1.166 . S
O261 Zn253 1.906 1_565 S
O261 C255 1.182 . S
O262 Zn253 1.896 . S
O262 C256 1.167 . S
O263 Zn254 2.120 . S
O263 C256 1.299 1_565 S
O264 Zn252 1.898 . S
O264 C259 1.167 . S
O265 Zn254 2.120 . S
O265 C259 1.299 . S
O266 Zn254 2.114 . S
O266 C268 1.166 . S
O267 Zn252 1.905 . S
O267 C268 1.182 . S
C268 O266 1.166 . S
C268 O267 1.182 . S
O269 Zn254 2.080 . S
O269 C272 1.305 . S
O270 Zn253 1.922 1_565 S
O270 C272 1.234 . S
C271 O257 1.305 . S
C271 O258 1.234 . S
C272 O269 1.305 . S
C272 O270 1.234 . S
Zn273 O279 1.920 . S
Zn273 O285 1.898 . S
Zn273 O288 1.905 . S
Zn274 O282 1.905 . S
Zn274 O283 1.898 . S
Zn274 O291 1.920 . S
Zn275 O278 2.080 . S
Zn275 O281 2.114 . S
Zn275 O284 2.120 . S
Zn275 O286 2.120 . S
Zn275 O287 2.114 . S
Zn275 O290 2.080 . S
C276 O281 1.166 . S
C276 O282 1.182 . S
C277 O283 1.167 . S
C277 O284 1.299 . S
O278 Zn275 2.080 . S
O278 C292 1.305 . S
O279 Zn273 1.920 . S
O279 C292 1.234 . S
C280 O285 1.167 . S
C280 O286 1.299 . S
O281 Zn275 2.114 . S
O281 C276 1.166 . S
O282 Zn274 1.905 . S
O282 C276 1.182 . S
O283 Zn274 1.898 . S
O283 C277 1.167 . S
O284 Zn275 2.120 . S
O284 C277 1.299 . S
O285 Zn273 1.898 . S
O285 C280 1.167 . S
O286 Zn275 2.120 . S
O286 C280 1.299 . S
O287 Zn275 2.114 . S
O287 C289 1.166 . S
O288 Zn273 1.905 . S
O288 C289 1.182 . S
C289 O287 1.166 . S
C289 O288 1.182 . S
O290 Zn275 2.080 . S
O290 C293 1.305 . S
O291 Zn274 1.920 . S
O291 C293 1.234 . S
C292 O278 1.305 . S
C292 O279 1.234 . S
C293 O290 1.305 . S
C293 O291 1.234 . S
Zn294 O300 1.923 . S
Zn294 O306 1.895 1_556 S
Zn294 O309 1.907 . S
Zn295 O303 1.905 . S
Zn295 O304 1.898 . S
Zn295 O312 1.920 . S
Zn296 O299 2.080 . S
Zn296 O302 2.114 . S
Zn296 O305 2.120 . S
Zn296 O307 2.120 . S
Zn296 O308 2.114 . S
Zn296 O311 2.080 . S
C297 O302 1.166 . S
C297 O303 1.182 . S
C298 O304 1.167 . S
C298 O305 1.299 . S
O299 Zn296 2.080 . S
O299 C313 1.305 . S
O300 Zn294 1.923 . S
O300 C313 1.234 . S
C301 O306 1.167 . S
C301 O307 1.299 1_554 S
O302 Zn296 2.114 . S
O302 C297 1.166 . S
O303 Zn295 1.905 . S
O303 C297 1.182 . S
O304 Zn295 1.898 . S
O304 C298 1.167 . S
O305 Zn296 2.120 . S
O305 C298 1.299 . S
O306 Zn294 1.895 1_554 S
O306 C301 1.167 . S
O307 Zn296 2.120 . S
O307 C301 1.299 1_556 S
O308 Zn296 2.114 . S
O308 C310 1.166 . S
O309 Zn294 1.907 . S
O309 C310 1.182 . S
C310 O308 1.166 . S
C310 O309 1.182 . S
O311 Zn296 2.080 . S
O311 C314 1.305 . S
O312 Zn295 1.920 . S
O312 C314 1.234 . S
C313 O299 1.305 . S
C313 O300 1.234 . S
C314 O311 1.305 . S
C314 O312 1.234 . S
Zn315 O321 1.907 1_556 S
Zn315 O327 1.903 . S
Zn315 O330 1.917 1_545 S
Zn316 O324 1.905 . S
Zn316 O325 1.898 . S
Zn316 O333 1.920 . S
Zn317 O320 2.080 . S
Zn317 O323 2.114 . S
Zn317 O326 2.120 . S
Zn317 O328 2.120 . S
Zn317 O329 2.114 . S
Zn317 O332 2.080 . S
C318 O323 1.166 . S
C318 O324 1.182 . S
C319 O325 1.167 . S
C319 O326 1.299 . S
O320 Zn317 2.080 . S
O320 C334 1.305 1_556 S
O321 Zn315 1.907 1_554 S
O321 C334 1.234 . S
C322 O327 1.167 . S
C322 O328 1.299 . S
O323 Zn317 2.114 . S
O323 C318 1.166 . S
O324 Zn316 1.905 . S
O324 C318 1.182 . S
O325 Zn316 1.898 . S
O325 C319 1.167 . S
O326 Zn317 2.120 . S
O326 C319 1.299 . S
O327 Zn315 1.903 . S
O327 C322 1.167 . S
O328 Zn317 2.120 . S
O328 C322 1.299 . S
O329 Zn317 2.114 . S
O329 C331 1.166 1_545 S
O330 Zn315 1.917 1_565 S
O330 C331 1.182 . S
C331 O329 1.166 1_565 S
C331 O330 1.182 . S
O332 Zn317 2.080 . S
O332 C335 1.305 . S
O333 Zn316 1.920 . S
O333 C335 1.234 . S
C334 O320 1.305 1_554 S
C334 O321 1.234 . S
C335 O332 1.305 . S
C335 O333 1.234 . S
H336 C344 0.950 . S
H337 C349 0.950 . S
H338 C346 0.950 . S
H339 C348 0.950 . S
H340 C350 0.950 1_655 S
H341 C352 0.950 . S
H342 C354 0.950 . S
H343 C355 0.950 . S
C344 H336 0.950 . S
C344 C345 1.386 . S
C344 C346 1.391 . S
C345 C344 1.386 . S
C345 C349 1.393 1_455 S
C346 H338 0.950 . S
C346 C344 1.391 . S
C346 C347 1.400 . S
C347 C346 1.400 . S
C347 C348 1.398 1_455 S
C347 C353 1.491 . S
C348 H339 0.950 . S
C348 C347 1.398 1_655 S
C348 C349 1.391 . S
C349 H337 0.950 . S
C349 C345 1.393 1_655 S
C349 C348 1.391 . S
C350 H340 0.950 1_455 S
C350 C351 1.386 . S
C350 C352 1.391 1_455 S
C351 C350 1.386 . S
C351 C355 1.393 . S
C352 H341 0.950 . S
C352 C350 1.391 1_655 S
C352 C353 1.400 1_655 S
C353 C347 1.491 . S
C353 C352 1.400 1_455 S
C353 C354 1.398 . S
C354 H342 0.950 . S
C354 C353 1.398 . S
C354 C355 1.391 . S
C355 H343 0.950 . S
C355 C351 1.393 . S
C355 C354 1.391 . S
H356 C364 0.950 . S
H357 C369 0.950 . S
H358 C366 0.950 . S
H359 C368 0.950 . S
H360 C370 0.950 . S
H361 C372 0.950 . S
H362 C374 0.950 . S
H363 C375 0.950 . S
C364 H356 0.950 . S
C364 C365 1.386 . S
C364 C366 1.391 . S
C365 C364 1.386 . S
C365 C369 1.393 . S
C366 H358 0.950 . S
C366 C364 1.391 . S
C366 C367 1.400 . S
C367 C366 1.400 . S
C367 C368 1.398 . S
C367 C373 1.491 . S
C368 H359 0.950 . S
C368 C367 1.398 . S
C368 C369 1.391 . S
C369 H357 0.950 . S
C369 C365 1.393 . S
C369 C368 1.391 . S
C370 H360 0.950 . S
C370 C371 1.386 . S
C370 C372 1.391 . S
C371 C370 1.386 . S
C371 C375 1.393 . S
C372 H361 0.950 . S
C372 C370 1.391 . S
C372 C373 1.400 . S
C373 C367 1.491 . S
C373 C372 1.400 . S
C373 C374 1.398 . S
C374 H362 0.950 . S
C374 C373 1.398 . S
C374 C375 1.391 . S
C375 H363 0.950 . S
C375 C371 1.393 . S
C375 C374 1.391 . S
H376 C384 0.950 . S
H377 C389 0.950 . S
H378 C386 0.937 1_655 S
H379 C388 0.950 . S
H380 C390 0.950 . S
H381 C392 0.950 . S
H382 C394 0.950 1_655 S
H383 C395 0.950 . S
C384 H376 0.950 . S
C384 C385 1.386 1_655 S
C384 C386 1.389 1_655 S
C385 C384 1.386 1_455 S
C385 C389 1.393 . S
C386 H378 0.937 1_455 S
C386 C384 1.389 1_455 S
C386 C387 1.416 . S
C387 C386 1.416 . S
C387 C388 1.398 . S
C387 C393 1.491 . S
C388 H379 0.950 . S
C388 C387 1.398 . S
C388 C389 1.391 . S
C389 H377 0.950 . S
C389 C385 1.393 . S
C389 C388 1.391 . S
C390 H380 0.950 . S
C390 C391 1.386 . S
C390 C392 1.391 . S
C391 C390 1.386 . S
C391 C395 1.393 . S
C392 H381 0.950 . S
C392 C390 1.391 . S
C392 C393 1.400 . S
C393 C387 1.491 . S
C393 C392 1.400 . S
C393 C394 1.398 . S
C394 H382 0.950 1_455 S
C394 C393 1.398 . S
C394 C395 1.391 . S
C395 H383 0.950 . S
C395 C391 1.393 . S
C395 C394 1.391 . S
H396 C404 0.950 . S
H397 C409 0.950 . S
H398 C406 0.948 1_455 S
H399 C408 0.950 . S
H400 C410 0.950 . S
H401 C412 0.950 . S
H402 C414 0.950 1_455 S
H403 C415 0.957 . S
C404 H396 0.950 . S
C404 C405 1.386 1_455 S
C404 C406 1.391 1_455 S
C405 C404 1.386 1_655 S
C405 C409 1.393 . S
C406 H398 0.948 1_655 S
C406 C404 1.391 1_655 S
C406 C407 1.403 . S
C407 C406 1.403 . S
C407 C408 1.398 . S
C407 C413 1.491 . S
C408 H399 0.950 . S
C408 C407 1.398 . S
C408 C409 1.391 . S
C409 H397 0.950 . S
C409 C405 1.393 . S
C409 C408 1.391 . S
C410 H400 0.950 . S
C410 C411 1.386 . S
C410 C412 1.391 . S
C411 C410 1.386 . S
C411 C415 1.393 . S
C412 H401 0.950 . S
C412 C410 1.391 . S
C412 C413 1.400 . S
C413 C407 1.491 . S
C413 C412 1.400 . S
C413 C414 1.398 . S
C414 H402 0.950 1_655 S
C414 C413 1.398 . S
C414 C415 1.391 . S
C415 H403 0.957 . S
C415 C411 1.393 . S
C415 C414 1.391 . S
H416 C424 0.950 . S
H417 C429 0.950 . S
H418 C426 0.950 . S
H419 C428 0.950 . S
H420 C430 0.950 . S
H421 C432 0.950 . S
H422 C434 0.950 1_565 S
H423 C435 0.950 1_565 S
C424 H416 0.950 . S
C424 C425 1.386 1_565 S
C424 C426 1.391 . S
C425 C424 1.386 1_545 S
C425 C429 1.393 . S
C426 H418 0.950 . S
C426 C424 1.391 . S
C426 C427 1.400 1_565 S
C427 C426 1.400 1_545 S
C427 C428 1.398 . S
C427 C433 1.491 . S
C428 H419 0.950 . S
C428 C427 1.398 . S
C428 C429 1.391 . S
C429 H417 0.950 . S
C429 C425 1.393 . S
C429 C428 1.391 . S
C430 H420 0.950 . S
C430 C431 1.386 . S
C430 C432 1.391 . S
C431 C430 1.386 . S
C431 C435 1.393 . S
C432 H421 0.950 . S
C432 C430 1.391 . S
C432 C433 1.400 . S
C433 C427 1.491 . S
C433 C432 1.400 . S
C433 C434 1.398 . S
C434 H422 0.950 1_545 S
C434 C433 1.398 . S
C434 C435 1.391 . S
C435 H423 0.950 1_545 S
C435 C431 1.393 . S
C435 C434 1.391 . S
H436 C444 0.950 . S
H437 C449 0.950 . S
H438 C446 0.950 . S
H439 C448 0.950 . S
H440 C450 0.950 . S
H441 C452 0.950 . S
H442 C454 0.950 . S
H443 C455 0.950 . S
C444 H436 0.950 . S
C444 C445 1.386 . S
C444 C446 1.391 . S
C445 C444 1.386 . S
C445 C449 1.393 . S
C446 H438 0.950 . S
C446 C444 1.391 . S
C446 C447 1.400 . S
C447 C446 1.400 . S
C447 C448 1.398 . S
C447 C453 1.491 . S
C448 H439 0.950 . S
C448 C447 1.398 . S
C448 C449 1.391 . S
C449 H437 0.950 . S
C449 C445 1.393 . S
C449 C448 1.391 . S
C450 H440 0.950 . S
C450 C451 1.386 . S
C450 C452 1.391 . S
C451 C450 1.386 . S
C451 C455 1.393 . S
C452 H441 0.950 . S
C452 C450 1.391 . S
C452 C453 1.400 . S
C453 C447 1.491 . S
C453 C452 1.400 . S
C453 C454 1.398 . S
C454 H442 0.950 . S
C454 C453 1.398 . S
C454 C455 1.391 . S
C455 H443 0.950 . S
C455 C451 1.393 . S
C455 C454 1.391 . S
H456 C464 0.950 . S
H457 C469 0.950 . S
H458 C466 0.950 . S
H459 C468 0.950 . S
H460 C470 0.963 . S
H461 C472 0.950 1_545 S
H462 C474 0.950 . S
H463 C475 0.950 . S
C464 H456 0.950 . S
C464 C465 1.386 . S
C464 C466 1.391 . S
C465 C464 1.386 . S
C465 C469 1.393 1_565 S
C466 H458 0.950 . S
C466 C464 1.391 . S
C466 C467 1.400 . S
C467 C466 1.400 . S
C467 C468 1.398 1_565 S
C467 C473 1.491 . S
C468 H459 0.950 . S
C468 C467 1.398 1_545 S
C468 C469 1.391 . S
C469 H457 0.950 . S
C469 C465 1.393 1_545 S
C469 C468 1.391 . S
C470 H460 0.963 . S
C470 C471 1.386 . S
C470 C472 1.391 . S
C471 C470 1.386 . S
C471 C475 1.393 . S
C472 H461 0.950 1_565 S
C472 C470 1.391 . S
C472 C473 1.400 . S
C473 C467 1.491 . S
C473 C472 1.400 . S
C473 C474 1.398 . S
C474 H462 0.950 . S
C474 C473 1.398 . S
C474 C475 1.391 . S
C475 H463 0.950 . S
C475 C471 1.393 . S
C475 C474 1.391 . S
H476 C484 0.950 . S
H477 C489 0.950 . S
H478 C486 0.950 . S
H479 C488 0.950 . S
H480 C490 0.950 . S
H481 C492 0.950 . S
H482 C494 0.950 . S
H483 C495 0.950 . S
C484 H476 0.950 . S
C484 C485 1.386 . S
C484 C486 1.391 . S
C485 C484 1.386 . S
C485 C489 1.393 . S
C486 H478 0.950 . S
C486 C484 1.391 . S
C486 C487 1.400 . S
C487 C486 1.400 . S
C487 C488 1.398 . S
C487 C493 1.491 . S
C488 H479 0.950 . S
C488 C487 1.398 . S
C488 C489 1.391 . S
C489 H477 0.950 . S
C489 C485 1.393 . S
C489 C488 1.391 . S
C490 H480 0.950 . S
C490 C491 1.386 . S
C490 C492 1.391 . S
C491 C490 1.386 . S
C491 C495 1.393 . S
C492 H481 0.950 . S
C492 C490 1.391 . S
C492 C493 1.400 . S
C493 C487 1.491 . S
C493 C492 1.400 . S
C493 C494 1.398 . S
C494 H482 0.950 . S
C494 C493 1.398 . S
C494 C495 1.391 . S
C495 H483 0.950 . S
C495 C491 1.393 . S
C495 C494 1.391 . S
H496 C504 0.950 . S
H497 C509 0.950 . S
H498 C506 0.950 . S
H499 C508 0.950 . S
H500 C510 0.950 1_556 S
H501 C512 0.950 1_556 S
H502 C514 0.950 . S
H503 C515 0.950 . S
C504 H496 0.950 . S
C504 C505 1.386 . S
C504 C506 1.391 . S
C505 C504 1.386 . S
C505 C509 1.393 1_554 S
C506 H498 0.950 . S
C506 C504 1.391 . S
C506 C507 1.400 . S
C507 C506 1.400 . S
C507 C508 1.398 1_554 S
C507 C513 1.491 . S
C508 H499 0.950 . S
C508 C507 1.398 1_556 S
C508 C509 1.391 . S
C509 H497 0.950 . S
C509 C505 1.393 1_556 S
C509 C508 1.391 . S
C510 H500 0.950 1_554 S
C510 C511 1.386 . S
C510 C512 1.391 . S
C511 C510 1.386 . S
C511 C515 1.393 . S
C512 H501 0.950 1_554 S
C512 C510 1.391 . S
C512 C513 1.400 . S
C513 C507 1.491 . S
C513 C512 1.400 . S
C513 C514 1.398 . S
C514 H502 0.950 . S
C514 C513 1.398 . S
C514 C515 1.391 . S
C515 H503 0.950 . S
C515 C511 1.393 . S
C515 C514 1.391 . S
H516 C524 0.950 . S
H517 C529 0.950 . S
H518 C526 0.950 . S
H519 C528 0.950 . S
H520 C530 0.950 . S
H521 C532 0.950 . S
H522 C534 0.950 . S
H523 C535 0.950 . S
C524 H516 0.950 . S
C524 C525 1.386 . S
C524 C526 1.391 . S
C525 C524 1.386 . S
C525 C529 1.393 . S
C526 H518 0.950 . S
C526 C524 1.391 . S
C526 C527 1.400 . S
C527 C526 1.400 . S
C527 C528 1.398 . S
C527 C533 1.491 . S
C528 H519 0.950 . S
C528 C527 1.398 . S
C528 C529 1.391 . S
C529 H517 0.950 . S
C529 C525 1.393 . S
C529 C528 1.391 . S
C530 H520 0.950 . S
C530 C531 1.386 . S
C530 C532 1.391 . S
C531 C530 1.386 . S
C531 C535 1.393 . S
C532 H521 0.950 . S
C532 C530 1.391 . S
C532 C533 1.400 . S
C533 C527 1.491 . S
C533 C532 1.400 . S
C533 C534 1.398 . S
C534 H522 0.950 . S
C534 C533 1.398 . S
C534 C535 1.391 . S
C535 H523 0.950 . S
C535 C531 1.393 . S
C535 C534 1.391 . S
H536 C544 0.950 . S
H537 C549 0.950 . S
H538 C546 0.950 . S
H539 C548 0.950 . S
H540 C550 0.950 . S
H541 C552 0.950 . S
H542 C554 0.950 . S
H543 C555 0.950 . S
C544 H536 0.950 . S
C544 C545 1.386 . S
C544 C546 1.391 . S
C545 C544 1.386 . S
C545 C549 1.393 . S
C546 H538 0.950 . S
C546 C544 1.391 . S
C546 C547 1.400 . S
C547 C546 1.400 . S
C547 C548 1.398 . S
C547 C553 1.491 . S
C548 H539 0.950 . S
C548 C547 1.398 . S
C548 C549 1.391 . S
C549 H537 0.950 . S
C549 C545 1.393 . S
C549 C548 1.391 . S
C550 H540 0.950 . S
C550 C551 1.386 . S
C550 C552 1.391 . S
C551 C550 1.386 . S
C551 C555 1.393 . S
C552 H541 0.950 . S
C552 C550 1.391 . S
C552 C553 1.400 . S
C553 C547 1.491 . S
C553 C552 1.400 . S
C553 C554 1.398 . S
C554 H542 0.950 . S
C554 C553 1.398 . S
C554 C555 1.391 . S
C555 H543 0.950 . S
C555 C551 1.393 . S
C555 C554 1.391 . S
H556 C564 0.950 . S
H557 C569 0.950 . S
H558 C566 0.950 . S
H559 C568 0.950 . S
H560 C570 0.950 . S
H561 C572 0.950 . S
H562 C574 0.950 . S
H563 C575 0.950 . S
C564 H556 0.950 . S
C564 C565 1.386 . S
C564 C566 1.391 . S
C565 C564 1.386 . S
C565 C569 1.393 . S
C566 H558 0.950 . S
C566 C564 1.391 . S
C566 C567 1.400 . S
C567 C566 1.400 . S
C567 C568 1.398 . S
C567 C573 1.491 . S
C568 H559 0.950 . S
C568 C567 1.398 . S
C568 C569 1.391 . S
C569 H557 0.950 . S
C569 C565 1.393 . S
C569 C568 1.391 . S
C570 H560 0.950 . S
C570 C571 1.386 . S
C570 C572 1.391 . S
C571 C570 1.386 . S
C571 C575 1.393 . S
C572 H561 0.950 . S
C572 C570 1.391 . S
C572 C573 1.400 . S
C573 C567 1.491 . S
C573 C572 1.400 . S
C573 C574 1.398 . S
C574 H562 0.950 . S
C574 C573 1.398 . S
C574 C575 1.391 . S
C575 H563 0.950 . S
C575 C571 1.393 . S
C575 C574 1.391 . S
H576 C584 0.950 . S
H577 C589 0.950 . S
H578 C586 0.950 . S
H579 C588 0.950 . S
H580 C590 0.950 . S
H581 C592 0.950 . S
H582 C594 0.950 . S
H583 C595 0.950 . S
C584 H576 0.950 . S
C584 C585 1.386 . S
C584 C586 1.391 . S
C585 C584 1.386 . S
C585 C589 1.393 . S
C586 H578 0.950 . S
C586 C584 1.391 . S
C586 C587 1.400 . S
C587 C586 1.400 . S
C587 C588 1.398 . S
C587 C593 1.491 . S
C588 H579 0.950 . S
C588 C587 1.398 . S
C588 C589 1.391 . S
C589 H577 0.950 . S
C589 C585 1.393 . S
C589 C588 1.391 . S
C590 H580 0.950 . S
C590 C591 1.386 . S
C590 C592 1.391 . S
C591 C590 1.386 . S
C591 C595 1.393 . S
C592 H581 0.950 . S
C592 C590 1.391 . S
C592 C593 1.400 . S
C593 C587 1.491 . S
C593 C592 1.400 . S
C593 C594 1.398 . S
C594 H582 0.950 . S
C594 C593 1.398 . S
C594 C595 1.391 . S
C595 H583 0.950 . S
C595 C591 1.393 . S
C595 C594 1.391 . S
H596 C604 0.950 . S
H597 C609 0.950 . S
H598 C606 0.950 . S
H599 C608 0.950 . S
H600 C610 0.950 . S
H601 C612 0.950 . S
H602 C614 0.950 . S
H603 C615 0.950 . S
C604 H596 0.950 . S
C604 C605 1.386 . S
C604 C606 1.391 . S
C605 C604 1.386 . S
C605 C609 1.393 . S
C606 H598 0.950 . S
C606 C604 1.391 . S
C606 C607 1.400 . S
C607 C606 1.400 . S
C607 C608 1.398 . S
C607 C613 1.491 . S
C608 H599 0.950 . S
C608 C607 1.398 . S
C608 C609 1.391 . S
C609 H597 0.950 . S
C609 C605 1.393 . S
C609 C608 1.391 . S
C610 H600 0.950 . S
C610 C611 1.386 . S
C610 C612 1.391 . S
C611 C610 1.386 . S
C611 C615 1.393 . S
C612 H601 0.950 . S
C612 C610 1.391 . S
C612 C613 1.400 . S
C613 C607 1.491 . S
C613 C612 1.400 . S
C613 C614 1.398 . S
C614 H602 0.950 . S
C614 C613 1.398 . S
C614 C615 1.391 . S
C615 H603 0.950 . S
C615 C611 1.393 . S
C615 C614 1.391 . S
H616 C624 0.950 . S
H617 C629 0.950 . S
H618 C626 0.950 . S
H619 C628 0.950 . S
H620 C630 0.950 . S
H621 C632 0.950 . S
H622 C634 0.950 . S
H623 C635 0.950 . S
C624 H616 0.950 . S
C624 C625 1.386 . S
C624 C626 1.391 . S
C625 C624 1.386 . S
C625 C629 1.393 . S
C626 H618 0.950 . S
C626 C624 1.391 . S
C626 C627 1.400 . S
C627 C626 1.400 . S
C627 C628 1.398 . S
C627 C633 1.491 . S
C628 H619 0.950 . S
C628 C627 1.398 . S
C628 C629 1.391 . S
C629 H617 0.950 . S
C629 C625 1.393 . S
C629 C628 1.391 . S
C630 H620 0.950 . S
C630 C631 1.386 . S
C630 C632 1.391 . S
C631 C630 1.386 . S
C631 C635 1.393 . S
C632 H621 0.950 . S
C632 C630 1.391 . S
C632 C633 1.400 . S
C633 C627 1.491 . S
C633 C632 1.400 . S
C633 C634 1.398 . S
C634 H622 0.950 . S
C634 C633 1.398 . S
C634 C635 1.391 . S
C635 H623 0.950 . S
C635 C631 1.393 . S
C635 C634 1.391 . S
H636 C644 0.950 . S
H637 C649 0.950 . S
H638 C646 0.950 . S
H639 C648 0.950 . S
H640 C650 0.950 . S
H641 C652 0.950 . S
H642 C654 0.950 . S
H643 C655 0.950 . S
C644 H636 0.950 . S
C644 C645 1.386 . S
C644 C646 1.391 . S
C645 C644 1.386 . S
C645 C649 1.393 . S
C646 H638 0.950 . S
C646 C644 1.391 . S
C646 C647 1.400 . S
C647 C646 1.400 . S
C647 C648 1.398 . S
C647 C653 1.491 . S
C648 H639 0.950 . S
C648 C647 1.398 . S
C648 C649 1.391 . S
C649 H637 0.950 . S
C649 C645 1.393 . S
C649 C648 1.391 . S
C650 H640 0.950 . S
C650 C651 1.386 . S
C650 C652 1.391 . S
C651 C650 1.386 . S
C651 C655 1.393 . S
C652 H641 0.950 . S
C652 C650 1.391 . S
C652 C653 1.400 . S
C653 C647 1.491 . S
C653 C652 1.400 . S
C653 C654 1.398 . S
C654 H642 0.950 . S
C654 C653 1.398 . S
C654 C655 1.391 . S
C655 H643 0.950 . S
C655 C651 1.393 . S
C655 C654 1.391 . S
H656 C664 0.950 . S
H657 C669 0.950 . S
H658 C666 0.950 . S
H659 C668 0.950 . S
H660 C670 0.950 . S
H661 C672 0.950 . S
H662 C674 0.950 . S
H663 C675 0.950 . S
C664 H656 0.950 . S
C664 C665 1.386 . S
C664 C666 1.391 . S
C665 C664 1.386 . S
C665 C669 1.393 . S
C666 H658 0.950 . S
C666 C664 1.391 . S
C666 C667 1.400 . S
C667 C666 1.400 . S
C667 C668 1.398 . S
C667 C673 1.491 . S
C668 H659 0.950 . S
C668 C667 1.398 . S
C668 C669 1.391 . S
C669 H657 0.950 . S
C669 C665 1.393 . S
C669 C668 1.391 . S
C670 H660 0.950 . S
C670 C671 1.386 . S
C670 C672 1.391 . S
C671 C670 1.386 . S
C671 C675 1.393 . S
C672 H661 0.950 . S
C672 C670 1.391 . S
C672 C673 1.400 . S
C673 C667 1.491 . S
C673 C672 1.400 . S
C673 C674 1.398 . S
C674 H662 0.950 . S
C674 C673 1.398 . S
C674 C675 1.391 . S
C675 H663 0.950 . S
C675 C671 1.393 . S
C675 C674 1.391 . S
H676 C684 0.950 . S
H677 C689 0.950 . S
H678 C686 0.950 . S
H679 C688 0.950 . S
H680 C690 0.950 . S
H681 C692 0.950 . S
H682 C694 0.950 . S
H683 C695 0.976 . S
C684 H676 0.950 . S
C684 C685 1.386 1_545 S
C684 C686 1.391 . S
C685 C684 1.386 1_565 S
C685 C689 1.393 . S
C686 H678 0.950 . S
C686 C684 1.391 . S
C686 C687 1.400 1_545 S
C687 C686 1.400 1_565 S
C687 C688 1.398 . S
C687 C693 1.491 . S
C688 H679 0.950 . S
C688 C687 1.398 . S
C688 C689 1.391 . S
C689 H677 0.950 . S
C689 C685 1.393 . S
C689 C688 1.391 . S
C690 H680 0.950 . S
C690 C691 1.386 . S
C690 C692 1.391 . S
C691 C690 1.386 . S
C691 C695 1.364 1_565 S
C692 H681 0.950 . S
C692 C690 1.391 . S
C692 C693 1.400 . S
C693 C687 1.491 . S
C693 C692 1.400 . S
C693 C694 1.398 1_565 S
C694 H682 0.950 . S
C694 C693 1.398 1_545 S
C694 C695 1.394 . S
C695 H683 0.976 . S
C695 C691 1.364 1_545 S
C695 C694 1.394 . S
H696 C704 0.950 . S
H697 C709 0.950 . S
H698 C706 0.950 . S
H699 C708 0.950 . S
H700 C710 0.950 . S
H701 C712 0.950 . S
H702 C714 0.950 . S
H703 C715 0.950 . S
C704 H696 0.950 . S
C704 C705 1.386 . S
C704 C706 1.391 . S
C705 C704 1.386 . S
C705 C709 1.393 . S
C706 H698 0.950 . S
C706 C704 1.391 . S
C706 C707 1.400 . S
C707 C706 1.400 . S
C707 C708 1.398 . S
C707 C713 1.491 . S
C708 H699 0.950 . S
C708 C707 1.398 . S
C708 C709 1.391 . S
C709 H697 0.950 . S
C709 C705 1.393 . S
C709 C708 1.391 . S
C710 H700 0.950 . S
C710 C711 1.386 . S
C710 C712 1.391 . S
C711 C710 1.386 . S
C711 C715 1.393 . S
C712 H701 0.950 . S
C712 C710 1.391 . S
C712 C713 1.400 . S
C713 C707 1.491 . S
C713 C712 1.400 . S
C713 C714 1.398 . S
C714 H702 0.950 . S
C714 C713 1.398 . S
C714 C715 1.391 . S
C715 H703 0.950 . S
C715 C711 1.393 . S
C715 C714 1.391 . S
H716 C724 0.950 . S
H717 C729 0.950 . S
H718 C726 0.950 . S
H719 C728 0.969 . S
H720 C730 0.950 1_565 S
H721 C732 0.950 1_565 S
H722 C734 0.950 . S
H723 C735 0.950 . S
C724 H716 0.950 . S
C724 C725 1.386 . S
C724 C726 1.391 . S
C725 C724 1.386 . S
C725 C729 1.393 1_545 S
C726 H718 0.950 . S
C726 C724 1.391 . S
C726 C727 1.400 . S
C727 C726 1.400 . S
C727 C728 1.377 1_545 S
C727 C733 1.491 . S
C728 H719 0.969 . S
C728 C727 1.377 1_565 S
C728 C729 1.395 . S
C729 H717 0.950 . S
C729 C725 1.393 1_565 S
C729 C728 1.395 . S
C730 H720 0.950 1_545 S
C730 C731 1.386 . S
C730 C732 1.391 . S
C731 C730 1.386 . S
C731 C735 1.393 . S
C732 H721 0.950 1_545 S
C732 C730 1.391 . S
C732 C733 1.400 . S
C733 C727 1.491 . S
C733 C732 1.400 . S
C733 C734 1.398 . S
C734 H722 0.950 . S
C734 C733 1.398 . S
C734 C735 1.391 . S
C735 H723 0.950 . S
C735 C731 1.393 . S
C735 C734 1.391 . S
H736 C744 0.950 . S
H737 C749 0.950 . S
H738 C746 0.950 . S
H739 C748 0.950 . S
H740 C750 0.950 . S
H741 C752 0.950 . S
H742 C754 0.950 . S
H743 C755 0.950 . S
C744 H736 0.950 . S
C744 C745 1.386 . S
C744 C746 1.391 . S
C745 C744 1.386 . S
C745 C749 1.393 . S
C746 H738 0.950 . S
C746 C744 1.391 . S
C746 C747 1.400 . S
C747 C746 1.400 . S
C747 C748 1.398 . S
C747 C753 1.491 . S
C748 H739 0.950 . S
C748 C747 1.398 . S
C748 C749 1.391 . S
C749 H737 0.950 . S
C749 C745 1.393 . S
C749 C748 1.391 . S
C750 H740 0.950 . S
C750 C751 1.386 . S
C750 C752 1.391 . S
C751 C750 1.386 . S
C751 C755 1.393 . S
C752 H741 0.950 . S
C752 C750 1.391 . S
C752 C753 1.400 . S
C753 C747 1.491 . S
C753 C752 1.400 . S
C753 C754 1.398 . S
C754 H742 0.950 . S
C754 C753 1.398 . S
C754 C755 1.391 . S
C755 H743 0.950 . S
C755 C751 1.393 . S
C755 C754 1.391 . S
H756 C764 0.950 . S
H757 C769 0.950 . S
H758 C766 0.950 . S
H759 C768 0.950 . S
H760 C770 0.950 . S
H761 C772 0.950 . S
H762 C774 0.929 1_554 S
H763 C775 0.950 1_554 S
C764 H756 0.950 . S
C764 C765 1.386 1_554 S
C764 C766 1.391 . S
C765 C764 1.386 1_556 S
C765 C769 1.393 . S
C766 H758 0.950 . S
C766 C764 1.391 . S
C766 C767 1.400 1_554 S
C767 C766 1.400 1_556 S
C767 C768 1.398 . S
C767 C773 1.491 . S
C768 H759 0.950 . S
C768 C767 1.398 . S
C768 C769 1.391 . S
C769 H757 0.950 . S
C769 C765 1.393 . S
C769 C768 1.391 . S
C770 H760 0.950 . S
C770 C771 1.386 . S
C770 C772 1.391 . S
C771 C770 1.386 . S
C771 C775 1.393 . S
C772 H761 0.950 . S
C772 C770 1.391 . S
C772 C773 1.400 . S
C773 C767 1.491 . S
C773 C772 1.400 . S
C773 C774 1.418 . S
C774 H762 0.929 1_556 S
C774 C773 1.418 . S
C774 C775 1.393 . S
C775 H763 0.950 1_556 S
C775 C771 1.393 . S
C775 C774 1.393 . S
H776 C784 0.950 . S
H777 C789 0.950 . S
H778 C786 0.950 . S
H779 C788 0.950 . S
H780 C790 0.950 . S
H781 C792 0.950 . S
H782 C794 0.950 . S
H783 C795 0.950 . S
C784 H776 0.950 . S
C784 C785 1.386 . S
C784 C786 1.391 . S
C785 C784 1.386 . S
C785 C789 1.393 . S
C786 H778 0.950 . S
C786 C784 1.391 . S
C786 C787 1.400 . S
C787 C786 1.400 . S
C787 C788 1.398 . S
C787 C793 1.491 . S
C788 H779 0.950 . S
C788 C787 1.398 . S
C788 C789 1.391 . S
C789 H777 0.950 . S
C789 C785 1.393 . S
C789 C788 1.391 . S
C790 H780 0.950 . S
C790 C791 1.386 . S
C790 C792 1.391 . S
C791 C790 1.386 . S
C791 C795 1.393 . S
C792 H781 0.950 . S
C792 C790 1.391 . S
C792 C793 1.400 . S
C793 C787 1.491 . S
C793 C792 1.400 . S
C793 C794 1.398 . S
C794 H782 0.950 . S
C794 C793 1.398 . S
C794 C795 1.391 . S
C795 H783 0.950 . S
C795 C791 1.393 . S
C795 C794 1.391 . S
H796 C804 0.950 . S
H797 C809 0.950 . S
H798 C806 0.950 . S
H799 C808 0.950 . S
H800 C810 0.950 1_556 S
H801 C812 0.950 . S
H802 C814 0.950 . S
H803 C815 0.950 . S
C804 H796 0.950 . S
C804 C805 1.386 . S
C804 C806 1.391 . S
C805 C804 1.386 . S
C805 C809 1.393 1_554 S
C806 H798 0.950 . S
C806 C804 1.391 . S
C806 C807 1.400 . S
C807 C806 1.400 . S
C807 C808 1.398 1_554 S
C807 C813 1.491 . S
C808 H799 0.950 . S
C808 C807 1.398 1_556 S
C808 C809 1.391 . S
C809 H797 0.950 . S
C809 C805 1.393 1_556 S
C809 C808 1.391 . S
C810 H800 0.950 1_554 S
C810 C811 1.386 . S
C810 C812 1.391 1_554 S
C811 C810 1.386 . S
C811 C815 1.393 . S
C812 H801 0.950 . S
C812 C810 1.391 1_556 S
C812 C813 1.400 1_556 S
C813 C807 1.491 . S
C813 C812 1.400 1_554 S
C813 C814 1.398 . S
C814 H802 0.950 . S
C814 C813 1.398 . S
C814 C815 1.391 . S
C815 H803 0.950 . S
C815 C811 1.393 . S
C815 C814 1.391 . S
H816 C824 0.950 . S
H817 C829 0.950 . S
H818 C826 0.950 . S
H819 C828 0.950 . S
H820 C830 0.950 . S
H821 C832 0.950 . S
H822 C834 0.950 . S
H823 C835 0.950 . S
C824 H816 0.950 . S
C824 C825 1.386 1_655 S
C824 C826 1.391 . S
C825 C824 1.386 1_455 S
C825 C829 1.393 . S
C826 H818 0.950 . S
C826 C824 1.391 . S
C826 C827 1.400 1_655 S
C827 C826 1.400 1_455 S
C827 C828 1.398 . S
C827 C833 1.491 . S
C828 H819 0.950 . S
C828 C827 1.398 . S
C828 C829 1.391 . S
C829 H817 0.950 . S
C829 C825 1.393 . S
C829 C828 1.391 . S
C830 H820 0.950 . S
C830 C831 1.386 . S
C830 C832 1.391 . S
C831 C830 1.386 . S
C831 C835 1.393 1_455 S
C832 H821 0.950 . S
C832 C830 1.391 . S
C832 C833 1.400 . S
C833 C827 1.491 . S
C833 C832 1.400 . S
C833 C834 1.398 1_455 S
C834 H822 0.950 . S
C834 C833 1.398 1_655 S
C834 C835 1.391 . S
C835 H823 0.950 . S
C835 C831 1.393 1_655 S
C835 C834 1.391 . S
H836 C844 0.950 . S
H837 C849 0.950 . S
H838 C846 0.950 . S
H839 C848 0.950 . S
H840 C850 0.950 . S
H841 C852 0.950 . S
H842 C854 0.950 . S
H843 C855 0.950 . S
C844 H836 0.950 . S
C844 C845 1.386 . S
C844 C846 1.391 . S
C845 C844 1.386 . S
C845 C849 1.393 1_655 S
C846 H838 0.950 . S
C846 C844 1.391 . S
C846 C847 1.400 . S
C847 C846 1.400 . S
C847 C848 1.398 1_655 S
C847 C853 1.491 . S
C848 H839 0.950 . S
C848 C847 1.398 1_455 S
C848 C849 1.391 . S
C849 H837 0.950 . S
C849 C845 1.393 1_455 S
C849 C848 1.391 . S
C850 H840 0.950 . S
C850 C851 1.386 1_455 S
C850 C852 1.391 . S
C851 C850 1.386 1_655 S
C851 C855 1.393 . S
C852 H841 0.950 . S
C852 C850 1.391 . S
C852 C853 1.400 1_455 S
C853 C847 1.491 . S
C853 C852 1.400 1_655 S
C853 C854 1.398 . S
C854 H842 0.950 . S
C854 C853 1.398 . S
C854 C855 1.391 . S
C855 H843 0.950 . S
C855 C851 1.393 . S
C855 C854 1.391 . S
H856 C864 0.950 . S
H857 C869 0.950 . S
H858 C866 0.950 . S
H859 C868 0.950 . S
H860 C870 0.950 . S
H861 C872 0.950 . S
H862 C874 0.950 . S
H863 C875 0.950 . S
C864 H856 0.950 . S
C864 C865 1.386 1_655 S
C864 C866 1.391 . S
C865 C864 1.386 1_455 S
C865 C869 1.393 . S
C866 H858 0.950 . S
C866 C864 1.391 . S
C866 C867 1.400 1_655 S
C867 C866 1.400 1_455 S
C867 C868 1.398 . S
C867 C873 1.491 . S
C868 H859 0.950 . S
C868 C867 1.398 . S
C868 C869 1.391 . S
C869 H857 0.950 . S
C869 C865 1.393 . S
C869 C868 1.391 . S
C870 H860 0.950 . S
C870 C871 1.386 . S
C870 C872 1.391 . S
C871 C870 1.386 . S
C871 C875 1.393 1_455 S
C872 H861 0.950 . S
C872 C870 1.391 . S
C872 C873 1.400 . S
C873 C867 1.491 . S
C873 C872 1.400 . S
C873 C874 1.398 1_455 S
C874 H862 0.950 . S
C874 C873 1.398 1_655 S
C874 C875 1.391 . S
C875 H863 0.950 . S
C875 C871 1.393 1_655 S
C875 C874 1.391 . S
H876 C884 0.950 . S
H877 C889 0.950 . S
H878 C886 0.950 . S
H879 C888 0.950 . S
H880 C890 0.950 . S
H881 C892 0.950 . S
H882 C894 0.950 . S
H883 C895 0.950 . S
C884 H876 0.950 . S
C884 C885 1.386 . S
C884 C886 1.391 . S
C885 C884 1.386 . S
C885 C889 1.393 . S
C886 H878 0.950 . S
C886 C884 1.391 . S
C886 C887 1.400 . S
C887 C886 1.400 . S
C887 C888 1.398 . S
C887 C893 1.491 . S
C888 H879 0.950 . S
C888 C887 1.398 . S
C888 C889 1.391 . S
C889 H877 0.950 . S
C889 C885 1.393 . S
C889 C888 1.391 . S
C890 H880 0.950 . S
C890 C891 1.386 . S
C890 C892 1.391 . S
C891 C890 1.386 . S
C891 C895 1.393 . S
C892 H881 0.950 . S
C892 C890 1.391 . S
C892 C893 1.400 . S
C893 C887 1.491 . S
C893 C892 1.400 . S
C893 C894 1.398 . S
C894 H882 0.950 . S
C894 C893 1.398 . S
C894 C895 1.391 . S
C895 H883 0.950 . S
C895 C891 1.393 . S
C895 C894 1.391 . S
H896 C904 0.950 1_565 S
H897 C909 0.950 . S
H898 C906 0.950 1_565 S
H899 C908 0.950 . S
H900 C910 0.950 . S
H901 C912 0.950 . S
H902 C914 0.962 . S
H903 C915 0.950 . S
C904 H896 0.950 1_545 S
C904 C905 1.386 . S
C904 C906 1.391 . S
C905 C904 1.386 . S
C905 C909 1.393 . S
C906 H898 0.950 1_545 S
C906 C904 1.391 . S
C906 C907 1.400 . S
C907 C906 1.400 . S
C907 C908 1.398 . S
C907 C913 1.491 . S
C908 H899 0.950 . S
C908 C907 1.398 . S
C908 C909 1.391 . S
C909 H897 0.950 . S
C909 C905 1.393 . S
C909 C908 1.391 . S
C910 H900 0.950 . S
C910 C911 1.386 . S
C910 C912 1.391 . S
C911 C910 1.386 . S
C911 C915 1.393 . S
C912 H901 0.950 . S
C912 C910 1.391 . S
C912 C913 1.400 . S
C913 C907 1.491 . S
C913 C912 1.400 . S
C913 C914 1.398 . S
C914 H902 0.962 . S
C914 C913 1.398 . S
C914 C915 1.391 . S
C915 H903 0.950 . S
C915 C911 1.393 . S
C915 C914 1.391 . S
H916 C924 0.950 . S
H917 C929 0.950 . S
H918 C926 0.950 . S
H919 C928 0.950 . S
H920 C930 0.950 . S
H921 C932 0.950 . S
H922 C934 0.950 . S
H923 C935 0.950 . S
C924 H916 0.950 . S
C924 C925 1.386 . S
C924 C926 1.391 . S
C925 C924 1.386 . S
C925 C929 1.393 . S
C926 H918 0.950 . S
C926 C924 1.391 . S
C926 C927 1.400 . S
C927 C926 1.400 . S
C927 C928 1.398 . S
C927 C933 1.491 . S
C928 H919 0.950 . S
C928 C927 1.398 . S
C928 C929 1.391 . S
C929 H917 0.950 . S
C929 C925 1.393 . S
C929 C928 1.391 . S
C930 H920 0.950 . S
C930 C931 1.386 . S
C930 C932 1.391 . S
C931 C930 1.386 . S
C931 C935 1.393 . S
C932 H921 0.950 . S
C932 C930 1.391 . S
C932 C933 1.400 . S
C933 C927 1.491 . S
C933 C932 1.400 . S
C933 C934 1.398 . S
C934 H922 0.950 . S
C934 C933 1.398 . S
C934 C935 1.391 . S
C935 H923 0.950 . S
C935 C931 1.393 . S
C935 C934 1.391 . S
H936 C944 0.950 . S
H937 C949 0.950 . S
H938 C946 0.950 . S
H939 C948 0.950 . S
H940 C950 0.950 . S
H941 C952 0.950 . S
H942 C954 0.950 . S
H943 C955 0.950 . S
C944 H936 0.950 . S
C944 C945 1.386 . S
C944 C946 1.391 . S
C945 C944 1.386 . S
C945 C949 1.393 1_565 S
C946 H938 0.950 . S
C946 C944 1.391 . S
C946 C947 1.400 . S
C947 C946 1.400 . S
C947 C948 1.398 1_565 S
C947 C953 1.491 . S
C948 H939 0.950 . S
C948 C947 1.398 1_545 S
C948 C949 1.391 . S
C949 H937 0.950 . S
C949 C945 1.393 1_545 S
C949 C948 1.391 . S
C950 H940 0.950 . S
C950 C951 1.386 1_545 S
C950 C952 1.391 . S
C951 C950 1.386 1_565 S
C951 C955 1.393 . S
C952 H941 0.950 . S
C952 C950 1.391 . S
C952 C953 1.400 1_545 S
C953 C947 1.491 . S
C953 C952 1.400 1_565 S
C953 C954 1.398 . S
C954 H942 0.950 . S
C954 C953 1.398 . S
C954 C955 1.391 . S
C955 H943 0.950 . S
C955 C951 1.393 . S
C955 C954 1.391 . S
H956 C964 0.950 . S
H957 C969 0.950 . S
H958 C966 0.950 . S
H959 C968 0.950 . S
H960 C970 0.950 . S
H961 C972 0.950 . S
H962 C974 0.950 . S
H963 C975 0.950 . S
C964 H956 0.950 . S
C964 C965 1.386 . S
C964 C966 1.391 . S
C965 C964 1.386 . S
C965 C969 1.393 . S
C966 H958 0.950 . S
C966 C964 1.391 . S
C966 C967 1.400 . S
C967 C966 1.400 . S
C967 C968 1.398 . S
C967 C973 1.491 . S
C968 H959 0.950 . S
C968 C967 1.398 . S
C968 C969 1.391 . S
C969 H957 0.950 . S
C969 C965 1.393 . S
C969 C968 1.391 . S
C970 H960 0.950 . S
C970 C971 1.386 . S
C970 C972 1.391 . S
C971 C970 1.386 . S
C971 C975 1.393 . S
C972 H961 0.950 . S
C972 C970 1.391 . S
C972 C973 1.400 . S
C973 C967 1.491 . S
C973 C972 1.400 . S
C973 C974 1.398 . S
C974 H962 0.950 . S
C974 C973 1.398 . S
C974 C975 1.391 . S
C975 H963 0.950 . S
C975 C971 1.393 . S
C975 C974 1.391 . S
H976 C984 0.950 . S
H977 C989 0.950 . S
H978 C986 0.950 . S
H979 C988 0.950 . S
H980 C990 0.950 . S
H981 C992 0.950 . S
H982 C994 0.950 . S
H983 C995 0.950 . S
C984 H976 0.950 . S
C984 C985 1.386 . S
C984 C986 1.391 . S
C985 C984 1.386 . S
C985 C989 1.393 . S
C986 H978 0.950 . S
C986 C984 1.391 . S
C986 C987 1.400 . S
C987 C986 1.400 . S
C987 C988 1.398 . S
C987 C993 1.491 . S
C988 H979 0.950 . S
C988 C987 1.398 . S
C988 C989 1.391 . S
C989 H977 0.950 . S
C989 C985 1.393 . S
C989 C988 1.391 . S
C990 H980 0.950 . S
C990 C991 1.386 . S
C990 C992 1.391 . S
C991 C990 1.386 . S
C991 C995 1.393 . S
C992 H981 0.950 . S
C992 C990 1.391 . S
C992 C993 1.400 . S
C993 C987 1.491 . S
C993 C992 1.400 . S
C993 C994 1.398 . S
C994 H982 0.950 . S
C994 C993 1.398 . S
C994 C995 1.391 . S
C995 H983 0.950 . S
C995 C991 1.393 . S
C995 C994 1.391 . S
H996 C1004 0.950 . S
H997 C1009 0.950 . S
H998 C1006 0.950 . S
H999 C1008 0.950 . S
H1000 C1010 0.950 . S
H1001 C1012 0.950 . S
H1002 C1014 0.950 . S
H1003 C1015 0.950 . S
C1004 H996 0.950 . S
C1004 C1005 1.386 . S
C1004 C1006 1.391 . S
C1005 C1004 1.386 . S
C1005 C1009 1.393 . S
C1006 H998 0.950 . S
C1006 C1004 1.391 . S
C1006 C1007 1.400 . S
C1007 C1006 1.400 . S
C1007 C1008 1.398 . S
C1007 C1013 1.491 . S
C1008 H999 0.950 . S
C1008 C1007 1.398 . S
C1008 C1009 1.391 . S
C1009 H997 0.950 . S
C1009 C1005 1.393 . S
C1009 C1008 1.391 . S
C1010 H1000 0.950 . S
C1010 C1011 1.386 . S
C1010 C1012 1.391 . S
C1011 C1010 1.386 . S
C1011 C1015 1.393 . S
C1012 H1001 0.950 . S
C1012 C1010 1.391 . S
C1012 C1013 1.400 . S
C1013 C1007 1.491 . S
C1013 C1012 1.400 . S
C1013 C1014 1.398 . S
C1014 H1002 0.950 . S
C1014 C1013 1.398 . S
C1014 C1015 1.391 . S
C1015 H1003 0.950 . S
C1015 C1011 1.393 . S
C1015 C1014 1.391 . S
H1016 C1024 0.950 . S
H1017 C1029 0.950 . S
H1018 C1026 0.950 . S
H1019 C1028 0.950 . S
H1020 C1030 0.950 . S
H1021 C1032 0.950 . S
H1022 C1034 0.950 . S
H1023 C1035 0.950 . S
C1024 H1016 0.950 . S
C1024 C1025 1.386 . S
C1024 C1026 1.391 . S
C1025 C1024 1.386 . S
C1025 C1029 1.393 . S
C1026 H1018 0.950 . S
C1026 C1024 1.391 . S
C1026 C1027 1.400 . S
C1027 C1026 1.400 . S
C1027 C1028 1.398 . S
C1027 C1033 1.491 . S
C1028 H1019 0.950 . S
C1028 C1027 1.398 . S
C1028 C1029 1.391 . S
C1029 H1017 0.950 . S
C1029 C1025 1.393 . S
C1029 C1028 1.391 . S
C1030 H1020 0.950 . S
C1030 C1031 1.386 . S
C1030 C1032 1.391 . S
C1031 C1030 1.386 . S
C1031 C1035 1.393 . S
C1032 H1021 0.950 . S
C1032 C1030 1.391 . S
C1032 C1033 1.400 . S
C1033 C1027 1.491 . S
C1033 C1032 1.400 . S
C1033 C1034 1.398 . S
C1034 H1022 0.950 . S
C1034 C1033 1.398 . S
C1034 C1035 1.391 . S
C1035 H1023 0.950 . S
C1035 C1031 1.393 . S
C1035 C1034 1.391 . S
H1036 C1044 0.950 . S
H1037 C1049 0.950 . S
H1038 C1046 0.950 . S
H1039 C1048 0.950 . S
H1040 C1050 0.950 . S
H1041 C1052 0.950 . S
H1042 C1054 0.950 . S
H1043 C1055 0.950 . S
C1044 H1036 0.950 . S
C1044 C1045 1.386 . S
C1044 C1046 1.391 . S
C1045 C1044 1.386 . S
C1045 C1049 1.393 . S
C1046 H1038 0.950 . S
C1046 C1044 1.391 . S
C1046 C1047 1.400 . S
C1047 C1046 1.400 . S
C1047 C1048 1.398 . S
C1047 C1053 1.491 . S
C1048 H1039 0.950 . S
C1048 C1047 1.398 . S
C1048 C1049 1.391 . S
C1049 H1037 0.950 . S
C1049 C1045 1.393 . S
C1049 C1048 1.391 . S
C1050 H1040 0.950 . S
C1050 C1051 1.386 . S
C1050 C1052 1.391 . S
C1051 C1050 1.386 . S
C1051 C1055 1.393 . S
C1052 H1041 0.950 . S
C1052 C1050 1.391 . S
C1052 C1053 1.400 . S
C1053 C1047 1.491 . S
C1053 C1052 1.400 . S
C1053 C1054 1.398 . S
C1054 H1042 0.950 . S
C1054 C1053 1.398 . S
C1054 C1055 1.391 . S
C1055 H1043 0.950 . S
C1055 C1051 1.393 . S
C1055 C1054 1.391 . S
H1056 C1064 0.950 . S
H1057 C1069 0.950 . S
H1058 C1066 0.950 . S
H1059 C1068 0.950 . S
H1060 C1070 0.950 . S
H1061 C1072 0.950 . S
H1062 C1074 0.950 . S
H1063 C1075 0.950 . S
C1064 H1056 0.950 . S
C1064 C1065 1.386 . S
C1064 C1066 1.391 . S
C1065 C1064 1.386 . S
C1065 C1069 1.393 . S
C1066 H1058 0.950 . S
C1066 C1064 1.391 . S
C1066 C1067 1.400 . S
C1067 C1066 1.400 . S
C1067 C1068 1.398 . S
C1067 C1073 1.491 . S
C1068 H1059 0.950 . S
C1068 C1067 1.398 . S
C1068 C1069 1.391 . S
C1069 H1057 0.950 . S
C1069 C1065 1.393 . S
C1069 C1068 1.391 . S
C1070 H1060 0.950 . S
C1070 C1071 1.386 . S
C1070 C1072 1.391 . S
C1071 C1070 1.386 . S
C1071 C1075 1.393 . S
C1072 H1061 0.950 . S
C1072 C1070 1.391 . S
C1072 C1073 1.400 . S
C1073 C1067 1.491 . S
C1073 C1072 1.400 . S
C1073 C1074 1.398 . S
C1074 H1062 0.950 . S
C1074 C1073 1.398 . S
C1074 C1075 1.391 . S
C1075 H1063 0.950 . S
C1075 C1071 1.393 . S
C1075 C1074 1.391 . S
H1076 C1084 0.950 . S
H1077 C1089 0.950 . S
H1078 C1086 0.950 . S
H1079 C1088 0.950 . S
H1080 C1090 0.950 . S
H1081 C1092 0.950 . S
H1082 C1094 0.950 . S
H1083 C1095 0.950 . S
C1084 H1076 0.950 . S
C1084 C1085 1.386 . S
C1084 C1086 1.391 . S
C1085 C1084 1.386 . S
C1085 C1089 1.393 . S
C1086 H1078 0.950 . S
C1086 C1084 1.391 . S
C1086 C1087 1.400 . S
C1087 C1086 1.400 . S
C1087 C1088 1.398 . S
C1087 C1093 1.491 . S
C1088 H1079 0.950 . S
C1088 C1087 1.398 . S
C1088 C1089 1.391 . S
C1089 H1077 0.950 . S
C1089 C1085 1.393 . S
C1089 C1088 1.391 . S
C1090 H1080 0.950 . S
C1090 C1091 1.386 . S
C1090 C1092 1.391 . S
C1091 C1090 1.386 . S
C1091 C1095 1.393 . S
C1092 H1081 0.950 . S
C1092 C1090 1.391 . S
C1092 C1093 1.400 . S
C1093 C1087 1.491 . S
C1093 C1092 1.400 . S
C1093 C1094 1.398 . S
C1094 H1082 0.950 . S
C1094 C1093 1.398 . S
C1094 C1095 1.391 . S
C1095 H1083 0.950 . S
C1095 C1091 1.393 . S
C1095 C1094 1.391 . S
H1096 C1104 0.950 . S
H1097 C1109 0.950 . S
H1098 C1106 0.950 . S
H1099 C1108 0.950 . S
H1100 C1110 0.950 . S
H1101 C1112 0.950 . S
H1102 C1114 0.950 . S
H1103 C1115 0.950 . S
C1104 H1096 0.950 . S
C1104 C1105 1.386 . S
C1104 C1106 1.391 . S
C1105 C1104 1.386 . S
C1105 C1109 1.393 . S
C1106 H1098 0.950 . S
C1106 C1104 1.391 . S
C1106 C1107 1.400 . S
C1107 C1106 1.400 . S
C1107 C1108 1.398 . S
C1107 C1113 1.491 . S
C1108 H1099 0.950 . S
C1108 C1107 1.398 . S
C1108 C1109 1.391 . S
C1109 H1097 0.950 . S
C1109 C1105 1.393 . S
C1109 C1108 1.391 . S
C1110 H1100 0.950 . S
C1110 C1111 1.386 . S
C1110 C1112 1.391 . S
C1111 C1110 1.386 . S
C1111 C1115 1.393 . S
C1112 H1101 0.950 . S
C1112 C1110 1.391 . S
C1112 C1113 1.400 . S
C1113 C1107 1.491 . S
C1113 C1112 1.400 . S
C1113 C1114 1.398 . S
C1114 H1102 0.950 . S
C1114 C1113 1.398 . S
C1114 C1115 1.391 . S
C1115 H1103 0.950 . S
C1115 C1111 1.393 . S
C1115 C1114 1.391 . S
H1116 C1124 0.950 . S
H1117 C1129 0.950 . S
H1118 C1126 0.950 . S
H1119 C1128 0.950 . S
H1120 C1130 0.950 . S
H1121 C1132 0.950 . S
H1122 C1134 0.950 . S
H1123 C1135 0.950 . S
C1124 H1116 0.950 . S
C1124 C1125 1.386 . S
C1124 C1126 1.391 . S
C1125 C1124 1.386 . S
C1125 C1129 1.393 . S
C1126 H1118 0.950 . S
C1126 C1124 1.391 . S
C1126 C1127 1.400 . S
C1127 C1126 1.400 . S
C1127 C1128 1.398 . S
C1127 C1133 1.491 . S
C1128 H1119 0.950 . S
C1128 C1127 1.398 . S
C1128 C1129 1.391 . S
C1129 H1117 0.950 . S
C1129 C1125 1.393 . S
C1129 C1128 1.391 . S
C1130 H1120 0.950 . S
C1130 C1131 1.386 . S
C1130 C1132 1.391 . S
C1131 C1130 1.386 . S
C1131 C1135 1.393 . S
C1132 H1121 0.950 . S
C1132 C1130 1.391 . S
C1132 C1133 1.400 . S
C1133 C1127 1.491 . S
C1133 C1132 1.400 . S
C1133 C1134 1.398 . S
C1134 H1122 0.950 . S
C1134 C1133 1.398 . S
C1134 C1135 1.391 . S
C1135 H1123 0.950 . S
C1135 C1131 1.393 . S
C1135 C1134 1.391 . S
H1136 C1144 0.950 . S
H1137 C1149 0.950 . S
H1138 C1146 0.950 . S
H1139 C1148 0.950 . S
H1140 C1150 0.950 . S
H1141 C1152 0.950 . S
H1142 C1154 0.950 . S
H1143 C1155 0.950 . S
C1144 H1136 0.950 . S
C1144 C1145 1.386 . S
C1144 C1146 1.391 . S
C1145 C1144 1.386 . S
C1145 C1149 1.393 . S
C1146 H1138 0.950 . S
C1146 C1144 1.391 . S
C1146 C1147 1.400 . S
C1147 C1146 1.400 . S
C1147 C1148 1.398 . S
C1147 C1153 1.491 . S
C1148 H1139 0.950 . S
C1148 C1147 1.398 . S
C1148 C1149 1.391 . S
C1149 H1137 0.950 . S
C1149 C1145 1.393 . S
C1149 C1148 1.391 . S
C1150 H1140 0.950 . S
C1150 C1151 1.386 . S
C1150 C1152 1.391 . S
C1151 C1150 1.386 . S
C1151 C1155 1.393 . S
C1152 H1141 0.950 . S
C1152 C1150 1.391 . S
C1152 C1153 1.400 . S
C1153 C1147 1.491 . S
C1153 C1152 1.400 . S
C1153 C1154 1.398 . S
C1154 H1142 0.950 . S
C1154 C1153 1.398 . S
C1154 C1155 1.391 . S
C1155 H1143 0.950 . S
C1155 C1151 1.393 . S
C1155 C1154 1.391 . S
H1156 C1164 0.950 . S
H1157 C1169 0.950 . S
H1158 C1166 0.950 . S
H1159 C1168 0.950 . S
H1160 C1170 0.950 . S
H1161 C1172 0.950 . S
H1162 C1174 0.950 . S
H1163 C1175 0.930 1_545 S
C1164 H1156 0.950 . S
C1164 C1165 1.386 1_545 S
C1164 C1166 1.391 . S
C1165 C1164 1.386 1_565 S
C1165 C1169 1.393 . S
C1166 H1158 0.950 . S
C1166 C1164 1.391 . S
C1166 C1167 1.400 1_545 S
C1167 C1166 1.400 1_565 S
C1167 C1168 1.398 . S
C1167 C1173 1.491 . S
C1168 H1159 0.950 . S
C1168 C1167 1.398 . S
C1168 C1169 1.391 . S
C1169 H1157 0.950 . S
C1169 C1165 1.393 . S
C1169 C1168 1.391 . S
C1170 H1160 0.950 . S
C1170 C1171 1.386 . S
C1170 C1172 1.391 . S
C1171 C1170 1.386 . S
C1171 C1175 1.414 . S
C1172 H1161 0.950 . S
C1172 C1170 1.391 . S
C1172 C1173 1.400 . S
C1173 C1167 1.491 . S
C1173 C1172 1.400 . S
C1173 C1174 1.398 1_565 S
C1174 H1162 0.950 . S
C1174 C1173 1.398 1_545 S
C1174 C1175 1.390 1_545 S
C1175 H1163 0.930 1_565 S
C1175 C1171 1.414 . S
C1175 C1174 1.390 1_565 S
H1176 C1184 0.950 . S
H1177 C1189 0.950 . S
H1178 C1186 0.950 . S
H1179 C1188 0.950 . S
H1180 C1190 0.950 . S
H1181 C1192 0.950 . S
H1182 C1194 0.950 . S
H1183 C1195 0.950 . S
C1184 H1176 0.950 . S
C1184 C1185 1.386 . S
C1184 C1186 1.391 . S
C1185 C1184 1.386 . S
C1185 C1189 1.393 . S
C1186 H1178 0.950 . S
C1186 C1184 1.391 . S
C1186 C1187 1.400 . S
C1187 C1186 1.400 . S
C1187 C1188 1.398 . S
C1187 C1193 1.491 . S
C1188 H1179 0.950 . S
C1188 C1187 1.398 . S
C1188 C1189 1.391 . S
C1189 H1177 0.950 . S
C1189 C1185 1.393 . S
C1189 C1188 1.391 . S
C1190 H1180 0.950 . S
C1190 C1191 1.386 . S
C1190 C1192 1.391 . S
C1191 C1190 1.386 . S
C1191 C1195 1.393 . S
C1192 H1181 0.950 . S
C1192 C1190 1.391 . S
C1192 C1193 1.400 . S
C1193 C1187 1.491 . S
C1193 C1192 1.400 . S
C1193 C1194 1.398 . S
C1194 H1182 0.950 . S
C1194 C1193 1.398 . S
C1194 C1195 1.391 . S
C1195 H1183 0.950 . S
C1195 C1191 1.393 . S
C1195 C1194 1.391 . S
H1196 C1204 0.950 . S
H1197 C1209 0.950 1_565 S
H1198 C1206 0.950 . S
H1199 C1208 0.950 . S
H1200 C1210 0.950 . S
H1201 C1212 0.950 . S
H1202 C1214 0.950 . S
H1203 C1215 0.950 . S
C1204 H1196 0.950 . S
C1204 C1205 1.386 . S
C1204 C1206 1.391 . S
C1205 C1204 1.386 . S
C1205 C1209 1.393 . S
C1206 H1198 0.950 . S
C1206 C1204 1.391 . S
C1206 C1207 1.400 . S
C1207 C1206 1.400 . S
C1207 C1208 1.398 . S
C1207 C1213 1.491 . S
C1208 H1199 0.950 . S
C1208 C1207 1.398 . S
C1208 C1209 1.391 . S
C1209 H1197 0.950 1_545 S
C1209 C1205 1.393 . S
C1209 C1208 1.391 . S
C1210 H1200 0.950 . S
C1210 C1211 1.386 . S
C1210 C1212 1.391 . S
C1211 C1210 1.386 . S
C1211 C1215 1.393 . S
C1212 H1201 0.950 . S
C1212 C1210 1.391 . S
C1212 C1213 1.400 . S
C1213 C1207 1.491 . S
C1213 C1212 1.400 . S
C1213 C1214 1.398 . S
C1214 H1202 0.950 . S
C1214 C1213 1.398 . S
C1214 C1215 1.391 . S
C1215 H1203 0.950 . S
C1215 C1211 1.393 . S
C1215 C1214 1.391 . S
H1216 C1224 0.950 . S
H1217 C1229 0.950 . S
H1218 C1226 0.950 . S
H1219 C1228 0.950 . S
H1220 C1230 0.950 . S
H1221 C1232 0.950 . S
H1222 C1234 0.950 . S
H1223 C1235 0.950 . S
C1224 H1216 0.950 . S
C1224 C1225 1.386 . S
C1224 C1226 1.391 . S
C1225 C1224 1.386 . S
C1225 C1229 1.393 . S
C1226 H1218 0.950 . S
C1226 C1224 1.391 . S
C1226 C1227 1.400 . S
C1227 C1226 1.400 . S
C1227 C1228 1.398 . S
C1227 C1233 1.491 . S
C1228 H1219 0.950 . S
C1228 C1227 1.398 . S
C1228 C1229 1.391 . S
C1229 H1217 0.950 . S
C1229 C1225 1.393 . S
C1229 C1228 1.391 . S
C1230 H1220 0.950 . S
C1230 C1231 1.386 . S
C1230 C1232 1.391 . S
C1231 C1230 1.386 . S
C1231 C1235 1.393 . S
C1232 H1221 0.950 . S
C1232 C1230 1.391 . S
C1232 C1233 1.400 . S
C1233 C1227 1.491 . S
C1233 C1232 1.400 . S
C1233 C1234 1.398 . S
C1234 H1222 0.950 . S
C1234 C1233 1.398 . S
C1234 C1235 1.391 . S
C1235 H1223 0.950 . S
C1235 C1231 1.393 . S
C1235 C1234 1.391 . S
H1236 C1244 0.950 . S
H1237 C1249 0.950 . S
H1238 C1246 0.950 . S
H1239 C1248 0.950 . S
H1240 C1250 0.950 . S
H1241 C1252 0.950 . S
H1242 C1254 0.950 . S
H1243 C1255 0.950 . S
C1244 H1236 0.950 . S
C1244 C1245 1.386 . S
C1244 C1246 1.391 . S
C1245 C1244 1.386 . S
C1245 C1249 1.393 1_556 S
C1246 H1238 0.950 . S
C1246 C1244 1.391 . S
C1246 C1247 1.400 . S
C1247 C1246 1.400 . S
C1247 C1248 1.398 1_556 S
C1247 C1253 1.491 . S
C1248 H1239 0.950 . S
C1248 C1247 1.398 1_554 S
C1248 C1249 1.391 . S
C1249 H1237 0.950 . S
C1249 C1245 1.393 1_554 S
C1249 C1248 1.391 . S
C1250 H1240 0.950 . S
C1250 C1251 1.386 1_554 S
C1250 C1252 1.391 . S
C1251 C1250 1.386 1_556 S
C1251 C1255 1.393 . S
C1252 H1241 0.950 . S
C1252 C1250 1.391 . S
C1252 C1253 1.400 1_554 S
C1253 C1247 1.491 . S
C1253 C1252 1.400 1_556 S
C1253 C1254 1.398 . S
C1254 H1242 0.950 . S
C1254 C1253 1.398 . S
C1254 C1255 1.391 . S
C1255 H1243 0.950 . S
C1255 C1251 1.393 . S
C1255 C1254 1.391 . S
H1256 C1264 0.950 . S
H1257 C1269 0.950 . S
H1258 C1266 0.950 . S
H1259 C1268 0.950 . S
H1260 C1270 0.950 . S
H1261 C1272 0.950 . S
H1262 C1274 0.950 . S
H1263 C1275 0.950 . S
C1264 H1256 0.950 . S
C1264 C1265 1.386 . S
C1264 C1266 1.391 . S
C1265 C1264 1.386 . S
C1265 C1269 1.393 1_556 S
C1266 H1258 0.950 . S
C1266 C1264 1.391 . S
C1266 C1267 1.400 . S
C1267 C1266 1.400 . S
C1267 C1268 1.398 1_556 S
C1267 C1273 1.491 . S
C1268 H1259 0.950 . S
C1268 C1267 1.398 1_554 S
C1268 C1269 1.391 . S
C1269 H1257 0.950 . S
C1269 C1265 1.393 1_554 S
C1269 C1268 1.391 . S
C1270 H1260 0.950 . S
C1270 C1271 1.386 1_554 S
C1270 C1272 1.391 . S
C1271 C1270 1.386 1_556 S
C1271 C1275 1.393 . S
C1272 H1261 0.950 . S
C1272 C1270 1.391 . S
C1272 C1273 1.400 1_554 S
C1273 C1267 1.491 . S
C1273 C1272 1.400 1_556 S
C1273 C1274 1.398 . S
C1274 H1262 0.950 . S
C1274 C1273 1.398 . S
C1274 C1275 1.391 . S
C1275 H1263 0.950 . S
C1275 C1271 1.393 . S
C1275 C1274 1.391 . S
H1276 C1284 0.950 . S
H1277 C1289 0.950 . S
H1278 C1286 0.950 . S
H1279 C1288 0.950 . S
H1280 C1290 0.950 . S
H1281 C1292 0.950 . S
H1282 C1294 0.950 . S
H1283 C1295 0.950 . S
C1284 H1276 0.950 . S
C1284 C1285 1.386 . S
C1284 C1286 1.391 . S
C1285 C1284 1.386 . S
C1285 C1289 1.393 1_554 S
C1286 H1278 0.950 . S
C1286 C1284 1.391 . S
C1286 C1287 1.400 . S
C1287 C1286 1.400 . S
C1287 C1288 1.398 1_554 S
C1287 C1293 1.491 . S
C1288 H1279 0.950 . S
C1288 C1287 1.398 1_556 S
C1288 C1289 1.391 . S
C1289 H1277 0.950 . S
C1289 C1285 1.393 1_556 S
C1289 C1288 1.391 . S
C1290 H1280 0.950 . S
C1290 C1291 1.386 1_556 S
C1290 C1292 1.391 . S
C1291 C1290 1.386 1_554 S
C1291 C1295 1.393 . S
C1292 H1281 0.950 . S
C1292 C1290 1.391 . S
C1292 C1293 1.400 1_556 S
C1293 C1287 1.491 . S
C1293 C1292 1.400 1_554 S
C1293 C1294 1.398 . S
C1294 H1282 0.950 . S
C1294 C1293 1.398 . S
C1294 C1295 1.391 . S
C1295 H1283 0.950 . S
C1295 C1291 1.393 . S
C1295 C1294 1.391 . S
C345 C13 1.606 . S
C351 C229 1.559 . S
C371 C234 1.554 . S
C365 C1 1.617 . S
C391 C172 1.551 . S
C385 C27 1.611 . S
C405 C15 1.569 . S
C411 C196 1.511 . S
C425 C28 1.584 . S
C431 C334 1.522 . S
C445 C55 1.579 . S
C451 C301 1.514 . S
C471 C255 1.575 . S
C465 C40 1.620 . S
C485 C43 1.641 . S
C491 C289 1.581 . S
C511 C208 1.577 . S
C505 C56 1.622 . S
C531 C235 1.504 . S
C525 C83 1.574 . S
C545 C96 1.615 . S
C551 C226 1.558 . S
C565 C71 1.618 . S
C571 C292 1.553 . S
C591 C313 1.541 . S
C585 C99 1.604 . S
C611 C331 1.574 . S
C605 C111 1.617 . S
C625 C113 1.618 . S
C631 C280 1.550 . S
C651 C256 1.526 . S
C645 C125 1.574 . S
C665 C139 1.591 . S
C671 C251 1.546 . S
C685 C153 1.581 . S
C691 C217 1.511 . S
C711 C205 1.568 . S
C705 C127 1.617 . S
C725 C141 1.641 . S
C731 C171 1.584 . S
C751 C272 1.575 . S
C745 C84 1.620 . S
C771 C322 1.511 . S
C765 C154 1.570 . S
C785 C68 1.613 . S
C791 C310 1.549 . S
C805 C166 1.619 . S
C811 C188 1.567 . S
C831 C187 1.098 . S
C825 C0 1.269 . S
C845 C12 1.276 . S
C851 C209 1.095 . S
C871 C214 1.077 . S
C865 C14 1.268 . S
C891 C247 1.098 . S
C885 C26 1.308 . S
C905 C41 1.298 . S
C911 C184 1.098 . S
C925 C42 1.327 . S
C931 C192 1.153 . S
C951 C230 1.082 . S
C945 C29 1.275 . S
C965 C54 1.273 . S
C971 C238 1.109 . S
C985 C69 1.277 . S
C991 C175 1.114 . S
C1011 C213 1.153 . S
C1005 C70 1.310 . S
C1025 C85 1.261 . S
C1031 C250 1.058 . S
C1045 C82 1.276 . S
C1051 C259 1.101 . S
C1071 C293 1.123 . S
C1065 C110 1.279 . S
C1085 C98 1.276 . S
C1091 C271 1.089 . S
C1105 C124 1.287 . S
C1111 C298 1.090 . S
C1125 C112 1.318 . S
C1131 C318 1.115 . S
C1145 C126 1.312 . S
C1151 C276 1.150 . S
C1171 C268 1.111 . S
C1165 C140 1.310 . S
C1185 C138 1.259 . S
C1191 C314 1.063 . S
C1211 C319 1.110 . S
C1205 C152 1.272 . S
C1231 C277 1.073 . S
C1225 C97 1.263 . S
C1251 C297 1.128 . S
C1245 C167 1.318 . S
C1271 C335 1.071 . S
C1265 C57 1.273 . S
C1285 C155 1.273 . S
C1291 C193 1.062 . S
