# Generated by pormake.
# Topology ocu, (6,8)-cn, num edge types: 1
# Building blocks:
#     Node 0, Type 0, BuildingBlock: KUMBOL_clean_sbu_0, # of connection points: 6
#     Node 1, Type 0, BuildingBlock: KUMBOL_clean_sbu_0, # of connection points: 6
#     Node 2, Type 0, BuildingBlock: KUMBOL_clean_sbu_0, # of connection points: 6
#     Node 3, Type 0, BuildingBlock: KUMBOL_clean_sbu_0, # of connection points: 6
#     Node 4, Type 0, BuildingBlock: KUMBOL_clean_sbu_0, # of connection points: 6
#     Node 5, Type 0, BuildingBlock: KUMBOL_clean_sbu_0, # of connection points: 6
#     Node 6, Type 0, BuildingBlock: KUMBOL_clean_sbu_0, # of connection points: 6
#     Node 7, Type 0, BuildingBlock: KUMBOL_clean_sbu_0, # of connection points: 6
#     Node 8, Type 1, BuildingBlock: VETTIZ_charged_sbu_0, # of connection points: 8
#     Node 9, Type 1, BuildingBlock: VETTIZ_charged_sbu_0, # of connection points: 8
#     Node 10, Type 1, BuildingBlock: VETTIZ_charged_sbu_0, # of connection points: 8
#     Node 11, Type 1, BuildingBlock: VETTIZ_charged_sbu_0, # of connection points: 8
#     Node 12, Type 1, BuildingBlock: VETTIZ_charged_sbu_0, # of connection points: 8
#     Node 13, Type 1, BuildingBlock: VETTIZ_charged_sbu_0, # of connection points: 8
#     Edge 14, Type (0, 1), BuildingBlock: MIFKUJ_clean_linker_0, # of connection points: 2
#     Edge 15, Type (0, 1), BuildingBlock: MIFKUJ_clean_linker_0, # of connection points: 2
#     Edge 16, Type (0, 1), BuildingBlock: MIFKUJ_clean_linker_0, # of connection points: 2
#     Edge 17, Type (0, 1), BuildingBlock: MIFKUJ_clean_linker_0, # of connection points: 2
#     Edge 18, Type (0, 1), BuildingBlock: MIFKUJ_clean_linker_0, # of connection points: 2
#     Edge 19, Type (0, 1), BuildingBlock: MIFKUJ_clean_linker_0, # of connection points: 2
#     Edge 20, Type (0, 1), BuildingBlock: MIFKUJ_clean_linker_0, # of connection points: 2
#     Edge 21, Type (0, 1), BuildingBlock: MIFKUJ_clean_linker_0, # of connection points: 2
#     Edge 22, Type (0, 1), BuildingBlock: MIFKUJ_clean_linker_0, # of connection points: 2
#     Edge 23, Type (0, 1), BuildingBlock: MIFKUJ_clean_linker_0, # of connection points: 2
#     Edge 24, Type (0, 1), BuildingBlock: MIFKUJ_clean_linker_0, # of connection points: 2
#     Edge 25, Type (0, 1), BuildingBlock: MIFKUJ_clean_linker_0, # of connection points: 2
#     Edge 26, Type (0, 1), BuildingBlock: MIFKUJ_clean_linker_0, # of connection points: 2
#     Edge 27, Type (0, 1), BuildingBlock: MIFKUJ_clean_linker_0, # of connection points: 2
#     Edge 28, Type (0, 1), BuildingBlock: MIFKUJ_clean_linker_0, # of connection points: 2
#     Edge 29, Type (0, 1), BuildingBlock: MIFKUJ_clean_linker_0, # of connection points: 2
#     Edge 30, Type (0, 1), BuildingBlock: MIFKUJ_clean_linker_0, # of connection points: 2
#     Edge 31, Type (0, 1), BuildingBlock: MIFKUJ_clean_linker_0, # of connection points: 2
#     Edge 32, Type (0, 1), BuildingBlock: MIFKUJ_clean_linker_0, # of connection points: 2
#     Edge 33, Type (0, 1), BuildingBlock: MIFKUJ_clean_linker_0, # of connection points: 2
#     Edge 34, Type (0, 1), BuildingBlock: MIFKUJ_clean_linker_0, # of connection points: 2
#     Edge 35, Type (0, 1), BuildingBlock: MIFKUJ_clean_linker_0, # of connection points: 2
#     Edge 36, Type (0, 1), BuildingBlock: MIFKUJ_clean_linker_0, # of connection points: 2
#     Edge 37, Type (0, 1), BuildingBlock: MIFKUJ_clean_linker_0, # of connection points: 2
#     Edge 38, Type (0, 1), BuildingBlock: MIFKUJ_clean_linker_0, # of connection points: 2
#     Edge 39, Type (0, 1), BuildingBlock: MIFKUJ_clean_linker_0, # of connection points: 2
#     Edge 40, Type (0, 1), BuildingBlock: MIFKUJ_clean_linker_0, # of connection points: 2
#     Edge 41, Type (0, 1), BuildingBlock: MIFKUJ_clean_linker_0, # of connection points: 2
#     Edge 42, Type (0, 1), BuildingBlock: MIFKUJ_clean_linker_0, # of connection points: 2
#     Edge 43, Type (0, 1), BuildingBlock: MIFKUJ_clean_linker_0, # of connection points: 2
#     Edge 44, Type (0, 1), BuildingBlock: MIFKUJ_clean_linker_0, # of connection points: 2
#     Edge 45, Type (0, 1), BuildingBlock: MIFKUJ_clean_linker_0, # of connection points: 2
#     Edge 46, Type (0, 1), BuildingBlock: MIFKUJ_clean_linker_0, # of connection points: 2
#     Edge 47, Type (0, 1), BuildingBlock: MIFKUJ_clean_linker_0, # of connection points: 2
#     Edge 48, Type (0, 1), BuildingBlock: MIFKUJ_clean_linker_0, # of connection points: 2
#     Edge 49, Type (0, 1), BuildingBlock: MIFKUJ_clean_linker_0, # of connection points: 2
#     Edge 50, Type (0, 1), BuildingBlock: MIFKUJ_clean_linker_0, # of connection points: 2
#     Edge 51, Type (0, 1), BuildingBlock: MIFKUJ_clean_linker_0, # of connection points: 2
#     Edge 52, Type (0, 1), BuildingBlock: MIFKUJ_clean_linker_0, # of connection points: 2
#     Edge 53, Type (0, 1), BuildingBlock: MIFKUJ_clean_linker_0, # of connection points: 2
#     Edge 54, Type (0, 1), BuildingBlock: MIFKUJ_clean_linker_0, # of connection points: 2
#     Edge 55, Type (0, 1), BuildingBlock: MIFKUJ_clean_linker_0, # of connection points: 2
#     Edge 56, Type (0, 1), BuildingBlock: MIFKUJ_clean_linker_0, # of connection points: 2
#     Edge 57, Type (0, 1), BuildingBlock: MIFKUJ_clean_linker_0, # of connection points: 2
#     Edge 58, Type (0, 1), BuildingBlock: MIFKUJ_clean_linker_0, # of connection points: 2
#     Edge 59, Type (0, 1), BuildingBlock: MIFKUJ_clean_linker_0, # of connection points: 2
#     Edge 60, Type (0, 1), BuildingBlock: MIFKUJ_clean_linker_0, # of connection points: 2
#     Edge 61, Type (0, 1), BuildingBlock: MIFKUJ_clean_linker_0, # of connection points: 2
# Relax obj value: 0.114
# Max RMSD: 0.254
# Mean RMSD: 0.158
data_MOF--net-ocu--node1-KUMBOL_clean_sbu_0--node2-VETTIZ_charged_sbu_0--edge1-MIFKUJ_clean_linker_0
_symmetry_space_group_name_H-M    P1
_symmetry_Int_Tables_number       1
_symmetry_cell_setting            triclinic
loop_
_symmetry_equiv_pos_as_xyz
'x, y, z'
_cell_length_a     50.489813
_cell_length_b     47.881069
_cell_length_c     52.634716
_cell_angle_alpha  85.586146
_cell_angle_beta   93.722206
_cell_angle_gamma 101.74657
loop_
_atom_site_label
_atom_site_type_symbol
_atom_site_fract_x
_atom_site_fract_y
_atom_site_fract_z
_atom_type_partial_charge
Gd0 Gd 0.28322 0.30458 0.28929 0.0
Gd1 Gd 0.26131 0.2496 0.25119 0.0
C2 C 0.22238 0.28731 0.17916 0.0
C3 C 0.17459 0.27192 0.18653 0.0
C4 C 0.20841 0.26116 0.21912 0.0
C5 C 0.22911 0.27433 0.20319 0.0
C6 C 0.18098 0.25995 0.21071 0.0
C7 C 0.19519 0.28568 0.1709 0.0
C8 C 0.24311 0.30242 0.16426 0.0
C9 C 0.26983 0.30486 0.17338 0.0
N10 N 0.25557 0.27621 0.21167 0.0
C11 C 0.27574 0.29169 0.19703 0.0
H12 H 0.29667 0.29473 0.20284 0.0
C13 C 0.19462 0.23742 0.25863 0.0
N14 N 0.21485 0.25048 0.24297 0.0
C15 C 0.16742 0.23591 0.25103 0.0
C16 C 0.16054 0.24723 0.22701 0.0
H17 H 0.19869 0.22654 0.27653 0.0
H18 H 0.18986 0.29546 0.15253 0.0
H19 H 0.28343 0.2573 0.33975 0.0
H20 H 0.23867 0.31279 0.1459 0.0
H21 H 0.28604 0.31698 0.16215 0.0
H22 H 0.15369 0.27119 0.17995 0.0
H23 H 0.31561 0.36486 0.25809 0.0
H24 H 0.35834 0.28034 0.38271 0.0
H25 H 0.3132 0.24903 0.37724 0.0
H26 H 0.40599 0.36158 0.33461 0.0
H27 H 0.15172 0.2254 0.26357 0.0
H28 H 0.13937 0.24596 0.22118 0.0
H29 H 0.39328 0.32122 0.36618 0.0
H30 H 0.35901 0.39923 0.26225 0.0
N31 N 0.31171 0.29218 0.3235 0.0
C32 C 0.34555 0.2836 0.36595 0.0
C33 C 0.32002 0.26606 0.36299 0.0
C34 C 0.35408 0.30566 0.34753 0.0
C35 C 0.33639 0.30966 0.3263 0.0
C36 C 0.30322 0.27076 0.34159 0.0
N37 N 0.32532 0.33683 0.2892 0.0
C38 C 0.34351 0.3325 0.30859 0.0
C39 C 0.35503 0.38033 0.27509 0.0
C40 C 0.37428 0.37563 0.2943 0.0
C41 C 0.33044 0.3608 0.27287 0.0
C42 C 0.36856 0.35172 0.31154 0.0
H43 H 0.39321 0.39096 0.29605 0.0
O44 O 0.27703 0.34686 0.29589 0.0
O45 O 0.24825 0.29222 0.25892 0.0
O46 O 0.30355 0.26746 0.23856 0.0
O47 O 0.31852 0.30408 0.26555 0.0
O48 O 0.27107 0.33241 0.25447 0.0
O49 O 0.26725 0.31226 0.32488 0.0
O50 O 0.23548 0.2082 0.24675 0.0
O51 O 0.29132 0.25958 0.28574 0.0
O52 O 0.24889 0.27435 0.30898 0.0
O53 O 0.24443 0.23266 0.28865 0.0
O54 O 0.28853 0.22084 0.27234 0.0
O55 O 0.26781 0.22367 0.22099 0.0
C56 C 0.24923 0.31675 0.2453 0.0
C57 C 0.38663 0.34711 0.3321 0.0
C58 C 0.37938 0.32417 0.35009 0.0
C59 C 0.26976 0.33954 0.31909 0.0
C60 C 0.2822 0.35858 0.33895 0.0
C61 C 0.30864 0.37483 0.33787 0.0
C62 C 0.26637 0.36154 0.3589 0.0
C63 C 0.27628 0.38132 0.37723 0.0
C64 C 0.31929 0.39315 0.357 0.0
C65 C 0.30314 0.3966 0.37658 0.0
C66 C 0.32232 0.28857 0.24703 0.0
C67 C 0.30165 0.23609 0.29009 0.0
C68 C 0.25021 0.20161 0.22966 0.0
C69 C 0.26019 0.17484 0.2354 0.0
C70 C 0.25315 0.15723 0.25765 0.0
C71 C 0.27906 0.16821 0.21977 0.0
C72 C 0.29173 0.14514 0.22666 0.0
C73 C 0.26549 0.13393 0.26433 0.0
C74 C 0.28499 0.12804 0.24906 0.0
C75 C 0.2394 0.24673 0.30759 0.0
H76 H 0.32087 0.37409 0.3221 0.0
H77 H 0.24582 0.34921 0.35952 0.0
H78 H 0.33973 0.40552 0.3561 0.0
H79 H 0.31121 0.41218 0.3904 0.0
H80 H 0.23867 0.16181 0.27025 0.0
H81 H 0.28485 0.18182 0.20276 0.0
H82 H 0.26025 0.12071 0.2816 0.0
H83 H 0.2947 0.11015 0.25462 0.0
Gd84 Gd 0.74284 0.29476 0.29133 0.0
Gd85 Gd 0.7955 0.2688 0.2615 0.0
C86 C 0.83441 0.29206 0.18472 0.0
C87 C 0.81467 0.25092 0.16068 0.0
C88 C 0.80065 0.25418 0.20357 0.0
C89 C 0.81764 0.28066 0.20501 0.0
C90 C 0.79917 0.23889 0.18144 0.0
C91 C 0.83251 0.2773 0.16243 0.0
C92 C 0.85365 0.31722 0.1879 0.0
C93 C 0.85636 0.32992 0.2111 0.0
N94 N 0.82009 0.29366 0.22732 0.0
C95 C 0.83976 0.31744 0.23084 0.0
H96 H 0.84323 0.32657 0.24915 0.0
C97 C 0.77306 0.21466 0.225 0.0
N98 N 0.78737 0.2423 0.22462 0.0
C99 C 0.77027 0.19912 0.20324 0.0
C100 C 0.78323 0.21135 0.18129 0.0
H101 H 0.76304 0.20473 0.24182 0.0
H102 H 0.84507 0.28587 0.14661 0.0
H103 H 0.716 0.227 0.26749 0.0
H104 H 0.86689 0.32661 0.17278 0.0
H105 H 0.87163 0.34899 0.21403 0.0
H106 H 0.81375 0.23954 0.14353 0.0
H107 H 0.75653 0.31923 0.34906 0.0
H108 H 0.64445 0.1911 0.3059 0.0
H109 H 0.67499 0.19079 0.27126 0.0
H110 H 0.65491 0.24382 0.38045 0.0
H111 H 0.75834 0.17759 0.20351 0.0
H112 H 0.78145 0.19903 0.16462 0.0
H113 H 0.63727 0.21098 0.34688 0.0
H114 H 0.7356 0.31561 0.39027 0.0
N115 N 0.70725 0.25251 0.29643 0.0
C116 C 0.66193 0.20829 0.30349 0.0
C117 C 0.67898 0.20811 0.28385 0.0
C118 C 0.66914 0.2291 0.32119 0.0
C119 C 0.69225 0.25097 0.31719 0.0
C120 C 0.702 0.22973 0.28117 0.0
N121 N 0.72614 0.28725 0.3327 0.0
C122 C 0.70223 0.26896 0.33614 0.0
C123 C 0.726 0.30221 0.37527 0.0
C124 C 0.70138 0.28346 0.37903 0.0
C125 C 0.73805 0.30391 0.35189 0.0
C126 C 0.68927 0.26633 0.35944 0.0
H127 H 0.69211 0.28205 0.39721 0.0
O128 O 0.75677 0.33763 0.30366 0.0
O129 O 0.77689 0.30633 0.26535 0.0
O130 O 0.81403 0.30652 0.28544 0.0
O131 O 0.78259 0.30132 0.31639 0.0
O132 O 0.74098 0.31955 0.25323 0.0
O133 O 0.71397 0.32187 0.29535 0.0
O134 O 0.81439 0.23345 0.27589 0.0
O135 O 0.77027 0.26479 0.29523 0.0
O136 O 0.72255 0.27665 0.25399 0.0
O137 O 0.75808 0.26355 0.23357 0.0
O138 O 0.77443 0.2271 0.28125 0.0
O139 O 0.83853 0.27615 0.27169 0.0
C140 C 0.76583 0.32063 0.248 0.0
C141 C 0.66524 0.24603 0.36278 0.0
C142 C 0.65513 0.22746 0.34362 0.0
C143 C 0.73292 0.34404 0.30039 0.0
C144 C 0.73216 0.37095 0.28527 0.0
C145 C 0.74983 0.39623 0.29198 0.0
C146 C 0.71529 0.37126 0.26314 0.0
C147 C 0.71611 0.39642 0.2476 0.0
C148 C 0.75077 0.42142 0.27649 0.0
C149 C 0.73406 0.42155 0.25429 0.0
C150 C 0.80765 0.31099 0.30869 0.0
C151 C 0.76431 0.2381 0.29885 0.0
C152 C 0.83854 0.24926 0.277 0.0
C153 C 0.85974 0.23803 0.26607 0.0
C154 C 0.86121 0.23668 0.23971 0.0
C155 C 0.87877 0.2281 0.28272 0.0
C156 C 0.89948 0.2169 0.27332 0.0
C157 C 0.88176 0.22551 0.23016 0.0
C158 C 0.90087 0.21552 0.24691 0.0
C159 C 0.73223 0.26582 0.23458 0.0
H160 H 0.76321 0.39636 0.30895 0.0
H161 H 0.70197 0.35172 0.25754 0.0
H162 H 0.76454 0.44082 0.28165 0.0
H163 H 0.73491 0.44129 0.24256 0.0
H164 H 0.84655 0.24397 0.22658 0.0
H165 H 0.87708 0.22857 0.30313 0.0
H166 H 0.88279 0.22448 0.20979 0.0
H167 H 0.91669 0.20684 0.2393 0.0
Gd168 Gd 0.77304 0.75901 0.29617 0.0
Gd169 Gd 0.77059 0.81138 0.24603 0.0
C170 C 0.79378 0.77779 0.17346 0.0
C171 C 0.84265 0.7932 0.17538 0.0
C172 C 0.81626 0.80344 0.20952 0.0
C173 C 0.79251 0.78983 0.19697 0.0
C174 C 0.84145 0.80586 0.19833 0.0
C175 C 0.81893 0.77896 0.16314 0.0
C176 C 0.76966 0.76572 0.16045 0.0
C177 C 0.74502 0.76761 0.16989 0.0
N178 N 0.7682 0.78951 0.20693 0.0
C179 C 0.7447 0.78055 0.19271 0.0
H180 H 0.7255 0.78382 0.19842 0.0
C181 C 0.8376 0.83112 0.2432 0.0
N182 N 0.81482 0.81503 0.23213 0.0
C183 C 0.86284 0.83384 0.23287 0.0
C184 C 0.86484 0.82093 0.21049 0.0
H185 H 0.8367 0.84339 0.2592 0.0
H186 H 0.8202 0.76959 0.14527 0.0
H187 H 0.82287 0.77374 0.34315 0.0
H188 H 0.76986 0.75612 0.1425 0.0
H189 H 0.72624 0.75977 0.15925 0.0
H190 H 0.86185 0.79447 0.16685 0.0
H191 H 0.70464 0.73442 0.28793 0.0
H192 H 0.7896 0.80658 0.40436 0.0
H193 H 0.82878 0.79474 0.38484 0.0
H194 H 0.69465 0.78722 0.38305 0.0
H195 H 0.88068 0.8465 0.24191 0.0
H196 H 0.88446 0.82321 0.20247 0.0
H197 H 0.73964 0.80354 0.40355 0.0
H198 H 0.66343 0.7384 0.30764 0.0
N199 N 0.78128 0.77681 0.33736 0.0
C200 C 0.78697 0.79792 0.38573 0.0
C201 C 0.80911 0.79128 0.3748 0.0
C202 C 0.76137 0.79156 0.37327 0.0
C203 C 0.759 0.78052 0.34888 0.0
C204 C 0.80569 0.77974 0.35095 0.0
N205 N 0.7315 0.75957 0.31427 0.0
C206 C 0.73349 0.77122 0.33728 0.0
C207 C 0.68295 0.74825 0.31594 0.0
C208 C 0.68458 0.76179 0.33861 0.0
C209 C 0.70666 0.74683 0.30428 0.0
C210 C 0.70999 0.77291 0.34988 0.0
H211 H 0.66615 0.76275 0.34766 0.0
O212 O 0.75167 0.71584 0.30604 0.0
O213 O 0.78913 0.77171 0.25636 0.0
O214 O 0.73173 0.77907 0.24283 0.0
O215 O 0.74515 0.73981 0.2641 0.0
O216 O 0.80251 0.73846 0.27515 0.0
O217 O 0.79373 0.73071 0.32056 0.0
O218 O 0.78778 0.85579 0.23657 0.0
O219 O 0.75383 0.7984 0.28553 0.0
O220 O 0.80969 0.79451 0.30159 0.0
O221 O 0.79465 0.83215 0.27925 0.0
O222 O 0.73999 0.83116 0.2658 0.0
O223 O 0.74988 0.83543 0.21754 0.0
C224 C 0.80367 0.75234 0.25307 0.0
C225 C 0.71247 0.78531 0.37342 0.0
C226 C 0.73809 0.79471 0.38504 0.0
C227 C 0.77245 0.71001 0.31991 0.0
C228 C 0.77206 0.68197 0.33345 0.0
C229 C 0.75007 0.65925 0.32967 0.0
C230 C 0.79402 0.67762 0.34989 0.0
C231 C 0.79456 0.65056 0.36201 0.0
C232 C 0.7503 0.63239 0.34187 0.0
C233 C 0.77245 0.62794 0.35778 0.0
C234 C 0.72904 0.75127 0.24757 0.0
C235 C 0.73871 0.81752 0.288 0.0
C236 C 0.76926 0.85807 0.21852 0.0
C237 C 0.77858 0.87168 0.19398 0.0
C238 C 0.80423 0.87124 0.18534 0.0
C239 C 0.76106 0.88581 0.17902 0.0
C240 C 0.7686 0.89932 0.1553 0.0
C241 C 0.81188 0.88461 0.16165 0.0
C242 C 0.79417 0.89871 0.14663 0.0
C243 C 0.80975 0.82206 0.29758 0.0
H244 H 0.73284 0.66213 0.3171 0.0
H245 H 0.81067 0.69538 0.35327 0.0
H246 H 0.73341 0.61485 0.33871 0.0
H247 H 0.77242 0.60665 0.36637 0.0
H248 H 0.81842 0.86098 0.19686 0.0
H249 H 0.74157 0.8867 0.18616 0.0
H250 H 0.83162 0.88418 0.155 0.0
H251 H 0.80035 0.90897 0.1283 0.0
Gd252 Gd 0.25255 0.81596 0.26979 0.0
Gd253 Gd 0.30148 0.76985 0.27915 0.0
C254 C 0.30853 0.70466 0.34617 0.0
C255 C 0.34991 0.72691 0.36894 0.0
C256 C 0.3328 0.75125 0.331 0.0
C257 C 0.31091 0.72888 0.32878 0.0
C258 C 0.35284 0.75031 0.35087 0.0
C259 C 0.3279 0.70404 0.36649 0.0
C260 C 0.28751 0.68126 0.34187 0.0
C261 C 0.26973 0.68224 0.3206 0.0
N262 N 0.29317 0.72974 0.30841 0.0
C263 C 0.27315 0.70657 0.30379 0.0
H264 H 0.25986 0.70656 0.28694 0.0
C265 C 0.35857 0.79388 0.31244 0.0
N266 N 0.33549 0.77303 0.31262 0.0
C267 C 0.37868 0.79414 0.33202 0.0
C268 C 0.37572 0.77239 0.35144 0.0
H269 H 0.36144 0.81076 0.29754 0.0
H270 H 0.32657 0.68562 0.37996 0.0
H271 H 0.31178 0.86324 0.29143 0.0
H272 H 0.28541 0.66191 0.35422 0.0
H273 H 0.2537 0.66405 0.31685 0.0
H274 H 0.36503 0.72585 0.38437 0.0
H275 H 0.20827 0.80278 0.22011 0.0
H276 H 0.31717 0.94154 0.24742 0.0
H277 H 0.33355 0.91225 0.28303 0.0
H278 H 0.24925 0.92119 0.18072 0.0
H279 H 0.39655 0.81103 0.332 0.0
H280 H 0.3915 0.77248 0.36642 0.0
H281 H 0.28611 0.94448 0.20926 0.0
H282 H 0.19367 0.82755 0.18082 0.0
N283 N 0.27888 0.86369 0.26331 0.0
C284 C 0.30628 0.91989 0.25167 0.0
C285 C 0.31546 0.90352 0.27192 0.0
C286 C 0.28418 0.90762 0.23621 0.0
C287 C 0.27076 0.87915 0.24241 0.0
C288 C 0.302 0.87539 0.27717 0.0
N289 N 0.23907 0.83801 0.23101 0.0
C290 C 0.2504 0.86589 0.22584 0.0
C291 C 0.20979 0.83856 0.19316 0.0
C292 C 0.22194 0.86687 0.18703 0.0
C293 C 0.21839 0.82452 0.21543 0.0
C294 C 0.24239 0.88094 0.20342 0.0
H295 H 0.2153 0.87771 0.16968 0.0
O296 O 0.21034 0.79441 0.26737 0.0
O297 O 0.25907 0.77291 0.28585 0.0
O298 O 0.26338 0.74879 0.25783 0.0
O299 O 0.25089 0.78804 0.23647 0.0
O300 O 0.24161 0.7962 0.30921 0.0
O301 O 0.22135 0.83897 0.27666 0.0
O302 O 0.33404 0.76971 0.25413 0.0
O303 O 0.28814 0.80502 0.2543 0.0
O304 O 0.27681 0.82932 0.30599 0.0
O305 O 0.30496 0.79559 0.31389 0.0
O306 O 0.32885 0.81011 0.26306 0.0
O307 O 0.30398 0.73142 0.26085 0.0
C308 C 0.24862 0.77203 0.3073 0.0
C309 C 0.25513 0.9094 0.19784 0.0
C310 C 0.276 0.92268 0.21416 0.0
C311 C 0.20222 0.81601 0.27584 0.0
C312 C 0.18448 0.80938 0.29761 0.0
C313 C 0.16335 0.78535 0.29771 0.0
C314 C 0.18842 0.82685 0.31834 0.0
C315 C 0.17038 0.82166 0.33826 0.0
C316 C 0.14584 0.7794 0.31769 0.0
C317 C 0.14897 0.79761 0.3376 0.0
C318 C 0.25099 0.76044 0.23825 0.0
C319 C 0.31064 0.82143 0.25052 0.0
C320 C 0.32671 0.74265 0.25067 0.0
C321 C 0.34798 0.72596 0.25471 0.0
C322 C 0.36046 0.72213 0.27895 0.0
C323 C 0.35565 0.71334 0.23409 0.0
C324 C 0.37556 0.69668 0.23768 0.0
C325 C 0.38027 0.70557 0.28264 0.0
C326 C 0.3878 0.69276 0.26209 0.0
C327 C 0.29533 0.81789 0.31998 0.0
H328 H 0.16037 0.77125 0.28228 0.0
H329 H 0.20553 0.84459 0.31883 0.0
H330 H 0.12941 0.76094 0.31746 0.0
H331 H 0.13408 0.7931 0.35201 0.0
H332 H 0.35498 0.73184 0.29497 0.0
H333 H 0.34588 0.71616 0.21535 0.0
H334 H 0.3898 0.70269 0.30141 0.0
H335 H 0.40339 0.68013 0.26517 0.0
Gd336 Gd 0.27395 0.81308 0.78629 0.0
Gd337 Gd 0.29828 0.75284 0.77893 0.0
C338 C 0.35037 0.75681 0.71063 0.0
C339 C 0.31924 0.7292 0.68046 0.0
C340 C 0.30487 0.73487 0.72271 0.0
C341 C 0.33009 0.75158 0.72866 0.0
C342 C 0.29971 0.72247 0.69894 0.0
C343 C 0.34446 0.74645 0.68624 0.0
C344 C 0.37635 0.77128 0.71792 0.0
C345 C 0.38202 0.77891 0.743 0.0
N346 N 0.3355 0.76093 0.75258 0.0
C347 C 0.36136 0.77336 0.76023 0.0
H348 H 0.36648 0.77932 0.77949 0.0
C349 C 0.26362 0.70761 0.73761 0.0
N350 N 0.28613 0.72892 0.74081 0.0
C351 C 0.25788 0.69454 0.71451 0.0
C352 C 0.27562 0.7026 0.69483 0.0
H353 H 0.24924 0.70186 0.75243 0.0
H354 H 0.35967 0.75067 0.67208 0.0
H355 H 0.21448 0.78984 0.81096 0.0
H356 H 0.39241 0.77574 0.7046 0.0
H357 H 0.40229 0.78933 0.74906 0.0
H358 H 0.31541 0.72029 0.66195 0.0
H359 H 0.33278 0.85977 0.78684 0.0
H360 H 0.21424 0.82963 0.88118 0.0
H361 H 0.19101 0.79604 0.84923 0.0
H362 H 0.30037 0.89465 0.88401 0.0
H363 H 0.23955 0.67859 0.71179 0.0
H364 H 0.27102 0.69256 0.67687 0.0
H365 H 0.2552 0.86658 0.89391 0.0
H366 H 0.35814 0.89738 0.81415 0.0
N367 N 0.25094 0.81732 0.82228 0.0
C368 C 0.2247 0.82646 0.86465 0.0
C369 C 0.21155 0.80741 0.8468 0.0
C370 C 0.25086 0.84205 0.86041 0.0
C371 C 0.26347 0.83721 0.83855 0.0
C372 C 0.22494 0.80351 0.82533 0.0
N373 N 0.30005 0.84811 0.81138 0.0
C374 C 0.28871 0.85339 0.83282 0.0
C375 C 0.33869 0.88506 0.81966 0.0
C376 C 0.32771 0.8902 0.84219 0.0
C377 C 0.32443 0.86384 0.80429 0.0
C378 C 0.30235 0.87433 0.84897 0.0
H379 H 0.3389 0.90648 0.85414 0.0
O380 O 0.27093 0.85736 0.77937 0.0
O381 O 0.31051 0.80023 0.76999 0.0
O382 O 0.32971 0.7813 0.80298 0.0
O383 O 0.30087 0.80464 0.82082 0.0
O384 O 0.29114 0.82633 0.74715 0.0
O385 O 0.23896 0.82455 0.76469 0.0
O386 O 0.28272 0.70817 0.78881 0.0
O387 O 0.26232 0.76563 0.79693 0.0
O388 O 0.23963 0.77956 0.77126 0.0
O389 O 0.26691 0.76094 0.74752 0.0
O390 O 0.28561 0.74364 0.82013 0.0
O391 O 0.32604 0.72489 0.7919 0.0
C392 C 0.31094 0.81352 0.74798 0.0
C393 C 0.2902 0.87872 0.87121 0.0
C394 C 0.26449 0.86266 0.8769 0.0
C395 C 0.25023 0.85166 0.76337 0.0
C396 C 0.25395 0.86622 0.73772 0.0
C397 C 0.27596 0.88909 0.7334 0.0
C398 C 0.23665 0.85618 0.71709 0.0
C399 C 0.24042 0.86941 0.69246 0.0
C400 C 0.28044 0.90163 0.70891 0.0
C401 C 0.26269 0.89213 0.68859 0.0
C402 C 0.32427 0.79664 0.82093 0.0
C403 C 0.26385 0.75351 0.81939 0.0
C404 C 0.3062 0.70357 0.7977 0.0
C405 C 0.30605 0.69113 0.82409 0.0
C406 C 0.28736 0.66601 0.83037 0.0
C407 C 0.32134 0.70643 0.84359 0.0
C408 C 0.31862 0.69658 0.86926 0.0
C409 C 0.28378 0.6565 0.85583 0.0
C410 C 0.29921 0.6716 0.87517 0.0
C411 C 0.24291 0.76626 0.75108 0.0
H412 H 0.28997 0.89712 0.74886 0.0
H413 H 0.22012 0.83814 0.72032 0.0
H414 H 0.29742 0.91917 0.70576 0.0
H415 H 0.26594 0.90346 0.6701 0.0
H416 H 0.27492 0.65428 0.81561 0.0
H417 H 0.33496 0.72643 0.83874 0.0
H418 H 0.26921 0.63718 0.86061 0.0
H419 H 0.29673 0.6627 0.89459 0.0
Gd420 Gd 0.28789 0.28369 0.75008 0.0
Gd421 Gd 0.23609 0.27876 0.79791 0.0
C422 C 0.23329 0.21805 0.86945 0.0
C423 C 0.19017 0.18542 0.86269 0.0
C424 C 0.2058 0.22363 0.83074 0.0
C425 C 0.22947 0.23197 0.84528 0.0
C426 C 0.18565 0.20058 0.83947 0.0
C427 C 0.21377 0.19439 0.8778 0.0
C428 C 0.25552 0.22963 0.88527 0.0
C429 C 0.27254 0.25512 0.87735 0.0
N430 N 0.24687 0.25611 0.8374 0.0
C431 C 0.26748 0.2685 0.85351 0.0
H432 H 0.28051 0.28847 0.8479 0.0
C433 C 0.17654 0.23542 0.79652 0.0
N434 N 0.20131 0.23999 0.80936 0.0
C435 C 0.15615 0.21244 0.8041 0.0
C436 C 0.16086 0.19465 0.82546 0.0
H437 H 0.17266 0.24913 0.78003 0.0
H438 H 0.21594 0.18383 0.89649 0.0
H439 H 0.24368 0.27438 0.69941 0.0
H440 H 0.25899 0.21992 0.90411 0.0
H441 H 0.28934 0.2647 0.88974 0.0
H442 H 0.17491 0.16771 0.86978 0.0
H443 H 0.35155 0.31294 0.76831 0.0
H444 H 0.26348 0.34637 0.64594 0.0
H445 H 0.234 0.30022 0.65874 0.0
H446 H 0.34808 0.39728 0.68068 0.0
H447 H 0.13679 0.20854 0.79352 0.0
H448 H 0.14488 0.17713 0.83155 0.0
H449 H 0.30602 0.38278 0.65448 0.0
H450 H 0.38725 0.354 0.75535 0.0
N451 N 0.27766 0.30621 0.71036 0.0
C452 C 0.26776 0.33521 0.66396 0.0
C453 C 0.25113 0.30912 0.67107 0.0
C454 C 0.29045 0.3459 0.67963 0.0
C455 C 0.29499 0.33059 0.70295 0.0
C456 C 0.25672 0.29454 0.69423 0.0
N457 N 0.32298 0.32227 0.73895 0.0
C458 C 0.31853 0.33884 0.71768 0.0
C459 C 0.36795 0.35009 0.74469 0.0
C460 C 0.36311 0.36831 0.72365 0.0
C461 C 0.34766 0.32683 0.75196 0.0
C462 C 0.33834 0.36251 0.70956 0.0
H463 H 0.37889 0.38624 0.718 0.0
O464 O 0.32132 0.26089 0.75004 0.0
O465 O 0.27245 0.26269 0.78746 0.0
O466 O 0.27428 0.31191 0.80608 0.0
O467 O 0.29605 0.32595 0.76804 0.0
O468 O 0.31388 0.27583 0.78524 0.0
O469 O 0.28924 0.25395 0.72106 0.0
O470 O 0.20128 0.29862 0.8022 0.0
O471 O 0.25096 0.29923 0.76028 0.0
O472 O 0.25014 0.25101 0.74128 0.0
O473 O 0.22729 0.23656 0.77873 0.0
O474 O 0.20962 0.28731 0.76339 0.0
O475 O 0.23796 0.31177 0.82474 0.0
C476 C 0.295 0.26316 0.79981 0.0
C477 C 0.33325 0.37883 0.68711 0.0
C478 C 0.30929 0.37057 0.6722 0.0
C479 C 0.31257 0.2482 0.72925 0.0
C480 C 0.33275 0.249 0.70966 0.0
C481 C 0.341 0.27435 0.69457 0.0
C482 C 0.34352 0.22461 0.70542 0.0
C483 C 0.36198 0.22585 0.68592 0.0
C484 C 0.35936 0.27568 0.67565 0.0
C485 C 0.36966 0.25167 0.67126 0.0
C486 C 0.29178 0.32998 0.7919 0.0
C487 C 0.22824 0.2991 0.74824 0.0
C488 C 0.21276 0.31413 0.82069 0.0
C489 C 0.19693 0.31298 0.84391 0.0
C490 C 0.19465 0.28864 0.86079 0.0
C491 C 0.18443 0.33569 0.84981 0.0
C492 C 0.1696 0.33336 0.8723 0.0
C493 C 0.18064 0.28646 0.88295 0.0
C494 C 0.16833 0.30851 0.8887 0.0
C495 C 0.2331 0.23231 0.75524 0.0
H496 H 0.33304 0.29313 0.69726 0.0
H497 H 0.33723 0.2048 0.71679 0.0
H498 H 0.3655 0.29541 0.66415 0.0
H499 H 0.38374 0.25326 0.65628 0.0
H500 H 0.20393 0.27124 0.85698 0.0
H501 H 0.18587 0.35465 0.83694 0.0
H502 H 0.17935 0.26752 0.8958 0.0
H503 H 0.15783 0.30611 0.90629 0.0
Gd504 Gd 0.75719 0.31633 0.76345 0.0
Gd505 Gd 0.7911 0.25794 0.78907 0.0
C506 C 0.75993 0.19354 0.85472 0.0
C507 C 0.7948 0.20593 0.88826 0.0
C508 C 0.79861 0.23145 0.84648 0.0
C509 C 0.7742 0.21537 0.83831 0.0
C510 C 0.80968 0.22636 0.87129 0.0
C511 C 0.76991 0.18954 0.87999 0.0
C512 C 0.73663 0.17575 0.84497 0.0
C513 C 0.72879 0.17923 0.81922 0.0
N514 N 0.76534 0.21977 0.81374 0.0
C515 C 0.74364 0.20117 0.80373 0.0
H516 H 0.73703 0.20345 0.78398 0.0
C517 C 0.83874 0.26362 0.83525 0.0
N518 N 0.81256 0.25054 0.82944 0.0
C519 C 0.85058 0.25946 0.85965 0.0
C520 C 0.8358 0.24111 0.87792 0.0
H521 H 0.8502 0.27805 0.82128 0.0
H522 H 0.75901 0.17321 0.89299 0.0
H523 H 0.80958 0.37235 0.76619 0.0
H524 H 0.72505 0.15879 0.85694 0.0
H525 H 0.71116 0.16515 0.81129 0.0
H526 H 0.80277 0.20197 0.90752 0.0
H527 H 0.69647 0.29491 0.73438 0.0
H528 H 0.81668 0.41667 0.69265 0.0
H529 H 0.83284 0.4115 0.7378 0.0
H530 H 0.73785 0.37034 0.64551 0.0
H531 H 0.87103 0.27049 0.86435 0.0
H532 H 0.84504 0.23781 0.89678 0.0
H533 H 0.78167 0.40042 0.65797 0.0
H534 H 0.67297 0.30179 0.69247 0.0
N535 N 0.78104 0.35427 0.73735 0.0
C536 C 0.80648 0.3992 0.70502 0.0
C537 C 0.81555 0.39644 0.73051 0.0
C538 C 0.78354 0.38018 0.69614 0.0
C539 C 0.7709 0.35789 0.71309 0.0
C540 C 0.80227 0.37404 0.74657 0.0
N541 N 0.73351 0.32219 0.72398 0.0
C542 C 0.74628 0.3412 0.70615 0.0
C543 C 0.69365 0.31289 0.69599 0.0
C544 C 0.7072 0.331 0.67683 0.0
C545 C 0.70703 0.30907 0.71972 0.0
C546 C 0.7336 0.34599 0.68198 0.0
H547 H 0.69675 0.33407 0.65851 0.0
O548 O 0.72035 0.32542 0.77685 0.0
O549 O 0.75811 0.28062 0.79238 0.0
O550 O 0.75795 0.24277 0.7576 0.0
O551 O 0.74964 0.28315 0.73306 0.0
O552 O 0.72044 0.28412 0.77606 0.0
O553 O 0.75848 0.35543 0.78201 0.0
O554 O 0.82831 0.2462 0.77965 0.0
O555 O 0.79127 0.29454 0.76081 0.0
O556 O 0.79083 0.33216 0.79428 0.0
O557 O 0.79862 0.29169 0.819 0.0
O558 O 0.8285 0.28944 0.77767 0.0
O559 O 0.7894 0.22189 0.76627 0.0
C560 C 0.73326 0.26992 0.79259 0.0
C561 C 0.74708 0.3666 0.66429 0.0
C562 C 0.77203 0.38372 0.67138 0.0
C563 C 0.73235 0.35046 0.78397 0.0
C564 C 0.71868 0.3738 0.77552 0.0
C565 C 0.72345 0.38928 0.75197 0.0
C566 C 0.70012 0.38032 0.79142 0.0
C567 C 0.68644 0.40253 0.78421 0.0
C568 C 0.70977 0.41142 0.74463 0.0
C569 C 0.69142 0.41823 0.76076 0.0
C570 C 0.74757 0.25488 0.73653 0.0
C571 C 0.81639 0.30458 0.76137 0.0
C572 C 0.81556 0.22397 0.76799 0.0
C573 C 0.82489 0.19739 0.77443 0.0
C574 C 0.82735 0.18627 0.79972 0.0
C575 C 0.83161 0.18303 0.75455 0.0
C576 C 0.84139 0.1578 0.75966 0.0
C577 C 0.83706 0.16099 0.80493 0.0
C578 C 0.84433 0.14686 0.78497 0.0
C579 C 0.80108 0.31999 0.81539 0.0
H580 H 0.73773 0.3844 0.73942 0.0
H581 H 0.69679 0.36845 0.80974 0.0
H582 H 0.71352 0.42343 0.72651 0.0
H583 H 0.68113 0.43562 0.75498 0.0
H584 H 0.82201 0.19715 0.8153 0.0
H585 H 0.8299 0.19195 0.73504 0.0
H586 H 0.83915 0.15247 0.82444 0.0
H587 H 0.85214 0.12747 0.78923 0.0
Gd588 Gd 0.77711 0.81313 0.80004 0.0
Gd589 Gd 0.77044 0.75802 0.75629 0.0
C590 C 0.70855 0.75396 0.68866 0.0
C591 C 0.67712 0.70948 0.69899 0.0
C592 C 0.71644 0.72533 0.72729 0.0
C593 C 0.72396 0.74964 0.71142 0.0
C594 C 0.6933 0.70462 0.72096 0.0
C595 C 0.68473 0.73413 0.68287 0.0
C596 C 0.71811 0.77745 0.67191 0.0
C597 C 0.74304 0.79518 0.67753 0.0
N598 N 0.74747 0.76792 0.71726 0.0
C599 C 0.75773 0.78979 0.70019 0.0
H600 H 0.77696 0.80372 0.70417 0.0
C601 C 0.7281 0.69574 0.76254 0.0
N602 N 0.73286 0.72106 0.74804 0.0
C603 C 0.70531 0.67463 0.75712 0.0
C604 C 0.68764 0.67922 0.73642 0.0
H605 H 0.74155 0.69193 0.77863 0.0
H606 H 0.6725 0.73722 0.66559 0.0
H607 H 0.77126 0.76851 0.85268 0.0
H608 H 0.70684 0.78158 0.65427 0.0
H609 H 0.75094 0.81304 0.66444 0.0
H610 H 0.65914 0.69394 0.69391 0.0
H611 H 0.80128 0.88141 0.78076 0.0
H612 H 0.84161 0.79164 0.90212 0.0
H613 H 0.79756 0.75983 0.89245 0.0
H614 H 0.88656 0.88081 0.86297 0.0
H615 H 0.70139 0.65486 0.76893 0.0
H616 H 0.67007 0.66276 0.73218 0.0
H617 H 0.87515 0.83665 0.89062 0.0
H618 H 0.83969 0.92023 0.79107 0.0
N619 N 0.80064 0.80404 0.83903 0.0
C620 C 0.83023 0.79543 0.88446 0.0
C621 C 0.80532 0.77753 0.87914 0.0
C622 C 0.83941 0.81891 0.86758 0.0
C623 C 0.82381 0.82279 0.84484 0.0
C624 C 0.79048 0.78253 0.85646 0.0
N625 N 0.81296 0.85157 0.80928 0.0
C626 C 0.83018 0.84753 0.82943 0.0
C627 C 0.83738 0.89982 0.80192 0.0
C628 C 0.85619 0.89537 0.82168 0.0
C629 C 0.81559 0.87769 0.79614 0.0
C630 C 0.85239 0.8692 0.8361 0.0
H631 H 0.87296 0.91259 0.82622 0.0
O632 O 0.75605 0.84839 0.80194 0.0
O633 O 0.75434 0.7975 0.76343 0.0
O634 O 0.80162 0.79668 0.74413 0.0
O635 O 0.816 0.82357 0.77915 0.0
O636 O 0.76934 0.84048 0.76434 0.0
O637 O 0.74849 0.81249 0.82939 0.0
O638 O 0.78858 0.72083 0.75344 0.0
O639 O 0.79324 0.77345 0.79312 0.0
O640 O 0.74693 0.77312 0.81176 0.0
O641 O 0.73053 0.75199 0.7744 0.0
O642 O 0.77808 0.73041 0.79195 0.0
O643 O 0.79843 0.75726 0.7267 0.0
C644 C 0.75512 0.82153 0.75034 0.0
C645 C 0.8692 0.86457 0.85768 0.0
C646 C 0.86272 0.83942 0.87341 0.0
C647 C 0.74374 0.83773 0.82246 0.0
C648 C 0.74489 0.85731 0.84299 0.0
C649 C 0.76891 0.86491 0.85797 0.0
C650 C 0.72189 0.86808 0.84812 0.0
C651 C 0.72293 0.88589 0.86849 0.0
C652 C 0.77014 0.88285 0.87781 0.0
C653 C 0.74735 0.89319 0.88313 0.0
C654 C 0.81905 0.81658 0.75584 0.0
C655 C 0.79213 0.74925 0.80616 0.0
C656 C 0.80148 0.73126 0.73311 0.0
C657 C 0.79933 0.71202 0.71208 0.0
C658 C 0.77426 0.70315 0.69912 0.0
C659 C 0.8223 0.70267 0.70457 0.0
C660 C 0.82004 0.68486 0.68397 0.0
C661 C 0.77183 0.68527 0.6791 0.0
C662 C 0.79446 0.67619 0.67156 0.0
C663 C 0.72798 0.75629 0.79844 0.0
H664 H 0.78666 0.85682 0.85447 0.0
H665 H 0.70317 0.8621 0.83677 0.0
H666 H 0.7888 0.88861 0.88924 0.0
H667 H 0.74882 0.90706 0.8987 0.0
H668 H 0.75651 0.71004 0.70443 0.0
H669 H 0.84182 0.70961 0.71437 0.0
H670 H 0.7523 0.67846 0.66935 0.0
H671 H 0.79188 0.66211 0.65604 0.0
Fe672 Fe 0.0366 0.09229 0.54496 0.0
O673 O 0.0246 0.05055 0.54411 0.0
Fe674 Fe 0.05025 0.0282 0.5287 0.0
Fe675 Fe 0.99007 0.03166 0.52646 0.0
O676 O 0.02708 0.05082 0.54379 0.0
O677 O 1.01589 0.00987 0.51027 0.0
O678 O 1.01325 0.00933 0.51098 0.0
Fe679 Fe 1.00372 0.96788 0.50992 0.0
C680 C 0.97914 0.07466 0.56328 0.0
O681 O 1.01069 0.10149 0.51499 0.0
O682 O 0.99681 0.06034 0.49638 0.0
O683 O 0.03536 0.97392 0.48625 0.0
O684 O 0.06981 1.00189 0.50963 0.0
O685 O 0.05912 0.05819 0.49848 0.0
O686 O 0.06709 0.09764 0.51973 0.0
O687 O 0.95653 0.00944 0.50488 0.0
O688 O 0.9746 0.97752 0.48398 0.0
C689 C 0.06947 0.08459 0.5001 0.0
O690 O 0.03132 0.9591 0.53765 0.0
O691 O 0.04264 0.9985 0.55869 0.0
O692 O 1.0043 0.08666 0.56764 0.0
O693 O 0.97007 0.05769 0.54513 0.0
C694 C 1.00233 0.08736 0.49551 0.0
C695 C 0.95607 0.9919 0.48699 0.0
C696 C 0.97382 0.97597 0.5567 0.0
O697 O 0.98312 1.00263 0.55703 0.0
O698 O 0.97481 0.96226 0.53708 0.0
C699 C 0.06073 0.98489 0.49141 0.0
O700 O 0.08318 0.04962 0.55167 0.0
O701 O 0.06453 0.08165 0.57211 0.0
C702 C 0.04155 0.97204 0.55714 0.0
C703 C 0.08282 0.06656 0.56994 0.0
Fe704 Fe 0.49878 0.99826 0.03102 0.0
O705 O 0.5008 0.03955 0.02888 0.0
Fe706 Fe 0.46836 0.05604 0.01102 0.0
Fe707 Fe 0.53148 0.06735 0.01354 0.0
O708 O 0.49812 0.03887 0.02844 0.0
O709 O 0.49916 0.08456 0.99575 0.0
O710 O 0.50216 0.08539 0.99626 0.0
Fe711 Fe 0.50307 0.12661 0.99734 0.0
C712 C 0.55375 0.02567 0.0527 0.0
O713 O 0.52807 1.00029 0.00531 0.0
O714 O 0.53162 0.04221 0.98294 0.0
O715 O 0.47045 0.11911 0.97159 0.0
O716 O 0.44149 0.07999 0.99 0.0
O717 O 0.4659 0.03073 0.98047 0.0
O718 O 0.46983 0.98942 1.00204 0.0
O719 O 0.55968 0.09906 0.99457 0.0
O720 O 0.53392 0.12913 0.97311 0.0
C721 C 0.46459 1.00375 0.98161 0.0
O722 O 0.47493 0.12382 0.02467 0.0
O723 O 0.47038 0.07932 0.04172 0.0
O724 O 0.53055 0.00906 0.05721 0.0
O725 O 0.55795 0.04539 0.03421 0.0
C726 C 0.53612 0.01681 0.98603 0.0
C727 C 0.55615 0.11948 0.97764 0.0
C728 C 0.54139 0.11872 0.04446 0.0
O729 O 0.53478 0.09161 0.045 0.0
O730 O 0.53399 0.13403 0.02556 0.0
C731 C 0.4467 0.10284 0.97419 0.0
O732 O 0.44004 0.02372 0.03144 0.0
O733 O 0.46741 0.99645 0.05437 0.0
C734 C 0.46911 0.10521 0.04306 0.0
C735 C 0.44441 1.00432 0.04943 0.0
Fe736 Fe 1.01157 0.6176 0.03341 0.0
O737 O 1.00417 0.57596 0.0329 0.0
Fe738 Fe 0.03716 0.55172 0.04835 0.0
Fe739 Fe 0.96974 0.55092 0.0445 0.0
O740 O 1.00865 0.57484 0.03268 0.0
O741 O 1.00338 0.5282 0.06313 0.0
O742 O 0.99808 0.52946 0.06364 0.0
Fe743 Fe 0.99547 0.4864 0.06307 0.0
C744 C 0.96572 0.60439 0.07605 0.0
O745 O 0.98057 0.61476 1.00473 0.0
O746 O 0.9468 0.57815 0.01928 0.0
O747 O 0.02387 0.48457 0.03679 0.0
O748 O 0.03365 0.52757 0.0167 0.0
O749 O 0.06766 0.58283 0.02737 0.0
O750 O 0.04378 0.61685 0.00964 0.0
O751 O 0.96759 0.52504 0.01289 0.0
O752 O 0.96573 0.48233 0.03348 0.0
C753 C 0.06485 0.60466 0.01094 0.0
O754 O 0.02927 0.48792 0.09056 0.0
O755 O 0.06194 0.52116 0.07056 0.0
O756 O 0.981 0.62054 0.05979 0.0
O757 O 0.96451 0.57692 0.07604 0.0
C758 C 0.95548 0.60106 1.00382 0.0
C759 C 0.96065 0.49757 0.01348 0.0
C760 C 0.94229 0.49964 0.08013 0.0
O761 O 0.9396 0.51926 0.0618 0.0
O762 O 0.96392 0.48879 0.08571 0.0
C763 C 0.03355 0.50084 0.01792 0.0
O764 O 0.04287 0.57557 0.0794 0.0
O765 O 0.03965 0.61981 0.06355 0.0
C766 C 0.05506 0.49833 0.08721 0.0
C767 C 0.04679 0.60248 0.08103 0.0
Fe768 Fe 0.51835 0.52979 0.99331 0.0
O769 O 0.54316 0.54652 0.02158 0.0
Fe770 Fe 0.4605 0.49535 0.02394 0.0
Fe771 Fe 0.58245 0.55433 0.02035 0.0
O772 O 0.4999 0.50288 0.02047 0.0
O773 O 0.49992 0.50299 0.02279 0.0
O774 O 0.54307 0.54684 0.02379 0.0
Fe775 Fe 0.52414 0.52059 0.0511 0.0
C776 C 0.56644 0.50818 0.9818 0.0
O777 O 0.54071 0.56067 0.96832 0.0
O778 O 0.57491 0.586 0.99371 0.0
O779 O 0.5002 0.54931 0.0552 0.0
O780 O 0.46055 0.51892 0.05499 0.0
O781 O 0.45453 0.5305 1.00078 0.0
O782 O 0.49541 0.55853 0.99865 0.0
O783 O 0.58197 0.57514 0.05296 0.0
O784 O 0.55228 0.54282 0.07777 0.0
C785 C 0.46991 0.55508 0.99827 0.0
O786 O 0.50129 0.48988 0.07624 0.0
O787 O 0.46824 0.46363 0.05024 0.0
O788 O 0.54185 0.5012 0.98749 0.0
O789 O 0.58219 0.53046 0.9896 0.0
C790 C 0.56003 0.58266 0.97261 0.0
C791 C 0.57146 0.56549 0.07457 0.0
C792 C 0.57311 0.4954 0.04878 0.0
O793 O 0.58843 0.51969 0.04421 0.0
O794 O 0.54757 0.49176 0.04719 0.0
C795 C 0.4754 0.54278 0.06019 0.0
O796 O 0.46088 0.47515 0.99084 0.0
O797 O 0.48954 0.5091 0.96667 0.0
C798 C 0.48271 0.46729 0.07154 0.0
C799 C 0.47058 0.48623 0.96923 0.0
Fe800 Fe 0.02748 0.45038 0.53924 0.0
O801 O 0.0304 0.49167 0.5402 0.0
Fe802 Fe 0.04844 0.51799 0.50958 0.0
Fe803 Fe 0.04706 0.51509 0.56924 0.0
O804 O 0.03025 0.49191 0.53756 0.0
O805 O 0.06659 0.54068 0.53847 0.0
O806 O 0.06684 0.54039 0.54145 0.0
Fe807 Fe 0.06883 0.58208 0.53821 0.0
C808 C 1.00464 0.4626 0.58901 0.0
O809 O 0.05761 0.44817 0.56778 0.0
O810 O 0.07848 0.49277 0.57591 0.0
O811 O 0.09598 0.58228 0.51071 0.0
O812 O 0.07152 0.54957 0.48378 0.0
O813 O 0.07959 0.49681 0.5119 0.0
O814 O 0.05572 0.45217 0.5126 0.0
O815 O 0.06752 0.54442 0.59566 0.0
O816 O 0.0938 0.57956 0.5703 0.0
C817 C 0.07748 0.4704 0.50924 0.0
O818 O 0.04082 0.58344 0.50814 0.0
O819 O 1.01713 0.53901 0.5072 0.0
O820 O 1.0016 0.44983 0.56783 0.0
O821 O 0.02311 0.48513 0.594 0.0
C822 C 0.07724 0.46573 0.57787 0.0
C823 C 0.08696 0.56686 0.5923 0.0
C824 C 1.01738 0.56315 0.5685 0.0
O825 O 1.01532 0.53665 0.5655 0.0
O826 O 0.03872 0.58135 0.56313 0.0
C827 C 0.09098 0.57165 0.48852 0.0
O828 O 0.0252 0.48967 0.48282 0.0
O829 O 1.00039 0.45366 0.50847 0.0
C830 C 0.01931 0.56567 0.50248 0.0
C831 C 1.00499 0.46792 0.48663 0.0
Fe832 Fe 0.55063 0.95217 0.51178 0.0
O833 O 0.55606 0.99457 0.51183 0.0
Fe834 Fe 0.53807 0.01608 0.47623 0.0
Fe835 Fe 0.54374 0.0135 0.54114 0.0
O836 O 0.55552 0.99512 0.50669 0.0
O837 O 0.5269 0.0352 0.50593 0.0
O838 O 0.52741 0.03483 0.51054 0.0
Fe839 Fe 0.53023 0.07701 0.50754 0.0
C840 C 0.50596 0.95637 0.55092 0.0
O841 O 0.58066 0.95801 0.54117 0.0
O842 O 0.56513 0.98629 0.56808 0.0
O843 O 0.55863 0.08658 0.47993 0.0
O844 O 0.57281 0.0466 0.47273 0.0
O845 O 0.55711 0.98852 0.45101 0.0
O846 O 0.57581 0.95807 0.48004 0.0
O847 O 0.57947 0.0453 0.54351 0.0
O848 O 0.56143 0.084 0.53577 0.0
C849 C 0.57311 0.96908 0.4567 0.0
O850 O 0.50001 0.07297 0.47746 0.0
O851 O 0.51339 0.04446 0.44956 0.0
O852 O 0.52279 0.94337 0.54188 0.0
O853 O 0.5075 0.98296 0.54462 0.0
C854 C 0.5802 0.96752 0.56365 0.0
C855 C 0.57981 0.07178 0.54662 0.0
C856 C 0.50859 0.05476 0.56009 0.0
O857 O 0.52565 0.03746 0.56591 0.0
O858 O 0.50492 0.06696 0.53753 0.0
C859 C 0.57551 0.07371 0.47113 0.0
O860 O 0.50326 0.98642 0.47895 0.0
O861 O 0.51842 0.94564 0.48523 0.0
C862 C 0.49864 0.06404 0.45458 0.0
C863 C 0.49974 0.95947 0.47886 0.0
H864 H 0.21783 0.18948 0.31123 0.0
H865 H 0.18863 0.16258 0.34342 0.0
H866 H 0.19226 0.23955 0.3821 0.0
H867 H 0.22184 0.2669 0.34983 0.0
H868 H 0.19827 0.19441 0.4154 0.0
H869 H 0.13629 0.21236 0.34622 0.0
H870 H 0.11835 0.21299 0.30153 0.0
H871 H 0.10766 0.12158 0.30325 0.0
H872 H 0.12586 0.12044 0.34789 0.0
H873 H 0.09087 0.14179 0.49592 0.0
H874 H 0.11893 0.16863 0.46289 0.0
H875 H 0.11352 0.09166 0.42372 0.0
H876 H 0.08486 0.06442 0.45675 0.0
H877 H 0.10842 0.1366 0.39047 0.0
H878 H 0.17024 0.11866 0.4598 0.0
H879 H 0.18846 0.11816 0.50441 0.0
H880 H 0.1999 0.20964 0.50229 0.0
H881 H 0.18132 0.21066 0.45778 0.0
C882 C 0.21246 0.20086 0.32651 0.0
C883 C 0.22205 0.23052 0.32774 0.0
C884 C 0.19562 0.18537 0.3449 0.0
C885 C 0.18787 0.19908 0.36498 0.0
C886 C 0.19786 0.22855 0.36668 0.0
C887 C 0.21472 0.24416 0.34818 0.0
C888 C 0.16949 0.18247 0.38421 0.0
C889 C 0.17846 0.18212 0.41 0.0
C890 C 0.14392 0.16577 0.37709 0.0
C891 C 0.13269 0.16635 0.35033 0.0
C892 C 0.1303 0.19241 0.33701 0.0
C893 C 0.12006 0.19286 0.3117 0.0
C894 C 0.11197 0.16736 0.29953 0.0
C895 C 0.11399 0.14133 0.31269 0.0
C896 C 0.12423 0.14076 0.33802 0.0
C897 C 0.09556 0.13041 0.48032 0.0
C898 C 0.08576 0.10079 0.47921 0.0
C899 C 0.11173 0.14587 0.46144 0.0
C900 C 0.11881 0.13213 0.44105 0.0
C901 C 0.10847 0.10271 0.43938 0.0
C902 C 0.09213 0.08715 0.4583 0.0
C903 C 0.13717 0.1486 0.42171 0.0
C904 C 0.12823 0.14889 0.39589 0.0
C905 C 0.16279 0.16524 0.42879 0.0
C906 C 0.17414 0.16471 0.45552 0.0
C907 C 0.17644 0.13866 0.46891 0.0
C908 C 0.18686 0.13828 0.49417 0.0
C909 C 0.19527 0.16384 0.50619 0.0
C910 C 0.19334 0.18985 0.49296 0.0
C911 C 0.18288 0.19034 0.46771 0.0
H912 H 0.20334 0.16351 0.52575 0.0
H913 H 0.10408 0.16776 0.27991 0.0
H914 H 0.92536 0.24197 0.315 0.0
H915 H 0.9495 0.21948 0.34968 0.0
H916 H 0.94091 0.14393 0.30759 0.0
H917 H 0.91536 0.1659 0.27323 0.0
H918 H 0.9242 0.13106 0.3544 0.0
H919 H 1.00297 0.1881 0.31762 0.0
H920 H 0.03181 0.23205 0.29956 0.0
H921 H 0.03374 0.27122 0.37053 0.0
H922 H 1.00454 0.22768 0.38891 0.0
H923 H 0.99831 0.06533 0.44931 0.0
H924 H 0.98764 0.08836 0.40826 0.0
H925 H 0.9863 0.16591 0.4445 0.0
H926 H 0.99749 0.14307 0.48597 0.0
H927 H 1.01086 0.17526 0.39837 0.0
H928 H 0.92909 0.11978 0.43369 0.0
H929 H 0.90073 0.07576 0.45221 0.0
H930 H 0.90436 0.0336 0.38382 0.0
H931 H 0.93331 0.07717 0.36508 0.0
C932 C 0.92898 0.22072 0.31299 0.0
C933 C 0.9185 0.20554 0.29158 0.0
C934 C 0.94296 0.20802 0.33268 0.0
C935 C 0.9472 0.18023 0.33096 0.0
C936 C 0.9379 0.16551 0.30906 0.0
C937 C 0.92361 0.17813 0.28941 0.0
C938 C 0.959 0.16574 0.35314 0.0
C939 C 0.94345 0.14035 0.3637 0.0
C940 C 0.98371 0.17845 0.36553 0.0
C941 C 1.00143 0.20465 0.35459 0.0
C942 C 1.00939 0.20615 0.32932 0.0
C943 C 0.02582 0.23099 0.31903 0.0
C944 C 0.03458 0.25442 0.33387 0.0
C945 C 0.02695 0.25305 0.35905 0.0
C946 C 1.01048 0.22828 0.36943 0.0
C947 C 0.99588 0.08735 0.44859 0.0
C948 C 0.99811 0.10235 0.47083 0.0
C949 C 0.98989 0.10042 0.42515 0.0
C950 C 0.98572 0.12848 0.42368 0.0
C951 C 0.98934 0.14409 0.44554 0.0
C952 C 0.9956 0.13106 0.4691 0.0
C953 C 0.97599 0.14089 0.39952 0.0
C954 C 0.99183 0.16585 0.38875 0.0
C955 C 0.95152 0.1278 0.38695 0.0
C956 C 0.93363 0.10171 0.39805 0.0
C957 C 0.92404 0.10107 0.42265 0.0
C958 C 0.90785 0.07619 0.4332 0.0
C959 C 0.90081 0.05188 0.41923 0.0
C960 C 0.90989 0.05242 0.39465 0.0
C961 C 0.9262 0.07721 0.38405 0.0
H962 H 0.88829 0.03265 0.42744 0.0
H963 H 0.04731 0.27363 0.32587 0.0
H964 H 0.80048 0.87442 0.30549 0.0
H965 H 0.82338 0.90782 0.33615 0.0
H966 H 0.87646 0.84991 0.36133 0.0
H967 H 0.85448 0.8169 0.32936 0.0
H968 H 0.82614 0.90395 0.3851 0.0
H969 H 0.93625 0.88685 0.38488 0.0
H970 H 0.96694 0.87356 0.35535 0.0
H971 H 0.92232 0.90605 0.29146 0.0
H972 H 0.89161 0.91988 0.32063 0.0
H973 H 0.90931 0.9539 0.49391 0.0
H974 H 0.8808 0.92973 0.45953 0.0
H975 H 0.92434 0.98993 0.40406 0.0
H976 H 0.95297 0.01383 0.43851 0.0
H977 H 0.92567 0.93784 0.39361 0.0
H978 H 0.85649 0.98597 0.41239 0.0
H979 H 0.82579 1.00312 0.43936 0.0
H980 H 0.78797 0.91648 0.46059 0.0
H981 H 0.81885 0.89879 0.43415 0.0
C982 C 0.81738 0.86892 0.31718 0.0
C983 C 0.82555 0.84282 0.31508 0.0
C984 C 0.83025 0.88798 0.33495 0.0
C985 C 0.85164 0.88148 0.35114 0.0
C986 C 0.86017 0.8556 0.34889 0.0
C987 C 0.84745 0.83659 0.33078 0.0
C988 C 0.86455 0.90179 0.37048 0.0
C989 C 0.84792 0.91137 0.38694 0.0
C990 C 0.8929 0.91196 0.37264 0.0
C991 C 0.91149 0.90413 0.35494 0.0
C992 C 0.93307 0.89126 0.36454 0.0
C993 C 0.95045 0.88362 0.34786 0.0
C994 C 0.94653 0.88887 0.32154 0.0
C995 C 0.92528 0.9019 0.31185 0.0
C996 C 0.90787 0.90962 0.32844 0.0
C997 C 0.91167 0.96288 0.47446 0.0
C998 C 0.93277 0.98608 0.46878 0.0
C999 C 0.89561 0.94889 0.45477 0.0
C1000 C 0.90046 0.95795 0.42915 0.0
C1001 C 0.92023 0.98254 0.42365 0.0
C1002 C 0.93628 0.99647 0.44332 0.0
C1003 C 0.88727 0.93994 0.40827 0.0
C1004 C 0.90387 0.93059 0.39167 0.0
C1005 C 0.85886 0.93055 0.40559 0.0
C1006 C 0.84018 0.94106 0.42147 0.0
C1007 C 0.8418 0.97057 0.42301 0.0
C1008 C 0.82435 0.98038 0.43818 0.0
C1009 C 0.80498 0.9609 0.45173 0.0
C1010 C 0.80301 0.93154 0.45011 0.0
C1011 C 0.82049 0.92161 0.43503 0.0
H1012 H 0.79146 0.96854 0.46345 0.0
H1013 H 0.95999 0.8829 0.30867 0.0
H1014 H 0.15485 0.81127 0.38805 0.0
H1015 H 0.14897 0.84654 0.41689 0.0
H1016 H 0.18874 0.91419 0.3653 0.0
H1017 H 0.19128 0.8798 0.33481 0.0
H1018 H 0.1726 0.88769 0.44376 0.0
H1019 H 0.15702 0.96854 0.35951 0.0
H1020 H 0.14509 0.96955 0.31324 0.0
H1021 H 0.10199 0.8825 0.32122 0.0
H1022 H 0.11339 0.88112 0.36755 0.0
H1023 H 0.11631 0.99479 0.49864 0.0
H1024 H 0.14781 0.97539 0.4747 0.0
H1025 H 0.08073 0.93399 0.42695 0.0
H1026 H 0.04969 0.95382 0.44966 0.0
H1027 H 0.12093 0.95643 0.39935 0.0
H1028 H 0.10719 0.89926 0.47975 0.0
H1029 H 0.10964 0.89337 0.52681 0.0
H1030 H 0.19592 0.92246 0.52776 0.0
H1031 H 0.19391 0.92896 0.48071 0.0
C1032 C 0.16209 0.83363 0.38256 0.0
C1033 C 0.17257 0.84241 0.35843 0.0
C1034 C 0.1593 0.8538 0.39945 0.0
C1035 C 0.16769 0.88308 0.39289 0.0
C1036 C 0.18142 0.89171 0.37043 0.0
C1037 C 0.18316 0.87173 0.35305 0.0
C1038 C 0.15824 0.90425 0.40728 0.0
C1039 C 0.16157 0.90295 0.43406 0.0
C1040 C 0.14352 0.92398 0.39467 0.0
C1041 C 0.13647 0.9246 0.36686 0.0
C1042 C 0.14501 0.94964 0.35135 0.0
C1043 C 0.13832 0.95028 0.32514 0.0
C1044 C 0.12292 0.92605 0.31428 0.0
C1045 C 0.11403 0.90119 0.32963 0.0
C1046 C 0.12061 0.90047 0.35586 0.0
C1047 C 0.10842 0.98193 0.48276 0.0
C1048 C 0.08047 0.97568 0.47618 0.0
C1049 C 0.1264 0.97078 0.46924 0.0
C1050 C 0.11652 0.95315 0.44922 0.0
C1051 C 0.0888 0.94769 0.44226 0.0
C1052 C 0.07101 0.95894 0.45545 0.0
C1053 C 0.13425 0.93899 0.43573 0.0
C1054 C 0.13269 0.94179 0.40904 0.0
C1055 C 0.14912 0.9196 0.44852 0.0
C1056 C 0.15039 0.91489 0.47674 0.0
C1057 C 0.12667 0.90452 0.49001 0.0
C1058 C 0.12797 0.90107 0.51667 0.0
C1059 C 0.15291 0.9076 0.53026 0.0
C1060 C 0.17661 0.91746 0.5172 0.0
C1061 C 0.17541 0.92103 0.49054 0.0
H1062 H 0.15388 0.90497 0.5509 0.0
H1063 H 0.11781 0.92658 0.29398 0.0
H1064 H 0.18562 0.85195 0.69689 0.0
H1065 H 0.15111 0.85526 0.6636 0.0
H1066 H 0.21185 0.87659 0.60765 0.0
H1067 H 0.24696 0.87095 0.64072 0.0
H1068 H 0.18512 0.92227 0.62741 0.0
H1069 H 0.16234 0.83724 0.57912 0.0
H1070 H 0.15102 0.78545 0.57305 0.0
H1071 H 0.08567 0.77538 0.62345 0.0
H1072 H 0.09632 0.82725 0.62934 0.0
H1073 H 0.09417 0.98517 0.54957 0.0
H1074 H 0.12741 0.9567 0.56426 0.0
H1075 H 0.06853 0.90246 0.61194 0.0
H1076 H 0.0339 0.9292 0.59436 0.0
H1077 H 0.09735 0.87182 0.58984 0.0
H1078 H 0.11754 0.95877 0.63442 0.0
H1079 H 0.12461 0.0113 0.63352 0.0
H1080 H 0.19601 0.01882 0.5914 0.0
H1081 H 0.18879 0.9663 0.59115 0.0
C1082 C 0.19184 0.85555 0.67743 0.0
C1083 C 0.21936 0.86225 0.67169 0.0
C1084 C 0.17187 0.85738 0.65831 0.0
C1085 C 0.17913 0.86645 0.6334 0.0
C1086 C 0.20605 0.86949 0.6269 0.0
C1087 C 0.22607 0.86685 0.64594 0.0
C1088 C 0.16091 0.88155 0.61771 0.0
C1089 C 0.16621 0.91139 0.61853 0.0
C1090 C 0.13602 0.8671 0.60724 0.0
C1091 C 0.13027 0.8359 0.60483 0.0
C1092 C 0.14564 0.8239 0.58896 0.0
C1093 C 0.13917 0.79462 0.58536 0.0
C1094 C 0.11763 0.77713 0.59785 0.0
C1095 C 0.10235 0.78894 0.6138 0.0
C1096 C 0.10849 0.81829 0.61716 0.0
C1097 C 0.08844 0.96738 0.5634 0.0
C1098 C 0.06196 0.95953 0.57151 0.0
C1099 C 0.10737 0.95112 0.57171 0.0
C1100 C 0.10053 0.92802 0.58963 0.0
C1101 C 0.07409 0.92042 0.5982 0.0
C1102 C 0.05463 0.93591 0.58874 0.0
C1103 C 0.12141 0.91247 0.59987 0.0
C1104 C 0.11644 0.88276 0.59833 0.0
C1105 C 0.14657 0.9271 0.61009 0.0
C1106 C 0.1525 0.95854 0.61259 0.0
C1107 C 0.13476 0.9716 0.62496 0.0
C1108 C 0.13862 1.00139 0.6244 0.0
C1109 C 0.16061 0.01838 0.6122 0.0
C1110 C 0.17891 1.00561 0.60073 0.0
C1111 C 0.17491 0.97583 0.60087 0.0
H1112 H 0.16362 0.04142 0.61185 0.0
H1113 H 0.11284 0.75442 0.59525 0.0
H1114 H 0.25101 0.20989 0.71551 0.0
H1115 H 0.22642 0.17321 0.68894 0.0
H1116 H 0.1595 0.15813 0.73837 0.0
H1117 H 0.18441 0.19531 0.7656 0.0
H1118 H 0.17666 0.10601 0.71462 0.0
H1119 H 0.14703 0.19526 0.6935 0.0
H1120 H 0.15598 0.24778 0.6865 0.0
H1121 H 0.20625 0.24324 0.62482 0.0
H1122 H 0.1978 0.19063 0.63164 0.0
H1123 H 0.07679 0.04957 0.61936 0.0
H1124 H 0.10605 0.06919 0.65506 0.0
H1125 H 0.16554 0.11254 0.60254 0.0
H1126 H 0.13578 0.09302 0.56661 0.0
H1127 H 0.15064 0.14939 0.63034 0.0
H1128 H 0.18864 0.0641 0.65625 0.0
H1129 H 0.18694 0.01253 0.66638 0.0
H1130 H 0.12387 0.00979 0.718 0.0
H1131 H 0.1259 0.06156 0.70878 0.0
C1132 C 0.2312 0.19877 0.7211 0.0
C1133 C 0.21934 0.20635 0.74237 0.0
C1134 C 0.21725 0.17756 0.70588 0.0
C1135 C 0.19107 0.16332 0.71149 0.0
C1136 C 0.17975 0.16905 0.73374 0.0
C1137 C 0.19391 0.19044 0.74919 0.0
C1138 C 0.17501 0.14518 0.6922 0.0
C1139 C 0.17038 0.11539 0.69636 0.0
C1140 C 0.16775 0.15753 0.66816 0.0
C1141 C 0.17187 0.18903 0.66316 0.0
C1142 C 0.16005 0.20547 0.67849 0.0
C1143 C 0.16504 0.23525 0.67457 0.0
C1144 C 0.18171 0.24885 0.65527 0.0
C1145 C 0.19332 0.23267 0.63975 0.0
C1146 C 0.18837 0.20286 0.64359 0.0
C1147 C 0.09671 0.06217 0.61558 0.0
C1148 C 0.10427 0.06954 0.59037 0.0
C1149 C 0.11347 0.0734 0.63602 0.0
C1150 C 0.13811 0.09234 0.63161 0.0
C1151 C 0.14665 0.09791 0.60644 0.0
C1152 C 0.12984 0.08653 0.58593 0.0
C1153 C 0.15231 0.10983 0.65248 0.0
C1154 C 0.15661 0.13976 0.64859 0.0
C1155 C 0.15928 0.09758 0.67672 0.0
C1156 C 0.15718 0.06644 0.6816 0.0
C1157 C 0.17436 0.05241 0.66968 0.0
C1158 C 0.17352 0.02325 0.67544 0.0
C1159 C 0.15518 1.00786 0.69269 0.0
C1160 C 0.13797 0.0217 0.70456 0.0
C1161 C 0.13912 0.05098 0.69925 0.0
H1162 H 0.15436 0.98522 0.69689 0.0
H1163 H 0.18557 0.27191 0.65229 0.0
H1164 H 0.89065 0.1454 0.75463 0.0
H1165 H 0.90722 0.13009 0.71627 0.0
H1166 H 0.8284 0.126 0.67813 0.0
H1167 H 0.81178 0.14169 0.71638 0.0
H1168 H 0.8577 0.0766 0.67464 0.0
H1169 H 0.86624 0.17873 0.65904 0.0
H1170 H 0.87949 0.22925 0.66919 0.0
H1171 H 0.96246 0.22062 0.68114 0.0
H1172 H 0.94965 0.16995 0.67122 0.0
H1173 H 0.92341 0.06329 0.55844 0.0
H1174 H 0.89239 0.07535 0.58803 0.0
H1175 H 0.96069 0.11037 0.63751 0.0
H1176 H 0.99142 0.09907 0.60841 0.0
H1177 H 0.92767 0.1465 0.62855 0.0
H1178 H 0.92089 0.04541 0.6507 0.0
H1179 H 0.91033 0.9942 0.64345 0.0
H1180 H 0.82749 0.99887 0.62322 0.0
H1181 H 0.83777 0.05051 0.62993 0.0
C1182 C 0.87677 0.14058 0.73825 0.0
C1183 C 0.84999 0.14439 0.73832 0.0
C1184 C 0.88625 0.13216 0.7164 0.0
C1185 C 0.86894 0.12722 0.69458 0.0
C1186 C 0.84188 0.1298 0.69492 0.0
C1187 C 0.83249 0.13864 0.71666 0.0
C1188 C 0.87965 0.12013 0.67125 0.0
C1189 C 0.87257 0.09193 0.66408 0.0
C1190 C 0.89924 0.14023 0.65803 0.0
C1191 C 0.90693 0.1705 0.66459 0.0
C1192 C 0.88725 0.18752 0.66412 0.0
C1193 C 0.8947 0.21621 0.66975 0.0
C1194 C 0.92179 0.22813 0.67586 0.0
C1195 C 0.94148 0.21136 0.6764 0.0
C1196 C 0.93415 0.18268 0.67073 0.0
C1197 C 0.9317 0.07356 0.57565 0.0
C1198 C 0.95985 0.08064 0.58088 0.0
C1199 C 0.91401 0.08032 0.5925 0.0
C1200 C 0.92438 0.09392 0.61475 0.0
C1201 C 0.95236 0.10023 0.62023 0.0
C1202 C 0.9699 0.09373 0.60349 0.0
C1203 C 0.90666 0.10254 0.63248 0.0
C1204 C 0.91231 0.13121 0.63858 0.0
C1205 C 0.88621 0.08269 0.64502 0.0
C1206 C 0.88021 0.05189 0.64034 0.0
C1207 C 0.90052 0.03563 0.64434 0.0
C1208 C 0.89454 1.00647 0.64039 0.0
C1209 C 0.86826 0.99323 0.6327 0.0
C1210 C 0.84787 0.00917 0.62903 0.0
C1211 C 0.85377 0.0384 0.63286 0.0
H1212 H 0.86359 0.97062 0.62969 0.0
H1213 H 0.92757 0.25038 0.68004 0.0
H1214 H 0.85261 0.8687 0.76453 0.0
H1215 H 0.88408 0.89815 0.73495 0.0
H1216 H 0.86821 0.8306 0.68305 0.0
H1217 H 0.83647 0.80165 0.71189 0.0
H1218 H 0.9227 0.85617 0.68738 0.0
H1219 H 0.83483 0.88292 0.67452 0.0
H1220 H 0.79552 0.90151 0.68627 0.0
H1221 H 0.84775 0.9808 0.70444 0.0
H1222 H 0.88745 0.96251 0.69316 0.0
H1223 H 0.95013 0.91924 0.56336 0.0
H1224 H 0.92947 0.894 0.60152 0.0
H1225 H 0.94911 0.97196 0.64074 0.0
H1226 H 0.96912 0.99763 0.60249 0.0
H1227 H 0.89703 0.9443 0.64681 0.0
H1228 H 0.9845 0.92063 0.65556 0.0
H1229 H 0.02352 0.90362 0.641 0.0
H1230 H 0.97333 0.82117 0.62988 0.0
H1231 H 0.93389 0.83782 0.64405 0.0
C1232 C 0.85582 0.86012 0.74692 0.0
C1233 C 0.84135 0.83309 0.74044 0.0
C1234 C 0.87392 0.87693 0.73004 0.0
C1235 C 0.87823 0.86664 0.70667 0.0
C1236 C 0.86514 0.839 0.70094 0.0
C1237 C 0.84683 0.8225 0.71751 0.0
C1238 C 0.89494 0.88493 0.68726 0.0
C1239 C 0.91718 0.87556 0.67857 0.0
C1240 C 0.888 0.91046 0.67606 0.0
C1241 C 0.86418 0.92112 0.6835 0.0
C1242 C 0.83799 0.90414 0.68142 0.0
C1243 C 0.81562 0.91466 0.68792 0.0
C1244 C 0.81915 0.94222 0.69631 0.0
C1245 C 0.84506 0.95938 0.69812 0.0
C1246 C 0.8675 0.94893 0.69171 0.0
C1247 C 0.95 0.93108 0.58005 0.0
C1248 C 0.96119 0.96052 0.57977 0.0
C1249 C 0.93834 0.91656 0.60192 0.0
C1250 C 0.93787 0.93109 0.62401 0.0
C1251 C 0.94907 0.96041 0.62384 0.0
C1252 C 0.96059 0.975 0.60195 0.0
C1253 C 0.92484 0.91584 0.647 0.0
C1254 C 0.90313 0.92557 0.65618 0.0
C1255 C 0.93241 0.89087 0.65873 0.0
C1256 C 0.95619 0.88054 0.65072 0.0
C1257 C 0.98174 0.89891 0.64988 0.0
C1258 C 1.00394 0.88934 0.6417 0.0
C1259 C 1.00089 0.86136 0.63445 0.0
C1260 C 0.97565 0.84285 0.63548 0.0
C1261 C 0.95337 0.85233 0.64363 0.0
H1262 H 1.0181 0.854 0.62808 0.0
H1263 H 0.8018 0.95035 0.70127 0.0
H1264 H 0.28759 0.13927 0.17575 0.0
H1265 H 0.32335 0.13328 0.1486 0.0
H1266 H 0.37907 0.13461 0.21445 0.0
H1267 H 0.34322 0.14055 0.24178 0.0
H1268 H 0.39987 0.16971 0.17065 0.0
H1269 H 0.35274 0.07583 0.19496 0.0
H1270 H 0.31415 0.03561 0.2005 0.0
H1271 H 0.29878 0.03571 0.11933 0.0
H1272 H 0.33692 0.07646 0.11325 0.0
H1273 H 0.46416 0.0739 0.08826 0.0
H1274 H 0.43998 0.08195 0.12455 0.0
H1275 H 0.42423 0.16051 0.08656 0.0
H1276 H 0.44878 0.15278 0.04995 0.0
H1277 H 0.38764 0.08289 0.12193 0.0
H1278 H 0.41716 0.20545 0.13214 0.0
H1279 H 0.45703 0.24438 0.12669 0.0
H1280 H 0.50965 0.18419 0.14054 0.0
H1281 H 0.47013 0.14496 0.14661 0.0
C1282 C 0.30745 0.13814 0.18436 0.0
C1283 C 0.31278 0.13996 0.21074 0.0
C1284 C 0.32776 0.13482 0.16893 0.0
C1285 C 0.35359 0.13343 0.17971 0.0
C1286 C 0.35912 0.13565 0.20598 0.0
C1287 C 0.33869 0.13867 0.22151 0.0
C1288 C 0.37455 0.12882 0.16344 0.0
C1289 C 0.39737 0.15072 0.16002 0.0
C1290 C 0.37111 0.10377 0.15004 0.0
C1291 C 0.34765 0.07956 0.15366 0.0
C1292 C 0.34085 0.06773 0.17828 0.0
C1293 C 0.31912 0.04467 0.18152 0.0
C1294 C 0.30398 0.03315 0.16029 0.0
C1295 C 0.31053 0.04467 0.13577 0.0
C1296 C 0.33225 0.06774 0.13242 0.0
C1297 C 0.45593 0.09316 0.08771 0.0
C1298 C 0.45802 0.1126 0.06614 0.0
C1299 C 0.44217 0.09768 0.10849 0.0
C1300 C 0.43037 0.12172 0.10812 0.0
C1301 C 0.43352 0.14195 0.0872 0.0
C1302 C 0.44745 0.13751 0.06633 0.0
C1303 C 0.41265 0.12414 0.12853 0.0
C1304 C 0.39032 0.1018 0.13268 0.0
C1305 C 0.41663 0.14866 0.14267 0.0
C1306 C 0.44062 0.17222 0.13965 0.0
C1307 C 0.43724 0.20053 0.1342 0.0
C1308 C 0.45979 0.22266 0.13096 0.0
C1309 C 0.48587 0.21677 0.13317 0.0
C1310 C 0.48944 0.18873 0.13875 0.0
C1311 C 0.46696 0.16654 0.14208 0.0
H1312 H 0.50329 0.23394 0.13061 0.0
H1313 H 0.28721 0.01524 0.16284 0.0
H1314 H 0.74545 0.33385 0.20063 0.0
H1315 H 0.76575 0.37168 0.16955 0.0
H1316 H 0.83637 0.39181 0.22088 0.0
H1317 H 0.81388 0.35745 0.25313 0.0
H1318 H 0.8298 0.43677 0.20061 0.0
H1319 H 0.81649 0.34336 0.16312 0.0
H1320 H 0.79038 0.30083 0.14266 0.0
H1321 H 0.7642 0.35449 0.0813 0.0
H1322 H 0.78786 0.39733 0.10252 0.0
H1323 H 0.94384 0.47732 0.129 0.0
H1324 H 0.90603 0.45355 0.15421 0.0
H1325 H 0.84983 0.4706 0.09248 0.0
H1326 H 0.888 0.49464 0.06682 0.0
H1327 H 0.83945 0.41442 0.11174 0.0
H1328 H 0.85197 0.50537 0.1442 0.0
H1329 H 0.87751 0.55026 0.16094 0.0
H1330 H 0.90509 0.50337 0.22678 0.0
H1331 H 0.8801 0.45812 0.21023 0.0
C1332 C 0.76544 0.34634 0.205 0.0
C1333 C 0.77929 0.34125 0.22839 0.0
C1334 C 0.77711 0.36787 0.18719 0.0
C1335 C 0.80337 0.38386 0.19204 0.0
C1336 C 0.8164 0.37955 0.21611 0.0
C1337 C 0.80401 0.35923 0.23436 0.0
C1338 C 0.81772 0.40521 0.17268 0.0
C1339 C 0.83196 0.43153 0.18127 0.0
C1340 C 0.81922 0.3997 0.14662 0.0
C1341 C 0.80388 0.37363 0.13469 0.0
C1342 C 0.80492 0.34608 0.14549 0.0
C1343 C 0.79048 0.32193 0.13379 0.0
C1344 C 0.77605 0.32495 0.11058 0.0
C1345 C 0.77543 0.35217 0.0993 0.0
C1346 C 0.78897 0.3764 0.11139 0.0
C1347 C 0.92346 0.47629 0.12079 0.0
C1348 C 0.9189 0.48781 0.09589 0.0
C1349 C 0.90184 0.46282 0.13531 0.0
C1350 C 0.87512 0.46053 0.12531 0.0
C1351 C 0.87034 0.47232 0.10057 0.0
C1352 C 0.8921 0.48615 0.08602 0.0
C1353 C 0.85265 0.44428 0.14055 0.0
C1354 C 0.8368 0.4194 0.13107 0.0
C1355 C 0.84934 0.45108 0.16561 0.0
C1356 C 0.86418 0.47829 0.1759 0.0
C1357 C 0.86359 0.50459 0.16218 0.0
C1358 C 0.87797 0.53012 0.17164 0.0
C1359 C 0.89291 0.52967 0.1949 0.0
C1360 C 0.89348 0.50369 0.20877 0.0
C1361 C 0.87917 0.47808 0.19937 0.0
H1362 H 0.90403 0.54945 0.2022 0.0
H1363 H 0.76512 0.3062 0.10144 0.0
H1364 H 0.71461 0.88041 0.14674 0.0
H1365 H 0.68197 0.90766 0.12749 0.0
H1366 H 0.7468 0.97937 0.11033 0.0
H1367 H 0.7797 0.95256 0.13111 0.0
H1368 H 0.70625 0.99618 0.13087 0.0
H1369 H 0.71417 0.93885 0.06303 0.0
H1370 H 0.71616 0.89493 0.04231 0.0
H1371 H 0.63464 0.85852 0.06222 0.0
H1372 H 0.63229 0.90202 0.08346 0.0
H1373 H 0.60563 0.05634 0.05181 0.0
H1374 H 0.64631 0.03975 0.06861 0.0
H1375 H 0.59688 0.96358 0.10268 0.0
H1376 H 0.55611 0.97962 0.08593 0.0
H1377 H 0.63445 0.95457 0.06785 0.0
H1378 H 0.6292 0.01109 0.1394 0.0
H1379 H 0.62679 0.05632 0.1577 0.0
H1380 H 0.70368 0.09566 0.12792 0.0
H1381 H 0.70631 0.05078 0.10899 0.0
C1382 C 0.72194 0.90194 0.13877 0.0
C1383 C 0.74962 0.91446 0.14035 0.0
C1384 C 0.70332 0.91738 0.1276 0.0
C1385 C 0.71212 0.9453 0.11717 0.0
C1386 C 0.73978 0.95773 0.11817 0.0
C1387 C 0.75849 0.94234 0.12971 0.0
C1388 C 0.69198 0.9616 0.10622 0.0
C1389 C 0.69086 0.98743 0.11668 0.0
C1390 C 0.6719 0.94994 0.08787 0.0
C1391 C 0.67312 0.92372 0.07495 0.0
C1392 C 0.69672 0.92142 0.06315 0.0
C1393 C 0.69791 0.89659 0.05129 0.0
C1394 C 0.67555 0.87394 0.05097 0.0
C1395 C 0.65194 0.87609 0.06248 0.0
C1396 C 0.65066 0.90085 0.0744 0.0
C1397 C 0.60337 0.03632 0.0633 0.0
C1398 C 0.57769 0.01902 0.0672 0.0
C1399 C 0.6266 0.02698 0.07288 0.0
C1400 C 0.62428 1.00045 0.08654 0.0
C1401 C 0.59877 0.98408 0.09197 0.0
C1402 C 0.57557 0.99337 0.08248 0.0
C1403 C 0.64827 0.98831 0.09325 0.0
C1404 C 0.65013 0.96343 0.08177 0.0
C1405 C 0.66902 1.00098 0.11042 0.0
C1406 C 0.66785 0.02764 0.12257 0.0
C1407 C 0.64553 0.02943 0.13661 0.0
C1408 C 0.64411 0.05501 0.1471 0.0
C1409 C 0.66503 0.07888 0.14392 0.0
C1410 C 0.68747 0.07717 0.13034 0.0
C1411 C 0.68894 0.05166 0.11974 0.0
H1412 H 0.66388 0.09868 0.15202 0.0
H1413 H 0.67652 0.85474 0.04177 0.0
H1414 H 0.232 0.77488 0.1904 0.0
H1415 H 0.19719 0.74503 0.1641 0.0
H1416 H 0.19505 0.67455 0.22066 0.0
H1417 H 0.22966 0.70402 0.24697 0.0
H1418 H 0.19301 0.68744 0.14488 0.0
H1419 H 0.1278 0.65309 0.23123 0.0
H1420 H 0.12097 0.67085 0.27267 0.0
H1421 H 0.14363 0.75744 0.24144 0.0
H1422 H 0.1507 0.74018 0.20009 0.0
H1423 H 0.08372 0.57879 0.11061 0.0
H1424 H 0.11791 0.60333 0.14064 0.0
H1425 H 0.08188 0.67801 0.13057 0.0
H1426 H 0.04771 0.6538 0.10024 0.0
H1427 H 0.10287 0.66337 0.18283 0.0
H1428 H 0.12675 0.67996 0.09405 0.0
H1429 H 0.13246 0.66316 0.05197 0.0
H1430 H 0.19109 0.6159 0.08554 0.0
H1431 H 0.18532 0.63202 0.12792 0.0
C1432 C 0.2243 0.75291 0.19702 0.0
C1433 C 0.23314 0.74182 0.2208 0.0
C1434 C 0.20468 0.73591 0.18195 0.0
C1435 C 0.19363 0.70785 0.19071 0.0
C1436 C 0.20344 0.69627 0.21378 0.0
C1437 C 0.2232 0.71311 0.22871 0.0
C1438 C 0.17006 0.69149 0.17703 0.0
C1439 C 0.17332 0.68209 0.15313 0.0
C1440 C 0.14448 0.68485 0.1879 0.0
C1441 C 0.14001 0.69535 0.2127 0.0
C1442 C 0.13131 0.67591 0.23329 0.0
C1443 C 0.12748 0.68588 0.2568 0.0
C1444 C 0.13205 0.71525 0.25981 0.0
C1445 C 0.14038 0.7347 0.23929 0.0
C1446 C 0.14438 0.72483 0.21583 0.0
C1447 C 0.0826 0.60013 0.11533 0.0
C1448 C 0.06342 0.61466 0.10286 0.0
C1449 C 0.10211 0.61406 0.13242 0.0
C1450 C 0.10235 0.64241 0.13738 0.0
C1451 C 0.08183 0.65607 0.12678 0.0
C1452 C 0.06252 0.64232 0.10941 0.0
C1453 C 0.12588 0.65904 0.15083 0.0
C1454 C 0.12261 0.66851 0.17467 0.0
C1455 C 0.15137 0.666 0.13974 0.0
C1456 C 0.15541 0.65696 0.11417 0.0
C1457 C 0.14071 0.66582 0.09248 0.0
C1458 C 0.14397 0.65645 0.06858 0.0
C1459 C 0.16208 0.63842 0.06609 0.0
C1460 C 0.17704 0.62984 0.0875 0.0
C1461 C 0.1738 0.63909 0.11146 0.0
H1462 H 0.16456 0.63117 0.04758 0.0
H1463 H 0.12898 0.7229 0.278 0.0
H1464 H 0.37682 0.81895 0.81079 0.0
H1465 H 0.40812 0.85404 0.8357 0.0
H1466 H 0.3503 0.84303 0.89432 0.0
H1467 H 0.3191 0.8082 0.86955 0.0
H1468 H 0.39559 0.90536 0.84849 0.0
H1469 H 0.38381 0.85227 0.95078 0.0
H1470 H 0.378 0.80382 0.97211 0.0
H1471 H 0.41908 0.77643 0.91255 0.0
H1472 H 0.42511 0.8246 0.8909 0.0
H1473 H 0.4213 1.00522 0.94745 0.0
H1474 H 0.40355 0.96958 0.91607 0.0
H1475 H 0.47244 0.92968 0.934 0.0
H1476 H 0.48963 0.96454 0.96554 0.0
H1477 H 0.42734 0.89174 0.93888 0.0
H1478 H 0.46283 0.96573 0.87583 0.0
H1479 H 0.4686 0.01355 0.85337 0.0
H1480 H 0.38346 0.99913 0.83273 0.0
H1481 H 0.3771 0.95143 0.85541 0.0
C1482 C 0.37137 0.82314 0.82949 0.0
C1483 C 0.34578 0.81068 0.8385 0.0
C1484 C 0.38902 0.84349 0.84348 0.0
C1485 C 0.38147 0.85109 0.86679 0.0
C1486 C 0.35663 0.83722 0.87651 0.0
C1487 C 0.33891 0.81722 0.86244 0.0
C1488 C 0.39842 0.87488 0.88033 0.0
C1489 C 0.40276 0.90246 0.86819 0.0
C1490 C 0.40785 0.87092 0.90591 0.0
C1491 C 0.40478 0.84202 0.91916 0.0
C1492 C 0.39169 0.83592 0.9423 0.0
C1493 C 0.38826 0.80846 0.95439 0.0
C1494 C 0.39801 0.78699 0.94362 0.0
C1495 C 0.4113 0.79296 0.92077 0.0
C1496 C 0.41469 0.82032 0.90856 0.0
C1497 C 0.4329 0.98929 0.94406 0.0
C1498 C 0.45664 0.98735 0.9589 0.0
C1499 C 0.4228 0.96893 0.92623 0.0
C1500 C 0.43661 0.94683 0.92284 0.0
C1501 C 0.46131 0.94632 0.93646 0.0
C1502 C 0.47116 0.96629 0.95438 0.0
C1503 C 0.42427 0.92256 0.9072 0.0
C1504 C 0.42054 0.8948 0.91906 0.0
C1505 C 0.41558 0.92642 0.8813 0.0
C1506 C 0.41945 0.95507 0.86753 0.0
C1507 C 0.4453 0.97284 0.86668 0.0
C1508 C 0.44869 0.99992 0.85388 0.0
C1509 C 0.42641 0.0094 0.84169 0.0
C1510 C 0.4007 0.99178 0.8422 0.0
C1511 C 0.3972 0.96471 0.85502 0.0
H1512 H 0.42906 0.03038 0.83179 0.0
H1513 H 0.39534 0.76577 0.95302 0.0
H1514 H 0.18756 0.39223 0.87366 0.0
H1515 H 0.16532 0.42608 0.89301 0.0
H1516 H 0.09701 0.35791 0.90895 0.0
H1517 H 0.11825 0.32501 0.88847 0.0
H1518 H 0.07741 0.40047 0.8985 0.0
H1519 H 0.15372 0.38663 0.95468 0.0
H1520 H 0.20181 0.38796 0.96751 0.0
H1521 H 0.21999 0.47873 0.95011 0.0
H1522 H 0.17205 0.47787 0.93689 0.0
H1523 H 0.02394 0.44487 0.00651 0.0
H1524 H 0.04733 0.42209 0.97737 0.0
H1525 H 0.09701 0.50376 0.95571 0.0
H1526 H 0.0734 0.52691 0.98503 0.0
H1527 H 0.12735 0.46072 0.96551 0.0
H1528 H 0.04739 0.4727 0.91475 0.0
H1529 H 0.99825 0.46882 0.90588 0.0
H1530 H 0.98603 0.37743 0.91722 0.0
H1531 H 0.03506 0.38077 0.92654 0.0
C1532 C 0.16751 0.38473 0.88072 0.0
C1533 C 0.15491 0.35571 0.87968 0.0
C1534 C 0.15491 0.40401 0.89226 0.0
C1535 C 0.12955 0.39468 0.90332 0.0
C1536 C 0.11652 0.36604 0.90092 0.0
C1537 C 0.12884 0.34704 0.88921 0.0
C1538 C 0.11641 0.41396 0.91779 0.0
C1539 C 0.08848 0.41339 0.91326 0.0
C1540 C 0.13052 0.43164 0.93686 0.0
C1541 C 0.15939 0.43211 0.94444 0.0
C1542 C 0.16803 0.40682 0.95336 0.0
C1543 C 0.19524 0.4075 0.96075 0.0
C1544 C 0.21396 0.43339 0.95952 0.0
C1545 C 0.20549 0.45867 0.95096 0.0
C1546 C 0.1783 0.4581 0.94352 0.0
C1547 C 0.03966 0.45816 0.99542 0.0
C1548 C 0.04656 0.48787 0.99813 0.0
C1549 C 0.05305 0.44503 0.97863 0.0
C1550 C 0.07394 0.46107 0.96403 0.0
C1551 C 0.08095 0.4908 0.96662 0.0
C1552 C 0.06725 0.50409 0.98327 0.0
C1553 C 0.08846 0.44648 0.94652 0.0
C1554 C 0.11652 0.44796 0.95052 0.0
C1555 C 0.07439 0.42911 0.92734 0.0
C1556 C 0.04491 0.42702 0.92151 0.0
C1557 C 0.03421 0.45178 0.91552 0.0
C1558 C 1.00637 0.44968 0.91039 0.0
C1559 C 0.98902 0.4229 0.91103 0.0
C1560 C 0.99949 0.39816 0.91674 0.0
C1561 C 0.02731 0.40015 0.92192 0.0
H1562 H 0.96747 0.42132 0.90706 0.0
H1563 H 0.23502 0.43388 0.96528 0.0
H1564 H 0.68642 0.23166 0.78874 0.0
H1565 H 0.66113 0.204 0.82355 0.0
H1566 H 0.72291 0.24213 0.87816 0.0
H1567 H 0.74875 0.26908 0.84313 0.0
H1568 H 0.70375 0.18696 0.89261 0.0
H1569 H 0.66696 0.26927 0.86655 0.0
H1570 H 0.64932 0.30323 0.83561 0.0
H1571 H 0.58312 0.23658 0.81343 0.0
H1572 H 0.60061 0.20211 0.84399 0.0
H1573 H 0.57192 0.17635 0.96869 0.0
H1574 H 0.60793 0.20175 0.94191 0.0
H1575 H 0.62779 0.12136 0.92643 0.0
H1576 H 0.59247 0.09592 0.95446 0.0
H1577 H 0.60899 0.20024 0.8946 0.0
H1578 H 0.6941 0.13307 0.90663 0.0
H1579 H 0.71347 0.10334 0.94029 0.0
H1580 H 0.68698 0.14888 0.99782 0.0
H1581 H 0.66768 0.17906 0.96453 0.0
C1582 C 0.69466 0.23378 0.80818 0.0
C1583 C 0.71953 0.252 0.81343 0.0
C1584 C 0.68029 0.21806 0.82799 0.0
C1585 C 0.69004 0.22131 0.85341 0.0
C1586 C 0.71514 0.23927 0.85866 0.0
C1587 C 0.72978 0.25466 0.83874 0.0
C1588 C 0.67286 0.20777 0.87439 0.0
C1589 C 0.68302 0.18978 0.8932 0.0
C1590 C 0.64617 0.21229 0.87544 0.0
C1591 C 0.6352 0.23307 0.85744 0.0
C1592 C 0.6487 0.26184 0.85499 0.0
C1593 C 0.63874 0.28117 0.83752 0.0
C1594 C 0.61514 0.27206 0.82253 0.0
C1595 C 0.60141 0.24361 0.82505 0.0
C1596 C 0.61132 0.22416 0.84246 0.0
C1597 C 0.58427 0.16418 0.95982 0.0
C1598 C 0.57943 0.13429 0.96331 0.0
C1599 C 0.6048 0.17866 0.94453 0.0
C1600 C 0.62051 0.16347 0.93201 0.0
C1601 C 0.6162 0.13355 0.93613 0.0
C1602 C 0.59599 0.11904 0.95201 0.0
C1603 C 0.63959 0.17895 0.91303 0.0
C1604 C 0.62973 0.19734 0.89435 0.0
C1605 C 0.66681 0.17555 0.91281 0.0
C1606 C 0.67899 0.158 0.93303 0.0
C1607 C 0.69244 0.13679 0.92645 0.0
C1608 C 0.70343 0.11985 0.94548 0.0
C1609 C 0.70134 0.12412 0.97118 0.0
C1610 C 0.68843 0.14547 0.97791 0.0
C1611 C 0.67741 0.16245 0.95895 0.0
H1612 H 0.70981 0.11094 0.98588 0.0
H1613 H 0.60747 0.28705 0.809 0.0
H1614 H 0.84728 0.76919 0.82392 0.0
H1615 H 0.87404 0.74606 0.85723 0.0
H1616 H 0.80365 0.68081 0.87283 0.0
H1617 H 0.77726 0.70387 0.84016 0.0
H1618 H 0.82831 0.68788 0.91647 0.0
H1619 H 0.86304 0.67347 0.8363 0.0
H1620 H 0.88407 0.68865 0.79516 0.0
H1621 H 0.95421 0.73632 0.83411 0.0
H1622 H 0.93343 0.72169 0.87547 0.0
H1623 H 0.8981 0.58715 0.99164 0.0
H1624 H 0.87088 0.61161 0.95997 0.0
H1625 H 0.94286 0.67183 0.93877 0.0
H1626 H 0.96973 0.64727 0.96907 0.0
H1627 H 0.91727 0.66791 0.89804 0.0
H1628 H 0.88397 0.6841 0.97769 0.0
H1629 H 0.86377 0.67083 0.01945 0.0
H1630 H 0.79238 0.62255 0.9828 0.0
H1631 H 0.81231 0.63532 0.94084 0.0
C1632 C 0.83732 0.7502 0.83468 0.0
C1633 C 0.80953 0.73897 0.829 0.0
C1634 C 0.8529 0.73647 0.85381 0.0
C1635 C 0.84159 0.71071 0.86813 0.0
C1636 C 0.81368 0.70027 0.86277 0.0
C1637 C 0.79833 0.71375 0.84372 0.0
C1638 C 0.85816 0.69418 0.88807 0.0
C1639 C 0.84765 0.68342 0.91206 0.0
C1640 C 0.88399 0.68811 0.88369 0.0
C1641 C 0.89657 0.69674 0.85892 0.0
C1642 C 0.88288 0.68733 0.83606 0.0
C1643 C 0.89476 0.69581 0.81271 0.0
C1644 C 0.92042 0.7135 0.81201 0.0
C1645 C 0.93431 0.72267 0.83468 0.0
C1646 C 0.9225 0.71427 0.85807 0.0
C1647 C 0.90828 0.60549 0.98023 0.0
C1648 C 0.93675 0.6146 0.98376 0.0
C1649 C 0.89242 0.62002 0.96194 0.0
C1650 C 0.90404 0.64469 0.94635 0.0
C1651 C 0.93245 0.65327 0.94979 0.0
C1652 C 0.94814 0.63884 0.96773 0.0
C1653 C 0.88752 0.66161 0.92661 0.0
C1654 C 0.898 0.67241 0.90259 0.0
C1655 C 0.86182 0.66801 0.93109 0.0
C1656 C 0.84973 0.66042 0.95619 0.0
C1657 C 0.86402 0.67053 0.97857 0.0
C1658 C 0.85262 0.66311 1.00226 0.0
C1659 C 0.82684 0.64579 1.00378 0.0
C1660 C 0.81237 0.63593 0.9816 0.0
C1661 C 0.82369 0.64327 0.95785 0.0
H1662 H 0.81804 0.64006 0.02214 0.0
H1663 H 0.92958 0.72006 0.79392 0.0
H1664 H 0.2575 0.36415 0.20928 0.0
H1665 H 0.22748 0.39192 0.18507 0.0
H1666 H 0.15868 0.33467 0.21621 0.0
H1667 H 0.18912 0.30813 0.24178 0.0
H1668 H 0.19594 0.40175 0.15061 0.0
H1669 H 0.0962 0.35247 0.19543 0.0
H1670 H 0.07831 0.33026 0.23636 0.0
H1671 H 0.14727 0.37789 0.27697 0.0
H1672 H 0.16544 0.40051 0.23627 0.0
H1673 H 0.11487 0.5058 0.09073 0.0
H1674 H 0.14499 0.47794 0.11523 0.0
H1675 H 0.07588 0.42065 0.14568 0.0
H1676 H 0.04611 0.44902 0.12206 0.0
H1677 H 0.10733 0.41049 0.18022 0.0
H1678 H 0.20739 0.45898 0.13448 0.0
H1679 H 0.22492 0.48022 0.09314 0.0
H1680 H 0.15475 0.43312 0.05378 0.0
H1681 H 0.13692 0.41147 0.09488 0.0
C1682 C 0.23594 0.35698 0.21134 0.0
C1683 C 0.22723 0.33215 0.22821 0.0
C1684 C 0.21801 0.37355 0.19685 0.0
C1685 C 0.18901 0.36761 0.19766 0.0
C1686 C 0.18015 0.34237 0.21437 0.0
C1687 C 0.19824 0.32588 0.22915 0.0
C1688 C 0.16941 0.3873 0.18145 0.0
C1689 C 0.1768 0.40346 0.15788 0.0
C1690 C 0.14308 0.39113 0.18841 0.0
C1691 C 0.13227 0.37791 0.21285 0.0
C1692 C 0.10748 0.35823 0.21311 0.0
C1693 C 0.09732 0.34556 0.23625 0.0
C1694 C 0.1117 0.35259 0.25924 0.0
C1695 C 0.1362 0.3724 0.25915 0.0
C1696 C 0.14644 0.38515 0.23606 0.0
C1697 C 0.10556 0.48737 0.10254 0.0
C1698 C 0.07652 0.48114 0.10323 0.0
C1699 C 0.12348 0.47036 0.11693 0.0
C1700 C 0.11444 0.44492 0.13332 0.0
C1701 C 0.08544 0.43913 0.13407 0.0
C1702 C 0.06765 0.4561 0.11989 0.0
C1703 C 0.13393 0.42505 0.14944 0.0
C1704 C 0.1265 0.40883 0.17297 0.0
C1705 C 0.16017 0.42108 0.1424 0.0
C1706 C 0.17073 0.43389 0.11773 0.0
C1707 C 0.19575 0.45314 0.11699 0.0
C1708 C 0.20572 0.46526 0.09361 0.0
C1709 C 0.19092 0.4581 0.07086 0.0
C1710 C 0.16615 0.43872 0.07142 0.0
C1711 C 0.1561 0.42654 0.09474 0.0
H1712 H 0.19866 0.46751 0.05278 0.0
H1713 H 0.10381 0.34272 0.27713 0.0
H1714 H 0.2061 0.73957 0.81329 0.0
H1715 H 0.17331 0.71565 0.84475 0.0
H1716 H 0.23884 0.71059 0.90027 0.0
H1717 H 0.27126 0.73534 0.86937 0.0
H1718 H 0.20447 0.66032 0.90358 0.0
H1719 H 0.18511 0.75709 0.91424 0.0
H1720 H 0.1722 0.80288 0.89928 0.0
H1721 H 0.10745 0.75846 0.85159 0.0
H1722 H 0.11929 0.71231 0.8672 0.0
H1723 H 0.12193 0.60814 0.01277 0.0
H1724 H 0.1549 0.63287 0.98187 0.0
H1725 H 0.0897 0.65494 0.93259 0.0
H1726 H 0.05738 0.63181 0.96374 0.0
H1727 H 0.12446 0.69676 0.9256 0.0
H1728 H 0.1354 0.60019 0.92343 0.0
H1729 H 0.14428 0.55345 0.94082 0.0
H1730 H 0.22343 0.59397 0.96894 0.0
H1731 H 0.21487 0.641 0.952 0.0
C1732 C 0.21359 0.73444 0.83244 0.0
C1733 C 0.24182 0.74092 0.83857 0.0
C1734 C 0.19458 0.72029 0.85069 0.0
C1735 C 0.20285 0.71112 0.87578 0.0
C1736 C 0.23109 0.71715 0.88157 0.0
C1737 C 0.2499 0.73169 0.86361 0.0
C1738 C 0.18277 0.69456 0.89558 0.0
C1739 C 0.18713 0.66862 0.90844 0.0
C1740 C 0.15928 0.70396 0.90225 0.0
C1741 C 0.15329 0.73148 0.89155 0.0
C1742 C 0.16826 0.75719 0.90043 0.0
C1743 C 0.16095 0.78313 0.89206 0.0
C1744 C 0.13917 0.78361 0.87434 0.0
C1745 C 0.12439 0.75808 0.86522 0.0
C1746 C 0.13122 0.73202 0.874 0.0
C1747 C 0.1145 0.61797 0.99526 0.0
C1748 C 0.08638 0.61741 0.99129 0.0
C1749 C 0.13363 0.63226 0.97715 0.0
C1750 C 0.12561 0.64613 0.95379 0.0
C1751 C 0.09745 0.64511 0.94995 0.0
C1752 C 0.07856 0.63141 0.96809 0.0
C1753 C 0.14581 0.66213 0.93367 0.0
C1754 C 0.14158 0.6881 0.92077 0.0
C1755 C 0.16908 0.65231 0.92662 0.0
C1756 C 0.17439 0.62413 0.93669 0.0
C1757 C 0.15464 0.59913 0.93345 0.0
C1758 C 0.15961 0.57259 0.94322 0.0
C1759 C 0.18438 0.57075 0.95603 0.0
C1760 C 0.20424 0.59544 0.95905 0.0
C1761 C 0.19935 0.62204 0.94936 0.0
H1762 H 0.1882 0.55018 0.96358 0.0
H1763 H 0.13372 0.80375 0.86771 0.0
H1764 H 0.27305 0.20582 0.81117 0.0
H1765 H 0.29315 0.17286 0.84096 0.0
H1766 H 0.35283 0.24407 0.86738 0.0
H1767 H 0.33404 0.27622 0.83649 0.0
H1768 H 0.37835 0.20792 0.85801 0.0
H1769 H 0.29913 0.18812 0.9189 0.0
H1770 H 0.25113 0.17147 0.92891 0.0
H1771 H 0.24357 0.10414 0.87791 0.0
H1772 H 0.29192 0.11962 0.86867 0.0
H1773 H 0.44176 0.15781 0.96752 0.0
H1774 H 0.41124 0.1792 0.93824 0.0
H1775 H 0.37105 0.09552 0.91634 0.0
H1776 H 0.40189 0.07362 0.94646 0.0
H1777 H 0.33478 0.13014 0.91837 0.0
H1778 H 0.4177 0.13886 0.87751 0.0
H1779 H 0.46712 0.15046 0.87305 0.0
H1780 H 0.46837 0.2385 0.88469 0.0
H1781 H 0.419 0.22738 0.88954 0.0
C1782 C 0.29001 0.21438 0.82387 0.0
C1783 C 0.30182 0.24368 0.82164 0.0
C1784 C 0.30151 0.19549 0.84113 0.0
C1785 C 0.32474 0.20561 0.85686 0.0
C1786 C 0.33525 0.23526 0.85549 0.0
C1787 C 0.32432 0.25381 0.8379 0.0
C1788 C 0.34022 0.18593 0.87269 0.0
C1789 C 0.36863 0.19123 0.87142 0.0
C1790 C 0.32808 0.16277 0.88933 0.0
C1791 C 0.29872 0.15545 0.89261 0.0
C1792 C 0.28707 0.17001 0.90961 0.0
C1793 C 0.25995 0.16054 0.9154 0.0
C1794 C 0.24422 0.13697 0.90382 0.0
C1795 C 0.2557 0.12253 0.88671 0.0
C1796 C 0.28299 0.13147 0.88136 0.0
C1797 C 0.42628 0.14378 0.95669 0.0
C1798 C 0.4245 0.11395 0.95918 0.0
C1799 C 0.40889 0.15614 0.93975 0.0
C1800 C 0.38929 0.13919 0.92432 0.0
C1801 C 0.38625 0.10917 0.92775 0.0
C1802 C 0.40375 0.09661 0.94506 0.0
C1803 C 0.37269 0.15341 0.90457 0.0
C1804 C 0.34433 0.14689 0.90491 0.0
C1805 C 0.3849 0.17542 0.88692 0.0
C1806 C 0.41464 0.18223 0.88402 0.0
C1807 C 0.42853 0.16066 0.87929 0.0
C1808 C 0.45654 0.16716 0.87666 0.0
C1809 C 0.47088 0.19519 0.87862 0.0
C1810 C 0.45724 0.2168 0.88318 0.0
C1811 C 0.42923 0.21042 0.88582 0.0
H1812 H 0.49256 0.20017 0.87657 0.0
H1813 H 0.22317 0.12983 0.90819 0.0
H1814 H 0.81754 0.37916 0.81288 0.0
H1815 H 0.84381 0.40993 0.84444 0.0
H1816 H 0.84803 0.33596 0.89539 0.0
H1817 H 0.82088 0.30521 0.86416 0.0
H1818 H 0.84148 0.37538 0.92343 0.0
H1819 H 0.90392 0.37722 0.8585 0.0
H1820 H 0.91992 0.38418 0.81474 0.0
H1821 H 0.91337 0.47241 0.81162 0.0
H1822 H 0.89689 0.46585 0.85523 0.0
H1823 H 0.94608 0.43948 0.00947 0.0
H1824 H 0.92015 0.41225 0.9759 0.0
H1825 H 0.9132 0.49038 0.93213 0.0
H1826 H 0.93977 0.51828 0.96614 0.0
H1827 H 0.92068 0.45061 0.89996 0.0
H1828 H 0.85915 0.44829 0.96593 0.0
H1829 H 0.84328 0.44045 0.00973 0.0
H1830 H 0.84869 0.35201 0.01093 0.0
H1831 H 0.86501 0.35943 0.96727 0.0
C1832 C 0.82399 0.36924 0.83074 0.0
C1833 C 0.81709 0.3392 0.83537 0.0
C1834 C 0.83942 0.38707 0.84895 0.0
C1835 C 0.84889 0.37576 0.87264 0.0
C1836 C 0.84151 0.34579 0.87749 0.0
C1837 C 0.82601 0.32796 0.8593 0.0
C1838 C 0.86591 0.39493 0.89237 0.0
C1839 C 0.85897 0.39151 0.91813 0.0
C1840 C 0.88868 0.41686 0.8861 0.0
C1841 C 0.89889 0.42096 0.86002 0.0
C1842 C 0.90572 0.39806 0.84842 0.0
C1843 C 0.91489 0.40194 0.82365 0.0
C1844 C 0.91759 0.4287 0.81038 0.0
C1845 C 0.91122 0.45168 0.8219 0.0
C1846 C 0.90197 0.44789 0.84665 0.0
C1847 C 0.93919 0.45127 0.99282 0.0
C1848 C 0.94525 0.48157 0.99113 0.0
C1849 C 0.92401 0.43536 0.9734 0.0
C1850 C 0.9138 0.44876 0.95119 0.0
C1851 C 0.92041 0.47905 0.94891 0.0
C1852 C 0.93572 0.49517 0.96855 0.0
C1853 C 0.89621 0.43094 0.93094 0.0
C1854 C 0.9031 0.43455 0.90515 0.0
C1855 C 0.87344 0.40904 0.93718 0.0
C1856 C 0.86355 0.40449 0.9634 0.0
C1857 C 0.85715 0.42722 0.9756 0.0
C1858 C 0.84805 0.42284 1.0004 0.0
C1859 C 0.84504 0.39577 0.01313 0.0
C1860 C 0.85107 0.37299 1.00106 0.0
C1861 C 0.86023 0.37726 0.97628 0.0
H1862 H 0.83798 0.39242 0.03232 0.0
H1863 H 0.92467 0.43166 0.7912 0.0
H1864 H 0.702 0.88198 0.91512 0.0
H1865 H 0.66643 0.90468 0.92824 0.0
H1866 H 0.65411 0.93771 0.85074 0.0
H1867 H 0.69016 0.91494 0.83749 0.0
H1868 H 0.65809 0.97931 0.88583 0.0
H1869 H 0.60526 0.88552 0.87515 0.0
H1870 H 0.59481 0.83284 0.87993 0.0
H1871 H 0.59918 0.8357 0.96145 0.0
H1872 H 0.60946 0.88844 0.95716 0.0
H1873 H 0.54666 0.03241 0.93497 0.0
H1874 H 0.57466 0.01112 0.90813 0.0
H1875 H 0.59472 0.9573 0.97313 0.0
H1876 H 0.5667 0.97741 0.99925 0.0
H1877 H 0.58142 0.92608 0.93546 0.0
H1878 H 0.63869 0.02019 0.94616 0.0
H1879 H 0.64999 0.0729 0.94111 0.0
H1880 H 0.63874 0.06966 0.85975 0.0
H1881 H 0.62694 0.017 0.86433 0.0
C1882 C 0.69152 0.89383 0.90081 0.0
C1883 C 0.69888 0.89674 0.8753 0.0
C1884 C 0.67111 0.90673 0.9083 0.0
C1885 C 0.65746 0.92286 0.89049 0.0
C1886 C 0.66435 0.92537 0.86482 0.0
C1887 C 0.68474 0.91217 0.85723 0.0
C1888 C 0.63676 0.9377 0.89924 0.0
C1889 C 0.64097 0.96768 0.89626 0.0
C1890 C 0.61463 0.92263 0.9131 0.0
C1891 C 0.60825 0.89092 0.91582 0.0
C1892 C 0.6041 0.87491 0.8941 0.0
C1893 C 0.59819 0.84504 0.89672 0.0
C1894 C 0.59651 0.83092 0.92098 0.0
C1895 C 0.60052 0.84666 0.94267 0.0
C1896 C 0.60625 0.87654 0.94015 0.0
C1897 C 0.55716 0.0161 0.9434 0.0
C1898 C 0.55404 1.00634 0.96915 0.0
C1899 C 0.57323 1.00398 0.92811 0.0
C1900 C 0.58682 0.98238 0.93852 0.0
C1901 C 0.58425 0.97351 0.9644 0.0
C1902 C 0.5681 0.98515 0.97939 0.0
C1903 C 0.60326 0.96795 0.92302 0.0
C1904 C 0.59824 0.93787 0.92471 0.0
C1905 C 0.6247 0.98303 0.90815 0.0
C1906 C 0.63158 0.01468 0.9056 0.0
C1907 C 0.63837 0.03074 0.92721 0.0
C1908 C 0.64492 0.0606 0.92443 0.0
C1909 C 0.64502 0.07458 0.90011 0.0
C1910 C 0.6386 0.05878 0.87856 0.0
C1911 C 0.63196 0.02895 0.88124 0.0
H1912 H 0.65013 0.09765 0.89789 0.0
H1913 H 0.59202 0.8078 0.92295 0.0
H1914 H 0.78513 0.711 0.21604 0.0
H1915 H 0.81021 0.68724 0.18834 0.0
H1916 H 0.88447 0.74203 0.21194 0.0
H1917 H 0.85954 0.76442 0.24084 0.0
H1918 H 0.88446 0.73276 0.15581 0.0
H1919 H 0.87046 0.67174 0.23266 0.0
H1920 H 0.84343 0.64133 0.26548 0.0
H1921 H 0.80177 0.58708 0.20814 0.0
H1922 H 0.82827 0.61744 0.17489 0.0
H1923 H 0.97352 0.66169 0.09061 0.0
H1924 H 0.94928 0.68538 0.11806 0.0
H1925 H 0.89246 0.6066 0.13241 0.0
H1926 H 0.91846 0.58227 0.1062 0.0
H1927 H 0.88174 0.62882 0.16874 0.0
H1928 H 0.88727 0.68855 0.09185 0.0
H1929 H 0.90845 0.71869 0.05555 0.0
H1930 H 0.9583 0.77462 0.10741 0.0
H1931 H 0.93755 0.74465 0.14403 0.0
C1932 C 0.80673 0.71895 0.21507 0.0
C1933 C 0.81902 0.74203 0.23051 0.0
C1934 C 0.82162 0.70463 0.19894 0.0
C1935 C 0.8504 0.71196 0.19652 0.0
C1936 C 0.8627 0.73499 0.21196 0.0
C1937 C 0.8479 0.74856 0.22875 0.0
C1938 C 0.86727 0.6956 0.17915 0.0
C1939 C 0.88384 0.71003 0.15924 0.0
C1940 C 0.86707 0.66531 0.18133 0.0
C1941 C 0.85115 0.64705 0.20124 0.0
C1942 C 0.85535 0.65349 0.227 0.0
C1943 C 0.84016 0.63623 0.2457 0.0
C1944 C 0.82083 0.61234 0.23889 0.0
C1945 C 0.81671 0.60562 0.21338 0.0
C1946 C 0.83182 0.62284 0.1946 0.0
C1947 C 0.95591 0.64886 0.09944 0.0
C1948 C 0.94912 0.61904 0.09498 0.0
C1949 C 0.94099 0.66313 0.11541 0.0
C1950 C 0.91677 0.64953 0.12797 0.0
C1951 C 0.91018 0.61944 0.12378 0.0
C1952 C 0.92559 0.60493 0.10821 0.0
C1953 C 0.89935 0.66593 0.14514 0.0
C1954 C 0.88258 0.65154 0.16513 0.0
C1955 C 0.89855 0.69617 0.14244 0.0
C1956 C 0.91111 0.71419 0.12064 0.0
C1957 C 0.90284 0.70721 0.09549 0.0
C1958 C 0.91476 0.72426 0.07487 0.0
C1959 C 0.93478 0.7485 0.07918 0.0
C1960 C 0.94284 0.7558 0.10411 0.0
C1961 C 0.93101 0.7388 0.12481 0.0
H1962 H 0.94399 0.76167 0.06319 0.0
H1963 H 0.8091 0.59899 0.25339 0.0
H1964 H 0.28233 0.82986 0.20456 0.0
H1965 H 0.2964 0.86551 0.16949 0.0
H1966 H 0.37104 0.89669 0.21231 0.0
H1967 H 0.3558 0.86292 0.24801 0.0
H1968 H 0.36027 0.93955 0.18728 0.0
H1969 H 0.36238 0.84536 0.16252 0.0
H1970 H 0.34323 0.79496 0.15453 0.0
H1971 H 0.28589 0.8214 0.09866 0.0
H1972 H 0.30453 0.87196 0.10656 0.0
H1973 H 0.43599 0.94802 0.06326 0.0
H1974 H 0.40656 0.92109 0.09499 0.0
H1975 H 0.37238 0.99518 0.10375 0.0
H1976 H 0.40306 0.0229 0.07202 0.0
H1977 H 0.35707 0.9027 0.10144 0.0
H1978 H 0.35508 0.99325 0.16799 0.0
H1979 H 0.38265 0.04027 0.17814 0.0
H1980 H 0.45339 0.01647 0.15275 0.0
H1981 H 0.42674 0.96887 0.14353 0.0
C1982 C 0.30128 0.84498 0.20678 0.0
C1983 C 0.31758 0.84398 0.2294 0.0
C1984 C 0.30966 0.86512 0.18647 0.0
C1985 C 0.3352 0.8838 0.18772 0.0
C1986 C 0.35124 0.88289 0.21054 0.0
C1987 C 0.34258 0.86331 0.23099 0.0
C1988 C 0.34622 0.90292 0.16503 0.0
C1989 C 0.35929 0.93145 0.16849 0.0
C1990 C 0.34563 0.89269 0.14034 0.0
C1991 C 0.33462 0.86237 0.13533 0.0
C1992 C 0.3456 0.84039 0.14862 0.0
C1993 C 0.33485 0.81181 0.14411 0.0
C1994 C 0.3133 0.80498 0.12615 0.0
C1995 C 0.30254 0.82672 0.1126 0.0
C1996 C 0.31319 0.85534 0.11708 0.0
C1997 C 0.42198 0.95864 0.07162 0.0
C1998 C 0.42205 0.98775 0.06507 0.0
C1999 C 0.40495 0.94305 0.08982 0.0
C2000 C 0.38722 0.9559 0.10225 0.0
C2001 C 0.38607 0.98468 0.0948 0.0
C2002 C 0.40337 1.00049 0.0764 0.0
C2003 C 0.37151 0.93912 0.12378 0.0
C2004 C 0.35755 0.911 0.12011 0.0
C2005 C 0.37244 0.94933 0.1485 0.0
C2006 C 0.38876 0.97767 0.1546 0.0
C2007 C 0.37653 0.99801 0.16464 0.0
C2008 C 0.39197 0.02476 0.17022 0.0
C2009 C 0.41956 0.0315 0.16572 0.0
C2010 C 0.43195 0.01131 0.15604 0.0
C2011 C 0.41673 0.9844 0.15073 0.0
H2012 H 0.43137 0.05231 0.16993 0.0
H2013 H 0.30498 0.78284 0.1227 0.0
H2014 H 0.67635 0.2553 0.23284 0.0
H2015 H 0.64471 0.23065 0.20085 0.0
H2016 H 0.71171 0.22261 0.157 0.0
H2017 H 0.74321 0.24883 0.18809 0.0
H2018 H 0.67455 0.23117 0.12514 0.0
H2019 H 0.67417 0.16403 0.19684 0.0
H2020 H 0.67036 0.14599 0.2419 0.0
H2021 H 0.58859 0.15911 0.23989 0.0
H2022 H 0.59194 0.17728 0.19479 0.0
H2023 H 0.56913 0.09421 0.08443 0.0
H2024 H 0.60189 0.11853 0.11608 0.0
H2025 H 0.58832 0.20011 0.08342 0.0
H2026 H 0.55611 0.17611 0.05161 0.0
H2027 H 0.60117 0.15136 0.15333 0.0
H2028 H 0.64563 0.2513 0.08743 0.0
H2029 H 0.65418 0.26341 0.04189 0.0
H2030 H 0.656 0.17578 0.03144 0.0
H2031 H 0.64791 0.16321 0.07698 0.0
C2032 C 0.68443 0.24862 0.21627 0.0
C2033 C 0.71263 0.25363 0.21357 0.0
C2034 C 0.66621 0.23409 0.19801 0.0
C2035 C 0.67556 0.22374 0.17661 0.0
C2036 C 0.70366 0.22988 0.17332 0.0
C2037 C 0.72184 0.24472 0.1914 0.0
C2038 C 0.65619 0.20662 0.15775 0.0
C2039 C 0.6585 0.21381 0.13143 0.0
C2040 C 0.63555 0.18318 0.16548 0.0
C2041 C 0.63339 0.17224 0.19254 0.0
C2042 C 0.65542 0.16318 0.20606 0.0
C2043 C 0.65331 0.15285 0.23157 0.0
C2044 C 0.62927 0.15147 0.24377 0.0
C2045 C 0.60721 0.16023 0.23042 0.0
C2046 C 0.60917 0.17045 0.20486 0.0
C2047 C 0.57295 0.11733 0.08407 0.0
C2048 C 0.55985 0.13308 0.06525 0.0
C2049 C 0.59178 0.13128 0.10225 0.0
C2050 C 0.59813 0.16136 0.10211 0.0
C2051 C 0.58443 0.177 0.0838 0.0
C2052 C 0.56576 0.16313 0.06561 0.0
C2053 C 0.61909 0.17649 0.12083 0.0
C2054 C 0.61715 0.16885 0.14708 0.0
C2055 C 0.64067 0.19884 0.11297 0.0
C2056 C 0.64583 0.20627 0.08558 0.0
C2057 C 0.64794 0.23463 0.07544 0.0
C2058 C 0.65271 0.24157 0.04962 0.0
C2059 C 0.65551 0.22036 0.03376 0.0
C2060 C 0.6537 0.19217 0.04372 0.0
C2061 C 0.649 0.18512 0.06953 0.0
H2062 H 0.65916 0.22577 0.01377 0.0
H2063 H 0.62773 0.14362 0.26357 0.0
H2064 H 0.68297 0.72087 0.77827 0.0
H2065 H 0.64504 0.69239 0.80155 0.0
H2066 H 0.68158 0.72671 0.87184 0.0
H2067 H 0.71938 0.75476 0.84907 0.0
H2068 H 0.64586 0.65085 0.84182 0.0
H2069 H 0.63418 0.73891 0.90809 0.0
H2070 H 0.64021 0.79146 0.90569 0.0
H2071 H 0.62418 0.79234 0.82456 0.0
H2072 H 0.61751 0.73978 0.82649 0.0
H2073 H 0.59508 0.63414 0.97437 0.0
H2074 H 0.61362 0.6653 0.93842 0.0
H2075 H 0.56097 0.61136 0.8863 0.0
H2076 H 0.54253 0.57952 0.92224 0.0
H2077 H 0.59509 0.69662 0.89876 0.0
H2078 H 0.59857 0.60539 0.83591 0.0
H2079 H 0.59657 0.55326 0.83994 0.0
H2080 H 0.63303 0.55987 0.9158 0.0
H2081 H 0.63544 0.612 0.91212 0.0
C2082 C 0.68298 0.72221 0.7987 0.0
C2083 C 0.70435 0.73989 0.81183 0.0
C2084 C 0.66126 0.70603 0.81191 0.0
C2085 C 0.66042 0.70776 0.83831 0.0
C2086 C 0.68165 0.72545 0.85138 0.0
C2087 C 0.70332 0.74143 0.83829 0.0
C2088 C 0.63788 0.69068 0.85279 0.0
C2089 C 0.63414 0.66079 0.85373 0.0
C2090 C 0.62298 0.70379 0.86856 0.0
C2091 C 0.62551 0.73535 0.86743 0.0
C2092 C 0.63164 0.75026 0.88976 0.0
C2093 C 0.63525 0.78007 0.88848 0.0
C2094 C 0.63274 0.79523 0.86497 0.0
C2095 C 0.62624 0.78058 0.84274 0.0
C2096 C 0.62254 0.75078 0.84392 0.0
C2097 C 0.58709 0.62902 0.95532 0.0
C2098 C 0.56764 0.60403 0.95119 0.0
C2099 C 0.59761 0.64701 0.93478 0.0
C2100 C 0.58891 0.64039 0.90973 0.0
C2101 C 0.56814 0.6166 0.90553 0.0
C2102 C 0.55759 0.5985 0.92612 0.0
C2103 C 0.60371 0.6569 0.88834 0.0
C2104 C 0.60607 0.68667 0.88618 0.0
C2105 C 0.61755 0.64371 0.87163 0.0
C2106 C 0.61687 0.6125 0.87382 0.0
C2107 C 0.60622 0.5957 0.8534 0.0
C2108 C 0.605 0.56616 0.85564 0.0
C2109 C 0.61456 0.55324 0.87815 0.0
C2110 C 0.62551 0.56986 0.89843 0.0
C2111 C 0.62679 0.5994 0.89628 0.0
H2112 H 0.61357 0.53039 0.87983 0.0
H2113 H 0.63585 0.81832 0.86398 0.0
H2114 H 0.37167 0.72451 0.86383 0.0
H2115 H 0.40703 0.72443 0.89663 0.0
H2116 H 0.34765 0.69708 0.95313 0.0
H2117 H 0.31146 0.69918 0.92064 0.0
H2118 H 0.41388 0.71946 0.96847 0.0
H2119 H 0.34384 0.63045 0.92714 0.0
H2120 H 0.31847 0.61268 0.88792 0.0
H2121 H 0.38452 0.65575 0.84299 0.0
H2122 H 0.41058 0.67287 0.88209 0.0
H2123 H 0.41698 0.55859 1.00082 0.0
H2124 H 0.39709 0.60036 0.9887 0.0
H2125 H 0.47622 0.65077 0.97348 0.0
H2126 H 0.49645 0.6094 0.98586 0.0
H2127 H 0.40549 0.62217 0.93817 0.0
H2128 H 0.46484 0.72728 0.97967 0.0
H2129 H 0.49412 0.74261 0.01739 0.0
H2130 H 0.45699 0.66681 0.06072 0.0
H2131 H 0.42763 0.65093 0.02347 0.0
C2132 C 0.36566 0.72041 0.88332 0.0
C2133 C 0.33847 0.70966 0.88928 0.0
C2134 C 0.38627 0.72067 0.90225 0.0
C2135 C 0.37978 0.70939 0.92686 0.0
C2136 C 0.35293 0.7052 0.93394 0.0
C2137 C 0.33222 0.70561 0.91514 0.0
C2138 C 0.39661 0.69048 0.93974 0.0
C2139 C 0.41253 0.69831 0.96185 0.0
C2140 C 0.3946 0.66295 0.93089 0.0
C2141 C 0.37878 0.65346 0.90734 0.0
C2142 C 0.35285 0.63614 0.90885 0.0
C2143 C 0.33849 0.62599 0.88671 0.0
C2144 C 0.34979 0.63328 0.86296 0.0
C2145 C 0.3757 0.65029 0.86137 0.0
C2146 C 0.39034 0.66007 0.88351 0.0
C2147 C 0.43018 0.57865 0.99526 0.0
C2148 C 0.45809 0.58059 0.99362 0.0
C2149 C 0.41887 0.60247 0.98862 0.0
C2150 C 0.43534 0.62838 0.98028 0.0
C2151 C 0.46338 0.63093 0.98017 0.0
C2152 C 0.47476 0.60717 0.98696 0.0
C2153 C 0.42262 0.65072 0.96735 0.0
C2154 C 0.40734 0.6434 0.94493 0.0
C2155 C 0.4262 0.6787 0.97572 0.0
C2156 C 0.44385 0.68788 0.99857 0.0
C2157 C 0.46279 0.71388 0.99727 0.0
C2158 C 0.47954 0.72263 0.01859 0.0
C2159 C 0.47751 0.70563 0.04143 0.0
C2160 C 0.45875 0.67984 0.04298 0.0
C2161 C 0.44205 0.67094 0.02171 0.0
H2162 H 0.49044 0.71245 0.05795 0.0
H2163 H 0.33848 0.62569 0.84581 0.0
H2164 H 0.33039 0.37324 0.77088 0.0
H2165 H 0.36462 0.40735 0.7939 0.0
H2166 H 0.32677 0.37625 0.86451 0.0
H2167 H 0.29342 0.34155 0.84205 0.0
H2168 H 0.34258 0.43565 0.8596 0.0
H2169 H 0.37781 0.35039 0.84871 0.0
H2170 H 0.39118 0.31528 0.8228 0.0
H2171 H 0.44966 0.38184 0.78674 0.0
H2172 H 0.43619 0.41749 0.81208 0.0
H2173 H 0.42859 0.44041 0.9666 0.0
H2174 H 0.40271 0.42218 0.92884 0.0
H2175 H 0.45529 0.48344 0.88095 0.0
H2176 H 0.48184 0.50214 0.91892 0.0
H2177 H 0.43681 0.4191 0.866 0.0
H2178 H 0.40543 0.50339 0.88349 0.0
H2179 H 0.39178 0.53623 0.91165 0.0
H2180 H 0.32606 0.47003 0.93672 0.0
H2181 H 0.33966 0.4366 0.90908 0.0
C2182 C 0.32952 0.37346 0.79132 0.0
C2183 C 0.30977 0.35383 0.80469 0.0
C2184 C 0.34891 0.39318 0.80439 0.0
C2185 C 0.34839 0.39401 0.83093 0.0
C2186 C 0.32758 0.37586 0.84402 0.0
C2187 C 0.30854 0.35591 0.83109 0.0
C2188 C 0.37026 0.41228 0.8457 0.0
C2189 C 0.36325 0.43228 0.86079 0.0
C2190 C 0.39733 0.40817 0.84688 0.0
C2191 C 0.4057 0.38667 0.83198 0.0
C2192 C 0.39333 0.35759 0.83507 0.0
C2193 C 0.40095 0.33758 0.82052 0.0
C2194 C 0.42122 0.34633 0.80309 0.0
C2195 C 0.43393 0.37511 0.80022 0.0
C2196 C 0.42629 0.39523 0.81464 0.0
C2197 C 0.43511 0.4499 0.94812 0.0
C2198 C 0.45724 0.47302 0.94591 0.0
C2199 C 0.42021 0.43936 0.92654 0.0
C2200 C 0.4271 0.45155 0.90224 0.0
C2201 C 0.44986 0.47369 0.89963 0.0
C2202 C 0.46487 0.48441 0.92136 0.0
C2203 C 0.40891 0.44202 0.88013 0.0
C2204 C 0.41647 0.42339 0.86395 0.0
C2205 C 0.38227 0.44729 0.87796 0.0
C2206 C 0.37368 0.46744 0.8943 0.0
C2207 C 0.38819 0.49576 0.89515 0.0
C2208 C 0.38045 0.51449 0.91101 0.0
C2209 C 0.35809 0.50521 0.92599 0.0
C2210 C 0.34339 0.47719 0.9251 0.0
C2211 C 0.35109 0.45835 0.90932 0.0
H2212 H 0.35213 0.51975 0.93826 0.0
H2213 H 0.42708 0.33082 0.79182 0.0
H2214 H 0.68768 0.455 0.80069 0.0
H2215 H 0.66263 0.46642 0.8355 0.0
H2216 H 0.62068 0.37848 0.84382 0.0
H2217 H 0.6458 0.36684 0.809 0.0
H2218 H 0.58811 0.42508 0.84515 0.0
H2219 H 0.666 0.39081 0.88418 0.0
H2220 H 0.71448 0.38876 0.88957 0.0
H2221 H 0.73416 0.47815 0.9029 0.0
H2222 H 0.68582 0.4808 0.89729 0.0
H2223 H 0.54297 0.45558 0.96508 0.0
H2224 H 0.55906 0.43084 0.93189 0.0
H2225 H 0.62695 0.50129 0.92196 0.0
H2226 H 0.61173 0.52545 0.9553 0.0
H2227 H 0.64337 0.45374 0.92381 0.0
H2228 H 0.56827 0.49092 0.8813 0.0
H2229 H 0.52068 0.49599 0.87379 0.0
H2230 H 0.49634 0.40587 0.86481 0.0
H2231 H 0.54373 0.40016 0.87273 0.0
C2232 C 0.67262 0.43831 0.80952 0.0
C2233 C 0.66847 0.41014 0.80224 0.0
C2234 C 0.65855 0.44477 0.82943 0.0
C2235 C 0.64009 0.42317 0.84208 0.0
C2236 C 0.6349 0.39529 0.8341 0.0
C2237 C 0.6492 0.38874 0.81435 0.0
C2238 C 0.62744 0.42968 0.86457 0.0
C2239 C 0.59991 0.43089 0.86261 0.0
C2240 C 0.64322 0.43751 0.88695 0.0
C2241 C 0.67233 0.43604 0.89009 0.0
C2242 C 0.6807 0.41008 0.88801 0.0
C2243 C 0.70814 0.4088 0.89117 0.0
C2244 C 0.7274 0.43332 0.89651 0.0
C2245 C 0.71924 0.45918 0.89874 0.0
C2246 C 0.69182 0.46057 0.8956 0.0
C2247 C 0.56144 0.46559 0.9559 0.0
C2248 C 0.57624 0.49229 0.96289 0.0
C2249 C 0.57046 0.45157 0.93688 0.0
C2250 C 0.59405 0.4644 0.92442 0.0
C2251 C 0.60876 0.49099 0.93147 0.0
C2252 C 0.60005 0.50474 0.95059 0.0
C2253 C 0.6041 0.45041 0.90418 0.0
C2254 C 0.63125 0.44755 0.9066 0.0
C2255 C 0.58803 0.44163 0.88208 0.0
C2256 C 0.55949 0.44505 0.87793 0.0
C2257 C 0.55273 0.47213 0.87803 0.0
C2258 C 0.5258 0.47513 0.87365 0.0
C2259 C 0.50552 0.45125 0.86885 0.0
C2260 C 0.51208 0.42432 0.86857 0.0
C2261 C 0.53895 0.42119 0.87302 0.0
H2262 H 0.48475 0.45361 0.86516 0.0
H2263 H 0.74863 0.43227 0.89898 0.0
H2264 H 0.66251 0.37235 0.24326 0.0
H2265 H 0.63234 0.37177 0.205 0.0
H2266 H 0.69871 0.41933 0.16191 0.0
H2267 H 0.72919 0.41914 0.19993 0.0
H2268 H 0.61917 0.41735 0.18018 0.0
H2269 H 0.69188 0.40289 0.10167 0.0
H2270 H 0.72455 0.3727 0.09515 0.0
H2271 H 0.68738 0.30994 0.15166 0.0
H2272 H 0.65408 0.33954 0.15817 0.0
H2273 H 0.62665 0.49336 0.05672 0.0
H2274 H 0.64516 0.45883 0.08537 0.0
H2275 H 0.56468 0.40925 0.09584 0.0
H2276 H 0.54587 0.44337 0.06718 0.0
H2277 H 0.641 0.39708 0.09367 0.0
H2278 H 0.56107 0.40326 0.16201 0.0
H2279 H 0.52597 0.43107 0.16781 0.0
H2280 H 0.57568 0.50623 0.1334 0.0
H2281 H 0.61114 0.47891 0.12767 0.0
C2282 C 0.67072 0.38228 0.2255 0.0
C2283 C 0.69808 0.39601 0.22446 0.0
C2284 C 0.6535 0.38191 0.20375 0.0
C2285 C 0.66342 0.39517 0.18069 0.0
C2286 C 0.69083 0.40849 0.1795 0.0
C2287 C 0.70809 0.40882 0.20124 0.0
C2288 C 0.64472 0.39805 0.1585 0.0
C2289 C 0.6234 0.41208 0.16136 0.0
C2290 C 0.65027 0.39113 0.13404 0.0
C2291 C 0.67056 0.37351 0.13047 0.0
C2292 C 0.69061 0.38261 0.11265 0.0
C2293 C 0.70928 0.36559 0.10898 0.0
C2294 C 0.70809 0.33941 0.12303 0.0
C2295 C 0.68831 0.33025 0.14085 0.0
C2296 C 0.66956 0.34717 0.14456 0.0
C2297 C 0.61297 0.47466 0.06446 0.0
C2298 C 0.58483 0.47152 0.06035 0.0
C2299 C 0.62357 0.45485 0.0806 0.0
C2300 C 0.6061 0.43195 0.09281 0.0
C2301 C 0.5783 0.42698 0.08654 0.0
C2302 C 0.56768 0.44664 0.07029 0.0
C2303 C 0.6165 0.41724 0.11547 0.0
C2304 C 0.63622 0.40119 0.11266 0.0
C2305 C 0.60927 0.42197 0.14005 0.0
C2306 C 0.58849 0.43891 0.14402 0.0
C2307 C 0.56446 0.42571 0.15568 0.0
C2308 C 0.54453 0.44138 0.15897 0.0
C2309 C 0.54854 0.47035 0.15086 0.0
C2310 C 0.57255 0.48376 0.13957 0.0
C2311 C 0.59256 0.46818 0.13627 0.0
H2312 H 0.5331 0.48245 0.15344 0.0
H2313 H 0.72232 0.32607 0.12006 0.0
H2314 H 0.68191 0.76343 0.22499 0.0
H2315 H 0.64645 0.73144 0.20127 0.0
H2316 H 0.69129 0.66363 0.21562 0.0
H2317 H 0.72628 0.69519 0.23979 0.0
H2318 H 0.64837 0.70857 0.15952 0.0
H2319 H 0.65142 0.59886 0.21606 0.0
H2320 H 0.65671 0.58055 0.26079 0.0
H2321 H 0.62947 0.65248 0.28628 0.0
H2322 H 0.62357 0.671 0.24171 0.0
H2323 H 0.62139 0.59896 0.07974 0.0
H2324 H 0.63963 0.62995 0.11366 0.0
H2325 H 0.56632 0.60104 0.15399 0.0
H2326 H 0.54774 0.56916 0.11977 0.0
H2327 H 0.61121 0.60729 0.18651 0.0
H2328 H 0.57543 0.66511 0.12207 0.0
H2329 H 0.56622 0.68482 0.07849 0.0
H2330 H 0.65099 0.71967 0.0716 0.0
H2331 H 0.6608 0.69977 0.11499 0.0
C2332 C 0.68404 0.74161 0.22324 0.0
C2333 C 0.70689 0.73183 0.23418 0.0
C2334 C 0.66375 0.72333 0.20973 0.0
C2335 C 0.66596 0.69496 0.20689 0.0
C2336 C 0.68869 0.68515 0.21806 0.0
C2337 C 0.70881 0.7033 0.23175 0.0
C2338 C 0.64577 0.67623 0.19057 0.0
C2339 C 0.64004 0.68654 0.16557 0.0
C2340 C 0.63411 0.64768 0.19862 0.0
C2341 C 0.63723 0.63642 0.2255 0.0
C2342 C 0.64638 0.61069 0.23118 0.0
C2343 C 0.64952 0.60028 0.25653 0.0
C2344 C 0.64349 0.61537 0.27637 0.0
C2345 C 0.63421 0.64086 0.2709 0.0
C2346 C 0.631 0.65133 0.2456 0.0
C2347 C 0.60902 0.59902 0.09579 0.0
C2348 C 0.58289 0.58189 0.09684 0.0
C2349 C 0.61952 0.61686 0.11518 0.0
C2350 C 0.60407 0.61841 0.13601 0.0
C2351 C 0.57845 0.60038 0.1379 0.0
C2352 C 0.56789 0.58217 0.11841 0.0
C2353 C 0.61512 0.63937 0.15529 0.0
C2354 C 0.61913 0.62951 0.18075 0.0
C2355 C 0.62459 0.6686 0.14792 0.0
C2356 C 0.61885 0.68081 0.12179 0.0
C2357 C 0.59214 0.67682 0.11121 0.0
C2358 C 0.58681 0.68804 0.08654 0.0
C2359 C 0.60801 0.70346 0.07227 0.0
C2360 C 0.63459 0.70772 0.08267 0.0
C2361 C 0.64004 0.69651 0.10733 0.0
H2362 H 0.60384 0.71213 0.05317 0.0
H2363 H 0.64597 0.6073 0.29597 0.0
H2364 H 0.37972 0.64141 0.2356 0.0
H2365 H 0.39581 0.61987 0.20049 0.0
H2366 H 0.4056 0.70057 0.15597 0.0
H2367 H 0.38901 0.72213 0.19099 0.0
H2368 H 0.38533 0.65603 0.12701 0.0
H2369 H 0.45998 0.68209 0.18651 0.0
H2370 H 0.48337 0.68499 0.22911 0.0
H2371 H 0.47221 0.59348 0.23726 0.0
H2372 H 0.4484 0.59001 0.19483 0.0
H2373 H 0.49344 0.60027 0.06273 0.0
H2374 H 0.47499 0.63222 0.08793 0.0
H2375 H 0.41409 0.56123 0.11475 0.0
H2376 H 0.4319 0.52927 0.08952 0.0
H2377 H 0.46339 0.60853 0.1483 0.0
H2378 H 0.38392 0.58541 0.08707 0.0
H2379 H 0.36194 0.58652 0.04404 0.0
H2380 H 0.38296 0.67819 0.03865 0.0
H2381 H 0.40676 0.67751 0.08105 0.0
C2382 C 0.38528 0.65447 0.21829 0.0
C2383 C 0.38362 0.68342 0.21598 0.0
C2384 C 0.39438 0.64221 0.19831 0.0
C2385 C 0.40238 0.6589 0.17599 0.0
C2386 C 0.39962 0.68751 0.17318 0.0
C2387 C 0.39023 0.69973 0.19311 0.0
C2388 C 0.41476 0.64657 0.1562 0.0
C2389 C 0.40262 0.64595 0.13148 0.0
C2390 C 0.43749 0.63382 0.16219 0.0
C2391 C 0.45229 0.6358 0.18753 0.0
C2392 C 0.46241 0.66258 0.19743 0.0
C2393 C 0.47574 0.66432 0.22155 0.0
C2394 C 0.47924 0.63943 0.23589 0.0
C2395 C 0.46949 0.61274 0.22612 0.0
C2396 C 0.45611 0.61088 0.20201 0.0
C2397 C 0.47581 0.59164 0.07367 0.0
C2398 C 0.46391 0.56241 0.07412 0.0
C2399 C 0.46515 0.60993 0.08767 0.0
C2400 C 0.44252 0.59912 0.10206 0.0
C2401 C 0.43089 0.56997 0.1028 0.0
C2402 C 0.44119 0.55179 0.08855 0.0
C2403 C 0.43335 0.61711 0.11943 0.0
C2404 C 0.44632 0.61894 0.14372 0.0
C2405 C 0.41163 0.63123 0.11286 0.0
C2406 C 0.39808 0.63132 0.08696 0.0
C2407 C 0.38484 0.60575 0.07641 0.0
C2408 C 0.37184 0.60631 0.05215 0.0
C2409 C 0.37123 0.6324 0.03852 0.0
C2410 C 0.38351 0.65798 0.04919 0.0
C2411 C 0.39702 0.65748 0.07322 0.0
H2412 H 0.36113 0.63281 0.01975 0.0
H2413 H 0.48955 0.64082 0.25458 0.0
H2414 H 0.36814 0.32558 0.26245 0.0
H2415 H 0.40332 0.35166 0.2353 0.0
H2416 H 0.37128 0.29735 0.17431 0.0
H2417 H 0.33516 0.27167 0.20122 0.0
H2418 H 0.43056 0.31667 0.17736 0.0
H2419 H 0.34779 0.35061 0.17446 0.0
H2420 H 0.30966 0.36667 0.19172 0.0
H2421 H 0.36443 0.43883 0.22156 0.0
H2422 H 0.40312 0.42238 0.20562 0.0
H2423 H 0.45843 0.41159 0.06717 0.0
H2424 H 0.43982 0.37703 0.1011 0.0
H2425 H 0.47115 0.43829 0.15701 0.0
H2426 H 0.48984 0.47327 0.123 0.0
H2427 H 0.41509 0.41547 0.1584 0.0
H2428 H 0.49797 0.38162 0.15649 0.0
H2429 H 0.53362 0.36556 0.13494 0.0
H2430 H 0.47549 0.29399 0.10843 0.0
H2431 H 0.43934 0.30983 0.12945 0.0
C2432 C 0.36852 0.31904 0.24335 0.0
C2433 C 0.34783 0.29773 0.23351 0.0
C2434 C 0.38893 0.33373 0.22797 0.0
C2435 C 0.38939 0.32687 0.20265 0.0
C2436 C 0.371 0.30312 0.19378 0.0
C2437 C 0.35029 0.28857 0.20916 0.0
C2438 C 0.40627 0.347 0.18467 0.0
C2439 C 0.42719 0.33824 0.1731 0.0
C2440 C 0.40176 0.37515 0.17929 0.0
C2441 C 0.37849 0.3849 0.18926 0.0
C2442 C 0.35183 0.36957 0.18516 0.0
C2443 C 0.33007 0.37877 0.19468 0.0
C2444 C 0.33462 0.40371 0.2078 0.0
C2445 C 0.36094 0.41948 0.21143 0.0
C2446 C 0.38282 0.41009 0.20234 0.0
C2447 C 0.46179 0.4176 0.08672 0.0
C2448 C 0.47547 0.4452 0.09243 0.0
C2449 C 0.45126 0.39775 0.10609 0.0
C2450 C 0.45419 0.40512 0.13151 0.0
C2451 C 0.46877 0.43225 0.13745 0.0
C2452 C 0.47956 0.45211 0.11805 0.0
C2453 C 0.43972 0.38537 0.15134 0.0
C2454 C 0.41891 0.39412 0.16307 0.0
C2455 C 0.44403 0.35714 0.15642 0.0
C2456 C 0.46589 0.34702 0.14446 0.0
C2457 C 0.49274 0.36252 0.14598 0.0
C2458 C 0.51305 0.35344 0.13389 0.0
C2459 C 0.50682 0.32874 0.1204 0.0
C2460 C 0.48028 0.31304 0.119 0.0
C2461 C 0.45987 0.32205 0.13101 0.0
H2462 H 0.52256 0.32177 0.11101 0.0
H2463 H 0.31776 0.41084 0.21512 0.0
H2464 H 0.83424 0.68512 0.63491 0.0
H2465 H 0.86837 0.66244 0.61892 0.0
H2466 H 0.89368 0.63899 0.69607 0.0
H2467 H 0.85933 0.66195 0.71231 0.0
H2468 H 0.93697 0.65489 0.66615 0.0
H2469 H 0.85158 0.5894 0.661 0.0
H2470 H 0.80293 0.57396 0.64947 0.0
H2471 H 0.81854 0.59339 0.57016 0.0
H2472 H 0.8672 0.60943 0.58128 0.0
H2473 H 0.97366 0.53135 0.59358 0.0
H2474 H 0.94086 0.54948 0.61699 0.0
H2475 H 0.97886 0.63597 0.594 0.0
H2476 H 1.01169 0.61827 0.57101 0.0
H2477 H 0.90353 0.58143 0.60373 0.0
H2478 H 0.98029 0.67918 0.64151 0.0
H2479 H 0.02901 0.69167 0.65396 0.0
H2480 H 0.03066 0.60291 0.67125 0.0
H2481 H 0.98191 0.58993 0.6593 0.0
C2482 C 0.84717 0.6753 0.64853 0.0
C2483 C 0.84374 0.67492 0.67489 0.0
C2484 C 0.86665 0.66225 0.63934 0.0
C2485 C 0.88314 0.64827 0.65622 0.0
C2486 C 0.881 0.64937 0.68264 0.0
C2487 C 0.86145 0.66259 0.69191 0.0
C2488 C 0.90179 0.63183 0.646 0.0
C2489 C 0.92965 0.63883 0.65253 0.0
C2490 C 0.89227 0.61025 0.62869 0.0
C2491 C 0.86301 0.60069 0.62198 0.0
C2492 C 0.8446 0.59054 0.64112 0.0
C2493 C 0.81702 0.58168 0.63466 0.0
C2494 C 0.80764 0.58271 0.6091 0.0
C2495 C 0.82582 0.59259 0.58995 0.0
C2496 C 0.8534 0.60153 0.59632 0.0
C2497 C 0.97488 0.55422 0.59334 0.0
C2498 C 0.99554 0.57334 0.58058 0.0
C2499 C 0.95614 0.56455 0.60678 0.0
C2500 C 0.95775 0.59413 0.60777 0.0
C2501 C 0.97761 0.6131 0.59414 0.0
C2502 C 0.99632 0.60287 0.58083 0.0
C2503 C 0.9388 0.60551 0.62289 0.0
C2504 C 0.91087 0.59742 0.61741 0.0
C2505 C 0.94826 0.62584 0.64132 0.0
C2506 C 0.97745 0.63359 0.64933 0.0
C2507 C 0.99099 0.66235 0.64815 0.0
C2508 C 1.01864 0.66951 0.65508 0.0
C2509 C 0.03295 0.6481 0.66332 0.0
C2510 C 0.0196 0.61948 0.66479 0.0
C2511 C 0.99196 0.61222 0.65792 0.0
H2512 H 0.05436 0.65367 0.66859 0.0
H2513 H 0.78629 0.57582 0.60414 0.0
H2514 H 0.36615 0.83884 0.75706 0.0
H2515 H 0.39959 0.86112 0.72561 0.0
H2516 H 0.33985 0.83762 0.66468 0.0
H2517 H 0.30721 0.81462 0.69597 0.0
H2518 H 0.38157 0.83393 0.64568 0.0
H2519 H 0.36527 0.91122 0.69038 0.0
H2520 H 0.36325 0.93839 0.72792 0.0
H2521 H 0.44875 0.94497 0.74367 0.0
H2522 H 0.4512 0.91745 0.70641 0.0
H2523 H 0.47109 0.9779 0.58026 0.0
H2524 H 0.44002 0.95328 0.61256 0.0
H2525 H 0.46243 0.87365 0.59975 0.0
H2526 H 0.49326 0.8982 0.5673 0.0
H2527 H 0.43971 0.9293 0.65622 0.0
H2528 H 0.42178 0.81632 0.61967 0.0
H2529 H 0.4085 0.78951 0.58106 0.0
H2530 H 0.37579 0.85959 0.54508 0.0
H2531 H 0.3896 0.88706 0.58318 0.0
C2532 C 0.36033 0.83772 0.73694 0.0
C2533 C 0.33383 0.82368 0.72943 0.0
C2534 C 0.37953 0.85115 0.71864 0.0
C2535 C 0.37295 0.85201 0.69191 0.0
C2536 C 0.34643 0.8377 0.68467 0.0
C2537 C 0.32745 0.82425 0.70285 0.0
C2538 C 0.3929 0.86752 0.67146 0.0
C2539 C 0.39436 0.85471 0.64841 0.0
C2540 C 0.40968 0.89526 0.67356 0.0
C2541 C 0.40836 0.91202 0.69578 0.0
C2542 C 0.38361 0.91833 0.70194 0.0
C2543 C 0.38239 0.93379 0.72316 0.0
C2544 C 0.40584 0.94333 0.73821 0.0
C2545 C 0.43059 0.93751 0.73202 0.0
C2546 C 0.43191 0.92199 0.71085 0.0
C2547 C 0.46933 0.95505 0.58396 0.0
C2548 C 0.48515 0.94049 0.57034 0.0
C2549 C 0.45135 0.94073 0.60291 0.0
C2550 C 0.44778 0.91087 0.60928 0.0
C2551 C 0.46353 0.89631 0.59555 0.0
C2552 C 0.48166 0.91066 0.57673 0.0
C2553 C 0.42854 0.89549 0.63045 0.0
C2554 C 0.42721 0.90836 0.65365 0.0
C2555 C 0.41112 0.86814 0.62822 0.0
C2556 C 0.40709 0.85384 0.60402 0.0
C2557 C 0.41231 0.8262 0.60326 0.0
C2558 C 0.40462 0.81087 0.58153 0.0
C2559 C 0.39126 0.82281 0.56068 0.0
C2560 C 0.3862 0.8504 0.56124 0.0
C2561 C 0.3943 0.86601 0.58274 0.0
H2562 H 0.38474 0.81065 0.54411 0.0
H2563 H 0.40486 0.95529 0.75464 0.0
H2564 H 0.25227 0.35511 0.73293 0.0
H2565 H 0.23179 0.38771 0.70258 0.0
H2566 H 0.16619 0.31807 0.68445 0.0
H2567 H 0.1863 0.28597 0.71452 0.0
H2568 H 0.21389 0.39107 0.65054 0.0
H2569 H 0.1068 0.34005 0.68392 0.0
H2570 H 0.08576 0.31397 0.72216 0.0
H2571 H 0.15301 0.35441 0.76945 0.0
H2572 H 0.17422 0.38106 0.73156 0.0
H2573 H 0.10072 0.42137 0.56754 0.0
H2574 H 0.132 0.39801 0.59524 0.0
H2575 H 0.13145 0.45744 0.65255 0.0
H2576 H 0.10102 0.48166 0.62441 0.0
H2577 H 0.11998 0.39557 0.66989 0.0
H2578 H 0.18332 0.46653 0.62578 0.0
H2579 H 0.20499 0.49395 0.58855 0.0
H2580 H 0.22803 0.41855 0.56553 0.0
H2581 H 0.20567 0.39039 0.6022 0.0
C2582 C 0.23393 0.34669 0.72187 0.0
C2583 C 0.221 0.31788 0.72601 0.0
C2584 C 0.22211 0.36535 0.70461 0.0
C2585 C 0.19701 0.35561 0.69149 0.0
C2586 C 0.18521 0.32642 0.69453 0.0
C2587 C 0.19687 0.30797 0.71165 0.0
C2588 C 0.18184 0.37578 0.67616 0.0
C2589 C 0.19338 0.39206 0.65479 0.0
C2590 C 0.15517 0.37771 0.68185 0.0
C2591 C 0.14218 0.36238 0.70485 0.0
C2592 C 0.117 0.34352 0.7025 0.0
C2593 C 0.10507 0.32861 0.72411 0.0
C2594 C 0.11808 0.33248 0.74821 0.0
C2595 C 0.14299 0.35137 0.75076 0.0
C2596 C 0.15498 0.36637 0.72922 0.0
C2597 C 0.1076 0.42976 0.58588 0.0
C2598 C 0.09846 0.45353 0.59366 0.0
C2599 C 0.12549 0.41633 0.60174 0.0
C2600 C 0.13414 0.42582 0.62612 0.0
C2601 C 0.12516 0.44967 0.63388 0.0
C2602 C 0.1079 0.46365 0.61769 0.0
C2603 C 0.15167 0.41015 0.64374 0.0
C2604 C 0.1405 0.39465 0.66559 0.0
C2605 C 0.17873 0.40923 0.63857 0.0
C2606 C 0.19223 0.42615 0.61648 0.0
C2607 C 0.19252 0.45561 0.61254 0.0
C2608 C 0.205 0.47133 0.59154 0.0
C2609 C 0.21765 0.45794 0.57453 0.0
C2610 C 0.21801 0.42884 0.57859 0.0
C2611 C 0.20538 0.41298 0.59946 0.0
H2612 H 0.22734 0.47014 0.5583 0.0
H2613 H 0.10883 0.32087 0.7649 0.0
H2614 H 0.72179 0.26924 0.69023 0.0
H2615 H 0.69425 0.23783 0.65968 0.0
H2616 H 0.71155 0.16424 0.70478 0.0
H2617 H 0.7379 0.19553 0.73614 0.0
H2618 H 0.71581 0.15921 0.65165 0.0
H2619 H 0.65098 0.17987 0.70588 0.0
H2620 H 0.62689 0.20998 0.72802 0.0
H2621 H 0.6014 0.24701 0.65598 0.0
H2622 H 0.62583 0.21753 0.63339 0.0
H2623 H 0.61745 0.05461 0.5834 0.0
H2624 H 0.64627 0.08351 0.61528 0.0
H2625 H 0.61712 0.15814 0.58405 0.0
H2626 H 0.58835 0.12957 0.55278 0.0
H2627 H 0.61893 0.16138 0.63182 0.0
H2628 H 0.68545 0.14432 0.57732 0.0
H2629 H 0.70989 0.11544 0.55408 0.0
H2630 H 0.73238 0.07328 0.62478 0.0
H2631 H 0.70778 0.1017 0.64843 0.0
C2632 C 0.71936 0.24643 0.69413 0.0
C2633 C 0.73183 0.23543 0.71648 0.0
C2634 C 0.70364 0.22826 0.6763 0.0
C2635 C 0.70024 0.19819 0.6796 0.0
C2636 C 0.71345 0.18714 0.70142 0.0
C2637 C 0.72865 0.20529 0.71956 0.0
C2638 C 0.68291 0.17849 0.66055 0.0
C2639 C 0.69454 0.15953 0.64764 0.0
C2640 C 0.65509 0.1788 0.65442 0.0
C2641 C 0.64059 0.19677 0.66794 0.0
C2642 C 0.64054 0.19469 0.69475 0.0
C2643 C 0.62676 0.2116 0.70738 0.0
C2644 C 0.61271 0.23048 0.69342 0.0
C2645 C 0.61237 0.23244 0.66678 0.0
C2646 C 0.6262 0.21565 0.65405 0.0
C2647 C 0.61745 0.07725 0.583 0.0
C2648 C 0.60035 0.08936 0.56492 0.0
C2649 C 0.63411 0.09401 0.60144 0.0
C2650 C 0.63452 0.12364 0.60252 0.0
C2651 C 0.6176 0.13561 0.58427 0.0
C2652 C 0.60105 0.11899 0.566 0.0
C2653 C 0.65185 0.14221 0.62253 0.0
C2654 C 0.64021 0.16101 0.63572 0.0
C2655 C 0.67972 0.14197 0.6287 0.0
C2656 C 0.69453 0.12489 0.6146 0.0
C2657 C 0.69545 0.12874 0.58789 0.0
C2658 C 0.70935 0.11248 0.57465 0.0
C2659 C 0.72261 0.09247 0.58794 0.0
C2660 C 0.72205 0.08875 0.61451 0.0
C2661 C 0.70815 0.10494 0.62784 0.0
H2662 H 0.73336 0.0799 0.57766 0.0
H2663 H 0.60202 0.24352 0.70323 0.0
H2664 H 0.80132 0.33506 0.35347 0.0
H2665 H 0.83581 0.36368 0.38063 0.0
H2666 H 0.89736 0.35425 0.33078 0.0
H2667 H 0.86275 0.3258 0.30325 0.0
H2668 H 0.91425 0.34699 0.38146 0.0
H2669 H 0.87718 0.41634 0.32906 0.0
H2670 H 0.84132 0.43955 0.30836 0.0
H2671 H 0.81673 0.45506 0.38171 0.0
H2672 H 0.85217 0.43148 0.40289 0.0
H2673 H 1.01628 0.45737 0.43794 0.0
H2674 H 0.98439 0.4324 0.40559 0.0
H2675 H 0.91846 0.42867 0.45457 0.0
H2676 H 0.95016 0.4527 0.48699 0.0
H2677 H 0.90582 0.44418 0.40179 0.0
H2678 H 0.94171 0.37198 0.45372 0.0
H2679 H 0.97768 0.34856 0.47388 0.0
H2680 H 1.00525 0.33921 0.4001 0.0
H2681 H 0.96965 0.36301 0.37951 0.0
C2682 C 0.82208 0.33893 0.34816 0.0
C2683 C 0.82893 0.32796 0.32593 0.0
C2684 C 0.84194 0.35552 0.36378 0.0
C2685 C 0.8694 0.3615 0.35783 0.0
C2686 C 0.87643 0.35011 0.33593 0.0
C2687 C 0.85649 0.33383 0.3201 0.0
C2688 C 0.89055 0.37968 0.37439 0.0
C2689 C 0.91258 0.36842 0.38551 0.0
C2690 C 0.88847 0.40761 0.38017 0.0
C2691 C 0.86714 0.42184 0.36757 0.0
C2692 C 0.86396 0.42445 0.3408 0.0
C2693 C 0.84374 0.43771 0.32897 0.0
C2694 C 0.8267 0.44869 0.34371 0.0
C2695 C 0.82991 0.44649 0.37032 0.0
C2696 C 0.85007 0.43318 0.38225 0.0
C2697 C 0.99491 0.45174 0.44154 0.0
C2698 C 0.98577 0.45731 0.46499 0.0
C2699 C 0.97669 0.43722 0.42313 0.0
C2700 C 0.94887 0.42847 0.42756 0.0
C2701 C 0.93968 0.43516 0.45053 0.0
C2702 C 0.95788 0.44899 0.46908 0.0
C2703 C 0.92936 0.41142 0.40893 0.0
C2704 C 0.90759 0.42286 0.39752 0.0
C2705 C 0.93176 0.38374 0.40278 0.0
C2706 C 0.95328 0.36964 0.41509 0.0
C2707 C 0.95564 0.36524 0.44181 0.0
C2708 C 0.97592 0.35182 0.45331 0.0
C2709 C 0.99381 0.3425 0.43829 0.0
C2710 C 0.99142 0.34652 0.41172 0.0
C2711 C 0.9712 0.35996 0.40012 0.0
H2712 H 1.00947 0.33209 0.44723 0.0
H2713 H 0.81106 0.45895 0.33451 0.0
H2714 H 0.68329 0.8188 0.28738 0.0
H2715 H 0.6571 0.84209 0.31373 0.0
H2716 H 0.7279 0.86789 0.36266 0.0
H2717 H 0.75413 0.84401 0.33607 0.0
H2718 H 0.68917 0.86449 0.39428 0.0
H2719 H 0.69008 0.91477 0.31161 0.0
H2720 H 0.68249 0.91943 0.26483 0.0
H2721 H 0.59804 0.88293 0.27188 0.0
H2722 H 0.6052 0.87781 0.3187 0.0
H2723 H 0.62586 0.95842 0.46265 0.0
H2724 H 0.65248 0.93559 0.43695 0.0
H2725 H 0.58743 0.92369 0.37953 0.0
H2726 H 0.5613 0.94895 0.40496 0.0
H2727 H 0.6234 0.91915 0.35217 0.0
H2728 H 0.62188 0.86588 0.43385 0.0
H2729 H 0.62871 0.85899 0.48061 0.0
H2730 H 0.71278 0.89834 0.47571 0.0
H2731 H 0.70639 0.90558 0.42894 0.0
C2732 C 0.69357 0.82865 0.30411 0.0
C2733 C 0.72146 0.82717 0.30927 0.0
C2734 C 0.67821 0.84307 0.31942 0.0
C2735 C 0.68934 0.85855 0.34117 0.0
C2736 C 0.7173 0.8569 0.34662 0.0
C2737 C 0.73275 0.84241 0.33115 0.0
C2738 C 0.67238 0.87607 0.35737 0.0
C2739 C 0.67515 0.87659 0.38454 0.0
C2740 C 0.65265 0.89232 0.34661 0.0
C2741 C 0.64822 0.8957 0.3186 0.0
C2742 C 0.66991 0.90766 0.30315 0.0
C2743 C 0.66569 0.91037 0.27664 0.0
C2744 C 0.63981 0.90142 0.26538 0.0
C2745 C 0.61808 0.88983 0.28062 0.0
C2746 C 0.6222 0.88704 0.30715 0.0
C2747 C 0.61685 0.95149 0.44439 0.0
C2748 C 0.59055 0.95709 0.43682 0.0
C2749 C 0.63242 0.9371 0.42934 0.0
C2750 C 0.62296 0.92527 0.40542 0.0
C2751 C 0.59672 0.93135 0.39745 0.0
C2752 C 0.58125 0.94652 0.41239 0.0
C2753 C 0.64002 0.9076 0.38928 0.0
C2754 C 0.63734 0.90706 0.36204 0.0
C2755 C 0.65962 0.89102 0.40002 0.0
C2756 C 0.66359 0.88652 0.42799 0.0
C2757 C 0.64179 0.87311 0.44278 0.0
C2758 C 0.64558 0.86915 0.46927 0.0
C2759 C 0.67114 0.87831 0.48113 0.0
C2760 C 0.69299 0.89131 0.46651 0.0
C2761 C 0.68931 0.89531 0.44002 0.0
H2762 H 0.67402 0.87528 0.50164 0.0
H2763 H 0.63659 0.90351 0.24485 0.0
H2764 H 0.2522 0.76697 0.35882 0.0
H2765 H 0.22634 0.73038 0.38724 0.0
H2766 H 0.19156 0.68306 0.32254 0.0
H2767 H 0.21585 0.7214 0.29389 0.0
H2768 H 0.15382 0.68043 0.35169 0.0
H2769 H 0.2415 0.64697 0.38198 0.0
H2770 H 0.28888 0.65398 0.3994 0.0
H2771 H 0.27298 0.71361 0.45044 0.0
H2772 H 0.22503 0.70523 0.43468 0.0
H2773 H 0.08957 0.56221 0.43645 0.0
H2774 H 0.11688 0.59168 0.40327 0.0
H2775 H 0.15658 0.64864 0.45992 0.0
H2776 H 0.13081 0.61936 0.49262 0.0
H2777 H 0.19267 0.64182 0.43248 0.0
H2778 H 0.10427 0.66308 0.41306 0.0
H2779 H 0.05528 0.65188 0.40168 0.0
H2780 H 0.0709 0.61854 0.33193 0.0
H2781 H 0.12 0.62917 0.34309 0.0
C2782 C 0.23964 0.74832 0.35071 0.0
C2783 C 0.23718 0.74647 0.32413 0.0
C2784 C 0.22496 0.72701 0.3671 0.0
C2785 C 0.20756 0.70277 0.35755 0.0
C2786 C 0.20504 0.70101 0.3308 0.0
C2787 C 0.21931 0.72276 0.31433 0.0
C2788 C 0.19051 0.68072 0.37518 0.0
C2789 C 0.16255 0.67166 0.36912 0.0
C2790 C 0.20107 0.66947 0.39855 0.0
C2791 C 0.23008 0.67624 0.40658 0.0
C2792 C 0.24827 0.66186 0.39666 0.0
C2793 C 0.27511 0.66585 0.40642 0.0
C2794 C 0.28413 0.68482 0.42548 0.0
C2795 C 0.26609 0.69921 0.43543 0.0
C2796 C 0.23902 0.69455 0.42636 0.0
C2797 C 0.1043 0.58086 0.44183 0.0
C2798 C 0.10781 0.588 0.4675 0.0
C2799 C 0.1198 0.59796 0.42274 0.0
C2800 C 0.13892 0.62283 0.4288 0.0
C2801 C 0.14232 0.62968 0.45441 0.0
C2802 C 0.12726 0.61266 0.4733 0.0
C2803 C 0.15599 0.64183 0.40921 0.0
C2804 C 0.18394 0.65031 0.4149 0.0
C2805 C 0.14522 0.65285 0.38586 0.0
C2806 C 0.11576 0.64658 0.37906 0.0
C2807 C 0.09724 0.65315 0.39539 0.0
C2808 C 0.06946 0.64693 0.38897 0.0
C2809 C 0.05998 0.63441 0.36613 0.0
C2810 C 0.07827 0.62817 0.34964 0.0
C2811 C 0.10608 0.63429 0.356 0.0
H2812 H 0.03846 0.62962 0.36119 0.0
H2813 H 0.305 0.68807 0.43277 0.0
H2814 H 0.35515 0.25807 0.31727 0.0
H2815 H 0.38635 0.23188 0.34252 0.0
H2816 H 0.33094 0.1527 0.33063 0.0
H2817 H 0.29994 0.17884 0.30622 0.0
H2818 H 0.3715 0.1323 0.3349 0.0
H2819 H 0.44347 0.22444 0.38129 0.0
H2820 H 0.44352 0.26991 0.40053 0.0
H2821 H 0.36019 0.24039 0.4182 0.0
H2822 H 0.35956 0.19504 0.39865 0.0
H2823 H 0.48029 0.0609 0.39905 0.0
H2824 H 0.45067 0.08825 0.37265 0.0
H2825 H 0.44028 0.13291 0.43776 0.0
H2826 H 0.46965 0.10656 0.46349 0.0
H2827 H 0.43221 0.17023 0.40699 0.0
H2828 H 0.38669 0.07359 0.39284 0.0
H2829 H 0.38148 0.02452 0.37907 0.0
H2830 H 0.40499 0.05802 0.30403 0.0
H2831 H 0.4105 0.10725 0.31742 0.0
C2832 C 0.3486 0.23525 0.32073 0.0
C2833 C 0.32273 0.22203 0.30964 0.0
C2834 C 0.36732 0.21944 0.33554 0.0
C2835 C 0.36258 0.18862 0.34034 0.0
C2836 C 0.33703 0.17573 0.32867 0.0
C2837 C 0.31841 0.19144 0.31429 0.0
C2838 C 0.38321 0.16995 0.35619 0.0
C2839 C 0.38471 0.14139 0.35049 0.0
C2840 C 0.4015 0.17898 0.37769 0.0
C2841 C 0.4014 0.20659 0.38829 0.0
C2842 C 0.42513 0.2278 0.38914 0.0
C2843 C 0.42525 0.25353 0.40006 0.0
C2844 C 0.40186 0.25806 0.41052 0.0
C2845 C 0.37827 0.2369 0.41001 0.0
C2846 C 0.37795 0.21129 0.39883 0.0
C2847 C 0.47182 0.07632 0.40823 0.0
C2848 C 0.47883 0.07992 0.43488 0.0
C2849 C 0.45394 0.09253 0.3926 0.0
C2850 C 0.44109 0.11403 0.40187 0.0
C2851 C 0.44849 0.11752 0.4283 0.0
C2852 C 0.46605 0.10149 0.44373 0.0
C2853 C 0.421 0.13281 0.38536 0.0
C2854 C 0.41936 0.16128 0.39114 0.0
C2855 C 0.4023 0.12349 0.36417 0.0
C2856 C 0.39932 0.09404 0.35621 0.0
C2857 C 0.3909 0.07045 0.37346 0.0
C2858 C 0.38787 0.04263 0.36572 0.0
C2859 C 0.39302 0.03817 0.34073 0.0
C2860 C 0.40109 0.06151 0.3234 0.0
C2861 C 0.40416 0.08936 0.33104 0.0
H2862 H 0.39073 0.01664 0.33477 0.0
H2863 H 0.40199 0.27797 0.41902 0.0
H2864 H 0.76539 0.86926 0.71849 0.0
H2865 H 0.7356 0.89216 0.6894 0.0
H2866 H 0.66955 0.8215 0.70475 0.0
H2867 H 0.69979 0.79871 0.73486 0.0
H2868 H 0.71073 0.88842 0.64808 0.0
H2869 H 0.60679 0.84116 0.68927 0.0
H2870 H 0.58767 0.82125 0.73035 0.0
H2871 H 0.65609 0.86998 0.77081 0.0
H2872 H 0.67543 0.89043 0.73 0.0
H2873 H 0.61325 0.92928 0.55814 0.0
H2874 H 0.63909 0.90438 0.58893 0.0
H2875 H 0.61481 0.94775 0.6494 0.0
H2876 H 0.58725 0.97255 0.61798 0.0
H2877 H 0.61854 0.8962 0.6696 0.0
H2878 H 0.68409 0.9632 0.62272 0.0
H2879 H 0.70592 0.98821 0.58444 0.0
H2880 H 0.71875 0.90854 0.56031 0.0
H2881 H 0.69682 0.88304 0.59837 0.0
C2882 C 0.74458 0.85818 0.71561 0.0
C2883 C 0.73565 0.83163 0.72933 0.0
C2884 C 0.7272 0.87157 0.69866 0.0
C2885 C 0.69944 0.85951 0.69436 0.0
C2886 C 0.69042 0.83236 0.70754 0.0
C2887 C 0.70803 0.81882 0.72473 0.0
C2888 C 0.68087 0.87569 0.67633 0.0
C2889 C 0.69054 0.88974 0.65306 0.0
C2890 C 0.65432 0.87885 0.682 0.0
C2891 C 0.64268 0.86704 0.70659 0.0
C2892 C 0.61769 0.84768 0.70694 0.0
C2893 C 0.60683 0.8363 0.73017 0.0
C2894 C 0.62071 0.84426 0.75317 0.0
C2895 C 0.64541 0.86375 0.75299 0.0
C2896 C 0.65633 0.87523 0.72982 0.0
C2897 C 0.61312 0.9341 0.57788 0.0
C2898 C 0.59767 0.95387 0.58474 0.0
C2899 C 0.62854 0.91958 0.59588 0.0
C2900 C 0.63026 0.92403 0.6222 0.0
C2901 C 0.61461 0.94349 0.62948 0.0
C2902 C 0.59876 0.95809 0.61123 0.0
C2903 C 0.64836 0.9084 0.64126 0.0
C2904 C 0.63866 0.89462 0.66465 0.0
C2905 C 0.67522 0.90593 0.63603 0.0
C2906 C 0.68865 0.92121 0.61328 0.0
C2907 C 0.69148 0.95102 0.60919 0.0
C2908 C 0.70389 0.96528 0.58755 0.0
C2909 C 0.71367 0.94996 0.56993 0.0
C2910 C 0.71116 0.92037 0.57397 0.0
C2911 C 0.6988 0.90601 0.5956 0.0
H2912 H 0.72323 0.96103 0.55317 0.0
H2913 H 0.61229 0.83538 0.77113 0.0
H2914 H 0.76039 0.25359 0.34734 0.0
H2915 H 0.73025 0.22744 0.37965 0.0
H2916 H 0.70898 0.15612 0.33171 0.0
H2917 H 0.73728 0.18328 0.29883 0.0
H2918 H 0.66563 0.16524 0.34685 0.0
H2919 H 0.75118 0.15829 0.39064 0.0
H2920 H 0.79693 0.17731 0.40895 0.0
H2921 H 0.76345 0.22586 0.45937 0.0
H2922 H 0.71751 0.20742 0.44111 0.0
H2923 H 0.60377 0.05657 0.43467 0.0
H2924 H 0.63839 0.08638 0.40847 0.0
H2925 H 0.63334 0.15979 0.44909 0.0
H2926 H 0.59829 0.13024 0.47517 0.0
H2927 H 0.68851 0.15273 0.43953 0.0
H2928 H 0.60276 0.1577 0.39664 0.0
H2929 H 0.5572 0.13828 0.37821 0.0
H2930 H 0.59176 0.09333 0.32554 0.0
H2931 H 0.63753 0.11204 0.34401 0.0
C2932 C 0.74878 0.23257 0.34365 0.0
C2933 C 0.74965 0.22116 0.32007 0.0
C2934 C 0.73205 0.2173 0.36234 0.0
C2935 C 0.71696 0.18978 0.35811 0.0
C2936 C 0.71989 0.17749 0.33532 0.0
C2937 C 0.73622 0.19294 0.31659 0.0
C2938 C 0.69709 0.17413 0.37656 0.0
C2939 C 0.67087 0.16232 0.36705 0.0
C2940 C 0.70343 0.1709 0.40312 0.0
C2941 C 0.73096 0.18165 0.41438 0.0
C2942 C 0.7536 0.17313 0.40555 0.0
C2943 C 0.77956 0.1838 0.41592 0.0
C2944 C 0.7831 0.20282 0.43528 0.0
C2945 C 0.76067 0.21114 0.44437 0.0
C2946 C 0.73467 0.20057 0.43404 0.0
C2947 C 0.61023 0.07898 0.43826 0.0
C2948 C 0.5982 0.09109 0.45691 0.0
C2949 C 0.62994 0.09598 0.42323 0.0
C2950 C 0.63826 0.12527 0.42681 0.0
C2951 C 0.62715 0.13722 0.44608 0.0
C2952 C 0.60707 0.12033 0.46085 0.0
C2953 C 0.65761 0.14353 0.40953 0.0
C2954 C 0.68349 0.15589 0.4193 0.0
C2955 C 0.65105 0.14725 0.38315 0.0
C2956 C 0.62355 0.13597 0.37196 0.0
C2957 C 0.60063 0.14341 0.38133 0.0
C2958 C 0.57477 0.13258 0.37084 0.0
C2959 C 0.57158 0.1145 0.35078 0.0
C2960 C 0.59426 0.10728 0.34112 0.0
C2961 C 0.62017 0.11799 0.3516 0.0
H2962 H 0.55153 0.10615 0.34266 0.0
H2963 H 0.80322 0.21108 0.44326 0.0
H2964 H 0.84813 0.67416 0.35519 0.0
H2965 H 0.88733 0.66437 0.38103 0.0
H2966 H 0.83473 0.60475 0.43044 0.0
H2967 H 0.79526 0.61637 0.4061 0.0
H2968 H 0.87449 0.63105 0.45769 0.0
H2969 H 0.86666 0.58421 0.37911 0.0
H2970 H 0.86345 0.58102 0.33243 0.0
H2971 H 0.94126 0.63688 0.32648 0.0
H2972 H 0.94475 0.64077 0.3731 0.0
H2973 H 0.96604 0.54005 0.50113 0.0
H2974 H 0.92863 0.5578 0.47772 0.0
H2975 H 0.98478 0.63188 0.44852 0.0
H2976 H 0.02227 0.61459 0.47214 0.0
H2977 H 0.94523 0.60026 0.41156 0.0
H2978 H 0.95265 0.64358 0.49229 0.0
H2979 H 0.95558 0.64158 0.53932 0.0
H2980 H 0.8772 0.58624 0.54125 0.0
H2981 H 0.87402 0.58746 0.4942 0.0
C2982 C 0.84478 0.65951 0.37192 0.0
C2983 C 0.81846 0.64575 0.37837 0.0
C2984 C 0.86728 0.65365 0.38647 0.0
C2985 C 0.86394 0.63325 0.40721 0.0
C2986 C 0.83776 0.62037 0.41433 0.0
C2987 C 0.81522 0.62671 0.40016 0.0
C2988 C 0.88764 0.62428 0.42082 0.0
C2989 C 0.88981 0.62413 0.44758 0.0
C2990 C 0.90781 0.6155 0.4076 0.0
C2991 C 0.9058 0.61307 0.37956 0.0
C2992 C 0.88299 0.596 0.36783 0.0
C2993 C 0.88113 0.59404 0.34138 0.0
C2994 C 0.90209 0.60882 0.32649 0.0
C2995 C 0.92501 0.62551 0.33803 0.0
C2996 C 0.92693 0.6276 0.36446 0.0
C2997 C 0.97036 0.56011 0.48971 0.0
C2998 C 0.99689 0.57612 0.4885 0.0
C2999 C 0.94907 0.57017 0.47645 0.0
C3000 C 0.9542 0.5961 0.46165 0.0
C3001 C 0.98067 0.61184 0.45998 0.0
C3002 C 1.00191 0.60205 0.47356 0.0
C3003 C 0.93177 0.60701 0.44811 0.0
C3004 C 0.9299 0.60744 0.42148 0.0
C3005 C 0.91169 0.6155 0.46143 0.0
C3006 C 0.91319 0.61545 0.48971 0.0
C3007 C 0.93611 0.63083 0.50273 0.0
C3008 C 0.93781 0.62986 0.52939 0.0
C3009 C 0.91659 0.61381 0.54324 0.0
C3010 C 0.89361 0.5987 0.53048 0.0
C3011 C 0.89184 0.59954 0.50381 0.0
H3012 H 0.91794 0.61318 0.56384 0.0
H3013 H 0.90061 0.60729 0.30602 0.0
H3014 H 0.28717 0.86773 0.33804 0.0
H3015 H 0.31127 0.89199 0.37448 0.0
H3016 H 0.35376 0.82237 0.39091 0.0
H3017 H 0.32727 0.79687 0.35723 0.0
H3018 H 0.35162 0.84105 0.4315 0.0
H3019 H 0.38027 0.89029 0.35035 0.0
H3020 H 0.37636 0.91704 0.30878 0.0
H3021 H 0.344 0.97959 0.34462 0.0
H3022 H 0.34837 0.95346 0.38652 0.0
H3023 H 0.48824 0.90705 0.45917 0.0
H3024 H 0.44499 0.88356 0.43971 0.0
H3025 H 0.40863 0.95353 0.45713 0.0
H3026 H 0.45193 0.97753 0.47602 0.0
H3027 H 0.39991 0.9395 0.40734 0.0
H3028 H 0.39931 0.89005 0.49067 0.0
H3029 H 0.42383 0.86408 0.52326 0.0
H3030 H 0.41565 0.79423 0.47502 0.0
H3031 H 0.39368 0.82102 0.44096 0.0
C3032 C 0.30118 0.85736 0.34986 0.0
C3033 C 0.30637 0.83093 0.34392 0.0
C3034 C 0.31518 0.87139 0.37053 0.0
C3035 C 0.33525 0.85968 0.38488 0.0
C3036 C 0.3387 0.83225 0.38011 0.0
C3037 C 0.32395 0.81784 0.36027 0.0
C3038 C 0.35451 0.87649 0.40315 0.0
C3039 C 0.36216 0.86259 0.42619 0.0
C3040 C 0.36813 0.90478 0.39656 0.0
C3041 C 0.36415 0.9197 0.37137 0.0
C3042 C 0.37208 0.9096 0.34927 0.0
C3043 C 0.36995 0.92474 0.32571 0.0
C3044 C 0.35971 0.94988 0.32401 0.0
C3045 C 0.35179 0.96004 0.34593 0.0
C3046 C 0.35421 0.94517 0.3696 0.0
C3047 C 0.47095 0.91725 0.45912 0.0
C3048 C 0.47339 0.9441 0.46901 0.0
C3049 C 0.4463 0.90382 0.44806 0.0
C3050 C 0.42367 0.91674 0.44737 0.0
C3051 C 0.42592 0.94327 0.45765 0.0
C3052 C 0.45062 0.95689 0.46839 0.0
C3053 C 0.398 0.90334 0.43454 0.0
C3054 C 0.3889 0.91819 0.4129 0.0
C3055 C 0.38447 0.87519 0.44151 0.0
C3056 C 0.3949 0.85776 0.46309 0.0
C3057 C 0.40282 0.86922 0.48688 0.0
C3058 C 0.41651 0.85443 0.50557 0.0
C3059 C 0.42102 0.82738 0.50136 0.0
C3060 C 0.4121 0.81518 0.47829 0.0
C3061 C 0.39931 0.83033 0.45914 0.0
H3062 H 0.43144 0.81589 0.51597 0.0
H3063 H 0.35802 0.96155 0.30572 0.0
H3064 H 0.22454 0.38766 0.36612 0.0
H3065 H 0.19424 0.40252 0.39393 0.0
H3066 H 0.25544 0.40772 0.4555 0.0
H3067 H 0.2858 0.39132 0.42792 0.0
H3068 H 0.20358 0.38427 0.47108 0.0
H3069 H 0.24836 0.4674 0.42286 0.0
H3070 H 0.26513 0.49599 0.38409 0.0
H3071 H 0.1836 0.48887 0.35262 0.0
H3072 H 0.16635 0.45986 0.39104 0.0
H3073 H 0.13048 0.48637 0.52362 0.0
H3074 H 0.1686 0.47068 0.50601 0.0
H3075 H 0.11287 0.41975 0.45389 0.0
H3076 H 0.07475 0.4342 0.47214 0.0
H3077 H 0.16779 0.47041 0.43912 0.0
H3078 H 0.12473 0.38013 0.48451 0.0
H3079 H 0.10779 0.35267 0.52367 0.0
H3080 H 0.18712 0.37284 0.56026 0.0
H3081 H 0.20417 0.40215 0.52182 0.0
C3082 C 0.23141 0.39122 0.38575 0.0
C3083 C 0.25754 0.38831 0.39493 0.0
C3084 C 0.21418 0.40004 0.40149 0.0
C3085 C 0.22298 0.4067 0.42645 0.0
C3086 C 0.24858 0.40284 0.43612 0.0
C3087 C 0.26587 0.39372 0.42037 0.0
C3088 C 0.20549 0.41872 0.44188 0.0
C3089 C 0.19612 0.40339 0.4644 0.0
C3090 C 0.19582 0.4436 0.4329 0.0
C3091 C 0.20609 0.4613 0.40981 0.0
C3092 C 0.23402 0.47177 0.40761 0.0
C3093 C 0.24361 0.48808 0.3857 0.0
C3094 C 0.22545 0.49421 0.36589 0.0
C3095 C 0.19765 0.4841 0.36798 0.0
C3096 C 0.18795 0.46776 0.38984 0.0
C3097 C 0.12655 0.4716 0.50858 0.0
C3098 C 0.10004 0.46112 0.4992 0.0
C3099 C 0.14811 0.46268 0.49871 0.0
C3100 C 0.1431 0.44381 0.47916 0.0
C3101 C 0.11671 0.43393 0.46939 0.0
C3102 C 0.09514 0.44211 0.47974 0.0
C3103 C 0.16548 0.43549 0.46769 0.0
C3104 C 0.17574 0.45163 0.44598 0.0
C3105 C 0.17586 0.41141 0.47737 0.0
C3106 C 0.16554 0.39405 0.50053 0.0
C3107 C 0.13839 0.37951 0.50115 0.0
C3108 C 0.12877 0.36359 0.52324 0.0
C3109 C 0.14628 0.36147 0.54463 0.0
C3110 C 0.17347 0.37511 0.5439 0.0
C3111 C 0.18309 0.39147 0.52201 0.0
H3112 H 0.13887 0.34898 0.56167 0.0
H3113 H 0.23292 0.50683 0.34894 0.0
H3114 H 0.35135 0.19682 0.64289 0.0
H3115 H 0.37585 0.1626 0.62791 0.0
H3116 H 0.42451 0.16564 0.69845 0.0
H3117 H 0.39985 0.20023 0.71341 0.0
H3118 H 0.45633 0.17037 0.65837 0.0
H3119 H 0.37595 0.10512 0.68397 0.0
H3120 H 0.32684 0.08628 0.68602 0.0
H3121 H 0.31993 0.08043 0.60478 0.0
H3122 H 0.36895 0.09958 0.60219 0.0
H3123 H 0.52263 0.06577 0.61103 0.0
H3124 H 0.49786 0.08926 0.63917 0.0
H3125 H 0.43401 0.08894 0.58051 0.0
H3126 H 0.45773 0.06466 0.55338 0.0
H3127 H 0.41127 0.07945 0.62163 0.0
H3128 H 0.48998 0.14934 0.59481 0.0
H3129 H 0.53882 0.16929 0.5917 0.0
H3130 H 0.54889 0.16804 0.67337 0.0
H3131 H 0.50016 0.14764 0.67698 0.0
C3132 C 0.36677 0.18958 0.65549 0.0
C3133 C 0.37325 0.20078 0.67956 0.0
C3134 C 0.3809 0.17002 0.64688 0.0
C3135 C 0.40207 0.16112 0.66203 0.0
C3136 C 0.40828 0.17195 0.68634 0.0
C3137 C 0.39394 0.19145 0.69505 0.0
C3138 C 0.41821 0.14152 0.65188 0.0
C3139 C 0.44651 0.15022 0.65075 0.0
C3140 C 0.40561 0.11539 0.64141 0.0
C3141 C 0.3761 0.10396 0.64288 0.0
C3142 C 0.36392 0.10001 0.66652 0.0
C3143 C 0.33611 0.08924 0.66778 0.0
C3144 C 0.32027 0.0822 0.64554 0.0
C3145 C 0.33222 0.0859 0.62199 0.0
C3146 C 0.36003 0.09667 0.62062 0.0
C3147 C 0.50292 0.06994 0.60456 0.0
C3148 C 0.49223 0.0632 0.57989 0.0
C3149 C 0.48893 0.08391 0.62048 0.0
C3150 C 0.46409 0.09167 0.61196 0.0
C3151 C 0.453 0.0835 0.58783 0.0
C3152 C 0.46671 0.0695 0.5722 0.0
C3153 C 0.44942 0.10861 0.62731 0.0
C3154 C 0.42127 0.09944 0.62945 0.0
C3155 C 0.46218 0.13444 0.63838 0.0
C3156 C 0.49149 0.14656 0.63617 0.0
C3157 C 0.50265 0.15306 0.61211 0.0
C3158 C 0.53031 0.16449 0.61026 0.0
C3159 C 0.54697 0.16981 0.63233 0.0
C3160 C 0.53598 0.1638 0.6563 0.0
C3161 C 0.50835 0.15229 0.65826 0.0
H3162 H 0.56836 0.17867 0.63086 0.0
H3163 H 0.29874 0.07385 0.64656 0.0
H3164 H 0.80655 0.3137 0.71006 0.0
H3165 H 0.83615 0.34668 0.68072 0.0
H3166 H 0.89088 0.37484 0.74423 0.0
H3167 H 0.86124 0.3426 0.77349 0.0
H3168 H 0.86586 0.41469 0.68597 0.0
H3169 H 0.94803 0.35466 0.72211 0.0
H3170 H 0.95244 0.30709 0.74155 0.0
H3171 H 0.88027 0.26845 0.6995 0.0
H3172 H 0.87597 0.3156 0.67925 0.0
H3173 H 0.99272 0.48584 0.63233 0.0
H3174 H 0.95894 0.46338 0.66327 0.0
H3175 H 0.93914 0.38823 0.62007 0.0
H3176 H 0.97263 0.40972 0.5899 0.0
H3177 H 0.94565 0.37415 0.66945 0.0
H3178 H 0.89957 0.43796 0.61538 0.0
H3179 H 0.89406 0.48512 0.59595 0.0
H3180 H 0.89146 0.5152 0.67033 0.0
H3181 H 0.89738 0.46832 0.69023 0.0
C3182 C 0.8245 0.32761 0.71768 0.0
C3183 C 0.83149 0.32632 0.74392 0.0
C3184 C 0.84127 0.34637 0.70104 0.0
C3185 C 0.86537 0.36331 0.71053 0.0
C3186 C 0.8721 0.36222 0.73675 0.0
C3187 C 0.85533 0.34374 0.75333 0.0
C3188 C 0.88564 0.37884 0.69302 0.0
C3189 C 0.88329 0.40594 0.68218 0.0
C3190 C 0.9083 0.36728 0.68841 0.0
C3191 C 0.91148 0.33867 0.6995 0.0
C3192 C 0.93324 0.33595 0.7169 0.0
C3193 C 0.93573 0.30907 0.72803 0.0
C3194 C 0.91658 0.28477 0.72184 0.0
C3195 C 0.89504 0.28728 0.70433 0.0
C3196 C 0.89259 0.31407 0.69302 0.0
C3197 C 0.98128 0.46446 0.62963 0.0
C3198 C 0.98534 0.44967 0.6086 0.0
C3199 C 0.96191 0.45177 0.64716 0.0
C3200 C 0.9465 0.42423 0.64379 0.0
C3201 C 0.95084 0.40946 0.62303 0.0
C3202 C 0.96999 0.42196 0.60569 0.0
C3203 C 0.92585 0.41005 0.6617 0.0
C3204 C 0.92827 0.38312 0.67303 0.0
C3205 C 0.90309 0.42168 0.66628 0.0
C3206 C 0.8992 0.44973 0.6543 0.0
C3207 C 0.89803 0.45469 0.6276 0.0
C3208 C 0.89479 0.48136 0.6165 0.0
C3209 C 0.89244 0.50315 0.6319 0.0
C3210 C 0.89329 0.49831 0.65843 0.0
C3211 C 0.89657 0.47169 0.66963 0.0
H3212 H 0.8899 0.52377 0.62327 0.0
H3213 H 0.91848 0.26399 0.73053 0.0
H3214 H 0.24196 0.75413 0.70178 0.0
H3215 H 0.20725 0.72082 0.67919 0.0
H3216 H 0.15593 0.71182 0.74302 0.0
H3217 H 0.19162 0.74432 0.76638 0.0
H3218 H 0.15775 0.66044 0.727 0.0
H3219 H 0.13774 0.74633 0.68608 0.0
H3220 H 0.15343 0.79578 0.66872 0.0
H3221 H 0.19234 0.76531 0.60932 0.0
H3222 H 0.17689 0.71558 0.62636 0.0
H3223 H 0.06489 0.57193 0.6377 0.0
H3224 H 0.08326 0.60752 0.66896 0.0
H3225 H 0.15578 0.63353 0.62704 0.0
H3226 H 0.1379 0.59817 0.5962 0.0
H3227 H 0.13114 0.67917 0.63582 0.0
H3228 H 0.15774 0.59563 0.68195 0.0
H3229 H 0.14764 0.54698 0.70279 0.0
H3230 H 0.09625 0.57411 0.75381 0.0
H3231 H 0.1058 0.62286 0.733 0.0
C3232 C 0.22307 0.74548 0.7108 0.0
C3233 C 0.2195 0.75155 0.73582 0.0
C3234 C 0.20314 0.72652 0.69785 0.0
C3235 C 0.17878 0.71399 0.70928 0.0
C3236 C 0.17456 0.72121 0.73385 0.0
C3237 C 0.19478 0.74001 0.74702 0.0
C3238 C 0.15868 0.69238 0.69568 0.0
C3239 C 0.15122 0.66471 0.70729 0.0
C3240 C 0.15012 0.69791 0.66999 0.0
C3241 C 0.15624 0.72725 0.65757 0.0
C3242 C 0.14942 0.75016 0.66916 0.0
C3243 C 0.15844 0.77825 0.65949 0.0
C3244 C 0.17426 0.7837 0.63819 0.0
C3245 C 0.18032 0.76102 0.62599 0.0
C3246 C 0.17124 0.73286 0.63552 0.0
C3247 C 0.08512 0.58459 0.63571 0.0
C3248 C 0.1 0.58226 0.61454 0.0
C3249 C 0.09541 0.60513 0.65335 0.0
C3250 C 0.12065 0.62346 0.64998 0.0
C3251 C 0.13609 0.61991 0.62973 0.0
C3252 C 0.12594 0.59949 0.61228 0.0
C3253 C 0.13119 0.64702 0.66687 0.0
C3254 C 0.13676 0.67512 0.65581 0.0
C3255 C 0.13767 0.6419 0.69311 0.0
C3256 C 0.13222 0.61274 0.70576 0.0
C3257 C 0.14413 0.59114 0.69749 0.0
C3258 C 0.13854 0.56358 0.70931 0.0
C3259 C 0.12125 0.55743 0.72956 0.0
C3260 C 0.1096 0.57888 0.73809 0.0
C3261 C 0.1151 0.60648 0.7263 0.0
H3262 H 0.11693 0.53608 0.73869 0.0
H3263 H 0.18163 0.80546 0.63096 0.0
loop_
_geom_bond_atom_site_label_1
_geom_bond_atom_site_label_2
_geom_bond_distance
_geom_bond_site_symmetry_2
_ccdc_geom_bond_type
Gd0 N31 2.661 . S
Gd0 N37 2.601 . S
Gd0 O44 2.545 . S
Gd0 O45 2.606 . S
Gd0 O47 2.429 . S
Gd0 O48 2.545 . S
Gd0 O49 2.412 . S
Gd0 O51 2.362 . S
Gd0 O52 2.324 . S
Gd0 C59 2.828 . S
Gd1 N10 2.661 . S
Gd1 N14 2.601 . S
Gd1 O45 2.362 . S
Gd1 O46 2.324 . S
Gd1 O50 2.545 . S
Gd1 O51 2.606 . S
Gd1 O53 2.429 . S
Gd1 O54 2.545 . S
Gd1 O55 2.412 . S
Gd1 C68 2.828 . S
C2 C5 1.417 . S
C2 C7 1.431 . S
C2 C8 1.412 . S
C3 C6 1.437 . S
C3 C7 1.317 . S
C3 H22 0.929 . S
C4 C5 1.426 . S
C4 C6 1.413 . S
C4 N14 1.359 . S
C5 C2 1.417 . S
C5 C4 1.426 . S
C5 N10 1.350 . S
C6 C3 1.437 . S
C6 C4 1.413 . S
C6 C16 1.391 . S
C7 C2 1.431 . S
C7 C3 1.317 . S
C7 H18 0.930 . S
C8 C2 1.412 . S
C8 C9 1.355 . S
C8 H20 0.930 . S
C9 C8 1.355 . S
C9 C11 1.402 . S
C9 H21 0.930 . S
N10 Gd1 2.661 . S
N10 C5 1.350 . S
N10 C11 1.307 . S
C11 C9 1.402 . S
C11 N10 1.307 . S
C11 H12 0.930 . S
H12 C11 0.930 . S
C13 N14 1.334 . S
C13 C15 1.394 . S
C13 H17 0.930 . S
N14 Gd1 2.601 . S
N14 C4 1.359 . S
N14 C13 1.334 . S
C15 C13 1.394 . S
C15 C16 1.359 . S
C15 H27 0.930 . S
C16 C6 1.391 . S
C16 C15 1.359 . S
C16 H28 0.929 . S
H17 C13 0.930 . S
H18 C7 0.930 . S
H19 C36 0.930 . S
H20 C8 0.930 . S
H21 C9 0.930 . S
H22 C3 0.929 . S
H23 C41 0.930 . S
H24 C32 0.930 . S
H25 C33 0.930 . S
H26 C57 0.929 . S
H27 C15 0.930 . S
H28 C16 0.929 . S
H29 C58 0.930 . S
H30 C39 0.930 . S
N31 Gd0 2.661 . S
N31 C35 1.350 . S
N31 C36 1.307 . S
C32 H24 0.930 . S
C32 C33 1.355 . S
C32 C34 1.412 . S
C33 H25 0.930 . S
C33 C32 1.355 . S
C33 C36 1.402 . S
C34 C32 1.412 . S
C34 C35 1.417 . S
C34 C58 1.431 . S
C35 N31 1.350 . S
C35 C34 1.417 . S
C35 C38 1.426 . S
C36 H19 0.930 . S
C36 N31 1.307 . S
C36 C33 1.402 . S
N37 Gd0 2.601 . S
N37 C38 1.359 . S
N37 C41 1.334 . S
C38 C35 1.426 . S
C38 N37 1.359 . S
C38 C42 1.413 . S
C39 H30 0.930 . S
C39 C40 1.359 . S
C39 C41 1.394 . S
C40 C39 1.359 . S
C40 C42 1.391 . S
C40 H43 0.929 . S
C41 H23 0.930 . S
C41 N37 1.334 . S
C41 C39 1.394 . S
C42 C38 1.413 . S
C42 C40 1.391 . S
C42 C57 1.437 . S
H43 C40 0.929 . S
O44 Gd0 2.545 . S
O44 C59 1.258 . S
O45 Gd0 2.606 . S
O45 Gd1 2.362 . S
O45 C56 1.284 . S
O46 Gd1 2.324 . S
O46 C66 1.254 . S
O47 Gd0 2.429 . S
O47 C66 1.268 . S
O48 Gd0 2.545 . S
O48 C56 1.250 . S
O49 Gd0 2.412 . S
O49 C59 1.252 . S
O50 Gd1 2.545 . S
O50 C68 1.258 . S
O51 Gd0 2.362 . S
O51 Gd1 2.606 . S
O51 C67 1.284 . S
O52 Gd0 2.324 . S
O52 C75 1.254 . S
O53 Gd1 2.429 . S
O53 C75 1.268 . S
O54 Gd1 2.545 . S
O54 C67 1.250 . S
O55 Gd1 2.412 . S
O55 C68 1.252 . S
C56 O45 1.284 . S
C56 O48 1.250 . S
C57 H26 0.929 . S
C57 C42 1.437 . S
C57 C58 1.317 . S
C58 H29 0.930 . S
C58 C34 1.431 . S
C58 C57 1.317 . S
C59 Gd0 2.828 . S
C59 O44 1.258 . S
C59 O49 1.252 . S
C59 C60 1.497 . S
C60 C59 1.497 . S
C60 C61 1.395 . S
C60 C62 1.380 . S
C61 C60 1.395 . S
C61 C64 1.398 . S
C61 H76 0.930 . S
C62 C60 1.380 . S
C62 C63 1.391 . S
C62 H77 0.930 . S
C63 C62 1.391 . S
C63 C65 1.387 . S
C64 C61 1.398 . S
C64 C65 1.380 . S
C64 H78 0.930 . S
C65 C63 1.387 . S
C65 C64 1.380 . S
C65 H79 0.930 . S
C66 O46 1.254 . S
C66 O47 1.268 . S
C67 O51 1.284 . S
C67 O54 1.250 . S
C68 Gd1 2.828 . S
C68 O50 1.258 . S
C68 O55 1.252 . S
C68 C69 1.497 . S
C69 C68 1.497 . S
C69 C70 1.395 . S
C69 C71 1.380 . S
C70 C69 1.395 . S
C70 C73 1.398 . S
C70 H80 0.930 . S
C71 C69 1.380 . S
C71 C72 1.391 . S
C71 H81 0.930 . S
C72 C71 1.391 . S
C72 C74 1.387 . S
C73 C70 1.398 . S
C73 C74 1.380 . S
C73 H82 0.930 . S
C74 C72 1.387 . S
C74 C73 1.380 . S
C74 H83 0.930 . S
C75 O52 1.254 . S
C75 O53 1.268 . S
H76 C61 0.930 . S
H77 C62 0.930 . S
H78 C64 0.930 . S
H79 C65 0.930 . S
H80 C70 0.930 . S
H81 C71 0.930 . S
H82 C73 0.930 . S
H83 C74 0.930 . S
Gd84 N115 2.661 . S
Gd84 N121 2.601 . S
Gd84 O128 2.545 . S
Gd84 O129 2.606 . S
Gd84 O131 2.429 . S
Gd84 O132 2.545 . S
Gd84 O133 2.412 . S
Gd84 O135 2.362 . S
Gd84 O136 2.324 . S
Gd84 C143 2.828 . S
Gd85 N94 2.661 . S
Gd85 N98 2.601 . S
Gd85 O129 2.362 . S
Gd85 O130 2.324 . S
Gd85 O134 2.545 . S
Gd85 O135 2.606 . S
Gd85 O137 2.429 . S
Gd85 O138 2.545 . S
Gd85 O139 2.412 . S
Gd85 C152 2.828 . S
C86 C89 1.417 . S
C86 C91 1.431 . S
C86 C92 1.412 . S
C87 C90 1.437 . S
C87 C91 1.317 . S
C87 H106 0.929 . S
C88 C89 1.426 . S
C88 C90 1.413 . S
C88 N98 1.359 . S
C89 C86 1.417 . S
C89 C88 1.426 . S
C89 N94 1.350 . S
C90 C87 1.437 . S
C90 C88 1.413 . S
C90 C100 1.391 . S
C91 C86 1.431 . S
C91 C87 1.317 . S
C91 H102 0.930 . S
C92 C86 1.412 . S
C92 C93 1.355 . S
C92 H104 0.930 . S
C93 C92 1.355 . S
C93 C95 1.402 . S
C93 H105 0.930 . S
N94 Gd85 2.661 . S
N94 C89 1.350 . S
N94 C95 1.307 . S
C95 C93 1.402 . S
C95 N94 1.307 . S
C95 H96 0.930 . S
H96 C95 0.930 . S
C97 N98 1.334 . S
C97 C99 1.394 . S
C97 H101 0.930 . S
N98 Gd85 2.601 . S
N98 C88 1.359 . S
N98 C97 1.334 . S
C99 C97 1.394 . S
C99 C100 1.359 . S
C99 H111 0.930 . S
C100 C90 1.391 . S
C100 C99 1.359 . S
C100 H112 0.929 . S
H101 C97 0.930 . S
H102 C91 0.930 . S
H103 C120 0.930 . S
H104 C92 0.930 . S
H105 C93 0.930 . S
H106 C87 0.929 . S
H107 C125 0.930 . S
H108 C116 0.930 . S
H109 C117 0.930 . S
H110 C141 0.929 . S
H111 C99 0.930 . S
H112 C100 0.929 . S
H113 C142 0.930 . S
H114 C123 0.930 . S
N115 Gd84 2.661 . S
N115 C119 1.350 . S
N115 C120 1.307 . S
C116 H108 0.930 . S
C116 C117 1.355 . S
C116 C118 1.412 . S
C117 H109 0.930 . S
C117 C116 1.355 . S
C117 C120 1.402 . S
C118 C116 1.412 . S
C118 C119 1.417 . S
C118 C142 1.431 . S
C119 N115 1.350 . S
C119 C118 1.417 . S
C119 C122 1.426 . S
C120 H103 0.930 . S
C120 N115 1.307 . S
C120 C117 1.402 . S
N121 Gd84 2.601 . S
N121 C122 1.359 . S
N121 C125 1.334 . S
C122 C119 1.426 . S
C122 N121 1.359 . S
C122 C126 1.413 . S
C123 H114 0.930 . S
C123 C124 1.359 . S
C123 C125 1.394 . S
C124 C123 1.359 . S
C124 C126 1.391 . S
C124 H127 0.929 . S
C125 H107 0.930 . S
C125 N121 1.334 . S
C125 C123 1.394 . S
C126 C122 1.413 . S
C126 C124 1.391 . S
C126 C141 1.437 . S
H127 C124 0.929 . S
O128 Gd84 2.545 . S
O128 C143 1.258 . S
O129 Gd84 2.606 . S
O129 Gd85 2.362 . S
O129 C140 1.284 . S
O130 Gd85 2.324 . S
O130 C150 1.254 . S
O131 Gd84 2.429 . S
O131 C150 1.268 . S
O132 Gd84 2.545 . S
O132 C140 1.250 . S
O133 Gd84 2.412 . S
O133 C143 1.252 . S
O134 Gd85 2.545 . S
O134 C152 1.258 . S
O135 Gd84 2.362 . S
O135 Gd85 2.606 . S
O135 C151 1.284 . S
O136 Gd84 2.324 . S
O136 C159 1.254 . S
O137 Gd85 2.429 . S
O137 C159 1.268 . S
O138 Gd85 2.545 . S
O138 C151 1.250 . S
O139 Gd85 2.412 . S
O139 C152 1.252 . S
C140 O129 1.284 . S
C140 O132 1.250 . S
C141 H110 0.929 . S
C141 C126 1.437 . S
C141 C142 1.317 . S
C142 H113 0.930 . S
C142 C118 1.431 . S
C142 C141 1.317 . S
C143 Gd84 2.828 . S
C143 O128 1.258 . S
C143 O133 1.252 . S
C143 C144 1.497 . S
C144 C143 1.497 . S
C144 C145 1.395 . S
C144 C146 1.380 . S
C145 C144 1.395 . S
C145 C148 1.398 . S
C145 H160 0.930 . S
C146 C144 1.380 . S
C146 C147 1.391 . S
C146 H161 0.930 . S
C147 C146 1.391 . S
C147 C149 1.387 . S
C148 C145 1.398 . S
C148 C149 1.380 . S
C148 H162 0.930 . S
C149 C147 1.387 . S
C149 C148 1.380 . S
C149 H163 0.930 . S
C150 O130 1.254 . S
C150 O131 1.268 . S
C151 O135 1.284 . S
C151 O138 1.250 . S
C152 Gd85 2.828 . S
C152 O134 1.258 . S
C152 O139 1.252 . S
C152 C153 1.497 . S
C153 C152 1.497 . S
C153 C154 1.395 . S
C153 C155 1.380 . S
C154 C153 1.395 . S
C154 C157 1.398 . S
C154 H164 0.930 . S
C155 C153 1.380 . S
C155 C156 1.391 . S
C155 H165 0.930 . S
C156 C155 1.391 . S
C156 C158 1.387 . S
C157 C154 1.398 . S
C157 C158 1.380 . S
C157 H166 0.930 . S
C158 C156 1.387 . S
C158 C157 1.380 . S
C158 H167 0.930 . S
C159 O136 1.254 . S
C159 O137 1.268 . S
H160 C145 0.930 . S
H161 C146 0.930 . S
H162 C148 0.930 . S
H163 C149 0.930 . S
H164 C154 0.930 . S
H165 C155 0.930 . S
H166 C157 0.930 . S
H167 C158 0.930 . S
Gd168 N199 2.661 . S
Gd168 N205 2.601 . S
Gd168 O212 2.545 . S
Gd168 O213 2.606 . S
Gd168 O215 2.429 . S
Gd168 O216 2.545 . S
Gd168 O217 2.412 . S
Gd168 O219 2.362 . S
Gd168 O220 2.324 . S
Gd168 C227 2.828 . S
Gd169 N178 2.661 . S
Gd169 N182 2.601 . S
Gd169 O213 2.362 . S
Gd169 O214 2.324 . S
Gd169 O218 2.545 . S
Gd169 O219 2.606 . S
Gd169 O221 2.429 . S
Gd169 O222 2.545 . S
Gd169 O223 2.412 . S
Gd169 C236 2.828 . S
C170 C173 1.417 . S
C170 C175 1.431 . S
C170 C176 1.412 . S
C171 C174 1.437 . S
C171 C175 1.317 . S
C171 H190 0.929 . S
C172 C173 1.426 . S
C172 C174 1.413 . S
C172 N182 1.359 . S
C173 C170 1.417 . S
C173 C172 1.426 . S
C173 N178 1.350 . S
C174 C171 1.437 . S
C174 C172 1.413 . S
C174 C184 1.391 . S
C175 C170 1.431 . S
C175 C171 1.317 . S
C175 H186 0.930 . S
C176 C170 1.412 . S
C176 C177 1.355 . S
C176 H188 0.930 . S
C177 C176 1.355 . S
C177 C179 1.402 . S
C177 H189 0.930 . S
N178 Gd169 2.661 . S
N178 C173 1.350 . S
N178 C179 1.307 . S
C179 C177 1.402 . S
C179 N178 1.307 . S
C179 H180 0.930 . S
H180 C179 0.930 . S
C181 N182 1.334 . S
C181 C183 1.394 . S
C181 H185 0.930 . S
N182 Gd169 2.601 . S
N182 C172 1.359 . S
N182 C181 1.334 . S
C183 C181 1.394 . S
C183 C184 1.359 . S
C183 H195 0.930 . S
C184 C174 1.391 . S
C184 C183 1.359 . S
C184 H196 0.929 . S
H185 C181 0.930 . S
H186 C175 0.930 . S
H187 C204 0.930 . S
H188 C176 0.930 . S
H189 C177 0.930 . S
H190 C171 0.929 . S
H191 C209 0.930 . S
H192 C200 0.930 . S
H193 C201 0.930 . S
H194 C225 0.929 . S
H195 C183 0.930 . S
H196 C184 0.929 . S
H197 C226 0.930 . S
H198 C207 0.930 . S
N199 Gd168 2.661 . S
N199 C203 1.350 . S
N199 C204 1.307 . S
C200 H192 0.930 . S
C200 C201 1.355 . S
C200 C202 1.412 . S
C201 H193 0.930 . S
C201 C200 1.355 . S
C201 C204 1.402 . S
C202 C200 1.412 . S
C202 C203 1.417 . S
C202 C226 1.431 . S
C203 N199 1.350 . S
C203 C202 1.417 . S
C203 C206 1.426 . S
C204 H187 0.930 . S
C204 N199 1.307 . S
C204 C201 1.402 . S
N205 Gd168 2.601 . S
N205 C206 1.359 . S
N205 C209 1.334 . S
C206 C203 1.426 . S
C206 N205 1.359 . S
C206 C210 1.413 . S
C207 H198 0.930 . S
C207 C208 1.359 . S
C207 C209 1.394 . S
C208 C207 1.359 . S
C208 C210 1.391 . S
C208 H211 0.929 . S
C209 H191 0.930 . S
C209 N205 1.334 . S
C209 C207 1.394 . S
C210 C206 1.413 . S
C210 C208 1.391 . S
C210 C225 1.437 . S
H211 C208 0.929 . S
O212 Gd168 2.545 . S
O212 C227 1.258 . S
O213 Gd168 2.606 . S
O213 Gd169 2.362 . S
O213 C224 1.284 . S
O214 Gd169 2.324 . S
O214 C234 1.254 . S
O215 Gd168 2.429 . S
O215 C234 1.268 . S
O216 Gd168 2.545 . S
O216 C224 1.250 . S
O217 Gd168 2.412 . S
O217 C227 1.252 . S
O218 Gd169 2.545 . S
O218 C236 1.258 . S
O219 Gd168 2.362 . S
O219 Gd169 2.606 . S
O219 C235 1.284 . S
O220 Gd168 2.324 . S
O220 C243 1.254 . S
O221 Gd169 2.429 . S
O221 C243 1.268 . S
O222 Gd169 2.545 . S
O222 C235 1.250 . S
O223 Gd169 2.412 . S
O223 C236 1.252 . S
C224 O213 1.284 . S
C224 O216 1.250 . S
C225 H194 0.929 . S
C225 C210 1.437 . S
C225 C226 1.317 . S
C226 H197 0.930 . S
C226 C202 1.431 . S
C226 C225 1.317 . S
C227 Gd168 2.828 . S
C227 O212 1.258 . S
C227 O217 1.252 . S
C227 C228 1.497 . S
C228 C227 1.497 . S
C228 C229 1.395 . S
C228 C230 1.380 . S
C229 C228 1.395 . S
C229 C232 1.398 . S
C229 H244 0.930 . S
C230 C228 1.380 . S
C230 C231 1.391 . S
C230 H245 0.930 . S
C231 C230 1.391 . S
C231 C233 1.387 . S
C232 C229 1.398 . S
C232 C233 1.380 . S
C232 H246 0.930 . S
C233 C231 1.387 . S
C233 C232 1.380 . S
C233 H247 0.930 . S
C234 O214 1.254 . S
C234 O215 1.268 . S
C235 O219 1.284 . S
C235 O222 1.250 . S
C236 Gd169 2.828 . S
C236 O218 1.258 . S
C236 O223 1.252 . S
C236 C237 1.497 . S
C237 C236 1.497 . S
C237 C238 1.395 . S
C237 C239 1.380 . S
C238 C237 1.395 . S
C238 C241 1.398 . S
C238 H248 0.930 . S
C239 C237 1.380 . S
C239 C240 1.391 . S
C239 H249 0.930 . S
C240 C239 1.391 . S
C240 C242 1.387 . S
C241 C238 1.398 . S
C241 C242 1.380 . S
C241 H250 0.930 . S
C242 C240 1.387 . S
C242 C241 1.380 . S
C242 H251 0.930 . S
C243 O220 1.254 . S
C243 O221 1.268 . S
H244 C229 0.930 . S
H245 C230 0.930 . S
H246 C232 0.930 . S
H247 C233 0.930 . S
H248 C238 0.930 . S
H249 C239 0.930 . S
H250 C241 0.930 . S
H251 C242 0.930 . S
Gd252 N283 2.661 . S
Gd252 N289 2.601 . S
Gd252 O296 2.545 . S
Gd252 O297 2.606 . S
Gd252 O299 2.429 . S
Gd252 O300 2.545 . S
Gd252 O301 2.412 . S
Gd252 O303 2.362 . S
Gd252 O304 2.324 . S
Gd252 C311 2.828 . S
Gd253 N262 2.661 . S
Gd253 N266 2.601 . S
Gd253 O297 2.362 . S
Gd253 O298 2.324 . S
Gd253 O302 2.545 . S
Gd253 O303 2.606 . S
Gd253 O305 2.429 . S
Gd253 O306 2.545 . S
Gd253 O307 2.412 . S
Gd253 C320 2.828 . S
C254 C257 1.417 . S
C254 C259 1.431 . S
C254 C260 1.412 . S
C255 C258 1.437 . S
C255 C259 1.317 . S
C255 H274 0.929 . S
C256 C257 1.426 . S
C256 C258 1.413 . S
C256 N266 1.359 . S
C257 C254 1.417 . S
C257 C256 1.426 . S
C257 N262 1.350 . S
C258 C255 1.437 . S
C258 C256 1.413 . S
C258 C268 1.391 . S
C259 C254 1.431 . S
C259 C255 1.317 . S
C259 H270 0.930 . S
C260 C254 1.412 . S
C260 C261 1.355 . S
C260 H272 0.930 . S
C261 C260 1.355 . S
C261 C263 1.402 . S
C261 H273 0.930 . S
N262 Gd253 2.661 . S
N262 C257 1.350 . S
N262 C263 1.307 . S
C263 C261 1.402 . S
C263 N262 1.307 . S
C263 H264 0.930 . S
H264 C263 0.930 . S
C265 N266 1.334 . S
C265 C267 1.394 . S
C265 H269 0.930 . S
N266 Gd253 2.601 . S
N266 C256 1.359 . S
N266 C265 1.334 . S
C267 C265 1.394 . S
C267 C268 1.359 . S
C267 H279 0.930 . S
C268 C258 1.391 . S
C268 C267 1.359 . S
C268 H280 0.929 . S
H269 C265 0.930 . S
H270 C259 0.930 . S
H271 C288 0.930 . S
H272 C260 0.930 . S
H273 C261 0.930 . S
H274 C255 0.929 . S
H275 C293 0.930 . S
H276 C284 0.930 . S
H277 C285 0.930 . S
H278 C309 0.929 . S
H279 C267 0.930 . S
H280 C268 0.929 . S
H281 C310 0.930 . S
H282 C291 0.930 . S
N283 Gd252 2.661 . S
N283 C287 1.350 . S
N283 C288 1.307 . S
C284 H276 0.930 . S
C284 C285 1.355 . S
C284 C286 1.412 . S
C285 H277 0.930 . S
C285 C284 1.355 . S
C285 C288 1.402 . S
C286 C284 1.412 . S
C286 C287 1.417 . S
C286 C310 1.431 . S
C287 N283 1.350 . S
C287 C286 1.417 . S
C287 C290 1.426 . S
C288 H271 0.930 . S
C288 N283 1.307 . S
C288 C285 1.402 . S
N289 Gd252 2.601 . S
N289 C290 1.359 . S
N289 C293 1.334 . S
C290 C287 1.426 . S
C290 N289 1.359 . S
C290 C294 1.413 . S
C291 H282 0.930 . S
C291 C292 1.359 . S
C291 C293 1.394 . S
C292 C291 1.359 . S
C292 C294 1.391 . S
C292 H295 0.929 . S
C293 H275 0.930 . S
C293 N289 1.334 . S
C293 C291 1.394 . S
C294 C290 1.413 . S
C294 C292 1.391 . S
C294 C309 1.437 . S
H295 C292 0.929 . S
O296 Gd252 2.545 . S
O296 C311 1.258 . S
O297 Gd252 2.606 . S
O297 Gd253 2.362 . S
O297 C308 1.284 . S
O298 Gd253 2.324 . S
O298 C318 1.254 . S
O299 Gd252 2.429 . S
O299 C318 1.268 . S
O300 Gd252 2.545 . S
O300 C308 1.250 . S
O301 Gd252 2.412 . S
O301 C311 1.252 . S
O302 Gd253 2.545 . S
O302 C320 1.258 . S
O303 Gd252 2.362 . S
O303 Gd253 2.606 . S
O303 C319 1.284 . S
O304 Gd252 2.324 . S
O304 C327 1.254 . S
O305 Gd253 2.429 . S
O305 C327 1.268 . S
O306 Gd253 2.545 . S
O306 C319 1.250 . S
O307 Gd253 2.412 . S
O307 C320 1.252 . S
C308 O297 1.284 . S
C308 O300 1.250 . S
C309 H278 0.929 . S
C309 C294 1.437 . S
C309 C310 1.317 . S
C310 H281 0.930 . S
C310 C286 1.431 . S
C310 C309 1.317 . S
C311 Gd252 2.828 . S
C311 O296 1.258 . S
C311 O301 1.252 . S
C311 C312 1.497 . S
C312 C311 1.497 . S
C312 C313 1.395 . S
C312 C314 1.380 . S
C313 C312 1.395 . S
C313 C316 1.398 . S
C313 H328 0.930 . S
C314 C312 1.380 . S
C314 C315 1.391 . S
C314 H329 0.930 . S
C315 C314 1.391 . S
C315 C317 1.387 . S
C316 C313 1.398 . S
C316 C317 1.380 . S
C316 H330 0.930 . S
C317 C315 1.387 . S
C317 C316 1.380 . S
C317 H331 0.930 . S
C318 O298 1.254 . S
C318 O299 1.268 . S
C319 O303 1.284 . S
C319 O306 1.250 . S
C320 Gd253 2.828 . S
C320 O302 1.258 . S
C320 O307 1.252 . S
C320 C321 1.497 . S
C321 C320 1.497 . S
C321 C322 1.395 . S
C321 C323 1.380 . S
C322 C321 1.395 . S
C322 C325 1.398 . S
C322 H332 0.930 . S
C323 C321 1.380 . S
C323 C324 1.391 . S
C323 H333 0.930 . S
C324 C323 1.391 . S
C324 C326 1.387 . S
C325 C322 1.398 . S
C325 C326 1.380 . S
C325 H334 0.930 . S
C326 C324 1.387 . S
C326 C325 1.380 . S
C326 H335 0.930 . S
C327 O304 1.254 . S
C327 O305 1.268 . S
H328 C313 0.930 . S
H329 C314 0.930 . S
H330 C316 0.930 . S
H331 C317 0.930 . S
H332 C322 0.930 . S
H333 C323 0.930 . S
H334 C325 0.930 . S
H335 C326 0.930 . S
Gd336 N367 2.661 . S
Gd336 N373 2.601 . S
Gd336 O380 2.545 . S
Gd336 O381 2.606 . S
Gd336 O383 2.429 . S
Gd336 O384 2.545 . S
Gd336 O385 2.412 . S
Gd336 O387 2.362 . S
Gd336 O388 2.324 . S
Gd336 C395 2.828 . S
Gd337 N346 2.661 . S
Gd337 N350 2.601 . S
Gd337 O381 2.362 . S
Gd337 O382 2.324 . S
Gd337 O386 2.545 . S
Gd337 O387 2.606 . S
Gd337 O389 2.429 . S
Gd337 O390 2.545 . S
Gd337 O391 2.412 . S
Gd337 C404 2.828 . S
C338 C341 1.417 . S
C338 C343 1.431 . S
C338 C344 1.412 . S
C339 C342 1.437 . S
C339 C343 1.317 . S
C339 H358 0.929 . S
C340 C341 1.426 . S
C340 C342 1.413 . S
C340 N350 1.359 . S
C341 C338 1.417 . S
C341 C340 1.426 . S
C341 N346 1.350 . S
C342 C339 1.437 . S
C342 C340 1.413 . S
C342 C352 1.391 . S
C343 C338 1.431 . S
C343 C339 1.317 . S
C343 H354 0.930 . S
C344 C338 1.412 . S
C344 C345 1.355 . S
C344 H356 0.930 . S
C345 C344 1.355 . S
C345 C347 1.402 . S
C345 H357 0.930 . S
N346 Gd337 2.661 . S
N346 C341 1.350 . S
N346 C347 1.307 . S
C347 C345 1.402 . S
C347 N346 1.307 . S
C347 H348 0.930 . S
H348 C347 0.930 . S
C349 N350 1.334 . S
C349 C351 1.394 . S
C349 H353 0.930 . S
N350 Gd337 2.601 . S
N350 C340 1.359 . S
N350 C349 1.334 . S
C351 C349 1.394 . S
C351 C352 1.359 . S
C351 H363 0.930 . S
C352 C342 1.391 . S
C352 C351 1.359 . S
C352 H364 0.929 . S
H353 C349 0.930 . S
H354 C343 0.930 . S
H355 C372 0.930 . S
H356 C344 0.930 . S
H357 C345 0.930 . S
H358 C339 0.929 . S
H359 C377 0.930 . S
H360 C368 0.930 . S
H361 C369 0.930 . S
H362 C393 0.929 . S
H363 C351 0.930 . S
H364 C352 0.929 . S
H365 C394 0.930 . S
H366 C375 0.930 . S
N367 Gd336 2.661 . S
N367 C371 1.350 . S
N367 C372 1.307 . S
C368 H360 0.930 . S
C368 C369 1.355 . S
C368 C370 1.412 . S
C369 H361 0.930 . S
C369 C368 1.355 . S
C369 C372 1.402 . S
C370 C368 1.412 . S
C370 C371 1.417 . S
C370 C394 1.431 . S
C371 N367 1.350 . S
C371 C370 1.417 . S
C371 C374 1.426 . S
C372 H355 0.930 . S
C372 N367 1.307 . S
C372 C369 1.402 . S
N373 Gd336 2.601 . S
N373 C374 1.359 . S
N373 C377 1.334 . S
C374 C371 1.426 . S
C374 N373 1.359 . S
C374 C378 1.413 . S
C375 H366 0.930 . S
C375 C376 1.359 . S
C375 C377 1.394 . S
C376 C375 1.359 . S
C376 C378 1.391 . S
C376 H379 0.929 . S
C377 H359 0.930 . S
C377 N373 1.334 . S
C377 C375 1.394 . S
C378 C374 1.413 . S
C378 C376 1.391 . S
C378 C393 1.437 . S
H379 C376 0.929 . S
O380 Gd336 2.545 . S
O380 C395 1.258 . S
O381 Gd336 2.606 . S
O381 Gd337 2.362 . S
O381 C392 1.284 . S
O382 Gd337 2.324 . S
O382 C402 1.254 . S
O383 Gd336 2.429 . S
O383 C402 1.268 . S
O384 Gd336 2.545 . S
O384 C392 1.250 . S
O385 Gd336 2.412 . S
O385 C395 1.252 . S
O386 Gd337 2.545 . S
O386 C404 1.258 . S
O387 Gd336 2.362 . S
O387 Gd337 2.606 . S
O387 C403 1.284 . S
O388 Gd336 2.324 . S
O388 C411 1.254 . S
O389 Gd337 2.429 . S
O389 C411 1.268 . S
O390 Gd337 2.545 . S
O390 C403 1.250 . S
O391 Gd337 2.412 . S
O391 C404 1.252 . S
C392 O381 1.284 . S
C392 O384 1.250 . S
C393 H362 0.929 . S
C393 C378 1.437 . S
C393 C394 1.317 . S
C394 H365 0.930 . S
C394 C370 1.431 . S
C394 C393 1.317 . S
C395 Gd336 2.828 . S
C395 O380 1.258 . S
C395 O385 1.252 . S
C395 C396 1.497 . S
C396 C395 1.497 . S
C396 C397 1.395 . S
C396 C398 1.380 . S
C397 C396 1.395 . S
C397 C400 1.398 . S
C397 H412 0.930 . S
C398 C396 1.380 . S
C398 C399 1.391 . S
C398 H413 0.930 . S
C399 C398 1.391 . S
C399 C401 1.387 . S
C400 C397 1.398 . S
C400 C401 1.380 . S
C400 H414 0.930 . S
C401 C399 1.387 . S
C401 C400 1.380 . S
C401 H415 0.930 . S
C402 O382 1.254 . S
C402 O383 1.268 . S
C403 O387 1.284 . S
C403 O390 1.250 . S
C404 Gd337 2.828 . S
C404 O386 1.258 . S
C404 O391 1.252 . S
C404 C405 1.497 . S
C405 C404 1.497 . S
C405 C406 1.395 . S
C405 C407 1.380 . S
C406 C405 1.395 . S
C406 C409 1.398 . S
C406 H416 0.930 . S
C407 C405 1.380 . S
C407 C408 1.391 . S
C407 H417 0.930 . S
C408 C407 1.391 . S
C408 C410 1.387 . S
C409 C406 1.398 . S
C409 C410 1.380 . S
C409 H418 0.930 . S
C410 C408 1.387 . S
C410 C409 1.380 . S
C410 H419 0.930 . S
C411 O388 1.254 . S
C411 O389 1.268 . S
H412 C397 0.930 . S
H413 C398 0.930 . S
H414 C400 0.930 . S
H415 C401 0.930 . S
H416 C406 0.930 . S
H417 C407 0.930 . S
H418 C409 0.930 . S
H419 C410 0.930 . S
Gd420 N451 2.661 . S
Gd420 N457 2.601 . S
Gd420 O464 2.545 . S
Gd420 O465 2.606 . S
Gd420 O467 2.429 . S
Gd420 O468 2.545 . S
Gd420 O469 2.412 . S
Gd420 O471 2.362 . S
Gd420 O472 2.324 . S
Gd420 C479 2.828 . S
Gd421 N430 2.661 . S
Gd421 N434 2.601 . S
Gd421 O465 2.362 . S
Gd421 O466 2.324 . S
Gd421 O470 2.545 . S
Gd421 O471 2.606 . S
Gd421 O473 2.429 . S
Gd421 O474 2.545 . S
Gd421 O475 2.412 . S
Gd421 C488 2.828 . S
C422 C425 1.417 . S
C422 C427 1.431 . S
C422 C428 1.412 . S
C423 C426 1.437 . S
C423 C427 1.317 . S
C423 H442 0.929 . S
C424 C425 1.426 . S
C424 C426 1.413 . S
C424 N434 1.359 . S
C425 C422 1.417 . S
C425 C424 1.426 . S
C425 N430 1.350 . S
C426 C423 1.437 . S
C426 C424 1.413 . S
C426 C436 1.391 . S
C427 C422 1.431 . S
C427 C423 1.317 . S
C427 H438 0.930 . S
C428 C422 1.412 . S
C428 C429 1.355 . S
C428 H440 0.930 . S
C429 C428 1.355 . S
C429 C431 1.402 . S
C429 H441 0.930 . S
N430 Gd421 2.661 . S
N430 C425 1.350 . S
N430 C431 1.307 . S
C431 C429 1.402 . S
C431 N430 1.307 . S
C431 H432 0.930 . S
H432 C431 0.930 . S
C433 N434 1.334 . S
C433 C435 1.394 . S
C433 H437 0.930 . S
N434 Gd421 2.601 . S
N434 C424 1.359 . S
N434 C433 1.334 . S
C435 C433 1.394 . S
C435 C436 1.359 . S
C435 H447 0.930 . S
C436 C426 1.391 . S
C436 C435 1.359 . S
C436 H448 0.929 . S
H437 C433 0.930 . S
H438 C427 0.930 . S
H439 C456 0.930 . S
H440 C428 0.930 . S
H441 C429 0.930 . S
H442 C423 0.929 . S
H443 C461 0.930 . S
H444 C452 0.930 . S
H445 C453 0.930 . S
H446 C477 0.929 . S
H447 C435 0.930 . S
H448 C436 0.929 . S
H449 C478 0.930 . S
H450 C459 0.930 . S
N451 Gd420 2.661 . S
N451 C455 1.350 . S
N451 C456 1.307 . S
C452 H444 0.930 . S
C452 C453 1.355 . S
C452 C454 1.412 . S
C453 H445 0.930 . S
C453 C452 1.355 . S
C453 C456 1.402 . S
C454 C452 1.412 . S
C454 C455 1.417 . S
C454 C478 1.431 . S
C455 N451 1.350 . S
C455 C454 1.417 . S
C455 C458 1.426 . S
C456 H439 0.930 . S
C456 N451 1.307 . S
C456 C453 1.402 . S
N457 Gd420 2.601 . S
N457 C458 1.359 . S
N457 C461 1.334 . S
C458 C455 1.426 . S
C458 N457 1.359 . S
C458 C462 1.413 . S
C459 H450 0.930 . S
C459 C460 1.359 . S
C459 C461 1.394 . S
C460 C459 1.359 . S
C460 C462 1.391 . S
C460 H463 0.929 . S
C461 H443 0.930 . S
C461 N457 1.334 . S
C461 C459 1.394 . S
C462 C458 1.413 . S
C462 C460 1.391 . S
C462 C477 1.437 . S
H463 C460 0.929 . S
O464 Gd420 2.545 . S
O464 C479 1.258 . S
O465 Gd420 2.606 . S
O465 Gd421 2.362 . S
O465 C476 1.284 . S
O466 Gd421 2.324 . S
O466 C486 1.254 . S
O467 Gd420 2.429 . S
O467 C486 1.268 . S
O468 Gd420 2.545 . S
O468 C476 1.250 . S
O469 Gd420 2.412 . S
O469 C479 1.252 . S
O470 Gd421 2.545 . S
O470 C488 1.258 . S
O471 Gd420 2.362 . S
O471 Gd421 2.606 . S
O471 C487 1.284 . S
O472 Gd420 2.324 . S
O472 C495 1.254 . S
O473 Gd421 2.429 . S
O473 C495 1.268 . S
O474 Gd421 2.545 . S
O474 C487 1.250 . S
O475 Gd421 2.412 . S
O475 C488 1.252 . S
C476 O465 1.284 . S
C476 O468 1.250 . S
C477 H446 0.929 . S
C477 C462 1.437 . S
C477 C478 1.317 . S
C478 H449 0.930 . S
C478 C454 1.431 . S
C478 C477 1.317 . S
C479 Gd420 2.828 . S
C479 O464 1.258 . S
C479 O469 1.252 . S
C479 C480 1.497 . S
C480 C479 1.497 . S
C480 C481 1.395 . S
C480 C482 1.380 . S
C481 C480 1.395 . S
C481 C484 1.398 . S
C481 H496 0.930 . S
C482 C480 1.380 . S
C482 C483 1.391 . S
C482 H497 0.930 . S
C483 C482 1.391 . S
C483 C485 1.387 . S
C484 C481 1.398 . S
C484 C485 1.380 . S
C484 H498 0.930 . S
C485 C483 1.387 . S
C485 C484 1.380 . S
C485 H499 0.930 . S
C486 O466 1.254 . S
C486 O467 1.268 . S
C487 O471 1.284 . S
C487 O474 1.250 . S
C488 Gd421 2.828 . S
C488 O470 1.258 . S
C488 O475 1.252 . S
C488 C489 1.497 . S
C489 C488 1.497 . S
C489 C490 1.395 . S
C489 C491 1.380 . S
C490 C489 1.395 . S
C490 C493 1.398 . S
C490 H500 0.930 . S
C491 C489 1.380 . S
C491 C492 1.391 . S
C491 H501 0.930 . S
C492 C491 1.391 . S
C492 C494 1.387 . S
C493 C490 1.398 . S
C493 C494 1.380 . S
C493 H502 0.930 . S
C494 C492 1.387 . S
C494 C493 1.380 . S
C494 H503 0.930 . S
C495 O472 1.254 . S
C495 O473 1.268 . S
H496 C481 0.930 . S
H497 C482 0.930 . S
H498 C484 0.930 . S
H499 C485 0.930 . S
H500 C490 0.930 . S
H501 C491 0.930 . S
H502 C493 0.930 . S
H503 C494 0.930 . S
Gd504 N535 2.661 . S
Gd504 N541 2.601 . S
Gd504 O548 2.545 . S
Gd504 O549 2.606 . S
Gd504 O551 2.429 . S
Gd504 O552 2.545 . S
Gd504 O553 2.412 . S
Gd504 O555 2.362 . S
Gd504 O556 2.324 . S
Gd504 C563 2.828 . S
Gd505 N514 2.661 . S
Gd505 N518 2.601 . S
Gd505 O549 2.362 . S
Gd505 O550 2.324 . S
Gd505 O554 2.545 . S
Gd505 O555 2.606 . S
Gd505 O557 2.429 . S
Gd505 O558 2.545 . S
Gd505 O559 2.412 . S
Gd505 C572 2.828 . S
C506 C509 1.417 . S
C506 C511 1.431 . S
C506 C512 1.412 . S
C507 C510 1.437 . S
C507 C511 1.317 . S
C507 H526 0.929 . S
C508 C509 1.426 . S
C508 C510 1.413 . S
C508 N518 1.359 . S
C509 C506 1.417 . S
C509 C508 1.426 . S
C509 N514 1.350 . S
C510 C507 1.437 . S
C510 C508 1.413 . S
C510 C520 1.391 . S
C511 C506 1.431 . S
C511 C507 1.317 . S
C511 H522 0.930 . S
C512 C506 1.412 . S
C512 C513 1.355 . S
C512 H524 0.930 . S
C513 C512 1.355 . S
C513 C515 1.402 . S
C513 H525 0.930 . S
N514 Gd505 2.661 . S
N514 C509 1.350 . S
N514 C515 1.307 . S
C515 C513 1.402 . S
C515 N514 1.307 . S
C515 H516 0.930 . S
H516 C515 0.930 . S
C517 N518 1.334 . S
C517 C519 1.394 . S
C517 H521 0.930 . S
N518 Gd505 2.601 . S
N518 C508 1.359 . S
N518 C517 1.334 . S
C519 C517 1.394 . S
C519 C520 1.359 . S
C519 H531 0.930 . S
C520 C510 1.391 . S
C520 C519 1.359 . S
C520 H532 0.929 . S
H521 C517 0.930 . S
H522 C511 0.930 . S
H523 C540 0.930 . S
H524 C512 0.930 . S
H525 C513 0.930 . S
H526 C507 0.929 . S
H527 C545 0.930 . S
H528 C536 0.930 . S
H529 C537 0.930 . S
H530 C561 0.929 . S
H531 C519 0.930 . S
H532 C520 0.929 . S
H533 C562 0.930 . S
H534 C543 0.930 . S
N535 Gd504 2.661 . S
N535 C539 1.350 . S
N535 C540 1.307 . S
C536 H528 0.930 . S
C536 C537 1.355 . S
C536 C538 1.412 . S
C537 H529 0.930 . S
C537 C536 1.355 . S
C537 C540 1.402 . S
C538 C536 1.412 . S
C538 C539 1.417 . S
C538 C562 1.431 . S
C539 N535 1.350 . S
C539 C538 1.417 . S
C539 C542 1.426 . S
C540 H523 0.930 . S
C540 N535 1.307 . S
C540 C537 1.402 . S
N541 Gd504 2.601 . S
N541 C542 1.359 . S
N541 C545 1.334 . S
C542 C539 1.426 . S
C542 N541 1.359 . S
C542 C546 1.413 . S
C543 H534 0.930 . S
C543 C544 1.359 . S
C543 C545 1.394 . S
C544 C543 1.359 . S
C544 C546 1.391 . S
C544 H547 0.929 . S
C545 H527 0.930 . S
C545 N541 1.334 . S
C545 C543 1.394 . S
C546 C542 1.413 . S
C546 C544 1.391 . S
C546 C561 1.437 . S
H547 C544 0.929 . S
O548 Gd504 2.545 . S
O548 C563 1.258 . S
O549 Gd504 2.606 . S
O549 Gd505 2.362 . S
O549 C560 1.284 . S
O550 Gd505 2.324 . S
O550 C570 1.254 . S
O551 Gd504 2.429 . S
O551 C570 1.268 . S
O552 Gd504 2.545 . S
O552 C560 1.250 . S
O553 Gd504 2.412 . S
O553 C563 1.252 . S
O554 Gd505 2.545 . S
O554 C572 1.258 . S
O555 Gd504 2.362 . S
O555 Gd505 2.606 . S
O555 C571 1.284 . S
O556 Gd504 2.324 . S
O556 C579 1.254 . S
O557 Gd505 2.429 . S
O557 C579 1.268 . S
O558 Gd505 2.545 . S
O558 C571 1.250 . S
O559 Gd505 2.412 . S
O559 C572 1.252 . S
C560 O549 1.284 . S
C560 O552 1.250 . S
C561 H530 0.929 . S
C561 C546 1.437 . S
C561 C562 1.317 . S
C562 H533 0.930 . S
C562 C538 1.431 . S
C562 C561 1.317 . S
C563 Gd504 2.828 . S
C563 O548 1.258 . S
C563 O553 1.252 . S
C563 C564 1.497 . S
C564 C563 1.497 . S
C564 C565 1.395 . S
C564 C566 1.380 . S
C565 C564 1.395 . S
C565 C568 1.398 . S
C565 H580 0.930 . S
C566 C564 1.380 . S
C566 C567 1.391 . S
C566 H581 0.930 . S
C567 C566 1.391 . S
C567 C569 1.387 . S
C568 C565 1.398 . S
C568 C569 1.380 . S
C568 H582 0.930 . S
C569 C567 1.387 . S
C569 C568 1.380 . S
C569 H583 0.930 . S
C570 O550 1.254 . S
C570 O551 1.268 . S
C571 O555 1.284 . S
C571 O558 1.250 . S
C572 Gd505 2.828 . S
C572 O554 1.258 . S
C572 O559 1.252 . S
C572 C573 1.497 . S
C573 C572 1.497 . S
C573 C574 1.395 . S
C573 C575 1.380 . S
C574 C573 1.395 . S
C574 C577 1.398 . S
C574 H584 0.930 . S
C575 C573 1.380 . S
C575 C576 1.391 . S
C575 H585 0.930 . S
C576 C575 1.391 . S
C576 C578 1.387 . S
C577 C574 1.398 . S
C577 C578 1.380 . S
C577 H586 0.930 . S
C578 C576 1.387 . S
C578 C577 1.380 . S
C578 H587 0.930 . S
C579 O556 1.254 . S
C579 O557 1.268 . S
H580 C565 0.930 . S
H581 C566 0.930 . S
H582 C568 0.930 . S
H583 C569 0.930 . S
H584 C574 0.930 . S
H585 C575 0.930 . S
H586 C577 0.930 . S
H587 C578 0.930 . S
Gd588 N619 2.661 . S
Gd588 N625 2.601 . S
Gd588 O632 2.545 . S
Gd588 O633 2.606 . S
Gd588 O635 2.429 . S
Gd588 O636 2.545 . S
Gd588 O637 2.412 . S
Gd588 O639 2.362 . S
Gd588 O640 2.324 . S
Gd588 C647 2.828 . S
Gd589 N598 2.661 . S
Gd589 N602 2.601 . S
Gd589 O633 2.362 . S
Gd589 O634 2.324 . S
Gd589 O638 2.545 . S
Gd589 O639 2.606 . S
Gd589 O641 2.429 . S
Gd589 O642 2.545 . S
Gd589 O643 2.412 . S
Gd589 C656 2.828 . S
C590 C593 1.417 . S
C590 C595 1.431 . S
C590 C596 1.412 . S
C591 C594 1.437 . S
C591 C595 1.317 . S
C591 H610 0.929 . S
C592 C593 1.426 . S
C592 C594 1.413 . S
C592 N602 1.359 . S
C593 C590 1.417 . S
C593 C592 1.426 . S
C593 N598 1.350 . S
C594 C591 1.437 . S
C594 C592 1.413 . S
C594 C604 1.391 . S
C595 C590 1.431 . S
C595 C591 1.317 . S
C595 H606 0.930 . S
C596 C590 1.412 . S
C596 C597 1.355 . S
C596 H608 0.930 . S
C597 C596 1.355 . S
C597 C599 1.402 . S
C597 H609 0.930 . S
N598 Gd589 2.661 . S
N598 C593 1.350 . S
N598 C599 1.307 . S
C599 C597 1.402 . S
C599 N598 1.307 . S
C599 H600 0.930 . S
H600 C599 0.930 . S
C601 N602 1.334 . S
C601 C603 1.394 . S
C601 H605 0.930 . S
N602 Gd589 2.601 . S
N602 C592 1.359 . S
N602 C601 1.334 . S
C603 C601 1.394 . S
C603 C604 1.359 . S
C603 H615 0.930 . S
C604 C594 1.391 . S
C604 C603 1.359 . S
C604 H616 0.929 . S
H605 C601 0.930 . S
H606 C595 0.930 . S
H607 C624 0.930 . S
H608 C596 0.930 . S
H609 C597 0.930 . S
H610 C591 0.929 . S
H611 C629 0.930 . S
H612 C620 0.930 . S
H613 C621 0.930 . S
H614 C645 0.929 . S
H615 C603 0.930 . S
H616 C604 0.929 . S
H617 C646 0.930 . S
H618 C627 0.930 . S
N619 Gd588 2.661 . S
N619 C623 1.350 . S
N619 C624 1.307 . S
C620 H612 0.930 . S
C620 C621 1.355 . S
C620 C622 1.412 . S
C621 H613 0.930 . S
C621 C620 1.355 . S
C621 C624 1.402 . S
C622 C620 1.412 . S
C622 C623 1.417 . S
C622 C646 1.431 . S
C623 N619 1.350 . S
C623 C622 1.417 . S
C623 C626 1.426 . S
C624 H607 0.930 . S
C624 N619 1.307 . S
C624 C621 1.402 . S
N625 Gd588 2.601 . S
N625 C626 1.359 . S
N625 C629 1.334 . S
C626 C623 1.426 . S
C626 N625 1.359 . S
C626 C630 1.413 . S
C627 H618 0.930 . S
C627 C628 1.359 . S
C627 C629 1.394 . S
C628 C627 1.359 . S
C628 C630 1.391 . S
C628 H631 0.929 . S
C629 H611 0.930 . S
C629 N625 1.334 . S
C629 C627 1.394 . S
C630 C626 1.413 . S
C630 C628 1.391 . S
C630 C645 1.437 . S
H631 C628 0.929 . S
O632 Gd588 2.545 . S
O632 C647 1.258 . S
O633 Gd588 2.606 . S
O633 Gd589 2.362 . S
O633 C644 1.284 . S
O634 Gd589 2.324 . S
O634 C654 1.254 . S
O635 Gd588 2.429 . S
O635 C654 1.268 . S
O636 Gd588 2.545 . S
O636 C644 1.250 . S
O637 Gd588 2.412 . S
O637 C647 1.252 . S
O638 Gd589 2.545 . S
O638 C656 1.258 . S
O639 Gd588 2.362 . S
O639 Gd589 2.606 . S
O639 C655 1.284 . S
O640 Gd588 2.324 . S
O640 C663 1.254 . S
O641 Gd589 2.429 . S
O641 C663 1.268 . S
O642 Gd589 2.545 . S
O642 C655 1.250 . S
O643 Gd589 2.412 . S
O643 C656 1.252 . S
C644 O633 1.284 . S
C644 O636 1.250 . S
C645 H614 0.929 . S
C645 C630 1.437 . S
C645 C646 1.317 . S
C646 H617 0.930 . S
C646 C622 1.431 . S
C646 C645 1.317 . S
C647 Gd588 2.828 . S
C647 O632 1.258 . S
C647 O637 1.252 . S
C647 C648 1.497 . S
C648 C647 1.497 . S
C648 C649 1.395 . S
C648 C650 1.380 . S
C649 C648 1.395 . S
C649 C652 1.398 . S
C649 H664 0.930 . S
C650 C648 1.380 . S
C650 C651 1.391 . S
C650 H665 0.930 . S
C651 C650 1.391 . S
C651 C653 1.387 . S
C652 C649 1.398 . S
C652 C653 1.380 . S
C652 H666 0.930 . S
C653 C651 1.387 . S
C653 C652 1.380 . S
C653 H667 0.930 . S
C654 O634 1.254 . S
C654 O635 1.268 . S
C655 O639 1.284 . S
C655 O642 1.250 . S
C656 Gd589 2.828 . S
C656 O638 1.258 . S
C656 O643 1.252 . S
C656 C657 1.497 . S
C657 C656 1.497 . S
C657 C658 1.395 . S
C657 C659 1.380 . S
C658 C657 1.395 . S
C658 C661 1.398 . S
C658 H668 0.930 . S
C659 C657 1.380 . S
C659 C660 1.391 . S
C659 H669 0.930 . S
C660 C659 1.391 . S
C660 C662 1.387 . S
C661 C658 1.398 . S
C661 C662 1.380 . S
C661 H670 0.930 . S
C662 C660 1.387 . S
C662 C661 1.380 . S
C662 H671 0.930 . S
C663 O640 1.254 . S
C663 O641 1.268 . S
H664 C649 0.930 . S
H665 C650 0.930 . S
H666 C652 0.930 . S
H667 C653 0.930 . S
H668 C658 0.930 . S
H669 C659 0.930 . S
H670 C661 0.930 . S
H671 C662 0.930 . S
Fe672 O673 1.886 1_455 S
Fe672 O676 1.715 . S
Fe672 O681 2.077 1_455 S
Fe672 O686 1.935 . S
Fe672 O692 2.077 1_455 S
Fe672 O701 1.935 . S
O673 Fe672 1.886 1_655 S
O673 Fe675 1.715 . S
Fe674 O676 1.886 . S
Fe674 O677 1.715 1_545 S
Fe674 O684 1.936 1_545 S
Fe674 O685 2.077 . S
Fe674 O691 1.935 1_545 S
Fe674 O700 2.077 . S
Fe675 O673 1.715 . S
Fe675 O678 1.886 1_545 S
Fe675 O682 1.935 . S
Fe675 O687 2.077 1_545 S
Fe675 O693 1.935 . S
Fe675 O697 2.077 1_545 S
O676 Fe672 1.715 . S
O676 Fe674 1.886 . S
O677 Fe674 1.715 1_565 S
O677 Fe679 1.886 . S
O678 Fe675 1.886 1_565 S
O678 Fe679 1.715 1_655 S
Fe679 O677 1.886 . S
Fe679 O678 1.715 1_455 S
Fe679 O683 2.077 . S
Fe679 O688 1.935 1_455 S
Fe679 O690 2.077 . S
Fe679 O698 1.935 1_455 S
C680 O692 1.381 . S
C680 O693 1.421 . S
O681 Fe672 2.077 1_655 S
O681 C694 1.381 . S
O682 Fe675 1.935 . S
O682 C694 1.421 . S
O683 Fe679 2.077 . S
O683 C699 1.381 . S
O684 Fe674 1.936 1_565 S
O684 C699 1.419 . S
O685 Fe674 2.077 . S
O685 C689 1.381 . S
O686 Fe672 1.935 . S
O686 C689 1.421 . S
O687 Fe675 2.077 1_565 S
O687 C695 1.381 . S
O688 Fe679 1.935 1_655 S
O688 C695 1.421 . S
C689 O685 1.381 . S
C689 O686 1.421 . S
O690 Fe679 2.077 . S
O690 C702 1.381 . S
O691 Fe674 1.935 1_565 S
O691 C702 1.421 . S
O692 Fe672 2.077 1_655 S
O692 C680 1.381 . S
O693 Fe675 1.935 . S
O693 C680 1.421 . S
C694 O681 1.381 . S
C694 O682 1.421 . S
C695 O687 1.381 . S
C695 O688 1.421 . S
C696 O697 1.381 . S
C696 O698 1.421 . S
O697 Fe675 2.077 1_565 S
O697 C696 1.381 . S
O698 Fe679 1.935 1_655 S
O698 C696 1.421 . S
C699 O683 1.381 . S
C699 O684 1.419 . S
O700 Fe674 2.077 . S
O700 C703 1.381 . S
O701 Fe672 1.935 . S
O701 C703 1.421 . S
C702 O690 1.381 . S
C702 O691 1.421 . S
C703 O700 1.381 . S
C703 O701 1.421 . S
Fe704 O705 1.886 1_565 S
Fe704 O708 1.715 . S
Fe704 O713 2.077 1_554 S
Fe704 O718 1.935 1_554 S
Fe704 O724 2.077 . S
Fe704 O733 1.935 . S
O705 Fe704 1.886 1_545 S
O705 Fe707 1.715 . S
Fe706 O708 1.886 1_546 S
Fe706 O709 1.715 . S
Fe706 O716 1.943 . S
Fe706 O717 2.084 1_545 S
Fe706 O723 1.927 1_556 S
Fe706 O732 2.070 1_546 S
Fe707 O705 1.715 . S
Fe707 O710 1.884 . S
Fe707 O714 1.935 1_554 S
Fe707 O719 2.077 1_554 S
Fe707 O725 1.935 . S
Fe707 O729 2.077 . S
O708 Fe704 1.715 . S
O708 Fe706 1.886 1_564 S
O709 Fe706 1.715 . S
O709 Fe711 1.886 . S
O710 Fe707 1.884 . S
O710 Fe711 1.718 1_554 S
Fe711 O709 1.886 . S
Fe711 O710 1.718 1_556 S
Fe711 O715 2.090 . S
Fe711 O720 1.951 . S
Fe711 O722 2.063 1_556 S
Fe711 O730 1.920 1_556 S
C712 O724 1.381 . S
C712 O725 1.421 1_565 S
O713 Fe704 2.077 1_556 S
O713 C726 1.381 . S
O714 Fe707 1.935 1_556 S
O714 C726 1.421 1_545 S
O715 Fe711 2.090 . S
O715 C731 1.381 . S
O716 Fe706 1.943 . S
O716 C731 1.421 . S
O717 Fe706 2.084 1_565 S
O717 C721 1.381 . S
O718 Fe704 1.935 1_556 S
O718 C721 1.421 . S
O719 Fe707 2.077 1_556 S
O719 C727 1.381 . S
O720 Fe711 1.951 . S
O720 C727 1.421 . S
C721 O717 1.381 . S
C721 O718 1.421 . S
O722 Fe711 2.063 1_554 S
O722 C734 1.381 . S
O723 Fe706 1.927 1_554 S
O723 C734 1.421 . S
O724 Fe704 2.077 . S
O724 C712 1.381 . S
O725 Fe707 1.935 . S
O725 C712 1.421 1_545 S
C726 O713 1.381 . S
C726 O714 1.421 1_565 S
C727 O719 1.381 . S
C727 O720 1.421 . S
C728 O729 1.381 . S
C728 O730 1.421 . S
O729 Fe707 2.077 . S
O729 C728 1.381 . S
O730 Fe711 1.920 1_554 S
O730 C728 1.421 . S
C731 O715 1.381 . S
C731 O716 1.421 . S
O732 Fe706 2.070 1_564 S
O732 C735 1.381 . S
O733 Fe704 1.935 . S
O733 C735 1.421 . S
C734 O722 1.381 . S
C734 O723 1.421 . S
C735 O732 1.381 . S
C735 O733 1.421 . S
Fe736 O737 1.886 1_455 S
Fe736 O740 1.715 . S
Fe736 O745 2.077 1_455 S
Fe736 O750 1.935 . S
Fe736 O756 2.077 1_455 S
Fe736 O765 1.935 . S
O737 Fe736 1.886 1_655 S
O737 Fe739 1.715 . S
Fe738 O740 1.886 . S
Fe738 O741 1.715 . S
Fe738 O748 1.935 . S
Fe738 O749 2.077 . S
Fe738 O755 1.935 . S
Fe738 O764 2.077 . S
Fe739 O737 1.715 . S
Fe739 O742 1.886 . S
Fe739 O746 1.935 . S
Fe739 O751 2.077 . S
Fe739 O757 1.935 . S
Fe739 O761 2.077 . S
O740 Fe736 1.715 . S
O740 Fe738 1.886 . S
O741 Fe738 1.715 . S
O741 Fe743 1.886 1_455 S
O742 Fe739 1.886 . S
O742 Fe743 1.715 . S
Fe743 O741 1.886 1_655 S
Fe743 O742 1.715 . S
Fe743 O747 2.077 1_655 S
Fe743 O752 1.935 . S
Fe743 O754 2.077 1_655 S
Fe743 O762 1.935 . S
C744 O756 1.381 . S
C744 O757 1.421 . S
O745 Fe736 2.077 1_655 S
O745 C758 1.378 1_554 S
O746 Fe739 1.935 . S
O746 C758 1.419 1_554 S
O747 Fe743 2.077 1_455 S
O747 C763 1.381 . S
O748 Fe738 1.935 . S
O748 C763 1.421 . S
O749 Fe738 2.077 . S
O749 C753 1.381 . S
O750 Fe736 1.935 . S
O750 C753 1.421 . S
O751 Fe739 2.077 . S
O751 C759 1.381 . S
O752 Fe743 1.935 . S
O752 C759 1.421 . S
C753 O749 1.381 . S
C753 O750 1.421 . S
O754 Fe743 2.077 1_455 S
O754 C766 1.381 . S
O755 Fe738 1.935 . S
O755 C766 1.421 . S
O756 Fe736 2.077 1_655 S
O756 C744 1.381 . S
O757 Fe739 1.935 . S
O757 C744 1.421 . S
C758 O745 1.378 1_556 S
C758 O746 1.419 1_556 S
C759 O751 1.381 . S
C759 O752 1.421 . S
C760 O761 1.381 . S
C760 O762 1.421 . S
O761 Fe739 2.077 . S
O761 C760 1.381 . S
O762 Fe743 1.935 . S
O762 C760 1.421 . S
C763 O747 1.381 . S
C763 O748 1.421 . S
O764 Fe738 2.077 . S
O764 C767 1.381 . S
O765 Fe736 1.935 . S
O765 C767 1.421 . S
C766 O754 1.381 . S
C766 O755 1.421 . S
C767 O764 1.381 . S
C767 O765 1.421 . S
Fe768 O769 1.886 . S
Fe768 O772 1.715 . S
Fe768 O777 2.077 . S
Fe768 O782 1.935 . S
Fe768 O788 2.077 . S
Fe768 O797 1.935 . S
O769 Fe768 1.886 . S
O769 Fe771 1.715 1_556 S
Fe770 O772 1.886 1_554 S
Fe770 O773 1.715 . S
Fe770 O780 1.935 . S
Fe770 O781 2.077 1_554 S
Fe770 O787 1.935 . S
Fe770 O796 2.077 1_554 S
Fe771 O769 1.715 1_554 S
Fe771 O774 1.886 . S
Fe771 O778 1.947 . S
Fe771 O783 2.077 . S
Fe771 O789 1.935 . S
Fe771 O793 2.077 . S
O772 Fe768 1.715 . S
O772 Fe770 1.886 1_556 S
O773 Fe770 1.715 . S
O773 Fe775 1.886 . S
O774 Fe771 1.886 . S
O774 Fe775 1.715 . S
Fe775 O773 1.886 . S
Fe775 O774 1.715 . S
Fe775 O779 2.077 . S
Fe775 O784 1.935 . S
Fe775 O786 2.077 . S
Fe775 O794 1.935 . S
C776 O788 1.381 . S
C776 O789 1.421 1_556 S
O777 Fe768 2.077 . S
O777 C790 1.381 . S
O778 Fe771 1.947 . S
O778 C790 1.400 1_554 S
O779 Fe775 2.077 . S
O779 C795 1.381 . S
O780 Fe770 1.935 . S
O780 C795 1.421 . S
O781 Fe770 2.077 1_556 S
O781 C785 1.381 . S
O782 Fe768 1.935 . S
O782 C785 1.421 . S
O783 Fe771 2.077 . S
O783 C791 1.381 . S
O784 Fe775 1.935 . S
O784 C791 1.421 . S
C785 O781 1.381 . S
C785 O782 1.421 . S
O786 Fe775 2.077 . S
O786 C798 1.381 . S
O787 Fe770 1.935 . S
O787 C798 1.421 . S
O788 Fe768 2.077 . S
O788 C776 1.381 . S
O789 Fe771 1.935 . S
O789 C776 1.421 1_554 S
C790 O777 1.381 . S
C790 O778 1.400 1_556 S
C791 O783 1.381 . S
C791 O784 1.421 . S
C792 O793 1.381 . S
C792 O794 1.421 . S
O793 Fe771 2.077 . S
O793 C792 1.381 . S
O794 Fe775 1.935 . S
O794 C792 1.421 . S
C795 O779 1.381 . S
C795 O780 1.421 . S
O796 Fe770 2.077 1_556 S
O796 C799 1.381 . S
O797 Fe768 1.935 . S
O797 C799 1.421 . S
C798 O786 1.381 . S
C798 O787 1.421 . S
C799 O796 1.381 . S
C799 O797 1.421 . S
Fe800 O801 1.886 . S
Fe800 O804 1.715 . S
Fe800 O809 2.077 . S
Fe800 O814 1.935 . S
Fe800 O820 2.077 1_455 S
Fe800 O829 1.935 1_455 S
O801 Fe800 1.886 . S
O801 Fe803 1.715 . S
Fe802 O804 1.886 . S
Fe802 O805 1.715 . S
Fe802 O812 1.935 . S
Fe802 O813 2.077 . S
Fe802 O819 1.935 1_455 S
Fe802 O828 2.077 1_455 S
Fe803 O801 1.715 . S
Fe803 O806 1.886 . S
Fe803 O810 1.935 . S
Fe803 O815 2.077 . S
Fe803 O821 1.935 1_455 S
Fe803 O825 2.087 . S
O804 Fe800 1.715 . S
O804 Fe802 1.886 . S
O805 Fe802 1.715 . S
O805 Fe807 1.886 . S
O806 Fe803 1.886 . S
O806 Fe807 1.715 . S
Fe807 O805 1.886 . S
Fe807 O806 1.715 . S
Fe807 O811 2.077 . S
Fe807 O816 1.935 . S
Fe807 O818 2.077 . S
Fe807 O826 1.974 . S
C808 O820 1.381 . S
C808 O821 1.421 . S
O809 Fe800 2.077 . S
O809 C822 1.381 . S
O810 Fe803 1.935 . S
O810 C822 1.421 . S
O811 Fe807 2.077 . S
O811 C827 1.381 . S
O812 Fe802 1.935 . S
O812 C827 1.421 . S
O813 Fe802 2.077 . S
O813 C817 1.381 . S
O814 Fe800 1.935 . S
O814 C817 1.421 . S
O815 Fe803 2.077 . S
O815 C823 1.381 . S
O816 Fe807 1.935 . S
O816 C823 1.421 . S
C817 O813 1.381 . S
C817 O814 1.421 . S
O818 Fe807 2.077 . S
O818 C830 1.381 1_455 S
O819 Fe802 1.935 1_655 S
O819 C830 1.421 . S
O820 Fe800 2.077 1_655 S
O820 C808 1.381 . S
O821 Fe803 1.935 1_655 S
O821 C808 1.421 . S
C822 O809 1.381 . S
C822 O810 1.421 . S
C823 O815 1.381 . S
C823 O816 1.421 . S
C824 O825 1.376 1_655 S
C824 O826 1.411 1_655 S
O825 Fe803 2.087 . S
O825 C824 1.376 1_455 S
O826 Fe807 1.974 . S
O826 C824 1.411 1_455 S
C827 O811 1.381 . S
C827 O812 1.421 . S
O828 Fe802 2.077 1_655 S
O828 C831 1.381 . S
O829 Fe800 1.935 1_655 S
O829 C831 1.421 . S
C830 O818 1.381 1_655 S
C830 O819 1.421 . S
C831 O828 1.381 . S
C831 O829 1.421 . S
Fe832 O833 1.886 . S
Fe832 O836 1.715 . S
Fe832 O841 2.077 . S
Fe832 O846 1.935 . S
Fe832 O852 2.077 . S
Fe832 O861 1.935 . S
O833 Fe832 1.886 . S
O833 Fe835 1.715 1_565 S
Fe834 O836 1.886 1_545 S
Fe834 O837 1.715 . S
Fe834 O844 1.935 . S
Fe834 O845 2.077 1_545 S
Fe834 O851 1.935 . S
Fe834 O860 2.077 1_545 S
Fe835 O833 1.715 1_545 S
Fe835 O838 1.886 . S
Fe835 O842 1.935 1_545 S
Fe835 O847 2.077 . S
Fe835 O853 1.935 1_545 S
Fe835 O857 2.077 . S
O836 Fe832 1.715 . S
O836 Fe834 1.886 1_565 S
O837 Fe834 1.715 . S
O837 Fe839 1.886 . S
O838 Fe835 1.886 . S
O838 Fe839 1.715 . S
Fe839 O837 1.886 . S
Fe839 O838 1.715 . S
Fe839 O843 2.077 . S
Fe839 O848 1.935 . S
Fe839 O850 2.077 . S
Fe839 O858 1.935 . S
C840 O852 1.381 . S
C840 O853 1.421 . S
O841 Fe832 2.077 . S
O841 C854 1.381 . S
O842 Fe835 1.935 1_565 S
O842 C854 1.421 . S
O843 Fe839 2.077 . S
O843 C859 1.381 . S
O844 Fe834 1.935 . S
O844 C859 1.421 . S
O845 Fe834 2.077 1_565 S
O845 C849 1.381 . S
O846 Fe832 1.935 . S
O846 C849 1.421 . S
O847 Fe835 2.077 . S
O847 C855 1.381 . S
O848 Fe839 1.935 . S
O848 C855 1.421 . S
C849 O845 1.381 . S
C849 O846 1.421 . S
O850 Fe839 2.077 . S
O850 C862 1.381 . S
O851 Fe834 1.935 . S
O851 C862 1.421 . S
O852 Fe832 2.077 . S
O852 C840 1.381 . S
O853 Fe835 1.935 1_565 S
O853 C840 1.421 . S
C854 O841 1.381 . S
C854 O842 1.421 . S
C855 O847 1.381 . S
C855 O848 1.421 . S
C856 O857 1.381 . S
C856 O858 1.421 . S
O857 Fe835 2.077 . S
O857 C856 1.381 . S
O858 Fe839 1.935 . S
O858 C856 1.421 . S
C859 O843 1.381 . S
C859 O844 1.421 . S
O860 Fe834 2.077 1_565 S
O860 C863 1.381 . S
O861 Fe832 1.935 . S
O861 C863 1.421 . S
C862 O850 1.381 . S
C862 O851 1.421 . S
C863 O860 1.381 . S
C863 O861 1.421 . S
H864 C882 0.951 . S
H865 C884 0.951 . S
H866 C886 0.950 . S
H867 C887 0.950 . S
H868 C889 0.950 . S
H869 C892 0.950 . S
H870 C893 0.950 . S
H871 C895 0.950 . S
H872 C896 0.950 . S
H873 C897 0.951 . S
H874 C899 0.951 . S
H875 C901 0.950 . S
H876 C902 0.950 . S
H877 C904 0.950 . S
H878 C907 0.950 . S
H879 C908 0.950 . S
H880 C910 0.950 . S
H881 C911 0.950 . S
C882 H864 0.951 . S
C882 C883 1.366 . S
C882 C884 1.388 . S
C883 C882 1.366 . S
C883 C887 1.385 . S
C884 H865 0.951 . S
C884 C882 1.388 . S
C884 C885 1.366 . S
C885 C884 1.366 . S
C885 C886 1.414 . S
C885 C888 1.499 . S
C886 H866 0.950 . S
C886 C885 1.414 . S
C886 C887 1.374 . S
C887 H867 0.950 . S
C887 C883 1.385 . S
C887 C886 1.374 . S
C888 C885 1.499 . S
C888 C889 1.373 . S
C888 C890 1.389 . S
C889 H868 0.950 . S
C889 C888 1.373 . S
C889 C905 1.377 . S
C890 C888 1.389 . S
C890 C891 1.524 . S
C890 C904 1.377 . S
C891 C890 1.524 . S
C891 C892 1.397 . S
C891 C896 1.363 . S
C892 H869 0.950 . S
C892 C891 1.397 . S
C892 C893 1.334 . S
C893 H870 0.950 . S
C893 C892 1.334 . S
C893 C894 1.287 . S
C894 C893 1.287 . S
C894 C895 1.524 . S
C894 H913 0.913 . S
C895 H871 0.950 . S
C895 C894 1.524 . S
C895 C896 1.415 . S
C896 H872 0.950 . S
C896 C891 1.363 . S
C896 C895 1.415 . S
C897 H873 0.951 . S
C897 C898 1.366 . S
C897 C899 1.388 . S
C898 C897 1.366 . S
C898 C902 1.385 . S
C899 H874 0.951 . S
C899 C897 1.388 . S
C899 C900 1.366 . S
C900 C899 1.366 . S
C900 C901 1.414 . S
C900 C903 1.499 . S
C901 H875 0.950 . S
C901 C900 1.414 . S
C901 C902 1.374 . S
C902 H876 0.950 . S
C902 C898 1.385 . S
C902 C901 1.374 . S
C903 C900 1.499 . S
C903 C904 1.373 . S
C903 C905 1.389 . S
C904 H877 0.950 . S
C904 C890 1.377 . S
C904 C903 1.373 . S
C905 C889 1.377 . S
C905 C903 1.389 . S
C905 C906 1.524 . S
C906 C905 1.524 . S
C906 C907 1.397 . S
C906 C911 1.363 . S
C907 H878 0.950 . S
C907 C906 1.397 . S
C907 C908 1.334 . S
C908 H879 0.950 . S
C908 C907 1.334 . S
C908 C909 1.287 . S
C909 C908 1.287 . S
C909 C910 1.524 . S
C909 H912 0.999 . S
C910 H880 0.950 . S
C910 C909 1.524 . S
C910 C911 1.415 . S
C911 H881 0.950 . S
C911 C906 1.363 . S
C911 C910 1.415 . S
H912 C909 0.999 . S
H913 C894 0.913 . S
H914 C932 0.951 . S
H915 C934 0.951 . S
H916 C936 0.950 . S
H917 C937 0.950 . S
H918 C939 0.950 . S
H919 C942 0.950 . S
H920 C943 0.950 . S
H921 C945 0.950 . S
H922 C946 0.950 . S
H923 C947 0.951 . S
H924 C949 0.951 . S
H925 C951 0.950 . S
H926 C952 0.950 . S
H927 C954 0.950 . S
H928 C957 0.950 . S
H929 C958 0.950 . S
H930 C960 0.950 . S
H931 C961 0.950 . S
C932 H914 0.951 . S
C932 C933 1.366 . S
C932 C934 1.388 . S
C933 C932 1.366 . S
C933 C937 1.385 . S
C934 H915 0.951 . S
C934 C932 1.388 . S
C934 C935 1.366 . S
C935 C934 1.366 . S
C935 C936 1.414 . S
C935 C938 1.499 . S
C936 H916 0.950 . S
C936 C935 1.414 . S
C936 C937 1.374 . S
C937 H917 0.950 . S
C937 C933 1.385 . S
C937 C936 1.374 . S
C938 C935 1.499 . S
C938 C939 1.373 . S
C938 C940 1.389 . S
C939 H918 0.950 . S
C939 C938 1.373 . S
C939 C955 1.377 . S
C940 C938 1.389 . S
C940 C941 1.524 . S
C940 C954 1.377 . S
C941 C940 1.524 . S
C941 C942 1.397 . S
C941 C946 1.363 . S
C942 H919 0.950 . S
C942 C941 1.397 . S
C942 C943 1.334 . S
C943 H920 0.950 . S
C943 C942 1.334 . S
C943 C944 1.287 . S
C944 C943 1.287 . S
C944 C945 1.524 . S
C944 H963 0.913 . S
C945 H921 0.950 . S
C945 C944 1.524 . S
C945 C946 1.415 . S
C946 H922 0.950 . S
C946 C941 1.363 . S
C946 C945 1.415 . S
C947 H923 0.951 . S
C947 C948 1.366 . S
C947 C949 1.388 . S
C948 C947 1.366 . S
C948 C952 1.385 . S
C949 H924 0.951 . S
C949 C947 1.388 . S
C949 C950 1.366 . S
C950 C949 1.366 . S
C950 C951 1.414 . S
C950 C953 1.499 . S
C951 H925 0.950 . S
C951 C950 1.414 . S
C951 C952 1.374 . S
C952 H926 0.950 . S
C952 C948 1.385 . S
C952 C951 1.374 . S
C953 C950 1.499 . S
C953 C954 1.373 . S
C953 C955 1.389 . S
C954 H927 0.950 . S
C954 C940 1.377 . S
C954 C953 1.373 . S
C955 C939 1.377 . S
C955 C953 1.389 . S
C955 C956 1.524 . S
C956 C955 1.524 . S
C956 C957 1.397 . S
C956 C961 1.363 . S
C957 H928 0.950 . S
C957 C956 1.397 . S
C957 C958 1.334 . S
C958 H929 0.950 . S
C958 C957 1.334 . S
C958 C959 1.287 . S
C959 C958 1.287 . S
C959 C960 1.524 . S
C959 H962 0.999 . S
C960 H930 0.950 . S
C960 C959 1.524 . S
C960 C961 1.415 . S
C961 H931 0.950 . S
C961 C956 1.363 . S
C961 C960 1.415 . S
H962 C959 0.999 . S
H963 C944 0.913 . S
H964 C982 0.951 . S
H965 C984 0.951 . S
H966 C986 0.950 . S
H967 C987 0.950 . S
H968 C989 0.950 . S
H969 C992 0.950 . S
H970 C993 0.950 . S
H971 C995 0.950 . S
H972 C996 0.950 . S
H973 C997 0.951 . S
H974 C999 0.951 . S
H975 C1001 0.950 . S
H976 C1002 0.950 . S
H977 C1004 0.950 . S
H978 C1007 0.950 . S
H979 C1008 0.950 . S
H980 C1010 0.950 . S
H981 C1011 0.950 . S
C982 H964 0.951 . S
C982 C983 1.366 . S
C982 C984 1.388 . S
C983 C982 1.366 . S
C983 C987 1.385 . S
C984 H965 0.951 . S
C984 C982 1.388 . S
C984 C985 1.366 . S
C985 C984 1.366 . S
C985 C986 1.414 . S
C985 C988 1.499 . S
C986 H966 0.950 . S
C986 C985 1.414 . S
C986 C987 1.374 . S
C987 H967 0.950 . S
C987 C983 1.385 . S
C987 C986 1.374 . S
C988 C985 1.499 . S
C988 C989 1.373 . S
C988 C990 1.389 . S
C989 H968 0.950 . S
C989 C988 1.373 . S
C989 C1005 1.377 . S
C990 C988 1.389 . S
C990 C991 1.524 . S
C990 C1004 1.377 . S
C991 C990 1.524 . S
C991 C992 1.397 . S
C991 C996 1.363 . S
C992 H969 0.950 . S
C992 C991 1.397 . S
C992 C993 1.334 . S
C993 H970 0.950 . S
C993 C992 1.334 . S
C993 C994 1.287 . S
C994 C993 1.287 . S
C994 C995 1.524 . S
C994 H1013 0.913 . S
C995 H971 0.950 . S
C995 C994 1.524 . S
C995 C996 1.415 . S
C996 H972 0.950 . S
C996 C991 1.363 . S
C996 C995 1.415 . S
C997 H973 0.951 . S
C997 C998 1.366 . S
C997 C999 1.388 . S
C998 C997 1.366 . S
C998 C1002 1.385 . S
C999 H974 0.951 . S
C999 C997 1.388 . S
C999 C1000 1.366 . S
C1000 C999 1.366 . S
C1000 C1001 1.414 . S
C1000 C1003 1.499 . S
C1001 H975 0.950 . S
C1001 C1000 1.414 . S
C1001 C1002 1.374 . S
C1002 H976 0.950 . S
C1002 C998 1.385 . S
C1002 C1001 1.374 . S
C1003 C1000 1.499 . S
C1003 C1004 1.373 . S
C1003 C1005 1.389 . S
C1004 H977 0.950 . S
C1004 C990 1.377 . S
C1004 C1003 1.373 . S
C1005 C989 1.377 . S
C1005 C1003 1.389 . S
C1005 C1006 1.524 . S
C1006 C1005 1.524 . S
C1006 C1007 1.397 . S
C1006 C1011 1.363 . S
C1007 H978 0.950 . S
C1007 C1006 1.397 . S
C1007 C1008 1.334 . S
C1008 H979 0.950 . S
C1008 C1007 1.334 . S
C1008 C1009 1.287 . S
C1009 C1008 1.287 . S
C1009 C1010 1.524 . S
C1009 H1012 0.999 . S
C1010 H980 0.950 . S
C1010 C1009 1.524 . S
C1010 C1011 1.415 . S
C1011 H981 0.950 . S
C1011 C1006 1.363 . S
C1011 C1010 1.415 . S
H1012 C1009 0.999 . S
H1013 C994 0.913 . S
H1014 C1032 0.951 . S
H1015 C1034 0.951 . S
H1016 C1036 0.950 . S
H1017 C1037 0.950 . S
H1018 C1039 0.950 . S
H1019 C1042 0.950 . S
H1020 C1043 0.950 . S
H1021 C1045 0.950 . S
H1022 C1046 0.950 . S
H1023 C1047 0.960 . S
H1024 C1049 0.951 . S
H1025 C1051 0.950 . S
H1026 C1052 0.950 . S
H1027 C1054 0.950 . S
H1028 C1057 0.950 . S
H1029 C1058 0.950 . S
H1030 C1060 0.950 . S
H1031 C1061 0.950 . S
C1032 H1014 0.951 . S
C1032 C1033 1.366 . S
C1032 C1034 1.388 . S
C1033 C1032 1.366 . S
C1033 C1037 1.385 . S
C1034 H1015 0.951 . S
C1034 C1032 1.388 . S
C1034 C1035 1.366 . S
C1035 C1034 1.366 . S
C1035 C1036 1.414 . S
C1035 C1038 1.499 . S
C1036 H1016 0.950 . S
C1036 C1035 1.414 . S
C1036 C1037 1.374 . S
C1037 H1017 0.950 . S
C1037 C1033 1.385 . S
C1037 C1036 1.374 . S
C1038 C1035 1.499 . S
C1038 C1039 1.373 . S
C1038 C1040 1.389 . S
C1039 H1018 0.950 . S
C1039 C1038 1.373 . S
C1039 C1055 1.377 . S
C1040 C1038 1.389 . S
C1040 C1041 1.524 . S
C1040 C1054 1.377 . S
C1041 C1040 1.524 . S
C1041 C1042 1.397 . S
C1041 C1046 1.363 . S
C1042 H1019 0.950 . S
C1042 C1041 1.397 . S
C1042 C1043 1.334 . S
C1043 H1020 0.950 . S
C1043 C1042 1.334 . S
C1043 C1044 1.287 . S
C1044 C1043 1.287 . S
C1044 C1045 1.524 . S
C1044 H1063 0.913 . S
C1045 H1021 0.950 . S
C1045 C1044 1.524 . S
C1045 C1046 1.415 . S
C1046 H1022 0.950 . S
C1046 C1041 1.363 . S
C1046 C1045 1.415 . S
C1047 H1023 0.960 . S
C1047 C1048 1.366 . S
C1047 C1049 1.388 . S
C1048 C1047 1.366 . S
C1048 C1052 1.385 . S
C1049 H1024 0.951 . S
C1049 C1047 1.388 . S
C1049 C1050 1.366 . S
C1050 C1049 1.366 . S
C1050 C1051 1.414 . S
C1050 C1053 1.499 . S
C1051 H1025 0.950 . S
C1051 C1050 1.414 . S
C1051 C1052 1.374 . S
C1052 H1026 0.950 . S
C1052 C1048 1.385 . S
C1052 C1051 1.374 . S
C1053 C1050 1.499 . S
C1053 C1054 1.373 . S
C1053 C1055 1.389 . S
C1054 H1027 0.950 . S
C1054 C1040 1.377 . S
C1054 C1053 1.373 . S
C1055 C1039 1.377 . S
C1055 C1053 1.389 . S
C1055 C1056 1.524 . S
C1056 C1055 1.524 . S
C1056 C1057 1.397 . S
C1056 C1061 1.363 . S
C1057 H1028 0.950 . S
C1057 C1056 1.397 . S
C1057 C1058 1.334 . S
C1058 H1029 0.950 . S
C1058 C1057 1.334 . S
C1058 C1059 1.287 . S
C1059 C1058 1.287 . S
C1059 C1060 1.524 . S
C1059 H1062 0.999 . S
C1060 H1030 0.950 . S
C1060 C1059 1.524 . S
C1060 C1061 1.415 . S
C1061 H1031 0.950 . S
C1061 C1056 1.363 . S
C1061 C1060 1.415 . S
H1062 C1059 0.999 . S
H1063 C1044 0.913 . S
H1064 C1082 0.951 . S
H1065 C1084 0.951 . S
H1066 C1086 0.950 . S
H1067 C1087 0.950 . S
H1068 C1089 0.950 . S
H1069 C1092 0.950 . S
H1070 C1093 0.950 . S
H1071 C1095 0.950 . S
H1072 C1096 0.950 . S
H1073 C1097 0.951 1_545 S
H1074 C1099 0.951 . S
H1075 C1101 0.950 . S
H1076 C1102 0.950 . S
H1077 C1104 0.950 . S
H1078 C1107 0.950 . S
H1079 C1108 0.950 . S
H1080 C1110 0.950 . S
H1081 C1111 0.950 . S
C1082 H1064 0.951 . S
C1082 C1083 1.366 . S
C1082 C1084 1.388 . S
C1083 C1082 1.366 . S
C1083 C1087 1.385 . S
C1084 H1065 0.951 . S
C1084 C1082 1.388 . S
C1084 C1085 1.366 . S
C1085 C1084 1.366 . S
C1085 C1086 1.414 . S
C1085 C1088 1.499 . S
C1086 H1066 0.950 . S
C1086 C1085 1.414 . S
C1086 C1087 1.374 . S
C1087 H1067 0.950 . S
C1087 C1083 1.385 . S
C1087 C1086 1.374 . S
C1088 C1085 1.499 . S
C1088 C1089 1.373 . S
C1088 C1090 1.389 . S
C1089 H1068 0.950 . S
C1089 C1088 1.373 . S
C1089 C1105 1.377 . S
C1090 C1088 1.389 . S
C1090 C1091 1.524 . S
C1090 C1104 1.377 . S
C1091 C1090 1.524 . S
C1091 C1092 1.397 . S
C1091 C1096 1.363 . S
C1092 H1069 0.950 . S
C1092 C1091 1.397 . S
C1092 C1093 1.334 . S
C1093 H1070 0.950 . S
C1093 C1092 1.334 . S
C1093 C1094 1.287 . S
C1094 C1093 1.287 . S
C1094 C1095 1.524 . S
C1094 H1113 0.913 . S
C1095 H1071 0.950 . S
C1095 C1094 1.524 . S
C1095 C1096 1.415 . S
C1096 H1072 0.950 . S
C1096 C1091 1.363 . S
C1096 C1095 1.415 . S
C1097 H1073 0.951 1_565 S
C1097 C1098 1.366 . S
C1097 C1099 1.388 . S
C1098 C1097 1.366 . S
C1098 C1102 1.385 . S
C1099 H1074 0.951 . S
C1099 C1097 1.388 . S
C1099 C1100 1.366 . S
C1100 C1099 1.366 . S
C1100 C1101 1.414 . S
C1100 C1103 1.499 . S
C1101 H1075 0.950 . S
C1101 C1100 1.414 . S
C1101 C1102 1.374 . S
C1102 H1076 0.950 . S
C1102 C1098 1.385 . S
C1102 C1101 1.374 . S
C1103 C1100 1.499 . S
C1103 C1104 1.373 . S
C1103 C1105 1.389 . S
C1104 H1077 0.950 . S
C1104 C1090 1.377 . S
C1104 C1103 1.373 . S
C1105 C1089 1.377 . S
C1105 C1103 1.389 . S
C1105 C1106 1.524 . S
C1106 C1105 1.524 . S
C1106 C1107 1.397 . S
C1106 C1111 1.363 . S
C1107 H1078 0.950 . S
C1107 C1106 1.397 . S
C1107 C1108 1.334 . S
C1108 H1079 0.950 . S
C1108 C1107 1.334 . S
C1108 C1109 1.287 1_565 S
C1109 C1108 1.287 1_545 S
C1109 C1110 1.524 . S
C1109 H1112 0.999 . S
C1110 H1080 0.950 . S
C1110 C1109 1.524 . S
C1110 C1111 1.415 1_545 S
C1111 H1081 0.950 . S
C1111 C1106 1.363 . S
C1111 C1110 1.415 1_565 S
H1112 C1109 0.999 . S
H1113 C1094 0.913 . S
H1114 C1132 0.951 . S
H1115 C1134 0.951 . S
H1116 C1136 0.950 . S
H1117 C1137 0.950 . S
H1118 C1139 0.950 . S
H1119 C1142 0.950 . S
H1120 C1143 0.950 . S
H1121 C1145 0.950 . S
H1122 C1146 0.950 . S
H1123 C1147 0.951 . S
H1124 C1149 0.951 . S
H1125 C1151 0.950 . S
H1126 C1152 0.950 . S
H1127 C1154 0.950 . S
H1128 C1157 0.950 . S
H1129 C1158 0.950 . S
H1130 C1160 0.950 . S
H1131 C1161 0.950 . S
C1132 H1114 0.951 . S
C1132 C1133 1.366 . S
C1132 C1134 1.388 . S
C1133 C1132 1.366 . S
C1133 C1137 1.385 . S
C1134 H1115 0.951 . S
C1134 C1132 1.388 . S
C1134 C1135 1.366 . S
C1135 C1134 1.366 . S
C1135 C1136 1.414 . S
C1135 C1138 1.499 . S
C1136 H1116 0.950 . S
C1136 C1135 1.414 . S
C1136 C1137 1.374 . S
C1137 H1117 0.950 . S
C1137 C1133 1.385 . S
C1137 C1136 1.374 . S
C1138 C1135 1.499 . S
C1138 C1139 1.373 . S
C1138 C1140 1.389 . S
C1139 H1118 0.950 . S
C1139 C1138 1.373 . S
C1139 C1155 1.377 . S
C1140 C1138 1.389 . S
C1140 C1141 1.524 . S
C1140 C1154 1.377 . S
C1141 C1140 1.524 . S
C1141 C1142 1.397 . S
C1141 C1146 1.363 . S
C1142 H1119 0.950 . S
C1142 C1141 1.397 . S
C1142 C1143 1.334 . S
C1143 H1120 0.950 . S
C1143 C1142 1.334 . S
C1143 C1144 1.287 . S
C1144 C1143 1.287 . S
C1144 C1145 1.524 . S
C1144 H1163 0.913 . S
C1145 H1121 0.950 . S
C1145 C1144 1.524 . S
C1145 C1146 1.415 . S
C1146 H1122 0.950 . S
C1146 C1141 1.363 . S
C1146 C1145 1.415 . S
C1147 H1123 0.951 . S
C1147 C1148 1.366 . S
C1147 C1149 1.388 . S
C1148 C1147 1.366 . S
C1148 C1152 1.385 . S
C1149 H1124 0.951 . S
C1149 C1147 1.388 . S
C1149 C1150 1.366 . S
C1150 C1149 1.366 . S
C1150 C1151 1.414 . S
C1150 C1153 1.499 . S
C1151 H1125 0.950 . S
C1151 C1150 1.414 . S
C1151 C1152 1.374 . S
C1152 H1126 0.950 . S
C1152 C1148 1.385 . S
C1152 C1151 1.374 . S
C1153 C1150 1.499 . S
C1153 C1154 1.373 . S
C1153 C1155 1.389 . S
C1154 H1127 0.950 . S
C1154 C1140 1.377 . S
C1154 C1153 1.373 . S
C1155 C1139 1.377 . S
C1155 C1153 1.389 . S
C1155 C1156 1.524 . S
C1156 C1155 1.524 . S
C1156 C1157 1.397 . S
C1156 C1161 1.363 . S
C1157 H1128 0.950 . S
C1157 C1156 1.397 . S
C1157 C1158 1.334 . S
C1158 H1129 0.950 . S
C1158 C1157 1.334 . S
C1158 C1159 1.287 . S
C1159 C1158 1.287 . S
C1159 C1160 1.524 . S
C1159 H1162 0.999 . S
C1160 H1130 0.950 . S
C1160 C1159 1.524 . S
C1160 C1161 1.415 . S
C1161 H1131 0.950 . S
C1161 C1156 1.363 . S
C1161 C1160 1.415 . S
H1162 C1159 0.999 . S
H1163 C1144 0.913 . S
H1164 C1182 0.951 . S
H1165 C1184 0.951 . S
H1166 C1186 0.950 . S
H1167 C1187 0.950 . S
H1168 C1189 0.950 . S
H1169 C1192 0.950 . S
H1170 C1193 0.950 . S
H1171 C1195 0.950 . S
H1172 C1196 0.950 . S
H1173 C1197 0.951 . S
H1174 C1199 0.951 . S
H1175 C1201 0.950 . S
H1176 C1202 0.950 . S
H1177 C1204 0.950 . S
H1178 C1207 0.950 . S
H1179 C1208 0.950 . S
H1180 C1210 0.950 . S
H1181 C1211 0.950 . S
C1182 H1164 0.951 . S
C1182 C1183 1.366 . S
C1182 C1184 1.388 . S
C1183 C1182 1.366 . S
C1183 C1187 1.385 . S
C1184 H1165 0.951 . S
C1184 C1182 1.388 . S
C1184 C1185 1.366 . S
C1185 C1184 1.366 . S
C1185 C1186 1.414 . S
C1185 C1188 1.499 . S
C1186 H1166 0.950 . S
C1186 C1185 1.414 . S
C1186 C1187 1.374 . S
C1187 H1167 0.950 . S
C1187 C1183 1.385 . S
C1187 C1186 1.374 . S
C1188 C1185 1.499 . S
C1188 C1189 1.373 . S
C1188 C1190 1.389 . S
C1189 H1168 0.950 . S
C1189 C1188 1.373 . S
C1189 C1205 1.377 . S
C1190 C1188 1.389 . S
C1190 C1191 1.524 . S
C1190 C1204 1.377 . S
C1191 C1190 1.524 . S
C1191 C1192 1.397 . S
C1191 C1196 1.363 . S
C1192 H1169 0.950 . S
C1192 C1191 1.397 . S
C1192 C1193 1.334 . S
C1193 H1170 0.950 . S
C1193 C1192 1.334 . S
C1193 C1194 1.287 . S
C1194 C1193 1.287 . S
C1194 C1195 1.524 . S
C1194 H1213 0.913 . S
C1195 H1171 0.950 . S
C1195 C1194 1.524 . S
C1195 C1196 1.415 . S
C1196 H1172 0.950 . S
C1196 C1191 1.363 . S
C1196 C1195 1.415 . S
C1197 H1173 0.951 . S
C1197 C1198 1.366 . S
C1197 C1199 1.388 . S
C1198 C1197 1.366 . S
C1198 C1202 1.385 . S
C1199 H1174 0.951 . S
C1199 C1197 1.388 . S
C1199 C1200 1.366 . S
C1200 C1199 1.366 . S
C1200 C1201 1.414 . S
C1200 C1203 1.499 . S
C1201 H1175 0.950 . S
C1201 C1200 1.414 . S
C1201 C1202 1.374 . S
C1202 H1176 0.950 . S
C1202 C1198 1.385 . S
C1202 C1201 1.374 . S
C1203 C1200 1.499 . S
C1203 C1204 1.373 . S
C1203 C1205 1.389 . S
C1204 H1177 0.950 . S
C1204 C1190 1.377 . S
C1204 C1203 1.373 . S
C1205 C1189 1.377 . S
C1205 C1203 1.389 . S
C1205 C1206 1.524 . S
C1206 C1205 1.524 . S
C1206 C1207 1.397 . S
C1206 C1211 1.363 . S
C1207 H1178 0.950 . S
C1207 C1206 1.397 . S
C1207 C1208 1.334 . S
C1208 H1179 0.950 . S
C1208 C1207 1.334 . S
C1208 C1209 1.287 . S
C1209 C1208 1.287 . S
C1209 C1210 1.524 . S
C1209 H1212 0.999 1_545 S
C1210 H1180 0.950 . S
C1210 C1209 1.524 . S
C1210 C1211 1.415 . S
C1211 H1181 0.950 . S
C1211 C1206 1.363 . S
C1211 C1210 1.415 . S
H1212 C1209 0.999 1_565 S
H1213 C1194 0.913 . S
H1214 C1232 0.951 . S
H1215 C1234 0.951 . S
H1216 C1236 0.950 . S
H1217 C1237 0.950 . S
H1218 C1239 0.950 . S
H1219 C1242 0.950 . S
H1220 C1243 0.950 . S
H1221 C1245 0.950 . S
H1222 C1246 0.950 . S
H1223 C1247 0.951 . S
H1224 C1249 0.951 . S
H1225 C1251 0.950 . S
H1226 C1252 0.950 . S
H1227 C1254 0.950 . S
H1228 C1257 0.950 . S
H1229 C1258 0.950 . S
H1230 C1260 0.950 . S
H1231 C1261 0.950 . S
C1232 H1214 0.951 . S
C1232 C1233 1.366 . S
C1232 C1234 1.388 . S
C1233 C1232 1.366 . S
C1233 C1237 1.385 . S
C1234 H1215 0.951 . S
C1234 C1232 1.388 . S
C1234 C1235 1.366 . S
C1235 C1234 1.366 . S
C1235 C1236 1.414 . S
C1235 C1238 1.499 . S
C1236 H1216 0.950 . S
C1236 C1235 1.414 . S
C1236 C1237 1.374 . S
C1237 H1217 0.950 . S
C1237 C1233 1.385 . S
C1237 C1236 1.374 . S
C1238 C1235 1.499 . S
C1238 C1239 1.373 . S
C1238 C1240 1.389 . S
C1239 H1218 0.950 . S
C1239 C1238 1.373 . S
C1239 C1255 1.377 . S
C1240 C1238 1.389 . S
C1240 C1241 1.524 . S
C1240 C1254 1.377 . S
C1241 C1240 1.524 . S
C1241 C1242 1.397 . S
C1241 C1246 1.363 . S
C1242 H1219 0.950 . S
C1242 C1241 1.397 . S
C1242 C1243 1.334 . S
C1243 H1220 0.950 . S
C1243 C1242 1.334 . S
C1243 C1244 1.287 . S
C1244 C1243 1.287 . S
C1244 C1245 1.524 . S
C1244 H1263 0.913 . S
C1245 H1221 0.950 . S
C1245 C1244 1.524 . S
C1245 C1246 1.415 . S
C1246 H1222 0.950 . S
C1246 C1241 1.363 . S
C1246 C1245 1.415 . S
C1247 H1223 0.951 . S
C1247 C1248 1.366 . S
C1247 C1249 1.388 . S
C1248 C1247 1.366 . S
C1248 C1252 1.385 . S
C1249 H1224 0.951 . S
C1249 C1247 1.388 . S
C1249 C1250 1.366 . S
C1250 C1249 1.366 . S
C1250 C1251 1.414 . S
C1250 C1253 1.499 . S
C1251 H1225 0.950 . S
C1251 C1250 1.414 . S
C1251 C1252 1.374 . S
C1252 H1226 0.950 . S
C1252 C1248 1.385 . S
C1252 C1251 1.374 . S
C1253 C1250 1.499 . S
C1253 C1254 1.373 . S
C1253 C1255 1.389 . S
C1254 H1227 0.950 . S
C1254 C1240 1.377 . S
C1254 C1253 1.373 . S
C1255 C1239 1.377 . S
C1255 C1253 1.389 . S
C1255 C1256 1.524 . S
C1256 C1255 1.524 . S
C1256 C1257 1.397 . S
C1256 C1261 1.363 . S
C1257 H1228 0.950 . S
C1257 C1256 1.397 . S
C1257 C1258 1.334 . S
C1258 H1229 0.950 . S
C1258 C1257 1.334 . S
C1258 C1259 1.287 . S
C1259 C1258 1.287 . S
C1259 C1260 1.524 . S
C1259 H1262 0.999 . S
C1260 H1230 0.950 . S
C1260 C1259 1.524 . S
C1260 C1261 1.415 . S
C1261 H1231 0.950 . S
C1261 C1256 1.363 . S
C1261 C1260 1.415 . S
H1262 C1259 0.999 . S
H1263 C1244 0.913 . S
H1264 C1282 0.951 . S
H1265 C1284 0.951 . S
H1266 C1286 0.950 . S
H1267 C1287 0.950 . S
H1268 C1289 0.950 . S
H1269 C1292 0.950 . S
H1270 C1293 0.950 . S
H1271 C1295 0.950 . S
H1272 C1296 0.950 . S
H1273 C1297 0.951 . S
H1274 C1299 0.951 . S
H1275 C1301 0.950 . S
H1276 C1302 0.950 . S
H1277 C1304 0.950 . S
H1278 C1307 0.950 . S
H1279 C1308 0.950 . S
H1280 C1310 0.950 . S
H1281 C1311 0.950 . S
C1282 H1264 0.951 . S
C1282 C1283 1.366 . S
C1282 C1284 1.388 . S
C1283 C1282 1.366 . S
C1283 C1287 1.385 . S
C1284 H1265 0.951 . S
C1284 C1282 1.388 . S
C1284 C1285 1.366 . S
C1285 C1284 1.366 . S
C1285 C1286 1.414 . S
C1285 C1288 1.499 . S
C1286 H1266 0.950 . S
C1286 C1285 1.414 . S
C1286 C1287 1.374 . S
C1287 H1267 0.950 . S
C1287 C1283 1.385 . S
C1287 C1286 1.374 . S
C1288 C1285 1.499 . S
C1288 C1289 1.373 . S
C1288 C1290 1.389 . S
C1289 H1268 0.950 . S
C1289 C1288 1.373 . S
C1289 C1305 1.377 . S
C1290 C1288 1.389 . S
C1290 C1291 1.524 . S
C1290 C1304 1.377 . S
C1291 C1290 1.524 . S
C1291 C1292 1.397 . S
C1291 C1296 1.363 . S
C1292 H1269 0.950 . S
C1292 C1291 1.397 . S
C1292 C1293 1.334 . S
C1293 H1270 0.950 . S
C1293 C1292 1.334 . S
C1293 C1294 1.287 . S
C1294 C1293 1.287 . S
C1294 C1295 1.524 . S
C1294 H1313 0.913 . S
C1295 H1271 0.950 . S
C1295 C1294 1.524 . S
C1295 C1296 1.415 . S
C1296 H1272 0.950 . S
C1296 C1291 1.363 . S
C1296 C1295 1.415 . S
C1297 H1273 0.951 . S
C1297 C1298 1.366 . S
C1297 C1299 1.388 . S
C1298 C1297 1.366 . S
C1298 C1302 1.385 . S
C1299 H1274 0.951 . S
C1299 C1297 1.388 . S
C1299 C1300 1.366 . S
C1300 C1299 1.366 . S
C1300 C1301 1.414 . S
C1300 C1303 1.499 . S
C1301 H1275 0.950 . S
C1301 C1300 1.414 . S
C1301 C1302 1.374 . S
C1302 H1276 0.950 . S
C1302 C1298 1.385 . S
C1302 C1301 1.374 . S
C1303 C1300 1.499 . S
C1303 C1304 1.373 . S
C1303 C1305 1.389 . S
C1304 H1277 0.950 . S
C1304 C1290 1.377 . S
C1304 C1303 1.373 . S
C1305 C1289 1.377 . S
C1305 C1303 1.389 . S
C1305 C1306 1.524 . S
C1306 C1305 1.524 . S
C1306 C1307 1.397 . S
C1306 C1311 1.363 . S
C1307 H1278 0.950 . S
C1307 C1306 1.397 . S
C1307 C1308 1.334 . S
C1308 H1279 0.950 . S
C1308 C1307 1.334 . S
C1308 C1309 1.287 . S
C1309 C1308 1.287 . S
C1309 C1310 1.524 . S
C1309 H1312 0.999 . S
C1310 H1280 0.950 . S
C1310 C1309 1.524 . S
C1310 C1311 1.415 . S
C1311 H1281 0.950 . S
C1311 C1306 1.363 . S
C1311 C1310 1.415 . S
H1312 C1309 0.999 . S
H1313 C1294 0.913 . S
H1314 C1332 0.951 . S
H1315 C1334 0.951 . S
H1316 C1336 0.950 . S
H1317 C1337 0.950 . S
H1318 C1339 0.950 . S
H1319 C1342 0.950 . S
H1320 C1343 0.950 . S
H1321 C1345 0.950 . S
H1322 C1346 0.950 . S
H1323 C1347 0.951 . S
H1324 C1349 0.951 . S
H1325 C1351 0.950 . S
H1326 C1352 0.950 . S
H1327 C1354 0.950 . S
H1328 C1357 0.950 . S
H1329 C1358 0.950 . S
H1330 C1360 0.950 . S
H1331 C1361 0.950 . S
C1332 H1314 0.951 . S
C1332 C1333 1.366 . S
C1332 C1334 1.388 . S
C1333 C1332 1.366 . S
C1333 C1337 1.385 . S
C1334 H1315 0.951 . S
C1334 C1332 1.388 . S
C1334 C1335 1.366 . S
C1335 C1334 1.366 . S
C1335 C1336 1.414 . S
C1335 C1338 1.499 . S
C1336 H1316 0.950 . S
C1336 C1335 1.414 . S
C1336 C1337 1.374 . S
C1337 H1317 0.950 . S
C1337 C1333 1.385 . S
C1337 C1336 1.374 . S
C1338 C1335 1.499 . S
C1338 C1339 1.373 . S
C1338 C1340 1.389 . S
C1339 H1318 0.950 . S
C1339 C1338 1.373 . S
C1339 C1355 1.377 . S
C1340 C1338 1.389 . S
C1340 C1341 1.524 . S
C1340 C1354 1.377 . S
C1341 C1340 1.524 . S
C1341 C1342 1.397 . S
C1341 C1346 1.363 . S
C1342 H1319 0.950 . S
C1342 C1341 1.397 . S
C1342 C1343 1.334 . S
C1343 H1320 0.950 . S
C1343 C1342 1.334 . S
C1343 C1344 1.287 . S
C1344 C1343 1.287 . S
C1344 C1345 1.524 . S
C1344 H1363 0.913 . S
C1345 H1321 0.950 . S
C1345 C1344 1.524 . S
C1345 C1346 1.415 . S
C1346 H1322 0.950 . S
C1346 C1341 1.363 . S
C1346 C1345 1.415 . S
C1347 H1323 0.951 . S
C1347 C1348 1.366 . S
C1347 C1349 1.388 . S
C1348 C1347 1.366 . S
C1348 C1352 1.385 . S
C1349 H1324 0.951 . S
C1349 C1347 1.388 . S
C1349 C1350 1.366 . S
C1350 C1349 1.366 . S
C1350 C1351 1.414 . S
C1350 C1353 1.499 . S
C1351 H1325 0.950 . S
C1351 C1350 1.414 . S
C1351 C1352 1.374 . S
C1352 H1326 0.950 . S
C1352 C1348 1.385 . S
C1352 C1351 1.374 . S
C1353 C1350 1.499 . S
C1353 C1354 1.373 . S
C1353 C1355 1.389 . S
C1354 H1327 0.950 . S
C1354 C1340 1.377 . S
C1354 C1353 1.373 . S
C1355 C1339 1.377 . S
C1355 C1353 1.389 . S
C1355 C1356 1.524 . S
C1356 C1355 1.524 . S
C1356 C1357 1.397 . S
C1356 C1361 1.363 . S
C1357 H1328 0.950 . S
C1357 C1356 1.397 . S
C1357 C1358 1.334 . S
C1358 H1329 0.950 . S
C1358 C1357 1.334 . S
C1358 C1359 1.287 . S
C1359 C1358 1.287 . S
C1359 C1360 1.524 . S
C1359 H1362 0.999 . S
C1360 H1330 0.950 . S
C1360 C1359 1.524 . S
C1360 C1361 1.415 . S
C1361 H1331 0.950 . S
C1361 C1356 1.363 . S
C1361 C1360 1.415 . S
H1362 C1359 0.999 . S
H1363 C1344 0.913 . S
H1364 C1382 0.951 . S
H1365 C1384 0.951 . S
H1366 C1386 0.950 . S
H1367 C1387 0.950 . S
H1368 C1389 0.950 . S
H1369 C1392 0.950 . S
H1370 C1393 0.950 . S
H1371 C1395 0.950 . S
H1372 C1396 0.950 . S
H1373 C1397 0.951 1_545 S
H1374 C1399 0.951 . S
H1375 C1401 0.950 . S
H1376 C1402 0.950 . S
H1377 C1404 0.950 . S
H1378 C1407 0.950 . S
H1379 C1408 0.950 . S
H1380 C1410 0.972 . S
H1381 C1411 0.950 . S
C1382 H1364 0.951 . S
C1382 C1383 1.366 . S
C1382 C1384 1.388 . S
C1383 C1382 1.366 . S
C1383 C1387 1.385 . S
C1384 H1365 0.951 . S
C1384 C1382 1.388 . S
C1384 C1385 1.366 . S
C1385 C1384 1.366 . S
C1385 C1386 1.414 . S
C1385 C1388 1.499 . S
C1386 H1366 0.950 . S
C1386 C1385 1.414 . S
C1386 C1387 1.374 . S
C1387 H1367 0.950 . S
C1387 C1383 1.385 . S
C1387 C1386 1.374 . S
C1388 C1385 1.499 . S
C1388 C1389 1.373 . S
C1388 C1390 1.389 . S
C1389 H1368 0.950 . S
C1389 C1388 1.373 . S
C1389 C1405 1.377 . S
C1390 C1388 1.389 . S
C1390 C1391 1.524 . S
C1390 C1404 1.377 . S
C1391 C1390 1.524 . S
C1391 C1392 1.397 . S
C1391 C1396 1.363 . S
C1392 H1369 0.950 . S
C1392 C1391 1.397 . S
C1392 C1393 1.334 . S
C1393 H1370 0.950 . S
C1393 C1392 1.334 . S
C1393 C1394 1.287 . S
C1394 C1393 1.287 . S
C1394 C1395 1.524 . S
C1394 H1413 0.913 . S
C1395 H1371 0.950 . S
C1395 C1394 1.524 . S
C1395 C1396 1.415 . S
C1396 H1372 0.950 . S
C1396 C1391 1.363 . S
C1396 C1395 1.415 . S
C1397 H1373 0.951 1_565 S
C1397 C1398 1.366 . S
C1397 C1399 1.388 . S
C1398 C1397 1.366 . S
C1398 C1402 1.385 . S
C1399 H1374 0.951 . S
C1399 C1397 1.388 . S
C1399 C1400 1.366 . S
C1400 C1399 1.366 . S
C1400 C1401 1.414 . S
C1400 C1403 1.499 . S
C1401 H1375 0.950 . S
C1401 C1400 1.414 . S
C1401 C1402 1.374 . S
C1402 H1376 0.950 . S
C1402 C1398 1.385 . S
C1402 C1401 1.374 . S
C1403 C1400 1.499 . S
C1403 C1404 1.373 . S
C1403 C1405 1.389 . S
C1404 H1377 0.950 . S
C1404 C1390 1.377 . S
C1404 C1403 1.373 . S
C1405 C1389 1.377 . S
C1405 C1403 1.389 . S
C1405 C1406 1.524 . S
C1406 C1405 1.524 . S
C1406 C1407 1.397 . S
C1406 C1411 1.363 . S
C1407 H1378 0.950 . S
C1407 C1406 1.397 . S
C1407 C1408 1.334 . S
C1408 H1379 0.950 . S
C1408 C1407 1.334 . S
C1408 C1409 1.287 . S
C1409 C1408 1.287 . S
C1409 C1410 1.521 1_565 S
C1409 H1412 0.999 1_565 S
C1410 H1380 0.972 . S
C1410 C1409 1.521 1_545 S
C1410 C1411 1.392 1_545 S
C1411 H1381 0.950 . S
C1411 C1406 1.363 . S
C1411 C1410 1.392 1_565 S
H1412 C1409 0.999 1_545 S
H1413 C1394 0.913 . S
H1414 C1432 0.951 . S
H1415 C1434 0.951 . S
H1416 C1436 0.950 . S
H1417 C1437 0.950 . S
H1418 C1439 0.950 . S
H1419 C1442 0.950 . S
H1420 C1443 0.950 . S
H1421 C1445 0.950 . S
H1422 C1446 0.950 . S
H1423 C1447 0.951 . S
H1424 C1449 0.951 . S
H1425 C1451 0.950 . S
H1426 C1452 0.950 . S
H1427 C1454 0.950 . S
H1428 C1457 0.950 . S
H1429 C1458 0.950 . S
H1430 C1460 0.950 . S
H1431 C1461 0.950 . S
C1432 H1414 0.951 . S
C1432 C1433 1.366 . S
C1432 C1434 1.388 . S
C1433 C1432 1.366 . S
C1433 C1437 1.385 . S
C1434 H1415 0.951 . S
C1434 C1432 1.388 . S
C1434 C1435 1.366 . S
C1435 C1434 1.366 . S
C1435 C1436 1.414 . S
C1435 C1438 1.499 . S
C1436 H1416 0.950 . S
C1436 C1435 1.414 . S
C1436 C1437 1.374 . S
C1437 H1417 0.950 . S
C1437 C1433 1.385 . S
C1437 C1436 1.374 . S
C1438 C1435 1.499 . S
C1438 C1439 1.373 . S
C1438 C1440 1.389 . S
C1439 H1418 0.950 . S
C1439 C1438 1.373 . S
C1439 C1455 1.377 . S
C1440 C1438 1.389 . S
C1440 C1441 1.524 . S
C1440 C1454 1.377 . S
C1441 C1440 1.524 . S
C1441 C1442 1.397 . S
C1441 C1446 1.363 . S
C1442 H1419 0.950 . S
C1442 C1441 1.397 . S
C1442 C1443 1.334 . S
C1443 H1420 0.950 . S
C1443 C1442 1.334 . S
C1443 C1444 1.287 . S
C1444 C1443 1.287 . S
C1444 C1445 1.524 . S
C1444 H1463 0.913 . S
C1445 H1421 0.950 . S
C1445 C1444 1.524 . S
C1445 C1446 1.415 . S
C1446 H1422 0.950 . S
C1446 C1441 1.363 . S
C1446 C1445 1.415 . S
C1447 H1423 0.951 . S
C1447 C1448 1.366 . S
C1447 C1449 1.388 . S
C1448 C1447 1.366 . S
C1448 C1452 1.385 . S
C1449 H1424 0.951 . S
C1449 C1447 1.388 . S
C1449 C1450 1.366 . S
C1450 C1449 1.366 . S
C1450 C1451 1.414 . S
C1450 C1453 1.499 . S
C1451 H1425 0.950 . S
C1451 C1450 1.414 . S
C1451 C1452 1.374 . S
C1452 H1426 0.950 . S
C1452 C1448 1.385 . S
C1452 C1451 1.374 . S
C1453 C1450 1.499 . S
C1453 C1454 1.373 . S
C1453 C1455 1.389 . S
C1454 H1427 0.950 . S
C1454 C1440 1.377 . S
C1454 C1453 1.373 . S
C1455 C1439 1.377 . S
C1455 C1453 1.389 . S
C1455 C1456 1.524 . S
C1456 C1455 1.524 . S
C1456 C1457 1.397 . S
C1456 C1461 1.363 . S
C1457 H1428 0.950 . S
C1457 C1456 1.397 . S
C1457 C1458 1.334 . S
C1458 H1429 0.950 . S
C1458 C1457 1.334 . S
C1458 C1459 1.287 . S
C1459 C1458 1.287 . S
C1459 C1460 1.524 . S
C1459 H1462 0.999 . S
C1460 H1430 0.950 . S
C1460 C1459 1.524 . S
C1460 C1461 1.415 . S
C1461 H1431 0.950 . S
C1461 C1456 1.363 . S
C1461 C1460 1.415 . S
H1462 C1459 0.999 . S
H1463 C1444 0.913 . S
H1464 C1482 0.951 . S
H1465 C1484 0.951 . S
H1466 C1486 0.950 . S
H1467 C1487 0.950 . S
H1468 C1489 0.950 . S
H1469 C1492 0.950 . S
H1470 C1493 0.950 . S
H1471 C1495 0.950 . S
H1472 C1496 0.950 . S
H1473 C1497 0.951 . S
H1474 C1499 0.951 . S
H1475 C1501 0.950 . S
H1476 C1502 0.950 . S
H1477 C1504 0.950 . S
H1478 C1507 0.950 . S
H1479 C1508 0.950 . S
H1480 C1510 0.950 . S
H1481 C1511 0.950 . S
C1482 H1464 0.951 . S
C1482 C1483 1.366 . S
C1482 C1484 1.388 . S
C1483 C1482 1.366 . S
C1483 C1487 1.385 . S
C1484 H1465 0.951 . S
C1484 C1482 1.388 . S
C1484 C1485 1.366 . S
C1485 C1484 1.366 . S
C1485 C1486 1.414 . S
C1485 C1488 1.499 . S
C1486 H1466 0.950 . S
C1486 C1485 1.414 . S
C1486 C1487 1.374 . S
C1487 H1467 0.950 . S
C1487 C1483 1.385 . S
C1487 C1486 1.374 . S
C1488 C1485 1.499 . S
C1488 C1489 1.373 . S
C1488 C1490 1.389 . S
C1489 H1468 0.950 . S
C1489 C1488 1.373 . S
C1489 C1505 1.377 . S
C1490 C1488 1.389 . S
C1490 C1491 1.524 . S
C1490 C1504 1.377 . S
C1491 C1490 1.524 . S
C1491 C1492 1.397 . S
C1491 C1496 1.363 . S
C1492 H1469 0.950 . S
C1492 C1491 1.397 . S
C1492 C1493 1.334 . S
C1493 H1470 0.950 . S
C1493 C1492 1.334 . S
C1493 C1494 1.287 . S
C1494 C1493 1.287 . S
C1494 C1495 1.524 . S
C1494 H1513 0.913 . S
C1495 H1471 0.950 . S
C1495 C1494 1.524 . S
C1495 C1496 1.415 . S
C1496 H1472 0.950 . S
C1496 C1491 1.363 . S
C1496 C1495 1.415 . S
C1497 H1473 0.951 . S
C1497 C1498 1.366 . S
C1497 C1499 1.388 . S
C1498 C1497 1.366 . S
C1498 C1502 1.385 . S
C1499 H1474 0.951 . S
C1499 C1497 1.388 . S
C1499 C1500 1.366 . S
C1500 C1499 1.366 . S
C1500 C1501 1.414 . S
C1500 C1503 1.499 . S
C1501 H1475 0.950 . S
C1501 C1500 1.414 . S
C1501 C1502 1.374 . S
C1502 H1476 0.950 . S
C1502 C1498 1.385 . S
C1502 C1501 1.374 . S
C1503 C1500 1.499 . S
C1503 C1504 1.373 . S
C1503 C1505 1.389 . S
C1504 H1477 0.950 . S
C1504 C1490 1.377 . S
C1504 C1503 1.373 . S
C1505 C1489 1.377 . S
C1505 C1503 1.389 . S
C1505 C1506 1.524 . S
C1506 C1505 1.524 . S
C1506 C1507 1.397 . S
C1506 C1511 1.363 . S
C1507 H1478 0.950 . S
C1507 C1506 1.397 . S
C1507 C1508 1.334 . S
C1508 H1479 0.950 . S
C1508 C1507 1.334 . S
C1508 C1509 1.287 . S
C1509 C1508 1.287 . S
C1509 C1510 1.524 . S
C1509 H1512 0.999 1_565 S
C1510 H1480 0.950 . S
C1510 C1509 1.524 . S
C1510 C1511 1.415 . S
C1511 H1481 0.950 . S
C1511 C1506 1.363 . S
C1511 C1510 1.415 . S
H1512 C1509 0.999 1_545 S
H1513 C1494 0.913 . S
H1514 C1532 0.951 . S
H1515 C1534 0.951 . S
H1516 C1536 0.950 . S
H1517 C1537 0.950 . S
H1518 C1539 0.950 . S
H1519 C1542 0.950 . S
H1520 C1543 0.950 . S
H1521 C1545 0.950 . S
H1522 C1546 0.950 . S
H1523 C1547 0.951 . S
H1524 C1549 0.951 . S
H1525 C1551 0.950 . S
H1526 C1552 0.950 . S
H1527 C1554 0.950 . S
H1528 C1557 0.950 . S
H1529 C1558 0.950 . S
H1530 C1560 0.950 . S
H1531 C1561 0.950 . S
C1532 H1514 0.951 . S
C1532 C1533 1.366 . S
C1532 C1534 1.388 . S
C1533 C1532 1.366 . S
C1533 C1537 1.385 . S
C1534 H1515 0.951 . S
C1534 C1532 1.388 . S
C1534 C1535 1.366 . S
C1535 C1534 1.366 . S
C1535 C1536 1.414 . S
C1535 C1538 1.499 . S
C1536 H1516 0.950 . S
C1536 C1535 1.414 . S
C1536 C1537 1.374 . S
C1537 H1517 0.950 . S
C1537 C1533 1.385 . S
C1537 C1536 1.374 . S
C1538 C1535 1.499 . S
C1538 C1539 1.373 . S
C1538 C1540 1.389 . S
C1539 H1518 0.950 . S
C1539 C1538 1.373 . S
C1539 C1555 1.377 . S
C1540 C1538 1.389 . S
C1540 C1541 1.524 . S
C1540 C1554 1.377 . S
C1541 C1540 1.524 . S
C1541 C1542 1.397 . S
C1541 C1546 1.363 . S
C1542 H1519 0.950 . S
C1542 C1541 1.397 . S
C1542 C1543 1.334 . S
C1543 H1520 0.950 . S
C1543 C1542 1.334 . S
C1543 C1544 1.287 . S
C1544 C1543 1.287 . S
C1544 C1545 1.524 . S
C1544 H1563 0.913 . S
C1545 H1521 0.950 . S
C1545 C1544 1.524 . S
C1545 C1546 1.415 . S
C1546 H1522 0.950 . S
C1546 C1541 1.363 . S
C1546 C1545 1.415 . S
C1547 H1523 0.951 . S
C1547 C1548 1.366 . S
C1547 C1549 1.388 . S
C1548 C1547 1.366 . S
C1548 C1552 1.385 . S
C1549 H1524 0.951 . S
C1549 C1547 1.388 . S
C1549 C1550 1.366 . S
C1550 C1549 1.366 . S
C1550 C1551 1.414 . S
C1550 C1553 1.499 . S
C1551 H1525 0.950 . S
C1551 C1550 1.414 . S
C1551 C1552 1.374 . S
C1552 H1526 0.950 . S
C1552 C1548 1.385 . S
C1552 C1551 1.374 . S
C1553 C1550 1.499 . S
C1553 C1554 1.373 . S
C1553 C1555 1.389 . S
C1554 H1527 0.950 . S
C1554 C1540 1.377 . S
C1554 C1553 1.373 . S
C1555 C1539 1.377 . S
C1555 C1553 1.389 . S
C1555 C1556 1.524 . S
C1556 C1555 1.524 . S
C1556 C1557 1.397 . S
C1556 C1561 1.363 . S
C1557 H1528 0.950 . S
C1557 C1556 1.397 . S
C1557 C1558 1.334 . S
C1558 H1529 0.950 . S
C1558 C1557 1.334 . S
C1558 C1559 1.287 . S
C1559 C1558 1.287 . S
C1559 C1560 1.524 . S
C1559 H1562 0.999 . S
C1560 H1530 0.950 . S
C1560 C1559 1.524 . S
C1560 C1561 1.415 . S
C1561 H1531 0.950 . S
C1561 C1556 1.363 . S
C1561 C1560 1.415 . S
H1562 C1559 0.999 . S
H1563 C1544 0.913 . S
H1564 C1582 0.951 . S
H1565 C1584 0.951 . S
H1566 C1586 0.950 . S
H1567 C1587 0.950 . S
H1568 C1589 0.950 . S
H1569 C1592 0.950 . S
H1570 C1593 0.950 . S
H1571 C1595 0.950 . S
H1572 C1596 0.950 . S
H1573 C1597 0.951 . S
H1574 C1599 0.951 . S
H1575 C1601 0.950 . S
H1576 C1602 0.950 . S
H1577 C1604 0.950 . S
H1578 C1607 0.950 . S
H1579 C1608 0.950 . S
H1580 C1610 0.950 . S
H1581 C1611 0.950 . S
C1582 H1564 0.951 . S
C1582 C1583 1.366 . S
C1582 C1584 1.388 . S
C1583 C1582 1.366 . S
C1583 C1587 1.385 . S
C1584 H1565 0.951 . S
C1584 C1582 1.388 . S
C1584 C1585 1.366 . S
C1585 C1584 1.366 . S
C1585 C1586 1.414 . S
C1585 C1588 1.499 . S
C1586 H1566 0.950 . S
C1586 C1585 1.414 . S
C1586 C1587 1.374 . S
C1587 H1567 0.950 . S
C1587 C1583 1.385 . S
C1587 C1586 1.374 . S
C1588 C1585 1.499 . S
C1588 C1589 1.373 . S
C1588 C1590 1.389 . S
C1589 H1568 0.950 . S
C1589 C1588 1.373 . S
C1589 C1605 1.377 . S
C1590 C1588 1.389 . S
C1590 C1591 1.524 . S
C1590 C1604 1.377 . S
C1591 C1590 1.524 . S
C1591 C1592 1.397 . S
C1591 C1596 1.363 . S
C1592 H1569 0.950 . S
C1592 C1591 1.397 . S
C1592 C1593 1.334 . S
C1593 H1570 0.950 . S
C1593 C1592 1.334 . S
C1593 C1594 1.287 . S
C1594 C1593 1.287 . S
C1594 C1595 1.524 . S
C1594 H1613 0.913 . S
C1595 H1571 0.950 . S
C1595 C1594 1.524 . S
C1595 C1596 1.415 . S
C1596 H1572 0.950 . S
C1596 C1591 1.363 . S
C1596 C1595 1.415 . S
C1597 H1573 0.951 . S
C1597 C1598 1.366 . S
C1597 C1599 1.388 . S
C1598 C1597 1.366 . S
C1598 C1602 1.385 . S
C1599 H1574 0.951 . S
C1599 C1597 1.388 . S
C1599 C1600 1.366 . S
C1600 C1599 1.366 . S
C1600 C1601 1.414 . S
C1600 C1603 1.499 . S
C1601 H1575 0.950 . S
C1601 C1600 1.414 . S
C1601 C1602 1.374 . S
C1602 H1576 0.950 . S
C1602 C1598 1.385 . S
C1602 C1601 1.374 . S
C1603 C1600 1.499 . S
C1603 C1604 1.373 . S
C1603 C1605 1.389 . S
C1604 H1577 0.950 . S
C1604 C1590 1.377 . S
C1604 C1603 1.373 . S
C1605 C1589 1.377 . S
C1605 C1603 1.389 . S
C1605 C1606 1.524 . S
C1606 C1605 1.524 . S
C1606 C1607 1.397 . S
C1606 C1611 1.363 . S
C1607 H1578 0.950 . S
C1607 C1606 1.397 . S
C1607 C1608 1.334 . S
C1608 H1579 0.950 . S
C1608 C1607 1.334 . S
C1608 C1609 1.287 . S
C1609 C1608 1.287 . S
C1609 C1610 1.524 . S
C1609 H1612 0.999 1_556 S
C1610 H1580 0.950 . S
C1610 C1609 1.524 . S
C1610 C1611 1.415 . S
C1611 H1581 0.950 . S
C1611 C1606 1.363 . S
C1611 C1610 1.415 . S
H1612 C1609 0.999 1_554 S
H1613 C1594 0.913 . S
H1614 C1632 0.951 . S
H1615 C1634 0.951 . S
H1616 C1636 0.950 . S
H1617 C1637 0.950 . S
H1618 C1639 0.950 . S
H1619 C1642 0.950 . S
H1620 C1643 0.950 . S
H1621 C1645 0.950 . S
H1622 C1646 0.950 . S
H1623 C1647 0.951 . S
H1624 C1649 0.951 . S
H1625 C1651 0.950 . S
H1626 C1652 0.950 . S
H1627 C1654 0.950 . S
H1628 C1657 0.950 . S
H1629 C1658 0.950 . S
H1630 C1660 0.950 . S
H1631 C1661 0.950 . S
C1632 H1614 0.951 . S
C1632 C1633 1.366 . S
C1632 C1634 1.388 . S
C1633 C1632 1.366 . S
C1633 C1637 1.385 . S
C1634 H1615 0.951 . S
C1634 C1632 1.388 . S
C1634 C1635 1.366 . S
C1635 C1634 1.366 . S
C1635 C1636 1.414 . S
C1635 C1638 1.499 . S
C1636 H1616 0.950 . S
C1636 C1635 1.414 . S
C1636 C1637 1.374 . S
C1637 H1617 0.950 . S
C1637 C1633 1.385 . S
C1637 C1636 1.374 . S
C1638 C1635 1.499 . S
C1638 C1639 1.373 . S
C1638 C1640 1.389 . S
C1639 H1618 0.950 . S
C1639 C1638 1.373 . S
C1639 C1655 1.377 . S
C1640 C1638 1.389 . S
C1640 C1641 1.524 . S
C1640 C1654 1.377 . S
C1641 C1640 1.524 . S
C1641 C1642 1.397 . S
C1641 C1646 1.363 . S
C1642 H1619 0.950 . S
C1642 C1641 1.397 . S
C1642 C1643 1.334 . S
C1643 H1620 0.950 . S
C1643 C1642 1.334 . S
C1643 C1644 1.287 . S
C1644 C1643 1.287 . S
C1644 C1645 1.524 . S
C1644 H1663 0.913 . S
C1645 H1621 0.950 . S
C1645 C1644 1.524 . S
C1645 C1646 1.415 . S
C1646 H1622 0.950 . S
C1646 C1641 1.363 . S
C1646 C1645 1.415 . S
C1647 H1623 0.951 . S
C1647 C1648 1.366 . S
C1647 C1649 1.388 . S
C1648 C1647 1.366 . S
C1648 C1652 1.385 . S
C1649 H1624 0.951 . S
C1649 C1647 1.388 . S
C1649 C1650 1.366 . S
C1650 C1649 1.366 . S
C1650 C1651 1.414 . S
C1650 C1653 1.499 . S
C1651 H1625 0.950 . S
C1651 C1650 1.414 . S
C1651 C1652 1.374 . S
C1652 H1626 0.950 . S
C1652 C1648 1.385 . S
C1652 C1651 1.374 . S
C1653 C1650 1.499 . S
C1653 C1654 1.373 . S
C1653 C1655 1.389 . S
C1654 H1627 0.950 . S
C1654 C1640 1.377 . S
C1654 C1653 1.373 . S
C1655 C1639 1.377 . S
C1655 C1653 1.389 . S
C1655 C1656 1.524 . S
C1656 C1655 1.524 . S
C1656 C1657 1.397 . S
C1656 C1661 1.363 . S
C1657 H1628 0.950 . S
C1657 C1656 1.397 . S
C1657 C1658 1.334 . S
C1658 H1629 0.950 . S
C1658 C1657 1.334 . S
C1658 C1659 1.287 . S
C1659 C1658 1.287 . S
C1659 C1660 1.524 . S
C1659 H1662 0.999 1_556 S
C1660 H1630 0.950 . S
C1660 C1659 1.524 . S
C1660 C1661 1.415 . S
C1661 H1631 0.950 . S
C1661 C1656 1.363 . S
C1661 C1660 1.415 . S
H1662 C1659 0.999 1_554 S
H1663 C1644 0.913 . S
H1664 C1682 0.951 . S
H1665 C1684 0.951 . S
H1666 C1686 0.950 . S
H1667 C1687 0.950 . S
H1668 C1689 0.950 . S
H1669 C1692 0.950 . S
H1670 C1693 0.950 . S
H1671 C1695 0.950 . S
H1672 C1696 0.950 . S
H1673 C1697 0.951 . S
H1674 C1699 0.951 . S
H1675 C1701 0.950 . S
H1676 C1702 0.950 . S
H1677 C1704 0.950 . S
H1678 C1707 0.950 . S
H1679 C1708 0.950 . S
H1680 C1710 0.950 . S
H1681 C1711 0.950 . S
C1682 H1664 0.951 . S
C1682 C1683 1.366 . S
C1682 C1684 1.388 . S
C1683 C1682 1.366 . S
C1683 C1687 1.385 . S
C1684 H1665 0.951 . S
C1684 C1682 1.388 . S
C1684 C1685 1.366 . S
C1685 C1684 1.366 . S
C1685 C1686 1.414 . S
C1685 C1688 1.499 . S
C1686 H1666 0.950 . S
C1686 C1685 1.414 . S
C1686 C1687 1.374 . S
C1687 H1667 0.950 . S
C1687 C1683 1.385 . S
C1687 C1686 1.374 . S
C1688 C1685 1.499 . S
C1688 C1689 1.373 . S
C1688 C1690 1.389 . S
C1689 H1668 0.950 . S
C1689 C1688 1.373 . S
C1689 C1705 1.377 . S
C1690 C1688 1.389 . S
C1690 C1691 1.524 . S
C1690 C1704 1.377 . S
C1691 C1690 1.524 . S
C1691 C1692 1.397 . S
C1691 C1696 1.363 . S
C1692 H1669 0.950 . S
C1692 C1691 1.397 . S
C1692 C1693 1.334 . S
C1693 H1670 0.950 . S
C1693 C1692 1.334 . S
C1693 C1694 1.287 . S
C1694 C1693 1.287 . S
C1694 C1695 1.524 . S
C1694 H1713 0.913 . S
C1695 H1671 0.950 . S
C1695 C1694 1.524 . S
C1695 C1696 1.415 . S
C1696 H1672 0.950 . S
C1696 C1691 1.363 . S
C1696 C1695 1.415 . S
C1697 H1673 0.951 . S
C1697 C1698 1.366 . S
C1697 C1699 1.388 . S
C1698 C1697 1.366 . S
C1698 C1702 1.385 . S
C1699 H1674 0.951 . S
C1699 C1697 1.388 . S
C1699 C1700 1.366 . S
C1700 C1699 1.366 . S
C1700 C1701 1.414 . S
C1700 C1703 1.499 . S
C1701 H1675 0.950 . S
C1701 C1700 1.414 . S
C1701 C1702 1.374 . S
C1702 H1676 0.950 . S
C1702 C1698 1.385 . S
C1702 C1701 1.374 . S
C1703 C1700 1.499 . S
C1703 C1704 1.373 . S
C1703 C1705 1.389 . S
C1704 H1677 0.950 . S
C1704 C1690 1.377 . S
C1704 C1703 1.373 . S
C1705 C1689 1.377 . S
C1705 C1703 1.389 . S
C1705 C1706 1.524 . S
C1706 C1705 1.524 . S
C1706 C1707 1.397 . S
C1706 C1711 1.363 . S
C1707 H1678 0.950 . S
C1707 C1706 1.397 . S
C1707 C1708 1.334 . S
C1708 H1679 0.950 . S
C1708 C1707 1.334 . S
C1708 C1709 1.287 . S
C1709 C1708 1.287 . S
C1709 C1710 1.524 . S
C1709 H1712 0.999 . S
C1710 H1680 0.950 . S
C1710 C1709 1.524 . S
C1710 C1711 1.415 . S
C1711 H1681 0.950 . S
C1711 C1706 1.363 . S
C1711 C1710 1.415 . S
H1712 C1709 0.999 . S
H1713 C1694 0.913 . S
H1714 C1732 0.951 . S
H1715 C1734 0.951 . S
H1716 C1736 0.950 . S
H1717 C1737 0.950 . S
H1718 C1739 0.950 . S
H1719 C1742 0.950 . S
H1720 C1743 0.950 . S
H1721 C1745 0.950 . S
H1722 C1746 0.950 . S
H1723 C1747 0.951 1_554 S
H1724 C1749 0.951 . S
H1725 C1751 0.950 . S
H1726 C1752 0.950 . S
H1727 C1754 0.950 . S
H1728 C1757 0.950 . S
H1729 C1758 0.950 . S
H1730 C1760 0.950 . S
H1731 C1761 0.950 . S
C1732 H1714 0.951 . S
C1732 C1733 1.366 . S
C1732 C1734 1.388 . S
C1733 C1732 1.366 . S
C1733 C1737 1.385 . S
C1734 H1715 0.951 . S
C1734 C1732 1.388 . S
C1734 C1735 1.366 . S
C1735 C1734 1.366 . S
C1735 C1736 1.414 . S
C1735 C1738 1.499 . S
C1736 H1716 0.950 . S
C1736 C1735 1.414 . S
C1736 C1737 1.374 . S
C1737 H1717 0.950 . S
C1737 C1733 1.385 . S
C1737 C1736 1.374 . S
C1738 C1735 1.499 . S
C1738 C1739 1.373 . S
C1738 C1740 1.389 . S
C1739 H1718 0.950 . S
C1739 C1738 1.373 . S
C1739 C1755 1.377 . S
C1740 C1738 1.389 . S
C1740 C1741 1.524 . S
C1740 C1754 1.377 . S
C1741 C1740 1.524 . S
C1741 C1742 1.397 . S
C1741 C1746 1.363 . S
C1742 H1719 0.950 . S
C1742 C1741 1.397 . S
C1742 C1743 1.334 . S
C1743 H1720 0.950 . S
C1743 C1742 1.334 . S
C1743 C1744 1.287 . S
C1744 C1743 1.287 . S
C1744 C1745 1.524 . S
C1744 H1763 0.913 . S
C1745 H1721 0.950 . S
C1745 C1744 1.524 . S
C1745 C1746 1.415 . S
C1746 H1722 0.950 . S
C1746 C1741 1.363 . S
C1746 C1745 1.415 . S
C1747 H1723 0.951 1_556 S
C1747 C1748 1.366 . S
C1747 C1749 1.388 . S
C1748 C1747 1.366 . S
C1748 C1752 1.385 . S
C1749 H1724 0.951 . S
C1749 C1747 1.388 . S
C1749 C1750 1.366 . S
C1750 C1749 1.366 . S
C1750 C1751 1.414 . S
C1750 C1753 1.499 . S
C1751 H1725 0.950 . S
C1751 C1750 1.414 . S
C1751 C1752 1.374 . S
C1752 H1726 0.950 . S
C1752 C1748 1.385 . S
C1752 C1751 1.374 . S
C1753 C1750 1.499 . S
C1753 C1754 1.373 . S
C1753 C1755 1.389 . S
C1754 H1727 0.950 . S
C1754 C1740 1.377 . S
C1754 C1753 1.373 . S
C1755 C1739 1.377 . S
C1755 C1753 1.389 . S
C1755 C1756 1.524 . S
C1756 C1755 1.524 . S
C1756 C1757 1.397 . S
C1756 C1761 1.363 . S
C1757 H1728 0.950 . S
C1757 C1756 1.397 . S
C1757 C1758 1.334 . S
C1758 H1729 0.950 . S
C1758 C1757 1.334 . S
C1758 C1759 1.287 . S
C1759 C1758 1.287 . S
C1759 C1760 1.524 . S
C1759 H1762 0.999 . S
C1760 H1730 0.950 . S
C1760 C1759 1.524 . S
C1760 C1761 1.415 . S
C1761 H1731 0.950 . S
C1761 C1756 1.363 . S
C1761 C1760 1.415 . S
H1762 C1759 0.999 . S
H1763 C1744 0.913 . S
H1764 C1782 0.951 . S
H1765 C1784 0.951 . S
H1766 C1786 0.950 . S
H1767 C1787 0.950 . S
H1768 C1789 0.950 . S
H1769 C1792 0.950 . S
H1770 C1793 0.950 . S
H1771 C1795 0.950 . S
H1772 C1796 0.950 . S
H1773 C1797 0.951 . S
H1774 C1799 0.951 . S
H1775 C1801 0.950 . S
H1776 C1802 0.950 . S
H1777 C1804 0.950 . S
H1778 C1807 0.950 . S
H1779 C1808 0.950 . S
H1780 C1810 0.950 . S
H1781 C1811 0.950 . S
C1782 H1764 0.951 . S
C1782 C1783 1.366 . S
C1782 C1784 1.388 . S
C1783 C1782 1.366 . S
C1783 C1787 1.385 . S
C1784 H1765 0.951 . S
C1784 C1782 1.388 . S
C1784 C1785 1.366 . S
C1785 C1784 1.366 . S
C1785 C1786 1.414 . S
C1785 C1788 1.499 . S
C1786 H1766 0.950 . S
C1786 C1785 1.414 . S
C1786 C1787 1.374 . S
C1787 H1767 0.950 . S
C1787 C1783 1.385 . S
C1787 C1786 1.374 . S
C1788 C1785 1.499 . S
C1788 C1789 1.373 . S
C1788 C1790 1.389 . S
C1789 H1768 0.950 . S
C1789 C1788 1.373 . S
C1789 C1805 1.377 . S
C1790 C1788 1.389 . S
C1790 C1791 1.524 . S
C1790 C1804 1.377 . S
C1791 C1790 1.524 . S
C1791 C1792 1.397 . S
C1791 C1796 1.363 . S
C1792 H1769 0.950 . S
C1792 C1791 1.397 . S
C1792 C1793 1.334 . S
C1793 H1770 0.950 . S
C1793 C1792 1.334 . S
C1793 C1794 1.287 . S
C1794 C1793 1.287 . S
C1794 C1795 1.524 . S
C1794 H1813 0.913 . S
C1795 H1771 0.950 . S
C1795 C1794 1.524 . S
C1795 C1796 1.415 . S
C1796 H1772 0.950 . S
C1796 C1791 1.363 . S
C1796 C1795 1.415 . S
C1797 H1773 0.951 . S
C1797 C1798 1.366 . S
C1797 C1799 1.388 . S
C1798 C1797 1.366 . S
C1798 C1802 1.385 . S
C1799 H1774 0.951 . S
C1799 C1797 1.388 . S
C1799 C1800 1.366 . S
C1800 C1799 1.366 . S
C1800 C1801 1.414 . S
C1800 C1803 1.499 . S
C1801 H1775 0.950 . S
C1801 C1800 1.414 . S
C1801 C1802 1.374 . S
C1802 H1776 0.950 . S
C1802 C1798 1.385 . S
C1802 C1801 1.374 . S
C1803 C1800 1.499 . S
C1803 C1804 1.373 . S
C1803 C1805 1.389 . S
C1804 H1777 0.950 . S
C1804 C1790 1.377 . S
C1804 C1803 1.373 . S
C1805 C1789 1.377 . S
C1805 C1803 1.389 . S
C1805 C1806 1.524 . S
C1806 C1805 1.524 . S
C1806 C1807 1.397 . S
C1806 C1811 1.363 . S
C1807 H1778 0.950 . S
C1807 C1806 1.397 . S
C1807 C1808 1.334 . S
C1808 H1779 0.950 . S
C1808 C1807 1.334 . S
C1808 C1809 1.287 . S
C1809 C1808 1.287 . S
C1809 C1810 1.524 . S
C1809 H1812 0.999 . S
C1810 H1780 0.950 . S
C1810 C1809 1.524 . S
C1810 C1811 1.415 . S
C1811 H1781 0.950 . S
C1811 C1806 1.363 . S
C1811 C1810 1.415 . S
H1812 C1809 0.999 . S
H1813 C1794 0.913 . S
H1814 C1832 0.951 . S
H1815 C1834 0.951 . S
H1816 C1836 0.950 . S
H1817 C1837 0.950 . S
H1818 C1839 0.950 . S
H1819 C1842 0.950 . S
H1820 C1843 0.950 . S
H1821 C1845 0.950 . S
H1822 C1846 0.950 . S
H1823 C1847 0.951 . S
H1824 C1849 0.951 . S
H1825 C1851 0.950 . S
H1826 C1852 0.950 . S
H1827 C1854 0.950 . S
H1828 C1857 0.950 . S
H1829 C1858 0.950 . S
H1830 C1860 0.950 1_554 S
H1831 C1861 0.950 . S
C1832 H1814 0.951 . S
C1832 C1833 1.366 . S
C1832 C1834 1.388 . S
C1833 C1832 1.366 . S
C1833 C1837 1.385 . S
C1834 H1815 0.951 . S
C1834 C1832 1.388 . S
C1834 C1835 1.366 . S
C1835 C1834 1.366 . S
C1835 C1836 1.414 . S
C1835 C1838 1.499 . S
C1836 H1816 0.950 . S
C1836 C1835 1.414 . S
C1836 C1837 1.374 . S
C1837 H1817 0.950 . S
C1837 C1833 1.385 . S
C1837 C1836 1.374 . S
C1838 C1835 1.499 . S
C1838 C1839 1.373 . S
C1838 C1840 1.389 . S
C1839 H1818 0.950 . S
C1839 C1838 1.373 . S
C1839 C1855 1.377 . S
C1840 C1838 1.389 . S
C1840 C1841 1.524 . S
C1840 C1854 1.377 . S
C1841 C1840 1.524 . S
C1841 C1842 1.397 . S
C1841 C1846 1.363 . S
C1842 H1819 0.950 . S
C1842 C1841 1.397 . S
C1842 C1843 1.334 . S
C1843 H1820 0.950 . S
C1843 C1842 1.334 . S
C1843 C1844 1.287 . S
C1844 C1843 1.287 . S
C1844 C1845 1.524 . S
C1844 H1863 0.913 . S
C1845 H1821 0.950 . S
C1845 C1844 1.524 . S
C1845 C1846 1.415 . S
C1846 H1822 0.950 . S
C1846 C1841 1.363 . S
C1846 C1845 1.415 . S
C1847 H1823 0.951 . S
C1847 C1848 1.366 . S
C1847 C1849 1.388 . S
C1848 C1847 1.366 . S
C1848 C1852 1.385 . S
C1849 H1824 0.951 . S
C1849 C1847 1.388 . S
C1849 C1850 1.366 . S
C1850 C1849 1.366 . S
C1850 C1851 1.414 . S
C1850 C1853 1.499 . S
C1851 H1825 0.950 . S
C1851 C1850 1.414 . S
C1851 C1852 1.374 . S
C1852 H1826 0.950 . S
C1852 C1848 1.385 . S
C1852 C1851 1.374 . S
C1853 C1850 1.499 . S
C1853 C1854 1.373 . S
C1853 C1855 1.389 . S
C1854 H1827 0.950 . S
C1854 C1840 1.377 . S
C1854 C1853 1.373 . S
C1855 C1839 1.377 . S
C1855 C1853 1.389 . S
C1855 C1856 1.524 . S
C1856 C1855 1.524 . S
C1856 C1857 1.397 . S
C1856 C1861 1.363 . S
C1857 H1828 0.950 . S
C1857 C1856 1.397 . S
C1857 C1858 1.334 . S
C1858 H1829 0.950 . S
C1858 C1857 1.334 . S
C1858 C1859 1.287 1_556 S
C1859 C1858 1.287 1_554 S
C1859 C1860 1.524 1_554 S
C1859 H1862 0.999 . S
C1860 H1830 0.950 1_556 S
C1860 C1859 1.524 1_556 S
C1860 C1861 1.415 . S
C1861 H1831 0.950 . S
C1861 C1856 1.363 . S
C1861 C1860 1.415 . S
H1862 C1859 0.999 . S
H1863 C1844 0.913 . S
H1864 C1882 0.951 . S
H1865 C1884 0.951 . S
H1866 C1886 0.950 . S
H1867 C1887 0.950 . S
H1868 C1889 0.950 . S
H1869 C1892 0.950 . S
H1870 C1893 0.950 . S
H1871 C1895 0.950 . S
H1872 C1896 0.950 . S
H1873 C1897 0.951 . S
H1874 C1899 0.951 . S
H1875 C1901 0.950 . S
H1876 C1902 0.950 . S
H1877 C1904 0.950 . S
H1878 C1907 0.950 . S
H1879 C1908 0.950 . S
H1880 C1910 0.950 . S
H1881 C1911 0.950 . S
C1882 H1864 0.951 . S
C1882 C1883 1.366 . S
C1882 C1884 1.388 . S
C1883 C1882 1.366 . S
C1883 C1887 1.385 . S
C1884 H1865 0.951 . S
C1884 C1882 1.388 . S
C1884 C1885 1.366 . S
C1885 C1884 1.366 . S
C1885 C1886 1.414 . S
C1885 C1888 1.499 . S
C1886 H1866 0.950 . S
C1886 C1885 1.414 . S
C1886 C1887 1.374 . S
C1887 H1867 0.950 . S
C1887 C1883 1.385 . S
C1887 C1886 1.374 . S
C1888 C1885 1.499 . S
C1888 C1889 1.373 . S
C1888 C1890 1.389 . S
C1889 H1868 0.950 . S
C1889 C1888 1.373 . S
C1889 C1905 1.377 . S
C1890 C1888 1.389 . S
C1890 C1891 1.524 . S
C1890 C1904 1.377 . S
C1891 C1890 1.524 . S
C1891 C1892 1.397 . S
C1891 C1896 1.363 . S
C1892 H1869 0.950 . S
C1892 C1891 1.397 . S
C1892 C1893 1.334 . S
C1893 H1870 0.950 . S
C1893 C1892 1.334 . S
C1893 C1894 1.287 . S
C1894 C1893 1.287 . S
C1894 C1895 1.524 . S
C1894 H1913 0.913 . S
C1895 H1871 0.950 . S
C1895 C1894 1.524 . S
C1895 C1896 1.415 . S
C1896 H1872 0.950 . S
C1896 C1891 1.363 . S
C1896 C1895 1.415 . S
C1897 H1873 0.951 . S
C1897 C1898 1.366 . S
C1897 C1899 1.388 . S
C1898 C1897 1.366 . S
C1898 C1902 1.385 . S
C1899 H1874 0.951 . S
C1899 C1897 1.388 . S
C1899 C1900 1.366 . S
C1900 C1899 1.366 . S
C1900 C1901 1.414 . S
C1900 C1903 1.499 . S
C1901 H1875 0.950 . S
C1901 C1900 1.414 . S
C1901 C1902 1.374 . S
C1902 H1876 0.950 . S
C1902 C1898 1.385 . S
C1902 C1901 1.374 . S
C1903 C1900 1.499 . S
C1903 C1904 1.373 . S
C1903 C1905 1.389 . S
C1904 H1877 0.950 . S
C1904 C1890 1.377 . S
C1904 C1903 1.373 . S
C1905 C1889 1.377 . S
C1905 C1903 1.389 . S
C1905 C1906 1.524 . S
C1906 C1905 1.524 . S
C1906 C1907 1.397 1_565 S
C1906 C1911 1.363 . S
C1907 H1878 0.950 . S
C1907 C1906 1.397 1_545 S
C1907 C1908 1.334 . S
C1908 H1879 0.950 . S
C1908 C1907 1.334 . S
C1908 C1909 1.287 . S
C1909 C1908 1.287 . S
C1909 C1910 1.524 1_545 S
C1909 H1912 0.999 . S
C1910 H1880 0.950 . S
C1910 C1909 1.524 1_565 S
C1910 C1911 1.415 . S
C1911 H1881 0.950 . S
C1911 C1906 1.363 . S
C1911 C1910 1.415 . S
H1912 C1909 0.999 . S
H1913 C1894 0.913 . S
H1914 C1932 0.951 . S
H1915 C1934 0.951 . S
H1916 C1936 0.950 . S
H1917 C1937 0.950 . S
H1918 C1939 0.950 . S
H1919 C1942 0.950 . S
H1920 C1943 0.950 . S
H1921 C1945 0.950 . S
H1922 C1946 0.950 . S
H1923 C1947 0.951 . S
H1924 C1949 0.951 . S
H1925 C1951 0.950 . S
H1926 C1952 0.950 . S
H1927 C1954 0.950 . S
H1928 C1957 0.950 . S
H1929 C1958 0.950 . S
H1930 C1960 0.950 . S
H1931 C1961 0.950 . S
C1932 H1914 0.951 . S
C1932 C1933 1.366 . S
C1932 C1934 1.388 . S
C1933 C1932 1.366 . S
C1933 C1937 1.385 . S
C1934 H1915 0.951 . S
C1934 C1932 1.388 . S
C1934 C1935 1.366 . S
C1935 C1934 1.366 . S
C1935 C1936 1.414 . S
C1935 C1938 1.499 . S
C1936 H1916 0.950 . S
C1936 C1935 1.414 . S
C1936 C1937 1.374 . S
C1937 H1917 0.950 . S
C1937 C1933 1.385 . S
C1937 C1936 1.374 . S
C1938 C1935 1.499 . S
C1938 C1939 1.373 . S
C1938 C1940 1.389 . S
C1939 H1918 0.950 . S
C1939 C1938 1.373 . S
C1939 C1955 1.377 . S
C1940 C1938 1.389 . S
C1940 C1941 1.524 . S
C1940 C1954 1.377 . S
C1941 C1940 1.524 . S
C1941 C1942 1.397 . S
C1941 C1946 1.363 . S
C1942 H1919 0.950 . S
C1942 C1941 1.397 . S
C1942 C1943 1.334 . S
C1943 H1920 0.950 . S
C1943 C1942 1.334 . S
C1943 C1944 1.287 . S
C1944 C1943 1.287 . S
C1944 C1945 1.524 . S
C1944 H1963 0.913 . S
C1945 H1921 0.950 . S
C1945 C1944 1.524 . S
C1945 C1946 1.415 . S
C1946 H1922 0.950 . S
C1946 C1941 1.363 . S
C1946 C1945 1.415 . S
C1947 H1923 0.951 . S
C1947 C1948 1.366 . S
C1947 C1949 1.388 . S
C1948 C1947 1.366 . S
C1948 C1952 1.385 . S
C1949 H1924 0.951 . S
C1949 C1947 1.388 . S
C1949 C1950 1.366 . S
C1950 C1949 1.366 . S
C1950 C1951 1.414 . S
C1950 C1953 1.499 . S
C1951 H1925 0.950 . S
C1951 C1950 1.414 . S
C1951 C1952 1.374 . S
C1952 H1926 0.950 . S
C1952 C1948 1.385 . S
C1952 C1951 1.374 . S
C1953 C1950 1.499 . S
C1953 C1954 1.373 . S
C1953 C1955 1.389 . S
C1954 H1927 0.950 . S
C1954 C1940 1.377 . S
C1954 C1953 1.373 . S
C1955 C1939 1.377 . S
C1955 C1953 1.389 . S
C1955 C1956 1.524 . S
C1956 C1955 1.524 . S
C1956 C1957 1.397 . S
C1956 C1961 1.363 . S
C1957 H1928 0.950 . S
C1957 C1956 1.397 . S
C1957 C1958 1.334 . S
C1958 H1929 0.950 . S
C1958 C1957 1.334 . S
C1958 C1959 1.287 . S
C1959 C1958 1.287 . S
C1959 C1960 1.524 . S
C1959 H1962 0.999 . S
C1960 H1930 0.950 . S
C1960 C1959 1.524 . S
C1960 C1961 1.415 . S
C1961 H1931 0.950 . S
C1961 C1956 1.363 . S
C1961 C1960 1.415 . S
H1962 C1959 0.999 . S
H1963 C1944 0.913 . S
H1964 C1982 0.951 . S
H1965 C1984 0.951 . S
H1966 C1986 0.950 . S
H1967 C1987 0.950 . S
H1968 C1989 0.950 . S
H1969 C1992 0.950 . S
H1970 C1993 0.950 . S
H1971 C1995 0.950 . S
H1972 C1996 0.950 . S
H1973 C1997 0.951 . S
H1974 C1999 0.951 . S
H1975 C2001 0.950 . S
H1976 C2002 0.950 . S
H1977 C2004 0.950 . S
H1978 C2007 0.950 . S
H1979 C2008 0.950 . S
H1980 C2010 0.950 . S
H1981 C2011 0.950 . S
C1982 H1964 0.951 . S
C1982 C1983 1.366 . S
C1982 C1984 1.388 . S
C1983 C1982 1.366 . S
C1983 C1987 1.385 . S
C1984 H1965 0.951 . S
C1984 C1982 1.388 . S
C1984 C1985 1.366 . S
C1985 C1984 1.366 . S
C1985 C1986 1.414 . S
C1985 C1988 1.499 . S
C1986 H1966 0.950 . S
C1986 C1985 1.414 . S
C1986 C1987 1.374 . S
C1987 H1967 0.950 . S
C1987 C1983 1.385 . S
C1987 C1986 1.374 . S
C1988 C1985 1.499 . S
C1988 C1989 1.373 . S
C1988 C1990 1.389 . S
C1989 H1968 0.950 . S
C1989 C1988 1.373 . S
C1989 C2005 1.377 . S
C1990 C1988 1.389 . S
C1990 C1991 1.524 . S
C1990 C2004 1.377 . S
C1991 C1990 1.524 . S
C1991 C1992 1.397 . S
C1991 C1996 1.363 . S
C1992 H1969 0.950 . S
C1992 C1991 1.397 . S
C1992 C1993 1.334 . S
C1993 H1970 0.950 . S
C1993 C1992 1.334 . S
C1993 C1994 1.287 . S
C1994 C1993 1.287 . S
C1994 C1995 1.524 . S
C1994 H2013 0.913 . S
C1995 H1971 0.950 . S
C1995 C1994 1.524 . S
C1995 C1996 1.415 . S
C1996 H1972 0.950 . S
C1996 C1991 1.363 . S
C1996 C1995 1.415 . S
C1997 H1973 0.951 . S
C1997 C1998 1.366 . S
C1997 C1999 1.388 . S
C1998 C1997 1.366 . S
C1998 C2002 1.385 . S
C1999 H1974 0.951 . S
C1999 C1997 1.388 . S
C1999 C2000 1.366 . S
C2000 C1999 1.366 . S
C2000 C2001 1.414 . S
C2000 C2003 1.499 . S
C2001 H1975 0.950 . S
C2001 C2000 1.414 . S
C2001 C2002 1.374 . S
C2002 H1976 0.950 . S
C2002 C1998 1.385 . S
C2002 C2001 1.374 . S
C2003 C2000 1.499 . S
C2003 C2004 1.373 . S
C2003 C2005 1.389 . S
C2004 H1977 0.950 . S
C2004 C1990 1.377 . S
C2004 C2003 1.373 . S
C2005 C1989 1.377 . S
C2005 C2003 1.389 . S
C2005 C2006 1.524 . S
C2006 C2005 1.524 . S
C2006 C2007 1.397 . S
C2006 C2011 1.363 . S
C2007 H1978 0.950 . S
C2007 C2006 1.397 . S
C2007 C2008 1.334 . S
C2008 H1979 0.950 . S
C2008 C2007 1.334 . S
C2008 C2009 1.287 . S
C2009 C2008 1.287 . S
C2009 C2010 1.524 . S
C2009 H2012 0.999 . S
C2010 H1980 0.950 . S
C2010 C2009 1.524 . S
C2010 C2011 1.415 . S
C2011 H1981 0.950 . S
C2011 C2006 1.363 . S
C2011 C2010 1.415 . S
H2012 C2009 0.999 . S
H2013 C1994 0.913 . S
H2014 C2032 0.951 . S
H2015 C2034 0.951 . S
H2016 C2036 0.950 . S
H2017 C2037 0.950 . S
H2018 C2039 0.950 . S
H2019 C2042 0.950 . S
H2020 C2043 0.950 . S
H2021 C2045 0.950 . S
H2022 C2046 0.950 . S
H2023 C2047 0.951 . S
H2024 C2049 0.951 . S
H2025 C2051 0.950 . S
H2026 C2052 0.950 . S
H2027 C2054 0.950 . S
H2028 C2057 0.950 . S
H2029 C2058 0.950 . S
H2030 C2060 0.950 . S
H2031 C2061 0.950 . S
C2032 H2014 0.951 . S
C2032 C2033 1.366 . S
C2032 C2034 1.388 . S
C2033 C2032 1.366 . S
C2033 C2037 1.385 . S
C2034 H2015 0.951 . S
C2034 C2032 1.388 . S
C2034 C2035 1.366 . S
C2035 C2034 1.366 . S
C2035 C2036 1.414 . S
C2035 C2038 1.499 . S
C2036 H2016 0.950 . S
C2036 C2035 1.414 . S
C2036 C2037 1.374 . S
C2037 H2017 0.950 . S
C2037 C2033 1.385 . S
C2037 C2036 1.374 . S
C2038 C2035 1.499 . S
C2038 C2039 1.373 . S
C2038 C2040 1.389 . S
C2039 H2018 0.950 . S
C2039 C2038 1.373 . S
C2039 C2055 1.377 . S
C2040 C2038 1.389 . S
C2040 C2041 1.524 . S
C2040 C2054 1.377 . S
C2041 C2040 1.524 . S
C2041 C2042 1.397 . S
C2041 C2046 1.363 . S
C2042 H2019 0.950 . S
C2042 C2041 1.397 . S
C2042 C2043 1.334 . S
C2043 H2020 0.950 . S
C2043 C2042 1.334 . S
C2043 C2044 1.287 . S
C2044 C2043 1.287 . S
C2044 C2045 1.524 . S
C2044 H2063 0.913 . S
C2045 H2021 0.950 . S
C2045 C2044 1.524 . S
C2045 C2046 1.415 . S
C2046 H2022 0.950 . S
C2046 C2041 1.363 . S
C2046 C2045 1.415 . S
C2047 H2023 0.951 . S
C2047 C2048 1.366 . S
C2047 C2049 1.388 . S
C2048 C2047 1.366 . S
C2048 C2052 1.385 . S
C2049 H2024 0.951 . S
C2049 C2047 1.388 . S
C2049 C2050 1.366 . S
C2050 C2049 1.366 . S
C2050 C2051 1.414 . S
C2050 C2053 1.499 . S
C2051 H2025 0.950 . S
C2051 C2050 1.414 . S
C2051 C2052 1.374 . S
C2052 H2026 0.950 . S
C2052 C2048 1.385 . S
C2052 C2051 1.374 . S
C2053 C2050 1.499 . S
C2053 C2054 1.373 . S
C2053 C2055 1.389 . S
C2054 H2027 0.950 . S
C2054 C2040 1.377 . S
C2054 C2053 1.373 . S
C2055 C2039 1.377 . S
C2055 C2053 1.389 . S
C2055 C2056 1.524 . S
C2056 C2055 1.524 . S
C2056 C2057 1.397 . S
C2056 C2061 1.363 . S
C2057 H2028 0.950 . S
C2057 C2056 1.397 . S
C2057 C2058 1.334 . S
C2058 H2029 0.950 . S
C2058 C2057 1.334 . S
C2058 C2059 1.287 . S
C2059 C2058 1.287 . S
C2059 C2060 1.524 . S
C2059 H2062 0.999 . S
C2060 H2030 0.950 . S
C2060 C2059 1.524 . S
C2060 C2061 1.415 . S
C2061 H2031 0.950 . S
C2061 C2056 1.363 . S
C2061 C2060 1.415 . S
H2062 C2059 0.999 . S
H2063 C2044 0.913 . S
H2064 C2082 0.951 . S
H2065 C2084 0.951 . S
H2066 C2086 0.950 . S
H2067 C2087 0.950 . S
H2068 C2089 0.950 . S
H2069 C2092 0.950 . S
H2070 C2093 0.950 . S
H2071 C2095 0.950 . S
H2072 C2096 0.950 . S
H2073 C2097 0.951 . S
H2074 C2099 0.951 . S
H2075 C2101 0.950 . S
H2076 C2102 0.950 . S
H2077 C2104 0.950 . S
H2078 C2107 0.950 . S
H2079 C2108 0.950 . S
H2080 C2110 0.950 . S
H2081 C2111 0.950 . S
C2082 H2064 0.951 . S
C2082 C2083 1.366 . S
C2082 C2084 1.388 . S
C2083 C2082 1.366 . S
C2083 C2087 1.385 . S
C2084 H2065 0.951 . S
C2084 C2082 1.388 . S
C2084 C2085 1.366 . S
C2085 C2084 1.366 . S
C2085 C2086 1.414 . S
C2085 C2088 1.499 . S
C2086 H2066 0.950 . S
C2086 C2085 1.414 . S
C2086 C2087 1.374 . S
C2087 H2067 0.950 . S
C2087 C2083 1.385 . S
C2087 C2086 1.374 . S
C2088 C2085 1.499 . S
C2088 C2089 1.373 . S
C2088 C2090 1.389 . S
C2089 H2068 0.950 . S
C2089 C2088 1.373 . S
C2089 C2105 1.377 . S
C2090 C2088 1.389 . S
C2090 C2091 1.524 . S
C2090 C2104 1.377 . S
C2091 C2090 1.524 . S
C2091 C2092 1.397 . S
C2091 C2096 1.363 . S
C2092 H2069 0.950 . S
C2092 C2091 1.397 . S
C2092 C2093 1.334 . S
C2093 H2070 0.950 . S
C2093 C2092 1.334 . S
C2093 C2094 1.287 . S
C2094 C2093 1.287 . S
C2094 C2095 1.524 . S
C2094 H2113 0.913 . S
C2095 H2071 0.950 . S
C2095 C2094 1.524 . S
C2095 C2096 1.415 . S
C2096 H2072 0.950 . S
C2096 C2091 1.363 . S
C2096 C2095 1.415 . S
C2097 H2073 0.951 . S
C2097 C2098 1.366 . S
C2097 C2099 1.388 . S
C2098 C2097 1.366 . S
C2098 C2102 1.385 . S
C2099 H2074 0.951 . S
C2099 C2097 1.388 . S
C2099 C2100 1.366 . S
C2100 C2099 1.366 . S
C2100 C2101 1.414 . S
C2100 C2103 1.499 . S
C2101 H2075 0.950 . S
C2101 C2100 1.414 . S
C2101 C2102 1.374 . S
C2102 H2076 0.950 . S
C2102 C2098 1.385 . S
C2102 C2101 1.374 . S
C2103 C2100 1.499 . S
C2103 C2104 1.373 . S
C2103 C2105 1.389 . S
C2104 H2077 0.950 . S
C2104 C2090 1.377 . S
C2104 C2103 1.373 . S
C2105 C2089 1.377 . S
C2105 C2103 1.389 . S
C2105 C2106 1.524 . S
C2106 C2105 1.524 . S
C2106 C2107 1.397 . S
C2106 C2111 1.363 . S
C2107 H2078 0.950 . S
C2107 C2106 1.397 . S
C2107 C2108 1.334 . S
C2108 H2079 0.950 . S
C2108 C2107 1.334 . S
C2108 C2109 1.287 . S
C2109 C2108 1.287 . S
C2109 C2110 1.524 . S
C2109 H2112 0.999 . S
C2110 H2080 0.950 . S
C2110 C2109 1.524 . S
C2110 C2111 1.415 . S
C2111 H2081 0.950 . S
C2111 C2106 1.363 . S
C2111 C2110 1.415 . S
H2112 C2109 0.999 . S
H2113 C2094 0.913 . S
H2114 C2132 0.951 . S
H2115 C2134 0.951 . S
H2116 C2136 0.950 . S
H2117 C2137 0.950 . S
H2118 C2139 0.950 . S
H2119 C2142 0.950 . S
H2120 C2143 0.950 . S
H2121 C2145 0.950 . S
H2122 C2146 0.950 . S
H2123 C2147 0.951 1_554 S
H2124 C2149 0.951 . S
H2125 C2151 0.950 . S
H2126 C2152 0.950 . S
H2127 C2154 0.950 . S
H2128 C2157 0.950 . S
H2129 C2158 0.950 1_554 S
H2130 C2160 0.950 . S
H2131 C2161 0.950 . S
C2132 H2114 0.951 . S
C2132 C2133 1.366 . S
C2132 C2134 1.388 . S
C2133 C2132 1.366 . S
C2133 C2137 1.385 . S
C2134 H2115 0.951 . S
C2134 C2132 1.388 . S
C2134 C2135 1.366 . S
C2135 C2134 1.366 . S
C2135 C2136 1.414 . S
C2135 C2138 1.499 . S
C2136 H2116 0.950 . S
C2136 C2135 1.414 . S
C2136 C2137 1.374 . S
C2137 H2117 0.950 . S
C2137 C2133 1.385 . S
C2137 C2136 1.374 . S
C2138 C2135 1.499 . S
C2138 C2139 1.373 . S
C2138 C2140 1.389 . S
C2139 H2118 0.950 . S
C2139 C2138 1.373 . S
C2139 C2155 1.377 . S
C2140 C2138 1.389 . S
C2140 C2141 1.524 . S
C2140 C2154 1.377 . S
C2141 C2140 1.524 . S
C2141 C2142 1.397 . S
C2141 C2146 1.363 . S
C2142 H2119 0.950 . S
C2142 C2141 1.397 . S
C2142 C2143 1.334 . S
C2143 H2120 0.950 . S
C2143 C2142 1.334 . S
C2143 C2144 1.287 . S
C2144 C2143 1.287 . S
C2144 C2145 1.524 . S
C2144 H2163 0.913 . S
C2145 H2121 0.950 . S
C2145 C2144 1.524 . S
C2145 C2146 1.415 . S
C2146 H2122 0.950 . S
C2146 C2141 1.363 . S
C2146 C2145 1.415 . S
C2147 H2123 0.951 1_556 S
C2147 C2148 1.366 . S
C2147 C2149 1.388 . S
C2148 C2147 1.366 . S
C2148 C2152 1.385 . S
C2149 H2124 0.951 . S
C2149 C2147 1.388 . S
C2149 C2150 1.366 . S
C2150 C2149 1.366 . S
C2150 C2151 1.414 . S
C2150 C2153 1.499 . S
C2151 H2125 0.950 . S
C2151 C2150 1.414 . S
C2151 C2152 1.374 . S
C2152 H2126 0.950 . S
C2152 C2148 1.385 . S
C2152 C2151 1.374 . S
C2153 C2150 1.499 . S
C2153 C2154 1.373 . S
C2153 C2155 1.389 . S
C2154 H2127 0.950 . S
C2154 C2140 1.377 . S
C2154 C2153 1.373 . S
C2155 C2139 1.377 . S
C2155 C2153 1.389 . S
C2155 C2156 1.524 . S
C2156 C2155 1.524 . S
C2156 C2157 1.397 . S
C2156 C2161 1.363 . S
C2157 H2128 0.950 . S
C2157 C2156 1.397 . S
C2157 C2158 1.334 . S
C2158 H2129 0.950 1_556 S
C2158 C2157 1.334 . S
C2158 C2159 1.287 1_556 S
C2159 C2158 1.287 1_554 S
C2159 C2160 1.524 . S
C2159 H2162 0.999 . S
C2160 H2130 0.950 . S
C2160 C2159 1.524 . S
C2160 C2161 1.415 1_554 S
C2161 H2131 0.950 . S
C2161 C2156 1.363 . S
C2161 C2160 1.415 1_556 S
H2162 C2159 0.999 . S
H2163 C2144 0.913 . S
H2164 C2182 0.951 . S
H2165 C2184 0.951 . S
H2166 C2186 0.950 . S
H2167 C2187 0.950 . S
H2168 C2189 0.950 . S
H2169 C2192 0.950 . S
H2170 C2193 0.950 . S
H2171 C2195 0.950 . S
H2172 C2196 0.950 . S
H2173 C2197 0.951 . S
H2174 C2199 0.951 . S
H2175 C2201 0.950 . S
H2176 C2202 0.950 . S
H2177 C2204 0.950 . S
H2178 C2207 0.950 . S
H2179 C2208 0.950 . S
H2180 C2210 0.950 . S
H2181 C2211 0.950 . S
C2182 H2164 0.951 . S
C2182 C2183 1.366 . S
C2182 C2184 1.388 . S
C2183 C2182 1.366 . S
C2183 C2187 1.385 . S
C2184 H2165 0.951 . S
C2184 C2182 1.388 . S
C2184 C2185 1.366 . S
C2185 C2184 1.366 . S
C2185 C2186 1.414 . S
C2185 C2188 1.499 . S
C2186 H2166 0.950 . S
C2186 C2185 1.414 . S
C2186 C2187 1.374 . S
C2187 H2167 0.950 . S
C2187 C2183 1.385 . S
C2187 C2186 1.374 . S
C2188 C2185 1.499 . S
C2188 C2189 1.373 . S
C2188 C2190 1.389 . S
C2189 H2168 0.950 . S
C2189 C2188 1.373 . S
C2189 C2205 1.377 . S
C2190 C2188 1.389 . S
C2190 C2191 1.524 . S
C2190 C2204 1.377 . S
C2191 C2190 1.524 . S
C2191 C2192 1.397 . S
C2191 C2196 1.363 . S
C2192 H2169 0.950 . S
C2192 C2191 1.397 . S
C2192 C2193 1.334 . S
C2193 H2170 0.950 . S
C2193 C2192 1.334 . S
C2193 C2194 1.287 . S
C2194 C2193 1.287 . S
C2194 C2195 1.524 . S
C2194 H2213 0.913 . S
C2195 H2171 0.950 . S
C2195 C2194 1.524 . S
C2195 C2196 1.415 . S
C2196 H2172 0.950 . S
C2196 C2191 1.363 . S
C2196 C2195 1.415 . S
C2197 H2173 0.951 . S
C2197 C2198 1.366 . S
C2197 C2199 1.388 . S
C2198 C2197 1.366 . S
C2198 C2202 1.385 . S
C2199 H2174 0.951 . S
C2199 C2197 1.388 . S
C2199 C2200 1.366 . S
C2200 C2199 1.366 . S
C2200 C2201 1.414 . S
C2200 C2203 1.499 . S
C2201 H2175 0.950 . S
C2201 C2200 1.414 . S
C2201 C2202 1.374 . S
C2202 H2176 0.950 . S
C2202 C2198 1.385 . S
C2202 C2201 1.374 . S
C2203 C2200 1.499 . S
C2203 C2204 1.373 . S
C2203 C2205 1.389 . S
C2204 H2177 0.950 . S
C2204 C2190 1.377 . S
C2204 C2203 1.373 . S
C2205 C2189 1.377 . S
C2205 C2203 1.389 . S
C2205 C2206 1.524 . S
C2206 C2205 1.524 . S
C2206 C2207 1.397 . S
C2206 C2211 1.363 . S
C2207 H2178 0.950 . S
C2207 C2206 1.397 . S
C2207 C2208 1.334 . S
C2208 H2179 0.950 . S
C2208 C2207 1.334 . S
C2208 C2209 1.287 . S
C2209 C2208 1.287 . S
C2209 C2210 1.524 . S
C2209 H2212 0.999 . S
C2210 H2180 0.950 . S
C2210 C2209 1.524 . S
C2210 C2211 1.415 . S
C2211 H2181 0.950 . S
C2211 C2206 1.363 . S
C2211 C2210 1.415 . S
H2212 C2209 0.999 . S
H2213 C2194 0.913 . S
H2214 C2232 0.951 . S
H2215 C2234 0.951 . S
H2216 C2236 0.950 . S
H2217 C2237 0.950 . S
H2218 C2239 0.950 . S
H2219 C2242 0.950 . S
H2220 C2243 0.950 . S
H2221 C2245 0.950 . S
H2222 C2246 0.950 . S
H2223 C2247 0.951 . S
H2224 C2249 0.951 . S
H2225 C2251 0.950 . S
H2226 C2252 0.950 . S
H2227 C2254 0.950 . S
H2228 C2257 0.950 . S
H2229 C2258 0.950 . S
H2230 C2260 0.950 . S
H2231 C2261 0.950 . S
C2232 H2214 0.951 . S
C2232 C2233 1.366 . S
C2232 C2234 1.388 . S
C2233 C2232 1.366 . S
C2233 C2237 1.385 . S
C2234 H2215 0.951 . S
C2234 C2232 1.388 . S
C2234 C2235 1.366 . S
C2235 C2234 1.366 . S
C2235 C2236 1.414 . S
C2235 C2238 1.499 . S
C2236 H2216 0.950 . S
C2236 C2235 1.414 . S
C2236 C2237 1.374 . S
C2237 H2217 0.950 . S
C2237 C2233 1.385 . S
C2237 C2236 1.374 . S
C2238 C2235 1.499 . S
C2238 C2239 1.373 . S
C2238 C2240 1.389 . S
C2239 H2218 0.950 . S
C2239 C2238 1.373 . S
C2239 C2255 1.377 . S
C2240 C2238 1.389 . S
C2240 C2241 1.524 . S
C2240 C2254 1.377 . S
C2241 C2240 1.524 . S
C2241 C2242 1.397 . S
C2241 C2246 1.363 . S
C2242 H2219 0.950 . S
C2242 C2241 1.397 . S
C2242 C2243 1.334 . S
C2243 H2220 0.950 . S
C2243 C2242 1.334 . S
C2243 C2244 1.287 . S
C2244 C2243 1.287 . S
C2244 C2245 1.524 . S
C2244 H2263 0.913 . S
C2245 H2221 0.950 . S
C2245 C2244 1.524 . S
C2245 C2246 1.415 . S
C2246 H2222 0.950 . S
C2246 C2241 1.363 . S
C2246 C2245 1.415 . S
C2247 H2223 0.951 . S
C2247 C2248 1.366 . S
C2247 C2249 1.388 . S
C2248 C2247 1.366 . S
C2248 C2252 1.385 . S
C2249 H2224 0.951 . S
C2249 C2247 1.388 . S
C2249 C2250 1.366 . S
C2250 C2249 1.366 . S
C2250 C2251 1.414 . S
C2250 C2253 1.499 . S
C2251 H2225 0.950 . S
C2251 C2250 1.414 . S
C2251 C2252 1.374 . S
C2252 H2226 0.950 . S
C2252 C2248 1.385 . S
C2252 C2251 1.374 . S
C2253 C2250 1.499 . S
C2253 C2254 1.373 . S
C2253 C2255 1.389 . S
C2254 H2227 0.950 . S
C2254 C2240 1.377 . S
C2254 C2253 1.373 . S
C2255 C2239 1.377 . S
C2255 C2253 1.389 . S
C2255 C2256 1.524 . S
C2256 C2255 1.524 . S
C2256 C2257 1.397 . S
C2256 C2261 1.363 . S
C2257 H2228 0.950 . S
C2257 C2256 1.397 . S
C2257 C2258 1.334 . S
C2258 H2229 0.950 . S
C2258 C2257 1.334 . S
C2258 C2259 1.287 . S
C2259 C2258 1.287 . S
C2259 C2260 1.524 . S
C2259 H2262 0.999 . S
C2260 H2230 0.950 . S
C2260 C2259 1.524 . S
C2260 C2261 1.415 . S
C2261 H2231 0.950 . S
C2261 C2256 1.363 . S
C2261 C2260 1.415 . S
H2262 C2259 0.999 . S
H2263 C2244 0.913 . S
H2264 C2282 0.951 . S
H2265 C2284 0.951 . S
H2266 C2286 0.950 . S
H2267 C2287 0.950 . S
H2268 C2289 0.950 . S
H2269 C2292 0.950 . S
H2270 C2293 0.950 . S
H2271 C2295 0.950 . S
H2272 C2296 0.950 . S
H2273 C2297 0.951 . S
H2274 C2299 0.951 . S
H2275 C2301 0.950 . S
H2276 C2302 0.950 . S
H2277 C2304 0.950 . S
H2278 C2307 0.950 . S
H2279 C2308 0.950 . S
H2280 C2310 0.950 . S
H2281 C2311 0.950 . S
C2282 H2264 0.951 . S
C2282 C2283 1.366 . S
C2282 C2284 1.388 . S
C2283 C2282 1.366 . S
C2283 C2287 1.385 . S
C2284 H2265 0.951 . S
C2284 C2282 1.388 . S
C2284 C2285 1.366 . S
C2285 C2284 1.366 . S
C2285 C2286 1.414 . S
C2285 C2288 1.499 . S
C2286 H2266 0.950 . S
C2286 C2285 1.414 . S
C2286 C2287 1.374 . S
C2287 H2267 0.950 . S
C2287 C2283 1.385 . S
C2287 C2286 1.374 . S
C2288 C2285 1.499 . S
C2288 C2289 1.373 . S
C2288 C2290 1.389 . S
C2289 H2268 0.950 . S
C2289 C2288 1.373 . S
C2289 C2305 1.377 . S
C2290 C2288 1.389 . S
C2290 C2291 1.524 . S
C2290 C2304 1.377 . S
C2291 C2290 1.524 . S
C2291 C2292 1.397 . S
C2291 C2296 1.363 . S
C2292 H2269 0.950 . S
C2292 C2291 1.397 . S
C2292 C2293 1.334 . S
C2293 H2270 0.950 . S
C2293 C2292 1.334 . S
C2293 C2294 1.287 . S
C2294 C2293 1.287 . S
C2294 C2295 1.524 . S
C2294 H2313 0.913 . S
C2295 H2271 0.950 . S
C2295 C2294 1.524 . S
C2295 C2296 1.415 . S
C2296 H2272 0.950 . S
C2296 C2291 1.363 . S
C2296 C2295 1.415 . S
C2297 H2273 0.951 . S
C2297 C2298 1.366 . S
C2297 C2299 1.388 . S
C2298 C2297 1.366 . S
C2298 C2302 1.385 . S
C2299 H2274 0.951 . S
C2299 C2297 1.388 . S
C2299 C2300 1.366 . S
C2300 C2299 1.366 . S
C2300 C2301 1.414 . S
C2300 C2303 1.499 . S
C2301 H2275 0.950 . S
C2301 C2300 1.414 . S
C2301 C2302 1.374 . S
C2302 H2276 0.950 . S
C2302 C2298 1.385 . S
C2302 C2301 1.374 . S
C2303 C2300 1.499 . S
C2303 C2304 1.373 . S
C2303 C2305 1.389 . S
C2304 H2277 0.950 . S
C2304 C2290 1.377 . S
C2304 C2303 1.373 . S
C2305 C2289 1.377 . S
C2305 C2303 1.389 . S
C2305 C2306 1.524 . S
C2306 C2305 1.524 . S
C2306 C2307 1.397 . S
C2306 C2311 1.363 . S
C2307 H2278 0.950 . S
C2307 C2306 1.397 . S
C2307 C2308 1.334 . S
C2308 H2279 0.950 . S
C2308 C2307 1.334 . S
C2308 C2309 1.287 . S
C2309 C2308 1.287 . S
C2309 C2310 1.524 . S
C2309 H2312 0.999 . S
C2310 H2280 0.950 . S
C2310 C2309 1.524 . S
C2310 C2311 1.415 . S
C2311 H2281 0.950 . S
C2311 C2306 1.363 . S
C2311 C2310 1.415 . S
H2312 C2309 0.999 . S
H2313 C2294 0.913 . S
H2314 C2332 0.951 . S
H2315 C2334 0.951 . S
H2316 C2336 0.950 . S
H2317 C2337 0.950 . S
H2318 C2339 0.950 . S
H2319 C2342 0.950 . S
H2320 C2343 0.950 . S
H2321 C2345 0.950 . S
H2322 C2346 0.950 . S
H2323 C2347 0.951 . S
H2324 C2349 0.951 . S
H2325 C2351 0.950 . S
H2326 C2352 0.950 . S
H2327 C2354 0.950 . S
H2328 C2357 0.950 . S
H2329 C2358 0.950 . S
H2330 C2360 0.950 . S
H2331 C2361 0.950 . S
C2332 H2314 0.951 . S
C2332 C2333 1.366 . S
C2332 C2334 1.388 . S
C2333 C2332 1.366 . S
C2333 C2337 1.385 . S
C2334 H2315 0.951 . S
C2334 C2332 1.388 . S
C2334 C2335 1.366 . S
C2335 C2334 1.366 . S
C2335 C2336 1.414 . S
C2335 C2338 1.499 . S
C2336 H2316 0.950 . S
C2336 C2335 1.414 . S
C2336 C2337 1.374 . S
C2337 H2317 0.950 . S
C2337 C2333 1.385 . S
C2337 C2336 1.374 . S
C2338 C2335 1.499 . S
C2338 C2339 1.373 . S
C2338 C2340 1.389 . S
C2339 H2318 0.950 . S
C2339 C2338 1.373 . S
C2339 C2355 1.377 . S
C2340 C2338 1.389 . S
C2340 C2341 1.524 . S
C2340 C2354 1.377 . S
C2341 C2340 1.524 . S
C2341 C2342 1.397 . S
C2341 C2346 1.363 . S
C2342 H2319 0.950 . S
C2342 C2341 1.397 . S
C2342 C2343 1.334 . S
C2343 H2320 0.950 . S
C2343 C2342 1.334 . S
C2343 C2344 1.287 . S
C2344 C2343 1.287 . S
C2344 C2345 1.524 . S
C2344 H2363 0.913 . S
C2345 H2321 0.950 . S
C2345 C2344 1.524 . S
C2345 C2346 1.415 . S
C2346 H2322 0.950 . S
C2346 C2341 1.363 . S
C2346 C2345 1.415 . S
C2347 H2323 0.951 . S
C2347 C2348 1.366 . S
C2347 C2349 1.388 . S
C2348 C2347 1.366 . S
C2348 C2352 1.385 . S
C2349 H2324 0.951 . S
C2349 C2347 1.388 . S
C2349 C2350 1.366 . S
C2350 C2349 1.366 . S
C2350 C2351 1.414 . S
C2350 C2353 1.499 . S
C2351 H2325 0.950 . S
C2351 C2350 1.414 . S
C2351 C2352 1.374 . S
C2352 H2326 0.950 . S
C2352 C2348 1.385 . S
C2352 C2351 1.374 . S
C2353 C2350 1.499 . S
C2353 C2354 1.373 . S
C2353 C2355 1.389 . S
C2354 H2327 0.950 . S
C2354 C2340 1.377 . S
C2354 C2353 1.373 . S
C2355 C2339 1.377 . S
C2355 C2353 1.389 . S
C2355 C2356 1.524 . S
C2356 C2355 1.524 . S
C2356 C2357 1.397 . S
C2356 C2361 1.363 . S
C2357 H2328 0.950 . S
C2357 C2356 1.397 . S
C2357 C2358 1.334 . S
C2358 H2329 0.950 . S
C2358 C2357 1.334 . S
C2358 C2359 1.287 . S
C2359 C2358 1.287 . S
C2359 C2360 1.524 . S
C2359 H2362 0.999 . S
C2360 H2330 0.950 . S
C2360 C2359 1.524 . S
C2360 C2361 1.415 . S
C2361 H2331 0.950 . S
C2361 C2356 1.363 . S
C2361 C2360 1.415 . S
H2362 C2359 0.999 . S
H2363 C2344 0.913 . S
H2364 C2382 0.951 . S
H2365 C2384 0.951 . S
H2366 C2386 0.950 . S
H2367 C2387 0.950 . S
H2368 C2389 0.950 . S
H2369 C2392 0.950 . S
H2370 C2393 0.950 . S
H2371 C2395 0.950 . S
H2372 C2396 0.950 . S
H2373 C2397 0.951 . S
H2374 C2399 0.951 . S
H2375 C2401 0.950 . S
H2376 C2402 0.950 . S
H2377 C2404 0.950 . S
H2378 C2407 0.950 . S
H2379 C2408 0.950 . S
H2380 C2410 0.950 . S
H2381 C2411 0.950 . S
C2382 H2364 0.951 . S
C2382 C2383 1.366 . S
C2382 C2384 1.388 . S
C2383 C2382 1.366 . S
C2383 C2387 1.385 . S
C2384 H2365 0.951 . S
C2384 C2382 1.388 . S
C2384 C2385 1.366 . S
C2385 C2384 1.366 . S
C2385 C2386 1.414 . S
C2385 C2388 1.499 . S
C2386 H2366 0.950 . S
C2386 C2385 1.414 . S
C2386 C2387 1.374 . S
C2387 H2367 0.950 . S
C2387 C2383 1.385 . S
C2387 C2386 1.374 . S
C2388 C2385 1.499 . S
C2388 C2389 1.373 . S
C2388 C2390 1.389 . S
C2389 H2368 0.950 . S
C2389 C2388 1.373 . S
C2389 C2405 1.377 . S
C2390 C2388 1.389 . S
C2390 C2391 1.524 . S
C2390 C2404 1.377 . S
C2391 C2390 1.524 . S
C2391 C2392 1.397 . S
C2391 C2396 1.363 . S
C2392 H2369 0.950 . S
C2392 C2391 1.397 . S
C2392 C2393 1.334 . S
C2393 H2370 0.950 . S
C2393 C2392 1.334 . S
C2393 C2394 1.287 . S
C2394 C2393 1.287 . S
C2394 C2395 1.524 . S
C2394 H2413 0.913 . S
C2395 H2371 0.950 . S
C2395 C2394 1.524 . S
C2395 C2396 1.415 . S
C2396 H2372 0.950 . S
C2396 C2391 1.363 . S
C2396 C2395 1.415 . S
C2397 H2373 0.951 . S
C2397 C2398 1.366 . S
C2397 C2399 1.388 . S
C2398 C2397 1.366 . S
C2398 C2402 1.385 . S
C2399 H2374 0.951 . S
C2399 C2397 1.388 . S
C2399 C2400 1.366 . S
C2400 C2399 1.366 . S
C2400 C2401 1.414 . S
C2400 C2403 1.499 . S
C2401 H2375 0.950 . S
C2401 C2400 1.414 . S
C2401 C2402 1.374 . S
C2402 H2376 0.950 . S
C2402 C2398 1.385 . S
C2402 C2401 1.374 . S
C2403 C2400 1.499 . S
C2403 C2404 1.373 . S
C2403 C2405 1.389 . S
C2404 H2377 0.950 . S
C2404 C2390 1.377 . S
C2404 C2403 1.373 . S
C2405 C2389 1.377 . S
C2405 C2403 1.389 . S
C2405 C2406 1.524 . S
C2406 C2405 1.524 . S
C2406 C2407 1.397 . S
C2406 C2411 1.363 . S
C2407 H2378 0.950 . S
C2407 C2406 1.397 . S
C2407 C2408 1.334 . S
C2408 H2379 0.950 . S
C2408 C2407 1.334 . S
C2408 C2409 1.287 . S
C2409 C2408 1.287 . S
C2409 C2410 1.524 . S
C2409 H2412 0.999 . S
C2410 H2380 0.950 . S
C2410 C2409 1.524 . S
C2410 C2411 1.415 . S
C2411 H2381 0.950 . S
C2411 C2406 1.363 . S
C2411 C2410 1.415 . S
H2412 C2409 0.999 . S
H2413 C2394 0.913 . S
H2414 C2432 0.951 . S
H2415 C2434 0.951 . S
H2416 C2436 0.950 . S
H2417 C2437 0.950 . S
H2418 C2439 0.950 . S
H2419 C2442 0.950 . S
H2420 C2443 0.950 . S
H2421 C2445 0.950 . S
H2422 C2446 0.950 . S
H2423 C2447 0.951 . S
H2424 C2449 0.951 . S
H2425 C2451 0.950 . S
H2426 C2452 0.950 . S
H2427 C2454 0.950 . S
H2428 C2457 0.950 . S
H2429 C2458 0.950 . S
H2430 C2460 0.950 . S
H2431 C2461 0.950 . S
C2432 H2414 0.951 . S
C2432 C2433 1.366 . S
C2432 C2434 1.388 . S
C2433 C2432 1.366 . S
C2433 C2437 1.385 . S
C2434 H2415 0.951 . S
C2434 C2432 1.388 . S
C2434 C2435 1.366 . S
C2435 C2434 1.366 . S
C2435 C2436 1.414 . S
C2435 C2438 1.499 . S
C2436 H2416 0.950 . S
C2436 C2435 1.414 . S
C2436 C2437 1.374 . S
C2437 H2417 0.950 . S
C2437 C2433 1.385 . S
C2437 C2436 1.374 . S
C2438 C2435 1.499 . S
C2438 C2439 1.373 . S
C2438 C2440 1.389 . S
C2439 H2418 0.950 . S
C2439 C2438 1.373 . S
C2439 C2455 1.377 . S
C2440 C2438 1.389 . S
C2440 C2441 1.524 . S
C2440 C2454 1.377 . S
C2441 C2440 1.524 . S
C2441 C2442 1.397 . S
C2441 C2446 1.363 . S
C2442 H2419 0.950 . S
C2442 C2441 1.397 . S
C2442 C2443 1.334 . S
C2443 H2420 0.950 . S
C2443 C2442 1.334 . S
C2443 C2444 1.287 . S
C2444 C2443 1.287 . S
C2444 C2445 1.524 . S
C2444 H2463 0.913 . S
C2445 H2421 0.950 . S
C2445 C2444 1.524 . S
C2445 C2446 1.415 . S
C2446 H2422 0.950 . S
C2446 C2441 1.363 . S
C2446 C2445 1.415 . S
C2447 H2423 0.951 . S
C2447 C2448 1.366 . S
C2447 C2449 1.388 . S
C2448 C2447 1.366 . S
C2448 C2452 1.385 . S
C2449 H2424 0.951 . S
C2449 C2447 1.388 . S
C2449 C2450 1.366 . S
C2450 C2449 1.366 . S
C2450 C2451 1.414 . S
C2450 C2453 1.499 . S
C2451 H2425 0.950 . S
C2451 C2450 1.414 . S
C2451 C2452 1.374 . S
C2452 H2426 0.950 . S
C2452 C2448 1.385 . S
C2452 C2451 1.374 . S
C2453 C2450 1.499 . S
C2453 C2454 1.373 . S
C2453 C2455 1.389 . S
C2454 H2427 0.950 . S
C2454 C2440 1.377 . S
C2454 C2453 1.373 . S
C2455 C2439 1.377 . S
C2455 C2453 1.389 . S
C2455 C2456 1.524 . S
C2456 C2455 1.524 . S
C2456 C2457 1.397 . S
C2456 C2461 1.363 . S
C2457 H2428 0.950 . S
C2457 C2456 1.397 . S
C2457 C2458 1.334 . S
C2458 H2429 0.950 . S
C2458 C2457 1.334 . S
C2458 C2459 1.287 . S
C2459 C2458 1.287 . S
C2459 C2460 1.524 . S
C2459 H2462 0.999 . S
C2460 H2430 0.950 . S
C2460 C2459 1.524 . S
C2460 C2461 1.415 . S
C2461 H2431 0.950 . S
C2461 C2456 1.363 . S
C2461 C2460 1.415 . S
H2462 C2459 0.999 . S
H2463 C2444 0.913 . S
H2464 C2482 0.951 . S
H2465 C2484 0.951 . S
H2466 C2486 0.950 . S
H2467 C2487 0.950 . S
H2468 C2489 0.950 . S
H2469 C2492 0.950 . S
H2470 C2493 0.950 . S
H2471 C2495 0.950 . S
H2472 C2496 0.950 . S
H2473 C2497 0.951 . S
H2474 C2499 0.951 . S
H2475 C2501 0.950 . S
H2476 C2502 0.950 . S
H2477 C2504 0.950 . S
H2478 C2507 0.950 . S
H2479 C2508 0.950 . S
H2480 C2510 0.950 . S
H2481 C2511 0.950 . S
C2482 H2464 0.951 . S
C2482 C2483 1.366 . S
C2482 C2484 1.388 . S
C2483 C2482 1.366 . S
C2483 C2487 1.385 . S
C2484 H2465 0.951 . S
C2484 C2482 1.388 . S
C2484 C2485 1.366 . S
C2485 C2484 1.366 . S
C2485 C2486 1.414 . S
C2485 C2488 1.499 . S
C2486 H2466 0.950 . S
C2486 C2485 1.414 . S
C2486 C2487 1.374 . S
C2487 H2467 0.950 . S
C2487 C2483 1.385 . S
C2487 C2486 1.374 . S
C2488 C2485 1.499 . S
C2488 C2489 1.373 . S
C2488 C2490 1.389 . S
C2489 H2468 0.950 . S
C2489 C2488 1.373 . S
C2489 C2505 1.377 . S
C2490 C2488 1.389 . S
C2490 C2491 1.524 . S
C2490 C2504 1.377 . S
C2491 C2490 1.524 . S
C2491 C2492 1.397 . S
C2491 C2496 1.363 . S
C2492 H2469 0.950 . S
C2492 C2491 1.397 . S
C2492 C2493 1.334 . S
C2493 H2470 0.950 . S
C2493 C2492 1.334 . S
C2493 C2494 1.287 . S
C2494 C2493 1.287 . S
C2494 C2495 1.524 . S
C2494 H2513 0.913 . S
C2495 H2471 0.950 . S
C2495 C2494 1.524 . S
C2495 C2496 1.415 . S
C2496 H2472 0.950 . S
C2496 C2491 1.363 . S
C2496 C2495 1.415 . S
C2497 H2473 0.951 . S
C2497 C2498 1.366 . S
C2497 C2499 1.388 . S
C2498 C2497 1.366 . S
C2498 C2502 1.385 . S
C2499 H2474 0.951 . S
C2499 C2497 1.388 . S
C2499 C2500 1.366 . S
C2500 C2499 1.366 . S
C2500 C2501 1.414 . S
C2500 C2503 1.499 . S
C2501 H2475 0.950 . S
C2501 C2500 1.414 . S
C2501 C2502 1.374 . S
C2502 H2476 0.950 . S
C2502 C2498 1.385 . S
C2502 C2501 1.374 . S
C2503 C2500 1.499 . S
C2503 C2504 1.373 . S
C2503 C2505 1.389 . S
C2504 H2477 0.950 . S
C2504 C2490 1.377 . S
C2504 C2503 1.373 . S
C2505 C2489 1.377 . S
C2505 C2503 1.389 . S
C2505 C2506 1.524 . S
C2506 C2505 1.524 . S
C2506 C2507 1.397 . S
C2506 C2511 1.363 . S
C2507 H2478 0.950 . S
C2507 C2506 1.397 . S
C2507 C2508 1.334 1_655 S
C2508 H2479 0.950 . S
C2508 C2507 1.334 1_455 S
C2508 C2509 1.287 . S
C2509 C2508 1.287 . S
C2509 C2510 1.524 1_455 S
C2509 H2512 0.999 . S
C2510 H2480 0.950 . S
C2510 C2509 1.524 1_655 S
C2510 C2511 1.415 . S
C2511 H2481 0.950 . S
C2511 C2506 1.363 . S
C2511 C2510 1.415 . S
H2512 C2509 0.999 . S
H2513 C2494 0.913 . S
H2514 C2532 0.951 . S
H2515 C2534 0.951 . S
H2516 C2536 0.950 . S
H2517 C2537 0.950 . S
H2518 C2539 0.950 . S
H2519 C2542 0.950 . S
H2520 C2543 0.950 . S
H2521 C2545 0.950 . S
H2522 C2546 0.950 . S
H2523 C2547 0.951 . S
H2524 C2549 0.951 . S
H2525 C2551 0.950 . S
H2526 C2552 0.950 . S
H2527 C2554 0.950 . S
H2528 C2557 0.950 . S
H2529 C2558 0.950 . S
H2530 C2560 0.950 . S
H2531 C2561 0.950 . S
C2532 H2514 0.951 . S
C2532 C2533 1.366 . S
C2532 C2534 1.388 . S
C2533 C2532 1.366 . S
C2533 C2537 1.385 . S
C2534 H2515 0.951 . S
C2534 C2532 1.388 . S
C2534 C2535 1.366 . S
C2535 C2534 1.366 . S
C2535 C2536 1.414 . S
C2535 C2538 1.499 . S
C2536 H2516 0.950 . S
C2536 C2535 1.414 . S
C2536 C2537 1.374 . S
C2537 H2517 0.950 . S
C2537 C2533 1.385 . S
C2537 C2536 1.374 . S
C2538 C2535 1.499 . S
C2538 C2539 1.373 . S
C2538 C2540 1.389 . S
C2539 H2518 0.950 . S
C2539 C2538 1.373 . S
C2539 C2555 1.377 . S
C2540 C2538 1.389 . S
C2540 C2541 1.524 . S
C2540 C2554 1.377 . S
C2541 C2540 1.524 . S
C2541 C2542 1.397 . S
C2541 C2546 1.363 . S
C2542 H2519 0.950 . S
C2542 C2541 1.397 . S
C2542 C2543 1.334 . S
C2543 H2520 0.950 . S
C2543 C2542 1.334 . S
C2543 C2544 1.287 . S
C2544 C2543 1.287 . S
C2544 C2545 1.524 . S
C2544 H2563 0.913 . S
C2545 H2521 0.950 . S
C2545 C2544 1.524 . S
C2545 C2546 1.415 . S
C2546 H2522 0.950 . S
C2546 C2541 1.363 . S
C2546 C2545 1.415 . S
C2547 H2523 0.951 . S
C2547 C2548 1.366 . S
C2547 C2549 1.388 . S
C2548 C2547 1.366 . S
C2548 C2552 1.385 . S
C2549 H2524 0.951 . S
C2549 C2547 1.388 . S
C2549 C2550 1.366 . S
C2550 C2549 1.366 . S
C2550 C2551 1.414 . S
C2550 C2553 1.499 . S
C2551 H2525 0.950 . S
C2551 C2550 1.414 . S
C2551 C2552 1.374 . S
C2552 H2526 0.950 . S
C2552 C2548 1.385 . S
C2552 C2551 1.374 . S
C2553 C2550 1.499 . S
C2553 C2554 1.373 . S
C2553 C2555 1.389 . S
C2554 H2527 0.950 . S
C2554 C2540 1.377 . S
C2554 C2553 1.373 . S
C2555 C2539 1.377 . S
C2555 C2553 1.389 . S
C2555 C2556 1.524 . S
C2556 C2555 1.524 . S
C2556 C2557 1.397 . S
C2556 C2561 1.363 . S
C2557 H2528 0.950 . S
C2557 C2556 1.397 . S
C2557 C2558 1.334 . S
C2558 H2529 0.950 . S
C2558 C2557 1.334 . S
C2558 C2559 1.287 . S
C2559 C2558 1.287 . S
C2559 C2560 1.524 . S
C2559 H2562 0.999 . S
C2560 H2530 0.950 . S
C2560 C2559 1.524 . S
C2560 C2561 1.415 . S
C2561 H2531 0.950 . S
C2561 C2556 1.363 . S
C2561 C2560 1.415 . S
H2562 C2559 0.999 . S
H2563 C2544 0.913 . S
H2564 C2582 0.951 . S
H2565 C2584 0.951 . S
H2566 C2586 0.950 . S
H2567 C2587 0.950 . S
H2568 C2589 0.950 . S
H2569 C2592 0.950 . S
H2570 C2593 0.950 . S
H2571 C2595 0.950 . S
H2572 C2596 0.950 . S
H2573 C2597 0.951 . S
H2574 C2599 0.951 . S
H2575 C2601 0.950 . S
H2576 C2602 0.950 . S
H2577 C2604 0.950 . S
H2578 C2607 0.950 . S
H2579 C2608 0.950 . S
H2580 C2610 0.950 . S
H2581 C2611 0.950 . S
C2582 H2564 0.951 . S
C2582 C2583 1.366 . S
C2582 C2584 1.388 . S
C2583 C2582 1.366 . S
C2583 C2587 1.385 . S
C2584 H2565 0.951 . S
C2584 C2582 1.388 . S
C2584 C2585 1.366 . S
C2585 C2584 1.366 . S
C2585 C2586 1.414 . S
C2585 C2588 1.499 . S
C2586 H2566 0.950 . S
C2586 C2585 1.414 . S
C2586 C2587 1.374 . S
C2587 H2567 0.950 . S
C2587 C2583 1.385 . S
C2587 C2586 1.374 . S
C2588 C2585 1.499 . S
C2588 C2589 1.373 . S
C2588 C2590 1.389 . S
C2589 H2568 0.950 . S
C2589 C2588 1.373 . S
C2589 C2605 1.377 . S
C2590 C2588 1.389 . S
C2590 C2591 1.524 . S
C2590 C2604 1.377 . S
C2591 C2590 1.524 . S
C2591 C2592 1.397 . S
C2591 C2596 1.363 . S
C2592 H2569 0.950 . S
C2592 C2591 1.397 . S
C2592 C2593 1.334 . S
C2593 H2570 0.950 . S
C2593 C2592 1.334 . S
C2593 C2594 1.287 . S
C2594 C2593 1.287 . S
C2594 C2595 1.524 . S
C2594 H2613 0.913 . S
C2595 H2571 0.950 . S
C2595 C2594 1.524 . S
C2595 C2596 1.415 . S
C2596 H2572 0.950 . S
C2596 C2591 1.363 . S
C2596 C2595 1.415 . S
C2597 H2573 0.951 . S
C2597 C2598 1.366 . S
C2597 C2599 1.388 . S
C2598 C2597 1.366 . S
C2598 C2602 1.385 . S
C2599 H2574 0.951 . S
C2599 C2597 1.388 . S
C2599 C2600 1.366 . S
C2600 C2599 1.366 . S
C2600 C2601 1.414 . S
C2600 C2603 1.499 . S
C2601 H2575 0.950 . S
C2601 C2600 1.414 . S
C2601 C2602 1.374 . S
C2602 H2576 0.950 . S
C2602 C2598 1.385 . S
C2602 C2601 1.374 . S
C2603 C2600 1.499 . S
C2603 C2604 1.373 . S
C2603 C2605 1.389 . S
C2604 H2577 0.950 . S
C2604 C2590 1.377 . S
C2604 C2603 1.373 . S
C2605 C2589 1.377 . S
C2605 C2603 1.389 . S
C2605 C2606 1.524 . S
C2606 C2605 1.524 . S
C2606 C2607 1.397 . S
C2606 C2611 1.363 . S
C2607 H2578 0.950 . S
C2607 C2606 1.397 . S
C2607 C2608 1.334 . S
C2608 H2579 0.950 . S
C2608 C2607 1.334 . S
C2608 C2609 1.287 . S
C2609 C2608 1.287 . S
C2609 C2610 1.524 . S
C2609 H2612 0.999 . S
C2610 H2580 0.950 . S
C2610 C2609 1.524 . S
C2610 C2611 1.415 . S
C2611 H2581 0.950 . S
C2611 C2606 1.363 . S
C2611 C2610 1.415 . S
H2612 C2609 0.999 . S
H2613 C2594 0.913 . S
H2614 C2632 0.951 . S
H2615 C2634 0.951 . S
H2616 C2636 0.950 . S
H2617 C2637 0.950 . S
H2618 C2639 0.950 . S
H2619 C2642 0.950 . S
H2620 C2643 0.950 . S
H2621 C2645 0.950 . S
H2622 C2646 0.950 . S
H2623 C2647 0.951 . S
H2624 C2649 0.951 . S
H2625 C2651 0.950 . S
H2626 C2652 0.950 . S
H2627 C2654 0.950 . S
H2628 C2657 0.950 . S
H2629 C2658 0.950 . S
H2630 C2660 0.950 . S
H2631 C2661 0.950 . S
C2632 H2614 0.951 . S
C2632 C2633 1.366 . S
C2632 C2634 1.388 . S
C2633 C2632 1.366 . S
C2633 C2637 1.385 . S
C2634 H2615 0.951 . S
C2634 C2632 1.388 . S
C2634 C2635 1.366 . S
C2635 C2634 1.366 . S
C2635 C2636 1.414 . S
C2635 C2638 1.499 . S
C2636 H2616 0.950 . S
C2636 C2635 1.414 . S
C2636 C2637 1.374 . S
C2637 H2617 0.950 . S
C2637 C2633 1.385 . S
C2637 C2636 1.374 . S
C2638 C2635 1.499 . S
C2638 C2639 1.373 . S
C2638 C2640 1.389 . S
C2639 H2618 0.950 . S
C2639 C2638 1.373 . S
C2639 C2655 1.377 . S
C2640 C2638 1.389 . S
C2640 C2641 1.524 . S
C2640 C2654 1.377 . S
C2641 C2640 1.524 . S
C2641 C2642 1.397 . S
C2641 C2646 1.363 . S
C2642 H2619 0.950 . S
C2642 C2641 1.397 . S
C2642 C2643 1.334 . S
C2643 H2620 0.950 . S
C2643 C2642 1.334 . S
C2643 C2644 1.287 . S
C2644 C2643 1.287 . S
C2644 C2645 1.524 . S
C2644 H2663 0.913 . S
C2645 H2621 0.950 . S
C2645 C2644 1.524 . S
C2645 C2646 1.415 . S
C2646 H2622 0.950 . S
C2646 C2641 1.363 . S
C2646 C2645 1.415 . S
C2647 H2623 0.951 . S
C2647 C2648 1.366 . S
C2647 C2649 1.388 . S
C2648 C2647 1.366 . S
C2648 C2652 1.385 . S
C2649 H2624 0.951 . S
C2649 C2647 1.388 . S
C2649 C2650 1.366 . S
C2650 C2649 1.366 . S
C2650 C2651 1.414 . S
C2650 C2653 1.499 . S
C2651 H2625 0.950 . S
C2651 C2650 1.414 . S
C2651 C2652 1.374 . S
C2652 H2626 0.950 . S
C2652 C2648 1.385 . S
C2652 C2651 1.374 . S
C2653 C2650 1.499 . S
C2653 C2654 1.373 . S
C2653 C2655 1.389 . S
C2654 H2627 0.950 . S
C2654 C2640 1.377 . S
C2654 C2653 1.373 . S
C2655 C2639 1.377 . S
C2655 C2653 1.389 . S
C2655 C2656 1.524 . S
C2656 C2655 1.524 . S
C2656 C2657 1.397 . S
C2656 C2661 1.363 . S
C2657 H2628 0.950 . S
C2657 C2656 1.397 . S
C2657 C2658 1.334 . S
C2658 H2629 0.950 . S
C2658 C2657 1.334 . S
C2658 C2659 1.287 . S
C2659 C2658 1.287 . S
C2659 C2660 1.524 . S
C2659 H2662 0.999 . S
C2660 H2630 0.950 . S
C2660 C2659 1.524 . S
C2660 C2661 1.415 . S
C2661 H2631 0.950 . S
C2661 C2656 1.363 . S
C2661 C2660 1.415 . S
H2662 C2659 0.999 . S
H2663 C2644 0.913 . S
H2664 C2682 0.951 . S
H2665 C2684 0.951 . S
H2666 C2686 0.950 . S
H2667 C2687 0.950 . S
H2668 C2689 0.950 . S
H2669 C2692 0.950 . S
H2670 C2693 0.950 . S
H2671 C2695 0.950 . S
H2672 C2696 0.950 . S
H2673 C2697 0.951 . S
H2674 C2699 0.951 . S
H2675 C2701 0.950 . S
H2676 C2702 0.950 . S
H2677 C2704 0.950 . S
H2678 C2707 0.950 . S
H2679 C2708 0.950 . S
H2680 C2710 0.950 . S
H2681 C2711 0.950 . S
C2682 H2664 0.951 . S
C2682 C2683 1.366 . S
C2682 C2684 1.388 . S
C2683 C2682 1.366 . S
C2683 C2687 1.385 . S
C2684 H2665 0.951 . S
C2684 C2682 1.388 . S
C2684 C2685 1.366 . S
C2685 C2684 1.366 . S
C2685 C2686 1.414 . S
C2685 C2688 1.499 . S
C2686 H2666 0.950 . S
C2686 C2685 1.414 . S
C2686 C2687 1.374 . S
C2687 H2667 0.950 . S
C2687 C2683 1.385 . S
C2687 C2686 1.374 . S
C2688 C2685 1.499 . S
C2688 C2689 1.373 . S
C2688 C2690 1.389 . S
C2689 H2668 0.950 . S
C2689 C2688 1.373 . S
C2689 C2705 1.377 . S
C2690 C2688 1.389 . S
C2690 C2691 1.524 . S
C2690 C2704 1.377 . S
C2691 C2690 1.524 . S
C2691 C2692 1.397 . S
C2691 C2696 1.363 . S
C2692 H2669 0.950 . S
C2692 C2691 1.397 . S
C2692 C2693 1.334 . S
C2693 H2670 0.950 . S
C2693 C2692 1.334 . S
C2693 C2694 1.287 . S
C2694 C2693 1.287 . S
C2694 C2695 1.524 . S
C2694 H2713 0.913 . S
C2695 H2671 0.950 . S
C2695 C2694 1.524 . S
C2695 C2696 1.415 . S
C2696 H2672 0.950 . S
C2696 C2691 1.363 . S
C2696 C2695 1.415 . S
C2697 H2673 0.951 . S
C2697 C2698 1.366 . S
C2697 C2699 1.388 . S
C2698 C2697 1.366 . S
C2698 C2702 1.385 . S
C2699 H2674 0.951 . S
C2699 C2697 1.388 . S
C2699 C2700 1.366 . S
C2700 C2699 1.366 . S
C2700 C2701 1.414 . S
C2700 C2703 1.499 . S
C2701 H2675 0.950 . S
C2701 C2700 1.414 . S
C2701 C2702 1.374 . S
C2702 H2676 0.950 . S
C2702 C2698 1.385 . S
C2702 C2701 1.374 . S
C2703 C2700 1.499 . S
C2703 C2704 1.373 . S
C2703 C2705 1.389 . S
C2704 H2677 0.950 . S
C2704 C2690 1.377 . S
C2704 C2703 1.373 . S
C2705 C2689 1.377 . S
C2705 C2703 1.389 . S
C2705 C2706 1.524 . S
C2706 C2705 1.524 . S
C2706 C2707 1.397 . S
C2706 C2711 1.363 . S
C2707 H2678 0.950 . S
C2707 C2706 1.397 . S
C2707 C2708 1.334 . S
C2708 H2679 0.950 . S
C2708 C2707 1.334 . S
C2708 C2709 1.287 . S
C2709 C2708 1.287 . S
C2709 C2710 1.524 . S
C2709 H2712 0.999 . S
C2710 H2680 0.950 . S
C2710 C2709 1.524 . S
C2710 C2711 1.415 . S
C2711 H2681 0.950 . S
C2711 C2706 1.363 . S
C2711 C2710 1.415 . S
H2712 C2709 0.999 . S
H2713 C2694 0.913 . S
H2714 C2732 0.951 . S
H2715 C2734 0.951 . S
H2716 C2736 0.950 . S
H2717 C2737 0.950 . S
H2718 C2739 0.950 . S
H2719 C2742 0.950 . S
H2720 C2743 0.950 . S
H2721 C2745 0.950 . S
H2722 C2746 0.950 . S
H2723 C2747 0.951 . S
H2724 C2749 0.951 . S
H2725 C2751 0.950 . S
H2726 C2752 0.950 . S
H2727 C2754 0.950 . S
H2728 C2757 0.950 . S
H2729 C2758 0.950 . S
H2730 C2760 0.950 . S
H2731 C2761 0.950 . S
C2732 H2714 0.951 . S
C2732 C2733 1.366 . S
C2732 C2734 1.388 . S
C2733 C2732 1.366 . S
C2733 C2737 1.385 . S
C2734 H2715 0.951 . S
C2734 C2732 1.388 . S
C2734 C2735 1.366 . S
C2735 C2734 1.366 . S
C2735 C2736 1.414 . S
C2735 C2738 1.499 . S
C2736 H2716 0.950 . S
C2736 C2735 1.414 . S
C2736 C2737 1.374 . S
C2737 H2717 0.950 . S
C2737 C2733 1.385 . S
C2737 C2736 1.374 . S
C2738 C2735 1.499 . S
C2738 C2739 1.373 . S
C2738 C2740 1.389 . S
C2739 H2718 0.950 . S
C2739 C2738 1.373 . S
C2739 C2755 1.377 . S
C2740 C2738 1.389 . S
C2740 C2741 1.524 . S
C2740 C2754 1.377 . S
C2741 C2740 1.524 . S
C2741 C2742 1.397 . S
C2741 C2746 1.363 . S
C2742 H2719 0.950 . S
C2742 C2741 1.397 . S
C2742 C2743 1.334 . S
C2743 H2720 0.950 . S
C2743 C2742 1.334 . S
C2743 C2744 1.287 . S
C2744 C2743 1.287 . S
C2744 C2745 1.524 . S
C2744 H2763 0.913 . S
C2745 H2721 0.950 . S
C2745 C2744 1.524 . S
C2745 C2746 1.415 . S
C2746 H2722 0.950 . S
C2746 C2741 1.363 . S
C2746 C2745 1.415 . S
C2747 H2723 0.951 . S
C2747 C2748 1.366 . S
C2747 C2749 1.388 . S
C2748 C2747 1.366 . S
C2748 C2752 1.385 . S
C2749 H2724 0.951 . S
C2749 C2747 1.388 . S
C2749 C2750 1.366 . S
C2750 C2749 1.366 . S
C2750 C2751 1.414 . S
C2750 C2753 1.499 . S
C2751 H2725 0.950 . S
C2751 C2750 1.414 . S
C2751 C2752 1.374 . S
C2752 H2726 0.950 . S
C2752 C2748 1.385 . S
C2752 C2751 1.374 . S
C2753 C2750 1.499 . S
C2753 C2754 1.373 . S
C2753 C2755 1.389 . S
C2754 H2727 0.950 . S
C2754 C2740 1.377 . S
C2754 C2753 1.373 . S
C2755 C2739 1.377 . S
C2755 C2753 1.389 . S
C2755 C2756 1.524 . S
C2756 C2755 1.524 . S
C2756 C2757 1.397 . S
C2756 C2761 1.363 . S
C2757 H2728 0.950 . S
C2757 C2756 1.397 . S
C2757 C2758 1.334 . S
C2758 H2729 0.950 . S
C2758 C2757 1.334 . S
C2758 C2759 1.287 . S
C2759 C2758 1.287 . S
C2759 C2760 1.524 . S
C2759 H2762 0.999 . S
C2760 H2730 0.950 . S
C2760 C2759 1.524 . S
C2760 C2761 1.415 . S
C2761 H2731 0.950 . S
C2761 C2756 1.363 . S
C2761 C2760 1.415 . S
H2762 C2759 0.999 . S
H2763 C2744 0.913 . S
H2764 C2782 0.951 . S
H2765 C2784 0.951 . S
H2766 C2786 0.950 . S
H2767 C2787 0.950 . S
H2768 C2789 0.950 . S
H2769 C2792 0.950 . S
H2770 C2793 0.950 . S
H2771 C2795 0.950 . S
H2772 C2796 0.950 . S
H2773 C2797 0.951 . S
H2774 C2799 0.951 . S
H2775 C2801 0.950 . S
H2776 C2802 0.950 . S
H2777 C2804 0.950 . S
H2778 C2807 0.950 . S
H2779 C2808 0.950 . S
H2780 C2810 0.950 . S
H2781 C2811 0.950 . S
C2782 H2764 0.951 . S
C2782 C2783 1.366 . S
C2782 C2784 1.388 . S
C2783 C2782 1.366 . S
C2783 C2787 1.385 . S
C2784 H2765 0.951 . S
C2784 C2782 1.388 . S
C2784 C2785 1.366 . S
C2785 C2784 1.366 . S
C2785 C2786 1.414 . S
C2785 C2788 1.499 . S
C2786 H2766 0.950 . S
C2786 C2785 1.414 . S
C2786 C2787 1.374 . S
C2787 H2767 0.950 . S
C2787 C2783 1.385 . S
C2787 C2786 1.374 . S
C2788 C2785 1.499 . S
C2788 C2789 1.373 . S
C2788 C2790 1.389 . S
C2789 H2768 0.950 . S
C2789 C2788 1.373 . S
C2789 C2805 1.377 . S
C2790 C2788 1.389 . S
C2790 C2791 1.524 . S
C2790 C2804 1.377 . S
C2791 C2790 1.524 . S
C2791 C2792 1.397 . S
C2791 C2796 1.363 . S
C2792 H2769 0.950 . S
C2792 C2791 1.397 . S
C2792 C2793 1.334 . S
C2793 H2770 0.950 . S
C2793 C2792 1.334 . S
C2793 C2794 1.287 . S
C2794 C2793 1.287 . S
C2794 C2795 1.524 . S
C2794 H2813 0.913 . S
C2795 H2771 0.950 . S
C2795 C2794 1.524 . S
C2795 C2796 1.415 . S
C2796 H2772 0.950 . S
C2796 C2791 1.363 . S
C2796 C2795 1.415 . S
C2797 H2773 0.951 . S
C2797 C2798 1.366 . S
C2797 C2799 1.388 . S
C2798 C2797 1.366 . S
C2798 C2802 1.385 . S
C2799 H2774 0.951 . S
C2799 C2797 1.388 . S
C2799 C2800 1.366 . S
C2800 C2799 1.366 . S
C2800 C2801 1.414 . S
C2800 C2803 1.499 . S
C2801 H2775 0.950 . S
C2801 C2800 1.414 . S
C2801 C2802 1.374 . S
C2802 H2776 0.950 . S
C2802 C2798 1.385 . S
C2802 C2801 1.374 . S
C2803 C2800 1.499 . S
C2803 C2804 1.373 . S
C2803 C2805 1.389 . S
C2804 H2777 0.950 . S
C2804 C2790 1.377 . S
C2804 C2803 1.373 . S
C2805 C2789 1.377 . S
C2805 C2803 1.389 . S
C2805 C2806 1.524 . S
C2806 C2805 1.524 . S
C2806 C2807 1.397 . S
C2806 C2811 1.363 . S
C2807 H2778 0.950 . S
C2807 C2806 1.397 . S
C2807 C2808 1.334 . S
C2808 H2779 0.950 . S
C2808 C2807 1.334 . S
C2808 C2809 1.287 . S
C2809 C2808 1.287 . S
C2809 C2810 1.524 . S
C2809 H2812 0.999 . S
C2810 H2780 0.950 . S
C2810 C2809 1.524 . S
C2810 C2811 1.415 . S
C2811 H2781 0.950 . S
C2811 C2806 1.363 . S
C2811 C2810 1.415 . S
H2812 C2809 0.999 . S
H2813 C2794 0.913 . S
H2814 C2832 0.951 . S
H2815 C2834 0.951 . S
H2816 C2836 0.950 . S
H2817 C2837 0.950 . S
H2818 C2839 0.950 . S
H2819 C2842 0.950 . S
H2820 C2843 0.950 . S
H2821 C2845 0.950 . S
H2822 C2846 0.950 . S
H2823 C2847 0.951 . S
H2824 C2849 0.951 . S
H2825 C2851 0.950 . S
H2826 C2852 0.950 . S
H2827 C2854 0.950 . S
H2828 C2857 0.950 . S
H2829 C2858 0.950 . S
H2830 C2860 0.950 . S
H2831 C2861 0.950 . S
C2832 H2814 0.951 . S
C2832 C2833 1.366 . S
C2832 C2834 1.388 . S
C2833 C2832 1.366 . S
C2833 C2837 1.385 . S
C2834 H2815 0.951 . S
C2834 C2832 1.388 . S
C2834 C2835 1.366 . S
C2835 C2834 1.366 . S
C2835 C2836 1.414 . S
C2835 C2838 1.499 . S
C2836 H2816 0.950 . S
C2836 C2835 1.414 . S
C2836 C2837 1.374 . S
C2837 H2817 0.950 . S
C2837 C2833 1.385 . S
C2837 C2836 1.374 . S
C2838 C2835 1.499 . S
C2838 C2839 1.373 . S
C2838 C2840 1.389 . S
C2839 H2818 0.950 . S
C2839 C2838 1.373 . S
C2839 C2855 1.377 . S
C2840 C2838 1.389 . S
C2840 C2841 1.524 . S
C2840 C2854 1.377 . S
C2841 C2840 1.524 . S
C2841 C2842 1.397 . S
C2841 C2846 1.363 . S
C2842 H2819 0.950 . S
C2842 C2841 1.397 . S
C2842 C2843 1.334 . S
C2843 H2820 0.950 . S
C2843 C2842 1.334 . S
C2843 C2844 1.287 . S
C2844 C2843 1.287 . S
C2844 C2845 1.524 . S
C2844 H2863 0.913 . S
C2845 H2821 0.950 . S
C2845 C2844 1.524 . S
C2845 C2846 1.415 . S
C2846 H2822 0.950 . S
C2846 C2841 1.363 . S
C2846 C2845 1.415 . S
C2847 H2823 0.951 . S
C2847 C2848 1.366 . S
C2847 C2849 1.388 . S
C2848 C2847 1.366 . S
C2848 C2852 1.385 . S
C2849 H2824 0.951 . S
C2849 C2847 1.388 . S
C2849 C2850 1.366 . S
C2850 C2849 1.366 . S
C2850 C2851 1.414 . S
C2850 C2853 1.499 . S
C2851 H2825 0.950 . S
C2851 C2850 1.414 . S
C2851 C2852 1.374 . S
C2852 H2826 0.950 . S
C2852 C2848 1.385 . S
C2852 C2851 1.374 . S
C2853 C2850 1.499 . S
C2853 C2854 1.373 . S
C2853 C2855 1.389 . S
C2854 H2827 0.950 . S
C2854 C2840 1.377 . S
C2854 C2853 1.373 . S
C2855 C2839 1.377 . S
C2855 C2853 1.389 . S
C2855 C2856 1.524 . S
C2856 C2855 1.524 . S
C2856 C2857 1.397 . S
C2856 C2861 1.363 . S
C2857 H2828 0.950 . S
C2857 C2856 1.397 . S
C2857 C2858 1.334 . S
C2858 H2829 0.950 . S
C2858 C2857 1.334 . S
C2858 C2859 1.287 . S
C2859 C2858 1.287 . S
C2859 C2860 1.524 . S
C2859 H2862 0.999 . S
C2860 H2830 0.950 . S
C2860 C2859 1.524 . S
C2860 C2861 1.415 . S
C2861 H2831 0.950 . S
C2861 C2856 1.363 . S
C2861 C2860 1.415 . S
H2862 C2859 0.999 . S
H2863 C2844 0.913 . S
H2864 C2882 0.951 . S
H2865 C2884 0.951 . S
H2866 C2886 0.950 . S
H2867 C2887 0.950 . S
H2868 C2889 0.950 . S
H2869 C2892 0.950 . S
H2870 C2893 0.950 . S
H2871 C2895 0.950 . S
H2872 C2896 0.950 . S
H2873 C2897 0.951 . S
H2874 C2899 0.951 . S
H2875 C2901 0.950 . S
H2876 C2902 0.950 . S
H2877 C2904 0.950 . S
H2878 C2907 0.950 . S
H2879 C2908 0.950 . S
H2880 C2910 0.950 . S
H2881 C2911 0.950 . S
C2882 H2864 0.951 . S
C2882 C2883 1.366 . S
C2882 C2884 1.388 . S
C2883 C2882 1.366 . S
C2883 C2887 1.385 . S
C2884 H2865 0.951 . S
C2884 C2882 1.388 . S
C2884 C2885 1.366 . S
C2885 C2884 1.366 . S
C2885 C2886 1.414 . S
C2885 C2888 1.499 . S
C2886 H2866 0.950 . S
C2886 C2885 1.414 . S
C2886 C2887 1.374 . S
C2887 H2867 0.950 . S
C2887 C2883 1.385 . S
C2887 C2886 1.374 . S
C2888 C2885 1.499 . S
C2888 C2889 1.373 . S
C2888 C2890 1.389 . S
C2889 H2868 0.950 . S
C2889 C2888 1.373 . S
C2889 C2905 1.377 . S
C2890 C2888 1.389 . S
C2890 C2891 1.524 . S
C2890 C2904 1.377 . S
C2891 C2890 1.524 . S
C2891 C2892 1.397 . S
C2891 C2896 1.363 . S
C2892 H2869 0.950 . S
C2892 C2891 1.397 . S
C2892 C2893 1.334 . S
C2893 H2870 0.950 . S
C2893 C2892 1.334 . S
C2893 C2894 1.287 . S
C2894 C2893 1.287 . S
C2894 C2895 1.524 . S
C2894 H2913 0.913 . S
C2895 H2871 0.950 . S
C2895 C2894 1.524 . S
C2895 C2896 1.415 . S
C2896 H2872 0.950 . S
C2896 C2891 1.363 . S
C2896 C2895 1.415 . S
C2897 H2873 0.951 . S
C2897 C2898 1.366 . S
C2897 C2899 1.388 . S
C2898 C2897 1.366 . S
C2898 C2902 1.385 . S
C2899 H2874 0.951 . S
C2899 C2897 1.388 . S
C2899 C2900 1.366 . S
C2900 C2899 1.366 . S
C2900 C2901 1.414 . S
C2900 C2903 1.499 . S
C2901 H2875 0.950 . S
C2901 C2900 1.414 . S
C2901 C2902 1.374 . S
C2902 H2876 0.950 . S
C2902 C2898 1.385 . S
C2902 C2901 1.374 . S
C2903 C2900 1.499 . S
C2903 C2904 1.373 . S
C2903 C2905 1.389 . S
C2904 H2877 0.950 . S
C2904 C2890 1.377 . S
C2904 C2903 1.373 . S
C2905 C2889 1.377 . S
C2905 C2903 1.389 . S
C2905 C2906 1.524 . S
C2906 C2905 1.524 . S
C2906 C2907 1.397 . S
C2906 C2911 1.363 . S
C2907 H2878 0.950 . S
C2907 C2906 1.397 . S
C2907 C2908 1.334 . S
C2908 H2879 0.950 . S
C2908 C2907 1.334 . S
C2908 C2909 1.287 . S
C2909 C2908 1.287 . S
C2909 C2910 1.524 . S
C2909 H2912 0.999 . S
C2910 H2880 0.950 . S
C2910 C2909 1.524 . S
C2910 C2911 1.415 . S
C2911 H2881 0.950 . S
C2911 C2906 1.363 . S
C2911 C2910 1.415 . S
H2912 C2909 0.999 . S
H2913 C2894 0.913 . S
H2914 C2932 0.951 . S
H2915 C2934 0.951 . S
H2916 C2936 0.950 . S
H2917 C2937 0.950 . S
H2918 C2939 0.950 . S
H2919 C2942 0.950 . S
H2920 C2943 0.950 . S
H2921 C2945 0.950 . S
H2922 C2946 0.950 . S
H2923 C2947 0.951 . S
H2924 C2949 0.951 . S
H2925 C2951 0.950 . S
H2926 C2952 0.950 . S
H2927 C2954 0.950 . S
H2928 C2957 0.950 . S
H2929 C2958 0.950 . S
H2930 C2960 0.950 . S
H2931 C2961 0.950 . S
C2932 H2914 0.951 . S
C2932 C2933 1.366 . S
C2932 C2934 1.388 . S
C2933 C2932 1.366 . S
C2933 C2937 1.385 . S
C2934 H2915 0.951 . S
C2934 C2932 1.388 . S
C2934 C2935 1.366 . S
C2935 C2934 1.366 . S
C2935 C2936 1.414 . S
C2935 C2938 1.499 . S
C2936 H2916 0.950 . S
C2936 C2935 1.414 . S
C2936 C2937 1.374 . S
C2937 H2917 0.950 . S
C2937 C2933 1.385 . S
C2937 C2936 1.374 . S
C2938 C2935 1.499 . S
C2938 C2939 1.373 . S
C2938 C2940 1.389 . S
C2939 H2918 0.950 . S
C2939 C2938 1.373 . S
C2939 C2955 1.377 . S
C2940 C2938 1.389 . S
C2940 C2941 1.524 . S
C2940 C2954 1.377 . S
C2941 C2940 1.524 . S
C2941 C2942 1.397 . S
C2941 C2946 1.363 . S
C2942 H2919 0.950 . S
C2942 C2941 1.397 . S
C2942 C2943 1.334 . S
C2943 H2920 0.950 . S
C2943 C2942 1.334 . S
C2943 C2944 1.287 . S
C2944 C2943 1.287 . S
C2944 C2945 1.524 . S
C2944 H2963 0.913 . S
C2945 H2921 0.950 . S
C2945 C2944 1.524 . S
C2945 C2946 1.415 . S
C2946 H2922 0.950 . S
C2946 C2941 1.363 . S
C2946 C2945 1.415 . S
C2947 H2923 0.951 . S
C2947 C2948 1.366 . S
C2947 C2949 1.388 . S
C2948 C2947 1.366 . S
C2948 C2952 1.385 . S
C2949 H2924 0.951 . S
C2949 C2947 1.388 . S
C2949 C2950 1.366 . S
C2950 C2949 1.366 . S
C2950 C2951 1.414 . S
C2950 C2953 1.499 . S
C2951 H2925 0.950 . S
C2951 C2950 1.414 . S
C2951 C2952 1.374 . S
C2952 H2926 0.950 . S
C2952 C2948 1.385 . S
C2952 C2951 1.374 . S
C2953 C2950 1.499 . S
C2953 C2954 1.373 . S
C2953 C2955 1.389 . S
C2954 H2927 0.950 . S
C2954 C2940 1.377 . S
C2954 C2953 1.373 . S
C2955 C2939 1.377 . S
C2955 C2953 1.389 . S
C2955 C2956 1.524 . S
C2956 C2955 1.524 . S
C2956 C2957 1.397 . S
C2956 C2961 1.363 . S
C2957 H2928 0.950 . S
C2957 C2956 1.397 . S
C2957 C2958 1.334 . S
C2958 H2929 0.950 . S
C2958 C2957 1.334 . S
C2958 C2959 1.287 . S
C2959 C2958 1.287 . S
C2959 C2960 1.524 . S
C2959 H2962 0.999 . S
C2960 H2930 0.950 . S
C2960 C2959 1.524 . S
C2960 C2961 1.415 . S
C2961 H2931 0.950 . S
C2961 C2956 1.363 . S
C2961 C2960 1.415 . S
H2962 C2959 0.999 . S
H2963 C2944 0.913 . S
H2964 C2982 0.951 . S
H2965 C2984 0.951 . S
H2966 C2986 0.950 . S
H2967 C2987 0.950 . S
H2968 C2989 0.950 . S
H2969 C2992 0.950 . S
H2970 C2993 0.950 . S
H2971 C2995 0.950 . S
H2972 C2996 0.950 . S
H2973 C2997 0.951 . S
H2974 C2999 0.951 . S
H2975 C3001 0.950 . S
H2976 C3002 0.950 1_455 S
H2977 C3004 0.950 . S
H2978 C3007 0.950 . S
H2979 C3008 0.950 . S
H2980 C3010 0.950 . S
H2981 C3011 0.950 . S
C2982 H2964 0.951 . S
C2982 C2983 1.366 . S
C2982 C2984 1.388 . S
C2983 C2982 1.366 . S
C2983 C2987 1.385 . S
C2984 H2965 0.951 . S
C2984 C2982 1.388 . S
C2984 C2985 1.366 . S
C2985 C2984 1.366 . S
C2985 C2986 1.414 . S
C2985 C2988 1.499 . S
C2986 H2966 0.950 . S
C2986 C2985 1.414 . S
C2986 C2987 1.374 . S
C2987 H2967 0.950 . S
C2987 C2983 1.385 . S
C2987 C2986 1.374 . S
C2988 C2985 1.499 . S
C2988 C2989 1.373 . S
C2988 C2990 1.389 . S
C2989 H2968 0.950 . S
C2989 C2988 1.373 . S
C2989 C3005 1.377 . S
C2990 C2988 1.389 . S
C2990 C2991 1.524 . S
C2990 C3004 1.377 . S
C2991 C2990 1.524 . S
C2991 C2992 1.397 . S
C2991 C2996 1.363 . S
C2992 H2969 0.950 . S
C2992 C2991 1.397 . S
C2992 C2993 1.334 . S
C2993 H2970 0.950 . S
C2993 C2992 1.334 . S
C2993 C2994 1.287 . S
C2994 C2993 1.287 . S
C2994 C2995 1.524 . S
C2994 H3013 0.913 . S
C2995 H2971 0.950 . S
C2995 C2994 1.524 . S
C2995 C2996 1.415 . S
C2996 H2972 0.950 . S
C2996 C2991 1.363 . S
C2996 C2995 1.415 . S
C2997 H2973 0.951 . S
C2997 C2998 1.366 . S
C2997 C2999 1.388 . S
C2998 C2997 1.366 . S
C2998 C3002 1.385 . S
C2999 H2974 0.951 . S
C2999 C2997 1.388 . S
C2999 C3000 1.366 . S
C3000 C2999 1.366 . S
C3000 C3001 1.414 . S
C3000 C3003 1.499 . S
C3001 H2975 0.950 . S
C3001 C3000 1.414 . S
C3001 C3002 1.374 . S
C3002 H2976 0.950 1_655 S
C3002 C2998 1.385 . S
C3002 C3001 1.374 . S
C3003 C3000 1.499 . S
C3003 C3004 1.373 . S
C3003 C3005 1.389 . S
C3004 H2977 0.950 . S
C3004 C2990 1.377 . S
C3004 C3003 1.373 . S
C3005 C2989 1.377 . S
C3005 C3003 1.389 . S
C3005 C3006 1.524 . S
C3006 C3005 1.524 . S
C3006 C3007 1.397 . S
C3006 C3011 1.363 . S
C3007 H2978 0.950 . S
C3007 C3006 1.397 . S
C3007 C3008 1.334 . S
C3008 H2979 0.950 . S
C3008 C3007 1.334 . S
C3008 C3009 1.287 . S
C3009 C3008 1.287 . S
C3009 C3010 1.524 . S
C3009 H3012 0.999 . S
C3010 H2980 0.950 . S
C3010 C3009 1.524 . S
C3010 C3011 1.415 . S
C3011 H2981 0.950 . S
C3011 C3006 1.363 . S
C3011 C3010 1.415 . S
H3012 C3009 0.999 . S
H3013 C2994 0.913 . S
H3014 C3032 0.951 . S
H3015 C3034 0.951 . S
H3016 C3036 0.950 . S
H3017 C3037 0.950 . S
H3018 C3039 0.950 . S
H3019 C3042 0.950 . S
H3020 C3043 0.950 . S
H3021 C3045 0.950 . S
H3022 C3046 0.950 . S
H3023 C3047 0.951 . S
H3024 C3049 0.951 . S
H3025 C3051 0.950 . S
H3026 C3052 0.950 . S
H3027 C3054 0.950 . S
H3028 C3057 0.950 . S
H3029 C3058 0.950 . S
H3030 C3060 0.950 . S
H3031 C3061 0.950 . S
C3032 H3014 0.951 . S
C3032 C3033 1.366 . S
C3032 C3034 1.388 . S
C3033 C3032 1.366 . S
C3033 C3037 1.385 . S
C3034 H3015 0.951 . S
C3034 C3032 1.388 . S
C3034 C3035 1.366 . S
C3035 C3034 1.366 . S
C3035 C3036 1.414 . S
C3035 C3038 1.499 . S
C3036 H3016 0.950 . S
C3036 C3035 1.414 . S
C3036 C3037 1.374 . S
C3037 H3017 0.950 . S
C3037 C3033 1.385 . S
C3037 C3036 1.374 . S
C3038 C3035 1.499 . S
C3038 C3039 1.373 . S
C3038 C3040 1.389 . S
C3039 H3018 0.950 . S
C3039 C3038 1.373 . S
C3039 C3055 1.377 . S
C3040 C3038 1.389 . S
C3040 C3041 1.524 . S
C3040 C3054 1.377 . S
C3041 C3040 1.524 . S
C3041 C3042 1.397 . S
C3041 C3046 1.363 . S
C3042 H3019 0.950 . S
C3042 C3041 1.397 . S
C3042 C3043 1.334 . S
C3043 H3020 0.950 . S
C3043 C3042 1.334 . S
C3043 C3044 1.287 . S
C3044 C3043 1.287 . S
C3044 C3045 1.524 . S
C3044 H3063 0.913 . S
C3045 H3021 0.950 . S
C3045 C3044 1.524 . S
C3045 C3046 1.415 . S
C3046 H3022 0.950 . S
C3046 C3041 1.363 . S
C3046 C3045 1.415 . S
C3047 H3023 0.951 . S
C3047 C3048 1.366 . S
C3047 C3049 1.388 . S
C3048 C3047 1.366 . S
C3048 C3052 1.385 . S
C3049 H3024 0.951 . S
C3049 C3047 1.388 . S
C3049 C3050 1.366 . S
C3050 C3049 1.366 . S
C3050 C3051 1.414 . S
C3050 C3053 1.499 . S
C3051 H3025 0.950 . S
C3051 C3050 1.414 . S
C3051 C3052 1.374 . S
C3052 H3026 0.950 . S
C3052 C3048 1.385 . S
C3052 C3051 1.374 . S
C3053 C3050 1.499 . S
C3053 C3054 1.373 . S
C3053 C3055 1.389 . S
C3054 H3027 0.950 . S
C3054 C3040 1.377 . S
C3054 C3053 1.373 . S
C3055 C3039 1.377 . S
C3055 C3053 1.389 . S
C3055 C3056 1.524 . S
C3056 C3055 1.524 . S
C3056 C3057 1.397 . S
C3056 C3061 1.363 . S
C3057 H3028 0.950 . S
C3057 C3056 1.397 . S
C3057 C3058 1.334 . S
C3058 H3029 0.950 . S
C3058 C3057 1.334 . S
C3058 C3059 1.287 . S
C3059 C3058 1.287 . S
C3059 C3060 1.524 . S
C3059 H3062 0.999 . S
C3060 H3030 0.950 . S
C3060 C3059 1.524 . S
C3060 C3061 1.415 . S
C3061 H3031 0.950 . S
C3061 C3056 1.363 . S
C3061 C3060 1.415 . S
H3062 C3059 0.999 . S
H3063 C3044 0.913 . S
H3064 C3082 0.951 . S
H3065 C3084 0.951 . S
H3066 C3086 0.950 . S
H3067 C3087 0.950 . S
H3068 C3089 0.950 . S
H3069 C3092 0.950 . S
H3070 C3093 0.950 . S
H3071 C3095 0.950 . S
H3072 C3096 0.950 . S
H3073 C3097 0.951 . S
H3074 C3099 0.951 . S
H3075 C3101 0.950 . S
H3076 C3102 0.950 . S
H3077 C3104 0.950 . S
H3078 C3107 0.950 . S
H3079 C3108 0.950 . S
H3080 C3110 0.950 . S
H3081 C3111 0.950 . S
C3082 H3064 0.951 . S
C3082 C3083 1.366 . S
C3082 C3084 1.388 . S
C3083 C3082 1.366 . S
C3083 C3087 1.385 . S
C3084 H3065 0.951 . S
C3084 C3082 1.388 . S
C3084 C3085 1.366 . S
C3085 C3084 1.366 . S
C3085 C3086 1.414 . S
C3085 C3088 1.499 . S
C3086 H3066 0.950 . S
C3086 C3085 1.414 . S
C3086 C3087 1.374 . S
C3087 H3067 0.950 . S
C3087 C3083 1.385 . S
C3087 C3086 1.374 . S
C3088 C3085 1.499 . S
C3088 C3089 1.373 . S
C3088 C3090 1.389 . S
C3089 H3068 0.950 . S
C3089 C3088 1.373 . S
C3089 C3105 1.377 . S
C3090 C3088 1.389 . S
C3090 C3091 1.524 . S
C3090 C3104 1.377 . S
C3091 C3090 1.524 . S
C3091 C3092 1.397 . S
C3091 C3096 1.363 . S
C3092 H3069 0.950 . S
C3092 C3091 1.397 . S
C3092 C3093 1.334 . S
C3093 H3070 0.950 . S
C3093 C3092 1.334 . S
C3093 C3094 1.287 . S
C3094 C3093 1.287 . S
C3094 C3095 1.524 . S
C3094 H3113 0.913 . S
C3095 H3071 0.950 . S
C3095 C3094 1.524 . S
C3095 C3096 1.415 . S
C3096 H3072 0.950 . S
C3096 C3091 1.363 . S
C3096 C3095 1.415 . S
C3097 H3073 0.951 . S
C3097 C3098 1.366 . S
C3097 C3099 1.388 . S
C3098 C3097 1.366 . S
C3098 C3102 1.385 . S
C3099 H3074 0.951 . S
C3099 C3097 1.388 . S
C3099 C3100 1.366 . S
C3100 C3099 1.366 . S
C3100 C3101 1.414 . S
C3100 C3103 1.499 . S
C3101 H3075 0.950 . S
C3101 C3100 1.414 . S
C3101 C3102 1.374 . S
C3102 H3076 0.950 . S
C3102 C3098 1.385 . S
C3102 C3101 1.374 . S
C3103 C3100 1.499 . S
C3103 C3104 1.373 . S
C3103 C3105 1.389 . S
C3104 H3077 0.950 . S
C3104 C3090 1.377 . S
C3104 C3103 1.373 . S
C3105 C3089 1.377 . S
C3105 C3103 1.389 . S
C3105 C3106 1.524 . S
C3106 C3105 1.524 . S
C3106 C3107 1.397 . S
C3106 C3111 1.363 . S
C3107 H3078 0.950 . S
C3107 C3106 1.397 . S
C3107 C3108 1.334 . S
C3108 H3079 0.950 . S
C3108 C3107 1.334 . S
C3108 C3109 1.287 . S
C3109 C3108 1.287 . S
C3109 C3110 1.524 . S
C3109 H3112 0.999 . S
C3110 H3080 0.950 . S
C3110 C3109 1.524 . S
C3110 C3111 1.415 . S
C3111 H3081 0.950 . S
C3111 C3106 1.363 . S
C3111 C3110 1.415 . S
H3112 C3109 0.999 . S
H3113 C3094 0.913 . S
H3114 C3132 0.951 . S
H3115 C3134 0.951 . S
H3116 C3136 0.950 . S
H3117 C3137 0.950 . S
H3118 C3139 0.950 . S
H3119 C3142 0.950 . S
H3120 C3143 0.950 . S
H3121 C3145 0.950 . S
H3122 C3146 0.950 . S
H3123 C3147 0.951 . S
H3124 C3149 0.951 . S
H3125 C3151 0.950 . S
H3126 C3152 0.950 . S
H3127 C3154 0.950 . S
H3128 C3157 0.950 . S
H3129 C3158 0.950 . S
H3130 C3160 0.950 . S
H3131 C3161 0.950 . S
C3132 H3114 0.951 . S
C3132 C3133 1.366 . S
C3132 C3134 1.388 . S
C3133 C3132 1.366 . S
C3133 C3137 1.385 . S
C3134 H3115 0.951 . S
C3134 C3132 1.388 . S
C3134 C3135 1.366 . S
C3135 C3134 1.366 . S
C3135 C3136 1.414 . S
C3135 C3138 1.499 . S
C3136 H3116 0.950 . S
C3136 C3135 1.414 . S
C3136 C3137 1.374 . S
C3137 H3117 0.950 . S
C3137 C3133 1.385 . S
C3137 C3136 1.374 . S
C3138 C3135 1.499 . S
C3138 C3139 1.373 . S
C3138 C3140 1.389 . S
C3139 H3118 0.950 . S
C3139 C3138 1.373 . S
C3139 C3155 1.377 . S
C3140 C3138 1.389 . S
C3140 C3141 1.524 . S
C3140 C3154 1.377 . S
C3141 C3140 1.524 . S
C3141 C3142 1.397 . S
C3141 C3146 1.363 . S
C3142 H3119 0.950 . S
C3142 C3141 1.397 . S
C3142 C3143 1.334 . S
C3143 H3120 0.950 . S
C3143 C3142 1.334 . S
C3143 C3144 1.287 . S
C3144 C3143 1.287 . S
C3144 C3145 1.524 . S
C3144 H3163 0.913 . S
C3145 H3121 0.950 . S
C3145 C3144 1.524 . S
C3145 C3146 1.415 . S
C3146 H3122 0.950 . S
C3146 C3141 1.363 . S
C3146 C3145 1.415 . S
C3147 H3123 0.951 . S
C3147 C3148 1.366 . S
C3147 C3149 1.388 . S
C3148 C3147 1.366 . S
C3148 C3152 1.385 . S
C3149 H3124 0.951 . S
C3149 C3147 1.388 . S
C3149 C3150 1.366 . S
C3150 C3149 1.366 . S
C3150 C3151 1.414 . S
C3150 C3153 1.499 . S
C3151 H3125 0.950 . S
C3151 C3150 1.414 . S
C3151 C3152 1.374 . S
C3152 H3126 0.950 . S
C3152 C3148 1.385 . S
C3152 C3151 1.374 . S
C3153 C3150 1.499 . S
C3153 C3154 1.373 . S
C3153 C3155 1.389 . S
C3154 H3127 0.950 . S
C3154 C3140 1.377 . S
C3154 C3153 1.373 . S
C3155 C3139 1.377 . S
C3155 C3153 1.389 . S
C3155 C3156 1.524 . S
C3156 C3155 1.524 . S
C3156 C3157 1.397 . S
C3156 C3161 1.363 . S
C3157 H3128 0.950 . S
C3157 C3156 1.397 . S
C3157 C3158 1.334 . S
C3158 H3129 0.950 . S
C3158 C3157 1.334 . S
C3158 C3159 1.287 . S
C3159 C3158 1.287 . S
C3159 C3160 1.524 . S
C3159 H3162 0.999 . S
C3160 H3130 0.950 . S
C3160 C3159 1.524 . S
C3160 C3161 1.415 . S
C3161 H3131 0.950 . S
C3161 C3156 1.363 . S
C3161 C3160 1.415 . S
H3162 C3159 0.999 . S
H3163 C3144 0.913 . S
H3164 C3182 0.951 . S
H3165 C3184 0.951 . S
H3166 C3186 0.950 . S
H3167 C3187 0.950 . S
H3168 C3189 0.950 . S
H3169 C3192 0.950 . S
H3170 C3193 0.950 . S
H3171 C3195 0.950 . S
H3172 C3196 0.950 . S
H3173 C3197 0.951 . S
H3174 C3199 0.951 . S
H3175 C3201 0.950 . S
H3176 C3202 0.950 . S
H3177 C3204 0.950 . S
H3178 C3207 0.950 . S
H3179 C3208 0.950 . S
H3180 C3210 0.950 . S
H3181 C3211 0.950 . S
C3182 H3164 0.951 . S
C3182 C3183 1.366 . S
C3182 C3184 1.388 . S
C3183 C3182 1.366 . S
C3183 C3187 1.385 . S
C3184 H3165 0.951 . S
C3184 C3182 1.388 . S
C3184 C3185 1.366 . S
C3185 C3184 1.366 . S
C3185 C3186 1.414 . S
C3185 C3188 1.499 . S
C3186 H3166 0.950 . S
C3186 C3185 1.414 . S
C3186 C3187 1.374 . S
C3187 H3167 0.950 . S
C3187 C3183 1.385 . S
C3187 C3186 1.374 . S
C3188 C3185 1.499 . S
C3188 C3189 1.373 . S
C3188 C3190 1.389 . S
C3189 H3168 0.950 . S
C3189 C3188 1.373 . S
C3189 C3205 1.377 . S
C3190 C3188 1.389 . S
C3190 C3191 1.524 . S
C3190 C3204 1.377 . S
C3191 C3190 1.524 . S
C3191 C3192 1.397 . S
C3191 C3196 1.363 . S
C3192 H3169 0.950 . S
C3192 C3191 1.397 . S
C3192 C3193 1.334 . S
C3193 H3170 0.950 . S
C3193 C3192 1.334 . S
C3193 C3194 1.287 . S
C3194 C3193 1.287 . S
C3194 C3195 1.524 . S
C3194 H3213 0.913 . S
C3195 H3171 0.950 . S
C3195 C3194 1.524 . S
C3195 C3196 1.415 . S
C3196 H3172 0.950 . S
C3196 C3191 1.363 . S
C3196 C3195 1.415 . S
C3197 H3173 0.951 . S
C3197 C3198 1.366 . S
C3197 C3199 1.388 . S
C3198 C3197 1.366 . S
C3198 C3202 1.385 . S
C3199 H3174 0.951 . S
C3199 C3197 1.388 . S
C3199 C3200 1.366 . S
C3200 C3199 1.366 . S
C3200 C3201 1.414 . S
C3200 C3203 1.499 . S
C3201 H3175 0.950 . S
C3201 C3200 1.414 . S
C3201 C3202 1.374 . S
C3202 H3176 0.950 . S
C3202 C3198 1.385 . S
C3202 C3201 1.374 . S
C3203 C3200 1.499 . S
C3203 C3204 1.373 . S
C3203 C3205 1.389 . S
C3204 H3177 0.950 . S
C3204 C3190 1.377 . S
C3204 C3203 1.373 . S
C3205 C3189 1.377 . S
C3205 C3203 1.389 . S
C3205 C3206 1.524 . S
C3206 C3205 1.524 . S
C3206 C3207 1.397 . S
C3206 C3211 1.363 . S
C3207 H3178 0.950 . S
C3207 C3206 1.397 . S
C3207 C3208 1.334 . S
C3208 H3179 0.950 . S
C3208 C3207 1.334 . S
C3208 C3209 1.287 . S
C3209 C3208 1.287 . S
C3209 C3210 1.524 . S
C3209 H3212 0.999 . S
C3210 H3180 0.950 . S
C3210 C3209 1.524 . S
C3210 C3211 1.415 . S
C3211 H3181 0.950 . S
C3211 C3206 1.363 . S
C3211 C3210 1.415 . S
H3212 C3209 0.999 . S
H3213 C3194 0.913 . S
H3214 C3232 0.951 . S
H3215 C3234 0.951 . S
H3216 C3236 0.950 . S
H3217 C3237 0.950 . S
H3218 C3239 0.950 . S
H3219 C3242 0.950 . S
H3220 C3243 0.950 . S
H3221 C3245 0.950 . S
H3222 C3246 0.950 . S
H3223 C3247 0.951 . S
H3224 C3249 0.951 . S
H3225 C3251 0.950 . S
H3226 C3252 0.950 . S
H3227 C3254 0.950 . S
H3228 C3257 0.950 . S
H3229 C3258 0.950 . S
H3230 C3260 0.950 . S
H3231 C3261 0.950 . S
C3232 H3214 0.951 . S
C3232 C3233 1.366 . S
C3232 C3234 1.388 . S
C3233 C3232 1.366 . S
C3233 C3237 1.385 . S
C3234 H3215 0.951 . S
C3234 C3232 1.388 . S
C3234 C3235 1.366 . S
C3235 C3234 1.366 . S
C3235 C3236 1.414 . S
C3235 C3238 1.499 . S
C3236 H3216 0.950 . S
C3236 C3235 1.414 . S
C3236 C3237 1.374 . S
C3237 H3217 0.950 . S
C3237 C3233 1.385 . S
C3237 C3236 1.374 . S
C3238 C3235 1.499 . S
C3238 C3239 1.373 . S
C3238 C3240 1.389 . S
C3239 H3218 0.950 . S
C3239 C3238 1.373 . S
C3239 C3255 1.377 . S
C3240 C3238 1.389 . S
C3240 C3241 1.524 . S
C3240 C3254 1.377 . S
C3241 C3240 1.524 . S
C3241 C3242 1.397 . S
C3241 C3246 1.363 . S
C3242 H3219 0.950 . S
C3242 C3241 1.397 . S
C3242 C3243 1.334 . S
C3243 H3220 0.950 . S
C3243 C3242 1.334 . S
C3243 C3244 1.287 . S
C3244 C3243 1.287 . S
C3244 C3245 1.524 . S
C3244 H3263 0.913 . S
C3245 H3221 0.950 . S
C3245 C3244 1.524 . S
C3245 C3246 1.415 . S
C3246 H3222 0.950 . S
C3246 C3241 1.363 . S
C3246 C3245 1.415 . S
C3247 H3223 0.951 . S
C3247 C3248 1.366 . S
C3247 C3249 1.388 . S
C3248 C3247 1.366 . S
C3248 C3252 1.385 . S
C3249 H3224 0.951 . S
C3249 C3247 1.388 . S
C3249 C3250 1.366 . S
C3250 C3249 1.366 . S
C3250 C3251 1.414 . S
C3250 C3253 1.499 . S
C3251 H3225 0.950 . S
C3251 C3250 1.414 . S
C3251 C3252 1.374 . S
C3252 H3226 0.950 . S
C3252 C3248 1.385 . S
C3252 C3251 1.374 . S
C3253 C3250 1.499 . S
C3253 C3254 1.373 . S
C3253 C3255 1.389 . S
C3254 H3227 0.950 . S
C3254 C3240 1.377 . S
C3254 C3253 1.373 . S
C3255 C3239 1.377 . S
C3255 C3253 1.389 . S
C3255 C3256 1.524 . S
C3256 C3255 1.524 . S
C3256 C3257 1.397 . S
C3256 C3261 1.363 . S
C3257 H3228 0.950 . S
C3257 C3256 1.397 . S
C3257 C3258 1.334 . S
C3258 H3229 0.950 . S
C3258 C3257 1.334 . S
C3258 C3259 1.287 . S
C3259 C3258 1.287 . S
C3259 C3260 1.524 . S
C3259 H3262 0.999 . S
C3260 H3230 0.950 . S
C3260 C3259 1.524 . S
C3260 C3261 1.415 . S
C3261 H3231 0.950 . S
C3261 C3256 1.363 . S
C3261 C3260 1.415 . S
H3262 C3259 0.999 . S
H3263 C3244 0.913 . S
C898 C689 1.413 . S
C883 C75 1.330 . S
C948 C694 0.633 . S
C933 C156 0.681 . S
C998 C695 1.419 . S
C983 C243 1.336 . S
C1033 C315 0.743 . S
C1048 C699 0.737 . S
C1083 C399 0.867 . S
C1098 C702 0.526 . S
C1148 C703 1.394 . S
C1133 C495 1.317 . S
C1183 C576 1.255 . S
C1198 C680 1.354 . S
C1233 C654 1.323 . S
C1248 C696 1.396 . S
C1298 C734 0.953 . S
C1283 C72 0.912 . S
C1333 C140 1.222 . S
C1348 C760 1.246 . S
C1398 C712 0.893 . S
C1383 C240 0.871 . S
C1448 C767 0.870 . S
C1433 C318 0.860 . S
C1483 C402 0.850 . S
C1498 C721 0.858 . S
C1548 C763 1.611 1_556 S
C1533 C492 1.514 . S
C1583 C560 1.230 . S
C1598 C727 1.276 . S
C1633 C655 2.660 . S
C1648 C758 2.755 . S
C1683 C56 2.880 . S
C1698 C766 2.946 . S
C1733 C403 1.588 . S
C1748 C753 1.626 1_556 S
C1798 C731 2.146 . S
C1783 C476 2.078 . S
C1848 C759 1.768 1_556 S
C1833 C579 1.723 . S
C1883 C651 1.127 . S
C1898 C726 1.167 . S
C1933 C224 3.003 . S
C1948 C744 3.086 . S
C1998 C735 1.628 . S
C1983 C319 1.569 . S
C2033 C159 1.772 . S
C2048 C728 1.819 . S
C2083 C663 1.294 . S
C2098 C790 1.311 . S
C2133 C408 0.892 . S
C2148 C785 0.446 . S
C2198 C799 1.312 . S
C2183 C486 1.285 . S
C2248 C776 1.329 . S
C2233 C567 1.228 . S
C2283 C147 0.670 . S
C2298 C792 0.599 . S
C2348 C791 1.334 . S
C2333 C234 1.308 . S
C2383 C324 0.726 . S
C2398 C795 0.706 . S
C2433 C66 1.308 . S
C2448 C798 1.357 . S
C2483 C660 1.131 . S
C2498 C824 1.207 . S
C2548 C840 1.617 . S
C2533 C392 1.609 . S
C2583 C487 2.084 . S
C2598 C822 2.190 . S
C2633 C570 1.737 . S
C2648 C855 1.746 . S
C2698 C831 1.787 . S
C2683 C150 1.759 . S
C2733 C235 3.044 . S
C2748 C849 3.131 . S
C2798 C827 1.563 . S
C2783 C308 1.549 . S
C2848 C862 3.017 . S
C2833 C67 2.918 . S
C2898 C854 2.771 . S
C2883 C644 2.700 . S
C2933 C151 1.243 . S
C2948 C859 1.272 . S
C2983 C231 0.871 . S
C2998 C830 0.906 . S
C3048 C863 0.887 . S
C3033 C327 0.877 . S
C3083 C63 0.915 . S
C3098 C817 0.957 . S
C3133 C483 1.539 . S
C3148 C856 1.634 . S
C3198 C808 1.275 . S
C3183 C571 1.215 . S
C3248 C823 0.835 . S
C3233 C411 0.833 . S
