# Generated by pormake.
# Topology pth, (4,4)-cn, num edge types: 1
# Building blocks:
#     Node 0, Type 0, BuildingBlock: QUQFOY_clean_sbu_1, # of connection points: 4
#     Node 1, Type 0, BuildingBlock: QUQFOY_clean_sbu_1, # of connection points: 4
#     Node 2, Type 0, BuildingBlock: QUQFOY_clean_sbu_1, # of connection points: 4
#     Node 3, Type 1, BuildingBlock: MUDLON_clean_sbu_0, # of connection points: 4
#     Node 4, Type 1, BuildingBlock: MUDLON_clean_sbu_0, # of connection points: 4
#     Node 5, Type 1, BuildingBlock: MUDLON_clean_sbu_0, # of connection points: 4
#     Edge 6, Type (0, 1), BuildingBlock: UVAHIK_clean_linker_0, # of connection points: 2
#     Edge 7, Type (0, 1), BuildingBlock: UVAHIK_clean_linker_0, # of connection points: 2
#     Edge 8, Type (0, 1), BuildingBlock: UVAHIK_clean_linker_0, # of connection points: 2
#     Edge 9, Type (0, 1), BuildingBlock: UVAHIK_clean_linker_0, # of connection points: 2
#     Edge 10, Type (0, 1), BuildingBlock: UVAHIK_clean_linker_0, # of connection points: 2
#     Edge 11, Type (0, 1), BuildingBlock: UVAHIK_clean_linker_0, # of connection points: 2
#     Edge 12, Type (0, 1), BuildingBlock: UVAHIK_clean_linker_0, # of connection points: 2
#     Edge 13, Type (0, 1), BuildingBlock: UVAHIK_clean_linker_0, # of connection points: 2
#     Edge 14, Type (0, 1), BuildingBlock: UVAHIK_clean_linker_0, # of connection points: 2
#     Edge 15, Type (0, 1), BuildingBlock: UVAHIK_clean_linker_0, # of connection points: 2
#     Edge 16, Type (0, 1), BuildingBlock: UVAHIK_clean_linker_0, # of connection points: 2
#     Edge 17, Type (0, 1), BuildingBlock: UVAHIK_clean_linker_0, # of connection points: 2
# Relax obj value: 0.036
# Max RMSD: 0.128
# Mean RMSD: 0.077
data_MOF--net-pth--node1-QUQFOY_clean_sbu_1--node2-MUDLON_clean_sbu_0--edge1-UVAHIK_clean_linker_0
_symmetry_space_group_name_H-M    P1
_symmetry_Int_Tables_number       1
_symmetry_cell_setting            triclinic
loop_
_symmetry_equiv_pos_as_xyz
'x, y, z'
_cell_length_a     28.044631
_cell_length_b     30.425886
_cell_length_c     79.306511
_cell_angle_alpha  89.982053
_cell_angle_beta   90.010406
_cell_angle_gamma 119.94204
loop_
_atom_site_label
_atom_site_type_symbol
_atom_site_fract_x
_atom_site_fract_y
_atom_site_fract_z
_atom_type_partial_charge
O0 O 0.04488 0.08132 0.11698 0.0
Cd1 Cd 0.98157 0.02974 0.13197 0.0
Cd2 Cd 0.04762 0.99284 0.13358 0.0
O3 O 0.10837 0.06422 0.12575 0.0
O4 O 0.94446 0.06744 0.14008 0.0
O5 O 0.99116 0.04441 0.15685 0.0
C6 C 0.96525 0.06915 0.15476 0.0
C7 C 0.04933 0.94828 0.15736 0.0
C8 C 0.09491 0.09219 0.11742 0.0
C9 C 0.94579 0.93673 0.11257 0.0
O10 O 0.99529 0.9475 0.1149 0.0
O11 O 0.92676 0.96109 0.12049 0.0
O12 O 0.07811 0.95225 0.14414 0.0
O13 O 0.02264 0.97272 0.15749 0.0
O14 O 0.94214 0.02082 0.47933 0.0
Cd15 Cd 0.01314 0.06393 0.46568 0.0
Cd16 Cd 0.01115 0.971 0.46566 0.0
O17 O 0.9408 0.94764 0.48019 0.0
O18 O 1.00581 0.12309 0.45837 0.0
O19 O 0.00958 0.06937 0.44036 0.0
C20 C 1.00388 0.1084 0.44301 0.0
C21 C 0.01425 0.91656 0.44526 0.0
C22 C 0.91994 0.97497 0.48418 0.0
C23 C 0.1094 0.06334 0.48153 0.0
O24 O 0.08573 0.01703 0.47713 0.0
O25 O 0.08751 0.09037 0.47837 0.0
O26 O 0.0158 0.90872 0.46115 0.0
O27 O 1.00861 0.95454 0.44078 0.0
O28 O 0.93411 1.00607 0.7813 0.0
Cd29 Cd 0.96715 0.96732 0.79331 0.0
Cd30 Cd 0.05961 0.06284 0.79231 0.0
O31 O 1.00754 0.08244 0.7799 0.0
O32 O 0.90094 0.90141 0.79944 0.0
O33 O 0.95648 0.95562 0.81851 0.0
C34 C 0.9124 0.91334 0.81509 0.0
C35 C 0.11375 0.11088 0.81509 0.0
C36 C 0.95694 0.05223 0.77674 0.0
C37 C 0.06532 0.97838 0.77411 0.0
O38 O 0.08992 0.02479 0.77844 0.0
O39 O 0.01603 0.94849 0.77878 0.0
O40 O 0.12584 0.12696 0.79977 0.0
O41 O 0.06962 0.06774 0.81757 0.0
Mg42 Mg 0.98656 0.49782 0.29557 0.0
C43 C 0.9298 0.38791 0.30843 0.0
O44 O 0.94298 0.37833 0.29354 0.0
C45 C 0.94288 0.56562 0.28198 0.0
O46 O 0.94977 0.58127 0.29768 0.0
C47 C 0.02337 0.46891 0.26403 0.0
O48 O 0.99759 0.49122 0.25773 0.0
O49 O 0.03156 0.47121 0.27989 0.0
O50 O 0.93603 0.43162 0.31135 0.0
O51 O 0.03046 0.55868 0.31413 0.0
C52 C 0.99985 0.55402 0.32669 0.0
O53 O 0.9501 0.51435 0.32719 0.0
O54 O 0.94866 0.52781 0.27826 0.0
Mg55 Mg 0.51069 0.01519 0.62761 0.0
C56 C 0.47154 0.04225 0.59674 0.0
O57 O 0.4703 0.99989 0.59264 0.0
C58 C 0.57685 0.03388 0.65835 0.0
O59 O 0.53344 0.98893 0.66067 0.0
C60 C 0.39078 0.95783 0.64112 0.0
O61 O 0.37708 0.965 0.62595 0.0
O62 O 0.44072 0.97137 0.64424 0.0
O63 O 0.48865 0.0607 0.61138 0.0
O64 O 0.53309 0.97178 0.61068 0.0
C65 C 0.56539 0.95504 0.61419 0.0
O66 O 0.58345 0.9588 0.6297 0.0
O67 O 0.58042 0.05745 0.6447 0.0
Mg68 Mg 0.525 0.51181 0.96869 0.0
C69 C 0.45792 0.40801 0.95268 0.0
O70 O 0.42987 0.40067 0.96665 0.0
C71 C 0.64299 0.58239 0.98059 0.0
O72 O 0.64727 0.60533 0.96617 0.0
C73 C 0.47312 0.45912 0.99959 0.0
O74 O 0.51754 0.45555 0.99757 0.0
O75 O 0.46225 0.48333 0.98854 0.0
O76 O 0.50287 0.44966 0.95074 0.0
O77 O 0.53996 0.57771 0.95366 0.0
C78 C 0.52897 0.57214 0.93797 0.0
O79 O 0.49834 0.52605 0.93202 0.0
O80 O 0.60022 0.53983 0.98347 0.0
C81 C 0.98986 0.10698 0.18386 0.0
C82 C 0.96568 0.10381 0.16802 0.0
C83 C 0.99832 0.14541 0.19528 0.0
C84 C 0.02208 0.27506 0.19531 0.0
H85 H 0.98655 0.25487 0.24294 0.0
C86 C 0.01895 0.42971 0.23599 0.0
C87 C 0.0314 0.43314 0.25327 0.0
C88 C 0.01703 0.39087 0.22612 0.0
C89 C 0.99779 0.26143 0.22974 0.0
H90 H 0.9292 0.13724 0.15213 0.0
H91 H 0.94419 0.20411 0.17196 0.0
H92 H 0.96771 0.18225 0.22517 0.0
H93 H 0.05432 0.39954 0.27356 0.0
H94 H 0.05257 0.33232 0.25617 0.0
H95 H 0.0529 0.35397 0.19972 0.0
C96 C 0.95697 0.17713 0.1755 0.0
C97 C 0.98661 0.21968 0.21955 0.0
C98 C 0.94795 0.13849 0.16419 0.0
C99 C 0.04467 0.3981 0.26027 0.0
C100 C 0.04299 0.35916 0.25034 0.0
C101 C 0.03387 0.31677 0.20549 0.0
C102 C 0.9834 0.18178 0.191 0.0
C103 C 0.99762 0.22596 0.20216 0.0
C104 C 0.02798 0.3544 0.23319 0.0
C105 C 0.02086 0.31051 0.22279 0.0
H106 H 1.00409 0.08094 0.18721 0.0
H107 H 0.01877 0.14804 0.20714 0.0
H108 H 0.03221 0.28128 0.18202 0.0
H109 H 1.00837 0.4559 0.23014 0.0
H110 H 1.00454 0.38832 0.21307 0.0
C111 C 0.86252 0.91861 0.50789 0.0
C112 C 0.87168 0.95519 0.49554 0.0
C113 C 0.82171 0.90576 0.52017 0.0
C114 C 0.69541 0.90857 0.53053 0.0
H115 H 0.74932 0.93321 0.57653 0.0
C116 C 0.58333 0.95001 0.58351 0.0
C117 C 0.58899 0.93898 0.60035 0.0
C118 C 0.61132 0.94115 0.57057 0.0
C119 C 0.73283 0.92484 0.56385 0.0
H120 H 0.84334 1.00478 0.48581 0.0
H121 H 0.77119 0.9812 0.5069 0.0
H122 H 0.80879 0.93526 0.55382 0.0
H123 H 0.626 0.90713 0.61668 0.0
H124 H 0.67309 0.88966 0.59404 0.0
H125 H 0.61944 0.8979 0.54041 0.0
C126 C 0.79587 0.9629 0.5072 0.0
C127 C 0.76718 0.92624 0.55082 0.0
C128 C 0.83732 0.97654 0.49518 0.0
C129 C 0.62112 0.91645 0.60385 0.0
C130 C 0.64853 0.90685 0.59085 0.0
C131 C 0.66067 0.90626 0.54359 0.0
C132 C 0.78852 0.92835 0.52007 0.0
C133 C 0.74931 0.91942 0.53399 0.0
C134 C 0.64514 0.92024 0.57406 0.0
C135 C 0.67938 0.91583 0.56041 0.0
H136 H 0.88858 0.90177 0.50854 0.0
H137 H 0.81674 0.87891 0.52995 0.0
H138 H 0.68045 0.90269 0.51767 0.0
H139 H 0.55917 0.96766 0.58034 0.0
H140 H 0.60815 0.95288 0.55793 0.0
C141 C 0.88439 0.89387 0.84562 0.0
C142 C 0.87455 0.88017 0.8285 0.0
C143 C 0.84678 0.86313 0.85802 0.0
C144 C 0.73194 0.73185 0.86516 0.0
H145 H 0.69354 0.79147 0.90221 0.0
C146 C 0.55123 0.60705 0.90864 0.0
C147 C 0.56088 0.61466 0.92608 0.0
C148 C 0.58769 0.64272 0.8971 0.0
C149 C 0.70411 0.77427 0.892 0.0
H150 H 0.81741 0.82335 0.81104 0.0
H151 H 0.75216 0.77043 0.83248 0.0
H152 H 0.76283 0.84651 0.88165 0.0
H153 H 0.61464 0.66768 0.94504 0.0
H154 H 0.67836 0.72995 0.92485 0.0
H155 H 0.67347 0.65978 0.87539 0.0
C156 C 0.78915 0.8044 0.83644 0.0
C157 C 0.74397 0.8058 0.88024 0.0
C158 C 0.82657 0.83498 0.8241 0.0
C159 C 0.60591 0.66053 0.9317 0.0
C160 C 0.6425 0.6963 0.92012 0.0
C161 C 0.69215 0.70047 0.87684 0.0
C162 C 0.79862 0.81799 0.85357 0.0
C163 C 0.75806 0.78494 0.86659 0.0
C164 C 0.63481 0.68697 0.90267 0.0
C165 C 0.67732 0.72118 0.89033 0.0
H166 H 0.9209 0.92849 0.84943 0.0
H167 H 0.85568 0.87451 0.87111 0.0
H168 H 0.74255 0.71436 0.85505 0.0
H169 H 0.51673 0.57242 0.90385 0.0
H170 H 0.57976 0.63492 0.88376 0.0
C171 C 0.01576 0.91195 0.18625 0.0
C172 C 0.04277 0.91288 0.17121 0.0
C173 C 1.00419 0.87474 0.1985 0.0
C174 C 0.03782 0.7747 0.21125 0.0
H175 H 0.89994 0.72002 0.23566 0.0
C176 C 0.95521 0.5938 0.25174 0.0
C177 C 0.94127 0.59856 0.26842 0.0
C178 C 0.96388 0.63056 0.23964 0.0
C179 C 0.93865 0.73506 0.22897 0.0
H180 H 0.07948 0.87577 0.15738 0.0
H181 H 0.05812 0.81037 0.17836 0.0
H182 H 0.92519 0.78883 0.21551 0.0
H183 H 0.9221 0.64406 0.28512 0.0
H184 H 0.936 0.70753 0.26386 0.0
H185 H 0.05042 0.71992 0.22448 0.0
C186 C 0.04692 0.83895 0.18101 0.0
C187 C 0.95344 0.77482 0.21749 0.0
C188 C 0.05909 0.87651 0.16889 0.0
C189 C 0.93285 0.63924 0.27241 0.0
C190 C 0.94078 0.67562 0.26023 0.0
C191 C 0.02264 0.73452 0.22254 0.0
C192 C 0.0187 0.83709 0.19593 0.0
C193 C 1.00332 0.79531 0.20846 0.0
C194 C 0.95799 0.67248 0.24385 0.0
C195 C 0.97292 0.71424 0.23152 0.0
H196 H 1.00275 0.93953 0.18845 0.0
H197 H 0.98352 0.87541 0.20994 0.0
H198 H 0.07703 0.78994 0.20487 0.0
H199 H 0.96212 0.56305 0.24821 0.0
H200 H 0.97639 0.62678 0.22705 0.0
C201 C 0.1743 0.12066 0.50392 0.0
C202 C 0.16108 0.08378 0.49134 0.0
C203 C 0.21842 0.1332 0.51497 0.0
C204 C 0.34371 0.12276 0.52089 0.0
H205 H 0.3046 0.10449 0.56829 0.0
C206 C 0.44103 0.0488 0.56782 0.0
C207 C 0.44968 0.0651 0.58468 0.0
C208 C 0.41553 0.06563 0.55651 0.0
C209 C 0.31685 0.11094 0.55517 0.0
H210 H 0.18555 0.03349 0.47981 0.0
H211 H 0.26263 0.05597 0.4987 0.0
H212 H 0.24245 0.10935 0.54775 0.0
H213 H 0.43977 0.11329 0.60278 0.0
H214 H 0.39468 0.14287 0.58289 0.0
H215 H 0.41706 0.12255 0.52815 0.0
C216 C 0.23906 0.07509 0.50018 0.0
C217 C 0.28118 0.11371 0.54339 0.0
C218 C 0.19465 0.06198 0.4894 0.0
C219 C 0.43376 0.10012 0.58986 0.0
C220 C 0.40767 0.11679 0.5785 0.0
C221 C 0.37941 0.12025 0.53264 0.0
C222 C 0.25069 0.10986 0.51336 0.0
C223 C 0.29327 0.11768 0.52606 0.0
C224 C 0.39771 0.09922 0.56172 0.0
C225 C 0.3654 0.11224 0.54985 0.0
H226 H 0.1489 0.13783 0.50578 0.0
H227 H 0.22656 0.16026 0.52498 0.0
H228 H 0.35458 0.12668 0.50765 0.0
H229 H 0.45287 0.02193 0.56337 0.0
H230 H 0.4078 0.05057 0.54381 0.0
C231 C 0.20018 0.18561 0.82591 0.0
C232 C 0.15064 0.14051 0.8292 0.0
C233 C 0.23626 0.21291 0.83901 0.0
C234 C 0.27154 0.20031 0.88322 0.0
H235 H 0.34682 0.34729 0.88243 0.0
C236 C 0.38369 0.3256 0.94104 0.0
C237 C 0.43193 0.37238 0.93838 0.0
C238 C 0.35365 0.29521 0.92742 0.0
C239 C 0.32686 0.30629 0.88272 0.0
H240 H 0.10004 0.089 0.84893 0.0
H241 H 0.16257 0.13717 0.87188 0.0
H242 H 0.28432 0.2993 0.85961 0.0
H243 H 0.48785 0.4227 0.91927 0.0
H244 H 0.43551 0.36938 0.89545 0.0
H245 H 0.3135 0.20751 0.90654 0.0
C246 C 0.17397 0.15099 0.8591 0.0
C247 C 0.29085 0.27869 0.86963 0.0
C248 C 0.13787 0.12355 0.84596 0.0
C249 C 0.45091 0.38688 0.92178 0.0
C250 C 0.42061 0.35655 0.90812 0.0
C251 C 0.30745 0.22796 0.89636 0.0
C252 C 0.22375 0.19599 0.85579 0.0
C253 C 0.26249 0.22531 0.86972 0.0
C254 C 0.37093 0.3109 0.91077 0.0
C255 C 0.33538 0.28131 0.89631 0.0
H256 H 0.21154 0.19966 0.81314 0.0
H257 H 0.27448 0.24692 0.83592 0.0
H258 H 0.25122 0.15931 0.88359 0.0
H259 H 0.3679 0.31321 0.95366 0.0
H260 H 0.31546 0.26051 0.92994 0.0
C261 C 0.94992 0.1101 0.75543 0.0
C262 C 0.92439 0.06922 0.76677 0.0
C263 C 0.91817 0.12136 0.74448 0.0
C264 C 0.77717 0.09901 0.73746 0.0
H265 H 0.8095 0.10117 0.68983 0.0
C266 C 0.6099 0.03144 0.68727 0.0
C267 C 0.62095 0.05425 0.67126 0.0
C268 C 0.65145 0.04657 0.69928 0.0
C269 C 0.80048 0.10185 0.70307 0.0
H270 H 0.84569 0.00986 0.77611 0.0
H271 H 0.79066 0.02994 0.75733 0.0
H272 H 0.87523 0.10455 0.71076 0.0
H273 H 0.68425 0.11202 0.65546 0.0
H274 H 0.75763 0.13863 0.67662 0.0
H275 H 0.70178 0.09472 0.72987 0.0
C276 C 0.83506 0.05322 0.75679 0.0
C277 C 0.83815 0.10373 0.71507 0.0
C278 C 0.86664 0.04151 0.7675 0.0
C279 C 0.67447 0.09378 0.6677 0.0
C280 C 0.71648 0.10878 0.67977 0.0
C281 C 0.73975 0.09742 0.72551 0.0
C282 C 0.86036 0.09258 0.74492 0.0
C283 C 0.82591 0.10044 0.73238 0.0
C284 C 0.70544 0.08493 0.69565 0.0
C285 C 0.74993 0.09682 0.70816 0.0
H286 H 0.99436 0.13199 0.75452 0.0
H287 H 0.93875 0.15202 0.7355 0.0
H288 H 0.76706 0.09732 0.75072 0.0
H289 H 0.56912 1.00097 0.69048 0.0
H290 H 0.6415 0.0267 0.71123 0.0
C291 C 0.85468 0.87071 0.10039 0.0
C292 C 0.9125 0.89793 0.09978 0.0
C293 C 0.82453 0.83384 0.08813 0.0
C294 C 0.82405 0.80316 0.04482 0.0
H295 H 0.74432 0.65981 0.05565 0.0
C296 C 0.73046 0.65512 0.99178 0.0
C297 C 0.67946 0.6115 0.99481 0.0
C298 C 0.76048 0.68749 1.00506 0.0
C299 C 0.76552 0.69965 0.05237 0.0
H300 H 0.98388 0.9086 0.08567 0.0
H301 H 0.93115 0.84583 0.06409 0.0
H302 H 0.78898 0.72219 0.07812 0.0
H303 H 0.62076 0.56673 0.01426 0.0
H304 H 0.67151 0.62379 0.03718 0.0
H305 H 0.79955 0.7818 0.01929 0.0
C306 C 0.90936 0.8523 0.07419 0.0
C307 C 0.79117 0.73527 0.06529 0.0
C308 C 0.9394 0.88806 0.08659 0.0
C309 C 0.66022 0.59981 0.01149 0.0
C310 C 0.68959 0.6327 0.02471 0.0
C311 C 0.79751 0.76777 0.03196 0.0
C312 C 0.8518 0.82476 0.07489 0.0
C313 C 0.82095 0.78721 0.06156 0.0
C314 C 0.73959 0.6777 0.02165 0.0
C315 C 0.76825 0.71536 0.03548 0.0
H316 H 0.83291 0.87746 0.11042 0.0
H317 H 0.78002 0.81297 0.08883 0.0
H318 H 0.84686 0.84316 0.0417 0.0
H319 H 0.74651 0.66499 0.97907 0.0
H320 H 0.79958 0.72077 1.00219 0.0
C321 C 0.04341 0.85374 0.43784 0.0
C322 C 0.02095 0.88382 0.43275 0.0
C323 C 0.05025 0.82264 0.42632 0.0
C324 C 0.0492 0.79505 0.38024 0.0
H325 H 0.02169 0.66506 0.39729 0.0
C326 C 0.05853 0.64411 0.33714 0.0
C327 C 0.01533 0.59417 0.3396 0.0
C328 C 0.06722 0.68244 0.34871 0.0
C329 C 0.02932 0.70109 0.39225 0.0
H330 H 0.9886 0.90534 0.41148 0.0
H331 H 0.9981 0.84915 0.39141 0.0
H332 H 0.01824 0.72533 0.4164 0.0
H333 H 0.94878 0.54508 0.35643 0.0
H334 H 0.96318 0.61099 0.37615 0.0
H335 H 0.05696 0.76895 0.35582 0.0
C336 C 0.0119 0.85058 0.40425 0.0
C337 C 0.02813 0.73619 0.40331 0.0
C338 C 1.00594 0.8825 0.41578 0.0
C339 C 0.98246 0.5831 0.35409 0.0
C340 C 0.99103 0.62104 0.36555 0.0
C341 C 0.04978 0.75952 0.36909 0.0
C342 C 0.03379 0.81986 0.4094 0.0
C343 C 0.03751 0.78356 0.39749 0.0
C344 C 0.03305 0.67138 0.36297 0.0
C345 C 0.0389 0.7117 0.37492 0.0
H346 H 0.05632 0.85452 0.45077 0.0
H347 H 0.06864 0.80081 0.43074 0.0
H348 H 0.05755 0.83138 0.3753 0.0
H349 H 0.08439 0.65387 0.32605 0.0
H350 H 0.10032 0.72073 0.34641 0.0
C351 C 0.06284 0.92187 0.75069 0.0
C352 C 0.09328 0.96053 0.76244 0.0
C353 C 0.08973 0.90999 0.73814 0.0
C354 C 0.21873 0.91625 0.72632 0.0
H355 H 0.18732 0.93941 0.68063 0.0
C356 C 0.36986 0.95297 0.67195 0.0
C357 C 0.35087 0.94247 0.65523 0.0
C358 C 0.33367 0.94512 0.68521 0.0
C359 C 0.19592 0.93141 0.69321 0.0
H360 H 0.17557 0.0151 0.77081 0.0
H361 H 0.22242 0.99297 0.74926 0.0
H362 H 0.13218 0.94217 0.70386 0.0
H363 H 0.27829 0.91252 0.63943 0.0
H364 H 0.21447 0.89632 0.66264 0.0
H365 H 0.28177 0.90464 0.71586 0.0
C366 C 0.17786 0.97245 0.74964 0.0
C367 C 0.16434 0.93331 0.70654 0.0
C368 C 0.15105 0.98519 0.76192 0.0
C369 C 0.29428 0.92139 0.65217 0.0
C370 C 0.25777 0.91258 0.6655 0.0
C371 C 0.24957 0.91321 0.71297 0.0
C372 C 0.14747 0.9356 0.7374 0.0
C373 C 0.17632 0.92697 0.72324 0.0
C374 C 0.27713 0.92558 0.68219 0.0
C375 C 0.23968 0.92217 0.69623 0.0
H376 H 0.01828 0.90247 0.75071 0.0
H377 H 0.06546 0.8814 0.72884 0.0
H378 H 0.22842 0.91081 0.73911 0.0
H379 H 0.41328 0.96959 0.67478 0.0
H380 H 0.35077 0.95659 0.69773 0.0
C381 C 0.1194 0.16382 0.09731 0.0
C382 C 0.13621 0.13598 0.10742 0.0
C383 C 0.15689 0.20294 0.08693 0.0
C384 C 0.29076 0.24798 0.06583 0.0
H385 H 0.28109 0.36891 0.05731 0.0
C386 C 0.45388 0.41143 0.02655 0.0
C387 C 0.43534 0.431 0.01367 0.0
C388 C 0.41788 0.37954 0.03889 0.0
C389 C 0.28395 0.33515 0.05948 0.0
H390 H 0.20633 0.1288 0.11494 0.0
H391 H 0.27219 0.19786 0.09705 0.0
H392 H 0.219 0.30613 0.07773 0.0
H393 H 0.36483 0.4344 1.00414 0.0
H394 H 0.30128 0.37815 0.02591 0.0
H395 H 0.35569 0.27695 0.04765 0.0
C396 C 0.22957 0.18864 0.0969 0.0
C397 C 0.24843 0.29914 0.07117 0.0
C398 C 0.19191 0.14924 0.10725 0.0
C399 C 0.38031 0.41991 0.0139 0.0
C400 C 0.34401 0.38777 0.02636 0.0
C401 C 0.32635 0.28401 0.05425 0.0
C402 C 0.21236 0.21554 0.08642 0.0
C403 C 0.25136 0.25503 0.07448 0.0
C404 C 0.36224 0.36623 0.03871 0.0
C405 C 0.32348 0.32805 0.05095 0.0
H406 H 0.07681 0.15471 0.09708 0.0
H407 H 0.14188 0.22222 0.07891 0.0
H408 H 0.29344 0.21403 0.06771 0.0
H409 H 0.4962 0.41976 0.02692 0.0
H410 H 0.43351 0.36457 0.04845 0.0
C411 C 0.95826 0.15494 0.43203 0.0
C412 C 0.99225 0.1341 0.4291 0.0
C413 C 0.94562 0.17836 0.41901 0.0
C414 C 0.95637 0.19799 0.37189 0.0
H415 H 0.92332 0.30328 0.38387 0.0
C416 C 0.90553 0.30248 0.32013 0.0
C417 C 0.92267 0.35389 0.32278 0.0
C418 C 0.90723 0.27252 0.3333 0.0
C419 C 0.93326 0.2746 0.38013 0.0
H420 H 0.04029 0.12183 0.41032 0.0
H421 H 0.02187 0.16601 0.38781 0.0
H422 H 0.94471 0.26102 0.40574 0.0
H423 H 0.95441 0.41403 0.34142 0.0
H424 H 0.96033 0.36339 0.3639 0.0
H425 H 0.94967 0.21486 0.34617 0.0
C426 C 1.00261 0.16245 0.39993 0.0
C427 C 0.94444 0.24921 0.39286 0.0
C428 C 0.0138 0.13748 0.41289 0.0
C429 C 0.94006 0.37431 0.33899 0.0
C430 C 0.94323 0.34488 0.35199 0.0
C431 C 0.9468 0.22448 0.35912 0.0
C432 C 0.96813 0.18325 0.40275 0.0
C433 C 0.95611 0.21033 0.389 0.0
C434 C 0.92766 0.2936 0.34934 0.0
C435 C 0.93519 0.26339 0.363 0.0
H436 H 0.94029 0.1521 0.44436 0.0
H437 H 0.91753 0.19205 0.42177 0.0
H438 H 0.96396 0.16778 0.36823 0.0
H439 H 0.89183 0.28566 0.30778 0.0
H440 H 0.89329 0.233 0.33074 0.0
loop_
_geom_bond_atom_site_label_1
_geom_bond_atom_site_label_2
_geom_bond_distance
_geom_bond_site_symmetry_2
_ccdc_geom_bond_type
O0 Cd1 2.223 1_455 S
O0 C8 1.315 . S
Cd1 O0 2.223 1_655 S
Cd1 O4 2.297 . S
Cd1 O5 2.439 . S
Cd1 O11 2.240 1_545 S
Cd2 O3 2.240 1_565 S
Cd2 O10 2.223 1_455 S
Cd2 O12 2.297 . S
Cd2 O13 2.439 . S
O3 Cd2 2.240 1_545 S
O3 C8 1.279 . S
O4 Cd1 2.297 . S
O4 C6 1.247 . S
O5 Cd1 2.439 . S
O5 C6 1.208 . S
C6 O4 1.247 . S
C6 O5 1.208 . S
C7 O12 1.247 . S
C7 O13 1.208 . S
C8 O0 1.315 . S
C8 O3 1.279 . S
C9 O10 1.315 . S
C9 O11 1.279 . S
O10 Cd2 2.223 1_655 S
O10 C9 1.315 . S
O11 Cd1 2.240 1_565 S
O11 C9 1.279 . S
O12 Cd2 2.297 . S
O12 C7 1.247 . S
O13 Cd2 2.439 . S
O13 C7 1.208 . S
O14 Cd15 2.223 1_655 S
O14 C22 1.315 . S
Cd15 O14 2.223 1_455 S
Cd15 O18 2.297 . S
Cd15 O19 2.439 . S
Cd15 O25 2.240 . S
Cd16 O17 2.240 . S
Cd16 O24 2.223 1_655 S
Cd16 O26 2.297 . S
Cd16 O27 2.439 . S
O17 Cd16 2.240 . S
O17 C22 1.279 1_565 S
O18 Cd15 2.297 . S
O18 C20 1.247 . S
O19 Cd15 2.439 . S
O19 C20 1.208 . S
C20 O18 1.247 . S
C20 O19 1.208 . S
C21 O26 1.247 . S
C21 O27 1.208 . S
C22 O14 1.315 . S
C22 O17 1.279 1_545 S
C23 O24 1.315 . S
C23 O25 1.279 1_565 S
O24 Cd16 2.223 1_455 S
O24 C23 1.315 . S
O25 Cd15 2.240 . S
O25 C23 1.279 1_545 S
O26 Cd16 2.297 . S
O26 C21 1.247 . S
O27 Cd16 2.439 . S
O27 C21 1.208 . S
O28 Cd29 2.223 . S
O28 C36 1.315 . S
Cd29 O28 2.223 . S
Cd29 O32 2.297 . S
Cd29 O33 2.439 . S
Cd29 O39 2.240 1_655 S
Cd30 O31 2.240 1_455 S
Cd30 O38 2.223 . S
Cd30 O40 2.297 . S
Cd30 O41 2.439 . S
O31 Cd30 2.240 1_655 S
O31 C36 1.279 1_545 S
O32 Cd29 2.297 . S
O32 C34 1.247 . S
O33 Cd29 2.439 . S
O33 C34 1.208 . S
C34 O32 1.247 . S
C34 O33 1.208 . S
C35 O40 1.247 . S
C35 O41 1.208 . S
C36 O28 1.315 . S
C36 O31 1.279 1_565 S
C37 O38 1.315 . S
C37 O39 1.279 1_545 S
O38 Cd30 2.223 . S
O38 C37 1.315 . S
O39 Cd29 2.240 1_455 S
O39 C37 1.279 1_565 S
O40 Cd30 2.297 . S
O40 C35 1.247 . S
O41 Cd30 2.439 . S
O41 C35 1.208 . S
Mg42 O49 2.141 . S
Mg42 O50 2.048 . S
Mg42 O51 2.048 . S
Mg42 O54 2.141 . S
C43 O44 1.313 . S
C43 O50 1.195 1_655 S
O44 C43 1.313 . S
C45 O46 1.245 . S
C45 O54 1.289 1_655 S
O46 C45 1.245 . S
C47 O48 1.245 . S
C47 O49 1.289 1_655 S
O48 C47 1.245 . S
O49 Mg42 2.141 . S
O49 C47 1.289 1_455 S
O50 Mg42 2.048 . S
O50 C43 1.195 1_455 S
O51 Mg42 2.048 . S
O51 C52 1.195 1_455 S
C52 O51 1.195 1_655 S
C52 O53 1.313 . S
O53 C52 1.313 . S
O54 Mg42 2.141 . S
O54 C45 1.289 1_455 S
Mg55 O62 2.141 . S
Mg55 O63 2.048 . S
Mg55 O64 2.048 . S
Mg55 O67 2.141 . S
C56 O57 1.313 . S
C56 O63 1.195 1_565 S
O57 C56 1.313 . S
C58 O59 1.245 . S
C58 O67 1.289 1_565 S
O59 C58 1.245 . S
C60 O61 1.245 . S
C60 O62 1.289 1_565 S
O61 C60 1.245 . S
O62 Mg55 2.141 . S
O62 C60 1.289 1_545 S
O63 Mg55 2.048 . S
O63 C56 1.195 1_545 S
O64 Mg55 2.048 . S
O64 C65 1.195 1_545 S
C65 O64 1.195 1_565 S
C65 O66 1.313 . S
O66 C65 1.313 . S
O67 Mg55 2.141 . S
O67 C58 1.289 1_545 S
Mg68 O75 2.141 . S
Mg68 O76 2.048 . S
Mg68 O77 2.048 . S
Mg68 O80 2.141 . S
C69 O70 1.313 . S
C69 O76 1.195 . S
O70 C69 1.313 . S
C71 O72 1.245 . S
C71 O80 1.289 . S
O72 C71 1.245 . S
C73 O74 1.245 . S
C73 O75 1.289 . S
O74 C73 1.245 . S
O75 Mg68 2.141 . S
O75 C73 1.289 . S
O76 Mg68 2.048 . S
O76 C69 1.195 . S
O77 Mg68 2.048 . S
O77 C78 1.195 . S
C78 O77 1.195 . S
C78 O79 1.313 . S
O79 C78 1.313 . S
O80 Mg68 2.141 . S
O80 C71 1.289 . S
C81 C82 1.352 . S
C81 C83 1.327 . S
C81 H106 0.950 . S
C82 C81 1.352 . S
C82 C98 1.341 1_455 S
C83 C81 1.327 . S
C83 C102 1.435 . S
C83 H107 0.950 . S
C84 C101 1.574 . S
C84 C103 1.363 1_655 S
C84 H108 0.949 . S
H85 C89 0.949 . S
C86 C87 1.349 1_655 S
C86 C88 1.327 . S
C86 H109 0.950 . S
C87 C86 1.349 1_455 S
C87 C99 1.349 . S
C88 C86 1.327 . S
C88 C104 1.426 1_655 S
C88 H110 0.950 . S
C89 H85 0.949 . S
C89 C97 1.574 . S
C89 C105 1.372 . S
H90 C98 0.950 . S
H91 C96 0.950 . S
H92 C97 0.949 . S
H93 C99 0.950 . S
H94 C100 0.950 . S
H95 C101 0.949 . S
C96 H91 0.950 . S
C96 C98 1.327 . S
C96 C102 1.426 1_655 S
C97 C89 1.574 . S
C97 H92 0.949 . S
C97 C103 1.371 . S
C98 C82 1.341 1_655 S
C98 H90 0.950 . S
C98 C96 1.327 . S
C99 C87 1.349 . S
C99 H93 0.950 . S
C99 C100 1.327 . S
C100 H94 0.950 . S
C100 C99 1.327 . S
C100 C104 1.429 . S
C101 C84 1.574 . S
C101 H95 0.949 . S
C101 C105 1.367 1_655 S
C102 C83 1.435 . S
C102 C96 1.426 1_455 S
C102 C103 1.522 . S
C103 C84 1.363 1_455 S
C103 C97 1.371 . S
C103 C102 1.522 . S
C104 C88 1.426 1_455 S
C104 C100 1.429 . S
C104 C105 1.522 . S
C105 C89 1.372 . S
C105 C101 1.367 1_455 S
C105 C104 1.522 . S
H106 C81 0.950 . S
H107 C83 0.950 . S
H108 C84 0.949 . S
H109 C86 0.950 . S
H110 C88 0.950 . S
C111 C112 1.349 1_565 S
C111 C113 1.327 . S
C111 H136 0.950 . S
C112 C111 1.349 1_545 S
C112 C128 1.349 . S
C113 C111 1.327 . S
C113 C132 1.429 1_565 S
C113 H137 0.950 . S
C114 C131 1.574 . S
C114 C133 1.368 . S
C114 H138 0.949 . S
H115 C119 0.949 . S
C116 C117 1.353 . S
C116 C118 1.327 . S
C116 H139 0.950 . S
C117 C116 1.353 . S
C117 C129 1.342 1_545 S
C118 C116 1.327 . S
C118 C134 1.429 . S
C118 H140 0.950 . S
C119 H115 0.949 . S
C119 C127 1.574 . S
C119 C135 1.368 1_565 S
H120 C128 0.950 . S
H121 C126 0.950 . S
H122 C127 0.949 . S
H123 C129 0.950 . S
H124 C130 0.950 . S
H125 C131 0.949 . S
C126 H121 0.950 . S
C126 C128 1.327 . S
C126 C132 1.429 . S
C127 C119 1.574 . S
C127 H122 0.949 . S
C127 C133 1.368 1_565 S
C128 C112 1.349 . S
C128 H120 0.950 . S
C128 C126 1.327 . S
C129 C117 1.342 1_565 S
C129 H123 0.950 . S
C129 C130 1.327 . S
C130 H124 0.950 . S
C130 C129 1.327 . S
C130 C134 1.429 1_565 S
C131 C114 1.574 . S
C131 H125 0.949 . S
C131 C135 1.368 . S
C132 C113 1.429 1_545 S
C132 C126 1.429 . S
C132 C133 1.523 . S
C133 C114 1.368 . S
C133 C127 1.368 1_545 S
C133 C132 1.523 . S
C134 C118 1.429 . S
C134 C130 1.429 1_545 S
C134 C135 1.523 . S
C135 C119 1.368 1_545 S
C135 C131 1.368 . S
C135 C134 1.523 . S
H136 C111 0.950 . S
H137 C113 0.950 . S
H138 C114 0.949 . S
H139 C116 0.950 . S
H140 C118 0.950 . S
C141 C142 1.349 . S
C141 C143 1.327 . S
C141 H166 0.950 . S
C142 C141 1.349 . S
C142 C158 1.349 . S
C143 C141 1.327 . S
C143 C162 1.429 . S
C143 H167 0.950 . S
C144 C161 1.574 . S
C144 C163 1.368 . S
C144 H168 0.949 . S
H145 C149 0.949 . S
C146 C147 1.349 . S
C146 C148 1.327 . S
C146 H169 0.950 . S
C147 C146 1.349 . S
C147 C159 1.349 . S
C148 C146 1.327 . S
C148 C164 1.429 . S
C148 H170 0.950 . S
C149 H145 0.949 . S
C149 C157 1.574 . S
C149 C165 1.368 . S
H150 C158 0.950 . S
H151 C156 0.950 . S
H152 C157 0.949 . S
H153 C159 0.950 . S
H154 C160 0.950 . S
H155 C161 0.949 . S
C156 H151 0.950 . S
C156 C158 1.327 . S
C156 C162 1.429 . S
C157 C149 1.574 . S
C157 H152 0.949 . S
C157 C163 1.368 . S
C158 C142 1.349 . S
C158 H150 0.950 . S
C158 C156 1.327 . S
C159 C147 1.349 . S
C159 H153 0.950 . S
C159 C160 1.327 . S
C160 H154 0.950 . S
C160 C159 1.327 . S
C160 C164 1.429 . S
C161 C144 1.574 . S
C161 H155 0.949 . S
C161 C165 1.368 . S
C162 C143 1.429 . S
C162 C156 1.429 . S
C162 C163 1.523 . S
C163 C144 1.368 . S
C163 C157 1.368 . S
C163 C162 1.523 . S
C164 C148 1.429 . S
C164 C160 1.429 . S
C164 C165 1.523 . S
C165 C149 1.368 . S
C165 C161 1.368 . S
C165 C164 1.523 . S
H166 C141 0.950 . S
H167 C143 0.950 . S
H168 C144 0.949 . S
H169 C146 0.950 . S
H170 C148 0.950 . S
C171 C172 1.353 . S
C171 C173 1.327 . S
C171 H196 0.950 . S
C172 C171 1.353 . S
C172 C188 1.342 1_655 S
C173 C171 1.327 . S
C173 C192 1.432 . S
C173 H197 0.950 . S
C174 C191 1.574 . S
C174 C193 1.366 1_455 S
C174 H198 0.949 . S
H175 C179 0.949 . S
C176 C177 1.348 . S
C176 C178 1.327 . S
C176 H199 0.950 . S
C177 C176 1.348 . S
C177 C189 1.350 1_455 S
C178 C176 1.327 . S
C178 C194 1.431 1_455 S
C178 H200 0.950 . S
C179 H175 0.949 . S
C179 C187 1.574 . S
C179 C195 1.368 . S
H180 C188 0.950 . S
H181 C186 0.950 . S
H182 C187 0.949 . S
H183 C189 0.950 . S
H184 C190 0.950 . S
H185 C191 0.949 . S
C186 H181 0.950 . S
C186 C188 1.327 . S
C186 C192 1.426 1_455 S
C187 C179 1.574 . S
C187 H182 0.949 . S
C187 C193 1.370 . S
C188 C172 1.342 1_455 S
C188 H180 0.950 . S
C188 C186 1.327 . S
C189 C177 1.350 1_655 S
C189 H183 0.950 . S
C189 C190 1.327 . S
C190 H184 0.950 . S
C190 C189 1.327 . S
C190 C194 1.427 . S
C191 C174 1.574 . S
C191 H185 0.949 . S
C191 C195 1.369 1_455 S
C192 C173 1.432 . S
C192 C186 1.426 1_655 S
C192 C193 1.522 . S
C193 C174 1.366 1_655 S
C193 C187 1.370 . S
C193 C192 1.522 . S
C194 C178 1.431 1_655 S
C194 C190 1.427 . S
C194 C195 1.522 . S
C195 C179 1.368 . S
C195 C191 1.369 1_655 S
C195 C194 1.522 . S
H196 C171 0.950 . S
H197 C173 0.950 . S
H198 C174 0.949 . S
H199 C176 0.950 . S
H200 C178 0.950 . S
C201 C202 1.349 1_545 S
C201 C203 1.327 . S
C201 H226 0.950 . S
C202 C201 1.349 1_565 S
C202 C218 1.349 . S
C203 C201 1.327 . S
C203 C222 1.429 1_545 S
C203 H227 0.950 . S
C204 C221 1.574 . S
C204 C223 1.368 . S
C204 H228 0.949 . S
H205 C209 0.949 . S
C206 C207 1.350 . S
C206 C208 1.327 . S
C206 H229 0.950 . S
C207 C206 1.350 . S
C207 C219 1.348 1_565 S
C208 C206 1.327 . S
C208 C224 1.454 . S
C208 H230 0.950 . S
C209 H205 0.949 . S
C209 C217 1.574 . S
C209 C225 1.368 1_545 S
H210 C218 0.950 . S
H211 C216 0.950 . S
H212 C217 0.949 . S
H213 C219 0.950 . S
H214 C220 0.950 . S
H215 C221 0.949 . S
C216 H211 0.950 . S
C216 C218 1.327 . S
C216 C222 1.429 . S
C217 C209 1.574 . S
C217 H212 0.949 . S
C217 C223 1.368 1_545 S
C218 C202 1.349 . S
C218 H210 0.950 . S
C218 C216 1.327 . S
C219 C207 1.348 1_545 S
C219 H213 0.950 . S
C219 C220 1.327 . S
C220 H214 0.950 . S
C220 C219 1.327 . S
C220 C224 1.414 1_545 S
C221 C204 1.574 . S
C221 H215 0.949 . S
C221 C225 1.368 . S
C222 C203 1.429 1_565 S
C222 C216 1.429 . S
C222 C223 1.523 . S
C223 C204 1.368 . S
C223 C217 1.368 1_565 S
C223 C222 1.523 . S
C224 C208 1.454 . S
C224 C220 1.414 1_565 S
C224 C225 1.513 . S
C225 C209 1.368 1_565 S
C225 C221 1.368 . S
C225 C224 1.513 . S
H226 C201 0.950 . S
H227 C203 0.950 . S
H228 C204 0.949 . S
H229 C206 0.950 . S
H230 C208 0.950 . S
C231 C232 1.349 . S
C231 C233 1.327 . S
C231 H256 0.950 . S
C232 C231 1.349 . S
C232 C248 1.349 . S
C233 C231 1.327 . S
C233 C252 1.429 . S
C233 H257 0.950 . S
C234 C251 1.574 . S
C234 C253 1.368 . S
C234 H258 0.949 . S
H235 C239 0.949 . S
C236 C237 1.349 . S
C236 C238 1.327 . S
C236 H259 0.950 . S
C237 C236 1.349 . S
C237 C249 1.349 . S
C238 C236 1.327 . S
C238 C254 1.429 . S
C238 H260 0.950 . S
C239 H235 0.949 . S
C239 C247 1.574 . S
C239 C255 1.368 . S
H240 C248 0.950 . S
H241 C246 0.950 . S
H242 C247 0.949 . S
H243 C249 0.950 . S
H244 C250 0.950 . S
H245 C251 0.949 . S
C246 H241 0.950 . S
C246 C248 1.327 . S
C246 C252 1.429 . S
C247 C239 1.574 . S
C247 H242 0.949 . S
C247 C253 1.368 . S
C248 C232 1.349 . S
C248 H240 0.950 . S
C248 C246 1.327 . S
C249 C237 1.349 . S
C249 H243 0.950 . S
C249 C250 1.327 . S
C250 H244 0.950 . S
C250 C249 1.327 . S
C250 C254 1.429 . S
C251 C234 1.574 . S
C251 H245 0.949 . S
C251 C255 1.368 . S
C252 C233 1.429 . S
C252 C246 1.429 . S
C252 C253 1.523 . S
C253 C234 1.368 . S
C253 C247 1.368 . S
C253 C252 1.523 . S
C254 C238 1.429 . S
C254 C250 1.429 . S
C254 C255 1.523 . S
C255 C239 1.368 . S
C255 C251 1.368 . S
C255 C254 1.523 . S
H256 C231 0.950 . S
H257 C233 0.950 . S
H258 C234 0.949 . S
H259 C236 0.950 . S
H260 C238 0.950 . S
C261 C262 1.349 1_545 S
C261 C263 1.327 . S
C261 H286 0.950 . S
C262 C261 1.349 1_565 S
C262 C278 1.349 . S
C263 C261 1.327 . S
C263 C282 1.429 1_545 S
C263 H287 0.950 . S
C264 C281 1.574 . S
C264 C283 1.368 . S
C264 H288 0.949 . S
H265 C269 0.949 . S
C266 C267 1.354 . S
C266 C268 1.327 . S
C266 H289 0.950 . S
C267 C266 1.354 . S
C267 C279 1.347 1_565 S
C268 C266 1.327 . S
C268 C284 1.429 . S
C268 H290 0.950 . S
C269 H265 0.949 . S
C269 C277 1.574 . S
C269 C285 1.368 1_545 S
H270 C278 0.950 . S
H271 C276 0.950 . S
H272 C277 0.949 . S
H273 C279 0.950 . S
H274 C280 0.950 . S
H275 C281 0.949 . S
C276 H271 0.950 . S
C276 C278 1.327 . S
C276 C282 1.429 . S
C277 C269 1.574 . S
C277 H272 0.949 . S
C277 C283 1.368 1_545 S
C278 C262 1.349 . S
C278 H270 0.950 . S
C278 C276 1.327 . S
C279 C267 1.347 1_545 S
C279 H273 0.950 . S
C279 C280 1.327 . S
C280 H274 0.950 . S
C280 C279 1.327 . S
C280 C284 1.429 1_545 S
C281 C264 1.574 . S
C281 H275 0.949 . S
C281 C285 1.368 . S
C282 C263 1.429 1_565 S
C282 C276 1.429 . S
C282 C283 1.523 . S
C283 C264 1.368 . S
C283 C277 1.368 1_565 S
C283 C282 1.523 . S
C284 C268 1.429 . S
C284 C280 1.429 1_565 S
C284 C285 1.523 . S
C285 C269 1.368 1_565 S
C285 C281 1.368 . S
C285 C284 1.523 . S
H286 C261 0.950 . S
H287 C263 0.950 . S
H288 C264 0.949 . S
H289 C266 0.950 . S
H290 C268 0.950 . S
C291 C292 1.349 . S
C291 C293 1.327 . S
C291 H316 0.950 . S
C292 C291 1.349 . S
C292 C308 1.349 . S
C293 C291 1.327 . S
C293 C312 1.429 . S
C293 H317 0.950 . S
C294 C311 1.574 . S
C294 C313 1.368 . S
C294 H318 0.949 . S
H295 C299 0.949 . S
C296 C297 1.349 . S
C296 C298 1.327 1_556 S
C296 H319 0.950 . S
C297 C296 1.349 . S
C297 C309 1.349 1_556 S
C298 C296 1.327 1_554 S
C298 C314 1.429 . S
C298 H320 0.950 1_554 S
C299 H295 0.949 . S
C299 C307 1.574 . S
C299 C315 1.368 . S
H300 C308 0.950 . S
H301 C306 0.950 . S
H302 C307 0.949 . S
H303 C309 0.950 . S
H304 C310 0.950 . S
H305 C311 0.949 . S
C306 H301 0.950 . S
C306 C308 1.327 . S
C306 C312 1.429 . S
C307 C299 1.574 . S
C307 H302 0.949 . S
C307 C313 1.368 . S
C308 C292 1.349 . S
C308 H300 0.950 . S
C308 C306 1.327 . S
C309 C297 1.349 1_554 S
C309 H303 0.950 . S
C309 C310 1.327 . S
C310 H304 0.950 . S
C310 C309 1.327 . S
C310 C314 1.429 . S
C311 C294 1.574 . S
C311 H305 0.949 . S
C311 C315 1.368 . S
C312 C293 1.429 . S
C312 C306 1.429 . S
C312 C313 1.523 . S
C313 C294 1.368 . S
C313 C307 1.368 . S
C313 C312 1.523 . S
C314 C298 1.429 . S
C314 C310 1.429 . S
C314 C315 1.523 . S
C315 C299 1.368 . S
C315 C311 1.368 . S
C315 C314 1.523 . S
H316 C291 0.950 . S
H317 C293 0.950 . S
H318 C294 0.949 . S
H319 C296 0.950 . S
H320 C298 0.950 1_556 S
C321 C322 1.349 1_655 S
C321 C323 1.327 . S
C321 H346 0.950 . S
C322 C321 1.349 1_455 S
C322 C338 1.349 . S
C323 C321 1.327 . S
C323 C342 1.429 1_655 S
C323 H347 0.950 . S
C324 C341 1.574 . S
C324 C343 1.368 . S
C324 H348 0.949 . S
H325 C329 0.949 . S
C326 C327 1.350 . S
C326 C328 1.327 . S
C326 H349 0.950 . S
C327 C326 1.350 . S
C327 C339 1.345 1_455 S
C328 C326 1.327 . S
C328 C344 1.429 . S
C328 H350 0.950 . S
C329 H325 0.949 . S
C329 C337 1.574 . S
C329 C345 1.368 1_655 S
H330 C338 0.950 . S
H331 C336 0.950 . S
H332 C337 0.949 . S
H333 C339 0.950 . S
H334 C340 0.950 . S
H335 C341 0.949 . S
C336 H331 0.950 . S
C336 C338 1.327 . S
C336 C342 1.429 . S
C337 C329 1.574 . S
C337 H332 0.949 . S
C337 C343 1.368 1_655 S
C338 C322 1.349 . S
C338 H330 0.950 . S
C338 C336 1.327 . S
C339 C327 1.345 1_655 S
C339 H333 0.950 . S
C339 C340 1.327 . S
C340 H334 0.950 . S
C340 C339 1.327 . S
C340 C344 1.429 1_655 S
C341 C324 1.574 . S
C341 H335 0.949 . S
C341 C345 1.368 . S
C342 C323 1.429 1_455 S
C342 C336 1.429 . S
C342 C343 1.523 . S
C343 C324 1.368 . S
C343 C337 1.368 1_455 S
C343 C342 1.523 . S
C344 C328 1.429 . S
C344 C340 1.429 1_455 S
C344 C345 1.523 . S
C345 C329 1.368 1_455 S
C345 C341 1.368 . S
C345 C344 1.523 . S
H346 C321 0.950 . S
H347 C323 0.950 . S
H348 C324 0.949 . S
H349 C326 0.950 . S
H350 C328 0.950 . S
C351 C352 1.349 1_565 S
C351 C353 1.327 . S
C351 H376 0.950 . S
C352 C351 1.349 1_545 S
C352 C368 1.349 . S
C353 C351 1.327 . S
C353 C372 1.429 1_565 S
C353 H377 0.950 . S
C354 C371 1.574 . S
C354 C373 1.368 . S
C354 H378 0.949 . S
H355 C359 0.949 . S
C356 C357 1.357 . S
C356 C358 1.327 . S
C356 H379 0.950 . S
C357 C356 1.357 . S
C357 C369 1.346 1_545 S
C358 C356 1.327 . S
C358 C374 1.429 . S
C358 H380 0.950 . S
C359 H355 0.949 . S
C359 C367 1.574 . S
C359 C375 1.368 1_565 S
H360 C368 0.950 . S
H361 C366 0.950 . S
H362 C367 0.949 . S
H363 C369 0.950 . S
H364 C370 0.950 . S
H365 C371 0.949 . S
C366 H361 0.950 . S
C366 C368 1.327 . S
C366 C372 1.429 . S
C367 C359 1.574 . S
C367 H362 0.949 . S
C367 C373 1.368 1_565 S
C368 C352 1.349 . S
C368 H360 0.950 . S
C368 C366 1.327 . S
C369 C357 1.346 1_565 S
C369 H363 0.950 . S
C369 C370 1.327 . S
C370 H364 0.950 . S
C370 C369 1.327 . S
C370 C374 1.429 1_565 S
C371 C354 1.574 . S
C371 H365 0.949 . S
C371 C375 1.368 . S
C372 C353 1.429 1_545 S
C372 C366 1.429 . S
C372 C373 1.523 . S
C373 C354 1.368 . S
C373 C367 1.368 1_545 S
C373 C372 1.523 . S
C374 C358 1.429 . S
C374 C370 1.429 1_545 S
C374 C375 1.523 . S
C375 C359 1.368 1_545 S
C375 C371 1.368 . S
C375 C374 1.523 . S
H376 C351 0.950 . S
H377 C353 0.950 . S
H378 C354 0.949 . S
H379 C356 0.950 . S
H380 C358 0.950 . S
C381 C382 1.349 . S
C381 C383 1.327 . S
C381 H406 0.950 . S
C382 C381 1.349 . S
C382 C398 1.349 . S
C383 C381 1.327 . S
C383 C402 1.429 . S
C383 H407 0.950 . S
C384 C401 1.574 . S
C384 C403 1.368 . S
C384 H408 0.949 . S
H385 C389 0.949 . S
C386 C387 1.349 1_554 S
C386 C388 1.326 . S
C386 H409 0.950 1_554 S
C387 C386 1.349 1_556 S
C387 C399 1.334 1_556 S
C388 C386 1.326 . S
C388 C404 1.429 . S
C388 H410 0.950 . S
C389 H385 0.949 . S
C389 C397 1.574 . S
C389 C405 1.368 . S
H390 C398 0.950 . S
H391 C396 0.950 . S
H392 C397 0.949 . S
H393 C399 0.936 1_556 S
H394 C400 0.950 . S
H395 C401 0.949 . S
C396 H391 0.950 . S
C396 C398 1.327 . S
C396 C402 1.429 . S
C397 C389 1.574 . S
C397 H392 0.949 . S
C397 C403 1.368 . S
C398 C382 1.349 . S
C398 H390 0.950 . S
C398 C396 1.327 . S
C399 C387 1.334 1_554 S
C399 H393 0.936 1_554 S
C399 C400 1.357 . S
C400 H394 0.950 . S
C400 C399 1.357 . S
C400 C404 1.429 . S
C401 C384 1.574 . S
C401 H395 0.949 . S
C401 C405 1.368 . S
C402 C383 1.429 . S
C402 C396 1.429 . S
C402 C403 1.523 . S
C403 C384 1.368 . S
C403 C397 1.368 . S
C403 C402 1.523 . S
C404 C388 1.429 . S
C404 C400 1.429 . S
C404 C405 1.523 . S
C405 C389 1.368 . S
C405 C401 1.368 . S
C405 C404 1.523 . S
H406 C381 0.950 . S
H407 C383 0.950 . S
H408 C384 0.949 . S
H409 C386 0.950 1_556 S
H410 C388 0.950 . S
C411 C412 1.349 1_455 S
C411 C413 1.327 . S
C411 H436 0.950 . S
C412 C411 1.349 1_655 S
C412 C428 1.349 . S
C413 C411 1.327 . S
C413 C432 1.429 1_455 S
C413 H437 0.950 . S
C414 C431 1.574 . S
C414 C433 1.368 . S
C414 H438 0.949 . S
H415 C419 0.949 . S
C416 C417 1.350 . S
C416 C418 1.327 . S
C416 H439 0.950 . S
C417 C416 1.350 . S
C417 C429 1.347 1_655 S
C418 C416 1.327 . S
C418 C434 1.429 . S
C418 H440 0.950 . S
C419 H415 0.949 . S
C419 C427 1.574 . S
C419 C435 1.368 1_455 S
H420 C428 0.950 . S
H421 C426 0.950 . S
H422 C427 0.949 . S
H423 C429 0.950 . S
H424 C430 0.950 . S
H425 C431 0.949 . S
C426 H421 0.950 . S
C426 C428 1.327 . S
C426 C432 1.429 . S
C427 C419 1.574 . S
C427 H422 0.949 . S
C427 C433 1.368 1_455 S
C428 C412 1.349 . S
C428 H420 0.950 . S
C428 C426 1.327 . S
C429 C417 1.347 1_455 S
C429 H423 0.950 . S
C429 C430 1.327 . S
C430 H424 0.950 . S
C430 C429 1.327 . S
C430 C434 1.429 1_455 S
C431 C414 1.574 . S
C431 H425 0.949 . S
C431 C435 1.368 . S
C432 C413 1.429 1_655 S
C432 C426 1.429 . S
C432 C433 1.523 . S
C433 C414 1.368 . S
C433 C427 1.368 1_655 S
C433 C432 1.523 . S
C434 C418 1.429 . S
C434 C430 1.429 1_655 S
C434 C435 1.523 . S
C435 C419 1.368 1_655 S
C435 C431 1.368 . S
C435 C434 1.523 . S
H436 C411 0.950 . S
H437 C413 0.950 . S
H438 C414 0.949 . S
H439 C416 0.950 . S
H440 C418 0.950 . S
C87 C47 1.405 1_455 S
C82 C6 1.402 1_455 S
C112 C22 1.548 . S
C117 C65 1.568 1_545 S
C142 C34 1.260 . S
C147 C78 1.275 . S
C172 C7 1.403 1_655 S
C177 C45 1.407 1_455 S
C207 C56 1.563 . S
C202 C23 1.546 . S
C232 C35 1.260 . S
C237 C69 1.268 . S
C267 C58 1.481 . S
C262 C36 1.481 . S
C292 C9 1.703 . S
C297 C71 1.723 . S
C327 C52 1.487 1_455 S
C322 C21 1.473 1_455 S
C357 C60 1.479 1_545 S
C352 C37 1.477 . S
C387 C73 1.721 . S
C382 C8 1.700 . S
C412 C20 1.471 1_655 S
C417 C43 1.482 . S
