# Generated by pormake.
# Topology anh, (6,3)-cn, num edge types: 1
# Building blocks:
#     Node 0, Type 0, BuildingBlock: CUWYAW_clean_sbu_0, # of connection points: 6
#     Node 1, Type 0, BuildingBlock: CUWYAW_clean_sbu_0, # of connection points: 6
#     Node 2, Type 0, BuildingBlock: CUWYAW_clean_sbu_0, # of connection points: 6
#     Node 3, Type 1, BuildingBlock: WUSLED_clean_sbu_0, # of connection points: 3
#     Node 4, Type 1, BuildingBlock: WUSLED_clean_sbu_0, # of connection points: 3
#     Node 5, Type 1, BuildingBlock: WUSLED_clean_sbu_0, # of connection points: 3
#     Node 6, Type 1, BuildingBlock: WUSLED_clean_sbu_0, # of connection points: 3
#     Node 7, Type 1, BuildingBlock: WUSLED_clean_sbu_0, # of connection points: 3
#     Node 8, Type 1, BuildingBlock: WUSLED_clean_sbu_0, # of connection points: 3
#     Edge 9, Type (0, 1), BuildingBlock: OJICUG_clean_linker_0, # of connection points: 2
#     Edge 10, Type (0, 1), BuildingBlock: OJICUG_clean_linker_0, # of connection points: 2
#     Edge 11, Type (0, 1), BuildingBlock: OJICUG_clean_linker_0, # of connection points: 2
#     Edge 12, Type (0, 1), BuildingBlock: OJICUG_clean_linker_0, # of connection points: 2
#     Edge 13, Type (0, 1), BuildingBlock: OJICUG_clean_linker_0, # of connection points: 2
#     Edge 14, Type (0, 1), BuildingBlock: OJICUG_clean_linker_0, # of connection points: 2
#     Edge 15, Type (0, 1), BuildingBlock: OJICUG_clean_linker_0, # of connection points: 2
#     Edge 16, Type (0, 1), BuildingBlock: OJICUG_clean_linker_0, # of connection points: 2
#     Edge 17, Type (0, 1), BuildingBlock: OJICUG_clean_linker_0, # of connection points: 2
#     Edge 18, Type (0, 1), BuildingBlock: OJICUG_clean_linker_0, # of connection points: 2
#     Edge 19, Type (0, 1), BuildingBlock: OJICUG_clean_linker_0, # of connection points: 2
#     Edge 20, Type (0, 1), BuildingBlock: OJICUG_clean_linker_0, # of connection points: 2
#     Edge 21, Type (0, 1), BuildingBlock: OJICUG_clean_linker_0, # of connection points: 2
#     Edge 22, Type (0, 1), BuildingBlock: OJICUG_clean_linker_0, # of connection points: 2
#     Edge 23, Type (0, 1), BuildingBlock: OJICUG_clean_linker_0, # of connection points: 2
#     Edge 24, Type (0, 1), BuildingBlock: OJICUG_clean_linker_0, # of connection points: 2
#     Edge 25, Type (0, 1), BuildingBlock: OJICUG_clean_linker_0, # of connection points: 2
#     Edge 26, Type (0, 1), BuildingBlock: OJICUG_clean_linker_0, # of connection points: 2
# Relax obj value: 0.274
# Max RMSD: 0.186
# Mean RMSD: 0.156
data_MOF--net-anh--node1-CUWYAW_clean_sbu_0--node2-WUSLED_clean_sbu_0--edge1-OJICUG_clean_linker_0
_symmetry_space_group_name_H-M    P1
_symmetry_Int_Tables_number       1
_symmetry_cell_setting            triclinic
loop_
_symmetry_equiv_pos_as_xyz
'x, y, z'
_cell_length_a     31.877176
_cell_length_b     32.150317
_cell_length_c     55.585568
_cell_angle_alpha  89.741877
_cell_angle_beta   89.871031
_cell_angle_gamma 120.11328
loop_
_atom_site_label
_atom_site_type_symbol
_atom_site_fract_x
_atom_site_fract_y
_atom_site_fract_z
_atom_type_partial_charge
C0 C 1.0364 0.42779 0.17073 0.0
Eu1 Eu 1.09264 0.51788 0.18141 0.0
C2 C 0.98833 0.40337 0.15967 0.0
C3 C 0.95456 0.35646 0.1668 0.0
C4 C 0.90582 0.33693 0.16078 0.0
C5 C 0.89032 0.36442 0.1478 0.0
C6 C 0.92486 0.40991 0.139 0.0
C7 C 0.97367 0.4292 0.14479 0.0
C8 C 0.11722 0.55083 0.22769 0.0
C9 C 1.02313 0.56962 0.17816 0.0
C10 C 0.19773 0.70843 0.19217 0.0
Eu11 Eu 0.13908 0.61883 0.18296 0.0
C12 C 0.24867 0.74028 0.18501 0.0
C13 C 0.26046 0.76534 0.16294 0.0
C14 C 0.30883 0.79623 0.15655 0.0
C15 C 0.34613 0.80278 0.17219 0.0
C16 C 0.33421 0.77551 0.19358 0.0
C17 C 0.28606 0.74483 0.19996 0.0
C18 C 0.11384 0.58565 0.13796 0.0
C19 C 0.21027 0.56922 0.17529 0.0
O20 O 1.07187 0.45809 0.1569 0.0
O21 O 1.03788 0.44515 0.19211 0.0
O22 O 0.12385 0.5179 0.21802 0.0
O23 O 0.09842 0.56598 0.21233 0.0
O24 O 1.02772 0.53148 0.1731 0.0
O25 O 1.06216 0.60857 0.18628 0.0
O26 O 0.18924 0.67389 0.20745 0.0
O27 O 0.16607 0.69417 0.17481 0.0
O28 O 0.11034 0.6213 0.14626 0.0
O29 O 0.13275 0.57097 0.15317 0.0
O30 O 0.20764 0.60907 0.17864 0.0
O31 O 0.16892 0.52745 0.17517 0.0
H32 H 0.9653 0.33618 0.17833 0.0
H33 H 0.87978 0.30193 0.16801 0.0
H34 H 0.9137 0.43161 0.12891 0.0
H35 H 0.99937 0.46542 0.13889 0.0
H36 H 0.23238 0.76212 0.15086 0.0
H37 H 0.31697 0.81692 0.14002 0.0
H38 H 0.36188 0.78045 0.20638 0.0
H39 H 0.2782 0.72579 0.217 0.0
C40 C 0.56813 0.16493 0.49902 0.0
Eu41 Eu 0.60497 0.11231 0.51233 0.0
C42 C 0.59073 0.21344 0.48864 0.0
C43 C 0.57624 0.24532 0.49693 0.0
C44 C 0.60649 0.29467 0.49359 0.0
C45 C 0.65176 0.31253 0.4821 0.0
C46 C 0.66289 0.28021 0.47091 0.0
C47 C 0.63263 0.23081 0.47426 0.0
C48 C 0.61157 0.08939 0.55944 0.0
C49 C 0.72672 0.1838 0.51039 0.0
C50 C 0.69764 1.014 0.52808 0.0
Eu51 Eu 0.662 0.06827 0.5165 0.0
C52 C 0.68533 0.9649 0.52126 0.0
C53 C 0.70992 0.95792 0.50209 0.0
C54 C 0.69742 0.91164 0.49494 0.0
C55 C 0.66058 0.87133 0.50705 0.0
C56 C 0.63589 0.87838 0.52618 0.0
C57 C 0.64809 0.92467 0.5332 0.0
C58 C 0.65454 0.09111 0.47066 0.0
C59 C 0.54068 0.99536 0.50813 0.0
O60 O 0.56813 0.13188 0.48547 0.0
O61 O 0.58088 0.16301 0.52115 0.0
O62 O 0.57215 0.08225 0.54901 0.0
O63 O 0.64659 0.10838 0.54448 0.0
O64 O 0.68357 0.17782 0.50409 0.0
O65 O 0.72709 0.14595 0.51987 0.0
O66 O 0.66643 1.01838 0.54165 0.0
O67 O 0.71523 1.04605 0.51084 0.0
O68 O 0.69449 0.09712 0.47975 0.0
O69 O 0.62038 0.07178 0.48568 0.0
O70 O 0.58392 0.99888 0.51197 0.0
O71 O 0.53932 1.03593 0.50711 0.0
H72 H 0.54394 0.23246 0.50796 0.0
H73 H 0.59694 0.31872 0.50248 0.0
H74 H 0.69719 0.29324 0.46162 0.0
H75 H 0.64424 0.20667 0.46743 0.0
H76 H 0.73885 0.98826 0.49255 0.0
H77 H 0.71695 0.90748 0.48005 0.0
H78 H 0.60814 0.84819 0.5363 0.0
H79 H 0.62853 0.92882 0.54808 0.0
C80 C 0.77324 0.63948 0.83514 0.0
Eu81 Eu 0.68183 0.60339 0.84565 0.0
C82 C 0.80018 0.61679 0.82627 0.0
C83 C 0.84666 0.63185 0.8351 0.0
C84 C 0.86852 0.60431 0.83083 0.0
C85 C 0.84386 0.56119 0.81784 0.0
C86 C 0.79886 0.54811 0.80753 0.0
C87 C 0.77716 0.5758 0.81167 0.0
C88 C 0.64992 0.59492 0.89241 0.0
C89 C 0.63166 0.48239 0.84286 0.0
C90 C 0.4921 0.51611 0.8581 0.0
Eu91 Eu 0.58251 0.54846 0.84843 0.0
C92 C 0.46078 0.5353 0.8507 0.0
C93 C 0.43954 0.52578 0.82771 0.0
C94 C 0.4105 0.54483 0.82082 0.0
C95 C 0.40227 0.57368 0.8368 0.0
C96 C 0.42553 0.58498 0.85928 0.0
C97 C 0.45414 0.56575 0.8662 0.0
C98 C 0.61356 0.5595 0.80246 0.0
C99 C 0.63062 0.6692 0.8407 0.0
O100 O 0.74179 0.63987 0.8203 0.0
O101 O 0.75587 0.62686 0.85692 0.0
O102 O 0.68091 0.63492 0.882 0.0
O103 O 0.63546 0.56072 0.87746 0.0
O104 O 0.66942 0.5255 0.8371 0.0
O105 O 0.59277 0.48214 0.85165 0.0
O106 O 0.52678 0.54246 0.8732 0.0
O107 O 0.5066 0.49863 0.84094 0.0
O108 O 0.58004 0.51911 0.81132 0.0
O109 O 0.62837 0.59219 0.81794 0.0
O110 O 0.59108 0.6265 0.84543 0.0
O111 O 0.67245 0.66969 0.83892 0.0
H112 H 0.86477 0.66324 0.84647 0.0
H113 H 0.90309 0.6149 0.83919 0.0
H114 H 0.77946 0.51522 0.79732 0.0
H115 H 0.74129 0.56366 0.80454 0.0
H116 H 0.44449 0.50285 0.81519 0.0
H117 H 0.39253 0.53511 0.80354 0.0
H118 H 0.41889 0.60592 0.87236 0.0
H119 H 0.47023 0.57398 0.88394 0.0
C120 C 0.62428 0.22285 0.20759 0.0
C121 C 0.66366 0.26439 0.21698 0.0
C122 C 0.69648 0.28905 0.17656 0.0
C123 C 0.69954 0.29753 0.20151 0.0
C124 C 0.65392 0.25057 0.16714 0.0
C125 C 0.61797 0.21761 0.18262 0.0
U126 U 0.59062 0.14837 0.26682 0.0
O127 O 0.59231 0.08136 0.27101 0.0
O128 O 0.5232 0.0804 0.27448 0.0
C129 C 0.54485 1.05513 0.2711 0.0
C130 C 0.59808 0.17975 0.2225 0.0
C131 C 0.52622 1.02151 0.25104 0.0
C132 C 0.51308 1.00922 0.20805 0.0
C133 C 0.52773 1.03959 0.22783 0.0
C134 C 0.49577 0.94218 0.23448 0.0
C135 C 0.49618 0.96002 0.21118 0.0
C136 C 0.51095 0.97285 0.25429 0.0
C137 C 0.63634 0.19183 0.32944 0.0
C138 C 0.59937 0.16018 0.36862 0.0
C139 C 0.68254 0.18108 0.36118 0.0
C140 C 0.6797 0.19587 0.33788 0.0
C141 C 0.64228 0.16261 0.37684 0.0
C142 C 0.59636 0.17443 0.34519 0.0
C143 C 0.63261 0.20321 0.30394 0.0
O144 O 0.62587 0.16446 0.23166 0.0
O145 O 0.56497 0.17706 0.2376 0.0
O146 O 0.58926 0.19286 0.29643 0.0
O147 O 0.6559 0.19111 0.28847 0.0
H148 H 0.66922 0.26858 0.23625 0.0
H149 H 0.73211 0.32665 0.20933 0.0
H150 H 0.65058 0.24346 0.148 0.0
H151 H 0.58779 0.18546 0.17513 0.0
H152 H 0.51381 1.024 0.1904 0.0
H153 H 0.5401 0.07732 0.225 0.0
H154 H 0.4818 0.90418 0.2376 0.0
H155 H 0.51029 0.95856 0.27206 0.0
H156 H 0.56792 0.14716 0.38025 0.0
H157 H 0.71602 0.18294 0.36662 0.0
H158 H 0.71119 0.20929 0.32622 0.0
H159 H 0.5624 0.17109 0.33937 0.0
C160 C 0.65279 0.61572 0.5307 0.0
C161 C 0.62271 0.62956 0.54231 0.0
C162 C 0.63346 0.68289 0.50886 0.0
C163 C 0.6128 0.66277 0.53136 0.0
C164 C 0.65962 0.6653 0.49634 0.0
C165 C 0.66925 0.63185 0.50726 0.0
U166 U 0.68647 0.57995 0.58978 0.0
O167 O 0.68876 0.51457 0.59909 0.0
O168 O 0.75575 0.58485 0.59937 0.0
C169 C 0.73646 0.53787 0.59853 0.0
C170 C 0.67422 0.59201 0.54419 0.0
C171 C 0.75647 0.52049 0.57986 0.0
C172 C 0.77112 0.52017 0.53696 0.0
C173 C 0.76905 0.54405 0.55737 0.0
C174 C 0.75375 0.45096 0.56165 0.0
C175 C 0.76076 0.47246 0.53874 0.0
C176 C 0.75134 0.4748 0.5821 0.0
C177 C 0.65047 0.60503 0.6502 0.0
C178 C 0.6583 0.56622 0.68605 0.0
C179 C 0.63549 0.62748 0.6895 0.0
C180 C 0.63809 0.63306 0.66449 0.0
C181 C 0.6449 0.59349 0.70046 0.0
C182 C 0.66129 0.57212 0.66111 0.0
C183 C 0.65066 0.60894 0.62393 0.0
O184 O 0.71296 0.6218 0.55639 0.0
O185 O 0.64402 0.55336 0.5565 0.0
O186 O 0.6253 0.56768 0.6128 0.0
O187 O 0.69336 0.63702 0.61403 0.0
H188 H 0.61006 0.61763 0.56052 0.0
H189 H 0.59301 0.67611 0.54153 0.0
H190 H 0.67576 0.6802 0.47896 0.0
H191 H 0.69263 0.62144 0.49814 0.0
H192 H 0.77663 0.53745 0.51953 0.0
H193 H 0.77275 0.57921 0.55509 0.0
H194 H 0.74503 0.41391 0.56349 0.0
H195 H 0.74093 0.4558 0.59918 0.0
H196 H 0.66627 0.54021 0.69407 0.0
H197 H 0.62474 0.64868 0.70021 0.0
H198 H 0.62969 0.65864 0.65629 0.0
H199 H 0.67127 0.55043 0.6503 0.0
C200 C 0.98814 0.43554 0.87535 0.0
C201 C 0.94606 0.43203 0.88527 0.0
C202 C 0.92329 0.44596 0.84565 0.0
C203 C 0.91355 0.43694 0.87042 0.0
C204 C 0.96243 0.44365 0.83552 0.0
C205 C 0.99468 0.43838 0.85035 0.0
U206 U 1.061 0.4694 0.93478 0.0
O207 O 0.13013 0.53624 0.93992 0.0
O208 O 0.12759 0.46678 0.94195 0.0
C209 C 0.1548 0.51367 0.93906 0.0
C210 C 1.03071 0.44978 0.89025 0.0
C211 C 0.18805 0.52888 0.91855 0.0
C212 C 0.19778 0.52992 0.87519 0.0
C213 C 0.16866 0.51243 0.8956 0.0
C214 C 0.26656 0.58055 0.90045 0.0
C215 C 0.24726 0.56364 0.87736 0.0
C216 C 0.23698 0.56353 0.92091 0.0
C217 C 1.01806 0.4695 0.99703 0.0
C218 C 1.07808 0.49643 0.02879 0.0
C219 C 1.00151 0.49362 0.03552 0.0
C220 C 0.98699 0.47645 0.01218 0.0
C221 C 1.04735 0.50406 0.04399 0.0
C222 C 1.06366 0.47953 1.00547 0.0
C223 C 1.00503 0.45592 0.97185 0.0
O224 O 1.04762 0.49224 0.90008 0.0
O225 O 1.03109 0.41758 0.9048 0.0
O226 O 1.01379 0.42252 0.96381 0.0
O227 O 1.01959 0.49268 0.95705 0.0
H228 H 0.94096 0.43046 0.9046 0.0
H229 H 0.88388 0.43901 0.87873 0.0
H230 H 0.97052 0.45033 0.81648 0.0
H231 H 1.02733 0.44154 0.8425 0.0
H232 H 0.18175 0.51624 0.85777 0.0
H233 H 0.13072 0.48612 0.89345 0.0
H234 H 0.30487 0.60562 0.90285 0.0
H235 H 0.25225 0.57721 0.93846 0.0
H236 H 0.11388 0.50491 0.03465 0.0
H237 H 0.97699 0.4989 0.04692 0.0
H238 H 0.95195 0.46944 0.00581 0.0
H239 H 1.08855 0.47528 0.99383 0.0
C240 C 1.01049 0.46404 0.48078 0.0
C241 C 0.96429 0.45947 0.47689 0.0
C242 C 0.91724 0.3724 0.48996 0.0
C243 C 0.91941 0.4153 0.48118 0.0
C244 C 0.96382 0.37732 0.49363 0.0
C245 C 1.00852 0.42137 0.48931 0.0
U246 U 0.13622 0.5906 0.45858 0.0
O247 O 0.16909 0.66142 0.47782 0.0
O248 O 0.20953 0.62395 0.47593 0.0
C249 C 0.21035 0.66341 0.48297 0.0
C250 C 1.05956 0.51323 0.4797 0.0
C251 C 0.25902 0.71289 0.48353 0.0
C252 C 0.30609 0.79775 0.49843 0.0
C253 C 0.26144 0.75356 0.49483 0.0
C254 C 0.34961 0.76392 0.47966 0.0
C255 C 0.35208 0.80477 0.49109 0.0
C256 C 0.30474 0.71952 0.4761 0.0
C257 C 0.12967 0.58754 0.3848 0.0
C258 C 0.1287 0.61732 0.34407 0.0
C259 C 0.11713 0.53773 0.34917 0.0
C260 C 0.12145 0.54425 0.37438 0.0
C261 C 0.12151 0.57447 0.33339 0.0
C262 C 0.13266 0.62363 0.36922 0.0
C263 C 0.14206 0.5991 0.41098 0.0
O264 O 0.10084 0.51555 0.47399 0.0
O265 O 1.0609 0.55378 0.47422 0.0
O266 O 0.11991 0.61598 0.42433 0.0
O267 O 0.15912 0.57606 0.42349 0.0
H268 H 0.96253 0.49065 0.47091 0.0
H269 H 0.88616 0.41568 0.47803 0.0
H270 H 0.96649 0.34696 0.50002 0.0
H271 H 1.04215 0.42214 0.49325 0.0
H272 H 0.30417 0.82621 0.50773 0.0
H273 H 0.22833 0.75093 0.50163 0.0
H274 H 0.38265 0.76593 0.47327 0.0
H275 H 0.30615 0.68993 0.46772 0.0
H276 H 0.13314 0.64703 0.33299 0.0
H277 H 0.11065 0.50372 0.34208 0.0
H278 H 0.11935 0.51571 0.38566 0.0
H279 H 0.13996 0.65783 0.37648 0.0
C280 C 0.62416 0.94835 0.81546 0.0
C281 C 0.65952 0.93946 0.80482 0.0
C282 C 0.62499 0.85617 0.82298 0.0
C283 C 0.65975 0.89502 0.80832 0.0
C284 C 0.5896 0.86538 0.83347 0.0
C285 C 0.5893 0.90961 0.82988 0.0
U286 U 0.62644 0.0744 0.79235 0.0
O287 O 0.58773 0.10854 0.81031 0.0
O288 O 0.66615 0.14809 0.80878 0.0
C289 C 0.62716 0.14934 0.81552 0.0
C290 C 0.62569 0.99816 0.81457 0.0
C291 C 0.6267 0.19809 0.81685 0.0
C292 C 0.59576 0.24781 0.83669 0.0
C293 C 0.59465 0.20307 0.83284 0.0
C294 C 0.66123 0.2865 0.80863 0.0
C295 C 0.62912 0.29162 0.82481 0.0
C296 C 0.66025 0.24153 0.8049 0.0
C297 C 0.62448 0.07626 0.71751 0.0
C298 C 0.66383 0.11191 0.67868 0.0
C299 C 0.58236 1.04429 0.67918 0.0
C300 C 0.58328 1.04318 0.70458 0.0
C301 C 0.62243 0.07899 0.66559 0.0
C302 C 0.66488 0.11042 0.7041 0.0
C303 C 0.62506 0.07548 0.7447 0.0
O304 O 0.66509 1.03814 0.80799 0.0
O305 O 0.58672 1.00085 0.80965 0.0
O306 O 0.58538 1.05467 0.75794 0.0
O307 O 0.66542 0.09542 0.7572 0.0
H308 H 0.6878 0.9673 0.7938 0.0
H309 H 0.68784 0.89149 0.79927 0.0
H310 H 0.56207 0.83867 0.8452 0.0
H311 H 0.56177 0.91389 0.83911 0.0
H312 H 0.57042 0.24766 0.84968 0.0
H313 H 0.56872 0.17193 0.84309 0.0
H314 H 0.68772 0.31748 0.79854 0.0
H315 H 0.68644 0.24109 0.79263 0.0
H316 H 0.69539 0.13973 0.66937 0.0
H317 H 0.55 1.01736 0.67025 0.0
H318 H 0.55157 1.01601 0.71411 0.0
H319 H 0.69727 0.13672 0.71331 0.0
C320 C 0.74315 0.57324 0.14954 0.0
C321 C 0.74831 0.53297 0.14394 0.0
C322 C 0.83486 0.57181 0.15826 0.0
C323 C 0.79259 0.53239 0.14797 0.0
C324 C 0.82919 0.61204 0.16372 0.0
C325 C 0.78514 0.61265 0.15953 0.0
U326 U 0.62 0.57419 0.12514 0.0
O327 O 0.54517 0.53562 0.14123 0.0
O328 O 0.58585 0.61351 0.14213 0.0
C329 C 0.54434 0.57469 0.14745 0.0
C330 C 0.69379 0.57266 0.14866 0.0
C331 C 0.49575 0.57573 0.148 0.0
C332 C 0.44879 0.61494 0.16161 0.0
C333 C 0.49355 0.61538 0.15773 0.0
C334 C 0.40506 0.53507 0.14609 0.0
C335 C 0.4026 0.57461 0.15614 0.0
C336 C 0.44992 0.5355 0.14232 0.0
C337 C 0.62526 0.57826 0.0504 0.0
C338 C 0.59447 0.54074 0.011 0.0
C339 C 0.66372 0.62078 0.01274 0.0
C340 C 0.66098 0.61918 0.03809 0.0
C341 C 0.63037 0.58173 0.99852 0.0
C342 C 0.59216 0.53897 0.03643 0.0
C343 C 0.62315 0.57655 0.07755 0.0
O344 O 0.69253 0.61195 0.14332 0.0
O345 O 0.65351 0.5341 0.14192 0.0
O346 O 0.60086 0.5362 0.08998 0.0
O347 O 0.64338 0.61554 0.09082 0.0
H348 H 0.71757 0.50105 0.1367 0.0
H349 H 0.79291 0.50013 0.143 0.0
H350 H 0.85853 0.64365 0.17186 0.0
H351 H 0.78366 0.64424 0.16486 0.0
H352 H 0.4509 0.64648 0.16964 0.0
H353 H 0.52692 0.64697 0.16311 0.0
H354 H 0.37204 0.50295 0.14101 0.0
H355 H 0.44841 0.50349 0.13521 0.0
H356 H 0.56746 0.50995 1.00119 0.0
H357 H 0.69282 0.65275 1.00438 0.0
H358 H 0.68748 0.65001 0.04811 0.0
H359 H 0.564 0.5068 0.04516 0.0
C360 C 0.26264 0.52899 0.16684 0.0
C361 C 0.25977 0.57115 0.17068 0.0
H362 H 0.30595 0.49602 0.15993 0.0
C363 C 0.30508 0.61468 0.16963 0.0
H364 H 0.22969 0.49431 0.16738 0.0
C365 C 0.35009 0.61587 0.16501 0.0
C366 C 0.35316 0.57359 0.16111 0.0
H367 H 0.30596 0.64845 0.17228 0.0
H368 H 0.38263 0.65076 0.16423 0.0
C369 C 0.30753 0.53012 0.16227 0.0
C370 C 0.82103 0.241 0.51384 0.0
C371 C 0.77521 0.2324 0.5056 0.0
H372 H 0.89832 0.28817 0.51642 0.0
C373 C 0.77722 0.27093 0.49206 0.0
H374 H 0.82274 0.21337 0.52427 0.0
C375 C 0.82173 0.31498 0.48715 0.0
C376 C 0.86792 0.32393 0.49539 0.0
H377 H 0.74393 0.26685 0.48485 0.0
H378 H 0.81938 0.34184 0.47642 0.0
C379 C 0.86555 0.28502 0.50902 0.0
C380 C 0.66912 0.75996 0.82775 0.0
C381 C 0.62843 0.71666 0.83633 0.0
H382 H 0.70095 0.83453 0.8171 0.0
C383 C 0.58627 0.7203 0.84031 0.0
H384 H 0.70273 0.76038 0.82418 0.0
C385 C 0.58512 0.7641 0.83617 0.0
C386 C 0.62593 0.80765 0.8275 0.0
H387 H 0.55356 0.68897 0.84679 0.0
H388 H 0.55127 0.76316 0.83961 0.0
C389 C 0.66791 0.80354 0.82343 0.0
C390 C 0.97101 0.61163 0.17589 0.0
C391 C 0.97471 0.56966 0.17348 0.0
H392 H 0.92859 0.64637 0.1731 0.0
C393 C 0.93142 0.52833 0.1659 0.0
H394 H 1.00259 0.64479 0.18143 0.0
C395 C 0.88741 0.5289 0.16112 0.0
C396 C 0.88337 0.57098 0.16345 0.0
H397 H 0.93134 0.4949 0.16366 0.0
H398 H 0.85633 0.49549 0.15565 0.0
C399 C 0.92719 0.61234 0.17101 0.0
C400 C 0.49187 0.9016 0.50072 0.0
C401 C 0.49298 0.94597 0.50409 0.0
H402 H 0.45007 0.82494 0.49418 0.0
C403 C 0.44681 0.94253 0.50302 0.0
H404 H 0.52561 0.90117 0.5012 0.0
C405 C 0.40267 0.89813 0.49898 0.0
C406 C 0.40114 0.85352 0.49548 0.0
H407 H 0.44447 0.97472 0.50535 0.0
H408 H 0.36945 0.89941 0.49824 0.0
C409 C 0.44758 0.85703 0.49644 0.0
C410 C 0.67085 0.43174 0.82726 0.0
C411 C 0.63185 0.43396 0.8385 0.0
H412 H 0.70171 0.38933 0.81438 0.0
C413 C 0.59212 0.38822 0.84505 0.0
H414 H 0.70252 0.46491 0.82166 0.0
C415 C 0.59136 0.34371 0.84074 0.0
C416 C 0.63027 0.3411 0.82944 0.0
H417 H 0.56075 0.3865 0.85362 0.0
H418 H 0.55907 0.31098 0.84619 0.0
C419 C 0.67011 0.38715 0.82287 0.0
C420 C 0.60423 0.78226 0.50365 0.0
C421 C 0.65122 0.82236 0.50157 0.0
H422 H 0.56132 0.70558 0.50717 0.0
C423 C 0.69035 0.81491 0.49712 0.0
H424 H 0.57317 0.78687 0.50646 0.0
C425 C 0.68335 0.76858 0.49701 0.0
C426 C 0.63719 0.72881 0.50157 0.0
H427 H 0.72709 0.84486 0.49566 0.0
H428 H 0.71491 0.76436 0.49555 0.0
C429 C 0.59731 0.7358 0.50382 0.0
C430 C 0.83099 0.47989 0.82727 0.0
C431 C 0.86162 0.52681 0.81855 0.0
H432 H 0.82674 0.41658 0.84259 0.0
C433 C 0.91081 0.54272 0.81454 0.0
H434 H 0.79291 0.46695 0.83068 0.0
C435 C 0.92997 0.51379 0.82115 0.0
C436 C 0.90027 0.46876 0.83214 0.0
H437 H 0.93499 0.57871 0.80777 0.0
H438 H 0.96879 0.52854 0.81963 0.0
C439 C 0.85027 0.45114 0.83416 0.0
C440 C 0.43532 0.84326 0.17864 0.0
C441 C 0.39509 0.84537 0.16991 0.0
H442 H 0.50082 0.87972 0.19897 0.0
C443 C 0.39866 0.89045 0.16706 0.0
H444 H 0.43415 0.80909 0.1802 0.0
C445 C 0.43652 0.93068 0.17787 0.0
C446 C 0.47124 0.92608 0.19133 0.0
H447 H 0.3687 0.89354 0.15998 0.0
H448 H 0.43442 0.96325 0.17846 0.0
C449 C 0.47322 0.88353 0.18955 0.0
C450 C 0.68147 0.39984 0.48808 0.0
C451 C 0.69079 0.3616 0.48799 0.0
H452 H 0.69766 0.46626 0.50431 0.0
C453 C 0.73217 0.36699 0.49986 0.0
H454 H 0.64992 0.39657 0.479 0.0
C455 C 0.75936 0.40666 0.51449 0.0
C456 C 0.74581 0.44164 0.5172 0.0
H457 H 0.74004 0.33796 0.50029 0.0
H458 H 0.78786 0.40757 0.52546 0.0
C459 C 0.70897 0.43977 0.50254 0.0
C460 C 0.36334 0.62307 0.84297 0.0
C461 C 0.36083 0.58146 0.83348 0.0
H462 H 0.32729 0.6501 0.86495 0.0
C463 C 0.31516 0.54051 0.83011 0.0
H464 H 0.39805 0.65574 0.84488 0.0
C465 C 0.2749 0.53698 0.84183 0.0
C466 C 0.28019 0.57482 0.8565 0.0
H467 H 0.31179 0.5082 0.82225 0.0
H468 H 0.24205 0.5022 0.84222 0.0
C469 C 0.32302 0.61961 0.85473 0.0
C470 C 0.80359 0.3015 0.14249 0.0
C471 C 0.8383 0.3492 0.14771 0.0
H472 H 0.73037 0.24516 0.14719 0.0
C473 C 0.82322 0.37974 0.15761 0.0
H474 H 0.81444 0.27739 0.1348 0.0
C475 C 0.7751 0.36143 0.16475 0.0
C476 C 0.74143 0.31237 0.16195 0.0
H477 H 0.84946 0.41653 0.16206 0.0
H478 H 0.76519 0.38461 0.17426 0.0
C479 C 0.7554 0.28325 0.14944 0.0
C480 C 1.07292 0.58138 0.09926 0.0
C481 C 0.0974 0.56494 0.11395 0.0
H482 H 1.03809 0.57513 0.06553 0.0
C483 C 0.10501 0.52806 0.10571 0.0
H484 H 1.06654 0.60977 0.10524 0.0
C485 C 1.08843 0.50798 0.08305 0.0
C486 C 1.06386 0.52438 0.06829 0.0
H487 H 0.12378 0.51476 0.11674 0.0
H488 H 1.0945 0.47935 0.07714 0.0
C489 C 1.05625 0.56126 0.07664 0.0
C490 C 0.69157 0.14935 0.43684 0.0
C491 C 0.65093 0.1094 0.44695 0.0
H492 H 0.72023 0.19893 0.40744 0.0
C493 C 0.60697 0.08775 0.43443 0.0
H494 H 0.72564 0.16722 0.44646 0.0
C495 C 0.60408 0.10496 0.4117 0.0
C496 C 0.64483 0.14499 0.40135 0.0
H497 H 0.57516 1.05684 0.44196 0.0
H498 H 0.5701 0.08619 0.4021 0.0
C499 C 0.68843 0.16733 0.41443 0.0
C500 C 0.65072 0.6155 0.76756 0.0
C501 C 0.62379 0.56834 0.77657 0.0
H502 H 0.67846 0.66047 0.73622 0.0
C503 C 0.60522 0.5296 0.76056 0.0
H504 H 0.66548 0.64599 0.77959 0.0
C505 C 0.61281 0.53786 0.73586 0.0
C506 C 0.63883 0.58503 0.72673 0.0
H507 H 0.58438 0.49291 0.7671 0.0
H508 H 0.59732 0.50734 0.72384 0.0
C509 C 0.65792 0.6238 0.7428 0.0
C510 C 0.5738 0.0692 0.60101 0.0
C511 C 0.61551 0.08621 0.58642 0.0
H512 H 0.54298 1.05462 0.63642 0.0
C513 C 0.6599 0.10052 0.59808 0.0
H514 H 0.53887 1.05791 0.59289 0.0
C515 C 0.66232 0.09811 0.62348 0.0
C516 C 0.62042 0.08128 0.63818 0.0
H517 H 0.69287 0.11374 0.58758 0.0
H518 H 0.69719 0.10904 0.63152 0.0
C519 C 0.57617 0.06691 0.62626 0.0
C520 C 0.65727 0.63142 0.93343 0.0
C521 C 0.64208 0.59008 0.9193 0.0
H522 H 0.66421 0.66154 0.96843 0.0
C523 C 0.62141 0.54541 0.93135 0.0
H524 H 0.67293 0.66648 0.92492 0.0
C525 C 0.61731 0.54248 0.95677 0.0
C526 C 0.63325 0.5841 0.97106 0.0
H527 H 0.60938 0.51272 0.92119 0.0
H528 H 0.60258 0.50745 0.96516 0.0
C529 C 0.65265 0.62851 0.95869 0.0
C530 C 0.1021 0.58684 0.26541 0.0
C531 C 0.11905 0.55851 0.25454 0.0
H532 H 1.08837 0.61335 0.29818 0.0
C533 C 0.13692 0.53586 0.2698 0.0
H534 H 1.08791 0.60477 0.25437 0.0
C535 C 0.13759 0.54096 0.295 0.0
C536 C 0.12023 0.56887 0.30611 0.0
H537 H 0.15055 0.51391 0.26225 0.0
H538 H 0.15254 0.52337 0.30571 0.0
C539 C 0.10262 0.59189 0.29072 0.0
loop_
_geom_bond_atom_site_label_1
_geom_bond_atom_site_label_2
_geom_bond_distance
_geom_bond_site_symmetry_2
_ccdc_geom_bond_type
C0 Eu1 2.835 . S
C0 C2 1.500 . S
C0 O20 1.257 . S
C0 O21 1.260 . S
Eu1 C0 2.835 . S
Eu1 O20 2.473 . S
Eu1 O21 2.480 . S
Eu1 O22 2.430 1_655 S
Eu1 O23 2.670 1_655 S
Eu1 O24 2.394 . S
Eu1 O29 2.355 1_655 S
Eu1 O31 2.374 1_655 S
C2 C0 1.500 . S
C2 C3 1.377 . S
C2 C7 1.377 . S
C3 C2 1.377 . S
C3 C4 1.395 . S
C3 H32 0.931 . S
C4 C3 1.395 . S
C4 C5 1.383 . S
C4 H33 0.931 . S
C5 C4 1.383 . S
C5 C6 1.394 . S
C6 C5 1.394 . S
C6 C7 1.378 . S
C6 H34 0.931 . S
C7 C2 1.377 . S
C7 C6 1.378 . S
C7 H35 0.931 . S
C8 O22 1.259 . S
C8 O23 1.270 . S
C9 O24 1.251 . S
C9 O25 1.251 . S
C10 Eu11 2.835 . S
C10 C12 1.500 . S
C10 O26 1.257 . S
C10 O27 1.260 . S
Eu11 C10 2.835 . S
Eu11 O23 2.355 . S
Eu11 O25 2.374 1_455 S
Eu11 O26 2.473 . S
Eu11 O27 2.480 . S
Eu11 O28 2.430 . S
Eu11 O29 2.670 . S
Eu11 O30 2.394 . S
C12 C10 1.500 . S
C12 C13 1.377 . S
C12 C17 1.377 . S
C13 C12 1.377 . S
C13 C14 1.395 . S
C13 H36 0.931 . S
C14 C13 1.395 . S
C14 C15 1.383 . S
C14 H37 0.931 . S
C15 C14 1.383 . S
C15 C16 1.394 . S
C16 C15 1.394 . S
C16 C17 1.378 . S
C16 H38 0.931 . S
C17 C12 1.377 . S
C17 C16 1.378 . S
C17 H39 0.931 . S
C18 O28 1.259 . S
C18 O29 1.270 . S
C19 O30 1.251 . S
C19 O31 1.251 . S
O20 C0 1.257 . S
O20 Eu1 2.473 . S
O21 C0 1.260 . S
O21 Eu1 2.480 . S
O22 Eu1 2.430 1_455 S
O22 C8 1.259 . S
O23 Eu1 2.670 1_455 S
O23 C8 1.270 . S
O23 Eu11 2.355 . S
O24 Eu1 2.394 . S
O24 C9 1.251 . S
O25 C9 1.251 . S
O25 Eu11 2.374 1_655 S
O26 C10 1.257 . S
O26 Eu11 2.473 . S
O27 C10 1.260 . S
O27 Eu11 2.480 . S
O28 Eu11 2.430 . S
O28 C18 1.259 . S
O29 Eu1 2.355 1_455 S
O29 Eu11 2.670 . S
O29 C18 1.270 . S
O30 Eu11 2.394 . S
O30 C19 1.251 . S
O31 Eu1 2.374 1_455 S
O31 C19 1.251 . S
H32 C3 0.931 . S
H33 C4 0.931 . S
H34 C6 0.931 . S
H35 C7 0.931 . S
H36 C13 0.931 . S
H37 C14 0.931 . S
H38 C16 0.931 . S
H39 C17 0.931 . S
C40 Eu41 2.835 . S
C40 C42 1.500 . S
C40 O60 1.257 . S
C40 O61 1.260 . S
Eu41 C40 2.835 . S
Eu41 O60 2.473 . S
Eu41 O61 2.480 . S
Eu41 O62 2.430 . S
Eu41 O63 2.670 . S
Eu41 O64 2.394 . S
Eu41 O69 2.355 . S
Eu41 O71 2.374 1_545 S
C42 C40 1.500 . S
C42 C43 1.377 . S
C42 C47 1.377 . S
C43 C42 1.377 . S
C43 C44 1.395 . S
C43 H72 0.931 . S
C44 C43 1.395 . S
C44 C45 1.383 . S
C44 H73 0.931 . S
C45 C44 1.383 . S
C45 C46 1.394 . S
C46 C45 1.394 . S
C46 C47 1.378 . S
C46 H74 0.931 . S
C47 C42 1.377 . S
C47 C46 1.378 . S
C47 H75 0.931 . S
C48 O62 1.259 . S
C48 O63 1.270 . S
C49 O64 1.251 . S
C49 O65 1.251 . S
C50 Eu51 2.835 . S
C50 C52 1.500 . S
C50 O66 1.257 . S
C50 O67 1.260 . S
Eu51 C50 2.835 . S
Eu51 O63 2.355 1_565 S
Eu51 O65 2.374 1_565 S
Eu51 O66 2.473 . S
Eu51 O67 2.480 . S
Eu51 O68 2.430 1_565 S
Eu51 O69 2.670 1_565 S
Eu51 O70 2.394 . S
C52 C50 1.500 . S
C52 C53 1.377 . S
C52 C57 1.377 . S
C53 C52 1.377 . S
C53 C54 1.395 . S
C53 H76 0.931 . S
C54 C53 1.395 . S
C54 C55 1.383 . S
C54 H77 0.931 . S
C55 C54 1.383 . S
C55 C56 1.394 . S
C56 C55 1.394 . S
C56 C57 1.378 . S
C56 H78 0.931 . S
C57 C52 1.377 . S
C57 C56 1.378 . S
C57 H79 0.931 . S
C58 O68 1.259 . S
C58 O69 1.270 . S
C59 O70 1.251 . S
C59 O71 1.251 . S
O60 C40 1.257 . S
O60 Eu41 2.473 . S
O61 C40 1.260 . S
O61 Eu41 2.480 . S
O62 Eu41 2.430 . S
O62 C48 1.259 . S
O63 Eu41 2.670 . S
O63 C48 1.270 . S
O63 Eu51 2.355 1_545 S
O64 Eu41 2.394 . S
O64 C49 1.251 . S
O65 C49 1.251 . S
O65 Eu51 2.374 1_545 S
O66 C50 1.257 . S
O66 Eu51 2.473 . S
O67 C50 1.260 . S
O67 Eu51 2.480 . S
O68 Eu51 2.430 1_545 S
O68 C58 1.259 . S
O69 Eu41 2.355 . S
O69 Eu51 2.670 1_545 S
O69 C58 1.270 . S
O70 Eu51 2.394 . S
O70 C59 1.251 . S
O71 Eu41 2.374 1_565 S
O71 C59 1.251 . S
H72 C43 0.931 . S
H73 C44 0.931 . S
H74 C46 0.931 . S
H75 C47 0.931 . S
H76 C53 0.931 . S
H77 C54 0.931 . S
H78 C56 0.931 . S
H79 C57 0.931 . S
C80 Eu81 2.835 . S
C80 C82 1.500 . S
C80 O100 1.257 . S
C80 O101 1.260 . S
Eu81 C80 2.835 . S
Eu81 O100 2.473 . S
Eu81 O101 2.480 . S
Eu81 O102 2.430 . S
Eu81 O103 2.670 . S
Eu81 O104 2.394 . S
Eu81 O109 2.355 . S
Eu81 O111 2.374 . S
C82 C80 1.500 . S
C82 C83 1.377 . S
C82 C87 1.377 . S
C83 C82 1.377 . S
C83 C84 1.395 . S
C83 H112 0.931 . S
C84 C83 1.395 . S
C84 C85 1.383 . S
C84 H113 0.931 . S
C85 C84 1.383 . S
C85 C86 1.394 . S
C86 C85 1.394 . S
C86 C87 1.378 . S
C86 H114 0.931 . S
C87 C82 1.377 . S
C87 C86 1.378 . S
C87 H115 0.931 . S
C88 O102 1.259 . S
C88 O103 1.270 . S
C89 O104 1.251 . S
C89 O105 1.251 . S
C90 Eu91 2.835 . S
C90 C92 1.500 . S
C90 O106 1.257 . S
C90 O107 1.260 . S
Eu91 C90 2.835 . S
Eu91 O103 2.355 . S
Eu91 O105 2.374 . S
Eu91 O106 2.473 . S
Eu91 O107 2.480 . S
Eu91 O108 2.430 . S
Eu91 O109 2.670 . S
Eu91 O110 2.394 . S
C92 C90 1.500 . S
C92 C93 1.377 . S
C92 C97 1.377 . S
C93 C92 1.377 . S
C93 C94 1.395 . S
C93 H116 0.931 . S
C94 C93 1.395 . S
C94 C95 1.383 . S
C94 H117 0.931 . S
C95 C94 1.383 . S
C95 C96 1.394 . S
C96 C95 1.394 . S
C96 C97 1.378 . S
C96 H118 0.931 . S
C97 C92 1.377 . S
C97 C96 1.378 . S
C97 H119 0.931 . S
C98 O108 1.259 . S
C98 O109 1.270 . S
C99 O110 1.251 . S
C99 O111 1.251 . S
O100 C80 1.257 . S
O100 Eu81 2.473 . S
O101 C80 1.260 . S
O101 Eu81 2.480 . S
O102 Eu81 2.430 . S
O102 C88 1.259 . S
O103 Eu81 2.670 . S
O103 C88 1.270 . S
O103 Eu91 2.355 . S
O104 Eu81 2.394 . S
O104 C89 1.251 . S
O105 C89 1.251 . S
O105 Eu91 2.374 . S
O106 C90 1.257 . S
O106 Eu91 2.473 . S
O107 C90 1.260 . S
O107 Eu91 2.480 . S
O108 Eu91 2.430 . S
O108 C98 1.259 . S
O109 Eu81 2.355 . S
O109 Eu91 2.670 . S
O109 C98 1.270 . S
O110 Eu91 2.394 . S
O110 C99 1.251 . S
O111 Eu81 2.374 . S
O111 C99 1.251 . S
H112 C83 0.931 . S
H113 C84 0.931 . S
H114 C86 0.931 . S
H115 C87 0.931 . S
H116 C93 0.931 . S
H117 C94 0.931 . S
H118 C96 0.931 . S
H119 C97 0.931 . S
C120 C121 1.264 . S
C120 C125 1.479 . S
C120 C130 1.465 . S
C121 C120 1.264 . S
C121 C123 1.339 . S
C121 H148 0.931 . S
C122 C123 1.395 . S
C122 C124 1.320 . S
C123 C121 1.339 . S
C123 C122 1.395 . S
C123 H149 0.929 . S
C124 C122 1.320 . S
C124 C125 1.405 . S
C124 H150 0.930 . S
C125 C120 1.479 . S
C125 C124 1.405 . S
C125 H151 0.931 . S
U126 O127 2.454 . S
U126 O128 2.458 1_545 S
U126 C129 2.984 1_545 S
U126 C130 2.847 . S
U126 C143 2.882 . S
U126 O144 2.441 . S
U126 O145 2.420 . S
U126 O146 2.455 . S
U126 O147 2.449 . S
O127 U126 2.454 . S
O127 C129 1.353 1_545 S
O128 U126 2.458 1_565 S
O128 C129 1.286 . S
C129 U126 2.984 1_565 S
C129 O127 1.353 1_565 S
C129 O128 1.286 . S
C129 C131 1.363 . S
C130 C120 1.465 . S
C130 U126 2.847 . S
C130 O144 1.249 . S
C130 O145 1.202 . S
C131 C129 1.363 . S
C131 C133 1.408 . S
C131 C136 1.342 . S
C132 C133 1.310 . S
C132 C135 1.461 . S
C132 H152 0.932 . S
C133 C131 1.408 . S
C133 C132 1.310 . S
C133 H153 0.930 . S
C134 C135 1.474 . S
C134 C136 1.285 . S
C134 H154 0.929 . S
C135 C132 1.461 . S
C135 C134 1.474 . S
C136 C131 1.342 . S
C136 C134 1.285 . S
C136 H155 0.930 . S
C137 C140 1.424 . S
C137 C142 1.245 . S
C137 C143 1.428 . S
C138 C141 1.260 . S
C138 C142 1.477 . S
C138 H156 0.932 . S
C139 C140 1.384 . S
C139 C141 1.479 . S
C139 H157 0.929 . S
C140 C137 1.424 . S
C140 C139 1.384 . S
C140 H158 0.928 . S
C141 C138 1.260 . S
C141 C139 1.479 . S
C142 C137 1.245 . S
C142 C138 1.477 . S
C142 H159 0.933 . S
C143 U126 2.882 . S
C143 C137 1.428 . S
C143 O146 1.301 . S
C143 O147 1.282 . S
O144 U126 2.441 . S
O144 C130 1.249 . S
O145 U126 2.420 . S
O145 C130 1.202 . S
O146 U126 2.455 . S
O146 C143 1.301 . S
O147 U126 2.449 . S
O147 C143 1.282 . S
H148 C121 0.931 . S
H149 C123 0.929 . S
H150 C124 0.930 . S
H151 C125 0.931 . S
H152 C132 0.932 . S
H153 C133 0.930 . S
H154 C134 0.929 . S
H155 C136 0.930 . S
H156 C138 0.932 . S
H157 C139 0.929 . S
H158 C140 0.928 . S
H159 C142 0.933 . S
C160 C161 1.264 . S
C160 C165 1.479 . S
C160 C170 1.465 . S
C161 C160 1.264 . S
C161 C163 1.339 . S
C161 H188 0.931 . S
C162 C163 1.395 . S
C162 C164 1.320 . S
C163 C161 1.339 . S
C163 C162 1.395 . S
C163 H189 0.929 . S
C164 C162 1.320 . S
C164 C165 1.405 . S
C164 H190 0.930 . S
C165 C160 1.479 . S
C165 C164 1.405 . S
C165 H191 0.931 . S
U166 O167 2.454 . S
U166 O168 2.458 . S
U166 C169 2.984 . S
U166 C170 2.847 . S
U166 C183 2.882 . S
U166 O184 2.441 . S
U166 O185 2.420 . S
U166 O186 2.455 . S
U166 O187 2.449 . S
O167 U166 2.454 . S
O167 C169 1.353 . S
O168 U166 2.458 . S
O168 C169 1.286 . S
C169 U166 2.984 . S
C169 O167 1.353 . S
C169 O168 1.286 . S
C169 C171 1.363 . S
C170 C160 1.465 . S
C170 U166 2.847 . S
C170 O184 1.249 . S
C170 O185 1.202 . S
C171 C169 1.363 . S
C171 C173 1.408 . S
C171 C176 1.342 . S
C172 C173 1.310 . S
C172 C175 1.461 . S
C172 H192 0.932 . S
C173 C171 1.408 . S
C173 C172 1.310 . S
C173 H193 0.930 . S
C174 C175 1.474 . S
C174 C176 1.285 . S
C174 H194 0.929 . S
C175 C172 1.461 . S
C175 C174 1.474 . S
C176 C171 1.342 . S
C176 C174 1.285 . S
C176 H195 0.930 . S
C177 C180 1.424 . S
C177 C182 1.245 . S
C177 C183 1.428 . S
C178 C181 1.260 . S
C178 C182 1.477 . S
C178 H196 0.932 . S
C179 C180 1.384 . S
C179 C181 1.479 . S
C179 H197 0.929 . S
C180 C177 1.424 . S
C180 C179 1.384 . S
C180 H198 0.928 . S
C181 C178 1.260 . S
C181 C179 1.479 . S
C182 C177 1.245 . S
C182 C178 1.477 . S
C182 H199 0.932 . S
C183 U166 2.882 . S
C183 C177 1.428 . S
C183 O186 1.301 . S
C183 O187 1.282 . S
O184 U166 2.441 . S
O184 C170 1.249 . S
O185 U166 2.420 . S
O185 C170 1.202 . S
O186 U166 2.455 . S
O186 C183 1.301 . S
O187 U166 2.449 . S
O187 C183 1.282 . S
H188 C161 0.931 . S
H189 C163 0.929 . S
H190 C164 0.930 . S
H191 C165 0.931 . S
H192 C172 0.932 . S
H193 C173 0.930 . S
H194 C174 0.929 . S
H195 C176 0.930 . S
H196 C178 0.932 . S
H197 C179 0.929 . S
H198 C180 0.928 . S
H199 C182 0.932 . S
C200 C201 1.264 . S
C200 C205 1.479 . S
C200 C210 1.465 . S
C201 C200 1.264 . S
C201 C203 1.339 . S
C201 H228 0.931 . S
C202 C203 1.395 . S
C202 C204 1.320 . S
C203 C201 1.339 . S
C203 C202 1.395 . S
C203 H229 0.929 . S
C204 C202 1.320 . S
C204 C205 1.405 . S
C204 H230 0.930 . S
C205 C200 1.479 . S
C205 C204 1.405 . S
C205 H231 0.931 . S
U206 O207 2.454 1_655 S
U206 O208 2.458 1_655 S
U206 C209 2.984 1_655 S
U206 C210 2.847 . S
U206 C223 2.882 . S
U206 O224 2.441 . S
U206 O225 2.420 . S
U206 O226 2.455 1_655 S
U206 O227 2.449 . S
O207 U206 2.454 1_455 S
O207 C209 1.353 . S
O208 U206 2.458 1_455 S
O208 C209 1.286 . S
C209 U206 2.984 1_455 S
C209 O207 1.353 . S
C209 O208 1.286 . S
C209 C211 1.363 . S
C210 C200 1.465 . S
C210 U206 2.847 . S
C210 O224 1.249 . S
C210 O225 1.202 . S
C211 C209 1.363 . S
C211 C213 1.408 . S
C211 C216 1.342 . S
C212 C213 1.310 . S
C212 C215 1.461 . S
C212 H232 0.932 . S
C213 C211 1.408 . S
C213 C212 1.310 . S
C213 H233 0.930 . S
C214 C215 1.474 . S
C214 C216 1.285 . S
C214 H234 0.929 . S
C215 C212 1.461 . S
C215 C214 1.474 . S
C216 C211 1.342 . S
C216 C214 1.285 . S
C216 H235 0.930 . S
C217 C220 1.424 . S
C217 C222 1.244 1_656 S
C217 C223 1.428 . S
C218 C221 1.260 . S
C218 C222 1.479 . S
C218 H236 0.932 . S
C219 C220 1.384 1_554 S
C219 C221 1.479 1_655 S
C219 H237 0.929 . S
C220 C217 1.424 . S
C220 C219 1.384 1_556 S
C220 H238 0.928 . S
C221 C218 1.260 . S
C221 C219 1.479 1_455 S
C222 C217 1.244 1_454 S
C222 C218 1.479 . S
C222 H239 0.931 1_554 S
C223 U206 2.882 . S
C223 C217 1.428 . S
C223 O226 1.301 1_655 S
C223 O227 1.282 . S
O224 U206 2.441 . S
O224 C210 1.249 . S
O225 U206 2.420 . S
O225 C210 1.202 . S
O226 U206 2.455 1_455 S
O226 C223 1.301 1_455 S
O227 U206 2.449 . S
O227 C223 1.282 . S
H228 C201 0.931 . S
H229 C203 0.929 . S
H230 C204 0.930 . S
H231 C205 0.931 . S
H232 C212 0.932 . S
H233 C213 0.930 . S
H234 C214 0.929 . S
H235 C216 0.930 . S
H236 C218 0.932 . S
H237 C219 0.929 . S
H238 C220 0.928 . S
H239 C222 0.931 1_556 S
C240 C241 1.264 . S
C240 C245 1.479 . S
C240 C250 1.465 . S
C241 C240 1.264 . S
C241 C243 1.339 . S
C241 H268 0.931 . S
C242 C243 1.395 . S
C242 C244 1.320 . S
C243 C241 1.339 . S
C243 C242 1.395 . S
C243 H269 0.929 . S
C244 C242 1.320 . S
C244 C245 1.405 . S
C244 H270 0.930 . S
C245 C240 1.479 . S
C245 C244 1.405 . S
C245 H271 0.931 . S
U246 O247 2.454 . S
U246 O248 2.458 . S
U246 C249 2.984 . S
U246 C250 2.847 1_455 S
U246 C263 2.882 . S
U246 O264 2.441 . S
U246 O265 2.420 1_455 S
U246 O266 2.455 . S
U246 O267 2.449 . S
O247 U246 2.454 . S
O247 C249 1.353 . S
O248 U246 2.458 . S
O248 C249 1.286 . S
C249 U246 2.984 . S
C249 O247 1.353 . S
C249 O248 1.286 . S
C249 C251 1.363 . S
C250 C240 1.465 . S
C250 U246 2.847 1_655 S
C250 O264 1.249 1_655 S
C250 O265 1.202 . S
C251 C249 1.363 . S
C251 C253 1.408 . S
C251 C256 1.342 . S
C252 C253 1.310 . S
C252 C255 1.461 . S
C252 H272 0.932 . S
C253 C251 1.408 . S
C253 C252 1.310 . S
C253 H273 0.930 . S
C254 C255 1.474 . S
C254 C256 1.285 . S
C254 H274 0.929 . S
C255 C252 1.461 . S
C255 C254 1.474 . S
C256 C251 1.342 . S
C256 C254 1.285 . S
C256 H275 0.930 . S
C257 C260 1.424 . S
C257 C262 1.245 . S
C257 C263 1.428 . S
C258 C261 1.260 . S
C258 C262 1.477 . S
C258 H276 0.932 . S
C259 C260 1.384 . S
C259 C261 1.485 . S
C259 H277 0.923 1_455 S
C260 C257 1.424 . S
C260 C259 1.384 . S
C260 H278 0.928 1_455 S
C261 C258 1.260 . S
C261 C259 1.485 . S
C262 C257 1.245 . S
C262 C258 1.477 . S
C262 H279 0.932 . S
C263 U246 2.882 . S
C263 C257 1.428 . S
C263 O266 1.301 . S
C263 O267 1.282 . S
O264 U246 2.441 . S
O264 C250 1.249 1_455 S
O265 U246 2.420 1_655 S
O265 C250 1.202 . S
O266 U246 2.455 . S
O266 C263 1.301 . S
O267 U246 2.449 . S
O267 C263 1.282 . S
H268 C241 0.931 . S
H269 C243 0.929 . S
H270 C244 0.930 . S
H271 C245 0.931 . S
H272 C252 0.932 . S
H273 C253 0.930 . S
H274 C254 0.929 . S
H275 C256 0.930 . S
H276 C258 0.932 . S
H277 C259 0.923 1_655 S
H278 C260 0.928 1_655 S
H279 C262 0.932 . S
C280 C281 1.264 . S
C280 C285 1.479 . S
C280 C290 1.465 . S
C281 C280 1.264 . S
C281 C283 1.339 . S
C281 H308 0.931 . S
C282 C283 1.395 . S
C282 C284 1.320 . S
C283 C281 1.339 . S
C283 C282 1.395 . S
C283 H309 0.929 . S
C284 C282 1.320 . S
C284 C285 1.405 . S
C284 H310 0.930 . S
C285 C280 1.479 . S
C285 C284 1.405 . S
C285 H311 0.931 . S
U286 O287 2.454 1_565 S
U286 O288 2.458 1_565 S
U286 C289 2.984 1_565 S
U286 C290 2.847 . S
U286 C303 2.882 . S
U286 O304 2.441 . S
U286 O305 2.420 . S
U286 O306 2.455 1_565 S
U286 O307 2.449 . S
O287 U286 2.454 1_545 S
O287 C289 1.353 . S
O288 U286 2.458 1_545 S
O288 C289 1.286 . S
C289 U286 2.984 1_545 S
C289 O287 1.353 . S
C289 O288 1.286 . S
C289 C291 1.363 . S
C290 C280 1.465 . S
C290 U286 2.847 . S
C290 O304 1.249 . S
C290 O305 1.202 . S
C291 C289 1.363 . S
C291 C293 1.408 . S
C291 C296 1.342 . S
C292 C293 1.310 . S
C292 C295 1.461 . S
C292 H312 0.932 . S
C293 C291 1.408 . S
C293 C292 1.310 . S
C293 H313 0.930 . S
C294 C295 1.474 . S
C294 C296 1.285 . S
C294 H314 0.929 . S
C295 C292 1.461 . S
C295 C294 1.474 . S
C296 C291 1.342 . S
C296 C294 1.285 . S
C296 H315 0.930 . S
C297 C300 1.424 . S
C297 C302 1.245 1_565 S
C297 C303 1.428 . S
C298 C301 1.260 . S
C298 C302 1.477 . S
C298 H316 0.932 . S
C299 C300 1.384 . S
C299 C301 1.479 1_565 S
C299 H317 0.929 . S
C300 C297 1.424 . S
C300 C299 1.384 . S
C300 H318 0.928 . S
C301 C298 1.260 . S
C301 C299 1.479 1_545 S
C302 C297 1.245 1_545 S
C302 C298 1.477 . S
C302 H319 0.932 . S
C303 U286 2.882 . S
C303 C297 1.428 . S
C303 O306 1.301 1_565 S
C303 O307 1.282 . S
O304 U286 2.441 . S
O304 C290 1.249 . S
O305 U286 2.420 . S
O305 C290 1.202 . S
O306 U286 2.455 1_545 S
O306 C303 1.301 1_545 S
O307 U286 2.449 . S
O307 C303 1.282 . S
H308 C281 0.931 . S
H309 C283 0.929 . S
H310 C284 0.930 . S
H311 C285 0.931 . S
H312 C292 0.932 . S
H313 C293 0.930 . S
H314 C294 0.929 . S
H315 C296 0.930 . S
H316 C298 0.932 . S
H317 C299 0.929 . S
H318 C300 0.928 . S
H319 C302 0.932 . S
C320 C321 1.264 . S
C320 C325 1.479 . S
C320 C330 1.465 . S
C321 C320 1.264 . S
C321 C323 1.339 . S
C321 H348 0.931 . S
C322 C323 1.395 . S
C322 C324 1.320 . S
C323 C321 1.339 . S
C323 C322 1.395 . S
C323 H349 0.929 . S
C324 C322 1.320 . S
C324 C325 1.405 . S
C324 H350 0.930 . S
C325 C320 1.479 . S
C325 C324 1.405 . S
C325 H351 0.931 . S
U326 O327 2.454 . S
U326 O328 2.458 . S
U326 C329 2.984 . S
U326 C330 2.847 . S
U326 C343 2.882 . S
U326 O344 2.441 . S
U326 O345 2.420 . S
U326 O346 2.455 . S
U326 O347 2.449 . S
O327 U326 2.454 . S
O327 C329 1.353 . S
O328 U326 2.458 . S
O328 C329 1.286 . S
C329 U326 2.984 . S
C329 O327 1.353 . S
C329 O328 1.286 . S
C329 C331 1.363 . S
C330 C320 1.465 . S
C330 U326 2.847 . S
C330 O344 1.249 . S
C330 O345 1.202 . S
C331 C329 1.363 . S
C331 C333 1.408 . S
C331 C336 1.342 . S
C332 C333 1.310 . S
C332 C335 1.461 . S
C332 H352 0.932 . S
C333 C331 1.408 . S
C333 C332 1.310 . S
C333 H353 0.930 . S
C334 C335 1.474 . S
C334 C336 1.285 . S
C334 H354 0.929 . S
C335 C332 1.461 . S
C335 C334 1.474 . S
C336 C331 1.342 . S
C336 C334 1.285 . S
C336 H355 0.930 . S
C337 C340 1.424 . S
C337 C342 1.245 . S
C337 C343 1.428 . S
C338 C341 1.276 . S
C338 C342 1.448 1_556 S
C338 H356 0.948 . S
C339 C340 1.384 . S
C339 C341 1.479 1_554 S
C339 H357 0.929 1_554 S
C340 C337 1.424 . S
C340 C339 1.384 . S
C340 H358 0.928 . S
C341 C338 1.276 . S
C341 C339 1.479 1_556 S
C342 C337 1.245 . S
C342 C338 1.448 1_554 S
C342 H359 0.932 . S
C343 U326 2.882 . S
C343 C337 1.428 . S
C343 O346 1.301 . S
C343 O347 1.282 . S
O344 U326 2.441 . S
O344 C330 1.249 . S
O345 U326 2.420 . S
O345 C330 1.202 . S
O346 U326 2.455 . S
O346 C343 1.301 . S
O347 U326 2.449 . S
O347 C343 1.282 . S
H348 C321 0.931 . S
H349 C323 0.929 . S
H350 C324 0.930 . S
H351 C325 0.931 . S
H352 C332 0.932 . S
H353 C333 0.930 . S
H354 C334 0.929 . S
H355 C336 0.930 . S
H356 C338 0.948 . S
H357 C339 0.929 1_556 S
H358 C340 0.928 . S
H359 C342 0.932 . S
C360 C361 1.387 . S
C360 H364 0.950 . S
C360 C369 1.390 . S
C361 C360 1.387 . S
C361 C363 1.387 . S
H362 C369 0.950 . S
C363 C361 1.387 . S
C363 C365 1.390 . S
C363 H367 0.950 . S
H364 C360 0.950 . S
C365 C363 1.390 . S
C365 C366 1.387 . S
C365 H368 0.950 . S
C366 C365 1.387 . S
C366 C369 1.387 . S
H367 C363 0.950 . S
H368 C365 0.950 . S
C369 C360 1.390 . S
C369 H362 0.950 . S
C369 C366 1.387 . S
C370 C371 1.387 . S
C370 H374 0.950 . S
C370 C379 1.390 . S
C371 C370 1.387 . S
C371 C373 1.387 . S
H372 C379 0.950 . S
C373 C371 1.387 . S
C373 C375 1.390 . S
C373 H377 0.950 . S
H374 C370 0.950 . S
C375 C373 1.390 . S
C375 C376 1.387 . S
C375 H378 0.950 . S
C376 C375 1.387 . S
C376 C379 1.387 . S
H377 C373 0.950 . S
H378 C375 0.950 . S
C379 C370 1.390 . S
C379 H372 0.950 . S
C379 C376 1.387 . S
C380 C381 1.387 . S
C380 H384 0.950 . S
C380 C389 1.390 . S
C381 C380 1.387 . S
C381 C383 1.387 . S
H382 C389 0.950 . S
C383 C381 1.387 . S
C383 C385 1.390 . S
C383 H387 0.950 . S
H384 C380 0.950 . S
C385 C383 1.390 . S
C385 C386 1.387 . S
C385 H388 0.950 . S
C386 C385 1.387 . S
C386 C389 1.387 . S
H387 C383 0.950 . S
H388 C385 0.950 . S
C389 C380 1.390 . S
C389 H382 0.950 . S
C389 C386 1.387 . S
C390 C391 1.387 . S
C390 H394 0.950 . S
C390 C399 1.390 . S
C391 C390 1.387 . S
C391 C393 1.387 . S
H392 C399 0.950 . S
C393 C391 1.387 . S
C393 C395 1.390 . S
C393 H397 0.950 . S
H394 C390 0.950 . S
C395 C393 1.390 . S
C395 C396 1.387 . S
C395 H398 0.950 . S
C396 C395 1.387 . S
C396 C399 1.387 . S
H397 C393 0.950 . S
H398 C395 0.950 . S
C399 C390 1.390 . S
C399 H392 0.950 . S
C399 C396 1.387 . S
C400 C401 1.387 . S
C400 H404 0.950 . S
C400 C409 1.390 . S
C401 C400 1.387 . S
C401 C403 1.387 . S
H402 C409 0.950 . S
C403 C401 1.387 . S
C403 C405 1.390 . S
C403 H407 0.950 . S
H404 C400 0.950 . S
C405 C403 1.390 . S
C405 C406 1.387 . S
C405 H408 0.950 . S
C406 C405 1.387 . S
C406 C409 1.387 . S
H407 C403 0.950 . S
H408 C405 0.950 . S
C409 C400 1.390 . S
C409 H402 0.950 . S
C409 C406 1.387 . S
C410 C411 1.387 . S
C410 H414 0.950 . S
C410 C419 1.390 . S
C411 C410 1.387 . S
C411 C413 1.387 . S
H412 C419 0.950 . S
C413 C411 1.387 . S
C413 C415 1.390 . S
C413 H417 0.950 . S
H414 C410 0.950 . S
C415 C413 1.390 . S
C415 C416 1.387 . S
C415 H418 0.950 . S
C416 C415 1.387 . S
C416 C419 1.387 . S
H417 C413 0.950 . S
H418 C415 0.950 . S
C419 C410 1.390 . S
C419 H412 0.950 . S
C419 C416 1.387 . S
C420 C421 1.387 . S
C420 H424 0.950 . S
C420 C429 1.390 . S
C421 C420 1.387 . S
C421 C423 1.387 . S
H422 C429 0.950 . S
C423 C421 1.387 . S
C423 C425 1.390 . S
C423 H427 0.950 . S
H424 C420 0.950 . S
C425 C423 1.390 . S
C425 C426 1.387 . S
C425 H428 0.950 . S
C426 C425 1.387 . S
C426 C429 1.387 . S
H427 C423 0.950 . S
H428 C425 0.950 . S
C429 C420 1.390 . S
C429 H422 0.950 . S
C429 C426 1.387 . S
C430 C431 1.387 . S
C430 H434 0.950 . S
C430 C439 1.390 . S
C431 C430 1.387 . S
C431 C433 1.387 . S
H432 C439 0.950 . S
C433 C431 1.387 . S
C433 C435 1.390 . S
C433 H437 0.950 . S
H434 C430 0.950 . S
C435 C433 1.390 . S
C435 C436 1.387 . S
C435 H438 0.950 . S
C436 C435 1.387 . S
C436 C439 1.387 . S
H437 C433 0.950 . S
H438 C435 0.950 . S
C439 C430 1.390 . S
C439 H432 0.950 . S
C439 C436 1.387 . S
C440 C441 1.387 . S
C440 H444 0.950 . S
C440 C449 1.390 . S
C441 C440 1.387 . S
C441 C443 1.387 . S
H442 C449 0.950 . S
C443 C441 1.387 . S
C443 C445 1.390 . S
C443 H447 0.950 . S
H444 C440 0.950 . S
C445 C443 1.390 . S
C445 C446 1.387 . S
C445 H448 0.950 . S
C446 C445 1.387 . S
C446 C449 1.387 . S
H447 C443 0.950 . S
H448 C445 0.950 . S
C449 C440 1.390 . S
C449 H442 0.950 . S
C449 C446 1.387 . S
C450 C451 1.387 . S
C450 H454 0.950 . S
C450 C459 1.390 . S
C451 C450 1.387 . S
C451 C453 1.387 . S
H452 C459 0.950 . S
C453 C451 1.387 . S
C453 C455 1.390 . S
C453 H457 0.950 . S
H454 C450 0.950 . S
C455 C453 1.390 . S
C455 C456 1.387 . S
C455 H458 0.950 . S
C456 C455 1.387 . S
C456 C459 1.387 . S
H457 C453 0.950 . S
H458 C455 0.950 . S
C459 C450 1.390 . S
C459 H452 0.950 . S
C459 C456 1.387 . S
C460 C461 1.387 . S
C460 H464 0.950 . S
C460 C469 1.390 . S
C461 C460 1.387 . S
C461 C463 1.387 . S
H462 C469 0.950 . S
C463 C461 1.387 . S
C463 C465 1.390 . S
C463 H467 0.950 . S
H464 C460 0.950 . S
C465 C463 1.390 . S
C465 C466 1.387 . S
C465 H468 0.950 . S
C466 C465 1.387 . S
C466 C469 1.387 . S
H467 C463 0.950 . S
H468 C465 0.950 . S
C469 C460 1.390 . S
C469 H462 0.950 . S
C469 C466 1.387 . S
C470 C471 1.387 . S
C470 H474 0.950 . S
C470 C479 1.390 . S
C471 C470 1.387 . S
C471 C473 1.387 . S
H472 C479 0.950 . S
C473 C471 1.387 . S
C473 C475 1.390 . S
C473 H477 0.950 . S
H474 C470 0.950 . S
C475 C473 1.390 . S
C475 C476 1.387 . S
C475 H478 0.950 . S
C476 C475 1.387 . S
C476 C479 1.387 . S
H477 C473 0.950 . S
H478 C475 0.950 . S
C479 C470 1.390 . S
C479 H472 0.950 . S
C479 C476 1.387 . S
C480 C481 1.387 . S
C480 H484 0.950 . S
C480 C489 1.390 . S
C481 C480 1.387 . S
C481 C483 1.387 1_455 S
H482 C489 0.950 . S
C483 C481 1.387 1_655 S
C483 C485 1.390 . S
C483 H487 0.950 . S
H484 C480 0.950 . S
C485 C483 1.390 . S
C485 C486 1.387 1_655 S
C485 H488 0.950 . S
C486 C485 1.387 1_455 S
C486 C489 1.387 . S
H487 C483 0.950 . S
H488 C485 0.950 . S
C489 C480 1.390 . S
C489 H482 0.950 . S
C489 C486 1.387 . S
C490 C491 1.387 . S
C490 H494 0.950 . S
C490 C499 1.390 . S
C491 C490 1.387 . S
C491 C493 1.388 . S
H492 C499 0.950 . S
C493 C491 1.388 . S
C493 C495 1.390 . S
C493 H497 0.949 1_545 S
H494 C490 0.950 . S
C495 C493 1.390 . S
C495 C496 1.387 . S
C495 H498 0.950 1_545 S
C496 C495 1.387 . S
C496 C499 1.387 . S
H497 C493 0.949 1_565 S
H498 C495 0.950 1_565 S
C499 C490 1.390 . S
C499 H492 0.950 . S
C499 C496 1.387 . S
C500 C501 1.387 . S
C500 H504 0.950 . S
C500 C509 1.390 . S
C501 C500 1.387 . S
C501 C503 1.387 . S
H502 C509 0.950 . S
C503 C501 1.387 . S
C503 C505 1.390 . S
C503 H507 0.950 . S
H504 C500 0.950 . S
C505 C503 1.390 . S
C505 C506 1.387 . S
C505 H508 0.950 . S
C506 C505 1.387 . S
C506 C509 1.387 . S
H507 C503 0.950 . S
H508 C505 0.950 . S
C509 C500 1.390 . S
C509 H502 0.950 . S
C509 C506 1.387 . S
C510 C511 1.387 1_565 S
C510 H514 0.950 . S
C510 C519 1.390 . S
C511 C510 1.387 1_545 S
C511 C513 1.387 . S
H512 C519 0.950 . S
C513 C511 1.387 . S
C513 C515 1.390 . S
C513 H517 0.950 . S
H514 C510 0.950 . S
C515 C513 1.390 . S
C515 C516 1.387 . S
C515 H518 0.950 . S
C516 C515 1.387 . S
C516 C519 1.387 1_545 S
H517 C513 0.950 . S
H518 C515 0.950 . S
C519 C510 1.390 . S
C519 H512 0.950 . S
C519 C516 1.387 1_565 S
C520 C521 1.387 . S
C520 H524 0.950 . S
C520 C529 1.390 . S
C521 C520 1.387 . S
C521 C523 1.387 . S
H522 C529 0.950 . S
C523 C521 1.387 . S
C523 C525 1.390 . S
C523 H527 0.950 . S
H524 C520 0.950 . S
C525 C523 1.390 . S
C525 C526 1.387 . S
C525 H528 0.950 . S
C526 C525 1.387 . S
C526 C529 1.387 . S
H527 C523 0.950 . S
H528 C525 0.950 . S
C529 C520 1.390 . S
C529 H522 0.950 . S
C529 C526 1.387 . S
C530 C531 1.387 . S
C530 H534 0.950 . S
C530 C539 1.390 . S
C531 C530 1.387 . S
C531 C533 1.387 . S
H532 C539 0.950 . S
C533 C531 1.387 . S
C533 C535 1.390 . S
C533 H537 0.950 1_455 S
H534 C530 0.950 . S
C535 C533 1.390 . S
C535 C536 1.387 . S
C535 H538 0.950 1_455 S
C536 C535 1.387 . S
C536 C539 1.387 . S
H537 C533 0.950 1_655 S
H538 C535 0.950 1_655 S
C539 C530 1.390 . S
C539 H532 0.950 . S
C539 C536 1.387 . S
C361 C19 3.179 . S
C366 C335 3.087 . S
C371 C49 3.220 . S
C376 C242 3.174 . S
C381 C99 3.164 . S
C386 C282 3.096 . S
C391 C9 3.222 . S
C396 C322 3.175 . S
C406 C255 3.091 . S
C401 C59 3.181 . S
C416 C295 3.163 . S
C411 C89 3.237 . S
C421 C55 0.582 . S
C426 C162 0.618 . S
C431 C85 0.579 . S
C436 C202 0.469 . S
C441 C15 0.611 . S
C446 C135 0.608 . S
C456 C175 0.472 . S
C451 C45 0.570 . S
C466 C215 0.619 . S
C461 C95 0.622 . S
C471 C5 0.584 . S
C476 C122 0.469 . S
C486 C221 1.083 . S
C481 C18 1.074 . S
C491 C58 1.077 . S
C496 C141 1.083 . S
C501 C98 1.060 . S
C506 C181 1.045 . S
C516 C301 1.805 . S
C511 C48 1.720 . S
C526 C341 1.791 . S
C521 C88 1.717 . S
C531 C8 1.718 . S
C536 C261 1.793 . S
