# Generated by pormake.
# Topology nia, (6,6)-cn, num edge types: 1
# Building blocks:
#     Node 0, Type 0, BuildingBlock: BETFAJ_clean_sbu_0, # of connection points: 6
#     Node 1, Type 0, BuildingBlock: BETFAJ_clean_sbu_0, # of connection points: 6
#     Node 2, Type 1, BuildingBlock: MIDCAF_clean_sbu_0, # of connection points: 6
#     Node 3, Type 1, BuildingBlock: MIDCAF_clean_sbu_0, # of connection points: 6
#     Edge 4, Type (0, 1), BuildingBlock: XUDNAN_clean_linker_2, # of connection points: 2
#     Edge 5, Type (0, 1), BuildingBlock: XUDNAN_clean_linker_2, # of connection points: 2
#     Edge 6, Type (0, 1), BuildingBlock: XUDNAN_clean_linker_2, # of connection points: 2
#     Edge 7, Type (0, 1), BuildingBlock: XUDNAN_clean_linker_2, # of connection points: 2
#     Edge 8, Type (0, 1), BuildingBlock: XUDNAN_clean_linker_2, # of connection points: 2
#     Edge 9, Type (0, 1), BuildingBlock: XUDNAN_clean_linker_2, # of connection points: 2
#     Edge 10, Type (0, 1), BuildingBlock: XUDNAN_clean_linker_2, # of connection points: 2
#     Edge 11, Type (0, 1), BuildingBlock: XUDNAN_clean_linker_2, # of connection points: 2
#     Edge 12, Type (0, 1), BuildingBlock: XUDNAN_clean_linker_2, # of connection points: 2
#     Edge 13, Type (0, 1), BuildingBlock: XUDNAN_clean_linker_2, # of connection points: 2
#     Edge 14, Type (0, 1), BuildingBlock: XUDNAN_clean_linker_2, # of connection points: 2
#     Edge 15, Type (0, 1), BuildingBlock: XUDNAN_clean_linker_2, # of connection points: 2
# Relax obj value: 0.326
# Max RMSD: 0.269
# Mean RMSD: 0.249
data_MOF--net-nia--node1-BETFAJ_clean_sbu_0--node2-MIDCAF_clean_sbu_0--edge1-XUDNAN_clean_linker_2
_symmetry_space_group_name_H-M    P1
_symmetry_Int_Tables_number       1
_symmetry_cell_setting            triclinic
loop_
_symmetry_equiv_pos_as_xyz
'x, y, z'
_cell_length_a     25.384883
_cell_length_b     28.146683
_cell_length_c     33.804982
_cell_angle_alpha  68.865452
_cell_angle_beta   101.83597
_cell_angle_gamma 127.0369
loop_
_atom_site_label
_atom_site_type_symbol
_atom_site_fract_x
_atom_site_fract_y
_atom_site_fract_z
_atom_type_partial_charge
Sm0 Sm 0.08632 0.05119 0.03753 0.0
Sm1 Sm 0.97847 0.92921 1.01199 0.0
C2 C 0.19026 0.14516 0.06231 0.0
C3 C 0.19869 0.18383 0.08574 0.0
C4 C 0.14687 0.18733 0.08868 0.0
C5 C 0.15234 0.21858 0.11492 0.0
C6 C 0.20945 0.24613 0.13883 0.0
C7 C 0.26141 0.24285 0.13547 0.0
C8 C 0.25597 0.2118 0.10909 0.0
C9 C 0.96461 0.97848 0.07769 0.0
C10 C 0.98655 0.05845 0.96558 0.0
C11 C 0.86795 0.82544 1.00189 0.0
C12 C 0.84332 0.79331 0.96968 0.0
C13 C 0.77727 0.74226 0.97097 0.0
C14 C 0.75598 0.7063 0.94397 0.0
C15 C 0.80082 0.72092 0.91571 0.0
C16 C 0.86592 0.77442 0.91275 0.0
C17 C 0.88694 0.81048 0.93947 0.0
C18 C 0.08926 0.00366 0.9586 0.0
C19 C 0.08838 0.92787 0.07779 0.0
O20 O 0.1665 0.15241 1.02401 0.0
O21 O 0.16342 0.08666 0.08462 0.0
O22 O 0.99305 0.95842 0.06988 0.0
O23 O 1.00213 0.03896 0.06643 0.0
O24 O 0.04913 0.09098 0.97626 0.0
O25 O 0.9473 -0.00314 0.98175 0.0
O26 O 0.91775 0.82712 1.02374 0.0
O27 O 0.87479 0.8786 0.99029 0.0
O28 O 0.07873 0.01368 0.98816 0.0
O29 O 0.03921 0.94875 0.9568 0.0
O30 O 0.02504 0.8934 0.06934 0.0
O31 O 0.12493 -0.01065 0.06149 0.0
H32 H 0.10175 0.16488 0.07136 0.0
H33 H 0.11154 0.22026 0.1171 0.0
H34 H 0.30643 0.26465 0.153 0.0
H35 H 0.29596 0.20868 0.10748 0.0
H36 H 0.74301 0.72857 0.99409 0.0
H37 H 0.70572 0.66482 0.94715 0.0
H38 H 0.90127 0.78659 0.89114 0.0
H39 H 0.93802 0.84998 0.93788 0.0
Sm40 Sm 0.0075 0.0255 0.55132 0.0
Sm41 Sm 0.08399 0.97779 0.53391 0.0
C42 C 0.97262 0.09685 0.55125 0.0
C43 C 0.95533 0.11056 0.58247 0.0
C44 C 0.93595 0.15101 0.56833 0.0
C45 C 0.9179 0.16373 0.59745 0.0
C46 C 0.91912 0.13629 0.64135 0.0
C47 C 0.93867 0.09561 0.65544 0.0
C48 C 0.95678 0.0829 0.62614 0.0
C49 C 0.96646 0.90968 0.61012 0.0
C50 C 0.95249 0.95571 0.47739 0.0
C51 C 0.12445 0.91483 0.52484 0.0
C52 C 0.13595 0.89888 0.49221 0.0
C53 C 0.13272 0.9266 0.44881 0.0
C54 C 0.1465 0.91201 0.41848 0.0
C55 C 0.16336 0.86933 0.43126 0.0
C56 C 0.16586 0.84153 0.47491 0.0
C57 C 0.15215 0.85611 0.50501 0.0
C58 C 0.12982 0.10062 0.49042 0.0
C59 C 0.13255 0.03941 0.60879 0.0
O60 O 0.93024 0.04048 0.54764 0.0
O61 O 0.03438 0.11671 0.55054 0.0
O62 O 0.00836 0.94096 0.58062 0.0
O63 O 0.94453 0.94104 0.61021 0.0
O64 O 0.94867 -0.01208 0.49573 0.0
O65 O 0.99817 0.94466 0.48705 0.0
O66 O 0.16446 0.9733 0.52429 0.0
O67 O 0.06295 0.88932 0.53304 0.0
O68 O 0.07034 0.0545 0.49733 0.0
O69 O 0.16839 0.0824 0.50478 0.0
O70 O 0.1212 -0.00744 0.59912 0.0
O71 O 0.10413 0.06812 0.58838 0.0
H72 H 0.93419 0.17235 0.5347 0.0
H73 H 0.90172 0.19418 0.58548 0.0
H74 H 0.94034 0.07399 0.689 0.0
H75 H 0.97164 0.05139 0.63748 0.0
H76 H 0.12012 0.95976 0.43847 0.0
H77 H 0.14389 0.93397 0.38514 0.0
H78 H 0.18006 0.80956 0.48596 0.0
H79 H 0.15515 0.83457 0.53841 0.0
Zn80 Zn 0.41262 0.72118 0.19191 0.0
Zn81 Zn 0.41115 0.66563 0.35978 0.0
Zn82 Zn 0.4135 0.69049 0.27718 0.0
C83 C 0.54356 0.75218 0.3312 0.0
C84 C 0.34889 0.55108 0.34887 0.0
O85 O 0.36036 0.73614 0.24708 0.0
O86 O 0.36913 0.76443 0.17725 0.0
C87 C 0.54411 0.77277 0.21515 0.0
O88 O 0.5177 0.74122 0.29582 0.0
O89 O 0.50752 0.72759 0.36327 0.0
O90 O 0.37406 0.57531 0.37863 0.0
O91 O 0.35654 0.58619 0.31006 0.0
O92 O 0.50936 0.77182 0.18246 0.0
O93 O 0.51722 0.74546 0.25251 0.0
O94 O 0.36096 0.60225 0.26535 0.0
O95 O 0.35833 0.6305 0.19509 0.0
C96 C 0.34407 0.58844 0.23045 0.0
O97 O 0.36667 0.72841 0.29108 0.0
O98 O 0.35273 0.69018 0.36084 0.0
C99 C 0.34828 0.76151 0.20943 0.0
C100 C 0.34487 0.72131 0.32548 0.0
Zn101 Zn 0.6506 0.23188 0.91835 0.0
Zn102 Zn 0.67902 0.35118 0.71479 0.0
Zn103 Zn 0.67447 0.31578 0.80035 0.0
C104 C 0.75299 0.46006 0.73869 0.0
C105 C 0.54601 0.27102 0.742 0.0
O106 O 0.72713 0.27005 0.82666 0.0
O107 O 0.70828 0.21828 0.89653 0.0
C108 C 0.70128 0.34893 0.88634 0.0
O109 O 0.73228 0.41948 0.77557 0.0
O110 O 0.73713 0.442 0.7063 0.0
O111 O 0.58131 0.30715 0.70865 0.0
O112 O 0.57294 0.26769 0.77855 0.0
O113 O 0.69662 0.31889 0.92522 0.0
O114 O 0.68742 0.32068 0.85992 0.0
O115 O 0.5713 0.25725 0.82464 0.0
O116 O 0.55797 0.20084 0.89369 0.0
C117 C 0.53471 0.2169 0.85834 0.0
O118 O 0.71698 0.27833 0.78181 0.0
O119 O 0.72032 0.31085 0.71161 0.0
C120 C 0.7357 0.23623 0.8616 0.0
C121 C 0.73108 0.28092 0.74634 0.0
H122 H 0.21556 0.96543 0.07477 0.0
H123 H 0.03025 0.82029 0.14424 0.0
H124 H 0.08137 0.76833 0.19157 0.0
H125 H 0.25334 0.86437 0.0744 0.0
H126 H 0.34117 0.91764 0.07955 0.0
H127 H 0.29273 0.94753 0.05502 0.0
H128 H 0.33619 0.00981 0.10844 0.0
H129 H 0.38491 0.9801 0.13339 0.0
H130 H 0.3269 0.96949 0.16456 0.0
H131 H 0.15238 0.7305 0.23012 0.0
H132 H 0.23193 0.70234 0.24989 0.0
H133 H 0.36783 0.86819 0.15212 0.0
C134 C 0.18612 0.92323 0.10039 0.0
C135 C 0.11919 0.89715 0.10622 0.0
C136 C 0.08167 0.84103 0.13933 0.0
C137 C 0.11044 0.8115 0.16655 0.0
C138 C 0.17658 0.83829 0.15992 0.0
C139 C 0.21367 0.89248 0.12726 0.0
C140 C 0.2816 0.90835 0.1242 0.0
C141 C 0.29282 0.90947 0.08073 0.0
C142 C 0.33558 0.97064 0.13319 0.0
C143 C 0.27645 0.8539 0.15955 0.0
C144 C 0.2162 0.81489 0.18059 0.0
C145 C 0.19978 0.76087 0.21395 0.0
C146 C 0.24532 0.74542 0.22517 0.0
C147 C 0.30605 0.78348 0.2028 0.0
C148 C 0.32193 0.8387 0.16999 0.0
H149 H 0.2239 0.16059 0.6061 0.0
H150 H 0.15388 0.97145 0.68282 0.0
H151 H 0.24337 0.01244 0.73386 0.0
H152 H 0.38702 0.21703 0.61258 0.0
H153 H 0.41822 0.29365 0.61327 0.0
H154 H 0.34091 0.24981 0.58857 0.0
H155 H 0.28302 0.25999 0.63672 0.0
H156 H 0.36044 0.30392 0.66174 0.0
H157 H 0.28966 0.23452 0.69354 0.0
H158 H 0.34676 0.07402 0.77223 0.0
H159 H 0.46247 0.14935 0.78878 0.0
H160 H 0.46886 0.29769 0.68392 0.0
C161 C 0.22627 0.12793 0.63443 0.0
C162 C 0.18166 0.06303 0.64119 0.0
C163 C 0.18752 0.02142 0.67751 0.0
C164 C 0.23777 0.04428 0.70675 0.0
C165 C 0.28202 0.1088 0.6988 0.0
C166 C 0.27708 0.15004 0.66323 0.0
C167 C 0.33638 0.21671 0.65822 0.0
C168 C 0.37276 0.24596 0.61566 0.0
C169 C 0.31614 0.2561 0.66285 0.0
C170 C 0.37678 0.20639 0.6955 0.0
C171 C 0.34364 0.14416 0.71944 0.0
C172 C 0.3728 0.12295 0.75405 0.0
C173 C 0.43834 0.16607 0.76342 0.0
C174 C 0.474 0.22921 0.73783 0.0
C175 C 0.44223 0.24971 0.70419 0.0
H176 H 0.18016 0.3305 0.11837 0.0
H177 H 0.25627 0.24051 0.21967 0.0
H178 H 0.28198 0.30888 0.26073 0.0
H179 H 0.29984 0.47721 0.11892 0.0
H180 H 0.24924 0.50548 0.10837 0.0
H181 H 0.22316 0.44098 0.09126 0.0
H182 H 0.11258 0.37269 0.13283 0.0
H183 H 0.1381 0.43744 0.14983 0.0
H184 H 0.11346 0.36336 0.18854 0.0
H185 H 0.31902 0.39873 0.28357 0.0
H186 H 0.36313 0.50268 0.28694 0.0
H187 H 0.25844 0.53193 0.17279 0.0
C188 C 0.1998 0.32357 0.14991 0.0
C189 C 0.21613 0.28034 0.166 0.0
C190 C 0.24381 0.27378 0.20678 0.0
C191 C 0.25792 0.3119 0.23046 0.0
C192 C 0.24334 0.3557 0.21303 0.0
C193 C 0.2142 0.36126 0.17386 0.0
C194 C 0.21139 0.41712 0.15979 0.0
C195 C 0.24812 0.46287 0.11709 0.0
C196 C 0.1396 0.39639 0.15764 0.0
C197 C 0.24719 0.44432 0.19589 0.0
C198 C 0.26391 0.40746 0.22677 0.0
C199 C 0.3041 0.42681 0.26051 0.0
C200 C 0.32851 0.48569 0.2624 0.0
C201 C 0.31196 0.52398 0.23108 0.0
C202 C 0.27023 0.50264 0.19776 0.0
H203 H 0.9488 0.24843 0.63778 0.0
H204 H 0.84019 0.0531 0.71268 0.0
H205 H 0.79243 0.0729 0.75649 0.0
H206 H 0.97395 0.31375 0.72489 0.0
H207 H 0.96212 0.37164 0.68855 0.0
H208 H 0.99873 0.34484 0.66998 0.0
H209 H 0.90933 0.3151 0.61225 0.0
H210 H 0.87226 0.34114 0.63083 0.0
H211 H 0.82336 0.26245 0.62795 0.0
H212 H 0.74324 0.11098 0.78452 0.0
H213 H 0.69645 0.16322 0.79245 0.0
H214 H 0.83431 0.33146 0.6969 0.0
C215 C 0.91596 0.21001 0.66393 0.0
C216 C 0.89812 0.14925 0.67177 0.0
C217 C 0.85524 0.10027 0.70642 0.0
C218 C 0.82782 0.11108 0.73144 0.0
C219 C 0.84434 0.17119 0.72162 0.0
C220 C 0.88799 0.21993 0.68884 0.0
C221 C 0.89193 0.27831 0.68115 0.0
C222 C 0.96078 0.3302 0.69179 0.0
C223 C 0.87305 0.30048 0.63535 0.0
C224 C 0.84073 0.25391 0.71289 0.0
C225 C 0.81507 0.19261 0.73692 0.0
C226 C 0.76382 0.15926 0.76636 0.0
C227 C 0.73756 0.18912 0.77069 0.0
C228 C 0.76237 0.25123 0.74544 0.0
C229 C 0.81499 0.28401 0.71672 0.0
H230 H 0.88224 0.00809 0.08352 0.0
H231 H 0.91131 0.86043 0.13258 0.0
H232 H 0.81362 0.79672 0.17998 0.0
H233 H 0.82128 -0.01222 0.18136 0.0
H234 H 0.76064 0.00193 0.15476 0.0
H235 H 0.83598 0.0381 0.12742 0.0
H236 H 0.76869 -0.0097 0.06707 0.0
H237 H 0.69305 0.95415 0.0938 0.0
H238 H 0.70751 0.90708 0.07941 0.0
H239 H 0.71156 0.7486 0.22171 0.0
H240 H 0.60435 0.71349 0.24585 0.0
H241 H 0.63782 0.88948 0.16649 0.0
C242 C 0.86823 0.96252 0.10453 0.0
C243 C 0.90465 0.93936 0.1048 0.0
C244 C 0.88415 0.87906 0.13201 0.0
C245 C 0.82905 0.84278 0.15925 0.0
C246 C 0.79445 0.86715 0.15856 0.0
C247 C 0.81259 0.92522 0.13133 0.0
C248 C 0.76389 0.93841 0.13412 0.0
C249 C 0.79748 -0.00509 0.15039 0.0
C250 C 0.73132 0.94798 0.09105 0.0
C251 C 0.71495 0.87837 0.16668 0.0
C252 C 0.73433 0.83849 0.1812 0.0
C253 C 0.69627 0.7797 0.2108 0.0
C254 C 0.63586 0.76039 0.22477 0.0
C255 C 0.61391 0.79947 0.20895 0.0
C256 C 0.65441 0.85942 0.17991 0.0
H257 H 0.95749 0.81597 0.59447 0.0
H258 H 0.92003 0.86036 0.69099 0.0
H259 H 0.87246 0.75231 0.73851 0.0
H260 H 0.80627 0.66869 0.60955 0.0
H261 H 0.8381 0.63173 0.59919 0.0
H262 H 0.87802 0.71448 0.57571 0.0
H263 H 0.98882 0.73516 0.60885 0.0
H264 H 0.94917 0.65229 0.63248 0.0
H265 H 0.99289 0.70334 0.66528 0.0
H266 H 0.82328 0.6364 0.77434 0.0
H267 H 0.76854 0.52254 0.79155 0.0
H268 H 0.83007 0.55324 0.66934 0.0
C269 C 0.94084 0.80325 0.62604 0.0
C270 C 0.94348 0.84664 0.63947 0.0
C271 C 0.91899 0.82782 0.68035 0.0
C272 C 0.8921 0.76663 0.70759 0.0
C273 C 0.88912 0.72441 0.69323 0.0
C274 C 0.91234 0.74187 0.65321 0.0
C275 C 0.89694 0.68618 0.64353 0.0
C276 C 0.85217 0.6746 0.60471 0.0
C277 C 0.96077 0.69477 0.63717 0.0
C278 C 0.86072 0.63461 0.68402 0.0
C279 C 0.85779 0.65759 0.71273 0.0
C280 C 0.82552 0.61809 0.75202 0.0
C281 C 0.79435 0.55344 0.76168 0.0
C282 C 0.79391 0.52866 0.73187 0.0
C283 C 0.82892 0.57038 0.69292 0.0
H284 H 0.12942 0.75588 0.43379 0.0
H285 H 0.23975 0.95112 0.35873 0.0
H286 H 0.28388 0.92959 0.31377 0.0
H287 H 0.25261 0.7398 0.44189 0.0
H288 H 0.20234 0.66087 0.4393 0.0
H289 H 0.167 0.68803 0.45834 0.0
H290 H 0.07625 0.65844 0.40142 0.0
H291 H 0.11126 0.6307 0.3823 0.0
H292 H 0.09968 0.68892 0.34628 0.0
H293 H 0.33033 0.89003 0.28485 0.0
H294 H 0.37667 0.83739 0.27712 0.0
H295 H 0.23967 0.67016 0.37362 0.0
C296 C 0.16173 0.7939 0.40731 0.0
C297 C 0.18113 0.85516 0.39981 0.0
C298 C 0.22337 0.90358 0.36474 0.0
C299 C 0.24876 0.89178 0.33905 0.0
C300 C 0.2309 0.83122 0.34859 0.0
C301 C 0.18781 0.783 0.38176 0.0
C302 C 0.18288 0.72413 0.38929 0.0
C303 C 0.20242 0.70199 0.43488 0.0
C304 C 0.11338 0.6725 0.37921 0.0
C305 C 0.23304 0.74769 0.35702 0.0
C306 C 0.25881 0.80894 0.33282 0.0
C307 C 0.30957 0.84175 0.3031 0.0
C308 C 0.33558 0.81161 0.29886 0.0
C309 C 0.31125 0.74979 0.32463 0.0
C310 C 0.25859 0.71731 0.35332 0.0
H311 H 0.16775 0.97102 0.95129 0.0
H312 H 0.15238 0.12646 0.91315 0.0
H313 H 0.25864 0.19465 0.87337 0.0
H314 H 0.33605 0.05878 0.97402 0.0
H315 H 0.35553 0.01722 0.95689 0.0
H316 H 0.27354 0.97854 0.97564 0.0
H317 H 0.22532 0.95155 0.90539 0.0
H318 H 0.30735 -0.00958 0.88622 0.0
H319 H 0.25484 0.01324 0.8556 0.0
H320 H 0.36823 0.24622 0.83881 0.0
H321 H 0.48096 0.28234 0.82493 0.0
H322 H 0.4306 0.09657 0.89334 0.0
C323 C 0.18635 0.01912 0.93375 0.0
C324 C 0.15169 0.04353 0.93428 0.0
C325 C 0.17821 0.10707 0.9125 0.0
C326 C 0.23816 0.14586 0.88964 0.0
C327 C 0.27154 0.12058 0.88969 0.0
C328 C 0.24717 0.05893 0.91194 0.0
C329 C 0.29663 0.04544 0.9118 0.0
C330 C 0.31666 0.02378 0.95728 0.0
C331 C 0.26938 -0.0027 0.88836 0.0
C332 C 0.35325 0.10938 0.88698 0.0
C333 C 0.33691 0.15152 0.87308 0.0
C334 C 0.3815 0.21359 0.84958 0.0
C335 C 0.44523 0.23364 0.84158 0.0
C336 C 0.46419 0.1922 0.85808 0.0
C337 C 0.4171 0.12906 0.88025 0.0
H338 H 0.25181 0.21032 0.48786 0.0
H339 H 0.05733 0.1356 0.43297 0.0
H340 H 0.09458 0.24199 0.38656 0.0
H341 H 0.2763 0.34768 0.49192 0.0
H342 H 0.36355 0.39704 0.48015 0.0
H343 H 0.32275 0.31463 0.50645 0.0
H344 H 0.36526 0.30607 0.44761 0.0
H345 H 0.40583 0.38846 0.42097 0.0
H346 H 0.34744 0.33278 0.39293 0.0
H347 H 0.15475 0.35771 0.34476 0.0
H348 H 0.2274 0.47361 0.31891 0.0
H349 H 0.37907 0.47312 0.40526 0.0
C350 C 0.2173 0.21643 0.46584 0.0
C351 C 0.15192 0.16471 0.4636 0.0
C352 C 0.10773 0.1746 0.43504 0.0
C353 C 0.12857 0.23482 0.40839 0.0
C354 C 0.19354 0.28493 0.41112 0.0
C355 C 0.2369 0.27644 0.43966 0.0
C356 C 0.30258 0.33845 0.4385 0.0
C357 C 0.31712 0.35013 0.48182 0.0
C358 C 0.35858 0.3416 0.42415 0.0
C359 C 0.28932 0.3832 0.40514 0.0
C360 C 0.22668 0.35142 0.38899 0.0
C361 C 0.20377 0.383 0.35737 0.0
C362 C 0.24536 0.44872 0.34269 0.0
C363 C 0.3087 0.48208 0.36002 0.0
C364 C 0.33085 0.44867 0.39141 0.0
H365 H 0.85782 0.01795 0.96293 0.0
H366 H 0.05094 0.17565 0.9076 0.0
H367 H 1.00362 0.2341 0.86622 0.0
H368 H 0.758 0.03864 0.86928 0.0
H369 H 0.69495 0.01648 0.90258 0.0
H370 H 0.74171 0.98372 0.92165 0.0
H371 H 0.77516 0.02228 0.9874 0.0
H372 H 0.72908 0.05546 0.96866 0.0
H373 H 0.81546 0.10391 0.98019 0.0
H374 H 0.93544 0.27805 0.83459 0.0
H375 H 0.85703 0.30687 0.82298 0.0
H376 H 0.71198 0.12255 0.90317 0.0
C377 C 0.88987 0.06415 0.94124 0.0
C378 C 0.95791 0.09196 0.93805 0.0
C379 C 0.99857 0.1533 0.91034 0.0
C380 C 0.97201 0.18668 0.88651 0.0
C381 C 0.90478 0.15823 0.89093 0.0
C382 C 0.86442 0.09836 0.91786 0.0
C383 C 0.79578 0.08077 0.92095 0.0
C384 C 0.74459 0.02669 0.90251 0.0
C385 C 0.77788 0.06474 0.96702 0.0
C386 C 0.80443 0.14091 0.89306 0.0
C387 C 0.86686 0.18447 0.8748 0.0
C388 C 0.88638 0.24412 0.84862 0.0
C389 C 0.84163 0.26011 0.84209 0.0
C390 C 0.77877 0.21694 0.8623 0.0
C391 C 0.75981 0.15638 0.88735 0.0
H392 H 0.84621 0.96095 0.4544 0.0
H393 H 0.94667 0.89437 0.42703 0.0
H394 H 0.85954 0.84823 0.37619 0.0
H395 H 0.68962 0.82835 0.45773 0.0
H396 H 0.65047 0.86819 0.43447 0.0
H397 H 0.72581 0.90392 0.46298 0.0
H398 H 0.78013 0.00202 0.39705 0.0
H399 H 0.70476 0.96624 0.36817 0.0
H400 H 0.7812 -0.0064 0.34688 0.0
H401 H 0.7538 0.79864 0.33473 0.0
H402 H 0.63751 0.74529 0.3114 0.0
H403 H 0.60875 0.84526 0.36633 0.0
C404 C 0.85095 0.93791 0.43712 0.0
C405 C 0.90354 0.9316 0.44461 0.0
C406 C 0.90694 0.90002 0.42176 0.0
C407 C 0.85788 0.87398 0.3926 0.0
C408 C 0.80609 0.88031 0.38651 0.0
C409 C 0.80255 0.9116 0.40823 0.0
C410 C 0.73883 0.90655 0.39979 0.0
C411 C 0.69885 0.87484 0.44119 0.0
C412 C 0.75205 0.97094 0.37658 0.0
C413 C 0.7057 0.8655 0.37117 0.0
C414 C 0.74561 0.85182 0.36297 0.0
C415 C 0.72285 0.81034 0.34007 0.0
C416 C 0.6571 0.7808 0.32643 0.0
C417 C 0.61534 0.79277 0.33606 0.0
C418 C 0.64049 0.83661 0.35778 0.0
H419 H 0.86789 0.67311 0.91947 0.0
H420 H 0.69136 0.66272 0.86828 0.0
H421 H 0.65469 0.57394 0.84397 0.0
H422 H 0.88928 0.62045 0.84006 0.0
H423 H 0.91455 0.57591 0.88085 0.0
H424 H 0.93335 0.64661 0.88526 0.0
H425 H 0.8753 0.5852 0.95909 0.0
H426 H 0.85582 0.51444 0.95483 0.0
H427 H 0.79075 0.51762 0.96417 0.0
H428 H 0.63124 0.47845 0.8338 0.0
H429 H 0.62027 0.38157 0.84212 0.0
H430 H 0.80849 0.45173 0.90497 0.0
C431 C 0.82289 0.65384 0.90152 0.0
C432 C 0.78296 0.67524 0.89485 0.0
C433 C 0.72285 0.64718 0.8731 0.0
C434 C 0.70193 0.59709 0.85908 0.0
C435 C 0.74165 0.57575 0.86738 0.0
C436 C 0.80101 0.60344 0.88807 0.0
C437 C 0.83003 0.56666 0.89884 0.0
C438 C 0.89568 0.60468 0.8748 0.0
C439 C 0.8384 0.54468 0.94708 0.0
C440 C 0.77663 0.51259 0.88245 0.0
C441 C 0.72674 0.51926 0.86349 0.0
C442 C 0.6704 0.47321 0.84804 0.0
C443 C 0.66472 0.41869 0.85264 0.0
C444 C 0.7142 0.41049 0.87352 0.0
C445 C 0.77094 0.45807 0.88811 0.0
loop_
_geom_bond_atom_site_label_1
_geom_bond_atom_site_label_2
_geom_bond_distance
_geom_bond_site_symmetry_2
_ccdc_geom_bond_type
Sm0 C2 2.846 . S
Sm0 O20 2.543 . S
Sm0 O21 2.450 . S
Sm0 O22 2.681 1_445 S
Sm0 O23 2.464 1_445 S
Sm0 O24 2.396 . S
Sm0 O28 2.386 1_554 S
Sm0 O31 2.408 1_545 S
Sm1 C11 2.846 . S
Sm1 O22 2.386 1_556 S
Sm1 O25 2.408 1_565 S
Sm1 O26 2.543 . S
Sm1 O27 2.450 . S
Sm1 O28 2.681 1_665 S
Sm1 O29 2.464 1_665 S
Sm1 O30 2.396 1_656 S
C2 Sm0 2.846 . S
C2 C3 1.506 . S
C2 O20 1.261 . S
C2 O21 1.242 . S
C3 C2 1.506 . S
C3 C4 1.358 . S
C3 C8 1.382 . S
C4 C3 1.358 . S
C4 C5 1.385 . S
C4 H32 0.930 . S
C5 C4 1.385 . S
C5 C6 1.395 . S
C5 H33 0.929 . S
C6 C5 1.395 . S
C6 C7 1.335 . S
C7 C6 1.335 . S
C7 C8 1.398 . S
C7 H34 0.930 . S
C8 C3 1.382 . S
C8 C7 1.398 . S
C8 H35 0.929 . S
C9 O22 1.271 . S
C9 O23 1.251 . S
C10 O24 1.252 1_656 S
C10 O25 1.272 . S
C11 Sm1 2.846 . S
C11 C12 1.506 . S
C11 O26 1.261 . S
C11 O27 1.242 . S
C12 C11 1.506 . S
C12 C13 1.358 . S
C12 C17 1.382 . S
C13 C12 1.358 . S
C13 C14 1.385 . S
C13 H36 0.930 1_556 S
C14 C13 1.385 . S
C14 C15 1.395 . S
C14 H37 0.929 . S
C15 C14 1.395 . S
C15 C16 1.335 . S
C16 C15 1.335 . S
C16 C17 1.398 . S
C16 H38 0.930 . S
C17 C12 1.382 . S
C17 C16 1.398 . S
C17 H39 0.929 . S
C18 O28 1.271 . S
C18 O29 1.251 . S
C19 O30 1.252 . S
C19 O31 1.272 . S
O20 Sm0 2.543 . S
O20 C2 1.261 . S
O21 Sm0 2.450 . S
O21 C2 1.242 . S
O22 Sm0 2.681 1_665 S
O22 Sm1 2.386 1_554 S
O22 C9 1.271 . S
O23 Sm0 2.464 1_665 S
O23 C9 1.251 . S
O24 Sm0 2.396 . S
O24 C10 1.252 1_454 S
O25 Sm1 2.408 1_545 S
O25 C10 1.272 . S
O26 Sm1 2.543 . S
O26 C11 1.261 . S
O27 Sm1 2.450 . S
O27 C11 1.242 . S
O28 Sm0 2.386 1_556 S
O28 Sm1 2.681 1_445 S
O28 C18 1.271 . S
O29 Sm1 2.464 1_445 S
O29 C18 1.251 . S
O30 Sm1 2.396 1_454 S
O30 C19 1.252 . S
O31 Sm0 2.408 1_565 S
O31 C19 1.272 . S
H32 C4 0.930 . S
H33 C5 0.929 . S
H34 C7 0.930 . S
H35 C8 0.929 . S
H36 C13 0.930 1_554 S
H37 C14 0.929 . S
H38 C16 0.930 . S
H39 C17 0.929 . S
Sm40 C42 2.846 1_455 S
Sm40 O60 2.543 1_455 S
Sm40 O61 2.450 1_455 S
Sm40 O62 2.681 1_545 S
Sm40 O63 2.464 1_445 S
Sm40 O64 2.396 1_445 S
Sm40 O68 2.386 . S
Sm40 O71 2.408 . S
Sm41 C51 2.846 . S
Sm41 O62 2.386 . S
Sm41 O65 2.408 1_455 S
Sm41 O66 2.543 . S
Sm41 O67 2.450 1_565 S
Sm41 O68 2.681 1_565 S
Sm41 O69 2.464 1_565 S
Sm41 O70 2.396 1_565 S
C42 Sm40 2.846 1_655 S
C42 C43 1.506 . S
C42 O60 1.261 . S
C42 O61 1.242 . S
C43 C42 1.506 . S
C43 C44 1.358 . S
C43 C48 1.382 . S
C44 C43 1.358 . S
C44 C45 1.385 . S
C44 H72 0.930 . S
C45 C44 1.385 . S
C45 C46 1.395 . S
C45 H73 0.929 . S
C46 C45 1.395 . S
C46 C47 1.335 . S
C47 C46 1.335 . S
C47 C48 1.398 . S
C47 H74 0.930 . S
C48 C43 1.382 . S
C48 C47 1.398 . S
C48 H75 0.929 . S
C49 O62 1.271 1_655 S
C49 O63 1.251 . S
C50 O64 1.252 . S
C50 O65 1.272 . S
C51 Sm41 2.846 . S
C51 C52 1.506 . S
C51 O66 1.261 . S
C51 O67 1.242 1_565 S
C52 C51 1.506 . S
C52 C53 1.358 . S
C52 C57 1.382 1_565 S
C53 C52 1.358 . S
C53 C54 1.385 . S
C53 H76 0.930 . S
C54 C53 1.385 . S
C54 C55 1.395 . S
C54 H77 0.929 . S
C55 C54 1.395 . S
C55 C56 1.335 . S
C56 C55 1.335 . S
C56 C57 1.398 1_565 S
C56 H78 0.930 1_565 S
C57 C52 1.382 1_545 S
C57 C56 1.398 1_545 S
C57 H79 0.929 . S
C58 O68 1.271 . S
C58 O69 1.251 . S
C59 O70 1.252 . S
C59 O71 1.272 . S
O60 Sm40 2.543 1_655 S
O60 C42 1.261 . S
O61 Sm40 2.450 1_655 S
O61 C42 1.242 . S
O62 Sm40 2.681 1_565 S
O62 Sm41 2.386 . S
O62 C49 1.271 1_455 S
O63 Sm40 2.464 1_665 S
O63 C49 1.251 . S
O64 Sm40 2.396 1_665 S
O64 C50 1.252 . S
O65 Sm41 2.408 1_655 S
O65 C50 1.272 . S
O66 Sm41 2.543 . S
O66 C51 1.261 . S
O67 Sm41 2.450 1_545 S
O67 C51 1.242 1_545 S
O68 Sm40 2.386 . S
O68 Sm41 2.681 1_545 S
O68 C58 1.271 . S
O69 Sm41 2.464 1_545 S
O69 C58 1.251 . S
O70 Sm41 2.396 1_545 S
O70 C59 1.252 . S
O71 Sm40 2.408 . S
O71 C59 1.272 . S
H72 C44 0.930 . S
H73 C45 0.929 . S
H74 C47 0.930 . S
H75 C48 0.929 . S
H76 C53 0.930 . S
H77 C54 0.929 . S
H78 C56 0.930 1_545 S
H79 C57 0.929 . S
Zn80 O86 1.920 . S
Zn80 O92 1.898 . S
Zn80 O95 1.905 . S
Zn81 O89 1.905 . S
Zn81 O90 1.898 . S
Zn81 O98 1.920 . S
Zn82 O85 2.080 . S
Zn82 O88 2.114 . S
Zn82 O91 2.120 . S
Zn82 O93 2.120 . S
Zn82 O94 2.114 . S
Zn82 O97 2.080 . S
C83 O88 1.166 . S
C83 O89 1.182 . S
C84 O90 1.167 . S
C84 O91 1.299 . S
O85 Zn82 2.080 . S
O85 C99 1.305 . S
O86 Zn80 1.920 . S
O86 C99 1.234 . S
C87 O92 1.167 . S
C87 O93 1.299 . S
O88 Zn82 2.114 . S
O88 C83 1.166 . S
O89 Zn81 1.905 . S
O89 C83 1.182 . S
O90 Zn81 1.898 . S
O90 C84 1.167 . S
O91 Zn82 2.120 . S
O91 C84 1.299 . S
O92 Zn80 1.898 . S
O92 C87 1.167 . S
O93 Zn82 2.120 . S
O93 C87 1.299 . S
O94 Zn82 2.114 . S
O94 C96 1.166 . S
O95 Zn80 1.905 . S
O95 C96 1.182 . S
C96 O94 1.166 . S
C96 O95 1.182 . S
O97 Zn82 2.080 . S
O97 C100 1.305 . S
O98 Zn81 1.920 . S
O98 C100 1.234 . S
C99 O85 1.305 . S
C99 O86 1.234 . S
C100 O97 1.305 . S
C100 O98 1.234 . S
Zn101 O107 1.920 . S
Zn101 O113 1.898 . S
Zn101 O116 1.905 . S
Zn102 O110 1.905 . S
Zn102 O111 1.898 . S
Zn102 O119 1.920 . S
Zn103 O106 2.080 . S
Zn103 O109 2.114 . S
Zn103 O112 2.120 . S
Zn103 O114 2.120 . S
Zn103 O115 2.114 . S
Zn103 O118 2.080 . S
C104 O109 1.166 . S
C104 O110 1.182 . S
C105 O111 1.167 . S
C105 O112 1.299 . S
O106 Zn103 2.080 . S
O106 C120 1.305 . S
O107 Zn101 1.920 . S
O107 C120 1.234 . S
C108 O113 1.167 . S
C108 O114 1.299 . S
O109 Zn103 2.114 . S
O109 C104 1.166 . S
O110 Zn102 1.905 . S
O110 C104 1.182 . S
O111 Zn102 1.898 . S
O111 C105 1.167 . S
O112 Zn103 2.120 . S
O112 C105 1.299 . S
O113 Zn101 1.898 . S
O113 C108 1.167 . S
O114 Zn103 2.120 . S
O114 C108 1.299 . S
O115 Zn103 2.114 . S
O115 C117 1.166 . S
O116 Zn101 1.905 . S
O116 C117 1.182 . S
C117 O115 1.166 . S
C117 O116 1.182 . S
O118 Zn103 2.080 . S
O118 C121 1.305 . S
O119 Zn102 1.920 . S
O119 C121 1.234 . S
C120 O106 1.305 . S
C120 O107 1.234 . S
C121 O118 1.305 . S
C121 O119 1.234 . S
H122 C134 0.930 . S
H123 C136 0.930 . S
H124 C137 0.930 . S
H125 C141 0.959 . S
H126 C141 0.959 . S
H127 C141 0.961 . S
H128 C142 0.960 . S
H129 C142 0.961 . S
H130 C142 0.959 . S
H131 C145 0.929 . S
H132 C146 0.931 . S
H133 C148 0.930 . S
C134 H122 0.930 . S
C134 C135 1.399 . S
C134 C139 1.399 . S
C135 C134 1.399 . S
C135 C136 1.376 . S
C136 H123 0.930 . S
C136 C135 1.376 . S
C136 C137 1.388 . S
C137 H124 0.930 . S
C137 C136 1.388 . S
C137 C138 1.390 . S
C138 C137 1.390 . S
C138 C139 1.394 . S
C138 C144 1.465 . S
C139 C134 1.399 . S
C139 C138 1.394 . S
C139 C140 1.516 . S
C140 C139 1.516 . S
C140 C141 1.502 . S
C140 C142 1.561 . S
C140 C143 1.526 . S
C141 H125 0.959 . S
C141 H126 0.959 . S
C141 H127 0.961 . S
C141 C140 1.502 . S
C142 H128 0.960 . S
C142 H129 0.961 . S
C142 H130 0.959 . S
C142 C140 1.561 . S
C143 C140 1.526 . S
C143 C144 1.396 . S
C143 C148 1.390 . S
C144 C138 1.465 . S
C144 C143 1.396 . S
C144 C145 1.399 . S
C145 H131 0.929 . S
C145 C144 1.399 . S
C145 C146 1.385 . S
C146 H132 0.931 . S
C146 C145 1.385 . S
C146 C147 1.389 . S
C147 C146 1.389 . S
C147 C148 1.387 . S
C148 H133 0.930 . S
C148 C143 1.390 . S
C148 C147 1.387 . S
H149 C161 0.930 . S
H150 C163 0.930 1_565 S
H151 C164 0.930 . S
H152 C168 0.959 . S
H153 C168 0.959 . S
H154 C168 0.961 . S
H155 C169 0.960 . S
H156 C169 0.961 . S
H157 C169 0.959 . S
H158 C172 0.929 . S
H159 C173 0.931 . S
H160 C175 0.930 . S
C161 H149 0.930 . S
C161 C162 1.399 . S
C161 C166 1.399 . S
C162 C161 1.399 . S
C162 C163 1.376 . S
C163 H150 0.930 1_545 S
C163 C162 1.376 . S
C163 C164 1.388 . S
C164 H151 0.930 . S
C164 C163 1.388 . S
C164 C165 1.390 . S
C165 C164 1.390 . S
C165 C166 1.394 . S
C165 C171 1.465 . S
C166 C161 1.399 . S
C166 C165 1.394 . S
C166 C167 1.516 . S
C167 C166 1.516 . S
C167 C168 1.502 . S
C167 C169 1.561 . S
C167 C170 1.526 . S
C168 H152 0.959 . S
C168 H153 0.959 . S
C168 H154 0.961 . S
C168 C167 1.502 . S
C169 H155 0.960 . S
C169 H156 0.961 . S
C169 H157 0.959 . S
C169 C167 1.561 . S
C170 C167 1.526 . S
C170 C171 1.396 . S
C170 C175 1.390 . S
C171 C165 1.465 . S
C171 C170 1.396 . S
C171 C172 1.399 . S
C172 H158 0.929 . S
C172 C171 1.399 . S
C172 C173 1.385 . S
C173 H159 0.931 . S
C173 C172 1.385 . S
C173 C174 1.389 . S
C174 C173 1.389 . S
C174 C175 1.387 . S
C175 H160 0.930 . S
C175 C170 1.390 . S
C175 C174 1.387 . S
H176 C188 0.930 . S
H177 C190 0.930 . S
H178 C191 0.930 . S
H179 C195 0.959 . S
H180 C195 0.959 . S
H181 C195 0.961 . S
H182 C196 0.960 . S
H183 C196 0.961 . S
H184 C196 0.959 . S
H185 C199 0.929 . S
H186 C200 0.931 . S
H187 C202 0.930 . S
C188 H176 0.930 . S
C188 C189 1.399 . S
C188 C193 1.399 . S
C189 C188 1.399 . S
C189 C190 1.376 . S
C190 H177 0.930 . S
C190 C189 1.376 . S
C190 C191 1.388 . S
C191 H178 0.930 . S
C191 C190 1.388 . S
C191 C192 1.390 . S
C192 C191 1.390 . S
C192 C193 1.394 . S
C192 C198 1.465 . S
C193 C188 1.399 . S
C193 C192 1.394 . S
C193 C194 1.516 . S
C194 C193 1.516 . S
C194 C195 1.502 . S
C194 C196 1.561 . S
C194 C197 1.526 . S
C195 H179 0.959 . S
C195 H180 0.959 . S
C195 H181 0.961 . S
C195 C194 1.502 . S
C196 H182 0.960 . S
C196 H183 0.961 . S
C196 H184 0.959 . S
C196 C194 1.561 . S
C197 C194 1.526 . S
C197 C198 1.396 . S
C197 C202 1.390 . S
C198 C192 1.465 . S
C198 C197 1.396 . S
C198 C199 1.399 . S
C199 H185 0.929 . S
C199 C198 1.399 . S
C199 C200 1.385 . S
C200 H186 0.931 . S
C200 C199 1.385 . S
C200 C201 1.389 . S
C201 C200 1.389 . S
C201 C202 1.387 . S
C202 H187 0.930 . S
C202 C197 1.390 . S
C202 C201 1.387 . S
H203 C215 0.930 . S
H204 C217 0.930 . S
H205 C218 0.930 . S
H206 C222 0.959 . S
H207 C222 0.959 . S
H208 C222 0.961 . S
H209 C223 0.960 . S
H210 C223 0.961 . S
H211 C223 0.959 . S
H212 C226 0.929 . S
H213 C227 0.931 . S
H214 C229 0.930 . S
C215 H203 0.930 . S
C215 C216 1.399 . S
C215 C220 1.399 . S
C216 C215 1.399 . S
C216 C217 1.376 . S
C217 H204 0.930 . S
C217 C216 1.376 . S
C217 C218 1.388 . S
C218 H205 0.930 . S
C218 C217 1.388 . S
C218 C219 1.390 . S
C219 C218 1.390 . S
C219 C220 1.394 . S
C219 C225 1.465 . S
C220 C215 1.399 . S
C220 C219 1.394 . S
C220 C221 1.516 . S
C221 C220 1.516 . S
C221 C222 1.502 . S
C221 C223 1.561 . S
C221 C224 1.526 . S
C222 H206 0.959 . S
C222 H207 0.959 . S
C222 H208 0.961 . S
C222 C221 1.502 . S
C223 H209 0.960 . S
C223 H210 0.961 . S
C223 H211 0.959 . S
C223 C221 1.561 . S
C224 C221 1.526 . S
C224 C225 1.396 . S
C224 C229 1.390 . S
C225 C219 1.465 . S
C225 C224 1.396 . S
C225 C226 1.399 . S
C226 H212 0.929 . S
C226 C225 1.399 . S
C226 C227 1.385 . S
C227 H213 0.931 . S
C227 C226 1.385 . S
C227 C228 1.389 . S
C228 C227 1.389 . S
C228 C229 1.387 . S
C229 H214 0.930 . S
C229 C224 1.390 . S
C229 C228 1.387 . S
H230 C242 0.930 . S
H231 C244 0.930 . S
H232 C245 0.930 . S
H233 C249 0.959 . S
H234 C249 0.959 . S
H235 C249 0.961 . S
H236 C250 0.960 1_545 S
H237 C250 0.962 1_545 S
H238 C250 0.959 . S
H239 C253 0.929 . S
H240 C254 0.931 . S
H241 C256 0.930 . S
C242 H230 0.930 . S
C242 C243 1.399 . S
C242 C247 1.399 . S
C243 C242 1.399 . S
C243 C244 1.376 . S
C244 H231 0.930 . S
C244 C243 1.376 . S
C244 C245 1.388 . S
C245 H232 0.930 . S
C245 C244 1.388 . S
C245 C246 1.390 . S
C246 C245 1.390 . S
C246 C247 1.394 . S
C246 C252 1.465 . S
C247 C242 1.399 . S
C247 C246 1.394 . S
C247 C248 1.516 . S
C248 C247 1.516 . S
C248 C249 1.502 . S
C248 C250 1.560 . S
C248 C251 1.526 . S
C249 H233 0.959 . S
C249 H234 0.959 . S
C249 H235 0.961 . S
C249 C248 1.502 . S
C250 H236 0.960 1_565 S
C250 H237 0.962 1_565 S
C250 H238 0.959 . S
C250 C248 1.560 . S
C251 C248 1.526 . S
C251 C252 1.396 . S
C251 C256 1.390 . S
C252 C246 1.465 . S
C252 C251 1.396 . S
C252 C253 1.399 . S
C253 H239 0.929 . S
C253 C252 1.399 . S
C253 C254 1.385 . S
C254 H240 0.931 . S
C254 C253 1.385 . S
C254 C255 1.389 . S
C255 C254 1.389 . S
C255 C256 1.387 . S
C256 H241 0.930 . S
C256 C251 1.390 . S
C256 C255 1.387 . S
H257 C269 0.930 . S
H258 C271 0.930 . S
H259 C272 0.930 . S
H260 C276 0.959 . S
H261 C276 0.959 . S
H262 C276 0.961 . S
H263 C277 0.960 . S
H264 C277 0.961 . S
H265 C277 0.959 . S
H266 C280 0.929 . S
H267 C281 0.931 . S
H268 C283 0.930 . S
C269 H257 0.930 . S
C269 C270 1.399 . S
C269 C274 1.399 . S
C270 C269 1.399 . S
C270 C271 1.376 . S
C271 H258 0.930 . S
C271 C270 1.376 . S
C271 C272 1.388 . S
C272 H259 0.930 . S
C272 C271 1.388 . S
C272 C273 1.390 . S
C273 C272 1.390 . S
C273 C274 1.394 . S
C273 C279 1.465 . S
C274 C269 1.399 . S
C274 C273 1.394 . S
C274 C275 1.516 . S
C275 C274 1.516 . S
C275 C276 1.502 . S
C275 C277 1.561 . S
C275 C278 1.526 . S
C276 H260 0.959 . S
C276 H261 0.959 . S
C276 H262 0.961 . S
C276 C275 1.502 . S
C277 H263 0.960 . S
C277 H264 0.961 . S
C277 H265 0.959 . S
C277 C275 1.561 . S
C278 C275 1.526 . S
C278 C279 1.396 . S
C278 C283 1.390 . S
C279 C273 1.465 . S
C279 C278 1.396 . S
C279 C280 1.399 . S
C280 H266 0.929 . S
C280 C279 1.399 . S
C280 C281 1.385 . S
C281 H267 0.931 . S
C281 C280 1.385 . S
C281 C282 1.389 . S
C282 C281 1.389 . S
C282 C283 1.387 . S
C283 H268 0.930 . S
C283 C278 1.390 . S
C283 C282 1.387 . S
H284 C296 0.930 . S
H285 C298 0.930 . S
H286 C299 0.930 . S
H287 C303 0.959 . S
H288 C303 0.959 . S
H289 C303 0.961 . S
H290 C304 0.960 1_545 S
H291 C304 0.961 . S
H292 C304 0.959 . S
H293 C307 0.929 . S
H294 C308 0.931 . S
H295 C310 0.930 . S
C296 H284 0.930 . S
C296 C297 1.399 . S
C296 C301 1.399 . S
C297 C296 1.399 . S
C297 C298 1.376 . S
C298 H285 0.930 . S
C298 C297 1.376 . S
C298 C299 1.388 . S
C299 H286 0.930 . S
C299 C298 1.388 . S
C299 C300 1.390 . S
C300 C299 1.390 . S
C300 C301 1.394 . S
C300 C306 1.465 . S
C301 C296 1.399 . S
C301 C300 1.394 . S
C301 C302 1.516 . S
C302 C301 1.516 . S
C302 C303 1.502 . S
C302 C304 1.561 . S
C302 C305 1.526 . S
C303 H287 0.959 . S
C303 H288 0.959 . S
C303 H289 0.961 . S
C303 C302 1.502 . S
C304 H290 0.960 1_565 S
C304 H291 0.961 . S
C304 H292 0.959 . S
C304 C302 1.561 . S
C305 C302 1.526 . S
C305 C306 1.396 . S
C305 C310 1.390 . S
C306 C300 1.465 . S
C306 C305 1.396 . S
C306 C307 1.399 . S
C307 H293 0.929 . S
C307 C306 1.399 . S
C307 C308 1.385 . S
C308 H294 0.931 . S
C308 C307 1.385 . S
C308 C309 1.389 . S
C309 C308 1.389 . S
C309 C310 1.387 . S
C310 H295 0.930 . S
C310 C305 1.390 . S
C310 C309 1.387 . S
H311 C323 0.930 . S
H312 C325 0.930 . S
H313 C326 0.930 . S
H314 C330 0.959 . S
H315 C330 0.959 . S
H316 C330 0.961 . S
H317 C331 0.960 . S
H318 C331 0.961 . S
H319 C331 0.959 . S
H320 C334 0.929 . S
H321 C335 0.931 . S
H322 C337 0.930 . S
C323 H311 0.930 . S
C323 C324 1.399 . S
C323 C328 1.399 . S
C324 C323 1.399 . S
C324 C325 1.376 . S
C325 H312 0.930 . S
C325 C324 1.376 . S
C325 C326 1.388 . S
C326 H313 0.930 . S
C326 C325 1.388 . S
C326 C327 1.390 . S
C327 C326 1.390 . S
C327 C328 1.394 . S
C327 C333 1.465 . S
C328 C323 1.399 . S
C328 C327 1.394 . S
C328 C329 1.516 . S
C329 C328 1.516 . S
C329 C330 1.502 . S
C329 C331 1.561 . S
C329 C332 1.526 . S
C330 H314 0.959 . S
C330 H315 0.959 . S
C330 H316 0.961 . S
C330 C329 1.502 . S
C331 H317 0.960 . S
C331 H318 0.961 . S
C331 H319 0.959 . S
C331 C329 1.561 . S
C332 C329 1.526 . S
C332 C333 1.396 . S
C332 C337 1.390 . S
C333 C327 1.465 . S
C333 C332 1.396 . S
C333 C334 1.399 . S
C334 H320 0.929 . S
C334 C333 1.399 . S
C334 C335 1.385 . S
C335 H321 0.931 . S
C335 C334 1.385 . S
C335 C336 1.389 . S
C336 C335 1.389 . S
C336 C337 1.387 . S
C337 H322 0.930 . S
C337 C332 1.390 . S
C337 C336 1.387 . S
H338 C350 0.930 . S
H339 C352 0.930 . S
H340 C353 0.930 . S
H341 C357 0.959 . S
H342 C357 0.959 . S
H343 C357 0.961 . S
H344 C358 0.960 . S
H345 C358 0.961 . S
H346 C358 0.959 . S
H347 C361 0.929 . S
H348 C362 0.931 . S
H349 C364 0.930 . S
C350 H338 0.930 . S
C350 C351 1.399 . S
C350 C355 1.399 . S
C351 C350 1.399 . S
C351 C352 1.376 . S
C352 H339 0.930 . S
C352 C351 1.376 . S
C352 C353 1.388 . S
C353 H340 0.930 . S
C353 C352 1.388 . S
C353 C354 1.390 . S
C354 C353 1.390 . S
C354 C355 1.394 . S
C354 C360 1.465 . S
C355 C350 1.399 . S
C355 C354 1.394 . S
C355 C356 1.516 . S
C356 C355 1.516 . S
C356 C357 1.502 . S
C356 C358 1.561 . S
C356 C359 1.526 . S
C357 H341 0.959 . S
C357 H342 0.959 . S
C357 H343 0.961 . S
C357 C356 1.502 . S
C358 H344 0.960 . S
C358 H345 0.961 . S
C358 H346 0.959 . S
C358 C356 1.561 . S
C359 C356 1.526 . S
C359 C360 1.396 . S
C359 C364 1.390 . S
C360 C354 1.465 . S
C360 C359 1.396 . S
C360 C361 1.399 . S
C361 H347 0.929 . S
C361 C360 1.399 . S
C361 C362 1.385 . S
C362 H348 0.931 . S
C362 C361 1.385 . S
C362 C363 1.389 . S
C363 C362 1.389 . S
C363 C364 1.387 . S
C364 H349 0.930 . S
C364 C359 1.390 . S
C364 C363 1.387 . S
H365 C377 0.930 . S
H366 C379 0.930 . S
H367 C380 0.930 . S
H368 C384 0.959 . S
H369 C384 0.959 . S
H370 C384 0.961 . S
H371 C385 0.960 . S
H372 C385 0.961 . S
H373 C385 0.959 . S
H374 C388 0.929 . S
H375 C389 0.931 . S
H376 C391 0.930 . S
C377 H365 0.930 . S
C377 C378 1.399 . S
C377 C382 1.399 . S
C378 C377 1.399 . S
C378 C379 1.376 . S
C379 H366 0.930 . S
C379 C378 1.376 . S
C379 C380 1.388 . S
C380 H367 0.930 . S
C380 C379 1.388 . S
C380 C381 1.390 . S
C381 C380 1.390 . S
C381 C382 1.394 . S
C381 C387 1.465 . S
C382 C377 1.399 . S
C382 C381 1.394 . S
C382 C383 1.516 . S
C383 C382 1.516 . S
C383 C384 1.502 . S
C383 C385 1.561 . S
C383 C386 1.526 . S
C384 H368 0.959 . S
C384 H369 0.959 . S
C384 H370 0.961 . S
C384 C383 1.502 . S
C385 H371 0.960 . S
C385 H372 0.961 . S
C385 H373 0.959 . S
C385 C383 1.561 . S
C386 C383 1.526 . S
C386 C387 1.396 . S
C386 C391 1.390 . S
C387 C381 1.465 . S
C387 C386 1.396 . S
C387 C388 1.399 . S
C388 H374 0.929 . S
C388 C387 1.399 . S
C388 C389 1.385 . S
C389 H375 0.931 . S
C389 C388 1.385 . S
C389 C390 1.389 . S
C390 C389 1.389 . S
C390 C391 1.387 . S
C391 H376 0.930 . S
C391 C386 1.390 . S
C391 C390 1.387 . S
H392 C404 0.930 . S
H393 C406 0.930 . S
H394 C407 0.930 . S
H395 C411 0.959 . S
H396 C411 0.959 . S
H397 C411 0.961 . S
H398 C412 0.960 1_545 S
H399 C412 0.961 . S
H400 C412 0.959 . S
H401 C415 0.929 . S
H402 C416 0.931 . S
H403 C418 0.930 . S
C404 H392 0.930 . S
C404 C405 1.399 . S
C404 C409 1.399 . S
C405 C404 1.399 . S
C405 C406 1.376 . S
C406 H393 0.930 . S
C406 C405 1.376 . S
C406 C407 1.388 . S
C407 H394 0.930 . S
C407 C406 1.388 . S
C407 C408 1.390 . S
C408 C407 1.390 . S
C408 C409 1.394 . S
C408 C414 1.465 . S
C409 C404 1.399 . S
C409 C408 1.394 . S
C409 C410 1.516 . S
C410 C409 1.516 . S
C410 C411 1.502 . S
C410 C412 1.561 . S
C410 C413 1.526 . S
C411 H395 0.959 . S
C411 H396 0.959 . S
C411 H397 0.961 . S
C411 C410 1.502 . S
C412 H398 0.960 1_565 S
C412 H399 0.961 . S
C412 H400 0.959 . S
C412 C410 1.561 . S
C413 C410 1.526 . S
C413 C414 1.396 . S
C413 C418 1.390 . S
C414 C408 1.465 . S
C414 C413 1.396 . S
C414 C415 1.399 . S
C415 H401 0.929 . S
C415 C414 1.399 . S
C415 C416 1.385 . S
C416 H402 0.931 . S
C416 C415 1.385 . S
C416 C417 1.389 . S
C417 C416 1.389 . S
C417 C418 1.387 . S
C418 H403 0.930 . S
C418 C413 1.390 . S
C418 C417 1.387 . S
H419 C431 0.930 . S
H420 C433 0.930 . S
H421 C434 0.930 . S
H422 C438 0.959 . S
H423 C438 0.959 . S
H424 C438 0.961 . S
H425 C439 0.960 . S
H426 C439 0.961 . S
H427 C439 0.959 . S
H428 C442 0.929 . S
H429 C443 0.931 . S
H430 C445 0.930 . S
C431 H419 0.930 . S
C431 C432 1.399 . S
C431 C436 1.399 . S
C432 C431 1.399 . S
C432 C433 1.376 . S
C433 H420 0.930 . S
C433 C432 1.376 . S
C433 C434 1.388 . S
C434 H421 0.930 . S
C434 C433 1.388 . S
C434 C435 1.390 . S
C435 C434 1.390 . S
C435 C436 1.394 . S
C435 C441 1.465 . S
C436 C431 1.399 . S
C436 C435 1.394 . S
C436 C437 1.516 . S
C437 C436 1.516 . S
C437 C438 1.502 . S
C437 C439 1.561 . S
C437 C440 1.526 . S
C438 H422 0.959 . S
C438 H423 0.959 . S
C438 H424 0.961 . S
C438 C437 1.502 . S
C439 H425 0.960 . S
C439 H426 0.961 . S
C439 H427 0.959 . S
C439 C437 1.561 . S
C440 C437 1.526 . S
C440 C441 1.396 . S
C440 C445 1.390 . S
C441 C435 1.465 . S
C441 C440 1.396 . S
C441 C442 1.399 . S
C442 H428 0.929 . S
C442 C441 1.399 . S
C442 C443 1.385 . S
C443 H429 0.931 . S
C443 C442 1.385 . S
C443 C444 1.389 . S
C444 C443 1.389 . S
C444 C445 1.387 . S
C445 H430 0.930 . S
C445 C440 1.390 . S
C445 C444 1.387 . S
C135 C19 1.894 . S
C147 C99 1.808 . S
C162 C59 1.210 . S
C174 C105 1.198 . S
C189 C6 0.890 . S
C201 C96 0.938 . S
C216 C46 1.440 . S
C228 C121 1.271 . S
C243 C9 2.131 . S
C255 C87 1.946 . S
C282 C104 2.258 . S
C270 C49 2.322 . S
C297 C55 1.286 . S
C309 C100 1.109 . S
C336 C117 1.768 . S
C324 C18 1.821 . S
C363 C84 2.070 . S
C351 C58 2.193 . S
C390 C120 2.004 . S
C378 C10 2.076 . S
C417 C83 1.420 . S
C405 C50 1.408 . S
C444 C108 0.853 . S
C432 C15 0.882 . S
