# Generated by pormake.
# Topology myd, (4,6)-cn, num edge types: 1
# Building blocks:
#     Node 0, Type 0, BuildingBlock: NAWXER_clean_sbu_0, # of connection points: 4
#     Node 1, Type 0, BuildingBlock: NAWXER_clean_sbu_0, # of connection points: 4
#     Node 2, Type 0, BuildingBlock: NAWXER_clean_sbu_0, # of connection points: 4
#     Node 3, Type 0, BuildingBlock: NAWXER_clean_sbu_0, # of connection points: 4
#     Node 4, Type 0, BuildingBlock: NAWXER_clean_sbu_0, # of connection points: 4
#     Node 5, Type 0, BuildingBlock: NAWXER_clean_sbu_0, # of connection points: 4
#     Node 6, Type 0, BuildingBlock: NAWXER_clean_sbu_0, # of connection points: 4
#     Node 7, Type 0, BuildingBlock: NAWXER_clean_sbu_0, # of connection points: 4
#     Node 8, Type 0, BuildingBlock: NAWXER_clean_sbu_0, # of connection points: 4
#     Node 9, Type 0, BuildingBlock: NAWXER_clean_sbu_0, # of connection points: 4
#     Node 10, Type 0, BuildingBlock: NAWXER_clean_sbu_0, # of connection points: 4
#     Node 11, Type 0, BuildingBlock: NAWXER_clean_sbu_0, # of connection points: 4
#     Node 12, Type 1, BuildingBlock: VOLQOD_clean_sbu_1, # of connection points: 6
#     Node 13, Type 1, BuildingBlock: VOLQOD_clean_sbu_1, # of connection points: 6
#     Node 14, Type 1, BuildingBlock: VOLQOD_clean_sbu_1, # of connection points: 6
#     Node 15, Type 1, BuildingBlock: VOLQOD_clean_sbu_1, # of connection points: 6
#     Node 16, Type 1, BuildingBlock: VOLQOD_clean_sbu_1, # of connection points: 6
#     Node 17, Type 1, BuildingBlock: VOLQOD_clean_sbu_1, # of connection points: 6
#     Node 18, Type 1, BuildingBlock: VOLQOD_clean_sbu_1, # of connection points: 6
#     Node 19, Type 1, BuildingBlock: VOLQOD_clean_sbu_1, # of connection points: 6
#     Edge 20, Type (0, 1), None
#     Edge 21, Type (0, 1), None
#     Edge 22, Type (0, 1), None
#     Edge 23, Type (0, 1), None
#     Edge 24, Type (0, 1), None
#     Edge 25, Type (0, 1), None
#     Edge 26, Type (0, 1), None
#     Edge 27, Type (0, 1), None
#     Edge 28, Type (0, 1), None
#     Edge 29, Type (0, 1), None
#     Edge 30, Type (0, 1), None
#     Edge 31, Type (0, 1), None
#     Edge 32, Type (0, 1), None
#     Edge 33, Type (0, 1), None
#     Edge 34, Type (0, 1), None
#     Edge 35, Type (0, 1), None
#     Edge 36, Type (0, 1), None
#     Edge 37, Type (0, 1), None
#     Edge 38, Type (0, 1), None
#     Edge 39, Type (0, 1), None
#     Edge 40, Type (0, 1), None
#     Edge 41, Type (0, 1), None
#     Edge 42, Type (0, 1), None
#     Edge 43, Type (0, 1), None
#     Edge 44, Type (0, 1), None
#     Edge 45, Type (0, 1), None
#     Edge 46, Type (0, 1), None
#     Edge 47, Type (0, 1), None
#     Edge 48, Type (0, 1), None
#     Edge 49, Type (0, 1), None
#     Edge 50, Type (0, 1), None
#     Edge 51, Type (0, 1), None
#     Edge 52, Type (0, 1), None
#     Edge 53, Type (0, 1), None
#     Edge 54, Type (0, 1), None
#     Edge 55, Type (0, 1), None
#     Edge 56, Type (0, 1), None
#     Edge 57, Type (0, 1), None
#     Edge 58, Type (0, 1), None
#     Edge 59, Type (0, 1), None
#     Edge 60, Type (0, 1), None
#     Edge 61, Type (0, 1), None
#     Edge 62, Type (0, 1), None
#     Edge 63, Type (0, 1), None
#     Edge 64, Type (0, 1), None
#     Edge 65, Type (0, 1), None
#     Edge 66, Type (0, 1), None
#     Edge 67, Type (0, 1), None
# Relax obj value: 0.200
# Max RMSD: 0.165
# Mean RMSD: 0.125
data_MOF--net-myd--node1-NAWXER_clean_sbu_0--node2-VOLQOD_clean_sbu_1--edge1-none
_symmetry_space_group_name_H-M    P1
_symmetry_Int_Tables_number       1
_symmetry_cell_setting            triclinic
loop_
_symmetry_equiv_pos_as_xyz
'x, y, z'
_cell_length_a     22.243882
_cell_length_b     22.243656
_cell_length_c     22.245852
_cell_angle_alpha  90.222243
_cell_angle_beta   90.071618
_cell_angle_gamma 90.287174
loop_
_atom_site_label
_atom_site_type_symbol
_atom_site_fract_x
_atom_site_fract_y
_atom_site_fract_z
_atom_type_partial_charge
C0 C 0.04994 0.17409 0.23388 0.0
C1 C 0.04506 0.34105 0.38584 0.0
O2 O 0.09929 0.1974 0.25316 0.0
Zn3 Zn 0.06712 0.25209 0.31672 0.0
O4 O 0.00024 0.19097 0.25496 0.0
Zn5 Zn 0.9636 0.24766 0.31525 0.0
O6 O 0.93325 0.30093 0.2499 0.0
O7 O 0.0322 0.30797 0.25459 0.0
O8 O 0.99671 0.31545 0.36881 0.0
O9 O 0.09583 0.31885 0.37072 0.0
O10 O 0.03292 0.18518 0.37009 0.0
O11 O 0.93385 0.18125 0.36866 0.0
C12 C 0.98299 0.32405 0.2317 0.0
C13 C 0.98423 0.15956 0.38569 0.0
C14 C 0.04925 0.82474 0.27148 0.0
C15 C 0.04759 0.6591 0.11788 0.0
O16 O 0.0989 0.80162 0.25352 0.0
Zn17 Zn 0.06835 0.74781 0.18813 0.0
O18 O 1e-05 0.80837 0.24839 0.0
Zn19 Zn 0.9648 0.75164 0.18664 0.0
O20 O 0.93274 0.69758 0.25096 0.0
O21 O 0.03171 0.69133 0.24869 0.0
O22 O 0.99896 0.68441 0.13363 0.0
O23 O 0.09806 0.68135 0.13475 0.0
O24 O 0.03567 0.81497 0.13427 0.0
O25 O 0.93661 0.8177 0.13209 0.0
C26 C 0.982 0.67468 0.27023 0.0
C27 C 0.98748 0.84003 0.11688 0.0
C28 C 0.39984 0.96859 0.16053 0.0
C29 C 0.24491 0.96811 0.3243 0.0
O30 O 0.3821 0.91827 0.18205 0.0
Zn31 Zn 0.32887 0.94824 0.24845 0.0
O32 O 0.38481 0.01732 0.1863 0.0
Zn33 Zn 0.33158 0.05177 0.25308 0.0
O34 O 0.38599 0.07971 0.31988 0.0
O35 O 0.38253 0.98062 0.31657 0.0
O36 O 0.26873 0.01719 0.30872 0.0
O37 O 0.2626 0.91832 0.30105 0.0
O38 O 0.26943 0.98545 0.19157 0.0
O39 O 0.26857 0.08447 0.19805 0.0
C40 C 0.4003 0.02876 0.34212 0.0
C41 C 0.24897 0.03528 0.17456 0.0
C42 C 0.78526 0.46724 0.17614 0.0
C43 C 0.63069 0.47156 0.34072 0.0
O44 O 0.76574 0.41786 0.19882 0.0
Zn45 Zn 0.70094 0.44947 0.25247 0.0
O46 O 0.76356 0.51685 0.19267 0.0
Zn47 Zn 0.70231 0.55299 0.24884 0.0
O48 O 0.76684 0.58389 0.30335 0.0
O49 O 0.76209 0.48492 0.30952 0.0
O50 O 0.64795 0.5199 0.31563 0.0
O51 O 0.64623 0.42083 0.31844 0.0
O52 O 0.64842 0.48366 0.18505 0.0
O53 O 0.64936 0.5828 0.18234 0.0
C54 C 0.7847 0.53423 0.32642 0.0
C55 C 0.63278 0.53233 0.15985 0.0
C56 C 0.17605 0.38502 0.97056 0.0
C57 C 0.33976 0.23046 0.96899 0.0
O58 O 0.19797 0.36803 0.92015 0.0
Zn59 Zn 0.26397 0.3144 0.94987 0.0
O60 O 0.2014 0.36933 0.01922 0.0
Zn61 Zn 0.26788 0.31572 0.05335 0.0
O62 O 0.33469 0.36948 0.08243 0.0
O63 O 0.33184 0.36771 0.98329 0.0
O64 O 0.32361 0.25337 0.01828 0.0
O65 O 0.31701 0.24887 0.91931 0.0
O66 O 0.20678 0.25428 0.98621 0.0
O67 O 0.21271 0.25235 0.08525 0.0
C68 C 0.35723 0.3846 0.03176 0.0
C69 C 0.18952 0.23324 0.0358 0.0
C70 C 0.19207 0.77102 0.46836 0.0
C71 C 0.35558 0.61546 0.47196 0.0
O72 O 0.21508 0.75206 0.4189 0.0
Zn73 Zn 0.26785 0.68634 0.44987 0.0
O74 O 0.20784 0.74842 0.51778 0.0
Zn75 Zn 0.26348 0.68651 0.55344 0.0
O76 O 0.31824 0.75057 0.58518 0.0
O77 O 0.32503 0.74672 0.48623 0.0
O78 O 0.33019 0.63226 0.5203 0.0
O79 O 0.33388 0.63172 0.42128 0.0
O80 O 0.19978 0.63371 0.48325 0.0
O81 O 0.19661 0.63315 0.58238 0.0
C82 C 0.3418 0.76877 0.53577 0.0
C83 C 0.17427 0.61737 0.53165 0.0
C84 C 0.67606 0.88503 0.47057 0.0
C85 C 0.83978 0.73048 0.469 0.0
O86 O 0.69799 0.86805 0.42017 0.0
Zn87 Zn 0.76398 0.81442 0.44988 0.0
O88 O 0.70141 0.86932 0.51924 0.0
Zn89 Zn 0.76789 0.81571 0.55337 0.0
O90 O 0.83469 0.86946 0.58245 0.0
O91 O 0.83184 0.86772 0.48332 0.0
O92 O 0.82362 0.75338 0.51829 0.0
O93 O 0.81703 0.74889 0.41931 0.0
O94 O 0.70679 0.75428 0.4862 0.0
O95 O 0.71271 0.75234 0.58524 0.0
C96 C 0.85723 0.8846 0.53179 0.0
C97 C 0.68952 0.73322 0.53579 0.0
C98 C 0.48299 0.82407 0.73172 0.0
C99 C 0.48425 0.65957 0.8857 0.0
O100 O 0.43325 0.80095 0.74992 0.0
Zn101 Zn 0.46362 0.74767 0.81527 0.0
O102 O 0.53221 0.80798 0.7546 0.0
Zn103 Zn 0.56713 0.75209 0.81671 0.0
O104 O 0.59929 0.69741 0.75313 0.0
O105 O 0.50023 0.69099 0.75496 0.0
O106 O 0.53294 0.68519 0.87008 0.0
O107 O 0.43387 0.68127 0.86868 0.0
O108 O 0.49673 0.81546 0.86882 0.0
O109 O 0.59585 0.81886 0.8707 0.0
C110 C 0.54993 0.6741 0.73386 0.0
C111 C 0.54509 0.84106 0.88584 0.0
C112 C 0.48201 0.1747 0.77024 0.0
C113 C 0.48745 0.34003 0.61688 0.0
O114 O 0.43275 0.19761 0.75099 0.0
Zn115 Zn 0.46479 0.25165 0.68665 0.0
O116 O 0.53171 0.19134 0.74869 0.0
Zn117 Zn 0.56834 0.24782 0.68812 0.0
O118 O 0.59891 0.30163 0.75349 0.0
O119 O 0.50002 0.30839 0.74839 0.0
O120 O 0.53565 0.31497 0.63426 0.0
O121 O 0.43659 0.31771 0.63211 0.0
O122 O 0.49894 0.18441 0.63364 0.0
O123 O 0.59804 0.18136 0.63473 0.0
C124 C 0.54926 0.32476 0.77146 0.0
C125 C 0.54757 0.15911 0.61788 0.0
C126 C 0.74895 0.53527 0.67458 0.0
C127 C 0.90033 0.52879 0.84211 0.0
O128 O 0.76856 0.58446 0.69804 0.0
Zn129 Zn 0.83158 0.55178 0.75307 0.0
O130 O 0.76942 0.48544 0.69158 0.0
Zn131 Zn 0.82888 0.44825 0.74846 0.0
O132 O 0.76263 0.41832 0.80107 0.0
O133 O 0.76873 0.51719 0.80872 0.0
O134 O 0.88255 0.48065 0.81657 0.0
O135 O 0.88598 0.57973 0.81988 0.0
O136 O 0.88482 0.51732 0.68631 0.0
O137 O 0.88211 0.41828 0.68206 0.0
C138 C 0.74493 0.46811 0.82431 0.0
C139 C 0.89988 0.4686 0.66055 0.0
C140 C 0.28524 0.96722 0.67612 0.0
C141 C 0.13069 0.97158 0.84071 0.0
O142 O 0.26571 0.91784 0.69881 0.0
Zn143 Zn 0.20093 0.94947 0.75246 0.0
O144 O 0.26355 0.01683 0.69265 0.0
Zn145 Zn 0.20232 0.053 0.74883 0.0
O146 O 0.26688 0.08388 0.80332 0.0
O147 O 0.2621 0.98491 0.80951 0.0
O148 O 0.14797 0.01992 0.81563 0.0
O149 O 0.14621 0.92085 0.81844 0.0
O150 O 0.14841 0.98367 0.68504 0.0
O151 O 0.14937 0.08281 0.68233 0.0
C152 C 0.28473 0.03422 0.82639 0.0
C153 C 0.13278 0.03235 0.65984 0.0
C154 C 0.67425 0.1174 0.03166 0.0
C155 C 0.84178 0.26879 0.03577 0.0
O156 O 0.69659 0.13317 0.08239 0.0
Zn157 Zn 0.76347 0.18652 0.05345 0.0
O158 O 0.69977 0.13371 0.98326 0.0
Zn159 Zn 0.76785 0.18633 0.94988 0.0
O160 O 0.83388 0.13171 0.92131 0.0
O161 O 0.83019 0.13228 0.02033 0.0
O162 O 0.82502 0.24673 0.98623 0.0
O163 O 0.81821 0.25061 0.08518 0.0
O164 O 0.70783 0.24842 0.01777 0.0
O165 O 0.71508 0.25205 0.9189 0.0
C166 C 0.85559 0.11549 0.972 0.0
C167 C 0.69205 0.271 0.96834 0.0
O168 O 0.1456 0.03212 0.15939 0.0
Zn169 Zn 0.06153 0.02135 0.12892 0.0
O170 O 0.06082 0.04546 0.04616 0.0
Zn171 Zn 0.03648 0.12818 0.04641 0.0
Zn172 Zn 0.14362 0.04578 0.0218 0.0
Zn173 Zn 0.00916 0.99373 0.99486 0.0
O174 O 0.95285 0.13208 0.00894 0.0
O175 O 0.93258 0.04072 0.97132 0.0
O176 O 0.02859 0.08028 0.1876 0.0
O177 O 0.0463 0.15886 0.13048 0.0
O178 O 0.09578 0.18696 0.01401 0.0
O179 O 0.17417 0.12987 0.03189 0.0
O180 O 0.14739 0.00856 0.93797 0.0
O181 O 0.02474 0.93735 0.13299 0.0
O182 O 0.0562 0.97021 0.91818 0.0
O183 O 0.9858 0.91718 0.04221 0.0
C184 C 0.19691 0.03167 0.13493 0.0
C185 C 0.9183 0.09574 0.97994 0.0
C186 C 0.14985 0.18116 0.0317 0.0
C187 C 0.04608 0.13449 0.18178 0.0
C188 C 0.1111 0.97936 0.90355 0.0
C189 C 0.99537 0.90275 0.09702 0.0
O190 O 0.20256 0.01355 0.0809 0.0
O191 O 0.88894 0.46884 0.16089 0.0
Zn192 Zn 0.97306 0.47817 0.12963 0.0
O193 O 0.97209 0.45493 0.04647 0.0
Zn194 Zn 0.9954 0.37196 0.04464 0.0
Zn195 Zn 0.88902 0.45574 0.0233 0.0
Zn196 Zn 0.02309 0.50636 0.99503 0.0
O197 O 0.07869 0.36782 0.00642 0.0
O198 O 0.09917 0.45951 0.97058 0.0
O199 O 0.00594 0.41774 0.18658 0.0
O200 O 0.98612 0.34 0.12822 0.0
O201 O 0.93472 0.31494 0.01113 0.0
O202 O 0.8577 0.3721 0.03412 0.0
O203 O 0.88436 0.49205 0.93934 0.0
O204 O 0.01155 0.56161 0.13434 0.0
O205 O 0.97543 0.53009 0.91905 0.0
O206 O 0.04739 0.58239 0.0427 0.0
C207 C 0.83745 0.47113 0.13674 0.0
C208 C 0.11324 0.40436 0.97802 0.0
C209 C 0.88159 0.32069 0.03148 0.0
C210 C 0.98773 0.36379 0.17998 0.0
C211 C 0.9204 0.52097 0.90476 0.0
C212 C 0.04001 0.59629 0.09803 0.0
O213 O 0.83182 0.48984 0.08304 0.0
O214 O 0.17623 0.87471 0.46889 0.0
Zn215 Zn 0.1441 0.95847 0.47868 0.0
O216 O 0.06079 0.95644 0.45646 0.0
Zn217 Zn 0.05794 0.9789 0.37331 0.0
Zn218 Zn 0.03837 0.87312 0.45857 0.0
Zn219 Zn 0.00973 0.00758 0.50784 0.0
O220 O 0.0196 0.06206 0.36868 0.0
O221 O 0.98505 0.08325 0.46073 0.0
O222 O 0.19965 0.99268 0.41752 0.0
O223 O 0.14137 0.96974 0.34065 0.0
O224 O 0.02376 0.91741 0.31756 0.0
O225 O 0.04836 0.84106 0.37496 0.0
O226 O 0.95471 0.86823 0.49601 0.0
O227 O 0.14915 0.99677 0.56216 0.0
O228 O 0.93399 0.95985 0.5322 0.0
O229 O 0.05755 0.03217 0.58347 0.0
C230 C 0.15252 0.82301 0.47259 0.0
C231 C 0.9917 0.09684 0.40533 0.0
C232 C 0.0445 0.86451 0.32339 0.0
C233 C 0.19316 0.97305 0.36406 0.0
C234 C 0.92001 0.90454 0.52437 0.0
C235 C 0.11291 0.02499 0.59708 0.0
O236 O 0.09921 0.81714 0.49259 0.0
O237 O 0.98314 0.65942 0.37377 0.0
Zn238 Zn 0.9933 0.62832 0.45767 0.0
O239 O 0.97016 0.54515 0.4569 0.0
Zn240 Zn 0.88714 0.5432 0.48035 0.0
Zn241 Zn 0.97159 0.52178 0.37381 0.0
Zn242 Zn 0.02164 0.49425 0.50796 0.0
O243 O 0.88272 0.50441 0.56334 0.0
O244 O 0.97463 0.46952 0.58383 0.0
O245 O 0.93326 0.68513 0.4915 0.0
O246 O 0.85534 0.62691 0.47174 0.0
O247 O 0.83023 0.50996 0.4195 0.0
O248 O 0.88802 0.53179 0.34236 0.0
O249 O 0.00863 0.43813 0.36931 0.0
O250 O 0.07698 0.63331 0.49516 0.0
O251 O 0.04591 0.41832 0.46058 0.0
O252 O 0.09743 0.54221 0.53219 0.0
C253 C 0.98578 0.63523 0.32226 0.0
C254 C 0.91932 0.47622 0.59777 0.0
C255 C 0.83645 0.52955 0.36617 0.0
C256 C 0.87928 0.67863 0.47351 0.0
C257 C 0.03742 0.40384 0.40553 0.0
C258 C 0.11154 0.59737 0.52395 0.0
O259 O 0.00534 0.58182 0.31661 0.0
O260 O 0.38892 0.96884 0.66088 0.0
Zn261 Zn 0.47304 0.97818 0.62964 0.0
O262 O 0.47209 0.95493 0.54648 0.0
Zn263 Zn 0.49541 0.87196 0.54466 0.0
Zn264 Zn 0.38902 0.95572 0.52331 0.0
Zn265 Zn 0.52309 0.00635 0.49503 0.0
O266 O 0.5787 0.86782 0.50644 0.0
O267 O 0.59917 0.95951 0.47059 0.0
O268 O 0.50593 0.91776 0.6866 0.0
O269 O 0.48613 0.84001 0.62824 0.0
O270 O 0.43474 0.81491 0.51115 0.0
O271 O 0.35772 0.87208 0.53413 0.0
O272 O 0.38436 0.99202 0.43935 0.0
O273 O 0.51152 0.06161 0.63434 0.0
O274 O 0.47542 0.03008 0.41905 0.0
O275 O 0.54737 0.08239 0.5427 0.0
C276 C 0.33743 0.97111 0.63673 0.0
C277 C 0.61324 0.90437 0.47804 0.0
C278 C 0.38161 0.82067 0.5315 0.0
C279 C 0.48772 0.8638 0.67999 0.0
C280 C 0.4204 0.02095 0.40477 0.0
C281 C 0.53999 0.0963 0.59803 0.0
O282 O 0.33181 0.98981 0.58302 0.0
O283 O 0.64558 0.53211 0.65939 0.0
Zn284 Zn 0.56151 0.52136 0.62891 0.0
O285 O 0.56081 0.54546 0.54616 0.0
Zn286 Zn 0.53647 0.62818 0.54639 0.0
Zn287 Zn 0.64362 0.54577 0.5218 0.0
Zn288 Zn 0.50916 0.49372 0.49485 0.0
O289 O 0.45284 0.63208 0.50891 0.0
O290 O 0.43258 0.54071 0.4713 0.0
O291 O 0.52858 0.58029 0.68759 0.0
O292 O 0.54628 0.65887 0.63047 0.0
O293 O 0.59578 0.68696 0.514 0.0
O294 O 0.67417 0.62986 0.53188 0.0
O295 O 0.64739 0.50853 0.43797 0.0
O296 O 0.52471 0.43736 0.63299 0.0
O297 O 0.5562 0.47019 0.41817 0.0
O298 O 0.48579 0.41718 0.54221 0.0
C299 C 0.69689 0.53166 0.63494 0.0
C300 C 0.4183 0.59573 0.47991 0.0
C301 C 0.64986 0.68115 0.53168 0.0
C302 C 0.54606 0.63451 0.68177 0.0
C303 C 0.6111 0.47933 0.40356 0.0
C304 C 0.49535 0.40275 0.59702 0.0
O305 O 0.70255 0.51354 0.58091 0.0
O306 O 0.67623 0.3747 0.96889 0.0
Zn307 Zn 0.6441 0.45846 0.97868 0.0
O308 O 0.5608 0.45644 0.95645 0.0
Zn309 Zn 0.55796 0.47891 0.87331 0.0
Zn310 Zn 0.53837 0.37313 0.95854 0.0
Zn311 Zn 0.50974 0.50758 0.00783 0.0
O312 O 0.51962 0.56207 0.86868 0.0
O313 O 0.48506 0.58325 0.96073 0.0
O314 O 0.69966 0.49267 0.91753 0.0
O315 O 0.64138 0.46975 0.84066 0.0
O316 O 0.52379 0.41743 0.81754 0.0
O317 O 0.54837 0.34107 0.87494 0.0
O318 O 0.45471 0.36824 0.99598 0.0
O319 O 0.64915 0.49674 0.06217 0.0
O320 O 0.43399 0.45985 0.03219 0.0
O321 O 0.55755 0.53216 0.08347 0.0
C322 C 0.65251 0.323 0.97257 0.0
C323 C 0.49171 0.59685 0.90533 0.0
C324 C 0.54452 0.36453 0.82337 0.0
C325 C 0.69318 0.47304 0.86408 0.0
C326 C 0.42 0.40454 0.02434 0.0
C327 C 0.61291 0.52497 0.09709 0.0
O328 O 0.59919 0.31714 0.99257 0.0
O329 O 0.48313 0.15943 0.87379 0.0
Zn330 Zn 0.49328 0.12831 0.95769 0.0
O331 O 0.47016 0.04515 0.9569 0.0
Zn332 Zn 0.38714 0.04318 0.98033 0.0
Zn333 Zn 0.47161 0.02179 0.8738 0.0
Zn334 Zn 0.52165 0.99424 0.00797 0.0
O335 O 0.38271 0.00438 0.06331 0.0
O336 O 0.47463 0.96951 0.08383 0.0
O337 O 0.43323 0.1851 0.99153 0.0
O338 O 0.35532 0.12688 0.97171 0.0
O339 O 0.33026 0.00992 0.91946 0.0
O340 O 0.38805 0.03179 0.84234 0.0
O341 O 0.50867 0.93814 0.8693 0.0
O342 O 0.57695 0.13332 0.99519 0.0
O343 O 0.54592 0.91832 0.96058 0.0
O344 O 0.59743 0.04222 0.03221 0.0
C345 C 0.48579 0.13525 0.82228 0.0
C346 C 0.4193 0.9762 0.09775 0.0
C347 C 0.33648 0.02953 0.86614 0.0
C348 C 0.37926 0.17861 0.97351 0.0
C349 C 0.53745 0.90385 0.90553 0.0
C350 C 0.61152 0.09738 0.02397 0.0
O351 O 0.50538 0.08185 0.81663 0.0
loop_
_geom_bond_atom_site_label_1
_geom_bond_atom_site_label_2
_geom_bond_distance
_geom_bond_site_symmetry_2
_ccdc_geom_bond_type
C0 O2 1.247 . S
C0 O4 1.258 1_455 S
C1 O8 1.247 . S
C1 O9 1.258 1_655 S
O2 C0 1.247 . S
O2 Zn3 2.028 . S
Zn3 O2 2.028 . S
Zn3 O7 2.035 . S
Zn3 O9 2.035 . S
Zn3 O10 2.028 . S
O4 C0 1.258 1_655 S
O4 Zn5 2.035 . S
Zn5 O4 2.035 . S
Zn5 O6 2.028 . S
Zn5 O8 2.028 . S
Zn5 O11 2.035 . S
O6 Zn5 2.028 . S
O6 C12 1.247 . S
O7 Zn3 2.035 . S
O7 C12 1.258 1_455 S
O8 C1 1.247 . S
O8 Zn5 2.028 . S
O9 C1 1.258 1_455 S
O9 Zn3 2.035 . S
O10 Zn3 2.028 . S
O10 C13 1.247 . S
O11 Zn5 2.035 . S
O11 C13 1.258 1_655 S
C12 O6 1.247 . S
C12 O7 1.258 1_655 S
C13 O10 1.247 . S
C13 O11 1.258 1_455 S
C14 O16 1.247 . S
C14 O18 1.258 1_455 S
C15 O22 1.247 1_455 S
C15 O23 1.258 . S
O16 C14 1.247 . S
O16 Zn17 2.028 . S
Zn17 O16 2.028 . S
Zn17 O21 2.035 . S
Zn17 O23 2.035 . S
Zn17 O24 2.028 . S
O18 C14 1.258 1_655 S
O18 Zn19 2.035 . S
Zn19 O18 2.035 . S
Zn19 O20 2.028 . S
Zn19 O22 2.028 . S
Zn19 O25 2.035 . S
O20 Zn19 2.028 . S
O20 C26 1.247 1_655 S
O21 Zn17 2.035 . S
O21 C26 1.258 . S
O22 C15 1.247 1_655 S
O22 Zn19 2.028 . S
O23 C15 1.258 . S
O23 Zn17 2.035 . S
O24 Zn17 2.028 . S
O24 C27 1.247 . S
O25 Zn19 2.035 . S
O25 C27 1.258 1_655 S
C26 O20 1.247 1_455 S
C26 O21 1.258 . S
C27 O24 1.247 . S
C27 O25 1.258 1_455 S
C28 O30 1.247 1_545 S
C28 O32 1.258 . S
C29 O36 1.247 1_565 S
C29 O37 1.258 . S
O30 C28 1.247 1_565 S
O30 Zn31 2.028 . S
Zn31 O30 2.028 . S
Zn31 O35 2.035 . S
Zn31 O37 2.035 . S
Zn31 O38 2.028 . S
O32 C28 1.258 . S
O32 Zn33 2.035 . S
Zn33 O32 2.035 . S
Zn33 O34 2.028 . S
Zn33 O36 2.028 . S
Zn33 O39 2.035 . S
O34 Zn33 2.028 . S
O34 C40 1.247 1_545 S
O35 Zn31 2.035 . S
O35 C40 1.258 . S
O36 C29 1.247 1_545 S
O36 Zn33 2.028 . S
O37 C29 1.258 . S
O37 Zn31 2.035 . S
O38 Zn31 2.028 . S
O38 C41 1.247 1_565 S
O39 Zn33 2.035 . S
O39 C41 1.258 . S
C40 O34 1.247 1_565 S
C40 O35 1.258 . S
C41 O38 1.247 1_545 S
C41 O39 1.258 . S
C42 O44 1.247 . S
C42 O46 1.258 . S
C43 O50 1.247 . S
C43 O51 1.258 . S
O44 C42 1.247 . S
O44 Zn45 2.028 . S
Zn45 O44 2.028 . S
Zn45 O49 2.035 . S
Zn45 O51 2.035 . S
Zn45 O52 2.028 . S
O46 C42 1.258 . S
O46 Zn47 2.035 . S
Zn47 O46 2.035 . S
Zn47 O48 2.028 . S
Zn47 O50 2.028 . S
Zn47 O53 2.035 . S
O48 Zn47 2.028 . S
O48 C54 1.247 . S
O49 Zn45 2.035 . S
O49 C54 1.258 . S
O50 C43 1.247 . S
O50 Zn47 2.028 . S
O51 C43 1.258 . S
O51 Zn45 2.035 . S
O52 Zn45 2.028 . S
O52 C55 1.247 . S
O53 Zn47 2.035 . S
O53 C55 1.258 . S
C54 O48 1.247 . S
C54 O49 1.258 . S
C55 O52 1.247 . S
C55 O53 1.258 . S
C56 O58 1.247 1_554 S
C56 O60 1.258 . S
C57 O64 1.247 . S
C57 O65 1.258 1_554 S
O58 C56 1.247 1_556 S
O58 Zn59 2.028 . S
Zn59 O58 2.028 . S
Zn59 O63 2.035 . S
Zn59 O65 2.035 . S
Zn59 O66 2.028 . S
O60 C56 1.258 . S
O60 Zn61 2.035 . S
Zn61 O60 2.035 . S
Zn61 O62 2.028 . S
Zn61 O64 2.028 . S
Zn61 O67 2.035 . S
O62 Zn61 2.028 . S
O62 C68 1.259 . S
O63 Zn59 2.035 . S
O63 C68 1.248 1_556 S
O64 C57 1.247 . S
O64 Zn61 2.028 . S
O65 C57 1.258 1_556 S
O65 Zn59 2.035 . S
O66 Zn59 2.028 . S
O66 C69 1.247 1_556 S
O67 Zn61 2.035 . S
O67 C69 1.258 . S
C68 O62 1.259 . S
C68 O63 1.248 1_554 S
C69 O66 1.247 1_554 S
C69 O67 1.258 . S
C70 O72 1.247 . S
C70 O74 1.258 . S
C71 O78 1.247 . S
C71 O79 1.258 . S
O72 C70 1.247 . S
O72 Zn73 2.028 . S
Zn73 O72 2.028 . S
Zn73 O77 2.035 . S
Zn73 O79 2.035 . S
Zn73 O80 2.028 . S
O74 C70 1.258 . S
O74 Zn75 2.035 . S
Zn75 O74 2.035 . S
Zn75 O76 2.028 . S
Zn75 O78 2.028 . S
Zn75 O81 2.035 . S
O76 Zn75 2.028 . S
O76 C82 1.247 . S
O77 Zn73 2.035 . S
O77 C82 1.258 . S
O78 C71 1.247 . S
O78 Zn75 2.028 . S
O79 C71 1.258 . S
O79 Zn73 2.035 . S
O80 Zn73 2.028 . S
O80 C83 1.247 . S
O81 Zn75 2.035 . S
O81 C83 1.258 . S
C82 O76 1.247 . S
C82 O77 1.258 . S
C83 O80 1.247 . S
C83 O81 1.258 . S
C84 O86 1.247 . S
C84 O88 1.258 . S
C85 O92 1.247 . S
C85 O93 1.258 . S
O86 C84 1.247 . S
O86 Zn87 2.028 . S
Zn87 O86 2.028 . S
Zn87 O91 2.035 . S
Zn87 O93 2.035 . S
Zn87 O94 2.028 . S
O88 C84 1.258 . S
O88 Zn89 2.035 . S
Zn89 O88 2.035 . S
Zn89 O90 2.028 . S
Zn89 O92 2.028 . S
Zn89 O95 2.035 . S
O90 Zn89 2.028 . S
O90 C96 1.247 . S
O91 Zn87 2.035 . S
O91 C96 1.258 . S
O92 C85 1.247 . S
O92 Zn89 2.028 . S
O93 C85 1.258 . S
O93 Zn87 2.035 . S
O94 Zn87 2.028 . S
O94 C97 1.247 . S
O95 Zn89 2.035 . S
O95 C97 1.258 . S
C96 O90 1.247 . S
C96 O91 1.258 . S
C97 O94 1.247 . S
C97 O95 1.258 . S
C98 O100 1.247 . S
C98 O102 1.258 . S
C99 O106 1.247 . S
C99 O107 1.258 . S
O100 C98 1.247 . S
O100 Zn101 2.028 . S
Zn101 O100 2.028 . S
Zn101 O105 2.035 . S
Zn101 O107 2.035 . S
Zn101 O108 2.028 . S
O102 C98 1.258 . S
O102 Zn103 2.035 . S
Zn103 O102 2.035 . S
Zn103 O104 2.028 . S
Zn103 O106 2.028 . S
Zn103 O109 2.035 . S
O104 Zn103 2.028 . S
O104 C110 1.247 . S
O105 Zn101 2.035 . S
O105 C110 1.258 . S
O106 C99 1.247 . S
O106 Zn103 2.028 . S
O107 C99 1.258 . S
O107 Zn101 2.035 . S
O108 Zn101 2.028 . S
O108 C111 1.247 . S
O109 Zn103 2.035 . S
O109 C111 1.258 . S
C110 O104 1.247 . S
C110 O105 1.258 . S
C111 O108 1.247 . S
C111 O109 1.258 . S
C112 O114 1.247 . S
C112 O116 1.258 . S
C113 O120 1.247 . S
C113 O121 1.258 . S
O114 C112 1.247 . S
O114 Zn115 2.028 . S
Zn115 O114 2.028 . S
Zn115 O119 2.035 . S
Zn115 O121 2.035 . S
Zn115 O122 2.028 . S
O116 C112 1.258 . S
O116 Zn117 2.035 . S
Zn117 O116 2.035 . S
Zn117 O118 2.028 . S
Zn117 O120 2.028 . S
Zn117 O123 2.035 . S
O118 Zn117 2.028 . S
O118 C124 1.247 . S
O119 Zn115 2.035 . S
O119 C124 1.258 . S
O120 C113 1.247 . S
O120 Zn117 2.028 . S
O121 C113 1.258 . S
O121 Zn115 2.035 . S
O122 Zn115 2.028 . S
O122 C125 1.247 . S
O123 Zn117 2.035 . S
O123 C125 1.258 . S
C124 O118 1.247 . S
C124 O119 1.258 . S
C125 O122 1.247 . S
C125 O123 1.258 . S
C126 O128 1.247 . S
C126 O130 1.258 . S
C127 O134 1.247 . S
C127 O135 1.258 . S
O128 C126 1.247 . S
O128 Zn129 2.028 . S
Zn129 O128 2.028 . S
Zn129 O133 2.035 . S
Zn129 O135 2.035 . S
Zn129 O136 2.028 . S
O130 C126 1.258 . S
O130 Zn131 2.035 . S
Zn131 O130 2.035 . S
Zn131 O132 2.028 . S
Zn131 O134 2.028 . S
Zn131 O137 2.035 . S
O132 Zn131 2.028 . S
O132 C138 1.247 . S
O133 Zn129 2.035 . S
O133 C138 1.258 . S
O134 C127 1.247 . S
O134 Zn131 2.028 . S
O135 C127 1.258 . S
O135 Zn129 2.035 . S
O136 Zn129 2.028 . S
O136 C139 1.247 . S
O137 Zn131 2.035 . S
O137 C139 1.258 . S
C138 O132 1.247 . S
C138 O133 1.258 . S
C139 O136 1.247 . S
C139 O137 1.258 . S
C140 O142 1.247 . S
C140 O144 1.258 1_565 S
C141 O148 1.247 . S
C141 O149 1.258 1_545 S
O142 C140 1.247 . S
O142 Zn143 2.028 . S
Zn143 O142 2.028 . S
Zn143 O147 2.035 . S
Zn143 O149 2.035 . S
Zn143 O150 2.028 . S
O144 C140 1.258 1_545 S
O144 Zn145 2.035 . S
Zn145 O144 2.035 . S
Zn145 O146 2.028 . S
Zn145 O148 2.028 . S
Zn145 O151 2.035 . S
O146 Zn145 2.028 . S
O146 C152 1.247 . S
O147 Zn143 2.035 . S
O147 C152 1.258 1_565 S
O148 C141 1.247 . S
O148 Zn145 2.028 . S
O149 C141 1.258 1_565 S
O149 Zn143 2.035 . S
O150 Zn143 2.028 . S
O150 C153 1.247 . S
O151 Zn145 2.035 . S
O151 C153 1.258 1_545 S
C152 O146 1.247 . S
C152 O147 1.258 1_545 S
C153 O150 1.247 . S
C153 O151 1.258 1_565 S
C154 O156 1.247 1_556 S
C154 O158 1.258 . S
C155 O162 1.247 1_554 S
C155 O163 1.258 . S
O156 C154 1.247 1_554 S
O156 Zn157 2.028 . S
Zn157 O156 2.028 . S
Zn157 O161 2.035 . S
Zn157 O163 2.035 . S
Zn157 O164 2.028 . S
O158 C154 1.258 . S
O158 Zn159 2.035 . S
Zn159 O158 2.035 . S
Zn159 O160 2.028 . S
Zn159 O162 2.028 . S
Zn159 O165 2.035 . S
O160 Zn159 2.028 . S
O160 C166 1.247 1_556 S
O161 Zn157 2.035 . S
O161 C166 1.258 . S
O162 C155 1.247 1_556 S
O162 Zn159 2.028 . S
O163 C155 1.258 . S
O163 Zn157 2.035 . S
O164 Zn157 2.028 . S
O164 C167 1.247 1_554 S
O165 Zn159 2.035 . S
O165 C167 1.258 . S
C166 O160 1.247 1_554 S
C166 O161 1.258 . S
C167 O164 1.247 1_556 S
C167 O165 1.258 . S
O168 Zn169 1.953 . S
O168 C184 1.225 . S
Zn169 O168 1.953 . S
Zn169 O170 1.949 . S
Zn169 O176 1.919 . S
Zn169 O181 1.924 1_545 S
O170 Zn169 1.949 . S
O170 Zn171 1.923 . S
O170 Zn172 1.950 . S
O170 Zn173 1.945 1_545 S
Zn171 O170 1.923 . S
Zn171 O174 1.933 1_455 S
Zn171 O177 1.941 . S
Zn171 O178 1.965 . S
Zn172 O170 1.950 . S
Zn172 O179 1.938 . S
Zn172 O180 1.906 1_554 S
Zn172 O190 1.953 . S
Zn173 O170 1.945 1_565 S
Zn173 O175 1.932 1_464 S
Zn173 O182 1.977 1_554 S
Zn173 O183 1.910 1_455 S
O174 Zn171 1.933 1_655 S
O174 C185 1.226 1_554 S
O175 Zn173 1.932 1_646 S
O175 C185 1.307 . S
O176 Zn169 1.919 . S
O176 C187 1.253 . S
O177 Zn171 1.941 . S
O177 C187 1.283 . S
O178 Zn171 1.965 . S
O178 C186 1.303 . S
O179 Zn172 1.938 . S
O179 C186 1.247 . S
O180 Zn172 1.906 1_556 S
O180 C188 1.304 1_545 S
O181 Zn169 1.924 1_565 S
O181 C189 1.311 . S
O182 Zn173 1.977 1_556 S
O182 C188 1.272 . S
O183 Zn173 1.910 1_655 S
O183 C189 1.231 1_655 S
C184 O168 1.225 . S
C184 O190 1.298 . S
C185 O174 1.226 1_556 S
C185 O175 1.307 . S
C186 O178 1.303 . S
C186 O179 1.247 . S
C187 O176 1.253 . S
C187 O177 1.283 . S
C188 O180 1.304 1_565 S
C188 O182 1.272 . S
C189 O181 1.311 . S
C189 O183 1.231 1_455 S
O190 Zn172 1.953 . S
O190 C184 1.298 . S
O191 Zn192 1.953 . S
O191 C207 1.225 . S
Zn192 O191 1.953 . S
Zn192 O193 1.949 . S
Zn192 O199 1.919 . S
Zn192 O204 1.924 . S
O193 Zn192 1.949 . S
O193 Zn194 1.923 . S
O193 Zn195 1.950 . S
O193 Zn196 1.945 1_655 S
Zn194 O193 1.923 . S
Zn194 O197 1.933 1_655 S
Zn194 O200 1.941 1_655 S
Zn194 O201 1.965 . S
Zn195 O193 1.950 . S
Zn195 O202 1.938 1_554 S
Zn195 O203 1.906 1_554 S
Zn195 O213 1.953 . S
Zn196 O193 1.945 1_455 S
Zn196 O198 1.932 1_554 S
Zn196 O205 1.977 1_454 S
Zn196 O206 1.910 . S
O197 Zn194 1.933 1_455 S
O197 C208 1.226 1_554 S
O198 Zn196 1.932 1_556 S
O198 C208 1.307 . S
O199 Zn192 1.919 . S
O199 C210 1.253 1_655 S
O200 Zn194 1.941 1_455 S
O200 C210 1.283 . S
O201 Zn194 1.965 . S
O201 C209 1.303 . S
O202 Zn195 1.938 1_556 S
O202 C209 1.247 1_556 S
O203 Zn195 1.906 1_556 S
O203 C211 1.304 . S
O204 Zn192 1.924 . S
O204 C212 1.311 1_655 S
O205 Zn196 1.977 1_656 S
O205 C211 1.272 . S
O206 Zn196 1.910 . S
O206 C212 1.231 . S
C207 O191 1.225 . S
C207 O213 1.298 . S
C208 O197 1.226 1_556 S
C208 O198 1.307 . S
C209 O201 1.303 . S
C209 O202 1.247 1_554 S
C210 O199 1.253 1_455 S
C210 O200 1.283 . S
C211 O203 1.304 . S
C211 O205 1.272 . S
C212 O204 1.311 1_455 S
C212 O206 1.231 . S
O213 Zn195 1.953 . S
O213 C207 1.298 . S
O214 Zn215 1.953 . S
O214 C230 1.225 . S
Zn215 O214 1.953 . S
Zn215 O216 1.949 . S
Zn215 O222 1.919 . S
Zn215 O227 1.924 . S
O216 Zn215 1.949 . S
O216 Zn217 1.923 . S
O216 Zn218 1.950 . S
O216 Zn219 1.945 1_565 S
Zn217 O216 1.923 . S
Zn217 O220 1.933 1_565 S
Zn217 O223 1.941 . S
Zn217 O224 1.965 . S
Zn218 O216 1.950 . S
Zn218 O225 1.938 . S
Zn218 O226 1.906 1_455 S
Zn218 O236 1.953 . S
Zn219 O216 1.945 1_545 S
Zn219 O221 1.934 . S
Zn219 O228 1.977 1_445 S
Zn219 O229 1.910 . S
O220 Zn217 1.933 1_545 S
O220 C231 1.226 . S
O221 Zn219 1.934 . S
O221 C231 1.307 . S
O222 Zn215 1.919 . S
O222 C233 1.253 1_565 S
O223 Zn217 1.941 . S
O223 C233 1.283 1_565 S
O224 Zn217 1.965 . S
O224 C232 1.303 . S
O225 Zn218 1.938 . S
O225 C232 1.247 . S
O226 Zn218 1.906 1_655 S
O226 C234 1.304 . S
O227 Zn215 1.924 . S
O227 C235 1.311 1_565 S
O228 Zn219 1.977 1_665 S
O228 C234 1.272 . S
O229 Zn219 1.910 . S
O229 C235 1.231 . S
C230 O214 1.225 . S
C230 O236 1.298 . S
C231 O220 1.226 . S
C231 O221 1.307 . S
C232 O224 1.303 . S
C232 O225 1.247 . S
C233 O222 1.253 1_545 S
C233 O223 1.283 1_545 S
C234 O226 1.304 . S
C234 O228 1.272 . S
C235 O227 1.311 1_545 S
C235 O229 1.231 . S
O236 Zn218 1.953 . S
O236 C230 1.298 . S
O237 Zn238 1.953 1_455 S
O237 C253 1.225 . S
Zn238 O237 1.953 1_655 S
Zn238 O239 1.949 . S
Zn238 O245 1.919 . S
Zn238 O250 1.924 1_655 S
O239 Zn238 1.949 . S
O239 Zn240 1.923 . S
O239 Zn241 1.950 . S
O239 Zn242 1.945 1_655 S
Zn240 O239 1.923 . S
Zn240 O243 1.933 . S
Zn240 O246 1.941 . S
Zn240 O247 1.965 . S
Zn241 O239 1.950 . S
Zn241 O248 1.938 . S
Zn241 O249 1.906 . S
Zn241 O259 1.953 1_655 S
Zn242 O239 1.945 1_455 S
Zn242 O244 1.932 1_455 S
Zn242 O251 1.977 . S
Zn242 O252 1.910 . S
O243 Zn240 1.933 . S
O243 C254 1.226 . S
O244 Zn242 1.932 1_655 S
O244 C254 1.307 . S
O245 Zn238 1.919 . S
O245 C256 1.253 . S
O246 Zn240 1.941 . S
O246 C256 1.283 . S
O247 Zn240 1.965 . S
O247 C255 1.303 . S
O248 Zn241 1.938 . S
O248 C255 1.247 . S
O249 Zn241 1.906 . S
O249 C257 1.304 1_655 S
O250 Zn238 1.924 1_455 S
O250 C258 1.311 . S
O251 Zn242 1.977 . S
O251 C257 1.272 . S
O252 Zn242 1.910 . S
O252 C258 1.231 . S
C253 O237 1.225 . S
C253 O259 1.298 . S
C254 O243 1.226 . S
C254 O244 1.307 . S
C255 O247 1.303 . S
C255 O248 1.247 . S
C256 O245 1.253 . S
C256 O246 1.283 . S
C257 O249 1.304 1_455 S
C257 O251 1.272 . S
C258 O250 1.311 . S
C258 O252 1.231 . S
O259 Zn241 1.953 1_455 S
O259 C253 1.298 . S
O260 Zn261 1.953 . S
O260 C276 1.225 . S
Zn261 O260 1.953 . S
Zn261 O262 1.949 . S
Zn261 O268 1.919 . S
Zn261 O273 1.924 1_565 S
O262 Zn261 1.949 . S
O262 Zn263 1.923 . S
O262 Zn264 1.950 . S
O262 Zn265 1.945 1_565 S
Zn263 O262 1.923 . S
Zn263 O266 1.933 . S
Zn263 O269 1.941 . S
Zn263 O270 1.965 . S
Zn264 O262 1.950 . S
Zn264 O271 1.938 . S
Zn264 O272 1.906 . S
Zn264 O282 1.953 . S
Zn265 O262 1.945 1_545 S
Zn265 O267 1.932 1_545 S
Zn265 O274 1.977 . S
Zn265 O275 1.910 . S
O266 Zn263 1.933 . S
O266 C277 1.226 . S
O267 Zn265 1.932 1_565 S
O267 C277 1.307 . S
O268 Zn261 1.919 . S
O268 C279 1.253 . S
O269 Zn263 1.941 . S
O269 C279 1.283 . S
O270 Zn263 1.965 . S
O270 C278 1.303 . S
O271 Zn264 1.938 . S
O271 C278 1.247 . S
O272 Zn264 1.906 . S
O272 C280 1.304 1_565 S
O273 Zn261 1.924 1_545 S
O273 C281 1.311 . S
O274 Zn265 1.977 . S
O274 C280 1.272 . S
O275 Zn265 1.910 . S
O275 C281 1.231 . S
C276 O260 1.225 . S
C276 O282 1.298 . S
C277 O266 1.226 . S
C277 O267 1.307 . S
C278 O270 1.303 . S
C278 O271 1.247 . S
C279 O268 1.253 . S
C279 O269 1.283 . S
C280 O272 1.304 1_545 S
C280 O274 1.272 . S
C281 O273 1.311 . S
C281 O275 1.231 . S
O282 Zn264 1.953 . S
O282 C276 1.298 . S
O283 Zn284 1.953 . S
O283 C299 1.225 . S
Zn284 O283 1.953 . S
Zn284 O285 1.949 . S
Zn284 O291 1.919 . S
Zn284 O296 1.924 . S
O285 Zn284 1.949 . S
O285 Zn286 1.923 . S
O285 Zn287 1.950 . S
O285 Zn288 1.945 . S
Zn286 O285 1.923 . S
Zn286 O289 1.933 . S
Zn286 O292 1.941 . S
Zn286 O293 1.965 . S
Zn287 O285 1.950 . S
Zn287 O294 1.938 . S
Zn287 O295 1.906 . S
Zn287 O305 1.953 . S
Zn288 O285 1.945 . S
Zn288 O290 1.932 . S
Zn288 O297 1.977 . S
Zn288 O298 1.910 . S
O289 Zn286 1.933 . S
O289 C300 1.226 . S
O290 Zn288 1.932 . S
O290 C300 1.307 . S
O291 Zn284 1.919 . S
O291 C302 1.253 . S
O292 Zn286 1.941 . S
O292 C302 1.283 . S
O293 Zn286 1.965 . S
O293 C301 1.303 . S
O294 Zn287 1.938 . S
O294 C301 1.247 . S
O295 Zn287 1.906 . S
O295 C303 1.304 . S
O296 Zn284 1.924 . S
O296 C304 1.311 . S
O297 Zn288 1.977 . S
O297 C303 1.272 . S
O298 Zn288 1.910 . S
O298 C304 1.231 . S
C299 O283 1.225 . S
C299 O305 1.298 . S
C300 O289 1.226 . S
C300 O290 1.307 . S
C301 O293 1.303 . S
C301 O294 1.247 . S
C302 O291 1.253 . S
C302 O292 1.283 . S
C303 O295 1.304 . S
C303 O297 1.272 . S
C304 O296 1.311 . S
C304 O298 1.231 . S
O305 Zn287 1.953 . S
O305 C299 1.298 . S
O306 Zn307 1.953 . S
O306 C322 1.225 . S
Zn307 O306 1.953 . S
Zn307 O308 1.949 . S
Zn307 O314 1.919 . S
Zn307 O319 1.924 1_556 S
O308 Zn307 1.949 . S
O308 Zn309 1.923 . S
O308 Zn310 1.950 . S
O308 Zn311 1.945 1_556 S
Zn309 O308 1.923 . S
Zn309 O312 1.933 . S
Zn309 O315 1.941 . S
Zn309 O316 1.965 . S
Zn310 O308 1.950 . S
Zn310 O317 1.938 . S
Zn310 O318 1.906 . S
Zn310 O328 1.953 . S
Zn311 O308 1.945 1_554 S
Zn311 O313 1.932 1_554 S
Zn311 O320 1.977 . S
Zn311 O321 1.910 . S
O312 Zn309 1.933 . S
O312 C323 1.226 . S
O313 Zn311 1.932 1_556 S
O313 C323 1.307 . S
O314 Zn307 1.919 . S
O314 C325 1.253 . S
O315 Zn309 1.941 . S
O315 C325 1.283 . S
O316 Zn309 1.965 . S
O316 C324 1.303 . S
O317 Zn310 1.938 . S
O317 C324 1.247 . S
O318 Zn310 1.906 . S
O318 C326 1.304 1_556 S
O319 Zn307 1.924 1_554 S
O319 C327 1.311 . S
O320 Zn311 1.977 . S
O320 C326 1.272 . S
O321 Zn311 1.910 . S
O321 C327 1.231 . S
C322 O306 1.225 . S
C322 O328 1.298 . S
C323 O312 1.226 . S
C323 O313 1.307 . S
C324 O316 1.303 . S
C324 O317 1.247 . S
C325 O314 1.253 . S
C325 O315 1.283 . S
C326 O318 1.304 1_554 S
C326 O320 1.272 . S
C327 O319 1.311 . S
C327 O321 1.231 . S
O328 Zn310 1.953 . S
O328 C322 1.298 . S
O329 Zn330 1.953 . S
O329 C345 1.225 . S
Zn330 O329 1.953 . S
Zn330 O331 1.949 . S
Zn330 O337 1.919 . S
Zn330 O342 1.924 . S
O331 Zn330 1.949 . S
O331 Zn332 1.923 . S
O331 Zn333 1.950 . S
O331 Zn334 1.945 1_556 S
Zn332 O331 1.923 . S
Zn332 O335 1.933 1_556 S
Zn332 O338 1.941 . S
Zn332 O339 1.965 . S
Zn333 O331 1.950 . S
Zn333 O340 1.938 . S
Zn333 O341 1.906 1_545 S
Zn333 O351 1.953 . S
Zn334 O331 1.945 1_554 S
Zn334 O336 1.932 1_545 S
Zn334 O343 1.977 1_544 S
Zn334 O344 1.910 . S
O335 Zn332 1.933 1_554 S
O335 C346 1.226 1_545 S
O336 Zn334 1.932 1_565 S
O336 C346 1.307 . S
O337 Zn330 1.919 . S
O337 C348 1.253 1_556 S
O338 Zn332 1.941 . S
O338 C348 1.283 1_556 S
O339 Zn332 1.965 . S
O339 C347 1.303 . S
O340 Zn333 1.938 . S
O340 C347 1.247 . S
O341 Zn333 1.906 1_565 S
O341 C349 1.304 . S
O342 Zn330 1.924 . S
O342 C350 1.311 1_556 S
O343 Zn334 1.977 1_566 S
O343 C349 1.272 . S
O344 Zn334 1.910 . S
O344 C350 1.231 . S
C345 O329 1.225 . S
C345 O351 1.298 . S
C346 O335 1.226 1_565 S
C346 O336 1.307 . S
C347 O339 1.303 . S
C347 O340 1.247 . S
C348 O337 1.253 1_554 S
C348 O338 1.283 1_554 S
C349 O341 1.304 . S
C349 O343 1.272 . S
C350 O342 1.311 1_554 S
C350 O344 1.231 . S
O351 Zn333 1.953 . S
O351 C345 1.298 . S
C13 C231 1.835 . S
C257 C1 2.033 1_455 S
C189 C27 2.000 . S
C15 C212 1.648 . S
C28 C346 1.915 1_545 S
C55 C327 1.664 . S
C280 C40 1.980 1_545 S
C43 C303 2.188 . S
C208 C56 2.152 1_556 S
C258 C83 1.690 . S
C96 C234 1.802 . S
C71 C300 2.044 . S
C323 C99 1.835 . S
C349 C111 2.033 . S
C113 C304 2.000 . S
C281 C125 1.648 . S
C139 C254 1.921 . S
C153 C235 1.665 1_565 S
C211 C127 1.984 . S
C141 C188 2.188 1_545 S
C277 C84 2.152 . S
C350 C154 1.684 1_554 S
C68 C326 1.804 . S
C166 C185 2.041 1_554 S
C187 C0 1.374 . S
C12 C210 1.633 1_655 S
C232 C14 1.365 . S
C253 C26 1.395 . S
C41 C184 1.528 . S
C42 C207 1.479 . S
C233 C29 1.582 1_545 S
C54 C255 1.473 . S
C69 C186 1.374 . S
C230 C70 1.461 . S
C85 C256 1.446 . S
C82 C278 1.286 . S
C302 C110 1.374 . S
C98 C279 1.633 . S
C124 C324 1.365 . S
C112 C345 1.396 . S
C126 C299 1.531 . S
C276 C140 1.480 . S
C138 C325 1.586 . S
C347 C152 1.473 . S
C301 C97 1.374 . S
C322 C167 1.457 . S
C348 C57 1.446 . S
C155 C209 1.285 . S
