# Generated by pormake.
# Topology dag, (6,3)-cn, num edge types: 1
# Building blocks:
#     Node 0, Type 0, BuildingBlock: OJICUG_clean_sbu_0, # of connection points: 6
#     Node 1, Type 0, BuildingBlock: OJICUG_clean_sbu_0, # of connection points: 6
#     Node 2, Type 0, BuildingBlock: OJICUG_clean_sbu_0, # of connection points: 6
#     Node 3, Type 0, BuildingBlock: OJICUG_clean_sbu_0, # of connection points: 6
#     Node 4, Type 1, BuildingBlock: WUSLED_clean_sbu_0, # of connection points: 3
#     Node 5, Type 1, BuildingBlock: WUSLED_clean_sbu_0, # of connection points: 3
#     Node 6, Type 1, BuildingBlock: WUSLED_clean_sbu_0, # of connection points: 3
#     Node 7, Type 1, BuildingBlock: WUSLED_clean_sbu_0, # of connection points: 3
#     Node 8, Type 1, BuildingBlock: WUSLED_clean_sbu_0, # of connection points: 3
#     Node 9, Type 1, BuildingBlock: WUSLED_clean_sbu_0, # of connection points: 3
#     Node 10, Type 1, BuildingBlock: WUSLED_clean_sbu_0, # of connection points: 3
#     Node 11, Type 1, BuildingBlock: WUSLED_clean_sbu_0, # of connection points: 3
#     Edge 12, Type (0, 1), BuildingBlock: MIFKUJ_clean_linker_0, # of connection points: 2
#     Edge 13, Type (0, 1), BuildingBlock: MIFKUJ_clean_linker_0, # of connection points: 2
#     Edge 14, Type (0, 1), BuildingBlock: MIFKUJ_clean_linker_0, # of connection points: 2
#     Edge 15, Type (0, 1), BuildingBlock: MIFKUJ_clean_linker_0, # of connection points: 2
#     Edge 16, Type (0, 1), BuildingBlock: MIFKUJ_clean_linker_0, # of connection points: 2
#     Edge 17, Type (0, 1), BuildingBlock: MIFKUJ_clean_linker_0, # of connection points: 2
#     Edge 18, Type (0, 1), BuildingBlock: MIFKUJ_clean_linker_0, # of connection points: 2
#     Edge 19, Type (0, 1), BuildingBlock: MIFKUJ_clean_linker_0, # of connection points: 2
#     Edge 20, Type (0, 1), BuildingBlock: MIFKUJ_clean_linker_0, # of connection points: 2
#     Edge 21, Type (0, 1), BuildingBlock: MIFKUJ_clean_linker_0, # of connection points: 2
#     Edge 22, Type (0, 1), BuildingBlock: MIFKUJ_clean_linker_0, # of connection points: 2
#     Edge 23, Type (0, 1), BuildingBlock: MIFKUJ_clean_linker_0, # of connection points: 2
#     Edge 24, Type (0, 1), BuildingBlock: MIFKUJ_clean_linker_0, # of connection points: 2
#     Edge 25, Type (0, 1), BuildingBlock: MIFKUJ_clean_linker_0, # of connection points: 2
#     Edge 26, Type (0, 1), BuildingBlock: MIFKUJ_clean_linker_0, # of connection points: 2
#     Edge 27, Type (0, 1), BuildingBlock: MIFKUJ_clean_linker_0, # of connection points: 2
#     Edge 28, Type (0, 1), BuildingBlock: MIFKUJ_clean_linker_0, # of connection points: 2
#     Edge 29, Type (0, 1), BuildingBlock: MIFKUJ_clean_linker_0, # of connection points: 2
#     Edge 30, Type (0, 1), BuildingBlock: MIFKUJ_clean_linker_0, # of connection points: 2
#     Edge 31, Type (0, 1), BuildingBlock: MIFKUJ_clean_linker_0, # of connection points: 2
#     Edge 32, Type (0, 1), BuildingBlock: MIFKUJ_clean_linker_0, # of connection points: 2
#     Edge 33, Type (0, 1), BuildingBlock: MIFKUJ_clean_linker_0, # of connection points: 2
#     Edge 34, Type (0, 1), BuildingBlock: MIFKUJ_clean_linker_0, # of connection points: 2
#     Edge 35, Type (0, 1), BuildingBlock: MIFKUJ_clean_linker_0, # of connection points: 2
# Relax obj value: 0.245
# Max RMSD: 0.197
# Mean RMSD: 0.162
data_MOF--net-dag--node1-OJICUG_clean_sbu_0--node2-WUSLED_clean_sbu_0--edge1-MIFKUJ_clean_linker_0
_symmetry_space_group_name_H-M    P1
_symmetry_Int_Tables_number       1
_symmetry_cell_setting            triclinic
loop_
_symmetry_equiv_pos_as_xyz
'x, y, z'
_cell_length_a     57.630012
_cell_length_b     60.372686
_cell_length_c     59.236376
_cell_angle_alpha  95.062067
_cell_angle_beta   90.293124
_cell_angle_gamma 90.161997
loop_
_atom_site_label
_atom_site_type_symbol
_atom_site_fract_x
_atom_site_fract_y
_atom_site_fract_z
_atom_type_partial_charge
Sc0 Sc 0.13363 0.84958 0.0485 0.0
Sc1 Sc 0.14825 0.79285 0.04455 0.0
Sc2 Sc 0.18788 0.83347 0.0686 0.0
O3 O 0.15663 0.82527 0.05388 0.0
C4 C 0.18125 0.87252 0.0361 0.0
C5 C 0.12882 0.81717 0.00284 0.0
C6 C 0.20212 0.79447 0.03163 0.0
C7 C 0.09978 0.81193 0.06354 0.0
C8 C 0.15399 0.86681 0.09714 0.0
C9 C 0.17332 0.78969 0.09222 0.0
O10 O 0.15938 0.87012 0.03459 0.0
O11 O 0.13719 0.80003 0.01095 0.0
O12 O 0.20661 0.81232 0.04391 0.0
O13 O 0.10525 0.83214 0.06216 0.0
O14 O 0.1727 0.85568 0.09521 0.0
O15 O 0.15853 0.78265 0.0772 0.0
O16 O 0.13869 0.8662 0.08159 0.0
O17 O 0.1131 0.79588 0.05709 0.0
O18 O 0.18538 0.80721 0.09085 0.0
O19 O 0.12612 0.83559 0.01468 0.0
O20 O 0.19398 0.8606 0.04776 0.0
O21 O 0.18216 0.7854 0.03076 0.0
Sc22 Sc 0.68963 0.66416 0.48335 0.0
Sc23 Sc 0.65187 0.70584 0.50705 0.0
Sc24 Sc 0.63849 0.64961 0.51009 0.0
O25 O 0.66008 0.67326 0.50018 0.0
C26 C 0.65184 0.62988 0.46079 0.0
C27 C 0.67309 0.70502 0.45713 0.0
C28 C 0.60244 0.68606 0.49534 0.0
C29 C 0.70603 0.70584 0.51713 0.0
C30 C 0.68819 0.6278 0.51844 0.0
C31 C 0.63698 0.68433 0.55269 0.0
O32 O 0.67224 0.63812 0.46189 0.0
O33 O 0.66276 0.71482 0.47412 0.0
O34 O 0.60755 0.66756 0.50274 0.0
O35 O 0.71012 0.6892 0.50296 0.0
O36 O 0.66618 0.62819 0.51942 0.0
O37 O 0.63972 0.70088 0.54097 0.0
O38 O 0.69971 0.6411 0.50733 0.0
O39 O 0.68567 0.71315 0.5213 0.0
O40 O 0.63843 0.66429 0.54424 0.0
O41 O 0.68258 0.6861 0.45758 0.0
O42 O 0.63687 0.63365 0.47633 0.0
O43 O 0.61726 0.70135 0.4933 0.0
Sc44 Sc 0.85384 0.20353 0.00765 0.0
Sc45 Sc 0.81327 0.163 0.98568 0.0
Sc46 Sc 0.86783 0.14665 0.00535 0.0
O47 O 0.84496 0.17108 0.99958 0.0
C48 C 0.90141 0.18335 0.98748 0.0
C49 C 0.82695 0.20614 0.96075 0.0
C50 C 0.84647 0.12909 0.95705 0.0
C51 C 0.8006 0.20242 0.02298 0.0
C52 C 0.87475 0.1803 0.04966 0.0
C53 C 0.82007 0.12485 0.01918 0.0
O54 O 0.88796 0.1996 0.99292 0.0
O55 O 0.81515 0.18859 0.96269 0.0
O56 O 0.86202 0.12943 0.97239 0.0
O57 O 0.82075 0.21112 0.02324 0.0
O58 O 0.8763 0.16127 0.03875 0.0
O59 O 0.8075 0.13621 0.00684 0.0
O60 O 0.86678 0.19721 0.04085 0.0
O61 O 0.79534 0.18481 0.01058 0.0
O62 O 0.84196 0.12714 0.02073 0.0
O63 O 0.84196 0.21347 0.97539 0.0
O64 O 0.8963 0.16341 0.99079 0.0
O65 O 0.82792 0.14044 0.95928 0.0
Sc66 Sc 0.36702 0.35058 0.5442 0.0
Sc67 Sc 0.31417 0.33472 0.5674 0.0
Sc68 Sc 0.35428 0.29394 0.54663 0.0
O69 O 0.34512 0.32638 0.55276 0.0
C70 C 0.37091 0.31539 0.5016 0.0
C71 C 0.31761 0.37123 0.53248 0.0
C72 C 0.30062 0.29253 0.53331 0.0
C73 C 0.34943 0.37033 0.59232 0.0
C74 C 0.40283 0.31495 0.56118 0.0
C75 C 0.33002 0.29443 0.59518 0.0
O76 O 0.36993 0.33548 0.51007 0.0
O77 O 0.30559 0.35776 0.5429 0.0
O78 O 0.32125 0.28524 0.53123 0.0
O79 O 0.36562 0.36723 0.57785 0.0
O80 O 0.38828 0.29915 0.56144 0.0
O81 O 0.31925 0.31258 0.59357 0.0
O82 O 0.39779 0.33364 0.55417 0.0
O83 O 0.32966 0.36087 0.58997 0.0
O84 O 0.34255 0.28541 0.57933 0.0
O85 O 0.33966 0.37122 0.53274 0.0
O86 O 0.36718 0.29888 0.51312 0.0
O87 O 0.29538 0.30968 0.5463 0.0
C88 C 0.01373 0.17009 0.30194 0.0
C89 C 0.99865 0.15301 0.29346 0.0
C90 C 0.98161 0.17732 0.26725 0.0
C91 C 0.98265 0.15663 0.27642 0.0
C92 C 0.99599 0.19473 0.27652 0.0
C93 C 0.01196 0.19111 0.29371 0.0
U94 U 0.05784 0.12888 0.3177 0.0
O95 O 0.09541 0.13153 0.32347 0.0
O96 O 0.07285 0.12046 0.35011 0.0
C97 C 0.09393 0.12616 0.34444 0.0
C98 C 0.03322 0.16516 0.31685 0.0
C99 C 0.1067 0.14071 0.36135 0.0
C100 C 0.11752 0.17748 0.37808 0.0
C101 C 0.10384 0.16386 0.36296 0.0
C102 C 0.13644 0.14484 0.39051 0.0
C103 C 0.13424 0.16811 0.39176 0.0
C104 C 0.12281 0.13128 0.37541 0.0
C105 C 0.05661 0.07289 0.28216 0.0
C106 C 0.09003 0.04874 0.27573 0.0
C107 C 0.05233 0.03702 0.26069 0.0
C108 C 0.04261 0.0568 0.27029 0.0
C109 C 0.0763 0.0331 0.26265 0.0
C110 C 0.08024 0.06849 0.28544 0.0
C111 C 0.04684 0.09488 0.28899 0.0
O112 O 0.02919 0.15011 0.33115 0.0
O113 O 0.05311 0.16227 0.30628 0.0
O114 O 0.05947 0.11175 0.28359 0.0
O115 O 0.03818 0.09775 0.30952 0.0
H116 H 0.99983 0.13655 0.29934 0.0
H117 H 0.97155 0.14299 0.26995 0.0
H118 H 0.99577 0.2108 0.26971 0.0
H119 H 0.02365 0.20442 0.29984 0.0
H120 H 0.11552 0.19535 0.37853 0.0
H121 H 0.09142 0.1714 0.3522 0.0
H122 H 0.14885 0.13708 0.4011 0.0
H123 H 0.12513 0.11341 0.37442 0.0
H124 H 0.10854 0.04631 0.27746 0.0
H125 H 0.04121 0.02511 0.25109 0.0
H126 H 0.02432 0.05988 0.26771 0.0
H127 H 0.09131 0.08075 0.29464 0.0
C128 C 0.39797 0.57264 0.80756 0.0
C129 C 0.41456 0.5647 0.79162 0.0
C130 C 0.38995 0.53286 0.77997 0.0
C131 C 0.41062 0.54498 0.77799 0.0
C132 C 0.37371 0.54054 0.79652 0.0
C133 C 0.37769 0.56032 0.81018 0.0
U134 U 0.43031 0.62682 0.81363 0.0
O135 O 0.41782 0.66128 0.81691 0.0
O136 O 0.44051 0.64945 0.84318 0.0
C137 C 0.4272 0.66559 0.83709 0.0
C138 C 0.40087 0.59474 0.81968 0.0
C139 C 0.41126 0.67526 0.85445 0.0
C140 C 0.37903 0.67146 0.88008 0.0
C141 C 0.3951 0.66186 0.86458 0.0
C142 C 0.39524 0.70789 0.87553 0.0
C143 C 0.37878 0.69461 0.88553 0.0
C144 C 0.41135 0.69826 0.86011 0.0
C145 C 0.47998 0.63291 0.77192 0.0
C146 C 0.49504 0.66808 0.76117 0.0
C147 C 0.51364 0.63351 0.74762 0.0
C148 C 0.49761 0.62169 0.75948 0.0
C149 C 0.51225 0.6568 0.74794 0.0
C150 C 0.47905 0.65622 0.77314 0.0
C151 C 0.46182 0.61993 0.78205 0.0
O152 O 0.42018 0.59783 0.8315 0.0
O153 O 0.39615 0.6112 0.80732 0.0
O154 O 0.4653 0.61554 0.80314 0.0
O155 O 0.44045 0.62601 0.77796 0.0
H156 H 0.43021 0.57417 0.78918 0.0
H157 H 0.42332 0.53978 0.76521 0.0
H158 H 0.35774 0.53147 0.79863 0.0
H159 H 0.36466 0.5663 0.82233 0.0
H160 H 0.36641 0.66083 0.88731 0.0
H161 H 0.39469 0.64405 0.8602 0.0
H162 H 0.39564 0.72573 0.8796 0.0
H163 H 0.42369 0.70882 0.85237 0.0
H164 H 0.49367 0.68602 0.76191 0.0
H165 H 0.52646 0.62429 0.73735 0.0
H166 H 0.49852 0.6037 0.75833 0.0
H167 H 0.46557 0.66516 0.78279 0.0
C168 C 0.72851 0.904 0.15643 0.0
C169 C 0.73362 0.90332 0.13319 0.0
C170 C 0.7318 0.94368 0.13481 0.0
C171 C 0.73508 0.92298 0.12246 0.0
C172 C 0.72573 0.94426 0.15781 0.0
C173 C 0.72401 0.92458 0.1685 0.0
U174 U 0.76317 0.85363 0.16815 0.0
O175 O 0.77366 0.8406 0.20008 0.0
O176 O 0.75363 0.81948 0.17485 0.0
C177 C 0.76278 0.82159 0.1953 0.0
C178 C 0.73075 0.88395 0.16881 0.0
C179 C 0.74835 0.81404 0.21349 0.0
C180 C 0.71991 0.82092 0.2434 0.0
C181 C 0.73223 0.82816 0.2251 0.0
C182 C 0.73932 0.78528 0.23816 0.0
C183 C 0.72348 0.79944 0.25025 0.0
C184 C 0.75161 0.79254 0.21996 0.0
C185 C 0.8203 0.84447 0.13627 0.0
C186 C 0.85671 0.83008 0.14975 0.0
C187 C 0.84919 0.82944 0.10941 0.0
C188 C 0.82745 0.83904 0.11387 0.0
C189 C 0.86422 0.82536 0.12732 0.0
C190 C 0.83488 0.83941 0.15419 0.0
C191 C 0.7983 0.85648 0.14061 0.0
O192 O 0.72905 0.86467 0.15664 0.0
O193 O 0.74801 0.88476 0.18344 0.0
O194 O 0.79678 0.86813 0.16037 0.0
O195 O 0.77919 0.84547 0.13468 0.0
H196 H 0.73749 0.88772 0.12351 0.0
H197 H 0.74005 0.92203 0.10479 0.0
H198 H 0.72297 0.96 0.16769 0.0
H199 H 0.72017 0.92549 0.18644 0.0
H200 H 0.70771 0.83214 0.25228 0.0
H201 H 0.72948 0.84485 0.22024 0.0
H202 H 0.74281 0.7688 0.24321 0.0
H203 H 0.76408 0.78148 0.21123 0.0
H204 H 0.8679 0.8269 0.16384 0.0
H205 H 0.85466 0.82609 0.09197 0.0
H206 H 0.81646 0.84279 0.09981 0.0
H207 H 0.8297 0.84318 0.17166 0.0
C208 C 0.77338 0.41236 0.66234 0.0
C209 C 0.76566 0.41111 0.63973 0.0
C210 C 0.77457 0.45028 0.6377 0.0
C211 C 0.76638 0.42982 0.62751 0.0
C212 C 0.7828 0.4514 0.66019 0.0
C213 C 0.78223 0.43255 0.6724 0.0
U214 U 0.73606 0.36412 0.67381 0.0
O215 O 0.74343 0.32967 0.68113 0.0
O216 O 0.72311 0.35164 0.70509 0.0
C217 C 0.73331 0.33224 0.70102 0.0
C218 C 0.76973 0.3934 0.67599 0.0
C219 C 0.74612 0.32386 0.72005 0.0
C220 C 0.76744 0.32977 0.75562 0.0
C221 C 0.7572 0.33824 0.7367 0.0
C222 C 0.7564 0.29248 0.74094 0.0
C223 C 0.76676 0.30681 0.75815 0.0
C224 C 0.74614 0.30094 0.72214 0.0
C225 C 0.68168 0.35688 0.63641 0.0
C226 C 0.65416 0.32651 0.63797 0.0
C227 C 0.64488 0.35776 0.61656 0.0
C228 C 0.66627 0.36747 0.62259 0.0
C229 C 0.63851 0.33718 0.62418 0.0
C230 C 0.67559 0.33632 0.64407 0.0
C231 C 0.70353 0.36808 0.64329 0.0
O232 O 0.7515 0.3953 0.68925 0.0
O233 O 0.77154 0.37359 0.66496 0.0
O234 O 0.72258 0.35653 0.63917 0.0
O235 O 0.70336 0.37898 0.66348 0.0
H236 H 0.75831 0.39584 0.6317 0.0
H237 H 0.75951 0.42847 0.61039 0.0
H238 H 0.78929 0.46692 0.66846 0.0
H239 H 0.78802 0.43391 0.6899 0.0
H240 H 0.77517 0.34126 0.76861 0.0
H241 H 0.75746 0.35602 0.73536 0.0
H242 H 0.756 0.27468 0.74211 0.0
H243 H 0.73779 0.28958 0.7094 0.0
H244 H 0.64987 0.31059 0.64399 0.0
H245 H 0.6331 0.36669 0.60635 0.0
H246 H 0.67064 0.38346 0.61672 0.0
H247 H 0.68732 0.32799 0.65489 0.0
C248 C 0.51832 0.3196 0.258 0.0
C249 C 0.51013 0.33658 0.27356 0.0
C250 C 0.48387 0.31062 0.28964 0.0
C251 C 0.49315 0.33215 0.28922 0.0
C252 C 0.49184 0.29367 0.27368 0.0
C253 C 0.50899 0.29815 0.25798 0.0
U254 U 0.56137 0.36133 0.24224 0.0
O255 O 0.59888 0.35984 0.23616 0.0
O256 O 0.57545 0.37035 0.20978 0.0
C257 C 0.5968 0.36524 0.21523 0.0
C258 C 0.53755 0.32442 0.24298 0.0
C259 C 0.60953 0.35103 0.19819 0.0
C260 C 0.61898 0.31462 0.17983 0.0
C261 C 0.60547 0.32804 0.19508 0.0
C262 C 0.64027 0.34719 0.17033 0.0
C263 C 0.63678 0.32404 0.16753 0.0
C264 C 0.62678 0.36054 0.18555 0.0
C265 C 0.55738 0.41733 0.27827 0.0
C266 C 0.58714 0.446 0.28017 0.0
C267 C 0.55213 0.45142 0.30247 0.0
C268 C 0.54394 0.43068 0.29359 0.0
C269 C 0.57399 0.45921 0.29615 0.0
C270 C 0.57888 0.42519 0.27128 0.0
C271 C 0.54934 0.39472 0.27114 0.0
O272 O 0.53299 0.33941 0.22878 0.0
O273 O 0.55755 0.32778 0.25349 0.0
O274 O 0.5633 0.37875 0.2763 0.0
O275 O 0.54055 0.39148 0.25059 0.0
H276 H 0.51731 0.35322 0.27396 0.0
H277 H 0.48789 0.34552 0.30151 0.0
H278 H 0.48494 0.27695 0.27343 0.0
H279 H 0.51521 0.28483 0.24611 0.0
H280 H 0.61598 0.29684 0.17818 0.0
H281 H 0.59219 0.32044 0.20477 0.0
H282 H 0.65356 0.355 0.16085 0.0
H283 H 0.63007 0.37828 0.18771 0.0
H284 H 0.60393 0.45161 0.27479 0.0
H285 H 0.54172 0.46094 0.315 0.0
H286 H 0.52736 0.42477 0.29924 0.0
H287 H 0.58947 0.41501 0.25941 0.0
C288 C 0.17455 0.19027 0.87919 0.0
C289 C 0.16573 0.1773 0.89569 0.0
C290 C 0.12958 0.1981 0.89654 0.0
C291 C 0.14346 0.18115 0.90427 0.0
C292 C 0.13867 0.21128 0.88019 0.0
C293 C 0.161 0.20736 0.87157 0.0
U294 U 0.22831 0.15512 0.87759 0.0
O295 O 0.24816 0.13928 0.84903 0.0
O296 O 0.2652 0.16343 0.87362 0.0
C297 C 0.26662 0.15166 0.85391 0.0
C298 C 0.19751 0.18532 0.86944 0.0
C299 C 0.27499 0.1639 0.83521 0.0
C300 C 0.26803 0.19057 0.8076 0.0
C301 C 0.26052 0.17938 0.82588 0.0
C302 C 0.30479 0.1712 0.808 0.0
C303 C 0.29023 0.18658 0.79836 0.0
C304 C 0.2972 0.15994 0.82629 0.0
C305 C 0.22783 0.10933 0.91954 0.0
C306 C 0.25108 0.07572 0.91827 0.0
C307 C 0.22431 0.08435 0.9492 0.0
C308 C 0.21805 0.10391 0.9399 0.0
C309 C 0.24062 0.06978 0.93833 0.0
C310 C 0.24472 0.09538 0.90892 0.0
C311 C 0.21855 0.12858 0.90902 0.0
O312 O 0.21508 0.1893 0.88345 0.0
O313 O 0.19893 0.16595 0.85754 0.0
O314 O 0.21177 0.12484 0.88781 0.0
O315 O 0.22969 0.14753 0.9133 0.0
H316 H 0.17596 0.16393 0.90166 0.0
H317 H 0.13691 0.17045 0.91654 0.0
H318 H 0.12853 0.22461 0.87406 0.0
H319 H 0.1676 0.21752 0.85883 0.0
H320 H 0.25622 0.202 0.80041 0.0
H321 H 0.24327 0.18259 0.83256 0.0
H322 H 0.32208 0.16793 0.80147 0.0
H323 H 0.3086 0.14807 0.83337 0.0
H324 H 0.26383 0.06499 0.90957 0.0
H325 H 0.2155 0.08019 0.96437 0.0
H326 H 0.20487 0.11443 0.94823 0.0
H327 H 0.25246 0.09936 0.89314 0.0
C328 C 0.2312 0.59159 0.3931 0.0
C329 C 0.23821 0.59355 0.41593 0.0
C330 C 0.23417 0.55361 0.4175 0.0
C331 C 0.23952 0.5748 0.42803 0.0
C332 C 0.22605 0.55179 0.39496 0.0
C333 C 0.22464 0.57066 0.38283 0.0
U334 U 0.26657 0.641 0.38228 0.0
O335 O 0.2801 0.65372 0.35136 0.0
O336 O 0.25831 0.67511 0.37447 0.0
C337 C 0.2691 0.67275 0.35491 0.0
C338 C 0.23399 0.61064 0.37939 0.0
C339 C 0.25636 0.68008 0.33538 0.0
C340 C 0.23251 0.6723 0.30164 0.0
C341 C 0.24283 0.66524 0.32121 0.0
C342 C 0.24841 0.70923 0.31079 0.0
C343 C 0.23557 0.69428 0.296 0.0
C344 C 0.25874 0.70216 0.33025 0.0
C345 C 0.32008 0.64876 0.42126 0.0
C346 C 0.34999 0.67673 0.41803 0.0
C347 C 0.35488 0.64851 0.44433 0.0
C348 C 0.33333 0.63946 0.43783 0.0
C349 C 0.3636 0.66717 0.43442 0.0
C350 C 0.32837 0.66756 0.41146 0.0
C351 C 0.29843 0.63766 0.4136 0.0
O352 O 0.23121 0.6304 0.3903 0.0
O353 O 0.25242 0.60945 0.36637 0.0
O354 O 0.29927 0.62682 0.39341 0.0
O355 O 0.27923 0.64911 0.41718 0.0
H356 H 0.24363 0.60945 0.42422 0.0
H357 H 0.24547 0.57682 0.44547 0.0
H358 H 0.22195 0.53567 0.38635 0.0
H359 H 0.21948 0.56876 0.36515 0.0
H360 H 0.22283 0.66036 0.29054 0.0
H361 H 0.24074 0.64811 0.32497 0.0
H362 H 0.25072 0.72637 0.30718 0.0
H363 H 0.269 0.71385 0.3411 0.0
H364 H 0.3561 0.69119 0.41019 0.0
H365 H 0.36502 0.64039 0.45662 0.0
H366 H 0.32725 0.62481 0.44538 0.0
H367 H 0.31831 0.67487 0.39853 0.0
C368 C 0.90142 0.92971 0.74206 0.0
C369 C 0.91353 0.9342 0.76255 0.0
C370 C 0.8927 0.9691 0.76996 0.0
C371 C 0.90915 0.95363 0.7764 0.0
C372 C 0.88097 0.96473 0.7491 0.0
C373 C 0.88528 0.94514 0.73529 0.0
U374 U 0.93655 0.87764 0.73165 0.0
O375 O 0.92618 0.8426 0.72559 0.0
O376 O 0.94735 0.85793 0.70045 0.0
C377 C 0.93523 0.84046 0.7052 0.0
C378 C 0.90521 0.90858 0.72832 0.0
C379 C 0.91937 0.83126 0.68731 0.0
C380 C 0.88417 0.83405 0.6651 0.0
C381 C 0.90008 0.84348 0.68106 0.0
C382 C 0.90694 0.80024 0.66117 0.0
C383 C 0.88728 0.81223 0.65515 0.0
C384 C 0.92283 0.8097 0.67717 0.0
C385 C 0.98767 0.8722 0.77271 0.0
C386 C 0.00662 0.83763 0.78001 0.0
C387 C 0.02025 0.87261 0.79874 0.0
C388 C 0.00334 0.88393 0.78741 0.0
C389 C 0.02181 0.84928 0.79556 0.0
C390 C 0.98966 0.84903 0.76864 0.0
C391 C 0.96832 0.88431 0.76339 0.0
O392 O 0.92438 0.90752 0.71633 0.0
O393 O 0.90171 0.89082 0.73919 0.0
O394 O 0.94758 0.87628 0.76696 0.0
O395 O 0.97102 0.89036 0.74279 0.0
H396 H 0.92606 0.92243 0.76805 0.0
H397 H 0.91823 0.95617 0.79248 0.0
H398 H 0.86842 0.9764 0.74347 0.0
H399 H 0.87584 0.94194 0.71946 0.0
H400 H 0.86939 0.84382 0.6606 0.0
H401 H 0.89717 0.86019 0.68879 0.0
H402 H 0.9097 0.78333 0.65402 0.0
H403 H 0.93759 0.80002 0.68193 0.0
H404 H 0.00749 0.81969 0.77706 0.0
H405 H 0.03132 0.8821 0.81088 0.0
H406 H 0.00194 0.90181 0.79082 0.0
H407 H 0.97767 0.83973 0.75725 0.0
H408 H 0.11844 0.89609 0.10473 0.0
H409 H 0.11234 0.92253 0.13742 0.0
H410 H 0.1735 0.89867 0.16961 0.0
H411 H 0.18004 0.87185 0.13654 0.0
H412 H 0.13079 0.90649 0.1985 0.0
H413 H 0.18181 0.94355 0.15098 0.0
H414 H 0.1962 0.95508 0.11467 0.0
H415 H 0.13275 0.9903 0.10522 0.0
H416 H 0.11781 0.97867 0.1413 0.0
H417 H 0.11113 0.00559 0.27556 0.0
H418 H 0.13065 0.97592 0.25182 0.0
H419 H 0.08558 0.98796 0.19587 0.0
H420 H 0.06658 0.01776 0.21906 0.0
H421 H 0.13066 0.98605 0.18339 0.0
H422 H 0.0775 0.94363 0.22668 0.0
H423 H 0.06153 0.93089 0.26188 0.0
H424 H 0.12831 0.9055 0.27886 0.0
H425 H 0.14474 0.91836 0.24387 0.0
C426 C 0.13063 0.89623 0.11872 0.0
C427 C 0.14987 0.88189 0.11787 0.0
C428 C 0.12707 0.91142 0.13742 0.0
C429 C 0.14258 0.91265 0.15576 0.0
C430 C 0.1614 0.89794 0.15552 0.0
C431 C 0.16512 0.88272 0.1366 0.0
C432 C 0.13909 0.93009 0.17454 0.0
C433 C 0.13135 0.92396 0.19552 0.0
C434 C 0.13963 0.95279 0.17042 0.0
C435 C 0.14865 0.96014 0.14883 0.0
C436 C 0.17086 0.95364 0.1411 0.0
C437 C 0.17912 0.96021 0.12056 0.0
C438 C 0.16539 0.9734 0.10763 0.0
C439 C 0.14338 0.98009 0.11526 0.0
C440 C 0.13502 0.97354 0.13577 0.0
C441 C 0.1054 0.00185 0.2582 0.0
C442 C 0.0872 0.01396 0.24924 0.0
C443 C 0.11648 0.98485 0.24472 0.0
C444 C 0.10955 0.97976 0.2221 0.0
C445 C 0.09124 0.99165 0.21327 0.0
C446 C 0.0802 0.00853 0.22666 0.0
C447 C 0.12141 0.96245 0.20709 0.0
C448 C 0.13075 0.96867 0.18674 0.0
C449 C 0.12229 0.93989 0.21184 0.0
C450 C 0.11241 0.93222 0.23284 0.0
C451 C 0.08882 0.93552 0.23803 0.0
C452 C 0.07968 0.92824 0.25792 0.0
C453 C 0.09392 0.91747 0.27264 0.0
C454 C 0.11732 0.91389 0.26747 0.0
C455 C 0.12655 0.92117 0.24762 0.0
H456 H 0.08681 0.91183 0.28802 0.0
H457 H 0.17181 0.97845 0.09173 0.0
H458 H 0.62882 0.65314 0.58235 0.0
H459 H 0.61009 0.65858 0.61909 0.0
H460 H 0.60926 0.72942 0.61457 0.0
H461 H 0.62786 0.72423 0.57729 0.0
H462 H 0.62054 0.70947 0.66166 0.0
H463 H 0.56399 0.71353 0.6016 0.0
H464 H 0.54729 0.70092 0.56422 0.0
H465 H 0.53396 0.63648 0.58685 0.0
H466 H 0.55103 0.64858 0.62422 0.0
H467 H 0.49994 0.68949 0.72116 0.0
H468 H 0.5234 0.70506 0.69211 0.0
H469 H 0.58189 0.66603 0.71083 0.0
H470 H 0.55873 0.65089 0.74031 0.0
H471 H 0.53976 0.68058 0.65654 0.0
H472 H 0.63225 0.68979 0.69673 0.0
H473 H 0.65013 0.70205 0.73364 0.0
H474 H 0.59059 0.74236 0.75139 0.0
H475 H 0.57248 0.73062 0.71445 0.0
C476 C 0.6251 0.66997 0.5892 0.0
C477 C 0.62953 0.68823 0.57663 0.0
C478 C 0.61445 0.67302 0.61028 0.0
C479 C 0.6082 0.69435 0.61933 0.0
C480 C 0.61405 0.71283 0.60776 0.0
C481 C 0.62459 0.7098 0.58645 0.0
C482 C 0.59313 0.69658 0.63945 0.0
C483 C 0.60277 0.70347 0.66068 0.0
C484 C 0.56989 0.68908 0.63788 0.0
C485 C 0.55894 0.68193 0.61566 0.0
C486 C 0.55764 0.69663 0.59855 0.0
C487 C 0.5481 0.68957 0.57737 0.0
C488 C 0.5396 0.6679 0.57315 0.0
C489 C 0.54055 0.65326 0.59014 0.0
C490 C 0.55015 0.66022 0.61133 0.0
C491 C 0.51801 0.68476 0.71958 0.0
C492 C 0.52746 0.66884 0.73294 0.0
C493 C 0.53135 0.69358 0.70288 0.0
C494 C 0.55441 0.68677 0.69932 0.0
C495 C 0.56424 0.67178 0.71344 0.0
C496 C 0.55091 0.66294 0.73013 0.0
C497 C 0.56724 0.69297 0.67916 0.0
C498 C 0.55724 0.68733 0.65775 0.0
C499 C 0.59004 0.70183 0.68066 0.0
C500 C 0.60095 0.7092 0.70283 0.0
C501 C 0.62302 0.70138 0.70843 0.0
C502 C 0.63318 0.70821 0.72939 0.0
C503 C 0.62148 0.72294 0.74487 0.0
C504 C 0.59961 0.7309 0.73941 0.0
C505 C 0.58937 0.72413 0.71848 0.0
H506 H 0.62938 0.7282 0.76109 0.0
H507 H 0.53225 0.66246 0.55672 0.0
H508 H 0.83387 0.11074 0.05954 0.0
H509 H 0.81619 0.08176 0.08011 0.0
H510 H 0.76401 0.07084 0.02771 0.0
H511 H 0.78092 0.10076 0.00775 0.0
H512 H 0.74441 0.06713 0.06563 0.0
H513 H 0.81345 0.03598 0.03199 0.0
H514 H 0.85511 0.03381 0.02275 0.0
H515 H 0.87201 0.03306 0.09336 0.0
H516 H 0.83045 0.03551 0.10305 0.0
H517 H 0.71761 0.95547 0.0933 0.0
H518 H 0.7299 0.98816 0.07449 0.0
H519 H 0.77052 0.01101 0.13337 0.0
H520 H 0.7583 0.97851 0.15224 0.0
H521 H 0.79508 0.00803 0.09164 0.0
H522 H 0.72349 0.03796 0.12358 0.0
H523 H 0.68128 0.03788 0.13016 0.0
H524 H 0.66873 0.0376 0.05862 0.0
H525 H 0.71089 0.03736 0.05158 0.0
C526 C 0.81857 0.1022 0.05248 0.0
C527 C 0.80887 0.10786 0.03197 0.0
C528 C 0.80853 0.08554 0.06417 0.0
C529 C 0.78908 0.07365 0.05521 0.0
C530 C 0.77904 0.07968 0.03497 0.0
C531 C 0.78874 0.09674 0.02354 0.0
C532 C 0.77945 0.05477 0.06676 0.0
C533 C 0.7555 0.05407 0.07104 0.0
C534 C 0.79384 0.03772 0.07402 0.0
C535 C 0.81885 0.03613 0.06825 0.0
C536 C 0.82606 0.03549 0.04555 0.0
C537 C 0.84965 0.03419 0.04024 0.0
C538 C 0.8662 0.03335 0.05747 0.0
C539 C 0.85918 0.03374 0.08004 0.0
C540 C 0.83561 0.03506 0.08545 0.0
C541 C 0.72893 0.96763 0.1023 0.0
C542 C 0.73696 0.9645 0.12424 0.0
C543 C 0.73586 0.98629 0.09159 0.0
C544 C 0.75107 0.00197 0.10259 0.0
C545 C 0.75872 0.9991 0.12465 0.0
C546 C 0.75159 0.98063 0.13545 0.0
C547 C 0.76024 0.02062 0.09063 0.0
C548 C 0.7841 0.02116 0.08621 0.0
C549 C 0.74569 0.03716 0.0828 0.0
C550 C 0.72035 0.03741 0.08704 0.0
C551 C 0.71173 0.03768 0.10923 0.0
C552 C 0.68781 0.03774 0.11305 0.0
C553 C 0.67233 0.03768 0.09481 0.0
C554 C 0.68074 0.03762 0.07273 0.0
C555 C 0.70465 0.03754 0.06882 0.0
H556 H 0.65382 0.03772 0.0978 0.0
H557 H 0.88445 0.03235 0.05332 0.0
H558 H 0.44201 0.3332 0.5455 0.0
H559 H 0.48197 0.32808 0.55806 0.0
H560 H 0.45812 0.28426 0.60679 0.0
H561 H 0.41792 0.28876 0.59376 0.0
H562 H 0.48984 0.3241 0.6223 0.0
H563 H 0.48372 0.25904 0.57061 0.0
H564 H 0.47412 0.2374 0.53452 0.0
H565 H 0.52294 0.27587 0.49971 0.0
H566 H 0.5324 0.29816 0.53547 0.0
H567 H 0.60887 0.31575 0.65129 0.0
H568 H 0.56918 0.30327 0.64246 0.0
H569 H 0.57554 0.32524 0.57538 0.0
H570 H 0.61551 0.33657 0.58363 0.0
H571 H 0.55118 0.28861 0.57311 0.0
H572 H 0.55088 0.35808 0.62073 0.0
H573 H 0.56001 0.38266 0.65514 0.0
H574 H 0.52311 0.33886 0.69575 0.0
H575 H 0.51402 0.31387 0.66157 0.0
C576 C 0.44526 0.3224 0.55883 0.0
C577 C 0.42689 0.31143 0.56873 0.0
C578 C 0.46807 0.31941 0.56588 0.0
C579 C 0.47289 0.30573 0.58323 0.0
C580 C 0.45465 0.29479 0.59328 0.0
C581 C 0.43179 0.29735 0.58583 0.0
C582 C 0.49703 0.30397 0.59135 0.0
C583 C 0.50324 0.31585 0.61189 0.0
C584 C 0.51441 0.29366 0.57738 0.0
C585 C 0.50861 0.28043 0.55574 0.0
C586 C 0.4922 0.26309 0.55522 0.0
C587 C 0.48681 0.25067 0.53482 0.0
C588 C 0.49788 0.25528 0.51483 0.0
C589 C 0.51437 0.27232 0.51521 0.0
C590 C 0.51973 0.28488 0.53554 0.0
C591 C 0.60201 0.31744 0.63448 0.0
C592 C 0.61528 0.32747 0.61827 0.0
C593 C 0.57922 0.31049 0.62953 0.0
C594 C 0.5692 0.31373 0.60841 0.0
C595 C 0.58282 0.32267 0.59185 0.0
C596 C 0.60561 0.3294 0.59669 0.0
C597 C 0.54417 0.30929 0.60383 0.0
C598 C 0.53778 0.29636 0.58388 0.0
C599 C 0.52661 0.31898 0.61813 0.0
C600 C 0.53205 0.33398 0.63866 0.0
C601 C 0.54488 0.35362 0.63703 0.0
C602 C 0.55002 0.36763 0.65648 0.0
C603 C 0.54222 0.36228 0.67763 0.0
C604 C 0.5292 0.34294 0.67936 0.0
C605 C 0.52405 0.32885 0.65996 0.0
H606 H 0.5462 0.37315 0.69267 0.0
H607 H 0.49369 0.24565 0.49904 0.0
H608 H 0.60919 0.62626 0.44116 0.0
H609 H 0.59698 0.6009 0.40891 0.0
H610 H 0.66643 0.57443 0.40319 0.0
H611 H 0.67903 0.60083 0.43474 0.0
H612 H 0.64937 0.57572 0.36286 0.0
H613 H 0.62092 0.54763 0.43098 0.0
H614 H 0.60026 0.54948 0.46746 0.0
H615 H 0.53672 0.56463 0.43401 0.0
H616 H 0.55705 0.56299 0.39731 0.0
H617 H 0.6184 0.46757 0.31131 0.0
H618 H 0.63255 0.50023 0.33468 0.0
H619 H 0.56522 0.53074 0.33101 0.0
H620 H 0.55103 0.49832 0.30722 0.0
H621 H 0.58065 0.52849 0.37464 0.0
H622 H 0.61041 0.55225 0.30515 0.0
H623 H 0.63243 0.54837 0.26945 0.0
H624 H 0.69531 0.53884 0.30652 0.0
H625 H 0.67361 0.54236 0.34244 0.0
C626 C 0.62188 0.61512 0.43291 0.0
C627 C 0.64498 0.61527 0.44058 0.0
C628 C 0.61487 0.60057 0.41454 0.0
C629 C 0.63062 0.58529 0.40398 0.0
C630 C 0.65393 0.58597 0.41112 0.0
C631 C 0.66111 0.60098 0.42917 0.0
C632 C 0.62252 0.56806 0.38619 0.0
C633 C 0.63449 0.56524 0.36553 0.0
C634 C 0.60288 0.55457 0.38947 0.0
C635 C 0.59054 0.55533 0.41145 0.0
C636 C 0.60256 0.55143 0.43143 0.0
C637 C 0.59091 0.55242 0.45213 0.0
C638 C 0.5672 0.55716 0.45304 0.0
C639 C 0.55508 0.56092 0.43326 0.0
C640 C 0.56664 0.55992 0.4125 0.0
C641 C 0.60677 0.48148 0.31491 0.0
C642 C 0.58351 0.48025 0.30754 0.0
C643 C 0.61488 0.50012 0.32833 0.0
C644 C 0.59992 0.51789 0.33458 0.0
C645 C 0.57701 0.51715 0.32644 0.0
C646 C 0.56891 0.49857 0.31294 0.0
C647 C 0.60747 0.53617 0.35136 0.0
C648 C 0.59542 0.53911 0.3719 0.0
C649 C 0.62723 0.54943 0.34806 0.0
C650 C 0.64033 0.54738 0.32648 0.0
C651 C 0.6289 0.54915 0.30568 0.0
C652 C 0.64133 0.54705 0.28541 0.0
C653 C 0.66524 0.54331 0.28571 0.0
C654 C 0.67678 0.54172 0.30631 0.0
C655 C 0.66443 0.54379 0.32663 0.0
H656 H 0.67484 0.54169 0.27 0.0
H657 H 0.55822 0.55785 0.46908 0.0
H658 H 0.91847 0.2231 0.97524 0.0
H659 H 0.95568 0.2298 0.95727 0.0
H660 H 0.97283 0.16037 0.958 0.0
H661 H 0.93571 0.15342 0.97553 0.0
H662 H 0.99929 0.22507 0.97115 0.0
H663 H 0.00379 0.14305 0.91191 0.0
H664 H 0.97698 0.11691 0.8906 0.0
H665 H 0.92662 0.16887 0.88771 0.0
H666 H 0.95325 0.19541 0.90868 0.0
H667 H 0.11396 0.19638 0.93994 0.0
H668 H 0.07393 0.19836 0.95313 0.0
H669 H 0.05061 0.20988 0.88585 0.0
H670 H 0.09057 0.20694 0.87228 0.0
H671 H 0.02471 0.17937 0.90201 0.0
H672 H 0.05021 0.25181 0.92947 0.0
H673 H 0.07593 0.27996 0.94928 0.0
H674 H 0.06426 0.25149 0.01217 0.0
H675 H 0.03871 0.22296 0.99268 0.0
C676 C 0.93013 0.20923 0.97154 0.0
C677 C 0.924 0.18769 0.97678 0.0
C678 C 0.95141 0.21311 0.9613 0.0
C679 C 0.96689 0.19554 0.95602 0.0
C680 C 0.96096 0.17411 0.96151 0.0
C681 C 0.93972 0.17019 0.97165 0.0
C682 C 0.98949 0.1995 0.94516 0.0
C683 C 0.00483 0.21518 0.95596 0.0
C684 C 0.99648 0.18694 0.92504 0.0
C685 C 0.98048 0.17118 0.91204 0.0
C686 C 0.98705 0.14894 0.90662 0.0
C687 C 0.97187 0.13404 0.89462 0.0
C688 C 0.95008 0.14121 0.88786 0.0
C689 C 0.94347 0.16332 0.89302 0.0
C690 C 0.9586 0.17829 0.90498 0.0
C691 C 0.10032 0.19932 0.92792 0.0
C692 C 0.10548 0.20139 0.90502 0.0
C693 C 0.07745 0.20071 0.93556 0.0
C694 C 0.05925 0.20448 0.92053 0.0
C695 C 0.06437 0.20702 0.89776 0.0
C696 C 0.08726 0.20553 0.89008 0.0
C697 C 0.03482 0.20447 0.92838 0.0
C698 C 0.01912 0.18947 0.91704 0.0
C699 C 0.02736 0.21796 0.94774 0.0
C700 C 0.04265 0.23515 0.95957 0.0
C701 C 0.05325 0.25145 0.94749 0.0
C702 C 0.06778 0.2675 0.95867 0.0
C703 C 0.07175 0.26749 0.98196 0.0
C704 C 0.06116 0.25147 0.99413 0.0
C705 C 0.04663 0.23537 0.98303 0.0
H706 H 0.08301 0.27992 0.99058 0.0
H707 H 0.93835 0.12964 0.8786 0.0
H708 H 0.33559 0.41001 0.51978 0.0
H709 H 0.31565 0.43888 0.50089 0.0
H710 H 0.25265 0.40004 0.4981 0.0
H711 H 0.27243 0.371 0.51743 0.0
H712 H 0.2659 0.41984 0.45592 0.0
H713 H 0.25173 0.43958 0.53432 0.0
H714 H 0.2616 0.44671 0.57485 0.0
H715 H 0.30739 0.49961 0.5598 0.0
H716 H 0.29816 0.4925 0.5191 0.0
H717 H 0.20728 0.516 0.41904 0.0
H718 H 0.2161 0.48299 0.43895 0.0
H719 H 0.28091 0.51291 0.46247 0.0
H720 H 0.27226 0.54566 0.44281 0.0
H721 H 0.25943 0.49523 0.49608 0.0
H722 H 0.27777 0.47226 0.4177 0.0
H723 H 0.26895 0.465 0.37692 0.0
H724 H 0.216 0.41832 0.39177 0.0
H725 H 0.22433 0.42553 0.43268 0.0
C726 C 0.31753 0.40748 0.51507 0.0
C727 C 0.30558 0.38822 0.52017 0.0
C728 C 0.30615 0.42404 0.50434 0.0
C729 C 0.28268 0.42159 0.49825 0.0
C730 C 0.27078 0.40218 0.50273 0.0
C731 C 0.28208 0.3857 0.51383 0.0
C732 C 0.27078 0.43972 0.48759 0.0
C733 C 0.26398 0.43624 0.46478 0.0
C734 C 0.26862 0.4611 0.49915 0.0
C735 C 0.27438 0.46538 0.52361 0.0
C736 C 0.2641 0.45258 0.53961 0.0
C737 C 0.26955 0.45664 0.56262 0.0
C738 C 0.28514 0.47357 0.56989 0.0
C739 C 0.29534 0.48647 0.55415 0.0
C740 C 0.28999 0.48244 0.5311 0.0
C741 C 0.22342 0.51545 0.42842 0.0
C742 C 0.23897 0.53352 0.42952 0.0
C743 C 0.22843 0.49661 0.43978 0.0
C744 C 0.2492 0.49547 0.45218 0.0
C745 C 0.26469 0.51349 0.45321 0.0
C746 C 0.25967 0.53225 0.442 0.0
C747 C 0.2552 0.47562 0.46412 0.0
C748 C 0.26091 0.47877 0.48725 0.0
C749 C 0.25644 0.45399 0.4528 0.0
C750 C 0.25147 0.44964 0.42824 0.0
C751 C 0.26412 0.46058 0.41227 0.0
C752 C 0.25923 0.45645 0.38914 0.0
C753 C 0.24187 0.44126 0.38176 0.0
C754 C 0.22941 0.43012 0.39751 0.0
C755 C 0.23421 0.43422 0.42066 0.0
H756 H 0.23812 0.43808 0.36385 0.0
H757 H 0.28923 0.47674 0.58773 0.0
H758 H 0.13205 0.78174 0.97012 0.0
H759 H 0.11745 0.77999 0.93093 0.0
H760 H 0.09427 0.8479 0.94211 0.0
H761 H 0.10855 0.84988 0.98081 0.0
H762 H 0.06033 0.82042 0.92451 0.0
H763 H 0.14109 0.83581 0.91173 0.0
H764 H 0.18331 0.82933 0.91136 0.0
H765 H 0.17329 0.76816 0.86969 0.0
H766 H 0.13093 0.77408 0.87013 0.0
H767 H 0.06637 0.86033 0.80858 0.0
H768 H 0.08806 0.84628 0.83981 0.0
H769 H 0.03503 0.79683 0.84675 0.0
H770 H 0.01274 0.81139 0.81621 0.0
H771 H 0.10679 0.80864 0.85422 0.0
H772 H 0.02196 0.79804 0.9026 0.0
H773 H 0.98114 0.81031 0.90206 0.0
H774 H 0.00181 0.87013 0.8733 0.0
H775 H 0.04273 0.85835 0.87399 0.0
C776 C 0.12393 0.79632 0.96417 0.0
C777 C 0.1213 0.81588 0.97875 0.0
C778 C 0.1157 0.7953 0.94177 0.0
C779 C 0.10468 0.81379 0.9337 0.0
C780 C 0.10256 0.83339 0.94806 0.0
C781 C 0.1108 0.83447 0.97024 0.0
C782 C 0.09421 0.81287 0.91075 0.0
C783 C 0.07045 0.81749 0.90914 0.0
C784 C 0.10745 0.80924 0.89071 0.0
C785 C 0.13281 0.80523 0.89124 0.0
C786 C 0.14784 0.82081 0.90277 0.0
C787 C 0.17181 0.81729 0.90246 0.0
C788 C 0.18097 0.79838 0.89046 0.0
C789 C 0.16617 0.78284 0.87892 0.0
C790 C 0.14218 0.78624 0.87924 0.0
C791 C 0.0595 0.84623 0.81651 0.0
C792 C 0.03756 0.83734 0.81027 0.0
C793 C 0.07206 0.83804 0.83419 0.0
C794 C 0.06293 0.82079 0.84588 0.0
C795 C 0.04223 0.81034 0.83811 0.0
C796 C 0.02957 0.81863 0.82054 0.0
C797 C 0.07303 0.81641 0.86812 0.0
C798 C 0.0966 0.81084 0.86959 0.0
C799 C 0.05982 0.81973 0.8882 0.0
C800 C 0.03532 0.82716 0.88807 0.0
C801 C 0.01777 0.81383 0.89622 0.0
C802 C 0.99463 0.8207 0.8959 0.0
C803 C 0.98887 0.84095 0.88757 0.0
C804 C 0.00627 0.85442 0.87967 0.0
C805 C 0.02943 0.84765 0.88002 0.0
H806 H 0.97095 0.84622 0.88729 0.0
H807 H 0.19954 0.79575 0.89012 0.0
H808 H 0.81481 0.1167 0.92351 0.0
H809 H 0.82125 0.09252 0.88874 0.0
H810 H 0.89313 0.08541 0.9073 0.0
H811 H 0.88693 0.1095 0.94203 0.0
H812 H 0.88704 0.09266 0.86185 0.0
H813 H 0.85627 0.04528 0.91629 0.0
H814 H 0.82748 0.03406 0.94379 0.0
H815 H 0.77495 0.0294 0.89189 0.0
H816 H 0.80339 0.04091 0.86414 0.0
H817 H 0.92279 0.9952 0.79679 0.0
H818 H 0.91325 0.02521 0.8254 0.0
H819 H 0.84096 0.01931 0.80642 0.0
H820 H 0.85019 0.98831 0.77866 0.0
H821 H 0.84452 0.02099 0.84996 0.0
H822 H 0.87601 0.06465 0.79427 0.0
H823 H 0.90445 0.07639 0.76671 0.0
H824 H 0.9549 0.08898 0.81992 0.0
H825 H 0.9269 0.07699 0.84776 0.0
C826 C 0.83201 0.11007 0.92017 0.0
C827 C 0.8503 0.11491 0.93568 0.0
C828 C 0.83564 0.09623 0.90031 0.0
C829 C 0.85763 0.08708 0.89555 0.0
C830 C 0.87603 0.09231 0.91068 0.0
C831 C 0.87239 0.10598 0.9306 0.0
C832 C 0.86139 0.07146 0.87519 0.0
C833 C 0.8779 0.0769 0.85925 0.0
C834 C 0.84895 0.05123 0.87158 0.0
C835 C 0.83188 0.0442 0.88821 0.0
C836 C 0.83853 0.04205 0.91079 0.0
C837 C 0.82229 0.0356 0.92641 0.0
C838 C 0.79938 0.03108 0.9196 0.0
C839 C 0.79269 0.03294 0.89714 0.0
C840 C 0.80886 0.03942 0.88146 0.0
C841 C 0.90483 0.00023 0.79869 0.0
C842 C 0.88725 0.98916 0.78549 0.0
C843 C 0.89944 0.01766 0.81487 0.0
C844 C 0.87639 0.02475 0.81795 0.0
C845 C 0.85888 0.0142 0.80433 0.0
C846 C 0.86423 0.99659 0.78828 0.0
C847 C 0.87042 0.04199 0.83649 0.0
C848 C 0.85351 0.03685 0.85222 0.0
C849 C 0.88245 0.06254 0.83981 0.0
C850 C 0.89939 0.06971 0.82309 0.0
C851 C 0.89323 0.06973 0.80008 0.0
C852 C 0.90927 0.07647 0.7844 0.0
C853 C 0.93148 0.08337 0.79155 0.0
C854 C 0.93769 0.0836 0.8144 0.0
C855 C 0.92174 0.07685 0.83014 0.0
H856 H 0.94387 0.08859 0.77939 0.0
H857 H 0.78683 0.02609 0.93172 0.0
H858 H 0.38585 0.27621 0.47963 0.0
H859 H 0.40011 0.27009 0.44075 0.0
H860 H 0.38532 0.33836 0.43009 0.0
H861 H 0.37114 0.34473 0.46894 0.0
H862 H 0.37343 0.30732 0.39247 0.0
H863 H 0.43773 0.32697 0.44342 0.0
H864 H 0.46209 0.32249 0.47705 0.0
H865 H 0.47885 0.25587 0.45097 0.0
H866 H 0.45429 0.25987 0.41728 0.0
H867 H 0.44818 0.33693 0.30643 0.0
H868 H 0.42463 0.33209 0.33961 0.0
H869 H 0.45674 0.26847 0.34622 0.0
H870 H 0.48146 0.27386 0.31373 0.0
H871 H 0.45762 0.29149 0.38498 0.0
H872 H 0.39779 0.27406 0.33061 0.0
H873 H 0.37308 0.27877 0.29729 0.0
H874 H 0.34729 0.34038 0.3292 0.0
H875 H 0.37209 0.33621 0.36259 0.0
C876 C 0.38534 0.28987 0.46895 0.0
C877 C 0.37758 0.31104 0.47749 0.0
C878 C 0.39351 0.28632 0.44675 0.0
C879 C 0.39387 0.30381 0.43265 0.0
C880 C 0.38513 0.32465 0.44073 0.0
C881 C 0.37719 0.32829 0.46299 0.0
C882 C 0.40508 0.30099 0.41015 0.0
C883 C 0.39184 0.30392 0.39072 0.0
C884 C 0.42895 0.29597 0.40795 0.0
C885 C 0.44398 0.29363 0.42798 0.0
C886 C 0.44648 0.31131 0.44494 0.0
C887 C 0.46033 0.30887 0.46398 0.0
C888 C 0.47194 0.28889 0.46616 0.0
C889 C 0.4698 0.27132 0.44926 0.0
C890 C 0.45593 0.27367 0.43018 0.0
C891 C 0.45021 0.32185 0.31486 0.0
C892 C 0.46695 0.30592 0.30752 0.0
C893 C 0.43644 0.31894 0.33369 0.0
C894 C 0.4387 0.2998 0.34537 0.0
C895 C 0.45464 0.28337 0.33747 0.0
C896 C 0.46862 0.28638 0.31874 0.0
C897 C 0.42608 0.29807 0.36699 0.0
C898 C 0.43909 0.29439 0.38642 0.0
C899 C 0.40197 0.30233 0.36911 0.0
C900 C 0.38693 0.30488 0.34907 0.0
C901 C 0.38698 0.28869 0.33047 0.0
C902 C 0.37293 0.29125 0.31157 0.0
C903 C 0.35865 0.30987 0.31111 0.0
C904 C 0.35836 0.32596 0.32957 0.0
C905 C 0.37238 0.32349 0.34851 0.0
H906 H 0.34779 0.31183 0.29646 0.0
H907 H 0.48264 0.28707 0.48092 0.0
H908 H 0.22662 0.87667 0.02284 0.0
H909 H 0.24365 0.90708 0.00347 0.0
H910 H 0.17719 0.93997 0.00474 0.0
H911 H 0.16004 0.90946 0.02306 0.0
H912 H 0.19479 0.943 0.96611 0.0
H913 H 0.22379 0.95533 0.04291 0.0
H914 H 0.2447 0.94536 0.077 0.0
H915 H 0.30756 0.93664 0.03865 0.0
H916 H 0.28693 0.94634 0.00426 0.0
H917 H 0.24428 0.05999 0.98255 0.0
H918 H 0.2418 0.02331 0.99659 0.0
H919 H 0.24519 0.99274 0.92807 0.0
H920 H 0.24618 0.02943 0.91377 0.0
H921 H 0.2635 0.98541 0.99693 0.0
H922 H 0.20656 0.95048 0.92165 0.0
H923 H 0.18142 0.96397 0.89192 0.0
H924 H 0.16738 0.02358 0.93465 0.0
H925 H 0.19217 0.01031 0.9647 0.0
C926 C 0.21569 0.8904 0.01891 0.0
C927 C 0.19198 0.89063 0.02442 0.0
C928 C 0.22545 0.9078 0.00792 0.0
C929 C 0.21176 0.92595 0.00276 0.0
C930 C 0.18811 0.92612 0.00833 0.0
C931 C 0.17831 0.90864 0.01888 0.0
C932 C 0.22167 0.94499 0.99165 0.0
C933 C 0.20997 0.95211 0.97276 0.0
C934 C 0.24136 0.95707 0.00035 0.0
C935 C 0.25377 0.95129 0.02099 0.0
C936 C 0.24204 0.95113 0.04173 0.0
C937 C 0.25384 0.94556 0.0611 0.0
C938 C 0.27743 0.9403 0.05997 0.0
C939 C 0.28928 0.94067 0.03948 0.0
C940 C 0.27755 0.94622 0.02005 0.0
C941 C 0.24466 0.04547 0.97044 0.0
C942 C 0.24478 0.04771 0.94699 0.0
C943 C 0.24354 0.02446 0.97853 0.0
C944 C 0.24274 0.00526 0.96336 0.0
C945 C 0.2453 0.00735 0.94007 0.0
C946 C 0.24609 0.02839 0.93193 0.0
C947 C 0.23626 0.98362 0.97179 0.0
C948 C 0.24864 0.97598 0.99004 0.0
C949 C 0.21659 0.9715 0.96312 0.0
C950 C 0.20146 0.97953 0.94525 0.0
C951 C 0.19807 0.96644 0.92468 0.0
C952 C 0.18387 0.97405 0.90779 0.0
C953 C 0.17289 0.99466 0.91136 0.0
C954 C 0.17597 0.00766 0.93187 0.0
C955 C 0.19009 0.00011 0.94883 0.0
H956 H 0.16194 0.00053 0.89825 0.0
H957 H 0.28654 0.93598 0.07499 0.0
H958 H 0.56466 0.67472 0.51855 0.0
H959 H 0.52407 0.67681 0.50715 0.0
H960 H 0.54446 0.7064 0.44649 0.0
H961 H 0.58531 0.70539 0.45862 0.0
H962 H 0.50488 0.72387 0.46111 0.0
H963 H 0.53227 0.64992 0.44525 0.0
H964 H 0.55177 0.61501 0.45295 0.0
H965 H 0.50241 0.60511 0.50521 0.0
H966 H 0.48276 0.64006 0.49799 0.0
H967 H 0.39686 0.68213 0.40629 0.0
H968 H 0.43746 0.69108 0.41571 0.0
H969 H 0.42486 0.67928 0.48531 0.0
H970 H 0.38416 0.67118 0.47634 0.0
H971 H 0.46128 0.65293 0.46179 0.0
H972 H 0.43445 0.72911 0.47562 0.0
H973 H 0.41559 0.76318 0.46463 0.0
H974 H 0.46472 0.76715 0.41087 0.0
H975 H 0.48369 0.73289 0.42135 0.0
C976 C 0.56044 0.68189 0.5029 0.0
C977 C 0.57802 0.68961 0.48927 0.0
C978 C 0.53727 0.683 0.49634 0.0
C979 C 0.53125 0.69111 0.4756 0.0
C980 C 0.54872 0.6999 0.46247 0.0
C981 C 0.57199 0.6993 0.46936 0.0
C982 C 0.50688 0.68927 0.46735 0.0
C983 C 0.49544 0.70828 0.46095 0.0
C984 C 0.49454 0.6689 0.46697 0.0
C985 C 0.50614 0.64769 0.47117 0.0
C986 C 0.52564 0.64034 0.45846 0.0
C987 C 0.53671 0.62055 0.46273 0.0
C988 C 0.52835 0.60789 0.4796 0.0
C989 C 0.50886 0.61494 0.49216 0.0
C990 C 0.49773 0.63472 0.48796 0.0
C991 C 0.40253 0.68207 0.42373 0.0
C992 C 0.38729 0.67564 0.44051 0.0
C993 C 0.42576 0.68709 0.42904 0.0
C994 C 0.43409 0.68568 0.45115 0.0
C995 C 0.41873 0.68031 0.46811 0.0
C996 C 0.39552 0.67555 0.4629 0.0
C997 C 0.45918 0.68762 0.45631 0.0
C998 C 0.47079 0.66848 0.46189 0.0
C999 C 0.47169 0.70768 0.45535 0.0
C1000 C 0.46032 0.72829 0.44911 0.0
C1001 C 0.44109 0.73712 0.46131 0.0
C1002 C 0.43042 0.7565 0.45521 0.0
C1003 C 0.43891 0.76729 0.43702 0.0
C1004 C 0.45814 0.75875 0.42493 0.0
C1005 C 0.46887 0.73937 0.43096 0.0
H1006 H 0.43062 0.78229 0.43232 0.0
H1007 H 0.53696 0.59262 0.48294 0.0
H1008 H 0.31733 0.39363 0.61839 0.0
H1009 H 0.32439 0.41977 0.65172 0.0
H1010 H 0.39792 0.40769 0.64612 0.0
H1011 H 0.39109 0.38182 0.61243 0.0
H1012 H 0.37774 0.40696 0.69196 0.0
H1013 H 0.38307 0.45191 0.62934 0.0
H1014 H 0.37028 0.46707 0.59405 0.0
H1015 H 0.30917 0.49368 0.62741 0.0
H1016 H 0.3214 0.47831 0.66284 0.0
H1017 H 0.41961 0.49978 0.7638 0.0
H1018 H 0.41208 0.47029 0.73366 0.0
H1019 H 0.34104 0.49193 0.72934 0.0
H1020 H 0.34867 0.52196 0.75885 0.0
H1021 H 0.35999 0.48698 0.68858 0.0
H1022 H 0.3553 0.4431 0.75188 0.0
H1023 H 0.36836 0.42815 0.7872 0.0
H1024 H 0.42813 0.39954 0.75301 0.0
H1025 H 0.41559 0.41459 0.71754 0.0
C1026 C 0.335 0.39647 0.62429 0.0
C1027 C 0.35367 0.38574 0.61275 0.0
C1028 C 0.33899 0.41141 0.64329 0.0
C1029 C 0.36166 0.41561 0.65129 0.0
C1030 C 0.38031 0.40459 0.64016 0.0
C1031 C 0.37638 0.38995 0.62088 0.0
C1032 C 0.36584 0.43199 0.67096 0.0
C1033 C 0.37415 0.42451 0.69123 0.0
C1034 C 0.36063 0.45474 0.67 0.0
C1035 C 0.35302 0.46372 0.64866 0.0
C1036 C 0.36676 0.46074 0.62908 0.0
C1037 C 0.35964 0.46942 0.60907 0.0
C1038 C 0.33891 0.48129 0.60848 0.0
C1039 C 0.32521 0.48446 0.62789 0.0
C1040 C 0.33223 0.47576 0.64794 0.0
C1041 C 0.40236 0.4982 0.7565 0.0
C1042 C 0.38476 0.51328 0.7637 0.0
C1043 C 0.39802 0.4812 0.73941 0.0
C1044 C 0.37595 0.47881 0.72932 0.0
C1045 C 0.35819 0.49344 0.73691 0.0
C1046 C 0.36252 0.51047 0.75395 0.0
C1047 C 0.37178 0.46204 0.70985 0.0
C1048 C 0.36351 0.46944 0.68949 0.0
C1049 C 0.37701 0.43922 0.7108 0.0
C1050 C 0.38461 0.43017 0.73211 0.0
C1051 C 0.37133 0.43379 0.75194 0.0
C1052 C 0.37862 0.42526 0.77198 0.0
C1053 C 0.39909 0.41295 0.77236 0.0
C1054 C 0.41229 0.4091 0.75269 0.0
C1055 C 0.40509 0.41761 0.73261 0.0
H1056 H 0.4047 0.40636 0.78789 0.0
H1057 H 0.33352 0.4881 0.59301 0.0
H1058 H 0.07404 0.83871 0.09294 0.0
H1059 H 0.03446 0.83249 0.10551 0.0
H1060 H 0.03304 0.76865 0.06663 0.0
H1061 H 0.07303 0.77459 0.05419 0.0
H1062 H 0.99485 0.79848 0.05877 0.0
H1063 H 0.03322 0.76672 0.11981 0.0
H1064 H 0.06214 0.76528 0.15045 0.0
H1065 H 0.03316 0.8242 0.18509 0.0
H1066 H 0.00427 0.8262 0.15449 0.0
H1067 H 0.87892 0.79052 0.09818 0.0
H1068 H 0.91911 0.78001 0.08905 0.0
H1069 H 0.94371 0.83376 0.1361 0.0
H1070 H 0.90376 0.84364 0.14582 0.0
H1071 H 0.97048 0.80022 0.13911 0.0
H1072 H 0.93867 0.83706 0.07652 0.0
H1073 H 0.91098 0.84212 0.04552 0.0
H1074 H 0.92869 0.77779 0.01362 0.0
H1075 H 0.95629 0.77225 0.04461 0.0
C1076 C 0.06542 0.82323 0.08724 0.0
C1077 C 0.07659 0.80715 0.07252 0.0
C1078 C 0.04286 0.81967 0.09452 0.0
C1079 C 0.03093 0.80009 0.08706 0.0
C1080 C 0.04207 0.78382 0.07263 0.0
C1081 C 0.06488 0.78721 0.06562 0.0
C1082 C 0.00631 0.7976 0.09331 0.0
C1083 C 0.98943 0.79827 0.07627 0.0
C1084 C 0.99942 0.79792 0.11619 0.0
C1085 C 0.01664 0.79666 0.13477 0.0
C1086 C 0.0331 0.77946 0.13388 0.0
C1087 C 0.04948 0.77853 0.15126 0.0
C1088 C 0.04951 0.79465 0.16969 0.0
C1089 C 0.03312 0.81172 0.1708 0.0
C1090 C 0.01671 0.81274 0.15346 0.0
C1091 C 0.89298 0.7999 0.10666 0.0
C1092 C 0.8883 0.81789 0.12267 0.0
C1093 C 0.91591 0.79395 0.10141 0.0
C1094 C 0.93449 0.8063 0.11162 0.0
C1095 C 0.92973 0.8239 0.12804 0.0
C1096 C 0.90689 0.82957 0.13358 0.0
C1097 C 0.95889 0.80182 0.10463 0.0
C1098 C 0.97578 0.79988 0.12154 0.0
C1099 C 0.96584 0.80079 0.08164 0.0
C1100 C 0.9493 0.80413 0.06301 0.0
C1101 C 0.93653 0.82394 0.06297 0.0
C1102 C 0.92087 0.8269 0.0454 0.0
C1103 C 0.91801 0.81026 0.02765 0.0
C1104 C 0.93087 0.79065 0.02741 0.0
C1105 C 0.94652 0.78758 0.04497 0.0
H1106 H 0.90589 0.81258 0.01405 0.0
H1107 H 0.06221 0.7939 0.18312 0.0
H1108 H 0.73533 0.62184 0.52214 0.0
H1109 H 0.75552 0.59285 0.54097 0.0
H1110 H 0.68978 0.56679 0.56108 0.0
H1111 H 0.66948 0.59538 0.54227 0.0
H1112 H 0.75643 0.58193 0.58497 0.0
H1113 H 0.69195 0.51087 0.55622 0.0
H1114 H 0.66585 0.50009 0.52395 0.0
H1115 H 0.7082 0.53651 0.48053 0.0
H1116 H 0.73473 0.54723 0.51245 0.0
H1117 H 0.75912 0.49139 0.65387 0.0
H1118 H 0.75094 0.5231 0.6322 0.0
H1119 H 0.77707 0.48666 0.57175 0.0
H1120 H 0.78525 0.45483 0.59336 0.0
H1121 H 0.73601 0.50289 0.56384 0.0
H1122 H 0.80618 0.5323 0.59695 0.0
H1123 H 0.83422 0.54306 0.62757 0.0
H1124 H 0.78512 0.58935 0.65887 0.0
H1125 H 0.75665 0.57863 0.62861 0.0
C1126 C 0.72516 0.60995 0.53058 0.0
C1127 C 0.70074 0.61087 0.53049 0.0
C1128 C 0.73675 0.59346 0.5414 0.0
C1129 C 0.72414 0.57752 0.55215 0.0
C1130 C 0.69984 0.57873 0.55257 0.0
C1131 C 0.68826 0.59517 0.54183 0.0
C1132 C 0.73615 0.55929 0.56267 0.0
C1133 C 0.75208 0.56463 0.58033 0.0
C1134 C 0.73086 0.53671 0.55622 0.0
C1135 C 0.71522 0.52999 0.53679 0.0
C1136 C 0.69576 0.51648 0.53976 0.0
C1137 C 0.68088 0.5104 0.52153 0.0
C1138 C 0.68533 0.51766 0.50022 0.0
C1139 C 0.70473 0.53095 0.49707 0.0
C1140 C 0.71968 0.53705 0.51523 0.0
C1141 C 0.76368 0.49033 0.63609 0.0
C1142 C 0.77275 0.47057 0.62531 0.0
C1143 C 0.75898 0.50848 0.6237 0.0
C1144 C 0.76345 0.50731 0.60034 0.0
C1145 C 0.77339 0.48792 0.58973 0.0
C1146 C 0.77802 0.46974 0.60209 0.0
C1147 C 0.75585 0.52548 0.58667 0.0
C1148 C 0.74064 0.52014 0.5684 0.0
C1149 C 0.76212 0.54799 0.59236 0.0
C1150 C 0.77921 0.55453 0.61058 0.0
C1151 C 0.80129 0.54465 0.61045 0.0
C1152 C 0.81728 0.55076 0.62773 0.0
C1153 C 0.81144 0.56684 0.64518 0.0
C1154 C 0.78962 0.57688 0.64535 0.0
C1155 C 0.77356 0.57082 0.62812 0.0
H1156 H 0.82384 0.57156 0.65854 0.0
H1157 H 0.67376 0.51296 0.48614 0.0
H1158 H 0.8707 0.21651 0.08112 0.0
H1159 H 0.88409 0.21967 0.12061 0.0
H1160 H 0.91054 0.1527 0.11168 0.0
H1161 H 0.89692 0.14922 0.07263 0.0
H1162 H 0.88819 0.15906 0.1505 0.0
H1163 H 0.94599 0.19958 0.11086 0.0
H1164 H 0.95924 0.22904 0.08757 0.0
H1165 H 0.93276 0.27893 0.13685 0.0
H1166 H 0.9191 0.24972 0.1603 0.0
H1167 H 0.97571 0.14769 0.23024 0.0
H1168 H 0.95266 0.15193 0.19638 0.0
H1169 H 0.93192 0.21747 0.22356 0.0
H1170 H 0.955 0.21327 0.25789 0.0
H1171 H 0.94512 0.21672 0.17926 0.0
H1172 H 0.8931 0.17546 0.22176 0.0
H1173 H 0.88111 0.14554 0.24501 0.0
H1174 H 0.89721 0.09661 0.19034 0.0
H1175 H 0.90962 0.1262 0.16686 0.0
C1176 C 0.87937 0.20246 0.08757 0.0
C1177 C 0.88276 0.18263 0.07362 0.0
C1178 C 0.88706 0.20432 0.11014 0.0
C1179 C 0.89847 0.18647 0.11907 0.0
C1180 C 0.9017 0.16667 0.10521 0.0
C1181 C 0.89394 0.16475 0.0828 0.0
C1182 C 0.90733 0.18811 0.14276 0.0
C1183 C 0.9007 0.17163 0.15675 0.0
C1184 C 0.92303 0.20496 0.15124 0.0
C1185 C 0.93128 0.22248 0.13718 0.0
C1186 C 0.94284 0.21683 0.11663 0.0
C1187 C 0.95045 0.23348 0.10343 0.0
C1188 C 0.94677 0.25584 0.11069 0.0
C1189 C 0.93555 0.2616 0.13122 0.0
C1190 C 0.92788 0.24501 0.14448 0.0
C1191 C 0.96592 0.16287 0.22929 0.0
C1192 C 0.96695 0.18003 0.24695 0.0
C1193 C 0.95279 0.16529 0.20985 0.0
C1194 C 0.94025 0.18486 0.2076 0.0
C1195 C 0.94138 0.20218 0.22502 0.0
C1196 C 0.95459 0.19977 0.24458 0.0
C1197 C 0.92662 0.18717 0.18662 0.0
C1198 C 0.93227 0.20441 0.17317 0.0
C1199 C 0.91006 0.17096 0.17858 0.0
C1200 C 0.9024 0.15308 0.19258 0.0
C1201 C 0.89421 0.15831 0.21473 0.0
C1202 C 0.88733 0.14141 0.22795 0.0
C1203 C 0.88843 0.11919 0.21917 0.0
C1204 C 0.89636 0.11383 0.19712 0.0
C1205 C 0.90329 0.13067 0.18383 0.0
H1206 H 0.8831 0.10612 0.22944 0.0
H1207 H 0.95268 0.26871 0.10045 0.0
H1208 H 0.21003 0.7927 0.12153 0.0
H1209 H 0.21657 0.77179 0.15431 0.0
H1210 H 0.1518 0.73695 0.14132 0.0
H1211 H 0.14507 0.75781 0.10814 0.0
H1212 H 0.15952 0.75379 0.18792 0.0
H1213 H 0.19712 0.70874 0.12898 0.0
H1214 H 0.22255 0.70107 0.09589 0.0
H1215 H 0.28135 0.72555 0.13543 0.0
H1216 H 0.25621 0.73371 0.16868 0.0
H1217 H 0.19326 0.68467 0.27567 0.0
H1218 H 0.17903 0.69643 0.2395 0.0
H1219 H 0.24308 0.73197 0.23141 0.0
H1220 H 0.25762 0.71976 0.26693 0.0
H1221 H 0.23094 0.70871 0.19285 0.0
H1222 H 0.19306 0.75863 0.24957 0.0
H1223 H 0.16803 0.76812 0.28264 0.0
H1224 H 0.11026 0.73571 0.24743 0.0
H1225 H 0.13505 0.72576 0.21424 0.0
C1226 C 0.19711 0.78063 0.12557 0.0
C1227 C 0.17704 0.7769 0.11215 0.0
C1228 C 0.20094 0.76863 0.14428 0.0
C1229 C 0.18476 0.75273 0.15008 0.0
C1230 C 0.16451 0.74912 0.13702 0.0
C1231 C 0.16076 0.76098 0.11805 0.0
C1232 C 0.18931 0.74011 0.16995 0.0
C1233 C 0.17483 0.74349 0.18889 0.0
C1234 C 0.20947 0.72699 0.17121 0.0
C1235 C 0.22473 0.72197 0.1513 0.0
C1236 C 0.21544 0.71265 0.13058 0.0
C1237 C 0.22981 0.70819 0.1118 0.0
C1238 C 0.25354 0.71285 0.11355 0.0
C1239 C 0.26296 0.72195 0.1341 0.0
C1240 C 0.24866 0.72647 0.15293 0.0
C1241 C 0.20434 0.69486 0.26607 0.0
C1242 C 0.2265 0.70142 0.27426 0.0
C1243 C 0.19612 0.7017 0.24551 0.0
C1244 C 0.20993 0.71522 0.23284 0.0
C1245 C 0.23212 0.72156 0.2409 0.0
C1246 C 0.24031 0.71476 0.26136 0.0
C1247 C 0.20157 0.72296 0.21116 0.0
C1248 C 0.21536 0.71862 0.19181 0.0
C1249 C 0.18085 0.73529 0.2096 0.0
C1250 C 0.16598 0.74119 0.22956 0.0
C1251 C 0.17508 0.75334 0.24897 0.0
C1252 C 0.16092 0.75884 0.26771 0.0
C1253 C 0.13759 0.75245 0.26717 0.0
C1254 C 0.12835 0.74059 0.24785 0.0
C1255 C 0.14244 0.73502 0.22907 0.0
H1256 H 0.12666 0.75674 0.2817 0.0
H1257 H 0.26464 0.70939 0.09898 0.0
H1258 H 0.75261 0.70068 0.50881 0.0
H1259 H 0.78487 0.71909 0.52997 0.0
H1260 H 0.73636 0.75421 0.57527 0.0
H1261 H 0.70409 0.73641 0.55395 0.0
H1262 H 0.76912 0.78145 0.56428 0.0
H1263 H 0.767 0.70786 0.58986 0.0
H1264 H 0.76739 0.66686 0.58512 0.0
H1265 H 0.83478 0.66807 0.55465 0.0
H1266 H 0.83465 0.7091 0.55893 0.0
H1267 H 0.8401 0.81449 0.65875 0.0
H1268 H 0.81103 0.79683 0.63296 0.0
H1269 H 0.86529 0.76819 0.5899 0.0
H1270 H 0.89459 0.78594 0.61567 0.0
H1271 H 0.83182 0.73792 0.59706 0.0
H1272 H 0.83449 0.81213 0.57425 0.0
H1273 H 0.8336 0.85308 0.57994 0.0
H1274 H 0.76447 0.85058 0.60632 0.0
H1275 H 0.76506 0.80959 0.60108 0.0
C1276 C 0.7488 0.71234 0.52327 0.0
C1277 C 0.72573 0.71703 0.52968 0.0
C1278 C 0.76727 0.72279 0.5354 0.0
C1279 C 0.76305 0.73784 0.55438 0.0
C1280 C 0.74005 0.74269 0.56067 0.0
C1281 C 0.7216 0.73244 0.54845 0.0
C1282 C 0.78246 0.74862 0.5678 0.0
C1283 C 0.7827 0.7719 0.57162 0.0
C1284 C 0.80053 0.73622 0.57691 0.0
C1285 C 0.8007 0.71155 0.57449 0.0
C1286 C 0.78183 0.69938 0.582 0.0
C1287 C 0.78201 0.67614 0.57942 0.0
C1288 C 0.80107 0.66487 0.56953 0.0
C1289 C 0.82001 0.67682 0.56227 0.0
C1290 C 0.8199 0.70007 0.56478 0.0
C1291 C 0.84588 0.80469 0.64364 0.0
C1292 C 0.86966 0.80175 0.63918 0.0
C1293 C 0.82923 0.79455 0.62894 0.0
C1294 C 0.836 0.78141 0.60936 0.0
C1295 C 0.85971 0.77828 0.60491 0.0
C1296 C 0.87641 0.78839 0.61966 0.0
C1297 C 0.81822 0.77069 0.5938 0.0
C1298 C 0.81832 0.74745 0.58956 0.0
C1299 C 0.80036 0.78311 0.58442 0.0
C1300 C 0.79989 0.80778 0.58742 0.0
C1301 C 0.81916 0.82031 0.5814 0.0
C1302 C 0.8187 0.84352 0.58453 0.0
C1303 C 0.79901 0.85442 0.59353 0.0
C1304 C 0.77972 0.84212 0.59937 0.0
C1305 C 0.78009 0.81889 0.59629 0.0
H1306 H 0.79869 0.8724 0.59594 0.0
H1307 H 0.80117 0.64687 0.56755 0.0
H1308 H 0.7542 0.19215 0.02456 0.0
H1309 H 0.72464 0.21049 0.04905 0.0
H1310 H 0.7764 0.25564 0.07943 0.0
H1311 H 0.80606 0.23741 0.05523 0.0
H1312 H 0.74853 0.2392 0.1111 0.0
H1313 H 0.73936 0.27236 0.04041 0.0
H1314 H 0.73291 0.27196 0.99919 0.0
H1315 H 0.6669 0.24003 0.00572 0.0
H1316 H 0.67312 0.23998 0.04697 0.0
H1317 H 0.68378 0.32739 0.16351 0.0
H1318 H 0.70943 0.30428 0.13883 0.0
H1319 H 0.65089 0.26484 0.11329 0.0
H1320 H 0.62488 0.28841 0.1376 0.0
H1321 H 0.6797 0.27495 0.0793 0.0
H1322 H 0.6875 0.24437 0.15048 0.0
H1323 H 0.69391 0.24492 0.1917 0.0
H1324 H 0.76233 0.27162 0.1844 0.0
H1325 H 0.75621 0.27154 0.14315 0.0
C1326 C 0.75933 0.20596 0.03646 0.0
C1327 C 0.78254 0.21333 0.03783 0.0
C1328 C 0.74238 0.21647 0.05039 0.0
C1329 C 0.74831 0.23452 0.06593 0.0
C1330 C 0.77146 0.24173 0.06755 0.0
C1331 C 0.78838 0.23132 0.0536 0.0
C1332 C 0.73047 0.24602 0.08058 0.0
C1333 C 0.73358 0.24719 0.10415 0.0
C1334 C 0.71061 0.25584 0.0715 0.0
C1335 C 0.70683 0.25593 0.04673 0.0
C1336 C 0.72356 0.26508 0.03303 0.0
C1337 C 0.71993 0.26497 0.00967 0.0
C1338 C 0.69954 0.25591 0.99983 0.0
C1339 C 0.68271 0.24701 0.01336 0.0
C1340 C 0.68627 0.24705 0.03673 0.0
C1341 C 0.67628 0.31395 0.1525 0.0
C1342 C 0.65226 0.30978 0.15249 0.0
C1343 C 0.69101 0.30059 0.13856 0.0
C1344 C 0.68211 0.28266 0.12443 0.0
C1345 C 0.65812 0.27853 0.12416 0.0
C1346 C 0.64332 0.29191 0.13816 0.0
C1347 C 0.69799 0.26847 0.10983 0.0
C1348 C 0.69451 0.26678 0.08627 0.0
C1349 C 0.71751 0.25812 0.11892 0.0
C1350 C 0.72131 0.25811 0.14373 0.0
C1351 C 0.70385 0.25052 0.15768 0.0
C1352 C 0.70744 0.25072 0.18105 0.0
C1353 C 0.72849 0.25834 0.19067 0.0
C1354 C 0.74602 0.26574 0.17693 0.0
C1355 C 0.74251 0.26559 0.15354 0.0
H1356 H 0.73124 0.25848 0.20877 0.0
H1357 H 0.69676 0.25584 0.98174 0.0
H1358 H 0.34699 0.25372 0.60424 0.0
H1359 H 0.34299 0.2354 0.63918 0.0
H1360 H 0.30434 0.29143 0.66923 0.0
H1361 H 0.30833 0.31001 0.63446 0.0
H1362 H 0.33697 0.27688 0.69844 0.0
H1363 H 0.27632 0.24515 0.6493 0.0
H1364 H 0.26038 0.22613 0.61402 0.0
H1365 H 0.30289 0.16919 0.62282 0.0
H1366 H 0.31933 0.18802 0.65802 0.0
H1367 H 0.28272 0.22991 0.78999 0.0
H1368 H 0.29241 0.24782 0.75592 0.0
H1369 H 0.3252 0.18751 0.72772 0.0
H1370 H 0.3146 0.16912 0.76136 0.0
H1371 H 0.29797 0.20341 0.69728 0.0
H1372 H 0.35719 0.234 0.74753 0.0
H1373 H 0.37348 0.25293 0.78269 0.0
H1374 H 0.33462 0.31168 0.77191 0.0
H1375 H 0.31783 0.293 0.73683 0.0
C1376 C 0.33766 0.26221 0.61827 0.0
C1377 C 0.32787 0.28332 0.61644 0.0
C1378 C 0.33535 0.25166 0.63822 0.0
C1379 C 0.3232 0.26198 0.65672 0.0
C1380 C 0.31377 0.28318 0.65514 0.0
C1381 C 0.31599 0.29372 0.63518 0.0
C1382 C 0.31999 0.25056 0.67764 0.0
C1383 C 0.32824 0.26091 0.69827 0.0
C1384 C 0.30917 0.22946 0.67725 0.0
C1385 C 0.29923 0.21809 0.65615 0.0
C1386 C 0.28241 0.22865 0.64361 0.0
C1387 C 0.27326 0.21789 0.62365 0.0
C1388 C 0.28067 0.19649 0.61615 0.0
C1389 C 0.2972 0.18578 0.62863 0.0
C1390 C 0.30642 0.19648 0.6486 0.0
C1391 C 0.29193 0.2204 0.77653 0.0
C1392 C 0.29779 0.19803 0.7784 0.0
C1393 C 0.29772 0.23077 0.75715 0.0
C1394 C 0.30977 0.2191 0.73933 0.0
C1395 C 0.31597 0.19687 0.74128 0.0
C1396 C 0.31008 0.18644 0.76063 0.0
C1397 C 0.31483 0.22976 0.71824 0.0
C1398 C 0.30688 0.21928 0.69752 0.0
C1399 C 0.32601 0.25071 0.71856 0.0
C1400 C 0.33609 0.26202 0.73964 0.0
C1401 C 0.35197 0.2509 0.75275 0.0
C1402 C 0.36132 0.26159 0.77265 0.0
C1403 C 0.35505 0.28348 0.77956 0.0
C1404 C 0.33945 0.29473 0.76655 0.0
C1405 C 0.33003 0.2841 0.74664 0.0
H1406 H 0.36231 0.29173 0.79497 0.0
H1407 H 0.27356 0.18819 0.60069 0.0
H1408 H 0.67131 0.74959 0.45169 0.0
H1409 H 0.67577 0.76741 0.41639 0.0
H1410 H 0.68092 0.70285 0.37915 0.0
H1411 H 0.67753 0.6851 0.41438 0.0
H1412 H 0.7131 0.72746 0.36606 0.0
H1413 H 0.63139 0.73812 0.37781 0.0
H1414 H 0.59627 0.75043 0.3989 0.0
H1415 H 0.62059 0.81797 0.40315 0.0
H1416 H 0.65602 0.80602 0.38234 0.0
H1417 H 0.70442 0.75869 0.2555 0.0
H1418 H 0.69118 0.74466 0.2907 0.0
H1419 H 0.70287 0.80916 0.32629 0.0
H1420 H 0.71655 0.8233 0.29119 0.0
H1421 H 0.66182 0.78624 0.34031 0.0
H1422 H 0.74395 0.77409 0.32843 0.0
H1423 H 0.77794 0.76089 0.30604 0.0
H1424 H 0.75082 0.6943 0.30104 0.0
H1425 H 0.71646 0.70719 0.32311 0.0
C1426 C 0.67323 0.73924 0.43592 0.0
C1427 C 0.67423 0.71597 0.4358 0.0
C1428 C 0.67564 0.74943 0.41573 0.0
C1429 C 0.67848 0.73649 0.39501 0.0
C1430 C 0.67888 0.71322 0.39489 0.0
C1431 C 0.67693 0.70308 0.41505 0.0
C1432 C 0.68237 0.74701 0.37357 0.0
C1433 C 0.70161 0.74006 0.36035 0.0
C1434 C 0.6678 0.7639 0.36627 0.0
C1435 C 0.64647 0.77114 0.37871 0.0
C1436 C 0.62933 0.75558 0.38339 0.0
C1437 C 0.60935 0.76249 0.39527 0.0
C1438 C 0.60623 0.78496 0.40241 0.0
C1439 C 0.62305 0.80057 0.39763 0.0
C1440 C 0.64307 0.79374 0.38578 0.0
C1441 C 0.70399 0.76996 0.27076 0.0
C1442 C 0.71189 0.79201 0.27063 0.0
C1443 C 0.69629 0.76195 0.29081 0.0
C1444 C 0.69635 0.77582 0.3111 0.0
C1445 C 0.70269 0.79824 0.31077 0.0
C1446 C 0.71047 0.80627 0.29069 0.0
C1447 C 0.69216 0.76628 0.33289 0.0
C1448 C 0.67309 0.77354 0.34614 0.0
C1449 C 0.7067 0.74946 0.34018 0.0
C1450 C 0.72754 0.74164 0.32724 0.0
C1451 C 0.74516 0.75666 0.32242 0.0
C1452 C 0.7645 0.74923 0.30981 0.0
C1453 C 0.76651 0.72678 0.30208 0.0
C1454 C 0.74922 0.71169 0.30702 0.0
C1455 C 0.72982 0.71905 0.31959 0.0
H1456 H 0.7815 0.72106 0.29231 0.0
H1457 H 0.59075 0.79028 0.41161 0.0
H1458 H 0.85294 0.24014 0.94571 0.0
H1459 H 0.84693 0.25884 0.9111 0.0
H1460 H 0.78619 0.21838 0.89523 0.0
H1461 H 0.79227 0.19939 0.92932 0.0
H1462 H 0.81241 0.21975 0.85899 0.0
H1463 H 0.78301 0.27375 0.9172 0.0
H1464 H 0.78578 0.29891 0.95225 0.0
H1465 H 0.84146 0.33454 0.92372 0.0
H1466 H 0.83921 0.3094 0.88858 0.0
H1467 H 0.74704 0.27496 0.78183 0.0
H1468 H 0.76184 0.25948 0.81565 0.0
H1469 H 0.82134 0.30302 0.81625 0.0
H1470 H 0.8067 0.31853 0.782 0.0
H1471 H 0.80225 0.30131 0.85882 0.0
H1472 H 0.82826 0.2496 0.79882 0.0
H1473 H 0.82471 0.22466 0.7637 0.0
H1474 H 0.77505 0.18462 0.79562 0.0
H1475 H 0.77803 0.20951 0.83085 0.0
C1476 C 0.83824 0.2353 0.9349 0.0
C1477 C 0.8231 0.21823 0.94032 0.0
C1478 C 0.8348 0.24605 0.91514 0.0
C1479 C 0.81603 0.24009 0.90062 0.0
C1480 C 0.80086 0.22319 0.90611 0.0
C1481 C 0.80435 0.21237 0.92568 0.0
C1482 C 0.81211 0.25106 0.87946 0.0
C1483 C 0.81003 0.23757 0.859 0.0
C1484 C 0.80982 0.2744 0.8793 0.0
C1485 C 0.81112 0.28954 0.90038 0.0
C1486 C 0.79597 0.28684 0.91847 0.0
C1487 C 0.79742 0.30112 0.93834 0.0
C1488 C 0.81384 0.31827 0.94024 0.0
C1489 C 0.82879 0.32122 0.92224 0.0
C1490 C 0.82742 0.30697 0.90235 0.0
C1491 C 0.76343 0.28109 0.78893 0.0
C1492 C 0.77584 0.29779 0.77901 0.0
C1493 C 0.77183 0.27227 0.80833 0.0
C1494 C 0.79287 0.27986 0.81826 0.0
C1495 C 0.8051 0.29688 0.80878 0.0
C1496 C 0.79669 0.30575 0.78927 0.0
C1497 C 0.80179 0.26987 0.83857 0.0
C1498 C 0.80492 0.28353 0.85879 0.0
C1499 C 0.805 0.24665 0.83856 0.0
C1500 C 0.80327 0.23152 0.81744 0.0
C1501 C 0.81646 0.23557 0.79831 0.0
C1502 C 0.81457 0.22142 0.77839 0.0
C1503 C 0.79964 0.20308 0.77742 0.0
C1504 C 0.7866 0.19883 0.79639 0.0
C1505 C 0.78841 0.21294 0.81635 0.0
H1506 H 0.79819 0.19215 0.76198 0.0
H1507 H 0.81493 0.3293 0.95564 0.0
H1508 H 0.30448 0.25464 0.50463 0.0
H1509 H 0.2743 0.23602 0.48101 0.0
H1510 H 0.22451 0.28501 0.50672 0.0
H1511 H 0.25457 0.30372 0.53076 0.0
H1512 H 0.20656 0.24318 0.50453 0.0
H1513 H 0.24692 0.28789 0.45481 0.0
H1514 H 0.28119 0.30284 0.43649 0.0
H1515 H 0.29819 0.23737 0.40713 0.0
H1516 H 0.2642 0.22195 0.42556 0.0
H1517 H 0.12354 0.20596 0.41884 0.0
H1518 H 0.15004 0.22954 0.44296 0.0
H1519 H 0.20688 0.18604 0.42258 0.0
H1520 H 0.18076 0.16289 0.39798 0.0
H1521 H 0.21909 0.22883 0.42172 0.0
H1522 H 0.18052 0.18394 0.47393 0.0
H1523 H 0.14667 0.16887 0.49285 0.0
H1524 H 0.12637 0.23495 0.51756 0.0
H1525 H 0.15996 0.25044 0.49853 0.0
C1526 C 0.28713 0.2615 0.50537 0.0
C1527 C 0.28203 0.28079 0.51955 0.0
C1528 C 0.2699 0.25086 0.49176 0.0
C1529 C 0.24726 0.25934 0.49186 0.0
C1530 C 0.24191 0.27826 0.50634 0.0
C1531 C 0.25915 0.28894 0.52003 0.0
C1532 C 0.22929 0.24838 0.47672 0.0
C1533 C 0.20909 0.24037 0.48637 0.0
C1534 C 0.23277 0.24449 0.45307 0.0
C1535 C 0.25309 0.25374 0.44172 0.0
C1536 C 0.25804 0.27665 0.44457 0.0
C1537 C 0.27741 0.28522 0.43415 0.0
C1538 C 0.29189 0.27106 0.42069 0.0
C1539 C 0.28697 0.24831 0.41757 0.0
C1540 C 0.26764 0.23966 0.42798 0.0
C1541 C 0.14172 0.20153 0.41939 0.0
C1542 C 0.15002 0.18247 0.40662 0.0
C1543 C 0.15679 0.21491 0.43331 0.0
C1544 C 0.18039 0.20941 0.43472 0.0
C1545 C 0.18873 0.19056 0.42179 0.0
C1546 C 0.17372 0.17722 0.40791 0.0
C1547 C 0.19658 0.22321 0.44959 0.0
C1548 C 0.21645 0.23182 0.43986 0.0
C1549 C 0.19277 0.22766 0.47314 0.0
C1550 C 0.17259 0.21836 0.48459 0.0
C1551 C 0.16873 0.19527 0.48324 0.0
C1552 C 0.14961 0.18665 0.49401 0.0
C1553 C 0.13434 0.20094 0.50634 0.0
C1554 C 0.13819 0.22389 0.50797 0.0
C1555 C 0.15727 0.2326 0.4972 0.0
H1556 H 0.11955 0.19424 0.51467 0.0
H1557 H 0.30689 0.27772 0.41265 0.0
H1558 H 0.24512 0.81141 0.02346 0.0
H1559 H 0.27553 0.79425 0.9993 0.0
H1560 H 0.23254 0.73611 0.98452 0.0
H1561 H 0.20184 0.75328 0.00823 0.0
H1562 H 0.30059 0.75697 0.00026 0.0
H1563 H 0.24137 0.71585 0.92963 0.0
H1564 H 0.20187 0.72063 0.91457 0.0
H1565 H 0.20487 0.79049 0.93563 0.0
H1566 H 0.24459 0.78624 0.95024 0.0
H1567 H 0.36386 0.68055 0.92572 0.0
H1568 H 0.33411 0.69755 0.951 0.0
H1569 H 0.324 0.74905 0.90589 0.0
H1570 H 0.35335 0.73192 0.88034 0.0
H1571 H 0.28293 0.73275 0.91974 0.0
H1572 H 0.35461 0.75997 0.95372 0.0
H1573 H 0.39391 0.75669 0.96971 0.0
H1574 H 0.36679 0.71846 0.02145 0.0
H1575 H 0.32735 0.72126 0.00556 0.0
C1576 C 0.24212 0.79494 0.01512 0.0
C1577 C 0.22093 0.78382 0.01763 0.0
C1578 C 0.25957 0.78513 0.00139 0.0
C1579 C 0.25619 0.76403 0.98992 0.0
C1580 C 0.23536 0.75258 0.99292 0.0
C1581 C 0.21783 0.76243 0.0065 0.0
C1582 C 0.27419 0.7543 0.97428 0.0
C1583 C 0.29673 0.75163 0.98267 0.0
C1584 C 0.2692 0.74762 0.95124 0.0
C1585 C 0.24586 0.75066 0.94125 0.0
C1586 C 0.23369 0.73227 0.93083 0.0
C1587 C 0.21126 0.73489 0.92238 0.0
C1588 C 0.20083 0.75583 0.92423 0.0
C1589 C 0.21294 0.77426 0.93424 0.0
C1590 C 0.23543 0.77177 0.94257 0.0
C1591 C 0.35519 0.69543 0.92114 0.0
C1592 C 0.361 0.70496 0.90109 0.0
C1593 C 0.33833 0.70519 0.93566 0.0
C1594 C 0.32699 0.72464 0.93038 0.0
C1595 C 0.33258 0.73406 0.91028 0.0
C1596 C 0.34949 0.72437 0.89582 0.0
C1597 C 0.30927 0.73522 0.94579 0.0
C1598 C 0.28678 0.73803 0.93735 0.0
C1599 C 0.31438 0.7423 0.96869 0.0
C1600 C 0.33807 0.74065 0.97832 0.0
C1601 C 0.35705 0.75072 0.96839 0.0
C1602 C 0.37935 0.74897 0.97746 0.0
C1603 C 0.38285 0.73732 0.99655 0.0
C1604 C 0.36405 0.72745 0.00665 0.0
C1605 C 0.34172 0.72913 0.99763 0.0
H1606 H 0.40013 0.73599 0.00355 0.0
H1607 H 0.18337 0.75775 0.91791 0.0
loop_
_geom_bond_atom_site_label_1
_geom_bond_atom_site_label_2
_geom_bond_distance
_geom_bond_site_symmetry_2
_ccdc_geom_bond_type
Sc0 O3 2.025 . S
Sc0 O10 2.105 . S
Sc0 O13 2.105 . S
Sc0 O16 2.105 . S
Sc0 O19 2.105 . S
Sc1 O3 2.025 . S
Sc1 O11 2.105 . S
Sc1 O15 2.105 . S
Sc1 O17 2.105 . S
Sc1 O21 2.105 . S
Sc2 O3 2.025 . S
Sc2 O12 2.105 . S
Sc2 O14 2.105 . S
Sc2 O18 2.105 . S
Sc2 O20 2.105 . S
O3 Sc0 2.025 . S
O3 Sc1 2.025 . S
O3 Sc2 2.025 . S
C4 O10 1.268 . S
C4 O20 1.268 . S
C5 O11 1.271 1_556 S
C5 O19 1.270 1_556 S
C6 O12 1.268 . S
C6 O21 1.268 . S
C7 O13 1.268 . S
C7 O17 1.268 . S
C8 O14 1.268 . S
C8 O16 1.268 . S
C9 O15 1.268 . S
C9 O18 1.268 . S
O10 Sc0 2.105 . S
O10 C4 1.268 . S
O11 Sc1 2.105 . S
O11 C5 1.271 1_554 S
O12 Sc2 2.105 . S
O12 C6 1.268 . S
O13 Sc0 2.105 . S
O13 C7 1.268 . S
O14 Sc2 2.105 . S
O14 C8 1.268 . S
O15 Sc1 2.105 . S
O15 C9 1.268 . S
O16 Sc0 2.105 . S
O16 C8 1.268 . S
O17 Sc1 2.105 . S
O17 C7 1.268 . S
O18 Sc2 2.105 . S
O18 C9 1.268 . S
O19 Sc0 2.105 . S
O19 C5 1.270 1_554 S
O20 Sc2 2.105 . S
O20 C4 1.268 . S
O21 Sc1 2.105 . S
O21 C6 1.268 . S
Sc22 O25 2.025 . S
Sc22 O32 2.105 . S
Sc22 O35 2.105 . S
Sc22 O38 2.105 . S
Sc22 O41 2.105 . S
Sc23 O25 2.025 . S
Sc23 O33 2.105 . S
Sc23 O37 2.105 . S
Sc23 O39 2.105 . S
Sc23 O43 2.105 . S
Sc24 O25 2.025 . S
Sc24 O34 2.105 . S
Sc24 O36 2.105 . S
Sc24 O40 2.105 . S
Sc24 O42 2.105 . S
O25 Sc22 2.025 . S
O25 Sc23 2.025 . S
O25 Sc24 2.025 . S
C26 O32 1.268 . S
C26 O42 1.268 . S
C27 O33 1.268 . S
C27 O41 1.268 . S
C28 O34 1.268 . S
C28 O43 1.268 . S
C29 O35 1.268 . S
C29 O39 1.268 . S
C30 O36 1.268 . S
C30 O38 1.268 . S
C31 O37 1.268 . S
C31 O40 1.268 . S
O32 Sc22 2.105 . S
O32 C26 1.268 . S
O33 Sc23 2.105 . S
O33 C27 1.268 . S
O34 Sc24 2.105 . S
O34 C28 1.268 . S
O35 Sc22 2.105 . S
O35 C29 1.268 . S
O36 Sc24 2.105 . S
O36 C30 1.268 . S
O37 Sc23 2.105 . S
O37 C31 1.268 . S
O38 Sc22 2.105 . S
O38 C30 1.268 . S
O39 Sc23 2.105 . S
O39 C29 1.268 . S
O40 Sc24 2.105 . S
O40 C31 1.268 . S
O41 Sc22 2.105 . S
O41 C27 1.268 . S
O42 Sc24 2.105 . S
O42 C26 1.268 . S
O43 Sc23 2.105 . S
O43 C28 1.268 . S
Sc44 O47 2.025 . S
Sc44 O54 2.105 1_554 S
Sc44 O57 2.105 . S
Sc44 O60 2.105 . S
Sc44 O63 2.105 1_554 S
Sc45 O47 2.025 1_556 S
Sc45 O55 2.105 . S
Sc45 O59 2.105 1_556 S
Sc45 O61 2.105 1_556 S
Sc45 O65 2.105 . S
Sc46 O47 2.025 . S
Sc46 O56 2.105 1_554 S
Sc46 O58 2.105 . S
Sc46 O62 2.105 . S
Sc46 O64 2.105 1_554 S
O47 Sc44 2.025 . S
O47 Sc45 2.025 1_554 S
O47 Sc46 2.025 . S
C48 O54 1.268 . S
C48 O64 1.268 . S
C49 O55 1.268 . S
C49 O63 1.268 . S
C50 O56 1.268 . S
C50 O65 1.268 . S
C51 O57 1.268 . S
C51 O61 1.268 . S
C52 O58 1.268 . S
C52 O60 1.268 . S
C53 O59 1.268 . S
C53 O62 1.268 . S
O54 Sc44 2.105 1_556 S
O54 C48 1.268 . S
O55 Sc45 2.105 . S
O55 C49 1.268 . S
O56 Sc46 2.105 1_556 S
O56 C50 1.268 . S
O57 Sc44 2.105 . S
O57 C51 1.268 . S
O58 Sc46 2.105 . S
O58 C52 1.268 . S
O59 Sc45 2.105 1_554 S
O59 C53 1.268 . S
O60 Sc44 2.105 . S
O60 C52 1.268 . S
O61 Sc45 2.105 1_554 S
O61 C51 1.268 . S
O62 Sc46 2.105 . S
O62 C53 1.268 . S
O63 Sc44 2.105 1_556 S
O63 C49 1.268 . S
O64 Sc46 2.105 1_556 S
O64 C48 1.268 . S
O65 Sc45 2.105 . S
O65 C50 1.268 . S
Sc66 O69 2.025 . S
Sc66 O76 2.105 . S
Sc66 O79 2.105 . S
Sc66 O82 2.105 . S
Sc66 O85 2.105 . S
Sc67 O69 2.025 . S
Sc67 O77 2.105 . S
Sc67 O81 2.105 . S
Sc67 O83 2.105 . S
Sc67 O87 2.105 . S
Sc68 O69 2.025 . S
Sc68 O78 2.105 . S
Sc68 O80 2.105 . S
Sc68 O84 2.105 . S
Sc68 O86 2.105 . S
O69 Sc66 2.025 . S
O69 Sc67 2.025 . S
O69 Sc68 2.025 . S
C70 O76 1.268 . S
C70 O86 1.268 . S
C71 O77 1.268 . S
C71 O85 1.268 . S
C72 O78 1.268 . S
C72 O87 1.268 . S
C73 O79 1.268 . S
C73 O83 1.268 . S
C74 O80 1.268 . S
C74 O82 1.268 . S
C75 O81 1.268 . S
C75 O84 1.268 . S
O76 Sc66 2.105 . S
O76 C70 1.268 . S
O77 Sc67 2.105 . S
O77 C71 1.268 . S
O78 Sc68 2.105 . S
O78 C72 1.268 . S
O79 Sc66 2.105 . S
O79 C73 1.268 . S
O80 Sc68 2.105 . S
O80 C74 1.268 . S
O81 Sc67 2.105 . S
O81 C75 1.268 . S
O82 Sc66 2.105 . S
O82 C74 1.268 . S
O83 Sc67 2.105 . S
O83 C73 1.268 . S
O84 Sc68 2.105 . S
O84 C75 1.268 . S
O85 Sc66 2.105 . S
O85 C71 1.268 . S
O86 Sc68 2.105 . S
O86 C70 1.268 . S
O87 Sc67 2.105 . S
O87 C72 1.268 . S
C88 C89 1.244 1_455 S
C88 C93 1.461 1_455 S
C88 C98 1.465 . S
C89 C88 1.244 1_655 S
C89 C91 1.381 . S
C89 H116 0.911 1_655 S
C90 C91 1.395 . S
C90 C92 1.320 . S
C91 C89 1.381 . S
C91 C90 1.395 . S
C91 H117 0.929 . S
C92 C90 1.320 . S
C92 C93 1.448 . S
C92 H118 0.930 . S
C93 C88 1.461 1_655 S
C93 C92 1.448 . S
C93 H119 0.908 1_655 S
U94 O95 2.454 . S
U94 O96 2.458 . S
U94 C97 2.984 . S
U94 C98 2.847 . S
U94 C111 2.882 . S
U94 O112 2.441 . S
U94 O113 2.420 . S
U94 O114 2.455 . S
U94 O115 2.449 . S
O95 U94 2.454 . S
O95 C97 1.353 . S
O96 U94 2.458 . S
O96 C97 1.286 . S
C97 U94 2.984 . S
C97 O95 1.353 . S
C97 O96 1.286 . S
C97 C99 1.363 . S
C98 C88 1.465 . S
C98 U94 2.847 . S
C98 O112 1.249 . S
C98 O113 1.202 . S
C99 C97 1.363 . S
C99 C101 1.408 . S
C99 C104 1.342 . S
C100 C101 1.310 . S
C100 C103 1.461 . S
C100 H120 0.932 . S
C101 C99 1.408 . S
C101 C100 1.310 . S
C101 H121 0.930 . S
C102 C103 1.474 . S
C102 C104 1.285 . S
C102 H122 0.929 . S
C103 C100 1.461 . S
C103 C102 1.474 . S
C104 C99 1.342 . S
C104 C102 1.285 . S
C104 H123 0.930 . S
C105 C108 1.424 . S
C105 C110 1.245 . S
C105 C111 1.428 . S
C106 C109 1.260 . S
C106 C110 1.477 . S
C106 H124 0.932 . S
C107 C108 1.384 . S
C107 C109 1.479 . S
C107 H125 0.929 . S
C108 C105 1.424 . S
C108 C107 1.384 . S
C108 H126 0.928 . S
C109 C106 1.260 . S
C109 C107 1.479 . S
C110 C105 1.245 . S
C110 C106 1.477 . S
C110 H127 0.932 . S
C111 U94 2.882 . S
C111 C105 1.428 . S
C111 O114 1.301 . S
C111 O115 1.282 . S
O112 U94 2.441 . S
O112 C98 1.249 . S
O113 U94 2.420 . S
O113 C98 1.202 . S
O114 U94 2.455 . S
O114 C111 1.301 . S
O115 U94 2.449 . S
O115 C111 1.282 . S
H116 C89 0.911 1_455 S
H117 C91 0.929 . S
H118 C92 0.930 . S
H119 C93 0.908 1_455 S
H120 C100 0.932 . S
H121 C101 0.930 . S
H122 C102 0.929 . S
H123 C104 0.930 . S
H124 C106 0.932 . S
H125 C107 0.929 . S
H126 C108 0.928 . S
H127 C110 0.932 . S
C128 C129 1.264 . S
C128 C133 1.479 . S
C128 C138 1.465 . S
C129 C128 1.264 . S
C129 C131 1.339 . S
C129 H156 0.931 . S
C130 C131 1.395 . S
C130 C132 1.320 . S
C131 C129 1.339 . S
C131 C130 1.395 . S
C131 H157 0.929 . S
C132 C130 1.320 . S
C132 C133 1.405 . S
C132 H158 0.930 . S
C133 C128 1.479 . S
C133 C132 1.405 . S
C133 H159 0.931 . S
U134 O135 2.454 . S
U134 O136 2.458 . S
U134 C137 2.984 . S
U134 C138 2.847 . S
U134 C151 2.882 . S
U134 O152 2.441 . S
U134 O153 2.420 . S
U134 O154 2.455 . S
U134 O155 2.449 . S
O135 U134 2.454 . S
O135 C137 1.353 . S
O136 U134 2.458 . S
O136 C137 1.286 . S
C137 U134 2.984 . S
C137 O135 1.353 . S
C137 O136 1.286 . S
C137 C139 1.363 . S
C138 C128 1.465 . S
C138 U134 2.847 . S
C138 O152 1.249 . S
C138 O153 1.202 . S
C139 C137 1.363 . S
C139 C141 1.408 . S
C139 C144 1.342 . S
C140 C141 1.310 . S
C140 C143 1.461 . S
C140 H160 0.932 . S
C141 C139 1.408 . S
C141 C140 1.310 . S
C141 H161 0.930 . S
C142 C143 1.474 . S
C142 C144 1.285 . S
C142 H162 0.929 . S
C143 C140 1.461 . S
C143 C142 1.474 . S
C144 C139 1.342 . S
C144 C142 1.285 . S
C144 H163 0.930 . S
C145 C148 1.424 . S
C145 C150 1.245 . S
C145 C151 1.428 . S
C146 C149 1.260 . S
C146 C150 1.477 . S
C146 H164 0.932 . S
C147 C148 1.384 . S
C147 C149 1.479 . S
C147 H165 0.929 . S
C148 C145 1.424 . S
C148 C147 1.384 . S
C148 H166 0.928 . S
C149 C146 1.260 . S
C149 C147 1.479 . S
C150 C145 1.245 . S
C150 C146 1.477 . S
C150 H167 0.932 . S
C151 U134 2.882 . S
C151 C145 1.428 . S
C151 O154 1.301 . S
C151 O155 1.282 . S
O152 U134 2.441 . S
O152 C138 1.249 . S
O153 U134 2.420 . S
O153 C138 1.202 . S
O154 U134 2.455 . S
O154 C151 1.301 . S
O155 U134 2.449 . S
O155 C151 1.282 . S
H156 C129 0.931 . S
H157 C131 0.929 . S
H158 C132 0.930 . S
H159 C133 0.931 . S
H160 C140 0.932 . S
H161 C141 0.930 . S
H162 C142 0.929 . S
H163 C144 0.930 . S
H164 C146 0.932 . S
H165 C147 0.929 . S
H166 C148 0.928 . S
H167 C150 0.932 . S
C168 C169 1.264 . S
C168 C173 1.479 . S
C168 C178 1.465 . S
C169 C168 1.264 . S
C169 C171 1.339 . S
C169 H196 0.931 . S
C170 C171 1.395 . S
C170 C172 1.320 . S
C171 C169 1.339 . S
C171 C170 1.395 . S
C171 H197 0.929 . S
C172 C170 1.320 . S
C172 C173 1.405 . S
C172 H198 0.930 . S
C173 C168 1.479 . S
C173 C172 1.405 . S
C173 H199 0.931 . S
U174 O175 2.454 . S
U174 O176 2.458 . S
U174 C177 2.984 . S
U174 C178 2.847 . S
U174 C191 2.882 . S
U174 O192 2.441 . S
U174 O193 2.420 . S
U174 O194 2.455 . S
U174 O195 2.449 . S
O175 U174 2.454 . S
O175 C177 1.353 . S
O176 U174 2.458 . S
O176 C177 1.286 . S
C177 U174 2.984 . S
C177 O175 1.353 . S
C177 O176 1.286 . S
C177 C179 1.363 . S
C178 C168 1.465 . S
C178 U174 2.847 . S
C178 O192 1.249 . S
C178 O193 1.202 . S
C179 C177 1.363 . S
C179 C181 1.408 . S
C179 C184 1.342 . S
C180 C181 1.310 . S
C180 C183 1.461 . S
C180 H200 0.932 . S
C181 C179 1.408 . S
C181 C180 1.310 . S
C181 H201 0.930 . S
C182 C183 1.474 . S
C182 C184 1.285 . S
C182 H202 0.929 . S
C183 C180 1.461 . S
C183 C182 1.474 . S
C184 C179 1.342 . S
C184 C182 1.285 . S
C184 H203 0.930 . S
C185 C188 1.424 . S
C185 C190 1.245 . S
C185 C191 1.428 . S
C186 C189 1.260 . S
C186 C190 1.477 . S
C186 H204 0.932 . S
C187 C188 1.384 . S
C187 C189 1.479 . S
C187 H205 0.929 . S
C188 C185 1.424 . S
C188 C187 1.384 . S
C188 H206 0.928 . S
C189 C186 1.260 . S
C189 C187 1.479 . S
C190 C185 1.245 . S
C190 C186 1.477 . S
C190 H207 0.932 . S
C191 U174 2.882 . S
C191 C185 1.428 . S
C191 O194 1.301 . S
C191 O195 1.282 . S
O192 U174 2.441 . S
O192 C178 1.249 . S
O193 U174 2.420 . S
O193 C178 1.202 . S
O194 U174 2.455 . S
O194 C191 1.301 . S
O195 U174 2.449 . S
O195 C191 1.282 . S
H196 C169 0.931 . S
H197 C171 0.929 . S
H198 C172 0.930 . S
H199 C173 0.931 . S
H200 C180 0.932 . S
H201 C181 0.930 . S
H202 C182 0.929 . S
H203 C184 0.930 . S
H204 C186 0.932 . S
H205 C187 0.929 . S
H206 C188 0.928 . S
H207 C190 0.932 . S
C208 C209 1.264 . S
C208 C213 1.479 . S
C208 C218 1.465 . S
C209 C208 1.264 . S
C209 C211 1.339 . S
C209 H236 0.931 . S
C210 C211 1.395 . S
C210 C212 1.320 . S
C211 C209 1.339 . S
C211 C210 1.395 . S
C211 H237 0.929 . S
C212 C210 1.320 . S
C212 C213 1.405 . S
C212 H238 0.930 . S
C213 C208 1.479 . S
C213 C212 1.405 . S
C213 H239 0.931 . S
U214 O215 2.454 . S
U214 O216 2.458 . S
U214 C217 2.984 . S
U214 C218 2.847 . S
U214 C231 2.882 . S
U214 O232 2.441 . S
U214 O233 2.420 . S
U214 O234 2.455 . S
U214 O235 2.449 . S
O215 U214 2.454 . S
O215 C217 1.353 . S
O216 U214 2.458 . S
O216 C217 1.286 . S
C217 U214 2.984 . S
C217 O215 1.353 . S
C217 O216 1.286 . S
C217 C219 1.363 . S
C218 C208 1.465 . S
C218 U214 2.847 . S
C218 O232 1.249 . S
C218 O233 1.202 . S
C219 C217 1.363 . S
C219 C221 1.408 . S
C219 C224 1.342 . S
C220 C221 1.310 . S
C220 C223 1.461 . S
C220 H240 0.932 . S
C221 C219 1.408 . S
C221 C220 1.310 . S
C221 H241 0.930 . S
C222 C223 1.474 . S
C222 C224 1.285 . S
C222 H242 0.929 . S
C223 C220 1.461 . S
C223 C222 1.474 . S
C224 C219 1.342 . S
C224 C222 1.285 . S
C224 H243 0.930 . S
C225 C228 1.424 . S
C225 C230 1.245 . S
C225 C231 1.428 . S
C226 C229 1.260 . S
C226 C230 1.477 . S
C226 H244 0.932 . S
C227 C228 1.384 . S
C227 C229 1.479 . S
C227 H245 0.929 . S
C228 C225 1.424 . S
C228 C227 1.384 . S
C228 H246 0.928 . S
C229 C226 1.260 . S
C229 C227 1.479 . S
C230 C225 1.245 . S
C230 C226 1.477 . S
C230 H247 0.932 . S
C231 U214 2.882 . S
C231 C225 1.428 . S
C231 O234 1.301 . S
C231 O235 1.282 . S
O232 U214 2.441 . S
O232 C218 1.249 . S
O233 U214 2.420 . S
O233 C218 1.202 . S
O234 U214 2.455 . S
O234 C231 1.301 . S
O235 U214 2.449 . S
O235 C231 1.282 . S
H236 C209 0.931 . S
H237 C211 0.929 . S
H238 C212 0.930 . S
H239 C213 0.931 . S
H240 C220 0.932 . S
H241 C221 0.930 . S
H242 C222 0.929 . S
H243 C224 0.930 . S
H244 C226 0.932 . S
H245 C227 0.929 . S
H246 C228 0.928 . S
H247 C230 0.932 . S
C248 C249 1.264 . S
C248 C253 1.479 . S
C248 C258 1.465 . S
C249 C248 1.264 . S
C249 C251 1.339 . S
C249 H276 0.931 . S
C250 C251 1.395 . S
C250 C252 1.320 . S
C251 C249 1.339 . S
C251 C250 1.395 . S
C251 H277 0.929 . S
C252 C250 1.320 . S
C252 C253 1.405 . S
C252 H278 0.930 . S
C253 C248 1.479 . S
C253 C252 1.405 . S
C253 H279 0.931 . S
U254 O255 2.454 . S
U254 O256 2.458 . S
U254 C257 2.984 . S
U254 C258 2.847 . S
U254 C271 2.882 . S
U254 O272 2.441 . S
U254 O273 2.420 . S
U254 O274 2.455 . S
U254 O275 2.449 . S
O255 U254 2.454 . S
O255 C257 1.353 . S
O256 U254 2.458 . S
O256 C257 1.286 . S
C257 U254 2.984 . S
C257 O255 1.353 . S
C257 O256 1.286 . S
C257 C259 1.363 . S
C258 C248 1.465 . S
C258 U254 2.847 . S
C258 O272 1.249 . S
C258 O273 1.202 . S
C259 C257 1.363 . S
C259 C261 1.408 . S
C259 C264 1.342 . S
C260 C261 1.310 . S
C260 C263 1.461 . S
C260 H280 0.932 . S
C261 C259 1.408 . S
C261 C260 1.310 . S
C261 H281 0.930 . S
C262 C263 1.474 . S
C262 C264 1.285 . S
C262 H282 0.929 . S
C263 C260 1.461 . S
C263 C262 1.474 . S
C264 C259 1.342 . S
C264 C262 1.285 . S
C264 H283 0.930 . S
C265 C268 1.424 . S
C265 C270 1.245 . S
C265 C271 1.428 . S
C266 C269 1.260 . S
C266 C270 1.477 . S
C266 H284 0.932 . S
C267 C268 1.384 . S
C267 C269 1.479 . S
C267 H285 0.929 . S
C268 C265 1.424 . S
C268 C267 1.384 . S
C268 H286 0.928 . S
C269 C266 1.260 . S
C269 C267 1.479 . S
C270 C265 1.245 . S
C270 C266 1.477 . S
C270 H287 0.932 . S
C271 U254 2.882 . S
C271 C265 1.428 . S
C271 O274 1.301 . S
C271 O275 1.282 . S
O272 U254 2.441 . S
O272 C258 1.249 . S
O273 U254 2.420 . S
O273 C258 1.202 . S
O274 U254 2.455 . S
O274 C271 1.301 . S
O275 U254 2.449 . S
O275 C271 1.282 . S
H276 C249 0.931 . S
H277 C251 0.929 . S
H278 C252 0.930 . S
H279 C253 0.931 . S
H280 C260 0.932 . S
H281 C261 0.930 . S
H282 C262 0.929 . S
H283 C264 0.930 . S
H284 C266 0.932 . S
H285 C267 0.929 . S
H286 C268 0.928 . S
H287 C270 0.932 . S
C288 C289 1.264 . S
C288 C293 1.479 . S
C288 C298 1.465 . S
C289 C288 1.264 . S
C289 C291 1.339 . S
C289 H316 0.931 . S
C290 C291 1.395 . S
C290 C292 1.320 . S
C291 C289 1.339 . S
C291 C290 1.395 . S
C291 H317 0.929 . S
C292 C290 1.320 . S
C292 C293 1.405 . S
C292 H318 0.930 . S
C293 C288 1.479 . S
C293 C292 1.405 . S
C293 H319 0.931 . S
U294 O295 2.454 . S
U294 O296 2.458 . S
U294 C297 2.984 . S
U294 C298 2.847 . S
U294 C311 2.882 . S
U294 O312 2.441 . S
U294 O313 2.420 . S
U294 O314 2.455 . S
U294 O315 2.449 . S
O295 U294 2.454 . S
O295 C297 1.353 . S
O296 U294 2.458 . S
O296 C297 1.286 . S
C297 U294 2.984 . S
C297 O295 1.353 . S
C297 O296 1.286 . S
C297 C299 1.363 . S
C298 C288 1.465 . S
C298 U294 2.847 . S
C298 O312 1.249 . S
C298 O313 1.202 . S
C299 C297 1.363 . S
C299 C301 1.408 . S
C299 C304 1.342 . S
C300 C301 1.310 . S
C300 C303 1.461 . S
C300 H320 0.932 . S
C301 C299 1.408 . S
C301 C300 1.310 . S
C301 H321 0.930 . S
C302 C303 1.474 . S
C302 C304 1.285 . S
C302 H322 0.929 . S
C303 C300 1.461 . S
C303 C302 1.474 . S
C304 C299 1.342 . S
C304 C302 1.285 . S
C304 H323 0.930 . S
C305 C308 1.424 . S
C305 C310 1.245 . S
C305 C311 1.428 . S
C306 C309 1.260 . S
C306 C310 1.477 . S
C306 H324 0.932 . S
C307 C308 1.384 . S
C307 C309 1.479 . S
C307 H325 0.929 . S
C308 C305 1.424 . S
C308 C307 1.384 . S
C308 H326 0.928 . S
C309 C306 1.260 . S
C309 C307 1.479 . S
C310 C305 1.245 . S
C310 C306 1.477 . S
C310 H327 0.932 . S
C311 U294 2.882 . S
C311 C305 1.428 . S
C311 O314 1.301 . S
C311 O315 1.282 . S
O312 U294 2.441 . S
O312 C298 1.249 . S
O313 U294 2.420 . S
O313 C298 1.202 . S
O314 U294 2.455 . S
O314 C311 1.301 . S
O315 U294 2.449 . S
O315 C311 1.282 . S
H316 C289 0.931 . S
H317 C291 0.929 . S
H318 C292 0.930 . S
H319 C293 0.931 . S
H320 C300 0.932 . S
H321 C301 0.930 . S
H322 C302 0.929 . S
H323 C304 0.930 . S
H324 C306 0.932 . S
H325 C307 0.929 . S
H326 C308 0.928 . S
H327 C310 0.932 . S
C328 C329 1.264 . S
C328 C333 1.479 . S
C328 C338 1.465 . S
C329 C328 1.264 . S
C329 C331 1.339 . S
C329 H356 0.931 . S
C330 C331 1.395 . S
C330 C332 1.320 . S
C331 C329 1.339 . S
C331 C330 1.395 . S
C331 H357 0.929 . S
C332 C330 1.320 . S
C332 C333 1.405 . S
C332 H358 0.930 . S
C333 C328 1.479 . S
C333 C332 1.405 . S
C333 H359 0.931 . S
U334 O335 2.454 . S
U334 O336 2.458 . S
U334 C337 2.984 . S
U334 C338 2.847 . S
U334 C351 2.882 . S
U334 O352 2.441 . S
U334 O353 2.420 . S
U334 O354 2.455 . S
U334 O355 2.449 . S
O335 U334 2.454 . S
O335 C337 1.353 . S
O336 U334 2.458 . S
O336 C337 1.286 . S
C337 U334 2.984 . S
C337 O335 1.353 . S
C337 O336 1.286 . S
C337 C339 1.363 . S
C338 C328 1.465 . S
C338 U334 2.847 . S
C338 O352 1.249 . S
C338 O353 1.202 . S
C339 C337 1.363 . S
C339 C341 1.408 . S
C339 C344 1.342 . S
C340 C341 1.310 . S
C340 C343 1.461 . S
C340 H360 0.932 . S
C341 C339 1.408 . S
C341 C340 1.310 . S
C341 H361 0.930 . S
C342 C343 1.474 . S
C342 C344 1.285 . S
C342 H362 0.929 . S
C343 C340 1.461 . S
C343 C342 1.474 . S
C344 C339 1.342 . S
C344 C342 1.285 . S
C344 H363 0.930 . S
C345 C348 1.424 . S
C345 C350 1.245 . S
C345 C351 1.428 . S
C346 C349 1.260 . S
C346 C350 1.477 . S
C346 H364 0.932 . S
C347 C348 1.384 . S
C347 C349 1.479 . S
C347 H365 0.929 . S
C348 C345 1.424 . S
C348 C347 1.384 . S
C348 H366 0.928 . S
C349 C346 1.260 . S
C349 C347 1.479 . S
C350 C345 1.245 . S
C350 C346 1.477 . S
C350 H367 0.932 . S
C351 U334 2.882 . S
C351 C345 1.428 . S
C351 O354 1.301 . S
C351 O355 1.282 . S
O352 U334 2.441 . S
O352 C338 1.249 . S
O353 U334 2.420 . S
O353 C338 1.202 . S
O354 U334 2.455 . S
O354 C351 1.301 . S
O355 U334 2.449 . S
O355 C351 1.282 . S
H356 C329 0.931 . S
H357 C331 0.929 . S
H358 C332 0.930 . S
H359 C333 0.931 . S
H360 C340 0.932 . S
H361 C341 0.930 . S
H362 C342 0.929 . S
H363 C344 0.930 . S
H364 C346 0.932 . S
H365 C347 0.929 . S
H366 C348 0.928 . S
H367 C350 0.932 . S
C368 C369 1.264 . S
C368 C373 1.479 . S
C368 C378 1.465 . S
C369 C368 1.264 . S
C369 C371 1.339 . S
C369 H396 0.931 . S
C370 C371 1.395 . S
C370 C372 1.320 . S
C371 C369 1.339 . S
C371 C370 1.395 . S
C371 H397 0.929 . S
C372 C370 1.320 . S
C372 C373 1.405 . S
C372 H398 0.930 . S
C373 C368 1.479 . S
C373 C372 1.405 . S
C373 H399 0.931 . S
U374 O375 2.454 . S
U374 O376 2.458 . S
U374 C377 2.984 . S
U374 C378 2.847 . S
U374 C391 2.882 . S
U374 O392 2.441 . S
U374 O393 2.420 . S
U374 O394 2.455 . S
U374 O395 2.449 . S
O375 U374 2.454 . S
O375 C377 1.353 . S
O376 U374 2.458 . S
O376 C377 1.286 . S
C377 U374 2.984 . S
C377 O375 1.353 . S
C377 O376 1.286 . S
C377 C379 1.363 . S
C378 C368 1.465 . S
C378 U374 2.847 . S
C378 O392 1.249 . S
C378 O393 1.202 . S
C379 C377 1.363 . S
C379 C381 1.408 . S
C379 C384 1.342 . S
C380 C381 1.310 . S
C380 C383 1.461 . S
C380 H400 0.932 . S
C381 C379 1.408 . S
C381 C380 1.310 . S
C381 H401 0.930 . S
C382 C383 1.474 . S
C382 C384 1.285 . S
C382 H402 0.929 . S
C383 C380 1.461 . S
C383 C382 1.474 . S
C384 C379 1.342 . S
C384 C382 1.285 . S
C384 H403 0.930 . S
C385 C388 1.427 . S
C385 C390 1.245 . S
C385 C391 1.428 . S
C386 C389 1.260 . S
C386 C390 1.477 1_455 S
C386 H404 0.932 . S
C387 C388 1.378 1_455 S
C387 C389 1.479 . S
C387 H405 0.929 . S
C388 C385 1.427 . S
C388 C387 1.378 1_655 S
C388 H406 0.930 . S
C389 C386 1.260 . S
C389 C387 1.479 . S
C390 C385 1.245 . S
C390 C386 1.477 1_655 S
C390 H407 0.932 . S
C391 U374 2.882 . S
C391 C385 1.428 . S
C391 O394 1.301 . S
C391 O395 1.282 . S
O392 U374 2.441 . S
O392 C378 1.249 . S
O393 U374 2.420 . S
O393 C378 1.202 . S
O394 U374 2.455 . S
O394 C391 1.301 . S
O395 U374 2.449 . S
O395 C391 1.282 . S
H396 C369 0.931 . S
H397 C371 0.929 . S
H398 C372 0.930 . S
H399 C373 0.931 . S
H400 C380 0.932 . S
H401 C381 0.930 . S
H402 C382 0.929 . S
H403 C384 0.930 . S
H404 C386 0.932 . S
H405 C387 0.929 . S
H406 C388 0.930 . S
H407 C390 0.932 . S
H408 C426 0.951 . S
H409 C428 0.951 . S
H410 C430 0.950 . S
H411 C431 0.950 . S
H412 C433 0.950 . S
H413 C436 0.950 . S
H414 C437 0.950 . S
H415 C439 0.950 . S
H416 C440 0.950 . S
H417 C441 0.951 . S
H418 C443 0.951 . S
H419 C445 0.950 . S
H420 C446 0.929 1_545 S
H421 C448 0.950 . S
H422 C451 0.950 . S
H423 C452 0.950 . S
H424 C454 0.950 . S
H425 C455 0.950 . S
C426 H408 0.951 . S
C426 C427 1.366 . S
C426 C428 1.388 . S
C427 C426 1.366 . S
C427 C431 1.385 . S
C428 H409 0.951 . S
C428 C426 1.388 . S
C428 C429 1.366 . S
C429 C428 1.366 . S
C429 C430 1.414 . S
C429 C432 1.499 . S
C430 H410 0.950 . S
C430 C429 1.414 . S
C430 C431 1.374 . S
C431 H411 0.950 . S
C431 C427 1.385 . S
C431 C430 1.374 . S
C432 C429 1.499 . S
C432 C433 1.373 . S
C432 C434 1.389 . S
C433 H412 0.950 . S
C433 C432 1.373 . S
C433 C449 1.377 . S
C434 C432 1.389 . S
C434 C435 1.524 . S
C434 C448 1.377 . S
C435 C434 1.524 . S
C435 C436 1.397 . S
C435 C440 1.363 . S
C436 H413 0.950 . S
C436 C435 1.397 . S
C436 C437 1.334 . S
C437 H414 0.950 . S
C437 C436 1.334 . S
C437 C438 1.287 . S
C438 C437 1.287 . S
C438 C439 1.524 . S
C438 H457 0.913 . S
C439 H415 0.950 . S
C439 C438 1.524 . S
C439 C440 1.415 . S
C440 H416 0.950 . S
C440 C435 1.363 . S
C440 C439 1.415 . S
C441 H417 0.951 . S
C441 C442 1.366 . S
C441 C443 1.388 . S
C442 C441 1.366 . S
C442 C446 1.391 . S
C443 H418 0.951 . S
C443 C441 1.388 . S
C443 C444 1.366 . S
C444 C443 1.366 . S
C444 C445 1.414 . S
C444 C447 1.499 . S
C445 H419 0.950 . S
C445 C444 1.414 . S
C445 C446 1.389 . S
C446 H420 0.929 1_565 S
C446 C442 1.391 . S
C446 C445 1.389 . S
C447 C444 1.499 . S
C447 C448 1.373 . S
C447 C449 1.389 . S
C448 H421 0.950 . S
C448 C434 1.377 . S
C448 C447 1.373 . S
C449 C433 1.377 . S
C449 C447 1.389 . S
C449 C450 1.524 . S
C450 C449 1.524 . S
C450 C451 1.397 . S
C450 C455 1.363 . S
C451 H422 0.950 . S
C451 C450 1.397 . S
C451 C452 1.334 . S
C452 H423 0.950 . S
C452 C451 1.334 . S
C452 C453 1.287 . S
C453 C452 1.287 . S
C453 C454 1.524 . S
C453 H456 0.999 . S
C454 H424 0.950 . S
C454 C453 1.524 . S
C454 C455 1.415 . S
C455 H425 0.950 . S
C455 C450 1.363 . S
C455 C454 1.415 . S
H456 C453 0.999 . S
H457 C438 0.913 . S
H458 C476 0.951 . S
H459 C478 0.951 . S
H460 C480 0.950 . S
H461 C481 0.950 . S
H462 C483 0.950 . S
H463 C486 0.950 . S
H464 C487 0.950 . S
H465 C489 0.950 . S
H466 C490 0.950 . S
H467 C491 0.951 . S
H468 C493 0.951 . S
H469 C495 0.950 . S
H470 C496 0.950 . S
H471 C498 0.950 . S
H472 C501 0.950 . S
H473 C502 0.950 . S
H474 C504 0.950 . S
H475 C505 0.950 . S
C476 H458 0.951 . S
C476 C477 1.366 . S
C476 C478 1.388 . S
C477 C476 1.366 . S
C477 C481 1.385 . S
C478 H459 0.951 . S
C478 C476 1.388 . S
C478 C479 1.366 . S
C479 C478 1.366 . S
C479 C480 1.414 . S
C479 C482 1.499 . S
C480 H460 0.950 . S
C480 C479 1.414 . S
C480 C481 1.374 . S
C481 H461 0.950 . S
C481 C477 1.385 . S
C481 C480 1.374 . S
C482 C479 1.499 . S
C482 C483 1.373 . S
C482 C484 1.389 . S
C483 H462 0.950 . S
C483 C482 1.373 . S
C483 C499 1.377 . S
C484 C482 1.389 . S
C484 C485 1.524 . S
C484 C498 1.377 . S
C485 C484 1.524 . S
C485 C486 1.397 . S
C485 C490 1.363 . S
C486 H463 0.950 . S
C486 C485 1.397 . S
C486 C487 1.334 . S
C487 H464 0.950 . S
C487 C486 1.334 . S
C487 C488 1.287 . S
C488 C487 1.287 . S
C488 C489 1.524 . S
C488 H507 0.913 . S
C489 H465 0.950 . S
C489 C488 1.524 . S
C489 C490 1.415 . S
C490 H466 0.950 . S
C490 C485 1.363 . S
C490 C489 1.415 . S
C491 H467 0.951 . S
C491 C492 1.366 . S
C491 C493 1.388 . S
C492 C491 1.366 . S
C492 C496 1.385 . S
C493 H468 0.951 . S
C493 C491 1.388 . S
C493 C494 1.366 . S
C494 C493 1.366 . S
C494 C495 1.414 . S
C494 C497 1.499 . S
C495 H469 0.950 . S
C495 C494 1.414 . S
C495 C496 1.374 . S
C496 H470 0.950 . S
C496 C492 1.385 . S
C496 C495 1.374 . S
C497 C494 1.499 . S
C497 C498 1.373 . S
C497 C499 1.389 . S
C498 H471 0.950 . S
C498 C484 1.377 . S
C498 C497 1.373 . S
C499 C483 1.377 . S
C499 C497 1.389 . S
C499 C500 1.524 . S
C500 C499 1.524 . S
C500 C501 1.397 . S
C500 C505 1.363 . S
C501 H472 0.950 . S
C501 C500 1.397 . S
C501 C502 1.334 . S
C502 H473 0.950 . S
C502 C501 1.334 . S
C502 C503 1.287 . S
C503 C502 1.287 . S
C503 C504 1.524 . S
C503 H506 0.999 . S
C504 H474 0.950 . S
C504 C503 1.524 . S
C504 C505 1.415 . S
C505 H475 0.950 . S
C505 C500 1.363 . S
C505 C504 1.415 . S
H506 C503 0.999 . S
H507 C488 0.913 . S
H508 C526 0.951 . S
H509 C528 0.951 . S
H510 C530 0.950 . S
H511 C531 0.950 . S
H512 C533 0.950 . S
H513 C536 0.950 . S
H514 C537 0.950 . S
H515 C539 0.950 . S
H516 C540 0.950 . S
H517 C541 0.951 . S
H518 C543 0.951 . S
H519 C545 0.950 1_545 S
H520 C546 0.950 . S
H521 C548 0.950 . S
H522 C551 0.950 . S
H523 C552 0.950 . S
H524 C554 0.950 . S
H525 C555 0.950 . S
C526 H508 0.951 . S
C526 C527 1.366 . S
C526 C528 1.388 . S
C527 C526 1.366 . S
C527 C531 1.385 . S
C528 H509 0.951 . S
C528 C526 1.388 . S
C528 C529 1.366 . S
C529 C528 1.366 . S
C529 C530 1.414 . S
C529 C532 1.499 . S
C530 H510 0.950 . S
C530 C529 1.414 . S
C530 C531 1.374 . S
C531 H511 0.950 . S
C531 C527 1.385 . S
C531 C530 1.374 . S
C532 C529 1.499 . S
C532 C533 1.373 . S
C532 C534 1.389 . S
C533 H512 0.950 . S
C533 C532 1.373 . S
C533 C549 1.377 . S
C534 C532 1.389 . S
C534 C535 1.524 . S
C534 C548 1.377 . S
C535 C534 1.524 . S
C535 C536 1.397 . S
C535 C540 1.363 . S
C536 H513 0.950 . S
C536 C535 1.397 . S
C536 C537 1.334 . S
C537 H514 0.950 . S
C537 C536 1.334 . S
C537 C538 1.287 . S
C538 C537 1.287 . S
C538 C539 1.524 . S
C538 H557 0.913 . S
C539 H515 0.950 . S
C539 C538 1.524 . S
C539 C540 1.415 . S
C540 H516 0.950 . S
C540 C535 1.363 . S
C540 C539 1.415 . S
C541 H517 0.951 . S
C541 C542 1.366 . S
C541 C543 1.388 . S
C542 C541 1.366 . S
C542 C546 1.385 . S
C543 H518 0.951 . S
C543 C541 1.388 . S
C543 C544 1.373 . S
C544 C543 1.373 . S
C544 C545 1.417 . S
C544 C547 1.488 1_565 S
C545 H519 0.950 1_565 S
C545 C544 1.417 . S
C545 C546 1.374 . S
C546 H520 0.950 . S
C546 C542 1.385 . S
C546 C545 1.374 . S
C547 C544 1.488 1_545 S
C547 C548 1.373 . S
C547 C549 1.389 . S
C548 H521 0.950 . S
C548 C534 1.377 . S
C548 C547 1.373 . S
C549 C533 1.377 . S
C549 C547 1.389 . S
C549 C550 1.524 . S
C550 C549 1.524 . S
C550 C551 1.397 . S
C550 C555 1.363 . S
C551 H522 0.950 . S
C551 C550 1.397 . S
C551 C552 1.334 . S
C552 H523 0.950 . S
C552 C551 1.334 . S
C552 C553 1.287 . S
C553 C552 1.287 . S
C553 C554 1.524 . S
C553 H556 0.999 . S
C554 H524 0.950 . S
C554 C553 1.524 . S
C554 C555 1.415 . S
C555 H525 0.950 . S
C555 C550 1.363 . S
C555 C554 1.415 . S
H556 C553 0.999 . S
H557 C538 0.913 . S
H558 C576 0.951 . S
H559 C578 0.951 . S
H560 C580 0.950 . S
H561 C581 0.950 . S
H562 C583 0.950 . S
H563 C586 0.950 . S
H564 C587 0.950 . S
H565 C589 0.950 . S
H566 C590 0.950 . S
H567 C591 0.951 . S
H568 C593 0.951 . S
H569 C595 0.950 . S
H570 C596 0.950 . S
H571 C598 0.950 . S
H572 C601 0.950 . S
H573 C602 0.950 . S
H574 C604 0.950 . S
H575 C605 0.950 . S
C576 H558 0.951 . S
C576 C577 1.366 . S
C576 C578 1.388 . S
C577 C576 1.366 . S
C577 C581 1.385 . S
C578 H559 0.951 . S
C578 C576 1.388 . S
C578 C579 1.366 . S
C579 C578 1.366 . S
C579 C580 1.414 . S
C579 C582 1.499 . S
C580 H560 0.950 . S
C580 C579 1.414 . S
C580 C581 1.374 . S
C581 H561 0.950 . S
C581 C577 1.385 . S
C581 C580 1.374 . S
C582 C579 1.499 . S
C582 C583 1.373 . S
C582 C584 1.389 . S
C583 H562 0.950 . S
C583 C582 1.373 . S
C583 C599 1.377 . S
C584 C582 1.389 . S
C584 C585 1.524 . S
C584 C598 1.377 . S
C585 C584 1.524 . S
C585 C586 1.397 . S
C585 C590 1.363 . S
C586 H563 0.950 . S
C586 C585 1.397 . S
C586 C587 1.334 . S
C587 H564 0.950 . S
C587 C586 1.334 . S
C587 C588 1.287 . S
C588 C587 1.287 . S
C588 C589 1.524 . S
C588 H607 0.913 . S
C589 H565 0.950 . S
C589 C588 1.524 . S
C589 C590 1.415 . S
C590 H566 0.950 . S
C590 C585 1.363 . S
C590 C589 1.415 . S
C591 H567 0.951 . S
C591 C592 1.366 . S
C591 C593 1.388 . S
C592 C591 1.366 . S
C592 C596 1.385 . S
C593 H568 0.951 . S
C593 C591 1.388 . S
C593 C594 1.366 . S
C594 C593 1.366 . S
C594 C595 1.414 . S
C594 C597 1.499 . S
C595 H569 0.950 . S
C595 C594 1.414 . S
C595 C596 1.374 . S
C596 H570 0.950 . S
C596 C592 1.385 . S
C596 C595 1.374 . S
C597 C594 1.499 . S
C597 C598 1.373 . S
C597 C599 1.389 . S
C598 H571 0.950 . S
C598 C584 1.377 . S
C598 C597 1.373 . S
C599 C583 1.377 . S
C599 C597 1.389 . S
C599 C600 1.524 . S
C600 C599 1.524 . S
C600 C601 1.397 . S
C600 C605 1.363 . S
C601 H572 0.950 . S
C601 C600 1.397 . S
C601 C602 1.334 . S
C602 H573 0.950 . S
C602 C601 1.334 . S
C602 C603 1.287 . S
C603 C602 1.287 . S
C603 C604 1.524 . S
C603 H606 0.999 . S
C604 H574 0.950 . S
C604 C603 1.524 . S
C604 C605 1.415 . S
C605 H575 0.950 . S
C605 C600 1.363 . S
C605 C604 1.415 . S
H606 C603 0.999 . S
H607 C588 0.913 . S
H608 C626 0.951 . S
H609 C628 0.951 . S
H610 C630 0.950 . S
H611 C631 0.950 . S
H612 C633 0.950 . S
H613 C636 0.950 . S
H614 C637 0.950 . S
H615 C639 0.950 . S
H616 C640 0.950 . S
H617 C641 0.951 . S
H618 C643 0.951 . S
H619 C645 0.950 . S
H620 C646 0.950 . S
H621 C648 0.950 . S
H622 C651 0.950 . S
H623 C652 0.950 . S
H624 C654 0.950 . S
H625 C655 0.950 . S
C626 H608 0.951 . S
C626 C627 1.366 . S
C626 C628 1.388 . S
C627 C626 1.366 . S
C627 C631 1.385 . S
C628 H609 0.951 . S
C628 C626 1.388 . S
C628 C629 1.366 . S
C629 C628 1.366 . S
C629 C630 1.414 . S
C629 C632 1.499 . S
C630 H610 0.950 . S
C630 C629 1.414 . S
C630 C631 1.374 . S
C631 H611 0.950 . S
C631 C627 1.385 . S
C631 C630 1.374 . S
C632 C629 1.499 . S
C632 C633 1.373 . S
C632 C634 1.389 . S
C633 H612 0.950 . S
C633 C632 1.373 . S
C633 C649 1.377 . S
C634 C632 1.389 . S
C634 C635 1.524 . S
C634 C648 1.377 . S
C635 C634 1.524 . S
C635 C636 1.397 . S
C635 C640 1.363 . S
C636 H613 0.950 . S
C636 C635 1.397 . S
C636 C637 1.334 . S
C637 H614 0.950 . S
C637 C636 1.334 . S
C637 C638 1.287 . S
C638 C637 1.287 . S
C638 C639 1.524 . S
C638 H657 0.913 . S
C639 H615 0.950 . S
C639 C638 1.524 . S
C639 C640 1.415 . S
C640 H616 0.950 . S
C640 C635 1.363 . S
C640 C639 1.415 . S
C641 H617 0.951 . S
C641 C642 1.366 . S
C641 C643 1.388 . S
C642 C641 1.366 . S
C642 C646 1.385 . S
C643 H618 0.951 . S
C643 C641 1.388 . S
C643 C644 1.366 . S
C644 C643 1.366 . S
C644 C645 1.414 . S
C644 C647 1.499 . S
C645 H619 0.950 . S
C645 C644 1.414 . S
C645 C646 1.374 . S
C646 H620 0.950 . S
C646 C642 1.385 . S
C646 C645 1.374 . S
C647 C644 1.499 . S
C647 C648 1.373 . S
C647 C649 1.389 . S
C648 H621 0.950 . S
C648 C634 1.377 . S
C648 C647 1.373 . S
C649 C633 1.377 . S
C649 C647 1.389 . S
C649 C650 1.524 . S
C650 C649 1.524 . S
C650 C651 1.397 . S
C650 C655 1.363 . S
C651 H622 0.950 . S
C651 C650 1.397 . S
C651 C652 1.334 . S
C652 H623 0.950 . S
C652 C651 1.334 . S
C652 C653 1.287 . S
C653 C652 1.287 . S
C653 C654 1.524 . S
C653 H656 0.999 . S
C654 H624 0.950 . S
C654 C653 1.524 . S
C654 C655 1.415 . S
C655 H625 0.950 . S
C655 C650 1.363 . S
C655 C654 1.415 . S
H656 C653 0.999 . S
H657 C638 0.913 . S
H658 C676 0.951 . S
H659 C678 0.951 . S
H660 C680 0.950 1_554 S
H661 C681 0.950 1_554 S
H662 C683 0.950 . S
H663 C686 0.950 . S
H664 C687 0.950 . S
H665 C689 0.950 . S
H666 C690 0.950 1_455 S
H667 C691 0.951 . S
H668 C693 0.951 . S
H669 C695 0.950 . S
H670 C696 0.950 . S
H671 C698 0.950 . S
H672 C701 0.950 . S
H673 C702 0.950 . S
H674 C704 0.950 . S
H675 C705 0.950 . S
C676 H658 0.951 . S
C676 C677 1.366 . S
C676 C678 1.388 . S
C677 C676 1.366 . S
C677 C681 1.385 . S
C678 H659 0.951 . S
C678 C676 1.388 . S
C678 C679 1.366 . S
C679 C678 1.366 . S
C679 C680 1.414 . S
C679 C682 1.499 . S
C680 H660 0.950 1_556 S
C680 C679 1.414 . S
C680 C681 1.374 . S
C681 H661 0.950 1_556 S
C681 C677 1.385 . S
C681 C680 1.374 . S
C682 C679 1.499 . S
C682 C683 1.373 1_655 S
C682 C684 1.389 1_655 S
C683 H662 0.950 . S
C683 C682 1.373 1_455 S
C683 C699 1.377 . S
C684 C682 1.389 1_455 S
C684 C685 1.524 1_455 S
C684 C698 1.377 . S
C685 C684 1.524 1_655 S
C685 C686 1.397 . S
C685 C690 1.363 . S
C686 H663 0.950 . S
C686 C685 1.397 . S
C686 C687 1.334 . S
C687 H664 0.950 . S
C687 C686 1.334 . S
C687 C688 1.287 . S
C688 C687 1.287 . S
C688 C689 1.524 . S
C688 H707 0.913 . S
C689 H665 0.950 . S
C689 C688 1.524 . S
C689 C690 1.415 . S
C690 H666 0.950 1_655 S
C690 C685 1.363 . S
C690 C689 1.415 . S
C691 H667 0.951 . S
C691 C692 1.366 . S
C691 C693 1.388 . S
C692 C691 1.366 . S
C692 C696 1.385 . S
C693 H668 0.951 . S
C693 C691 1.388 . S
C693 C694 1.366 . S
C694 C693 1.366 . S
C694 C695 1.414 . S
C694 C697 1.499 . S
C695 H669 0.950 . S
C695 C694 1.414 . S
C695 C696 1.374 . S
C696 H670 0.950 . S
C696 C692 1.385 . S
C696 C695 1.374 . S
C697 C694 1.499 . S
C697 C698 1.373 . S
C697 C699 1.389 . S
C698 H671 0.950 . S
C698 C684 1.377 . S
C698 C697 1.373 . S
C699 C683 1.377 . S
C699 C697 1.389 . S
C699 C700 1.524 . S
C700 C699 1.524 . S
C700 C701 1.397 . S
C700 C705 1.363 1_556 S
C701 H672 0.950 . S
C701 C700 1.397 . S
C701 C702 1.334 . S
C702 H673 0.950 . S
C702 C701 1.334 . S
C702 C703 1.287 1_556 S
C703 C702 1.287 1_554 S
C703 C704 1.524 . S
C703 H706 0.999 . S
C704 H674 0.950 . S
C704 C703 1.524 . S
C704 C705 1.415 . S
C705 H675 0.950 . S
C705 C700 1.363 1_554 S
C705 C704 1.415 . S
H706 C703 0.999 . S
H707 C688 0.913 . S
H708 C726 0.951 . S
H709 C728 0.951 . S
H710 C730 0.950 . S
H711 C731 0.950 . S
H712 C733 0.950 . S
H713 C736 0.950 . S
H714 C737 0.950 . S
H715 C739 0.950 . S
H716 C740 0.950 . S
H717 C741 0.951 . S
H718 C743 0.951 . S
H719 C745 0.950 . S
H720 C746 0.950 . S
H721 C748 0.950 . S
H722 C751 0.950 . S
H723 C752 0.950 . S
H724 C754 0.950 . S
H725 C755 0.950 . S
C726 H708 0.951 . S
C726 C727 1.366 . S
C726 C728 1.388 . S
C727 C726 1.366 . S
C727 C731 1.385 . S
C728 H709 0.951 . S
C728 C726 1.388 . S
C728 C729 1.366 . S
C729 C728 1.366 . S
C729 C730 1.414 . S
C729 C732 1.499 . S
C730 H710 0.950 . S
C730 C729 1.414 . S
C730 C731 1.374 . S
C731 H711 0.950 . S
C731 C727 1.385 . S
C731 C730 1.374 . S
C732 C729 1.499 . S
C732 C733 1.373 . S
C732 C734 1.389 . S
C733 H712 0.950 . S
C733 C732 1.373 . S
C733 C749 1.377 . S
C734 C732 1.389 . S
C734 C735 1.524 . S
C734 C748 1.377 . S
C735 C734 1.524 . S
C735 C736 1.397 . S
C735 C740 1.363 . S
C736 H713 0.950 . S
C736 C735 1.397 . S
C736 C737 1.334 . S
C737 H714 0.950 . S
C737 C736 1.334 . S
C737 C738 1.287 . S
C738 C737 1.287 . S
C738 C739 1.524 . S
C738 H757 0.913 . S
C739 H715 0.950 . S
C739 C738 1.524 . S
C739 C740 1.415 . S
C740 H716 0.950 . S
C740 C735 1.363 . S
C740 C739 1.415 . S
C741 H717 0.951 . S
C741 C742 1.366 . S
C741 C743 1.388 . S
C742 C741 1.366 . S
C742 C746 1.385 . S
C743 H718 0.951 . S
C743 C741 1.388 . S
C743 C744 1.366 . S
C744 C743 1.366 . S
C744 C745 1.414 . S
C744 C747 1.499 . S
C745 H719 0.950 . S
C745 C744 1.414 . S
C745 C746 1.374 . S
C746 H720 0.950 . S
C746 C742 1.385 . S
C746 C745 1.374 . S
C747 C744 1.499 . S
C747 C748 1.373 . S
C747 C749 1.389 . S
C748 H721 0.950 . S
C748 C734 1.377 . S
C748 C747 1.373 . S
C749 C733 1.377 . S
C749 C747 1.389 . S
C749 C750 1.524 . S
C750 C749 1.524 . S
C750 C751 1.397 . S
C750 C755 1.363 . S
C751 H722 0.950 . S
C751 C750 1.397 . S
C751 C752 1.334 . S
C752 H723 0.950 . S
C752 C751 1.334 . S
C752 C753 1.287 . S
C753 C752 1.287 . S
C753 C754 1.524 . S
C753 H756 0.999 . S
C754 H724 0.950 . S
C754 C753 1.524 . S
C754 C755 1.415 . S
C755 H725 0.950 . S
C755 C750 1.363 . S
C755 C754 1.415 . S
H756 C753 0.999 . S
H757 C738 0.913 . S
H758 C776 0.951 . S
H759 C778 0.951 . S
H760 C780 0.950 . S
H761 C781 0.950 . S
H762 C783 0.950 . S
H763 C786 0.950 . S
H764 C787 0.950 . S
H765 C789 0.950 . S
H766 C790 0.950 . S
H767 C791 0.951 . S
H768 C793 0.951 . S
H769 C795 0.950 . S
H770 C796 0.950 . S
H771 C798 0.950 . S
H772 C801 0.950 . S
H773 C802 0.950 . S
H774 C804 0.950 . S
H775 C805 0.950 . S
C776 H758 0.951 . S
C776 C777 1.366 . S
C776 C778 1.388 . S
C777 C776 1.366 . S
C777 C781 1.385 . S
C778 H759 0.951 . S
C778 C776 1.388 . S
C778 C779 1.366 . S
C779 C778 1.366 . S
C779 C780 1.414 . S
C779 C782 1.499 . S
C780 H760 0.950 . S
C780 C779 1.414 . S
C780 C781 1.374 . S
C781 H761 0.950 . S
C781 C777 1.385 . S
C781 C780 1.374 . S
C782 C779 1.499 . S
C782 C783 1.373 . S
C782 C784 1.389 . S
C783 H762 0.950 . S
C783 C782 1.373 . S
C783 C799 1.377 . S
C784 C782 1.389 . S
C784 C785 1.524 . S
C784 C798 1.377 . S
C785 C784 1.524 . S
C785 C786 1.397 . S
C785 C790 1.363 . S
C786 H763 0.950 . S
C786 C785 1.397 . S
C786 C787 1.334 . S
C787 H764 0.950 . S
C787 C786 1.334 . S
C787 C788 1.287 . S
C788 C787 1.287 . S
C788 C789 1.524 . S
C788 H807 0.913 . S
C789 H765 0.950 . S
C789 C788 1.524 . S
C789 C790 1.415 . S
C790 H766 0.950 . S
C790 C785 1.363 . S
C790 C789 1.415 . S
C791 H767 0.951 . S
C791 C792 1.366 . S
C791 C793 1.388 . S
C792 C791 1.366 . S
C792 C796 1.385 . S
C793 H768 0.951 . S
C793 C791 1.388 . S
C793 C794 1.366 . S
C794 C793 1.366 . S
C794 C795 1.414 . S
C794 C797 1.499 . S
C795 H769 0.950 . S
C795 C794 1.414 . S
C795 C796 1.374 . S
C796 H770 0.950 . S
C796 C792 1.385 . S
C796 C795 1.374 . S
C797 C794 1.499 . S
C797 C798 1.373 . S
C797 C799 1.389 . S
C798 H771 0.950 . S
C798 C784 1.377 . S
C798 C797 1.373 . S
C799 C783 1.377 . S
C799 C797 1.389 . S
C799 C800 1.524 . S
C800 C799 1.524 . S
C800 C801 1.397 . S
C800 C805 1.363 . S
C801 H772 0.950 . S
C801 C800 1.397 . S
C801 C802 1.334 1_455 S
C802 H773 0.950 . S
C802 C801 1.334 1_655 S
C802 C803 1.287 . S
C803 C802 1.287 . S
C803 C804 1.524 1_655 S
C803 H806 0.999 . S
C804 H774 0.950 . S
C804 C803 1.524 1_455 S
C804 C805 1.415 . S
C805 H775 0.950 . S
C805 C800 1.363 . S
C805 C804 1.415 . S
H806 C803 0.999 . S
H807 C788 0.913 . S
H808 C826 0.951 . S
H809 C828 0.951 . S
H810 C830 0.950 . S
H811 C831 0.950 . S
H812 C833 0.950 . S
H813 C836 0.950 . S
H814 C837 0.950 . S
H815 C839 0.950 . S
H816 C840 0.950 . S
H817 C841 0.951 . S
H818 C843 0.951 . S
H819 C845 0.950 . S
H820 C846 0.950 . S
H821 C848 0.950 . S
H822 C851 0.950 . S
H823 C852 0.950 . S
H824 C854 0.950 . S
H825 C855 0.950 . S
C826 H808 0.951 . S
C826 C827 1.366 . S
C826 C828 1.388 . S
C827 C826 1.366 . S
C827 C831 1.385 . S
C828 H809 0.951 . S
C828 C826 1.388 . S
C828 C829 1.366 . S
C829 C828 1.366 . S
C829 C830 1.414 . S
C829 C832 1.499 . S
C830 H810 0.950 . S
C830 C829 1.414 . S
C830 C831 1.374 . S
C831 H811 0.950 . S
C831 C827 1.385 . S
C831 C830 1.374 . S
C832 C829 1.499 . S
C832 C833 1.373 . S
C832 C834 1.389 . S
C833 H812 0.950 . S
C833 C832 1.373 . S
C833 C849 1.377 . S
C834 C832 1.389 . S
C834 C835 1.524 . S
C834 C848 1.377 . S
C835 C834 1.524 . S
C835 C836 1.397 . S
C835 C840 1.363 . S
C836 H813 0.950 . S
C836 C835 1.397 . S
C836 C837 1.334 . S
C837 H814 0.950 . S
C837 C836 1.334 . S
C837 C838 1.287 . S
C838 C837 1.287 . S
C838 C839 1.524 . S
C838 H857 0.913 . S
C839 H815 0.950 . S
C839 C838 1.524 . S
C839 C840 1.415 . S
C840 H816 0.950 . S
C840 C835 1.363 . S
C840 C839 1.415 . S
C841 H817 0.951 . S
C841 C842 1.366 . S
C841 C843 1.388 . S
C842 C841 1.366 . S
C842 C846 1.385 . S
C843 H818 0.951 . S
C843 C841 1.388 . S
C843 C844 1.366 . S
C844 C843 1.366 . S
C844 C845 1.414 . S
C844 C847 1.499 . S
C845 H819 0.950 . S
C845 C844 1.414 . S
C845 C846 1.374 . S
C846 H820 0.950 . S
C846 C842 1.385 . S
C846 C845 1.374 . S
C847 C844 1.499 . S
C847 C848 1.373 . S
C847 C849 1.389 . S
C848 H821 0.950 . S
C848 C834 1.377 . S
C848 C847 1.373 . S
C849 C833 1.377 . S
C849 C847 1.389 . S
C849 C850 1.524 . S
C850 C849 1.524 . S
C850 C851 1.397 . S
C850 C855 1.363 . S
C851 H822 0.950 . S
C851 C850 1.397 . S
C851 C852 1.334 . S
C852 H823 0.950 . S
C852 C851 1.334 . S
C852 C853 1.287 . S
C853 C852 1.287 . S
C853 C854 1.524 . S
C853 H856 0.999 . S
C854 H824 0.950 . S
C854 C853 1.524 . S
C854 C855 1.415 . S
C855 H825 0.950 . S
C855 C850 1.363 . S
C855 C854 1.415 . S
H856 C853 0.999 . S
H857 C838 0.913 . S
H858 C876 0.951 . S
H859 C878 0.951 . S
H860 C880 0.950 . S
H861 C881 0.950 . S
H862 C883 0.950 . S
H863 C886 0.950 . S
H864 C887 0.950 . S
H865 C889 0.950 . S
H866 C890 0.950 . S
H867 C891 0.951 . S
H868 C893 0.951 . S
H869 C895 0.950 . S
H870 C896 0.950 . S
H871 C898 0.950 . S
H872 C901 0.950 . S
H873 C902 0.950 . S
H874 C904 0.950 . S
H875 C905 0.950 . S
C876 H858 0.951 . S
C876 C877 1.366 . S
C876 C878 1.388 . S
C877 C876 1.366 . S
C877 C881 1.385 . S
C878 H859 0.951 . S
C878 C876 1.388 . S
C878 C879 1.366 . S
C879 C878 1.366 . S
C879 C880 1.414 . S
C879 C882 1.499 . S
C880 H860 0.950 . S
C880 C879 1.414 . S
C880 C881 1.374 . S
C881 H861 0.950 . S
C881 C877 1.385 . S
C881 C880 1.374 . S
C882 C879 1.499 . S
C882 C883 1.373 . S
C882 C884 1.389 . S
C883 H862 0.950 . S
C883 C882 1.373 . S
C883 C899 1.377 . S
C884 C882 1.389 . S
C884 C885 1.524 . S
C884 C898 1.377 . S
C885 C884 1.524 . S
C885 C886 1.397 . S
C885 C890 1.363 . S
C886 H863 0.950 . S
C886 C885 1.397 . S
C886 C887 1.334 . S
C887 H864 0.950 . S
C887 C886 1.334 . S
C887 C888 1.287 . S
C888 C887 1.287 . S
C888 C889 1.524 . S
C888 H907 0.913 . S
C889 H865 0.950 . S
C889 C888 1.524 . S
C889 C890 1.415 . S
C890 H866 0.950 . S
C890 C885 1.363 . S
C890 C889 1.415 . S
C891 H867 0.951 . S
C891 C892 1.366 . S
C891 C893 1.388 . S
C892 C891 1.366 . S
C892 C896 1.385 . S
C893 H868 0.951 . S
C893 C891 1.388 . S
C893 C894 1.366 . S
C894 C893 1.366 . S
C894 C895 1.414 . S
C894 C897 1.499 . S
C895 H869 0.950 . S
C895 C894 1.414 . S
C895 C896 1.374 . S
C896 H870 0.950 . S
C896 C892 1.385 . S
C896 C895 1.374 . S
C897 C894 1.499 . S
C897 C898 1.373 . S
C897 C899 1.389 . S
C898 H871 0.950 . S
C898 C884 1.377 . S
C898 C897 1.373 . S
C899 C883 1.377 . S
C899 C897 1.389 . S
C899 C900 1.524 . S
C900 C899 1.524 . S
C900 C901 1.397 . S
C900 C905 1.363 . S
C901 H872 0.950 . S
C901 C900 1.397 . S
C901 C902 1.334 . S
C902 H873 0.950 . S
C902 C901 1.334 . S
C902 C903 1.287 . S
C903 C902 1.287 . S
C903 C904 1.524 . S
C903 H906 0.999 . S
C904 H874 0.950 . S
C904 C903 1.524 . S
C904 C905 1.415 . S
C905 H875 0.950 . S
C905 C900 1.363 . S
C905 C904 1.415 . S
H906 C903 0.999 . S
H907 C888 0.913 . S
H908 C926 0.951 . S
H909 C928 0.951 . S
H910 C930 0.950 . S
H911 C931 0.950 . S
H912 C933 0.950 . S
H913 C936 0.950 . S
H914 C937 0.950 . S
H915 C939 0.950 . S
H916 C940 0.950 . S
H917 C941 0.951 . S
H918 C943 0.951 . S
H919 C945 0.950 1_565 S
H920 C946 0.950 . S
H921 C948 0.950 . S
H922 C951 0.950 1_565 S
H923 C952 0.950 . S
H924 C954 0.950 . S
H925 C955 0.950 . S
C926 H908 0.951 . S
C926 C927 1.366 1_556 S
C926 C928 1.388 . S
C927 C926 1.366 1_554 S
C927 C931 1.385 . S
C928 H909 0.951 . S
C928 C926 1.388 . S
C928 C929 1.366 . S
C929 C928 1.366 . S
C929 C930 1.414 1_556 S
C929 C932 1.499 . S
C930 H910 0.950 . S
C930 C929 1.414 1_554 S
C930 C931 1.374 . S
C931 H911 0.950 . S
C931 C927 1.385 . S
C931 C930 1.374 . S
C932 C929 1.499 . S
C932 C933 1.373 . S
C932 C934 1.389 . S
C933 H912 0.950 . S
C933 C932 1.373 . S
C933 C949 1.377 . S
C934 C932 1.389 . S
C934 C935 1.524 . S
C934 C948 1.377 . S
C935 C934 1.524 . S
C935 C936 1.397 1_556 S
C935 C940 1.363 . S
C936 H913 0.950 . S
C936 C935 1.397 1_554 S
C936 C937 1.334 . S
C937 H914 0.950 . S
C937 C936 1.334 . S
C937 C938 1.287 . S
C938 C937 1.287 . S
C938 C939 1.524 1_554 S
C938 H957 0.913 . S
C939 H915 0.950 . S
C939 C938 1.524 1_556 S
C939 C940 1.415 . S
C940 H916 0.950 . S
C940 C935 1.363 . S
C940 C939 1.415 . S
C941 H917 0.951 . S
C941 C942 1.366 . S
C941 C943 1.388 . S
C942 C941 1.366 . S
C942 C946 1.385 . S
C943 H918 0.951 . S
C943 C941 1.388 . S
C943 C944 1.366 . S
C944 C943 1.366 . S
C944 C945 1.414 . S
C944 C947 1.499 1_545 S
C945 H919 0.950 1_545 S
C945 C944 1.414 . S
C945 C946 1.374 . S
C946 H920 0.950 . S
C946 C942 1.385 . S
C946 C945 1.374 . S
C947 C944 1.499 1_565 S
C947 C948 1.373 . S
C947 C949 1.389 . S
C948 H921 0.950 . S
C948 C934 1.377 . S
C948 C947 1.373 . S
C949 C933 1.377 . S
C949 C947 1.389 . S
C949 C950 1.530 . S
C950 C949 1.530 . S
C950 C951 1.394 1_565 S
C950 C955 1.360 1_565 S
C951 H922 0.950 1_545 S
C951 C950 1.394 1_545 S
C951 C952 1.334 . S
C952 H923 0.950 . S
C952 C951 1.334 . S
C952 C953 1.287 . S
C953 C952 1.287 . S
C953 C954 1.524 . S
C953 H956 0.999 . S
C954 H924 0.950 . S
C954 C953 1.524 . S
C954 C955 1.415 . S
C955 H925 0.950 . S
C955 C950 1.360 1_545 S
C955 C954 1.415 . S
H956 C953 0.999 . S
H957 C938 0.913 . S
H958 C976 0.951 . S
H959 C978 0.951 . S
H960 C980 0.950 . S
H961 C981 0.950 . S
H962 C983 0.950 . S
H963 C986 0.950 . S
H964 C987 0.950 . S
H965 C989 0.950 . S
H966 C990 0.950 . S
H967 C991 0.951 . S
H968 C993 0.951 . S
H969 C995 0.950 . S
H970 C996 0.950 . S
H971 C998 0.950 . S
H972 C1001 0.950 . S
H973 C1002 0.950 . S
H974 C1004 0.950 . S
H975 C1005 0.950 . S
C976 H958 0.951 . S
C976 C977 1.366 . S
C976 C978 1.388 . S
C977 C976 1.366 . S
C977 C981 1.385 . S
C978 H959 0.951 . S
C978 C976 1.388 . S
C978 C979 1.366 . S
C979 C978 1.366 . S
C979 C980 1.414 . S
C979 C982 1.499 . S
C980 H960 0.950 . S
C980 C979 1.414 . S
C980 C981 1.374 . S
C981 H961 0.950 . S
C981 C977 1.385 . S
C981 C980 1.374 . S
C982 C979 1.499 . S
C982 C983 1.373 . S
C982 C984 1.389 . S
C983 H962 0.950 . S
C983 C982 1.373 . S
C983 C999 1.377 . S
C984 C982 1.389 . S
C984 C985 1.524 . S
C984 C998 1.377 . S
C985 C984 1.524 . S
C985 C986 1.397 . S
C985 C990 1.363 . S
C986 H963 0.950 . S
C986 C985 1.397 . S
C986 C987 1.334 . S
C987 H964 0.950 . S
C987 C986 1.334 . S
C987 C988 1.287 . S
C988 C987 1.287 . S
C988 C989 1.524 . S
C988 H1007 0.913 . S
C989 H965 0.950 . S
C989 C988 1.524 . S
C989 C990 1.415 . S
C990 H966 0.950 . S
C990 C985 1.363 . S
C990 C989 1.415 . S
C991 H967 0.951 . S
C991 C992 1.366 . S
C991 C993 1.388 . S
C992 C991 1.366 . S
C992 C996 1.385 . S
C993 H968 0.951 . S
C993 C991 1.388 . S
C993 C994 1.366 . S
C994 C993 1.366 . S
C994 C995 1.414 . S
C994 C997 1.499 . S
C995 H969 0.950 . S
C995 C994 1.414 . S
C995 C996 1.374 . S
C996 H970 0.950 . S
C996 C992 1.385 . S
C996 C995 1.374 . S
C997 C994 1.499 . S
C997 C998 1.373 . S
C997 C999 1.389 . S
C998 H971 0.950 . S
C998 C984 1.377 . S
C998 C997 1.373 . S
C999 C983 1.377 . S
C999 C997 1.389 . S
C999 C1000 1.524 . S
C1000 C999 1.524 . S
C1000 C1001 1.397 . S
C1000 C1005 1.363 . S
C1001 H972 0.950 . S
C1001 C1000 1.397 . S
C1001 C1002 1.334 . S
C1002 H973 0.950 . S
C1002 C1001 1.334 . S
C1002 C1003 1.287 . S
C1003 C1002 1.287 . S
C1003 C1004 1.524 . S
C1003 H1006 0.999 . S
C1004 H974 0.950 . S
C1004 C1003 1.524 . S
C1004 C1005 1.415 . S
C1005 H975 0.950 . S
C1005 C1000 1.363 . S
C1005 C1004 1.415 . S
H1006 C1003 0.999 . S
H1007 C988 0.913 . S
H1008 C1026 0.951 . S
H1009 C1028 0.951 . S
H1010 C1030 0.950 . S
H1011 C1031 0.950 . S
H1012 C1033 0.950 . S
H1013 C1036 0.950 . S
H1014 C1037 0.950 . S
H1015 C1039 0.950 . S
H1016 C1040 0.950 . S
H1017 C1041 0.951 . S
H1018 C1043 0.951 . S
H1019 C1045 0.950 . S
H1020 C1046 0.950 . S
H1021 C1048 0.950 . S
H1022 C1051 0.950 . S
H1023 C1052 0.950 . S
H1024 C1054 0.950 . S
H1025 C1055 0.950 . S
C1026 H1008 0.951 . S
C1026 C1027 1.366 . S
C1026 C1028 1.388 . S
C1027 C1026 1.366 . S
C1027 C1031 1.385 . S
C1028 H1009 0.951 . S
C1028 C1026 1.388 . S
C1028 C1029 1.366 . S
C1029 C1028 1.366 . S
C1029 C1030 1.414 . S
C1029 C1032 1.499 . S
C1030 H1010 0.950 . S
C1030 C1029 1.414 . S
C1030 C1031 1.374 . S
C1031 H1011 0.950 . S
C1031 C1027 1.385 . S
C1031 C1030 1.374 . S
C1032 C1029 1.499 . S
C1032 C1033 1.373 . S
C1032 C1034 1.389 . S
C1033 H1012 0.950 . S
C1033 C1032 1.373 . S
C1033 C1049 1.377 . S
C1034 C1032 1.389 . S
C1034 C1035 1.524 . S
C1034 C1048 1.377 . S
C1035 C1034 1.524 . S
C1035 C1036 1.397 . S
C1035 C1040 1.363 . S
C1036 H1013 0.950 . S
C1036 C1035 1.397 . S
C1036 C1037 1.334 . S
C1037 H1014 0.950 . S
C1037 C1036 1.334 . S
C1037 C1038 1.287 . S
C1038 C1037 1.287 . S
C1038 C1039 1.524 . S
C1038 H1057 0.913 . S
C1039 H1015 0.950 . S
C1039 C1038 1.524 . S
C1039 C1040 1.415 . S
C1040 H1016 0.950 . S
C1040 C1035 1.363 . S
C1040 C1039 1.415 . S
C1041 H1017 0.951 . S
C1041 C1042 1.366 . S
C1041 C1043 1.388 . S
C1042 C1041 1.366 . S
C1042 C1046 1.385 . S
C1043 H1018 0.951 . S
C1043 C1041 1.388 . S
C1043 C1044 1.366 . S
C1044 C1043 1.366 . S
C1044 C1045 1.414 . S
C1044 C1047 1.499 . S
C1045 H1019 0.950 . S
C1045 C1044 1.414 . S
C1045 C1046 1.374 . S
C1046 H1020 0.950 . S
C1046 C1042 1.385 . S
C1046 C1045 1.374 . S
C1047 C1044 1.499 . S
C1047 C1048 1.373 . S
C1047 C1049 1.389 . S
C1048 H1021 0.950 . S
C1048 C1034 1.377 . S
C1048 C1047 1.373 . S
C1049 C1033 1.377 . S
C1049 C1047 1.389 . S
C1049 C1050 1.524 . S
C1050 C1049 1.524 . S
C1050 C1051 1.397 . S
C1050 C1055 1.363 . S
C1051 H1022 0.950 . S
C1051 C1050 1.397 . S
C1051 C1052 1.334 . S
C1052 H1023 0.950 . S
C1052 C1051 1.334 . S
C1052 C1053 1.287 . S
C1053 C1052 1.287 . S
C1053 C1054 1.524 . S
C1053 H1056 0.999 . S
C1054 H1024 0.950 . S
C1054 C1053 1.524 . S
C1054 C1055 1.415 . S
C1055 H1025 0.950 . S
C1055 C1050 1.363 . S
C1055 C1054 1.415 . S
H1056 C1053 0.999 . S
H1057 C1038 0.913 . S
H1058 C1076 0.951 . S
H1059 C1078 0.951 . S
H1060 C1080 0.950 . S
H1061 C1081 0.950 . S
H1062 C1083 0.950 . S
H1063 C1086 0.950 . S
H1064 C1087 0.950 . S
H1065 C1089 0.950 . S
H1066 C1090 0.950 1_655 S
H1067 C1091 0.951 . S
H1068 C1093 0.951 . S
H1069 C1095 0.950 . S
H1070 C1096 0.950 . S
H1071 C1098 0.950 . S
H1072 C1101 0.950 . S
H1073 C1102 0.950 . S
H1074 C1104 0.950 . S
H1075 C1105 0.950 . S
C1076 H1058 0.951 . S
C1076 C1077 1.366 . S
C1076 C1078 1.388 . S
C1077 C1076 1.366 . S
C1077 C1081 1.385 . S
C1078 H1059 0.951 . S
C1078 C1076 1.388 . S
C1078 C1079 1.366 . S
C1079 C1078 1.366 . S
C1079 C1080 1.414 . S
C1079 C1082 1.499 . S
C1080 H1060 0.950 . S
C1080 C1079 1.414 . S
C1080 C1081 1.374 . S
C1081 H1061 0.950 . S
C1081 C1077 1.385 . S
C1081 C1080 1.374 . S
C1082 C1079 1.499 . S
C1082 C1083 1.373 1_455 S
C1082 C1084 1.389 1_455 S
C1083 H1062 0.950 . S
C1083 C1082 1.373 1_655 S
C1083 C1099 1.377 . S
C1084 C1082 1.389 1_655 S
C1084 C1085 1.524 1_655 S
C1084 C1098 1.377 . S
C1085 C1084 1.524 1_455 S
C1085 C1086 1.397 . S
C1085 C1090 1.363 . S
C1086 H1063 0.950 . S
C1086 C1085 1.397 . S
C1086 C1087 1.334 . S
C1087 H1064 0.950 . S
C1087 C1086 1.334 . S
C1087 C1088 1.287 . S
C1088 C1087 1.287 . S
C1088 C1089 1.524 . S
C1088 H1107 0.913 . S
C1089 H1065 0.950 . S
C1089 C1088 1.524 . S
C1089 C1090 1.415 . S
C1090 H1066 0.950 1_455 S
C1090 C1085 1.363 . S
C1090 C1089 1.415 . S
C1091 H1067 0.951 . S
C1091 C1092 1.366 . S
C1091 C1093 1.388 . S
C1092 C1091 1.366 . S
C1092 C1096 1.385 . S
C1093 H1068 0.951 . S
C1093 C1091 1.388 . S
C1093 C1094 1.366 . S
C1094 C1093 1.366 . S
C1094 C1095 1.414 . S
C1094 C1097 1.499 . S
C1095 H1069 0.950 . S
C1095 C1094 1.414 . S
C1095 C1096 1.374 . S
C1096 H1070 0.950 . S
C1096 C1092 1.385 . S
C1096 C1095 1.374 . S
C1097 C1094 1.499 . S
C1097 C1098 1.373 . S
C1097 C1099 1.389 . S
C1098 H1071 0.950 . S
C1098 C1084 1.377 . S
C1098 C1097 1.373 . S
C1099 C1083 1.377 . S
C1099 C1097 1.389 . S
C1099 C1100 1.524 . S
C1100 C1099 1.524 . S
C1100 C1101 1.397 . S
C1100 C1105 1.363 . S
C1101 H1072 0.950 . S
C1101 C1100 1.397 . S
C1101 C1102 1.334 . S
C1102 H1073 0.950 . S
C1102 C1101 1.334 . S
C1102 C1103 1.287 . S
C1103 C1102 1.287 . S
C1103 C1104 1.524 . S
C1103 H1106 0.999 . S
C1104 H1074 0.950 . S
C1104 C1103 1.524 . S
C1104 C1105 1.415 . S
C1105 H1075 0.950 . S
C1105 C1100 1.363 . S
C1105 C1104 1.415 . S
H1106 C1103 0.999 . S
H1107 C1088 0.913 . S
H1108 C1126 0.951 . S
H1109 C1128 0.951 . S
H1110 C1130 0.950 . S
H1111 C1131 0.950 . S
H1112 C1133 0.950 . S
H1113 C1136 0.950 . S
H1114 C1137 0.950 . S
H1115 C1139 0.950 . S
H1116 C1140 0.950 . S
H1117 C1141 0.951 . S
H1118 C1143 0.951 . S
H1119 C1145 0.950 . S
H1120 C1146 0.950 . S
H1121 C1148 0.950 . S
H1122 C1151 0.950 . S
H1123 C1152 0.950 . S
H1124 C1154 0.950 . S
H1125 C1155 0.950 . S
C1126 H1108 0.951 . S
C1126 C1127 1.366 . S
C1126 C1128 1.388 . S
C1127 C1126 1.366 . S
C1127 C1131 1.385 . S
C1128 H1109 0.951 . S
C1128 C1126 1.388 . S
C1128 C1129 1.366 . S
C1129 C1128 1.366 . S
C1129 C1130 1.414 . S
C1129 C1132 1.499 . S
C1130 H1110 0.950 . S
C1130 C1129 1.414 . S
C1130 C1131 1.374 . S
C1131 H1111 0.950 . S
C1131 C1127 1.385 . S
C1131 C1130 1.374 . S
C1132 C1129 1.499 . S
C1132 C1133 1.373 . S
C1132 C1134 1.389 . S
C1133 H1112 0.950 . S
C1133 C1132 1.373 . S
C1133 C1149 1.377 . S
C1134 C1132 1.389 . S
C1134 C1135 1.524 . S
C1134 C1148 1.377 . S
C1135 C1134 1.524 . S
C1135 C1136 1.397 . S
C1135 C1140 1.363 . S
C1136 H1113 0.950 . S
C1136 C1135 1.397 . S
C1136 C1137 1.334 . S
C1137 H1114 0.950 . S
C1137 C1136 1.334 . S
C1137 C1138 1.287 . S
C1138 C1137 1.287 . S
C1138 C1139 1.524 . S
C1138 H1157 0.913 . S
C1139 H1115 0.950 . S
C1139 C1138 1.524 . S
C1139 C1140 1.415 . S
C1140 H1116 0.950 . S
C1140 C1135 1.363 . S
C1140 C1139 1.415 . S
C1141 H1117 0.951 . S
C1141 C1142 1.366 . S
C1141 C1143 1.388 . S
C1142 C1141 1.366 . S
C1142 C1146 1.385 . S
C1143 H1118 0.951 . S
C1143 C1141 1.388 . S
C1143 C1144 1.366 . S
C1144 C1143 1.366 . S
C1144 C1145 1.414 . S
C1144 C1147 1.499 . S
C1145 H1119 0.950 . S
C1145 C1144 1.414 . S
C1145 C1146 1.374 . S
C1146 H1120 0.950 . S
C1146 C1142 1.385 . S
C1146 C1145 1.374 . S
C1147 C1144 1.499 . S
C1147 C1148 1.373 . S
C1147 C1149 1.389 . S
C1148 H1121 0.950 . S
C1148 C1134 1.377 . S
C1148 C1147 1.373 . S
C1149 C1133 1.377 . S
C1149 C1147 1.389 . S
C1149 C1150 1.524 . S
C1150 C1149 1.524 . S
C1150 C1151 1.397 . S
C1150 C1155 1.363 . S
C1151 H1122 0.950 . S
C1151 C1150 1.397 . S
C1151 C1152 1.334 . S
C1152 H1123 0.950 . S
C1152 C1151 1.334 . S
C1152 C1153 1.287 . S
C1153 C1152 1.287 . S
C1153 C1154 1.524 . S
C1153 H1156 0.999 . S
C1154 H1124 0.950 . S
C1154 C1153 1.524 . S
C1154 C1155 1.415 . S
C1155 H1125 0.950 . S
C1155 C1150 1.363 . S
C1155 C1154 1.415 . S
H1156 C1153 0.999 . S
H1157 C1138 0.913 . S
H1158 C1176 0.951 . S
H1159 C1178 0.951 . S
H1160 C1180 0.950 . S
H1161 C1181 0.950 . S
H1162 C1183 0.950 . S
H1163 C1186 0.950 . S
H1164 C1187 0.950 . S
H1165 C1189 0.950 . S
H1166 C1190 0.950 . S
H1167 C1191 0.951 . S
H1168 C1193 0.951 . S
H1169 C1195 0.950 . S
H1170 C1196 0.950 . S
H1171 C1198 0.950 . S
H1172 C1201 0.950 . S
H1173 C1202 0.950 . S
H1174 C1204 0.950 . S
H1175 C1205 0.950 . S
C1176 H1158 0.951 . S
C1176 C1177 1.366 . S
C1176 C1178 1.388 . S
C1177 C1176 1.366 . S
C1177 C1181 1.385 . S
C1178 H1159 0.951 . S
C1178 C1176 1.388 . S
C1178 C1179 1.366 . S
C1179 C1178 1.366 . S
C1179 C1180 1.414 . S
C1179 C1182 1.499 . S
C1180 H1160 0.950 . S
C1180 C1179 1.414 . S
C1180 C1181 1.374 . S
C1181 H1161 0.950 . S
C1181 C1177 1.385 . S
C1181 C1180 1.374 . S
C1182 C1179 1.499 . S
C1182 C1183 1.373 . S
C1182 C1184 1.389 . S
C1183 H1162 0.950 . S
C1183 C1182 1.373 . S
C1183 C1199 1.377 . S
C1184 C1182 1.389 . S
C1184 C1185 1.524 . S
C1184 C1198 1.377 . S
C1185 C1184 1.524 . S
C1185 C1186 1.397 . S
C1185 C1190 1.363 . S
C1186 H1163 0.950 . S
C1186 C1185 1.397 . S
C1186 C1187 1.334 . S
C1187 H1164 0.950 . S
C1187 C1186 1.334 . S
C1187 C1188 1.287 . S
C1188 C1187 1.287 . S
C1188 C1189 1.524 . S
C1188 H1207 0.913 . S
C1189 H1165 0.950 . S
C1189 C1188 1.524 . S
C1189 C1190 1.415 . S
C1190 H1166 0.950 . S
C1190 C1185 1.363 . S
C1190 C1189 1.415 . S
C1191 H1167 0.951 . S
C1191 C1192 1.366 . S
C1191 C1193 1.388 . S
C1192 C1191 1.366 . S
C1192 C1196 1.385 . S
C1193 H1168 0.951 . S
C1193 C1191 1.388 . S
C1193 C1194 1.366 . S
C1194 C1193 1.366 . S
C1194 C1195 1.414 . S
C1194 C1197 1.499 . S
C1195 H1169 0.950 . S
C1195 C1194 1.414 . S
C1195 C1196 1.374 . S
C1196 H1170 0.950 . S
C1196 C1192 1.385 . S
C1196 C1195 1.374 . S
C1197 C1194 1.499 . S
C1197 C1198 1.373 . S
C1197 C1199 1.389 . S
C1198 H1171 0.950 . S
C1198 C1184 1.377 . S
C1198 C1197 1.373 . S
C1199 C1183 1.377 . S
C1199 C1197 1.389 . S
C1199 C1200 1.524 . S
C1200 C1199 1.524 . S
C1200 C1201 1.397 . S
C1200 C1205 1.363 . S
C1201 H1172 0.950 . S
C1201 C1200 1.397 . S
C1201 C1202 1.334 . S
C1202 H1173 0.950 . S
C1202 C1201 1.334 . S
C1202 C1203 1.287 . S
C1203 C1202 1.287 . S
C1203 C1204 1.524 . S
C1203 H1206 0.999 . S
C1204 H1174 0.950 . S
C1204 C1203 1.524 . S
C1204 C1205 1.415 . S
C1205 H1175 0.950 . S
C1205 C1200 1.363 . S
C1205 C1204 1.415 . S
H1206 C1203 0.999 . S
H1207 C1188 0.913 . S
H1208 C1226 0.951 . S
H1209 C1228 0.951 . S
H1210 C1230 0.950 . S
H1211 C1231 0.950 . S
H1212 C1233 0.950 . S
H1213 C1236 0.950 . S
H1214 C1237 0.950 . S
H1215 C1239 0.950 . S
H1216 C1240 0.950 . S
H1217 C1241 0.951 . S
H1218 C1243 0.951 . S
H1219 C1245 0.950 . S
H1220 C1246 0.950 . S
H1221 C1248 0.950 . S
H1222 C1251 0.950 . S
H1223 C1252 0.950 . S
H1224 C1254 0.950 . S
H1225 C1255 0.950 . S
C1226 H1208 0.951 . S
C1226 C1227 1.366 . S
C1226 C1228 1.388 . S
C1227 C1226 1.366 . S
C1227 C1231 1.385 . S
C1228 H1209 0.951 . S
C1228 C1226 1.388 . S
C1228 C1229 1.366 . S
C1229 C1228 1.366 . S
C1229 C1230 1.414 . S
C1229 C1232 1.499 . S
C1230 H1210 0.950 . S
C1230 C1229 1.414 . S
C1230 C1231 1.374 . S
C1231 H1211 0.950 . S
C1231 C1227 1.385 . S
C1231 C1230 1.374 . S
C1232 C1229 1.499 . S
C1232 C1233 1.373 . S
C1232 C1234 1.389 . S
C1233 H1212 0.950 . S
C1233 C1232 1.373 . S
C1233 C1249 1.377 . S
C1234 C1232 1.389 . S
C1234 C1235 1.524 . S
C1234 C1248 1.377 . S
C1235 C1234 1.524 . S
C1235 C1236 1.397 . S
C1235 C1240 1.363 . S
C1236 H1213 0.950 . S
C1236 C1235 1.397 . S
C1236 C1237 1.334 . S
C1237 H1214 0.950 . S
C1237 C1236 1.334 . S
C1237 C1238 1.287 . S
C1238 C1237 1.287 . S
C1238 C1239 1.524 . S
C1238 H1257 0.913 . S
C1239 H1215 0.950 . S
C1239 C1238 1.524 . S
C1239 C1240 1.415 . S
C1240 H1216 0.950 . S
C1240 C1235 1.363 . S
C1240 C1239 1.415 . S
C1241 H1217 0.951 . S
C1241 C1242 1.366 . S
C1241 C1243 1.388 . S
C1242 C1241 1.366 . S
C1242 C1246 1.385 . S
C1243 H1218 0.951 . S
C1243 C1241 1.388 . S
C1243 C1244 1.366 . S
C1244 C1243 1.366 . S
C1244 C1245 1.414 . S
C1244 C1247 1.499 . S
C1245 H1219 0.950 . S
C1245 C1244 1.414 . S
C1245 C1246 1.374 . S
C1246 H1220 0.950 . S
C1246 C1242 1.385 . S
C1246 C1245 1.374 . S
C1247 C1244 1.499 . S
C1247 C1248 1.373 . S
C1247 C1249 1.389 . S
C1248 H1221 0.950 . S
C1248 C1234 1.377 . S
C1248 C1247 1.373 . S
C1249 C1233 1.377 . S
C1249 C1247 1.389 . S
C1249 C1250 1.524 . S
C1250 C1249 1.524 . S
C1250 C1251 1.397 . S
C1250 C1255 1.363 . S
C1251 H1222 0.950 . S
C1251 C1250 1.397 . S
C1251 C1252 1.334 . S
C1252 H1223 0.950 . S
C1252 C1251 1.334 . S
C1252 C1253 1.287 . S
C1253 C1252 1.287 . S
C1253 C1254 1.524 . S
C1253 H1256 0.999 . S
C1254 H1224 0.950 . S
C1254 C1253 1.524 . S
C1254 C1255 1.415 . S
C1255 H1225 0.950 . S
C1255 C1250 1.363 . S
C1255 C1254 1.415 . S
H1256 C1253 0.999 . S
H1257 C1238 0.913 . S
H1258 C1276 0.951 . S
H1259 C1278 0.951 . S
H1260 C1280 0.950 . S
H1261 C1281 0.950 . S
H1262 C1283 0.950 . S
H1263 C1286 0.950 . S
H1264 C1287 0.950 . S
H1265 C1289 0.950 . S
H1266 C1290 0.950 . S
H1267 C1291 0.951 . S
H1268 C1293 0.951 . S
H1269 C1295 0.950 . S
H1270 C1296 0.950 . S
H1271 C1298 0.950 . S
H1272 C1301 0.950 . S
H1273 C1302 0.950 . S
H1274 C1304 0.950 . S
H1275 C1305 0.950 . S
C1276 H1258 0.951 . S
C1276 C1277 1.366 . S
C1276 C1278 1.388 . S
C1277 C1276 1.366 . S
C1277 C1281 1.385 . S
C1278 H1259 0.951 . S
C1278 C1276 1.388 . S
C1278 C1279 1.366 . S
C1279 C1278 1.366 . S
C1279 C1280 1.414 . S
C1279 C1282 1.499 . S
C1280 H1260 0.950 . S
C1280 C1279 1.414 . S
C1280 C1281 1.374 . S
C1281 H1261 0.950 . S
C1281 C1277 1.385 . S
C1281 C1280 1.374 . S
C1282 C1279 1.499 . S
C1282 C1283 1.373 . S
C1282 C1284 1.389 . S
C1283 H1262 0.950 . S
C1283 C1282 1.373 . S
C1283 C1299 1.377 . S
C1284 C1282 1.389 . S
C1284 C1285 1.524 . S
C1284 C1298 1.377 . S
C1285 C1284 1.524 . S
C1285 C1286 1.397 . S
C1285 C1290 1.363 . S
C1286 H1263 0.950 . S
C1286 C1285 1.397 . S
C1286 C1287 1.334 . S
C1287 H1264 0.950 . S
C1287 C1286 1.334 . S
C1287 C1288 1.287 . S
C1288 C1287 1.287 . S
C1288 C1289 1.524 . S
C1288 H1307 0.913 . S
C1289 H1265 0.950 . S
C1289 C1288 1.524 . S
C1289 C1290 1.415 . S
C1290 H1266 0.950 . S
C1290 C1285 1.363 . S
C1290 C1289 1.415 . S
C1291 H1267 0.951 . S
C1291 C1292 1.366 . S
C1291 C1293 1.388 . S
C1292 C1291 1.366 . S
C1292 C1296 1.385 . S
C1293 H1268 0.951 . S
C1293 C1291 1.388 . S
C1293 C1294 1.366 . S
C1294 C1293 1.366 . S
C1294 C1295 1.414 . S
C1294 C1297 1.499 . S
C1295 H1269 0.950 . S
C1295 C1294 1.414 . S
C1295 C1296 1.374 . S
C1296 H1270 0.950 . S
C1296 C1292 1.385 . S
C1296 C1295 1.374 . S
C1297 C1294 1.499 . S
C1297 C1298 1.373 . S
C1297 C1299 1.389 . S
C1298 H1271 0.950 . S
C1298 C1284 1.377 . S
C1298 C1297 1.373 . S
C1299 C1283 1.377 . S
C1299 C1297 1.389 . S
C1299 C1300 1.524 . S
C1300 C1299 1.524 . S
C1300 C1301 1.397 . S
C1300 C1305 1.363 . S
C1301 H1272 0.950 . S
C1301 C1300 1.397 . S
C1301 C1302 1.334 . S
C1302 H1273 0.950 . S
C1302 C1301 1.334 . S
C1302 C1303 1.287 . S
C1303 C1302 1.287 . S
C1303 C1304 1.524 . S
C1303 H1306 0.999 . S
C1304 H1274 0.950 . S
C1304 C1303 1.524 . S
C1304 C1305 1.415 . S
C1305 H1275 0.950 . S
C1305 C1300 1.363 . S
C1305 C1304 1.415 . S
H1306 C1303 0.999 . S
H1307 C1288 0.913 . S
H1308 C1326 0.951 . S
H1309 C1328 0.951 . S
H1310 C1330 0.950 . S
H1311 C1331 0.950 . S
H1312 C1333 0.950 . S
H1313 C1336 0.950 . S
H1314 C1337 0.964 . S
H1315 C1339 0.950 . S
H1316 C1340 0.950 . S
H1317 C1341 0.951 . S
H1318 C1343 0.951 . S
H1319 C1345 0.950 . S
H1320 C1346 0.950 . S
H1321 C1348 0.950 . S
H1322 C1351 0.950 . S
H1323 C1352 0.950 . S
H1324 C1354 0.950 . S
H1325 C1355 0.950 . S
C1326 H1308 0.951 . S
C1326 C1327 1.366 . S
C1326 C1328 1.388 . S
C1327 C1326 1.366 . S
C1327 C1331 1.385 . S
C1328 H1309 0.951 . S
C1328 C1326 1.388 . S
C1328 C1329 1.366 . S
C1329 C1328 1.366 . S
C1329 C1330 1.414 . S
C1329 C1332 1.499 . S
C1330 H1310 0.950 . S
C1330 C1329 1.414 . S
C1330 C1331 1.374 . S
C1331 H1311 0.950 . S
C1331 C1327 1.385 . S
C1331 C1330 1.374 . S
C1332 C1329 1.499 . S
C1332 C1333 1.373 . S
C1332 C1334 1.389 . S
C1333 H1312 0.950 . S
C1333 C1332 1.373 . S
C1333 C1349 1.377 . S
C1334 C1332 1.389 . S
C1334 C1335 1.524 . S
C1334 C1348 1.377 . S
C1335 C1334 1.524 . S
C1335 C1336 1.397 . S
C1335 C1340 1.363 . S
C1336 H1313 0.950 . S
C1336 C1335 1.397 . S
C1336 C1337 1.334 . S
C1337 H1314 0.964 . S
C1337 C1336 1.334 . S
C1337 C1338 1.287 1_554 S
C1338 C1337 1.287 1_556 S
C1338 C1339 1.524 . S
C1338 H1357 0.913 . S
C1339 H1315 0.950 . S
C1339 C1338 1.524 . S
C1339 C1340 1.415 1_556 S
C1340 H1316 0.950 . S
C1340 C1335 1.363 . S
C1340 C1339 1.415 1_554 S
C1341 H1317 0.951 . S
C1341 C1342 1.366 . S
C1341 C1343 1.388 . S
C1342 C1341 1.366 . S
C1342 C1346 1.385 . S
C1343 H1318 0.951 . S
C1343 C1341 1.388 . S
C1343 C1344 1.366 . S
C1344 C1343 1.366 . S
C1344 C1345 1.414 . S
C1344 C1347 1.499 . S
C1345 H1319 0.950 . S
C1345 C1344 1.414 . S
C1345 C1346 1.374 . S
C1346 H1320 0.950 . S
C1346 C1342 1.385 . S
C1346 C1345 1.374 . S
C1347 C1344 1.499 . S
C1347 C1348 1.373 . S
C1347 C1349 1.389 . S
C1348 H1321 0.950 . S
C1348 C1334 1.377 . S
C1348 C1347 1.373 . S
C1349 C1333 1.377 . S
C1349 C1347 1.389 . S
C1349 C1350 1.524 . S
C1350 C1349 1.524 . S
C1350 C1351 1.397 . S
C1350 C1355 1.363 . S
C1351 H1322 0.950 . S
C1351 C1350 1.397 . S
C1351 C1352 1.334 . S
C1352 H1323 0.950 . S
C1352 C1351 1.334 . S
C1352 C1353 1.287 . S
C1353 C1352 1.287 . S
C1353 C1354 1.524 . S
C1353 H1356 0.999 . S
C1354 H1324 0.950 . S
C1354 C1353 1.524 . S
C1354 C1355 1.415 . S
C1355 H1325 0.950 . S
C1355 C1350 1.363 . S
C1355 C1354 1.415 . S
H1356 C1353 0.999 . S
H1357 C1338 0.913 . S
H1358 C1376 0.951 . S
H1359 C1378 0.951 . S
H1360 C1380 0.950 . S
H1361 C1381 0.950 . S
H1362 C1383 0.950 . S
H1363 C1386 0.950 . S
H1364 C1387 0.950 . S
H1365 C1389 0.950 . S
H1366 C1390 0.950 . S
H1367 C1391 0.951 . S
H1368 C1393 0.951 . S
H1369 C1395 0.950 . S
H1370 C1396 0.950 . S
H1371 C1398 0.950 . S
H1372 C1401 0.950 . S
H1373 C1402 0.950 . S
H1374 C1404 0.950 . S
H1375 C1405 0.950 . S
C1376 H1358 0.951 . S
C1376 C1377 1.366 . S
C1376 C1378 1.388 . S
C1377 C1376 1.366 . S
C1377 C1381 1.385 . S
C1378 H1359 0.951 . S
C1378 C1376 1.388 . S
C1378 C1379 1.366 . S
C1379 C1378 1.366 . S
C1379 C1380 1.414 . S
C1379 C1382 1.499 . S
C1380 H1360 0.950 . S
C1380 C1379 1.414 . S
C1380 C1381 1.374 . S
C1381 H1361 0.950 . S
C1381 C1377 1.385 . S
C1381 C1380 1.374 . S
C1382 C1379 1.499 . S
C1382 C1383 1.373 . S
C1382 C1384 1.389 . S
C1383 H1362 0.950 . S
C1383 C1382 1.373 . S
C1383 C1399 1.377 . S
C1384 C1382 1.389 . S
C1384 C1385 1.524 . S
C1384 C1398 1.377 . S
C1385 C1384 1.524 . S
C1385 C1386 1.397 . S
C1385 C1390 1.363 . S
C1386 H1363 0.950 . S
C1386 C1385 1.397 . S
C1386 C1387 1.334 . S
C1387 H1364 0.950 . S
C1387 C1386 1.334 . S
C1387 C1388 1.287 . S
C1388 C1387 1.287 . S
C1388 C1389 1.524 . S
C1388 H1407 0.913 . S
C1389 H1365 0.950 . S
C1389 C1388 1.524 . S
C1389 C1390 1.415 . S
C1390 H1366 0.950 . S
C1390 C1385 1.363 . S
C1390 C1389 1.415 . S
C1391 H1367 0.951 . S
C1391 C1392 1.366 . S
C1391 C1393 1.388 . S
C1392 C1391 1.366 . S
C1392 C1396 1.385 . S
C1393 H1368 0.951 . S
C1393 C1391 1.388 . S
C1393 C1394 1.366 . S
C1394 C1393 1.366 . S
C1394 C1395 1.414 . S
C1394 C1397 1.499 . S
C1395 H1369 0.950 . S
C1395 C1394 1.414 . S
C1395 C1396 1.374 . S
C1396 H1370 0.950 . S
C1396 C1392 1.385 . S
C1396 C1395 1.374 . S
C1397 C1394 1.499 . S
C1397 C1398 1.373 . S
C1397 C1399 1.389 . S
C1398 H1371 0.950 . S
C1398 C1384 1.377 . S
C1398 C1397 1.373 . S
C1399 C1383 1.377 . S
C1399 C1397 1.389 . S
C1399 C1400 1.524 . S
C1400 C1399 1.524 . S
C1400 C1401 1.397 . S
C1400 C1405 1.363 . S
C1401 H1372 0.950 . S
C1401 C1400 1.397 . S
C1401 C1402 1.334 . S
C1402 H1373 0.950 . S
C1402 C1401 1.334 . S
C1402 C1403 1.287 . S
C1403 C1402 1.287 . S
C1403 C1404 1.524 . S
C1403 H1406 0.999 . S
C1404 H1374 0.950 . S
C1404 C1403 1.524 . S
C1404 C1405 1.415 . S
C1405 H1375 0.950 . S
C1405 C1400 1.363 . S
C1405 C1404 1.415 . S
H1406 C1403 0.999 . S
H1407 C1388 0.913 . S
H1408 C1426 0.951 . S
H1409 C1428 0.951 . S
H1410 C1430 0.950 . S
H1411 C1431 0.950 . S
H1412 C1433 0.950 . S
H1413 C1436 0.950 . S
H1414 C1437 0.950 . S
H1415 C1439 0.950 . S
H1416 C1440 0.950 . S
H1417 C1441 0.951 . S
H1418 C1443 0.951 . S
H1419 C1445 0.950 . S
H1420 C1446 0.950 . S
H1421 C1448 0.950 . S
H1422 C1451 0.950 . S
H1423 C1452 0.950 . S
H1424 C1454 0.950 . S
H1425 C1455 0.950 . S
C1426 H1408 0.951 . S
C1426 C1427 1.366 . S
C1426 C1428 1.388 . S
C1427 C1426 1.366 . S
C1427 C1431 1.385 . S
C1428 H1409 0.951 . S
C1428 C1426 1.388 . S
C1428 C1429 1.366 . S
C1429 C1428 1.366 . S
C1429 C1430 1.414 . S
C1429 C1432 1.499 . S
C1430 H1410 0.950 . S
C1430 C1429 1.414 . S
C1430 C1431 1.374 . S
C1431 H1411 0.950 . S
C1431 C1427 1.385 . S
C1431 C1430 1.374 . S
C1432 C1429 1.499 . S
C1432 C1433 1.373 . S
C1432 C1434 1.389 . S
C1433 H1412 0.950 . S
C1433 C1432 1.373 . S
C1433 C1449 1.377 . S
C1434 C1432 1.389 . S
C1434 C1435 1.524 . S
C1434 C1448 1.377 . S
C1435 C1434 1.524 . S
C1435 C1436 1.397 . S
C1435 C1440 1.363 . S
C1436 H1413 0.950 . S
C1436 C1435 1.397 . S
C1436 C1437 1.334 . S
C1437 H1414 0.950 . S
C1437 C1436 1.334 . S
C1437 C1438 1.287 . S
C1438 C1437 1.287 . S
C1438 C1439 1.524 . S
C1438 H1457 0.913 . S
C1439 H1415 0.950 . S
C1439 C1438 1.524 . S
C1439 C1440 1.415 . S
C1440 H1416 0.950 . S
C1440 C1435 1.363 . S
C1440 C1439 1.415 . S
C1441 H1417 0.951 . S
C1441 C1442 1.366 . S
C1441 C1443 1.388 . S
C1442 C1441 1.366 . S
C1442 C1446 1.385 . S
C1443 H1418 0.951 . S
C1443 C1441 1.388 . S
C1443 C1444 1.366 . S
C1444 C1443 1.366 . S
C1444 C1445 1.414 . S
C1444 C1447 1.499 . S
C1445 H1419 0.950 . S
C1445 C1444 1.414 . S
C1445 C1446 1.374 . S
C1446 H1420 0.950 . S
C1446 C1442 1.385 . S
C1446 C1445 1.374 . S
C1447 C1444 1.499 . S
C1447 C1448 1.373 . S
C1447 C1449 1.389 . S
C1448 H1421 0.950 . S
C1448 C1434 1.377 . S
C1448 C1447 1.373 . S
C1449 C1433 1.377 . S
C1449 C1447 1.389 . S
C1449 C1450 1.524 . S
C1450 C1449 1.524 . S
C1450 C1451 1.397 . S
C1450 C1455 1.363 . S
C1451 H1422 0.950 . S
C1451 C1450 1.397 . S
C1451 C1452 1.334 . S
C1452 H1423 0.950 . S
C1452 C1451 1.334 . S
C1452 C1453 1.287 . S
C1453 C1452 1.287 . S
C1453 C1454 1.524 . S
C1453 H1456 0.999 . S
C1454 H1424 0.950 . S
C1454 C1453 1.524 . S
C1454 C1455 1.415 . S
C1455 H1425 0.950 . S
C1455 C1450 1.363 . S
C1455 C1454 1.415 . S
H1456 C1453 0.999 . S
H1457 C1438 0.913 . S
H1458 C1476 0.951 . S
H1459 C1478 0.951 . S
H1460 C1480 0.950 . S
H1461 C1481 0.950 . S
H1462 C1483 0.950 . S
H1463 C1486 0.950 . S
H1464 C1487 0.950 . S
H1465 C1489 0.950 . S
H1466 C1490 0.950 . S
H1467 C1491 0.951 . S
H1468 C1493 0.951 . S
H1469 C1495 0.950 . S
H1470 C1496 0.950 . S
H1471 C1498 0.950 . S
H1472 C1501 0.950 . S
H1473 C1502 0.950 . S
H1474 C1504 0.950 . S
H1475 C1505 0.950 . S
C1476 H1458 0.951 . S
C1476 C1477 1.366 . S
C1476 C1478 1.388 . S
C1477 C1476 1.366 . S
C1477 C1481 1.385 . S
C1478 H1459 0.951 . S
C1478 C1476 1.388 . S
C1478 C1479 1.366 . S
C1479 C1478 1.366 . S
C1479 C1480 1.414 . S
C1479 C1482 1.499 . S
C1480 H1460 0.950 . S
C1480 C1479 1.414 . S
C1480 C1481 1.374 . S
C1481 H1461 0.950 . S
C1481 C1477 1.385 . S
C1481 C1480 1.374 . S
C1482 C1479 1.499 . S
C1482 C1483 1.373 . S
C1482 C1484 1.389 . S
C1483 H1462 0.950 . S
C1483 C1482 1.373 . S
C1483 C1499 1.377 . S
C1484 C1482 1.389 . S
C1484 C1485 1.524 . S
C1484 C1498 1.377 . S
C1485 C1484 1.524 . S
C1485 C1486 1.397 . S
C1485 C1490 1.363 . S
C1486 H1463 0.950 . S
C1486 C1485 1.397 . S
C1486 C1487 1.334 . S
C1487 H1464 0.950 . S
C1487 C1486 1.334 . S
C1487 C1488 1.287 . S
C1488 C1487 1.287 . S
C1488 C1489 1.524 . S
C1488 H1507 0.913 . S
C1489 H1465 0.950 . S
C1489 C1488 1.524 . S
C1489 C1490 1.415 . S
C1490 H1466 0.950 . S
C1490 C1485 1.363 . S
C1490 C1489 1.415 . S
C1491 H1467 0.951 . S
C1491 C1492 1.366 . S
C1491 C1493 1.388 . S
C1492 C1491 1.366 . S
C1492 C1496 1.385 . S
C1493 H1468 0.951 . S
C1493 C1491 1.388 . S
C1493 C1494 1.366 . S
C1494 C1493 1.366 . S
C1494 C1495 1.414 . S
C1494 C1497 1.499 . S
C1495 H1469 0.950 . S
C1495 C1494 1.414 . S
C1495 C1496 1.374 . S
C1496 H1470 0.950 . S
C1496 C1492 1.385 . S
C1496 C1495 1.374 . S
C1497 C1494 1.499 . S
C1497 C1498 1.373 . S
C1497 C1499 1.389 . S
C1498 H1471 0.950 . S
C1498 C1484 1.377 . S
C1498 C1497 1.373 . S
C1499 C1483 1.377 . S
C1499 C1497 1.389 . S
C1499 C1500 1.524 . S
C1500 C1499 1.524 . S
C1500 C1501 1.397 . S
C1500 C1505 1.363 . S
C1501 H1472 0.950 . S
C1501 C1500 1.397 . S
C1501 C1502 1.334 . S
C1502 H1473 0.950 . S
C1502 C1501 1.334 . S
C1502 C1503 1.287 . S
C1503 C1502 1.287 . S
C1503 C1504 1.524 . S
C1503 H1506 0.999 . S
C1504 H1474 0.950 . S
C1504 C1503 1.524 . S
C1504 C1505 1.415 . S
C1505 H1475 0.950 . S
C1505 C1500 1.363 . S
C1505 C1504 1.415 . S
H1506 C1503 0.999 . S
H1507 C1488 0.913 . S
H1508 C1526 0.951 . S
H1509 C1528 0.951 . S
H1510 C1530 0.950 . S
H1511 C1531 0.950 . S
H1512 C1533 0.950 . S
H1513 C1536 0.950 . S
H1514 C1537 0.950 . S
H1515 C1539 0.950 . S
H1516 C1540 0.950 . S
H1517 C1541 0.951 . S
H1518 C1543 0.951 . S
H1519 C1545 0.950 . S
H1520 C1546 0.950 . S
H1521 C1548 0.950 . S
H1522 C1551 0.950 . S
H1523 C1552 0.950 . S
H1524 C1554 0.950 . S
H1525 C1555 0.950 . S
C1526 H1508 0.951 . S
C1526 C1527 1.366 . S
C1526 C1528 1.388 . S
C1527 C1526 1.366 . S
C1527 C1531 1.385 . S
C1528 H1509 0.951 . S
C1528 C1526 1.388 . S
C1528 C1529 1.366 . S
C1529 C1528 1.366 . S
C1529 C1530 1.414 . S
C1529 C1532 1.499 . S
C1530 H1510 0.950 . S
C1530 C1529 1.414 . S
C1530 C1531 1.374 . S
C1531 H1511 0.950 . S
C1531 C1527 1.385 . S
C1531 C1530 1.374 . S
C1532 C1529 1.499 . S
C1532 C1533 1.373 . S
C1532 C1534 1.389 . S
C1533 H1512 0.950 . S
C1533 C1532 1.373 . S
C1533 C1549 1.377 . S
C1534 C1532 1.389 . S
C1534 C1535 1.524 . S
C1534 C1548 1.377 . S
C1535 C1534 1.524 . S
C1535 C1536 1.397 . S
C1535 C1540 1.363 . S
C1536 H1513 0.950 . S
C1536 C1535 1.397 . S
C1536 C1537 1.334 . S
C1537 H1514 0.950 . S
C1537 C1536 1.334 . S
C1537 C1538 1.287 . S
C1538 C1537 1.287 . S
C1538 C1539 1.524 . S
C1538 H1557 0.913 . S
C1539 H1515 0.950 . S
C1539 C1538 1.524 . S
C1539 C1540 1.415 . S
C1540 H1516 0.950 . S
C1540 C1535 1.363 . S
C1540 C1539 1.415 . S
C1541 H1517 0.951 . S
C1541 C1542 1.366 . S
C1541 C1543 1.388 . S
C1542 C1541 1.366 . S
C1542 C1546 1.385 . S
C1543 H1518 0.951 . S
C1543 C1541 1.388 . S
C1543 C1544 1.366 . S
C1544 C1543 1.366 . S
C1544 C1545 1.414 . S
C1544 C1547 1.499 . S
C1545 H1519 0.950 . S
C1545 C1544 1.414 . S
C1545 C1546 1.374 . S
C1546 H1520 0.950 . S
C1546 C1542 1.385 . S
C1546 C1545 1.374 . S
C1547 C1544 1.499 . S
C1547 C1548 1.373 . S
C1547 C1549 1.389 . S
C1548 H1521 0.950 . S
C1548 C1534 1.377 . S
C1548 C1547 1.373 . S
C1549 C1533 1.377 . S
C1549 C1547 1.389 . S
C1549 C1550 1.524 . S
C1550 C1549 1.524 . S
C1550 C1551 1.397 . S
C1550 C1555 1.363 . S
C1551 H1522 0.950 . S
C1551 C1550 1.397 . S
C1551 C1552 1.334 . S
C1552 H1523 0.950 . S
C1552 C1551 1.334 . S
C1552 C1553 1.287 . S
C1553 C1552 1.287 . S
C1553 C1554 1.524 . S
C1553 H1556 0.999 . S
C1554 H1524 0.950 . S
C1554 C1553 1.524 . S
C1554 C1555 1.415 . S
C1555 H1525 0.950 . S
C1555 C1550 1.363 . S
C1555 C1554 1.415 . S
H1556 C1553 0.999 . S
H1557 C1538 0.913 . S
H1558 C1576 0.951 . S
H1559 C1578 0.951 . S
H1560 C1580 0.950 . S
H1561 C1581 0.950 . S
H1562 C1583 0.950 1_554 S
H1563 C1586 0.950 . S
H1564 C1587 0.950 . S
H1565 C1589 0.950 . S
H1566 C1590 0.950 . S
H1567 C1591 0.951 . S
H1568 C1593 0.951 . S
H1569 C1595 0.950 . S
H1570 C1596 0.950 . S
H1571 C1598 0.950 . S
H1572 C1601 0.950 . S
H1573 C1602 0.950 1_556 S
H1574 C1604 0.950 . S
H1575 C1605 0.950 . S
C1576 H1558 0.951 . S
C1576 C1577 1.366 1_556 S
C1576 C1578 1.388 . S
C1577 C1576 1.366 1_554 S
C1577 C1581 1.385 . S
C1578 H1559 0.951 . S
C1578 C1576 1.388 . S
C1578 C1579 1.366 . S
C1579 C1578 1.366 . S
C1579 C1580 1.414 1_556 S
C1579 C1582 1.499 . S
C1580 H1560 0.950 . S
C1580 C1579 1.414 1_554 S
C1580 C1581 1.374 . S
C1581 H1561 0.950 . S
C1581 C1577 1.385 . S
C1581 C1580 1.374 . S
C1582 C1579 1.499 . S
C1582 C1583 1.373 . S
C1582 C1584 1.389 . S
C1583 H1562 0.950 1_556 S
C1583 C1582 1.373 . S
C1583 C1599 1.377 . S
C1584 C1582 1.389 . S
C1584 C1585 1.524 . S
C1584 C1598 1.377 . S
C1585 C1584 1.524 . S
C1585 C1586 1.397 . S
C1585 C1590 1.363 . S
C1586 H1563 0.950 . S
C1586 C1585 1.397 . S
C1586 C1587 1.334 . S
C1587 H1564 0.950 . S
C1587 C1586 1.334 . S
C1587 C1588 1.287 . S
C1588 C1587 1.287 . S
C1588 C1589 1.524 . S
C1588 H1607 0.913 . S
C1589 H1565 0.950 . S
C1589 C1588 1.524 . S
C1589 C1590 1.415 . S
C1590 H1566 0.950 . S
C1590 C1585 1.363 . S
C1590 C1589 1.415 . S
C1591 H1567 0.951 . S
C1591 C1592 1.366 . S
C1591 C1593 1.388 . S
C1592 C1591 1.366 . S
C1592 C1596 1.385 . S
C1593 H1568 0.951 . S
C1593 C1591 1.388 . S
C1593 C1594 1.366 . S
C1594 C1593 1.366 . S
C1594 C1595 1.414 . S
C1594 C1597 1.499 . S
C1595 H1569 0.950 . S
C1595 C1594 1.414 . S
C1595 C1596 1.374 . S
C1596 H1570 0.950 . S
C1596 C1592 1.385 . S
C1596 C1595 1.374 . S
C1597 C1594 1.499 . S
C1597 C1598 1.373 . S
C1597 C1599 1.389 . S
C1598 H1571 0.950 . S
C1598 C1584 1.377 . S
C1598 C1597 1.373 . S
C1599 C1583 1.377 . S
C1599 C1597 1.389 . S
C1599 C1600 1.524 . S
C1600 C1599 1.524 . S
C1600 C1601 1.397 . S
C1600 C1605 1.363 1_556 S
C1601 H1572 0.950 . S
C1601 C1600 1.397 . S
C1601 C1602 1.334 1_556 S
C1602 H1573 0.950 1_554 S
C1602 C1601 1.334 1_554 S
C1602 C1603 1.287 . S
C1603 C1602 1.287 . S
C1603 C1604 1.524 . S
C1603 H1606 0.999 . S
C1604 H1574 0.950 . S
C1604 C1603 1.524 . S
C1604 C1605 1.415 . S
C1605 H1575 0.950 . S
C1605 C1600 1.363 1_554 S
C1605 C1604 1.415 . S
H1606 C1603 0.999 . S
H1607 C1588 0.913 . S
C427 C8 1.591 . S
C442 C109 1.471 1_565 S
C477 C31 1.466 . S
C492 C149 1.320 . S
C527 C53 1.762 . S
C542 C170 1.657 . S
C592 C229 1.395 . S
C577 C74 1.381 . S
C642 C269 1.460 . S
C627 C26 1.574 . S
C677 C48 1.376 . S
C692 C290 1.342 . S
C727 C71 1.800 . S
C742 C330 1.693 . S
C777 C5 1.468 . S
C792 C389 1.329 . S
C827 C50 1.534 . S
C842 C370 1.445 1_545 S
C892 C250 1.278 . S
C877 C70 1.379 . S
C942 C309 1.658 . S
C927 C4 1.817 . S
C977 C28 1.386 . S
C992 C349 1.336 . S
C1042 C130 1.435 . S
C1027 C73 1.518 . S
C1077 C7 1.451 . S
C1092 C189 1.392 . S
C1142 C210 1.734 . S
C1127 C30 1.767 . S
C1192 C90 1.301 . S
C1177 C52 1.404 . S
C1242 C343 1.441 . S
C1227 C9 1.492 . S
C1292 C383 1.340 . S
C1277 C29 1.355 . S
C1327 C51 1.295 . S
C1342 C263 1.283 . S
C1392 C303 1.455 . S
C1377 C75 1.513 . S
C1442 C183 1.456 . S
C1427 C27 1.507 . S
C1477 C49 1.458 . S
C1492 C223 1.414 . S
C1542 C103 1.314 . S
C1527 C72 1.327 . S
C1592 C143 1.330 . S
C1577 C6 1.344 . S
