# Generated by pormake.
# Topology eea, (3,6)-cn, num edge types: 1
# Building blocks:
#     Node 0, Type 0, BuildingBlock: WUSLED_clean_sbu_0, # of connection points: 3
#     Node 1, Type 0, BuildingBlock: WUSLED_clean_sbu_0, # of connection points: 3
#     Node 2, Type 0, BuildingBlock: WUSLED_clean_sbu_0, # of connection points: 3
#     Node 3, Type 0, BuildingBlock: WUSLED_clean_sbu_0, # of connection points: 3
#     Node 4, Type 0, BuildingBlock: WUSLED_clean_sbu_0, # of connection points: 3
#     Node 5, Type 0, BuildingBlock: WUSLED_clean_sbu_0, # of connection points: 3
#     Node 6, Type 0, BuildingBlock: WUSLED_clean_sbu_0, # of connection points: 3
#     Node 7, Type 0, BuildingBlock: WUSLED_clean_sbu_0, # of connection points: 3
#     Node 8, Type 0, BuildingBlock: WUSLED_clean_sbu_0, # of connection points: 3
#     Node 9, Type 0, BuildingBlock: WUSLED_clean_sbu_0, # of connection points: 3
#     Node 10, Type 0, BuildingBlock: WUSLED_clean_sbu_0, # of connection points: 3
#     Node 11, Type 0, BuildingBlock: WUSLED_clean_sbu_0, # of connection points: 3
#     Node 12, Type 0, BuildingBlock: WUSLED_clean_sbu_0, # of connection points: 3
#     Node 13, Type 0, BuildingBlock: WUSLED_clean_sbu_0, # of connection points: 3
#     Node 14, Type 0, BuildingBlock: WUSLED_clean_sbu_0, # of connection points: 3
#     Node 15, Type 0, BuildingBlock: WUSLED_clean_sbu_0, # of connection points: 3
#     Node 16, Type 0, BuildingBlock: WUSLED_clean_sbu_0, # of connection points: 3
#     Node 17, Type 0, BuildingBlock: WUSLED_clean_sbu_0, # of connection points: 3
#     Node 18, Type 1, BuildingBlock: CUWYAW_clean_sbu_0, # of connection points: 6
#     Node 19, Type 1, BuildingBlock: CUWYAW_clean_sbu_0, # of connection points: 6
#     Node 20, Type 1, BuildingBlock: CUWYAW_clean_sbu_0, # of connection points: 6
#     Node 21, Type 1, BuildingBlock: CUWYAW_clean_sbu_0, # of connection points: 6
#     Node 22, Type 1, BuildingBlock: CUWYAW_clean_sbu_0, # of connection points: 6
#     Node 23, Type 1, BuildingBlock: CUWYAW_clean_sbu_0, # of connection points: 6
#     Node 24, Type 1, BuildingBlock: CUWYAW_clean_sbu_0, # of connection points: 6
#     Node 25, Type 1, BuildingBlock: CUWYAW_clean_sbu_0, # of connection points: 6
#     Node 26, Type 1, BuildingBlock: CUWYAW_clean_sbu_0, # of connection points: 6
#     Edge 27, Type (0, 1), BuildingBlock: XIVTED_clean_linker_0, # of connection points: 2
#     Edge 28, Type (0, 1), BuildingBlock: XIVTED_clean_linker_0, # of connection points: 2
#     Edge 29, Type (0, 1), BuildingBlock: XIVTED_clean_linker_0, # of connection points: 2
#     Edge 30, Type (0, 1), BuildingBlock: XIVTED_clean_linker_0, # of connection points: 2
#     Edge 31, Type (0, 1), BuildingBlock: XIVTED_clean_linker_0, # of connection points: 2
#     Edge 32, Type (0, 1), BuildingBlock: XIVTED_clean_linker_0, # of connection points: 2
#     Edge 33, Type (0, 1), BuildingBlock: XIVTED_clean_linker_0, # of connection points: 2
#     Edge 34, Type (0, 1), BuildingBlock: XIVTED_clean_linker_0, # of connection points: 2
#     Edge 35, Type (0, 1), BuildingBlock: XIVTED_clean_linker_0, # of connection points: 2
#     Edge 36, Type (0, 1), BuildingBlock: XIVTED_clean_linker_0, # of connection points: 2
#     Edge 37, Type (0, 1), BuildingBlock: XIVTED_clean_linker_0, # of connection points: 2
#     Edge 38, Type (0, 1), BuildingBlock: XIVTED_clean_linker_0, # of connection points: 2
#     Edge 39, Type (0, 1), BuildingBlock: XIVTED_clean_linker_0, # of connection points: 2
#     Edge 40, Type (0, 1), BuildingBlock: XIVTED_clean_linker_0, # of connection points: 2
#     Edge 41, Type (0, 1), BuildingBlock: XIVTED_clean_linker_0, # of connection points: 2
#     Edge 42, Type (0, 1), BuildingBlock: XIVTED_clean_linker_0, # of connection points: 2
#     Edge 43, Type (0, 1), BuildingBlock: XIVTED_clean_linker_0, # of connection points: 2
#     Edge 44, Type (0, 1), BuildingBlock: XIVTED_clean_linker_0, # of connection points: 2
#     Edge 45, Type (0, 1), BuildingBlock: XIVTED_clean_linker_0, # of connection points: 2
#     Edge 46, Type (0, 1), BuildingBlock: XIVTED_clean_linker_0, # of connection points: 2
#     Edge 47, Type (0, 1), BuildingBlock: XIVTED_clean_linker_0, # of connection points: 2
#     Edge 48, Type (0, 1), BuildingBlock: XIVTED_clean_linker_0, # of connection points: 2
#     Edge 49, Type (0, 1), BuildingBlock: XIVTED_clean_linker_0, # of connection points: 2
#     Edge 50, Type (0, 1), BuildingBlock: XIVTED_clean_linker_0, # of connection points: 2
#     Edge 51, Type (0, 1), BuildingBlock: XIVTED_clean_linker_0, # of connection points: 2
#     Edge 52, Type (0, 1), BuildingBlock: XIVTED_clean_linker_0, # of connection points: 2
#     Edge 53, Type (0, 1), BuildingBlock: XIVTED_clean_linker_0, # of connection points: 2
#     Edge 54, Type (0, 1), BuildingBlock: XIVTED_clean_linker_0, # of connection points: 2
#     Edge 55, Type (0, 1), BuildingBlock: XIVTED_clean_linker_0, # of connection points: 2
#     Edge 56, Type (0, 1), BuildingBlock: XIVTED_clean_linker_0, # of connection points: 2
#     Edge 57, Type (0, 1), BuildingBlock: XIVTED_clean_linker_0, # of connection points: 2
#     Edge 58, Type (0, 1), BuildingBlock: XIVTED_clean_linker_0, # of connection points: 2
#     Edge 59, Type (0, 1), BuildingBlock: XIVTED_clean_linker_0, # of connection points: 2
#     Edge 60, Type (0, 1), BuildingBlock: XIVTED_clean_linker_0, # of connection points: 2
#     Edge 61, Type (0, 1), BuildingBlock: XIVTED_clean_linker_0, # of connection points: 2
#     Edge 62, Type (0, 1), BuildingBlock: XIVTED_clean_linker_0, # of connection points: 2
#     Edge 63, Type (0, 1), BuildingBlock: XIVTED_clean_linker_0, # of connection points: 2
#     Edge 64, Type (0, 1), BuildingBlock: XIVTED_clean_linker_0, # of connection points: 2
#     Edge 65, Type (0, 1), BuildingBlock: XIVTED_clean_linker_0, # of connection points: 2
#     Edge 66, Type (0, 1), BuildingBlock: XIVTED_clean_linker_0, # of connection points: 2
#     Edge 67, Type (0, 1), BuildingBlock: XIVTED_clean_linker_0, # of connection points: 2
#     Edge 68, Type (0, 1), BuildingBlock: XIVTED_clean_linker_0, # of connection points: 2
#     Edge 69, Type (0, 1), BuildingBlock: XIVTED_clean_linker_0, # of connection points: 2
#     Edge 70, Type (0, 1), BuildingBlock: XIVTED_clean_linker_0, # of connection points: 2
#     Edge 71, Type (0, 1), BuildingBlock: XIVTED_clean_linker_0, # of connection points: 2
#     Edge 72, Type (0, 1), BuildingBlock: XIVTED_clean_linker_0, # of connection points: 2
#     Edge 73, Type (0, 1), BuildingBlock: XIVTED_clean_linker_0, # of connection points: 2
#     Edge 74, Type (0, 1), BuildingBlock: XIVTED_clean_linker_0, # of connection points: 2
#     Edge 75, Type (0, 1), BuildingBlock: XIVTED_clean_linker_0, # of connection points: 2
#     Edge 76, Type (0, 1), BuildingBlock: XIVTED_clean_linker_0, # of connection points: 2
#     Edge 77, Type (0, 1), BuildingBlock: XIVTED_clean_linker_0, # of connection points: 2
#     Edge 78, Type (0, 1), BuildingBlock: XIVTED_clean_linker_0, # of connection points: 2
#     Edge 79, Type (0, 1), BuildingBlock: XIVTED_clean_linker_0, # of connection points: 2
#     Edge 80, Type (0, 1), BuildingBlock: XIVTED_clean_linker_0, # of connection points: 2
# Relax obj value: 0.035
# Max RMSD: 0.129
# Mean RMSD: 0.075
data_MOF--net-eea--node1-WUSLED_clean_sbu_0--node2-CUWYAW_clean_sbu_0--edge1-XIVTED_clean_linker_0
_symmetry_space_group_name_H-M    P1
_symmetry_Int_Tables_number       1
_symmetry_cell_setting            triclinic
loop_
_symmetry_equiv_pos_as_xyz
'x, y, z'
_cell_length_a     67.380969
_cell_length_b     67.210042
_cell_length_c     94.226515
_cell_angle_alpha  92.96146
_cell_angle_beta   93.074405
_cell_angle_gamma 119.86024
loop_
_atom_site_label
_atom_site_type_symbol
_atom_site_fract_x
_atom_site_fract_y
_atom_site_fract_z
_atom_type_partial_charge
C0 C 0.21688 0.15605 0.39832 0.0
C1 C 0.23311 0.17389 0.39093 0.0
C2 C 0.20816 0.19038 0.3885 0.0
C3 C 0.22885 0.19092 0.38614 0.0
C4 C 0.19208 0.17271 0.39604 0.0
C5 C 0.19634 0.15573 0.40085 0.0
U6 U 0.23555 0.12662 0.42574 0.0
O7 O 0.21952 0.09024 0.42998 0.0
O8 O 0.25441 0.10785 0.42313 0.0
C9 C 0.23676 0.08814 0.42581 0.0
C10 C 0.2208 0.1372 0.40255 0.0
C11 C 0.23086 0.06767 0.41591 0.0
C12 C 0.2027 0.02989 0.40428 0.0
C13 C 0.20791 0.05 0.41262 0.0
C14 C 0.2432 0.04469 0.40214 0.0
C15 C 0.22027 0.02687 0.39901 0.0
C16 C 0.24842 0.06479 0.41054 0.0
C17 C 0.25657 0.15436 0.46393 0.0
C18 C 0.26783 0.13655 0.48206 0.0
C19 C 0.26776 0.17194 0.48833 0.0
C20 C 0.26035 0.17201 0.47419 0.0
C21 C 0.27155 0.15418 0.49245 0.0
C22 C 0.26036 0.13662 0.46792 0.0
C23 C 0.24827 0.15445 0.44921 0.0
O24 O 0.2423 0.1425 0.40536 0.0
O25 O 0.20705 0.1235 0.41149 0.0
O26 O 0.22684 0.1386 0.44533 0.0
O27 O 0.2623 0.15659 0.43946 0.0
H28 H 0.24896 0.17448 0.38862 0.0
H29 H 0.24148 0.2041 0.38021 0.0
H30 H 0.17608 0.17191 0.39818 0.0
H31 H 0.18334 0.14219 0.40639 0.0
H32 H 0.18487 0.01642 0.40231 0.0
H33 H 0.19392 0.05143 0.41672 0.0
H34 H 0.25717 0.04312 0.39814 0.0
H35 H 0.26628 0.07796 0.41301 0.0
H36 H 0.27033 0.12249 0.4849 0.0
H37 H 0.27076 0.18594 0.496 0.0
H38 H 0.25752 0.18585 0.47127 0.0
H39 H 0.2574 0.12278 0.46012 0.0
C40 C 0.94333 0.16183 0.40542 0.0
C41 C 0.96521 0.16787 0.41177 0.0
C42 C 0.98369 0.19715 0.3951 0.0
C43 C 0.98512 0.1853 0.40667 0.0
C44 C 0.96175 0.19133 0.38897 0.0
C45 C 0.94186 0.17385 0.39403 0.0
U46 U 0.89892 0.12988 0.43246 0.0
O47 O 0.86113 0.10954 0.42894 0.0
O48 O 0.88061 0.09308 0.43596 0.0
C49 C 0.86036 0.09026 0.43185 0.0
C50 C 0.92199 0.14219 0.40979 0.0
C51 C 0.84525 0.06978 0.42196 0.0
C52 C 0.83779 0.04519 0.40014 0.0
C53 C 0.85233 0.06535 0.40902 0.0
C54 C 0.8089 0.03392 0.41698 0.0
C55 C 0.81589 0.02914 0.40404 0.0
C56 C 0.82343 0.054 0.42581 0.0
C57 C 0.90634 0.15643 0.47064 0.0
C58 C 0.87794 0.13789 0.48758 0.0
C59 C 0.913 0.17381 0.49497 0.0
C60 C 0.92019 0.17415 0.48127 0.0
C61 C 0.89174 0.15571 0.49832 0.0
C62 C 0.88517 0.13825 0.47388 0.0
C63 C 0.91416 0.15723 0.45627 0.0
O64 O 0.92438 0.12932 0.41901 0.0
O65 O 0.90515 0.14614 0.41218 0.0
O66 O 0.90129 0.15885 0.44593 0.0
O67 O 0.92069 0.14229 0.45284 0.0
H68 H 0.96701 0.15888 0.42052 0.0
H69 H 1.00165 0.18903 0.41157 0.0
H70 H 0.95987 0.20027 0.38022 0.0
H71 H 0.92526 0.16951 0.38889 0.0
H72 H 0.84364 0.04223 0.39019 0.0
H73 H 0.86913 0.07738 0.40584 0.0
H74 H 0.79238 0.02186 0.42046 0.0
H75 H 0.8177 0.05708 0.43579 0.0
H76 H 0.86136 0.12383 0.48969 0.0
H77 H 0.92426 0.18763 0.50298 0.0
H78 H 0.93663 0.18828 0.47899 0.0
H79 H 0.87422 0.12442 0.46578 0.0
C80 C 0.86305 0.78885 0.40816 0.0
C81 C 0.86 0.80634 0.41468 0.0
C82 C 0.82582 0.79461 0.39845 0.0
C83 C 0.8416 0.80917 0.40988 0.0
C84 C 0.82872 0.7769 0.39212 0.0
C85 C 0.84716 0.77414 0.39687 0.0
U86 U 0.89735 0.7731 0.43469 0.0
O87 O 0.91609 0.75458 0.43083 0.0
O88 O 0.93463 0.7902 0.44065 0.0
C89 C 0.93621 0.77277 0.43501 0.0
C90 C 0.88312 0.78629 0.41251 0.0
C91 C 0.95499 0.77857 0.42558 0.0
C92 C 0.97013 0.77005 0.40459 0.0
C93 C 0.95168 0.76515 0.41274 0.0
C94 C 0.99546 0.8021 0.42175 0.0
C95 C 0.99235 0.78842 0.40908 0.0
C96 C 0.97707 0.79716 0.42991 0.0
C97 C 0.87069 0.75194 0.47048 0.0
C98 C 0.8878 0.75394 0.49434 0.0
C99 C 0.84688 0.72893 0.48841 0.0
C100 C 0.8492 0.73572 0.47455 0.0
C101 C 0.86606 0.73827 0.49858 0.0
C102 C 0.8901 0.76077 0.48041 0.0
C103 C 0.87175 0.7604 0.45623 0.0
O104 O 0.89763 0.80072 0.42302 0.0
O105 O 0.87893 0.76508 0.41328 0.0
O106 O 0.869 0.74612 0.44524 0.0
O107 O 0.88756 0.78185 0.45496 0.0
H108 H 0.87199 0.8181 0.42336 0.0
H109 H 0.84013 0.82318 0.4149 0.0
H110 H 0.81674 0.76511 0.38345 0.0
H111 H 0.84909 0.76058 0.39159 0.0
H112 H 0.9671 0.759 0.39498 0.0
H113 H 0.93493 0.7506 0.4091 0.0
H114 H 0.0122 0.81663 0.42544 0.0
H115 H 0.9802 0.80776 0.43976 0.0
H116 H 0.9029 0.76152 0.50191 0.0
H117 H 0.82997 0.7165 0.49121 0.0
H118 H 0.83401 0.72865 0.46706 0.0
H119 H 0.9069 0.77333 0.47752 0.0
C120 C 0.07252 0.22405 0.61586 0.0
C121 C 0.05635 0.22607 0.60694 0.0
C122 C 0.03183 0.21881 0.6265 0.0
C123 C 0.03615 0.22343 0.61222 0.0
C124 C 0.04819 0.21685 0.63532 0.0
C125 C 0.06828 0.21945 0.63005 0.0
U126 U 0.11651 0.23784 0.58783 0.0
O127 O 0.1543 0.25613 0.59129 0.0
O128 O 0.13541 0.22003 0.58239 0.0
C129 C 0.15549 0.23784 0.58708 0.0
C130 C 0.09382 0.22647 0.61069 0.0
C131 C 0.17076 0.23293 0.59615 0.0
C132 C 0.17964 0.21892 0.61753 0.0
C133 C 0.16493 0.22408 0.60943 0.0
C134 C 0.20614 0.23169 0.5992 0.0
C135 C 0.20033 0.22244 0.61242 0.0
C136 C 0.19151 0.23684 0.59117 0.0
C137 C 0.10867 0.25631 0.55121 0.0
C138 C 0.13631 0.2647 0.53359 0.0
C139 C 0.10264 0.26809 0.52816 0.0
C140 C 0.0955 0.26139 0.54165 0.0
C141 C 0.12314 0.26985 0.52392 0.0
C142 C 0.12913 0.25799 0.5471 0.0
C143 C 0.10086 0.24929 0.56538 0.0
O144 O 0.09124 0.21139 0.60025 0.0
O145 O 0.11007 0.24756 0.60904 0.0
O146 O 0.11357 0.26405 0.57628 0.0
O147 O 0.09467 0.22789 0.56756 0.0
H148 H 0.05936 0.22968 0.59594 0.0
H149 H 0.02407 0.22528 0.60515 0.0
H150 H 0.04533 0.21291 0.64629 0.0
H151 H 0.08051 0.21773 0.63708 0.0
H152 H 0.17456 0.2117 0.62761 0.0
H153 H 0.14894 0.22094 0.61344 0.0
H154 H 0.22209 0.23504 0.59504 0.0
H155 H 0.19635 0.24377 0.58098 0.0
H156 H 0.15202 0.26557 0.53066 0.0
H157 H 0.09223 0.27224 0.52112 0.0
H158 H 0.07969 0.26026 0.54466 0.0
H159 H 0.13951 0.25406 0.55433 0.0
C160 C 0.79909 0.85938 0.62634 0.0
C161 C 0.79142 0.83839 0.61815 0.0
C162 C 0.808 0.82562 0.63679 0.0
C163 C 0.79577 0.8216 0.62335 0.0
C164 C 0.81545 0.84667 0.64494 0.0
C165 C 0.81104 0.86333 0.63976 0.0
U166 U 0.78099 0.88684 0.59718 0.0
O167 O 0.79686 0.92324 0.59288 0.0
O168 O 0.76146 0.90504 0.59883 0.0
C169 C 0.77893 0.92481 0.59612 0.0
C170 C 0.79507 0.87751 0.62117 0.0
C171 C 0.78388 0.94501 0.60576 0.0
C172 C 0.80108 0.96946 0.62799 0.0
C173 C 0.79592 0.94965 0.61926 0.0
C174 C 0.7819 0.97995 0.6099 0.0
C175 C 0.79421 0.98493 0.62338 0.0
C176 C 0.77681 0.9602 0.6012 0.0
C177 C 0.76093 0.85824 0.55906 0.0
C178 C 0.75536 0.87752 0.53938 0.0
C179 C 0.74316 0.83694 0.53598 0.0
C180 C 0.75093 0.83764 0.55017 0.0
C181 C 0.74531 0.85687 0.53039 0.0
C182 C 0.76303 0.87818 0.55361 0.0
C183 C 0.76911 0.85863 0.57394 0.0
O184 O 0.8091 0.89031 0.61205 0.0
O185 O 0.77354 0.87153 0.6177 0.0
O186 O 0.75478 0.85639 0.5835 0.0
O187 O 0.79042 0.87471 0.57797 0.0
H188 H 0.7822 0.83506 0.60772 0.0
H189 H 0.78995 0.80568 0.61675 0.0
H190 H 0.82456 0.85022 0.65541 0.0
H191 H 0.81701 0.87939 0.64626 0.0
H192 H 0.81034 0.9726 0.63837 0.0
H193 H 0.80146 0.93805 0.62298 0.0
H194 H 0.77662 0.99158 0.6059 0.0
H195 H 0.76756 0.95693 0.59079 0.0
H196 H 0.75701 0.89311 0.53548 0.0
H197 H 0.73577 0.82083 0.52933 0.0
H198 H 0.74919 0.82209 0.5542 0.0
H199 H 0.77059 0.89423 0.56035 0.0
C200 C 0.06913 0.84968 0.61831 0.0
C201 C 0.04732 0.84413 0.61212 0.0
C202 C 0.02856 0.81467 0.62864 0.0
C203 C 0.0273 0.82685 0.61722 0.0
C204 C 0.05043 0.81999 0.63462 0.0
C205 C 0.07042 0.83731 0.62955 0.0
U206 U 0.11396 0.88169 0.59144 0.0
O207 O 0.13258 0.91857 0.58814 0.0
O208 O 0.15174 0.90177 0.59512 0.0
C209 C 0.15274 0.92116 0.59227 0.0
C210 C 0.09061 0.86922 0.614 0.0
C211 C 0.16799 0.94157 0.60219 0.0
C212 C 0.1757 0.96621 0.62402 0.0
C213 C 0.161 0.94609 0.61514 0.0
C214 C 0.20453 0.97723 0.60716 0.0
C215 C 0.19765 0.9821 0.6201 0.0
C216 C 0.18985 0.95719 0.59832 0.0
C217 C 0.10705 0.85582 0.55317 0.0
C218 C 0.13495 0.87576 0.5362 0.0
C219 C 0.10195 0.83806 0.52911 0.0
C220 C 0.09441 0.83738 0.54273 0.0
C221 C 0.12234 0.85725 0.52565 0.0
C222 C 0.12737 0.87504 0.54983 0.0
C223 C 0.09891 0.85471 0.56748 0.0
O224 O 0.10735 0.86512 0.61162 0.0
O225 O 0.08843 0.88227 0.60482 0.0
O226 O 0.09244 0.86967 0.57097 0.0
O227 O 0.11155 0.8528 0.57784 0.0
H228 H 0.04564 0.8534 0.6035 0.0
H229 H 0.01084 0.82351 0.61245 0.0
H230 H 0.05217 0.81078 0.64325 0.0
H231 H 0.08697 0.84127 0.63459 0.0
H232 H 0.16992 0.96925 0.63398 0.0
H233 H 0.14417 0.93418 0.61832 0.0
H234 H 0.22108 0.98916 0.60366 0.0
H235 H 0.1955 0.95404 0.58833 0.0
H236 H 0.15055 0.89093 0.53389 0.0
H237 H 0.09197 0.82336 0.52136 0.0
H238 H 0.07873 0.82236 0.54513 0.0
H239 H 0.13734 0.88949 0.55776 0.0
C240 C 0.88397 0.48734 0.7287 0.0
C241 C 0.89112 0.50767 0.7375 0.0
C242 C 0.87537 0.52181 0.71926 0.0
C243 C 0.88693 0.52482 0.7328 0.0
C244 C 0.86849 0.50145 0.71048 0.0
C245 C 0.87275 0.48442 0.71516 0.0
U246 U 0.90159 0.45949 0.7575 0.0
O247 O 0.88552 0.42321 0.76206 0.0
O248 O 0.92092 0.44106 0.75606 0.0
C249 C 0.90337 0.42143 0.75891 0.0
C250 C 0.88763 0.46881 0.73349 0.0
C251 C 0.89825 0.40101 0.74945 0.0
C252 C 0.88112 0.37632 0.72731 0.0
C253 C 0.88652 0.39638 0.73585 0.0
C254 C 0.89941 0.36556 0.7458 0.0
C255 C 0.8874 0.36059 0.73221 0.0
C256 C 0.90475 0.38555 0.75431 0.0
C257 C 0.92155 0.48846 0.79544 0.0
C258 C 0.93265 0.47133 0.81412 0.0
C259 C 0.93279 0.50702 0.81961 0.0
C260 C 0.92538 0.50652 0.80538 0.0
C261 C 0.93651 0.48942 0.82418 0.0
C262 C 0.92523 0.47086 0.79987 0.0
C263 C 0.9135 0.48806 0.78056 0.0
O264 O 0.9091 0.47452 0.7369 0.0
O265 O 0.87354 0.45596 0.74257 0.0
O266 O 0.89218 0.47198 0.77659 0.0
O267 O 0.92781 0.49005 0.77105 0.0
H268 H 0.89975 0.51017 0.74803 0.0
H269 H 0.89228 0.54018 0.73988 0.0
H270 H 0.85989 0.49871 0.69992 0.0
H271 H 0.86716 0.46886 0.70821 0.0
H272 H 0.8721 0.37319 0.71684 0.0
H273 H 0.88142 0.40818 0.7319 0.0
H274 H 0.90423 0.35372 0.75003 0.0
H275 H 0.91375 0.38881 0.76481 0.0
H276 H 0.93562 0.45766 0.8172 0.0
H277 H 0.93525 0.52102 0.82709 0.0
H278 H 0.92253 0.5202 0.80214 0.0
H279 H 0.92237 0.45677 0.79231 0.0
C280 C 0.60793 0.49207 0.73745 0.0
C281 C 0.62293 0.51169 0.74663 0.0
C282 C 0.64811 0.52802 0.72756 0.0
C283 C 0.64287 0.52951 0.74173 0.0
C284 C 0.6329 0.50824 0.71847 0.0
C285 C 0.61307 0.49051 0.72337 0.0
U286 U 0.56437 0.46183 0.76518 0.0
O287 O 0.52658 0.44127 0.76182 0.0
O288 O 0.54628 0.42521 0.76914 0.0
C289 C 0.52595 0.42216 0.76495 0.0
C290 C 0.58689 0.47293 0.74222 0.0
C291 C 0.51095 0.40146 0.75517 0.0
C292 C 0.5034 0.37698 0.73329 0.0
C293 C 0.51789 0.39721 0.74213 0.0
C294 C 0.47486 0.36528 0.75038 0.0
C295 C 0.48169 0.36071 0.73733 0.0
C296 C 0.48934 0.38543 0.75918 0.0
C297 C 0.57181 0.48943 0.80306 0.0
C298 C 0.54448 0.47023 0.82047 0.0
C299 C 0.57762 0.50807 0.82694 0.0
C300 C 0.58473 0.50822 0.81324 0.0
C301 C 0.55738 0.48909 0.83076 0.0
C302 C 0.55163 0.47041 0.80675 0.0
C303 C 0.57961 0.48992 0.78869 0.0
O304 O 0.58993 0.46106 0.7519 0.0
O305 O 0.5703 0.47723 0.74464 0.0
O306 O 0.56661 0.49113 0.77825 0.0
O307 O 0.58629 0.47502 0.78549 0.0
H308 H 0.61922 0.51323 0.75755 0.0
H309 H 0.65402 0.54454 0.749 0.0
H310 H 0.63649 0.50623 0.70759 0.0
H311 H 0.60175 0.47545 0.71614 0.0
H312 H 0.50913 0.37417 0.72325 0.0
H313 H 0.53452 0.40944 0.73884 0.0
H314 H 0.45849 0.35306 0.75396 0.0
H315 H 0.48373 0.38838 0.76924 0.0
H316 H 0.52868 0.45545 0.82294 0.0
H317 H 0.58818 0.52274 0.8346 0.0
H318 H 0.6004 0.52302 0.81059 0.0
H319 H 0.54139 0.45574 0.79901 0.0
C320 C 0.53278 0.1249 0.74043 0.0
C321 C 0.51604 0.122 0.74967 0.0
C322 C 0.4954 0.13045 0.73104 0.0
C323 C 0.49752 0.1248 0.74502 0.0
C324 C 0.51238 0.13346 0.72191 0.0
C325 C 0.53084 0.1307 0.72657 0.0
U326 U 0.56627 0.11041 0.76814 0.0
O327 O 0.58382 0.09041 0.76526 0.0
O328 O 0.60355 0.12674 0.77365 0.0
C329 C 0.60425 0.10827 0.76918 0.0
C330 C 0.55229 0.12186 0.745 0.0
C331 C 0.62258 0.11203 0.75993 0.0
C332 C 0.64251 0.12593 0.73863 0.0
C333 C 0.6242 0.1216 0.74684 0.0
C334 C 0.65743 0.1108 0.75641 0.0
C335 C 0.65955 0.12086 0.74343 0.0
C336 C 0.63917 0.10646 0.76455 0.0
C337 C 0.54217 0.09485 0.80497 0.0
C338 C 0.55051 0.07445 0.82282 0.0
C339 C 0.5305 0.09481 0.82895 0.0
C340 C 0.53172 0.10163 0.81511 0.0
C341 C 0.53972 0.08098 0.83299 0.0
C342 C 0.55177 0.08137 0.80894 0.0
C343 C 0.54194 0.10144 0.79028 0.0
O344 O 0.56704 0.13703 0.75513 0.0
O345 O 0.54712 0.10064 0.7469 0.0
O346 O 0.53815 0.08583 0.77987 0.0
O347 O 0.55798 0.1223 0.78801 0.0
H348 H 0.51726 0.11748 0.76042 0.0
H349 H 0.48468 0.12215 0.75229 0.0
H350 H 0.51155 0.13819 0.71117 0.0
H351 H 0.54365 0.13309 0.71931 0.0
H352 H 0.64367 0.13381 0.72874 0.0
H353 H 0.61151 0.12601 0.74309 0.0
H354 H 0.66995 0.10628 0.76032 0.0
H355 H 0.63816 0.09896 0.77458 0.0
H356 H 0.55802 0.06402 0.82559 0.0
H357 H 0.52176 0.09989 0.83638 0.0
H358 H 0.52412 0.11196 0.81225 0.0
H359 H 0.56002 0.07601 0.80129 0.0
C360 C 0.7384 0.5571 0.94911 0.0
C361 C 0.72309 0.56055 0.94031 0.0
C362 C 0.69733 0.55153 0.95929 0.0
C363 C 0.7027 0.55775 0.94535 0.0
C364 C 0.71281 0.54808 0.968 0.0
C365 C 0.7331 0.55084 0.96295 0.0
U366 U 0.78284 0.57223 0.92144 0.0
O367 O 0.82063 0.591 0.92497 0.0
O368 O 0.80224 0.5551 0.91568 0.0
C369 C 0.82216 0.573 0.92053 0.0
C370 C 0.75995 0.55986 0.94417 0.0
C371 C 0.83757 0.56814 0.92949 0.0
C372 C 0.84625 0.55306 0.95041 0.0
C373 C 0.8314 0.55817 0.94243 0.0
C374 C 0.87358 0.56815 0.93265 0.0
C375 C 0.86742 0.55775 0.9455 0.0
C376 C 0.8588 0.57326 0.92474 0.0
C377 C 0.7747 0.59167 0.8852 0.0
C378 C 0.79897 0.59594 0.86603 0.0
C379 C 0.77177 0.60949 0.86399 0.0
C380 C 0.7647 0.60212 0.87738 0.0
C381 C 0.789 0.6065 0.85813 0.0
C382 C 0.79194 0.58866 0.87947 0.0
C383 C 0.76697 0.58407 0.8993 0.0
O384 O 0.75771 0.54514 0.93359 0.0
O385 O 0.7761 0.5811 0.94278 0.0
O386 O 0.77951 0.59861 0.91032 0.0
O387 O 0.76105 0.56264 0.9012 0.0
H388 H 0.72694 0.56543 0.92959 0.0
H389 H 0.69132 0.56075 0.93841 0.0
H390 H 0.70911 0.5429 0.97868 0.0
H391 H 0.74466 0.54802 0.96987 0.0
H392 H 0.84091 0.54494 0.96021 0.0
H393 H 0.81503 0.55411 0.94627 0.0
H394 H 0.8899 0.5724 0.92867 0.0
H395 H 0.86391 0.58107 0.91482 0.0
H396 H 0.81246 0.59362 0.86192 0.0
H397 H 0.76352 0.61728 0.85815 0.0
H398 H 0.75135 0.60456 0.88163 0.0
H399 H 0.79997 0.58074 0.88539 0.0
C400 C 0.4659 0.19166 0.95872 0.0
C401 C 0.44901 0.17323 0.96541 0.0
C402 C 0.47429 0.15727 0.9689 0.0
C403 C 0.45311 0.15619 0.97037 0.0
C404 C 0.49107 0.17557 0.96207 0.0
C405 C 0.48696 0.19257 0.9571 0.0
U406 U 0.44812 0.22123 0.93084 0.0
O407 O 0.42849 0.23927 0.93291 0.0
O408 O 0.46392 0.25781 0.927 0.0
C409 C 0.44591 0.25917 0.93032 0.0
C410 C 0.46206 0.2105 0.9543 0.0
C411 C 0.45068 0.27921 0.94004 0.0
C412 C 0.46819 0.30386 0.96217 0.0
C413 C 0.46312 0.28409 0.95342 0.0
C414 C 0.44813 0.31379 0.94433 0.0
C415 C 0.46084 0.31904 0.95769 0.0
C416 C 0.44313 0.2941 0.93562 0.0
C417 C 0.42827 0.19348 0.89247 0.0
C418 C 0.42234 0.21291 0.87301 0.0
C419 C 0.41106 0.17258 0.86924 0.0
C420 C 0.41875 0.17311 0.88341 0.0
C421 C 0.4128 0.19248 0.86385 0.0
C422 C 0.42995 0.21338 0.88722 0.0
C423 C 0.43641 0.19367 0.90731 0.0
O424 O 0.47618 0.22435 0.94556 0.0
O425 O 0.44061 0.20513 0.95112 0.0
O426 O 0.42202 0.19113 0.91687 0.0
O427 O 0.45768 0.20979 0.91141 0.0
H428 H 0.43273 0.17215 0.96704 0.0
H429 H 0.43992 0.14254 0.97575 0.0
H430 H 0.50747 0.17683 0.9606 0.0
H431 H 0.50047 0.20659 0.95212 0.0
H432 H 0.47777 0.30721 0.97245 0.0
H433 H 0.46905 0.27273 0.95703 0.0
H434 H 0.44248 0.3252 0.94043 0.0
H435 H 0.43358 0.29065 0.9253 0.0
H436 H 0.42367 0.22845 0.86926 0.0
H437 H 0.40407 0.15665 0.86244 0.0
H438 H 0.41736 0.1576 0.88728 0.0
H439 H 0.43714 0.22926 0.89411 0.0
C440 C 0.73894 0.18612 0.95235 0.0
C441 C 0.72381 0.16657 0.94315 0.0
C442 C 0.69848 0.1505 0.96217 0.0
C443 C 0.70374 0.14892 0.94801 0.0
C444 C 0.71381 0.17019 0.97129 0.0
C445 C 0.73379 0.18776 0.96642 0.0
U446 U 0.78243 0.21548 0.92455 0.0
O447 O 0.80081 0.25197 0.92028 0.0
O448 O 0.82023 0.23569 0.92776 0.0
C449 C 0.82107 0.25484 0.92446 0.0
C450 C 0.76008 0.20508 0.94759 0.0
C451 C 0.83625 0.27561 0.93411 0.0
C452 C 0.84435 0.30015 0.95604 0.0
C453 C 0.8297 0.27986 0.9473 0.0
C454 C 0.87225 0.31193 0.93853 0.0
C455 C 0.86581 0.31649 0.95174 0.0
C456 C 0.85761 0.29172 0.92983 0.0
C457 C 0.7747 0.18746 0.88689 0.0
C458 C 0.80274 0.20619 0.86978 0.0
C459 C 0.76865 0.16921 0.86286 0.0
C460 C 0.76138 0.16909 0.87652 0.0
C461 C 0.78945 0.18776 0.8593 0.0
C462 C 0.79543 0.20604 0.88344 0.0
C463 C 0.7668 0.18705 0.90121 0.0
O464 O 0.77651 0.20051 0.94522 0.0
O465 O 0.75718 0.21692 0.93783 0.0
O466 O 0.76031 0.20212 0.90432 0.0
O467 O 0.77969 0.18578 0.91169 0.0
H468 H 0.72753 0.16498 0.93224 0.0
H469 H 0.69249 0.13394 0.94073 0.0
H470 H 0.7102 0.17225 0.98215 0.0
H471 H 0.74521 0.20276 0.97366 0.0
H472 H 0.83894 0.30295 0.9662 0.0
H473 H 0.81326 0.26756 0.95079 0.0
H474 H 0.88842 0.32422 0.93475 0.0
H475 H 0.86291 0.28877 0.91965 0.0
H476 H 0.81897 0.22062 0.86751 0.0
H477 H 0.75779 0.15489 0.85504 0.0
H478 H 0.74528 0.15464 0.87897 0.0
H479 H 0.80598 0.22038 0.89133 0.0
C480 C 0.55041 0.82215 0.06435 0.0
C481 C 0.53142 0.8239 0.06826 0.0
C482 C 0.5426 0.85703 0.05447 0.0
C483 C 0.52759 0.84112 0.06338 0.0
C484 C 0.56177 0.85551 0.05074 0.0
C485 C 0.56554 0.8382 0.05556 0.0
U486 U 0.56755 0.79239 0.09231 0.0
O487 O 0.55163 0.75584 0.09622 0.0
O488 O 0.58715 0.7743 0.09044 0.0
C489 C 0.56967 0.75443 0.09301 0.0
C490 C 0.55398 0.80316 0.06874 0.0
C491 C 0.56492 0.73436 0.08332 0.0
C492 C 0.54765 0.70978 0.06115 0.0
C493 C 0.55271 0.72958 0.06987 0.0
C494 C 0.56725 0.69963 0.07917 0.0
C495 C 0.55477 0.69449 0.06573 0.0
C496 C 0.57225 0.71935 0.08785 0.0
C497 C 0.58715 0.82043 0.13062 0.0
C498 C 0.59336 0.80134 0.15018 0.0
C499 C 0.60432 0.8416 0.15379 0.0
C500 C 0.59654 0.84086 0.13961 0.0
C501 C 0.60283 0.82185 0.15926 0.0
C502 C 0.58565 0.80065 0.13596 0.0
C503 C 0.57908 0.82009 0.11575 0.0
O504 O 0.57539 0.80849 0.07202 0.0
O505 O 0.53971 0.78926 0.07739 0.0
O506 O 0.55784 0.80394 0.11163 0.0
O507 O 0.59356 0.82255 0.10626 0.0
H508 H 0.51933 0.81182 0.07497 0.0
H509 H 0.5128 0.84195 0.06659 0.0
H510 H 0.57351 0.86729 0.04375 0.0
H511 H 0.58017 0.83716 0.05223 0.0
H512 H 0.53825 0.70651 0.05081 0.0
H513 H 0.54696 0.74103 0.06618 0.0
H514 H 0.57271 0.68813 0.08315 0.0
H515 H 0.58161 0.72273 0.09823 0.0
H516 H 0.59221 0.78591 0.154 0.0
H517 H 0.61125 0.85758 0.16052 0.0
H518 H 0.59779 0.85628 0.13567 0.0
H519 H 0.57856 0.78473 0.12913 0.0
C520 C 0.27913 0.82991 0.07314 0.0
C521 C 0.30098 0.83541 0.07924 0.0
C522 C 0.31959 0.86556 0.06312 0.0
C523 C 0.32094 0.85302 0.07429 0.0
C524 C 0.29768 0.86033 0.05727 0.0
C525 C 0.27775 0.84268 0.06218 0.0
U526 U 0.23343 0.79594 0.0992 0.0
O527 O 0.19579 0.77485 0.09477 0.0
O528 O 0.21563 0.75892 0.10206 0.0
C529 C 0.19545 0.75558 0.09716 0.0
C530 C 0.25775 0.80987 0.07714 0.0
C531 C 0.18133 0.73538 0.0866 0.0
C532 C 0.17264 0.69818 0.07515 0.0
C533 C 0.18722 0.71823 0.08404 0.0
C534 C 0.14601 0.71198 0.07101 0.0
C535 C 0.15172 0.69466 0.0686 0.0
C536 C 0.16058 0.73201 0.07993 0.0
C537 C 0.23857 0.8206 0.1377 0.0
C538 C 0.21083 0.79985 0.15459 0.0
C539 C 0.24321 0.83787 0.16185 0.0
C540 C 0.25084 0.83899 0.14823 0.0
C541 C 0.2231 0.81828 0.16524 0.0
C542 C 0.2185 0.801 0.14095 0.0
C543 C 0.24697 0.82218 0.12345 0.0
O544 O 0.26003 0.79682 0.08627 0.0
O545 O 0.24052 0.81329 0.07931 0.0
O546 O 0.23424 0.82383 0.11302 0.0
O547 O 0.25415 0.8078 0.11996 0.0
H548 H 0.30274 0.82582 0.08762 0.0
H549 H 0.33745 0.85629 0.07896 0.0
H550 H 0.29588 0.8698 0.04883 0.0
H551 H 0.26117 0.83875 0.05721 0.0
H552 H 0.17749 0.68512 0.07376 0.0
H553 H 0.20286 0.72 0.08917 0.0
H554 H 0.13022 0.71005 0.06603 0.0
H555 H 0.15537 0.74472 0.08181 0.0
H556 H 0.19544 0.7844 0.15683 0.0
H557 H 0.25292 0.85253 0.16967 0.0
H558 H 0.26633 0.85429 0.14591 0.0
H559 H 0.20882 0.7866 0.13295 0.0
C560 C 0.19772 0.45618 0.0737 0.0
C561 C 0.19406 0.47304 0.08056 0.0
C562 C 0.16088 0.46236 0.06362 0.0
C563 C 0.17586 0.47608 0.07557 0.0
C564 C 0.1644 0.44529 0.05693 0.0
C565 C 0.18264 0.44233 0.06187 0.0
U566 U 0.23111 0.44034 0.10088 0.0
O567 O 0.24926 0.42109 0.09742 0.0
O568 O 0.26827 0.45682 0.107 0.0
C569 C 0.26945 0.43888 0.10194 0.0
C570 C 0.21751 0.45332 0.0783 0.0
C571 C 0.28827 0.44384 0.09286 0.0
C572 C 0.30662 0.45582 0.07084 0.0
C573 C 0.28811 0.45068 0.07904 0.0
C574 C 0.32542 0.4471 0.09016 0.0
C575 C 0.32564 0.45431 0.07637 0.0
C576 C 0.30696 0.44194 0.09829 0.0
C577 C 0.20402 0.42075 0.13673 0.0
C578 C 0.22174 0.41977 0.15971 0.0
C579 C 0.18035 0.40178 0.15577 0.0
C580 C 0.18236 0.40821 0.14183 0.0
C581 C 0.2 0.40776 0.16498 0.0
C582 C 0.22375 0.42628 0.14569 0.0
C583 C 0.20526 0.42877 0.12234 0.0
O584 O 0.2321 0.46788 0.08874 0.0
O585 O 0.21289 0.43203 0.07937 0.0
O586 O 0.20239 0.41408 0.11157 0.0
O587 O 0.22143 0.44999 0.12091 0.0
H588 H 0.20539 0.4841 0.08968 0.0
H589 H 0.17392 0.48959 0.08089 0.0
H590 H 0.15303 0.43411 0.04786 0.0
H591 H 0.18505 0.42925 0.05635 0.0
H592 H 0.30628 0.46147 0.06032 0.0
H593 H 0.2738 0.45227 0.07467 0.0
H594 H 0.33952 0.44534 0.09468 0.0
H595 H 0.30735 0.43658 0.1089 0.0
H596 H 0.23723 0.42473 0.16653 0.0
H597 H 0.16333 0.39215 0.15936 0.0
H598 H 0.16693 0.40371 0.13507 0.0
H599 H 0.24066 0.43596 0.14196 0.0
C600 C 0.40467 0.89153 0.28088 0.0
C601 C 0.38842 0.89323 0.27184 0.0
C602 C 0.36396 0.88638 0.29139 0.0
C603 C 0.36821 0.89064 0.27705 0.0
C604 C 0.38045 0.88481 0.30034 0.0
C605 C 0.40055 0.88738 0.29513 0.0
U606 U 0.44901 0.90453 0.2531 0.0
O607 O 0.48668 0.92173 0.25684 0.0
O608 O 0.46701 0.88567 0.24787 0.0
C609 C 0.48716 0.90285 0.25311 0.0
C610 C 0.42582 0.89354 0.27576 0.0
C611 C 0.50128 0.89689 0.2627 0.0
C612 C 0.52892 0.90604 0.28328 0.0
C613 C 0.51421 0.91105 0.27511 0.0
C614 C 0.51772 0.87241 0.26699 0.0
C615 C 0.53112 0.88683 0.2792 0.0
C616 C 0.5031 0.87745 0.25882 0.0
C617 C 0.44248 0.92357 0.21637 0.0
C618 C 0.47023 0.93153 0.19889 0.0
C619 C 0.43682 0.93527 0.19322 0.0
C620 C 0.42953 0.92875 0.20671 0.0
C621 C 0.45727 0.93675 0.1891 0.0
C622 C 0.46289 0.92499 0.21239 0.0
C623 C 0.43445 0.91671 0.23051 0.0
O624 O 0.423 0.87839 0.2653 0.0
O625 O 0.44243 0.9145 0.2742 0.0
O626 O 0.4473 0.93129 0.24145 0.0
O627 O 0.42763 0.89516 0.23268 0.0
H628 H 0.39134 0.89646 0.26079 0.0
H629 H 0.35602 0.89217 0.26989 0.0
H630 H 0.37765 0.88115 0.31135 0.0
H631 H 0.41284 0.8859 0.30225 0.0
H632 H 0.53913 0.91766 0.29252 0.0
H633 H 0.51337 0.92628 0.27837 0.0
H634 H 0.51863 0.85725 0.26365 0.0
H635 H 0.49347 0.86628 0.24929 0.0
H636 H 0.4859 0.93221 0.19605 0.0
H637 H 0.42657 0.93949 0.18609 0.0
H638 H 0.41376 0.92781 0.20961 0.0
H639 H 0.4731 0.92099 0.21972 0.0
C640 C 0.13107 0.52351 0.29072 0.0
C641 C 0.15082 0.52261 0.2876 0.0
C642 C 0.1392 0.48911 0.30111 0.0
C643 C 0.1548 0.50561 0.29272 0.0
C644 C 0.11928 0.48978 0.30403 0.0
C645 C 0.11534 0.50685 0.29897 0.0
U646 U 0.11388 0.55319 0.26263 0.0
O647 O 0.09443 0.57144 0.26456 0.0
O648 O 0.12992 0.58974 0.25873 0.0
C649 C 0.11199 0.59128 0.26202 0.0
C650 C 0.12744 0.54241 0.2862 0.0
C651 C 0.11694 0.61129 0.27183 0.0
C652 C 0.1348 0.63578 0.29397 0.0
C653 C 0.12951 0.61602 0.28514 0.0
C654 C 0.11468 0.64599 0.27636 0.0
C655 C 0.12755 0.65109 0.28964 0.0
C656 C 0.10945 0.6263 0.26756 0.0
C657 C 0.0943 0.5255 0.22427 0.0
C658 C 0.08886 0.54514 0.20477 0.0
C659 C 0.07708 0.50469 0.20101 0.0
C660 C 0.08462 0.50511 0.21521 0.0
C661 C 0.07915 0.5247 0.19561 0.0
C662 C 0.0963 0.54552 0.219 0.0
C663 C 0.10225 0.52558 0.23913 0.0
O664 O 0.1417 0.55622 0.27751 0.0
O665 O 0.10603 0.53707 0.28291 0.0
O666 O 0.08778 0.52314 0.24862 0.0
O667 O 0.12353 0.54158 0.2433 0.0
H668 H 0.16341 0.5352 0.28135 0.0
H669 H 0.17019 0.50545 0.29013 0.0
H670 H 0.10706 0.47754 0.31062 0.0
H671 H 0.10012 0.50725 0.30172 0.0
H672 H 0.1445 0.63902 0.3042 0.0
H673 H 0.13537 0.60455 0.28864 0.0
H674 H 0.10909 0.65751 0.27257 0.0
H675 H 0.0998 0.62296 0.25729 0.0
H676 H 0.09044 0.56078 0.201 0.0
H677 H 0.06995 0.48874 0.19421 0.0
H678 H 0.08296 0.48951 0.2191 0.0
H679 H 0.10363 0.5614 0.22589 0.0
C680 C 0.40456 0.51828 0.28531 0.0
C681 C 0.38277 0.51264 0.27902 0.0
C682 C 0.36394 0.48336 0.29563 0.0
C683 C 0.36273 0.49542 0.28413 0.0
C684 C 0.38579 0.48878 0.30171 0.0
C685 C 0.4058 0.50606 0.29665 0.0
U686 U 0.44903 0.54974 0.25822 0.0
O687 O 0.46785 0.58653 0.25475 0.0
O688 O 0.48685 0.56953 0.26166 0.0
C689 C 0.48798 0.58897 0.25877 0.0
C690 C 0.42605 0.53769 0.28094 0.0
C691 C 0.50346 0.60941 0.26859 0.0
C692 C 0.51147 0.63456 0.29022 0.0
C693 C 0.49657 0.61437 0.28146 0.0
C694 C 0.5403 0.64476 0.27342 0.0
C695 C 0.5335 0.65009 0.28627 0.0
C696 C 0.52543 0.62466 0.2647 0.0
C697 C 0.44154 0.52365 0.22002 0.0
C698 C 0.47019 0.54285 0.20333 0.0
C699 C 0.43563 0.50662 0.19566 0.0
C700 C 0.4281 0.50593 0.20929 0.0
C701 C 0.4568 0.52506 0.1925 0.0
C702 C 0.46261 0.54216 0.21696 0.0
C703 C 0.43346 0.52258 0.23434 0.0
O704 O 0.44263 0.53338 0.27847 0.0
O705 O 0.4239 0.55076 0.27176 0.0
O706 O 0.4272 0.53769 0.23787 0.0
O707 O 0.4461 0.52057 0.24465 0.0
H708 H 0.38113 0.52179 0.27032 0.0
H709 H 0.34628 0.492 0.27927 0.0
H710 H 0.38749 0.47967 0.31042 0.0
H711 H 0.42234 0.51009 0.30175 0.0
H712 H 0.50575 0.63795 0.30011 0.0
H713 H 0.47966 0.60275 0.28466 0.0
H714 H 0.55693 0.65641 0.26989 0.0
H715 H 0.531 0.62116 0.25477 0.0
H716 H 0.48643 0.55745 0.20125 0.0
H717 H 0.42501 0.49248 0.18767 0.0
H718 H 0.41181 0.49148 0.21148 0.0
H719 H 0.47319 0.55605 0.22511 0.0
C720 C 0.53549 0.01968 0.05354 0.0
Eu721 Eu 0.5205 0.0156 0.0268 0.0
C722 C 0.52696 0.00994 0.06709 0.0
C723 C 0.53738 0.02366 0.07996 0.0
C724 C 0.52981 0.01496 0.09299 0.0
C725 C 0.5116 0.99228 0.09347 0.0
C726 C 0.50102 0.97859 0.08048 0.0
C727 C 0.50863 0.98735 0.06741 0.0
C728 C 0.51046 0.04507 0.014 0.0
C729 C 0.46479 0.97933 0.02201 0.0
C730 C 0.48153 0.99431 0.96987 0.0
Eu731 Eu 0.49657 0.99873 0.99664 0.0
C732 C 0.48988 1.00442 0.9564 0.0
C733 C 0.47886 0.99129 0.94343 0.0
C734 C 0.48637 1.00034 0.93046 0.0
C735 C 0.50515 0.02277 0.93017 0.0
C736 C 0.51621 0.03589 0.94325 0.0
C737 C 0.50865 0.02679 0.95625 0.0
C738 C 0.50661 0.96934 0.00956 0.0
C739 C 0.55223 0.03508 1.00147 0.0
O740 O 0.53683 0.00611 0.04364 0.0
O741 O 0.52776 0.03248 0.04839 0.0
O742 O 0.52897 0.05159 0.02237 0.0
O743 O 0.49752 0.02349 0.01334 0.0
O744 O 0.48415 0.988 0.03042 0.0
O745 O 0.46472 0.98342 0.00843 0.0
O746 O 0.47946 0.00737 0.97979 0.0
O747 O 0.49013 0.98223 0.97501 0.0
O748 O 0.48803 0.96275 1.00125 0.0
O749 O 0.51954 0.99089 0.01008 0.0
O750 O 0.53285 0.02669 0.99311 0.0
O751 O 0.55229 0.03065 0.01498 0.0
H752 H 0.55144 0.04119 0.07993 0.0
H753 H 0.53809 0.02617 0.10271 0.0
H754 H 0.48709 0.961 0.08041 0.0
H755 H 0.50029 0.97646 0.05758 0.0
H756 H 0.46432 0.974 0.94332 0.0
H757 H 0.47717 0.98985 0.92064 0.0
H758 H 0.53086 0.05312 0.94346 0.0
H759 H 0.51743 0.0372 0.96616 0.0
C760 C 0.99677 0.51888 0.05078 0.0
Eu761 Eu 1.00013 0.50877 0.02422 0.0
C762 C 1.006 0.5188 0.0653 0.0
C763 C 0.99154 0.51333 0.07637 0.0
C764 C 0.99975 0.51333 0.0903 0.0
C765 C 0.02267 0.51887 0.09347 0.0
C766 C 0.03715 0.52431 0.08233 0.0
C767 C 0.02887 0.52418 0.06834 0.0
C768 C 0.9721 0.46812 0.00865 0.0
C769 C 0.03852 0.49244 0.02159 0.0
C770 C 0.01859 0.49332 0.96866 0.0
Eu771 Eu 0.01563 0.50362 0.99526 0.0
C772 C 0.00811 0.49237 0.95434 0.0
C773 C 1.00105 0.50815 0.95096 0.0
C774 C 0.99194 0.50737 0.93709 0.0
C775 C 0.98958 0.49071 0.9264 0.0
C776 C 0.9963 0.47471 0.92995 0.0
C777 C 1.0055 0.47557 0.94377 0.0
C778 C 0.04373 0.54419 0.01093 0.0
C779 C 0.97711 0.51955 0.99764 0.0
O780 O 0.01092 0.53392 0.04267 0.0
O781 O 0.98315 0.49876 0.04383 0.0
O782 O 0.96475 0.47901 0.01658 0.0
O783 O 0.99378 0.47855 0.00977 0.0
O784 O 0.02966 0.5021 0.02979 0.0
O785 O 0.03316 0.48829 0.00767 0.0
O786 O 1.00541 0.47806 0.97701 0.0
O787 O 0.03165 0.51374 0.97542 0.0
O788 O 0.05103 0.5333 1.00296 0.0
O789 O 0.02205 0.53385 0.00973 0.0
O790 O 0.98593 0.50963 0.98969 0.0
O791 O 0.9824 0.52402 0.01159 0.0
H792 H 0.97386 0.50917 0.07424 0.0
H793 H 0.98822 0.50935 0.09864 0.0
H794 H 0.05481 0.5284 0.08439 0.0
H795 H 0.04031 0.52832 0.05993 0.0
H796 H 1.00274 0.52116 0.95899 0.0
H797 H 0.98665 0.51975 0.93476 0.0
H798 H 0.99496 0.46183 0.92195 0.0
H799 H 0.01084 0.46325 0.94618 0.0
C800 C 0.47955 0.48701 0.97037 0.0
Eu801 Eu 0.49511 0.50151 0.99708 0.0
C802 C 0.4888 0.487 0.95651 0.0
C803 C 0.51063 0.50462 0.95372 0.0
C804 C 0.51873 0.50457 0.94033 0.0
C805 C 0.50525 0.48682 0.9295 0.0
C806 C 0.48355 0.46904 0.93247 0.0
C807 C 0.47543 0.46917 0.94582 0.0
C808 C 0.50838 0.54357 0.01013 0.0
C809 C 0.551 0.52109 1.00085 0.0
C810 C 0.53612 0.52578 0.05355 0.0
Eu811 Eu 0.52046 0.51176 0.02683 0.0
C812 C 0.52688 0.52582 0.0674 0.0
C813 C 0.50463 0.50881 0.06994 0.0
C814 C 0.49644 0.5089 0.08329 0.0
C815 C 0.51033 0.52601 0.09436 0.0
C816 C 0.53248 0.54321 0.09162 0.0
C817 C 0.54064 0.54308 0.07829 0.0
C818 C 0.5072 0.46975 0.0136 0.0
C819 C 0.4649 0.49306 0.0233 0.0
O820 O 0.48155 0.47412 0.97962 0.0
O821 O 0.48381 0.50695 0.97628 0.0
O822 O 0.48928 0.5314 1.00206 0.0
O823 O 0.52011 0.53366 0.01031 0.0
O824 O 0.53132 0.50961 0.99266 0.0
O825 O 0.55164 0.52689 0.01455 0.0
O826 O 0.53447 0.53898 0.04439 0.0
O827 O 0.53144 0.50575 0.04754 0.0
O828 O 0.52641 0.48199 0.02155 0.0
O829 O 0.49546 0.47963 0.0136 0.0
O830 O 0.48475 0.50445 0.03127 0.0
O831 O 0.46384 0.48699 0.00957 0.0
H832 H 0.52135 0.51847 0.96186 0.0
H833 H 0.53564 0.51835 0.93848 0.0
H834 H 0.4726 0.45523 0.92437 0.0
H835 H 0.45856 0.45541 0.94776 0.0
H836 H 0.49368 0.49534 0.06166 0.0
H837 H 0.47939 0.49527 0.08501 0.0
H838 H 0.54351 0.55691 0.09975 0.0
H839 H 0.55779 0.55646 0.0765 0.0
C840 C 0.20068 0.35432 0.3885 0.0
Eu841 Eu 0.18613 0.35002 0.36163 0.0
C842 C 0.19212 0.34444 0.402 0.0
C843 C 0.20244 0.35809 0.41491 0.0
C844 C 0.19489 0.34925 0.42792 0.0
C845 C 0.1768 0.32649 0.42834 0.0
C846 C 0.16631 0.31288 0.41532 0.0
C847 C 0.1739 0.32177 0.40227 0.0
C848 C 0.1757 0.37896 0.34852 0.0
C849 C 0.1306 0.31281 0.35639 0.0
C850 C 0.14893 0.32882 0.30434 0.0
Eu851 Eu 0.1628 0.33283 0.33129 0.0
C852 C 0.1576 0.33968 0.291 0.0
C853 C 0.16077 0.32708 0.27987 0.0
C854 C 0.16765 0.33637 0.26686 0.0
C855 C 0.17136 0.35844 0.2646 0.0
C856 C 0.16849 0.3712 0.27583 0.0
C857 C 0.16172 0.36194 0.28888 0.0
C858 C 0.1733 0.30395 0.34442 0.0
C859 C 0.21826 0.37003 0.33655 0.0
O860 O 0.20262 0.34104 0.37867 0.0
O861 O 0.19251 0.36669 0.38322 0.0
O862 O 0.1941 0.38583 0.35707 0.0
O863 O 0.16306 0.35735 0.34786 0.0
O864 O 0.14985 0.32196 0.36497 0.0
O865 O 0.13065 0.31671 0.34278 0.0
O866 O 0.14517 0.34062 0.31427 0.0
O867 O 0.15795 0.31715 0.3096 0.0
O868 O 0.15489 0.29705 0.33587 0.0
O869 O 0.18591 0.32557 0.34502 0.0
O870 O 0.19896 0.36133 0.32807 0.0
O871 O 0.21821 0.36569 0.35008 0.0
H872 H 0.21641 0.37567 0.41493 0.0
H873 H 0.20311 0.36041 0.43766 0.0
H874 H 0.15247 0.29523 0.4152 0.0
H875 H 0.16564 0.31093 0.39242 0.0
H876 H 0.15752 0.30981 0.28113 0.0
H877 H 0.16938 0.32593 0.25841 0.0
H878 H 0.17144 0.38835 0.27452 0.0
H879 H 0.15945 0.37215 0.29722 0.0
C880 C 0.6625 0.85218 0.38572 0.0
Eu881 Eu 0.66612 0.84242 0.35914 0.0
C882 C 0.67217 0.85249 0.40021 0.0
C883 C 0.65806 0.84723 0.41145 0.0
C884 C 0.66667 0.84749 0.42533 0.0
C885 C 0.68965 0.85308 0.42828 0.0
C886 C 0.70379 0.85833 0.41695 0.0
C887 C 0.6951 0.85796 0.40302 0.0
C888 C 0.63798 0.8022 0.3432 0.0
C889 C 0.70408 0.82553 0.3567 0.0
C890 C 0.68658 0.82847 0.30384 0.0
Eu891 Eu 0.68231 0.8377 0.33037 0.0
C892 C 0.67682 0.8279 0.28936 0.0
C893 C 0.69104 0.83369 0.27816 0.0
C894 C 0.68231 0.83319 0.26428 0.0
C895 C 0.65912 0.82684 0.2613 0.0
C896 C 0.64488 0.82106 0.27258 0.0
C897 C 0.65367 0.82166 0.28651 0.0
C898 C 0.71026 0.8779 0.3465 0.0
C899 C 0.64375 0.85359 0.33241 0.0
O900 O 0.67616 0.8675 0.37756 0.0
O901 O 0.64942 0.83192 0.3788 0.0
O902 O 0.63071 0.81313 0.35117 0.0
O903 O 0.65966 0.81232 0.34449 0.0
O904 O 0.69543 0.83547 0.36484 0.0
O905 O 0.69887 0.8215 0.34277 0.0
O906 O 0.67316 0.81286 0.31195 0.0
O907 O 0.69911 0.84879 0.3108 0.0
O908 O 0.71769 0.86694 0.3387 0.0
O909 O 0.68861 0.86774 0.34498 0.0
O910 O 0.65279 0.84381 0.32454 0.0
O911 O 0.64861 0.85779 0.3464 0.0
H912 H 0.64033 0.843 0.4095 0.0
H913 H 0.65539 0.84365 0.4338 0.0
H914 H 0.72149 0.86246 0.41882 0.0
H915 H 0.70628 0.86195 0.39447 0.0
H916 H 0.70893 0.83851 0.28015 0.0
H917 H 0.69368 0.83744 0.25583 0.0
H918 H 0.62701 0.81634 0.27067 0.0
H919 H 0.64241 0.81725 0.29503 0.0
C920 C 0.14617 0.82055 0.30467 0.0
Eu921 Eu 0.16231 0.83352 0.33141 0.0
C922 C 0.15471 0.81965 0.29068 0.0
C923 C 0.14421 0.8229 0.27847 0.0
C924 C 0.15194 0.8222 0.26507 0.0
C925 C 0.17038 0.81822 0.26356 0.0
C926 C 0.18096 0.81507 0.27588 0.0
C927 C 0.17319 0.81577 0.2893 0.0
C928 C 0.17486 0.87469 0.34551 0.0
C929 C 0.21813 0.85304 0.33467 0.0
C930 C 0.20392 0.85479 0.38772 0.0
Eu931 Eu 0.188 0.84243 0.36091 0.0
C932 C 0.19515 0.85556 0.40165 0.0
C933 C 0.20528 0.85198 0.41389 0.0
C934 C 0.19738 0.85267 0.42724 0.0
C935 C 0.17912 0.85697 0.42865 0.0
C936 C 0.16886 0.86039 0.41629 0.0
C937 C 0.17682 0.85972 0.40292 0.0
C938 C 0.17525 0.80128 0.3466 0.0
C939 C 0.13247 0.82376 0.35789 0.0
O940 O 0.1464 0.80658 0.31378 0.0
O941 O 0.15266 0.84106 0.31073 0.0
O942 O 0.15579 0.86261 0.33741 0.0
O943 O 0.18698 0.8652 0.34521 0.0
O944 O 0.19835 0.84168 0.32659 0.0
O945 O 0.21897 0.85827 0.34849 0.0
O946 O 0.20408 0.86904 0.37871 0.0
O947 O 0.19727 0.83432 0.38152 0.0
O948 O 0.19454 0.81338 0.3545 0.0
O949 O 0.16324 0.81084 0.34717 0.0
O950 O 0.15239 0.83482 0.3658 0.0
O951 O 0.13123 0.8185 0.34402 0.0
H952 H 0.13001 0.82605 0.27931 0.0
H953 H 0.14362 0.82511 0.2559 0.0
H954 H 0.19505 0.81175 0.27513 0.0
H955 H 0.18156 0.8132 0.29859 0.0
H956 H 0.21935 0.84861 0.41313 0.0
H957 H 0.20545 0.84955 0.43644 0.0
H958 H 0.15492 0.86395 0.41696 0.0
H959 H 0.16872 0.86256 0.39361 0.0
C960 C 0.86566 0.68706 0.72194 0.0
Eu961 Eu 0.85104 0.68218 0.69505 0.0
C962 C 0.85692 0.67748 0.73548 0.0
C963 C 0.86618 0.69178 0.74825 0.0
C964 C 0.85817 0.68335 0.76127 0.0
C965 C 0.8407 0.66035 0.76181 0.0
C966 C 0.83147 0.64598 0.74896 0.0
C967 C 0.83946 0.65449 0.7359 0.0
C968 C 0.84094 0.71122 0.6817 0.0
C969 C 0.79547 0.64526 0.69014 0.0
C970 C 0.81363 0.66008 0.63799 0.0
Eu971 Eu 0.8276 0.6646 0.66496 0.0
C972 C 0.82225 0.67105 0.62466 0.0
C973 C 0.82976 0.66069 0.61458 0.0
C974 C 0.83653 0.66997 0.60156 0.0
C975 C 0.83577 0.68974 0.59822 0.0
C976 C 0.82858 0.70032 0.6084 0.0
C977 C 0.82189 0.69109 0.62146 0.0
C978 C 0.83754 0.6355 0.67832 0.0
C979 C 0.88309 0.70152 0.66991 0.0
O980 O 0.86757 0.67356 0.71227 0.0
O981 O 0.85763 0.69941 0.71648 0.0
O982 O 0.85938 0.71799 0.69018 0.0
O983 O 0.82809 0.68965 0.68121 0.0
O984 O 0.81478 0.65433 0.69864 0.0
O985 O 0.79549 0.64907 0.67651 0.0
O986 O 0.8095 0.67168 0.64785 0.0
O987 O 0.82296 0.64876 0.64336 0.0
O988 O 0.81911 0.62881 0.66983 0.0
O989 O 0.8505 0.65706 0.67877 0.0
O990 O 0.86374 0.69289 0.6615 0.0
O991 O 0.88308 0.69732 0.68346 0.0
H992 H 0.87968 0.70956 0.74816 0.0
H993 H 0.8659 0.69481 0.77094 0.0
H994 H 0.81783 0.62827 0.74897 0.0
H995 H 0.83196 0.64316 0.72616 0.0
H996 H 0.82998 0.64508 0.61664 0.0
H997 H 0.84166 0.66118 0.59391 0.0
H998 H 0.82801 0.71571 0.60625 0.0
H999 H 0.81612 0.6995 0.62893 0.0
C1000 C 0.32869 0.18464 0.71909 0.0
Eu1001 Eu 0.33232 0.17432 0.69263 0.0
C1002 C 0.33816 0.18502 0.73363 0.0
C1003 C 0.32376 0.17943 0.74474 0.0
C1004 C 0.33216 0.17971 0.75867 0.0
C1005 C 0.3552 0.18566 0.76181 0.0
C1006 C 0.36964 0.19126 0.75063 0.0
C1007 C 0.36116 0.19085 0.73664 0.0
C1008 C 0.30427 0.13363 0.67709 0.0
C1009 C 0.37046 0.15764 0.69048 0.0
C1010 C 0.35183 0.15844 0.63749 0.0
Eu1011 Eu 0.3482 0.16889 0.66391 0.0
C1012 C 0.34189 0.15753 0.62301 0.0
C1013 C 0.33462 0.17306 0.61944 0.0
C1014 C 0.32605 0.17235 0.60543 0.0
C1015 C 0.32453 0.15604 0.59477 0.0
C1016 C 0.33138 0.14021 0.59855 0.0
C1017 C 0.34 0.141 0.61251 0.0
C1018 C 0.37617 0.20955 0.67958 0.0
C1019 C 0.30967 0.1849 0.66574 0.0
O1020 O 0.34254 0.19972 0.71089 0.0
O1021 O 0.31544 0.16433 0.71227 0.0
O1022 O 0.29693 0.14469 0.68488 0.0
O1023 O 0.32595 0.14392 0.67834 0.0
O1024 O 0.36191 0.16783 0.6985 0.0
O1025 O 0.36499 0.15313 0.67658 0.0
O1026 O 0.33823 0.14328 0.64573 0.0
O1027 O 0.36484 0.17886 0.64426 0.0
O1028 O 0.3836 0.1985 0.67186 0.0
O1029 O 0.3545 0.19926 0.67818 0.0
O1030 O 0.31864 0.17496 0.65795 0.0
O1031 O 0.31473 0.18944 0.67971 0.0
H1032 H 0.30597 0.17492 0.74263 0.0
H1033 H 0.32066 0.1756 0.76704 0.0
H1034 H 0.3874 0.19567 0.75267 0.0
H1035 H 0.37256 0.19508 0.72821 0.0
H1036 H 0.33583 0.18592 0.62741 0.0
H1037 H 0.32112 0.18492 0.6029 0.0
H1038 H 0.33003 0.12712 0.59071 0.0
H1039 H 0.34536 0.12875 0.6151 0.0
C1040 C 0.81292 0.15344 0.63755 0.0
Eu1041 Eu 0.82879 0.16728 0.66427 0.0
C1042 C 0.82207 0.15329 0.62368 0.0
C1043 C 0.84458 0.16982 0.62125 0.0
C1044 C 0.8527 0.16967 0.60788 0.0
C1045 C 0.83852 0.15293 0.59672 0.0
C1046 C 0.81609 0.13624 0.59932 0.0
C1047 C 0.80797 0.13645 0.61266 0.0
C1048 C 0.84235 0.20916 0.67772 0.0
C1049 C 0.88457 0.18634 0.66768 0.0
C1050 C 0.87015 0.19041 0.7206 0.0
Eu1051 Eu 0.85437 0.17685 0.69386 0.0
C1052 C 0.86083 0.19022 0.73446 0.0
C1053 C 0.83886 0.17269 0.73708 0.0
C1054 C 0.83052 0.17268 0.75039 0.0
C1055 C 0.84394 0.19026 0.76131 0.0
C1056 C 0.86583 0.20791 0.75854 0.0
C1057 C 0.87417 0.20786 0.74525 0.0
C1058 C 0.84091 0.13503 0.68025 0.0
C1059 C 0.79878 0.15833 0.69061 0.0
O1060 O 0.81435 0.14009 0.64667 0.0
O1061 O 0.81794 0.17356 0.6436 0.0
O1062 O 0.82315 0.19717 0.66972 0.0
O1063 O 0.854 0.19917 0.67764 0.0
O1064 O 0.86478 0.17502 0.6596 0.0
O1065 O 0.88544 0.19202 0.68144 0.0
O1066 O 0.86859 0.20382 0.71157 0.0
O1067 O 0.86544 0.17047 0.71443 0.0
O1068 O 0.86016 0.14708 0.6882 0.0
O1069 O 0.82921 0.14496 0.68047 0.0
O1070 O 0.81867 0.16934 0.69857 0.0
O1071 O 0.79762 0.15273 0.6768 0.0
H1072 H 0.85582 0.18289 0.62965 0.0
H1073 H 0.87016 0.18258 0.60632 0.0
H1074 H 0.80461 0.12327 0.59095 0.0
H1075 H 0.79056 0.12355 0.61433 0.0
H1076 H 0.82819 0.15897 0.72886 0.0
H1077 H 0.81347 0.15901 0.75207 0.0
H1078 H 0.87675 0.22156 0.76673 0.0
H1079 H 0.89115 0.22155 0.74344 0.0
H1080 H 0.36128 0.89675 0.07775 0.0
H1081 H 0.42149 0.95385 0.00791 0.0
H1082 H 0.32669 0.87544 0.0352 0.0
H1083 H 0.45781 0.96915 0.04977 0.0
H1084 H 0.38595 0.92704 0.01793 0.0
H1085 H 0.39616 0.92504 0.06788 0.0
C1086 C 0.36097 0.89792 0.06633 0.0
C1087 C 0.34087 0.88353 0.05733 0.0
C1088 C 0.40169 0.93631 0.02493 0.0
C1089 C 0.3809 0.91626 0.04593 0.0
C1090 C 0.42201 0.9517 0.01921 0.0
C1091 C 0.44277 0.96381 0.02797 0.0
C1092 C 0.40204 0.93301 0.03953 0.0
C1093 C 0.4423 0.9602 0.04255 0.0
C1094 C 0.38092 0.91421 0.0607 0.0
C1095 C 0.34157 0.88628 0.04262 0.0
N1096 N 0.42233 0.94516 0.04785 0.0
N1097 N 0.36121 0.90224 0.03741 0.0
H1098 H 0.13316 0.47377 0.07847 0.0
H1099 H 0.06151 0.47426 0.00794 0.0
H1100 H 0.14561 0.45992 0.0356 0.0
H1101 H 0.05447 0.49771 0.04991 0.0
H1102 H 0.09049 0.4664 0.01832 0.0
H1103 H 0.1029 0.48057 0.06862 0.0
C1104 C 0.12964 0.47222 0.067 0.0
C1105 C 0.14205 0.4662 0.05788 0.0
C1106 C 0.08262 0.47323 0.02529 0.0
C1107 C 0.10712 0.47369 0.04654 0.0
C1108 C 0.06597 0.4777 0.01936 0.0
C1109 C 0.05549 0.48673 0.02803 0.0
C1110 C 0.08894 0.47774 0.04005 0.0
C1111 C 0.06208 0.49078 0.04278 0.0
C1112 C 0.11225 0.476 0.06139 0.0
C1113 C 0.13635 0.46412 0.0431 0.0
N1114 N 0.07839 0.48628 0.04832 0.0
N1115 N 0.11937 0.46784 0.03793 0.0
H1116 H 0.58157 0.67483 0.06149 0.0
H1117 H 0.48318 0.56493 0.01242 0.0
H1118 H 0.51427 0.66488 0.04957 0.0
H1119 H 0.54962 0.5736 0.02527 0.0
H1120 H 0.49474 0.60209 0.02537 0.0
H1121 H 0.57068 0.63846 0.04776 0.0
C1122 C 0.56448 0.665 0.05601 0.0
C1123 C 0.54879 0.67297 0.05677 0.0
C1124 C 0.50683 0.59592 0.02537 0.0
C1125 C 0.53625 0.63126 0.04088 0.0
C1126 C 0.50023 0.5747 0.01797 0.0
C1127 C 0.51544 0.56616 0.01783 0.0
C1128 C 0.52884 0.60876 0.03269 0.0
C1129 C 0.53732 0.5795 0.02519 0.0
C1130 C 0.55831 0.64425 0.04811 0.0
C1131 C 0.52704 0.65962 0.0492 0.0
N1132 N 0.54336 0.60013 0.03234 0.0
N1133 N 0.5214 0.63943 0.04163 0.0
H1134 H 0.85413 0.34423 0.96736 0.0
H1135 H 0.98437 0.4404 0.9937 0.0
H1136 H 0.91294 0.33895 0.95669 0.0
H1137 H 0.92531 0.4448 1.00475 0.0
H1138 H 0.95861 0.4032 0.9801 0.0
H1139 H 0.87994 0.38077 0.9814 0.0
C1140 C 0.87244 0.35062 0.96806 0.0
C1141 C 0.8813 0.33841 0.96077 0.0
C1142 C 0.95127 0.41229 0.9855 0.0
C1143 C 0.9111 0.38057 0.97673 0.0
C1144 C 0.96598 0.43355 0.99322 0.0
C1145 C 0.95695 0.4457 1.00032 0.0
C1146 C 0.92734 0.40311 0.98488 0.0
C1147 C 0.93299 0.43598 0.99944 0.0
C1148 C 0.88721 0.37161 0.97601 0.0
C1149 C 0.90529 0.34785 0.96193 0.0
N1150 N 0.91904 0.4153 0.99187 0.0
N1151 N 0.91931 0.36833 0.96972 0.0
H1152 H 0.65403 0.53164 0.94512 0.0
H1153 H 0.59489 0.54437 0.01404 0.0
H1154 H 0.69119 0.56447 0.9861 0.0
H1155 H 0.55709 0.51168 0.97318 0.0
H1156 H 0.63044 0.55299 1.00367 0.0
H1157 H 0.61861 0.52555 0.95481 0.0
C1158 C 0.65482 0.53775 0.95612 0.0
C1159 C 0.6757 0.54848 0.96481 0.0
C1160 C 0.61439 0.54399 0.99694 0.0
C1161 C 0.63505 0.54132 0.97603 0.0
C1162 C 0.59403 0.53906 1.00287 0.0
C1163 C 0.57286 0.5272 0.99451 0.0
C1164 C 0.61371 0.53702 0.98252 0.0
C1165 C 0.57295 0.52081 0.98007 0.0
C1166 C 0.63453 0.53413 0.96167 0.0
C1167 C 0.6755 0.55576 0.97904 0.0
N1168 N 0.59301 0.52574 0.97456 0.0
N1169 N 0.65556 0.552 0.98419 0.0
H1170 H 0.44549 0.11033 0.96862 0.0
H1171 H 0.5385 0.09114 0.01314 0.0
H1172 H 0.51433 0.16459 0.98303 0.0
H1173 H 0.47044 0.03563 0.99856 0.0
H1174 H 0.52979 0.11801 1.00173 0.0
H1175 H 0.45401 0.08252 0.97914 0.0
C1176 C 0.46237 0.11643 0.97401 0.0
C1177 C 0.47921 0.1399 0.9749 0.0
C1178 C 0.51672 0.09997 1.00097 0.0
C1179 C 0.48912 0.10808 0.98691 0.0
C1180 C 0.52169 0.0846 0.00751 0.0
C1181 C 0.50515 0.06114 0.00681 0.0
C1182 C 0.49497 0.09188 0.99367 0.0
C1183 C 0.48369 0.0536 0.99931 0.0
C1184 C 0.46725 0.1005 0.97995 0.0
C1185 C 0.50088 0.14668 0.98187 0.0
N1186 N 0.47918 0.06894 0.99306 0.0
N1187 N 0.50515 0.1309 0.98761 0.0
H1188 H 0.65525 0.12527 0.94792 0.0
H1189 H 0.59592 0.05758 0.01519 0.0
H1190 H 0.69258 0.13337 0.98849 0.0
H1191 H 0.55901 0.04838 0.97426 0.0
H1192 H 0.63165 0.08449 1.00543 0.0
H1193 H 0.6201 0.09609 0.95713 0.0
C1194 C 0.65615 0.1208 0.95872 0.0
C1195 C 0.67701 0.13196 0.96743 0.0
C1196 C 0.61574 0.07652 0.99857 0.0
C1197 C 0.63659 0.09862 0.97814 0.0
C1198 C 0.59529 0.06111 1.00414 0.0
C1199 C 0.57431 0.05067 0.99558 0.0
C1200 C 0.61529 0.08164 0.98431 0.0
C1201 C 0.57468 0.05599 0.98131 0.0
C1202 C 0.636 0.1042 0.96401 0.0
C1203 C 0.6769 0.12557 0.98143 0.0
N1204 N 0.59477 0.07111 0.97617 0.0
N1205 N 0.65706 0.10942 0.98634 0.0
H1206 H 0.89165 0.53873 0.93455 0.0
H1207 H 0.95331 0.53867 0.00978 0.0
H1208 H 0.87852 0.56217 0.97458 0.0
H1209 H 0.96331 0.51371 0.96917 0.0
H1210 H 0.92606 0.54762 0.99745 0.0
H1211 H 0.91806 0.52967 0.94739 0.0
C1212 C 0.8944 0.5421 0.94606 0.0
C1213 C 0.88294 0.55144 0.95346 0.0
C1214 C 0.93425 0.54018 0.99127 0.0
C1215 C 0.91319 0.5408 0.96836 0.0
C1216 C 0.94985 0.5351 0.99829 0.0
C1217 C 0.96071 0.52544 0.99053 0.0
C1218 C 0.92951 0.53561 0.97637 0.0
C1219 C 0.95545 0.52115 0.97566 0.0
C1220 C 0.90943 0.53678 0.95342 0.0
C1221 C 0.88687 0.55489 0.96843 0.0
N1222 N 0.9403 0.52627 0.96911 0.0
N1223 N 0.90174 0.54967 0.97538 0.0
H1224 H 0.43389 0.33847 0.96221 0.0
H1225 H 0.53261 0.44871 0.01087 0.0
H1226 H 0.5015 0.34885 0.97365 0.0
H1227 H 0.46574 0.4395 0.99875 0.0
H1228 H 0.52107 0.41162 0.99783 0.0
H1229 H 0.44477 0.3748 0.97599 0.0
C1230 C 0.45104 0.34838 0.96759 0.0
C1231 C 0.46681 0.34054 0.96669 0.0
C1232 C 0.50888 0.41766 0.998 0.0
C1233 C 0.47934 0.38221 0.98263 0.0
C1234 C 0.51547 0.43884 1.00546 0.0
C1235 C 0.50013 0.44721 1.00583 0.0
C1236 C 0.48675 0.40468 0.99086 0.0
C1237 C 0.47813 0.43373 0.99864 0.0
C1238 C 0.45721 0.36911 0.97552 0.0
C1239 C 0.48866 0.35401 0.97413 0.0
N1240 N 0.4721 0.41314 0.99143 0.0
N1241 N 0.49428 0.37417 0.98173 0.0
H1242 H 0.16245 0.66954 0.04975 0.0
H1243 H 0.03171 0.57142 0.02677 0.0
H1244 H 0.1044 0.66969 0.06694 0.0
H1245 H 0.09049 0.56769 0.01429 0.0
H1246 H 0.05775 0.60825 0.04073 0.0
H1247 H 0.13612 0.63311 0.03583 0.0
C1248 C 0.14419 0.66191 0.05066 0.0
C1249 C 0.13574 0.6728 0.05962 0.0
C1250 C 0.06495 0.59936 0.03495 0.0
C1251 C 0.10531 0.63099 0.04348 0.0
C1252 C 0.05008 0.57832 0.02701 0.0
C1253 C 0.05897 0.56645 0.01942 0.0
C1254 C 0.08886 0.60865 0.0352 0.0
C1255 C 0.08291 0.57627 0.01998 0.0
C1256 C 0.12912 0.64111 0.04263 0.0
C1257 C 0.11178 0.66217 0.06008 0.0
N1258 N 0.097 0.59677 0.02771 0.0
N1259 N 0.09745 0.64189 0.05215 0.0
H1260 H 0.37115 0.47874 0.08624 0.0
H1261 H 0.41956 0.46912 0.01169 0.0
H1262 H 0.32664 0.44474 0.0476 0.0
H1263 H 0.46161 0.50379 0.05109 0.0
H1264 H 0.3852 0.46 0.0241 0.0
H1265 H 0.4043 0.48801 0.07305 0.0
C1266 C 0.3683 0.47309 0.07497 0.0
C1267 C 0.34596 0.46072 0.06809 0.0
C1268 C 0.40199 0.46961 0.02998 0.0
C1269 C 0.3842 0.47158 0.05273 0.0
C1270 C 0.42161 0.47481 0.02291 0.0
C1271 C 0.4436 0.48719 0.03032 0.0
C1272 C 0.40439 0.47684 0.04457 0.0
C1273 C 0.44513 0.49414 0.04487 0.0
C1274 C 0.38732 0.47852 0.06739 0.0
C1275 C 0.34353 0.45439 0.05335 0.0
N1276 N 0.42589 0.48885 0.05145 0.0
N1277 N 0.36239 0.45979 0.04617 0.0
H1278 H 0.57304 0.90271 0.05151 0.0
H1279 H 0.47789 0.92377 0.01174 0.0
H1280 H 0.50115 0.85126 0.04404 0.0
H1281 H 0.54728 0.97856 0.02401 0.0
H1282 H 0.4866 0.89698 0.02327 0.0
H1283 H 0.56456 0.93071 0.04119 0.0
C1284 C 0.55548 0.89729 0.04769 0.0
C1285 C 0.53778 0.87456 0.04866 0.0
C1286 C 0.49995 0.91485 0.02351 0.0
C1287 C 0.52795 0.90654 0.03686 0.0
C1288 C 0.49499 0.93016 0.01689 0.0
C1289 C 0.51191 0.95339 0.01689 0.0
C1290 C 0.52209 0.92274 0.03012 0.0
C1291 C 0.53374 0.96076 0.02378 0.0
C1292 C 0.55064 0.91332 0.04187 0.0
C1293 C 0.51532 0.86862 0.04369 0.0
N1294 N 0.53826 0.94546 0.03007 0.0
N1295 N 0.51109 0.88444 0.03796 0.0
H1296 H 0.99109 0.20594 0.36705 0.0
H1297 H 0.12333 0.30336 0.38422 0.0
H1298 H 0.02505 0.22929 0.40971 0.0
H1299 H 0.0876 0.28593 0.34205 0.0
H1300 H 0.0876 0.2761 0.39364 0.0
H1301 H 0.02612 0.23489 0.35768 0.0
C1302 C 1.0058 0.21726 0.37449 0.0
C1303 C 1.00494 0.21506 0.38925 0.0
C1304 C 0.08751 0.27827 0.38233 0.0
C1305 C 0.04546 0.24816 0.37847 0.0
C1306 C 0.10797 0.29387 0.37692 0.0
C1307 C 0.10859 0.297 0.36227 0.0
C1308 C 0.06739 0.26549 0.37308 0.0
C1309 C 0.08801 0.28416 0.3534 0.0
C1310 C 0.02589 0.23373 0.3691 0.0
C1311 C 0.02486 0.23002 0.39826 0.0
N1312 N 0.06831 0.26893 0.35893 0.0
N1313 N 0.04424 0.24584 0.39274 0.0
H1314 H 0.79928 0.80751 0.41341 0.0
H1315 H 0.72578 0.8058 0.34317 0.0
H1316 H 0.80917 0.79039 0.37056 0.0
H1317 H 0.72058 0.83149 0.38496 0.0
H1318 H 0.75442 0.79751 0.35355 0.0
H1319 H 0.76895 0.8143 0.40367 0.0
C1320 C 0.79516 0.80523 0.40197 0.0
C1321 C 0.80688 0.79831 0.39282 0.0
C1322 C 0.74702 0.80492 0.36048 0.0
C1323 C 0.77192 0.80581 0.38161 0.0
C1324 C 0.73056 0.80964 0.35456 0.0
C1325 C 0.72072 0.81945 0.36318 0.0
C1326 C 0.7538 0.80998 0.37518 0.0
C1327 C 0.7277 0.82397 0.37788 0.0
C1328 C 0.77774 0.809 0.39642 0.0
C1329 C 0.80045 0.7953 0.37809 0.0
N1330 N 0.74385 0.81924 0.38341 0.0
N1331 N 0.78348 0.79908 0.37298 0.0
H1332 H 0.24381 1.00313 0.39994 0.0
H1333 H 0.15014 0.89657 0.34686 0.0
H1334 H 0.18379 1.00038 0.37899 0.0
H1335 H 0.21554 0.90422 0.36147 0.0
H1336 H 0.16163 0.93391 0.35947 0.0
H1337 H 0.23347 0.96655 0.38667 0.0
C1338 C 0.22858 0.995 0.39247 0.0
C1339 C 0.21465 1.00495 0.39064 0.0
C1340 C 0.17351 0.92747 0.35994 0.0
C1341 C 0.2025 0.96274 0.37558 0.0
C1342 C 0.16694 0.90613 0.35275 0.0
C1343 C 0.18188 0.89727 0.35318 0.0
C1344 C 0.19518 0.94006 0.3677 0.0
C1345 C 0.20343 0.91037 0.36097 0.0
C1346 C 0.22261 0.97401 0.38496 0.0
C1347 C 0.19488 0.99327 0.38097 0.0
N1348 N 0.20943 0.9311 0.36796 0.0
N1349 N 0.18939 0.97281 0.37386 0.0
H1350 H 0.58042 0.67111 0.29213 0.0
H1351 H 0.59129 0.77967 0.33902 0.0
H1352 H 0.52254 0.67935 0.30082 0.0
H1353 H 0.64978 0.77387 0.32843 0.0
H1354 H 0.56585 0.74248 0.32554 0.0
H1355 H 0.606 0.70806 0.30584 0.0
C1356 C 0.57305 0.68068 0.29688 0.0
C1357 C 0.5492 0.67203 0.29523 0.0
C1358 C 0.58424 0.74929 0.32613 0.0
C1359 C 0.57853 0.71442 0.3111 0.0
C1360 C 0.59878 0.77054 0.33384 0.0
C1361 C 0.62267 0.77986 0.33484 0.0
C1362 C 0.59362 0.73715 0.31937 0.0
C1363 C 0.63144 0.76732 0.32788 0.0
C1364 C 0.5877 0.70177 0.30477 0.0
C1365 C 0.54072 0.6851 0.3019 0.0
N1366 N 0.61692 0.74659 0.32046 0.0
N1367 N 0.55534 0.70561 0.30949 0.0
H1368 H 0.31994 0.86348 0.27807 0.0
H1369 H 0.26235 0.87764 0.34732 0.0
H1370 H 0.35857 0.90184 0.31768 0.0
H1371 H 0.22364 0.84337 0.30693 0.0
H1372 H 0.29776 0.88711 0.33646 0.0
H1373 H 0.2846 0.85672 0.28815 0.0
C1374 C 0.32107 0.87069 0.28883 0.0
C1375 C 0.34235 0.88315 0.29705 0.0
C1376 C 0.28153 0.87758 0.32995 0.0
C1377 C 0.30179 0.87517 0.30874 0.0
C1378 C 0.26125 0.87213 0.33616 0.0
C1379 C 0.23988 0.85959 0.32807 0.0
C1380 C 0.28054 0.87039 0.31552 0.0
C1381 C 0.23966 0.85301 0.31362 0.0
C1382 C 0.30082 0.86669 0.29462 0.0
C1383 C 0.34258 0.89178 0.31101 0.0
N1384 N 0.25964 0.8584 0.30784 0.0
N1385 N 0.32266 0.88756 0.31641 0.0
H1386 H 0.1094 0.44303 0.30338 0.0
H1387 H 0.20388 0.42475 0.34667 0.0
H1388 H 0.18038 0.49602 0.31303 0.0
H1389 H 0.13554 0.36892 0.33303 0.0
H1390 H 0.19512 0.45103 0.33452 0.0
H1391 H 0.11807 0.41559 0.31433 0.0
C1392 C 0.12679 0.44891 0.30781 0.0
C1393 C 0.14418 0.47191 0.30726 0.0
C1394 C 0.18201 0.43304 0.33412 0.0
C1395 C 0.15423 0.44056 0.31979 0.0
C1396 C 0.187 0.41803 0.34109 0.0
C1397 C 0.17039 0.39465 0.34088 0.0
C1398 C 0.16015 0.4247 0.32692 0.0
C1399 C 0.14884 0.38684 0.33342 0.0
C1400 C 0.13175 0.4332 0.31399 0.0
C1401 C 0.16647 0.47845 0.31302 0.0
N1402 N 0.14429 0.40186 0.32679 0.0
N1403 N 0.1708 0.46292 0.31908 0.0
H1404 H 0.32242 0.45181 0.28098 0.0
H1405 H 0.26144 0.39569 0.35082 0.0
H1406 H 0.35644 0.47432 0.32366 0.0
H1407 H 0.22544 0.38041 0.30885 0.0
H1408 H 0.29709 0.42254 0.34089 0.0
H1409 H 0.28742 0.42381 0.29085 0.0
C1410 C 0.32258 0.45098 0.29243 0.0
C1411 C 0.34256 0.46563 0.30146 0.0
C1412 C 0.28138 0.41327 0.33386 0.0
C1413 C 0.30238 0.43318 0.31287 0.0
C1414 C 0.261 0.39787 0.33951 0.0
C1415 C 0.24031 0.38574 0.33069 0.0
C1416 C 0.28116 0.41653 0.31924 0.0
C1417 C 0.2409 0.38937 0.31611 0.0
C1418 C 0.30256 0.43485 0.29806 0.0
C1419 C 0.34166 0.46327 0.31621 0.0
N1420 N 0.26093 0.4044 0.31087 0.0
N1421 N 0.32196 0.44744 0.32143 0.0
H1422 H 0.55888 0.87189 0.26842 0.0
H1423 H 0.61868 0.87147 0.34428 0.0
H1424 H 0.54208 0.89166 0.30834 0.0
H1425 H 0.63156 0.84904 0.30378 0.0
H1426 H 0.59136 0.88002 0.33163 0.0
H1427 H 0.58611 0.86422 0.28151 0.0
C1428 C 0.56074 0.87445 0.27996 0.0
C1429 C 0.54793 0.88227 0.28725 0.0
C1430 C 0.60021 0.87325 0.32555 0.0
C1431 C 0.57962 0.87382 0.30242 0.0
C1432 C 0.61585 0.86839 0.33276 0.0
C1433 C 0.62748 0.85948 0.32512 0.0
C1434 C 0.59622 0.8692 0.3106 0.0
C1435 C 0.62304 0.85583 0.31019 0.0
C1436 C 0.57648 0.87021 0.28745 0.0
C1437 C 0.55165 0.88581 0.30224 0.0
N1438 N 0.60782 0.86068 0.30346 0.0
N1439 N 0.56711 0.88152 0.30932 0.0
H1440 H 0.10091 0.67071 0.29461 0.0
H1441 H 0.20079 0.78055 0.34296 0.0
H1442 H 0.16855 0.6807 0.30531 0.0
H1443 H 0.13356 0.77124 0.33197 0.0
H1444 H 0.18899 0.74363 0.32958 0.0
H1445 H 0.11221 0.70702 0.30855 0.0
C1446 C 0.11816 0.68054 0.29986 0.0
C1447 C 0.13381 0.6726 0.29871 0.0
C1448 C 0.17679 0.74962 0.33008 0.0
C1449 C 0.14684 0.71424 0.31483 0.0
C1450 C 0.18352 0.7707 0.33772 0.0
C1451 C 0.16815 0.77897 0.33852 0.0
C1452 C 0.15447 0.73666 0.32318 0.0
C1453 C 0.146 0.76554 0.33153 0.0
C1454 C 0.12457 0.70125 0.30788 0.0
C1455 C 0.1558 0.68595 0.306 0.0
N1456 N 0.13982 0.74505 0.32415 0.0
N1457 N 0.16166 0.7061 0.31368 0.0
H1458 H 0.82773 1.00089 0.38913 0.0
H1459 H 0.69786 0.9058 0.3611 0.0
H1460 H 0.76892 0.00728 0.39818 0.0
H1461 H 0.75699 0.90074 0.35112 0.0
H1462 H 0.72348 0.94288 0.37487 0.0
H1463 H 0.8021 0.96439 0.375 0.0
C1464 C 0.80946 0.99476 0.38806 0.0
C1465 C 0.80054 0.00727 0.39492 0.0
C1466 C 0.73086 0.93367 0.36967 0.0
C1467 C 0.77094 0.96514 0.37885 0.0
C1468 C 0.71623 0.91247 0.36185 0.0
C1469 C 0.72533 0.90019 0.35499 0.0
C1470 C 0.75478 0.94264 0.37063 0.0
C1471 C 0.74926 0.90968 0.35623 0.0
C1472 C 0.79478 0.97379 0.38005 0.0
C1473 C 0.77661 0.99815 0.39328 0.0
N1474 N 0.76314 0.9303 0.36389 0.0
N1475 N 0.76268 0.97768 0.38546 0.0
H1476 H 0.99435 0.78546 0.37985 0.0
H1477 H 0.1287 0.82697 0.3865 0.0
H1478 H 0.03619 0.80135 0.41969 0.0
H1479 H 0.08787 0.80624 0.34591 0.0
H1480 H 0.09464 0.81799 0.39851 0.0
H1481 H 0.02779 0.793 0.367 0.0
C1482 C 0.01049 0.79043 0.38592 0.0
C1483 C 0.01239 0.7929 0.40093 0.0
C1484 C 0.093 0.81533 0.38697 0.0
C1485 C 0.05081 0.80174 0.38624 0.0
C1486 C 0.11256 0.82053 0.38005 0.0
C1487 C 0.11128 0.81747 0.3651 0.0
C1488 C 0.07178 0.807 0.37897 0.0
C1489 C 0.0897 0.80886 0.35744 0.0
C1490 C 0.02961 0.79483 0.37855 0.0
C1491 C 0.03388 0.79964 0.40815 0.0
N1492 N 0.0708 0.80399 0.36445 0.0
N1493 N 0.05214 0.80382 0.40076 0.0
H1494 H 0.16728 0.1828 0.37565 0.0
H1495 H 0.21357 0.31422 0.35986 0.0
H1496 H 0.23703 0.23711 0.38778 0.0
H1497 H 0.14587 0.25787 0.34543 0.0
H1498 H 0.22227 0.28704 0.37128 0.0
H1499 H 0.15884 0.21081 0.36572 0.0
C1500 C 0.1808 0.20068 0.37635 0.0
C1501 C 0.2029 0.20757 0.38262 0.0
C1502 C 0.20551 0.28066 0.36563 0.0
C1503 C 0.19339 0.23988 0.37104 0.0
C1504 C 0.20053 0.29616 0.35916 0.0
C1505 C 0.17899 0.28823 0.35168 0.0
C1506 C 0.18878 0.25712 0.36463 0.0
C1507 C 0.16274 0.26468 0.35104 0.0
C1508 C 0.176 0.21668 0.37057 0.0
C1509 C 0.21981 0.23096 0.38293 0.0
N1510 N 0.16797 0.24999 0.3574 0.0
N1511 N 0.21471 0.24627 0.37723 0.0
H1512 H 0.65351 0.545 0.70119 0.0
H1513 H 0.78884 0.63278 0.71751 0.0
H1514 H 0.69141 0.55392 0.74168 0.0
H1515 H 0.75178 0.62155 0.67634 0.0
H1516 H 0.75301 0.60551 0.72685 0.0
H1517 H 0.68886 0.57424 0.69226 0.0
C1518 C 0.66926 0.55303 0.70822 0.0
C1519 C 0.66938 0.54676 0.72223 0.0
C1520 C 0.75266 0.60905 0.71578 0.0
C1521 C 0.71008 0.58063 0.71203 0.0
C1522 C 0.77317 0.62469 0.71041 0.0
C1523 C 0.77345 0.62952 0.69606 0.0
C1524 C 0.73212 0.59804 0.70677 0.0
C1525 C 0.75248 0.61841 0.68745 0.0
C1526 C 0.68945 0.56986 0.70311 0.0
C1527 C 0.69032 0.55825 0.73088 0.0
N1528 N 0.73273 0.60318 0.69293 0.0
N1529 N 0.70978 0.5745 0.72563 0.0
H1530 H 0.47469 0.15093 0.74548 0.0
H1531 H 0.38891 0.13394 0.67768 0.0
H1532 H 0.47074 0.11594 0.7048 0.0
H1533 H 0.39049 0.16803 0.71819 0.0
H1534 H 0.41795 0.12612 0.68798 0.0
H1535 H 0.44299 0.15613 0.73628 0.0
C1536 C 0.46708 0.14418 0.73466 0.0
C1537 C 0.47558 0.13311 0.72588 0.0
C1538 C 0.41193 0.13525 0.69467 0.0
C1539 C 0.43937 0.13919 0.71525 0.0
C1540 C 0.39528 0.13974 0.68878 0.0
C1541 C 0.38723 0.15177 0.69704 0.0
C1542 C 0.42081 0.14288 0.70896 0.0
C1543 C 0.39617 0.15872 0.71139 0.0
C1544 C 0.44904 0.14727 0.72939 0.0
C1545 C 0.46512 0.12496 0.7119 0.0
N1546 N 0.41256 0.15427 0.71688 0.0
N1547 N 0.44768 0.12821 0.70704 0.0
H1548 H 0.84705 0.33173 0.71572 0.0
H1549 H 0.88373 0.23869 0.69285 0.0
H1550 H 0.91317 0.33958 0.72869 0.0
H1551 H 0.81773 0.23115 0.6801 0.0
H1552 H 0.89515 0.27595 0.70577 0.0
H1553 H 0.83647 0.29539 0.70209 0.0
C1554 C 0.85945 0.32595 0.71561 0.0
C1555 C 0.88105 0.33881 0.72341 0.0
C1556 C 0.87817 0.26616 0.70014 0.0
C1557 C 0.86888 0.29689 0.70793 0.0
C1558 C 0.87164 0.24487 0.6928 0.0
C1559 C 0.84972 0.2318 0.68546 0.0
C1560 C 0.86268 0.27445 0.70011 0.0
C1561 C 0.8348 0.24069 0.68563 0.0
C1562 C 0.85332 0.30507 0.70789 0.0
C1563 C 0.89622 0.33015 0.72302 0.0
N1564 N 0.84153 0.26142 0.69284 0.0
N1565 N 0.88984 0.30977 0.71544 0.0
H1566 H 0.18616 0.01059 0.63508 0.0
H1567 H 0.3164 0.10548 0.66249 0.0
H1568 H 0.24463 1.00369 0.62587 0.0
H1569 H 0.25752 0.11073 0.67285 0.0
H1570 H 0.29054 0.06827 0.64891 0.0
H1571 H 0.21204 0.04708 0.64914 0.0
C1572 C 0.20441 0.0166 0.63611 0.0
C1573 C 0.21315 1.00395 0.62922 0.0
C1574 C 0.28327 0.07755 0.65416 0.0
C1575 C 0.24305 0.04608 0.6452 0.0
C1576 C 0.29803 0.09881 0.66187 0.0
C1577 C 0.28908 0.1112 0.66877 0.0
C1578 C 0.25936 0.06861 0.65335 0.0
C1579 C 0.26515 0.10172 0.6677 0.0
C1580 C 0.21923 0.03757 0.64407 0.0
C1581 C 0.23707 0.01294 0.63079 0.0
N1582 N 0.25114 0.08104 0.66014 0.0
N1583 N 0.25114 0.03341 0.63857 0.0
H1584 H 0.02678 0.23407 0.65296 0.0
H1585 H 0.88983 0.17618 0.63999 0.0
H1586 H 0.98775 0.19669 0.61324 0.0
H1587 H 0.92888 0.21025 0.68033 0.0
H1588 H 0.92555 0.18526 0.62961 0.0
H1589 H 0.99127 0.22717 0.66271 0.0
C1590 C 0.01075 0.22435 0.64628 0.0
C1591 C 0.01035 0.21581 0.63226 0.0
C1592 C 0.92632 0.19081 0.64072 0.0
C1593 C 0.96942 0.20801 0.64338 0.0
C1594 C 0.90589 0.18565 0.64668 0.0
C1595 C 0.90625 0.19241 0.66111 0.0
C1596 C 0.94736 0.20284 0.64922 0.0
C1597 C 0.92767 0.20463 0.66918 0.0
C1598 C 0.99044 0.2205 0.65185 0.0
C1599 C 0.98901 0.20377 0.62405 0.0
N1600 N 0.9473 0.20939 0.66315 0.0
N1601 N 0.96943 0.20015 0.62975 0.0
H1602 H 0.84809 0.83315 0.65087 0.0
H1603 H 0.8014 0.70112 0.66535 0.0
H1604 H 0.78008 0.77837 0.63535 0.0
H1605 H 0.86856 0.75737 0.68086 0.0
H1606 H 0.79344 0.72836 0.65335 0.0
H1607 H 0.85606 0.80499 0.66103 0.0
C1608 C 0.83477 0.81518 0.64963 0.0
C1609 C 0.81328 0.80821 0.64234 0.0
C1610 C 0.80993 0.73471 0.65935 0.0
C1611 C 0.82241 0.77561 0.65393 0.0
C1612 C 0.81449 0.71917 0.66617 0.0
C1613 C 0.83566 0.72703 0.67413 0.0
C1614 C 0.82667 0.75825 0.66054 0.0
C1615 C 0.85197 0.75058 0.6749 0.0
C1616 C 0.83938 0.79905 0.65539 0.0
C1617 C 0.79691 0.78455 0.64082 0.0
N1618 N 0.84712 0.76531 0.66824 0.0
N1619 N 0.80177 0.76912 0.64663 0.0
H1620 H 0.98688 0.78328 0.61408 0.0
H1621 H 0.92637 0.72712 0.68406 0.0
H1622 H 0.02128 0.80543 0.65667 0.0
H1623 H 0.89014 0.7117 0.64216 0.0
H1624 H 0.96196 0.75389 0.67404 0.0
H1625 H 0.95193 0.75528 0.62402 0.0
C1626 C 0.98713 0.78237 0.62552 0.0
C1627 C 1.00721 0.79692 0.63451 0.0
C1628 C 0.94622 0.7446 0.66704 0.0
C1629 C 0.96709 0.76447 0.64599 0.0
C1630 C 0.92588 0.72924 0.67275 0.0
C1631 C 0.90513 0.7171 0.66398 0.0
C1632 C 0.94592 0.74782 0.65241 0.0
C1633 C 0.90564 0.72067 0.64939 0.0
C1634 C 0.96715 0.76624 0.63119 0.0
C1635 C 1.00643 0.79446 0.64925 0.0
N1636 N 0.92564 0.73566 0.6441 0.0
N1637 N 0.98676 0.77863 0.65451 0.0
H1638 H 0.22323 0.20158 0.60195 0.0
H1639 H 0.28623 0.20474 0.67747 0.0
H1640 H 0.21247 0.22873 0.64146 0.0
H1641 H 0.29563 0.17813 0.63725 0.0
H1642 H 0.25903 0.21349 0.66486 0.0
H1643 H 0.24953 0.19265 0.61507 0.0
C1644 C 0.22648 0.20579 0.6134 0.0
C1645 C 0.21572 0.21614 0.62057 0.0
C1646 C 0.26708 0.20574 0.65883 0.0
C1647 C 0.24585 0.20567 0.63579 0.0
C1648 C 0.28264 0.20076 0.66601 0.0
C1649 C 0.29333 0.1907 0.65844 0.0
C1650 C 0.26217 0.20063 0.64396 0.0
C1651 C 0.28792 0.18591 0.64359 0.0
C1652 C 0.24146 0.20056 0.62092 0.0
C1653 C 0.22026 0.22065 0.63548 0.0
N1654 N 0.27279 0.1909 0.63689 0.0
N1655 N 0.23505 0.21548 0.64259 0.0
H1656 H 0.76765 1.00491 0.62757 0.0
H1657 H 0.86619 0.11393 0.67719 0.0
H1658 H 0.83462 0.01421 0.63972 0.0
H1659 H 0.79942 0.10513 0.66526 0.0
H1660 H 0.85457 0.07706 0.66384 0.0
H1661 H 0.7786 0.04113 0.64153 0.0
C1662 C 0.78468 0.01457 0.63314 0.0
C1663 C 0.80025 0.00644 0.6324 0.0
C1664 C 0.84242 0.08314 0.66412 0.0
C1665 C 0.81286 0.04798 0.64854 0.0
C1666 C 0.84905 0.10419 0.67176 0.0
C1667 C 0.83377 0.11262 0.67228 0.0
C1668 C 0.8203 0.07034 0.65693 0.0
C1669 C 0.81178 0.09932 0.66504 0.0
C1670 C 0.79089 0.03522 0.64117 0.0
C1671 C 0.82193 0.01958 0.64008 0.0
N1672 N 0.80571 0.07885 0.65765 0.0
N1673 N 0.8276 0.03968 0.64777 0.0
H1674 H 0.49361 0.33285 0.72202 0.0
H1675 H 0.36373 0.23743 0.6942 0.0
H1676 H 0.43464 0.33847 0.73179 0.0
H1677 H 0.42292 0.23257 0.68409 0.0
H1678 H 0.38932 0.27447 0.70801 0.0
H1679 H 0.46802 0.29642 0.7078 0.0
C1680 C 0.47531 0.32657 0.72109 0.0
C1681 C 0.46635 0.33884 0.72818 0.0
C1682 C 0.39672 0.26531 0.70277 0.0
C1683 C 0.43678 0.2968 0.712 0.0
C1684 C 0.38211 0.24414 0.69492 0.0
C1685 C 0.39123 0.2319 0.68802 0.0
C1686 C 0.42065 0.27434 0.70372 0.0
C1687 C 0.41518 0.24145 0.68924 0.0
C1688 C 0.46066 0.30564 0.71304 0.0
C1689 C 0.44238 0.32952 0.72672 0.0
N1690 N 0.42903 0.26206 0.69692 0.0
N1691 N 0.42848 0.30911 0.71883 0.0
H1692 H 0.7044 0.13943 0.75405 0.0
H1693 H 0.75376 0.13738 0.67865 0.0
H1694 H 0.66132 0.11581 0.71428 0.0
H1695 H 0.79526 0.16585 0.71889 0.0
H1696 H 0.71945 0.12834 0.69108 0.0
H1697 H 0.73754 0.14808 0.74098 0.0
C1698 C 0.70185 0.13591 0.74254 0.0
C1699 C 0.67991 0.12667 0.7353 0.0
C1700 C 0.73611 0.13656 0.69714 0.0
C1701 C 0.71816 0.13687 0.72011 0.0
C1702 C 0.7557 0.1417 0.69006 0.0
C1703 C 0.77752 0.15236 0.6977 0.0
C1704 C 0.73835 0.14206 0.71197 0.0
C1705 C 0.77891 0.15759 0.71249 0.0
C1706 C 0.72088 0.14101 0.73505 0.0
C1707 C 0.6779 0.12302 0.72032 0.0
N1708 N 0.75969 0.15237 0.71908 0.0
N1709 N 0.69675 0.12803 0.71322 0.0
H1710 H 0.90288 0.56914 0.72229 0.0
H1711 H 0.80981 0.5894 0.67876 0.0
H1712 H 0.83563 0.51486 0.70503 0.0
H1713 H 0.87759 0.64495 0.69386 0.0
H1714 H 0.81879 0.56232 0.68955 0.0
H1715 H 0.89376 0.59756 0.7133 0.0
C1716 C 0.88616 0.56319 0.7167 0.0
C1717 C 0.87007 0.53952 0.71432 0.0
C1718 C 0.83175 0.58042 0.69057 0.0
C1719 C 0.85958 0.57195 0.70395 0.0
C1720 C 0.82662 0.59591 0.68439 0.0
C1721 C 0.84302 0.61944 0.68536 0.0
C1722 C 0.85352 0.58842 0.6978 0.0
C1723 C 0.86447 0.62692 0.69287 0.0
C1724 C 0.88102 0.57943 0.71151 0.0
C1725 C 0.84875 0.53285 0.7069 0.0
N1726 N 0.86915 0.61143 0.69877 0.0
N1727 N 0.84418 0.54893 0.70199 0.0
H1728 H 0.43106 0.92506 0.16336 0.0
H1729 H 0.53798 0.99953 0.11857 0.0
H1730 H 0.50129 0.96474 0.18194 0.0
H1731 H 0.46742 0.96398 0.10041 0.0
H1732 H 0.52491 0.98562 0.1416 0.0
H1733 H 0.44409 0.93781 0.14007 0.0
C1734 C 0.44922 0.93653 0.16259 0.0
C1735 C 0.46506 0.94387 0.17473 0.0
C1736 C 0.51227 0.98082 0.13259 0.0
C1737 C 0.48016 0.95837 0.14793 0.0
C1738 C 0.51971 0.98888 0.11941 0.0
C1739 C 0.5038 0.98309 0.10747 0.0
C1740 C 0.48868 0.96678 0.13393 0.0
C1741 C 0.48037 0.96876 0.10923 0.0
C1742 C 0.45666 0.9437 0.14924 0.0
C1743 C 0.48843 0.95839 0.17292 0.0
N1744 N 0.47354 0.96118 0.1222 0.0
N1745 N 0.49523 0.96518 0.15982 0.0
H1746 H 0.10026 0.55708 0.17662 0.0
H1747 H 1.00097 0.48776 0.11294 0.0
H1748 H 0.03992 0.49114 0.18005 0.0
H1749 H 0.064 0.55053 0.10804 0.0
H1750 H 0.01471 0.4892 0.1377 0.0
H1751 H 0.08692 0.55564 0.15171 0.0
C1752 C 0.08415 0.54235 0.17217 0.0
C1753 C 0.07121 0.5242 0.18047 0.0
C1754 C 0.02558 0.50265 0.13121 0.0
C1755 C 0.05592 0.52234 0.15189 0.0
C1756 C 0.0177 0.50189 0.11708 0.0
C1757 C 0.03131 0.5191 0.10839 0.0
C1758 C 0.04724 0.52082 0.13679 0.0
C1759 C 0.053 0.53679 0.1143 0.0
C1760 C 0.07662 0.54147 0.15791 0.0
C1761 C 0.05062 0.5054 0.17404 0.0
N1762 N 0.06025 0.53725 0.12814 0.0
N1763 N 0.04361 0.505 0.16017 0.0
H1764 H 0.50059 0.5385 0.18559 0.0
H1765 H 0.46684 0.51493 0.101 0.0
H1766 H 0.43166 0.51278 0.16634 0.0
H1767 H 0.5347 0.53659 0.12066 0.0
H1768 H 0.4537 0.51462 0.12473 0.0
H1769 H 0.51355 0.53903 0.16183 0.0
C1770 C 0.48817 0.5331 0.17638 0.0
C1771 C 0.46496 0.5256 0.17803 0.0
C1772 C 0.47147 0.51946 0.12385 0.0
C1773 C 0.47971 0.52593 0.15067 0.0
C1774 C 0.47898 0.51951 0.11028 0.0
C1775 C 0.50197 0.52582 0.10875 0.0
C1776 C 0.48703 0.52577 0.13604 0.0
C1777 C 0.51692 0.53195 0.12123 0.0
C1778 C 0.49558 0.53326 0.16278 0.0
C1779 C 0.44965 0.51844 0.16564 0.0
N1780 N 0.5092 0.53176 0.1343 0.0
N1781 N 0.45729 0.51881 0.15251 0.0
H1782 H 0.96788 0.5268 0.84223 0.0
H1783 H 0.95929 0.45312 0.90819 0.0
H1784 H 0.9229 0.4532 0.84086 0.0
H1785 H 0.9997 0.52731 0.91065 0.0
H1786 H 0.94619 0.45273 0.88342 0.0
H1787 H 0.98003 0.52728 0.86719 0.0
C1788 C 0.96043 0.51074 0.84718 0.0
C1789 C 0.94428 0.48992 0.83937 0.0
C1790 C 0.95787 0.46911 0.88938 0.0
C1791 C 0.95838 0.49034 0.86801 0.0
C1792 C 0.96544 0.46934 0.90352 0.0
C1793 C 0.98067 0.49028 0.91152 0.0
C1794 C 0.96565 0.48997 0.88313 0.0
C1795 C 0.98778 0.51077 0.90495 0.0
C1796 C 0.96748 0.51103 0.86144 0.0
C1797 C 0.9356 0.46962 0.84635 0.0
N1798 N 0.9803 0.51009 0.89114 0.0
N1799 N 0.94275 0.47034 0.86024 0.0
H1800 H 0.55961 0.52512 0.84745 0.0
H1801 H 0.50131 0.45032 0.91247 0.0
H1802 H 0.53784 0.4529 0.84759 0.0
H1803 H 0.52798 0.52361 0.9136 0.0
H1804 H 0.51389 0.45076 0.88856 0.0
H1805 H 0.54767 0.52477 0.8715 0.0
C1806 C 0.55246 0.50919 0.85254 0.0
C1807 C 0.54982 0.48901 0.8454 0.0
C1808 C 0.51704 0.46676 0.89404 0.0
C1809 C 0.53579 0.48845 0.87303 0.0
C1810 C 0.50975 0.46651 0.90768 0.0
C1811 C 0.51352 0.48696 0.9151 0.0
C1812 C 0.52812 0.4876 0.88765 0.0
C1813 C 0.5249 0.50747 0.90839 0.0
C1814 C 0.54552 0.50899 0.86628 0.0
C1815 C 0.53998 0.46882 0.85253 0.0
N1816 N 0.5317 0.50724 0.89507 0.0
N1817 N 0.53335 0.46906 0.86591 0.0
H1818 H 0.52992 0.03837 0.84084 0.0
H1819 H 0.51985 0.06685 0.92295 0.0
H1820 H 0.54391 0.10509 0.85854 0.0
H1821 H 0.50784 1.0007 0.90554 0.0
H1822 H 0.53056 0.08169 0.89974 0.0
H1823 H 0.5237 0.02484 0.86467 0.0
C1824 C 0.53195 0.05028 0.84975 0.0
C1825 C 0.53735 0.07291 0.8476 0.0
C1826 C 0.52566 0.06394 0.90101 0.0
C1827 C 0.5299 0.05737 0.87499 0.0
C1828 C 0.51967 0.05548 0.91431 0.0
C1829 C 0.51278 0.03241 0.91626 0.0
C1830 C 0.52479 0.04928 0.88949 0.0
C1831 C 0.51262 0.01847 0.90453 0.0
C1832 C 0.52823 0.04248 0.86336 0.0
C1833 C 0.5394 0.0874 0.85959 0.0
N1834 N 0.51843 0.02708 0.89169 0.0
N1835 N 0.5356 0.07937 0.87271 0.0
H1836 H 0.09676 0.25831 0.49825 0.0
H1837 H 0.20328 0.33374 0.45339 0.0
H1838 H 0.16705 0.29819 0.51669 0.0
H1839 H 0.13269 0.29783 0.43529 0.0
H1840 H 0.19036 0.3196 0.4764 0.0
H1841 H 0.10959 0.27134 0.47496 0.0
C1842 C 0.11489 0.26988 0.49745 0.0
C1843 C 0.1308 0.27718 0.50955 0.0
C1844 C 0.17767 0.31477 0.4674 0.0
C1845 C 0.14568 0.29201 0.48275 0.0
C1846 C 0.18503 0.32296 0.45424 0.0
C1847 C 0.16907 0.31715 0.44232 0.0
C1848 C 0.15411 0.30057 0.46876 0.0
C1849 C 0.14568 0.30265 0.44409 0.0
C1850 C 0.12222 0.27722 0.4841 0.0
C1851 C 0.15413 0.29185 0.5077 0.0
N1852 N 0.13892 0.29494 0.45705 0.0
N1853 N 0.16083 0.29879 0.49461 0.0
H1854 H 0.7057 0.82315 0.51524 0.0
H1855 H 0.73146 0.88472 0.44236 0.0
H1856 H 0.76606 0.8887 0.511 0.0
H1857 H 0.66846 0.82245 0.44812 0.0
H1858 H 0.74537 0.88561 0.46707 0.0
H1859 H 0.69265 0.82184 0.49034 0.0
C1860 C 0.71629 0.83723 0.50905 0.0
C1861 C 0.73705 0.85605 0.51526 0.0
C1862 C 0.72851 0.87174 0.46292 0.0
C1863 C 0.72208 0.85474 0.48666 0.0
C1864 C 0.72061 0.87113 0.44878 0.0
C1865 C 0.69871 0.85351 0.44314 0.0
C1866 C 0.71447 0.85453 0.4715 0.0
C1867 C 0.68532 0.83654 0.45204 0.0
C1868 C 0.70875 0.83653 0.49484 0.0
C1869 C 0.74983 0.87396 0.50674 0.0
N1870 N 0.6934 0.83747 0.46574 0.0
N1871 N 0.74218 0.87283 0.49289 0.0
H1872 H 0.09661 0.84181 0.49963 0.0
H1873 H 0.20488 0.87576 0.45443 0.0
H1874 H 0.16662 0.87397 0.51848 0.0
H1875 H 0.13469 0.84041 0.43562 0.0
H1876 H 0.1912 0.87621 0.47784 0.0
H1877 H 0.11021 0.84208 0.47607 0.0
C1878 C 0.11484 0.84885 0.49885 0.0
C1879 C 0.13045 0.85783 0.51114 0.0
C1880 C 0.17876 0.86837 0.4686 0.0
C1881 C 0.14621 0.85841 0.48405 0.0
C1882 C 0.18656 0.86797 0.4552 0.0
C1883 C 0.17094 0.85791 0.44296 0.0
C1884 C 0.15511 0.85864 0.46988 0.0
C1885 C 0.14742 0.84856 0.44468 0.0
C1886 C 0.12261 0.84911 0.48535 0.0
C1887 C 0.15393 0.8671 0.50935 0.0
N1888 N 0.14025 0.8491 0.45786 0.0
N1889 N 0.16106 0.8671 0.4961 0.0
H1890 H 0.64199 0.85613 0.17443 0.0
H1891 H 0.61784 0.79421 0.24713 0.0
H1892 H 0.58278 0.78965 0.17853 0.0
H1893 H 0.67954 0.85788 0.24157 0.0
H1894 H 0.60377 0.79295 0.22241 0.0
H1895 H 0.65518 0.85767 0.19932 0.0
C1896 C 0.63169 0.84189 0.18059 0.0
C1897 C 0.6112 0.82275 0.17436 0.0
C1898 C 0.62038 0.8072 0.2266 0.0
C1899 C 0.62633 0.82433 0.20292 0.0
C1900 C 0.62836 0.80801 0.24075 0.0
C1901 C 0.64995 0.82614 0.24644 0.0
C1902 C 0.63403 0.82471 0.21808 0.0
C1903 C 0.66295 0.8434 0.2376 0.0
C1904 C 0.6393 0.84273 0.19479 0.0
C1905 C 0.59879 0.80465 0.18282 0.0
N1906 N 0.65479 0.84226 0.22389 0.0
N1907 N 0.60651 0.80591 0.19667 0.0
H1908 H 0.17873 0.8004 0.17248 0.0
H1909 H 0.21481 0.83541 0.25646 0.0
H1910 H 0.24887 0.83381 0.19124 0.0
H1911 H 0.14452 0.7993 0.23779 0.0
H1912 H 0.22761 0.83457 0.23275 0.0
H1913 H 0.1659 0.79946 0.19634 0.0
C1914 C 0.19145 0.80739 0.1816 0.0
C1915 C 0.21496 0.81723 0.17977 0.0
C1916 C 0.20938 0.82681 0.23384 0.0
C1917 C 0.20033 0.81645 0.20722 0.0
C1918 C 0.20203 0.82715 0.24742 0.0
C1919 C 0.17851 0.81747 0.2492 0.0
C1920 C 0.19314 0.8167 0.22189 0.0
C1921 C 0.16284 0.80732 0.23697 0.0
C1922 C 0.1841 0.80697 0.19524 0.0
C1923 C 0.23061 0.82635 0.19205 0.0
N1924 N 0.17042 0.80724 0.22388 0.0
N1925 N 0.22303 0.82575 0.20521 0.0
H1926 H 0.22323 0.39138 0.18114 0.0
H1927 H 0.15472 0.38206 0.24992 0.0
H1928 H 0.17135 0.41094 0.18336 0.0
H1929 H 0.20116 0.35561 0.24679 0.0
H1930 H 0.16306 0.39546 0.2262 0.0
H1931 H 0.21778 0.38083 0.20576 0.0
C1932 C 0.2108 0.39359 0.18681 0.0
C1933 C 0.1976 0.4019 0.18009 0.0
C1934 C 0.17151 0.3868 0.2307 0.0
C1935 C 0.19121 0.38977 0.20827 0.0
C1936 C 0.16687 0.37928 0.24432 0.0
C1937 C 0.17722 0.36765 0.25041 0.0
C1938 C 0.18669 0.38277 0.22304 0.0
C1939 C 0.19255 0.36424 0.24247 0.0
C1940 C 0.20761 0.38745 0.20085 0.0
C1941 C 0.18164 0.40423 0.18798 0.0
N1942 N 0.1968 0.37174 0.22922 0.0
N1943 N 0.1789 0.3982 0.20159 0.0
H1944 H 0.79625 0.64649 0.84729 0.0
H1945 H 0.82998 0.61847 0.77145 0.0
H1946 H 0.79901 0.5848 0.83642 0.0
H1947 H 0.83214 0.68221 0.78403 0.0
H1948 H 0.81712 0.60501 0.79471 0.0
H1949 H 0.80805 0.6591 0.8238 0.0
C1950 C 0.79922 0.63551 0.83994 0.0
C1951 C 0.79655 0.6145 0.84387 0.0
C1952 C 0.82041 0.62194 0.79238 0.0
C1953 C 0.8103 0.62897 0.81687 0.0
C1954 C 0.82761 0.62958 0.77905 0.0
C1955 C 0.83224 0.65156 0.77576 0.0
C1956 C 0.81767 0.63631 0.8025 0.0
C1957 C 0.82911 0.66529 0.78614 0.0
C1958 C 0.80609 0.6428 0.82653 0.0
C1959 C 0.80105 0.60123 0.83393 0.0
N1960 N 0.82203 0.65745 0.79899 0.0
N1961 N 0.80763 0.60865 0.8209 0.0
H1962 H 0.43338 0.22495 0.84483 0.0
H1963 H 0.33402 0.15449 0.78133 0.0
H1964 H 0.3737 0.15856 0.84836 0.0
H1965 H 0.39641 0.21781 0.7763 0.0
H1966 H 0.34802 0.15619 0.80606 0.0
H1967 H 0.41978 0.22329 0.81994 0.0
C1968 C 0.41735 0.21008 0.8404 0.0
C1969 C 0.40468 0.19186 0.84872 0.0
C1970 C 0.3587 0.1697 0.79956 0.0
C1971 C 0.38909 0.18976 0.82018 0.0
C1972 C 0.35066 0.1688 0.78544 0.0
C1973 C 0.36401 0.18608 0.77672 0.0
C1974 C 0.38025 0.1881 0.80509 0.0
C1975 C 0.38562 0.20401 0.78258 0.0
C1976 C 0.40967 0.20907 0.82616 0.0
C1977 C 0.38419 0.17288 0.84233 0.0
N1978 N 0.39301 0.20461 0.79641 0.0
N1979 N 0.37703 0.17236 0.82848 0.0
H1980 H 0.786 0.15137 0.84236 0.0
H1981 H 0.84823 0.22686 0.77841 0.0
H1982 H 0.81068 0.22429 0.84292 0.0
H1983 H 0.82009 0.1533 0.77689 0.0
H1984 H 0.835 0.22634 0.80211 0.0
H1985 H 0.7985 0.15179 0.81847 0.0
C1986 C 0.79391 0.16746 0.83745 0.0
C1987 C 0.79721 0.18782 0.84473 0.0
C1988 C 0.83168 0.2103 0.7966 0.0
C1989 C 0.81189 0.18845 0.81731 0.0
C1990 C 0.83934 0.21059 0.78307 0.0
C1991 C 0.83534 0.1901 0.7756 0.0
C1992 C 0.81997 0.18936 0.80281 0.0
C1993 C 0.82336 0.1695 0.78214 0.0
C1994 C 0.80117 0.1677 0.8238 0.0
C1995 C 0.80801 0.20821 0.83785 0.0
N1996 N 0.81619 0.16967 0.79535 0.0
N1997 N 0.81492 0.208 0.82456 0.0
H1998 H 0.30375 0.14336 0.50236 0.0
H1999 H 0.28955 0.1632 0.58496 0.0
H2000 H 0.25702 0.16476 0.51691 0.0
H2001 H 0.34071 0.14826 0.57019 0.0
H2002 H 0.27659 0.16279 0.56016 0.0
H2003 H 0.31633 0.14347 0.52719 0.0
C2004 C 0.29604 0.14796 0.51077 0.0
C2005 C 0.2793 0.15408 0.50752 0.0
C2006 C 0.29064 0.15959 0.56235 0.0
C2007 C 0.29379 0.15443 0.53603 0.0
C2008 C 0.29815 0.15994 0.57653 0.0
C2009 C 0.31626 0.15572 0.57973 0.0
C2010 C 0.30127 0.15495 0.55124 0.0
C2011 C 0.32645 0.15124 0.56829 0.0
C2012 C 0.30333 0.14816 0.52496 0.0
C2013 C 0.27017 0.1602 0.5189 0.0
N2014 N 0.31883 0.15097 0.5546 0.0
N2015 N 0.2775 0.16019 0.53263 0.0
H2016 H 0.89702 0.19232 0.51591 0.0
H2017 H 0.83165 0.11598 0.57882 0.0
H2018 H 0.86881 0.1187 0.51412 0.0
H2019 H 0.86434 0.19012 0.58176 0.0
H2020 H 0.84448 0.11652 0.55498 0.0
H2021 H 0.88478 0.19175 0.53988 0.0
C2022 C 0.88839 0.17603 0.52056 0.0
C2023 C 0.88404 0.15553 0.51291 0.0
C2024 C 0.84889 0.13268 0.56084 0.0
C2025 C 0.86965 0.15474 0.54044 0.0
C2026 C 0.84147 0.13239 0.57445 0.0
C2027 C 0.84686 0.15304 0.58235 0.0
C2028 C 0.86175 0.15378 0.55499 0.0
C2029 C 0.85997 0.17379 0.57617 0.0
C2030 C 0.88128 0.17571 0.53426 0.0
C2031 C 0.87232 0.13491 0.51948 0.0
N2032 N 0.86687 0.17361 0.56287 0.0
N2033 N 0.86557 0.13506 0.53283 0.0
H2034 H 0.89333 0.72901 0.51676 0.0
H2035 H 0.8134 0.70564 0.58119 0.0
H2036 H 0.8319 0.73409 0.51479 0.0
H2037 H 0.8708 0.69383 0.58256 0.0
H2038 H 0.82178 0.71867 0.55742 0.0
H2039 H 0.88715 0.71853 0.54136 0.0
C2040 C 0.87862 0.72803 0.52151 0.0
C2041 C 0.86301 0.73226 0.51362 0.0
C2042 C 0.83261 0.7133 0.56291 0.0
C2043 C 0.85581 0.72023 0.54176 0.0
C2044 C 0.82794 0.70601 0.57657 0.0
C2045 C 0.84141 0.69862 0.58394 0.0
C2046 C 0.85097 0.7133 0.5565 0.0
C2047 C 0.85979 0.69912 0.57723 0.0
C2048 C 0.87504 0.72194 0.53553 0.0
C2049 C 0.84416 0.73058 0.52032 0.0
N2050 N 0.86402 0.70631 0.5639 0.0
N2051 N 0.84111 0.72471 0.53395 0.0
loop_
_geom_bond_atom_site_label_1
_geom_bond_atom_site_label_2
_geom_bond_distance
_geom_bond_site_symmetry_2
_ccdc_geom_bond_type
C0 C1 1.264 . S
C0 C5 1.479 . S
C0 C10 1.465 . S
C1 C0 1.264 . S
C1 C3 1.339 . S
C1 H28 0.931 . S
C2 C3 1.395 . S
C2 C4 1.320 . S
C3 C1 1.339 . S
C3 C2 1.395 . S
C3 H29 0.929 . S
C4 C2 1.320 . S
C4 C5 1.405 . S
C4 H30 0.930 . S
C5 C0 1.479 . S
C5 C4 1.405 . S
C5 H31 0.931 . S
U6 O7 2.454 . S
U6 O8 2.458 . S
U6 C9 2.984 . S
U6 C10 2.847 . S
U6 C23 2.882 . S
U6 O24 2.441 . S
U6 O25 2.420 . S
U6 O26 2.455 . S
U6 O27 2.449 . S
O7 U6 2.454 . S
O7 C9 1.353 . S
O8 U6 2.458 . S
O8 C9 1.286 . S
C9 U6 2.984 . S
C9 O7 1.353 . S
C9 O8 1.286 . S
C9 C11 1.363 . S
C10 C0 1.465 . S
C10 U6 2.847 . S
C10 O24 1.249 . S
C10 O25 1.202 . S
C11 C9 1.363 . S
C11 C13 1.408 . S
C11 C16 1.342 . S
C12 C13 1.310 . S
C12 C15 1.461 . S
C12 H32 0.932 . S
C13 C11 1.408 . S
C13 C12 1.310 . S
C13 H33 0.930 . S
C14 C15 1.474 . S
C14 C16 1.285 . S
C14 H34 0.929 . S
C15 C12 1.461 . S
C15 C14 1.474 . S
C16 C11 1.342 . S
C16 C14 1.285 . S
C16 H35 0.930 . S
C17 C20 1.424 . S
C17 C22 1.245 . S
C17 C23 1.428 . S
C18 C21 1.260 . S
C18 C22 1.477 . S
C18 H36 0.932 . S
C19 C20 1.384 . S
C19 C21 1.479 . S
C19 H37 0.929 . S
C20 C17 1.424 . S
C20 C19 1.384 . S
C20 H38 0.928 . S
C21 C18 1.260 . S
C21 C19 1.479 . S
C22 C17 1.245 . S
C22 C18 1.477 . S
C22 H39 0.932 . S
C23 U6 2.882 . S
C23 C17 1.428 . S
C23 O26 1.301 . S
C23 O27 1.282 . S
O24 U6 2.441 . S
O24 C10 1.249 . S
O25 U6 2.420 . S
O25 C10 1.202 . S
O26 U6 2.455 . S
O26 C23 1.301 . S
O27 U6 2.449 . S
O27 C23 1.282 . S
H28 C1 0.931 . S
H29 C3 0.929 . S
H30 C4 0.930 . S
H31 C5 0.931 . S
H32 C12 0.932 . S
H33 C13 0.930 . S
H34 C14 0.929 . S
H35 C16 0.930 . S
H36 C18 0.932 . S
H37 C19 0.929 . S
H38 C20 0.928 . S
H39 C22 0.932 . S
C40 C41 1.264 . S
C40 C45 1.479 . S
C40 C50 1.465 . S
C41 C40 1.264 . S
C41 C43 1.339 . S
C41 H68 0.931 . S
C42 C43 1.395 . S
C42 C44 1.320 . S
C43 C41 1.339 . S
C43 C42 1.395 . S
C43 H69 0.929 . S
C44 C42 1.320 . S
C44 C45 1.405 . S
C44 H70 0.930 . S
C45 C40 1.479 . S
C45 C44 1.405 . S
C45 H71 0.931 . S
U46 O47 2.454 . S
U46 O48 2.458 . S
U46 C49 2.984 . S
U46 C50 2.847 . S
U46 C63 2.882 . S
U46 O64 2.441 . S
U46 O65 2.420 . S
U46 O66 2.455 . S
U46 O67 2.449 . S
O47 U46 2.454 . S
O47 C49 1.353 . S
O48 U46 2.458 . S
O48 C49 1.286 . S
C49 U46 2.984 . S
C49 O47 1.353 . S
C49 O48 1.286 . S
C49 C51 1.363 . S
C50 C40 1.465 . S
C50 U46 2.847 . S
C50 O64 1.249 . S
C50 O65 1.202 . S
C51 C49 1.363 . S
C51 C53 1.408 . S
C51 C56 1.342 . S
C52 C53 1.310 . S
C52 C55 1.461 . S
C52 H72 0.932 . S
C53 C51 1.408 . S
C53 C52 1.310 . S
C53 H73 0.930 . S
C54 C55 1.474 . S
C54 C56 1.285 . S
C54 H74 0.929 . S
C55 C52 1.461 . S
C55 C54 1.474 . S
C56 C51 1.342 . S
C56 C54 1.285 . S
C56 H75 0.930 . S
C57 C60 1.424 . S
C57 C62 1.245 . S
C57 C63 1.428 . S
C58 C61 1.260 . S
C58 C62 1.477 . S
C58 H76 0.932 . S
C59 C60 1.384 . S
C59 C61 1.479 . S
C59 H77 0.929 . S
C60 C57 1.424 . S
C60 C59 1.384 . S
C60 H78 0.928 . S
C61 C58 1.260 . S
C61 C59 1.479 . S
C62 C57 1.245 . S
C62 C58 1.477 . S
C62 H79 0.932 . S
C63 U46 2.882 . S
C63 C57 1.428 . S
C63 O66 1.301 . S
C63 O67 1.282 . S
O64 U46 2.441 . S
O64 C50 1.249 . S
O65 U46 2.420 . S
O65 C50 1.202 . S
O66 U46 2.455 . S
O66 C63 1.301 . S
O67 U46 2.449 . S
O67 C63 1.282 . S
H68 C41 0.931 . S
H69 C43 0.929 . S
H70 C44 0.930 . S
H71 C45 0.931 . S
H72 C52 0.932 . S
H73 C53 0.930 . S
H74 C54 0.929 . S
H75 C56 0.930 . S
H76 C58 0.932 . S
H77 C59 0.929 . S
H78 C60 0.928 . S
H79 C62 0.932 . S
C80 C81 1.264 . S
C80 C85 1.479 . S
C80 C90 1.465 . S
C81 C80 1.264 . S
C81 C83 1.339 . S
C81 H108 0.931 . S
C82 C83 1.395 . S
C82 C84 1.320 . S
C83 C81 1.339 . S
C83 C82 1.395 . S
C83 H109 0.929 . S
C84 C82 1.320 . S
C84 C85 1.405 . S
C84 H110 0.930 . S
C85 C80 1.479 . S
C85 C84 1.405 . S
C85 H111 0.931 . S
U86 O87 2.454 . S
U86 O88 2.458 . S
U86 C89 2.984 . S
U86 C90 2.847 . S
U86 C103 2.882 . S
U86 O104 2.441 . S
U86 O105 2.420 . S
U86 O106 2.455 . S
U86 O107 2.449 . S
O87 U86 2.454 . S
O87 C89 1.353 . S
O88 U86 2.458 . S
O88 C89 1.286 . S
C89 U86 2.984 . S
C89 O87 1.353 . S
C89 O88 1.286 . S
C89 C91 1.363 . S
C90 C80 1.465 . S
C90 U86 2.847 . S
C90 O104 1.249 . S
C90 O105 1.202 . S
C91 C89 1.363 . S
C91 C93 1.408 . S
C91 C96 1.342 . S
C92 C93 1.310 . S
C92 C95 1.461 . S
C92 H112 0.932 . S
C93 C91 1.408 . S
C93 C92 1.310 . S
C93 H113 0.930 . S
C94 C95 1.474 . S
C94 C96 1.285 . S
C94 H114 0.929 . S
C95 C92 1.461 . S
C95 C94 1.474 . S
C96 C91 1.342 . S
C96 C94 1.285 . S
C96 H115 0.930 . S
C97 C100 1.424 . S
C97 C102 1.245 . S
C97 C103 1.428 . S
C98 C101 1.260 . S
C98 C102 1.477 . S
C98 H116 0.932 . S
C99 C100 1.384 . S
C99 C101 1.479 . S
C99 H117 0.929 . S
C100 C97 1.424 . S
C100 C99 1.384 . S
C100 H118 0.928 . S
C101 C98 1.260 . S
C101 C99 1.479 . S
C102 C97 1.245 . S
C102 C98 1.477 . S
C102 H119 0.932 . S
C103 U86 2.882 . S
C103 C97 1.428 . S
C103 O106 1.301 . S
C103 O107 1.282 . S
O104 U86 2.441 . S
O104 C90 1.249 . S
O105 U86 2.420 . S
O105 C90 1.202 . S
O106 U86 2.455 . S
O106 C103 1.301 . S
O107 U86 2.449 . S
O107 C103 1.282 . S
H108 C81 0.931 . S
H109 C83 0.929 . S
H110 C84 0.930 . S
H111 C85 0.931 . S
H112 C92 0.932 . S
H113 C93 0.930 . S
H114 C94 0.929 . S
H115 C96 0.930 . S
H116 C98 0.932 . S
H117 C99 0.929 . S
H118 C100 0.928 . S
H119 C102 0.932 . S
C120 C121 1.264 . S
C120 C125 1.479 . S
C120 C130 1.465 . S
C121 C120 1.264 . S
C121 C123 1.339 . S
C121 H148 0.931 . S
C122 C123 1.395 . S
C122 C124 1.320 . S
C123 C121 1.339 . S
C123 C122 1.395 . S
C123 H149 0.929 . S
C124 C122 1.320 . S
C124 C125 1.405 . S
C124 H150 0.930 . S
C125 C120 1.479 . S
C125 C124 1.405 . S
C125 H151 0.931 . S
U126 O127 2.454 . S
U126 O128 2.458 . S
U126 C129 2.984 . S
U126 C130 2.847 . S
U126 C143 2.882 . S
U126 O144 2.441 . S
U126 O145 2.420 . S
U126 O146 2.455 . S
U126 O147 2.449 . S
O127 U126 2.454 . S
O127 C129 1.353 . S
O128 U126 2.458 . S
O128 C129 1.286 . S
C129 U126 2.984 . S
C129 O127 1.353 . S
C129 O128 1.286 . S
C129 C131 1.363 . S
C130 C120 1.465 . S
C130 U126 2.847 . S
C130 O144 1.249 . S
C130 O145 1.202 . S
C131 C129 1.363 . S
C131 C133 1.408 . S
C131 C136 1.342 . S
C132 C133 1.310 . S
C132 C135 1.461 . S
C132 H152 0.932 . S
C133 C131 1.408 . S
C133 C132 1.310 . S
C133 H153 0.930 . S
C134 C135 1.474 . S
C134 C136 1.285 . S
C134 H154 0.929 . S
C135 C132 1.461 . S
C135 C134 1.474 . S
C136 C131 1.342 . S
C136 C134 1.285 . S
C136 H155 0.930 . S
C137 C140 1.424 . S
C137 C142 1.245 . S
C137 C143 1.428 . S
C138 C141 1.260 . S
C138 C142 1.477 . S
C138 H156 0.932 . S
C139 C140 1.384 . S
C139 C141 1.479 . S
C139 H157 0.929 . S
C140 C137 1.424 . S
C140 C139 1.384 . S
C140 H158 0.928 . S
C141 C138 1.260 . S
C141 C139 1.479 . S
C142 C137 1.245 . S
C142 C138 1.477 . S
C142 H159 0.932 . S
C143 U126 2.882 . S
C143 C137 1.428 . S
C143 O146 1.301 . S
C143 O147 1.282 . S
O144 U126 2.441 . S
O144 C130 1.249 . S
O145 U126 2.420 . S
O145 C130 1.202 . S
O146 U126 2.455 . S
O146 C143 1.301 . S
O147 U126 2.449 . S
O147 C143 1.282 . S
H148 C121 0.931 . S
H149 C123 0.929 . S
H150 C124 0.930 . S
H151 C125 0.931 . S
H152 C132 0.932 . S
H153 C133 0.930 . S
H154 C134 0.929 . S
H155 C136 0.930 . S
H156 C138 0.932 . S
H157 C139 0.929 . S
H158 C140 0.928 . S
H159 C142 0.932 . S
C160 C161 1.264 . S
C160 C165 1.479 . S
C160 C170 1.465 . S
C161 C160 1.264 . S
C161 C163 1.339 . S
C161 H188 0.931 . S
C162 C163 1.395 . S
C162 C164 1.320 . S
C163 C161 1.339 . S
C163 C162 1.395 . S
C163 H189 0.929 . S
C164 C162 1.320 . S
C164 C165 1.405 . S
C164 H190 0.930 . S
C165 C160 1.479 . S
C165 C164 1.405 . S
C165 H191 0.931 . S
U166 O167 2.454 . S
U166 O168 2.458 . S
U166 C169 2.984 . S
U166 C170 2.847 . S
U166 C183 2.882 . S
U166 O184 2.441 . S
U166 O185 2.420 . S
U166 O186 2.455 . S
U166 O187 2.449 . S
O167 U166 2.454 . S
O167 C169 1.353 . S
O168 U166 2.458 . S
O168 C169 1.286 . S
C169 U166 2.984 . S
C169 O167 1.353 . S
C169 O168 1.286 . S
C169 C171 1.363 . S
C170 C160 1.465 . S
C170 U166 2.847 . S
C170 O184 1.249 . S
C170 O185 1.202 . S
C171 C169 1.363 . S
C171 C173 1.408 . S
C171 C176 1.342 . S
C172 C173 1.310 . S
C172 C175 1.461 . S
C172 H192 0.932 . S
C173 C171 1.408 . S
C173 C172 1.310 . S
C173 H193 0.930 . S
C174 C175 1.474 . S
C174 C176 1.285 . S
C174 H194 0.929 . S
C175 C172 1.461 . S
C175 C174 1.474 . S
C176 C171 1.342 . S
C176 C174 1.285 . S
C176 H195 0.930 . S
C177 C180 1.424 . S
C177 C182 1.245 . S
C177 C183 1.428 . S
C178 C181 1.260 . S
C178 C182 1.477 . S
C178 H196 0.932 . S
C179 C180 1.384 . S
C179 C181 1.479 . S
C179 H197 0.929 . S
C180 C177 1.424 . S
C180 C179 1.384 . S
C180 H198 0.928 . S
C181 C178 1.260 . S
C181 C179 1.479 . S
C182 C177 1.245 . S
C182 C178 1.477 . S
C182 H199 0.932 . S
C183 U166 2.882 . S
C183 C177 1.428 . S
C183 O186 1.301 . S
C183 O187 1.282 . S
O184 U166 2.441 . S
O184 C170 1.249 . S
O185 U166 2.420 . S
O185 C170 1.202 . S
O186 U166 2.455 . S
O186 C183 1.301 . S
O187 U166 2.449 . S
O187 C183 1.282 . S
H188 C161 0.931 . S
H189 C163 0.929 . S
H190 C164 0.930 . S
H191 C165 0.931 . S
H192 C172 0.932 . S
H193 C173 0.930 . S
H194 C174 0.929 . S
H195 C176 0.930 . S
H196 C178 0.932 . S
H197 C179 0.929 . S
H198 C180 0.928 . S
H199 C182 0.932 . S
C200 C201 1.264 . S
C200 C205 1.479 . S
C200 C210 1.465 . S
C201 C200 1.264 . S
C201 C203 1.339 . S
C201 H228 0.931 . S
C202 C203 1.395 . S
C202 C204 1.320 . S
C203 C201 1.339 . S
C203 C202 1.395 . S
C203 H229 0.929 . S
C204 C202 1.320 . S
C204 C205 1.405 . S
C204 H230 0.930 . S
C205 C200 1.479 . S
C205 C204 1.405 . S
C205 H231 0.931 . S
U206 O207 2.454 . S
U206 O208 2.458 . S
U206 C209 2.984 . S
U206 C210 2.847 . S
U206 C223 2.882 . S
U206 O224 2.441 . S
U206 O225 2.420 . S
U206 O226 2.455 . S
U206 O227 2.449 . S
O207 U206 2.454 . S
O207 C209 1.353 . S
O208 U206 2.458 . S
O208 C209 1.286 . S
C209 U206 2.984 . S
C209 O207 1.353 . S
C209 O208 1.286 . S
C209 C211 1.363 . S
C210 C200 1.465 . S
C210 U206 2.847 . S
C210 O224 1.249 . S
C210 O225 1.202 . S
C211 C209 1.363 . S
C211 C213 1.408 . S
C211 C216 1.342 . S
C212 C213 1.310 . S
C212 C215 1.461 . S
C212 H232 0.932 . S
C213 C211 1.408 . S
C213 C212 1.310 . S
C213 H233 0.930 . S
C214 C215 1.474 . S
C214 C216 1.285 . S
C214 H234 0.929 . S
C215 C212 1.461 . S
C215 C214 1.474 . S
C216 C211 1.342 . S
C216 C214 1.285 . S
C216 H235 0.930 . S
C217 C220 1.424 . S
C217 C222 1.245 . S
C217 C223 1.428 . S
C218 C221 1.260 . S
C218 C222 1.477 . S
C218 H236 0.932 . S
C219 C220 1.384 . S
C219 C221 1.479 . S
C219 H237 0.929 . S
C220 C217 1.424 . S
C220 C219 1.384 . S
C220 H238 0.928 . S
C221 C218 1.260 . S
C221 C219 1.479 . S
C222 C217 1.245 . S
C222 C218 1.477 . S
C222 H239 0.932 . S
C223 U206 2.882 . S
C223 C217 1.428 . S
C223 O226 1.301 . S
C223 O227 1.282 . S
O224 U206 2.441 . S
O224 C210 1.249 . S
O225 U206 2.420 . S
O225 C210 1.202 . S
O226 U206 2.455 . S
O226 C223 1.301 . S
O227 U206 2.449 . S
O227 C223 1.282 . S
H228 C201 0.931 . S
H229 C203 0.929 . S
H230 C204 0.930 . S
H231 C205 0.931 . S
H232 C212 0.932 . S
H233 C213 0.930 . S
H234 C214 0.929 . S
H235 C216 0.930 . S
H236 C218 0.932 . S
H237 C219 0.929 . S
H238 C220 0.928 . S
H239 C222 0.932 . S
C240 C241 1.264 . S
C240 C245 1.479 . S
C240 C250 1.465 . S
C241 C240 1.264 . S
C241 C243 1.339 . S
C241 H268 0.931 . S
C242 C243 1.395 . S
C242 C244 1.320 . S
C243 C241 1.339 . S
C243 C242 1.395 . S
C243 H269 0.929 . S
C244 C242 1.320 . S
C244 C245 1.405 . S
C244 H270 0.930 . S
C245 C240 1.479 . S
C245 C244 1.405 . S
C245 H271 0.931 . S
U246 O247 2.454 . S
U246 O248 2.458 . S
U246 C249 2.984 . S
U246 C250 2.847 . S
U246 C263 2.882 . S
U246 O264 2.441 . S
U246 O265 2.420 . S
U246 O266 2.455 . S
U246 O267 2.449 . S
O247 U246 2.454 . S
O247 C249 1.353 . S
O248 U246 2.458 . S
O248 C249 1.286 . S
C249 U246 2.984 . S
C249 O247 1.353 . S
C249 O248 1.286 . S
C249 C251 1.363 . S
C250 C240 1.465 . S
C250 U246 2.847 . S
C250 O264 1.249 . S
C250 O265 1.202 . S
C251 C249 1.363 . S
C251 C253 1.408 . S
C251 C256 1.342 . S
C252 C253 1.310 . S
C252 C255 1.461 . S
C252 H272 0.932 . S
C253 C251 1.408 . S
C253 C252 1.310 . S
C253 H273 0.930 . S
C254 C255 1.474 . S
C254 C256 1.285 . S
C254 H274 0.929 . S
C255 C252 1.461 . S
C255 C254 1.474 . S
C256 C251 1.342 . S
C256 C254 1.285 . S
C256 H275 0.930 . S
C257 C260 1.424 . S
C257 C262 1.245 . S
C257 C263 1.428 . S
C258 C261 1.260 . S
C258 C262 1.477 . S
C258 H276 0.932 . S
C259 C260 1.384 . S
C259 C261 1.479 . S
C259 H277 0.929 . S
C260 C257 1.424 . S
C260 C259 1.384 . S
C260 H278 0.928 . S
C261 C258 1.260 . S
C261 C259 1.479 . S
C262 C257 1.245 . S
C262 C258 1.477 . S
C262 H279 0.932 . S
C263 U246 2.882 . S
C263 C257 1.428 . S
C263 O266 1.301 . S
C263 O267 1.282 . S
O264 U246 2.441 . S
O264 C250 1.249 . S
O265 U246 2.420 . S
O265 C250 1.202 . S
O266 U246 2.455 . S
O266 C263 1.301 . S
O267 U246 2.449 . S
O267 C263 1.282 . S
H268 C241 0.931 . S
H269 C243 0.929 . S
H270 C244 0.930 . S
H271 C245 0.931 . S
H272 C252 0.932 . S
H273 C253 0.930 . S
H274 C254 0.929 . S
H275 C256 0.930 . S
H276 C258 0.932 . S
H277 C259 0.929 . S
H278 C260 0.928 . S
H279 C262 0.932 . S
C280 C281 1.264 . S
C280 C285 1.479 . S
C280 C290 1.465 . S
C281 C280 1.264 . S
C281 C283 1.339 . S
C281 H308 0.931 . S
C282 C283 1.395 . S
C282 C284 1.320 . S
C283 C281 1.339 . S
C283 C282 1.395 . S
C283 H309 0.929 . S
C284 C282 1.320 . S
C284 C285 1.405 . S
C284 H310 0.930 . S
C285 C280 1.479 . S
C285 C284 1.405 . S
C285 H311 0.931 . S
U286 O287 2.454 . S
U286 O288 2.458 . S
U286 C289 2.984 . S
U286 C290 2.847 . S
U286 C303 2.882 . S
U286 O304 2.441 . S
U286 O305 2.420 . S
U286 O306 2.455 . S
U286 O307 2.449 . S
O287 U286 2.454 . S
O287 C289 1.353 . S
O288 U286 2.458 . S
O288 C289 1.286 . S
C289 U286 2.984 . S
C289 O287 1.353 . S
C289 O288 1.286 . S
C289 C291 1.363 . S
C290 C280 1.465 . S
C290 U286 2.847 . S
C290 O304 1.249 . S
C290 O305 1.202 . S
C291 C289 1.363 . S
C291 C293 1.408 . S
C291 C296 1.342 . S
C292 C293 1.310 . S
C292 C295 1.461 . S
C292 H312 0.932 . S
C293 C291 1.408 . S
C293 C292 1.310 . S
C293 H313 0.930 . S
C294 C295 1.474 . S
C294 C296 1.285 . S
C294 H314 0.929 . S
C295 C292 1.461 . S
C295 C294 1.474 . S
C296 C291 1.342 . S
C296 C294 1.285 . S
C296 H315 0.930 . S
C297 C300 1.424 . S
C297 C302 1.245 . S
C297 C303 1.428 . S
C298 C301 1.260 . S
C298 C302 1.477 . S
C298 H316 0.932 . S
C299 C300 1.384 . S
C299 C301 1.479 . S
C299 H317 0.929 . S
C300 C297 1.424 . S
C300 C299 1.384 . S
C300 H318 0.928 . S
C301 C298 1.260 . S
C301 C299 1.479 . S
C302 C297 1.245 . S
C302 C298 1.477 . S
C302 H319 0.932 . S
C303 U286 2.882 . S
C303 C297 1.428 . S
C303 O306 1.301 . S
C303 O307 1.282 . S
O304 U286 2.441 . S
O304 C290 1.249 . S
O305 U286 2.420 . S
O305 C290 1.202 . S
O306 U286 2.455 . S
O306 C303 1.301 . S
O307 U286 2.449 . S
O307 C303 1.282 . S
H308 C281 0.931 . S
H309 C283 0.929 . S
H310 C284 0.930 . S
H311 C285 0.931 . S
H312 C292 0.932 . S
H313 C293 0.930 . S
H314 C294 0.929 . S
H315 C296 0.930 . S
H316 C298 0.932 . S
H317 C299 0.929 . S
H318 C300 0.928 . S
H319 C302 0.932 . S
C320 C321 1.264 . S
C320 C325 1.479 . S
C320 C330 1.465 . S
C321 C320 1.264 . S
C321 C323 1.339 . S
C321 H348 0.931 . S
C322 C323 1.395 . S
C322 C324 1.320 . S
C323 C321 1.339 . S
C323 C322 1.395 . S
C323 H349 0.929 . S
C324 C322 1.320 . S
C324 C325 1.405 . S
C324 H350 0.930 . S
C325 C320 1.479 . S
C325 C324 1.405 . S
C325 H351 0.931 . S
U326 O327 2.454 . S
U326 O328 2.458 . S
U326 C329 2.984 . S
U326 C330 2.847 . S
U326 C343 2.882 . S
U326 O344 2.441 . S
U326 O345 2.420 . S
U326 O346 2.455 . S
U326 O347 2.449 . S
O327 U326 2.454 . S
O327 C329 1.353 . S
O328 U326 2.458 . S
O328 C329 1.286 . S
C329 U326 2.984 . S
C329 O327 1.353 . S
C329 O328 1.286 . S
C329 C331 1.363 . S
C330 C320 1.465 . S
C330 U326 2.847 . S
C330 O344 1.249 . S
C330 O345 1.202 . S
C331 C329 1.363 . S
C331 C333 1.408 . S
C331 C336 1.342 . S
C332 C333 1.310 . S
C332 C335 1.461 . S
C332 H352 0.932 . S
C333 C331 1.408 . S
C333 C332 1.310 . S
C333 H353 0.930 . S
C334 C335 1.474 . S
C334 C336 1.285 . S
C334 H354 0.929 . S
C335 C332 1.461 . S
C335 C334 1.474 . S
C336 C331 1.342 . S
C336 C334 1.285 . S
C336 H355 0.930 . S
C337 C340 1.424 . S
C337 C342 1.245 . S
C337 C343 1.428 . S
C338 C341 1.260 . S
C338 C342 1.477 . S
C338 H356 0.932 . S
C339 C340 1.384 . S
C339 C341 1.479 . S
C339 H357 0.929 . S
C340 C337 1.424 . S
C340 C339 1.384 . S
C340 H358 0.928 . S
C341 C338 1.260 . S
C341 C339 1.479 . S
C342 C337 1.245 . S
C342 C338 1.477 . S
C342 H359 0.932 . S
C343 U326 2.882 . S
C343 C337 1.428 . S
C343 O346 1.301 . S
C343 O347 1.282 . S
O344 U326 2.441 . S
O344 C330 1.249 . S
O345 U326 2.420 . S
O345 C330 1.202 . S
O346 U326 2.455 . S
O346 C343 1.301 . S
O347 U326 2.449 . S
O347 C343 1.282 . S
H348 C321 0.931 . S
H349 C323 0.929 . S
H350 C324 0.930 . S
H351 C325 0.931 . S
H352 C332 0.932 . S
H353 C333 0.930 . S
H354 C334 0.929 . S
H355 C336 0.930 . S
H356 C338 0.932 . S
H357 C339 0.929 . S
H358 C340 0.928 . S
H359 C342 0.932 . S
C360 C361 1.264 . S
C360 C365 1.479 . S
C360 C370 1.465 . S
C361 C360 1.264 . S
C361 C363 1.339 . S
C361 H388 0.931 . S
C362 C363 1.395 . S
C362 C364 1.320 . S
C363 C361 1.339 . S
C363 C362 1.395 . S
C363 H389 0.929 . S
C364 C362 1.320 . S
C364 C365 1.405 . S
C364 H390 0.930 . S
C365 C360 1.479 . S
C365 C364 1.405 . S
C365 H391 0.931 . S
U366 O367 2.454 . S
U366 O368 2.458 . S
U366 C369 2.984 . S
U366 C370 2.847 . S
U366 C383 2.882 . S
U366 O384 2.441 . S
U366 O385 2.420 . S
U366 O386 2.455 . S
U366 O387 2.449 . S
O367 U366 2.454 . S
O367 C369 1.353 . S
O368 U366 2.458 . S
O368 C369 1.286 . S
C369 U366 2.984 . S
C369 O367 1.353 . S
C369 O368 1.286 . S
C369 C371 1.363 . S
C370 C360 1.465 . S
C370 U366 2.847 . S
C370 O384 1.249 . S
C370 O385 1.202 . S
C371 C369 1.363 . S
C371 C373 1.408 . S
C371 C376 1.342 . S
C372 C373 1.310 . S
C372 C375 1.461 . S
C372 H392 0.932 . S
C373 C371 1.408 . S
C373 C372 1.310 . S
C373 H393 0.930 . S
C374 C375 1.474 . S
C374 C376 1.285 . S
C374 H394 0.929 . S
C375 C372 1.461 . S
C375 C374 1.474 . S
C376 C371 1.342 . S
C376 C374 1.285 . S
C376 H395 0.930 . S
C377 C380 1.424 . S
C377 C382 1.245 . S
C377 C383 1.428 . S
C378 C381 1.260 . S
C378 C382 1.477 . S
C378 H396 0.932 . S
C379 C380 1.384 . S
C379 C381 1.479 . S
C379 H397 0.929 . S
C380 C377 1.424 . S
C380 C379 1.384 . S
C380 H398 0.928 . S
C381 C378 1.260 . S
C381 C379 1.479 . S
C382 C377 1.245 . S
C382 C378 1.477 . S
C382 H399 0.932 . S
C383 U366 2.882 . S
C383 C377 1.428 . S
C383 O386 1.301 . S
C383 O387 1.282 . S
O384 U366 2.441 . S
O384 C370 1.249 . S
O385 U366 2.420 . S
O385 C370 1.202 . S
O386 U366 2.455 . S
O386 C383 1.301 . S
O387 U366 2.449 . S
O387 C383 1.282 . S
H388 C361 0.931 . S
H389 C363 0.929 . S
H390 C364 0.930 . S
H391 C365 0.931 . S
H392 C372 0.932 . S
H393 C373 0.930 . S
H394 C374 0.929 . S
H395 C376 0.930 . S
H396 C378 0.932 . S
H397 C379 0.929 . S
H398 C380 0.928 . S
H399 C382 0.932 . S
C400 C401 1.264 . S
C400 C405 1.479 . S
C400 C410 1.465 . S
C401 C400 1.264 . S
C401 C403 1.339 . S
C401 H428 0.931 . S
C402 C403 1.395 . S
C402 C404 1.320 . S
C403 C401 1.339 . S
C403 C402 1.395 . S
C403 H429 0.929 . S
C404 C402 1.320 . S
C404 C405 1.405 . S
C404 H430 0.930 . S
C405 C400 1.479 . S
C405 C404 1.405 . S
C405 H431 0.931 . S
U406 O407 2.454 . S
U406 O408 2.458 . S
U406 C409 2.984 . S
U406 C410 2.847 . S
U406 C423 2.882 . S
U406 O424 2.441 . S
U406 O425 2.420 . S
U406 O426 2.455 . S
U406 O427 2.449 . S
O407 U406 2.454 . S
O407 C409 1.353 . S
O408 U406 2.458 . S
O408 C409 1.286 . S
C409 U406 2.984 . S
C409 O407 1.353 . S
C409 O408 1.286 . S
C409 C411 1.363 . S
C410 C400 1.465 . S
C410 U406 2.847 . S
C410 O424 1.249 . S
C410 O425 1.202 . S
C411 C409 1.363 . S
C411 C413 1.408 . S
C411 C416 1.342 . S
C412 C413 1.310 . S
C412 C415 1.461 . S
C412 H432 0.932 . S
C413 C411 1.408 . S
C413 C412 1.310 . S
C413 H433 0.930 . S
C414 C415 1.474 . S
C414 C416 1.285 . S
C414 H434 0.929 . S
C415 C412 1.461 . S
C415 C414 1.474 . S
C416 C411 1.342 . S
C416 C414 1.285 . S
C416 H435 0.930 . S
C417 C420 1.424 . S
C417 C422 1.245 . S
C417 C423 1.428 . S
C418 C421 1.260 . S
C418 C422 1.477 . S
C418 H436 0.932 . S
C419 C420 1.384 . S
C419 C421 1.479 . S
C419 H437 0.929 . S
C420 C417 1.424 . S
C420 C419 1.384 . S
C420 H438 0.928 . S
C421 C418 1.260 . S
C421 C419 1.479 . S
C422 C417 1.245 . S
C422 C418 1.477 . S
C422 H439 0.932 . S
C423 U406 2.882 . S
C423 C417 1.428 . S
C423 O426 1.301 . S
C423 O427 1.282 . S
O424 U406 2.441 . S
O424 C410 1.249 . S
O425 U406 2.420 . S
O425 C410 1.202 . S
O426 U406 2.455 . S
O426 C423 1.301 . S
O427 U406 2.449 . S
O427 C423 1.282 . S
H428 C401 0.931 . S
H429 C403 0.929 . S
H430 C404 0.930 . S
H431 C405 0.931 . S
H432 C412 0.932 . S
H433 C413 0.930 . S
H434 C414 0.929 . S
H435 C416 0.930 . S
H436 C418 0.932 . S
H437 C419 0.929 . S
H438 C420 0.928 . S
H439 C422 0.932 . S
C440 C441 1.264 . S
C440 C445 1.479 . S
C440 C450 1.465 . S
C441 C440 1.264 . S
C441 C443 1.339 . S
C441 H468 0.931 . S
C442 C443 1.395 . S
C442 C444 1.320 . S
C443 C441 1.339 . S
C443 C442 1.395 . S
C443 H469 0.929 . S
C444 C442 1.320 . S
C444 C445 1.405 . S
C444 H470 0.930 . S
C445 C440 1.479 . S
C445 C444 1.405 . S
C445 H471 0.931 . S
U446 O447 2.454 . S
U446 O448 2.458 . S
U446 C449 2.984 . S
U446 C450 2.847 . S
U446 C463 2.882 . S
U446 O464 2.441 . S
U446 O465 2.420 . S
U446 O466 2.455 . S
U446 O467 2.449 . S
O447 U446 2.454 . S
O447 C449 1.353 . S
O448 U446 2.458 . S
O448 C449 1.286 . S
C449 U446 2.984 . S
C449 O447 1.353 . S
C449 O448 1.286 . S
C449 C451 1.363 . S
C450 C440 1.465 . S
C450 U446 2.847 . S
C450 O464 1.249 . S
C450 O465 1.202 . S
C451 C449 1.363 . S
C451 C453 1.408 . S
C451 C456 1.342 . S
C452 C453 1.310 . S
C452 C455 1.461 . S
C452 H472 0.932 . S
C453 C451 1.408 . S
C453 C452 1.310 . S
C453 H473 0.930 . S
C454 C455 1.474 . S
C454 C456 1.285 . S
C454 H474 0.929 . S
C455 C452 1.461 . S
C455 C454 1.474 . S
C456 C451 1.342 . S
C456 C454 1.285 . S
C456 H475 0.930 . S
C457 C460 1.424 . S
C457 C462 1.245 . S
C457 C463 1.428 . S
C458 C461 1.260 . S
C458 C462 1.477 . S
C458 H476 0.932 . S
C459 C460 1.384 . S
C459 C461 1.479 . S
C459 H477 0.929 . S
C460 C457 1.424 . S
C460 C459 1.384 . S
C460 H478 0.928 . S
C461 C458 1.260 . S
C461 C459 1.479 . S
C462 C457 1.245 . S
C462 C458 1.477 . S
C462 H479 0.932 . S
C463 U446 2.882 . S
C463 C457 1.428 . S
C463 O466 1.301 . S
C463 O467 1.282 . S
O464 U446 2.441 . S
O464 C450 1.249 . S
O465 U446 2.420 . S
O465 C450 1.202 . S
O466 U446 2.455 . S
O466 C463 1.301 . S
O467 U446 2.449 . S
O467 C463 1.282 . S
H468 C441 0.931 . S
H469 C443 0.929 . S
H470 C444 0.930 . S
H471 C445 0.931 . S
H472 C452 0.932 . S
H473 C453 0.930 . S
H474 C454 0.929 . S
H475 C456 0.930 . S
H476 C458 0.932 . S
H477 C459 0.929 . S
H478 C460 0.928 . S
H479 C462 0.932 . S
C480 C481 1.264 . S
C480 C485 1.479 . S
C480 C490 1.465 . S
C481 C480 1.264 . S
C481 C483 1.339 . S
C481 H508 0.931 . S
C482 C483 1.395 . S
C482 C484 1.320 . S
C483 C481 1.339 . S
C483 C482 1.395 . S
C483 H509 0.929 . S
C484 C482 1.320 . S
C484 C485 1.405 . S
C484 H510 0.930 . S
C485 C480 1.479 . S
C485 C484 1.405 . S
C485 H511 0.931 . S
U486 O487 2.454 . S
U486 O488 2.458 . S
U486 C489 2.984 . S
U486 C490 2.847 . S
U486 C503 2.882 . S
U486 O504 2.441 . S
U486 O505 2.420 . S
U486 O506 2.455 . S
U486 O507 2.449 . S
O487 U486 2.454 . S
O487 C489 1.353 . S
O488 U486 2.458 . S
O488 C489 1.286 . S
C489 U486 2.984 . S
C489 O487 1.353 . S
C489 O488 1.286 . S
C489 C491 1.363 . S
C490 C480 1.465 . S
C490 U486 2.847 . S
C490 O504 1.249 . S
C490 O505 1.202 . S
C491 C489 1.363 . S
C491 C493 1.408 . S
C491 C496 1.342 . S
C492 C493 1.310 . S
C492 C495 1.461 . S
C492 H512 0.932 . S
C493 C491 1.408 . S
C493 C492 1.310 . S
C493 H513 0.930 . S
C494 C495 1.474 . S
C494 C496 1.285 . S
C494 H514 0.929 . S
C495 C492 1.461 . S
C495 C494 1.474 . S
C496 C491 1.342 . S
C496 C494 1.285 . S
C496 H515 0.930 . S
C497 C500 1.424 . S
C497 C502 1.245 . S
C497 C503 1.428 . S
C498 C501 1.260 . S
C498 C502 1.477 . S
C498 H516 0.932 . S
C499 C500 1.384 . S
C499 C501 1.479 . S
C499 H517 0.929 . S
C500 C497 1.424 . S
C500 C499 1.384 . S
C500 H518 0.928 . S
C501 C498 1.260 . S
C501 C499 1.479 . S
C502 C497 1.245 . S
C502 C498 1.477 . S
C502 H519 0.932 . S
C503 U486 2.882 . S
C503 C497 1.428 . S
C503 O506 1.301 . S
C503 O507 1.282 . S
O504 U486 2.441 . S
O504 C490 1.249 . S
O505 U486 2.420 . S
O505 C490 1.202 . S
O506 U486 2.455 . S
O506 C503 1.301 . S
O507 U486 2.449 . S
O507 C503 1.282 . S
H508 C481 0.931 . S
H509 C483 0.929 . S
H510 C484 0.930 . S
H511 C485 0.931 . S
H512 C492 0.932 . S
H513 C493 0.930 . S
H514 C494 0.929 . S
H515 C496 0.930 . S
H516 C498 0.932 . S
H517 C499 0.929 . S
H518 C500 0.928 . S
H519 C502 0.932 . S
C520 C521 1.264 . S
C520 C525 1.479 . S
C520 C530 1.465 . S
C521 C520 1.264 . S
C521 C523 1.339 . S
C521 H548 0.931 . S
C522 C523 1.395 . S
C522 C524 1.320 . S
C523 C521 1.339 . S
C523 C522 1.395 . S
C523 H549 0.929 . S
C524 C522 1.320 . S
C524 C525 1.405 . S
C524 H550 0.930 . S
C525 C520 1.479 . S
C525 C524 1.405 . S
C525 H551 0.931 . S
U526 O527 2.454 . S
U526 O528 2.458 . S
U526 C529 2.984 . S
U526 C530 2.847 . S
U526 C543 2.882 . S
U526 O544 2.441 . S
U526 O545 2.420 . S
U526 O546 2.455 . S
U526 O547 2.449 . S
O527 U526 2.454 . S
O527 C529 1.353 . S
O528 U526 2.458 . S
O528 C529 1.286 . S
C529 U526 2.984 . S
C529 O527 1.353 . S
C529 O528 1.286 . S
C529 C531 1.363 . S
C530 C520 1.465 . S
C530 U526 2.847 . S
C530 O544 1.249 . S
C530 O545 1.202 . S
C531 C529 1.363 . S
C531 C533 1.408 . S
C531 C536 1.342 . S
C532 C533 1.310 . S
C532 C535 1.461 . S
C532 H552 0.932 . S
C533 C531 1.408 . S
C533 C532 1.310 . S
C533 H553 0.930 . S
C534 C535 1.474 . S
C534 C536 1.285 . S
C534 H554 0.929 . S
C535 C532 1.461 . S
C535 C534 1.474 . S
C536 C531 1.342 . S
C536 C534 1.285 . S
C536 H555 0.930 . S
C537 C540 1.424 . S
C537 C542 1.245 . S
C537 C543 1.428 . S
C538 C541 1.260 . S
C538 C542 1.477 . S
C538 H556 0.932 . S
C539 C540 1.384 . S
C539 C541 1.479 . S
C539 H557 0.929 . S
C540 C537 1.424 . S
C540 C539 1.384 . S
C540 H558 0.928 . S
C541 C538 1.260 . S
C541 C539 1.479 . S
C542 C537 1.245 . S
C542 C538 1.477 . S
C542 H559 0.932 . S
C543 U526 2.882 . S
C543 C537 1.428 . S
C543 O546 1.301 . S
C543 O547 1.282 . S
O544 U526 2.441 . S
O544 C530 1.249 . S
O545 U526 2.420 . S
O545 C530 1.202 . S
O546 U526 2.455 . S
O546 C543 1.301 . S
O547 U526 2.449 . S
O547 C543 1.282 . S
H548 C521 0.931 . S
H549 C523 0.929 . S
H550 C524 0.930 . S
H551 C525 0.931 . S
H552 C532 0.932 . S
H553 C533 0.930 . S
H554 C534 0.929 . S
H555 C536 0.930 . S
H556 C538 0.932 . S
H557 C539 0.929 . S
H558 C540 0.928 . S
H559 C542 0.932 . S
C560 C561 1.264 . S
C560 C565 1.479 . S
C560 C570 1.465 . S
C561 C560 1.264 . S
C561 C563 1.339 . S
C561 H588 0.931 . S
C562 C563 1.395 . S
C562 C564 1.320 . S
C563 C561 1.339 . S
C563 C562 1.395 . S
C563 H589 0.929 . S
C564 C562 1.320 . S
C564 C565 1.405 . S
C564 H590 0.930 . S
C565 C560 1.479 . S
C565 C564 1.405 . S
C565 H591 0.931 . S
U566 O567 2.454 . S
U566 O568 2.458 . S
U566 C569 2.984 . S
U566 C570 2.847 . S
U566 C583 2.882 . S
U566 O584 2.441 . S
U566 O585 2.420 . S
U566 O586 2.455 . S
U566 O587 2.449 . S
O567 U566 2.454 . S
O567 C569 1.353 . S
O568 U566 2.458 . S
O568 C569 1.286 . S
C569 U566 2.984 . S
C569 O567 1.353 . S
C569 O568 1.286 . S
C569 C571 1.363 . S
C570 C560 1.465 . S
C570 U566 2.847 . S
C570 O584 1.249 . S
C570 O585 1.202 . S
C571 C569 1.363 . S
C571 C573 1.408 . S
C571 C576 1.342 . S
C572 C573 1.310 . S
C572 C575 1.461 . S
C572 H592 0.932 . S
C573 C571 1.408 . S
C573 C572 1.310 . S
C573 H593 0.930 . S
C574 C575 1.474 . S
C574 C576 1.285 . S
C574 H594 0.929 . S
C575 C572 1.461 . S
C575 C574 1.474 . S
C576 C571 1.342 . S
C576 C574 1.285 . S
C576 H595 0.930 . S
C577 C580 1.424 . S
C577 C582 1.245 . S
C577 C583 1.428 . S
C578 C581 1.260 . S
C578 C582 1.477 . S
C578 H596 0.932 . S
C579 C580 1.384 . S
C579 C581 1.479 . S
C579 H597 0.929 . S
C580 C577 1.424 . S
C580 C579 1.384 . S
C580 H598 0.928 . S
C581 C578 1.260 . S
C581 C579 1.479 . S
C582 C577 1.245 . S
C582 C578 1.477 . S
C582 H599 0.932 . S
C583 U566 2.882 . S
C583 C577 1.428 . S
C583 O586 1.301 . S
C583 O587 1.282 . S
O584 U566 2.441 . S
O584 C570 1.249 . S
O585 U566 2.420 . S
O585 C570 1.202 . S
O586 U566 2.455 . S
O586 C583 1.301 . S
O587 U566 2.449 . S
O587 C583 1.282 . S
H588 C561 0.931 . S
H589 C563 0.929 . S
H590 C564 0.930 . S
H591 C565 0.931 . S
H592 C572 0.932 . S
H593 C573 0.930 . S
H594 C574 0.929 . S
H595 C576 0.930 . S
H596 C578 0.932 . S
H597 C579 0.929 . S
H598 C580 0.928 . S
H599 C582 0.932 . S
C600 C601 1.264 . S
C600 C605 1.479 . S
C600 C610 1.465 . S
C601 C600 1.264 . S
C601 C603 1.339 . S
C601 H628 0.931 . S
C602 C603 1.395 . S
C602 C604 1.320 . S
C603 C601 1.339 . S
C603 C602 1.395 . S
C603 H629 0.929 . S
C604 C602 1.320 . S
C604 C605 1.405 . S
C604 H630 0.930 . S
C605 C600 1.479 . S
C605 C604 1.405 . S
C605 H631 0.931 . S
U606 O607 2.454 . S
U606 O608 2.458 . S
U606 C609 2.984 . S
U606 C610 2.847 . S
U606 C623 2.882 . S
U606 O624 2.441 . S
U606 O625 2.420 . S
U606 O626 2.455 . S
U606 O627 2.449 . S
O607 U606 2.454 . S
O607 C609 1.353 . S
O608 U606 2.458 . S
O608 C609 1.286 . S
C609 U606 2.984 . S
C609 O607 1.353 . S
C609 O608 1.286 . S
C609 C611 1.363 . S
C610 C600 1.465 . S
C610 U606 2.847 . S
C610 O624 1.249 . S
C610 O625 1.202 . S
C611 C609 1.363 . S
C611 C613 1.408 . S
C611 C616 1.342 . S
C612 C613 1.310 . S
C612 C615 1.461 . S
C612 H632 0.932 . S
C613 C611 1.408 . S
C613 C612 1.310 . S
C613 H633 0.930 . S
C614 C615 1.474 . S
C614 C616 1.285 . S
C614 H634 0.929 . S
C615 C612 1.461 . S
C615 C614 1.474 . S
C616 C611 1.342 . S
C616 C614 1.285 . S
C616 H635 0.930 . S
C617 C620 1.424 . S
C617 C622 1.245 . S
C617 C623 1.428 . S
C618 C621 1.260 . S
C618 C622 1.477 . S
C618 H636 0.932 . S
C619 C620 1.384 . S
C619 C621 1.479 . S
C619 H637 0.929 . S
C620 C617 1.424 . S
C620 C619 1.384 . S
C620 H638 0.928 . S
C621 C618 1.260 . S
C621 C619 1.479 . S
C622 C617 1.245 . S
C622 C618 1.477 . S
C622 H639 0.932 . S
C623 U606 2.882 . S
C623 C617 1.428 . S
C623 O626 1.301 . S
C623 O627 1.282 . S
O624 U606 2.441 . S
O624 C610 1.249 . S
O625 U606 2.420 . S
O625 C610 1.202 . S
O626 U606 2.455 . S
O626 C623 1.301 . S
O627 U606 2.449 . S
O627 C623 1.282 . S
H628 C601 0.931 . S
H629 C603 0.929 . S
H630 C604 0.930 . S
H631 C605 0.931 . S
H632 C612 0.932 . S
H633 C613 0.930 . S
H634 C614 0.929 . S
H635 C616 0.930 . S
H636 C618 0.932 . S
H637 C619 0.929 . S
H638 C620 0.928 . S
H639 C622 0.932 . S
C640 C641 1.264 . S
C640 C645 1.479 . S
C640 C650 1.465 . S
C641 C640 1.264 . S
C641 C643 1.339 . S
C641 H668 0.931 . S
C642 C643 1.395 . S
C642 C644 1.320 . S
C643 C641 1.339 . S
C643 C642 1.395 . S
C643 H669 0.929 . S
C644 C642 1.320 . S
C644 C645 1.405 . S
C644 H670 0.930 . S
C645 C640 1.479 . S
C645 C644 1.405 . S
C645 H671 0.931 . S
U646 O647 2.454 . S
U646 O648 2.458 . S
U646 C649 2.984 . S
U646 C650 2.847 . S
U646 C663 2.882 . S
U646 O664 2.441 . S
U646 O665 2.420 . S
U646 O666 2.455 . S
U646 O667 2.449 . S
O647 U646 2.454 . S
O647 C649 1.353 . S
O648 U646 2.458 . S
O648 C649 1.286 . S
C649 U646 2.984 . S
C649 O647 1.353 . S
C649 O648 1.286 . S
C649 C651 1.363 . S
C650 C640 1.465 . S
C650 U646 2.847 . S
C650 O664 1.249 . S
C650 O665 1.202 . S
C651 C649 1.363 . S
C651 C653 1.408 . S
C651 C656 1.342 . S
C652 C653 1.310 . S
C652 C655 1.461 . S
C652 H672 0.932 . S
C653 C651 1.408 . S
C653 C652 1.310 . S
C653 H673 0.930 . S
C654 C655 1.474 . S
C654 C656 1.285 . S
C654 H674 0.929 . S
C655 C652 1.461 . S
C655 C654 1.474 . S
C656 C651 1.342 . S
C656 C654 1.285 . S
C656 H675 0.930 . S
C657 C660 1.424 . S
C657 C662 1.245 . S
C657 C663 1.428 . S
C658 C661 1.260 . S
C658 C662 1.477 . S
C658 H676 0.944 . S
C659 C660 1.384 . S
C659 C661 1.479 . S
C659 H677 0.929 . S
C660 C657 1.424 . S
C660 C659 1.384 . S
C660 H678 0.928 . S
C661 C658 1.260 . S
C661 C659 1.479 . S
C662 C657 1.245 . S
C662 C658 1.477 . S
C662 H679 0.932 . S
C663 U646 2.882 . S
C663 C657 1.428 . S
C663 O666 1.301 . S
C663 O667 1.282 . S
O664 U646 2.441 . S
O664 C650 1.249 . S
O665 U646 2.420 . S
O665 C650 1.202 . S
O666 U646 2.455 . S
O666 C663 1.301 . S
O667 U646 2.449 . S
O667 C663 1.282 . S
H668 C641 0.931 . S
H669 C643 0.929 . S
H670 C644 0.930 . S
H671 C645 0.931 . S
H672 C652 0.932 . S
H673 C653 0.930 . S
H674 C654 0.929 . S
H675 C656 0.930 . S
H676 C658 0.944 . S
H677 C659 0.929 . S
H678 C660 0.928 . S
H679 C662 0.932 . S
C680 C681 1.264 . S
C680 C685 1.479 . S
C680 C690 1.465 . S
C681 C680 1.264 . S
C681 C683 1.339 . S
C681 H708 0.931 . S
C682 C683 1.395 . S
C682 C684 1.320 . S
C683 C681 1.339 . S
C683 C682 1.395 . S
C683 H709 0.929 . S
C684 C682 1.320 . S
C684 C685 1.405 . S
C684 H710 0.930 . S
C685 C680 1.479 . S
C685 C684 1.405 . S
C685 H711 0.931 . S
U686 O687 2.454 . S
U686 O688 2.458 . S
U686 C689 2.984 . S
U686 C690 2.847 . S
U686 C703 2.882 . S
U686 O704 2.441 . S
U686 O705 2.420 . S
U686 O706 2.455 . S
U686 O707 2.449 . S
O687 U686 2.454 . S
O687 C689 1.353 . S
O688 U686 2.458 . S
O688 C689 1.286 . S
C689 U686 2.984 . S
C689 O687 1.353 . S
C689 O688 1.286 . S
C689 C691 1.363 . S
C690 C680 1.465 . S
C690 U686 2.847 . S
C690 O704 1.249 . S
C690 O705 1.202 . S
C691 C689 1.363 . S
C691 C693 1.408 . S
C691 C696 1.342 . S
C692 C693 1.310 . S
C692 C695 1.461 . S
C692 H712 0.932 . S
C693 C691 1.408 . S
C693 C692 1.310 . S
C693 H713 0.930 . S
C694 C695 1.474 . S
C694 C696 1.285 . S
C694 H714 0.929 . S
C695 C692 1.461 . S
C695 C694 1.474 . S
C696 C691 1.342 . S
C696 C694 1.285 . S
C696 H715 0.930 . S
C697 C700 1.424 . S
C697 C702 1.245 . S
C697 C703 1.428 . S
C698 C701 1.260 . S
C698 C702 1.477 . S
C698 H716 0.932 . S
C699 C700 1.384 . S
C699 C701 1.479 . S
C699 H717 0.929 . S
C700 C697 1.424 . S
C700 C699 1.384 . S
C700 H718 0.928 . S
C701 C698 1.260 . S
C701 C699 1.479 . S
C702 C697 1.245 . S
C702 C698 1.477 . S
C702 H719 0.932 . S
C703 U686 2.882 . S
C703 C697 1.428 . S
C703 O706 1.301 . S
C703 O707 1.282 . S
O704 U686 2.441 . S
O704 C690 1.249 . S
O705 U686 2.420 . S
O705 C690 1.202 . S
O706 U686 2.455 . S
O706 C703 1.301 . S
O707 U686 2.449 . S
O707 C703 1.282 . S
H708 C681 0.931 . S
H709 C683 0.929 . S
H710 C684 0.930 . S
H711 C685 0.931 . S
H712 C692 0.932 . S
H713 C693 0.930 . S
H714 C694 0.929 . S
H715 C696 0.930 . S
H716 C698 0.932 . S
H717 C699 0.929 . S
H718 C700 0.928 . S
H719 C702 0.932 . S
C720 Eu721 2.835 . S
C720 C722 1.505 . S
C720 O740 1.257 1_545 S
C720 O741 1.260 . S
Eu721 C720 2.835 . S
Eu721 O740 2.473 1_545 S
Eu721 O741 2.480 . S
Eu721 O742 2.430 . S
Eu721 O743 2.670 1_554 S
Eu721 O744 2.394 1_545 S
Eu721 O749 2.355 1_545 S
Eu721 O751 2.374 . S
C722 C720 1.505 . S
C722 C723 1.403 . S
C722 C727 1.347 1_545 S
C723 C722 1.403 . S
C723 C724 1.395 . S
C723 H752 0.931 . S
C724 C723 1.395 . S
C724 C725 1.383 1_545 S
C724 H753 0.931 . S
C725 C724 1.383 1_565 S
C725 C726 1.394 . S
C726 C725 1.394 . S
C726 C727 1.378 . S
C726 H754 0.931 . S
C727 C722 1.347 1_565 S
C727 C726 1.378 . S
C727 H755 0.931 . S
C728 O742 1.259 . S
C728 O743 1.270 1_554 S
C729 O744 1.251 . S
C729 O745 1.251 . S
C730 Eu731 2.835 . S
C730 C732 1.501 . S
C730 O746 1.257 1_565 S
C730 O747 1.260 . S
Eu731 C730 2.835 . S
Eu731 O743 2.355 1_565 S
Eu731 O745 2.374 1_556 S
Eu731 O746 2.473 1_565 S
Eu731 O747 2.480 . S
Eu731 O748 2.430 . S
Eu731 O749 2.670 1_556 S
Eu731 O750 2.394 1_565 S
C732 C730 1.501 . S
C732 C733 1.380 . S
C732 C737 1.373 1_565 S
C733 C732 1.380 . S
C733 C734 1.395 . S
C733 H756 0.931 . S
C734 C733 1.395 . S
C734 C735 1.383 1_565 S
C734 H757 0.931 . S
C735 C734 1.383 1_545 S
C735 C736 1.394 . S
C736 C735 1.394 . S
C736 C737 1.378 . S
C736 H758 0.931 . S
C737 C732 1.373 1_545 S
C737 C736 1.378 . S
C737 H759 0.931 . S
C738 O748 1.259 1_554 S
C738 O749 1.270 . S
C739 O750 1.251 . S
C739 O751 1.251 1_556 S
O740 C720 1.257 1_565 S
O740 Eu721 2.473 1_565 S
O741 C720 1.260 . S
O741 Eu721 2.480 . S
O742 Eu721 2.430 . S
O742 C728 1.259 . S
O743 Eu721 2.670 1_556 S
O743 C728 1.270 1_556 S
O743 Eu731 2.355 1_545 S
O744 Eu721 2.394 1_565 S
O744 C729 1.251 . S
O745 C729 1.251 . S
O745 Eu731 2.374 1_554 S
O746 C730 1.257 1_545 S
O746 Eu731 2.473 1_545 S
O747 C730 1.260 . S
O747 Eu731 2.480 . S
O748 Eu731 2.430 . S
O748 C738 1.259 1_556 S
O749 Eu721 2.355 1_565 S
O749 Eu731 2.670 1_554 S
O749 C738 1.270 . S
O750 Eu731 2.394 1_545 S
O750 C739 1.251 . S
O751 Eu721 2.374 . S
O751 C739 1.251 1_554 S
H752 C723 0.931 . S
H753 C724 0.931 . S
H754 C726 0.931 . S
H755 C727 0.931 . S
H756 C733 0.931 . S
H757 C734 0.931 . S
H758 C736 0.931 . S
H759 C737 0.931 . S
C760 Eu761 2.835 . S
C760 C762 1.500 1_655 S
C760 O780 1.257 1_655 S
C760 O781 1.260 . S
Eu761 C760 2.835 . S
Eu761 O780 2.473 1_655 S
Eu761 O781 2.480 . S
Eu761 O782 2.430 . S
Eu761 O783 2.670 1_554 S
Eu761 O784 2.394 1_655 S
Eu761 O789 2.355 1_655 S
Eu761 O791 2.374 . S
C762 C760 1.500 1_455 S
C762 C763 1.377 1_455 S
C762 C767 1.377 . S
C763 C762 1.377 1_655 S
C763 C764 1.395 . S
C763 H792 0.931 . S
C764 C763 1.395 . S
C764 C765 1.383 1_655 S
C764 H793 0.931 . S
C765 C764 1.383 1_455 S
C765 C766 1.394 . S
C766 C765 1.394 . S
C766 C767 1.378 . S
C766 H794 0.931 . S
C767 C762 1.377 . S
C767 C766 1.378 . S
C767 H795 0.931 . S
C768 O782 1.298 . S
C768 O783 1.255 1_554 S
C769 O784 1.251 . S
C769 O785 1.251 . S
C770 Eu771 2.835 . S
C770 C772 1.500 1_455 S
C770 O786 1.257 1_455 S
C770 O787 1.260 . S
Eu771 C770 2.835 . S
Eu771 O783 2.355 1_455 S
Eu771 O785 2.374 1_556 S
Eu771 O786 2.473 1_455 S
Eu771 O787 2.480 . S
Eu771 O788 2.430 . S
Eu771 O789 2.670 1_556 S
Eu771 O790 2.394 1_455 S
C772 C770 1.500 1_655 S
C772 C773 1.377 1_655 S
C772 C777 1.377 . S
C773 C772 1.377 1_455 S
C773 C774 1.395 . S
C773 H796 0.931 . S
C774 C773 1.395 . S
C774 C775 1.383 1_455 S
C774 H797 0.931 . S
C775 C774 1.383 1_655 S
C775 C776 1.394 . S
C776 C775 1.394 . S
C776 C777 1.378 . S
C776 H798 0.931 . S
C777 C772 1.377 . S
C777 C776 1.378 . S
C777 H799 0.931 . S
C778 O788 1.259 1_554 S
C778 O789 1.270 . S
C779 O790 1.251 . S
C779 O791 1.251 1_556 S
O780 C760 1.257 1_455 S
O780 Eu761 2.473 1_455 S
O781 C760 1.260 . S
O781 Eu761 2.480 . S
O782 Eu761 2.430 . S
O782 C768 1.298 . S
O783 Eu761 2.670 1_556 S
O783 C768 1.255 1_556 S
O783 Eu771 2.355 1_655 S
O784 Eu761 2.394 1_455 S
O784 C769 1.251 . S
O785 C769 1.251 . S
O785 Eu771 2.374 1_554 S
O786 C770 1.257 1_655 S
O786 Eu771 2.473 1_655 S
O787 C770 1.260 . S
O787 Eu771 2.480 . S
O788 Eu771 2.430 . S
O788 C778 1.259 1_556 S
O789 Eu761 2.355 1_455 S
O789 Eu771 2.670 1_554 S
O789 C778 1.270 . S
O790 Eu771 2.394 1_655 S
O790 C779 1.251 . S
O791 Eu761 2.374 . S
O791 C779 1.251 1_554 S
H792 C763 0.931 . S
H793 C764 0.931 . S
H794 C766 0.931 . S
H795 C767 0.931 . S
H796 C773 0.931 . S
H797 C774 0.931 . S
H798 C776 0.931 . S
H799 C777 0.931 . S
C800 Eu801 2.835 . S
C800 C802 1.500 . S
C800 O820 1.257 . S
C800 O821 1.260 . S
Eu801 C800 2.835 . S
Eu801 O820 2.473 . S
Eu801 O821 2.480 . S
Eu801 O822 2.430 . S
Eu801 O823 2.670 1_556 S
Eu801 O824 2.394 . S
Eu801 O829 2.355 . S
Eu801 O831 2.374 1_556 S
C802 C800 1.500 . S
C802 C803 1.377 . S
C802 C807 1.377 . S
C803 C802 1.377 . S
C803 C804 1.395 . S
C803 H832 0.931 . S
C804 C803 1.395 . S
C804 C805 1.383 . S
C804 H833 0.931 . S
C805 C804 1.383 . S
C805 C806 1.394 . S
C806 C805 1.394 . S
C806 C807 1.378 . S
C806 H834 0.931 . S
C807 C802 1.377 . S
C807 C806 1.378 . S
C807 H835 0.931 . S
C808 O822 1.259 1_554 S
C808 O823 1.270 . S
C809 O824 1.251 . S
C809 O825 1.251 1_556 S
C810 Eu811 2.835 . S
C810 C812 1.500 . S
C810 O826 1.257 . S
C810 O827 1.260 . S
Eu811 C810 2.835 . S
Eu811 O823 2.355 . S
Eu811 O825 2.374 . S
Eu811 O826 2.473 . S
Eu811 O827 2.480 . S
Eu811 O828 2.430 . S
Eu811 O829 2.670 1_554 S
Eu811 O830 2.394 . S
C812 C810 1.500 . S
C812 C813 1.377 . S
C812 C817 1.377 . S
C813 C812 1.377 . S
C813 C814 1.395 . S
C813 H836 0.931 . S
C814 C813 1.395 . S
C814 C815 1.383 . S
C814 H837 0.931 . S
C815 C814 1.383 . S
C815 C816 1.394 . S
C816 C815 1.394 . S
C816 C817 1.378 . S
C816 H838 0.931 . S
C817 C812 1.377 . S
C817 C816 1.378 . S
C817 H839 0.931 . S
C818 O828 1.259 . S
C818 O829 1.270 1_554 S
C819 O830 1.251 . S
C819 O831 1.251 . S
O820 C800 1.257 . S
O820 Eu801 2.473 . S
O821 C800 1.260 . S
O821 Eu801 2.480 . S
O822 Eu801 2.430 . S
O822 C808 1.259 1_556 S
O823 Eu801 2.670 1_554 S
O823 C808 1.270 . S
O823 Eu811 2.355 . S
O824 Eu801 2.394 . S
O824 C809 1.251 . S
O825 C809 1.251 1_554 S
O825 Eu811 2.374 . S
O826 C810 1.257 . S
O826 Eu811 2.473 . S
O827 C810 1.260 . S
O827 Eu811 2.480 . S
O828 Eu811 2.430 . S
O828 C818 1.259 . S
O829 Eu801 2.355 . S
O829 Eu811 2.670 1_556 S
O829 C818 1.270 1_556 S
O830 Eu811 2.394 . S
O830 C819 1.251 . S
O831 Eu801 2.374 1_554 S
O831 C819 1.251 . S
H832 C803 0.931 . S
H833 C804 0.931 . S
H834 C806 0.931 . S
H835 C807 0.931 . S
H836 C813 0.931 . S
H837 C814 0.931 . S
H838 C816 0.931 . S
H839 C817 0.931 . S
C840 Eu841 2.835 . S
C840 C842 1.500 . S
C840 O860 1.257 . S
C840 O861 1.260 . S
Eu841 C840 2.835 . S
Eu841 O860 2.473 . S
Eu841 O861 2.480 . S
Eu841 O862 2.430 . S
Eu841 O863 2.670 . S
Eu841 O864 2.394 . S
Eu841 O869 2.355 . S
Eu841 O871 2.374 . S
C842 C840 1.500 . S
C842 C843 1.377 . S
C842 C847 1.377 . S
C843 C842 1.377 . S
C843 C844 1.395 . S
C843 H872 0.931 . S
C844 C843 1.395 . S
C844 C845 1.383 . S
C844 H873 0.931 . S
C845 C844 1.383 . S
C845 C846 1.394 . S
C846 C845 1.394 . S
C846 C847 1.378 . S
C846 H874 0.931 . S
C847 C842 1.377 . S
C847 C846 1.378 . S
C847 H875 0.931 . S
C848 O862 1.259 . S
C848 O863 1.270 . S
C849 O864 1.251 . S
C849 O865 1.251 . S
C850 Eu851 2.835 . S
C850 C852 1.500 . S
C850 O866 1.257 . S
C850 O867 1.260 . S
Eu851 C850 2.835 . S
Eu851 O863 2.355 . S
Eu851 O865 2.374 . S
Eu851 O866 2.473 . S
Eu851 O867 2.480 . S
Eu851 O868 2.430 . S
Eu851 O869 2.670 . S
Eu851 O870 2.394 . S
C852 C850 1.500 . S
C852 C853 1.377 . S
C852 C857 1.377 . S
C853 C852 1.377 . S
C853 C854 1.395 . S
C853 H876 0.931 . S
C854 C853 1.395 . S
C854 C855 1.383 . S
C854 H877 0.931 . S
C855 C854 1.383 . S
C855 C856 1.394 . S
C856 C855 1.394 . S
C856 C857 1.378 . S
C856 H878 0.931 . S
C857 C852 1.377 . S
C857 C856 1.378 . S
C857 H879 0.931 . S
C858 O868 1.259 . S
C858 O869 1.270 . S
C859 O870 1.251 . S
C859 O871 1.251 . S
O860 C840 1.257 . S
O860 Eu841 2.473 . S
O861 C840 1.260 . S
O861 Eu841 2.480 . S
O862 Eu841 2.430 . S
O862 C848 1.259 . S
O863 Eu841 2.670 . S
O863 C848 1.270 . S
O863 Eu851 2.355 . S
O864 Eu841 2.394 . S
O864 C849 1.251 . S
O865 C849 1.251 . S
O865 Eu851 2.374 . S
O866 C850 1.257 . S
O866 Eu851 2.473 . S
O867 C850 1.260 . S
O867 Eu851 2.480 . S
O868 Eu851 2.430 . S
O868 C858 1.259 . S
O869 Eu841 2.355 . S
O869 Eu851 2.670 . S
O869 C858 1.270 . S
O870 Eu851 2.394 . S
O870 C859 1.251 . S
O871 Eu841 2.374 . S
O871 C859 1.251 . S
H872 C843 0.931 . S
H873 C844 0.931 . S
H874 C846 0.931 . S
H875 C847 0.931 . S
H876 C853 0.931 . S
H877 C854 0.931 . S
H878 C856 0.931 . S
H879 C857 0.931 . S
C880 Eu881 2.835 . S
C880 C882 1.500 . S
C880 O900 1.257 . S
C880 O901 1.260 . S
Eu881 C880 2.835 . S
Eu881 O900 2.473 . S
Eu881 O901 2.480 . S
Eu881 O902 2.430 . S
Eu881 O903 2.670 . S
Eu881 O904 2.394 . S
Eu881 O909 2.355 . S
Eu881 O911 2.374 . S
C882 C880 1.500 . S
C882 C883 1.377 . S
C882 C887 1.377 . S
C883 C882 1.377 . S
C883 C884 1.395 . S
C883 H912 0.931 . S
C884 C883 1.395 . S
C884 C885 1.383 . S
C884 H913 0.931 . S
C885 C884 1.383 . S
C885 C886 1.394 . S
C886 C885 1.394 . S
C886 C887 1.378 . S
C886 H914 0.931 . S
C887 C882 1.377 . S
C887 C886 1.378 . S
C887 H915 0.931 . S
C888 O902 1.259 . S
C888 O903 1.270 . S
C889 O904 1.251 . S
C889 O905 1.251 . S
C890 Eu891 2.835 . S
C890 C892 1.500 . S
C890 O906 1.257 . S
C890 O907 1.260 . S
Eu891 C890 2.835 . S
Eu891 O903 2.355 . S
Eu891 O905 2.374 . S
Eu891 O906 2.473 . S
Eu891 O907 2.480 . S
Eu891 O908 2.430 . S
Eu891 O909 2.670 . S
Eu891 O910 2.394 . S
C892 C890 1.500 . S
C892 C893 1.377 . S
C892 C897 1.377 . S
C893 C892 1.377 . S
C893 C894 1.395 . S
C893 H916 0.931 . S
C894 C893 1.395 . S
C894 C895 1.383 . S
C894 H917 0.931 . S
C895 C894 1.383 . S
C895 C896 1.394 . S
C896 C895 1.394 . S
C896 C897 1.378 . S
C896 H918 0.931 . S
C897 C892 1.377 . S
C897 C896 1.378 . S
C897 H919 0.931 . S
C898 O908 1.259 . S
C898 O909 1.270 . S
C899 O910 1.251 . S
C899 O911 1.251 . S
O900 C880 1.257 . S
O900 Eu881 2.473 . S
O901 C880 1.260 . S
O901 Eu881 2.480 . S
O902 Eu881 2.430 . S
O902 C888 1.259 . S
O903 Eu881 2.670 . S
O903 C888 1.270 . S
O903 Eu891 2.355 . S
O904 Eu881 2.394 . S
O904 C889 1.251 . S
O905 C889 1.251 . S
O905 Eu891 2.374 . S
O906 C890 1.257 . S
O906 Eu891 2.473 . S
O907 C890 1.260 . S
O907 Eu891 2.480 . S
O908 Eu891 2.430 . S
O908 C898 1.259 . S
O909 Eu881 2.355 . S
O909 Eu891 2.670 . S
O909 C898 1.270 . S
O910 Eu891 2.394 . S
O910 C899 1.251 . S
O911 Eu881 2.374 . S
O911 C899 1.251 . S
H912 C883 0.931 . S
H913 C884 0.931 . S
H914 C886 0.931 . S
H915 C887 0.931 . S
H916 C893 0.931 . S
H917 C894 0.931 . S
H918 C896 0.931 . S
H919 C897 0.931 . S
C920 Eu921 2.835 . S
C920 C922 1.500 . S
C920 O940 1.257 . S
C920 O941 1.260 . S
Eu921 C920 2.835 . S
Eu921 O940 2.473 . S
Eu921 O941 2.480 . S
Eu921 O942 2.430 . S
Eu921 O943 2.670 . S
Eu921 O944 2.394 . S
Eu921 O949 2.355 . S
Eu921 O951 2.374 . S
C922 C920 1.500 . S
C922 C923 1.377 . S
C922 C927 1.377 . S
C923 C922 1.377 . S
C923 C924 1.395 . S
C923 H952 0.931 . S
C924 C923 1.395 . S
C924 C925 1.383 . S
C924 H953 0.931 . S
C925 C924 1.383 . S
C925 C926 1.394 . S
C926 C925 1.394 . S
C926 C927 1.378 . S
C926 H954 0.931 . S
C927 C922 1.377 . S
C927 C926 1.378 . S
C927 H955 0.931 . S
C928 O942 1.259 . S
C928 O943 1.270 . S
C929 O944 1.251 . S
C929 O945 1.251 . S
C930 Eu931 2.835 . S
C930 C932 1.500 . S
C930 O946 1.257 . S
C930 O947 1.260 . S
Eu931 C930 2.835 . S
Eu931 O943 2.355 . S
Eu931 O945 2.374 . S
Eu931 O946 2.473 . S
Eu931 O947 2.480 . S
Eu931 O948 2.430 . S
Eu931 O949 2.670 . S
Eu931 O950 2.394 . S
C932 C930 1.500 . S
C932 C933 1.377 . S
C932 C937 1.377 . S
C933 C932 1.377 . S
C933 C934 1.395 . S
C933 H956 0.931 . S
C934 C933 1.395 . S
C934 C935 1.383 . S
C934 H957 0.931 . S
C935 C934 1.383 . S
C935 C936 1.394 . S
C936 C935 1.394 . S
C936 C937 1.378 . S
C936 H958 0.931 . S
C937 C932 1.377 . S
C937 C936 1.378 . S
C937 H959 0.931 . S
C938 O948 1.259 . S
C938 O949 1.270 . S
C939 O950 1.251 . S
C939 O951 1.251 . S
O940 C920 1.257 . S
O940 Eu921 2.473 . S
O941 C920 1.260 . S
O941 Eu921 2.480 . S
O942 Eu921 2.430 . S
O942 C928 1.259 . S
O943 Eu921 2.670 . S
O943 C928 1.270 . S
O943 Eu931 2.355 . S
O944 Eu921 2.394 . S
O944 C929 1.251 . S
O945 C929 1.251 . S
O945 Eu931 2.374 . S
O946 C930 1.257 . S
O946 Eu931 2.473 . S
O947 C930 1.260 . S
O947 Eu931 2.480 . S
O948 Eu931 2.430 . S
O948 C938 1.259 . S
O949 Eu921 2.355 . S
O949 Eu931 2.670 . S
O949 C938 1.270 . S
O950 Eu931 2.394 . S
O950 C939 1.251 . S
O951 Eu921 2.374 . S
O951 C939 1.251 . S
H952 C923 0.931 . S
H953 C924 0.931 . S
H954 C926 0.931 . S
H955 C927 0.931 . S
H956 C933 0.931 . S
H957 C934 0.931 . S
H958 C936 0.931 . S
H959 C937 0.931 . S
C960 Eu961 2.835 . S
C960 C962 1.500 . S
C960 O980 1.257 . S
C960 O981 1.260 . S
Eu961 C960 2.835 . S
Eu961 O980 2.473 . S
Eu961 O981 2.480 . S
Eu961 O982 2.430 . S
Eu961 O983 2.670 . S
Eu961 O984 2.394 . S
Eu961 O989 2.355 . S
Eu961 O991 2.374 . S
C962 C960 1.500 . S
C962 C963 1.377 . S
C962 C967 1.377 . S
C963 C962 1.377 . S
C963 C964 1.395 . S
C963 H992 0.931 . S
C964 C963 1.395 . S
C964 C965 1.383 . S
C964 H993 0.931 . S
C965 C964 1.383 . S
C965 C966 1.394 . S
C966 C965 1.394 . S
C966 C967 1.378 . S
C966 H994 0.931 . S
C967 C962 1.377 . S
C967 C966 1.378 . S
C967 H995 0.931 . S
C968 O982 1.259 . S
C968 O983 1.270 . S
C969 O984 1.251 . S
C969 O985 1.251 . S
C970 Eu971 2.835 . S
C970 C972 1.500 . S
C970 O986 1.257 . S
C970 O987 1.260 . S
Eu971 C970 2.835 . S
Eu971 O983 2.355 . S
Eu971 O985 2.374 . S
Eu971 O986 2.473 . S
Eu971 O987 2.480 . S
Eu971 O988 2.430 . S
Eu971 O989 2.670 . S
Eu971 O990 2.394 . S
C972 C970 1.500 . S
C972 C973 1.377 . S
C972 C977 1.377 . S
C973 C972 1.377 . S
C973 C974 1.395 . S
C973 H996 0.931 . S
C974 C973 1.395 . S
C974 C975 1.383 . S
C974 H997 0.931 . S
C975 C974 1.383 . S
C975 C976 1.394 . S
C976 C975 1.394 . S
C976 C977 1.378 . S
C976 H998 0.931 . S
C977 C972 1.377 . S
C977 C976 1.378 . S
C977 H999 0.931 . S
C978 O988 1.259 . S
C978 O989 1.270 . S
C979 O990 1.251 . S
C979 O991 1.251 . S
O980 C960 1.257 . S
O980 Eu961 2.473 . S
O981 C960 1.260 . S
O981 Eu961 2.480 . S
O982 Eu961 2.430 . S
O982 C968 1.259 . S
O983 Eu961 2.670 . S
O983 C968 1.270 . S
O983 Eu971 2.355 . S
O984 Eu961 2.394 . S
O984 C969 1.251 . S
O985 C969 1.251 . S
O985 Eu971 2.374 . S
O986 C970 1.257 . S
O986 Eu971 2.473 . S
O987 C970 1.260 . S
O987 Eu971 2.480 . S
O988 Eu971 2.430 . S
O988 C978 1.259 . S
O989 Eu961 2.355 . S
O989 Eu971 2.670 . S
O989 C978 1.270 . S
O990 Eu971 2.394 . S
O990 C979 1.251 . S
O991 Eu961 2.374 . S
O991 C979 1.251 . S
H992 C963 0.931 . S
H993 C964 0.931 . S
H994 C966 0.931 . S
H995 C967 0.931 . S
H996 C973 0.931 . S
H997 C974 0.931 . S
H998 C976 0.931 . S
H999 C977 0.931 . S
C1000 Eu1001 2.835 . S
C1000 C1002 1.500 . S
C1000 O1020 1.257 . S
C1000 O1021 1.260 . S
Eu1001 C1000 2.835 . S
Eu1001 O1020 2.473 . S
Eu1001 O1021 2.480 . S
Eu1001 O1022 2.430 . S
Eu1001 O1023 2.670 . S
Eu1001 O1024 2.394 . S
Eu1001 O1029 2.355 . S
Eu1001 O1031 2.374 . S
C1002 C1000 1.500 . S
C1002 C1003 1.377 . S
C1002 C1007 1.377 . S
C1003 C1002 1.377 . S
C1003 C1004 1.395 . S
C1003 H1032 0.931 . S
C1004 C1003 1.395 . S
C1004 C1005 1.383 . S
C1004 H1033 0.931 . S
C1005 C1004 1.383 . S
C1005 C1006 1.394 . S
C1006 C1005 1.394 . S
C1006 C1007 1.378 . S
C1006 H1034 0.931 . S
C1007 C1002 1.377 . S
C1007 C1006 1.378 . S
C1007 H1035 0.931 . S
C1008 O1022 1.259 . S
C1008 O1023 1.270 . S
C1009 O1024 1.251 . S
C1009 O1025 1.251 . S
C1010 Eu1011 2.835 . S
C1010 C1012 1.500 . S
C1010 O1026 1.257 . S
C1010 O1027 1.260 . S
Eu1011 C1010 2.835 . S
Eu1011 O1023 2.355 . S
Eu1011 O1025 2.374 . S
Eu1011 O1026 2.473 . S
Eu1011 O1027 2.480 . S
Eu1011 O1028 2.430 . S
Eu1011 O1029 2.670 . S
Eu1011 O1030 2.394 . S
C1012 C1010 1.500 . S
C1012 C1013 1.377 . S
C1012 C1017 1.377 . S
C1013 C1012 1.377 . S
C1013 C1014 1.395 . S
C1013 H1036 0.931 . S
C1014 C1013 1.395 . S
C1014 C1015 1.383 . S
C1014 H1037 0.931 . S
C1015 C1014 1.383 . S
C1015 C1016 1.394 . S
C1016 C1015 1.394 . S
C1016 C1017 1.378 . S
C1016 H1038 0.931 . S
C1017 C1012 1.377 . S
C1017 C1016 1.378 . S
C1017 H1039 0.931 . S
C1018 O1028 1.259 . S
C1018 O1029 1.270 . S
C1019 O1030 1.251 . S
C1019 O1031 1.251 . S
O1020 C1000 1.257 . S
O1020 Eu1001 2.473 . S
O1021 C1000 1.260 . S
O1021 Eu1001 2.480 . S
O1022 Eu1001 2.430 . S
O1022 C1008 1.259 . S
O1023 Eu1001 2.670 . S
O1023 C1008 1.270 . S
O1023 Eu1011 2.355 . S
O1024 Eu1001 2.394 . S
O1024 C1009 1.251 . S
O1025 C1009 1.251 . S
O1025 Eu1011 2.374 . S
O1026 C1010 1.257 . S
O1026 Eu1011 2.473 . S
O1027 C1010 1.260 . S
O1027 Eu1011 2.480 . S
O1028 Eu1011 2.430 . S
O1028 C1018 1.259 . S
O1029 Eu1001 2.355 . S
O1029 Eu1011 2.670 . S
O1029 C1018 1.270 . S
O1030 Eu1011 2.394 . S
O1030 C1019 1.251 . S
O1031 Eu1001 2.374 . S
O1031 C1019 1.251 . S
H1032 C1003 0.931 . S
H1033 C1004 0.931 . S
H1034 C1006 0.931 . S
H1035 C1007 0.931 . S
H1036 C1013 0.931 . S
H1037 C1014 0.931 . S
H1038 C1016 0.931 . S
H1039 C1017 0.931 . S
C1040 Eu1041 2.835 . S
C1040 C1042 1.500 . S
C1040 O1060 1.257 . S
C1040 O1061 1.260 . S
Eu1041 C1040 2.835 . S
Eu1041 O1060 2.473 . S
Eu1041 O1061 2.480 . S
Eu1041 O1062 2.430 . S
Eu1041 O1063 2.670 . S
Eu1041 O1064 2.394 . S
Eu1041 O1069 2.355 . S
Eu1041 O1071 2.374 . S
C1042 C1040 1.500 . S
C1042 C1043 1.377 . S
C1042 C1047 1.377 . S
C1043 C1042 1.377 . S
C1043 C1044 1.395 . S
C1043 H1072 0.931 . S
C1044 C1043 1.395 . S
C1044 C1045 1.383 . S
C1044 H1073 0.931 . S
C1045 C1044 1.383 . S
C1045 C1046 1.394 . S
C1046 C1045 1.394 . S
C1046 C1047 1.378 . S
C1046 H1074 0.931 . S
C1047 C1042 1.377 . S
C1047 C1046 1.378 . S
C1047 H1075 0.931 . S
C1048 O1062 1.259 . S
C1048 O1063 1.270 . S
C1049 O1064 1.251 . S
C1049 O1065 1.251 . S
C1050 Eu1051 2.835 . S
C1050 C1052 1.500 . S
C1050 O1066 1.257 . S
C1050 O1067 1.260 . S
Eu1051 C1050 2.835 . S
Eu1051 O1063 2.355 . S
Eu1051 O1065 2.374 . S
Eu1051 O1066 2.473 . S
Eu1051 O1067 2.480 . S
Eu1051 O1068 2.430 . S
Eu1051 O1069 2.670 . S
Eu1051 O1070 2.394 . S
C1052 C1050 1.500 . S
C1052 C1053 1.377 . S
C1052 C1057 1.377 . S
C1053 C1052 1.377 . S
C1053 C1054 1.395 . S
C1053 H1076 0.931 . S
C1054 C1053 1.395 . S
C1054 C1055 1.383 . S
C1054 H1077 0.931 . S
C1055 C1054 1.383 . S
C1055 C1056 1.394 . S
C1056 C1055 1.394 . S
C1056 C1057 1.378 . S
C1056 H1078 0.931 . S
C1057 C1052 1.377 . S
C1057 C1056 1.378 . S
C1057 H1079 0.931 . S
C1058 O1068 1.259 . S
C1058 O1069 1.270 . S
C1059 O1070 1.251 . S
C1059 O1071 1.251 . S
O1060 C1040 1.257 . S
O1060 Eu1041 2.473 . S
O1061 C1040 1.260 . S
O1061 Eu1041 2.480 . S
O1062 Eu1041 2.430 . S
O1062 C1048 1.259 . S
O1063 Eu1041 2.670 . S
O1063 C1048 1.270 . S
O1063 Eu1051 2.355 . S
O1064 Eu1041 2.394 . S
O1064 C1049 1.251 . S
O1065 C1049 1.251 . S
O1065 Eu1051 2.374 . S
O1066 C1050 1.257 . S
O1066 Eu1051 2.473 . S
O1067 C1050 1.260 . S
O1067 Eu1051 2.480 . S
O1068 Eu1051 2.430 . S
O1068 C1058 1.259 . S
O1069 Eu1041 2.355 . S
O1069 Eu1051 2.670 . S
O1069 C1058 1.270 . S
O1070 Eu1051 2.394 . S
O1070 C1059 1.251 . S
O1071 Eu1041 2.374 . S
O1071 C1059 1.251 . S
H1072 C1043 0.931 . S
H1073 C1044 0.931 . S
H1074 C1046 0.931 . S
H1075 C1047 0.931 . S
H1076 C1053 0.931 . S
H1077 C1054 0.931 . S
H1078 C1056 0.931 . S
H1079 C1057 0.931 . S
H1080 C1086 0.930 . S
H1081 C1090 0.930 . S
H1082 C1095 0.929 . S
H1083 C1093 0.929 . S
H1084 C1088 0.929 . S
H1085 C1094 0.929 . S
C1086 H1080 0.930 . S
C1086 C1087 1.367 . S
C1086 C1094 1.378 . S
C1087 C1086 1.367 . S
C1087 C1095 1.433 . S
C1088 H1084 0.929 . S
C1088 C1090 1.378 . S
C1088 C1092 1.350 . S
C1089 C1092 1.463 . S
C1089 C1094 1.350 . S
C1089 N1097 1.427 . S
C1090 H1081 0.930 . S
C1090 C1088 1.378 . S
C1090 C1091 1.367 . S
C1091 C1090 1.367 . S
C1091 C1093 1.433 . S
C1092 C1088 1.350 . S
C1092 C1089 1.463 . S
C1092 N1096 1.427 . S
C1093 H1083 0.929 . S
C1093 C1091 1.433 . S
C1093 N1096 1.384 . S
C1094 H1085 0.929 . S
C1094 C1086 1.378 . S
C1094 C1089 1.350 . S
C1095 H1082 0.929 . S
C1095 C1087 1.433 . S
C1095 N1097 1.384 . S
N1096 C1092 1.427 . S
N1096 C1093 1.384 . S
N1097 C1089 1.427 . S
N1097 C1095 1.384 . S
H1098 C1104 0.930 . S
H1099 C1108 0.930 . S
H1100 C1113 0.929 . S
H1101 C1111 0.929 . S
H1102 C1106 0.929 . S
H1103 C1112 0.929 . S
C1104 H1098 0.930 . S
C1104 C1105 1.367 . S
C1104 C1112 1.378 . S
C1105 C1104 1.367 . S
C1105 C1113 1.433 . S
C1106 H1102 0.929 . S
C1106 C1108 1.378 . S
C1106 C1110 1.350 . S
C1107 C1110 1.463 . S
C1107 C1112 1.350 . S
C1107 N1115 1.427 . S
C1108 H1099 0.930 . S
C1108 C1106 1.378 . S
C1108 C1109 1.367 . S
C1109 C1108 1.367 . S
C1109 C1111 1.433 . S
C1110 C1106 1.350 . S
C1110 C1107 1.463 . S
C1110 N1114 1.427 . S
C1111 H1101 0.929 . S
C1111 C1109 1.433 . S
C1111 N1114 1.384 . S
C1112 H1103 0.929 . S
C1112 C1104 1.378 . S
C1112 C1107 1.350 . S
C1113 H1100 0.929 . S
C1113 C1105 1.433 . S
C1113 N1115 1.384 . S
N1114 C1110 1.427 . S
N1114 C1111 1.384 . S
N1115 C1107 1.427 . S
N1115 C1113 1.384 . S
H1116 C1122 0.930 . S
H1117 C1126 0.930 . S
H1118 C1131 0.929 . S
H1119 C1129 0.929 . S
H1120 C1124 0.929 . S
H1121 C1130 0.929 . S
C1122 H1116 0.930 . S
C1122 C1123 1.367 . S
C1122 C1130 1.378 . S
C1123 C1122 1.367 . S
C1123 C1131 1.433 . S
C1124 H1120 0.929 . S
C1124 C1126 1.378 . S
C1124 C1128 1.350 . S
C1125 C1128 1.463 . S
C1125 C1130 1.350 . S
C1125 N1133 1.427 . S
C1126 H1117 0.930 . S
C1126 C1124 1.378 . S
C1126 C1127 1.367 . S
C1127 C1126 1.367 . S
C1127 C1129 1.433 . S
C1128 C1124 1.350 . S
C1128 C1125 1.463 . S
C1128 N1132 1.427 . S
C1129 H1119 0.929 . S
C1129 C1127 1.433 . S
C1129 N1132 1.384 . S
C1130 H1121 0.929 . S
C1130 C1122 1.378 . S
C1130 C1125 1.350 . S
C1131 H1118 0.929 . S
C1131 C1123 1.433 . S
C1131 N1133 1.384 . S
N1132 C1128 1.427 . S
N1132 C1129 1.384 . S
N1133 C1125 1.427 . S
N1133 C1131 1.384 . S
H1134 C1140 0.930 . S
H1135 C1144 0.930 . S
H1136 C1149 0.929 . S
H1137 C1147 0.947 . S
H1138 C1142 0.929 . S
H1139 C1148 0.929 . S
C1140 H1134 0.930 . S
C1140 C1141 1.367 . S
C1140 C1148 1.378 . S
C1141 C1140 1.367 . S
C1141 C1149 1.433 . S
C1142 H1138 0.929 . S
C1142 C1144 1.378 . S
C1142 C1146 1.350 . S
C1143 C1146 1.463 . S
C1143 C1148 1.350 . S
C1143 N1151 1.427 . S
C1144 H1135 0.930 . S
C1144 C1142 1.378 . S
C1144 C1145 1.367 . S
C1145 C1144 1.367 . S
C1145 C1147 1.433 . S
C1146 C1142 1.350 . S
C1146 C1143 1.463 . S
C1146 N1150 1.427 . S
C1147 H1137 0.947 . S
C1147 C1145 1.433 . S
C1147 N1150 1.384 . S
C1148 H1139 0.929 . S
C1148 C1140 1.378 . S
C1148 C1143 1.350 . S
C1149 H1136 0.929 . S
C1149 C1141 1.433 . S
C1149 N1151 1.384 . S
N1150 C1146 1.427 . S
N1150 C1147 1.384 . S
N1151 C1143 1.427 . S
N1151 C1149 1.384 . S
H1152 C1158 0.930 . S
H1153 C1162 0.930 1_554 S
H1154 C1167 0.929 . S
H1155 C1165 0.929 . S
H1156 C1160 0.929 . S
H1157 C1166 0.929 . S
C1158 H1152 0.930 . S
C1158 C1159 1.367 . S
C1158 C1166 1.378 . S
C1159 C1158 1.367 . S
C1159 C1167 1.433 . S
C1160 H1156 0.929 . S
C1160 C1162 1.378 . S
C1160 C1164 1.350 . S
C1161 C1164 1.463 . S
C1161 C1166 1.350 . S
C1161 N1169 1.427 . S
C1162 H1153 0.930 1_556 S
C1162 C1160 1.378 . S
C1162 C1163 1.367 . S
C1163 C1162 1.367 . S
C1163 C1165 1.433 . S
C1164 C1160 1.350 . S
C1164 C1161 1.463 . S
C1164 N1168 1.427 . S
C1165 H1155 0.929 . S
C1165 C1163 1.433 . S
C1165 N1168 1.384 . S
C1166 H1157 0.929 . S
C1166 C1158 1.378 . S
C1166 C1161 1.350 . S
C1167 H1154 0.929 . S
C1167 C1159 1.433 . S
C1167 N1169 1.384 . S
N1168 C1164 1.427 . S
N1168 C1165 1.384 . S
N1169 C1161 1.427 . S
N1169 C1167 1.384 . S
H1170 C1176 0.930 . S
H1171 C1180 0.930 . S
H1172 C1185 0.929 1_554 S
H1173 C1183 0.929 . S
H1174 C1178 0.929 . S
H1175 C1184 0.929 . S
C1176 H1170 0.930 . S
C1176 C1177 1.367 . S
C1176 C1184 1.378 . S
C1177 C1176 1.367 . S
C1177 C1185 1.433 . S
C1178 H1174 0.929 . S
C1178 C1180 1.378 . S
C1178 C1182 1.350 1_554 S
C1179 C1182 1.463 . S
C1179 C1184 1.350 . S
C1179 N1187 1.427 . S
C1180 H1171 0.930 . S
C1180 C1178 1.378 . S
C1180 C1181 1.367 1_554 S
C1181 C1180 1.367 1_556 S
C1181 C1183 1.433 . S
C1182 C1178 1.350 1_556 S
C1182 C1179 1.463 . S
C1182 N1186 1.427 . S
C1183 H1173 0.929 . S
C1183 C1181 1.433 . S
C1183 N1186 1.384 . S
C1184 H1175 0.929 . S
C1184 C1176 1.378 . S
C1184 C1179 1.350 . S
C1185 H1172 0.929 1_556 S
C1185 C1177 1.433 . S
C1185 N1187 1.384 . S
N1186 C1182 1.427 . S
N1186 C1183 1.384 . S
N1187 C1179 1.427 . S
N1187 C1185 1.384 . S
H1188 C1194 0.930 . S
H1189 C1198 0.930 1_554 S
H1190 C1203 0.929 . S
H1191 C1201 0.929 . S
H1192 C1196 0.958 . S
H1193 C1202 0.929 . S
C1194 H1188 0.930 . S
C1194 C1195 1.367 . S
C1194 C1202 1.378 . S
C1195 C1194 1.367 . S
C1195 C1203 1.433 . S
C1196 H1192 0.958 . S
C1196 C1198 1.378 . S
C1196 C1200 1.350 . S
C1197 C1200 1.463 . S
C1197 C1202 1.350 . S
C1197 N1205 1.427 . S
C1198 H1189 0.930 1_556 S
C1198 C1196 1.378 . S
C1198 C1199 1.367 . S
C1199 C1198 1.367 . S
C1199 C1201 1.433 . S
C1200 C1196 1.350 . S
C1200 C1197 1.463 . S
C1200 N1204 1.427 . S
C1201 H1191 0.929 . S
C1201 C1199 1.433 . S
C1201 N1204 1.384 . S
C1202 H1193 0.929 . S
C1202 C1194 1.378 . S
C1202 C1197 1.350 . S
C1203 H1190 0.929 . S
C1203 C1195 1.433 . S
C1203 N1205 1.384 . S
N1204 C1200 1.427 . S
N1204 C1201 1.384 . S
N1205 C1197 1.427 . S
N1205 C1203 1.384 . S
H1206 C1212 0.930 . S
H1207 C1216 0.930 1_554 S
H1208 C1221 0.929 . S
H1209 C1219 0.929 . S
H1210 C1214 0.929 . S
H1211 C1220 0.929 . S
C1212 H1206 0.930 . S
C1212 C1213 1.367 . S
C1212 C1220 1.378 . S
C1213 C1212 1.367 . S
C1213 C1221 1.433 . S
C1214 H1210 0.929 . S
C1214 C1216 1.378 . S
C1214 C1218 1.350 . S
C1215 C1218 1.463 . S
C1215 C1220 1.350 . S
C1215 N1223 1.427 . S
C1216 H1207 0.930 1_556 S
C1216 C1214 1.378 . S
C1216 C1217 1.367 . S
C1217 C1216 1.367 . S
C1217 C1219 1.433 . S
C1218 C1214 1.350 . S
C1218 C1215 1.463 . S
C1218 N1222 1.427 . S
C1219 H1209 0.929 . S
C1219 C1217 1.433 . S
C1219 N1222 1.384 . S
C1220 H1211 0.929 . S
C1220 C1212 1.378 . S
C1220 C1215 1.350 . S
C1221 H1208 0.929 . S
C1221 C1213 1.433 . S
C1221 N1223 1.384 . S
N1222 C1218 1.427 . S
N1222 C1219 1.384 . S
N1223 C1215 1.427 . S
N1223 C1221 1.384 . S
H1224 C1230 0.930 . S
H1225 C1234 0.932 1_554 S
H1226 C1239 0.929 . S
H1227 C1237 0.929 . S
H1228 C1232 0.929 1_554 S
H1229 C1238 0.929 . S
C1230 H1224 0.930 . S
C1230 C1231 1.367 . S
C1230 C1238 1.378 . S
C1231 C1230 1.367 . S
C1231 C1239 1.433 . S
C1232 H1228 0.929 1_556 S
C1232 C1234 1.378 . S
C1232 C1236 1.350 . S
C1233 C1236 1.463 . S
C1233 C1238 1.350 . S
C1233 N1241 1.427 . S
C1234 H1225 0.932 1_556 S
C1234 C1232 1.378 . S
C1234 C1235 1.365 . S
C1235 C1234 1.365 . S
C1235 C1237 1.433 . S
C1236 C1232 1.350 . S
C1236 C1233 1.463 . S
C1236 N1240 1.427 . S
C1237 H1227 0.929 . S
C1237 C1235 1.433 . S
C1237 N1240 1.384 . S
C1238 H1229 0.929 . S
C1238 C1230 1.378 . S
C1238 C1233 1.350 . S
C1239 H1226 0.929 . S
C1239 C1231 1.433 . S
C1239 N1241 1.384 . S
N1240 C1236 1.427 . S
N1240 C1237 1.384 . S
N1241 C1233 1.427 . S
N1241 C1239 1.384 . S
H1242 C1248 0.930 . S
H1243 C1252 0.930 . S
H1244 C1257 0.929 . S
H1245 C1255 0.929 1_556 S
H1246 C1250 0.929 . S
H1247 C1256 0.929 . S
C1248 H1242 0.930 . S
C1248 C1249 1.367 . S
C1248 C1256 1.378 . S
C1249 C1248 1.367 . S
C1249 C1257 1.433 . S
C1250 H1246 0.929 . S
C1250 C1252 1.378 . S
C1250 C1254 1.350 . S
C1251 C1254 1.463 . S
C1251 C1256 1.350 . S
C1251 N1259 1.427 . S
C1252 H1243 0.930 . S
C1252 C1250 1.378 . S
C1252 C1253 1.367 . S
C1253 C1252 1.367 . S
C1253 C1255 1.433 . S
C1254 C1250 1.350 . S
C1254 C1251 1.463 . S
C1254 N1258 1.427 . S
C1255 H1245 0.929 1_554 S
C1255 C1253 1.433 . S
C1255 N1258 1.384 . S
C1256 H1247 0.929 . S
C1256 C1248 1.378 . S
C1256 C1251 1.350 . S
C1257 H1244 0.929 . S
C1257 C1249 1.433 . S
C1257 N1259 1.384 . S
N1258 C1254 1.427 . S
N1258 C1255 1.384 . S
N1259 C1251 1.427 . S
N1259 C1257 1.384 . S
H1260 C1266 0.930 . S
H1261 C1270 0.930 . S
H1262 C1275 0.929 . S
H1263 C1273 0.929 . S
H1264 C1268 0.929 . S
H1265 C1274 0.929 . S
C1266 H1260 0.930 . S
C1266 C1267 1.367 . S
C1266 C1274 1.378 . S
C1267 C1266 1.367 . S
C1267 C1275 1.433 . S
C1268 H1264 0.929 . S
C1268 C1270 1.378 . S
C1268 C1272 1.350 . S
C1269 C1272 1.463 . S
C1269 C1274 1.350 . S
C1269 N1277 1.427 . S
C1270 H1261 0.930 . S
C1270 C1268 1.378 . S
C1270 C1271 1.367 . S
C1271 C1270 1.367 . S
C1271 C1273 1.433 . S
C1272 C1268 1.350 . S
C1272 C1269 1.463 . S
C1272 N1276 1.427 . S
C1273 H1263 0.929 . S
C1273 C1271 1.433 . S
C1273 N1276 1.384 . S
C1274 H1265 0.929 . S
C1274 C1266 1.378 . S
C1274 C1269 1.350 . S
C1275 H1262 0.929 . S
C1275 C1267 1.433 . S
C1275 N1277 1.384 . S
N1276 C1272 1.427 . S
N1276 C1273 1.384 . S
N1277 C1269 1.427 . S
N1277 C1275 1.384 . S
H1278 C1284 0.930 . S
H1279 C1288 0.930 . S
H1280 C1293 0.929 . S
H1281 C1291 0.929 1_556 S
H1282 C1286 0.929 . S
H1283 C1292 0.929 . S
C1284 H1278 0.930 . S
C1284 C1285 1.367 . S
C1284 C1292 1.378 . S
C1285 C1284 1.367 . S
C1285 C1293 1.433 . S
C1286 H1282 0.929 . S
C1286 C1288 1.378 . S
C1286 C1290 1.350 . S
C1287 C1290 1.463 . S
C1287 C1292 1.350 . S
C1287 N1295 1.427 . S
C1288 H1279 0.930 . S
C1288 C1286 1.378 . S
C1288 C1289 1.367 . S
C1289 C1288 1.367 . S
C1289 C1291 1.433 . S
C1290 C1286 1.350 . S
C1290 C1287 1.463 . S
C1290 N1294 1.427 . S
C1291 H1281 0.929 1_554 S
C1291 C1289 1.433 . S
C1291 N1294 1.384 . S
C1292 H1283 0.929 . S
C1292 C1284 1.378 . S
C1292 C1287 1.350 . S
C1293 H1280 0.929 . S
C1293 C1285 1.433 . S
C1293 N1295 1.384 . S
N1294 C1290 1.427 . S
N1294 C1291 1.384 . S
N1295 C1287 1.427 . S
N1295 C1293 1.384 . S
H1296 C1302 0.930 . S
H1297 C1306 0.930 . S
H1298 C1311 0.929 . S
H1299 C1309 0.929 . S
H1300 C1304 0.929 . S
H1301 C1310 0.929 . S
C1302 H1296 0.930 . S
C1302 C1303 1.367 . S
C1302 C1310 1.378 1_655 S
C1303 C1302 1.367 . S
C1303 C1311 1.433 1_655 S
C1304 H1300 0.929 . S
C1304 C1306 1.378 . S
C1304 C1308 1.350 . S
C1305 C1308 1.463 . S
C1305 C1310 1.350 . S
C1305 N1313 1.427 . S
C1306 H1297 0.930 . S
C1306 C1304 1.378 . S
C1306 C1307 1.367 . S
C1307 C1306 1.367 . S
C1307 C1309 1.433 . S
C1308 C1304 1.350 . S
C1308 C1305 1.463 . S
C1308 N1312 1.427 . S
C1309 H1299 0.929 . S
C1309 C1307 1.433 . S
C1309 N1312 1.384 . S
C1310 H1301 0.929 . S
C1310 C1302 1.378 1_455 S
C1310 C1305 1.350 . S
C1311 H1298 0.929 . S
C1311 C1303 1.433 1_455 S
C1311 N1313 1.384 . S
N1312 C1308 1.427 . S
N1312 C1309 1.384 . S
N1313 C1305 1.427 . S
N1313 C1311 1.384 . S
H1314 C1320 0.930 . S
H1315 C1324 0.930 . S
H1316 C1329 0.929 . S
H1317 C1327 0.929 . S
H1318 C1322 0.929 . S
H1319 C1328 0.929 . S
C1320 H1314 0.930 . S
C1320 C1321 1.367 . S
C1320 C1328 1.378 . S
C1321 C1320 1.367 . S
C1321 C1329 1.433 . S
C1322 H1318 0.929 . S
C1322 C1324 1.378 . S
C1322 C1326 1.350 . S
C1323 C1326 1.463 . S
C1323 C1328 1.350 . S
C1323 N1331 1.427 . S
C1324 H1315 0.930 . S
C1324 C1322 1.378 . S
C1324 C1325 1.367 . S
C1325 C1324 1.367 . S
C1325 C1327 1.433 . S
C1326 C1322 1.350 . S
C1326 C1323 1.463 . S
C1326 N1330 1.427 . S
C1327 H1317 0.929 . S
C1327 C1325 1.433 . S
C1327 N1330 1.384 . S
C1328 H1319 0.929 . S
C1328 C1320 1.378 . S
C1328 C1323 1.350 . S
C1329 H1316 0.929 . S
C1329 C1321 1.433 . S
C1329 N1331 1.384 . S
N1330 C1326 1.427 . S
N1330 C1327 1.384 . S
N1331 C1323 1.427 . S
N1331 C1329 1.384 . S
H1332 C1338 0.930 . S
H1333 C1342 0.930 . S
H1334 C1347 0.929 . S
H1335 C1345 0.929 . S
H1336 C1340 0.929 . S
H1337 C1346 0.929 . S
C1338 H1332 0.930 . S
C1338 C1339 1.367 . S
C1338 C1346 1.378 1_545 S
C1339 C1338 1.367 . S
C1339 C1347 1.433 . S
C1340 H1336 0.929 . S
C1340 C1342 1.378 . S
C1340 C1344 1.350 . S
C1341 C1344 1.463 . S
C1341 C1346 1.350 . S
C1341 N1349 1.427 . S
C1342 H1333 0.930 . S
C1342 C1340 1.378 . S
C1342 C1343 1.367 . S
C1343 C1342 1.367 . S
C1343 C1345 1.433 . S
C1344 C1340 1.350 . S
C1344 C1341 1.463 . S
C1344 N1348 1.427 . S
C1345 H1335 0.929 . S
C1345 C1343 1.433 . S
C1345 N1348 1.384 . S
C1346 H1337 0.929 . S
C1346 C1338 1.378 1_565 S
C1346 C1341 1.350 . S
C1347 H1334 0.929 . S
C1347 C1339 1.433 . S
C1347 N1349 1.384 1_545 S
N1348 C1344 1.427 . S
N1348 C1345 1.384 . S
N1349 C1341 1.427 . S
N1349 C1347 1.384 1_565 S
H1350 C1356 0.930 . S
H1351 C1360 0.930 . S
H1352 C1365 0.929 . S
H1353 C1363 0.929 . S
H1354 C1358 0.929 . S
H1355 C1364 0.929 . S
C1356 H1350 0.930 . S
C1356 C1357 1.367 . S
C1356 C1364 1.378 . S
C1357 C1356 1.367 . S
C1357 C1365 1.433 . S
C1358 H1354 0.929 . S
C1358 C1360 1.378 . S
C1358 C1362 1.350 . S
C1359 C1362 1.463 . S
C1359 C1364 1.350 . S
C1359 N1367 1.427 . S
C1360 H1351 0.930 . S
C1360 C1358 1.378 . S
C1360 C1361 1.367 . S
C1361 C1360 1.367 . S
C1361 C1363 1.433 . S
C1362 C1358 1.350 . S
C1362 C1359 1.463 . S
C1362 N1366 1.427 . S
C1363 H1353 0.929 . S
C1363 C1361 1.433 . S
C1363 N1366 1.384 . S
C1364 H1355 0.929 . S
C1364 C1356 1.378 . S
C1364 C1359 1.350 . S
C1365 H1352 0.929 . S
C1365 C1357 1.433 . S
C1365 N1367 1.384 . S
N1366 C1362 1.427 . S
N1366 C1363 1.384 . S
N1367 C1359 1.427 . S
N1367 C1365 1.384 . S
H1368 C1374 0.930 . S
H1369 C1378 0.930 . S
H1370 C1383 0.929 . S
H1371 C1381 0.929 . S
H1372 C1376 0.929 . S
H1373 C1382 0.929 . S
C1374 H1368 0.930 . S
C1374 C1375 1.367 . S
C1374 C1382 1.378 . S
C1375 C1374 1.367 . S
C1375 C1383 1.433 . S
C1376 H1372 0.929 . S
C1376 C1378 1.378 . S
C1376 C1380 1.350 . S
C1377 C1380 1.463 . S
C1377 C1382 1.350 . S
C1377 N1385 1.427 . S
C1378 H1369 0.930 . S
C1378 C1376 1.378 . S
C1378 C1379 1.367 . S
C1379 C1378 1.367 . S
C1379 C1381 1.433 . S
C1380 C1376 1.350 . S
C1380 C1377 1.463 . S
C1380 N1384 1.427 . S
C1381 H1371 0.929 . S
C1381 C1379 1.433 . S
C1381 N1384 1.384 . S
C1382 H1373 0.929 . S
C1382 C1374 1.378 . S
C1382 C1377 1.350 . S
C1383 H1370 0.929 . S
C1383 C1375 1.433 . S
C1383 N1385 1.384 . S
N1384 C1380 1.427 . S
N1384 C1381 1.384 . S
N1385 C1377 1.427 . S
N1385 C1383 1.384 . S
H1386 C1392 0.930 . S
H1387 C1396 0.930 . S
H1388 C1401 0.929 . S
H1389 C1399 0.929 . S
H1390 C1394 0.929 . S
H1391 C1400 0.929 . S
C1392 H1386 0.930 . S
C1392 C1393 1.367 . S
C1392 C1400 1.378 . S
C1393 C1392 1.367 . S
C1393 C1401 1.433 . S
C1394 H1390 0.929 . S
C1394 C1396 1.378 . S
C1394 C1398 1.350 . S
C1395 C1398 1.463 . S
C1395 C1400 1.350 . S
C1395 N1403 1.427 . S
C1396 H1387 0.930 . S
C1396 C1394 1.378 . S
C1396 C1397 1.367 . S
C1397 C1396 1.367 . S
C1397 C1399 1.433 . S
C1398 C1394 1.350 . S
C1398 C1395 1.463 . S
C1398 N1402 1.427 . S
C1399 H1389 0.929 . S
C1399 C1397 1.433 . S
C1399 N1402 1.384 . S
C1400 H1391 0.929 . S
C1400 C1392 1.378 . S
C1400 C1395 1.350 . S
C1401 H1388 0.929 . S
C1401 C1393 1.433 . S
C1401 N1403 1.384 . S
N1402 C1398 1.427 . S
N1402 C1399 1.384 . S
N1403 C1395 1.427 . S
N1403 C1401 1.384 . S
H1404 C1410 0.930 . S
H1405 C1414 0.930 . S
H1406 C1419 0.929 . S
H1407 C1417 0.929 . S
H1408 C1412 0.929 . S
H1409 C1418 0.929 . S
C1410 H1404 0.930 . S
C1410 C1411 1.367 . S
C1410 C1418 1.378 . S
C1411 C1410 1.367 . S
C1411 C1419 1.433 . S
C1412 H1408 0.929 . S
C1412 C1414 1.378 . S
C1412 C1416 1.350 . S
C1413 C1416 1.463 . S
C1413 C1418 1.350 . S
C1413 N1421 1.427 . S
C1414 H1405 0.930 . S
C1414 C1412 1.378 . S
C1414 C1415 1.367 . S
C1415 C1414 1.367 . S
C1415 C1417 1.433 . S
C1416 C1412 1.350 . S
C1416 C1413 1.463 . S
C1416 N1420 1.427 . S
C1417 H1407 0.929 . S
C1417 C1415 1.433 . S
C1417 N1420 1.384 . S
C1418 H1409 0.929 . S
C1418 C1410 1.378 . S
C1418 C1413 1.350 . S
C1419 H1406 0.929 . S
C1419 C1411 1.433 . S
C1419 N1421 1.384 . S
N1420 C1416 1.427 . S
N1420 C1417 1.384 . S
N1421 C1413 1.427 . S
N1421 C1419 1.384 . S
H1422 C1428 0.930 . S
H1423 C1432 0.930 . S
H1424 C1437 0.929 . S
H1425 C1435 0.929 . S
H1426 C1430 0.929 . S
H1427 C1436 0.929 . S
C1428 H1422 0.930 . S
C1428 C1429 1.367 . S
C1428 C1436 1.378 . S
C1429 C1428 1.367 . S
C1429 C1437 1.433 . S
C1430 H1426 0.929 . S
C1430 C1432 1.378 . S
C1430 C1434 1.350 . S
C1431 C1434 1.463 . S
C1431 C1436 1.350 . S
C1431 N1439 1.427 . S
C1432 H1423 0.930 . S
C1432 C1430 1.378 . S
C1432 C1433 1.367 . S
C1433 C1432 1.367 . S
C1433 C1435 1.433 . S
C1434 C1430 1.350 . S
C1434 C1431 1.463 . S
C1434 N1438 1.427 . S
C1435 H1425 0.929 . S
C1435 C1433 1.433 . S
C1435 N1438 1.384 . S
C1436 H1427 0.929 . S
C1436 C1428 1.378 . S
C1436 C1431 1.350 . S
C1437 H1424 0.929 . S
C1437 C1429 1.433 . S
C1437 N1439 1.384 . S
N1438 C1434 1.427 . S
N1438 C1435 1.384 . S
N1439 C1431 1.427 . S
N1439 C1437 1.384 . S
H1440 C1446 0.930 . S
H1441 C1450 0.930 . S
H1442 C1455 0.929 . S
H1443 C1453 0.929 . S
H1444 C1448 0.929 . S
H1445 C1454 0.929 . S
C1446 H1440 0.930 . S
C1446 C1447 1.367 . S
C1446 C1454 1.378 . S
C1447 C1446 1.367 . S
C1447 C1455 1.433 . S
C1448 H1444 0.929 . S
C1448 C1450 1.378 . S
C1448 C1452 1.350 . S
C1449 C1452 1.463 . S
C1449 C1454 1.350 . S
C1449 N1457 1.427 . S
C1450 H1441 0.930 . S
C1450 C1448 1.378 . S
C1450 C1451 1.367 . S
C1451 C1450 1.367 . S
C1451 C1453 1.433 . S
C1452 C1448 1.350 . S
C1452 C1449 1.463 . S
C1452 N1456 1.427 . S
C1453 H1443 0.929 . S
C1453 C1451 1.433 . S
C1453 N1456 1.384 . S
C1454 H1445 0.929 . S
C1454 C1446 1.378 . S
C1454 C1449 1.350 . S
C1455 H1442 0.929 . S
C1455 C1447 1.433 . S
C1455 N1457 1.384 . S
N1456 C1452 1.427 . S
N1456 C1453 1.384 . S
N1457 C1449 1.427 . S
N1457 C1455 1.384 . S
H1458 C1464 0.930 . S
H1459 C1468 0.930 . S
H1460 C1473 0.929 . S
H1461 C1471 0.929 . S
H1462 C1466 0.929 . S
H1463 C1472 0.929 . S
C1464 H1458 0.930 . S
C1464 C1465 1.367 . S
C1464 C1472 1.378 1_545 S
C1465 C1464 1.367 . S
C1465 C1473 1.433 . S
C1466 H1462 0.929 . S
C1466 C1468 1.378 . S
C1466 C1470 1.350 . S
C1467 C1470 1.463 . S
C1467 C1472 1.350 . S
C1467 N1475 1.427 . S
C1468 H1459 0.930 . S
C1468 C1466 1.378 . S
C1468 C1469 1.367 . S
C1469 C1468 1.367 . S
C1469 C1471 1.433 . S
C1470 C1466 1.350 . S
C1470 C1467 1.463 . S
C1470 N1474 1.427 . S
C1471 H1461 0.929 . S
C1471 C1469 1.433 . S
C1471 N1474 1.384 . S
C1472 H1463 0.929 . S
C1472 C1464 1.378 1_565 S
C1472 C1467 1.350 . S
C1473 H1460 0.929 . S
C1473 C1465 1.433 . S
C1473 N1475 1.384 1_545 S
N1474 C1470 1.427 . S
N1474 C1471 1.384 . S
N1475 C1467 1.427 . S
N1475 C1473 1.384 1_565 S
H1476 C1482 0.930 1_655 S
H1477 C1486 0.930 . S
H1478 C1491 0.929 . S
H1479 C1489 0.929 . S
H1480 C1484 0.929 . S
H1481 C1490 0.929 . S
C1482 H1476 0.930 1_455 S
C1482 C1483 1.367 . S
C1482 C1490 1.378 . S
C1483 C1482 1.367 . S
C1483 C1491 1.433 . S
C1484 H1480 0.929 . S
C1484 C1486 1.378 . S
C1484 C1488 1.350 . S
C1485 C1488 1.463 . S
C1485 C1490 1.350 . S
C1485 N1493 1.427 . S
C1486 H1477 0.930 . S
C1486 C1484 1.378 . S
C1486 C1487 1.367 . S
C1487 C1486 1.367 . S
C1487 C1489 1.433 . S
C1488 C1484 1.350 . S
C1488 C1485 1.463 . S
C1488 N1492 1.427 . S
C1489 H1479 0.929 . S
C1489 C1487 1.433 . S
C1489 N1492 1.384 . S
C1490 H1481 0.929 . S
C1490 C1482 1.378 . S
C1490 C1485 1.350 . S
C1491 H1478 0.929 . S
C1491 C1483 1.433 . S
C1491 N1493 1.384 . S
N1492 C1488 1.427 . S
N1492 C1489 1.384 . S
N1493 C1485 1.427 . S
N1493 C1491 1.384 . S
H1494 C1500 0.930 . S
H1495 C1504 0.930 . S
H1496 C1509 0.929 . S
H1497 C1507 0.929 . S
H1498 C1502 0.929 . S
H1499 C1508 0.929 . S
C1500 H1494 0.930 . S
C1500 C1501 1.367 . S
C1500 C1508 1.378 . S
C1501 C1500 1.367 . S
C1501 C1509 1.433 . S
C1502 H1498 0.929 . S
C1502 C1504 1.378 . S
C1502 C1506 1.350 . S
C1503 C1506 1.463 . S
C1503 C1508 1.350 . S
C1503 N1511 1.427 . S
C1504 H1495 0.930 . S
C1504 C1502 1.378 . S
C1504 C1505 1.367 . S
C1505 C1504 1.367 . S
C1505 C1507 1.433 . S
C1506 C1502 1.350 . S
C1506 C1503 1.463 . S
C1506 N1510 1.427 . S
C1507 H1497 0.929 . S
C1507 C1505 1.433 . S
C1507 N1510 1.384 . S
C1508 H1499 0.929 . S
C1508 C1500 1.378 . S
C1508 C1503 1.350 . S
C1509 H1496 0.929 . S
C1509 C1501 1.433 . S
C1509 N1511 1.384 . S
N1510 C1506 1.427 . S
N1510 C1507 1.384 . S
N1511 C1503 1.427 . S
N1511 C1509 1.384 . S
H1512 C1518 0.930 . S
H1513 C1522 0.930 . S
H1514 C1527 0.929 . S
H1515 C1525 0.929 . S
H1516 C1520 0.929 . S
H1517 C1526 0.929 . S
C1518 H1512 0.930 . S
C1518 C1519 1.367 . S
C1518 C1526 1.378 . S
C1519 C1518 1.367 . S
C1519 C1527 1.433 . S
C1520 H1516 0.929 . S
C1520 C1522 1.378 . S
C1520 C1524 1.350 . S
C1521 C1524 1.463 . S
C1521 C1526 1.350 . S
C1521 N1529 1.427 . S
C1522 H1513 0.930 . S
C1522 C1520 1.378 . S
C1522 C1523 1.367 . S
C1523 C1522 1.367 . S
C1523 C1525 1.433 . S
C1524 C1520 1.350 . S
C1524 C1521 1.463 . S
C1524 N1528 1.427 . S
C1525 H1515 0.929 . S
C1525 C1523 1.433 . S
C1525 N1528 1.384 . S
C1526 H1517 0.929 . S
C1526 C1518 1.378 . S
C1526 C1521 1.350 . S
C1527 H1514 0.929 . S
C1527 C1519 1.433 . S
C1527 N1529 1.384 . S
N1528 C1524 1.427 . S
N1528 C1525 1.384 . S
N1529 C1521 1.427 . S
N1529 C1527 1.384 . S
H1530 C1536 0.930 . S
H1531 C1540 0.930 . S
H1532 C1545 0.929 . S
H1533 C1543 0.929 . S
H1534 C1538 0.929 . S
H1535 C1544 0.929 . S
C1536 H1530 0.930 . S
C1536 C1537 1.367 . S
C1536 C1544 1.378 . S
C1537 C1536 1.367 . S
C1537 C1545 1.433 . S
C1538 H1534 0.929 . S
C1538 C1540 1.378 . S
C1538 C1542 1.350 . S
C1539 C1542 1.463 . S
C1539 C1544 1.350 . S
C1539 N1547 1.427 . S
C1540 H1531 0.930 . S
C1540 C1538 1.378 . S
C1540 C1541 1.367 . S
C1541 C1540 1.367 . S
C1541 C1543 1.433 . S
C1542 C1538 1.350 . S
C1542 C1539 1.463 . S
C1542 N1546 1.427 . S
C1543 H1533 0.929 . S
C1543 C1541 1.433 . S
C1543 N1546 1.384 . S
C1544 H1535 0.929 . S
C1544 C1536 1.378 . S
C1544 C1539 1.350 . S
C1545 H1532 0.929 . S
C1545 C1537 1.433 . S
C1545 N1547 1.384 . S
N1546 C1542 1.427 . S
N1546 C1543 1.384 . S
N1547 C1539 1.427 . S
N1547 C1545 1.384 . S
H1548 C1554 0.930 . S
H1549 C1558 0.930 . S
H1550 C1563 0.929 . S
H1551 C1561 0.929 . S
H1552 C1556 0.929 . S
H1553 C1562 0.929 . S
C1554 H1548 0.930 . S
C1554 C1555 1.367 . S
C1554 C1562 1.378 . S
C1555 C1554 1.367 . S
C1555 C1563 1.433 . S
C1556 H1552 0.929 . S
C1556 C1558 1.378 . S
C1556 C1560 1.350 . S
C1557 C1560 1.463 . S
C1557 C1562 1.350 . S
C1557 N1565 1.427 . S
C1558 H1549 0.930 . S
C1558 C1556 1.378 . S
C1558 C1559 1.367 . S
C1559 C1558 1.367 . S
C1559 C1561 1.433 . S
C1560 C1556 1.350 . S
C1560 C1557 1.463 . S
C1560 N1564 1.427 . S
C1561 H1551 0.929 . S
C1561 C1559 1.433 . S
C1561 N1564 1.384 . S
C1562 H1553 0.929 . S
C1562 C1554 1.378 . S
C1562 C1557 1.350 . S
C1563 H1550 0.929 . S
C1563 C1555 1.433 . S
C1563 N1565 1.384 . S
N1564 C1560 1.427 . S
N1564 C1561 1.384 . S
N1565 C1557 1.427 . S
N1565 C1563 1.384 . S
H1566 C1572 0.930 . S
H1567 C1576 0.930 . S
H1568 C1581 0.929 . S
H1569 C1579 0.929 . S
H1570 C1574 0.929 . S
H1571 C1580 0.929 . S
C1572 H1566 0.930 . S
C1572 C1573 1.367 . S
C1572 C1580 1.378 1_565 S
C1573 C1572 1.367 . S
C1573 C1581 1.433 . S
C1574 H1570 0.929 . S
C1574 C1576 1.378 . S
C1574 C1578 1.350 . S
C1575 C1578 1.463 . S
C1575 C1580 1.350 . S
C1575 N1583 1.427 . S
C1576 H1567 0.930 . S
C1576 C1574 1.378 . S
C1576 C1577 1.367 . S
C1577 C1576 1.367 . S
C1577 C1579 1.433 . S
C1578 C1574 1.350 . S
C1578 C1575 1.463 . S
C1578 N1582 1.427 . S
C1579 H1569 0.929 . S
C1579 C1577 1.433 . S
C1579 N1582 1.384 . S
C1580 H1571 0.929 . S
C1580 C1572 1.378 1_545 S
C1580 C1575 1.350 . S
C1581 H1568 0.929 . S
C1581 C1573 1.433 . S
C1581 N1583 1.384 1_565 S
N1582 C1578 1.427 . S
N1582 C1579 1.384 . S
N1583 C1575 1.427 . S
N1583 C1581 1.384 1_545 S
H1584 C1590 0.930 1_455 S
H1585 C1594 0.930 . S
H1586 C1599 0.929 . S
H1587 C1597 0.929 . S
H1588 C1592 0.929 . S
H1589 C1598 0.929 . S
C1590 H1584 0.930 1_655 S
C1590 C1591 1.375 . S
C1590 C1598 1.378 . S
C1591 C1590 1.375 . S
C1591 C1599 1.445 . S
C1592 H1588 0.929 . S
C1592 C1594 1.378 . S
C1592 C1596 1.350 . S
C1593 C1596 1.463 . S
C1593 C1598 1.350 . S
C1593 N1601 1.427 . S
C1594 H1585 0.930 . S
C1594 C1592 1.378 . S
C1594 C1595 1.367 . S
C1595 C1594 1.367 . S
C1595 C1597 1.433 . S
C1596 C1592 1.350 . S
C1596 C1593 1.463 . S
C1596 N1600 1.427 . S
C1597 H1587 0.929 . S
C1597 C1595 1.433 . S
C1597 N1600 1.384 . S
C1598 H1589 0.929 . S
C1598 C1590 1.378 . S
C1598 C1593 1.350 . S
C1599 H1586 0.929 . S
C1599 C1591 1.445 . S
C1599 N1601 1.384 . S
N1600 C1596 1.427 . S
N1600 C1597 1.384 . S
N1601 C1593 1.427 . S
N1601 C1599 1.384 . S
H1602 C1608 0.930 . S
H1603 C1612 0.930 . S
H1604 C1617 0.929 . S
H1605 C1615 0.929 . S
H1606 C1610 0.929 . S
H1607 C1616 0.929 . S
C1608 H1602 0.930 . S
C1608 C1609 1.367 . S
C1608 C1616 1.378 . S
C1609 C1608 1.367 . S
C1609 C1617 1.433 . S
C1610 H1606 0.929 . S
C1610 C1612 1.378 . S
C1610 C1614 1.350 . S
C1611 C1614 1.463 . S
C1611 C1616 1.350 . S
C1611 N1619 1.427 . S
C1612 H1603 0.930 . S
C1612 C1610 1.378 . S
C1612 C1613 1.367 . S
C1613 C1612 1.367 . S
C1613 C1615 1.433 . S
C1614 C1610 1.350 . S
C1614 C1611 1.463 . S
C1614 N1618 1.427 . S
C1615 H1605 0.929 . S
C1615 C1613 1.433 . S
C1615 N1618 1.384 . S
C1616 H1607 0.929 . S
C1616 C1608 1.378 . S
C1616 C1611 1.350 . S
C1617 H1604 0.929 . S
C1617 C1609 1.433 . S
C1617 N1619 1.384 . S
N1618 C1614 1.427 . S
N1618 C1615 1.384 . S
N1619 C1611 1.427 . S
N1619 C1617 1.384 . S
H1620 C1626 0.949 . S
H1621 C1630 0.930 . S
H1622 C1635 0.929 . S
H1623 C1633 0.929 . S
H1624 C1628 0.929 . S
H1625 C1634 0.929 . S
C1626 H1620 0.949 . S
C1626 C1627 1.367 1_655 S
C1626 C1634 1.378 . S
C1627 C1626 1.367 1_455 S
C1627 C1635 1.433 . S
C1628 H1624 0.929 . S
C1628 C1630 1.378 . S
C1628 C1632 1.350 . S
C1629 C1632 1.463 . S
C1629 C1634 1.350 . S
C1629 N1637 1.427 . S
C1630 H1621 0.930 . S
C1630 C1628 1.378 . S
C1630 C1631 1.367 . S
C1631 C1630 1.367 . S
C1631 C1633 1.433 . S
C1632 C1628 1.350 . S
C1632 C1629 1.463 . S
C1632 N1636 1.427 . S
C1633 H1623 0.929 . S
C1633 C1631 1.433 . S
C1633 N1636 1.384 . S
C1634 H1625 0.929 . S
C1634 C1626 1.378 . S
C1634 C1629 1.350 . S
C1635 H1622 0.929 . S
C1635 C1627 1.433 . S
C1635 N1637 1.384 1_455 S
N1636 C1632 1.427 . S
N1636 C1633 1.384 . S
N1637 C1629 1.427 . S
N1637 C1635 1.384 1_655 S
H1638 C1644 0.930 . S
H1639 C1648 0.930 . S
H1640 C1653 0.929 . S
H1641 C1651 0.929 . S
H1642 C1646 0.929 . S
H1643 C1652 0.929 . S
C1644 H1638 0.930 . S
C1644 C1645 1.367 . S
C1644 C1652 1.378 . S
C1645 C1644 1.367 . S
C1645 C1653 1.433 . S
C1646 H1642 0.929 . S
C1646 C1648 1.378 . S
C1646 C1650 1.350 . S
C1647 C1650 1.463 . S
C1647 C1652 1.350 . S
C1647 N1655 1.427 . S
C1648 H1639 0.930 . S
C1648 C1646 1.378 . S
C1648 C1649 1.367 . S
C1649 C1648 1.367 . S
C1649 C1651 1.433 . S
C1650 C1646 1.350 . S
C1650 C1647 1.463 . S
C1650 N1654 1.427 . S
C1651 H1641 0.929 . S
C1651 C1649 1.433 . S
C1651 N1654 1.384 . S
C1652 H1643 0.929 . S
C1652 C1644 1.378 . S
C1652 C1647 1.350 . S
C1653 H1640 0.929 . S
C1653 C1645 1.433 . S
C1653 N1655 1.384 . S
N1654 C1650 1.427 . S
N1654 C1651 1.384 . S
N1655 C1647 1.427 . S
N1655 C1653 1.384 . S
H1656 C1662 0.930 . S
H1657 C1666 0.930 . S
H1658 C1671 0.929 . S
H1659 C1669 0.929 . S
H1660 C1664 0.929 . S
H1661 C1670 0.929 . S
C1662 H1656 0.930 . S
C1662 C1663 1.367 . S
C1662 C1670 1.378 1_565 S
C1663 C1662 1.367 . S
C1663 C1671 1.433 . S
C1664 H1660 0.929 . S
C1664 C1666 1.378 . S
C1664 C1668 1.350 . S
C1665 C1668 1.463 . S
C1665 C1670 1.350 . S
C1665 N1673 1.427 . S
C1666 H1657 0.930 . S
C1666 C1664 1.378 . S
C1666 C1667 1.367 . S
C1667 C1666 1.367 . S
C1667 C1669 1.433 . S
C1668 C1664 1.350 . S
C1668 C1665 1.463 . S
C1668 N1672 1.427 . S
C1669 H1659 0.929 . S
C1669 C1667 1.433 . S
C1669 N1672 1.384 . S
C1670 H1661 0.929 . S
C1670 C1662 1.378 1_545 S
C1670 C1665 1.350 . S
C1671 H1658 0.929 . S
C1671 C1663 1.433 . S
C1671 N1673 1.384 1_565 S
N1672 C1668 1.427 . S
N1672 C1669 1.384 . S
N1673 C1665 1.427 . S
N1673 C1671 1.384 1_545 S
H1674 C1680 0.930 . S
H1675 C1684 0.930 . S
H1676 C1689 0.929 . S
H1677 C1687 0.929 . S
H1678 C1682 0.929 . S
H1679 C1688 0.929 . S
C1680 H1674 0.930 . S
C1680 C1681 1.367 . S
C1680 C1688 1.378 . S
C1681 C1680 1.367 . S
C1681 C1689 1.433 . S
C1682 H1678 0.929 . S
C1682 C1684 1.378 . S
C1682 C1686 1.350 . S
C1683 C1686 1.463 . S
C1683 C1688 1.350 . S
C1683 N1691 1.427 . S
C1684 H1675 0.930 . S
C1684 C1682 1.378 . S
C1684 C1685 1.367 . S
C1685 C1684 1.367 . S
C1685 C1687 1.433 . S
C1686 C1682 1.350 . S
C1686 C1683 1.463 . S
C1686 N1690 1.427 . S
C1687 H1677 0.929 . S
C1687 C1685 1.433 . S
C1687 N1690 1.384 . S
C1688 H1679 0.929 . S
C1688 C1680 1.378 . S
C1688 C1683 1.350 . S
C1689 H1676 0.929 . S
C1689 C1681 1.433 . S
C1689 N1691 1.384 . S
N1690 C1686 1.427 . S
N1690 C1687 1.384 . S
N1691 C1683 1.427 . S
N1691 C1689 1.384 . S
H1692 C1698 0.930 . S
H1693 C1702 0.930 . S
H1694 C1707 0.929 . S
H1695 C1705 0.929 . S
H1696 C1700 0.929 . S
H1697 C1706 0.929 . S
C1698 H1692 0.930 . S
C1698 C1699 1.367 . S
C1698 C1706 1.378 . S
C1699 C1698 1.367 . S
C1699 C1707 1.433 . S
C1700 H1696 0.929 . S
C1700 C1702 1.378 . S
C1700 C1704 1.350 . S
C1701 C1704 1.463 . S
C1701 C1706 1.350 . S
C1701 N1709 1.427 . S
C1702 H1693 0.930 . S
C1702 C1700 1.378 . S
C1702 C1703 1.367 . S
C1703 C1702 1.367 . S
C1703 C1705 1.433 . S
C1704 C1700 1.350 . S
C1704 C1701 1.463 . S
C1704 N1708 1.427 . S
C1705 H1695 0.929 . S
C1705 C1703 1.433 . S
C1705 N1708 1.384 . S
C1706 H1697 0.929 . S
C1706 C1698 1.378 . S
C1706 C1701 1.350 . S
C1707 H1694 0.929 . S
C1707 C1699 1.433 . S
C1707 N1709 1.384 . S
N1708 C1704 1.427 . S
N1708 C1705 1.384 . S
N1709 C1701 1.427 . S
N1709 C1707 1.384 . S
H1710 C1716 0.930 . S
H1711 C1720 0.930 . S
H1712 C1725 0.929 . S
H1713 C1723 0.929 . S
H1714 C1718 0.929 . S
H1715 C1724 0.929 . S
C1716 H1710 0.930 . S
C1716 C1717 1.367 . S
C1716 C1724 1.378 . S
C1717 C1716 1.367 . S
C1717 C1725 1.433 . S
C1718 H1714 0.929 . S
C1718 C1720 1.378 . S
C1718 C1722 1.350 . S
C1719 C1722 1.463 . S
C1719 C1724 1.350 . S
C1719 N1727 1.427 . S
C1720 H1711 0.930 . S
C1720 C1718 1.378 . S
C1720 C1721 1.367 . S
C1721 C1720 1.367 . S
C1721 C1723 1.433 . S
C1722 C1718 1.350 . S
C1722 C1719 1.463 . S
C1722 N1726 1.427 . S
C1723 H1713 0.929 . S
C1723 C1721 1.433 . S
C1723 N1726 1.384 . S
C1724 H1715 0.929 . S
C1724 C1716 1.378 . S
C1724 C1719 1.350 . S
C1725 H1712 0.929 . S
C1725 C1717 1.433 . S
C1725 N1727 1.384 . S
N1726 C1722 1.427 . S
N1726 C1723 1.384 . S
N1727 C1719 1.427 . S
N1727 C1725 1.384 . S
H1728 C1734 0.930 . S
H1729 C1738 0.930 . S
H1730 C1743 0.929 . S
H1731 C1741 0.929 . S
H1732 C1736 0.935 . S
H1733 C1742 0.929 . S
C1734 H1728 0.930 . S
C1734 C1735 1.367 . S
C1734 C1742 1.378 . S
C1735 C1734 1.367 . S
C1735 C1743 1.433 . S
C1736 H1732 0.935 . S
C1736 C1738 1.383 . S
C1736 C1740 1.339 1_545 S
C1737 C1740 1.463 . S
C1737 C1742 1.350 . S
C1737 N1745 1.427 . S
C1738 H1729 0.930 . S
C1738 C1736 1.383 . S
C1738 C1739 1.367 1_545 S
C1739 C1738 1.367 1_565 S
C1739 C1741 1.433 . S
C1740 C1736 1.339 1_565 S
C1740 C1737 1.463 . S
C1740 N1744 1.427 . S
C1741 H1731 0.929 . S
C1741 C1739 1.433 . S
C1741 N1744 1.384 . S
C1742 H1733 0.929 . S
C1742 C1734 1.378 . S
C1742 C1737 1.350 . S
C1743 H1730 0.929 . S
C1743 C1735 1.433 . S
C1743 N1745 1.384 . S
N1744 C1740 1.427 . S
N1744 C1741 1.384 . S
N1745 C1737 1.427 . S
N1745 C1743 1.384 . S
H1746 C1752 0.930 . S
H1747 C1756 0.930 . S
H1748 C1761 0.929 . S
H1749 C1759 0.929 . S
H1750 C1754 0.929 . S
H1751 C1760 0.929 . S
C1752 H1746 0.930 . S
C1752 C1753 1.367 . S
C1752 C1760 1.378 . S
C1753 C1752 1.367 . S
C1753 C1761 1.433 1_455 S
C1754 H1750 0.929 . S
C1754 C1756 1.378 . S
C1754 C1758 1.350 1_655 S
C1755 C1758 1.463 . S
C1755 C1760 1.350 . S
C1755 N1763 1.427 1_455 S
C1756 H1747 0.930 . S
C1756 C1754 1.378 . S
C1756 C1757 1.367 1_655 S
C1757 C1756 1.367 1_455 S
C1757 C1759 1.433 . S
C1758 C1754 1.350 1_455 S
C1758 C1755 1.463 . S
C1758 N1762 1.427 . S
C1759 H1749 0.929 . S
C1759 C1757 1.433 . S
C1759 N1762 1.384 . S
C1760 H1751 0.929 . S
C1760 C1752 1.378 . S
C1760 C1755 1.350 . S
C1761 H1748 0.929 . S
C1761 C1753 1.433 1_655 S
C1761 N1763 1.384 . S
N1762 C1758 1.427 . S
N1762 C1759 1.384 . S
N1763 C1755 1.427 1_655 S
N1763 C1761 1.384 . S
H1764 C1770 0.930 . S
H1765 C1774 0.930 . S
H1766 C1779 0.929 . S
H1767 C1777 0.929 . S
H1768 C1772 0.929 . S
H1769 C1778 0.929 . S
C1770 H1764 0.930 . S
C1770 C1771 1.367 . S
C1770 C1778 1.378 . S
C1771 C1770 1.367 . S
C1771 C1779 1.433 . S
C1772 H1768 0.929 . S
C1772 C1774 1.378 . S
C1772 C1776 1.350 . S
C1773 C1776 1.463 . S
C1773 C1778 1.350 . S
C1773 N1781 1.427 . S
C1774 H1765 0.930 . S
C1774 C1772 1.378 . S
C1774 C1775 1.367 . S
C1775 C1774 1.367 . S
C1775 C1777 1.433 . S
C1776 C1772 1.350 . S
C1776 C1773 1.463 . S
C1776 N1780 1.427 . S
C1777 H1767 0.929 . S
C1777 C1775 1.433 . S
C1777 N1780 1.384 . S
C1778 H1769 0.929 . S
C1778 C1770 1.378 . S
C1778 C1773 1.350 . S
C1779 H1766 0.929 . S
C1779 C1771 1.433 . S
C1779 N1781 1.384 . S
N1780 C1776 1.427 . S
N1780 C1777 1.384 . S
N1781 C1773 1.427 . S
N1781 C1779 1.384 . S
H1782 C1788 0.930 . S
H1783 C1792 0.930 . S
H1784 C1797 0.929 . S
H1785 C1795 0.929 . S
H1786 C1790 0.929 . S
H1787 C1796 0.929 . S
C1788 H1782 0.930 . S
C1788 C1789 1.367 1_455 S
C1788 C1796 1.378 . S
C1789 C1788 1.367 1_655 S
C1789 C1797 1.433 . S
C1790 H1786 0.929 . S
C1790 C1792 1.378 . S
C1790 C1794 1.350 . S
C1791 C1794 1.463 . S
C1791 C1796 1.350 1_655 S
C1791 N1799 1.427 . S
C1792 H1783 0.930 . S
C1792 C1790 1.378 . S
C1792 C1793 1.367 . S
C1793 C1792 1.367 . S
C1793 C1795 1.433 1_655 S
C1794 C1790 1.350 . S
C1794 C1791 1.463 . S
C1794 N1798 1.427 1_655 S
C1795 H1785 0.929 . S
C1795 C1793 1.433 1_455 S
C1795 N1798 1.384 . S
C1796 H1787 0.929 . S
C1796 C1788 1.378 . S
C1796 C1791 1.350 1_455 S
C1797 H1784 0.929 . S
C1797 C1789 1.433 . S
C1797 N1799 1.384 . S
N1798 C1794 1.427 1_455 S
N1798 C1795 1.384 . S
N1799 C1791 1.427 . S
N1799 C1797 1.384 . S
H1800 C1806 0.930 . S
H1801 C1810 0.930 . S
H1802 C1815 0.929 . S
H1803 C1813 0.929 . S
H1804 C1808 0.929 . S
H1805 C1814 0.929 . S
C1806 H1800 0.930 . S
C1806 C1807 1.367 . S
C1806 C1814 1.378 . S
C1807 C1806 1.367 . S
C1807 C1815 1.433 . S
C1808 H1804 0.929 . S
C1808 C1810 1.378 . S
C1808 C1812 1.350 . S
C1809 C1812 1.463 . S
C1809 C1814 1.350 . S
C1809 N1817 1.427 . S
C1810 H1801 0.930 . S
C1810 C1808 1.378 . S
C1810 C1811 1.367 . S
C1811 C1810 1.367 . S
C1811 C1813 1.433 . S
C1812 C1808 1.350 . S
C1812 C1809 1.463 . S
C1812 N1816 1.427 . S
C1813 H1803 0.929 . S
C1813 C1811 1.433 . S
C1813 N1816 1.384 . S
C1814 H1805 0.929 . S
C1814 C1806 1.378 . S
C1814 C1809 1.350 . S
C1815 H1802 0.929 . S
C1815 C1807 1.433 . S
C1815 N1817 1.384 . S
N1816 C1812 1.427 . S
N1816 C1813 1.384 . S
N1817 C1809 1.427 . S
N1817 C1815 1.384 . S
H1818 C1824 0.930 . S
H1819 C1828 0.930 . S
H1820 C1833 0.929 . S
H1821 C1831 0.929 . S
H1822 C1826 0.929 . S
H1823 C1832 0.929 1_565 S
C1824 H1818 0.930 . S
C1824 C1825 1.367 . S
C1824 C1832 1.378 . S
C1825 C1824 1.367 . S
C1825 C1833 1.433 . S
C1826 H1822 0.929 . S
C1826 C1828 1.378 . S
C1826 C1830 1.350 . S
C1827 C1830 1.463 . S
C1827 C1832 1.350 . S
C1827 N1835 1.427 . S
C1828 H1819 0.930 . S
C1828 C1826 1.378 . S
C1828 C1829 1.367 . S
C1829 C1828 1.367 . S
C1829 C1831 1.433 1_545 S
C1830 C1826 1.350 . S
C1830 C1827 1.463 . S
C1830 N1834 1.465 . S
C1831 H1821 0.929 . S
C1831 C1829 1.433 1_565 S
C1831 N1834 1.374 1_565 S
C1832 H1823 0.929 1_545 S
C1832 C1824 1.378 . S
C1832 C1827 1.350 . S
C1833 H1820 0.929 . S
C1833 C1825 1.433 . S
C1833 N1835 1.384 . S
N1834 C1830 1.465 . S
N1834 C1831 1.374 1_545 S
N1835 C1827 1.427 . S
N1835 C1833 1.384 . S
H1836 C1842 0.930 . S
H1837 C1846 0.930 . S
H1838 C1851 0.929 . S
H1839 C1849 0.929 . S
H1840 C1844 0.929 . S
H1841 C1850 0.929 . S
C1842 H1836 0.930 . S
C1842 C1843 1.367 . S
C1842 C1850 1.378 . S
C1843 C1842 1.367 . S
C1843 C1851 1.433 . S
C1844 H1840 0.929 . S
C1844 C1846 1.378 . S
C1844 C1848 1.350 . S
C1845 C1848 1.463 . S
C1845 C1850 1.350 . S
C1845 N1853 1.427 . S
C1846 H1837 0.930 . S
C1846 C1844 1.378 . S
C1846 C1847 1.367 . S
C1847 C1846 1.367 . S
C1847 C1849 1.433 . S
C1848 C1844 1.350 . S
C1848 C1845 1.463 . S
C1848 N1852 1.427 . S
C1849 H1839 0.929 . S
C1849 C1847 1.433 . S
C1849 N1852 1.384 . S
C1850 H1841 0.929 . S
C1850 C1842 1.378 . S
C1850 C1845 1.350 . S
C1851 H1838 0.929 . S
C1851 C1843 1.433 . S
C1851 N1853 1.384 . S
N1852 C1848 1.427 . S
N1852 C1849 1.384 . S
N1853 C1845 1.427 . S
N1853 C1851 1.384 . S
H1854 C1860 0.930 . S
H1855 C1864 0.930 . S
H1856 C1869 0.929 . S
H1857 C1867 0.929 . S
H1858 C1862 0.929 . S
H1859 C1868 0.929 . S
C1860 H1854 0.930 . S
C1860 C1861 1.367 . S
C1860 C1868 1.378 . S
C1861 C1860 1.367 . S
C1861 C1869 1.433 . S
C1862 H1858 0.929 . S
C1862 C1864 1.378 . S
C1862 C1866 1.350 . S
C1863 C1866 1.463 . S
C1863 C1868 1.350 . S
C1863 N1871 1.427 . S
C1864 H1855 0.930 . S
C1864 C1862 1.378 . S
C1864 C1865 1.367 . S
C1865 C1864 1.367 . S
C1865 C1867 1.433 . S
C1866 C1862 1.350 . S
C1866 C1863 1.463 . S
C1866 N1870 1.427 . S
C1867 H1857 0.929 . S
C1867 C1865 1.433 . S
C1867 N1870 1.384 . S
C1868 H1859 0.929 . S
C1868 C1860 1.378 . S
C1868 C1863 1.350 . S
C1869 H1856 0.929 . S
C1869 C1861 1.433 . S
C1869 N1871 1.384 . S
N1870 C1866 1.427 . S
N1870 C1867 1.384 . S
N1871 C1863 1.427 . S
N1871 C1869 1.384 . S
H1872 C1878 0.930 . S
H1873 C1882 0.930 . S
H1874 C1887 0.929 . S
H1875 C1885 0.929 . S
H1876 C1880 0.929 . S
H1877 C1886 0.929 . S
C1878 H1872 0.930 . S
C1878 C1879 1.367 . S
C1878 C1886 1.378 . S
C1879 C1878 1.367 . S
C1879 C1887 1.433 . S
C1880 H1876 0.929 . S
C1880 C1882 1.378 . S
C1880 C1884 1.350 . S
C1881 C1884 1.463 . S
C1881 C1886 1.350 . S
C1881 N1889 1.427 . S
C1882 H1873 0.930 . S
C1882 C1880 1.378 . S
C1882 C1883 1.367 . S
C1883 C1882 1.367 . S
C1883 C1885 1.433 . S
C1884 C1880 1.350 . S
C1884 C1881 1.463 . S
C1884 N1888 1.427 . S
C1885 H1875 0.929 . S
C1885 C1883 1.433 . S
C1885 N1888 1.384 . S
C1886 H1877 0.929 . S
C1886 C1878 1.378 . S
C1886 C1881 1.350 . S
C1887 H1874 0.929 . S
C1887 C1879 1.433 . S
C1887 N1889 1.384 . S
N1888 C1884 1.427 . S
N1888 C1885 1.384 . S
N1889 C1881 1.427 . S
N1889 C1887 1.384 . S
H1890 C1896 0.930 . S
H1891 C1900 0.930 . S
H1892 C1905 0.929 . S
H1893 C1903 0.929 . S
H1894 C1898 0.929 . S
H1895 C1904 0.929 . S
C1896 H1890 0.930 . S
C1896 C1897 1.367 . S
C1896 C1904 1.378 . S
C1897 C1896 1.367 . S
C1897 C1905 1.433 . S
C1898 H1894 0.929 . S
C1898 C1900 1.378 . S
C1898 C1902 1.350 . S
C1899 C1902 1.463 . S
C1899 C1904 1.350 . S
C1899 N1907 1.427 . S
C1900 H1891 0.930 . S
C1900 C1898 1.378 . S
C1900 C1901 1.367 . S
C1901 C1900 1.367 . S
C1901 C1903 1.433 . S
C1902 C1898 1.350 . S
C1902 C1899 1.463 . S
C1902 N1906 1.427 . S
C1903 H1893 0.929 . S
C1903 C1901 1.433 . S
C1903 N1906 1.384 . S
C1904 H1895 0.929 . S
C1904 C1896 1.378 . S
C1904 C1899 1.350 . S
C1905 H1892 0.929 . S
C1905 C1897 1.433 . S
C1905 N1907 1.384 . S
N1906 C1902 1.427 . S
N1906 C1903 1.384 . S
N1907 C1899 1.427 . S
N1907 C1905 1.384 . S
H1908 C1914 0.930 . S
H1909 C1918 0.930 . S
H1910 C1923 0.929 . S
H1911 C1921 0.929 . S
H1912 C1916 0.929 . S
H1913 C1922 0.929 . S
C1914 H1908 0.930 . S
C1914 C1915 1.367 . S
C1914 C1922 1.378 . S
C1915 C1914 1.367 . S
C1915 C1923 1.433 . S
C1916 H1912 0.929 . S
C1916 C1918 1.378 . S
C1916 C1920 1.350 . S
C1917 C1920 1.463 . S
C1917 C1922 1.350 . S
C1917 N1925 1.427 . S
C1918 H1909 0.930 . S
C1918 C1916 1.378 . S
C1918 C1919 1.367 . S
C1919 C1918 1.367 . S
C1919 C1921 1.433 . S
C1920 C1916 1.350 . S
C1920 C1917 1.463 . S
C1920 N1924 1.427 . S
C1921 H1911 0.929 . S
C1921 C1919 1.433 . S
C1921 N1924 1.384 . S
C1922 H1913 0.929 . S
C1922 C1914 1.378 . S
C1922 C1917 1.350 . S
C1923 H1910 0.929 . S
C1923 C1915 1.433 . S
C1923 N1925 1.384 . S
N1924 C1920 1.427 . S
N1924 C1921 1.384 . S
N1925 C1917 1.427 . S
N1925 C1923 1.384 . S
H1926 C1932 0.930 . S
H1927 C1936 0.930 . S
H1928 C1941 0.929 . S
H1929 C1939 0.929 . S
H1930 C1934 0.929 . S
H1931 C1940 0.929 . S
C1932 H1926 0.930 . S
C1932 C1933 1.367 . S
C1932 C1940 1.378 . S
C1933 C1932 1.367 . S
C1933 C1941 1.433 . S
C1934 H1930 0.929 . S
C1934 C1936 1.378 . S
C1934 C1938 1.350 . S
C1935 C1938 1.463 . S
C1935 C1940 1.350 . S
C1935 N1943 1.427 . S
C1936 H1927 0.930 . S
C1936 C1934 1.378 . S
C1936 C1937 1.367 . S
C1937 C1936 1.367 . S
C1937 C1939 1.433 . S
C1938 C1934 1.350 . S
C1938 C1935 1.463 . S
C1938 N1942 1.427 . S
C1939 H1929 0.929 . S
C1939 C1937 1.433 . S
C1939 N1942 1.384 . S
C1940 H1931 0.929 . S
C1940 C1932 1.378 . S
C1940 C1935 1.350 . S
C1941 H1928 0.929 . S
C1941 C1933 1.433 . S
C1941 N1943 1.384 . S
N1942 C1938 1.427 . S
N1942 C1939 1.384 . S
N1943 C1935 1.427 . S
N1943 C1941 1.384 . S
H1944 C1950 0.930 . S
H1945 C1954 0.930 . S
H1946 C1959 0.929 . S
H1947 C1957 0.929 . S
H1948 C1952 0.929 . S
H1949 C1958 0.929 . S
C1950 H1944 0.930 . S
C1950 C1951 1.367 . S
C1950 C1958 1.378 . S
C1951 C1950 1.367 . S
C1951 C1959 1.433 . S
C1952 H1948 0.929 . S
C1952 C1954 1.378 . S
C1952 C1956 1.350 . S
C1953 C1956 1.463 . S
C1953 C1958 1.350 . S
C1953 N1961 1.427 . S
C1954 H1945 0.930 . S
C1954 C1952 1.378 . S
C1954 C1955 1.367 . S
C1955 C1954 1.367 . S
C1955 C1957 1.433 . S
C1956 C1952 1.350 . S
C1956 C1953 1.463 . S
C1956 N1960 1.427 . S
C1957 H1947 0.929 . S
C1957 C1955 1.433 . S
C1957 N1960 1.384 . S
C1958 H1949 0.929 . S
C1958 C1950 1.378 . S
C1958 C1953 1.350 . S
C1959 H1946 0.929 . S
C1959 C1951 1.433 . S
C1959 N1961 1.384 . S
N1960 C1956 1.427 . S
N1960 C1957 1.384 . S
N1961 C1953 1.427 . S
N1961 C1959 1.384 . S
H1962 C1968 0.930 . S
H1963 C1972 0.930 . S
H1964 C1977 0.929 . S
H1965 C1975 0.929 . S
H1966 C1970 0.929 . S
H1967 C1976 0.929 . S
C1968 H1962 0.930 . S
C1968 C1969 1.367 . S
C1968 C1976 1.378 . S
C1969 C1968 1.367 . S
C1969 C1977 1.433 . S
C1970 H1966 0.929 . S
C1970 C1972 1.378 . S
C1970 C1974 1.350 . S
C1971 C1974 1.463 . S
C1971 C1976 1.350 . S
C1971 N1979 1.427 . S
C1972 H1963 0.930 . S
C1972 C1970 1.378 . S
C1972 C1973 1.367 . S
C1973 C1972 1.367 . S
C1973 C1975 1.433 . S
C1974 C1970 1.350 . S
C1974 C1971 1.463 . S
C1974 N1978 1.427 . S
C1975 H1965 0.929 . S
C1975 C1973 1.433 . S
C1975 N1978 1.384 . S
C1976 H1967 0.929 . S
C1976 C1968 1.378 . S
C1976 C1971 1.350 . S
C1977 H1964 0.929 . S
C1977 C1969 1.433 . S
C1977 N1979 1.384 . S
N1978 C1974 1.427 . S
N1978 C1975 1.384 . S
N1979 C1971 1.427 . S
N1979 C1977 1.384 . S
H1980 C1986 0.930 . S
H1981 C1990 0.930 . S
H1982 C1995 0.929 . S
H1983 C1993 0.929 . S
H1984 C1988 0.929 . S
H1985 C1994 0.929 . S
C1986 H1980 0.930 . S
C1986 C1987 1.367 . S
C1986 C1994 1.378 . S
C1987 C1986 1.367 . S
C1987 C1995 1.433 . S
C1988 H1984 0.929 . S
C1988 C1990 1.378 . S
C1988 C1992 1.350 . S
C1989 C1992 1.463 . S
C1989 C1994 1.350 . S
C1989 N1997 1.427 . S
C1990 H1981 0.930 . S
C1990 C1988 1.378 . S
C1990 C1991 1.367 . S
C1991 C1990 1.367 . S
C1991 C1993 1.433 . S
C1992 C1988 1.350 . S
C1992 C1989 1.463 . S
C1992 N1996 1.427 . S
C1993 H1983 0.929 . S
C1993 C1991 1.433 . S
C1993 N1996 1.384 . S
C1994 H1985 0.929 . S
C1994 C1986 1.378 . S
C1994 C1989 1.350 . S
C1995 H1982 0.929 . S
C1995 C1987 1.433 . S
C1995 N1997 1.384 . S
N1996 C1992 1.427 . S
N1996 C1993 1.384 . S
N1997 C1989 1.427 . S
N1997 C1995 1.384 . S
H1998 C2004 0.930 . S
H1999 C2008 0.930 . S
H2000 C2013 0.929 . S
H2001 C2011 0.929 . S
H2002 C2006 0.929 . S
H2003 C2012 0.929 . S
C2004 H1998 0.930 . S
C2004 C2005 1.367 . S
C2004 C2012 1.378 . S
C2005 C2004 1.367 . S
C2005 C2013 1.433 . S
C2006 H2002 0.929 . S
C2006 C2008 1.378 . S
C2006 C2010 1.350 . S
C2007 C2010 1.463 . S
C2007 C2012 1.350 . S
C2007 N2015 1.427 . S
C2008 H1999 0.930 . S
C2008 C2006 1.378 . S
C2008 C2009 1.367 . S
C2009 C2008 1.367 . S
C2009 C2011 1.433 . S
C2010 C2006 1.350 . S
C2010 C2007 1.463 . S
C2010 N2014 1.427 . S
C2011 H2001 0.929 . S
C2011 C2009 1.433 . S
C2011 N2014 1.384 . S
C2012 H2003 0.929 . S
C2012 C2004 1.378 . S
C2012 C2007 1.350 . S
C2013 H2000 0.929 . S
C2013 C2005 1.433 . S
C2013 N2015 1.384 . S
N2014 C2010 1.427 . S
N2014 C2011 1.384 . S
N2015 C2007 1.427 . S
N2015 C2013 1.384 . S
H2016 C2022 0.930 . S
H2017 C2026 0.930 . S
H2018 C2031 0.929 . S
H2019 C2029 0.929 . S
H2020 C2024 0.929 . S
H2021 C2030 0.929 . S
C2022 H2016 0.930 . S
C2022 C2023 1.367 . S
C2022 C2030 1.378 . S
C2023 C2022 1.367 . S
C2023 C2031 1.433 . S
C2024 H2020 0.929 . S
C2024 C2026 1.378 . S
C2024 C2028 1.350 . S
C2025 C2028 1.463 . S
C2025 C2030 1.350 . S
C2025 N2033 1.427 . S
C2026 H2017 0.930 . S
C2026 C2024 1.378 . S
C2026 C2027 1.367 . S
C2027 C2026 1.367 . S
C2027 C2029 1.433 . S
C2028 C2024 1.350 . S
C2028 C2025 1.463 . S
C2028 N2032 1.427 . S
C2029 H2019 0.929 . S
C2029 C2027 1.433 . S
C2029 N2032 1.384 . S
C2030 H2021 0.929 . S
C2030 C2022 1.378 . S
C2030 C2025 1.350 . S
C2031 H2018 0.929 . S
C2031 C2023 1.433 . S
C2031 N2033 1.384 . S
N2032 C2028 1.427 . S
N2032 C2029 1.384 . S
N2033 C2025 1.427 . S
N2033 C2031 1.384 . S
H2034 C2040 0.930 . S
H2035 C2044 0.930 . S
H2036 C2049 0.929 . S
H2037 C2047 0.929 . S
H2038 C2042 0.929 . S
H2039 C2048 0.929 . S
C2040 H2034 0.930 . S
C2040 C2041 1.367 . S
C2040 C2048 1.378 . S
C2041 C2040 1.367 . S
C2041 C2049 1.433 . S
C2042 H2038 0.929 . S
C2042 C2044 1.378 . S
C2042 C2046 1.350 . S
C2043 C2046 1.463 . S
C2043 C2048 1.350 . S
C2043 N2051 1.427 . S
C2044 H2035 0.930 . S
C2044 C2042 1.378 . S
C2044 C2045 1.367 . S
C2045 C2044 1.367 . S
C2045 C2047 1.433 . S
C2046 C2042 1.350 . S
C2046 C2043 1.463 . S
C2046 N2050 1.427 . S
C2047 H2037 0.929 . S
C2047 C2045 1.433 . S
C2047 N2050 1.384 . S
C2048 H2039 0.929 . S
C2048 C2040 1.378 . S
C2048 C2043 1.350 . S
C2049 H2036 0.929 . S
C2049 C2041 1.433 . S
C2049 N2051 1.384 . S
N2050 C2046 1.427 . S
N2050 C2047 1.384 . S
N2051 C2043 1.427 . S
N2051 C2049 1.384 . S
C1087 C522 1.749 . S
C1091 C729 1.701 . S
C1105 C562 1.823 . S
C1109 C769 1.781 . S
C1123 C495 1.809 . S
C1127 C808 1.821 . S
C1141 C455 1.611 . S
C1145 C768 1.604 1_556 S
C1163 C809 1.464 . S
C1159 C362 1.492 . S
C1177 C402 1.516 . S
C1181 C728 1.503 1_556 S
C1199 C739 1.715 . S
C1195 C442 1.675 . S
C1217 C779 1.747 . S
C1213 C375 1.777 . S
C1231 C415 1.821 . S
C1235 C818 1.823 1_556 S
C1249 C535 1.626 . S
C1253 C778 1.619 . S
C1267 C575 1.453 . S
C1271 C819 1.431 . S
C1289 C738 1.541 . S
C1285 C482 1.458 . S
C1307 C849 1.694 . S
C1303 C42 1.743 . S
C1321 C82 1.823 . S
C1325 C889 1.782 . S
C1339 C15 1.801 . S
C1343 C928 1.820 . S
C1357 C695 1.612 . S
C1361 C888 1.606 . S
C1375 C602 1.488 . S
C1379 C929 1.458 . S
C1393 C642 1.524 . S
C1397 C848 1.511 . S
C1411 C682 1.683 . S
C1415 C859 1.721 . S
C1429 C615 1.780 . S
C1433 C899 1.751 . S
C1451 C938 1.823 . S
C1447 C655 1.820 . S
C1465 C55 1.621 . S
C1469 C898 1.618 . S
C1487 C939 1.432 . S
C1483 C95 1.452 1_455 S
C1501 C2 1.453 . S
C1505 C858 1.542 . S
C1523 C969 1.696 . S
C1519 C282 1.744 . S
C1537 C322 1.822 . S
C1541 C1009 1.774 . S
C1559 C1048 1.822 . S
C1555 C255 1.801 . S
C1577 C1008 1.610 . S
C1573 C215 1.607 . S
C1595 C1049 1.469 . S
C1591 C122 1.465 1_655 S
C1609 C162 1.515 . S
C1613 C968 1.507 . S
C1627 C202 1.687 . S
C1631 C979 1.726 . S
C1645 C135 1.777 . S
C1649 C1019 1.747 . S
C1667 C1058 1.821 . S
C1663 C175 1.817 . S
C1681 C295 1.619 . S
C1685 C1018 1.616 . S
C1699 C335 1.456 . S
C1703 C1059 1.434 . S
C1717 C242 1.453 . S
C1721 C978 1.533 . S
C1735 C621 1.295 . S
C1739 C725 1.293 . S
C1757 C765 1.911 . S
C1753 C661 1.919 . S
C1771 C701 1.575 . S
C1775 C815 1.629 . S
C1789 C261 1.860 . S
C1793 C775 1.932 . S
C1807 C301 1.607 . S
C1811 C805 1.608 . S
C1829 C735 1.286 . S
C1825 C341 1.288 . S
C1843 C141 1.295 . S
C1847 C845 1.292 . S
C1861 C181 1.921 . S
C1865 C885 1.912 . S
C1879 C221 1.572 . S
C1883 C935 1.628 . S
C1897 C501 1.855 . S
C1901 C895 1.930 . S
C1919 C925 1.608 . S
C1915 C541 1.607 . S
C1933 C581 1.289 . S
C1937 C855 1.286 . S
C1951 C381 1.291 . S
C1955 C965 1.290 . S
C1969 C421 1.920 . S
C1973 C1005 1.912 . S
C1991 C1055 1.630 . S
C1987 C461 1.582 . S
C2005 C21 1.857 . S
C2009 C1015 1.932 . S
C2023 C61 1.608 . S
C2027 C1045 1.608 . S
C2041 C101 1.289 . S
C2045 C975 1.286 . S
