# Generated by pormake.
# Topology pyr, (3,6)-cn, num edge types: 1
# Building blocks:
#     Node 0, Type 0, BuildingBlock: WUSLED_clean_sbu_0, # of connection points: 3
#     Node 1, Type 0, BuildingBlock: WUSLED_clean_sbu_0, # of connection points: 3
#     Node 2, Type 0, BuildingBlock: WUSLED_clean_sbu_0, # of connection points: 3
#     Node 3, Type 0, BuildingBlock: WUSLED_clean_sbu_0, # of connection points: 3
#     Node 4, Type 0, BuildingBlock: WUSLED_clean_sbu_0, # of connection points: 3
#     Node 5, Type 0, BuildingBlock: WUSLED_clean_sbu_0, # of connection points: 3
#     Node 6, Type 0, BuildingBlock: WUSLED_clean_sbu_0, # of connection points: 3
#     Node 7, Type 0, BuildingBlock: WUSLED_clean_sbu_0, # of connection points: 3
#     Node 8, Type 1, BuildingBlock: JUFBIX_clean_sbu_0, # of connection points: 6
#     Node 9, Type 1, BuildingBlock: JUFBIX_clean_sbu_0, # of connection points: 6
#     Node 10, Type 1, BuildingBlock: JUFBIX_clean_sbu_0, # of connection points: 6
#     Node 11, Type 1, BuildingBlock: JUFBIX_clean_sbu_0, # of connection points: 6
#     Edge 12, Type (0, 1), BuildingBlock: MIFKUJ_clean_linker_0, # of connection points: 2
#     Edge 13, Type (0, 1), BuildingBlock: MIFKUJ_clean_linker_0, # of connection points: 2
#     Edge 14, Type (0, 1), BuildingBlock: MIFKUJ_clean_linker_0, # of connection points: 2
#     Edge 15, Type (0, 1), BuildingBlock: MIFKUJ_clean_linker_0, # of connection points: 2
#     Edge 16, Type (0, 1), BuildingBlock: MIFKUJ_clean_linker_0, # of connection points: 2
#     Edge 17, Type (0, 1), BuildingBlock: MIFKUJ_clean_linker_0, # of connection points: 2
#     Edge 18, Type (0, 1), BuildingBlock: MIFKUJ_clean_linker_0, # of connection points: 2
#     Edge 19, Type (0, 1), BuildingBlock: MIFKUJ_clean_linker_0, # of connection points: 2
#     Edge 20, Type (0, 1), BuildingBlock: MIFKUJ_clean_linker_0, # of connection points: 2
#     Edge 21, Type (0, 1), BuildingBlock: MIFKUJ_clean_linker_0, # of connection points: 2
#     Edge 22, Type (0, 1), BuildingBlock: MIFKUJ_clean_linker_0, # of connection points: 2
#     Edge 23, Type (0, 1), BuildingBlock: MIFKUJ_clean_linker_0, # of connection points: 2
#     Edge 24, Type (0, 1), BuildingBlock: MIFKUJ_clean_linker_0, # of connection points: 2
#     Edge 25, Type (0, 1), BuildingBlock: MIFKUJ_clean_linker_0, # of connection points: 2
#     Edge 26, Type (0, 1), BuildingBlock: MIFKUJ_clean_linker_0, # of connection points: 2
#     Edge 27, Type (0, 1), BuildingBlock: MIFKUJ_clean_linker_0, # of connection points: 2
#     Edge 28, Type (0, 1), BuildingBlock: MIFKUJ_clean_linker_0, # of connection points: 2
#     Edge 29, Type (0, 1), BuildingBlock: MIFKUJ_clean_linker_0, # of connection points: 2
#     Edge 30, Type (0, 1), BuildingBlock: MIFKUJ_clean_linker_0, # of connection points: 2
#     Edge 31, Type (0, 1), BuildingBlock: MIFKUJ_clean_linker_0, # of connection points: 2
#     Edge 32, Type (0, 1), BuildingBlock: MIFKUJ_clean_linker_0, # of connection points: 2
#     Edge 33, Type (0, 1), BuildingBlock: MIFKUJ_clean_linker_0, # of connection points: 2
#     Edge 34, Type (0, 1), BuildingBlock: MIFKUJ_clean_linker_0, # of connection points: 2
#     Edge 35, Type (0, 1), BuildingBlock: MIFKUJ_clean_linker_0, # of connection points: 2
# Relax obj value: 0.032
# Max RMSD: 0.085
# Mean RMSD: 0.028
data_MOF--net-pyr--node1-WUSLED_clean_sbu_0--node2-JUFBIX_clean_sbu_0--edge1-MIFKUJ_clean_linker_0
_symmetry_space_group_name_H-M    P1
_symmetry_Int_Tables_number       1
_symmetry_cell_setting            triclinic
loop_
_symmetry_equiv_pos_as_xyz
'x, y, z'
_cell_length_a     59.665781
_cell_length_b     57.566929
_cell_length_c     59.453215
_cell_angle_alpha  86.413153
_cell_angle_beta   90.785631
_cell_angle_gamma 92.432194
loop_
_atom_site_label
_atom_site_type_symbol
_atom_site_fract_x
_atom_site_fract_y
_atom_site_fract_z
_atom_type_partial_charge
C0 C 0.11859 0.1919 0.11084 0.0
C1 C 0.09744 0.1983 0.11803 0.0
C2 C 0.09933 0.23464 0.0936 0.0
C3 C 0.08796 0.21929 0.10956 0.0
C4 C 0.12018 0.22761 0.08593 0.0
C5 C 0.12964 0.20673 0.09445 0.0
U6 U 0.14777 0.13314 0.14056 0.0
O7 O 0.16401 0.10963 0.11774 0.0
O8 O 0.18507 0.1326 0.13846 0.0
C9 C 0.18443 0.11664 0.1236 0.0
C10 C 0.12982 0.17072 0.12108 0.0
C11 C 0.20532 0.10725 0.1139 0.0
C12 C 0.2358 0.11018 0.08616 0.0
C13 C 0.21548 0.11803 0.09448 0.0
C14 C 0.23636 0.0802 0.11624 0.0
C15 C 0.24696 0.09121 0.09696 0.0
C16 C 0.21601 0.08807 0.12452 0.0
C17 C 0.11875 0.1051 0.19965 0.0
C18 C 0.11465 0.07726 0.23256 0.0
C19 C 0.09205 0.11105 0.22975 0.0
C20 C 0.1022 0.11831 0.20887 0.0
C21 C 0.09826 0.09046 0.24227 0.0
C22 C 0.12454 0.08439 0.21171 0.0
C23 C 0.13126 0.11273 0.17839 0.0
O24 O 0.14579 0.17181 0.13646 0.0
O25 O 0.12337 0.14942 0.11636 0.0
O26 O 0.12442 0.1069 0.1583 0.0
O27 O 0.14617 0.13021 0.17792 0.0
H28 H 0.08844 0.18733 0.13065 0.0
H29 H 0.07199 0.22382 0.11613 0.0
H30 H 0.1294 0.23833 0.0733 0.0
H31 H 0.14585 0.20231 0.08837 0.0
H32 H 0.24269 0.1191 0.07108 0.0
H33 H 0.20778 0.1328 0.08578 0.0
H34 H 0.24405 0.06577 0.12547 0.0
H35 H 0.2088 0.07931 0.13955 0.0
H36 H 0.12051 0.0616 0.24132 0.0
H37 H 0.07929 0.12171 0.23599 0.0
H38 H 0.09722 0.13434 0.20006 0.0
H39 H 0.13729 0.07383 0.20521 0.0
C40 C 0.34766 0.88159 0.59754 0.0
C41 C 0.33964 0.89447 0.61481 0.0
C42 C 0.309 0.90739 0.59045 0.0
C43 C 0.32032 0.90719 0.61133 0.0
C44 C 0.31749 0.895 0.57303 0.0
C45 C 0.33666 0.88213 0.57659 0.0
U46 U 0.39945 0.86686 0.63174 0.0
O47 O 0.4129 0.83326 0.64337 0.0
O48 O 0.43299 0.85774 0.62116 0.0
C49 C 0.43119 0.83682 0.63135 0.0
C50 C 0.36737 0.86742 0.60126 0.0
C51 C 0.43704 0.81747 0.61796 0.0
C52 C 0.42763 0.7889 0.59051 0.0
C53 C 0.42242 0.80887 0.6014 0.0
C54 C 0.46228 0.78663 0.61219 0.0
C55 C 0.44736 0.77732 0.59631 0.0
C56 C 0.45717 0.80656 0.62289 0.0
C57 C 0.41253 0.90277 0.68294 0.0
C58 C 0.44219 0.89483 0.71049 0.0
C59 C 0.41829 0.92739 0.71424 0.0
C60 C 0.40672 0.92196 0.69461 0.0
C61 C 0.43593 0.91379 0.7224 0.0
C62 C 0.43046 0.88928 0.69081 0.0
C63 C 0.39912 0.89691 0.66309 0.0
O64 O 0.3868 0.87873 0.59822 0.0
O65 O 0.36683 0.85335 0.61956 0.0
O66 O 0.38809 0.87663 0.6647 0.0
O67 O 0.4088 0.90146 0.6435 0.0
H68 H 0.34812 0.89442 0.63104 0.0
H69 H 0.31414 0.91671 0.62496 0.0
H70 H 0.30889 0.89466 0.55689 0.0
H71 H 0.3427 0.87232 0.5631 0.0
H72 H 0.41585 0.78195 0.57836 0.0
H73 H 0.40677 0.81718 0.59742 0.0
H74 H 0.4777 0.77811 0.61673 0.0
H75 H 0.46865 0.81305 0.63554 0.0
H76 H 0.45567 0.88406 0.71672 0.0
H77 H 0.41325 0.94205 0.72329 0.0
H78 H 0.39296 0.93252 0.68875 0.0
H79 H 0.43509 0.87434 0.68195 0.0
C80 C 0.62291 0.42411 0.83257 0.0
C81 C 0.62843 0.44561 0.82119 0.0
C82 C 0.6027 0.43732 0.79006 0.0
C83 C 0.61856 0.45211 0.80038 0.0
C84 C 0.59613 0.41613 0.802 0.0
C85 C 0.60628 0.40948 0.82301 0.0
U86 U 0.64663 0.39145 0.88972 0.0
O87 O 0.61771 0.37455 0.90842 0.0
O88 O 0.63873 0.35377 0.88799 0.0
C89 C 0.62114 0.35396 0.90103 0.0
C90 C 0.63644 0.41771 0.85321 0.0
C91 C 0.61438 0.33242 0.915 0.0
C92 C 0.58528 0.30188 0.92252 0.0
C93 C 0.59233 0.3235 0.91234 0.0
C94 C 0.62208 0.29766 0.93934 0.0
C95 C 0.60002 0.28836 0.93598 0.0
C96 C 0.62922 0.31944 0.9289 0.0
C97 C 0.70319 0.41566 0.92107 0.0
C98 C 0.73245 0.42078 0.94979 0.0
C99 C 0.73631 0.4416 0.91344 0.0
C100 C 0.71553 0.4314 0.90639 0.0
C101 C 0.74528 0.43621 0.93525 0.0
C102 C 0.71184 0.41085 0.94284 0.0
C103 C 0.6824 0.40212 0.91445 0.0
O104 O 0.64949 0.3999 0.85308 0.0
O105 O 0.6286 0.42103 0.87327 0.0
O106 O 0.66247 0.41003 0.91794 0.0
O107 O 0.6829 0.389 0.89716 0.0
H108 H 0.64105 0.4573 0.82815 0.0
H109 H 0.62372 0.46876 0.79216 0.0
H110 H 0.58386 0.40432 0.7947 0.0
H111 H 0.60156 0.3928 0.83142 0.0
H112 H 0.56837 0.29542 0.919 0.0
H113 H 0.58059 0.33297 0.90157 0.0
H114 H 0.63389 0.28803 0.94984 0.0
H115 H 0.64636 0.32585 0.93131 0.0
H116 H 0.73865 0.41561 0.96646 0.0
H117 H 0.74537 0.45361 0.90174 0.0
H118 H 0.70935 0.43552 0.88946 0.0
H119 H 0.70288 0.39864 0.95446 0.0
C120 C 0.86626 0.59706 0.42961 0.0
C121 C 0.85672 0.61396 0.44213 0.0
C122 C 0.82466 0.58748 0.45067 0.0
C123 C 0.83602 0.6092 0.45262 0.0
C124 C 0.83513 0.57016 0.43943 0.0
C125 C 0.85569 0.57496 0.42891 0.0
U126 U 0.91798 0.63535 0.41266 0.0
O127 O 0.9504 0.62538 0.39962 0.0
O128 O 0.92879 0.64831 0.37887 0.0
C129 C 0.94693 0.63609 0.37976 0.0
C130 C 0.88598 0.6027 0.4155 0.0
C131 C 0.95059 0.62259 0.35998 0.0
C132 C 0.93725 0.59586 0.33206 0.0
C133 C 0.93426 0.60649 0.35237 0.0
C134 C 0.97326 0.61655 0.32746 0.0
C135 C 0.95656 0.60129 0.31908 0.0
C136 C 0.97026 0.62711 0.34766 0.0
C137 C 0.93198 0.68904 0.4476 0.0
C138 C 0.95303 0.72491 0.4363 0.0
C139 C 0.94003 0.71826 0.47466 0.0
C140 C 0.93064 0.6966 0.46945 0.0
C141 C 0.9508 0.73306 0.45801 0.0
C142 C 0.94372 0.70306 0.43115 0.0
C143 C 0.9194 0.66749 0.44221 0.0
O144 O 0.88481 0.62178 0.40229 0.0
O145 O 0.90566 0.60039 0.42541 0.0
O146 O 0.92996 0.64794 0.4452 0.0
O147 O 0.90706 0.6687 0.42372 0.0
H148 H 0.86478 0.63112 0.44294 0.0
H149 H 0.82838 0.62288 0.46117 0.0
H150 H 0.82702 0.5531 0.43809 0.0
H151 H 0.86292 0.56168 0.41948 0.0
H152 H 0.92405 0.58423 0.32606 0.0
H153 H 0.91894 0.60274 0.36173 0.0
H154 H 0.9885 0.62076 0.31812 0.0
H155 H 0.98309 0.63937 0.35332 0.0
H156 H 0.96112 0.73576 0.423 0.0
H157 H 0.93847 0.72355 0.4917 0.0
H158 H 0.92173 0.68597 0.48241 0.0
H159 H 0.945 0.69748 0.41416 0.0
C160 C 0.90108 0.83032 0.9231 0.0
C161 C 0.91601 0.82036 0.90858 0.0
C162 C 0.92367 0.78831 0.93712 0.0
C163 C 0.92726 0.79976 0.91556 0.0
C164 C 0.90924 0.79893 0.95164 0.0
C165 C 0.89826 0.81941 0.94478 0.0
U166 U 0.8752 0.88759 0.89001 0.0
O167 O 0.83862 0.89346 0.8881 0.0
O168 O 0.86041 0.9167 0.90725 0.0
C169 C 0.83982 0.91177 0.9003 0.0
C170 C 0.88688 0.85087 0.91646 0.0
C171 C 0.81967 0.91786 0.91392 0.0
C172 C 0.78605 0.90792 0.93701 0.0
C173 C 0.80607 0.90139 0.92668 0.0
C174 C 0.79275 0.9475 0.92245 0.0
C175 C 0.7787 0.93113 0.93489 0.0
C176 C 0.81268 0.94101 0.91229 0.0
C177 C 0.90802 0.91095 0.83144 0.0
C178 C 0.9055 0.9374 0.79731 0.0
C179 C 0.93711 0.91285 0.80231 0.0
C180 C 0.92842 0.90375 0.82315 0.0
C181 C 0.92578 0.92969 0.78867 0.0
C182 C 0.89672 0.92812 0.81828 0.0
C183 C 0.8991 0.89933 0.85325 0.0
O184 O 0.89477 0.87223 0.91906 0.0
O185 O 0.87285 0.84964 0.89931 0.0
O186 O 0.88118 0.88524 0.85339 0.0
O187 O 0.90348 0.90797 0.87287 0.0
H188 H 0.91869 0.82822 0.89176 0.0
H189 H 0.93819 0.7924 0.90375 0.0
H190 H 0.90626 0.79135 0.96851 0.0
H191 H 0.88702 0.82655 0.95648 0.0
H192 H 0.77629 0.89461 0.94664 0.0
H193 H 0.81071 0.88339 0.92843 0.0
H194 H 0.78804 0.96541 0.91981 0.0
H195 H 0.82241 0.95421 0.90244 0.0
H196 H 0.896 0.95021 0.7876 0.0
H197 H 0.95293 0.90662 0.797 0.0
H198 H 0.93768 0.89066 0.83279 0.0
H199 H 0.88099 0.93419 0.82403 0.0
C200 C 0.59155 0.14493 0.35037 0.0
C201 C 0.60326 0.12461 0.34781 0.0
C202 C 0.58188 0.11743 0.31351 0.0
C203 C 0.59844 0.11094 0.32953 0.0
C204 C 0.57062 0.13811 0.31604 0.0
C205 C 0.57536 0.15164 0.33433 0.0
U206 U 0.62649 0.15951 0.40172 0.0
O207 O 0.63766 0.19308 0.41456 0.0
O208 O 0.61622 0.16862 0.43539 0.0
C209 C 0.62591 0.18955 0.4331 0.0
C210 C 0.59589 0.15919 0.36971 0.0
C211 C 0.61205 0.20882 0.4387 0.0
C212 C 0.58588 0.23888 0.42797 0.0
C213 C 0.59762 0.21942 0.42268 0.0
C214 C 0.60217 0.2366 0.46558 0.0
C215 C 0.5883 0.24786 0.44939 0.0
C216 C 0.61397 0.21729 0.46024 0.0
C217 C 0.6778 0.12323 0.4155 0.0
C218 C 0.70762 0.13347 0.44173 0.0
C219 C 0.70718 0.09632 0.42457 0.0
C220 C 0.68746 0.10184 0.41298 0.0
C221 C 0.71762 0.1122 0.43881 0.0
C222 C 0.68773 0.13892 0.43021 0.0
C223 C 0.65794 0.12908 0.40189 0.0
O224 O 0.59309 0.1482 0.38959 0.0
O225 O 0.61418 0.17274 0.36849 0.0
O226 O 0.65926 0.1493 0.39032 0.0
O227 O 0.63852 0.12471 0.41176 0.0
H228 H 0.61596 0.11926 0.36004 0.0
H229 H 0.60742 0.09514 0.32817 0.0
H230 H 0.55824 0.14405 0.30374 0.0
H231 H 0.56633 0.16738 0.33595 0.0
H232 H 0.57516 0.2471 0.41523 0.0
H233 H 0.59581 0.21297 0.40599 0.0
H234 H 0.60461 0.24328 0.48211 0.0
H235 H 0.62504 0.20929 0.47279 0.0
H236 H 0.7153 0.14593 0.45272 0.0
H237 H 0.7147 0.07996 0.42176 0.0
H238 H 0.68001 0.0896 0.40163 0.0
H239 H 0.68037 0.1555 0.43241 0.0
C240 C 0.32102 0.60171 0.13337 0.0
C241 C 0.31196 0.6182 0.11768 0.0
C242 C 0.28089 0.5906 0.1083 0.0
C243 C 0.29219 0.61271 0.1053 0.0
C244 C 0.29037 0.57421 0.1239 0.0
C245 C 0.31003 0.57967 0.13611 0.0
U246 U 0.3763 0.63521 0.15485 0.0
O247 O 0.38587 0.64097 0.19022 0.0
O248 O 0.40647 0.61931 0.17042 0.0
C249 C 0.40381 0.62853 0.18984 0.0
C250 C 0.34099 0.60677 0.14814 0.0
C251 C 0.41098 0.6155 0.2111 0.0
C252 C 0.40675 0.58474 0.24137 0.0
C253 C 0.3995 0.59542 0.22058 0.0
C254 C 0.43698 0.61386 0.24332 0.0
C255 C 0.42545 0.59408 0.25309 0.0
C256 C 0.42992 0.62431 0.22262 0.0
C257 C 0.39814 0.69291 0.11987 0.0
C258 C 0.42869 0.72159 0.12621 0.0
C259 C 0.40432 0.72692 0.09368 0.0
C260 C 0.39234 0.7062 0.10024 0.0
C261 C 0.42271 0.73511 0.10649 0.0
C262 C 0.41654 0.70072 0.13284 0.0
C263 C 0.38392 0.67164 0.12615 0.0
O264 O 0.36105 0.60366 0.14024 0.0
O265 O 0.34058 0.62496 0.16042 0.0
O266 O 0.37117 0.67201 0.14396 0.0
O267 O 0.39228 0.65116 0.12389 0.0
H268 H 0.32002 0.63537 0.11514 0.0
H269 H 0.2858 0.62584 0.09335 0.0
H270 H 0.28226 0.55721 0.12729 0.0
H271 H 0.31644 0.56664 0.14818 0.0
H272 H 0.39747 0.56956 0.24856 0.0
H273 H 0.38484 0.58822 0.21213 0.0
H274 H 0.4514 0.62145 0.25188 0.0
H275 H 0.43915 0.63969 0.21572 0.0
H276 H 0.44283 0.72707 0.1365 0.0
H277 H 0.39868 0.73682 0.07874 0.0
H278 H 0.37816 0.70069 0.09 0.0
H279 H 0.42141 0.69081 0.14808 0.0
C280 C 0.07563 0.33279 0.60496 0.0
C281 C 0.08954 0.32762 0.58716 0.0
C282 C 0.06889 0.2905 0.58374 0.0
C283 C 0.08608 0.30662 0.57648 0.0
C284 C 0.05454 0.29628 0.60086 0.0
C285 C 0.05783 0.31724 0.61129 0.0
U286 U 0.11027 0.38767 0.62044 0.0
O287 O 0.09954 0.41993 0.63448 0.0
O288 O 0.12269 0.3973 0.65372 0.0
C289 C 0.11127 0.41634 0.65317 0.0
C290 C 0.08035 0.35299 0.61864 0.0
C291 C 0.10118 0.422 0.67452 0.0
C292 C 0.07126 0.4199 0.70214 0.0
C293 C 0.07971 0.41374 0.68144 0.0
C294 C 0.10567 0.44238 0.7089 0.0
C295 C 0.08416 0.43445 0.71605 0.0
C296 C 0.11399 0.43627 0.68842 0.0
C297 C 0.16209 0.4079 0.5856 0.0
C298 C 0.19348 0.43212 0.59868 0.0
C299 C 0.19344 0.41831 0.56099 0.0
C300 C 0.17246 0.40725 0.56471 0.0
C301 C 0.20453 0.43018 0.57816 0.0
C302 C 0.17237 0.42095 0.60241 0.0
C303 C 0.1418 0.39299 0.59 0.0
O304 O 0.09871 0.352 0.63104 0.0
O305 O 0.07734 0.37377 0.60885 0.0
O306 O 0.12247 0.40305 0.5877 0.0
O307 O 0.14288 0.37843 0.60786 0.0
H308 H 0.10345 0.33941 0.58208 0.0
H309 H 0.09741 0.30248 0.56336 0.0
H310 H 0.04108 0.28422 0.60661 0.0
H311 H 0.04692 0.3209 0.62494 0.0
H312 H 0.05463 0.4135 0.70715 0.0
H313 H 0.06958 0.40261 0.67093 0.0
H314 H 0.11635 0.45305 0.71934 0.0
H315 H 0.13066 0.44266 0.68345 0.0
H316 H 0.20164 0.44115 0.6122 0.0
H317 H 0.20138 0.41689 0.54488 0.0
H318 H 0.16473 0.39737 0.55153 0.0
H319 H 0.16452 0.42169 0.61867 0.0
Co320 Co 0.99651 0.01654 0.51135 0.0
C321 C 1.01052 0.9701 0.50787 0.0
Co322 Co 0.03129 0.00925 0.52077 0.0
C323 C 0.95106 0.0334 0.50534 0.0
C324 C 0.95768 1.00422 0.48616 0.0
N325 N 0.96709 0.01835 0.50134 0.0
N326 N 0.9321 0.02869 0.49357 0.0
C327 C 0.93615 0.01035 0.4816 0.0
H328 H 0.95322 0.04751 0.51649 0.0
H329 H 0.96605 0.9906 0.4783 0.0
C330 C 0.0171 0.05555 0.52475 0.0
N331 N 0.06112 1.0076 0.52978 0.0
C332 C 0.07366 0.98892 0.5348 0.0
C333 C 0.07564 0.0262 0.53107 0.0
N334 N 0.0952 0.99539 0.53893 0.0
C335 C 0.09649 0.01873 0.53676 0.0
C336 C 0.02658 0.02368 0.47464 0.0
O337 O 0.99869 0.04908 0.5157 0.0
O338 O 0.03205 0.04084 0.52868 0.0
O339 O 0.04105 0.01879 0.49002 0.0
O340 O 1.00602 0.0232 0.48017 0.0
O341 O 0.03009 0.97769 0.51292 0.0
H342 H 0.07179 0.0442 0.52729 0.0
H343 H 0.06745 0.971 0.53446 0.0
O344 O 0.99451 0.98389 0.50726 0.0
O345 O 0.98721 0.01004 0.54289 0.0
O346 O 0.02138 0.99942 0.55132 0.0
C347 C 1.00123 1.0019 0.55757 0.0
H348 H 0.92452 1.00246 0.46988 0.0
H349 H 0.11167 0.02952 0.53845 0.0
Co350 Co 0.50668 1.00626 1.00195 0.0
C351 C 0.50554 0.96967 0.0368 0.0
Co352 Co 0.51976 0.01552 0.03512 0.0
C353 C 0.4974 0.99584 0.95436 0.0
C354 C 0.47331 0.98208 0.97852 0.0
N355 N 0.49248 0.99524 0.97655 0.0
N356 N 0.48193 0.9834 0.94253 0.0
C357 C 0.46695 0.97473 0.958 0.0
H358 H 0.51211 1.00497 0.94723 0.0
H359 H 0.46465 0.97755 0.99415 0.0
C360 C 0.52079 0.05184 1.00019 0.0
N361 N 0.53367 0.02626 0.06069 0.0
C362 C 0.52799 0.02493 0.08268 0.0
C363 C 0.55351 0.03847 0.05985 0.0
N364 N 0.54383 0.03553 0.0954 0.0
C365 C 0.5598 0.04408 0.08108 0.0
C366 C 0.55309 0.99867 1.00543 0.0
O367 O 0.5124 0.03668 0.98745 0.0
O368 O 0.52477 0.04603 0.02076 0.0
O369 O 0.54947 1.00649 0.02464 0.0
O370 O 0.53625 0.99648 0.99204 0.0
O371 O 0.51447 0.98456 0.04955 0.0
H372 H 0.56283 0.04315 0.04464 0.0
H373 H 0.51282 0.01617 0.08924 0.0
O374 O 0.50135 0.97612 0.01646 0.0
O375 O 0.47713 0.01617 1.0121 0.0
O376 O 0.4901 0.02456 0.04529 0.0
C377 C 0.47347 0.02334 0.03156 0.0
H378 H 0.45247 0.96336 0.95514 0.0
H379 H 0.57485 0.05393 0.08569 0.0
Co380 Co 0.53208 0.52024 0.51485 0.0
C381 C 0.49878 0.52131 0.48036 0.0
Co382 Co 0.49899 0.50604 0.52552 0.0
C383 C 0.57957 0.5292 0.50885 0.0
C384 C 0.55944 0.55377 0.49006 0.0
N385 N 0.55817 0.53485 0.50469 0.0
N386 N 0.59394 0.54377 0.49715 0.0
C387 C 0.58151 0.5592 0.48526 0.0
H388 H 0.58448 0.51452 0.51983 0.0
H389 H 0.54518 0.56289 0.48312 0.0
C390 C 0.53209 0.50493 0.56009 0.0
N391 N 0.47298 0.49096 0.5357 0.0
C392 C 0.45133 0.49652 0.53311 0.0
C393 C 0.47243 0.47013 0.54753 0.0
N394 N 0.43747 0.47968 0.54258 0.0
C395 C 0.45061 0.46312 0.55168 0.0
C396 C 0.52806 0.47412 0.50893 0.0
O397 O 0.54487 0.51487 0.54503 0.0
O398 O 0.51196 0.4997 0.55465 0.0
O399 O 0.50863 0.47712 0.5163 0.0
O400 O 0.54207 0.49126 0.50679 0.0
O401 O 0.48578 0.51283 0.4959 0.0
H402 H 0.48703 0.46051 0.55264 0.0
H403 H 0.44584 0.5122 0.52406 0.0
O404 O 0.51936 0.52521 0.48508 0.0
O405 O 0.5221 0.54938 0.52266 0.0
O406 O 0.48957 0.53482 0.5349 0.0
C407 C 0.50322 0.55214 0.5314 0.0
H408 H 0.58801 0.5733 0.47397 0.0
H409 H 0.44477 0.44713 0.56072 0.0
Co410 Co 0.01967 0.51052 1.00048 0.0
C411 C 0.97315 0.49966 1.01112 0.0
Co412 Co 1.00968 0.51532 0.03534 0.0
C413 C 0.03899 0.4954 0.95885 0.0
C414 C 1.00959 0.51535 0.95398 0.0
N415 N 0.02387 0.50704 0.97006 0.0
N416 N 0.03452 0.49641 0.93649 0.0
C417 C 0.0161 0.50885 0.93338 0.0
H418 H 0.05272 0.48621 0.96685 0.0
H419 H 0.99499 0.52514 0.9571 0.0
C420 C 0.05616 0.52632 0.02442 0.0
N421 N 1.00552 0.5191 0.06573 0.0
C422 C 0.98999 0.53018 0.07698 0.0
C423 C 0.02039 0.51184 0.08172 0.0
N424 N 0.99482 0.5299 0.09925 0.0
C425 C 0.01385 0.51843 0.10228 0.0
C426 C 0.02501 0.46989 0.02801 0.0
O427 O 0.05088 0.51968 1.00493 0.0
O428 O 0.0409 0.52621 0.03921 0.0
O429 O 0.01789 0.48299 0.04266 0.0
O430 O 0.02692 0.47825 1.00772 0.0
O431 O 0.9786 0.50476 0.03111 0.0
H432 H 0.03537 0.50266 0.07856 0.0
H433 H 0.97565 0.53838 0.06905 0.0
O434 O 0.98838 0.50111 0.99624 0.0
O435 O 1.01262 0.54326 0.99345 0.0
O436 O 1.00121 0.54713 0.02777 0.0
C437 C 1.00421 0.55592 1.00777 0.0
H438 H 1.00782 0.51262 0.91732 0.0
H439 H 0.02244 0.51523 0.11827 0.0
H440 H 0.08122 0.11787 0.27468 0.0
H441 H 0.06725 0.10616 0.31217 0.0
H442 H 0.07981 0.03457 0.3016 0.0
H443 H 0.09235 0.04585 0.26345 0.0
H444 H 0.04373 0.03424 0.32543 0.0
H445 H 0.11606 0.07229 0.33469 0.0
H446 H 0.14445 0.10441 0.32867 0.0
H447 H 0.10156 0.15082 0.3598 0.0
H448 H 0.0728 0.11902 0.36576 0.0
H449 H 0.04645 0.99663 0.4445 0.0
H450 H 0.05644 1.00696 0.40491 0.0
H451 H 0.03269 0.0759 0.41092 0.0
H452 H 0.02193 0.06526 0.45017 0.0
H453 H 0.07428 0.07712 0.38961 0.0
H454 H 1.00249 0.03868 0.38139 0.0
H455 H 0.97323 1.00724 0.38564 0.0
H456 H 0.01486 0.96143 0.35217 0.0
H457 H 0.04454 0.99253 0.34799 0.0
C458 C 0.08077 0.09953 0.27994 0.0
C459 C 0.08848 0.08306 0.26546 0.0
C460 C 0.07298 0.09281 0.30185 0.0
C461 C 0.07291 0.0694 0.31051 0.0
C462 C 0.07979 0.0528 0.29586 0.0
C463 C 0.08735 0.05945 0.27385 0.0
C464 C 0.0662 0.06236 0.33477 0.0
C465 C 0.05075 0.04347 0.33941 0.0
C466 C 0.07475 0.07439 0.35347 0.0
C467 C 0.09224 0.09334 0.35052 0.0
C468 C 0.11268 0.08936 0.3402 0.0
C469 C 0.12882 0.10751 0.33678 0.0
C470 C 0.12479 0.12965 0.34381 0.0
C471 C 0.10465 0.13367 0.35436 0.0
C472 C 0.08844 0.11558 0.35779 0.0
C473 C 0.04336 0.01399 0.43737 0.0
C474 C 0.03342 0.03012 0.45064 0.0
C475 C 0.04899 0.01989 0.4146 0.0
C476 C 0.04536 0.04231 0.40451 0.0
C477 C 0.03574 0.05851 0.41798 0.0
C478 C 0.02955 0.0524 0.44052 0.0
C479 C 0.05188 0.04902 0.38023 0.0
C480 C 0.06734 0.06783 0.37563 0.0
C481 C 0.0434 0.03682 0.36163 0.0
C482 C 0.02588 0.01786 0.36466 0.0
C483 C 1.00555 0.02181 0.37521 0.0
C484 C 0.98885 1.00408 0.37753 0.0
C485 C 0.99222 0.98232 0.36926 0.0
C486 C 1.0123 0.97827 0.35863 0.0
C487 C 0.02907 0.99595 0.35627 0.0
H488 H 0.97924 0.96863 0.37101 0.0
H489 H 0.13729 0.1437 0.3411 0.0
H490 H 0.47722 0.93433 0.73005 0.0
H491 H 0.49103 0.94932 0.76584 0.0
H492 H 0.43141 0.92008 0.79897 0.0
H493 H 0.41758 0.90562 0.76333 0.0
H494 H 0.43777 0.96554 0.80542 0.0
H495 H 0.48273 0.89745 0.80824 0.0
H496 H 0.51101 0.87185 0.7946 0.0
H497 H 0.56118 0.92744 0.79654 0.0
H498 H 0.53307 0.95353 0.80982 0.0
H499 H 0.44794 0.96183 0.91955 0.0
H500 H 0.44664 0.95358 0.88068 0.0
H501 H 0.51133 0.98856 0.87026 0.0
H502 H 0.51376 0.99571 0.91047 0.0
H503 H 0.50774 0.94885 0.84832 0.0
H504 H 0.46176 0.01496 0.85157 0.0
H505 H 0.43259 0.03774 0.86788 0.0
H506 H 0.38316 0.9833 0.85622 0.0
H507 H 0.41203 0.96009 0.84008 0.0
C508 C 0.46745 0.93071 0.74518 0.0
C509 C 0.44644 0.91888 0.74418 0.0
C510 C 0.47528 0.93928 0.76553 0.0
C511 C 0.46216 0.93593 0.78501 0.0
C512 C 0.4417 0.92302 0.78411 0.0
C513 C 0.43388 0.91464 0.76385 0.0
C514 C 0.46853 0.94723 0.80603 0.0
C515 C 0.45307 0.96187 0.81481 0.0
C516 C 0.48889 0.94319 0.81781 0.0
C517 C 0.50572 0.92755 0.80966 0.0
C518 C 0.49972 0.90431 0.80549 0.0
C519 C 0.51574 0.88969 0.79788 0.0
C520 C 0.53786 0.89804 0.79461 0.0
C521 C 0.54402 0.92102 0.799 0.0
C522 C 0.52805 0.93573 0.80656 0.0
C523 C 0.46222 0.96774 0.9095 0.0
C524 C 0.48108 0.97947 0.9187 0.0
C525 C 0.4612 0.96322 0.88687 0.0
C526 C 0.47855 0.97103 0.87235 0.0
C527 C 0.49758 0.98263 0.88117 0.0
C528 C 0.49886 0.98682 0.90418 0.0
C529 C 0.47647 0.96624 0.84817 0.0
C530 C 0.49274 0.95302 0.83866 0.0
C531 C 0.4567 0.9714 0.8357 0.0
C532 C 0.4391 0.9858 0.84457 0.0
C533 C 0.44467 1.00786 0.85247 0.0
C534 C 0.42818 0.02083 0.86171 0.0
C535 C 0.40604 0.01197 0.86307 0.0
C536 C 0.4003 0.99017 0.8551 0.0
C537 C 0.41671 0.97713 0.84583 0.0
H538 H 0.39332 0.02201 0.87032 0.0
H539 H 0.55024 0.88668 0.78874 0.0
H540 H 0.55949 0.43344 0.77199 0.0
H541 H 0.54683 0.44589 0.73372 0.0
H542 H 0.6146 0.46843 0.71652 0.0
H543 H 0.6272 0.45627 0.75441 0.0
H544 H 0.5873 0.49998 0.69974 0.0
H545 H 0.58879 0.41619 0.69967 0.0
H546 H 0.57844 0.37591 0.71342 0.0
H547 H 0.50898 0.38812 0.69944 0.0
H548 H 0.51889 0.42861 0.68594 0.0
H549 H 0.57467 0.51058 0.57899 0.0
H550 H 0.5865 0.49978 0.61791 0.0
H551 H 0.51881 0.47553 0.63367 0.0
H552 H 0.50712 0.48572 0.59511 0.0
H553 H 0.54558 0.44543 0.65144 0.0
H554 H 0.5431 0.52852 0.65133 0.0
H555 H 0.55237 0.56928 0.6383 0.0
H556 H 0.62208 0.55914 0.65288 0.0
H557 H 0.61326 0.51822 0.66571 0.0
C558 C 0.57171 0.44089 0.76001 0.0
C559 C 0.59442 0.44388 0.76651 0.0
C560 C 0.56444 0.44807 0.73806 0.0
C561 C 0.57974 0.45809 0.72193 0.0
C562 C 0.60233 0.461 0.72848 0.0
C563 C 0.60954 0.45397 0.7503 0.0
C564 C 0.57259 0.46527 0.69817 0.0
C565 C 0.57837 0.48792 0.68914 0.0
C566 C 0.56049 0.4499 0.68422 0.0
C567 C 0.55456 0.42549 0.69203 0.0
C568 C 0.5713 0.41032 0.69967 0.0
C569 C 0.56551 0.38746 0.70741 0.0
C570 C 0.54306 0.37948 0.70737 0.0
C571 C 0.52636 0.39434 0.69951 0.0
C572 C 0.53205 0.41725 0.69181 0.0
C573 C 0.56232 0.50301 0.59078 0.0
C574 C 0.53991 0.49911 0.58376 0.0
C575 C 0.56907 0.4969 0.61313 0.0
C576 C 0.55355 0.48693 0.62904 0.0
C577 C 0.53123 0.48307 0.62193 0.0
C578 C 0.52453 0.48905 0.59973 0.0
C579 C 0.56029 0.48013 0.65298 0.0
C580 C 0.55447 0.45753 0.66203 0.0
C581 C 0.57219 0.49562 0.66696 0.0
C582 C 0.57754 0.52023 0.65928 0.0
C583 C 0.56043 0.53493 0.6516 0.0
C584 C 0.56559 0.55807 0.64427 0.0
C585 C 0.5878 0.56678 0.64471 0.0
C586 C 0.60489 0.55237 0.65252 0.0
C587 C 0.59981 0.5292 0.65984 0.0
H588 H 0.59176 0.5847 0.63904 0.0
H589 H 0.53862 0.36177 0.71338 0.0
H590 H 0.9469 0.55721 0.30473 0.0
H591 H 0.95014 0.54426 0.26632 0.0
H592 H 0.97446 0.61324 0.24342 0.0
H593 H 0.97069 0.62631 0.28125 0.0
H594 H 0.944 0.59867 0.21553 0.0
H595 H 1.00911 0.56718 0.25131 0.0
H596 H 0.03207 0.54384 0.27826 0.0
H597 H 0.99814 0.4811 0.25812 0.0
H598 H 0.97466 0.50409 0.23133 0.0
H599 H 0.99602 0.57419 0.11121 0.0
H600 H 0.98454 0.58677 0.14797 0.0
H601 H 0.95651 0.51764 0.16494 0.0
H602 H 0.96834 0.50524 0.12836 0.0
H603 H 0.98679 0.53107 0.19571 0.0
H604 H 0.92302 0.56526 0.15754 0.0
H605 H 0.90388 0.59052 0.12896 0.0
H606 H 0.94009 0.65055 0.1524 0.0
H607 H 0.95965 0.62562 0.18093 0.0
C608 C 0.95288 0.56958 0.29145 0.0
C609 C 0.95872 0.59276 0.2961 0.0
C610 C 0.95491 0.56212 0.26956 0.0
C611 C 0.96271 0.57775 0.25197 0.0
C612 C 0.96844 0.60084 0.25666 0.0
C613 C 0.96647 0.60824 0.27839 0.0
C614 C 0.96426 0.57059 0.22843 0.0
C615 C 0.95351 0.58395 0.21121 0.0
C616 C 0.97639 0.55121 0.22275 0.0
C617 C 0.98981 0.53743 0.2396 0.0
C618 C 1.00625 0.54845 0.2529 0.0
C619 C 0.01944 0.53526 0.26808 0.0
C620 C 0.01649 0.51102 0.26998 0.0
C621 C 1.00033 0.4999 0.25671 0.0
C622 C 0.98706 0.513 0.24154 0.0
C623 C 0.98654 0.56211 0.12251 0.0
C624 C 0.98261 0.53893 0.11705 0.0
C625 C 0.9801 0.5692 0.1435 0.0
C626 C 0.96965 0.55312 0.15924 0.0
C627 C 0.96452 0.53033 0.15309 0.0
C628 C 0.97101 0.5233 0.13219 0.0
C629 C 0.96648 0.55909 0.18291 0.0
C630 C 0.97703 0.54556 0.20013 0.0
C631 C 0.95457 0.57858 0.18854 0.0
C632 C 0.94293 0.59353 0.17125 0.0
C633 C 0.92705 0.58382 0.15647 0.0
C634 C 0.91609 0.59809 0.14031 0.0
C635 C 0.92081 0.62212 0.13883 0.0
C636 C 0.93647 0.63194 0.15354 0.0
C637 C 0.94747 0.61775 0.16972 0.0
H638 H 0.9123 0.63314 0.12632 0.0
H639 H 0.02678 0.50084 0.28168 0.0
H640 H 0.28129 0.11733 0.07442 0.0
H641 H 0.31757 0.1052 0.06214 0.0
H642 H 0.30149 0.03501 0.08796 0.0
H643 H 0.26501 0.04696 0.10017 0.0
H644 H 0.34249 0.04329 0.09862 0.0
H645 H 0.30509 0.05324 0.02777 0.0
H646 H 0.28282 0.07344 0.99788 0.0
H647 H 0.33363 0.12847 0.99144 0.0
H648 H 0.35614 0.10866 0.02143 0.0
H649 H 0.43945 0.99526 0.05104 0.0
H650 H 0.40118 1.00525 0.06039 0.0
H651 H 0.41553 0.07624 0.03572 0.0
H652 H 0.45369 0.06596 0.02593 0.0
H653 H 0.37453 0.06641 0.02368 0.0
H654 H 0.41126 0.05479 0.09639 0.0
H655 H 0.43165 0.03346 0.12701 0.0
H656 H 0.37987 0.97925 0.12954 0.0
H657 H 0.35929 1.00016 0.09879 0.0
C658 C 0.28508 0.09917 0.07727 0.0
C659 C 0.26954 0.08336 0.08854 0.0
C660 C 0.30619 0.09215 0.07011 0.0
C661 C 0.31283 0.06892 0.0737 0.0
C662 C 0.29733 0.05306 0.08486 0.0
C663 C 0.2762 0.06006 0.09202 0.0
C664 C 0.33599 0.06139 0.06662 0.0
C665 C 0.3492 0.04812 0.08204 0.0
C666 C 0.34555 0.06768 0.04515 0.0
C667 C 0.33222 0.07956 0.02697 0.0
C668 C 0.31146 0.06971 0.02006 0.0
C669 C 0.29881 0.08107 1.00308 0.0
C670 C 0.30678 0.10225 0.99281 0.0
C671 C 0.32747 0.11207 0.99943 0.0
C672 C 0.34021 0.10075 0.01638 0.0
C673 C 0.43453 0.01306 0.04776 0.0
C674 C 0.45004 0.02982 0.03801 0.0
C675 C 0.41245 0.0189 0.05325 0.0
C676 C 0.40491 0.04183 0.04939 0.0
C677 C 0.4204 0.05845 0.0392 0.0
C678 C 0.44247 0.05258 0.03367 0.0
C679 C 0.38117 0.04845 0.05581 0.0
C680 C 0.36782 0.06154 0.04024 0.0
C681 C 0.37129 0.04172 0.07707 0.0
C682 C 0.3839 0.0289 0.09514 0.0
C683 C 0.40435 0.03821 0.10334 0.0
C684 C 0.4159 0.02623 0.12075 0.0
C685 C 0.40709 1.00498 0.13017 0.0
C686 C 0.3867 0.99568 0.12221 0.0
C687 C 0.37508 1.00759 0.1048 0.0
H688 H 0.41604 0.99575 0.14368 0.0
H689 H 0.29695 0.11104 0.97969 0.0
H690 H 0.27286 0.90364 0.61804 0.0
H691 H 0.23549 0.91836 0.60999 0.0
H692 H 0.25925 0.95175 0.54733 0.0
H693 H 0.2967 0.93701 0.55525 0.0
H694 H 0.23021 0.97899 0.57182 0.0
H695 H 0.23337 0.90273 0.5435 0.0
H696 H 0.24008 0.86068 0.54529 0.0
H697 H 0.19138 0.84877 0.59772 0.0
H698 H 0.18457 0.89083 0.5964 0.0
H699 H 0.13108 0.99717 0.51271 0.0
H700 H 0.16712 0.98014 0.52224 0.0
H701 H 0.13819 0.94549 0.58216 0.0
H702 H 0.10181 0.96243 0.57224 0.0
H703 H 0.16935 0.919 0.56088 0.0
H704 H 0.16503 0.99564 0.58783 0.0
H705 H 0.1577 0.03757 0.58466 0.0
H706 H 0.20819 0.04889 0.53392 0.0
H707 H 0.21566 1.00696 0.53662 0.0
C708 C 0.2702 0.91451 0.60277 0.0
C709 C 0.28753 0.91906 0.58714 0.0
C710 C 0.24888 0.92276 0.59815 0.0
C711 C 0.24467 0.93582 0.57795 0.0
C712 C 0.26225 0.94158 0.56295 0.0
C713 C 0.28352 0.9331 0.56743 0.0
C714 C 0.22164 0.94227 0.57186 0.0
C715 C 0.21693 0.96592 0.56925 0.0
C716 C 0.20433 0.92513 0.56893 0.0
C717 C 0.20869 0.89993 0.57006 0.0
C718 C 0.22429 0.89117 0.55559 0.0
C719 C 0.22806 0.86734 0.55647 0.0
C720 C 0.21622 0.85207 0.57167 0.0
C721 C 0.20057 0.86062 0.586 0.0
C722 C 0.19674 0.88445 0.58518 0.0
C723 C 0.13239 0.98538 0.52755 0.0
C724 C 0.11406 0.9811 0.54191 0.0
C725 C 0.15288 0.97582 0.53305 0.0
C726 C 0.15534 0.96213 0.55318 0.0
C727 C 0.13654 0.95622 0.56664 0.0
C728 C 0.11587 0.96571 0.56099 0.0
C729 C 0.17793 0.95568 0.56084 0.0
C730 C 0.18258 0.93206 0.56368 0.0
C731 C 0.19518 0.97287 0.56397 0.0
C732 C 0.19081 0.99814 0.56235 0.0
C733 C 0.17447 1.00705 0.5759 0.0
C734 C 0.17031 0.03082 0.5742 0.0
C735 C 0.18245 0.04588 0.55908 0.0
C736 C 0.1988 0.0372 0.54564 0.0
C737 C 0.20304 0.01344 0.54727 0.0
H738 H 0.17921 0.06428 0.5578 0.0
H739 H 0.21913 0.83361 0.57229 0.0
H740 H 0.7591 0.44799 0.97791 0.0
H741 H 0.79671 0.45891 0.99111 0.0
H742 H 0.82144 0.45759 0.92347 0.0
H743 H 0.78393 0.44561 0.91022 0.0
H744 H 0.84949 0.43641 0.95118 0.0
H745 H 0.81437 0.50933 0.95113 0.0
H746 H 0.78591 0.53692 0.96042 0.0
H747 H 0.80099 0.52486 0.0309 0.0
H748 H 0.8293 0.49687 0.02206 0.0
H749 H 0.95726 0.48938 0.96931 0.0
H750 H 0.91906 0.4794 0.95742 0.0
H751 H 0.89639 0.48375 0.02552 0.0
H752 H 0.93488 0.49451 0.03747 0.0
H753 H 0.86692 0.50279 0.99861 0.0
H754 H 0.90284 0.42963 0.99762 0.0
H755 H 0.93043 0.40154 0.98725 0.0
H756 H 0.91352 0.41444 0.91728 0.0
H757 H 0.88608 0.44286 0.92719 0.0
C758 C 0.77246 0.44988 0.96571 0.0
C759 C 0.76812 0.44557 0.94287 0.0
C760 C 0.7941 0.45647 0.97334 0.0
C761 C 0.81224 0.45933 0.95839 0.0
C762 C 0.80793 0.45555 0.9355 0.0
C763 C 0.78625 0.44889 0.92784 0.0
C764 C 0.83574 0.46528 0.96671 0.0
C765 C 0.85329 0.45117 0.96126 0.0
C766 C 0.84092 0.48411 0.98053 0.0
C767 C 0.82378 0.50078 0.98593 0.0
C768 C 0.81147 0.51237 0.96863 0.0
C769 C 0.79539 0.52811 0.97381 0.0
C770 C 0.7916 0.53258 0.99624 0.0
C771 C 0.80391 0.52134 0.01354 0.0
C772 C 0.81998 0.50553 1.00845 0.0
C773 C 0.94426 0.48813 0.98191 0.0
C774 C 0.94944 0.49269 1.00448 0.0
C775 C 0.92224 0.48219 0.97504 0.0
C776 C 0.90451 0.48023 0.99052 0.0
C777 C 0.90957 0.48493 1.01311 0.0
C778 C 0.9317 0.49103 0.02 0.0
C779 C 0.88078 0.47398 0.98292 0.0
C780 C 0.86315 0.488 0.98856 0.0
C781 C 0.87552 0.45511 0.96913 0.0
C782 C 0.89256 0.43856 0.96316 0.0
C783 C 0.90519 0.42668 0.98001 0.0
C784 C 0.92076 0.41065 0.97421 0.0
C785 C 0.92376 0.40625 0.95162 0.0
C786 C 0.91122 0.41789 0.93477 0.0
C787 C 0.89565 0.43396 0.94047 0.0
H788 H 0.93577 0.39377 0.94717 0.0
H789 H 0.77916 0.54481 1.00022 0.0
H790 H 0.79024 0.56696 0.42793 0.0
H791 H 0.75159 0.55995 0.43965 0.0
H792 H 0.76644 0.59303 0.50158 0.0
H793 H 0.80582 0.59938 0.49023 0.0
H794 H 0.74097 0.55282 0.5088 0.0
H795 H 0.73692 0.62178 0.45901 0.0
H796 H 0.74318 0.64658 0.42411 0.0
H797 H 0.70722 0.59595 0.38586 0.0
H798 H 0.70093 0.57076 0.42046 0.0
H799 H 0.62239 0.55765 0.52919 0.0
H800 H 0.66312 0.56443 0.52503 0.0
H801 H 0.65903 0.53569 0.45961 0.0
H802 H 0.61827 0.52984 0.46366 0.0
H803 H 0.67907 0.57747 0.45733 0.0
H804 H 0.68505 0.50732 0.50507 0.0
H805 H 0.67658 0.48221 0.53928 0.0
H806 H 0.70749 0.53364 0.58034 0.0
H807 H 0.71589 0.5592 0.54635 0.0
C808 C 0.78544 0.57249 0.4442 0.0
C809 C 0.80116 0.58349 0.45827 0.0
C810 C 0.76323 0.56876 0.45074 0.0
C811 C 0.75608 0.57628 0.47132 0.0
C812 C 0.77166 0.58722 0.48556 0.0
C813 C 0.79406 0.59092 0.47902 0.0
C814 C 0.73235 0.57212 0.47784 0.0
C815 C 0.7274 0.55855 0.49777 0.0
C816 C 0.71468 0.57922 0.4632 0.0
C817 C 0.71861 0.59431 0.44233 0.0
C818 C 0.7305 0.61586 0.44313 0.0
C819 C 0.73401 0.63001 0.4234 0.0
C820 C 0.72565 0.62282 0.40278 0.0
C821 C 0.7137 0.60149 0.40184 0.0
C822 C 0.71013 0.5873 0.42151 0.0
C823 C 0.6305 0.55228 0.5143 0.0
C824 C 0.61771 0.54319 0.49675 0.0
C825 C 0.65361 0.55611 0.51189 0.0
C826 C 0.66404 0.55053 0.49201 0.0
C827 C 0.65125 0.54019 0.47503 0.0
C828 C 0.62816 0.5367 0.47734 0.0
C829 C 0.68777 0.55753 0.48781 0.0
C830 C 0.69266 0.57183 0.46842 0.0
C831 C 0.70527 0.55091 0.50281 0.0
C832 C 0.70097 0.53524 0.52319 0.0
C833 C 0.68998 0.51331 0.5214 0.0
C834 C 0.68519 0.499 0.54075 0.0
C835 C 0.69146 0.50635 0.56198 0.0
C836 C 0.70264 0.52797 0.56388 0.0
C837 C 0.70746 0.54236 0.54458 0.0
H838 H 0.68768 0.49527 0.57694 0.0
H839 H 0.72839 0.6338 0.38753 0.0
H840 H 0.05493 0.24722 0.08611 0.0
H841 H 0.04086 0.28566 0.07447 0.0
H842 H 0.10872 0.31422 0.07103 0.0
H843 H 0.12279 0.2763 0.08315 0.0
H844 H 0.08518 0.34301 0.09122 0.0
H845 H 0.07378 0.30368 0.02313 0.0
H846 H 0.05914 0.2745 0.99745 0.0
H847 H 0.99166 0.29166 1.01164 0.0
H848 H 1.00587 0.3207 0.03771 0.0
H849 H 0.06723 0.4529 0.03119 0.0
H850 H 0.07822 0.4131 0.04249 0.0
H851 H 1.00863 0.39152 0.05084 0.0
H852 H 0.99772 0.43154 0.04002 0.0
H853 H 0.03097 0.35899 0.02886 0.0
H854 H 0.04266 0.39858 0.09653 0.0
H855 H 0.05756 0.42874 0.12105 0.0
H856 H 0.12489 0.41126 0.10659 0.0
H857 H 0.1104 0.38122 0.0817 0.0
C858 C 0.06695 0.26164 0.08296 0.0
C859 C 0.0902 0.25817 0.08565 0.0
C860 C 0.05881 0.28376 0.07601 0.0
C861 C 0.07359 0.30327 0.07156 0.0
C862 C 0.09673 0.29977 0.07422 0.0
C863 C 0.10485 0.27775 0.08102 0.0
C864 C 0.0653 0.3275 0.06519 0.0
C865 C 0.07355 0.34637 0.07734 0.0
C866 C 0.04951 0.33236 0.04751 0.0
C867 C 0.04091 0.31411 0.03269 0.0
C868 C 0.05581 0.30098 0.02108 0.0
C869 C 0.04759 0.28452 1.00637 0.0
C870 C 0.02448 0.28115 1.00299 0.0
C871 C 1.00955 0.29422 0.01434 0.0
C872 C 0.01768 0.31066 0.0291 0.0
C873 C 0.05428 0.43966 0.03545 0.0
C874 C 0.03158 0.44546 0.03466 0.0
C875 C 0.06058 0.41683 0.04203 0.0
C876 C 0.04436 0.39894 0.04774 0.0
C877 C 0.02161 0.40473 0.04661 0.0
C878 C 0.01534 0.4277 0.04046 0.0
C879 C 0.05114 0.37434 0.0547 0.0
C880 C 0.04257 0.35548 0.04274 0.0
C881 C 0.06668 0.36943 0.07249 0.0
C882 C 0.07544 0.38785 0.08703 0.0
C883 C 0.06065 0.40136 0.09836 0.0
C884 C 0.06902 0.41839 0.11238 0.0
C885 C 0.09216 0.42196 0.11532 0.0
C886 C 0.10697 0.40851 0.10426 0.0
C887 C 0.09869 0.39148 0.09019 0.0
H888 H 0.0986 0.43512 0.12622 0.0
H889 H 0.01816 0.26848 0.99152 0.0
H890 H 0.62429 0.2484 0.94126 0.0
H891 H 0.6107 0.20883 0.95299 0.0
H892 H 0.54464 0.23368 0.96275 0.0
H893 H 0.5582 0.27335 0.95187 0.0
H894 H 0.55501 0.20165 0.99616 0.0
H895 H 0.55651 0.20534 0.91481 0.0
H896 H 0.57351 0.21235 0.87727 0.0
H897 H 0.62321 0.1624 0.89514 0.0
H898 H 0.60657 0.15522 0.93284 0.0
H899 H 0.49602 0.09069 0.99886 0.0
H900 H 0.50916 0.13113 0.98919 0.0
H901 H 0.57461 0.10714 0.97443 0.0
H902 H 0.56125 0.06682 0.98368 0.0
H903 H 0.56411 0.13904 0.94379 0.0
H904 H 0.56339 0.1343 0.0244 0.0
H905 H 0.5477 0.1269 0.06247 0.0
H906 H 0.49834 0.17792 0.04734 0.0
H907 H 0.51363 0.18548 1.00909 0.0
C908 C 0.60696 0.24563 0.94626 0.0
C909 C 0.5924 0.26434 0.94529 0.0
C910 C 0.59911 0.22282 0.95273 0.0
C911 C 0.57647 0.21802 0.9584 0.0
C912 C 0.56212 0.23674 0.95834 0.0
C913 C 0.56993 0.25952 0.95189 0.0
C914 C 0.56766 0.19352 0.96395 0.0
C915 C 0.55677 0.18803 0.98457 0.0
C916 C 0.57029 0.17544 0.94919 0.0
C917 C 0.58046 0.17995 0.92669 0.0
C918 C 0.57118 0.19601 0.91078 0.0
C919 C 0.58071 0.19996 0.88946 0.0
C920 C 0.59947 0.18788 0.88385 0.0
C921 C 0.60871 0.17177 0.89952 0.0
C922 C 0.59922 0.16773 0.92085 0.0
C923 C 0.51306 0.09414 0.9931 0.0
C924 C 0.52751 0.0757 0.99147 0.0
C925 C 0.52069 0.11726 0.98789 0.0
C926 C 0.54304 0.12242 0.9813 0.0
C927 C 0.55731 0.1038 0.97939 0.0
C928 C 0.54966 0.08073 0.98453 0.0
C929 C 0.55158 0.14704 0.97607 0.0
C930 C 0.56236 0.15259 0.95545 0.0
C931 C 0.54901 0.16507 0.99096 0.0
C932 C 0.53951 0.16028 0.0138 0.0
C933 C 0.54905 0.14379 0.02912 0.0
C934 C 0.54027 0.13961 0.05075 0.0
C935 C 0.52199 0.15189 0.0573 0.0
C936 C 0.51248 0.1684 0.04223 0.0
C937 C 0.52121 0.17266 0.02059 0.0
H938 H 0.51524 0.14865 0.07406 0.0
H939 H 0.60682 0.19096 0.86733 0.0
H940 H 0.93052 0.76257 0.48512 0.0
H941 H 0.94223 0.8021 0.49322 0.0
H942 H 0.99883 0.79933 0.44924 0.0
H943 H 0.98811 0.75886 0.4423 0.0
H944 H 1.01104 0.8212 0.48546 0.0
H945 H 0.94854 0.82779 0.43278 0.0
H946 H 0.90994 0.81836 0.41985 0.0
H947 H 0.88373 0.84494 0.47959 0.0
H948 H 0.92218 0.85433 0.49297 0.0
H949 H 0.03547 0.94301 0.48262 0.0
H950 H 0.0256 0.90348 0.47164 0.0
H951 H 0.96527 0.90272 0.51106 0.0
H952 H 0.97436 0.94276 0.52058 0.0
H953 H 0.95553 0.88287 0.47506 0.0
H954 H 0.01572 0.87429 0.52937 0.0
H955 H 0.05347 0.88467 0.54399 0.0
H956 H 0.08297 0.86177 0.48416 0.0
H957 H 0.04533 0.85153 0.46906 0.0
C958 C 0.94574 0.77006 0.47747 0.0
C959 C 0.95835 0.75731 0.46304 0.0
C960 C 0.95222 0.79293 0.48185 0.0
C961 C 0.97112 0.804 0.47142 0.0
C962 C 0.98404 0.79128 0.45733 0.0
C963 C 0.97775 0.76818 0.45319 0.0
C964 C 0.97723 0.82885 0.47518 0.0
C965 C 0.99899 0.83473 0.48285 0.0
C966 C 0.96139 0.84652 0.47236 0.0
C967 C 0.93824 0.84167 0.46391 0.0
C968 C 0.93454 0.8316 0.44316 0.0
C969 C 0.91269 0.82625 0.43576 0.0
C970 C 0.8944 0.83102 0.44891 0.0
C971 C 0.89791 0.84127 0.46942 0.0
C972 C 0.91973 0.84666 0.47689 0.0
C973 C 0.02023 0.93424 0.48902 0.0
C974 C 1.00582 0.94568 0.50267 0.0
C975 C 0.01457 0.91166 0.48279 0.0
C976 C 0.99488 0.89978 0.49089 0.0
C977 C 0.98052 0.91137 0.50455 0.0
C978 C 0.98582 0.93417 0.51016 0.0
C979 C 0.9893 0.87521 0.48552 0.0
C980 C 0.96763 0.86938 0.47756 0.0
C981 C 1.00509 0.85753 0.48841 0.0
C982 C 0.02774 0.86223 0.49806 0.0
C983 C 0.03027 0.8714 0.51937 0.0
C984 C 0.05163 0.87732 0.52772 0.0
C985 C 0.07061 0.87391 0.515 0.0
C986 C 0.06826 0.86439 0.49399 0.0
C987 C 0.04692 0.85848 0.48555 0.0
H988 H 0.08713 0.87861 0.52143 0.0
H989 H 0.8775 0.82679 0.44319 0.0
H990 H 0.44919 0.76594 0.55221 0.0
H991 H 0.45949 0.7284 0.53854 0.0
H992 H 0.46496 0.70008 0.60731 0.0
H993 H 0.45547 0.73751 0.62081 0.0
H994 H 0.49945 0.689 0.58559 0.0
H995 H 0.41982 0.68767 0.57076 0.0
H996 H 0.38409 0.70066 0.55402 0.0
H997 H 0.4099 0.69486 0.48763 0.0
H998 H 0.44595 0.68226 0.50396 0.0
H999 H 0.48955 0.56592 0.57169 0.0
H1000 H 0.48203 0.60593 0.58095 0.0
H1001 H 0.49625 0.63046 0.51234 0.0
H1002 H 0.50455 0.59072 0.50332 0.0
H1003 H 0.45441 0.64459 0.53081 0.0
H1004 H 0.53331 0.64253 0.54716 0.0
H1005 H 0.56757 0.62714 0.56509 0.0
H1006 H 0.54129 0.63708 0.63049 0.0
H1007 H 0.50666 0.65214 0.61298 0.0
C1008 C 0.45246 0.75157 0.56428 0.0
C1009 C 0.45177 0.75454 0.58752 0.0
C1010 C 0.4583 0.73017 0.55651 0.0
C1011 C 0.463 0.7114 0.57193 0.0
C1012 C 0.46166 0.71434 0.5951 0.0
C1013 C 0.45619 0.73569 0.60281 0.0
C1014 C 0.46987 0.68873 0.5643 0.0
C1015 C 0.48945 0.67922 0.57377 0.0
C1016 C 0.45718 0.6762 0.5484 0.0
C1017 C 0.43572 0.6844 0.53859 0.0
C1018 C 0.418 0.68948 0.55259 0.0
C1019 C 0.39766 0.69671 0.54317 0.0
C1020 C 0.39476 0.69868 0.51978 0.0
C1021 C 0.41219 0.69342 0.50574 0.0
C1022 C 0.43259 0.68627 0.51507 0.0
C1023 C 0.49091 0.57993 0.55867 0.0
C1024 C 0.49737 0.57552 0.53682 0.0
C1025 C 0.48683 0.60266 0.56396 0.0
C1026 C 0.48872 0.62101 0.5473 0.0
C1027 C 0.49483 0.61648 0.52538 0.0
C1028 C 0.49948 0.5939 0.52026 0.0
C1029 C 0.48351 0.64486 0.55254 0.0
C1030 C 0.46439 0.65455 0.54253 0.0
C1031 C 0.49642 0.65739 0.56816 0.0
C1032 C 0.51722 0.64819 0.57873 0.0
C1033 C 0.53469 0.64117 0.56537 0.0
C1034 C 0.55422 0.63256 0.57546 0.0
C1035 C 0.55657 0.63105 0.59892 0.0
C1036 C 0.53942 0.63821 0.61233 0.0
C1037 C 0.51984 0.64679 0.60232 0.0
H1038 H 0.5717 0.62438 0.6067 0.0
H1039 H 0.37897 0.70421 0.51252 0.0
H1040 H 0.92292 0.97354 0.76594 0.0
H1041 H 0.93711 0.98697 0.72868 0.0
H1042 H 0.96413 0.91978 0.72109 0.0
H1043 H 0.94992 0.90617 0.75811 0.0
H1044 H 0.99338 0.95278 0.70397 0.0
H1045 H 0.91326 0.9382 0.69471 0.0
H1046 H 0.87384 0.94379 0.70433 0.0
H1047 H 0.88261 0.01716 0.68714 0.0
H1048 H 0.92218 0.01202 0.67771 0.0
H1049 H 0.01484 0.96509 0.58559 0.0
H1050 H 1.00323 0.95347 0.62405 0.0
H1051 H 0.96176 0.01314 0.62374 0.0
H1052 H 0.97177 0.02326 0.5844 0.0
H1053 H 0.94054 0.985 0.6463 0.0
H1054 H 0.0196 1.00181 0.65515 0.0
H1055 H 0.06016 0.99895 0.64884 0.0
H1056 H 0.05563 0.92602 0.66913 0.0
H1057 H 0.01501 0.92837 0.67532 0.0
C1058 C 0.93169 0.96143 0.75639 0.0
C1059 C 0.93492 0.93852 0.76556 0.0
C1060 C 0.93995 0.96924 0.73486 0.0
C1061 C 0.95161 0.95444 0.72142 0.0
C1062 C 0.95532 0.93179 0.73074 0.0
C1063 C 0.94711 0.92399 0.75223 0.0
C1064 C 0.95929 0.9621 0.69755 0.0
C1065 C 0.98174 0.95964 0.69131 0.0
C1066 C 0.94462 0.97181 0.68081 0.0
C1067 C 0.92067 0.97475 0.68564 0.0
C1068 C 0.90676 0.95552 0.69301 0.0
C1069 C 0.88442 0.95861 0.69846 0.0
C1070 C 0.87574 0.98082 0.69638 0.0
C1071 C 0.88936 0.99997 0.68875 0.0
C1072 C 0.91174 0.99698 0.68333 0.0
C1073 C 1.00321 0.97574 0.59371 0.0
C1074 C 0.99433 0.99519 0.58164 0.0
C1075 C 0.99673 0.96925 0.61612 0.0
C1076 C 0.98191 0.9826 0.6279 0.0
C1077 C 0.97313 1.00217 0.61568 0.0
C1078 C 0.97896 1.00812 0.59297 0.0
C1079 C 0.97493 0.97592 0.65235 0.0
C1080 C 0.95247 0.97841 0.65879 0.0
C1081 C 0.98982 0.96672 0.6694 0.0
C1082 C 0.01421 0.96523 0.66548 0.0
C1083 C 0.02723 0.98513 0.65811 0.0
C1084 C 0.05023 0.9836 0.65458 0.0
C1085 C 0.06045 0.9623 0.65852 0.0
C1086 C 0.04769 0.94249 0.66605 0.0
C1087 C 0.02468 0.94392 0.66958 0.0
H1088 H 0.07826 0.96116 0.65579 0.0
H1089 H 0.85844 0.98319 0.70066 0.0
H1090 H 0.54065 0.10849 0.2944 0.0
H1091 H 0.53233 0.0902 0.25933 0.0
H1092 H 0.60195 0.07399 0.2539 0.0
H1093 H 0.61072 0.09394 0.28819 0.0
H1094 H 0.58884 0.09332 0.21655 0.0
H1095 H 0.55569 0.03053 0.26496 0.0
H1096 H 0.53066 0.01251 0.29444 0.0
H1097 H 0.47337 0.03904 0.25841 0.0
H1098 H 0.49806 0.05733 0.22881 0.0
H1099 H 0.57899 0.02767 0.12267 0.0
H1100 H 0.58308 0.03756 0.1619 0.0
H1101 H 0.51472 0.05938 0.16105 0.0
H1102 H 0.51053 0.04882 0.12161 0.0
H1103 H 0.52577 0.03738 0.20121 0.0
H1104 H 0.55739 0.09958 0.15323 0.0
H1105 H 0.58114 0.11803 0.12295 0.0
H1106 H 0.64013 0.0942 0.15789 0.0
H1107 H 0.6167 0.07534 0.18825 0.0
C1108 C 0.55425 0.10111 0.28575 0.0
C1109 C 0.57645 0.10315 0.29395 0.0
C1110 C 0.54936 0.0902 0.26585 0.0
C1111 C 0.56644 0.08048 0.25396 0.0
C1112 C 0.58845 0.08137 0.26274 0.0
C1113 C 0.59343 0.09264 0.28249 0.0
C1114 C 0.56183 0.07168 0.23129 0.0
C1115 C 0.57533 0.08069 0.21337 0.0
C1116 C 0.54351 0.05608 0.22677 0.0
C1117 C 0.52874 0.04544 0.24479 0.0
C1118 C 0.53778 0.03268 0.26344 0.0
C1119 C 0.52364 0.02237 0.28013 0.0
C1120 C 0.50045 0.02467 0.27832 0.0
C1121 C 0.49133 0.03727 0.2598 0.0
C1122 C 0.50538 0.04757 0.24305 0.0
C1123 C 0.56476 0.0342 0.13104 0.0
C1124 C 0.54453 0.03767 0.11927 0.0
C1125 C 0.56712 0.03997 0.15334 0.0
C1126 C 0.5494 0.04977 0.16417 0.0
C1127 C 0.52865 0.05198 0.1529 0.0
C1128 C 0.52621 0.04589 0.13052 0.0
C1129 C 0.55314 0.05859 0.18685 0.0
C1130 C 0.53939 0.04982 0.20459 0.0
C1131 C 0.57111 0.0746 0.19122 0.0
C1132 C 0.58526 0.08587 0.17293 0.0
C1133 C 0.57541 0.09811 0.15437 0.0
C1134 C 0.58882 0.10867 0.13721 0.0
C1135 C 0.61213 0.10725 0.13847 0.0
C1136 C 0.62208 0.09528 0.15692 0.0
C1137 C 0.60874 0.08466 0.17412 0.0
H1138 H 0.62248 0.11545 0.12518 0.0
H1139 H 0.48954 0.01666 0.29125 0.0
H1140 H 0.44874 0.55461 0.26444 0.0
H1141 H 0.46287 0.54119 0.30187 0.0
H1142 H 0.43192 0.59857 0.33092 0.0
H1143 H 0.41891 0.61247 0.29341 0.0
H1144 H 0.46979 0.59497 0.34973 0.0
H1145 H 0.41185 0.536 0.33415 0.0
H1146 H 0.39362 0.50462 0.31313 0.0
H1147 H 0.45275 0.46479 0.32128 0.0
H1148 H 0.47145 0.49609 0.34203 0.0
H1149 H 0.46764 0.55281 0.46616 0.0
H1150 H 0.45707 0.56475 0.42705 0.0
H1151 H 0.50117 0.51469 0.40274 0.0
H1152 H 0.51227 0.50338 0.44174 0.0
H1153 H 0.45969 0.51343 0.38105 0.0
H1154 H 0.5169 0.56945 0.3979 0.0
H1155 H 0.53716 0.60011 0.41815 0.0
H1156 H 0.48174 0.6448 0.40712 0.0
H1157 H 0.46094 0.61422 0.38716 0.0
C1158 C 0.44479 0.56415 0.2789 0.0
C1159 C 0.43242 0.58442 0.27601 0.0
C1160 C 0.45281 0.55643 0.30042 0.0
C1161 C 0.44825 0.56851 0.31971 0.0
C1162 C 0.4358 0.58876 0.31662 0.0
C1163 C 0.42815 0.59665 0.29513 0.0
C1164 C 0.45661 0.56063 0.343 0.0
C1165 C 0.46715 0.57718 0.35661 0.0
C1166 C 0.45432 0.53719 0.35204 0.0
C1167 C 0.44313 0.51852 0.33938 0.0
C1168 C 0.42102 0.52064 0.33127 0.0
C1169 C 0.4106 0.50285 0.31943 0.0
C1170 C 0.42205 0.48276 0.3158 0.0
C1171 C 0.44393 0.48039 0.32404 0.0
C1172 C 0.45444 0.49815 0.33583 0.0
C1173 C 0.47485 0.54421 0.45243 0.0
C1174 C 0.49054 0.52694 0.45698 0.0
C1175 C 0.46898 0.55118 0.43007 0.0
C1176 C 0.47835 0.54073 0.41176 0.0
C1177 C 0.49367 0.52308 0.41642 0.0
C1178 C 0.49996 0.51656 0.43873 0.0
C1179 C 0.472 0.54794 0.38784 0.0
C1180 C 0.4621 0.53124 0.37413 0.0
C1181 C 0.47502 0.57118 0.37867 0.0
C1182 C 0.4872 0.58937 0.39129 0.0
C1183 C 0.50887 0.58566 0.40008 0.0
C1184 C 0.5205 0.60308 0.41144 0.0
C1185 C 0.51071 0.62436 0.41399 0.0
C1186 C 0.48927 0.62827 0.40519 0.0
C1187 C 0.47755 0.6109 0.39386 0.0
H1188 H 0.51977 0.63785 0.42272 0.0
H1189 H 0.41394 0.469 0.30666 0.0
H1190 H 0.06087 0.40713 0.74827 0.0
H1191 H 0.0526 0.41689 0.78678 0.0
H1192 H 0.08147 0.48613 0.77288 0.0
H1193 H 0.08911 0.47684 0.73431 0.0
H1194 H 0.09963 0.46374 0.81128 0.0
H1195 H 0.02787 0.48053 0.77958 0.0
H1196 H 0.99268 0.4733 0.75847 0.0
H1197 H 0.97484 0.41585 0.80524 0.0
H1198 H 1.01011 0.42251 0.82646 0.0
H1199 H 0.06391 0.51859 0.90848 0.0
H1200 H 0.07468 0.50568 0.87178 0.0
H1201 H 0.03994 0.43936 0.88705 0.0
H1202 H 0.029 0.45269 0.92369 0.0
H1203 H 0.02543 0.45932 0.84821 0.0
H1204 H 0.09799 0.44386 0.88051 0.0
H1205 H 0.13293 0.45287 0.90145 0.0
H1206 H 0.14887 0.50991 0.85355 0.0
H1207 H 0.1139 0.50138 0.83243 0.0
C1208 C 0.06496 0.4246 0.75323 0.0
C1209 C 0.07601 0.44106 0.73828 0.0
C1210 C 0.06034 0.43011 0.77528 0.0
C1211 C 0.0667 0.45215 0.78275 0.0
C1212 C 0.07672 0.46893 0.76756 0.0
C1213 C 0.08113 0.46353 0.74553 0.0
C1214 C 0.06407 0.45733 0.80669 0.0
C1215 C 0.08338 0.46298 0.81933 0.0
C1216 C 0.04294 0.45598 0.81724 0.0
C1217 C 0.0218 0.4518 0.80442 0.0
C1218 C 0.01657 0.46617 0.78522 0.0
C1219 C 0.99658 0.46223 0.77326 0.0
C1220 C 0.98158 0.44407 0.78045 0.0
C1221 C 0.98651 0.42987 0.79965 0.0
C1222 C 1.0065 0.43372 0.81165 0.0
C1223 C 0.05948 0.50094 0.90425 0.0
C1224 C 0.04609 0.4864 0.91882 0.0
C1225 C 0.06551 0.49357 0.88331 0.0
C1226 C 0.05815 0.4715 0.87664 0.0
C1227 C 0.04584 0.45643 0.89185 0.0
C1228 C 0.03983 0.46386 0.91282 0.0
C1229 C 0.06104 0.46534 0.85298 0.0
C1230 C 0.04173 0.45976 0.84029 0.0
C1231 C 0.08217 0.46692 0.84236 0.0
C1232 C 0.10325 0.47207 0.85498 0.0
C1233 C 0.10887 0.45842 0.87452 0.0
C1234 C 0.1287 0.46342 0.88641 0.0
C1235 C 0.14309 0.48198 0.87886 0.0
C1236 C 0.1377 0.49554 0.85937 0.0
C1237 C 0.11791 0.4906 0.84742 0.0
H1238 H 0.15842 0.48582 0.88808 0.0
H1239 H 0.9661 0.44104 0.77118 0.0
H1240 H 0.73851 0.90498 0.94157 0.0
H1241 H 0.70249 0.917 0.95508 0.0
H1242 H 0.73096 0.98576 0.96407 0.0
H1243 H 0.76724 0.97379 0.95099 0.0
H1244 H 0.70148 0.9724 0.99906 0.0
H1245 H 0.69678 0.97683 0.91854 0.0
H1246 H 0.70164 0.9611 0.88134 0.0
H1247 H 0.65491 0.90434 0.89913 0.0
H1248 H 0.64993 0.91966 0.93654 0.0
H1249 H 0.5937 0.02121 0.01492 0.0
H1250 H 0.63155 0.01221 1.00402 0.0
H1251 H 0.6047 0.95159 0.97207 0.0
H1252 H 0.56666 0.96224 0.981 0.0
H1253 H 0.63543 0.96254 0.94863 0.0
H1254 H 0.64083 0.95825 0.03085 0.0
H1255 H 0.63946 0.97287 0.06896 0.0
H1256 H 0.68659 0.02868 0.04941 0.0
H1257 H 0.68812 0.01449 1.01117 0.0
C1258 C 0.73744 0.92262 0.94663 0.0
C1259 C 0.75639 0.93824 0.94472 0.0
C1260 C 0.71648 0.92962 0.95428 0.0
C1261 C 0.71337 0.95256 0.96051 0.0
C1262 C 0.7324 0.96799 0.95941 0.0
C1263 C 0.75335 0.96106 0.9516 0.0
C1264 C 0.69022 0.96051 0.96714 0.0
C1265 C 0.68707 0.97037 0.98794 0.0
C1266 C 0.67096 0.95796 0.95307 0.0
C1267 C 0.67303 0.94933 0.9303 0.0
C1268 C 0.68753 0.961 0.91448 0.0
C1269 C 0.69033 0.95215 0.89339 0.0
C1270 C 0.6786 0.93172 0.88789 0.0
C1271 C 0.66396 0.92018 0.90342 0.0
C1272 C 0.66109 0.92897 0.92454 0.0
C1273 C 0.59583 1.00595 1.00551 0.0
C1274 C 0.57673 0.99254 0.99895 0.0
C1275 C 0.61787 1.00044 0.9995 0.0
C1276 C 0.62208 0.98049 0.9876 0.0
C1277 C 0.6028 0.9671 0.98114 0.0
C1278 C 0.5807 0.97316 0.98638 0.0
C1279 C 0.64601 0.97384 0.98123 0.0
C1280 C 0.64951 0.96439 0.96017 0.0
C1281 C 0.66557 0.97675 0.99522 0.0
C1282 C 0.66438 0.98544 0.0181 0.0
C1283 C 0.65078 0.97372 0.03466 0.0
C1284 C 0.65 0.98192 0.05628 0.0
C1285 C 0.66287 1.00173 0.06158 0.0
C1286 C 0.67659 0.01337 0.04528 0.0
C1287 C 0.67743 1.00525 0.02364 0.0
H1288 H 0.66226 1.00803 0.07832 0.0
H1289 H 0.68086 0.92483 0.87158 0.0
H1290 H 0.75525 0.1407 0.43937 0.0
H1291 H 0.79297 0.13018 0.45192 0.0
H1292 H 0.76743 0.06132 0.47367 0.0
H1293 H 0.72966 0.07174 0.46122 0.0
H1294 H 0.79865 0.08039 0.50396 0.0
H1295 H 0.79086 0.06624 0.42576 0.0
H1296 H 0.78169 0.07596 0.38581 0.0
H1297 H 0.83287 0.13076 0.38345 0.0
H1298 H 0.84216 0.12154 0.42354 0.0
H1299 H 0.89114 0.00945 0.49997 0.0
H1300 H 0.85553 0.02842 0.49321 0.0
H1301 H 0.89148 0.0938 0.47677 0.0
H1302 H 0.92734 0.07457 0.48376 0.0
H1303 H 0.8566 0.08042 0.44476 0.0
H1304 H 0.86553 0.09044 0.52456 0.0
H1305 H 0.87502 0.07567 0.56322 0.0
H1306 H 0.82143 0.02363 0.56087 0.0
H1307 H 0.81173 0.03802 0.52212 0.0
C1308 C 0.75762 0.12349 0.44727 0.0
C1309 C 0.73962 0.10697 0.44924 0.0
C1310 C 0.77915 0.11747 0.45426 0.0
C1311 C 0.78291 0.09493 0.46348 0.0
C1312 C 0.76479 0.07879 0.46655 0.0
C1313 C 0.74331 0.08472 0.45937 0.0
C1314 C 0.80593 0.08774 0.46876 0.0
C1315 C 0.81132 0.08043 0.49103 0.0
C1316 C 0.82242 0.08788 0.45185 0.0
C1317 C 0.81699 0.09343 0.42773 0.0
C1318 C 0.80002 0.08052 0.41679 0.0
C1319 C 0.79483 0.08589 0.39411 0.0
C1320 C 0.80663 0.10403 0.38213 0.0
C1321 C 0.82371 0.11676 0.39278 0.0
C1322 C 0.82896 0.11145 0.41548 0.0
C1323 C 0.8913 0.02795 0.49532 0.0
C1324 C 0.91167 0.04075 0.49266 0.0
C1325 C 0.8711 0.03873 0.49139 0.0
C1326 C 0.87097 0.06249 0.48462 0.0
C1327 C 0.89134 0.07545 0.4821 0.0
C1328 C 0.91167 0.06463 0.48633 0.0
C1329 C 0.84933 0.07336 0.47997 0.0
C1330 C 0.8441 0.08107 0.45777 0.0
C1331 C 0.83288 0.07325 0.49684 0.0
C1332 C 0.83788 0.06533 0.52051 0.0
C1333 C 0.85574 0.07588 0.53233 0.0
C1334 C 0.86118 0.06757 0.55424 0.0
C1335 C 0.84882 0.04873 0.5645 0.0
C1336 C 0.83094 0.03826 0.55292 0.0
C1337 C 0.82541 0.04655 0.53102 0.0
H1338 H 0.85312 0.04225 0.58142 0.0
H1339 H 0.80258 0.10818 0.36457 0.0
H1340 H 0.26526 0.54799 0.09348 0.0
H1341 H 0.22863 0.53754 0.0775 0.0
H1342 H 0.20999 0.60899 0.07811 0.0
H1343 H 0.24625 0.61942 0.09516 0.0
H1344 H 0.17703 0.58259 0.09412 0.0
H1345 H 0.22226 0.57847 0.0276 0.0
H1346 H 0.25225 0.56475 1.0042 0.0
H1347 H 0.22638 0.49428 0.01523 0.0
H1348 H 0.1964 0.50752 0.0389 0.0
H1349 H 0.07189 0.56853 0.03805 0.0
H1350 H 0.11011 0.58015 0.04943 0.0
H1351 H 0.13158 0.51117 0.03816 0.0
H1352 H 0.09368 0.50044 0.02479 0.0
H1353 H 0.16371 0.53617 0.02749 0.0
H1354 H 0.12033 0.53756 0.09472 0.0
H1355 H 0.0906 0.54883 0.11984 0.0
H1356 H 0.11328 0.62055 0.11065 0.0
H1357 H 0.14293 0.60976 0.08524 0.0
C1358 C 0.25344 0.5616 0.09037 0.0
C1359 C 0.25905 0.58464 0.09607 0.0
C1360 C 0.2324 0.55557 0.08081 0.0
C1361 C 0.21619 0.57239 0.07627 0.0
C1362 C 0.22195 0.59551 0.08135 0.0
C1363 C 0.24297 0.60155 0.091 0.0
C1364 C 0.19289 0.56577 0.06765 0.0
C1365 C 0.17419 0.57274 0.07931 0.0
C1366 C 0.18876 0.55198 0.04889 0.0
C1367 C 0.20723 0.54398 0.03524 0.0
C1368 C 0.22312 0.56002 0.02525 0.0
C1369 C 0.24008 0.55233 1.01188 0.0
C1370 C 0.24126 0.52865 1.00828 0.0
C1371 C 0.22548 0.51261 0.01806 0.0
C1372 C 0.2085 0.5202 0.03144 0.0
C1373 C 0.08488 0.55596 0.03779 0.0
C1374 C 0.07976 0.53361 0.03038 0.0
C1375 C 0.10681 0.56248 0.0447 0.0
C1376 C 0.12416 0.54648 0.04553 0.0
C1377 C 0.11891 0.52411 0.03786 0.0
C1378 C 0.09713 0.51788 0.03018 0.0
C1379 C 0.14766 0.55301 0.05396 0.0
C1380 C 0.16644 0.546 0.04232 0.0
C1381 C 0.1519 0.56632 0.07309 0.0
C1382 C 0.13369 0.57287 0.08788 0.0
C1383 C 0.11883 0.55576 0.09789 0.0
C1384 C 0.10202 0.56206 0.11221 0.0
C1385 C 0.10002 0.58539 0.11679 0.0
C1386 C 0.11481 0.60249 0.10706 0.0
C1387 C 0.13162 0.59629 0.09269 0.0
H1388 H 0.08703 0.59022 0.12793 0.0
H1389 H 0.25436 0.52275 0.99788 0.0
H1390 H 0.22489 0.47227 0.58824 0.0
H1391 H 0.26451 0.48474 0.58264 0.0
H1392 H 0.27698 0.4186 0.55583 0.0
H1393 H 0.23798 0.40601 0.56181 0.0
H1394 H 0.30839 0.42938 0.58502 0.0
H1395 H 0.27155 0.46879 0.52161 0.0
H1396 H 0.24584 0.4957 0.50167 0.0
H1397 H 0.27673 0.5531 0.535 0.0
H1398 H 0.30244 0.52645 0.55536 0.0
H1399 H 0.41063 0.44406 0.53086 0.0
H1400 H 0.37013 0.43954 0.53659 0.0
H1401 H 0.37021 0.50816 0.56211 0.0
H1402 H 0.41081 0.51295 0.55536 0.0
H1403 H 0.33309 0.49941 0.53742 0.0
H1404 H 0.37226 0.45892 0.59853 0.0
H1405 H 0.39953 0.43145 0.61499 0.0
H1406 H 0.36488 0.37514 0.58324 0.0
H1407 H 0.33754 0.40231 0.56639 0.0
C1408 C 0.23617 0.46045 0.58121 0.0
C1409 C 0.2283 0.43829 0.57517 0.0
C1410 C 0.25871 0.46763 0.57787 0.0
C1411 C 0.27362 0.45267 0.56858 0.0
C1412 C 0.26577 0.43047 0.56292 0.0
C1413 C 0.24342 0.42337 0.56617 0.0
C1414 C 0.29761 0.45952 0.56507 0.0
C1415 C 0.31375 0.44466 0.57454 0.0
C1416 C 0.30467 0.47974 0.55183 0.0
C1417 C 0.28863 0.49557 0.54031 0.0
C1418 C 0.27262 0.48709 0.52495 0.0
C1419 C 0.25812 0.50231 0.5135 0.0
C1420 C 0.25958 0.52608 0.51715 0.0
C1421 C 0.27555 0.53467 0.53225 0.0
C1422 C 0.29008 0.51952 0.54376 0.0
C1423 C 0.40181 0.45826 0.53731 0.0
C1424 C 0.41354 0.47873 0.54288 0.0
C1425 C 0.37881 0.45565 0.54072 0.0
C1426 C 0.36735 0.47323 0.55044 0.0
C1427 C 0.37884 0.49431 0.5548 0.0
C1428 C 0.40188 0.49709 0.55092 0.0
C1429 C 0.34364 0.46901 0.55696 0.0
C1430 C 0.32766 0.48436 0.54819 0.0
C1431 C 0.33666 0.44912 0.57069 0.0
C1432 C 0.35288 0.43268 0.58116 0.0
C1433 C 0.37049 0.44069 0.59501 0.0
C1434 C 0.38597 0.42517 0.60441 0.0
C1435 C 0.38394 0.40157 0.60016 0.0
C1436 C 0.36641 0.39342 0.58654 0.0
C1437 C 0.35089 0.40886 0.57711 0.0
H1438 H 0.39595 0.38959 0.60743 0.0
H1439 H 0.24838 0.53785 0.5082 0.0
H1440 H 0.96611 0.77223 0.92829 0.0
H1441 H 0.98211 0.73491 0.94082 0.0
H1442 H 0.92073 0.71401 0.97517 0.0
H1443 H 0.90484 0.75107 0.96295 0.0
H1444 H 0.95373 0.70006 1.00105 0.0
H1445 H 0.93812 0.69429 0.92096 0.0
H1446 H 0.9422 0.70662 0.88068 0.0
H1447 H 0.0133 0.69824 0.88585 0.0
H1448 H 1.00967 0.6862 0.92624 0.0
H1449 H 0.96765 0.57853 0.02155 0.0
H1450 H 0.95551 0.61743 1.00957 0.0
H1451 H 0.01396 0.62849 0.96766 0.0
H1452 H 0.02485 0.58861 0.97811 0.0
H1453 H 0.98538 0.64917 0.94638 0.0
H1454 H 1.00305 0.65406 0.02463 0.0
H1455 H 1.00132 0.64219 0.06519 0.0
H1456 H 0.93069 0.65376 0.06487 0.0
H1457 H 0.93194 0.6654 0.02424 0.0
C1458 C 0.95589 0.75968 0.93837 0.0
C1459 C 0.93398 0.76513 0.94445 0.0
C1460 C 0.96513 0.73813 0.94561 0.0
C1461 C 0.9527 0.721 0.95889 0.0
C1462 C 0.93096 0.72657 0.9651 0.0
C1463 C 0.92181 0.74807 0.95803 0.0
C1464 C 0.96184 0.69728 0.96618 0.0
C1465 C 0.96046 0.68891 0.98897 0.0
C1466 C 0.97154 0.68259 0.95094 0.0
C1467 C 0.97364 0.68959 0.92664 0.0
C1468 C 0.95463 0.69522 0.91352 0.0
C1469 C 0.95687 0.70215 0.89067 0.0
C1470 C 0.978 0.70328 0.88072 0.0
C1471 C 0.99694 0.69741 0.89358 0.0
C1472 C 0.99481 0.69053 0.91645 0.0
C1473 C 0.97797 0.58929 1.00983 0.0
C1474 C 0.99739 0.58035 1.00103 0.0
C1475 C 0.97113 0.61187 1.00309 0.0
C1476 C 0.98403 0.62691 0.9881 0.0
C1477 C 1.00347 0.61779 0.97925 0.0
C1478 C 1.00985 0.59485 0.98536 0.0
C1479 C 0.97709 0.65169 0.9813 0.0
C1480 C 0.97886 0.66028 0.9586 0.0
C1481 C 0.96823 0.66681 0.99675 0.0
C1482 C 0.96757 0.66046 0.02134 0.0
C1483 C 0.98714 0.65403 0.0332 0.0
C1484 C 0.98624 0.64732 0.0562 0.0
C1485 C 0.9659 0.64718 0.06759 0.0
C1486 C 0.94644 0.65386 0.05602 0.0
C1487 C 0.94723 0.66055 0.03301 0.0
H1488 H 0.96522 0.64192 0.08538 0.0
H1489 H 0.97969 0.70865 0.86303 0.0
H1490 H 0.44153 0.76859 0.13336 0.0
H1491 H 0.45808 0.80693 0.12167 0.0
H1492 H 0.44712 0.79271 0.05197 0.0
H1493 H 0.43164 0.75392 0.06344 0.0
H1494 H 0.48485 0.81658 0.0547 0.0
H1495 H 0.41146 0.82689 0.08047 0.0
H1496 H 0.37949 0.82269 0.10645 0.0
H1497 H 0.41777 0.85919 0.15586 0.0
H1498 H 0.45012 0.8633 0.13028 0.0
H1499 H 0.48985 0.93466 1.01129 0.0
H1500 H 0.47801 0.89496 0.02324 0.0
H1501 H 0.49503 0.90831 0.09208 0.0
H1502 H 0.50669 0.94872 0.08017 0.0
H1503 H 0.45466 0.88487 0.0892 0.0
H1504 H 0.52837 0.87537 0.05838 0.0
H1505 H 0.55683 0.88049 0.02858 0.0
H1506 H 0.51327 0.8436 0.98371 0.0
H1507 H 0.48442 0.83851 1.01314 0.0
C1508 C 0.44296 0.77333 0.11551 0.0
C1509 C 0.43477 0.75797 0.09946 0.0
C1510 C 0.45224 0.79553 0.10881 0.0
C1511 C 0.45345 0.8032 0.08586 0.0
C1512 C 0.44627 0.78752 0.06978 0.0
C1513 C 0.43712 0.7653 0.07645 0.0
C1514 C 0.46145 0.8277 0.07872 0.0
C1515 C 0.4781 0.83147 0.06219 0.0
C1516 C 0.45273 0.84741 0.08821 0.0
C1517 C 0.4333 0.84515 0.10358 0.0
C1518 C 0.41312 0.83386 0.09695 0.0
C1519 C 0.39492 0.83152 0.11158 0.0
C1520 C 0.39662 0.8406 0.13282 0.0
C1521 C 0.4165 0.85212 0.13942 0.0
C1522 C 0.43477 0.85447 0.12486 0.0
C1523 C 0.49125 0.92928 0.02903 0.0
C1524 C 0.49939 0.94506 0.04475 0.0
C1525 C 0.48453 0.90635 0.03582 0.0
C1526 C 0.48591 0.89828 0.05855 0.0
C1527 C 0.49391 0.91398 0.0744 0.0
C1528 C 0.50068 0.93709 0.06758 0.0
C1529 C 0.47845 0.87369 0.06569 0.0
C1530 C 0.46165 0.86994 0.082 0.0
C1531 C 0.48661 0.85409 0.05549 0.0
C1532 C 0.50418 0.85666 0.03796 0.0
C1533 C 0.52482 0.86842 0.04214 0.0
C1534 C 0.54103 0.87132 0.02531 0.0
C1535 C 0.53685 0.8624 1.00426 0.0
C1536 C 0.51648 0.85049 1.00002 0.0
C1537 C 0.50022 0.84756 0.01679 0.0
H1538 H 0.5494 0.86469 0.99125 0.0
H1539 H 0.38252 0.83875 0.14414 0.0
H1540 H 0.06112 0.27796 0.54028 0.0
H1541 H 0.05398 0.23818 0.52791 0.0
H1542 H 0.06485 0.21027 0.59605 0.0
H1543 H 0.07176 0.24969 0.60832 0.0
H1544 H 0.08495 0.18489 0.56622 0.0
H1545 H 0.01286 0.21707 0.57535 0.0
H1546 H 0.9815 0.24326 0.56871 0.0
H1547 H 0.97817 0.22705 0.49919 0.0
H1548 H 1.00982 0.2011 0.50531 0.0
H1549 H 0.0361 0.07043 0.56316 0.0
H1550 H 0.04708 0.11035 0.57162 0.0
H1551 H 0.02275 0.13489 0.50594 0.0
H1552 H 1.01011 0.09505 0.49838 0.0
H1553 H 1.01122 0.16278 0.53269 0.0
H1554 H 0.08324 0.12828 0.52469 0.0
H1555 H 0.11342 0.10092 0.53314 0.0
H1556 H 0.11631 0.12029 0.60172 0.0
H1557 H 0.08598 0.1475 0.59379 0.0
C1558 C 0.06219 0.26324 0.55247 0.0
C1559 C 0.06681 0.2668 0.57527 0.0
C1560 C 0.05799 0.24059 0.54546 0.0
C1561 C 0.05863 0.22124 0.56112 0.0
C1562 C 0.06418 0.22487 0.58367 0.0
C1563 C 0.06807 0.24738 0.59069 0.0
C1564 C 0.05306 0.19716 0.55445 0.0
C1565 C 0.06882 0.17998 0.55889 0.0
C1566 C 0.03213 0.19081 0.54463 0.0
C1567 C 0.01401 0.20749 0.54069 0.0
C1568 C 1.00574 0.21943 0.55855 0.0
C1569 C 0.98783 0.23415 0.5549 0.0
C1570 C 0.97792 0.23691 0.53352 0.0
C1571 C 0.98593 0.22499 0.51572 0.0
C1572 C 1.00388 0.21032 0.51926 0.0
C1573 C 0.03287 0.08448 0.55071 0.0
C1574 C 0.02201 0.07984 0.53026 0.0
C1575 C 0.03952 0.10727 0.55536 0.0
C1576 C 0.03638 0.1258 0.53922 0.0
C1577 C 0.02544 0.12103 0.51874 0.0
C1578 C 0.01808 0.09831 0.51442 0.0
C1579 C 0.04325 0.15029 0.54402 0.0
C1580 C 0.02762 0.1676 0.53948 0.0
C1581 C 0.06431 0.15668 0.5538 0.0
C1582 C 0.08217 0.13981 0.55866 0.0
C1583 C 0.09016 0.12654 0.54162 0.0
C1584 C 0.10733 0.11109 0.54632 0.0
C1585 C 0.11675 0.10884 0.56796 0.0
C1586 C 0.109 0.12202 0.58497 0.0
C1587 C 0.09182 0.13746 0.58038 0.0
H1588 H 0.13007 0.09691 0.57153 0.0
H1589 H 0.96396 0.2482 0.53077 0.0
H1590 H 0.56633 0.2576 0.48764 0.0
H1591 H 0.55389 0.29561 0.49769 0.0
H1592 H 0.57483 0.32589 0.43277 0.0
H1593 H 0.58748 0.28808 0.42271 0.0
H1594 H 0.59242 0.34957 0.46887 0.0
H1595 H 0.52046 0.31795 0.44397 0.0
H1596 H 0.4884 0.28947 0.44402 0.0
H1597 H 0.47648 0.30006 0.51363 0.0
H1598 H 0.50869 0.32835 0.51409 0.0
H1599 H 0.55288 0.46273 0.47356 0.0
H1600 H 0.56113 0.42355 0.46317 0.0
H1601 H 0.526 0.39408 0.52204 0.0
H1602 H 0.51632 0.43317 0.53137 0.0
H1603 H 0.51572 0.3691 0.49021 0.0
H1604 H 0.58624 0.39942 0.5171 0.0
H1605 H 0.61795 0.42815 0.51915 0.0
H1606 H 0.63359 0.4191 0.45005 0.0
H1607 H 0.60176 0.39059 0.44746 0.0
C1608 C 0.56805 0.27233 0.47544 0.0
C1609 C 0.57796 0.2699 0.45442 0.0
C1610 C 0.56084 0.29397 0.48115 0.0
C1611 C 0.56348 0.31352 0.46596 0.0
C1612 C 0.57267 0.31098 0.44471 0.0
C1613 C 0.57972 0.28934 0.43892 0.0
C1614 C 0.55811 0.33694 0.47271 0.0
C1615 C 0.57561 0.35398 0.47329 0.0
C1616 C 0.53637 0.34229 0.47935 0.0
C1617 C 0.51717 0.32506 0.47912 0.0
C1618 C 0.51117 0.31401 0.45935 0.0
C1619 C 0.49293 0.29795 0.45928 0.0
C1620 C 0.48046 0.2929 0.47883 0.0
C1621 C 0.48618 0.30394 0.4985 0.0
C1622 C 0.50442 0.32 0.49868 0.0
C1623 C 0.54704 0.44782 0.48424 0.0
C1624 C 0.5341 0.45079 0.50326 0.0
C1625 C 0.55184 0.42546 0.47842 0.0
C1626 C 0.54461 0.40579 0.49208 0.0
C1627 C 0.53177 0.4089 0.5112 0.0
C1628 C 0.52633 0.4312 0.51659 0.0
C1629 C 0.55002 0.38196 0.48623 0.0
C1630 C 0.5326 0.36477 0.48591 0.0
C1631 C 0.57196 0.37629 0.48034 0.0
C1632 C 0.5915 0.39298 0.48204 0.0
C1633 C 0.59639 0.40362 0.50231 0.0
C1634 C 0.61438 0.41988 0.50357 0.0
C1635 C 0.62775 0.42549 0.48473 0.0
C1636 C 0.62321 0.41476 0.46462 0.0
C1637 C 0.60521 0.39853 0.46326 0.0
H1638 H 0.64164 0.43811 0.48572 0.0
H1639 H 0.46632 0.28048 0.47873 0.0
loop_
_geom_bond_atom_site_label_1
_geom_bond_atom_site_label_2
_geom_bond_distance
_geom_bond_site_symmetry_2
_ccdc_geom_bond_type
C0 C1 1.264 . S
C0 C5 1.479 . S
C0 C10 1.465 . S
C1 C0 1.264 . S
C1 C3 1.339 . S
C1 H28 0.931 . S
C2 C3 1.395 . S
C2 C4 1.320 . S
C3 C1 1.339 . S
C3 C2 1.395 . S
C3 H29 0.929 . S
C4 C2 1.320 . S
C4 C5 1.405 . S
C4 H30 0.930 . S
C5 C0 1.479 . S
C5 C4 1.405 . S
C5 H31 0.931 . S
U6 O7 2.454 . S
U6 O8 2.458 . S
U6 C9 2.984 . S
U6 C10 2.847 . S
U6 C23 2.882 . S
U6 O24 2.441 . S
U6 O25 2.420 . S
U6 O26 2.455 . S
U6 O27 2.449 . S
O7 U6 2.454 . S
O7 C9 1.353 . S
O8 U6 2.458 . S
O8 C9 1.286 . S
C9 U6 2.984 . S
C9 O7 1.353 . S
C9 O8 1.286 . S
C9 C11 1.363 . S
C10 C0 1.465 . S
C10 U6 2.847 . S
C10 O24 1.249 . S
C10 O25 1.202 . S
C11 C9 1.363 . S
C11 C13 1.408 . S
C11 C16 1.342 . S
C12 C13 1.310 . S
C12 C15 1.461 . S
C12 H32 0.932 . S
C13 C11 1.408 . S
C13 C12 1.310 . S
C13 H33 0.930 . S
C14 C15 1.474 . S
C14 C16 1.285 . S
C14 H34 0.929 . S
C15 C12 1.461 . S
C15 C14 1.474 . S
C16 C11 1.342 . S
C16 C14 1.285 . S
C16 H35 0.930 . S
C17 C20 1.424 . S
C17 C22 1.245 . S
C17 C23 1.428 . S
C18 C21 1.260 . S
C18 C22 1.477 . S
C18 H36 0.932 . S
C19 C20 1.384 . S
C19 C21 1.479 . S
C19 H37 0.929 . S
C20 C17 1.424 . S
C20 C19 1.384 . S
C20 H38 0.928 . S
C21 C18 1.260 . S
C21 C19 1.479 . S
C22 C17 1.245 . S
C22 C18 1.477 . S
C22 H39 0.932 . S
C23 U6 2.882 . S
C23 C17 1.428 . S
C23 O26 1.301 . S
C23 O27 1.282 . S
O24 U6 2.441 . S
O24 C10 1.249 . S
O25 U6 2.420 . S
O25 C10 1.202 . S
O26 U6 2.455 . S
O26 C23 1.301 . S
O27 U6 2.449 . S
O27 C23 1.282 . S
H28 C1 0.931 . S
H29 C3 0.929 . S
H30 C4 0.930 . S
H31 C5 0.931 . S
H32 C12 0.932 . S
H33 C13 0.930 . S
H34 C14 0.929 . S
H35 C16 0.930 . S
H36 C18 0.932 . S
H37 C19 0.929 . S
H38 C20 0.928 . S
H39 C22 0.932 . S
C40 C41 1.264 . S
C40 C45 1.479 . S
C40 C50 1.465 . S
C41 C40 1.264 . S
C41 C43 1.339 . S
C41 H68 0.931 . S
C42 C43 1.395 . S
C42 C44 1.320 . S
C43 C41 1.339 . S
C43 C42 1.395 . S
C43 H69 0.929 . S
C44 C42 1.320 . S
C44 C45 1.405 . S
C44 H70 0.930 . S
C45 C40 1.479 . S
C45 C44 1.405 . S
C45 H71 0.931 . S
U46 O47 2.454 . S
U46 O48 2.458 . S
U46 C49 2.984 . S
U46 C50 2.847 . S
U46 C63 2.882 . S
U46 O64 2.441 . S
U46 O65 2.420 . S
U46 O66 2.455 . S
U46 O67 2.449 . S
O47 U46 2.454 . S
O47 C49 1.353 . S
O48 U46 2.458 . S
O48 C49 1.286 . S
C49 U46 2.984 . S
C49 O47 1.353 . S
C49 O48 1.286 . S
C49 C51 1.363 . S
C50 C40 1.465 . S
C50 U46 2.847 . S
C50 O64 1.249 . S
C50 O65 1.202 . S
C51 C49 1.363 . S
C51 C53 1.408 . S
C51 C56 1.342 . S
C52 C53 1.310 . S
C52 C55 1.461 . S
C52 H72 0.932 . S
C53 C51 1.408 . S
C53 C52 1.310 . S
C53 H73 0.930 . S
C54 C55 1.474 . S
C54 C56 1.285 . S
C54 H74 0.929 . S
C55 C52 1.461 . S
C55 C54 1.474 . S
C56 C51 1.342 . S
C56 C54 1.285 . S
C56 H75 0.930 . S
C57 C60 1.424 . S
C57 C62 1.245 . S
C57 C63 1.428 . S
C58 C61 1.260 . S
C58 C62 1.477 . S
C58 H76 0.932 . S
C59 C60 1.384 . S
C59 C61 1.479 . S
C59 H77 0.929 . S
C60 C57 1.424 . S
C60 C59 1.384 . S
C60 H78 0.928 . S
C61 C58 1.260 . S
C61 C59 1.479 . S
C62 C57 1.245 . S
C62 C58 1.477 . S
C62 H79 0.932 . S
C63 U46 2.882 . S
C63 C57 1.428 . S
C63 O66 1.301 . S
C63 O67 1.282 . S
O64 U46 2.441 . S
O64 C50 1.249 . S
O65 U46 2.420 . S
O65 C50 1.202 . S
O66 U46 2.455 . S
O66 C63 1.301 . S
O67 U46 2.449 . S
O67 C63 1.282 . S
H68 C41 0.931 . S
H69 C43 0.929 . S
H70 C44 0.930 . S
H71 C45 0.931 . S
H72 C52 0.932 . S
H73 C53 0.930 . S
H74 C54 0.929 . S
H75 C56 0.930 . S
H76 C58 0.932 . S
H77 C59 0.929 . S
H78 C60 0.928 . S
H79 C62 0.932 . S
C80 C81 1.264 . S
C80 C85 1.479 . S
C80 C90 1.465 . S
C81 C80 1.264 . S
C81 C83 1.339 . S
C81 H108 0.931 . S
C82 C83 1.395 . S
C82 C84 1.320 . S
C83 C81 1.339 . S
C83 C82 1.395 . S
C83 H109 0.929 . S
C84 C82 1.320 . S
C84 C85 1.405 . S
C84 H110 0.930 . S
C85 C80 1.479 . S
C85 C84 1.405 . S
C85 H111 0.931 . S
U86 O87 2.454 . S
U86 O88 2.458 . S
U86 C89 2.984 . S
U86 C90 2.847 . S
U86 C103 2.882 . S
U86 O104 2.441 . S
U86 O105 2.420 . S
U86 O106 2.455 . S
U86 O107 2.449 . S
O87 U86 2.454 . S
O87 C89 1.353 . S
O88 U86 2.458 . S
O88 C89 1.286 . S
C89 U86 2.984 . S
C89 O87 1.353 . S
C89 O88 1.286 . S
C89 C91 1.363 . S
C90 C80 1.465 . S
C90 U86 2.847 . S
C90 O104 1.249 . S
C90 O105 1.202 . S
C91 C89 1.363 . S
C91 C93 1.408 . S
C91 C96 1.342 . S
C92 C93 1.310 . S
C92 C95 1.461 . S
C92 H112 0.932 . S
C93 C91 1.408 . S
C93 C92 1.310 . S
C93 H113 0.930 . S
C94 C95 1.474 . S
C94 C96 1.285 . S
C94 H114 0.929 . S
C95 C92 1.461 . S
C95 C94 1.474 . S
C96 C91 1.342 . S
C96 C94 1.285 . S
C96 H115 0.930 . S
C97 C100 1.424 . S
C97 C102 1.245 . S
C97 C103 1.428 . S
C98 C101 1.260 . S
C98 C102 1.477 . S
C98 H116 0.932 . S
C99 C100 1.384 . S
C99 C101 1.479 . S
C99 H117 0.929 . S
C100 C97 1.424 . S
C100 C99 1.384 . S
C100 H118 0.928 . S
C101 C98 1.260 . S
C101 C99 1.479 . S
C102 C97 1.245 . S
C102 C98 1.477 . S
C102 H119 0.932 . S
C103 U86 2.882 . S
C103 C97 1.428 . S
C103 O106 1.301 . S
C103 O107 1.282 . S
O104 U86 2.441 . S
O104 C90 1.249 . S
O105 U86 2.420 . S
O105 C90 1.202 . S
O106 U86 2.455 . S
O106 C103 1.301 . S
O107 U86 2.449 . S
O107 C103 1.282 . S
H108 C81 0.931 . S
H109 C83 0.929 . S
H110 C84 0.930 . S
H111 C85 0.931 . S
H112 C92 0.932 . S
H113 C93 0.930 . S
H114 C94 0.929 . S
H115 C96 0.930 . S
H116 C98 0.932 . S
H117 C99 0.929 . S
H118 C100 0.928 . S
H119 C102 0.932 . S
C120 C121 1.264 . S
C120 C125 1.479 . S
C120 C130 1.465 . S
C121 C120 1.264 . S
C121 C123 1.339 . S
C121 H148 0.931 . S
C122 C123 1.395 . S
C122 C124 1.320 . S
C123 C121 1.339 . S
C123 C122 1.395 . S
C123 H149 0.929 . S
C124 C122 1.320 . S
C124 C125 1.405 . S
C124 H150 0.930 . S
C125 C120 1.479 . S
C125 C124 1.405 . S
C125 H151 0.931 . S
U126 O127 2.454 . S
U126 O128 2.458 . S
U126 C129 2.984 . S
U126 C130 2.847 . S
U126 C143 2.882 . S
U126 O144 2.441 . S
U126 O145 2.420 . S
U126 O146 2.455 . S
U126 O147 2.449 . S
O127 U126 2.454 . S
O127 C129 1.353 . S
O128 U126 2.458 . S
O128 C129 1.286 . S
C129 U126 2.984 . S
C129 O127 1.353 . S
C129 O128 1.286 . S
C129 C131 1.363 . S
C130 C120 1.465 . S
C130 U126 2.847 . S
C130 O144 1.249 . S
C130 O145 1.202 . S
C131 C129 1.363 . S
C131 C133 1.408 . S
C131 C136 1.342 . S
C132 C133 1.310 . S
C132 C135 1.461 . S
C132 H152 0.932 . S
C133 C131 1.408 . S
C133 C132 1.310 . S
C133 H153 0.930 . S
C134 C135 1.474 . S
C134 C136 1.285 . S
C134 H154 0.929 . S
C135 C132 1.461 . S
C135 C134 1.474 . S
C136 C131 1.342 . S
C136 C134 1.285 . S
C136 H155 0.930 . S
C137 C140 1.424 . S
C137 C142 1.245 . S
C137 C143 1.428 . S
C138 C141 1.260 . S
C138 C142 1.477 . S
C138 H156 0.932 . S
C139 C140 1.384 . S
C139 C141 1.479 . S
C139 H157 0.929 . S
C140 C137 1.424 . S
C140 C139 1.384 . S
C140 H158 0.928 . S
C141 C138 1.260 . S
C141 C139 1.479 . S
C142 C137 1.245 . S
C142 C138 1.477 . S
C142 H159 0.932 . S
C143 U126 2.882 . S
C143 C137 1.428 . S
C143 O146 1.301 . S
C143 O147 1.282 . S
O144 U126 2.441 . S
O144 C130 1.249 . S
O145 U126 2.420 . S
O145 C130 1.202 . S
O146 U126 2.455 . S
O146 C143 1.301 . S
O147 U126 2.449 . S
O147 C143 1.282 . S
H148 C121 0.931 . S
H149 C123 0.929 . S
H150 C124 0.930 . S
H151 C125 0.931 . S
H152 C132 0.932 . S
H153 C133 0.930 . S
H154 C134 0.929 . S
H155 C136 0.930 . S
H156 C138 0.932 . S
H157 C139 0.929 . S
H158 C140 0.928 . S
H159 C142 0.932 . S
C160 C161 1.264 . S
C160 C165 1.479 . S
C160 C170 1.465 . S
C161 C160 1.264 . S
C161 C163 1.339 . S
C161 H188 0.931 . S
C162 C163 1.395 . S
C162 C164 1.320 . S
C163 C161 1.339 . S
C163 C162 1.395 . S
C163 H189 0.929 . S
C164 C162 1.320 . S
C164 C165 1.405 . S
C164 H190 0.930 . S
C165 C160 1.479 . S
C165 C164 1.405 . S
C165 H191 0.931 . S
U166 O167 2.454 . S
U166 O168 2.458 . S
U166 C169 2.984 . S
U166 C170 2.847 . S
U166 C183 2.882 . S
U166 O184 2.441 . S
U166 O185 2.420 . S
U166 O186 2.455 . S
U166 O187 2.449 . S
O167 U166 2.454 . S
O167 C169 1.353 . S
O168 U166 2.458 . S
O168 C169 1.286 . S
C169 U166 2.984 . S
C169 O167 1.353 . S
C169 O168 1.286 . S
C169 C171 1.363 . S
C170 C160 1.465 . S
C170 U166 2.847 . S
C170 O184 1.249 . S
C170 O185 1.202 . S
C171 C169 1.363 . S
C171 C173 1.408 . S
C171 C176 1.342 . S
C172 C173 1.310 . S
C172 C175 1.461 . S
C172 H192 0.932 . S
C173 C171 1.408 . S
C173 C172 1.310 . S
C173 H193 0.930 . S
C174 C175 1.474 . S
C174 C176 1.285 . S
C174 H194 0.929 . S
C175 C172 1.461 . S
C175 C174 1.474 . S
C176 C171 1.342 . S
C176 C174 1.285 . S
C176 H195 0.930 . S
C177 C180 1.424 . S
C177 C182 1.245 . S
C177 C183 1.428 . S
C178 C181 1.260 . S
C178 C182 1.477 . S
C178 H196 0.932 . S
C179 C180 1.384 . S
C179 C181 1.479 . S
C179 H197 0.929 . S
C180 C177 1.424 . S
C180 C179 1.384 . S
C180 H198 0.928 . S
C181 C178 1.260 . S
C181 C179 1.479 . S
C182 C177 1.245 . S
C182 C178 1.477 . S
C182 H199 0.932 . S
C183 U166 2.882 . S
C183 C177 1.428 . S
C183 O186 1.301 . S
C183 O187 1.282 . S
O184 U166 2.441 . S
O184 C170 1.249 . S
O185 U166 2.420 . S
O185 C170 1.202 . S
O186 U166 2.455 . S
O186 C183 1.301 . S
O187 U166 2.449 . S
O187 C183 1.282 . S
H188 C161 0.931 . S
H189 C163 0.929 . S
H190 C164 0.930 . S
H191 C165 0.931 . S
H192 C172 0.932 . S
H193 C173 0.930 . S
H194 C174 0.929 . S
H195 C176 0.930 . S
H196 C178 0.932 . S
H197 C179 0.929 . S
H198 C180 0.928 . S
H199 C182 0.932 . S
C200 C201 1.264 . S
C200 C205 1.479 . S
C200 C210 1.465 . S
C201 C200 1.264 . S
C201 C203 1.339 . S
C201 H228 0.931 . S
C202 C203 1.395 . S
C202 C204 1.320 . S
C203 C201 1.339 . S
C203 C202 1.395 . S
C203 H229 0.929 . S
C204 C202 1.320 . S
C204 C205 1.405 . S
C204 H230 0.930 . S
C205 C200 1.479 . S
C205 C204 1.405 . S
C205 H231 0.931 . S
U206 O207 2.454 . S
U206 O208 2.458 . S
U206 C209 2.984 . S
U206 C210 2.847 . S
U206 C223 2.882 . S
U206 O224 2.441 . S
U206 O225 2.420 . S
U206 O226 2.455 . S
U206 O227 2.449 . S
O207 U206 2.454 . S
O207 C209 1.353 . S
O208 U206 2.458 . S
O208 C209 1.286 . S
C209 U206 2.984 . S
C209 O207 1.353 . S
C209 O208 1.286 . S
C209 C211 1.363 . S
C210 C200 1.465 . S
C210 U206 2.847 . S
C210 O224 1.249 . S
C210 O225 1.202 . S
C211 C209 1.363 . S
C211 C213 1.408 . S
C211 C216 1.342 . S
C212 C213 1.310 . S
C212 C215 1.461 . S
C212 H232 0.932 . S
C213 C211 1.408 . S
C213 C212 1.310 . S
C213 H233 0.930 . S
C214 C215 1.474 . S
C214 C216 1.285 . S
C214 H234 0.929 . S
C215 C212 1.461 . S
C215 C214 1.474 . S
C216 C211 1.342 . S
C216 C214 1.285 . S
C216 H235 0.930 . S
C217 C220 1.424 . S
C217 C222 1.245 . S
C217 C223 1.428 . S
C218 C221 1.260 . S
C218 C222 1.477 . S
C218 H236 0.932 . S
C219 C220 1.384 . S
C219 C221 1.479 . S
C219 H237 0.929 . S
C220 C217 1.424 . S
C220 C219 1.384 . S
C220 H238 0.928 . S
C221 C218 1.260 . S
C221 C219 1.479 . S
C222 C217 1.245 . S
C222 C218 1.477 . S
C222 H239 0.932 . S
C223 U206 2.882 . S
C223 C217 1.428 . S
C223 O226 1.301 . S
C223 O227 1.282 . S
O224 U206 2.441 . S
O224 C210 1.249 . S
O225 U206 2.420 . S
O225 C210 1.202 . S
O226 U206 2.455 . S
O226 C223 1.301 . S
O227 U206 2.449 . S
O227 C223 1.282 . S
H228 C201 0.931 . S
H229 C203 0.929 . S
H230 C204 0.930 . S
H231 C205 0.931 . S
H232 C212 0.932 . S
H233 C213 0.930 . S
H234 C214 0.929 . S
H235 C216 0.930 . S
H236 C218 0.932 . S
H237 C219 0.929 . S
H238 C220 0.928 . S
H239 C222 0.932 . S
C240 C241 1.264 . S
C240 C245 1.479 . S
C240 C250 1.465 . S
C241 C240 1.264 . S
C241 C243 1.339 . S
C241 H268 0.931 . S
C242 C243 1.395 . S
C242 C244 1.320 . S
C243 C241 1.339 . S
C243 C242 1.395 . S
C243 H269 0.929 . S
C244 C242 1.320 . S
C244 C245 1.405 . S
C244 H270 0.930 . S
C245 C240 1.479 . S
C245 C244 1.405 . S
C245 H271 0.931 . S
U246 O247 2.454 . S
U246 O248 2.458 . S
U246 C249 2.984 . S
U246 C250 2.847 . S
U246 C263 2.882 . S
U246 O264 2.441 . S
U246 O265 2.420 . S
U246 O266 2.455 . S
U246 O267 2.449 . S
O247 U246 2.454 . S
O247 C249 1.353 . S
O248 U246 2.458 . S
O248 C249 1.286 . S
C249 U246 2.984 . S
C249 O247 1.353 . S
C249 O248 1.286 . S
C249 C251 1.363 . S
C250 C240 1.465 . S
C250 U246 2.847 . S
C250 O264 1.249 . S
C250 O265 1.202 . S
C251 C249 1.363 . S
C251 C253 1.408 . S
C251 C256 1.342 . S
C252 C253 1.310 . S
C252 C255 1.461 . S
C252 H272 0.932 . S
C253 C251 1.408 . S
C253 C252 1.310 . S
C253 H273 0.930 . S
C254 C255 1.474 . S
C254 C256 1.285 . S
C254 H274 0.929 . S
C255 C252 1.461 . S
C255 C254 1.474 . S
C256 C251 1.342 . S
C256 C254 1.285 . S
C256 H275 0.930 . S
C257 C260 1.424 . S
C257 C262 1.245 . S
C257 C263 1.428 . S
C258 C261 1.260 . S
C258 C262 1.477 . S
C258 H276 0.932 . S
C259 C260 1.384 . S
C259 C261 1.479 . S
C259 H277 0.929 . S
C260 C257 1.424 . S
C260 C259 1.384 . S
C260 H278 0.928 . S
C261 C258 1.260 . S
C261 C259 1.479 . S
C262 C257 1.245 . S
C262 C258 1.477 . S
C262 H279 0.932 . S
C263 U246 2.882 . S
C263 C257 1.428 . S
C263 O266 1.301 . S
C263 O267 1.282 . S
O264 U246 2.441 . S
O264 C250 1.249 . S
O265 U246 2.420 . S
O265 C250 1.202 . S
O266 U246 2.455 . S
O266 C263 1.301 . S
O267 U246 2.449 . S
O267 C263 1.282 . S
H268 C241 0.931 . S
H269 C243 0.929 . S
H270 C244 0.930 . S
H271 C245 0.931 . S
H272 C252 0.932 . S
H273 C253 0.930 . S
H274 C254 0.929 . S
H275 C256 0.930 . S
H276 C258 0.932 . S
H277 C259 0.929 . S
H278 C260 0.928 . S
H279 C262 0.932 . S
C280 C281 1.264 . S
C280 C285 1.479 . S
C280 C290 1.465 . S
C281 C280 1.264 . S
C281 C283 1.339 . S
C281 H308 0.931 . S
C282 C283 1.395 . S
C282 C284 1.320 . S
C283 C281 1.339 . S
C283 C282 1.395 . S
C283 H309 0.929 . S
C284 C282 1.320 . S
C284 C285 1.405 . S
C284 H310 0.930 . S
C285 C280 1.479 . S
C285 C284 1.405 . S
C285 H311 0.931 . S
U286 O287 2.454 . S
U286 O288 2.458 . S
U286 C289 2.984 . S
U286 C290 2.847 . S
U286 C303 2.882 . S
U286 O304 2.441 . S
U286 O305 2.420 . S
U286 O306 2.455 . S
U286 O307 2.449 . S
O287 U286 2.454 . S
O287 C289 1.353 . S
O288 U286 2.458 . S
O288 C289 1.286 . S
C289 U286 2.984 . S
C289 O287 1.353 . S
C289 O288 1.286 . S
C289 C291 1.363 . S
C290 C280 1.465 . S
C290 U286 2.847 . S
C290 O304 1.249 . S
C290 O305 1.202 . S
C291 C289 1.363 . S
C291 C293 1.408 . S
C291 C296 1.342 . S
C292 C293 1.310 . S
C292 C295 1.461 . S
C292 H312 0.932 . S
C293 C291 1.408 . S
C293 C292 1.310 . S
C293 H313 0.930 . S
C294 C295 1.474 . S
C294 C296 1.285 . S
C294 H314 0.929 . S
C295 C292 1.461 . S
C295 C294 1.474 . S
C296 C291 1.342 . S
C296 C294 1.285 . S
C296 H315 0.930 . S
C297 C300 1.424 . S
C297 C302 1.245 . S
C297 C303 1.428 . S
C298 C301 1.260 . S
C298 C302 1.477 . S
C298 H316 0.932 . S
C299 C300 1.384 . S
C299 C301 1.479 . S
C299 H317 0.929 . S
C300 C297 1.424 . S
C300 C299 1.384 . S
C300 H318 0.928 . S
C301 C298 1.260 . S
C301 C299 1.479 . S
C302 C297 1.245 . S
C302 C298 1.477 . S
C302 H319 0.932 . S
C303 U286 2.882 . S
C303 C297 1.428 . S
C303 O306 1.301 . S
C303 O307 1.282 . S
O304 U286 2.441 . S
O304 C290 1.249 . S
O305 U286 2.420 . S
O305 C290 1.202 . S
O306 U286 2.455 . S
O306 C303 1.301 . S
O307 U286 2.449 . S
O307 C303 1.282 . S
H308 C281 0.931 . S
H309 C283 0.929 . S
H310 C284 0.930 . S
H311 C285 0.931 . S
H312 C292 0.932 . S
H313 C293 0.930 . S
H314 C294 0.929 . S
H315 C296 0.930 . S
H316 C298 0.932 . S
H317 C299 0.929 . S
H318 C300 0.928 . S
H319 C302 0.932 . S
Co320 N325 2.057 . S
Co320 O337 2.021 . S
Co320 O340 2.062 . S
Co320 O344 2.117 1_545 S
Co320 O345 2.020 . S
C321 O341 1.259 1_655 S
C321 O344 1.258 . S
Co322 N331 2.057 . S
Co322 O338 2.117 1_565 S
Co322 O339 2.020 1_565 S
Co322 O341 2.021 . S
Co322 O346 2.062 . S
C323 N325 1.316 . S
C323 N326 1.347 . S
C323 H328 0.931 . S
C324 N325 1.384 . S
C324 C327 1.356 . S
C324 H329 0.916 1_545 S
N325 Co320 2.057 . S
N325 C323 1.316 . S
N325 C324 1.384 . S
N326 C323 1.347 . S
N326 C327 1.373 . S
C327 C324 1.356 . S
C327 N326 1.373 . S
C327 H348 0.931 . S
H328 C323 0.931 . S
H329 C324 0.916 1_565 S
C330 O337 1.259 1_455 S
C330 O338 1.258 . S
N331 Co322 2.057 . S
N331 C332 1.316 . S
N331 C333 1.375 1_565 S
C332 N331 1.316 . S
C332 N334 1.347 . S
C332 H343 0.931 . S
C333 N331 1.375 1_545 S
C333 C335 1.333 1_545 S
C333 H342 0.930 . S
N334 C332 1.347 . S
N334 C335 1.412 . S
C335 C333 1.333 1_565 S
C335 N334 1.412 . S
C335 H349 0.913 1_565 S
C336 O339 1.256 . S
C336 O340 1.255 1_455 S
O337 Co320 2.021 . S
O337 C330 1.259 1_655 S
O338 Co322 2.117 1_545 S
O338 C330 1.258 . S
O339 Co322 2.020 1_545 S
O339 C336 1.256 . S
O340 Co320 2.062 . S
O340 C336 1.255 1_655 S
O341 C321 1.259 1_455 S
O341 Co322 2.021 . S
H342 C333 0.930 . S
H343 C332 0.931 . S
O344 Co320 2.117 1_565 S
O344 C321 1.258 . S
O345 Co320 2.020 . S
O345 C347 1.256 1_545 S
O346 Co322 2.062 . S
O346 C347 1.255 1_455 S
C347 O345 1.256 1_565 S
C347 O346 1.255 1_655 S
H348 C327 0.931 . S
H349 C335 0.913 1_545 S
Co350 N355 2.057 . S
Co350 O367 2.021 1_565 S
Co350 O370 2.062 . S
Co350 O374 2.117 1_556 S
Co350 O375 2.020 1_565 S
C351 O371 1.259 . S
C351 O374 1.258 . S
Co352 N361 2.057 . S
Co352 O368 2.117 . S
Co352 O369 2.020 1_545 S
Co352 O371 2.021 1_545 S
Co352 O376 2.062 . S
C353 N355 1.316 . S
C353 N356 1.347 . S
C353 H358 0.931 1_565 S
C354 N355 1.375 . S
C354 C357 1.350 . S
C354 H359 0.930 . S
N355 Co350 2.057 . S
N355 C353 1.316 . S
N355 C354 1.375 . S
N356 C353 1.347 . S
N356 C357 1.373 . S
C357 C354 1.350 . S
C357 N356 1.373 . S
C357 H378 0.931 . S
H358 C353 0.931 1_545 S
H359 C354 0.930 . S
C360 O367 1.259 . S
C360 O368 1.258 1_556 S
N361 Co352 2.057 . S
N361 C362 1.316 . S
N361 C363 1.375 . S
C362 N361 1.316 . S
C362 N364 1.347 . S
C362 H373 0.896 1_545 S
C363 N361 1.375 . S
C363 C365 1.350 . S
C363 H372 0.930 . S
N364 C362 1.347 . S
N364 C365 1.373 . S
C365 C363 1.350 . S
C365 N364 1.373 . S
C365 H379 0.931 . S
C366 O369 1.256 1_556 S
C366 O370 1.255 . S
O367 Co350 2.021 1_545 S
O367 C360 1.259 . S
O368 Co352 2.117 . S
O368 C360 1.258 1_554 S
O369 Co352 2.020 1_565 S
O369 C366 1.256 1_554 S
O370 Co350 2.062 . S
O370 C366 1.255 . S
O371 C351 1.259 . S
O371 Co352 2.021 1_565 S
H372 C363 0.930 . S
H373 C362 0.896 1_565 S
O374 Co350 2.117 1_554 S
O374 C351 1.258 . S
O375 Co350 2.020 1_545 S
O375 C377 1.256 1_556 S
O376 Co352 2.062 . S
O376 C377 1.255 . S
C377 O375 1.256 1_554 S
C377 O376 1.255 . S
H378 C357 0.931 . S
H379 C365 0.931 . S
Co380 N385 2.057 . S
Co380 O397 2.021 . S
Co380 O400 2.062 . S
Co380 O404 2.117 . S
Co380 O405 2.020 . S
C381 O401 1.259 . S
C381 O404 1.258 . S
Co382 N391 2.057 . S
Co382 O398 2.117 . S
Co382 O399 2.020 . S
Co382 O401 2.021 . S
Co382 O406 2.062 . S
C383 N385 1.316 . S
C383 N386 1.347 . S
C383 H388 0.931 . S
C384 N385 1.375 . S
C384 C387 1.350 . S
C384 H389 0.930 . S
N385 Co380 2.057 . S
N385 C383 1.316 . S
N385 C384 1.375 . S
N386 C383 1.347 . S
N386 C387 1.373 . S
C387 C384 1.350 . S
C387 N386 1.373 . S
C387 H408 0.931 . S
H388 C383 0.931 . S
H389 C384 0.930 . S
C390 O397 1.259 . S
C390 O398 1.258 . S
N391 Co382 2.057 . S
N391 C392 1.316 . S
N391 C393 1.375 . S
C392 N391 1.316 . S
C392 N394 1.347 . S
C392 H403 0.931 . S
C393 N391 1.375 . S
C393 C395 1.350 . S
C393 H402 0.930 . S
N394 C392 1.347 . S
N394 C395 1.373 . S
C395 C393 1.350 . S
C395 N394 1.373 . S
C395 H409 0.931 . S
C396 O399 1.256 . S
C396 O400 1.255 . S
O397 Co380 2.021 . S
O397 C390 1.259 . S
O398 Co382 2.117 . S
O398 C390 1.258 . S
O399 Co382 2.020 . S
O399 C396 1.256 . S
O400 Co380 2.062 . S
O400 C396 1.255 . S
O401 C381 1.259 . S
O401 Co382 2.021 . S
H402 C393 0.930 . S
H403 C392 0.931 . S
O404 Co380 2.117 . S
O404 C381 1.258 . S
O405 Co380 2.020 . S
O405 C407 1.256 . S
O406 Co382 2.062 . S
O406 C407 1.255 . S
C407 O405 1.256 . S
C407 O406 1.255 . S
H408 C387 0.931 . S
H409 C395 0.931 . S
Co410 N415 2.057 . S
Co410 O427 2.021 . S
Co410 O430 2.062 . S
Co410 O434 2.117 1_455 S
Co410 O435 2.020 1_455 S
C411 O431 1.259 1_556 S
C411 O434 1.258 . S
Co412 N421 2.057 . S
Co412 O428 2.117 1_655 S
Co412 O429 2.020 1_655 S
Co412 O431 2.021 . S
Co412 O436 2.062 . S
C413 N415 1.316 . S
C413 N416 1.347 . S
C413 H418 0.931 . S
C414 N415 1.375 1_655 S
C414 C417 1.350 1_655 S
C414 H419 0.930 . S
N415 Co410 2.057 . S
N415 C413 1.316 . S
N415 C414 1.375 1_455 S
N416 C413 1.347 . S
N416 C417 1.373 . S
C417 C414 1.350 1_455 S
C417 N416 1.373 . S
C417 H438 0.909 1_455 S
H418 C413 0.931 . S
H419 C414 0.930 . S
C420 O427 1.259 1_554 S
C420 O428 1.258 . S
N421 Co412 2.057 . S
N421 C422 1.316 . S
N421 C423 1.375 1_655 S
C422 N421 1.316 . S
C422 N424 1.347 . S
C422 H433 0.931 . S
C423 N421 1.375 1_455 S
C423 C425 1.350 1_455 S
C423 H432 0.930 . S
N424 C422 1.347 . S
N424 C425 1.373 . S
C425 C423 1.350 1_655 S
C425 N424 1.373 . S
C425 H439 0.931 1_655 S
C426 O429 1.256 . S
C426 O430 1.255 1_554 S
O427 Co410 2.021 . S
O427 C420 1.259 1_556 S
O428 Co412 2.117 1_455 S
O428 C420 1.258 . S
O429 Co412 2.020 1_455 S
O429 C426 1.256 . S
O430 Co410 2.062 . S
O430 C426 1.255 1_556 S
O431 C411 1.259 1_554 S
O431 Co412 2.021 . S
H432 C423 0.930 . S
H433 C422 0.931 . S
O434 Co410 2.117 1_655 S
O434 C411 1.258 . S
O435 Co410 2.020 1_655 S
O435 C437 1.255 . S
O436 Co412 2.062 . S
O436 C437 1.255 1_554 S
C437 O435 1.255 . S
C437 O436 1.255 1_556 S
H438 C417 0.909 1_655 S
H439 C425 0.931 1_455 S
H440 C458 0.951 . S
H441 C460 0.951 . S
H442 C462 0.950 . S
H443 C463 0.950 . S
H444 C465 0.950 . S
H445 C468 0.950 . S
H446 C469 0.950 . S
H447 C471 0.950 . S
H448 C472 0.950 . S
H449 C473 0.951 1_565 S
H450 C475 0.951 . S
H451 C477 0.950 . S
H452 C478 0.950 . S
H453 C480 0.950 . S
H454 C483 0.950 . S
H455 C484 0.949 1_545 S
H456 C486 0.943 1_455 S
H457 C487 0.950 . S
C458 H440 0.951 . S
C458 C459 1.366 . S
C458 C460 1.388 . S
C459 C458 1.366 . S
C459 C463 1.385 . S
C460 H441 0.951 . S
C460 C458 1.388 . S
C460 C461 1.366 . S
C461 C460 1.366 . S
C461 C462 1.414 . S
C461 C464 1.499 . S
C462 H442 0.950 . S
C462 C461 1.414 . S
C462 C463 1.374 . S
C463 H443 0.950 . S
C463 C459 1.385 . S
C463 C462 1.374 . S
C464 C461 1.499 . S
C464 C465 1.373 . S
C464 C466 1.389 . S
C465 H444 0.950 . S
C465 C464 1.373 . S
C465 C481 1.377 . S
C466 C464 1.389 . S
C466 C467 1.524 . S
C466 C480 1.377 . S
C467 C466 1.524 . S
C467 C468 1.397 . S
C467 C472 1.363 . S
C468 H445 0.950 . S
C468 C467 1.397 . S
C468 C469 1.334 . S
C469 H446 0.950 . S
C469 C468 1.334 . S
C469 C470 1.287 . S
C470 C469 1.287 . S
C470 C471 1.524 . S
C470 H489 0.913 . S
C471 H447 0.950 . S
C471 C470 1.524 . S
C471 C472 1.415 . S
C472 H448 0.950 . S
C472 C467 1.363 . S
C472 C471 1.415 . S
C473 H449 0.951 1_545 S
C473 C474 1.366 . S
C473 C475 1.388 . S
C474 C473 1.366 . S
C474 C478 1.385 . S
C475 H450 0.951 . S
C475 C473 1.388 . S
C475 C476 1.366 . S
C476 C475 1.366 . S
C476 C477 1.414 . S
C476 C479 1.499 . S
C477 H451 0.950 . S
C477 C476 1.414 . S
C477 C478 1.374 . S
C478 H452 0.950 . S
C478 C474 1.385 . S
C478 C477 1.374 . S
C479 C476 1.499 . S
C479 C480 1.373 . S
C479 C481 1.389 . S
C480 H453 0.950 . S
C480 C466 1.377 . S
C480 C479 1.373 . S
C481 C465 1.377 . S
C481 C479 1.389 . S
C481 C482 1.524 . S
C482 C481 1.524 . S
C482 C483 1.397 1_455 S
C482 C487 1.363 1_545 S
C483 H454 0.950 . S
C483 C482 1.397 1_655 S
C483 C484 1.330 1_545 S
C484 H455 0.949 1_565 S
C484 C483 1.330 1_565 S
C484 C485 1.293 . S
C485 C484 1.293 . S
C485 C486 1.555 . S
C485 H488 0.999 . S
C486 H456 0.943 1_655 S
C486 C485 1.555 . S
C486 C487 1.390 1_655 S
C487 H457 0.950 . S
C487 C482 1.363 1_565 S
C487 C486 1.390 1_455 S
H488 C485 0.999 . S
H489 C470 0.913 . S
H490 C508 0.951 . S
H491 C510 0.951 . S
H492 C512 0.950 . S
H493 C513 0.950 . S
H494 C515 0.950 . S
H495 C518 0.950 . S
H496 C519 0.950 . S
H497 C521 0.950 . S
H498 C522 0.950 . S
H499 C523 0.951 . S
H500 C525 0.951 . S
H501 C527 0.950 . S
H502 C528 0.950 . S
H503 C530 0.950 . S
H504 C533 0.950 . S
H505 C534 0.950 . S
H506 C536 0.950 . S
H507 C537 0.950 . S
C508 H490 0.951 . S
C508 C509 1.366 . S
C508 C510 1.388 . S
C509 C508 1.366 . S
C509 C513 1.385 . S
C510 H491 0.951 . S
C510 C508 1.388 . S
C510 C511 1.366 . S
C511 C510 1.366 . S
C511 C512 1.414 . S
C511 C514 1.499 . S
C512 H492 0.950 . S
C512 C511 1.414 . S
C512 C513 1.374 . S
C513 H493 0.950 . S
C513 C509 1.385 . S
C513 C512 1.374 . S
C514 C511 1.499 . S
C514 C515 1.373 . S
C514 C516 1.389 . S
C515 H494 0.950 . S
C515 C514 1.373 . S
C515 C531 1.377 . S
C516 C514 1.389 . S
C516 C517 1.524 . S
C516 C530 1.377 . S
C517 C516 1.524 . S
C517 C518 1.397 . S
C517 C522 1.363 . S
C518 H495 0.950 . S
C518 C517 1.397 . S
C518 C519 1.334 . S
C519 H496 0.950 . S
C519 C518 1.334 . S
C519 C520 1.287 . S
C520 C519 1.287 . S
C520 C521 1.524 . S
C520 H539 0.913 . S
C521 H497 0.950 . S
C521 C520 1.524 . S
C521 C522 1.415 . S
C522 H498 0.950 . S
C522 C517 1.363 . S
C522 C521 1.415 . S
C523 H499 0.951 . S
C523 C524 1.366 . S
C523 C525 1.388 . S
C524 C523 1.366 . S
C524 C528 1.385 . S
C525 H500 0.951 . S
C525 C523 1.388 . S
C525 C526 1.366 . S
C526 C525 1.366 . S
C526 C527 1.414 . S
C526 C529 1.499 . S
C527 H501 0.950 . S
C527 C526 1.414 . S
C527 C528 1.374 . S
C528 H502 0.950 . S
C528 C524 1.385 . S
C528 C527 1.374 . S
C529 C526 1.499 . S
C529 C530 1.373 . S
C529 C531 1.389 . S
C530 H503 0.950 . S
C530 C516 1.377 . S
C530 C529 1.373 . S
C531 C515 1.377 . S
C531 C529 1.389 . S
C531 C532 1.524 . S
C532 C531 1.524 . S
C532 C533 1.397 . S
C532 C537 1.363 . S
C533 H504 0.950 . S
C533 C532 1.397 . S
C533 C534 1.334 1_565 S
C534 H505 0.950 . S
C534 C533 1.334 1_545 S
C534 C535 1.279 1_545 S
C535 C534 1.279 1_565 S
C535 C536 1.548 . S
C535 H538 0.983 1_565 S
C536 H506 0.950 . S
C536 C535 1.548 . S
C536 C537 1.415 . S
C537 H507 0.950 . S
C537 C532 1.363 . S
C537 C536 1.415 . S
H538 C535 0.983 1_545 S
H539 C520 0.913 . S
H540 C558 0.951 . S
H541 C560 0.951 . S
H542 C562 0.950 . S
H543 C563 0.950 . S
H544 C565 0.950 . S
H545 C568 0.950 . S
H546 C569 0.950 . S
H547 C571 0.950 . S
H548 C572 0.950 . S
H549 C573 0.951 . S
H550 C575 0.951 . S
H551 C577 0.950 . S
H552 C578 0.950 . S
H553 C580 0.950 . S
H554 C583 0.950 . S
H555 C584 0.950 . S
H556 C586 0.950 . S
H557 C587 0.950 . S
C558 H540 0.951 . S
C558 C559 1.366 . S
C558 C560 1.388 . S
C559 C558 1.366 . S
C559 C563 1.385 . S
C560 H541 0.951 . S
C560 C558 1.388 . S
C560 C561 1.366 . S
C561 C560 1.366 . S
C561 C562 1.414 . S
C561 C564 1.499 . S
C562 H542 0.950 . S
C562 C561 1.414 . S
C562 C563 1.374 . S
C563 H543 0.950 . S
C563 C559 1.385 . S
C563 C562 1.374 . S
C564 C561 1.499 . S
C564 C565 1.373 . S
C564 C566 1.389 . S
C565 H544 0.950 . S
C565 C564 1.373 . S
C565 C581 1.377 . S
C566 C564 1.389 . S
C566 C567 1.524 . S
C566 C580 1.377 . S
C567 C566 1.524 . S
C567 C568 1.397 . S
C567 C572 1.363 . S
C568 H545 0.950 . S
C568 C567 1.397 . S
C568 C569 1.334 . S
C569 H546 0.950 . S
C569 C568 1.334 . S
C569 C570 1.287 . S
C570 C569 1.287 . S
C570 C571 1.524 . S
C570 H589 0.913 . S
C571 H547 0.950 . S
C571 C570 1.524 . S
C571 C572 1.415 . S
C572 H548 0.950 . S
C572 C567 1.363 . S
C572 C571 1.415 . S
C573 H549 0.951 . S
C573 C574 1.366 . S
C573 C575 1.388 . S
C574 C573 1.366 . S
C574 C578 1.385 . S
C575 H550 0.951 . S
C575 C573 1.388 . S
C575 C576 1.366 . S
C576 C575 1.366 . S
C576 C577 1.414 . S
C576 C579 1.499 . S
C577 H551 0.950 . S
C577 C576 1.414 . S
C577 C578 1.374 . S
C578 H552 0.950 . S
C578 C574 1.385 . S
C578 C577 1.374 . S
C579 C576 1.499 . S
C579 C580 1.373 . S
C579 C581 1.389 . S
C580 H553 0.950 . S
C580 C566 1.377 . S
C580 C579 1.373 . S
C581 C565 1.377 . S
C581 C579 1.389 . S
C581 C582 1.524 . S
C582 C581 1.524 . S
C582 C583 1.397 . S
C582 C587 1.363 . S
C583 H554 0.950 . S
C583 C582 1.397 . S
C583 C584 1.334 . S
C584 H555 0.950 . S
C584 C583 1.334 . S
C584 C585 1.287 . S
C585 C584 1.287 . S
C585 C586 1.524 . S
C585 H588 0.999 . S
C586 H556 0.950 . S
C586 C585 1.524 . S
C586 C587 1.415 . S
C587 H557 0.950 . S
C587 C582 1.363 . S
C587 C586 1.415 . S
H588 C585 0.999 . S
H589 C570 0.913 . S
H590 C608 0.951 . S
H591 C610 0.951 . S
H592 C612 0.950 . S
H593 C613 0.950 . S
H594 C615 0.950 . S
H595 C618 0.950 . S
H596 C619 0.950 . S
H597 C621 0.950 . S
H598 C622 0.950 . S
H599 C623 0.951 . S
H600 C625 0.951 . S
H601 C627 0.950 . S
H602 C628 0.950 . S
H603 C630 0.950 . S
H604 C633 0.950 . S
H605 C634 0.950 . S
H606 C636 0.950 . S
H607 C637 0.950 . S
C608 H590 0.951 . S
C608 C609 1.366 . S
C608 C610 1.388 . S
C609 C608 1.366 . S
C609 C613 1.385 . S
C610 H591 0.951 . S
C610 C608 1.388 . S
C610 C611 1.366 . S
C611 C610 1.366 . S
C611 C612 1.414 . S
C611 C614 1.499 . S
C612 H592 0.950 . S
C612 C611 1.414 . S
C612 C613 1.374 . S
C613 H593 0.950 . S
C613 C609 1.385 . S
C613 C612 1.374 . S
C614 C611 1.499 . S
C614 C615 1.373 . S
C614 C616 1.389 . S
C615 H594 0.950 . S
C615 C614 1.373 . S
C615 C631 1.377 . S
C616 C614 1.389 . S
C616 C617 1.524 . S
C616 C630 1.377 . S
C617 C616 1.524 . S
C617 C618 1.397 . S
C617 C622 1.363 . S
C618 H595 0.950 . S
C618 C617 1.397 . S
C618 C619 1.334 1_655 S
C619 H596 0.950 . S
C619 C618 1.334 1_455 S
C619 C620 1.287 . S
C620 C619 1.287 . S
C620 C621 1.524 1_455 S
C620 H639 0.913 . S
C621 H597 0.950 . S
C621 C620 1.524 1_655 S
C621 C622 1.415 . S
C622 H598 0.950 . S
C622 C617 1.363 . S
C622 C621 1.415 . S
C623 H599 0.951 . S
C623 C624 1.366 . S
C623 C625 1.388 . S
C624 C623 1.366 . S
C624 C628 1.385 . S
C625 H600 0.951 . S
C625 C623 1.388 . S
C625 C626 1.366 . S
C626 C625 1.366 . S
C626 C627 1.414 . S
C626 C629 1.499 . S
C627 H601 0.950 . S
C627 C626 1.414 . S
C627 C628 1.374 . S
C628 H602 0.950 . S
C628 C624 1.385 . S
C628 C627 1.374 . S
C629 C626 1.499 . S
C629 C630 1.373 . S
C629 C631 1.389 . S
C630 H603 0.950 . S
C630 C616 1.377 . S
C630 C629 1.373 . S
C631 C615 1.377 . S
C631 C629 1.389 . S
C631 C632 1.524 . S
C632 C631 1.524 . S
C632 C633 1.397 . S
C632 C637 1.363 . S
C633 H604 0.950 . S
C633 C632 1.397 . S
C633 C634 1.334 . S
C634 H605 0.950 . S
C634 C633 1.334 . S
C634 C635 1.287 . S
C635 C634 1.287 . S
C635 C636 1.524 . S
C635 H638 0.999 . S
C636 H606 0.950 . S
C636 C635 1.524 . S
C636 C637 1.415 . S
C637 H607 0.950 . S
C637 C632 1.363 . S
C637 C636 1.415 . S
H638 C635 0.999 . S
H639 C620 0.913 . S
H640 C658 0.951 . S
H641 C660 0.951 . S
H642 C662 0.950 . S
H643 C663 0.950 . S
H644 C665 0.950 . S
H645 C668 0.950 . S
H646 C669 0.950 . S
H647 C671 0.950 . S
H648 C672 0.950 . S
H649 C673 0.951 1_565 S
H650 C675 0.951 . S
H651 C677 0.950 . S
H652 C678 0.950 . S
H653 C680 0.950 . S
H654 C683 0.950 . S
H655 C684 0.950 . S
H656 C686 0.950 . S
H657 C687 0.950 1_565 S
C658 H640 0.951 . S
C658 C659 1.366 . S
C658 C660 1.388 . S
C659 C658 1.366 . S
C659 C663 1.385 . S
C660 H641 0.951 . S
C660 C658 1.388 . S
C660 C661 1.366 . S
C661 C660 1.366 . S
C661 C662 1.414 . S
C661 C664 1.499 . S
C662 H642 0.950 . S
C662 C661 1.414 . S
C662 C663 1.374 . S
C663 H643 0.950 . S
C663 C659 1.385 . S
C663 C662 1.374 . S
C664 C661 1.499 . S
C664 C665 1.373 . S
C664 C666 1.389 . S
C665 H644 0.950 . S
C665 C664 1.373 . S
C665 C681 1.377 . S
C666 C664 1.389 . S
C666 C667 1.524 . S
C666 C680 1.377 . S
C667 C666 1.524 . S
C667 C668 1.397 . S
C667 C672 1.363 . S
C668 H645 0.950 . S
C668 C667 1.397 . S
C668 C669 1.334 1_554 S
C669 H646 0.950 . S
C669 C668 1.334 1_556 S
C669 C670 1.287 . S
C670 C669 1.287 . S
C670 C671 1.524 . S
C670 H689 0.913 . S
C671 H647 0.950 . S
C671 C670 1.524 . S
C671 C672 1.415 1_556 S
C672 H648 0.950 . S
C672 C667 1.363 . S
C672 C671 1.415 1_554 S
C673 H649 0.951 1_545 S
C673 C674 1.366 . S
C673 C675 1.388 . S
C674 C673 1.366 . S
C674 C678 1.385 . S
C675 H650 0.951 . S
C675 C673 1.388 . S
C675 C676 1.366 . S
C676 C675 1.366 . S
C676 C677 1.414 . S
C676 C679 1.499 . S
C677 H651 0.950 . S
C677 C676 1.414 . S
C677 C678 1.374 . S
C678 H652 0.950 . S
C678 C674 1.385 . S
C678 C677 1.374 . S
C679 C676 1.499 . S
C679 C680 1.373 . S
C679 C681 1.389 . S
C680 H653 0.950 . S
C680 C666 1.377 . S
C680 C679 1.373 . S
C681 C665 1.377 . S
C681 C679 1.389 . S
C681 C682 1.524 . S
C682 C681 1.524 . S
C682 C683 1.397 . S
C682 C687 1.363 . S
C683 H654 0.950 . S
C683 C682 1.397 . S
C683 C684 1.334 . S
C684 H655 0.950 . S
C684 C683 1.334 . S
C684 C685 1.287 . S
C685 C684 1.287 . S
C685 C686 1.524 1_545 S
C685 H688 0.999 1_545 S
C686 H656 0.950 . S
C686 C685 1.524 1_565 S
C686 C687 1.415 1_565 S
C687 H657 0.950 1_545 S
C687 C682 1.363 . S
C687 C686 1.415 1_545 S
H688 C685 0.999 1_565 S
H689 C670 0.913 . S
H690 C708 0.951 . S
H691 C710 0.951 . S
H692 C712 0.950 . S
H693 C713 0.950 . S
H694 C715 0.950 . S
H695 C718 0.950 . S
H696 C719 0.950 . S
H697 C721 0.950 . S
H698 C722 0.950 . S
H699 C723 0.951 . S
H700 C725 0.951 . S
H701 C727 0.950 . S
H702 C728 0.950 . S
H703 C730 0.950 . S
H704 C733 0.950 . S
H705 C734 0.950 . S
H706 C736 0.950 . S
H707 C737 0.950 1_565 S
C708 H690 0.951 . S
C708 C709 1.366 . S
C708 C710 1.388 . S
C709 C708 1.366 . S
C709 C713 1.385 . S
C710 H691 0.951 . S
C710 C708 1.388 . S
C710 C711 1.366 . S
C711 C710 1.366 . S
C711 C712 1.414 . S
C711 C714 1.499 . S
C712 H692 0.950 . S
C712 C711 1.414 . S
C712 C713 1.374 . S
C713 H693 0.950 . S
C713 C709 1.385 . S
C713 C712 1.374 . S
C714 C711 1.499 . S
C714 C715 1.373 . S
C714 C716 1.389 . S
C715 H694 0.950 . S
C715 C714 1.373 . S
C715 C731 1.377 . S
C716 C714 1.389 . S
C716 C717 1.524 . S
C716 C730 1.377 . S
C717 C716 1.524 . S
C717 C718 1.397 . S
C717 C722 1.363 . S
C718 H695 0.950 . S
C718 C717 1.397 . S
C718 C719 1.334 . S
C719 H696 0.950 . S
C719 C718 1.334 . S
C719 C720 1.287 . S
C720 C719 1.287 . S
C720 C721 1.524 . S
C720 H739 0.913 . S
C721 H697 0.950 . S
C721 C720 1.524 . S
C721 C722 1.415 . S
C722 H698 0.950 . S
C722 C717 1.363 . S
C722 C721 1.415 . S
C723 H699 0.951 . S
C723 C724 1.366 . S
C723 C725 1.388 . S
C724 C723 1.366 . S
C724 C728 1.385 . S
C725 H700 0.951 . S
C725 C723 1.388 . S
C725 C726 1.366 . S
C726 C725 1.366 . S
C726 C727 1.414 . S
C726 C729 1.499 . S
C727 H701 0.950 . S
C727 C726 1.414 . S
C727 C728 1.374 . S
C728 H702 0.950 . S
C728 C724 1.385 . S
C728 C727 1.374 . S
C729 C726 1.499 . S
C729 C730 1.373 . S
C729 C731 1.389 . S
C730 H703 0.950 . S
C730 C716 1.377 . S
C730 C729 1.373 . S
C731 C715 1.377 . S
C731 C729 1.389 . S
C731 C732 1.524 . S
C732 C731 1.524 . S
C732 C733 1.397 . S
C732 C737 1.363 1_565 S
C733 H704 0.950 . S
C733 C732 1.397 . S
C733 C734 1.334 1_565 S
C734 H705 0.950 . S
C734 C733 1.334 1_545 S
C734 C735 1.287 . S
C735 C734 1.287 . S
C735 C736 1.524 . S
C735 H738 0.999 . S
C736 H706 0.950 . S
C736 C735 1.524 . S
C736 C737 1.415 . S
C737 H707 0.950 1_545 S
C737 C732 1.363 1_545 S
C737 C736 1.415 . S
H738 C735 0.999 . S
H739 C720 0.913 . S
H740 C758 0.951 . S
H741 C760 0.951 . S
H742 C762 0.950 . S
H743 C763 0.950 . S
H744 C765 0.950 . S
H745 C768 0.950 . S
H746 C769 0.950 . S
H747 C771 0.938 1_554 S
H748 C772 0.950 1_554 S
H749 C773 0.951 . S
H750 C775 0.951 . S
H751 C777 0.950 1_554 S
H752 C778 0.950 . S
H753 C780 0.950 . S
H754 C783 0.950 . S
H755 C784 0.950 . S
H756 C786 0.950 . S
H757 C787 0.950 . S
C758 H740 0.951 . S
C758 C759 1.366 . S
C758 C760 1.388 . S
C759 C758 1.366 . S
C759 C763 1.385 . S
C760 H741 0.951 . S
C760 C758 1.388 . S
C760 C761 1.366 . S
C761 C760 1.366 . S
C761 C762 1.414 . S
C761 C764 1.499 . S
C762 H742 0.950 . S
C762 C761 1.414 . S
C762 C763 1.374 . S
C763 H743 0.950 . S
C763 C759 1.385 . S
C763 C762 1.374 . S
C764 C761 1.499 . S
C764 C765 1.373 . S
C764 C766 1.389 . S
C765 H744 0.950 . S
C765 C764 1.373 . S
C765 C781 1.377 . S
C766 C764 1.389 . S
C766 C767 1.524 . S
C766 C780 1.377 . S
C767 C766 1.524 . S
C767 C768 1.397 . S
C767 C772 1.363 . S
C768 H745 0.950 . S
C768 C767 1.397 . S
C768 C769 1.334 . S
C769 H746 0.950 . S
C769 C768 1.334 . S
C769 C770 1.287 . S
C770 C769 1.287 . S
C770 C771 1.534 . S
C770 H789 0.913 . S
C771 H747 0.938 1_556 S
C771 C770 1.534 . S
C771 C772 1.419 . S
C772 H748 0.950 1_556 S
C772 C767 1.363 . S
C772 C771 1.419 . S
C773 H749 0.951 . S
C773 C774 1.366 . S
C773 C775 1.388 . S
C774 C773 1.366 . S
C774 C778 1.385 1_556 S
C775 H750 0.951 . S
C775 C773 1.388 . S
C775 C776 1.366 . S
C776 C775 1.366 . S
C776 C777 1.414 . S
C776 C779 1.499 . S
C777 H751 0.950 1_556 S
C777 C776 1.414 . S
C777 C778 1.374 1_556 S
C778 H752 0.950 . S
C778 C774 1.385 1_554 S
C778 C777 1.374 1_554 S
C779 C776 1.499 . S
C779 C780 1.373 . S
C779 C781 1.389 . S
C780 H753 0.950 . S
C780 C766 1.377 . S
C780 C779 1.373 . S
C781 C765 1.377 . S
C781 C779 1.389 . S
C781 C782 1.524 . S
C782 C781 1.524 . S
C782 C783 1.397 . S
C782 C787 1.363 . S
C783 H754 0.950 . S
C783 C782 1.397 . S
C783 C784 1.334 . S
C784 H755 0.950 . S
C784 C783 1.334 . S
C784 C785 1.287 . S
C785 C784 1.287 . S
C785 C786 1.524 . S
C785 H788 0.999 . S
C786 H756 0.950 . S
C786 C785 1.524 . S
C786 C787 1.415 . S
C787 H757 0.950 . S
C787 C782 1.363 . S
C787 C786 1.415 . S
H788 C785 0.999 . S
H789 C770 0.913 . S
H790 C808 0.951 . S
H791 C810 0.951 . S
H792 C812 0.950 . S
H793 C813 0.950 . S
H794 C815 0.950 . S
H795 C818 0.950 . S
H796 C819 0.950 . S
H797 C821 0.950 . S
H798 C822 0.950 . S
H799 C823 0.951 . S
H800 C825 0.951 . S
H801 C827 0.950 . S
H802 C828 0.950 . S
H803 C830 0.950 . S
H804 C833 0.950 . S
H805 C834 0.950 . S
H806 C836 0.950 . S
H807 C837 0.950 . S
C808 H790 0.951 . S
C808 C809 1.366 . S
C808 C810 1.388 . S
C809 C808 1.366 . S
C809 C813 1.385 . S
C810 H791 0.951 . S
C810 C808 1.388 . S
C810 C811 1.366 . S
C811 C810 1.366 . S
C811 C812 1.414 . S
C811 C814 1.499 . S
C812 H792 0.950 . S
C812 C811 1.414 . S
C812 C813 1.374 . S
C813 H793 0.950 . S
C813 C809 1.385 . S
C813 C812 1.374 . S
C814 C811 1.499 . S
C814 C815 1.373 . S
C814 C816 1.389 . S
C815 H794 0.950 . S
C815 C814 1.373 . S
C815 C831 1.377 . S
C816 C814 1.389 . S
C816 C817 1.524 . S
C816 C830 1.377 . S
C817 C816 1.524 . S
C817 C818 1.397 . S
C817 C822 1.363 . S
C818 H795 0.950 . S
C818 C817 1.397 . S
C818 C819 1.334 . S
C819 H796 0.950 . S
C819 C818 1.334 . S
C819 C820 1.287 . S
C820 C819 1.287 . S
C820 C821 1.524 . S
C820 H839 0.913 . S
C821 H797 0.950 . S
C821 C820 1.524 . S
C821 C822 1.415 . S
C822 H798 0.950 . S
C822 C817 1.363 . S
C822 C821 1.415 . S
C823 H799 0.951 . S
C823 C824 1.366 . S
C823 C825 1.388 . S
C824 C823 1.366 . S
C824 C828 1.385 . S
C825 H800 0.951 . S
C825 C823 1.388 . S
C825 C826 1.366 . S
C826 C825 1.366 . S
C826 C827 1.414 . S
C826 C829 1.499 . S
C827 H801 0.950 . S
C827 C826 1.414 . S
C827 C828 1.374 . S
C828 H802 0.950 . S
C828 C824 1.385 . S
C828 C827 1.374 . S
C829 C826 1.499 . S
C829 C830 1.373 . S
C829 C831 1.389 . S
C830 H803 0.950 . S
C830 C816 1.377 . S
C830 C829 1.373 . S
C831 C815 1.377 . S
C831 C829 1.389 . S
C831 C832 1.524 . S
C832 C831 1.524 . S
C832 C833 1.397 . S
C832 C837 1.363 . S
C833 H804 0.950 . S
C833 C832 1.397 . S
C833 C834 1.334 . S
C834 H805 0.950 . S
C834 C833 1.334 . S
C834 C835 1.287 . S
C835 C834 1.287 . S
C835 C836 1.524 . S
C835 H838 0.999 . S
C836 H806 0.950 . S
C836 C835 1.524 . S
C836 C837 1.415 . S
C837 H807 0.950 . S
C837 C832 1.363 . S
C837 C836 1.415 . S
H838 C835 0.999 . S
H839 C820 0.913 . S
H840 C858 0.951 . S
H841 C860 0.951 . S
H842 C862 0.950 . S
H843 C863 0.950 . S
H844 C865 0.950 . S
H845 C868 0.950 . S
H846 C869 0.950 . S
H847 C871 0.950 . S
H848 C872 0.950 1_655 S
H849 C873 0.951 . S
H850 C875 0.951 . S
H851 C877 0.934 1_655 S
H852 C878 0.950 1_655 S
H853 C880 0.950 . S
H854 C883 0.950 . S
H855 C884 0.950 . S
H856 C886 0.950 . S
H857 C887 0.950 . S
C858 H840 0.951 . S
C858 C859 1.366 . S
C858 C860 1.388 . S
C859 C858 1.366 . S
C859 C863 1.385 . S
C860 H841 0.951 . S
C860 C858 1.388 . S
C860 C861 1.366 . S
C861 C860 1.366 . S
C861 C862 1.414 . S
C861 C864 1.499 . S
C862 H842 0.950 . S
C862 C861 1.414 . S
C862 C863 1.374 . S
C863 H843 0.950 . S
C863 C859 1.385 . S
C863 C862 1.374 . S
C864 C861 1.499 . S
C864 C865 1.373 . S
C864 C866 1.389 . S
C865 H844 0.950 . S
C865 C864 1.373 . S
C865 C881 1.377 . S
C866 C864 1.389 . S
C866 C867 1.524 . S
C866 C880 1.377 . S
C867 C866 1.524 . S
C867 C868 1.397 . S
C867 C872 1.363 . S
C868 H845 0.950 . S
C868 C867 1.397 . S
C868 C869 1.334 1_554 S
C869 H846 0.950 . S
C869 C868 1.334 1_556 S
C869 C870 1.287 . S
C870 C869 1.287 . S
C870 C871 1.524 1_455 S
C870 H889 0.913 . S
C871 H847 0.950 . S
C871 C870 1.524 1_655 S
C871 C872 1.415 1_656 S
C872 H848 0.950 1_455 S
C872 C867 1.363 . S
C872 C871 1.415 1_454 S
C873 H849 0.951 . S
C873 C874 1.366 . S
C873 C875 1.388 . S
C874 C873 1.366 . S
C874 C878 1.385 . S
C875 H850 0.951 . S
C875 C873 1.388 . S
C875 C876 1.366 . S
C876 C875 1.366 . S
C876 C877 1.414 . S
C876 C879 1.499 . S
C877 H851 0.934 1_455 S
C877 C876 1.414 . S
C877 C878 1.374 . S
C878 H852 0.950 1_455 S
C878 C874 1.385 . S
C878 C877 1.374 . S
C879 C876 1.499 . S
C879 C880 1.373 . S
C879 C881 1.389 . S
C880 H853 0.950 . S
C880 C866 1.377 . S
C880 C879 1.373 . S
C881 C865 1.377 . S
C881 C879 1.389 . S
C881 C882 1.524 . S
C882 C881 1.524 . S
C882 C883 1.397 . S
C882 C887 1.363 . S
C883 H854 0.950 . S
C883 C882 1.397 . S
C883 C884 1.334 . S
C884 H855 0.950 . S
C884 C883 1.334 . S
C884 C885 1.287 . S
C885 C884 1.287 . S
C885 C886 1.524 . S
C885 H888 0.999 . S
C886 H856 0.950 . S
C886 C885 1.524 . S
C886 C887 1.415 . S
C887 H857 0.950 . S
C887 C882 1.363 . S
C887 C886 1.415 . S
H888 C885 0.999 . S
H889 C870 0.913 . S
H890 C908 0.951 . S
H891 C910 0.951 . S
H892 C912 0.950 . S
H893 C913 0.950 . S
H894 C915 0.950 . S
H895 C918 0.950 . S
H896 C919 0.950 . S
H897 C921 0.950 . S
H898 C922 0.950 . S
H899 C923 0.951 . S
H900 C925 0.951 . S
H901 C927 0.950 . S
H902 C928 0.950 . S
H903 C930 0.950 . S
H904 C933 0.950 . S
H905 C934 0.950 . S
H906 C936 0.950 . S
H907 C937 0.950 1_556 S
C908 H890 0.951 . S
C908 C909 1.366 . S
C908 C910 1.388 . S
C909 C908 1.366 . S
C909 C913 1.385 . S
C910 H891 0.951 . S
C910 C908 1.388 . S
C910 C911 1.366 . S
C911 C910 1.366 . S
C911 C912 1.414 . S
C911 C914 1.499 . S
C912 H892 0.950 . S
C912 C911 1.414 . S
C912 C913 1.374 . S
C913 H893 0.950 . S
C913 C909 1.385 . S
C913 C912 1.374 . S
C914 C911 1.499 . S
C914 C915 1.373 . S
C914 C916 1.389 . S
C915 H894 0.950 . S
C915 C914 1.373 . S
C915 C931 1.377 . S
C916 C914 1.389 . S
C916 C917 1.524 . S
C916 C930 1.377 . S
C917 C916 1.524 . S
C917 C918 1.397 . S
C917 C922 1.363 . S
C918 H895 0.950 . S
C918 C917 1.397 . S
C918 C919 1.334 . S
C919 H896 0.950 . S
C919 C918 1.334 . S
C919 C920 1.287 . S
C920 C919 1.287 . S
C920 C921 1.524 . S
C920 H939 0.913 . S
C921 H897 0.950 . S
C921 C920 1.524 . S
C921 C922 1.415 . S
C922 H898 0.950 . S
C922 C917 1.363 . S
C922 C921 1.415 . S
C923 H899 0.951 . S
C923 C924 1.366 . S
C923 C925 1.388 . S
C924 C923 1.366 . S
C924 C928 1.385 . S
C925 H900 0.951 . S
C925 C923 1.388 . S
C925 C926 1.366 . S
C926 C925 1.366 . S
C926 C927 1.414 . S
C926 C929 1.499 . S
C927 H901 0.950 . S
C927 C926 1.414 . S
C927 C928 1.374 . S
C928 H902 0.950 . S
C928 C924 1.385 . S
C928 C927 1.374 . S
C929 C926 1.499 . S
C929 C930 1.373 . S
C929 C931 1.389 . S
C930 H903 0.950 . S
C930 C916 1.377 . S
C930 C929 1.373 . S
C931 C915 1.377 . S
C931 C929 1.389 . S
C931 C932 1.477 1_556 S
C932 C931 1.477 1_554 S
C932 C933 1.430 . S
C932 C937 1.379 . S
C933 H904 0.950 . S
C933 C932 1.430 . S
C933 C934 1.334 . S
C934 H905 0.950 . S
C934 C933 1.334 . S
C934 C935 1.287 . S
C935 C934 1.287 . S
C935 C936 1.524 . S
C935 H938 0.999 . S
C936 H906 0.950 . S
C936 C935 1.524 . S
C936 C937 1.415 . S
C937 H907 0.950 1_554 S
C937 C932 1.379 . S
C937 C936 1.415 . S
H938 C935 0.999 . S
H939 C920 0.913 . S
H940 C958 0.951 . S
H941 C960 0.951 . S
H942 C962 0.950 . S
H943 C963 0.950 . S
H944 C965 0.950 . S
H945 C968 0.950 . S
H946 C969 0.950 . S
H947 C971 0.950 . S
H948 C972 0.950 . S
H949 C973 0.951 1_455 S
H950 C975 0.951 1_455 S
H951 C977 0.950 . S
H952 C978 0.950 . S
H953 C980 0.950 . S
H954 C983 0.950 . S
H955 C984 0.950 . S
H956 C986 0.950 . S
H957 C987 0.950 . S
C958 H940 0.951 . S
C958 C959 1.366 . S
C958 C960 1.388 . S
C959 C958 1.366 . S
C959 C963 1.385 . S
C960 H941 0.951 . S
C960 C958 1.388 . S
C960 C961 1.366 . S
C961 C960 1.366 . S
C961 C962 1.414 . S
C961 C964 1.499 . S
C962 H942 0.950 . S
C962 C961 1.414 . S
C962 C963 1.374 . S
C963 H943 0.950 . S
C963 C959 1.385 . S
C963 C962 1.374 . S
C964 C961 1.499 . S
C964 C965 1.373 . S
C964 C966 1.389 . S
C965 H944 0.950 . S
C965 C964 1.373 . S
C965 C981 1.377 . S
C966 C964 1.389 . S
C966 C967 1.524 . S
C966 C980 1.377 . S
C967 C966 1.524 . S
C967 C968 1.397 . S
C967 C972 1.363 . S
C968 H945 0.950 . S
C968 C967 1.397 . S
C968 C969 1.334 . S
C969 H946 0.950 . S
C969 C968 1.334 . S
C969 C970 1.287 . S
C970 C969 1.287 . S
C970 C971 1.524 . S
C970 H989 0.913 . S
C971 H947 0.950 . S
C971 C970 1.524 . S
C971 C972 1.415 . S
C972 H948 0.950 . S
C972 C967 1.363 . S
C972 C971 1.415 . S
C973 H949 0.951 1_655 S
C973 C974 1.366 . S
C973 C975 1.388 . S
C974 C973 1.366 . S
C974 C978 1.385 . S
C975 H950 0.951 1_655 S
C975 C973 1.388 . S
C975 C976 1.366 . S
C976 C975 1.366 . S
C976 C977 1.414 . S
C976 C979 1.499 . S
C977 H951 0.950 . S
C977 C976 1.414 . S
C977 C978 1.374 . S
C978 H952 0.950 . S
C978 C974 1.385 . S
C978 C977 1.374 . S
C979 C976 1.499 . S
C979 C980 1.373 . S
C979 C981 1.389 . S
C980 H953 0.950 . S
C980 C966 1.377 . S
C980 C979 1.373 . S
C981 C965 1.377 . S
C981 C979 1.389 . S
C981 C982 1.524 1_655 S
C982 C981 1.524 1_455 S
C982 C983 1.397 . S
C982 C987 1.363 . S
C983 H954 0.950 . S
C983 C982 1.397 . S
C983 C984 1.334 . S
C984 H955 0.950 . S
C984 C983 1.334 . S
C984 C985 1.287 . S
C985 C984 1.287 . S
C985 C986 1.524 . S
C985 H988 0.999 . S
C986 H956 0.950 . S
C986 C985 1.524 . S
C986 C987 1.415 . S
C987 H957 0.950 . S
C987 C982 1.363 . S
C987 C986 1.415 . S
H988 C985 0.999 . S
H989 C970 0.913 . S
H990 C1008 0.951 . S
H991 C1010 0.951 . S
H992 C1012 0.950 . S
H993 C1013 0.950 . S
H994 C1015 0.950 . S
H995 C1018 0.950 . S
H996 C1019 0.950 . S
H997 C1021 0.950 . S
H998 C1022 0.950 . S
H999 C1023 0.951 . S
H1000 C1025 0.951 . S
H1001 C1027 0.950 . S
H1002 C1028 0.950 . S
H1003 C1030 0.950 . S
H1004 C1033 0.950 . S
H1005 C1034 0.950 . S
H1006 C1036 0.950 . S
H1007 C1037 0.950 . S
C1008 H990 0.951 . S
C1008 C1009 1.366 . S
C1008 C1010 1.388 . S
C1009 C1008 1.366 . S
C1009 C1013 1.385 . S
C1010 H991 0.951 . S
C1010 C1008 1.388 . S
C1010 C1011 1.366 . S
C1011 C1010 1.366 . S
C1011 C1012 1.414 . S
C1011 C1014 1.499 . S
C1012 H992 0.950 . S
C1012 C1011 1.414 . S
C1012 C1013 1.374 . S
C1013 H993 0.950 . S
C1013 C1009 1.385 . S
C1013 C1012 1.374 . S
C1014 C1011 1.499 . S
C1014 C1015 1.373 . S
C1014 C1016 1.389 . S
C1015 H994 0.950 . S
C1015 C1014 1.373 . S
C1015 C1031 1.377 . S
C1016 C1014 1.389 . S
C1016 C1017 1.524 . S
C1016 C1030 1.377 . S
C1017 C1016 1.524 . S
C1017 C1018 1.397 . S
C1017 C1022 1.363 . S
C1018 H995 0.950 . S
C1018 C1017 1.397 . S
C1018 C1019 1.334 . S
C1019 H996 0.950 . S
C1019 C1018 1.334 . S
C1019 C1020 1.287 . S
C1020 C1019 1.287 . S
C1020 C1021 1.524 . S
C1020 H1039 0.913 . S
C1021 H997 0.950 . S
C1021 C1020 1.524 . S
C1021 C1022 1.415 . S
C1022 H998 0.950 . S
C1022 C1017 1.363 . S
C1022 C1021 1.415 . S
C1023 H999 0.951 . S
C1023 C1024 1.366 . S
C1023 C1025 1.388 . S
C1024 C1023 1.366 . S
C1024 C1028 1.385 . S
C1025 H1000 0.951 . S
C1025 C1023 1.388 . S
C1025 C1026 1.366 . S
C1026 C1025 1.366 . S
C1026 C1027 1.414 . S
C1026 C1029 1.499 . S
C1027 H1001 0.950 . S
C1027 C1026 1.414 . S
C1027 C1028 1.374 . S
C1028 H1002 0.950 . S
C1028 C1024 1.385 . S
C1028 C1027 1.374 . S
C1029 C1026 1.499 . S
C1029 C1030 1.373 . S
C1029 C1031 1.389 . S
C1030 H1003 0.950 . S
C1030 C1016 1.377 . S
C1030 C1029 1.373 . S
C1031 C1015 1.377 . S
C1031 C1029 1.389 . S
C1031 C1032 1.524 . S
C1032 C1031 1.524 . S
C1032 C1033 1.397 . S
C1032 C1037 1.363 . S
C1033 H1004 0.950 . S
C1033 C1032 1.397 . S
C1033 C1034 1.334 . S
C1034 H1005 0.950 . S
C1034 C1033 1.334 . S
C1034 C1035 1.287 . S
C1035 C1034 1.287 . S
C1035 C1036 1.524 . S
C1035 H1038 0.999 . S
C1036 H1006 0.950 . S
C1036 C1035 1.524 . S
C1036 C1037 1.415 . S
C1037 H1007 0.950 . S
C1037 C1032 1.363 . S
C1037 C1036 1.415 . S
H1038 C1035 0.999 . S
H1039 C1020 0.913 . S
H1040 C1058 0.951 . S
H1041 C1060 0.951 . S
H1042 C1062 0.950 . S
H1043 C1063 0.950 . S
H1044 C1065 0.950 . S
H1045 C1068 0.950 . S
H1046 C1069 0.950 . S
H1047 C1071 0.950 1_545 S
H1048 C1072 0.950 1_545 S
H1049 C1073 0.951 . S
H1050 C1075 0.951 . S
H1051 C1077 0.950 1_545 S
H1052 C1078 0.950 1_545 S
H1053 C1080 0.950 . S
H1054 C1083 0.950 . S
H1055 C1084 0.950 . S
H1056 C1086 0.950 . S
H1057 C1087 0.950 . S
C1058 H1040 0.951 . S
C1058 C1059 1.366 . S
C1058 C1060 1.388 . S
C1059 C1058 1.366 . S
C1059 C1063 1.385 . S
C1060 H1041 0.951 . S
C1060 C1058 1.388 . S
C1060 C1061 1.366 . S
C1061 C1060 1.366 . S
C1061 C1062 1.414 . S
C1061 C1064 1.499 . S
C1062 H1042 0.950 . S
C1062 C1061 1.414 . S
C1062 C1063 1.374 . S
C1063 H1043 0.950 . S
C1063 C1059 1.385 . S
C1063 C1062 1.374 . S
C1064 C1061 1.499 . S
C1064 C1065 1.373 . S
C1064 C1066 1.389 . S
C1065 H1044 0.950 . S
C1065 C1064 1.373 . S
C1065 C1081 1.377 . S
C1066 C1064 1.389 . S
C1066 C1067 1.524 . S
C1066 C1080 1.377 . S
C1067 C1066 1.524 . S
C1067 C1068 1.397 . S
C1067 C1072 1.363 . S
C1068 H1045 0.950 . S
C1068 C1067 1.397 . S
C1068 C1069 1.334 . S
C1069 H1046 0.950 . S
C1069 C1068 1.334 . S
C1069 C1070 1.287 . S
C1070 C1069 1.287 . S
C1070 C1071 1.524 . S
C1070 H1089 0.913 . S
C1071 H1047 0.950 1_565 S
C1071 C1070 1.524 . S
C1071 C1072 1.415 . S
C1072 H1048 0.950 1_565 S
C1072 C1067 1.363 . S
C1072 C1071 1.415 . S
C1073 H1049 0.951 . S
C1073 C1074 1.366 . S
C1073 C1075 1.388 . S
C1074 C1073 1.366 . S
C1074 C1078 1.385 . S
C1075 H1050 0.951 . S
C1075 C1073 1.388 . S
C1075 C1076 1.366 . S
C1076 C1075 1.366 . S
C1076 C1077 1.414 . S
C1076 C1079 1.499 . S
C1077 H1051 0.950 1_565 S
C1077 C1076 1.414 . S
C1077 C1078 1.374 . S
C1078 H1052 0.950 1_565 S
C1078 C1074 1.385 . S
C1078 C1077 1.374 . S
C1079 C1076 1.499 . S
C1079 C1080 1.373 . S
C1079 C1081 1.389 . S
C1080 H1053 0.950 . S
C1080 C1066 1.377 . S
C1080 C1079 1.373 . S
C1081 C1065 1.377 . S
C1081 C1079 1.389 . S
C1081 C1082 1.524 1_655 S
C1082 C1081 1.524 1_455 S
C1082 C1083 1.397 . S
C1082 C1087 1.363 . S
C1083 H1054 0.950 . S
C1083 C1082 1.397 . S
C1083 C1084 1.334 . S
C1084 H1055 0.950 . S
C1084 C1083 1.334 . S
C1084 C1085 1.287 . S
C1085 C1084 1.287 . S
C1085 C1086 1.524 . S
C1085 H1088 0.999 . S
C1086 H1056 0.950 . S
C1086 C1085 1.524 . S
C1086 C1087 1.415 . S
C1087 H1057 0.950 . S
C1087 C1082 1.363 . S
C1087 C1086 1.415 . S
H1088 C1085 0.999 . S
H1089 C1070 0.913 . S
H1090 C1108 0.951 . S
H1091 C1110 0.951 . S
H1092 C1112 0.950 . S
H1093 C1113 0.950 . S
H1094 C1115 0.950 . S
H1095 C1118 0.950 . S
H1096 C1119 0.950 . S
H1097 C1121 0.950 . S
H1098 C1122 0.950 . S
H1099 C1123 0.951 . S
H1100 C1125 0.951 . S
H1101 C1127 0.950 . S
H1102 C1128 0.950 . S
H1103 C1130 0.950 . S
H1104 C1133 0.950 . S
H1105 C1134 0.950 . S
H1106 C1136 0.950 . S
H1107 C1137 0.950 . S
C1108 H1090 0.951 . S
C1108 C1109 1.366 . S
C1108 C1110 1.388 . S
C1109 C1108 1.366 . S
C1109 C1113 1.385 . S
C1110 H1091 0.951 . S
C1110 C1108 1.388 . S
C1110 C1111 1.366 . S
C1111 C1110 1.366 . S
C1111 C1112 1.414 . S
C1111 C1114 1.499 . S
C1112 H1092 0.950 . S
C1112 C1111 1.414 . S
C1112 C1113 1.374 . S
C1113 H1093 0.950 . S
C1113 C1109 1.385 . S
C1113 C1112 1.374 . S
C1114 C1111 1.499 . S
C1114 C1115 1.373 . S
C1114 C1116 1.389 . S
C1115 H1094 0.950 . S
C1115 C1114 1.373 . S
C1115 C1131 1.377 . S
C1116 C1114 1.389 . S
C1116 C1117 1.524 . S
C1116 C1130 1.377 . S
C1117 C1116 1.524 . S
C1117 C1118 1.397 . S
C1117 C1122 1.363 . S
C1118 H1095 0.950 . S
C1118 C1117 1.397 . S
C1118 C1119 1.334 . S
C1119 H1096 0.950 . S
C1119 C1118 1.334 . S
C1119 C1120 1.287 . S
C1120 C1119 1.287 . S
C1120 C1121 1.524 . S
C1120 H1139 0.913 . S
C1121 H1097 0.950 . S
C1121 C1120 1.524 . S
C1121 C1122 1.415 . S
C1122 H1098 0.950 . S
C1122 C1117 1.363 . S
C1122 C1121 1.415 . S
C1123 H1099 0.951 . S
C1123 C1124 1.366 . S
C1123 C1125 1.388 . S
C1124 C1123 1.366 . S
C1124 C1128 1.385 . S
C1125 H1100 0.951 . S
C1125 C1123 1.388 . S
C1125 C1126 1.366 . S
C1126 C1125 1.366 . S
C1126 C1127 1.414 . S
C1126 C1129 1.499 . S
C1127 H1101 0.950 . S
C1127 C1126 1.414 . S
C1127 C1128 1.374 . S
C1128 H1102 0.950 . S
C1128 C1124 1.385 . S
C1128 C1127 1.374 . S
C1129 C1126 1.499 . S
C1129 C1130 1.373 . S
C1129 C1131 1.389 . S
C1130 H1103 0.950 . S
C1130 C1116 1.377 . S
C1130 C1129 1.373 . S
C1131 C1115 1.377 . S
C1131 C1129 1.389 . S
C1131 C1132 1.524 . S
C1132 C1131 1.524 . S
C1132 C1133 1.397 . S
C1132 C1137 1.363 . S
C1133 H1104 0.950 . S
C1133 C1132 1.397 . S
C1133 C1134 1.334 . S
C1134 H1105 0.950 . S
C1134 C1133 1.334 . S
C1134 C1135 1.287 . S
C1135 C1134 1.287 . S
C1135 C1136 1.524 . S
C1135 H1138 0.999 . S
C1136 H1106 0.950 . S
C1136 C1135 1.524 . S
C1136 C1137 1.415 . S
C1137 H1107 0.950 . S
C1137 C1132 1.363 . S
C1137 C1136 1.415 . S
H1138 C1135 0.999 . S
H1139 C1120 0.913 . S
H1140 C1158 0.951 . S
H1141 C1160 0.951 . S
H1142 C1162 0.950 . S
H1143 C1163 0.950 . S
H1144 C1165 0.950 . S
H1145 C1168 0.950 . S
H1146 C1169 0.950 . S
H1147 C1171 0.950 . S
H1148 C1172 0.950 . S
H1149 C1173 0.951 . S
H1150 C1175 0.951 . S
H1151 C1177 0.950 . S
H1152 C1178 0.950 . S
H1153 C1180 0.950 . S
H1154 C1183 0.950 . S
H1155 C1184 0.950 . S
H1156 C1186 0.950 . S
H1157 C1187 0.950 . S
C1158 H1140 0.951 . S
C1158 C1159 1.366 . S
C1158 C1160 1.388 . S
C1159 C1158 1.366 . S
C1159 C1163 1.385 . S
C1160 H1141 0.951 . S
C1160 C1158 1.388 . S
C1160 C1161 1.366 . S
C1161 C1160 1.366 . S
C1161 C1162 1.414 . S
C1161 C1164 1.499 . S
C1162 H1142 0.950 . S
C1162 C1161 1.414 . S
C1162 C1163 1.374 . S
C1163 H1143 0.950 . S
C1163 C1159 1.385 . S
C1163 C1162 1.374 . S
C1164 C1161 1.499 . S
C1164 C1165 1.373 . S
C1164 C1166 1.389 . S
C1165 H1144 0.950 . S
C1165 C1164 1.373 . S
C1165 C1181 1.377 . S
C1166 C1164 1.389 . S
C1166 C1167 1.524 . S
C1166 C1180 1.377 . S
C1167 C1166 1.524 . S
C1167 C1168 1.397 . S
C1167 C1172 1.363 . S
C1168 H1145 0.950 . S
C1168 C1167 1.397 . S
C1168 C1169 1.334 . S
C1169 H1146 0.950 . S
C1169 C1168 1.334 . S
C1169 C1170 1.287 . S
C1170 C1169 1.287 . S
C1170 C1171 1.524 . S
C1170 H1189 0.913 . S
C1171 H1147 0.950 . S
C1171 C1170 1.524 . S
C1171 C1172 1.415 . S
C1172 H1148 0.950 . S
C1172 C1167 1.363 . S
C1172 C1171 1.415 . S
C1173 H1149 0.951 . S
C1173 C1174 1.366 . S
C1173 C1175 1.388 . S
C1174 C1173 1.366 . S
C1174 C1178 1.385 . S
C1175 H1150 0.951 . S
C1175 C1173 1.388 . S
C1175 C1176 1.366 . S
C1176 C1175 1.366 . S
C1176 C1177 1.414 . S
C1176 C1179 1.499 . S
C1177 H1151 0.950 . S
C1177 C1176 1.414 . S
C1177 C1178 1.374 . S
C1178 H1152 0.950 . S
C1178 C1174 1.385 . S
C1178 C1177 1.374 . S
C1179 C1176 1.499 . S
C1179 C1180 1.373 . S
C1179 C1181 1.389 . S
C1180 H1153 0.950 . S
C1180 C1166 1.377 . S
C1180 C1179 1.373 . S
C1181 C1165 1.377 . S
C1181 C1179 1.389 . S
C1181 C1182 1.524 . S
C1182 C1181 1.524 . S
C1182 C1183 1.397 . S
C1182 C1187 1.363 . S
C1183 H1154 0.950 . S
C1183 C1182 1.397 . S
C1183 C1184 1.334 . S
C1184 H1155 0.950 . S
C1184 C1183 1.334 . S
C1184 C1185 1.287 . S
C1185 C1184 1.287 . S
C1185 C1186 1.524 . S
C1185 H1188 0.999 . S
C1186 H1156 0.950 . S
C1186 C1185 1.524 . S
C1186 C1187 1.415 . S
C1187 H1157 0.950 . S
C1187 C1182 1.363 . S
C1187 C1186 1.415 . S
H1188 C1185 0.999 . S
H1189 C1170 0.913 . S
H1190 C1208 0.951 . S
H1191 C1210 0.951 . S
H1192 C1212 0.950 . S
H1193 C1213 0.950 . S
H1194 C1215 0.950 . S
H1195 C1218 0.950 . S
H1196 C1219 0.950 . S
H1197 C1221 0.950 . S
H1198 C1222 0.950 . S
H1199 C1223 0.951 . S
H1200 C1225 0.951 . S
H1201 C1227 0.950 . S
H1202 C1228 0.950 . S
H1203 C1230 0.950 . S
H1204 C1233 0.950 . S
H1205 C1234 0.950 . S
H1206 C1236 0.950 . S
H1207 C1237 0.950 . S
C1208 H1190 0.951 . S
C1208 C1209 1.366 . S
C1208 C1210 1.388 . S
C1209 C1208 1.366 . S
C1209 C1213 1.385 . S
C1210 H1191 0.951 . S
C1210 C1208 1.388 . S
C1210 C1211 1.366 . S
C1211 C1210 1.366 . S
C1211 C1212 1.414 . S
C1211 C1214 1.499 . S
C1212 H1192 0.950 . S
C1212 C1211 1.414 . S
C1212 C1213 1.374 . S
C1213 H1193 0.950 . S
C1213 C1209 1.385 . S
C1213 C1212 1.374 . S
C1214 C1211 1.499 . S
C1214 C1215 1.373 . S
C1214 C1216 1.389 . S
C1215 H1194 0.950 . S
C1215 C1214 1.373 . S
C1215 C1231 1.377 . S
C1216 C1214 1.389 . S
C1216 C1217 1.524 . S
C1216 C1230 1.377 . S
C1217 C1216 1.524 . S
C1217 C1218 1.397 . S
C1217 C1222 1.363 1_455 S
C1218 H1195 0.950 . S
C1218 C1217 1.397 . S
C1218 C1219 1.334 1_455 S
C1219 H1196 0.950 . S
C1219 C1218 1.334 1_655 S
C1219 C1220 1.287 . S
C1220 C1219 1.287 . S
C1220 C1221 1.524 . S
C1220 H1239 0.913 . S
C1221 H1197 0.950 . S
C1221 C1220 1.524 . S
C1221 C1222 1.415 . S
C1222 H1198 0.950 . S
C1222 C1217 1.363 1_655 S
C1222 C1221 1.415 . S
C1223 H1199 0.951 . S
C1223 C1224 1.366 . S
C1223 C1225 1.388 . S
C1224 C1223 1.366 . S
C1224 C1228 1.385 . S
C1225 H1200 0.951 . S
C1225 C1223 1.388 . S
C1225 C1226 1.366 . S
C1226 C1225 1.366 . S
C1226 C1227 1.414 . S
C1226 C1229 1.499 . S
C1227 H1201 0.950 . S
C1227 C1226 1.414 . S
C1227 C1228 1.374 . S
C1228 H1202 0.950 . S
C1228 C1224 1.385 . S
C1228 C1227 1.374 . S
C1229 C1226 1.499 . S
C1229 C1230 1.373 . S
C1229 C1231 1.389 . S
C1230 H1203 0.950 . S
C1230 C1216 1.377 . S
C1230 C1229 1.373 . S
C1231 C1215 1.377 . S
C1231 C1229 1.389 . S
C1231 C1232 1.524 . S
C1232 C1231 1.524 . S
C1232 C1233 1.397 . S
C1232 C1237 1.363 . S
C1233 H1204 0.950 . S
C1233 C1232 1.397 . S
C1233 C1234 1.334 . S
C1234 H1205 0.950 . S
C1234 C1233 1.334 . S
C1234 C1235 1.287 . S
C1235 C1234 1.287 . S
C1235 C1236 1.524 . S
C1235 H1238 0.999 . S
C1236 H1206 0.950 . S
C1236 C1235 1.524 . S
C1236 C1237 1.415 . S
C1237 H1207 0.950 . S
C1237 C1232 1.363 . S
C1237 C1236 1.415 . S
H1238 C1235 0.999 . S
H1239 C1220 0.913 . S
H1240 C1258 0.951 . S
H1241 C1260 0.951 . S
H1242 C1262 0.950 . S
H1243 C1263 0.950 . S
H1244 C1265 0.950 . S
H1245 C1268 0.950 . S
H1246 C1269 0.950 . S
H1247 C1271 0.950 . S
H1248 C1272 0.950 . S
H1249 C1273 0.951 1_545 S
H1250 C1275 0.951 1_545 S
H1251 C1277 0.950 . S
H1252 C1278 0.950 . S
H1253 C1280 0.950 . S
H1254 C1283 0.950 . S
H1255 C1284 0.950 . S
H1256 C1286 0.950 . S
H1257 C1287 0.940 1_546 S
C1258 H1240 0.951 . S
C1258 C1259 1.366 . S
C1258 C1260 1.388 . S
C1259 C1258 1.366 . S
C1259 C1263 1.385 . S
C1260 H1241 0.951 . S
C1260 C1258 1.388 . S
C1260 C1261 1.366 . S
C1261 C1260 1.366 . S
C1261 C1262 1.414 . S
C1261 C1264 1.499 . S
C1262 H1242 0.950 . S
C1262 C1261 1.414 . S
C1262 C1263 1.374 . S
C1263 H1243 0.950 . S
C1263 C1259 1.385 . S
C1263 C1262 1.374 . S
C1264 C1261 1.499 . S
C1264 C1265 1.373 . S
C1264 C1266 1.389 . S
C1265 H1244 0.950 . S
C1265 C1264 1.373 . S
C1265 C1281 1.377 . S
C1266 C1264 1.389 . S
C1266 C1267 1.524 . S
C1266 C1280 1.377 . S
C1267 C1266 1.524 . S
C1267 C1268 1.397 . S
C1267 C1272 1.363 . S
C1268 H1245 0.950 . S
C1268 C1267 1.397 . S
C1268 C1269 1.334 . S
C1269 H1246 0.950 . S
C1269 C1268 1.334 . S
C1269 C1270 1.287 . S
C1270 C1269 1.287 . S
C1270 C1271 1.524 . S
C1270 H1289 0.913 . S
C1271 H1247 0.950 . S
C1271 C1270 1.524 . S
C1271 C1272 1.415 . S
C1272 H1248 0.950 . S
C1272 C1267 1.363 . S
C1272 C1271 1.415 . S
C1273 H1249 0.951 1_565 S
C1273 C1274 1.366 . S
C1273 C1275 1.388 . S
C1274 C1273 1.366 . S
C1274 C1278 1.385 . S
C1275 H1250 0.951 1_565 S
C1275 C1273 1.388 . S
C1275 C1276 1.366 . S
C1276 C1275 1.366 . S
C1276 C1277 1.414 . S
C1276 C1279 1.499 . S
C1277 H1251 0.950 . S
C1277 C1276 1.414 . S
C1277 C1278 1.374 . S
C1278 H1252 0.950 . S
C1278 C1274 1.385 . S
C1278 C1277 1.374 . S
C1279 C1276 1.499 . S
C1279 C1280 1.373 . S
C1279 C1281 1.389 . S
C1280 H1253 0.950 . S
C1280 C1266 1.377 . S
C1280 C1279 1.373 . S
C1281 C1265 1.377 . S
C1281 C1279 1.389 . S
C1281 C1282 1.524 1_556 S
C1282 C1281 1.524 1_554 S
C1282 C1283 1.397 . S
C1282 C1287 1.363 . S
C1283 H1254 0.950 . S
C1283 C1282 1.397 . S
C1283 C1284 1.334 . S
C1284 H1255 0.950 . S
C1284 C1283 1.334 . S
C1284 C1285 1.287 . S
C1285 C1284 1.287 . S
C1285 C1286 1.524 1_565 S
C1285 H1288 0.999 . S
C1286 H1256 0.950 . S
C1286 C1285 1.524 1_545 S
C1286 C1287 1.415 1_545 S
C1287 H1257 0.940 1_564 S
C1287 C1282 1.363 . S
C1287 C1286 1.415 1_565 S
H1288 C1285 0.999 . S
H1289 C1270 0.913 . S
H1290 C1308 0.951 . S
H1291 C1310 0.951 . S
H1292 C1312 0.950 . S
H1293 C1313 0.950 . S
H1294 C1315 0.950 . S
H1295 C1318 0.950 . S
H1296 C1319 0.950 . S
H1297 C1321 0.950 . S
H1298 C1322 0.950 . S
H1299 C1323 0.951 . S
H1300 C1325 0.951 . S
H1301 C1327 0.950 . S
H1302 C1328 0.950 . S
H1303 C1330 0.950 . S
H1304 C1333 0.950 . S
H1305 C1334 0.950 . S
H1306 C1336 0.950 . S
H1307 C1337 0.950 . S
C1308 H1290 0.951 . S
C1308 C1309 1.366 . S
C1308 C1310 1.388 . S
C1309 C1308 1.366 . S
C1309 C1313 1.385 . S
C1310 H1291 0.951 . S
C1310 C1308 1.388 . S
C1310 C1311 1.366 . S
C1311 C1310 1.366 . S
C1311 C1312 1.414 . S
C1311 C1314 1.499 . S
C1312 H1292 0.950 . S
C1312 C1311 1.414 . S
C1312 C1313 1.374 . S
C1313 H1293 0.950 . S
C1313 C1309 1.385 . S
C1313 C1312 1.374 . S
C1314 C1311 1.499 . S
C1314 C1315 1.373 . S
C1314 C1316 1.389 . S
C1315 H1294 0.950 . S
C1315 C1314 1.373 . S
C1315 C1331 1.377 . S
C1316 C1314 1.389 . S
C1316 C1317 1.524 . S
C1316 C1330 1.377 . S
C1317 C1316 1.524 . S
C1317 C1318 1.397 . S
C1317 C1322 1.363 . S
C1318 H1295 0.950 . S
C1318 C1317 1.397 . S
C1318 C1319 1.334 . S
C1319 H1296 0.950 . S
C1319 C1318 1.334 . S
C1319 C1320 1.287 . S
C1320 C1319 1.287 . S
C1320 C1321 1.524 . S
C1320 H1339 0.913 . S
C1321 H1297 0.950 . S
C1321 C1320 1.524 . S
C1321 C1322 1.415 . S
C1322 H1298 0.950 . S
C1322 C1317 1.363 . S
C1322 C1321 1.415 . S
C1323 H1299 0.951 . S
C1323 C1324 1.366 . S
C1323 C1325 1.388 . S
C1324 C1323 1.366 . S
C1324 C1328 1.385 . S
C1325 H1300 0.951 . S
C1325 C1323 1.388 . S
C1325 C1326 1.366 . S
C1326 C1325 1.366 . S
C1326 C1327 1.414 . S
C1326 C1329 1.499 . S
C1327 H1301 0.950 . S
C1327 C1326 1.414 . S
C1327 C1328 1.374 . S
C1328 H1302 0.950 . S
C1328 C1324 1.385 . S
C1328 C1327 1.374 . S
C1329 C1326 1.499 . S
C1329 C1330 1.373 . S
C1329 C1331 1.389 . S
C1330 H1303 0.950 . S
C1330 C1316 1.377 . S
C1330 C1329 1.373 . S
C1331 C1315 1.377 . S
C1331 C1329 1.389 . S
C1331 C1332 1.524 . S
C1332 C1331 1.524 . S
C1332 C1333 1.397 . S
C1332 C1337 1.363 . S
C1333 H1304 0.950 . S
C1333 C1332 1.397 . S
C1333 C1334 1.334 . S
C1334 H1305 0.950 . S
C1334 C1333 1.334 . S
C1334 C1335 1.287 . S
C1335 C1334 1.287 . S
C1335 C1336 1.524 . S
C1335 H1338 0.999 . S
C1336 H1306 0.950 . S
C1336 C1335 1.524 . S
C1336 C1337 1.415 . S
C1337 H1307 0.950 . S
C1337 C1332 1.363 . S
C1337 C1336 1.415 . S
H1338 C1335 0.999 . S
H1339 C1320 0.913 . S
H1340 C1358 0.951 . S
H1341 C1360 0.951 . S
H1342 C1362 0.950 . S
H1343 C1363 0.950 . S
H1344 C1365 0.950 . S
H1345 C1368 0.950 . S
H1346 C1369 0.950 . S
H1347 C1371 0.950 1_556 S
H1348 C1372 0.950 . S
H1349 C1373 0.951 . S
H1350 C1375 0.951 . S
H1351 C1377 0.950 . S
H1352 C1378 0.950 . S
H1353 C1380 0.950 . S
H1354 C1383 0.950 . S
H1355 C1384 0.950 . S
H1356 C1386 0.950 . S
H1357 C1387 0.950 . S
C1358 H1340 0.951 . S
C1358 C1359 1.366 . S
C1358 C1360 1.388 . S
C1359 C1358 1.366 . S
C1359 C1363 1.385 . S
C1360 H1341 0.951 . S
C1360 C1358 1.388 . S
C1360 C1361 1.366 . S
C1361 C1360 1.366 . S
C1361 C1362 1.414 . S
C1361 C1364 1.499 . S
C1362 H1342 0.950 . S
C1362 C1361 1.414 . S
C1362 C1363 1.374 . S
C1363 H1343 0.950 . S
C1363 C1359 1.385 . S
C1363 C1362 1.374 . S
C1364 C1361 1.499 . S
C1364 C1365 1.373 . S
C1364 C1366 1.389 . S
C1365 H1344 0.950 . S
C1365 C1364 1.373 . S
C1365 C1381 1.377 . S
C1366 C1364 1.389 . S
C1366 C1367 1.524 . S
C1366 C1380 1.377 . S
C1367 C1366 1.524 . S
C1367 C1368 1.397 . S
C1367 C1372 1.363 . S
C1368 H1345 0.950 . S
C1368 C1367 1.397 . S
C1368 C1369 1.334 1_554 S
C1369 H1346 0.950 . S
C1369 C1368 1.334 1_556 S
C1369 C1370 1.287 . S
C1370 C1369 1.287 . S
C1370 C1371 1.524 1_556 S
C1370 H1389 0.913 . S
C1371 H1347 0.950 1_554 S
C1371 C1370 1.524 1_554 S
C1371 C1372 1.415 . S
C1372 H1348 0.950 . S
C1372 C1367 1.363 . S
C1372 C1371 1.415 . S
C1373 H1349 0.951 . S
C1373 C1374 1.366 . S
C1373 C1375 1.388 . S
C1374 C1373 1.366 . S
C1374 C1378 1.385 . S
C1375 H1350 0.951 . S
C1375 C1373 1.388 . S
C1375 C1376 1.366 . S
C1376 C1375 1.366 . S
C1376 C1377 1.414 . S
C1376 C1379 1.499 . S
C1377 H1351 0.950 . S
C1377 C1376 1.414 . S
C1377 C1378 1.374 . S
C1378 H1352 0.950 . S
C1378 C1374 1.385 . S
C1378 C1377 1.374 . S
C1379 C1376 1.499 . S
C1379 C1380 1.373 . S
C1379 C1381 1.389 . S
C1380 H1353 0.950 . S
C1380 C1366 1.377 . S
C1380 C1379 1.373 . S
C1381 C1365 1.377 . S
C1381 C1379 1.389 . S
C1381 C1382 1.524 . S
C1382 C1381 1.524 . S
C1382 C1383 1.397 . S
C1382 C1387 1.363 . S
C1383 H1354 0.950 . S
C1383 C1382 1.397 . S
C1383 C1384 1.334 . S
C1384 H1355 0.950 . S
C1384 C1383 1.334 . S
C1384 C1385 1.287 . S
C1385 C1384 1.287 . S
C1385 C1386 1.524 . S
C1385 H1388 0.999 . S
C1386 H1356 0.950 . S
C1386 C1385 1.524 . S
C1386 C1387 1.415 . S
C1387 H1357 0.950 . S
C1387 C1382 1.363 . S
C1387 C1386 1.415 . S
H1388 C1385 0.999 . S
H1389 C1370 0.913 . S
H1390 C1408 0.951 . S
H1391 C1410 0.951 . S
H1392 C1412 0.950 . S
H1393 C1413 0.950 . S
H1394 C1415 0.950 . S
H1395 C1418 0.950 . S
H1396 C1419 0.950 . S
H1397 C1421 0.950 . S
H1398 C1422 0.950 . S
H1399 C1423 0.951 . S
H1400 C1425 0.951 . S
H1401 C1427 0.950 . S
H1402 C1428 0.950 . S
H1403 C1430 0.950 . S
H1404 C1433 0.950 . S
H1405 C1434 0.950 . S
H1406 C1436 0.950 . S
H1407 C1437 0.950 . S
C1408 H1390 0.951 . S
C1408 C1409 1.366 . S
C1408 C1410 1.388 . S
C1409 C1408 1.366 . S
C1409 C1413 1.385 . S
C1410 H1391 0.951 . S
C1410 C1408 1.388 . S
C1410 C1411 1.366 . S
C1411 C1410 1.366 . S
C1411 C1412 1.414 . S
C1411 C1414 1.499 . S
C1412 H1392 0.950 . S
C1412 C1411 1.414 . S
C1412 C1413 1.374 . S
C1413 H1393 0.950 . S
C1413 C1409 1.385 . S
C1413 C1412 1.374 . S
C1414 C1411 1.499 . S
C1414 C1415 1.373 . S
C1414 C1416 1.389 . S
C1415 H1394 0.950 . S
C1415 C1414 1.373 . S
C1415 C1431 1.377 . S
C1416 C1414 1.389 . S
C1416 C1417 1.524 . S
C1416 C1430 1.377 . S
C1417 C1416 1.524 . S
C1417 C1418 1.397 . S
C1417 C1422 1.363 . S
C1418 H1395 0.950 . S
C1418 C1417 1.397 . S
C1418 C1419 1.334 . S
C1419 H1396 0.950 . S
C1419 C1418 1.334 . S
C1419 C1420 1.287 . S
C1420 C1419 1.287 . S
C1420 C1421 1.524 . S
C1420 H1439 0.913 . S
C1421 H1397 0.950 . S
C1421 C1420 1.524 . S
C1421 C1422 1.415 . S
C1422 H1398 0.950 . S
C1422 C1417 1.363 . S
C1422 C1421 1.415 . S
C1423 H1399 0.951 . S
C1423 C1424 1.366 . S
C1423 C1425 1.388 . S
C1424 C1423 1.366 . S
C1424 C1428 1.385 . S
C1425 H1400 0.951 . S
C1425 C1423 1.388 . S
C1425 C1426 1.366 . S
C1426 C1425 1.366 . S
C1426 C1427 1.414 . S
C1426 C1429 1.499 . S
C1427 H1401 0.950 . S
C1427 C1426 1.414 . S
C1427 C1428 1.374 . S
C1428 H1402 0.950 . S
C1428 C1424 1.385 . S
C1428 C1427 1.374 . S
C1429 C1426 1.499 . S
C1429 C1430 1.373 . S
C1429 C1431 1.389 . S
C1430 H1403 0.950 . S
C1430 C1416 1.377 . S
C1430 C1429 1.373 . S
C1431 C1415 1.377 . S
C1431 C1429 1.389 . S
C1431 C1432 1.524 . S
C1432 C1431 1.524 . S
C1432 C1433 1.397 . S
C1432 C1437 1.363 . S
C1433 H1404 0.950 . S
C1433 C1432 1.397 . S
C1433 C1434 1.334 . S
C1434 H1405 0.950 . S
C1434 C1433 1.334 . S
C1434 C1435 1.287 . S
C1435 C1434 1.287 . S
C1435 C1436 1.524 . S
C1435 H1438 0.999 . S
C1436 H1406 0.950 . S
C1436 C1435 1.524 . S
C1436 C1437 1.415 . S
C1437 H1407 0.950 . S
C1437 C1432 1.363 . S
C1437 C1436 1.415 . S
H1438 C1435 0.999 . S
H1439 C1420 0.913 . S
H1440 C1458 0.951 . S
H1441 C1460 0.951 . S
H1442 C1462 0.950 . S
H1443 C1463 0.950 . S
H1444 C1465 0.950 . S
H1445 C1468 0.950 . S
H1446 C1469 0.950 . S
H1447 C1471 0.950 . S
H1448 C1472 0.950 . S
H1449 C1473 0.951 . S
H1450 C1475 0.951 . S
H1451 C1477 0.950 1_455 S
H1452 C1478 0.950 1_455 S
H1453 C1480 0.950 . S
H1454 C1483 0.950 . S
H1455 C1484 0.950 . S
H1456 C1486 0.950 . S
H1457 C1487 0.950 . S
C1458 H1440 0.951 . S
C1458 C1459 1.366 . S
C1458 C1460 1.388 . S
C1459 C1458 1.366 . S
C1459 C1463 1.385 . S
C1460 H1441 0.951 . S
C1460 C1458 1.388 . S
C1460 C1461 1.366 . S
C1461 C1460 1.366 . S
C1461 C1462 1.414 . S
C1461 C1464 1.499 . S
C1462 H1442 0.950 . S
C1462 C1461 1.414 . S
C1462 C1463 1.374 . S
C1463 H1443 0.950 . S
C1463 C1459 1.385 . S
C1463 C1462 1.374 . S
C1464 C1461 1.499 . S
C1464 C1465 1.373 . S
C1464 C1466 1.389 . S
C1465 H1444 0.950 . S
C1465 C1464 1.373 . S
C1465 C1481 1.377 . S
C1466 C1464 1.389 . S
C1466 C1467 1.524 . S
C1466 C1480 1.377 . S
C1467 C1466 1.524 . S
C1467 C1468 1.397 . S
C1467 C1472 1.363 . S
C1468 H1445 0.950 . S
C1468 C1467 1.397 . S
C1468 C1469 1.334 . S
C1469 H1446 0.950 . S
C1469 C1468 1.334 . S
C1469 C1470 1.287 . S
C1470 C1469 1.287 . S
C1470 C1471 1.524 . S
C1470 H1489 0.913 . S
C1471 H1447 0.950 . S
C1471 C1470 1.524 . S
C1471 C1472 1.415 . S
C1472 H1448 0.950 . S
C1472 C1467 1.363 . S
C1472 C1471 1.415 . S
C1473 H1449 0.951 . S
C1473 C1474 1.366 . S
C1473 C1475 1.388 . S
C1474 C1473 1.366 . S
C1474 C1478 1.385 . S
C1475 H1450 0.951 . S
C1475 C1473 1.388 . S
C1475 C1476 1.366 . S
C1476 C1475 1.366 . S
C1476 C1477 1.414 . S
C1476 C1479 1.499 . S
C1477 H1451 0.950 1_655 S
C1477 C1476 1.414 . S
C1477 C1478 1.374 . S
C1478 H1452 0.950 1_655 S
C1478 C1474 1.385 . S
C1478 C1477 1.374 . S
C1479 C1476 1.499 . S
C1479 C1480 1.373 . S
C1479 C1481 1.389 . S
C1480 H1453 0.950 . S
C1480 C1466 1.377 . S
C1480 C1479 1.373 . S
C1481 C1465 1.377 . S
C1481 C1479 1.389 . S
C1481 C1482 1.524 1_556 S
C1482 C1481 1.524 1_554 S
C1482 C1483 1.397 . S
C1482 C1487 1.363 . S
C1483 H1454 0.950 . S
C1483 C1482 1.397 . S
C1483 C1484 1.334 . S
C1484 H1455 0.950 . S
C1484 C1483 1.334 . S
C1484 C1485 1.287 . S
C1485 C1484 1.287 . S
C1485 C1486 1.524 . S
C1485 H1488 0.999 . S
C1486 H1456 0.950 . S
C1486 C1485 1.524 . S
C1486 C1487 1.415 . S
C1487 H1457 0.950 . S
C1487 C1482 1.363 . S
C1487 C1486 1.415 . S
H1488 C1485 0.999 . S
H1489 C1470 0.913 . S
H1490 C1508 0.951 . S
H1491 C1510 0.951 . S
H1492 C1512 0.950 . S
H1493 C1513 0.950 . S
H1494 C1515 0.950 . S
H1495 C1518 0.950 . S
H1496 C1519 0.950 . S
H1497 C1521 0.950 . S
H1498 C1522 0.950 . S
H1499 C1523 0.937 1_556 S
H1500 C1525 0.951 . S
H1501 C1527 0.950 . S
H1502 C1528 0.950 . S
H1503 C1530 0.950 . S
H1504 C1533 0.950 . S
H1505 C1534 0.950 . S
H1506 C1536 0.950 . S
H1507 C1537 0.950 1_556 S
C1508 H1490 0.951 . S
C1508 C1509 1.366 . S
C1508 C1510 1.388 . S
C1509 C1508 1.366 . S
C1509 C1513 1.385 . S
C1510 H1491 0.951 . S
C1510 C1508 1.388 . S
C1510 C1511 1.366 . S
C1511 C1510 1.366 . S
C1511 C1512 1.414 . S
C1511 C1514 1.499 . S
C1512 H1492 0.950 . S
C1512 C1511 1.414 . S
C1512 C1513 1.374 . S
C1513 H1493 0.950 . S
C1513 C1509 1.385 . S
C1513 C1512 1.374 . S
C1514 C1511 1.499 . S
C1514 C1515 1.373 . S
C1514 C1516 1.389 . S
C1515 H1494 0.950 . S
C1515 C1514 1.373 . S
C1515 C1531 1.377 . S
C1516 C1514 1.389 . S
C1516 C1517 1.524 . S
C1516 C1530 1.377 . S
C1517 C1516 1.524 . S
C1517 C1518 1.397 . S
C1517 C1522 1.363 . S
C1518 H1495 0.950 . S
C1518 C1517 1.397 . S
C1518 C1519 1.334 . S
C1519 H1496 0.950 . S
C1519 C1518 1.334 . S
C1519 C1520 1.287 . S
C1520 C1519 1.287 . S
C1520 C1521 1.524 . S
C1520 H1539 0.913 . S
C1521 H1497 0.950 . S
C1521 C1520 1.524 . S
C1521 C1522 1.415 . S
C1522 H1498 0.950 . S
C1522 C1517 1.363 . S
C1522 C1521 1.415 . S
C1523 H1499 0.937 1_554 S
C1523 C1524 1.366 . S
C1523 C1525 1.388 . S
C1524 C1523 1.366 . S
C1524 C1528 1.385 . S
C1525 H1500 0.951 . S
C1525 C1523 1.388 . S
C1525 C1526 1.366 . S
C1526 C1525 1.366 . S
C1526 C1527 1.414 . S
C1526 C1529 1.499 . S
C1527 H1501 0.950 . S
C1527 C1526 1.414 . S
C1527 C1528 1.374 . S
C1528 H1502 0.950 . S
C1528 C1524 1.385 . S
C1528 C1527 1.374 . S
C1529 C1526 1.499 . S
C1529 C1530 1.373 . S
C1529 C1531 1.389 . S
C1530 H1503 0.950 . S
C1530 C1516 1.377 . S
C1530 C1529 1.373 . S
C1531 C1515 1.377 . S
C1531 C1529 1.389 . S
C1531 C1532 1.524 . S
C1532 C1531 1.524 . S
C1532 C1533 1.397 . S
C1532 C1537 1.366 . S
C1533 H1504 0.950 . S
C1533 C1532 1.397 . S
C1533 C1534 1.334 . S
C1534 H1505 0.950 . S
C1534 C1533 1.334 . S
C1534 C1535 1.287 1_554 S
C1535 C1534 1.287 1_556 S
C1535 C1536 1.524 . S
C1535 H1538 0.999 . S
C1536 H1506 0.950 . S
C1536 C1535 1.524 . S
C1536 C1537 1.412 1_556 S
C1537 H1507 0.950 1_554 S
C1537 C1532 1.366 . S
C1537 C1536 1.412 1_554 S
H1538 C1535 0.999 . S
H1539 C1520 0.913 . S
H1540 C1558 0.951 . S
H1541 C1560 0.951 . S
H1542 C1562 0.950 . S
H1543 C1563 0.950 . S
H1544 C1565 0.950 . S
H1545 C1568 0.970 . S
H1546 C1569 0.950 . S
H1547 C1571 0.950 . S
H1548 C1572 0.950 . S
H1549 C1573 0.951 . S
H1550 C1575 0.951 . S
H1551 C1577 0.950 . S
H1552 C1578 0.950 . S
H1553 C1580 0.950 . S
H1554 C1583 0.950 . S
H1555 C1584 0.950 . S
H1556 C1586 0.950 . S
H1557 C1587 0.950 . S
C1558 H1540 0.951 . S
C1558 C1559 1.366 . S
C1558 C1560 1.388 . S
C1559 C1558 1.366 . S
C1559 C1563 1.385 . S
C1560 H1541 0.951 . S
C1560 C1558 1.388 . S
C1560 C1561 1.366 . S
C1561 C1560 1.366 . S
C1561 C1562 1.414 . S
C1561 C1564 1.499 . S
C1562 H1542 0.950 . S
C1562 C1561 1.414 . S
C1562 C1563 1.374 . S
C1563 H1543 0.950 . S
C1563 C1559 1.385 . S
C1563 C1562 1.374 . S
C1564 C1561 1.499 . S
C1564 C1565 1.373 . S
C1564 C1566 1.389 . S
C1565 H1544 0.950 . S
C1565 C1564 1.373 . S
C1565 C1581 1.377 . S
C1566 C1564 1.389 . S
C1566 C1567 1.524 . S
C1566 C1580 1.377 . S
C1567 C1566 1.524 . S
C1567 C1568 1.397 1_455 S
C1567 C1572 1.363 1_455 S
C1568 H1545 0.970 . S
C1568 C1567 1.397 1_655 S
C1568 C1569 1.334 . S
C1569 H1546 0.950 . S
C1569 C1568 1.334 . S
C1569 C1570 1.287 . S
C1570 C1569 1.287 . S
C1570 C1571 1.524 . S
C1570 H1589 0.913 . S
C1571 H1547 0.950 . S
C1571 C1570 1.524 . S
C1571 C1572 1.415 . S
C1572 H1548 0.950 . S
C1572 C1567 1.363 1_655 S
C1572 C1571 1.415 . S
C1573 H1549 0.951 . S
C1573 C1574 1.366 . S
C1573 C1575 1.388 . S
C1574 C1573 1.366 . S
C1574 C1578 1.385 . S
C1575 H1550 0.951 . S
C1575 C1573 1.388 . S
C1575 C1576 1.366 . S
C1576 C1575 1.366 . S
C1576 C1577 1.414 . S
C1576 C1579 1.499 . S
C1577 H1551 0.950 . S
C1577 C1576 1.414 . S
C1577 C1578 1.374 . S
C1578 H1552 0.950 . S
C1578 C1574 1.385 . S
C1578 C1577 1.374 . S
C1579 C1576 1.499 . S
C1579 C1580 1.373 . S
C1579 C1581 1.389 . S
C1580 H1553 0.950 . S
C1580 C1566 1.377 . S
C1580 C1579 1.373 . S
C1581 C1565 1.377 . S
C1581 C1579 1.389 . S
C1581 C1582 1.524 . S
C1582 C1581 1.524 . S
C1582 C1583 1.397 . S
C1582 C1587 1.363 . S
C1583 H1554 0.950 . S
C1583 C1582 1.397 . S
C1583 C1584 1.334 . S
C1584 H1555 0.950 . S
C1584 C1583 1.334 . S
C1584 C1585 1.287 . S
C1585 C1584 1.287 . S
C1585 C1586 1.524 . S
C1585 H1588 0.999 . S
C1586 H1556 0.950 . S
C1586 C1585 1.524 . S
C1586 C1587 1.415 . S
C1587 H1557 0.950 . S
C1587 C1582 1.363 . S
C1587 C1586 1.415 . S
H1588 C1585 0.999 . S
H1589 C1570 0.913 . S
H1590 C1608 0.951 . S
H1591 C1610 0.951 . S
H1592 C1612 0.950 . S
H1593 C1613 0.950 . S
H1594 C1615 0.950 . S
H1595 C1618 0.950 . S
H1596 C1619 0.950 . S
H1597 C1621 0.950 . S
H1598 C1622 0.950 . S
H1599 C1623 0.951 . S
H1600 C1625 0.951 . S
H1601 C1627 0.950 . S
H1602 C1628 0.950 . S
H1603 C1630 0.950 . S
H1604 C1633 0.950 . S
H1605 C1634 0.950 . S
H1606 C1636 0.950 . S
H1607 C1637 0.950 . S
C1608 H1590 0.951 . S
C1608 C1609 1.366 . S
C1608 C1610 1.388 . S
C1609 C1608 1.366 . S
C1609 C1613 1.385 . S
C1610 H1591 0.951 . S
C1610 C1608 1.388 . S
C1610 C1611 1.366 . S
C1611 C1610 1.366 . S
C1611 C1612 1.414 . S
C1611 C1614 1.499 . S
C1612 H1592 0.950 . S
C1612 C1611 1.414 . S
C1612 C1613 1.374 . S
C1613 H1593 0.950 . S
C1613 C1609 1.385 . S
C1613 C1612 1.374 . S
C1614 C1611 1.499 . S
C1614 C1615 1.373 . S
C1614 C1616 1.389 . S
C1615 H1594 0.950 . S
C1615 C1614 1.373 . S
C1615 C1631 1.377 . S
C1616 C1614 1.389 . S
C1616 C1617 1.524 . S
C1616 C1630 1.377 . S
C1617 C1616 1.524 . S
C1617 C1618 1.397 . S
C1617 C1622 1.363 . S
C1618 H1595 0.950 . S
C1618 C1617 1.397 . S
C1618 C1619 1.334 . S
C1619 H1596 0.950 . S
C1619 C1618 1.334 . S
C1619 C1620 1.287 . S
C1620 C1619 1.287 . S
C1620 C1621 1.524 . S
C1620 H1639 0.913 . S
C1621 H1597 0.950 . S
C1621 C1620 1.524 . S
C1621 C1622 1.415 . S
C1622 H1598 0.950 . S
C1622 C1617 1.363 . S
C1622 C1621 1.415 . S
C1623 H1599 0.951 . S
C1623 C1624 1.366 . S
C1623 C1625 1.388 . S
C1624 C1623 1.366 . S
C1624 C1628 1.385 . S
C1625 H1600 0.951 . S
C1625 C1623 1.388 . S
C1625 C1626 1.366 . S
C1626 C1625 1.366 . S
C1626 C1627 1.414 . S
C1626 C1629 1.499 . S
C1627 H1601 0.950 . S
C1627 C1626 1.414 . S
C1627 C1628 1.374 . S
C1628 H1602 0.950 . S
C1628 C1624 1.385 . S
C1628 C1627 1.374 . S
C1629 C1626 1.499 . S
C1629 C1630 1.373 . S
C1629 C1631 1.389 . S
C1630 H1603 0.950 . S
C1630 C1616 1.377 . S
C1630 C1629 1.373 . S
C1631 C1615 1.377 . S
C1631 C1629 1.389 . S
C1631 C1632 1.524 . S
C1632 C1631 1.524 . S
C1632 C1633 1.397 . S
C1632 C1637 1.363 . S
C1633 H1604 0.950 . S
C1633 C1632 1.397 . S
C1633 C1634 1.334 . S
C1634 H1605 0.950 . S
C1634 C1633 1.334 . S
C1634 C1635 1.287 . S
C1635 C1634 1.287 . S
C1635 C1636 1.524 . S
C1635 H1638 0.999 . S
C1636 H1606 0.950 . S
C1636 C1635 1.524 . S
C1636 C1637 1.415 . S
C1637 H1607 0.950 . S
C1637 C1632 1.363 . S
C1637 C1636 1.415 . S
H1638 C1635 0.999 . S
H1639 C1620 0.913 . S
C459 C21 2.254 . S
C474 C336 2.254 . S
C509 C61 1.107 . S
C524 N356 1.119 . S
C574 C390 1.935 . S
C559 C82 1.932 . S
C609 C135 1.376 . S
C624 N424 1.316 . S
C674 C377 2.413 . S
C659 C15 2.401 . S
C724 N334 1.217 . S
C709 C42 1.228 . S
C774 C411 1.971 . S
C759 C101 1.974 . S
C824 N386 0.999 . S
C809 C122 1.008 . S
C859 C2 1.921 . S
C874 C426 1.924 . S
C924 C360 1.670 . S
C909 C95 1.659 . S
C959 C141 1.552 . S
C974 C321 1.545 . S
C1009 C55 1.475 . S
C1024 C407 1.491 . S
C1074 C347 2.268 . S
C1059 C181 2.201 . S
C1109 C202 1.092 . S
C1124 N364 1.099 . S
C1159 C255 1.945 . S
C1174 C381 1.960 . S
C1209 C295 1.341 . S
C1224 N416 1.283 . S
C1259 C175 2.388 . S
C1274 C366 2.405 . S
C1324 N326 1.235 . S
C1309 C221 1.241 . S
C1374 C420 1.911 . S
C1359 C242 1.858 . S
C1424 N394 1.066 . S
C1409 C301 1.078 . S
C1459 C162 1.816 . S
C1474 C437 1.875 . S
C1524 C351 1.706 . S
C1509 C261 1.650 . S
C1574 C330 1.516 . S
C1559 C282 1.520 . S
C1609 C215 1.520 . S
C1624 C396 1.537 . S
