# Generated by pormake.
# Topology anh, (6,3)-cn, num edge types: 1
# Building blocks:
#     Node 0, Type 0, BuildingBlock: BETFEN_clean_sbu_0, # of connection points: 6
#     Node 1, Type 0, BuildingBlock: BETFEN_clean_sbu_0, # of connection points: 6
#     Node 2, Type 0, BuildingBlock: BETFEN_clean_sbu_0, # of connection points: 6
#     Node 3, Type 1, BuildingBlock: OLANEW_clean_sbu_2, # of connection points: 3
#     Node 4, Type 1, BuildingBlock: OLANEW_clean_sbu_2, # of connection points: 3
#     Node 5, Type 1, BuildingBlock: OLANEW_clean_sbu_2, # of connection points: 3
#     Node 6, Type 1, BuildingBlock: OLANEW_clean_sbu_2, # of connection points: 3
#     Node 7, Type 1, BuildingBlock: OLANEW_clean_sbu_2, # of connection points: 3
#     Node 8, Type 1, BuildingBlock: OLANEW_clean_sbu_2, # of connection points: 3
#     Edge 9, Type (0, 1), BuildingBlock: CIFDUS_clean_linker_0, # of connection points: 2
#     Edge 10, Type (0, 1), BuildingBlock: CIFDUS_clean_linker_0, # of connection points: 2
#     Edge 11, Type (0, 1), BuildingBlock: CIFDUS_clean_linker_0, # of connection points: 2
#     Edge 12, Type (0, 1), BuildingBlock: CIFDUS_clean_linker_0, # of connection points: 2
#     Edge 13, Type (0, 1), BuildingBlock: CIFDUS_clean_linker_0, # of connection points: 2
#     Edge 14, Type (0, 1), BuildingBlock: CIFDUS_clean_linker_0, # of connection points: 2
#     Edge 15, Type (0, 1), BuildingBlock: CIFDUS_clean_linker_0, # of connection points: 2
#     Edge 16, Type (0, 1), BuildingBlock: CIFDUS_clean_linker_0, # of connection points: 2
#     Edge 17, Type (0, 1), BuildingBlock: CIFDUS_clean_linker_0, # of connection points: 2
#     Edge 18, Type (0, 1), BuildingBlock: CIFDUS_clean_linker_0, # of connection points: 2
#     Edge 19, Type (0, 1), BuildingBlock: CIFDUS_clean_linker_0, # of connection points: 2
#     Edge 20, Type (0, 1), BuildingBlock: CIFDUS_clean_linker_0, # of connection points: 2
#     Edge 21, Type (0, 1), BuildingBlock: CIFDUS_clean_linker_0, # of connection points: 2
#     Edge 22, Type (0, 1), BuildingBlock: CIFDUS_clean_linker_0, # of connection points: 2
#     Edge 23, Type (0, 1), BuildingBlock: CIFDUS_clean_linker_0, # of connection points: 2
#     Edge 24, Type (0, 1), BuildingBlock: CIFDUS_clean_linker_0, # of connection points: 2
#     Edge 25, Type (0, 1), BuildingBlock: CIFDUS_clean_linker_0, # of connection points: 2
#     Edge 26, Type (0, 1), BuildingBlock: CIFDUS_clean_linker_0, # of connection points: 2
# Relax obj value: 0.161
# Max RMSD: 0.177
# Mean RMSD: 0.118
data_MOF--net-anh--node1-BETFEN_clean_sbu_0--node2-OLANEW_clean_sbu_2--edge1-CIFDUS_clean_linker_0
_symmetry_space_group_name_H-M    P1
_symmetry_Int_Tables_number       1
_symmetry_cell_setting            triclinic
loop_
_symmetry_equiv_pos_as_xyz
'x, y, z'
_cell_length_a     30.003224
_cell_length_b     33.562252
_cell_length_c     44.601825
_cell_angle_alpha  90.246767
_cell_angle_beta   92.732625
_cell_angle_gamma 107.21791
loop_
_atom_site_label
_atom_site_type_symbol
_atom_site_fract_x
_atom_site_fract_y
_atom_site_fract_z
_atom_type_partial_charge
Pr0 Pr 0.05339 0.49955 0.15689 0.0
Pr1 Pr 0.07749 0.59043 0.14641 0.0
C2 C 0.01843 0.42068 0.17552 0.0
C3 C 0.97371 0.39286 0.18469 0.0
C4 C 0.96302 0.34992 0.17906 0.0
C5 C 0.92066 0.32285 0.18753 0.0
C6 C 0.88827 0.33828 0.20196 0.0
C7 C 0.89908 0.38154 0.20736 0.0
C8 C 0.94138 0.40863 0.19868 0.0
C9 C 0.07186 0.52007 0.09751 0.0
C10 C 0.96816 0.54232 0.14167 0.0
C11 C 0.11321 0.67115 0.13203 0.0
C12 C 0.1534 0.70538 0.14345 0.0
C13 C 0.15776 0.7464 0.13494 0.0
C14 C 0.19482 0.77932 0.14694 0.0
C15 C 0.22805 0.77168 0.1677 0.0
C16 C 0.22366 0.73032 0.17591 0.0
C17 C 0.1866 0.69745 0.1639 0.0
C18 C 0.06217 0.56889 0.20624 0.0
C19 C 0.16438 0.54669 0.15526 0.0
O20 O 0.03932 0.45209 0.19366 0.0
O21 O 0.02052 0.43049 0.1472 0.0
O22 O 0.04701 0.53539 0.11338 0.0
O23 O 0.08759 0.49312 0.11196 0.0
O24 O 1.00005 0.57226 0.12903 0.0
O25 O 0.9805 0.51389 0.15771 0.0
O26 O 0.12293 0.64064 0.11806 0.0
O27 O 0.0797 0.65817 0.15054 0.0
O28 O 0.08624 0.55452 0.18927 0.0
O29 O 0.04529 0.59566 0.19267 0.0
O30 O 0.13381 0.51266 0.16449 0.0
O31 O 0.15107 0.57872 0.14555 0.0
H32 H 0.98744 0.33731 0.16801 0.0
H33 H 0.91312 0.28986 0.18249 0.0
H34 H 0.87518 0.39446 0.21866 0.0
H35 H 0.94891 0.44182 0.20303 0.0
H36 H 0.13217 0.75301 0.11934 0.0
H37 H 0.19687 0.81085 0.14046 0.0
H38 H 0.24895 0.72333 0.19154 0.0
H39 H 0.1836 0.66587 0.17077 0.0
Pr40 Pr 0.52359 0.03886 0.54227 0.0
Pr41 Pr 0.41689 1.01107 0.5383 0.0
C42 C 0.61458 0.07807 0.5342 0.0
C43 C 0.64154 0.11878 0.52286 0.0
C44 C 0.69031 0.1324 0.52722 0.0
C45 C 0.7162 0.17067 0.51586 0.0
C46 C 0.69367 0.19598 0.49992 0.0
C47 C 0.64459 0.1824 0.49612 0.0
C48 C 0.61881 0.14416 0.50743 0.0
C49 C 0.48242 0.019 0.59703 0.0
C50 C 0.46565 0.11086 0.54361 0.0
C51 C 0.32524 0.97153 0.54324 0.0
C52 C 0.29355 0.92893 0.53738 0.0
C53 C 0.25136 0.92344 0.52063 0.0
C54 C 0.22159 0.88337 0.51389 0.0
C55 C 0.23328 0.8478 0.52387 0.0
C56 C 0.27555 0.85346 0.54085 0.0
C57 C 0.30539 0.89357 0.54749 0.0
C58 C 0.45728 0.03352 0.48378 0.0
C59 C 0.47488 0.93793 0.53971 0.0
O60 O 0.58716 0.05225 0.51436 0.0
O61 O 0.59516 0.07878 0.55974 0.0
O62 O 0.46937 0.03957 0.57668 0.0
O63 O 0.51976 1.00947 0.59021 0.0
O64 O 0.4282 0.08107 0.55107 0.0
O65 O 0.50322 0.10162 0.53511 0.0
O66 O 0.35628 0.97655 0.56566 0.0
O67 O 0.34177 0.99286 0.51967 0.0
O68 O 0.47082 1.01141 0.50296 0.0
O69 O 0.421 0.04347 0.49205 0.0
O70 O 0.51518 0.96726 0.53768 0.0
O71 O 0.43529 0.94742 0.54158 0.0
H72 H 0.70842 0.1132 0.53909 0.0
H73 H 0.75392 0.17993 0.51891 0.0
H74 H 0.62603 0.20134 0.48437 0.0
H75 H 0.58115 0.13423 0.50388 0.0
H76 H 0.24165 0.95023 0.51244 0.0
H77 H 0.18977 0.88031 0.50035 0.0
H78 H 0.28549 0.82691 0.54924 0.0
H79 H 0.3378 0.89685 0.56043 0.0
Pr80 Pr 0.52652 0.50392 0.80086 0.0
Pr81 Pr 0.55827 0.60445 0.81605 0.0
C82 C 0.50697 0.43219 0.76912 0.0
C83 C 0.51674 0.39194 0.76921 0.0
C84 C 0.53882 0.37934 0.79427 0.0
C85 C 0.5437 0.33916 0.79499 0.0
C86 C 0.52654 0.31109 0.77063 0.0
C87 C 0.50605 0.32467 0.74515 0.0
C88 C 0.50122 0.36475 0.74449 0.0
C89 C 0.54454 0.51845 0.86261 0.0
C90 C 0.63945 0.55764 0.81453 0.0
C91 C 0.56598 0.68082 0.83838 0.0
C92 C 0.53394 0.70644 0.83727 0.0
C93 C 0.49676 0.69758 0.81561 0.0
C94 C 0.46511 0.72076 0.81497 0.0
C95 C 0.46975 0.75309 0.83618 0.0
C96 C 0.50705 0.76173 0.85798 0.0
C97 C 0.53889 0.73851 0.85851 0.0
C98 C 0.5476 0.57968 0.75561 0.0
C99 C 0.44423 0.54976 0.81154 0.0
O100 O 0.54164 0.46517 0.76323 0.0
O101 O 0.48105 0.43843 0.79049 0.0
O102 O 0.54797 0.54503 0.84239 0.0
O103 O 0.53144 0.48099 0.85073 0.0
O104 O 0.6282 0.58987 0.82535 0.0
O105 O 0.6088 0.52487 0.801 0.0
O106 O 0.55256 0.64701 0.85419 0.0
O107 O 0.58273 0.67468 0.81275 0.0
O108 O 0.52239 0.56236 0.77636 0.0
O109 O 0.57898 0.61362 0.76536 0.0
O110 O 0.4534 0.51549 0.80254 0.0
O111 O 0.47719 0.58503 0.81845 0.0
H112 H 0.55116 0.40017 0.81352 0.0
H113 H 0.56004 0.32978 0.8148 0.0
H114 H 0.49179 0.30373 0.72622 0.0
H115 H 0.48399 0.37407 0.72501 0.0
H116 H 0.49216 0.67264 0.79916 0.0
H117 H 0.43736 0.71365 0.79755 0.0
H118 H 0.51131 0.78608 0.87483 0.0
H119 H 0.56713 0.74537 0.87561 0.0
O120 O 0.53401 0.14195 0.30762 0.0
Cd121 Cd 0.54539 0.14824 0.25382 0.0
O122 O 0.51484 0.0748 0.29871 0.0
Cd123 Cd 0.48125 1.009 0.30722 0.0
O124 O 0.43178 0.94976 0.29193 0.0
C125 C 0.42089 0.94736 0.26394 0.0
O126 O 0.4406 0.97923 0.24718 0.0
C127 C 0.52022 0.10496 0.3172 0.0
C128 C 0.62967 0.20565 0.24051 0.0
O129 O 0.59228 0.21661 0.24137 0.0
O130 O 0.6271 0.16763 0.24615 0.0
O131 O 0.51516 0.49111 0.57515 0.0
Cd132 Cd 0.4989 0.4422 0.5308 0.0
O133 O 0.51796 0.55347 0.55717 0.0
Cd134 Cd 0.52272 0.62167 0.55963 0.0
O135 O 0.52938 0.69016 0.55766 0.0
C136 C 0.49447 0.7037 0.55161 0.0
O137 O 0.45309 0.67645 0.54662 0.0
C138 C 0.52066 0.53011 0.57934 0.0
C139 C 0.50218 0.35865 0.5383 0.0
O140 O 0.5386 0.3884 0.53238 0.0
O141 O 0.46443 0.36827 0.54181 0.0
O142 O 0.10735 0.57777 0.91269 0.0
Cd143 Cd 0.11212 0.5869 0.85861 0.0
O144 O 0.03301 0.54861 0.90238 0.0
Cd145 Cd 0.96027 0.51633 0.91008 0.0
O146 O 0.88776 0.50315 0.89404 0.0
C147 C 0.88066 0.53096 0.87684 0.0
O148 O 0.91607 0.56359 0.87131 0.0
C149 C 0.06689 0.56035 0.92176 0.0
C150 C 0.19994 0.58718 0.84167 0.0
O151 O 0.19159 0.62111 0.84912 0.0
O152 O 0.16632 0.5531 0.84172 0.0
O153 O 0.03678 0.53676 0.39519 0.0
Cd154 Cd 0.03973 0.53505 0.45008 0.0
O155 O 0.96001 0.51468 0.38765 0.0
Cd156 Cd 0.94356 0.48813 0.43206 0.0
O157 O 0.90417 0.43611 0.45914 0.0
C158 C 0.86829 0.41086 0.44591 0.0
O159 O 0.85733 0.41819 0.41802 0.0
C160 C 1.00049 0.52968 0.37765 0.0
C161 C 0.09834 0.61185 0.47272 0.0
O162 O 0.11464 0.58166 0.46666 0.0
O163 O 0.0542 0.60555 0.46864 0.0
O164 O 0.26185 0.93402 0.72473 0.0
Cd165 Cd 0.22089 0.90752 0.76992 0.0
O166 O 0.32532 0.95136 0.75433 0.0
Cd167 Cd 0.39835 0.98735 0.76351 0.0
O168 O 0.44891 0.0489 0.76957 0.0
C169 C 0.4522 0.06758 0.79478 0.0
O170 O 0.42836 0.0475 0.81691 0.0
C171 C 0.3059 0.94971 0.7282 0.0
C172 C 0.26881 0.8572 0.79749 0.0
O173 O 0.28044 0.89643 0.80345 0.0
O174 O 0.23322 0.84153 0.7795 0.0
O175 O 0.58497 0.50514 0.05912 0.0
Cd176 Cd 0.59939 0.50796 0.11377 0.0
O177 O 0.52864 0.53502 0.05123 0.0
Cd178 Cd 0.50298 0.53967 0.09606 0.0
O179 O 0.44119 0.54366 0.11944 0.0
C180 C 0.4109 0.51069 0.12753 0.0
O181 O 0.41885 0.47459 0.12372 0.0
C182 C 0.55875 0.51899 0.04136 0.0
C183 C 0.69183 0.50735 0.12718 0.0
O184 O 0.65792 0.47345 0.12674 0.0
O185 O 0.68201 0.54138 0.12186 0.0
H186 H 0.20279 0.48295 0.16332 0.0
H187 H 0.23816 0.61382 0.1426 0.0
H188 H 0.31832 0.61501 0.13433 0.0
H189 H 0.37715 0.57787 0.12947 0.0
H190 H 0.3411 0.44658 0.14884 0.0
H191 H 0.26289 0.4468 0.16132 0.0
C192 C 0.22812 0.51188 0.15736 0.0
C193 C 0.21418 0.54815 0.15344 0.0
C194 C 0.27418 0.51227 0.15219 0.0
C195 C 0.24765 0.58531 0.14562 0.0
C196 C 0.29361 0.58605 0.14084 0.0
C197 C 0.3524 0.54939 0.13674 0.0
C198 C 0.36509 0.51222 0.13801 0.0
C199 C 0.30708 0.54955 0.14352 0.0
C200 C 0.33238 0.47564 0.14748 0.0
C201 C 0.28751 0.47569 0.15461 0.0
H202 H 0.77034 0.25555 0.52446 0.0
H203 H 0.67908 0.22529 0.4445 0.0
H204 H 0.72407 0.28931 0.42139 0.0
H205 H 0.79006 0.35302 0.4232 0.0
H206 H 0.88264 0.38365 0.50251 0.0
H207 H 0.83663 0.32024 0.52639 0.0
C208 C 0.76047 0.26286 0.50191 0.0
C209 C 0.7212 0.23558 0.48632 0.0
C210 C 0.78678 0.29977 0.48858 0.0
C211 C 0.70862 0.2459 0.45725 0.0
C212 C 0.73454 0.28243 0.4439 0.0
C213 C 0.80024 0.34598 0.44575 0.0
C214 C 0.83988 0.37311 0.46098 0.0
C215 C 0.77373 0.3095 0.45929 0.0
C216 C 0.85233 0.36337 0.49023 0.0
C217 C 0.82605 0.32706 0.5039 0.0
H218 H 0.37578 0.72525 0.82409 0.0
H219 H 0.48851 0.83741 0.84518 0.0
H220 H 0.43461 0.87911 0.83856 0.0
H221 H 0.35727 0.88426 0.82209 0.0
H222 H 0.24604 0.77228 0.79773 0.0
H223 H 0.29766 0.72989 0.81032 0.0
C224 C 0.38864 0.75878 0.82727 0.0
C225 C 0.43626 0.77808 0.83488 0.0
C226 C 0.35775 0.78262 0.8227 0.0
C227 C 0.45202 0.8216 0.83953 0.0
C228 C 0.42127 0.84553 0.83553 0.0
C229 C 0.3441 0.85053 0.81999 0.0
C230 C 0.29798 0.83143 0.80887 0.0
C231 C 0.3743 0.82645 0.82651 0.0
C232 C 0.28149 0.78773 0.8061 0.0
C233 C 0.311 0.76349 0.81322 0.0
H234 H 0.88971 0.47916 0.15451 0.0
H235 H 0.93479 0.6044 0.1207 0.0
H236 H 0.85404 0.60497 0.11431 0.0
H237 H 0.7705 0.57013 0.11751 0.0
H238 H 0.72371 0.44401 0.14915 0.0
H239 H 0.80491 0.44366 0.15724 0.0
C240 C 0.88182 0.50657 0.1458 0.0
C241 C 0.91846 0.54165 0.13808 0.0
C242 C 0.83489 0.5066 0.14177 0.0
C243 C 0.90748 0.57683 0.12669 0.0
C244 C 0.8612 0.57729 0.12307 0.0
C245 C 0.77798 0.5426 0.12632 0.0
C246 C 0.74101 0.50723 0.1328 0.0
C247 C 0.82463 0.54237 0.13043 0.0
C248 C 0.75147 0.47169 0.14394 0.0
C249 C 0.79794 0.47146 0.14857 0.0
H250 H 0.25754 0.77834 0.50839 0.0
H251 H 0.13757 0.82097 0.52232 0.0
H252 H 0.08555 0.75208 0.50797 0.0
H253 H 0.07384 0.67988 0.49074 0.0
H254 H 0.19375 0.63668 0.47821 0.0
H255 H 0.24585 0.70533 0.49331 0.0
C256 C 0.22003 0.77249 0.50872 0.0
C257 C 0.20168 0.8051 0.51629 0.0
C258 C 0.19018 0.73259 0.50072 0.0
C259 C 0.15285 0.79685 0.51609 0.0
C260 C 0.12298 0.75731 0.50807 0.0
C261 C 0.11136 0.6854 0.49141 0.0
C262 C 0.12976 0.6531 0.48324 0.0
C263 C 0.14122 0.72501 0.50015 0.0
C264 C 0.17853 0.66088 0.48437 0.0
C265 C 0.20842 0.7002 0.49296 0.0
H266 H 0.50546 0.26056 0.81863 0.0
H267 H 0.54521 0.2617 0.72684 0.0
H268 H 0.53065 0.18616 0.72735 0.0
H269 H 0.49802 0.11932 0.75197 0.0
H270 H 0.45739 0.11841 0.84362 0.0
H271 H 0.48227 0.19448 0.84528 0.0
C272 C 0.51218 0.24451 0.79898 0.0
C273 C 0.52581 0.26672 0.77261 0.0
C274 C 0.50331 0.20105 0.79934 0.0
C275 C 0.53384 0.24524 0.74725 0.0
C276 C 0.52563 0.20206 0.74755 0.0
C277 C 0.49531 0.13572 0.77249 0.0
C278 C 0.47513 0.11313 0.79746 0.0
C279 C 0.50892 0.17951 0.77316 0.0
C280 C 0.47235 0.13494 0.82395 0.0
C281 C 0.48643 0.17851 0.82491 0.0
H282 H 0.54673 0.90232 0.5486 0.0
H283 H 0.39732 0.87107 0.53169 0.0
H284 H 0.39056 0.79724 0.53386 0.0
H285 H 0.42599 0.74084 0.54101 0.0
H286 H 0.57491 0.77001 0.55851 0.0
H287 H 0.58272 0.84468 0.55564 0.0
C288 C 0.51275 0.87936 0.54524 0.0
C289 C 0.47262 0.89274 0.54007 0.0
C290 C 0.50886 0.83626 0.5467 0.0
C291 C 0.42889 0.8622 0.53594 0.0
C292 C 0.42489 0.81969 0.53712 0.0
C293 C 0.46029 0.7634 0.5442 0.0
C294 C 0.49978 0.74945 0.54999 0.0
C295 C 0.46451 0.8063 0.54261 0.0
C296 C 0.5438 0.77955 0.55406 0.0
C297 C 0.54831 0.8224 0.55239 0.0
H298 H 0.66914 0.49226 0.83181 0.0
H299 H 0.71765 0.62285 0.81089 0.0
H300 H 0.79759 0.62527 0.82661 0.0
H301 H 0.85224 0.5917 0.8497 0.0
H302 H 0.80328 0.4625 0.87464 0.0
H303 H 0.72481 0.458 0.85408 0.0
C304 C 0.69751 0.52094 0.83017 0.0
C305 C 0.68796 0.55726 0.82003 0.0
C306 C 0.74299 0.52246 0.84039 0.0
C307 C 0.72451 0.59455 0.81858 0.0
C308 C 0.77006 0.59597 0.82767 0.0
C309 C 0.82452 0.56244 0.85047 0.0
C310 C 0.8335 0.52753 0.86374 0.0
C311 C 0.77949 0.56035 0.83919 0.0
C312 C 0.79714 0.48991 0.8647 0.0
C313 C 0.75233 0.48729 0.85288 0.0
H314 H 0.2611 0.78246 0.22606 0.0
H315 H 0.28163 0.83991 0.13938 0.0
H316 H 0.34342 0.89882 0.1615 0.0
H317 H 0.39073 0.93442 0.2054 0.0
H318 H 0.37091 0.8771 0.29218 0.0
H319 H 0.31018 0.81734 0.26991 0.0
C320 C 0.27949 0.80762 0.21193 0.0
C321 C 0.26664 0.8068 0.18111 0.0
C322 C 0.3151 0.84137 0.22479 0.0
C323 C 0.29035 0.84001 0.16323 0.0
C324 C 0.32586 0.8736 0.17583 0.0
C325 C 0.37329 0.90882 0.21949 0.0
C326 C 0.38533 0.91032 0.25044 0.0
C327 C 0.33833 0.87471 0.20659 0.0
C328 C 0.36234 0.8768 0.26829 0.0
C329 C 0.32756 0.84262 0.25558 0.0
H330 H 0.53791 0.18131 0.53382 0.0
H331 H 0.39284 0.14113 0.55549 0.0
H332 H 0.39152 0.21348 0.55646 0.0
H333 H 0.43097 0.28855 0.55039 0.0
H334 H 0.57614 0.32878 0.52911 0.0
H335 H 0.57785 0.25646 0.52888 0.0
C336 C 0.50594 0.18827 0.53877 0.0
C337 C 0.46547 0.1554 0.54448 0.0
C338 C 0.50539 0.23023 0.53941 0.0
C339 C 0.42457 0.16545 0.55098 0.0
C340 C 0.42374 0.20699 0.55154 0.0
C341 C 0.46308 0.28159 0.54585 0.0
C342 C 0.50336 0.31441 0.53977 0.0
C343 C 0.46387 0.23969 0.54571 0.0
C344 C 0.54457 0.30445 0.53392 0.0
C345 C 0.54559 0.26295 0.53371 0.0
H346 H 0.41332 0.61595 0.82328 0.0
H347 H 0.36466 0.48311 0.80522 0.0
H348 H 0.2842 0.48327 0.8117 0.0
H349 H 0.22831 0.52093 0.82453 0.0
H350 H 0.27856 0.65371 0.84281 0.0
H351 H 0.35812 0.6534 0.83437 0.0
C352 C 0.38527 0.58691 0.82066 0.0
C353 C 0.39515 0.5495 0.81395 0.0
C354 C 0.33937 0.58719 0.82452 0.0
C355 C 0.3581 0.51235 0.81043 0.0
C356 C 0.31209 0.51241 0.81418 0.0
C357 C 0.25661 0.54988 0.82642 0.0
C358 C 0.24748 0.58724 0.83442 0.0
C359 C 0.3024 0.54962 0.82151 0.0
C360 C 0.28453 0.6245 0.83672 0.0
C361 C 0.33005 0.62444 0.83187 0.0
H362 H 0.80195 0.34997 0.1988 0.0
H363 H 0.87397 0.26118 0.22637 0.0
H364 H 0.80045 0.21241 0.24038 0.0
H365 H 0.71578 0.19471 0.24466 0.0
H366 H 0.64393 0.28434 0.21906 0.0
H367 H 0.71756 0.33335 0.20498 0.0
C368 C 0.80172 0.32019 0.20824 0.0
C369 C 0.8435 0.30924 0.21132 0.0
C370 C 0.75938 0.29245 0.21667 0.0
C371 C 0.84229 0.27019 0.22319 0.0
C372 C 0.80028 0.24234 0.23143 0.0
C373 C 0.7162 0.22498 0.23603 0.0
C374 C 0.67441 0.23578 0.23282 0.0
C375 C 0.75862 0.25307 0.22815 0.0
C376 C 0.67563 0.27524 0.22178 0.0
C377 C 0.7177 0.30327 0.21368 0.0
H378 H 0.01348 0.54311 0.05741 0.0
H379 H 0.14381 0.51342 0.06572 0.0
H380 H 0.15429 0.52416 0.01202 0.0
H381 H 0.12591 0.54108 0.96262 0.0
H382 H 0.99312 0.56609 0.95327 0.0
H383 H 0.98362 0.55766 0.00733 0.0
C384 C 0.04421 0.53923 0.04737 0.0
C385 C 0.07801 0.52776 0.06531 0.0
C386 C 0.04927 0.54421 0.01632 0.0
C387 C 0.11739 0.52222 0.05219 0.0
C388 C 0.12338 0.52834 0.02155 0.0
C389 C 0.09489 0.5446 0.97248 0.0
C390 C 0.0601 0.55385 0.9541 0.0
C391 C 0.08945 0.53913 0.00339 0.0
C392 C 0.01993 0.55817 0.96697 0.0
C393 C 0.0147 0.55372 0.99788 0.0
H394 H 0.449 0.09546 0.44819 0.0
H395 H 0.50721 0.99249 0.45249 0.0
H396 H 0.53155 1.00509 0.40075 0.0
H397 H 0.53366 0.04436 0.35369 0.0
H398 H 0.47941 0.14987 0.35124 0.0
H399 H 0.45614 0.13747 0.40295 0.0
C400 C 0.46718 0.07589 0.43779 0.0
C401 C 0.47586 0.04283 0.4538 0.0
C402 C 0.4815 0.0837 0.40839 0.0
C403 C 0.50011 0.01809 0.44043 0.0
C404 C 0.51382 0.02519 0.41087 0.0
C405 C 0.5165 0.06439 0.36451 0.0
C406 C 0.50747 0.09752 0.34864 0.0
C407 C 0.50415 0.05761 0.3945 0.0
C408 C 0.48646 0.12406 0.36305 0.0
C409 C 0.47313 0.11697 0.39256 0.0
H410 H 0.58494 0.62087 0.70567 0.0
H411 H 0.48796 0.50665 0.73455 0.0
H412 H 0.47152 0.48135 0.68273 0.0
H413 H 0.48443 0.49135 0.62921 0.0
H414 H 0.5774 0.60666 0.5991 0.0
H415 H 0.59496 0.6323 0.65118 0.0
C416 C 0.56036 0.59042 0.70053 0.0
C417 C 0.53842 0.56528 0.72394 0.0
C418 C 0.5499 0.57652 0.67044 0.0
C419 C 0.50599 0.52623 0.71698 0.0
C420 C 0.49631 0.51183 0.68733 0.0
C421 C 0.50842 0.52217 0.63406 0.0
C422 C 0.52935 0.5472 0.6104 0.0
C423 C 0.51806 0.53665 0.66391 0.0
C424 C 0.56015 0.58715 0.61692 0.0
C425 C 0.57054 0.60162 0.64671 0.0
H426 H 0.39989 0.03 0.61065 0.0
H427 H 0.50706 0.9777 0.64452 0.0
H428 H 0.46247 0.95296 0.68883 0.0
H429 H 0.39154 0.94392 0.71686 0.0
H430 H 0.28219 0.99219 0.68126 0.0
H431 H 0.32854 0.01995 0.63816 0.0
C432 C 0.41341 1.01307 0.62769 0.0
C433 C 0.45655 1.00549 0.62432 0.0
C434 C 0.38703 0.99802 0.65261 0.0
C435 C 0.47387 0.98384 0.64665 0.0
C436 C 0.44836 0.96963 0.67192 0.0
C437 C 0.37827 0.96112 0.69988 0.0
C438 C 0.334 0.96677 0.7024 0.0
C439 C 0.40476 0.9763 0.67501 0.0
C440 C 0.31633 0.98772 0.67978 0.0
C441 C 0.34283 1.00364 0.65523 0.0
H442 H 0.56995 0.47186 0.9054 0.0
H443 H 0.53075 0.58436 0.89253 0.0
H444 H 0.53236 0.59507 0.94699 0.0
H445 H 0.54095 0.57008 0.99827 0.0
H446 H 0.58465 0.45961 0.01093 0.0
H447 H 0.58543 0.45039 0.95658 0.0
C448 C 0.56221 0.4989 0.91461 0.0
C449 C 0.5502 0.52731 0.89517 0.0
C450 C 0.56374 0.50499 0.94585 0.0
C451 C 0.54057 0.5624 0.90717 0.0
C452 C 0.54114 0.5683 0.93827 0.0
C453 C 0.55081 0.5441 0.98909 0.0
C454 C 0.56223 0.5153 0.00854 0.0
C455 C 0.55205 0.53946 0.95782 0.0
C456 C 0.57569 0.48217 0.99641 0.0
C457 C 0.57602 0.47682 0.96534 0.0
H458 H 0.99325 0.57607 0.2408 0.0
H459 H 0.11949 0.53946 0.24321 0.0
H460 H 0.11252 0.52548 0.29689 0.0
H461 H 0.0706 0.52413 0.34323 0.0
H462 H 0.94071 0.55485 0.33976 0.0
H463 H 0.94887 0.57068 0.28644 0.0
C464 C 0.01919 0.56507 0.25317 0.0
C465 C 0.05707 0.5592 0.23832 0.0
C466 C 0.01427 0.5561 0.28378 0.0
C467 C 0.0901 0.54427 0.2543 0.0
C468 C 0.08616 0.53637 0.28496 0.0
C469 C 0.04422 0.53443 0.33076 0.0
C470 C 0.00537 0.53875 0.34539 0.0
C471 C 0.04848 0.54231 0.29996 0.0
C472 C 0.97094 0.55135 0.32893 0.0
C473 C 0.97562 0.56045 0.29849 0.0
loop_
_geom_bond_atom_site_label_1
_geom_bond_atom_site_label_2
_geom_bond_distance
_geom_bond_site_symmetry_2
_ccdc_geom_bond_type
Pr0 C2 2.880 . S
Pr0 O20 2.562 . S
Pr0 O21 2.490 . S
Pr0 O22 2.695 1_655 S
Pr0 O23 2.512 . S
Pr0 O25 2.437 . S
Pr0 O28 2.436 . S
Pr0 O30 2.438 1_655 S
Pr1 C11 2.880 . S
Pr1 O22 2.436 . S
Pr1 O24 2.438 1_455 S
Pr1 O26 2.562 . S
Pr1 O27 2.490 . S
Pr1 O28 2.695 1_455 S
Pr1 O29 2.512 . S
Pr1 O31 2.437 . S
C2 Pr0 2.880 . S
C2 C3 1.491 . S
C2 O20 1.254 . S
C2 O21 1.225 . S
C3 C2 1.491 . S
C3 C4 1.392 . S
C3 C8 1.356 . S
C4 C3 1.392 . S
C4 C5 1.368 . S
C4 H32 0.929 . S
C5 C4 1.368 . S
C5 C6 1.386 . S
C5 H33 0.929 . S
C6 C5 1.386 . S
C6 C7 1.373 . S
C7 C6 1.373 . S
C7 C8 1.409 . S
C7 H34 0.931 . S
C8 C3 1.356 . S
C8 C7 1.409 . S
C8 H35 0.930 . S
C9 O22 1.270 . S
C9 O23 1.248 1_455 S
C10 O24 1.267 . S
C10 O25 1.278 . S
C11 Pr1 2.880 . S
C11 C12 1.491 . S
C11 O26 1.254 . S
C11 O27 1.225 . S
C12 C11 1.491 . S
C12 C13 1.392 . S
C12 C17 1.356 . S
C13 C12 1.392 . S
C13 C14 1.368 . S
C13 H36 0.929 . S
C14 C13 1.368 . S
C14 C15 1.386 . S
C14 H37 0.929 . S
C15 C14 1.386 . S
C15 C16 1.373 . S
C16 C15 1.373 . S
C16 C17 1.409 . S
C16 H38 0.931 . S
C17 C12 1.356 . S
C17 C16 1.409 . S
C17 H39 0.930 . S
C18 O28 1.270 1_455 S
C18 O29 1.248 . S
C19 O30 1.267 . S
C19 O31 1.278 . S
O20 Pr0 2.562 . S
O20 C2 1.254 . S
O21 Pr0 2.490 . S
O21 C2 1.225 . S
O22 Pr0 2.695 1_455 S
O22 Pr1 2.436 . S
O22 C9 1.270 . S
O23 Pr0 2.512 . S
O23 C9 1.248 1_655 S
O24 Pr1 2.438 1_655 S
O24 C10 1.267 . S
O25 Pr0 2.437 . S
O25 C10 1.278 . S
O26 Pr1 2.562 . S
O26 C11 1.254 . S
O27 Pr1 2.490 . S
O27 C11 1.225 . S
O28 Pr0 2.436 . S
O28 Pr1 2.695 1_655 S
O28 C18 1.270 1_655 S
O29 Pr1 2.512 . S
O29 C18 1.248 . S
O30 Pr0 2.438 1_455 S
O30 C19 1.267 . S
O31 Pr1 2.437 . S
O31 C19 1.278 . S
H32 C4 0.929 . S
H33 C5 0.929 . S
H34 C7 0.931 . S
H35 C8 0.930 . S
H36 C13 0.929 . S
H37 C14 0.929 . S
H38 C16 0.931 . S
H39 C17 0.930 . S
Pr40 C42 2.880 . S
Pr40 O60 2.562 . S
Pr40 O61 2.490 . S
Pr40 O62 2.695 . S
Pr40 O63 2.512 . S
Pr40 O65 2.437 . S
Pr40 O68 2.436 . S
Pr40 O70 2.438 1_545 S
Pr41 C51 2.880 . S
Pr41 O62 2.436 1_565 S
Pr41 O64 2.438 1_565 S
Pr41 O66 2.562 . S
Pr41 O67 2.490 . S
Pr41 O68 2.695 1_565 S
Pr41 O69 2.512 . S
Pr41 O71 2.437 . S
C42 Pr40 2.880 . S
C42 C43 1.491 . S
C42 O60 1.254 . S
C42 O61 1.225 . S
C43 C42 1.491 . S
C43 C44 1.392 . S
C43 C48 1.356 . S
C44 C43 1.392 . S
C44 C45 1.368 . S
C44 H72 0.929 . S
C45 C44 1.368 . S
C45 C46 1.386 . S
C45 H73 0.929 . S
C46 C45 1.386 . S
C46 C47 1.373 . S
C47 C46 1.373 . S
C47 C48 1.409 . S
C47 H74 0.931 . S
C48 C43 1.356 . S
C48 C47 1.409 . S
C48 H75 0.930 . S
C49 O62 1.270 . S
C49 O63 1.248 . S
C50 O64 1.267 . S
C50 O65 1.278 . S
C51 Pr41 2.880 . S
C51 C52 1.491 . S
C51 O66 1.254 . S
C51 O67 1.225 . S
C52 C51 1.491 . S
C52 C53 1.392 . S
C52 C57 1.356 . S
C53 C52 1.392 . S
C53 C54 1.368 . S
C53 H76 0.929 . S
C54 C53 1.368 . S
C54 C55 1.386 . S
C54 H77 0.929 . S
C55 C54 1.386 . S
C55 C56 1.373 . S
C56 C55 1.373 . S
C56 C57 1.409 . S
C56 H78 0.931 . S
C57 C52 1.356 . S
C57 C56 1.409 . S
C57 H79 0.930 . S
C58 O68 1.270 . S
C58 O69 1.245 1_545 S
C59 O70 1.267 . S
C59 O71 1.278 . S
O60 Pr40 2.562 . S
O60 C42 1.254 . S
O61 Pr40 2.490 . S
O61 C42 1.225 . S
O62 Pr40 2.695 . S
O62 Pr41 2.436 1_545 S
O62 C49 1.270 . S
O63 Pr40 2.512 . S
O63 C49 1.248 . S
O64 Pr41 2.438 1_545 S
O64 C50 1.267 . S
O65 Pr40 2.437 . S
O65 C50 1.278 . S
O66 Pr41 2.562 . S
O66 C51 1.254 . S
O67 Pr41 2.490 . S
O67 C51 1.225 . S
O68 Pr40 2.436 . S
O68 Pr41 2.695 1_545 S
O68 C58 1.270 . S
O69 Pr41 2.512 . S
O69 C58 1.245 1_565 S
O70 Pr40 2.438 1_565 S
O70 C59 1.267 . S
O71 Pr41 2.437 . S
O71 C59 1.278 . S
H72 C44 0.929 . S
H73 C45 0.929 . S
H74 C47 0.931 . S
H75 C48 0.930 . S
H76 C53 0.929 . S
H77 C54 0.929 . S
H78 C56 0.931 . S
H79 C57 0.930 . S
Pr80 C82 2.880 . S
Pr80 O100 2.562 . S
Pr80 O101 2.490 . S
Pr80 O102 2.695 . S
Pr80 O103 2.512 . S
Pr80 O105 2.437 . S
Pr80 O108 2.436 . S
Pr80 O110 2.438 . S
Pr81 C91 2.880 . S
Pr81 O102 2.436 . S
Pr81 O104 2.438 . S
Pr81 O106 2.562 . S
Pr81 O107 2.490 . S
Pr81 O108 2.695 . S
Pr81 O109 2.512 . S
Pr81 O111 2.437 . S
C82 Pr80 2.880 . S
C82 C83 1.491 . S
C82 O100 1.254 . S
C82 O101 1.225 . S
C83 C82 1.491 . S
C83 C84 1.392 . S
C83 C88 1.356 . S
C84 C83 1.392 . S
C84 C85 1.368 . S
C84 H112 0.929 . S
C85 C84 1.368 . S
C85 C86 1.386 . S
C85 H113 0.929 . S
C86 C85 1.386 . S
C86 C87 1.373 . S
C87 C86 1.373 . S
C87 C88 1.409 . S
C87 H114 0.931 . S
C88 C83 1.356 . S
C88 C87 1.409 . S
C88 H115 0.930 . S
C89 O102 1.270 . S
C89 O103 1.248 . S
C90 O104 1.267 . S
C90 O105 1.278 . S
C91 Pr81 2.880 . S
C91 C92 1.491 . S
C91 O106 1.254 . S
C91 O107 1.225 . S
C92 C91 1.491 . S
C92 C93 1.392 . S
C92 C97 1.356 . S
C93 C92 1.392 . S
C93 C94 1.368 . S
C93 H116 0.929 . S
C94 C93 1.368 . S
C94 C95 1.386 . S
C94 H117 0.929 . S
C95 C94 1.386 . S
C95 C96 1.373 . S
C96 C95 1.373 . S
C96 C97 1.409 . S
C96 H118 0.931 . S
C97 C92 1.356 . S
C97 C96 1.409 . S
C97 H119 0.930 . S
C98 O108 1.270 . S
C98 O109 1.248 . S
C99 O110 1.267 . S
C99 O111 1.278 . S
O100 Pr80 2.562 . S
O100 C82 1.254 . S
O101 Pr80 2.490 . S
O101 C82 1.225 . S
O102 Pr80 2.695 . S
O102 Pr81 2.436 . S
O102 C89 1.270 . S
O103 Pr80 2.512 . S
O103 C89 1.248 . S
O104 Pr81 2.438 . S
O104 C90 1.267 . S
O105 Pr80 2.437 . S
O105 C90 1.278 . S
O106 Pr81 2.562 . S
O106 C91 1.254 . S
O107 Pr81 2.490 . S
O107 C91 1.225 . S
O108 Pr80 2.436 . S
O108 Pr81 2.695 . S
O108 C98 1.270 . S
O109 Pr81 2.512 . S
O109 C98 1.248 . S
O110 Pr80 2.438 . S
O110 C99 1.267 . S
O111 Pr81 2.437 . S
O111 C99 1.278 . S
H112 C84 0.929 . S
H113 C85 0.929 . S
H114 C87 0.931 . S
H115 C88 0.930 . S
H116 C93 0.929 . S
H117 C94 0.929 . S
H118 C96 0.931 . S
H119 C97 0.930 . S
O120 Cd121 2.300 . S
O120 C127 1.275 . S
Cd121 O120 2.300 . S
Cd121 O129 2.381 . S
Cd121 O130 2.378 . S
O122 Cd123 2.385 . S
O122 C127 1.255 1_565 S
Cd123 O122 2.385 . S
Cd123 O124 2.317 . S
O124 Cd123 2.317 . S
O124 C125 1.232 . S
C125 O124 1.232 . S
C125 O126 1.218 . S
O126 C125 1.218 . S
C127 O120 1.275 . S
C127 O122 1.255 1_545 S
C128 O129 1.258 . S
C128 O130 1.256 . S
O129 Cd121 2.381 . S
O129 C128 1.258 . S
O130 Cd121 2.378 . S
O130 C128 1.256 . S
O131 Cd132 2.300 . S
O131 C138 1.275 . S
Cd132 O131 2.300 . S
Cd132 O140 2.381 . S
Cd132 O141 2.378 . S
O133 Cd134 2.385 . S
O133 C138 1.255 . S
Cd134 O133 2.385 . S
Cd134 O135 2.317 . S
O135 Cd134 2.317 . S
O135 C136 1.232 . S
C136 O135 1.232 . S
C136 O137 1.218 . S
O137 C136 1.218 . S
C138 O131 1.275 . S
C138 O133 1.255 . S
C139 O140 1.258 . S
C139 O141 1.256 . S
O140 Cd132 2.381 . S
O140 C139 1.258 . S
O141 Cd132 2.378 . S
O141 C139 1.256 . S
O142 Cd143 2.300 . S
O142 C149 1.275 . S
Cd143 O142 2.300 . S
Cd143 O151 2.381 . S
Cd143 O152 2.378 . S
O144 Cd145 2.385 . S
O144 C149 1.255 1_655 S
Cd145 O144 2.385 . S
Cd145 O146 2.317 . S
O146 Cd145 2.317 . S
O146 C147 1.232 . S
C147 O146 1.232 . S
C147 O148 1.218 . S
O148 C147 1.218 . S
C149 O142 1.275 . S
C149 O144 1.255 1_455 S
C150 O151 1.258 . S
C150 O152 1.256 . S
O151 Cd143 2.381 . S
O151 C150 1.258 . S
O152 Cd143 2.378 . S
O152 C150 1.256 . S
O153 Cd154 2.300 . S
O153 C160 1.275 1_455 S
Cd154 O153 2.300 . S
Cd154 O162 2.381 . S
Cd154 O163 2.378 . S
O155 Cd156 2.385 . S
O155 C160 1.255 . S
Cd156 O155 2.385 . S
Cd156 O157 2.317 . S
O157 Cd156 2.317 . S
O157 C158 1.232 . S
C158 O157 1.232 . S
C158 O159 1.218 . S
O159 C158 1.218 . S
C160 O153 1.275 1_655 S
C160 O155 1.255 . S
C161 O162 1.258 . S
C161 O163 1.256 . S
O162 Cd154 2.381 . S
O162 C161 1.258 . S
O163 Cd154 2.378 . S
O163 C161 1.256 . S
O164 Cd165 2.300 . S
O164 C171 1.275 1_565 S
Cd165 O164 2.300 . S
Cd165 O173 2.381 . S
Cd165 O174 2.378 . S
O166 Cd167 2.385 . S
O166 C171 1.255 . S
Cd167 O166 2.385 . S
Cd167 O168 2.317 . S
O168 Cd167 2.317 . S
O168 C169 1.232 . S
C169 O168 1.232 . S
C169 O170 1.218 . S
O170 C169 1.218 . S
C171 O164 1.275 1_545 S
C171 O166 1.255 . S
C172 O173 1.258 . S
C172 O174 1.256 . S
O173 Cd165 2.381 . S
O173 C172 1.258 . S
O174 Cd165 2.378 . S
O174 C172 1.256 . S
O175 Cd176 2.300 . S
O175 C182 1.275 . S
Cd176 O175 2.300 . S
Cd176 O184 2.381 . S
Cd176 O185 2.378 . S
O177 Cd178 2.385 . S
O177 C182 1.255 . S
Cd178 O177 2.385 . S
Cd178 O179 2.317 . S
O179 Cd178 2.317 . S
O179 C180 1.232 . S
C180 O179 1.232 . S
C180 O181 1.218 . S
O181 C180 1.218 . S
C182 O175 1.275 . S
C182 O177 1.255 . S
C183 O184 1.258 . S
C183 O185 1.256 . S
O184 Cd176 2.381 . S
O184 C183 1.258 . S
O185 Cd176 2.378 . S
O185 C183 1.256 . S
H186 C192 0.930 . S
H187 C195 0.930 . S
H188 C196 0.930 . S
H189 C197 0.930 . S
H190 C200 0.930 . S
H191 C201 0.930 . S
C192 H186 0.930 . S
C192 C193 1.355 . S
C192 C194 1.415 . S
C193 C192 1.355 . S
C193 C195 1.419 . S
C194 C192 1.415 . S
C194 C199 1.425 . S
C194 C201 1.409 . S
C195 H187 0.930 . S
C195 C193 1.419 . S
C195 C196 1.362 . S
C196 H188 0.930 . S
C196 C195 1.362 . S
C196 C199 1.409 . S
C197 H189 0.930 . S
C197 C198 1.355 . S
C197 C199 1.415 . S
C198 C197 1.355 . S
C198 C200 1.419 . S
C199 C194 1.425 . S
C199 C196 1.409 . S
C199 C197 1.415 . S
C200 H190 0.930 . S
C200 C198 1.419 . S
C200 C201 1.362 . S
C201 H191 0.930 . S
C201 C194 1.409 . S
C201 C200 1.362 . S
H202 C208 0.930 . S
H203 C211 0.930 . S
H204 C212 0.930 . S
H205 C213 0.930 . S
H206 C216 0.930 . S
H207 C217 0.930 . S
C208 H202 0.930 . S
C208 C209 1.355 . S
C208 C210 1.415 . S
C209 C208 1.355 . S
C209 C211 1.419 . S
C210 C208 1.415 . S
C210 C215 1.425 . S
C210 C217 1.409 . S
C211 H203 0.930 . S
C211 C209 1.419 . S
C211 C212 1.362 . S
C212 H204 0.930 . S
C212 C211 1.362 . S
C212 C215 1.409 . S
C213 H205 0.930 . S
C213 C214 1.355 . S
C213 C215 1.415 . S
C214 C213 1.355 . S
C214 C216 1.419 . S
C215 C210 1.425 . S
C215 C212 1.409 . S
C215 C213 1.415 . S
C216 H206 0.930 . S
C216 C214 1.419 . S
C216 C217 1.362 . S
C217 H207 0.930 . S
C217 C210 1.409 . S
C217 C216 1.362 . S
H218 C224 0.930 . S
H219 C227 0.930 . S
H220 C228 0.930 . S
H221 C229 0.930 . S
H222 C232 0.930 . S
H223 C233 0.930 . S
C224 H218 0.930 . S
C224 C225 1.355 . S
C224 C226 1.415 . S
C225 C224 1.355 . S
C225 C227 1.419 . S
C226 C224 1.415 . S
C226 C231 1.425 . S
C226 C233 1.409 . S
C227 H219 0.930 . S
C227 C225 1.419 . S
C227 C228 1.362 . S
C228 H220 0.930 . S
C228 C227 1.362 . S
C228 C231 1.409 . S
C229 H221 0.930 . S
C229 C230 1.355 . S
C229 C231 1.415 . S
C230 C229 1.355 . S
C230 C232 1.419 . S
C231 C226 1.425 . S
C231 C228 1.409 . S
C231 C229 1.415 . S
C232 H222 0.930 . S
C232 C230 1.419 . S
C232 C233 1.362 . S
C233 H223 0.930 . S
C233 C226 1.409 . S
C233 C232 1.362 . S
H234 C240 0.930 . S
H235 C243 0.930 . S
H236 C244 0.930 . S
H237 C245 0.930 . S
H238 C248 0.930 . S
H239 C249 0.930 . S
C240 H234 0.930 . S
C240 C241 1.355 . S
C240 C242 1.415 . S
C241 C240 1.355 . S
C241 C243 1.419 . S
C242 C240 1.415 . S
C242 C247 1.425 . S
C242 C249 1.409 . S
C243 H235 0.930 . S
C243 C241 1.419 . S
C243 C244 1.362 . S
C244 H236 0.930 . S
C244 C243 1.362 . S
C244 C247 1.409 . S
C245 H237 0.930 . S
C245 C246 1.355 . S
C245 C247 1.415 . S
C246 C245 1.355 . S
C246 C248 1.419 . S
C247 C242 1.425 . S
C247 C244 1.409 . S
C247 C245 1.415 . S
C248 H238 0.930 . S
C248 C246 1.419 . S
C248 C249 1.362 . S
C249 H239 0.930 . S
C249 C242 1.409 . S
C249 C248 1.362 . S
H250 C256 0.930 . S
H251 C259 0.930 . S
H252 C260 0.930 . S
H253 C261 0.930 . S
H254 C264 0.930 . S
H255 C265 0.930 . S
C256 H250 0.930 . S
C256 C257 1.355 . S
C256 C258 1.415 . S
C257 C256 1.355 . S
C257 C259 1.419 . S
C258 C256 1.415 . S
C258 C263 1.425 . S
C258 C265 1.409 . S
C259 H251 0.930 . S
C259 C257 1.419 . S
C259 C260 1.362 . S
C260 H252 0.930 . S
C260 C259 1.362 . S
C260 C263 1.409 . S
C261 H253 0.930 . S
C261 C262 1.355 . S
C261 C263 1.415 . S
C262 C261 1.355 . S
C262 C264 1.419 . S
C263 C258 1.425 . S
C263 C260 1.409 . S
C263 C261 1.415 . S
C264 H254 0.930 . S
C264 C262 1.419 . S
C264 C265 1.362 . S
C265 H255 0.930 . S
C265 C258 1.409 . S
C265 C264 1.362 . S
H266 C272 0.930 . S
H267 C275 0.930 . S
H268 C276 0.930 . S
H269 C277 0.930 . S
H270 C280 0.930 . S
H271 C281 0.930 . S
C272 H266 0.930 . S
C272 C273 1.355 . S
C272 C274 1.415 . S
C273 C272 1.355 . S
C273 C275 1.419 . S
C274 C272 1.415 . S
C274 C279 1.425 . S
C274 C281 1.409 . S
C275 H267 0.930 . S
C275 C273 1.419 . S
C275 C276 1.362 . S
C276 H268 0.930 . S
C276 C275 1.362 . S
C276 C279 1.409 . S
C277 H269 0.930 . S
C277 C278 1.355 . S
C277 C279 1.415 . S
C278 C277 1.355 . S
C278 C280 1.419 . S
C279 C274 1.425 . S
C279 C276 1.409 . S
C279 C277 1.415 . S
C280 H270 0.930 . S
C280 C278 1.419 . S
C280 C281 1.362 . S
C281 H271 0.930 . S
C281 C274 1.409 . S
C281 C280 1.362 . S
H282 C288 0.930 . S
H283 C291 0.930 . S
H284 C292 0.930 . S
H285 C293 0.930 . S
H286 C296 0.930 . S
H287 C297 0.930 . S
C288 H282 0.930 . S
C288 C289 1.355 . S
C288 C290 1.415 . S
C289 C288 1.355 . S
C289 C291 1.419 . S
C290 C288 1.415 . S
C290 C295 1.425 . S
C290 C297 1.409 . S
C291 H283 0.930 . S
C291 C289 1.419 . S
C291 C292 1.362 . S
C292 H284 0.930 . S
C292 C291 1.362 . S
C292 C295 1.409 . S
C293 H285 0.930 . S
C293 C294 1.355 . S
C293 C295 1.415 . S
C294 C293 1.355 . S
C294 C296 1.419 . S
C295 C290 1.425 . S
C295 C292 1.409 . S
C295 C293 1.415 . S
C296 H286 0.930 . S
C296 C294 1.419 . S
C296 C297 1.362 . S
C297 H287 0.930 . S
C297 C290 1.409 . S
C297 C296 1.362 . S
H298 C304 0.930 . S
H299 C307 0.930 . S
H300 C308 0.930 . S
H301 C309 0.930 . S
H302 C312 0.930 . S
H303 C313 0.930 . S
C304 H298 0.930 . S
C304 C305 1.355 . S
C304 C306 1.415 . S
C305 C304 1.355 . S
C305 C307 1.419 . S
C306 C304 1.415 . S
C306 C311 1.425 . S
C306 C313 1.409 . S
C307 H299 0.930 . S
C307 C305 1.419 . S
C307 C308 1.362 . S
C308 H300 0.930 . S
C308 C307 1.362 . S
C308 C311 1.409 . S
C309 H301 0.930 . S
C309 C310 1.355 . S
C309 C311 1.415 . S
C310 C309 1.355 . S
C310 C312 1.419 . S
C311 C306 1.425 . S
C311 C308 1.409 . S
C311 C309 1.415 . S
C312 H302 0.930 . S
C312 C310 1.419 . S
C312 C313 1.362 . S
C313 H303 0.930 . S
C313 C306 1.409 . S
C313 C312 1.362 . S
H314 C320 0.930 . S
H315 C323 0.930 . S
H316 C324 0.930 . S
H317 C325 0.930 . S
H318 C328 0.930 . S
H319 C329 0.930 . S
C320 H314 0.930 . S
C320 C321 1.355 . S
C320 C322 1.415 . S
C321 C320 1.355 . S
C321 C323 1.419 . S
C322 C320 1.415 . S
C322 C327 1.425 . S
C322 C329 1.409 . S
C323 H315 0.930 . S
C323 C321 1.419 . S
C323 C324 1.362 . S
C324 H316 0.930 . S
C324 C323 1.362 . S
C324 C327 1.409 . S
C325 H317 0.930 . S
C325 C326 1.355 . S
C325 C327 1.415 . S
C326 C325 1.355 . S
C326 C328 1.419 . S
C327 C322 1.425 . S
C327 C324 1.409 . S
C327 C325 1.415 . S
C328 H318 0.930 . S
C328 C326 1.419 . S
C328 C329 1.362 . S
C329 H319 0.930 . S
C329 C322 1.409 . S
C329 C328 1.362 . S
H330 C336 0.930 . S
H331 C339 0.930 . S
H332 C340 0.930 . S
H333 C341 0.930 . S
H334 C344 0.930 . S
H335 C345 0.930 . S
C336 H330 0.930 . S
C336 C337 1.355 . S
C336 C338 1.415 . S
C337 C336 1.355 . S
C337 C339 1.419 . S
C338 C336 1.415 . S
C338 C343 1.425 . S
C338 C345 1.409 . S
C339 H331 0.930 . S
C339 C337 1.419 . S
C339 C340 1.362 . S
C340 H332 0.930 . S
C340 C339 1.362 . S
C340 C343 1.409 . S
C341 H333 0.930 . S
C341 C342 1.355 . S
C341 C343 1.415 . S
C342 C341 1.355 . S
C342 C344 1.419 . S
C343 C338 1.425 . S
C343 C340 1.409 . S
C343 C341 1.415 . S
C344 H334 0.930 . S
C344 C342 1.419 . S
C344 C345 1.362 . S
C345 H335 0.930 . S
C345 C338 1.409 . S
C345 C344 1.362 . S
H346 C352 0.930 . S
H347 C355 0.930 . S
H348 C356 0.930 . S
H349 C357 0.930 . S
H350 C360 0.930 . S
H351 C361 0.930 . S
C352 H346 0.930 . S
C352 C353 1.355 . S
C352 C354 1.415 . S
C353 C352 1.355 . S
C353 C355 1.419 . S
C354 C352 1.415 . S
C354 C359 1.425 . S
C354 C361 1.409 . S
C355 H347 0.930 . S
C355 C353 1.419 . S
C355 C356 1.362 . S
C356 H348 0.930 . S
C356 C355 1.362 . S
C356 C359 1.409 . S
C357 H349 0.930 . S
C357 C358 1.355 . S
C357 C359 1.415 . S
C358 C357 1.355 . S
C358 C360 1.419 . S
C359 C354 1.425 . S
C359 C356 1.409 . S
C359 C357 1.415 . S
C360 H350 0.930 . S
C360 C358 1.419 . S
C360 C361 1.362 . S
C361 H351 0.930 . S
C361 C354 1.409 . S
C361 C360 1.362 . S
H362 C368 0.930 . S
H363 C371 0.930 . S
H364 C372 0.930 . S
H365 C373 0.930 . S
H366 C376 0.930 . S
H367 C377 0.930 . S
C368 H362 0.930 . S
C368 C369 1.355 . S
C368 C370 1.415 . S
C369 C368 1.355 . S
C369 C371 1.419 . S
C370 C368 1.415 . S
C370 C375 1.425 . S
C370 C377 1.409 . S
C371 H363 0.930 . S
C371 C369 1.419 . S
C371 C372 1.362 . S
C372 H364 0.930 . S
C372 C371 1.362 . S
C372 C375 1.409 . S
C373 H365 0.930 . S
C373 C374 1.355 . S
C373 C375 1.415 . S
C374 C373 1.355 . S
C374 C376 1.419 . S
C375 C370 1.425 . S
C375 C372 1.409 . S
C375 C373 1.415 . S
C376 H366 0.930 . S
C376 C374 1.419 . S
C376 C377 1.362 . S
C377 H367 0.930 . S
C377 C370 1.409 . S
C377 C376 1.362 . S
H378 C384 0.930 . S
H379 C387 0.930 . S
H380 C388 0.930 . S
H381 C389 0.930 . S
H382 C392 0.930 . S
H383 C393 0.930 1_554 S
C384 H378 0.930 . S
C384 C385 1.355 1_655 S
C384 C386 1.415 . S
C385 C384 1.355 1_455 S
C385 C387 1.419 . S
C386 C384 1.415 . S
C386 C391 1.425 1_655 S
C386 C393 1.409 1_554 S
C387 H379 0.930 . S
C387 C385 1.419 . S
C387 C388 1.362 . S
C388 H380 0.930 . S
C388 C387 1.362 . S
C388 C391 1.409 . S
C389 H381 0.930 . S
C389 C390 1.355 . S
C389 C391 1.415 1_556 S
C390 C389 1.355 . S
C390 C392 1.419 1_455 S
C391 C386 1.425 1_455 S
C391 C388 1.409 . S
C391 C389 1.415 1_554 S
C392 H382 0.930 . S
C392 C390 1.419 1_655 S
C392 C393 1.362 . S
C393 H383 0.930 1_556 S
C393 C386 1.409 1_556 S
C393 C392 1.362 . S
H394 C400 0.930 . S
H395 C403 0.942 . S
H396 C404 0.930 . S
H397 C405 0.930 1_565 S
H398 C408 0.930 . S
H399 C409 0.930 . S
C400 H394 0.930 . S
C400 C401 1.355 . S
C400 C402 1.415 . S
C401 C400 1.355 . S
C401 C403 1.405 1_545 S
C402 C400 1.415 . S
C402 C407 1.425 . S
C402 C409 1.409 . S
C403 H395 0.942 . S
C403 C401 1.405 1_565 S
C403 C404 1.365 . S
C404 H396 0.930 . S
C404 C403 1.365 . S
C404 C407 1.409 1_565 S
C405 H397 0.930 1_545 S
C405 C406 1.355 . S
C405 C407 1.415 . S
C406 C405 1.355 . S
C406 C408 1.419 . S
C407 C402 1.425 . S
C407 C404 1.409 1_545 S
C407 C405 1.415 . S
C408 H398 0.930 . S
C408 C406 1.419 . S
C408 C409 1.362 . S
C409 H399 0.930 . S
C409 C402 1.409 . S
C409 C408 1.362 . S
H410 C416 0.930 . S
H411 C419 0.930 . S
H412 C420 0.930 . S
H413 C421 0.930 . S
H414 C424 0.930 . S
H415 C425 0.930 . S
C416 H410 0.930 . S
C416 C417 1.355 . S
C416 C418 1.415 . S
C417 C416 1.355 . S
C417 C419 1.419 . S
C418 C416 1.415 . S
C418 C423 1.425 . S
C418 C425 1.409 . S
C419 H411 0.930 . S
C419 C417 1.419 . S
C419 C420 1.362 . S
C420 H412 0.930 . S
C420 C419 1.362 . S
C420 C423 1.409 . S
C421 H413 0.930 . S
C421 C422 1.355 . S
C421 C423 1.415 . S
C422 C421 1.355 . S
C422 C424 1.419 . S
C423 C418 1.425 . S
C423 C420 1.409 . S
C423 C421 1.415 . S
C424 H414 0.930 . S
C424 C422 1.419 . S
C424 C425 1.362 . S
C425 H415 0.930 . S
C425 C418 1.409 . S
C425 C424 1.362 . S
H426 C432 0.930 . S
H427 C435 0.930 . S
H428 C436 0.930 . S
H429 C437 0.930 . S
H430 C440 0.930 . S
H431 C441 0.930 . S
C432 H426 0.930 . S
C432 C433 1.355 . S
C432 C434 1.415 . S
C433 C432 1.355 . S
C433 C435 1.419 1_545 S
C434 C432 1.415 . S
C434 C439 1.425 1_545 S
C434 C441 1.409 . S
C435 H427 0.930 . S
C435 C433 1.419 1_565 S
C435 C436 1.362 . S
C436 H428 0.930 . S
C436 C435 1.362 . S
C436 C439 1.409 . S
C437 H429 0.930 . S
C437 C438 1.355 1_565 S
C437 C439 1.415 . S
C438 C437 1.355 1_545 S
C438 C440 1.419 . S
C439 C434 1.425 1_565 S
C439 C436 1.409 . S
C439 C437 1.415 . S
C440 H430 0.930 . S
C440 C438 1.419 . S
C440 C441 1.362 . S
C441 H431 0.930 . S
C441 C434 1.409 . S
C441 C440 1.362 . S
H442 C448 0.930 . S
H443 C451 0.930 . S
H444 C452 0.930 . S
H445 C453 0.930 . S
H446 C456 0.930 . S
H447 C457 0.930 . S
C448 H442 0.930 . S
C448 C449 1.355 . S
C448 C450 1.415 . S
C449 C448 1.355 . S
C449 C451 1.419 . S
C450 C448 1.415 . S
C450 C455 1.425 . S
C450 C457 1.409 1_556 S
C451 H443 0.930 . S
C451 C449 1.419 . S
C451 C452 1.362 . S
C452 H444 0.930 . S
C452 C451 1.362 . S
C452 C455 1.409 . S
C453 H445 0.930 . S
C453 C454 1.355 . S
C453 C455 1.415 1_554 S
C454 C453 1.355 . S
C454 C456 1.419 . S
C455 C450 1.425 . S
C455 C452 1.409 . S
C455 C453 1.415 1_556 S
C456 H446 0.930 . S
C456 C454 1.419 . S
C456 C457 1.362 . S
C457 H447 0.930 . S
C457 C450 1.409 1_554 S
C457 C456 1.362 . S
H458 C464 0.930 . S
H459 C467 0.930 . S
H460 C468 0.930 . S
H461 C469 0.930 . S
H462 C472 0.930 . S
H463 C473 0.930 . S
C464 H458 0.930 . S
C464 C465 1.355 . S
C464 C466 1.415 . S
C465 C464 1.355 . S
C465 C467 1.419 1_455 S
C466 C464 1.415 . S
C466 C471 1.425 1_455 S
C466 C473 1.409 . S
C467 H459 0.930 . S
C467 C465 1.419 1_655 S
C467 C468 1.362 . S
C468 H460 0.930 . S
C468 C467 1.362 . S
C468 C471 1.409 . S
C469 H461 0.930 . S
C469 C470 1.355 . S
C469 C471 1.415 . S
C470 C469 1.355 . S
C470 C472 1.419 1_655 S
C471 C466 1.425 1_655 S
C471 C468 1.409 . S
C471 C469 1.415 . S
C472 H462 0.930 . S
C472 C470 1.419 1_455 S
C472 C473 1.362 . S
C473 H463 0.930 . S
C473 C466 1.409 . S
C473 C472 1.362 . S
C193 C19 2.031 . S
C198 C180 1.780 . S
C209 C46 1.348 . S
C214 C158 1.254 . S
C225 C95 0.386 . S
C230 C172 0.268 . S
C241 C10 1.878 . S
C246 C183 1.855 . S
C262 C161 1.131 . S
C257 C55 1.132 . S
C278 C169 0.810 . S
C273 C86 0.827 . S
C289 C59 3.260 . S
C294 C136 2.940 . S
C305 C90 2.076 . S
C310 C147 1.744 . S
C321 C15 1.381 . S
C326 C125 1.164 . S
C342 C139 2.872 . S
C337 C50 2.926 . S
C358 C150 1.804 . S
C353 C99 1.813 . S
C369 C6 1.053 . S
C374 C128 1.041 . S
C390 C149 1.425 . S
C385 C9 1.376 . S
C401 C58 1.472 . S
C406 C127 1.473 . S
C417 C98 1.645 . S
C422 C138 1.635 . S
C438 C171 1.190 . S
C433 C49 1.220 . S
C454 C182 1.337 . S
C449 C89 1.392 . S
C465 C18 1.519 . S
C470 C160 1.405 . S
