# Generated by pormake.
# Topology pyr, (3,6)-cn, num edge types: 1
# Building blocks:
#     Node 0, Type 0, BuildingBlock: OLANEW_clean_sbu_2, # of connection points: 3
#     Node 1, Type 0, BuildingBlock: OLANEW_clean_sbu_2, # of connection points: 3
#     Node 2, Type 0, BuildingBlock: OLANEW_clean_sbu_2, # of connection points: 3
#     Node 3, Type 0, BuildingBlock: OLANEW_clean_sbu_2, # of connection points: 3
#     Node 4, Type 0, BuildingBlock: OLANEW_clean_sbu_2, # of connection points: 3
#     Node 5, Type 0, BuildingBlock: OLANEW_clean_sbu_2, # of connection points: 3
#     Node 6, Type 0, BuildingBlock: OLANEW_clean_sbu_2, # of connection points: 3
#     Node 7, Type 0, BuildingBlock: OLANEW_clean_sbu_2, # of connection points: 3
#     Node 8, Type 1, BuildingBlock: BETDIP_clean_sbu_0, # of connection points: 6
#     Node 9, Type 1, BuildingBlock: BETDIP_clean_sbu_0, # of connection points: 6
#     Node 10, Type 1, BuildingBlock: BETDIP_clean_sbu_0, # of connection points: 6
#     Node 11, Type 1, BuildingBlock: BETDIP_clean_sbu_0, # of connection points: 6
#     Edge 12, Type (0, 1), BuildingBlock: TEMPAE_clean_linker_10, # of connection points: 2
#     Edge 13, Type (0, 1), BuildingBlock: TEMPAE_clean_linker_10, # of connection points: 2
#     Edge 14, Type (0, 1), BuildingBlock: TEMPAE_clean_linker_10, # of connection points: 2
#     Edge 15, Type (0, 1), BuildingBlock: TEMPAE_clean_linker_10, # of connection points: 2
#     Edge 16, Type (0, 1), BuildingBlock: TEMPAE_clean_linker_10, # of connection points: 2
#     Edge 17, Type (0, 1), BuildingBlock: TEMPAE_clean_linker_10, # of connection points: 2
#     Edge 18, Type (0, 1), BuildingBlock: TEMPAE_clean_linker_10, # of connection points: 2
#     Edge 19, Type (0, 1), BuildingBlock: TEMPAE_clean_linker_10, # of connection points: 2
#     Edge 20, Type (0, 1), BuildingBlock: TEMPAE_clean_linker_10, # of connection points: 2
#     Edge 21, Type (0, 1), BuildingBlock: TEMPAE_clean_linker_10, # of connection points: 2
#     Edge 22, Type (0, 1), BuildingBlock: TEMPAE_clean_linker_10, # of connection points: 2
#     Edge 23, Type (0, 1), BuildingBlock: TEMPAE_clean_linker_10, # of connection points: 2
#     Edge 24, Type (0, 1), BuildingBlock: TEMPAE_clean_linker_10, # of connection points: 2
#     Edge 25, Type (0, 1), BuildingBlock: TEMPAE_clean_linker_10, # of connection points: 2
#     Edge 26, Type (0, 1), BuildingBlock: TEMPAE_clean_linker_10, # of connection points: 2
#     Edge 27, Type (0, 1), BuildingBlock: TEMPAE_clean_linker_10, # of connection points: 2
#     Edge 28, Type (0, 1), BuildingBlock: TEMPAE_clean_linker_10, # of connection points: 2
#     Edge 29, Type (0, 1), BuildingBlock: TEMPAE_clean_linker_10, # of connection points: 2
#     Edge 30, Type (0, 1), BuildingBlock: TEMPAE_clean_linker_10, # of connection points: 2
#     Edge 31, Type (0, 1), BuildingBlock: TEMPAE_clean_linker_10, # of connection points: 2
#     Edge 32, Type (0, 1), BuildingBlock: TEMPAE_clean_linker_10, # of connection points: 2
#     Edge 33, Type (0, 1), BuildingBlock: TEMPAE_clean_linker_10, # of connection points: 2
#     Edge 34, Type (0, 1), BuildingBlock: TEMPAE_clean_linker_10, # of connection points: 2
#     Edge 35, Type (0, 1), BuildingBlock: TEMPAE_clean_linker_10, # of connection points: 2
# Relax obj value: 0.159
# Max RMSD: 0.234
# Mean RMSD: 0.144
data_MOF--net-pyr--node1-OLANEW_clean_sbu_2--node2-BETDIP_clean_sbu_0--edge1-TEMPAE_clean_linker_10
_symmetry_space_group_name_H-M    P1
_symmetry_Int_Tables_number       1
_symmetry_cell_setting            triclinic
loop_
_symmetry_equiv_pos_as_xyz
'x, y, z'
_cell_length_a     38.035921
_cell_length_b     44.486304
_cell_length_c     43.028727
_cell_angle_alpha  92.044452
_cell_angle_beta   92.862465
_cell_angle_gamma 107.56738
loop_
_atom_site_label
_atom_site_type_symbol
_atom_site_fract_x
_atom_site_fract_y
_atom_site_fract_z
_atom_type_partial_charge
O0 O 0.3951 0.27045 0.15606 0.0
Cd1 Cd 0.38748 0.32226 0.16699 0.0
O2 O 0.35005 0.24641 0.18447 0.0
Cd3 Cd 0.31038 0.2084 0.2064 0.0
O4 O 0.27255 0.18712 0.24128 0.0
C5 C 0.28248 0.19814 0.26905 0.0
O6 O 0.31432 0.22029 0.27448 0.0
C7 C 0.37573 0.24513 0.16715 0.0
C8 C 0.32001 0.32959 0.14647 0.0
O9 O 0.34462 0.32916 0.12734 0.0
O10 O 0.32672 0.32569 0.17528 0.0
O11 O 0.17707 0.73565 0.78032 0.0
Cd12 Cd 0.14574 0.69744 0.73843 0.0
O13 O 0.16366 0.77612 0.76026 0.0
Cd14 Cd 0.12282 0.7537 0.7227 0.0
O15 O 0.09163 0.78041 0.69807 0.0
C16 C 0.09458 0.80682 0.71205 0.0
O17 O 0.11372 0.81396 0.73902 0.0
C18 C 0.18056 0.76498 0.78087 0.0
C19 C 0.19996 0.67715 0.71071 0.0
O20 O 0.19073 0.70072 0.70082 0.0
O21 O 0.18277 0.66254 0.73324 0.0
O22 O 0.71529 0.39706 0.83494 0.0
Cd23 Cd 0.65578 0.38259 0.80151 0.0
O24 O 0.70801 0.35527 0.86357 0.0
Cd25 Cd 0.67389 0.30708 0.876 0.0
O26 O 0.64218 0.26021 0.89325 0.0
C27 C 0.63373 0.25855 0.92159 0.0
O28 O 0.6437 0.28467 0.93946 0.0
C29 C 0.72735 0.38275 0.85637 0.0
C30 C 0.64417 0.41556 0.74804 0.0
O31 O 0.64793 0.42847 0.77561 0.0
O32 O 0.64757 0.38781 0.74526 0.0
O33 O 0.93534 0.77498 0.32855 0.0
Cd34 Cd 0.92349 0.7205 0.29926 0.0
O35 O 0.89041 0.75654 0.36009 0.0
Cd36 Cd 0.86021 0.70767 0.3462 0.0
O37 O 0.81718 0.67706 0.37294 0.0
C38 C 0.78292 0.67206 0.36604 0.0
O39 O 0.77262 0.68323 0.34045 0.0
C40 C 0.91728 0.77916 0.35198 0.0
C41 C 0.93704 0.69289 0.24081 0.0
O42 O 0.96349 0.7058 0.26137 0.0
O43 O 0.90504 0.69508 0.24645 0.0
O44 O 0.69727 0.76437 0.81435 0.0
Cd45 Cd 0.66092 0.73291 0.85321 0.0
O46 O 0.69812 0.80254 0.8475 0.0
Cd47 Cd 0.70692 0.84821 0.87138 0.0
O48 O 0.6789 0.87186 0.90194 0.0
C49 C 0.64865 0.87517 0.89124 0.0
O50 O 0.63726 0.86619 0.86209 0.0
C51 C 0.70853 0.79364 0.82212 0.0
C52 C 0.71132 0.71553 0.89165 0.0
O53 O 0.6938 0.69771 0.86826 0.0
O54 O 0.70379 0.74124 0.89774 0.0
O55 O 0.86983 0.26158 0.33774 0.0
Cd56 Cd 0.90839 0.27975 0.38557 0.0
O57 O 0.84498 0.30036 0.33911 0.0
Cd58 Cd 0.87574 0.33039 0.37838 0.0
O59 O 0.84826 0.36275 0.39743 0.0
C60 C 0.82427 0.36758 0.37821 0.0
O61 O 0.82076 0.355 0.34969 0.0
C62 C 0.8468 0.27462 0.32671 0.0
C63 C 0.92451 0.22808 0.41021 0.0
O64 O 0.89284 0.23211 0.41282 0.0
O65 O 0.94905 0.2487 0.39645 0.0
O66 O 0.43627 0.77971 0.24557 0.0
Cd67 Cd 0.42598 0.72368 0.26467 0.0
O68 O 0.38523 0.77231 0.21474 0.0
Cd69 Cd 0.35295 0.72251 0.21652 0.0
O70 O 0.30718 0.68532 0.19171 0.0
C71 C 0.28274 0.69462 0.17712 0.0
O72 O 0.28584 0.72487 0.1789 0.0
C73 C 0.41615 0.79021 0.22656 0.0
C74 C 0.43969 0.69565 0.3218 0.0
O75 O 0.46648 0.71213 0.30667 0.0
O76 O 0.40694 0.69431 0.31161 0.0
O77 O 0.17465 0.39576 0.78797 0.0
Cd78 Cd 0.20611 0.371 0.74953 0.0
O79 O 0.12608 0.35412 0.7941 0.0
Cd80 Cd 0.13066 0.31717 0.7588 0.0
O81 O 0.1183 0.27446 0.72546 0.0
C82 C 0.11093 0.24643 0.73486 0.0
O83 O 0.11164 0.24268 0.76502 0.0
C84 C 0.14502 0.38281 0.80149 0.0
C85 C 0.2578 0.40645 0.7089 0.0
O86 O 0.224 0.39267 0.6996 0.0
O87 O 0.26706 0.405 0.73774 0.0
Tb88 Tb 0.96134 0.99722 0.56037 0.0
Tb89 Tb 0.0362 0.01853 0.54344 0.0
C90 C 0.89854 0.96528 0.57541 0.0
C91 C 0.88353 0.95 0.60366 0.0
C92 C 0.85547 0.9211 0.60062 0.0
C93 C 0.83941 0.90685 0.62694 0.0
C94 C 0.85088 0.92144 0.65684 0.0
C95 C 0.87987 0.95004 0.65992 0.0
C96 C 0.89619 0.96416 0.63353 0.0
C97 C 1.00069 0.05094 0.59059 0.0
C98 C 0.02145 0.97194 0.59529 0.0
C99 C 0.09874 0.05159 0.52939 0.0
C100 C 0.11258 0.06789 0.50138 0.0
C101 C 0.13392 0.09974 0.50419 0.0
C102 C 0.14782 0.11546 0.47785 0.0
C103 C 0.14078 0.09936 0.44847 0.0
C104 C 0.11864 0.06773 0.44555 0.0
C105 C 0.10439 0.05214 0.47178 0.0
C106 C 0.99779 0.965 0.51259 0.0
C107 C 0.97557 0.04404 0.50915 0.0
O108 O 0.92077 0.95303 0.56091 0.0
O109 O 0.9104 0.99608 0.57729 0.0
O110 O 0.01163 0.02736 0.58471 0.0
O111 O 0.96623 0.04381 0.58145 0.0
O112 O 0.98623 0.9673 0.58738 0.0
O113 O 0.04727 0.9952 0.58425 0.0
O114 O 0.0763 0.06298 0.54458 0.0
O115 O 0.08757 0.02076 0.52679 0.0
O116 O 0.98612 0.98837 0.51835 0.0
O117 O 0.03172 0.972 0.52336 0.0
O118 O 0.01089 0.0483 0.51636 0.0
O119 O 0.94969 0.02095 0.52024 0.0
H120 H 0.84568 0.90968 0.57781 0.0
H121 H 0.81785 0.8844 0.62382 0.0
H122 H 0.88929 0.96192 0.68258 0.0
H123 H 0.91818 0.98637 0.63643 0.0
H124 H 0.14017 0.11232 0.5268 0.0
H125 H 0.16502 0.13986 0.48055 0.0
H126 H 0.11266 0.05502 0.423 0.0
H127 H 0.08736 0.02771 0.46888 0.0
Tb128 Tb 0.53043 0.04287 0.08131 0.0
Tb129 Tb 0.45203 0.00838 0.05117 0.0
C130 C 0.59138 0.08427 0.09182 0.0
C131 C 0.61208 0.10493 0.11828 0.0
C132 C 0.61696 0.13747 0.1181 0.0
C133 C 0.63815 0.15784 0.14201 0.0
C134 C 0.65515 0.14603 0.16638 0.0
C135 C 0.64961 0.11337 0.16692 0.0
C136 C 0.62823 0.09295 0.14308 0.0
C137 C 0.49494 0.99666 0.11701 0.0
C138 C 0.46084 0.06157 0.10202 0.0
C139 C 0.39131 0.96995 0.03161 0.0
C140 C 0.37492 0.95136 1.00257 0.0
C141 C 0.38304 0.92349 0.99401 0.0
C142 C 0.36481 0.90492 0.96776 0.0
C143 C 0.33807 0.91382 0.94988 0.0
C144 C 0.3308 0.94209 0.95785 0.0
C145 C 0.34904 0.96069 0.98398 0.0
C146 C 0.49042 0.06017 0.02436 0.0
C147 C 0.52064 0.98761 0.03019 0.0
O148 O 0.56144 0.09033 0.08118 0.0
O149 O 0.58706 0.05388 0.09293 0.0
O150 O 0.48358 0.00567 0.09209 0.0
O151 O 0.52804 0.01561 0.12358 0.0
O152 O 0.49674 0.071 0.09823 0.0
O153 O 0.43883 0.03406 0.09035 0.0
O154 O 0.41705 0.96178 0.04736 0.0
O155 O 0.39888 1.00059 0.03057 0.0
O156 O 0.50246 0.03982 0.03676 0.0
O157 O 0.45474 0.05014 0.02405 0.0
O158 O 0.48424 0.98156 0.02882 0.0
O159 O 0.54363 0.01169 0.04704 0.0
H160 H 0.60481 0.14725 0.09918 0.0
H161 H 0.64164 0.18288 0.14122 0.0
H162 H 0.66282 0.10367 0.18522 0.0
H163 H 0.62504 0.06797 0.14383 0.0
H164 H 0.40276 0.91561 0.00793 0.0
H165 H 0.3706 0.88303 0.96209 0.0
H166 H 0.3105 0.9495 0.94415 0.0
H167 H 0.34225 0.98204 0.99005 0.0
Tb168 Tb 0.51699 0.56996 0.55094 0.0
Tb169 Tb 0.51982 0.51182 0.5186 0.0
C170 C 0.51005 0.62174 0.56951 0.0
C171 C 0.47995 0.6283 0.58639 0.0
C172 C 0.44991 0.63365 0.56965 0.0
C173 C 0.41946 0.6364 0.58494 0.0
C174 C 0.41845 0.63414 0.61737 0.0
C175 C 0.44894 0.6298 0.63432 0.0
C176 C 0.47938 0.62686 0.61899 0.0
C177 C 0.54286 0.53266 0.58608 0.0
C178 C 0.45253 0.50984 0.56045 0.0
C179 C 0.52744 0.45963 0.50231 0.0
C180 C 0.55755 0.45123 0.48737 0.0
C181 C 0.5775 0.43451 0.50401 0.0
C182 C 0.6076 0.42794 0.49136 0.0
C183 C 0.61827 0.43774 0.46162 0.0
C184 C 0.59826 0.45449 0.4449 0.0
C185 C 0.56824 0.46126 0.45768 0.0
C186 C 0.49647 0.54979 0.48212 0.0
C187 C 0.58522 0.5714 0.51057 0.0
O188 O 0.50101 0.60981 0.54099 0.0
O189 O 0.53065 0.60763 0.58471 0.0
O190 O 0.55011 0.53885 0.55829 0.0
O191 O 0.52154 0.5485 0.59535 0.0
O192 O 0.46168 0.54083 0.55969 0.0
O193 O 0.47281 0.4939 0.5476 0.0
O194 O 0.53601 0.47254 0.53054 0.0
O195 O 0.50804 0.47368 0.48553 0.0
O196 O 0.48792 0.54404 0.50994 0.0
O197 O 0.51643 0.53235 0.47371 0.0
O198 O 0.57539 0.54041 0.51136 0.0
O199 O 0.56488 0.58778 0.52268 0.0
H200 H 0.44955 0.63509 0.54457 0.0
H201 H 0.39667 0.64038 0.57136 0.0
H202 H 0.44889 0.62795 0.65935 0.0
H203 H 0.50206 0.62276 0.63261 0.0
H204 H 0.57015 0.42694 0.52711 0.0
H205 H 0.62284 0.41554 0.50511 0.0
H206 H 0.60558 0.46211 0.42182 0.0
H207 H 0.55366 0.47453 0.44438 0.0
Tb208 Tb 0.01601 0.55276 0.99308 0.0
Tb209 Tb 0.01489 0.50185 0.03573 0.0
C210 C 0.99673 0.5909 0.95993 0.0
C211 C 0.97179 0.6102 0.96395 0.0
C212 C 0.93477 0.59629 0.97059 0.0
C213 C 0.91077 0.61447 0.97213 0.0
C214 C 0.92333 0.64703 0.9675 0.0
C215 C 0.96083 0.66115 0.96232 0.0
C216 C 0.9848 0.64283 0.96043 0.0
C217 C 0.07786 0.56177 0.0277 0.0
C218 C 0.98423 0.55525 0.06108 0.0
C219 C 0.03327 0.4634 0.06941 0.0
C220 C 0.06179 0.44699 0.0698 0.0
C221 C 0.09927 0.46361 0.07699 0.0
C222 C 0.12544 0.44748 0.07998 0.0
C223 C 0.11488 0.41439 0.07568 0.0
C224 C 0.07756 0.39791 0.06746 0.0
C225 C 0.0513 0.41405 0.0647 0.0
C226 C 0.95272 0.4925 1.00084 0.0
C227 C 0.05109 0.50235 0.96955 0.0
O228 O 0.98112 0.56029 0.95726 0.0
O229 O 0.02714 0.59894 0.978 0.0
O230 O 0.04537 0.5503 0.0357 0.0
O231 O 0.07651 0.57014 0.99916 0.0
O232 O 0.98547 0.56456 0.03202 0.0
O233 O 0.9963 0.53137 0.06874 0.0
O234 O 0.04484 0.49403 0.07499 0.0
O235 O 0.00717 0.45477 0.04699 0.0
O236 O 0.98526 0.50401 0.99276 0.0
O237 O 0.95442 0.48448 0.02947 0.0
O238 O 0.05049 0.49386 0.99889 0.0
O239 O 0.03566 0.52384 0.96071 0.0
H240 H 0.92397 0.57119 0.97375 0.0
H241 H 0.88197 0.60265 0.97561 0.0
H242 H 0.9715 0.68622 0.95906 0.0
H243 H 0.01336 0.65405 0.95564 0.0
H244 H 0.10838 0.48903 0.08113 0.0
H245 H 0.15377 0.46094 0.08682 0.0
H246 H 0.06853 0.37248 0.06356 0.0
H247 H 0.0226 0.40069 0.05913 0.0
C248 C 0.27369 0.19329 0.32582 0.0
C249 C 0.25909 0.186 0.29496 0.0
C250 C 0.25261 0.18085 0.35073 0.0
C251 C 0.21592 0.16099 0.34459 0.0
C252 C 0.20047 0.15451 0.31358 0.0
C253 C 0.22239 0.16691 0.28904 0.0
C254 C 0.27012 0.18796 0.38353 0.0
C255 C 0.16117 0.13382 0.30635 0.0
C256 C 0.17913 0.10018 0.40347 0.0
C257 C 0.15847 0.11483 0.42118 0.0
C258 C 0.19769 0.11492 0.37827 0.0
C259 C 0.19498 0.14479 0.37042 0.0
C260 C 0.17344 0.15941 0.38784 0.0
C261 C 0.15567 0.14433 0.41336 0.0
C262 C 0.22084 0.09883 0.36048 0.0
C263 C 0.16949 0.19101 0.37973 0.0
H264 H 0.30201 0.20807 0.33053 0.0
H265 H 0.21084 0.16149 0.26522 0.0
H266 H 0.25262 0.19734 0.39862 0.0
H267 H 0.27227 0.16586 0.39348 0.0
H268 H 0.29818 0.20533 0.38444 0.0
H269 H 0.15225 0.13343 0.28132 0.0
H270 H 0.15854 0.10929 0.31259 0.0
H271 H 0.14202 0.14217 0.32052 0.0
H272 H 0.18154 0.07749 0.40988 0.0
H273 H 0.13944 0.15544 0.42711 0.0
H274 H 0.25004 0.11404 0.36186 0.0
H275 H 0.2111 0.09523 0.33551 0.0
H276 H 0.21988 0.07556 0.3696 0.0
H277 H 0.19679 0.20938 0.38277 0.0
H278 H 0.14992 0.1982 0.39445 0.0
H279 H 0.15965 0.19021 0.35491 0.0
C280 C 0.21518 0.81943 0.80169 0.0
C281 C 0.20482 0.78674 0.80523 0.0
C282 C 0.2381 0.8406 0.82443 0.0
C283 C 0.25051 0.82878 0.85152 0.0
C284 C 0.2402 0.79585 0.85531 0.0
C285 C 0.21765 0.77514 0.83195 0.0
C286 C 0.24888 0.87559 0.81952 0.0
C287 C 0.25249 0.78258 0.88426 0.0
C288 C 0.33328 0.88062 0.90098 0.0
C289 C 0.31599 0.89267 0.92419 0.0
C290 C 0.31228 0.86006 0.87682 0.0
C291 C 0.27323 0.85099 0.87644 0.0
C292 C 0.2557 0.86311 0.89991 0.0
C293 C 0.27737 0.88404 0.92342 0.0
C294 C 0.33182 0.84811 0.85172 0.0
C295 C 0.21411 0.85365 0.90042 0.0
H296 H 0.20557 0.82856 0.78099 0.0
H297 H 0.20962 0.74992 0.83484 0.0
H298 H 0.23849 0.88782 0.83822 0.0
H299 H 0.27942 0.88567 0.82088 0.0
H300 H 0.23778 0.88082 0.79666 0.0
H301 H 0.242 0.75638 0.88362 0.0
H302 H 0.2831 0.79 0.88706 0.0
H303 H 0.24257 0.7921 0.90514 0.0
H304 H 0.36321 0.88757 0.9016 0.0
H305 H 0.2641 0.89318 0.94166 0.0
H306 H 0.32256 0.85402 0.8285 0.0
H307 H 0.32461 0.82202 0.85173 0.0
H308 H 0.36235 0.85831 0.8549 0.0
H309 H 0.20205 0.86014 0.87861 0.0
H310 H 0.2049 0.86506 0.92051 0.0
H311 H 0.20277 0.82765 0.90161 0.0
C312 C 0.64685 0.46431 0.71919 0.0
C313 C 0.63372 0.43139 0.72064 0.0
C314 C 0.6348 0.47979 0.69469 0.0
C315 C 0.60771 0.46214 0.67167 0.0
C316 C 0.59491 0.42877 0.67271 0.0
C317 C 0.60852 0.4138 0.69683 0.0
C318 C 0.65029 0.51521 0.69401 0.0
C319 C 0.56539 0.40899 0.64929 0.0
C320 C 0.54484 0.50611 0.63594 0.0
C321 C 0.5588 0.51315 0.60662 0.0
C322 C 0.55998 0.48903 0.65682 0.0
C323 C 0.5903 0.47883 0.64851 0.0
C324 C 0.60416 0.48534 0.61861 0.0
C325 C 0.58813 0.50229 0.59795 0.0
C326 C 0.54365 0.48222 0.68802 0.0
C327 C 0.63646 0.47505 0.60877 0.0
H328 H 0.66651 0.47803 0.73737 0.0
H329 H 0.598 0.38836 0.69793 0.0
H330 H 0.65935 0.52201 0.67045 0.0
H331 H 0.62848 0.52618 0.69917 0.0
H332 H 0.6741 0.52506 0.71127 0.0
H333 H 0.5602 0.38328 0.65187 0.0
H334 H 0.5392 0.41459 0.65229 0.0
H335 H 0.57329 0.41459 0.62521 0.0
H336 H 0.52196 0.51414 0.64271 0.0
H337 H 0.59905 0.50759 0.57531 0.0
H338 H 0.56459 0.49419 0.70697 0.0
H339 H 0.53568 0.45649 0.69149 0.0
H340 H 0.51892 0.49031 0.6903 0.0
H341 H 0.66121 0.4869 0.62446 0.0
H342 H 0.64306 0.48073 0.58438 0.0
H343 H 0.63057 0.44926 0.6109 0.0
C344 C 0.97821 0.67679 0.20299 0.0
C345 C 0.94263 0.67415 0.21257 0.0
C346 C 0.9838 0.65794 0.1776 0.0
C347 C 0.95322 0.63512 0.16152 0.0
C348 C 0.91722 0.6324 0.17104 0.0
C349 C 0.91237 0.65202 0.19606 0.0
C350 C 0.02262 0.66231 0.16812 0.0
C351 C 0.88375 0.60814 0.15527 0.0
C352 C 0.96535 0.60255 0.07987 0.0
C353 C 0.97315 0.57433 0.08628 0.0
C354 C 0.95842 0.62223 0.10387 0.0
C355 C 0.95903 0.6137 0.13534 0.0
C356 C 0.96599 0.58487 0.14184 0.0
C357 C 0.97308 0.56576 0.11744 0.0
C358 C 0.95131 0.65263 0.09556 0.0
C359 C 0.96649 0.57434 0.17476 0.0
H360 H 1.00187 0.69366 0.21541 0.0
H361 H 0.88475 0.64936 0.20328 0.0
H362 H 0.03001 0.64028 0.17132 0.0
H363 H 0.02438 0.66719 0.14303 0.0
H364 H 0.04331 0.68196 0.18185 0.0
H365 H 0.85759 0.60925 0.1649 0.0
H366 H 0.88226 0.61162 0.1299 0.0
H367 H 0.8861 0.58411 0.15812 0.0
H368 H 0.96548 0.60974 0.05606 0.0
H369 H 0.97914 0.54419 0.12296 0.0
H370 H 0.97318 0.67296 0.10717 0.0
H371 H 0.92455 0.65337 0.10414 0.0
H372 H 0.95074 0.65561 0.07003 0.0
H373 H 0.98909 0.59161 0.18923 0.0
H374 H 0.97056 0.55069 0.1759 0.0
H375 H 0.94016 0.57354 0.1852 0.0
C376 C 0.40123 0.21251 0.13203 0.0
C377 C 0.38379 0.21527 0.15947 0.0
C378 C 0.41179 0.18567 0.12477 0.0
C379 C 0.40488 0.1609 0.14553 0.0
C380 C 0.38698 0.16328 0.17317 0.0
C381 C 0.37671 0.19055 0.17989 0.0
C382 C 0.43083 0.18408 0.09503 0.0
C383 C 0.37956 0.1374 0.19595 0.0
C384 C 0.40777 0.08255 0.10984 0.0
C385 C 0.44465 0.08413 0.11717 0.0
C386 C 0.3939 0.10683 0.12004 0.0
C387 C 0.41734 0.13295 0.13835 0.0
C388 C 0.45396 0.13373 0.14724 0.0
C389 C 0.46724 0.10941 0.13633 0.0
C390 C 0.35488 0.10545 0.10974 0.0
C391 C 0.47975 0.16099 0.16697 0.0
H392 H 0.40688 0.23156 0.11618 0.0
H393 H 0.36447 0.19292 0.20164 0.0
H394 H 0.45898 0.18246 0.10059 0.0
H395 H 0.41536 0.16256 0.08057 0.0
H396 H 0.43326 0.20502 0.08102 0.0
H397 H 0.36439 0.14239 0.21592 0.0
H398 H 0.36318 0.11459 0.184 0.0
H399 H 0.40607 0.13446 0.20505 0.0
H400 H 0.39029 0.06322 0.09475 0.0
H401 H 0.49574 0.11066 0.14215 0.0
H402 H 0.3555 0.12465 0.0938 0.0
H403 H 0.33967 0.10926 0.1301 0.0
H404 H 0.33937 0.08253 0.09746 0.0
H405 H 0.48651 0.1826 0.15353 0.0
H406 H 0.50597 0.15641 0.17444 0.0
H407 H 0.46622 0.16585 0.18801 0.0
C408 C 0.05786 0.82288 0.6693 0.0
C409 C 0.07977 0.83042 0.69735 0.0
C410 C 0.04621 0.84597 0.65416 0.0
C411 C 0.05699 0.87728 0.66732 0.0
C412 C 0.07805 0.88478 0.6961 0.0
C413 C 0.0891 0.86123 0.71082 0.0
C414 C 0.02347 0.83715 0.62356 0.0
C415 C 0.09002 0.91793 0.71081 0.0
C416 C 0.06534 0.94343 0.61247 0.0
C417 C 0.03178 0.94975 0.61563 0.0
C418 C 0.0738 0.91978 0.62916 0.0
C419 C 0.04841 0.90267 0.64998 0.0
C420 C 0.01499 0.90972 0.65399 0.0
C421 C 0.00685 0.93298 0.63642 0.0
C422 C 0.10945 0.91254 0.62392 0.0
C423 C 0.98766 0.89248 0.6765 0.0
H424 H 0.05035 0.79907 0.65888 0.0
H425 H 0.10597 0.86728 0.73253 0.0
H426 H 0.99806 0.84441 0.62448 0.0
H427 H 0.03952 0.84991 0.60463 0.0
H428 H 0.01538 0.8114 0.61747 0.0
H429 H 0.10399 0.91935 0.73436 0.0
H430 H 0.10938 0.93399 0.69583 0.0
H431 H 0.06582 0.92673 0.71273 0.0
H432 H 0.08437 0.95613 0.59604 0.0
H433 H 0.98089 0.93797 0.63886 0.0
H434 H 0.10333 0.88763 0.6151 0.0
H435 H 0.12625 0.91534 0.64626 0.0
H436 H 0.12621 0.9281 0.60696 0.0
H437 H 0.97721 0.867 0.66928 0.0
H438 H 0.96372 0.90179 0.6778 0.0
H439 H 1.00145 0.89449 0.70015 0.0
C440 C 0.78961 0.38527 0.88154 0.0
C441 C 0.76224 0.39975 0.87498 0.0
C442 C 0.82224 0.40136 0.8998 0.0
C443 C 0.82689 0.43212 0.91302 0.0
C444 C 0.79927 0.44679 0.90626 0.0
C445 C 0.76773 0.43069 0.88691 0.0
C446 C 0.85154 0.38527 0.90533 0.0
C447 C 0.8024 0.47912 0.92036 0.0
C448 C 0.88742 0.45801 0.98875 0.0
C449 C 0.92014 0.47839 0.97848 0.0
C450 C 0.85717 0.44276 0.9677 0.0
C451 C 0.85932 0.44815 0.93546 0.0
C452 C 0.8922 0.46901 0.925 0.0
C453 C 0.92221 0.4837 0.94656 0.0
C454 C 0.82288 0.42063 0.97996 0.0
C455 C 0.89592 0.47549 0.89095 0.0
H456 H 0.78566 0.36146 0.87213 0.0
H457 H 0.74653 0.4419 0.88206 0.0
H458 H 0.87902 0.40121 0.90017 0.0
H459 H 0.85319 0.3798 0.93021 0.0
H460 H 0.84577 0.36298 0.89078 0.0
H461 H 0.77938 0.48783 0.91184 0.0
H462 H 0.8023 0.47831 0.9461 0.0
H463 H 0.82894 0.49632 0.9149 0.0
H464 H 0.88561 0.45355 0.01331 0.0
H465 H 0.94751 0.49909 0.93833 0.0
H466 H 0.81754 0.39656 0.96907 0.0
H467 H 0.79855 0.42851 0.9736 0.0
H468 H 0.82526 0.41927 1.00567 0.0
H469 H 0.89321 0.4532 0.87726 0.0
H470 H 0.92286 0.49291 0.88665 0.0
H471 H 0.8734 0.48459 0.8821 0.0
C472 C 0.71764 0.64476 0.37833 0.0
C473 C 0.75521 0.6566 0.38813 0.0
C474 C 0.69099 0.63128 0.39941 0.0
C475 C 0.70213 0.63018 0.43114 0.0
C476 C 0.73997 0.64226 0.4412 0.0
C477 C 0.7661 0.65503 0.41952 0.0
C478 C 0.65092 0.61814 0.38772 0.0
C479 C 0.75283 0.64199 0.47494 0.0
C480 C 0.62718 0.61984 0.48871 0.0
C481 C 0.61773 0.58736 0.49316 0.0
C482 C 0.65529 0.6343 0.4692 0.0
C483 C 0.67417 0.61579 0.45364 0.0
C484 C 0.66542 0.58318 0.4587 0.0
C485 C 0.63747 0.56941 0.47848 0.0
C486 C 0.66403 0.66919 0.46452 0.0
C487 C 0.68468 0.56256 0.44237 0.0
H488 H 0.70906 0.64589 0.35411 0.0
H489 H 0.79503 0.66447 0.42734 0.0
H490 H 0.64023 0.5928 0.39271 0.0
H491 H 0.63404 0.63057 0.40012 0.0
H492 H 0.64684 0.62046 0.36228 0.0
H493 H 0.78315 0.653 0.47911 0.0
H494 H 0.73861 0.65489 0.48988 0.0
H495 H 0.74547 0.61737 0.48239 0.0
H496 H 0.61202 0.63386 0.49984 0.0
H497 H 0.63038 0.54427 0.48165 0.0
H498 H 0.65635 0.67287 0.44005 0.0
H499 H 0.69414 0.6811 0.46872 0.0
H500 H 0.649 0.6807 0.48019 0.0
H501 H 0.67914 0.56243 0.41679 0.0
H502 H 0.67547 0.53781 0.4496 0.0
H503 H 0.71502 0.57221 0.44726 0.0
C504 C 0.2724 0.35665 0.15431 0.0
C505 C 0.2861 0.33673 0.13581 0.0
C506 C 0.24296 0.3669 0.143 0.0
C507 C 0.226 0.35599 0.11294 0.0
C508 C 0.23852 0.33452 0.09485 0.0
C509 C 0.269 0.32565 0.10626 0.0
C510 C 0.23106 0.39049 0.16264 0.0
C511 C 0.22031 0.32152 0.0632 0.0
C512 C 0.13273 0.36919 0.09777 0.0
C513 C 0.14239 0.39721 0.08179 0.0
C514 C 0.15931 0.35456 0.10668 0.0
C515 C 0.19658 0.36856 0.09996 0.0
C516 C 0.20625 0.39607 0.08271 0.0
C517 C 0.179 0.40991 0.07363 0.0
C518 C 0.14774 0.32485 0.12443 0.0
C519 C 0.24572 0.41177 0.07511 0.0
H520 H 0.28592 0.36547 0.17705 0.0
H521 H 0.27953 0.31009 0.09205 0.0
H522 H 0.23535 0.41265 0.15024 0.0
H523 H 0.20115 0.38119 0.16637 0.0
H524 H 0.24664 0.39622 0.18571 0.0
H525 H 0.23055 0.30238 0.05372 0.0
H526 H 0.18991 0.31217 0.0645 0.0
H527 H 0.22581 0.34068 0.04663 0.0
H528 H 0.10465 0.3593 0.10448 0.0
H529 H 0.18658 0.43115 0.06069 0.0
H530 H 0.15872 0.33019 0.14904 0.0
H531 H 0.15938 0.30681 0.11452 0.0
H532 H 0.11721 0.31467 0.12408 0.0
H533 H 0.26298 0.42081 0.097 0.0
H534 H 0.24826 0.43178 0.05976 0.0
H535 H 0.25718 0.39447 0.06349 0.0
C536 C 0.60417 0.19907 0.91736 0.0
C537 C 0.61336 0.22797 0.93488 0.0
C538 C 0.58515 0.1704 0.9304 0.0
C539 C 0.57487 0.17055 0.96166 0.0
C540 C 0.58425 0.19962 0.97938 0.0
C541 C 0.60325 0.22778 0.96586 0.0
C542 C 0.5758 0.13996 0.9107 0.0
C543 C 0.57399 0.20106 0.01273 0.0
C544 C 0.49428 0.10556 0.99054 0.0
C545 C 0.51233 0.08756 0.00746 0.0
C546 C 0.5142 0.13173 0.97451 0.0
C547 C 0.55334 0.1407 0.97585 0.0
C548 C 0.57173 0.12231 0.99258 0.0
C549 C 0.551 0.09573 0.0078 0.0
C550 C 0.49327 0.15017 0.95661 0.0
C551 C 0.61337 0.13111 0.99498 0.0
H552 H 0.61186 0.19882 0.89346 0.0
H553 H 0.61008 0.24982 0.97973 0.0
H554 H 0.58719 0.12281 0.92245 0.0
H555 H 0.54536 0.1292 0.90792 0.0
H556 H 0.58677 0.14355 0.88722 0.0
H557 H 0.5842 0.22537 0.02368 0.0
H558 H 0.5435 0.19242 0.01369 0.0
H559 H 0.58556 0.18541 0.02676 0.0
H560 H 0.4644 0.09919 0.98984 0.0
H561 H 0.56514 0.08156 0.02026 0.0
H562 H 0.50164 0.15221 0.93225 0.0
H563 H 0.5001 0.17447 0.9673 0.0
H564 H 0.46287 0.13903 0.9562 0.0
H565 H 0.62396 0.13213 0.97136 0.0
H566 H 0.62349 0.11411 0.00832 0.0
H567 H 0.6252 0.15497 0.00662 0.0
C568 C 0.95633 0.83647 0.36642 0.0
C569 C 0.92732 0.8094 0.37217 0.0
C570 C 0.96606 0.86364 0.38724 0.0
C571 C 0.94681 0.86375 0.41476 0.0
C572 C 0.91704 0.83682 0.42018 0.0
C573 C 0.90764 0.8104 0.39897 0.0
C574 C 0.99752 0.89204 0.38018 0.0
C575 C 0.89589 0.83525 0.44921 0.0
C576 C 0.9975 0.91379 0.48695 0.0
C577 C 0.98229 0.93887 0.48821 0.0
C578 C 0.98647 0.88967 0.46319 0.0
C579 C 0.95963 0.89047 0.43943 0.0
C580 C 0.94382 0.91566 0.44063 0.0
C581 C 0.95516 0.93947 0.46508 0.0
C582 C 0.00348 0.86309 0.46374 0.0
C583 C 0.91526 0.91766 0.41585 0.0
H584 H 0.97173 0.83633 0.34593 0.0
H585 H 0.88506 0.78997 0.40407 0.0
H586 H 0.98874 0.91366 0.38166 0.0
H587 H 0.02087 0.89536 0.39779 0.0
H588 H 0.00753 0.88964 0.35668 0.0
H589 H 0.87208 0.81339 0.44919 0.0
H590 H 0.91459 0.83607 0.47007 0.0
H591 H 0.88546 0.8559 0.45156 0.0
H592 H 0.0184 0.91305 0.50475 0.0
H593 H 0.94347 0.95887 0.46565 0.0
H594 H 0.01724 0.86179 0.44182 0.0
H595 H 0.98157 0.84024 0.46525 0.0
H596 H 0.02413 0.86598 0.48369 0.0
H597 H 0.92705 0.91895 0.39268 0.0
H598 H 0.90555 0.93856 0.41997 0.0
H599 H 0.89109 0.89607 0.41498 0.0
C600 C 0.24107 0.64248 0.70852 0.0
C601 C 0.23047 0.66787 0.69718 0.0
C602 C 0.27111 0.63452 0.69678 0.0
C603 C 0.29099 0.65244 0.67325 0.0
C604 C 0.28012 0.6778 0.66146 0.0
C605 C 0.24999 0.68518 0.67353 0.0
C606 C 0.28182 0.6072 0.70975 0.0
C607 C 0.3006 0.69741 0.63629 0.0
C608 C 0.39011 0.65596 0.66054 0.0
C609 C 0.3857 0.63662 0.63331 0.0
C610 C 0.35938 0.6604 0.67452 0.0
C611 C 0.32343 0.64505 0.66093 0.0
C612 C 0.31875 0.62445 0.63418 0.0
C613 C 0.34997 0.62053 0.62064 0.0
C614 C 0.3655 0.6825 0.70308 0.0
C615 C 0.28083 0.60737 0.61928 0.0
H616 H 0.22613 0.62897 0.72679 0.0
H617 H 0.24202 0.70483 0.66463 0.0
H618 H 0.28168 0.58972 0.69066 0.0
H619 H 0.31036 0.61574 0.72068 0.0
H620 H 0.26293 0.59509 0.72741 0.0
H621 H 0.28849 0.71622 0.62951 0.0
H622 H 0.32996 0.70862 0.64444 0.0
H623 H 0.30021 0.68207 0.61529 0.0
H624 H 0.41769 0.66855 0.67031 0.0
H625 H 0.34645 0.60508 0.5999 0.0
H626 H 0.34828 0.67072 0.72183 0.0
H627 H 0.3569 0.70347 0.69735 0.0
H628 H 0.39489 0.69064 0.71212 0.0
H629 H 0.26256 0.59449 0.63692 0.0
H630 H 0.28174 0.59029 0.60009 0.0
H631 H 0.26808 0.62475 0.60972 0.0
C632 C 0.73678 0.84821 0.80344 0.0
C633 C 0.7331 0.81585 0.80191 0.0
C634 C 0.75879 0.86861 0.78294 0.0
C635 C 0.77703 0.8562 0.76021 0.0
C636 C 0.77431 0.82377 0.75923 0.0
C637 C 0.75243 0.80404 0.78007 0.0
C638 C 0.76133 0.90316 0.78476 0.0
C639 C 0.79326 0.80958 0.73527 0.0
C640 C 0.79351 0.89294 0.68234 0.0
C641 C 0.83194 0.907 0.68446 0.0
C642 C 0.7752 0.87729 0.70729 0.0
C643 C 0.79573 0.87605 0.73528 0.0
C644 C 0.83428 0.89142 0.73818 0.0
C645 C 0.85201 0.9066 0.71263 0.0
C646 C 0.73404 0.86106 0.70322 0.0
C647 C 0.85694 0.89093 0.76787 0.0
H648 H 0.7215 0.8575 0.81976 0.0
H649 H 0.75003 0.77911 0.77893 0.0
H650 H 0.79057 0.91804 0.78468 0.0
H651 H 0.74637 0.90865 0.76399 0.0
H652 H 0.74927 0.9098 0.80596 0.0
H653 H 0.79039 0.78438 0.73899 0.0
H654 H 0.78121 0.81123 0.7116 0.0
H655 H 0.8231 0.82292 0.7359 0.0
H656 H 0.77766 0.89387 0.66095 0.0
H657 H 0.88173 0.91731 0.71442 0.0
H658 H 0.71978 0.8692 0.72214 0.0
H659 H 0.72836 0.8352 0.70477 0.0
H660 H 0.72191 0.86552 0.68048 0.0
H661 H 0.84432 0.89866 0.78815 0.0
H662 H 0.88592 0.9064 0.76733 0.0
H663 H 0.85732 0.86648 0.77156 0.0
C664 C 0.78734 0.26757 0.296 0.0
C665 C 0.81939 0.25855 0.30127 0.0
C666 C 0.75924 0.25086 0.27402 0.0
C667 C 0.76361 0.22483 0.25663 0.0
C668 C 0.79632 0.21617 0.26112 0.0
C669 C 0.82377 0.23302 0.28361 0.0
C670 C 0.72448 0.26047 0.27006 0.0
C671 C 0.80201 0.18877 0.24253 0.0
C672 C 0.68017 0.1604 0.22147 0.0
C673 C 0.68055 0.16782 0.1901 0.0
C674 C 0.70647 0.17934 0.24363 0.0
C675 C 0.7337 0.20622 0.23407 0.0
C676 C 0.73328 0.21456 0.20269 0.0
C677 C 0.70672 0.19517 0.18101 0.0
C678 C 0.70574 0.17008 0.27707 0.0
C679 C 0.76172 0.24327 0.1918 0.0
H680 H 0.78359 0.28714 0.30976 0.0
H681 H 0.84851 0.22603 0.28755 0.0
H682 H 0.7188 0.26436 0.24524 0.0
H683 H 0.70053 0.24119 0.27709 0.0
H684 H 0.72627 0.28231 0.28423 0.0
H685 H 0.82964 0.1859 0.24797 0.0
H686 H 0.78055 0.16659 0.24746 0.0
H687 H 0.79902 0.19218 0.21722 0.0
H688 H 0.65955 0.13954 0.22859 0.0
H689 H 0.70732 0.20081 0.15671 0.0
H690 H 0.70562 0.19031 0.29286 0.0
H691 H 0.73104 0.16367 0.2836 0.0
H692 H 0.68125 0.14973 0.28103 0.0
H693 H 0.76272 0.26453 0.20651 0.0
H694 H 0.75592 0.2477 0.1671 0.0
H695 H 0.7895 0.23999 0.1942 0.0
C696 C 0.41885 0.64861 0.35507 0.0
C697 C 0.44606 0.67662 0.34855 0.0
C698 C 0.42544 0.62856 0.37796 0.0
C699 C 0.45972 0.63702 0.39582 0.0
C700 C 0.48675 0.66595 0.39022 0.0
C701 C 0.47991 0.685 0.36638 0.0
C702 C 0.39622 0.59755 0.38196 0.0
C703 C 0.52326 0.6766 0.40914 0.0
C704 C 0.46581 0.59236 0.47032 0.0
C705 C 0.48542 0.57184 0.46076 0.0
C706 C 0.4579 0.61411 0.44982 0.0
C707 C 0.46835 0.61454 0.4185 0.0
C708 C 0.48702 0.59306 0.4086 0.0
C709 C 0.49575 0.57256 0.4298 0.0
C710 C 0.4389 0.63705 0.4618 0.0
C711 C 0.49771 0.59152 0.37539 0.0
H712 H 0.39277 0.64159 0.34128 0.0
H713 H 0.50116 0.70654 0.36169 0.0
H714 H 0.40719 0.57775 0.37599 0.0
H715 H 0.38894 0.59554 0.40659 0.0
H716 H 0.37066 0.59474 0.36699 0.0
H717 H 0.53952 0.70117 0.40461 0.0
H718 H 0.51866 0.67518 0.43439 0.0
H719 H 0.53991 0.66076 0.40345 0.0
H720 H 0.45684 0.59163 0.49382 0.0
H721 H 0.51066 0.55675 0.4219 0.0
H722 H 0.41231 0.63352 0.44819 0.0
H723 H 0.45632 0.6616 0.45869 0.0
H724 H 0.43338 0.63444 0.48681 0.0
H725 H 0.47308 0.5878 0.35906 0.0
H726 H 0.51004 0.57224 0.37083 0.0
H727 H 0.51802 0.6142 0.37014 0.0
C728 C 0.15413 0.43168 0.83709 0.0
C729 C 0.13258 0.40102 0.82662 0.0
C730 C 0.14281 0.44879 0.8609 0.0
C731 C 0.1089 0.43519 0.87472 0.0
C732 C 0.0871 0.40424 0.86435 0.0
C733 C 0.09916 0.38761 0.84065 0.0
C734 C 0.16719 0.48154 0.87122 0.0
C735 C 0.05072 0.38871 0.87815 0.0
C736 C 0.08956 0.46719 0.95418 0.0
C737 C 0.0676 0.48629 0.9456 0.0
C738 C 0.10386 0.45107 0.9315 0.0
C739 C 0.09561 0.45353 0.8993 0.0
C740 C 0.0736 0.47291 0.89058 0.0
C741 C 0.06019 0.48912 0.91368 0.0
C742 C 0.12759 0.43115 0.94202 0.0
C743 C 0.06356 0.47609 0.85674 0.0
H744 H 0.18007 0.4424 0.82673 0.0
H745 H 0.08215 0.36399 0.83302 0.0
H746 H 0.15214 0.49895 0.86683 0.0
H747 H 0.17429 0.48285 0.89666 0.0
H748 H 0.1932 0.4885 0.85891 0.0
H749 H 0.03711 0.36444 0.86789 0.0
H750 H 0.05505 0.3875 0.9037 0.0
H751 H 0.03172 0.40306 0.87427 0.0
H752 H 0.0956 0.46478 0.97868 0.0
H753 H 0.04307 0.50354 0.9066 0.0
H754 H 0.15455 0.43882 0.93123 0.0
H755 H 0.11399 0.4061 0.93418 0.0
H756 H 0.13274 0.43259 0.96776 0.0
H757 H 0.08898 0.48503 0.84401 0.0
H758 H 0.04659 0.49232 0.85371 0.0
H759 H 0.04785 0.45259 0.84581 0.0
C760 C 0.60032 0.90171 0.89845 0.0
C761 C 0.62615 0.88825 0.91149 0.0
C762 C 0.57995 0.91551 0.9175 0.0
C763 C 0.58513 0.91517 0.95025 0.0
C764 C 0.6098 0.9002 0.96351 0.0
C765 C 0.63042 0.88725 0.94394 0.0
C766 C 0.55437 0.93184 0.90262 0.0
C767 C 0.61526 0.89874 0.99837 0.0
C768 C 0.57209 0.98234 0.99956 0.0
C769 C 0.53667 0.96881 0.0098 0.0
C770 C 0.58784 0.96516 0.97977 0.0
C771 C 0.56797 0.93347 0.97063 0.0
C772 C 0.53225 0.91957 0.98108 0.0
C773 C 0.51676 0.93763 1.00031 0.0
C774 C 0.62569 0.981 0.96851 0.0
C775 C 0.51062 0.88565 0.97221 0.0
H776 H 0.59691 0.90241 0.87335 0.0
H777 H 0.64993 0.87635 0.95406 0.0
H778 H 0.52674 0.92371 0.91219 0.0
H779 H 0.56556 0.95766 0.90812 0.0
H780 H 0.55103 0.92761 0.87689 0.0
H781 H 0.63202 0.88305 1.00475 0.0
H782 H 0.62949 0.92276 0.00887 0.0
H783 H 0.58815 0.89016 0.00881 0.0
H784 H 0.58732 0.00663 0.00658 0.0
H785 H 0.48937 0.9272 0.00836 0.0
H786 H 0.62453 0.9796 0.94266 0.0
H787 H 0.64538 0.96858 0.9768 0.0
H788 H 0.63672 0.00622 0.97679 0.0
H789 H 0.50486 0.88245 0.94659 0.0
H790 H 0.48392 0.87807 0.98349 0.0
H791 H 0.52712 0.86991 0.97896 0.0
C792 C 0.96488 0.20339 0.44055 0.0
C793 C 0.93221 0.20017 0.42249 0.0
C794 C 0.97151 0.17707 0.45374 0.0
C795 C 0.94556 0.14678 0.44741 0.0
C796 C 0.91318 0.14335 0.42814 0.0
C797 C 0.90648 0.17027 0.41649 0.0
C798 C 0.00557 0.18181 0.47527 0.0
C799 C 0.88562 0.11132 0.41991 0.0
C800 C 0.98132 0.07758 0.46366 0.0
C801 C 0.96511 0.06781 0.49148 0.0
C802 C 0.97397 0.10252 0.44828 0.0
C803 C 0.95151 0.11889 0.46208 0.0
C804 C 0.93536 0.1091 0.49041 0.0
C805 C 0.94174 0.08314 0.50444 0.0
C806 C 0.9905 0.1115 0.41751 0.0
C807 C 0.91267 0.12683 0.50658 0.0
H808 H 0.98457 0.22667 0.44526 0.0
H809 H 0.88138 0.16792 0.40222 0.0
H810 H 0.99739 0.17302 0.49848 0.0
H811 H 0.02301 0.16801 0.46607 0.0
H812 H 0.0225 0.20701 0.47833 0.0
H813 H 0.8637 0.11247 0.40235 0.0
H814 H 0.89993 0.09488 0.41062 0.0
H815 H 0.87227 0.10116 0.44109 0.0
H816 H 0.99964 0.06567 0.45397 0.0
H817 H 0.92999 0.07583 0.52643 0.0
H818 H 0.01124 0.13522 0.42014 0.0
H819 H 0.96869 0.11275 0.39993 0.0
H820 H 0.0042 0.09443 0.40855 0.0
H821 H 0.92943 0.15186 0.51147 0.0
H822 H 0.90284 0.11654 0.52889 0.0
H823 H 0.88832 0.12673 0.49127 0.0
C824 C 0.22568 0.68345 0.14155 0.0
C825 C 0.25231 0.67238 0.15707 0.0
C826 C 0.19763 0.66337 0.12132 0.0
C827 C 0.19606 0.63136 0.11635 0.0
C828 C 0.22244 0.61984 0.13231 0.0
C829 C 0.25024 0.64048 0.1525 0.0
C830 C 0.16989 0.67657 0.10495 0.0
C831 C 0.2216 0.58584 0.12765 0.0
C832 C 0.10391 0.5764 0.08246 0.0
C833 C 0.10949 0.57617 0.05047 0.0
C834 C 0.13218 0.59346 0.1043 0.0
C835 C 0.1671 0.61029 0.09397 0.0
C836 C 0.1734 0.60887 0.06183 0.0
C837 C 0.14442 0.59197 0.04042 0.0
C838 C 0.12405 0.5947 0.13823 0.0
C839 C 0.21034 0.62627 0.04995 0.0
H840 H 0.22689 0.708 0.14494 0.0
H841 H 0.27065 0.63169 0.16439 0.0
H842 H 0.17179 0.6745 0.07935 0.0
H843 H 0.14142 0.66276 0.11009 0.0
H844 H 0.17428 0.70177 0.11199 0.0
H845 H 0.24339 0.58032 0.14244 0.0
H846 H 0.19427 0.5699 0.13313 0.0
H847 H 0.2255 0.58064 0.10287 0.0
H848 H 0.07691 0.56428 0.09038 0.0
H849 H 0.14884 0.59177 0.01573 0.0
H850 H 0.12486 0.61907 0.14561 0.0
H851 H 0.14544 0.58861 0.15294 0.0
H852 H 0.09649 0.57839 0.14276 0.0
H853 H 0.21542 0.6521 0.05347 0.0
H854 H 0.21182 0.62061 0.02478 0.0
H855 H 0.23288 0.62034 0.06326 0.0
C856 C 0.27953 0.41306 0.65471 0.0
C857 C 0.28562 0.42204 0.68662 0.0
C858 C 0.30613 0.42629 0.6334 0.0
C859 C 0.33942 0.44969 0.64399 0.0
C860 C 0.34561 0.45909 0.67615 0.0
C861 C 0.31887 0.44491 0.6971 0.0
C862 C 0.29874 0.41498 0.59952 0.0
C863 C 0.38051 0.48417 0.68841 0.0
C864 C 0.42261 0.46547 0.5939 0.0
C865 C 0.42181 0.49315 0.5796 0.0
C866 C 0.39615 0.45116 0.61492 0.0
C867 C 0.36762 0.46444 0.62142 0.0
C868 C 0.36623 0.49201 0.60649 0.0
C869 C 0.39355 0.50622 0.58608 0.0
C870 C 0.3993 0.42226 0.63075 0.0
C871 C 0.33616 0.5068 0.61245 0.0
H872 H 0.2542 0.39508 0.64644 0.0
H873 H 0.32387 0.45195 0.7217 0.0
H874 H 0.29902 0.43508 0.58489 0.0
H875 H 0.32092 0.40542 0.592 0.0
H876 H 0.27174 0.39635 0.59503 0.0
H877 H 0.38113 0.48905 0.71396 0.0
H878 H 0.40501 0.47674 0.68312 0.0
H879 H 0.38307 0.50644 0.67662 0.0
H880 H 0.4448 0.45556 0.58956 0.0
H881 H 0.39288 0.5277 0.57528 0.0
H882 H 0.37324 0.40257 0.62643 0.0
H883 H 0.40371 0.42738 0.65632 0.0
H884 H 0.4225 0.41437 0.62259 0.0
H885 H 0.30865 0.48922 0.60689 0.0
H886 H 0.33832 0.52769 0.59841 0.0
H887 H 0.33759 0.51423 0.63748 0.0
C888 C 0.74917 0.67962 0.90174 0.0
C889 C 0.7412 0.70759 0.90956 0.0
C890 C 0.77986 0.67313 0.91577 0.0
C891 C 0.80313 0.6951 0.9383 0.0
C892 C 0.79448 0.72281 0.9473 0.0
C893 C 0.76355 0.72879 0.93275 0.0
C894 C 0.78811 0.64322 0.90559 0.0
C895 C 0.81865 0.74665 0.97135 0.0
C896 C 0.86593 0.6585 0.98341 0.0
C897 C 0.89637 0.66512 0.96482 0.0
C898 C 0.83629 0.67027 0.9766 0.0
C899 C 0.83743 0.68937 0.95088 0.0
C900 C 0.86963 0.6987 0.93402 0.0
C901 C 0.89864 0.68627 0.94105 0.0
C902 C 0.80255 0.6601 0.99531 0.0
C903 C 0.87218 0.71951 0.90675 0.0
H904 H 0.73198 0.66308 0.88394 0.0
H905 H 0.75754 0.75048 0.93891 0.0
H906 H 0.81484 0.64929 0.89439 0.0
H907 H 0.79078 0.62948 0.9261 0.0
H908 H 0.76633 0.62796 0.88881 0.0
H909 H 0.80583 0.765 0.9784 0.0
H910 H 0.82445 0.73479 0.99238 0.0
H911 H 0.84558 0.75845 0.96171 0.0
H912 H 0.86444 0.64286 1.00238 0.0
H913 H 0.9219 0.69147 0.92643 0.0
H914 H 0.78004 0.64232 0.98122 0.0
H915 H 0.79242 0.68042 1.00108 0.0
H916 H 0.80814 0.64947 0.01727 0.0
H917 H 0.8543 0.70577 0.88672 0.0
H918 H 0.9009 0.72856 0.89936 0.0
H919 H 0.86221 0.73989 0.9126 0.0
C920 C 0.40541 0.84166 0.21453 0.0
C921 C 0.42914 0.82281 0.21509 0.0
C922 C 0.41415 0.8703 0.19922 0.0
C923 C 0.44676 0.87994 0.18276 0.0
C924 C 0.47075 0.86086 0.18312 0.0
C925 C 0.46195 0.83286 0.19962 0.0
C926 C 0.38822 0.8901 0.20044 0.0
C927 C 0.5052 0.86952 0.1652 0.0
C928 C 0.45418 0.93992 0.11905 0.0
C929 C 0.47839 0.96751 0.13395 0.0
C930 C 0.44325 0.91133 0.13462 0.0
C931 C 0.45639 0.91037 0.16601 0.0
C932 C 0.47973 0.93858 0.18132 0.0
C933 C 0.49069 0.96649 0.16508 0.0
C934 C 0.41878 0.88188 0.1171 0.0
C935 C 0.49375 0.93923 0.21485 0.0
H936 H 0.37964 0.83374 0.2259 0.0
H937 H 0.47982 0.81795 0.19904 0.0
H938 H 0.40359 0.91459 0.20909 0.0
H939 H 0.37625 0.89143 0.17669 0.0
H940 H 0.36525 0.8804 0.21576 0.0
H941 H 0.52043 0.85184 0.16695 0.0
H942 H 0.49778 0.87153 0.14025 0.0
H943 H 0.52395 0.89287 0.17403 0.0
H944 H 0.44517 0.94026 0.09486 0.0
H945 H 0.5095 0.98768 0.17675 0.0
H946 H 0.3936 0.87156 0.12976 0.0
H947 H 0.4336 0.86392 0.11563 0.0
H948 H 0.41029 0.88653 0.09311 0.0
H949 H 0.47024 0.92976 0.22965 0.0
H950 H 0.50966 0.96343 0.22405 0.0
H951 H 0.51186 0.9239 0.21699 0.0
C952 C 0.08884 0.18752 0.72386 0.0
C953 C 0.0998 0.21801 0.71253 0.0
C954 C 0.07598 0.16035 0.70361 0.0
C955 C 0.07412 0.16339 0.67095 0.0
C956 C 0.08647 0.19401 0.65925 0.0
C957 C 0.09894 0.22089 0.6801 0.0
C958 C 0.063 0.12837 0.7173 0.0
C959 C 0.08559 0.19843 0.62465 0.0
C960 C 0.05865 0.08805 0.61862 0.0
C961 C 0.0205 0.07956 0.61086 0.0
C962 C 0.07678 0.11565 0.63748 0.0
C963 C 0.05617 0.13483 0.64943 0.0
C964 C 0.01764 0.12609 0.6417 0.0
C965 C 1.0005 0.09892 0.62236 0.0
C966 C 0.11796 0.1243 0.64465 0.0
C967 C 0.99421 0.1452 0.65424 0.0
H968 H 0.08946 0.18478 0.74879 0.0
H969 H 0.10753 0.2442 0.67095 0.0
H970 H 0.03288 0.11771 0.7117 0.0
H971 H 0.07698 0.11223 0.70688 0.0
H972 H 0.06832 0.12974 0.74301 0.0
H973 H 0.09956 0.22323 0.61912 0.0
H974 H 0.09912 0.18278 0.61268 0.0
H975 H 0.05651 0.19169 0.61502 0.0
H976 H 0.07435 0.07329 0.60977 0.0
H977 H 0.97102 0.09259 0.61654 0.0
H978 H 0.12397 0.12357 0.67005 0.0
H979 H 0.13155 0.14881 0.63809 0.0
H980 H 0.1304 0.10813 0.63215 0.0
H981 H 0.99633 0.14616 0.68009 0.0
H982 H 0.96463 0.13522 0.6461 0.0
H983 H 0.00445 0.16982 0.64691 0.0
C984 C 0.76546 0.38083 0.3696 0.0
C985 C 0.79753 0.38345 0.38849 0.0
C986 C 0.73757 0.39238 0.38029 0.0
C987 C 0.74208 0.4073 0.41044 0.0
C988 C 0.77526 0.4116 0.42894 0.0
C989 C 0.80253 0.3994 0.41782 0.0
C990 C 0.70246 0.38714 0.35997 0.0
C991 C 0.78127 0.42786 0.46101 0.0
C992 C 0.6757 0.45257 0.43185 0.0
C993 C 0.65001 0.43018 0.44817 0.0
C994 C 0.706 0.44558 0.41949 0.0
C995 C 0.71069 0.41558 0.42367 0.0
C996 C 0.6848 0.3929 0.44001 0.0
C997 C 0.65476 0.40044 0.45196 0.0
C998 C 0.73301 0.47025 0.40203 0.0
C999 C 0.68866 0.36052 0.44469 0.0
H1000 H 0.76138 0.36855 0.34686 0.0
H1001 H 0.82739 0.40174 0.43239 0.0
H1002 H 0.67909 0.3704 0.37086 0.0
H1003 H 0.69575 0.4096 0.35789 0.0
H1004 H 0.70447 0.37741 0.33622 0.0
H1005 H 0.80996 0.43218 0.47105 0.0
H1006 H 0.77535 0.45076 0.46018 0.0
H1007 H 0.7619 0.41303 0.47685 0.0
H1008 H 0.67242 0.47572 0.4291 0.0
H1009 H 0.63467 0.38283 0.46403 0.0
H1010 H 0.73377 0.46117 0.3778 0.0
H1011 H 0.76127 0.47542 0.4132 0.0
H1012 H 0.72575 0.49261 0.40122 0.0
H1013 H 0.68811 0.3481 0.42177 0.0
H1014 H 0.66633 0.34573 0.45824 0.0
H1015 H 0.71565 0.36273 0.45713 0.0
loop_
_geom_bond_atom_site_label_1
_geom_bond_atom_site_label_2
_geom_bond_distance
_geom_bond_site_symmetry_2
_ccdc_geom_bond_type
O0 Cd1 2.300 . S
O0 C7 1.275 . S
Cd1 O0 2.300 . S
Cd1 O9 2.381 . S
Cd1 O10 2.378 . S
O2 Cd3 2.385 . S
O2 C7 1.255 . S
Cd3 O2 2.385 . S
Cd3 O4 2.317 . S
O4 Cd3 2.317 . S
O4 C5 1.232 . S
C5 O4 1.232 . S
C5 O6 1.218 . S
O6 C5 1.218 . S
C7 O0 1.275 . S
C7 O2 1.255 . S
C8 O9 1.258 . S
C8 O10 1.256 . S
O9 Cd1 2.381 . S
O9 C8 1.258 . S
O10 Cd1 2.378 . S
O10 C8 1.256 . S
O11 Cd12 2.300 . S
O11 C18 1.275 . S
Cd12 O11 2.300 . S
Cd12 O20 2.381 . S
Cd12 O21 2.378 . S
O13 Cd14 2.385 . S
O13 C18 1.255 . S
Cd14 O13 2.385 . S
Cd14 O15 2.317 . S
O15 Cd14 2.317 . S
O15 C16 1.232 . S
C16 O15 1.232 . S
C16 O17 1.218 . S
O17 C16 1.218 . S
C18 O11 1.275 . S
C18 O13 1.255 . S
C19 O20 1.258 . S
C19 O21 1.256 . S
O20 Cd12 2.381 . S
O20 C19 1.258 . S
O21 Cd12 2.378 . S
O21 C19 1.256 . S
O22 Cd23 2.300 . S
O22 C29 1.275 . S
Cd23 O22 2.300 . S
Cd23 O31 2.381 . S
Cd23 O32 2.378 . S
O24 Cd25 2.385 . S
O24 C29 1.255 . S
Cd25 O24 2.385 . S
Cd25 O26 2.317 . S
O26 Cd25 2.317 . S
O26 C27 1.232 . S
C27 O26 1.232 . S
C27 O28 1.218 . S
O28 C27 1.218 . S
C29 O22 1.275 . S
C29 O24 1.255 . S
C30 O31 1.258 . S
C30 O32 1.256 . S
O31 Cd23 2.381 . S
O31 C30 1.258 . S
O32 Cd23 2.378 . S
O32 C30 1.256 . S
O33 Cd34 2.300 . S
O33 C40 1.275 . S
Cd34 O33 2.300 . S
Cd34 O42 2.381 . S
Cd34 O43 2.378 . S
O35 Cd36 2.385 . S
O35 C40 1.255 . S
Cd36 O35 2.385 . S
Cd36 O37 2.317 . S
O37 Cd36 2.317 . S
O37 C38 1.232 . S
C38 O37 1.232 . S
C38 O39 1.218 . S
O39 C38 1.218 . S
C40 O33 1.275 . S
C40 O35 1.255 . S
C41 O42 1.258 . S
C41 O43 1.256 . S
O42 Cd34 2.381 . S
O42 C41 1.258 . S
O43 Cd34 2.378 . S
O43 C41 1.256 . S
O44 Cd45 2.300 . S
O44 C51 1.275 . S
Cd45 O44 2.300 . S
Cd45 O53 2.381 . S
Cd45 O54 2.378 . S
O46 Cd47 2.385 . S
O46 C51 1.255 . S
Cd47 O46 2.385 . S
Cd47 O48 2.317 . S
O48 Cd47 2.317 . S
O48 C49 1.232 . S
C49 O48 1.232 . S
C49 O50 1.218 . S
O50 C49 1.218 . S
C51 O44 1.275 . S
C51 O46 1.255 . S
C52 O53 1.258 . S
C52 O54 1.256 . S
O53 Cd45 2.381 . S
O53 C52 1.258 . S
O54 Cd45 2.378 . S
O54 C52 1.256 . S
O55 Cd56 2.300 . S
O55 C62 1.275 . S
Cd56 O55 2.300 . S
Cd56 O64 2.381 . S
Cd56 O65 2.378 . S
O57 Cd58 2.385 . S
O57 C62 1.255 . S
Cd58 O57 2.385 . S
Cd58 O59 2.317 . S
O59 Cd58 2.317 . S
O59 C60 1.232 . S
C60 O59 1.232 . S
C60 O61 1.218 . S
O61 C60 1.218 . S
C62 O55 1.275 . S
C62 O57 1.255 . S
C63 O64 1.258 . S
C63 O65 1.256 . S
O64 Cd56 2.381 . S
O64 C63 1.258 . S
O65 Cd56 2.378 . S
O65 C63 1.256 . S
O66 Cd67 2.300 . S
O66 C73 1.275 . S
Cd67 O66 2.300 . S
Cd67 O75 2.381 . S
Cd67 O76 2.378 . S
O68 Cd69 2.385 . S
O68 C73 1.255 . S
Cd69 O68 2.385 . S
Cd69 O70 2.317 . S
O70 Cd69 2.317 . S
O70 C71 1.232 . S
C71 O70 1.232 . S
C71 O72 1.218 . S
O72 C71 1.218 . S
C73 O66 1.275 . S
C73 O68 1.255 . S
C74 O75 1.258 . S
C74 O76 1.256 . S
O75 Cd67 2.381 . S
O75 C74 1.258 . S
O76 Cd67 2.378 . S
O76 C74 1.256 . S
O77 Cd78 2.300 . S
O77 C84 1.275 . S
Cd78 O77 2.300 . S
Cd78 O86 2.381 . S
Cd78 O87 2.378 . S
O79 Cd80 2.385 . S
O79 C84 1.255 . S
Cd80 O79 2.385 . S
Cd80 O81 2.317 . S
O81 Cd80 2.317 . S
O81 C82 1.232 . S
C82 O81 1.232 . S
C82 O83 1.218 . S
O83 C82 1.218 . S
C84 O77 1.275 . S
C84 O79 1.255 . S
C85 O86 1.258 . S
C85 O87 1.256 . S
O86 Cd78 2.381 . S
O86 C85 1.258 . S
O87 Cd78 2.378 . S
O87 C85 1.256 . S
Tb88 C90 2.809 1_545 S
Tb88 O108 2.484 1_545 S
Tb88 O109 2.440 1_545 S
Tb88 O110 2.658 1_655 S
Tb88 O111 2.409 . S
Tb88 O112 2.378 1_645 S
Tb88 O116 2.325 1_545 S
Tb88 O119 2.341 . S
Tb89 C99 2.809 . S
Tb89 O110 2.325 . S
Tb89 O113 2.341 1_545 S
Tb89 O114 2.484 . S
Tb89 O115 2.440 . S
Tb89 O116 2.658 1_445 S
Tb89 O117 2.409 1_545 S
Tb89 O118 2.378 1_455 S
C90 Tb88 2.809 1_565 S
C90 C91 1.514 . S
C90 O108 1.248 . S
C90 O109 1.266 . S
C91 C90 1.514 . S
C91 C92 1.359 . S
C91 C96 1.348 . S
C92 C91 1.359 . S
C92 C93 1.380 . S
C92 H120 0.929 . S
C93 C92 1.380 . S
C93 C94 1.347 . S
C93 H121 0.931 . S
C94 C93 1.347 . S
C94 C95 1.369 . S
C95 C94 1.369 . S
C95 C96 1.408 . S
C95 H122 0.930 . S
C96 C91 1.348 . S
C96 C95 1.408 . S
C96 H123 0.930 . S
C97 O110 1.281 . S
C97 O111 1.254 1_455 S
C98 O112 1.236 . S
C98 O113 1.266 . S
C99 Tb89 2.809 . S
C99 C100 1.514 . S
C99 O114 1.248 . S
C99 O115 1.266 . S
C100 C99 1.514 . S
C100 C101 1.359 . S
C100 C105 1.348 . S
C101 C100 1.359 . S
C101 C102 1.380 . S
C101 H124 0.929 . S
C102 C101 1.380 . S
C102 C103 1.347 . S
C102 H125 0.931 . S
C103 C102 1.347 . S
C103 C104 1.369 . S
C104 C103 1.369 . S
C104 C105 1.408 . S
C104 H126 0.930 . S
C105 C100 1.348 . S
C105 C104 1.408 . S
C105 H127 0.930 . S
C106 O116 1.281 . S
C106 O117 1.254 1_655 S
C107 O118 1.236 . S
C107 O119 1.266 . S
O108 Tb88 2.484 1_565 S
O108 C90 1.248 . S
O109 Tb88 2.440 1_565 S
O109 C90 1.266 . S
O110 Tb88 2.658 1_455 S
O110 Tb89 2.325 . S
O110 C97 1.281 . S
O111 Tb88 2.409 . S
O111 C97 1.254 1_655 S
O112 Tb88 2.378 1_465 S
O112 C98 1.236 . S
O113 Tb89 2.341 1_565 S
O113 C98 1.266 . S
O114 Tb89 2.484 . S
O114 C99 1.248 . S
O115 Tb89 2.440 . S
O115 C99 1.266 . S
O116 Tb88 2.325 1_565 S
O116 Tb89 2.658 1_665 S
O116 C106 1.281 . S
O117 Tb89 2.409 1_565 S
O117 C106 1.254 1_455 S
O118 Tb89 2.378 1_655 S
O118 C107 1.236 . S
O119 Tb88 2.341 . S
O119 C107 1.266 . S
H120 C92 0.929 . S
H121 C93 0.931 . S
H122 C95 0.930 . S
H123 C96 0.930 . S
H124 C101 0.929 . S
H125 C102 0.931 . S
H126 C104 0.930 . S
H127 C105 0.930 . S
Tb128 C130 2.809 . S
Tb128 O148 2.484 . S
Tb128 O149 2.440 . S
Tb128 O150 2.659 . S
Tb128 O151 2.409 1_545 S
Tb128 O152 2.378 . S
Tb128 O156 2.325 . S
Tb128 O159 2.341 . S
Tb129 C139 2.809 1_544 S
Tb129 O150 2.325 . S
Tb129 O153 2.341 . S
Tb129 O154 2.484 1_545 S
Tb129 O155 2.440 1_554 S
Tb129 O156 2.658 . S
Tb129 O157 2.409 1_554 S
Tb129 O158 2.378 1_554 S
C130 Tb128 2.809 . S
C130 C131 1.514 . S
C130 O148 1.248 . S
C130 O149 1.266 . S
C131 C130 1.514 . S
C131 C132 1.359 . S
C131 C136 1.348 . S
C132 C131 1.359 . S
C132 C133 1.380 . S
C132 H160 0.929 . S
C133 C132 1.380 . S
C133 C134 1.347 . S
C133 H161 0.931 . S
C134 C133 1.347 . S
C134 C135 1.369 . S
C135 C134 1.369 . S
C135 C136 1.408 . S
C135 H162 0.930 . S
C136 C131 1.348 . S
C136 C135 1.408 . S
C136 H163 0.930 . S
C137 O150 1.280 1_565 S
C137 O151 1.254 . S
C138 O152 1.236 . S
C138 O153 1.266 . S
C139 Tb129 2.809 1_566 S
C139 C140 1.514 . S
C139 O154 1.248 1_556 S
C139 O155 1.266 1_565 S
C140 C139 1.514 . S
C140 C141 1.359 . S
C140 C145 1.348 . S
C141 C140 1.359 . S
C141 C142 1.380 . S
C141 H164 0.929 . S
C142 C141 1.380 . S
C142 C143 1.347 . S
C142 H165 0.931 . S
C143 C142 1.347 . S
C143 C144 1.369 . S
C144 C143 1.369 . S
C144 C145 1.408 . S
C144 H166 0.930 . S
C145 C140 1.348 . S
C145 C144 1.408 . S
C145 H167 0.930 . S
C146 O156 1.281 . S
C146 O157 1.254 1_554 S
C147 O158 1.236 1_564 S
C147 O159 1.266 1_565 S
O148 Tb128 2.484 . S
O148 C130 1.248 . S
O149 Tb128 2.440 . S
O149 C130 1.266 . S
O150 Tb128 2.659 . S
O150 Tb129 2.325 . S
O150 C137 1.280 1_545 S
O151 Tb128 2.409 1_565 S
O151 C137 1.254 . S
O152 Tb128 2.378 . S
O152 C138 1.236 . S
O153 Tb129 2.341 . S
O153 C138 1.266 . S
O154 Tb129 2.484 1_565 S
O154 C139 1.248 1_554 S
O155 Tb129 2.440 1_556 S
O155 C139 1.266 1_545 S
O156 Tb128 2.325 . S
O156 Tb129 2.658 . S
O156 C146 1.281 . S
O157 Tb129 2.409 1_556 S
O157 C146 1.254 1_556 S
O158 Tb129 2.378 1_556 S
O158 C147 1.236 1_546 S
O159 Tb128 2.341 . S
O159 C147 1.266 1_545 S
H160 C132 0.929 . S
H161 C133 0.931 . S
H162 C135 0.930 . S
H163 C136 0.930 . S
H164 C141 0.929 . S
H165 C142 0.931 . S
H166 C144 0.930 . S
H167 C145 0.930 . S
Tb168 C170 2.809 . S
Tb168 O188 2.484 . S
Tb168 O189 2.440 . S
Tb168 O190 2.658 . S
Tb168 O191 2.409 . S
Tb168 O192 2.378 . S
Tb168 O196 2.325 . S
Tb168 O199 2.341 . S
Tb169 C179 2.809 . S
Tb169 O190 2.325 . S
Tb169 O193 2.341 . S
Tb169 O194 2.484 . S
Tb169 O195 2.440 . S
Tb169 O196 2.658 . S
Tb169 O197 2.409 . S
Tb169 O198 2.378 . S
C170 Tb168 2.809 . S
C170 C171 1.514 . S
C170 O188 1.248 . S
C170 O189 1.266 . S
C171 C170 1.514 . S
C171 C172 1.359 . S
C171 C176 1.348 . S
C172 C171 1.359 . S
C172 C173 1.380 . S
C172 H200 0.929 . S
C173 C172 1.380 . S
C173 C174 1.347 . S
C173 H201 0.931 . S
C174 C173 1.347 . S
C174 C175 1.369 . S
C175 C174 1.369 . S
C175 C176 1.408 . S
C175 H202 0.930 . S
C176 C171 1.348 . S
C176 C175 1.408 . S
C176 H203 0.930 . S
C177 O190 1.281 . S
C177 O191 1.254 . S
C178 O192 1.236 . S
C178 O193 1.266 . S
C179 Tb169 2.809 . S
C179 C180 1.514 . S
C179 O194 1.248 . S
C179 O195 1.266 . S
C180 C179 1.514 . S
C180 C181 1.359 . S
C180 C185 1.348 . S
C181 C180 1.359 . S
C181 C182 1.380 . S
C181 H204 0.929 . S
C182 C181 1.380 . S
C182 C183 1.347 . S
C182 H205 0.931 . S
C183 C182 1.347 . S
C183 C184 1.369 . S
C184 C183 1.369 . S
C184 C185 1.408 . S
C184 H206 0.930 . S
C185 C180 1.348 . S
C185 C184 1.408 . S
C185 H207 0.930 . S
C186 O196 1.281 . S
C186 O197 1.254 . S
C187 O198 1.236 . S
C187 O199 1.266 . S
O188 Tb168 2.484 . S
O188 C170 1.248 . S
O189 Tb168 2.440 . S
O189 C170 1.266 . S
O190 Tb168 2.658 . S
O190 Tb169 2.325 . S
O190 C177 1.281 . S
O191 Tb168 2.409 . S
O191 C177 1.254 . S
O192 Tb168 2.378 . S
O192 C178 1.236 . S
O193 Tb169 2.341 . S
O193 C178 1.266 . S
O194 Tb169 2.484 . S
O194 C179 1.248 . S
O195 Tb169 2.440 . S
O195 C179 1.266 . S
O196 Tb168 2.325 . S
O196 Tb169 2.658 . S
O196 C186 1.281 . S
O197 Tb169 2.409 . S
O197 C186 1.254 . S
O198 Tb169 2.378 . S
O198 C187 1.236 . S
O199 Tb168 2.341 . S
O199 C187 1.266 . S
H200 C172 0.929 . S
H201 C173 0.931 . S
H202 C175 0.930 . S
H203 C176 0.930 . S
H204 C181 0.929 . S
H205 C182 0.931 . S
H206 C184 0.930 . S
H207 C185 0.930 . S
Tb208 C210 2.809 1_455 S
Tb208 O228 2.484 1_455 S
Tb208 O229 2.440 . S
Tb208 O230 2.658 1_556 S
Tb208 O231 2.409 1_556 S
Tb208 O232 2.389 1_556 S
Tb208 O236 2.325 1_455 S
Tb208 O239 2.341 . S
Tb209 C219 2.809 . S
Tb209 O230 2.325 . S
Tb209 O233 2.341 1_455 S
Tb209 O234 2.484 . S
Tb209 O235 2.440 . S
Tb209 O236 2.658 1_454 S
Tb209 O237 2.409 1_455 S
Tb209 O238 2.378 1_554 S
C210 Tb208 2.809 1_655 S
C210 C211 1.514 . S
C210 O228 1.248 . S
C210 O229 1.266 1_655 S
C211 C210 1.514 . S
C211 C212 1.359 . S
C211 C216 1.348 . S
C212 C211 1.359 . S
C212 C213 1.380 . S
C212 H240 0.929 . S
C213 C212 1.380 . S
C213 C214 1.347 . S
C213 H241 0.931 . S
C214 C213 1.347 . S
C214 C215 1.369 . S
C215 C214 1.369 . S
C215 C216 1.408 . S
C215 H242 0.930 . S
C216 C211 1.348 . S
C216 C215 1.408 . S
C216 H243 0.930 1_655 S
C217 O230 1.281 . S
C217 O231 1.254 . S
C218 O232 1.227 1_655 S
C218 O233 1.266 . S
C219 Tb209 2.809 . S
C219 C220 1.514 . S
C219 O234 1.248 . S
C219 O235 1.266 . S
C220 C219 1.514 . S
C220 C221 1.359 . S
C220 C225 1.348 . S
C221 C220 1.359 . S
C221 C222 1.380 . S
C221 H244 0.929 . S
C222 C221 1.380 . S
C222 C223 1.347 . S
C222 H245 0.931 . S
C223 C222 1.347 . S
C223 C224 1.369 . S
C224 C223 1.369 . S
C224 C225 1.408 . S
C224 H246 0.930 . S
C225 C220 1.348 . S
C225 C224 1.408 . S
C225 H247 0.930 . S
C226 O236 1.281 . S
C226 O237 1.254 1_556 S
C227 O238 1.236 . S
C227 O239 1.266 . S
O228 Tb208 2.484 1_655 S
O228 C210 1.248 . S
O229 Tb208 2.440 . S
O229 C210 1.266 1_455 S
O230 Tb208 2.658 1_554 S
O230 Tb209 2.325 . S
O230 C217 1.281 . S
O231 Tb208 2.409 1_554 S
O231 C217 1.254 . S
O232 Tb208 2.389 1_554 S
O232 C218 1.227 1_455 S
O233 Tb209 2.341 1_655 S
O233 C218 1.266 . S
O234 Tb209 2.484 . S
O234 C219 1.248 . S
O235 Tb209 2.440 . S
O235 C219 1.266 . S
O236 Tb208 2.325 1_655 S
O236 Tb209 2.658 1_656 S
O236 C226 1.281 . S
O237 Tb209 2.409 1_655 S
O237 C226 1.254 1_554 S
O238 Tb209 2.378 1_556 S
O238 C227 1.236 . S
O239 Tb208 2.341 . S
O239 C227 1.266 . S
H240 C212 0.929 . S
H241 C213 0.931 . S
H242 C215 0.930 . S
H243 C216 0.930 1_455 S
H244 C221 0.929 . S
H245 C222 0.931 . S
H246 C224 0.930 . S
H247 C225 0.930 . S
C248 C249 1.391 . S
C248 C250 1.394 . S
C248 H264 0.931 . S
C249 C248 1.391 . S
C249 C253 1.376 . S
C250 C248 1.394 . S
C250 C251 1.369 . S
C250 C254 1.531 . S
C251 C250 1.369 . S
C251 C252 1.410 . S
C251 C259 1.503 . S
C252 C251 1.410 . S
C252 C253 1.392 . S
C252 C255 1.511 . S
C253 C249 1.376 . S
C253 C252 1.392 . S
C253 H265 0.929 . S
C254 C250 1.531 . S
C254 H266 0.960 . S
C254 H267 0.962 . S
C254 H268 0.960 . S
C255 C252 1.511 . S
C255 H269 0.961 . S
C255 H270 0.961 . S
C255 H271 0.961 . S
C256 C257 1.370 . S
C256 C258 1.363 . S
C256 H272 0.931 . S
C257 C256 1.370 . S
C257 C261 1.408 . S
C258 C256 1.363 . S
C258 C259 1.370 . S
C258 C262 1.524 . S
C259 C251 1.503 . S
C259 C258 1.370 . S
C259 C260 1.403 . S
C260 C259 1.403 . S
C260 C261 1.404 . S
C260 C263 1.539 . S
C261 C257 1.408 . S
C261 C260 1.404 . S
C261 H273 0.930 . S
C262 C258 1.524 . S
C262 H274 0.956 . S
C262 H275 0.961 . S
C262 H276 0.961 . S
C263 C260 1.539 . S
C263 H277 0.958 . S
C263 H278 0.961 . S
C263 H279 0.960 . S
H264 C248 0.931 . S
H265 C253 0.929 . S
H266 C254 0.960 . S
H267 C254 0.962 . S
H268 C254 0.960 . S
H269 C255 0.961 . S
H270 C255 0.961 . S
H271 C255 0.961 . S
H272 C256 0.931 . S
H273 C261 0.930 . S
H274 C262 0.956 . S
H275 C262 0.961 . S
H276 C262 0.961 . S
H277 C263 0.958 . S
H278 C263 0.961 . S
H279 C263 0.960 . S
C280 C281 1.391 . S
C280 C282 1.394 . S
C280 H296 0.931 . S
C281 C280 1.391 . S
C281 C285 1.376 . S
C282 C280 1.394 . S
C282 C283 1.369 . S
C282 C286 1.531 . S
C283 C282 1.369 . S
C283 C284 1.410 . S
C283 C291 1.503 . S
C284 C283 1.410 . S
C284 C285 1.392 . S
C284 C287 1.511 . S
C285 C281 1.376 . S
C285 C284 1.392 . S
C285 H297 0.929 . S
C286 C282 1.531 . S
C286 H298 0.960 . S
C286 H299 0.962 . S
C286 H300 0.960 . S
C287 C284 1.511 . S
C287 H301 0.961 . S
C287 H302 0.961 . S
C287 H303 0.961 . S
C288 C289 1.370 . S
C288 C290 1.363 . S
C288 H304 0.931 . S
C289 C288 1.370 . S
C289 C293 1.408 . S
C290 C288 1.363 . S
C290 C291 1.370 . S
C290 C294 1.524 . S
C291 C283 1.503 . S
C291 C290 1.370 . S
C291 C292 1.403 . S
C292 C291 1.403 . S
C292 C293 1.404 . S
C292 C295 1.539 . S
C293 C289 1.408 . S
C293 C292 1.404 . S
C293 H305 0.930 . S
C294 C290 1.524 . S
C294 H306 0.956 . S
C294 H307 0.961 . S
C294 H308 0.961 . S
C295 C292 1.539 . S
C295 H309 0.958 . S
C295 H310 0.961 . S
C295 H311 0.960 . S
H296 C280 0.931 . S
H297 C285 0.929 . S
H298 C286 0.960 . S
H299 C286 0.962 . S
H300 C286 0.960 . S
H301 C287 0.961 . S
H302 C287 0.961 . S
H303 C287 0.961 . S
H304 C288 0.931 . S
H305 C293 0.930 . S
H306 C294 0.956 . S
H307 C294 0.961 . S
H308 C294 0.961 . S
H309 C295 0.958 . S
H310 C295 0.961 . S
H311 C295 0.960 . S
C312 C313 1.391 . S
C312 C314 1.394 . S
C312 H328 0.931 . S
C313 C312 1.391 . S
C313 C317 1.376 . S
C314 C312 1.394 . S
C314 C315 1.369 . S
C314 C318 1.531 . S
C315 C314 1.369 . S
C315 C316 1.410 . S
C315 C323 1.503 . S
C316 C315 1.410 . S
C316 C317 1.392 . S
C316 C319 1.511 . S
C317 C313 1.376 . S
C317 C316 1.392 . S
C317 H329 0.929 . S
C318 C314 1.531 . S
C318 H330 0.960 . S
C318 H331 0.962 . S
C318 H332 0.960 . S
C319 C316 1.511 . S
C319 H333 0.961 . S
C319 H334 0.961 . S
C319 H335 0.961 . S
C320 C321 1.370 . S
C320 C322 1.363 . S
C320 H336 0.931 . S
C321 C320 1.370 . S
C321 C325 1.408 . S
C322 C320 1.363 . S
C322 C323 1.370 . S
C322 C326 1.524 . S
C323 C315 1.503 . S
C323 C322 1.370 . S
C323 C324 1.403 . S
C324 C323 1.403 . S
C324 C325 1.404 . S
C324 C327 1.539 . S
C325 C321 1.408 . S
C325 C324 1.404 . S
C325 H337 0.930 . S
C326 C322 1.524 . S
C326 H338 0.956 . S
C326 H339 0.961 . S
C326 H340 0.961 . S
C327 C324 1.539 . S
C327 H341 0.958 . S
C327 H342 0.961 . S
C327 H343 0.960 . S
H328 C312 0.931 . S
H329 C317 0.929 . S
H330 C318 0.960 . S
H331 C318 0.962 . S
H332 C318 0.960 . S
H333 C319 0.961 . S
H334 C319 0.961 . S
H335 C319 0.961 . S
H336 C320 0.931 . S
H337 C325 0.930 . S
H338 C326 0.956 . S
H339 C326 0.961 . S
H340 C326 0.961 . S
H341 C327 0.958 . S
H342 C327 0.961 . S
H343 C327 0.960 . S
C344 C345 1.391 . S
C344 C346 1.394 . S
C344 H360 0.931 . S
C345 C344 1.391 . S
C345 C349 1.376 . S
C346 C344 1.394 . S
C346 C347 1.369 . S
C346 C350 1.531 . S
C347 C346 1.369 . S
C347 C348 1.410 . S
C347 C355 1.503 . S
C348 C347 1.410 . S
C348 C349 1.392 . S
C348 C351 1.511 . S
C349 C345 1.376 . S
C349 C348 1.392 . S
C349 H361 0.929 . S
C350 C346 1.531 . S
C350 H362 0.960 . S
C350 H363 0.962 . S
C350 H364 0.960 1_655 S
C351 C348 1.511 . S
C351 H365 0.961 . S
C351 H366 0.961 . S
C351 H367 0.961 . S
C352 C353 1.370 . S
C352 C354 1.363 . S
C352 H368 0.931 . S
C353 C352 1.370 . S
C353 C357 1.408 . S
C354 C352 1.363 . S
C354 C355 1.370 . S
C354 C358 1.524 . S
C355 C347 1.503 . S
C355 C354 1.370 . S
C355 C356 1.403 . S
C356 C355 1.403 . S
C356 C357 1.404 . S
C356 C359 1.539 . S
C357 C353 1.408 . S
C357 C356 1.404 . S
C357 H369 0.930 . S
C358 C354 1.524 . S
C358 H370 0.956 . S
C358 H371 0.961 . S
C358 H372 0.961 . S
C359 C356 1.539 . S
C359 H373 0.958 . S
C359 H374 0.961 . S
C359 H375 0.960 . S
H360 C344 0.931 . S
H361 C349 0.929 . S
H362 C350 0.960 . S
H363 C350 0.962 . S
H364 C350 0.960 1_455 S
H365 C351 0.961 . S
H366 C351 0.961 . S
H367 C351 0.961 . S
H368 C352 0.931 . S
H369 C357 0.930 . S
H370 C358 0.956 . S
H371 C358 0.961 . S
H372 C358 0.961 . S
H373 C359 0.958 . S
H374 C359 0.961 . S
H375 C359 0.960 . S
C376 C377 1.391 . S
C376 C378 1.394 . S
C376 H392 0.931 . S
C377 C376 1.391 . S
C377 C381 1.376 . S
C378 C376 1.394 . S
C378 C379 1.369 . S
C378 C382 1.531 . S
C379 C378 1.369 . S
C379 C380 1.410 . S
C379 C387 1.503 . S
C380 C379 1.410 . S
C380 C381 1.392 . S
C380 C383 1.511 . S
C381 C377 1.376 . S
C381 C380 1.392 . S
C381 H393 0.929 . S
C382 C378 1.531 . S
C382 H394 0.960 . S
C382 H395 0.962 . S
C382 H396 0.960 . S
C383 C380 1.511 . S
C383 H397 0.961 . S
C383 H398 0.961 . S
C383 H399 0.961 . S
C384 C385 1.370 . S
C384 C386 1.363 . S
C384 H400 0.931 . S
C385 C384 1.370 . S
C385 C389 1.408 . S
C386 C384 1.363 . S
C386 C387 1.370 . S
C386 C390 1.524 . S
C387 C379 1.503 . S
C387 C386 1.370 . S
C387 C388 1.403 . S
C388 C387 1.403 . S
C388 C389 1.404 . S
C388 C391 1.539 . S
C389 C385 1.408 . S
C389 C388 1.404 . S
C389 H401 0.930 . S
C390 C386 1.524 . S
C390 H402 0.956 . S
C390 H403 0.961 . S
C390 H404 0.961 . S
C391 C388 1.539 . S
C391 H405 0.958 . S
C391 H406 0.961 . S
C391 H407 0.960 . S
H392 C376 0.931 . S
H393 C381 0.929 . S
H394 C382 0.960 . S
H395 C382 0.962 . S
H396 C382 0.960 . S
H397 C383 0.961 . S
H398 C383 0.961 . S
H399 C383 0.961 . S
H400 C384 0.931 . S
H401 C389 0.930 . S
H402 C390 0.956 . S
H403 C390 0.961 . S
H404 C390 0.961 . S
H405 C391 0.958 . S
H406 C391 0.961 . S
H407 C391 0.960 . S
C408 C409 1.391 . S
C408 C410 1.394 . S
C408 H424 0.931 . S
C409 C408 1.391 . S
C409 C413 1.376 . S
C410 C408 1.394 . S
C410 C411 1.369 . S
C410 C414 1.531 . S
C411 C410 1.369 . S
C411 C412 1.410 . S
C411 C419 1.503 . S
C412 C411 1.410 . S
C412 C413 1.392 . S
C412 C415 1.511 . S
C413 C409 1.376 . S
C413 C412 1.392 . S
C413 H425 0.929 . S
C414 C410 1.531 . S
C414 H426 0.960 1_455 S
C414 H427 0.962 . S
C414 H428 0.960 1_455 S
C415 C412 1.511 . S
C415 H429 0.961 . S
C415 H430 0.961 . S
C415 H431 0.961 . S
C416 C417 1.370 . S
C416 C418 1.363 . S
C416 H432 0.931 . S
C417 C416 1.370 . S
C417 C421 1.408 . S
C418 C416 1.363 . S
C418 C419 1.370 . S
C418 C422 1.524 . S
C419 C411 1.503 . S
C419 C418 1.370 . S
C419 C420 1.403 . S
C420 C419 1.403 . S
C420 C421 1.404 . S
C420 C423 1.539 1_455 S
C421 C417 1.408 . S
C421 C420 1.404 . S
C421 H433 0.930 1_455 S
C422 C418 1.524 . S
C422 H434 0.956 . S
C422 H435 0.961 . S
C422 H436 0.961 . S
C423 C420 1.539 1_655 S
C423 H437 0.958 . S
C423 H438 0.961 . S
C423 H439 0.960 1_655 S
H424 C408 0.931 . S
H425 C413 0.929 . S
H426 C414 0.960 1_655 S
H427 C414 0.962 . S
H428 C414 0.960 1_655 S
H429 C415 0.961 . S
H430 C415 0.961 . S
H431 C415 0.961 . S
H432 C416 0.931 . S
H433 C421 0.930 1_655 S
H434 C422 0.956 . S
H435 C422 0.961 . S
H436 C422 0.961 . S
H437 C423 0.958 . S
H438 C423 0.961 . S
H439 C423 0.960 1_455 S
C440 C441 1.391 . S
C440 C442 1.394 . S
C440 H456 0.931 . S
C441 C440 1.391 . S
C441 C445 1.376 . S
C442 C440 1.394 . S
C442 C443 1.369 . S
C442 C446 1.531 . S
C443 C442 1.369 . S
C443 C444 1.410 . S
C443 C451 1.503 . S
C444 C443 1.410 . S
C444 C445 1.392 . S
C444 C447 1.511 . S
C445 C441 1.376 . S
C445 C444 1.392 . S
C445 H457 0.929 . S
C446 C442 1.531 . S
C446 H458 0.960 . S
C446 H459 0.962 . S
C446 H460 0.960 . S
C447 C444 1.511 . S
C447 H461 0.961 . S
C447 H462 0.961 . S
C447 H463 0.961 . S
C448 C449 1.370 . S
C448 C450 1.363 . S
C448 H464 0.931 . S
C449 C448 1.370 . S
C449 C453 1.408 . S
C450 C448 1.363 . S
C450 C451 1.370 . S
C450 C454 1.524 . S
C451 C443 1.503 . S
C451 C450 1.370 . S
C451 C452 1.403 . S
C452 C451 1.403 . S
C452 C453 1.404 . S
C452 C455 1.539 . S
C453 C449 1.408 . S
C453 C452 1.404 . S
C453 H465 0.930 . S
C454 C450 1.524 . S
C454 H466 0.956 . S
C454 H467 0.961 . S
C454 H468 0.961 . S
C455 C452 1.539 . S
C455 H469 0.958 . S
C455 H470 0.961 . S
C455 H471 0.960 . S
H456 C440 0.931 . S
H457 C445 0.929 . S
H458 C446 0.960 . S
H459 C446 0.962 . S
H460 C446 0.960 . S
H461 C447 0.961 . S
H462 C447 0.961 . S
H463 C447 0.961 . S
H464 C448 0.931 . S
H465 C453 0.930 . S
H466 C454 0.956 . S
H467 C454 0.961 . S
H468 C454 0.961 . S
H469 C455 0.958 . S
H470 C455 0.961 . S
H471 C455 0.960 . S
C472 C473 1.391 . S
C472 C474 1.394 . S
C472 H488 0.931 . S
C473 C472 1.391 . S
C473 C477 1.376 . S
C474 C472 1.394 . S
C474 C475 1.369 . S
C474 C478 1.531 . S
C475 C474 1.369 . S
C475 C476 1.410 . S
C475 C483 1.503 . S
C476 C475 1.410 . S
C476 C477 1.392 . S
C476 C479 1.511 . S
C477 C473 1.376 . S
C477 C476 1.392 . S
C477 H489 0.929 . S
C478 C474 1.531 . S
C478 H490 0.960 . S
C478 H491 0.962 . S
C478 H492 0.960 . S
C479 C476 1.511 . S
C479 H493 0.961 . S
C479 H494 0.961 . S
C479 H495 0.961 . S
C480 C481 1.370 . S
C480 C482 1.363 . S
C480 H496 0.931 . S
C481 C480 1.370 . S
C481 C485 1.408 . S
C482 C480 1.363 . S
C482 C483 1.370 . S
C482 C486 1.524 . S
C483 C475 1.503 . S
C483 C482 1.370 . S
C483 C484 1.403 . S
C484 C483 1.403 . S
C484 C485 1.404 . S
C484 C487 1.539 . S
C485 C481 1.408 . S
C485 C484 1.404 . S
C485 H497 0.930 . S
C486 C482 1.524 . S
C486 H498 0.956 . S
C486 H499 0.961 . S
C486 H500 0.961 . S
C487 C484 1.539 . S
C487 H501 0.958 . S
C487 H502 0.961 . S
C487 H503 0.960 . S
H488 C472 0.931 . S
H489 C477 0.929 . S
H490 C478 0.960 . S
H491 C478 0.962 . S
H492 C478 0.960 . S
H493 C479 0.961 . S
H494 C479 0.961 . S
H495 C479 0.961 . S
H496 C480 0.931 . S
H497 C485 0.930 . S
H498 C486 0.956 . S
H499 C486 0.961 . S
H500 C486 0.961 . S
H501 C487 0.958 . S
H502 C487 0.961 . S
H503 C487 0.960 . S
C504 C505 1.391 . S
C504 C506 1.394 . S
C504 H520 0.931 . S
C505 C504 1.391 . S
C505 C509 1.376 . S
C506 C504 1.394 . S
C506 C507 1.369 . S
C506 C510 1.531 . S
C507 C506 1.369 . S
C507 C508 1.410 . S
C507 C515 1.503 . S
C508 C507 1.410 . S
C508 C509 1.392 . S
C508 C511 1.511 . S
C509 C505 1.376 . S
C509 C508 1.392 . S
C509 H521 0.929 . S
C510 C506 1.531 . S
C510 H522 0.960 . S
C510 H523 0.962 . S
C510 H524 0.960 . S
C511 C508 1.511 . S
C511 H525 0.961 . S
C511 H526 0.961 . S
C511 H527 0.961 . S
C512 C513 1.370 . S
C512 C514 1.363 . S
C512 H528 0.931 . S
C513 C512 1.370 . S
C513 C517 1.408 . S
C514 C512 1.363 . S
C514 C515 1.370 . S
C514 C518 1.524 . S
C515 C507 1.503 . S
C515 C514 1.370 . S
C515 C516 1.403 . S
C516 C515 1.403 . S
C516 C517 1.404 . S
C516 C519 1.539 . S
C517 C513 1.408 . S
C517 C516 1.404 . S
C517 H529 0.930 . S
C518 C514 1.524 . S
C518 H530 0.956 . S
C518 H531 0.961 . S
C518 H532 0.961 . S
C519 C516 1.539 . S
C519 H533 0.958 . S
C519 H534 0.961 . S
C519 H535 0.960 . S
H520 C504 0.931 . S
H521 C509 0.929 . S
H522 C510 0.960 . S
H523 C510 0.962 . S
H524 C510 0.960 . S
H525 C511 0.961 . S
H526 C511 0.961 . S
H527 C511 0.961 . S
H528 C512 0.931 . S
H529 C517 0.930 . S
H530 C518 0.956 . S
H531 C518 0.961 . S
H532 C518 0.961 . S
H533 C519 0.958 . S
H534 C519 0.961 . S
H535 C519 0.960 . S
C536 C537 1.391 . S
C536 C538 1.394 . S
C536 H552 0.931 . S
C537 C536 1.391 . S
C537 C541 1.376 . S
C538 C536 1.394 . S
C538 C539 1.369 . S
C538 C542 1.531 . S
C539 C538 1.369 . S
C539 C540 1.410 . S
C539 C547 1.503 . S
C540 C539 1.410 . S
C540 C541 1.392 . S
C540 C543 1.511 . S
C541 C537 1.376 . S
C541 C540 1.392 . S
C541 H553 0.929 . S
C542 C538 1.531 . S
C542 H554 0.960 . S
C542 H555 0.962 . S
C542 H556 0.960 . S
C543 C540 1.511 . S
C543 H557 0.961 . S
C543 H558 0.961 . S
C543 H559 0.961 . S
C544 C545 1.370 . S
C544 C546 1.363 . S
C544 H560 0.931 . S
C545 C544 1.370 . S
C545 C549 1.408 . S
C546 C544 1.363 . S
C546 C547 1.370 . S
C546 C550 1.524 . S
C547 C539 1.503 . S
C547 C546 1.370 . S
C547 C548 1.403 . S
C548 C547 1.403 . S
C548 C549 1.404 . S
C548 C551 1.539 . S
C549 C545 1.408 . S
C549 C548 1.404 . S
C549 H561 0.930 1_556 S
C550 C546 1.524 . S
C550 H562 0.956 . S
C550 H563 0.961 . S
C550 H564 0.961 . S
C551 C548 1.539 . S
C551 H565 0.958 . S
C551 H566 0.961 1_556 S
C551 H567 0.960 . S
H552 C536 0.931 . S
H553 C541 0.929 . S
H554 C542 0.960 . S
H555 C542 0.962 . S
H556 C542 0.960 . S
H557 C543 0.961 . S
H558 C543 0.961 . S
H559 C543 0.961 . S
H560 C544 0.931 . S
H561 C549 0.930 1_554 S
H562 C550 0.956 . S
H563 C550 0.961 . S
H564 C550 0.961 . S
H565 C551 0.958 . S
H566 C551 0.961 1_554 S
H567 C551 0.960 . S
C568 C569 1.391 . S
C568 C570 1.394 . S
C568 H584 0.931 . S
C569 C568 1.391 . S
C569 C573 1.376 . S
C570 C568 1.394 . S
C570 C571 1.369 . S
C570 C574 1.531 . S
C571 C570 1.369 . S
C571 C572 1.410 . S
C571 C579 1.503 . S
C572 C571 1.410 . S
C572 C573 1.392 . S
C572 C575 1.511 . S
C573 C569 1.376 . S
C573 C572 1.392 . S
C573 H585 0.929 . S
C574 C570 1.531 . S
C574 H586 0.960 . S
C574 H587 0.962 . S
C574 H588 0.960 . S
C575 C572 1.511 . S
C575 H589 0.961 . S
C575 H590 0.961 . S
C575 H591 0.961 . S
C576 C577 1.370 . S
C576 C578 1.363 . S
C576 H592 0.931 . S
C577 C576 1.370 . S
C577 C581 1.408 . S
C578 C576 1.363 . S
C578 C579 1.370 . S
C578 C582 1.524 . S
C579 C571 1.503 . S
C579 C578 1.370 . S
C579 C580 1.403 . S
C580 C579 1.403 . S
C580 C581 1.404 . S
C580 C583 1.539 . S
C581 C577 1.408 . S
C581 C580 1.404 . S
C581 H593 0.930 . S
C582 C578 1.524 . S
C582 H594 0.956 . S
C582 H595 0.961 . S
C582 H596 0.961 . S
C583 C580 1.539 . S
C583 H597 0.958 . S
C583 H598 0.961 . S
C583 H599 0.960 . S
H584 C568 0.931 . S
H585 C573 0.929 . S
H586 C574 0.960 . S
H587 C574 0.962 . S
H588 C574 0.960 . S
H589 C575 0.961 . S
H590 C575 0.961 . S
H591 C575 0.961 . S
H592 C576 0.931 . S
H593 C581 0.930 . S
H594 C582 0.956 . S
H595 C582 0.961 . S
H596 C582 0.961 . S
H597 C583 0.958 . S
H598 C583 0.961 . S
H599 C583 0.960 . S
C600 C601 1.391 . S
C600 C602 1.394 . S
C600 H616 0.931 . S
C601 C600 1.391 . S
C601 C605 1.376 . S
C602 C600 1.394 . S
C602 C603 1.369 . S
C602 C606 1.531 . S
C603 C602 1.369 . S
C603 C604 1.410 . S
C603 C611 1.503 . S
C604 C603 1.410 . S
C604 C605 1.392 . S
C604 C607 1.511 . S
C605 C601 1.376 . S
C605 C604 1.392 . S
C605 H617 0.929 . S
C606 C602 1.531 . S
C606 H618 0.960 . S
C606 H619 0.962 . S
C606 H620 0.960 . S
C607 C604 1.511 . S
C607 H621 0.961 . S
C607 H622 0.961 . S
C607 H623 0.961 . S
C608 C609 1.370 . S
C608 C610 1.363 . S
C608 H624 0.931 . S
C609 C608 1.370 . S
C609 C613 1.408 . S
C610 C608 1.363 . S
C610 C611 1.370 . S
C610 C614 1.524 . S
C611 C603 1.503 . S
C611 C610 1.370 . S
C611 C612 1.403 . S
C612 C611 1.403 . S
C612 C613 1.404 . S
C612 C615 1.539 . S
C613 C609 1.408 . S
C613 C612 1.404 . S
C613 H625 0.930 . S
C614 C610 1.524 . S
C614 H626 0.956 . S
C614 H627 0.961 . S
C614 H628 0.961 . S
C615 C612 1.539 . S
C615 H629 0.958 . S
C615 H630 0.961 . S
C615 H631 0.960 . S
H616 C600 0.931 . S
H617 C605 0.929 . S
H618 C606 0.960 . S
H619 C606 0.962 . S
H620 C606 0.960 . S
H621 C607 0.961 . S
H622 C607 0.961 . S
H623 C607 0.961 . S
H624 C608 0.931 . S
H625 C613 0.930 . S
H626 C614 0.956 . S
H627 C614 0.961 . S
H628 C614 0.961 . S
H629 C615 0.958 . S
H630 C615 0.961 . S
H631 C615 0.960 . S
C632 C633 1.391 . S
C632 C634 1.394 . S
C632 H648 0.931 . S
C633 C632 1.391 . S
C633 C637 1.376 . S
C634 C632 1.394 . S
C634 C635 1.369 . S
C634 C638 1.531 . S
C635 C634 1.369 . S
C635 C636 1.410 . S
C635 C643 1.503 . S
C636 C635 1.410 . S
C636 C637 1.392 . S
C636 C639 1.511 . S
C637 C633 1.376 . S
C637 C636 1.392 . S
C637 H649 0.929 . S
C638 C634 1.531 . S
C638 H650 0.960 . S
C638 H651 0.962 . S
C638 H652 0.960 . S
C639 C636 1.511 . S
C639 H653 0.961 . S
C639 H654 0.961 . S
C639 H655 0.961 . S
C640 C641 1.370 . S
C640 C642 1.363 . S
C640 H656 0.931 . S
C641 C640 1.370 . S
C641 C645 1.408 . S
C642 C640 1.363 . S
C642 C643 1.370 . S
C642 C646 1.524 . S
C643 C635 1.503 . S
C643 C642 1.370 . S
C643 C644 1.403 . S
C644 C643 1.403 . S
C644 C645 1.404 . S
C644 C647 1.539 . S
C645 C641 1.408 . S
C645 C644 1.404 . S
C645 H657 0.930 . S
C646 C642 1.524 . S
C646 H658 0.956 . S
C646 H659 0.961 . S
C646 H660 0.961 . S
C647 C644 1.539 . S
C647 H661 0.958 . S
C647 H662 0.961 . S
C647 H663 0.960 . S
H648 C632 0.931 . S
H649 C637 0.929 . S
H650 C638 0.960 . S
H651 C638 0.962 . S
H652 C638 0.960 . S
H653 C639 0.961 . S
H654 C639 0.961 . S
H655 C639 0.961 . S
H656 C640 0.931 . S
H657 C645 0.930 . S
H658 C646 0.956 . S
H659 C646 0.961 . S
H660 C646 0.961 . S
H661 C647 0.958 . S
H662 C647 0.961 . S
H663 C647 0.960 . S
C664 C665 1.391 . S
C664 C666 1.394 . S
C664 H680 0.931 . S
C665 C664 1.391 . S
C665 C669 1.376 . S
C666 C664 1.394 . S
C666 C667 1.369 . S
C666 C670 1.531 . S
C667 C666 1.369 . S
C667 C668 1.410 . S
C667 C675 1.503 . S
C668 C667 1.410 . S
C668 C669 1.392 . S
C668 C671 1.511 . S
C669 C665 1.376 . S
C669 C668 1.392 . S
C669 H681 0.929 . S
C670 C666 1.531 . S
C670 H682 0.960 . S
C670 H683 0.962 . S
C670 H684 0.960 . S
C671 C668 1.511 . S
C671 H685 0.961 . S
C671 H686 0.961 . S
C671 H687 0.961 . S
C672 C673 1.370 . S
C672 C674 1.363 . S
C672 H688 0.931 . S
C673 C672 1.370 . S
C673 C677 1.408 . S
C674 C672 1.363 . S
C674 C675 1.370 . S
C674 C678 1.524 . S
C675 C667 1.503 . S
C675 C674 1.370 . S
C675 C676 1.403 . S
C676 C675 1.403 . S
C676 C677 1.404 . S
C676 C679 1.539 . S
C677 C673 1.408 . S
C677 C676 1.404 . S
C677 H689 0.930 . S
C678 C674 1.524 . S
C678 H690 0.956 . S
C678 H691 0.961 . S
C678 H692 0.961 . S
C679 C676 1.539 . S
C679 H693 0.958 . S
C679 H694 0.961 . S
C679 H695 0.960 . S
H680 C664 0.931 . S
H681 C669 0.929 . S
H682 C670 0.960 . S
H683 C670 0.962 . S
H684 C670 0.960 . S
H685 C671 0.961 . S
H686 C671 0.961 . S
H687 C671 0.961 . S
H688 C672 0.931 . S
H689 C677 0.930 . S
H690 C678 0.956 . S
H691 C678 0.961 . S
H692 C678 0.961 . S
H693 C679 0.958 . S
H694 C679 0.961 . S
H695 C679 0.960 . S
C696 C697 1.391 . S
C696 C698 1.394 . S
C696 H712 0.931 . S
C697 C696 1.391 . S
C697 C701 1.376 . S
C698 C696 1.394 . S
C698 C699 1.369 . S
C698 C702 1.531 . S
C699 C698 1.369 . S
C699 C700 1.410 . S
C699 C707 1.503 . S
C700 C699 1.410 . S
C700 C701 1.392 . S
C700 C703 1.511 . S
C701 C697 1.376 . S
C701 C700 1.392 . S
C701 H713 0.929 . S
C702 C698 1.531 . S
C702 H714 0.960 . S
C702 H715 0.962 . S
C702 H716 0.960 . S
C703 C700 1.511 . S
C703 H717 0.961 . S
C703 H718 0.961 . S
C703 H719 0.961 . S
C704 C705 1.370 . S
C704 C706 1.363 . S
C704 H720 0.931 . S
C705 C704 1.370 . S
C705 C709 1.408 . S
C706 C704 1.363 . S
C706 C707 1.370 . S
C706 C710 1.524 . S
C707 C699 1.503 . S
C707 C706 1.370 . S
C707 C708 1.403 . S
C708 C707 1.403 . S
C708 C709 1.404 . S
C708 C711 1.539 . S
C709 C705 1.408 . S
C709 C708 1.404 . S
C709 H721 0.930 . S
C710 C706 1.524 . S
C710 H722 0.956 . S
C710 H723 0.961 . S
C710 H724 0.961 . S
C711 C708 1.539 . S
C711 H725 0.958 . S
C711 H726 0.961 . S
C711 H727 0.960 . S
H712 C696 0.931 . S
H713 C701 0.929 . S
H714 C702 0.960 . S
H715 C702 0.962 . S
H716 C702 0.960 . S
H717 C703 0.961 . S
H718 C703 0.961 . S
H719 C703 0.961 . S
H720 C704 0.931 . S
H721 C709 0.930 . S
H722 C710 0.956 . S
H723 C710 0.961 . S
H724 C710 0.961 . S
H725 C711 0.958 . S
H726 C711 0.961 . S
H727 C711 0.960 . S
C728 C729 1.391 . S
C728 C730 1.394 . S
C728 H744 0.931 . S
C729 C728 1.391 . S
C729 C733 1.376 . S
C730 C728 1.394 . S
C730 C731 1.369 . S
C730 C734 1.531 . S
C731 C730 1.369 . S
C731 C732 1.410 . S
C731 C739 1.503 . S
C732 C731 1.410 . S
C732 C733 1.392 . S
C732 C735 1.511 . S
C733 C729 1.376 . S
C733 C732 1.392 . S
C733 H745 0.929 . S
C734 C730 1.531 . S
C734 H746 0.960 . S
C734 H747 0.962 . S
C734 H748 0.960 . S
C735 C732 1.511 . S
C735 H749 0.961 . S
C735 H750 0.961 . S
C735 H751 0.961 . S
C736 C737 1.370 . S
C736 C738 1.363 . S
C736 H752 0.931 . S
C737 C736 1.370 . S
C737 C741 1.408 . S
C738 C736 1.363 . S
C738 C739 1.370 . S
C738 C742 1.524 . S
C739 C731 1.503 . S
C739 C738 1.370 . S
C739 C740 1.403 . S
C740 C739 1.403 . S
C740 C741 1.404 . S
C740 C743 1.539 . S
C741 C737 1.408 . S
C741 C740 1.404 . S
C741 H753 0.930 . S
C742 C738 1.524 . S
C742 H754 0.956 . S
C742 H755 0.961 . S
C742 H756 0.961 . S
C743 C740 1.539 . S
C743 H757 0.958 . S
C743 H758 0.961 . S
C743 H759 0.960 . S
H744 C728 0.931 . S
H745 C733 0.929 . S
H746 C734 0.960 . S
H747 C734 0.962 . S
H748 C734 0.960 . S
H749 C735 0.961 . S
H750 C735 0.961 . S
H751 C735 0.961 . S
H752 C736 0.931 . S
H753 C741 0.930 . S
H754 C742 0.956 . S
H755 C742 0.961 . S
H756 C742 0.961 . S
H757 C743 0.958 . S
H758 C743 0.961 . S
H759 C743 0.960 . S
C760 C761 1.391 . S
C760 C762 1.394 . S
C760 H776 0.931 . S
C761 C760 1.391 . S
C761 C765 1.376 . S
C762 C760 1.394 . S
C762 C763 1.369 . S
C762 C766 1.531 . S
C763 C762 1.369 . S
C763 C764 1.410 . S
C763 C771 1.503 . S
C764 C763 1.410 . S
C764 C765 1.392 . S
C764 C767 1.511 . S
C765 C761 1.376 . S
C765 C764 1.392 . S
C765 H777 0.929 . S
C766 C762 1.531 . S
C766 H778 0.960 . S
C766 H779 0.962 . S
C766 H780 0.960 . S
C767 C764 1.511 . S
C767 H781 0.966 . S
C767 H782 0.964 . S
C767 H783 0.961 1_556 S
C768 C769 1.370 . S
C768 C770 1.363 . S
C768 H784 0.931 . S
C769 C768 1.370 . S
C769 C773 1.408 . S
C770 C768 1.363 . S
C770 C771 1.370 . S
C770 C774 1.524 . S
C771 C763 1.503 . S
C771 C770 1.370 . S
C771 C772 1.403 . S
C772 C771 1.403 . S
C772 C773 1.404 . S
C772 C775 1.539 . S
C773 C769 1.408 . S
C773 C772 1.404 . S
C773 H785 0.930 . S
C774 C770 1.524 . S
C774 H786 0.956 . S
C774 H787 0.961 . S
C774 H788 0.961 . S
C775 C772 1.539 . S
C775 H789 0.958 . S
C775 H790 0.961 . S
C775 H791 0.960 . S
H776 C760 0.931 . S
H777 C765 0.929 . S
H778 C766 0.960 . S
H779 C766 0.962 . S
H780 C766 0.960 . S
H781 C767 0.966 . S
H782 C767 0.964 . S
H783 C767 0.961 1_554 S
H784 C768 0.931 . S
H785 C773 0.930 . S
H786 C774 0.956 . S
H787 C774 0.961 . S
H788 C774 0.961 . S
H789 C775 0.958 . S
H790 C775 0.961 . S
H791 C775 0.960 . S
C792 C793 1.391 . S
C792 C794 1.394 . S
C792 H808 0.931 1_655 S
C793 C792 1.391 . S
C793 C797 1.376 . S
C794 C792 1.394 . S
C794 C795 1.369 . S
C794 C798 1.531 1_655 S
C795 C794 1.369 . S
C795 C796 1.410 . S
C795 C803 1.503 . S
C796 C795 1.410 . S
C796 C797 1.392 . S
C796 C799 1.511 . S
C797 C793 1.376 . S
C797 C796 1.392 . S
C797 H809 0.929 . S
C798 C794 1.531 1_455 S
C798 H810 0.960 . S
C798 H811 0.962 . S
C798 H812 0.960 . S
C799 C796 1.511 . S
C799 H813 0.961 . S
C799 H814 0.961 . S
C799 H815 0.961 . S
C800 C801 1.370 . S
C800 C802 1.363 . S
C800 H816 0.927 1_655 S
C801 C800 1.370 . S
C801 C805 1.408 . S
C802 C800 1.363 . S
C802 C803 1.370 . S
C802 C806 1.516 1_655 S
C803 C795 1.503 . S
C803 C802 1.370 . S
C803 C804 1.403 . S
C804 C803 1.403 . S
C804 C805 1.404 . S
C804 C807 1.539 . S
C805 C801 1.408 . S
C805 C804 1.404 . S
C805 H817 0.930 . S
C806 C802 1.516 1_455 S
C806 H818 0.966 . S
C806 H819 0.946 1_455 S
C806 H820 0.974 . S
C807 C804 1.539 . S
C807 H821 0.958 . S
C807 H822 0.961 . S
C807 H823 0.960 . S
H808 C792 0.931 1_455 S
H809 C797 0.929 . S
H810 C798 0.960 . S
H811 C798 0.962 . S
H812 C798 0.960 . S
H813 C799 0.961 . S
H814 C799 0.961 . S
H815 C799 0.961 . S
H816 C800 0.927 1_455 S
H817 C805 0.930 . S
H818 C806 0.966 . S
H819 C806 0.946 1_655 S
H820 C806 0.974 . S
H821 C807 0.958 . S
H822 C807 0.961 . S
H823 C807 0.960 . S
C824 C825 1.391 . S
C824 C826 1.394 . S
C824 H840 0.931 . S
C825 C824 1.391 . S
C825 C829 1.376 . S
C826 C824 1.394 . S
C826 C827 1.369 . S
C826 C830 1.531 . S
C827 C826 1.369 . S
C827 C828 1.410 . S
C827 C835 1.503 . S
C828 C827 1.410 . S
C828 C829 1.392 . S
C828 C831 1.511 . S
C829 C825 1.376 . S
C829 C828 1.392 . S
C829 H841 0.929 . S
C830 C826 1.531 . S
C830 H842 0.960 . S
C830 H843 0.962 . S
C830 H844 0.960 . S
C831 C828 1.511 . S
C831 H845 0.961 . S
C831 H846 0.961 . S
C831 H847 0.961 . S
C832 C833 1.370 . S
C832 C834 1.363 . S
C832 H848 0.931 . S
C833 C832 1.370 . S
C833 C837 1.408 . S
C834 C832 1.363 . S
C834 C835 1.370 . S
C834 C838 1.524 . S
C835 C827 1.503 . S
C835 C834 1.370 . S
C835 C836 1.403 . S
C836 C835 1.403 . S
C836 C837 1.404 . S
C836 C839 1.539 . S
C837 C833 1.408 . S
C837 C836 1.404 . S
C837 H849 0.930 . S
C838 C834 1.524 . S
C838 H850 0.956 . S
C838 H851 0.961 . S
C838 H852 0.961 . S
C839 C836 1.539 . S
C839 H853 0.958 . S
C839 H854 0.961 . S
C839 H855 0.960 . S
H840 C824 0.931 . S
H841 C829 0.929 . S
H842 C830 0.960 . S
H843 C830 0.962 . S
H844 C830 0.960 . S
H845 C831 0.961 . S
H846 C831 0.961 . S
H847 C831 0.961 . S
H848 C832 0.931 . S
H849 C837 0.930 . S
H850 C838 0.956 . S
H851 C838 0.961 . S
H852 C838 0.961 . S
H853 C839 0.958 . S
H854 C839 0.961 . S
H855 C839 0.960 . S
C856 C857 1.391 . S
C856 C858 1.394 . S
C856 H872 0.931 . S
C857 C856 1.391 . S
C857 C861 1.376 . S
C858 C856 1.394 . S
C858 C859 1.369 . S
C858 C862 1.531 . S
C859 C858 1.369 . S
C859 C860 1.410 . S
C859 C867 1.503 . S
C860 C859 1.410 . S
C860 C861 1.392 . S
C860 C863 1.511 . S
C861 C857 1.376 . S
C861 C860 1.392 . S
C861 H873 0.929 . S
C862 C858 1.531 . S
C862 H874 0.960 . S
C862 H875 0.962 . S
C862 H876 0.960 . S
C863 C860 1.511 . S
C863 H877 0.961 . S
C863 H878 0.961 . S
C863 H879 0.961 . S
C864 C865 1.370 . S
C864 C866 1.363 . S
C864 H880 0.931 . S
C865 C864 1.370 . S
C865 C869 1.408 . S
C866 C864 1.363 . S
C866 C867 1.370 . S
C866 C870 1.524 . S
C867 C859 1.503 . S
C867 C866 1.370 . S
C867 C868 1.403 . S
C868 C867 1.403 . S
C868 C869 1.404 . S
C868 C871 1.539 . S
C869 C865 1.408 . S
C869 C868 1.404 . S
C869 H881 0.930 . S
C870 C866 1.524 . S
C870 H882 0.956 . S
C870 H883 0.961 . S
C870 H884 0.961 . S
C871 C868 1.539 . S
C871 H885 0.958 . S
C871 H886 0.961 . S
C871 H887 0.960 . S
H872 C856 0.931 . S
H873 C861 0.929 . S
H874 C862 0.960 . S
H875 C862 0.962 . S
H876 C862 0.960 . S
H877 C863 0.961 . S
H878 C863 0.961 . S
H879 C863 0.961 . S
H880 C864 0.931 . S
H881 C869 0.930 . S
H882 C870 0.956 . S
H883 C870 0.961 . S
H884 C870 0.961 . S
H885 C871 0.958 . S
H886 C871 0.961 . S
H887 C871 0.960 . S
C888 C889 1.391 . S
C888 C890 1.394 . S
C888 H904 0.931 . S
C889 C888 1.391 . S
C889 C893 1.376 . S
C890 C888 1.394 . S
C890 C891 1.369 . S
C890 C894 1.531 . S
C891 C890 1.369 . S
C891 C892 1.410 . S
C891 C899 1.503 . S
C892 C891 1.410 . S
C892 C893 1.392 . S
C892 C895 1.511 . S
C893 C889 1.376 . S
C893 C892 1.392 . S
C893 H905 0.929 . S
C894 C890 1.531 . S
C894 H906 0.960 . S
C894 H907 0.962 . S
C894 H908 0.960 . S
C895 C892 1.511 . S
C895 H909 0.961 . S
C895 H910 0.961 . S
C895 H911 0.961 . S
C896 C897 1.370 . S
C896 C898 1.363 . S
C896 H912 0.931 . S
C897 C896 1.370 . S
C897 C901 1.408 . S
C898 C896 1.363 . S
C898 C899 1.370 . S
C898 C902 1.524 . S
C899 C891 1.503 . S
C899 C898 1.370 . S
C899 C900 1.403 . S
C900 C899 1.403 . S
C900 C901 1.404 . S
C900 C903 1.539 . S
C901 C897 1.408 . S
C901 C900 1.404 . S
C901 H913 0.930 . S
C902 C898 1.524 . S
C902 H914 0.956 . S
C902 H915 0.961 . S
C902 H916 0.961 . S
C903 C900 1.539 . S
C903 H917 0.958 . S
C903 H918 0.961 . S
C903 H919 0.960 . S
H904 C888 0.931 . S
H905 C893 0.929 . S
H906 C894 0.960 . S
H907 C894 0.962 . S
H908 C894 0.960 . S
H909 C895 0.961 . S
H910 C895 0.961 . S
H911 C895 0.961 . S
H912 C896 0.931 . S
H913 C901 0.930 . S
H914 C902 0.956 . S
H915 C902 0.961 . S
H916 C902 0.961 . S
H917 C903 0.958 . S
H918 C903 0.961 . S
H919 C903 0.960 . S
C920 C921 1.391 . S
C920 C922 1.394 . S
C920 H936 0.931 . S
C921 C920 1.391 . S
C921 C925 1.376 . S
C922 C920 1.394 . S
C922 C923 1.369 . S
C922 C926 1.531 . S
C923 C922 1.369 . S
C923 C924 1.410 . S
C923 C931 1.503 . S
C924 C923 1.410 . S
C924 C925 1.392 . S
C924 C927 1.511 . S
C925 C921 1.376 . S
C925 C924 1.392 . S
C925 H937 0.929 . S
C926 C922 1.531 . S
C926 H938 0.960 . S
C926 H939 0.962 . S
C926 H940 0.960 . S
C927 C924 1.511 . S
C927 H941 0.961 . S
C927 H942 0.961 . S
C927 H943 0.961 . S
C928 C929 1.370 . S
C928 C930 1.363 . S
C928 H944 0.931 . S
C929 C928 1.370 . S
C929 C933 1.408 . S
C930 C928 1.363 . S
C930 C931 1.370 . S
C930 C934 1.524 . S
C931 C923 1.503 . S
C931 C930 1.370 . S
C931 C932 1.403 . S
C932 C931 1.403 . S
C932 C933 1.404 . S
C932 C935 1.539 . S
C933 C929 1.408 . S
C933 C932 1.404 . S
C933 H945 0.930 . S
C934 C930 1.524 . S
C934 H946 0.956 . S
C934 H947 0.961 . S
C934 H948 0.961 . S
C935 C932 1.539 . S
C935 H949 0.958 . S
C935 H950 0.961 . S
C935 H951 0.960 . S
H936 C920 0.931 . S
H937 C925 0.929 . S
H938 C926 0.960 . S
H939 C926 0.962 . S
H940 C926 0.960 . S
H941 C927 0.961 . S
H942 C927 0.961 . S
H943 C927 0.961 . S
H944 C928 0.931 . S
H945 C933 0.930 . S
H946 C934 0.956 . S
H947 C934 0.961 . S
H948 C934 0.961 . S
H949 C935 0.958 . S
H950 C935 0.961 . S
H951 C935 0.960 . S
C952 C953 1.391 . S
C952 C954 1.394 . S
C952 H968 0.931 . S
C953 C952 1.391 . S
C953 C957 1.376 . S
C954 C952 1.394 . S
C954 C955 1.369 . S
C954 C958 1.531 . S
C955 C954 1.369 . S
C955 C956 1.410 . S
C955 C963 1.503 . S
C956 C955 1.410 . S
C956 C957 1.392 . S
C956 C959 1.511 . S
C957 C953 1.376 . S
C957 C956 1.392 . S
C957 H969 0.929 . S
C958 C954 1.531 . S
C958 H970 0.960 . S
C958 H971 0.962 . S
C958 H972 0.960 . S
C959 C956 1.511 . S
C959 H973 0.961 . S
C959 H974 0.961 . S
C959 H975 0.961 . S
C960 C961 1.370 . S
C960 C962 1.363 . S
C960 H976 0.931 . S
C961 C960 1.370 . S
C961 C965 1.408 . S
C962 C960 1.363 . S
C962 C963 1.370 . S
C962 C966 1.524 . S
C963 C955 1.503 . S
C963 C962 1.370 . S
C963 C964 1.403 . S
C964 C963 1.403 . S
C964 C965 1.404 . S
C964 C967 1.539 . S
C965 C961 1.408 . S
C965 C964 1.404 . S
C965 H977 0.940 . S
C966 C962 1.524 . S
C966 H978 0.956 . S
C966 H979 0.961 . S
C966 H980 0.961 . S
C967 C964 1.539 . S
C967 H981 0.958 1_455 S
C967 H982 0.961 1_455 S
C967 H983 0.960 . S
H968 C952 0.931 . S
H969 C957 0.929 . S
H970 C958 0.960 . S
H971 C958 0.962 . S
H972 C958 0.960 . S
H973 C959 0.961 . S
H974 C959 0.961 . S
H975 C959 0.961 . S
H976 C960 0.931 . S
H977 C965 0.940 . S
H978 C966 0.956 . S
H979 C966 0.961 . S
H980 C966 0.961 . S
H981 C967 0.958 1_655 S
H982 C967 0.961 1_655 S
H983 C967 0.960 . S
C984 C985 1.391 . S
C984 C986 1.394 . S
C984 H1000 0.931 . S
C985 C984 1.391 . S
C985 C989 1.376 . S
C986 C984 1.394 . S
C986 C987 1.369 . S
C986 C990 1.531 . S
C987 C986 1.369 . S
C987 C988 1.410 . S
C987 C995 1.503 . S
C988 C987 1.410 . S
C988 C989 1.392 . S
C988 C991 1.511 . S
C989 C985 1.376 . S
C989 C988 1.392 . S
C989 H1001 0.929 . S
C990 C986 1.531 . S
C990 H1002 0.960 . S
C990 H1003 0.962 . S
C990 H1004 0.960 . S
C991 C988 1.511 . S
C991 H1005 0.961 . S
C991 H1006 0.961 . S
C991 H1007 0.961 . S
C992 C993 1.370 . S
C992 C994 1.363 . S
C992 H1008 0.931 . S
C993 C992 1.370 . S
C993 C997 1.408 . S
C994 C992 1.363 . S
C994 C995 1.370 . S
C994 C998 1.524 . S
C995 C987 1.503 . S
C995 C994 1.370 . S
C995 C996 1.403 . S
C996 C995 1.403 . S
C996 C997 1.404 . S
C996 C999 1.539 . S
C997 C993 1.408 . S
C997 C996 1.404 . S
C997 H1009 0.930 . S
C998 C994 1.524 . S
C998 H1010 0.956 . S
C998 H1011 0.961 . S
C998 H1012 0.961 . S
C999 C996 1.539 . S
C999 H1013 0.958 . S
C999 H1014 0.961 . S
C999 H1015 0.960 . S
H1000 C984 0.931 . S
H1001 C989 0.929 . S
H1002 C990 0.960 . S
H1003 C990 0.962 . S
H1004 C990 0.960 . S
H1005 C991 0.961 . S
H1006 C991 0.961 . S
H1007 C991 0.961 . S
H1008 C992 0.931 . S
H1009 C997 0.930 . S
H1010 C998 0.956 . S
H1011 C998 0.961 . S
H1012 C998 0.961 . S
H1013 C999 0.958 . S
H1014 C999 0.961 . S
H1015 C999 0.960 . S
C249 C5 1.133 . S
C257 C103 1.331 . S
C281 C18 1.150 . S
C289 C143 1.132 . S
C321 C177 2.124 . S
C313 C30 2.122 . S
C345 C41 2.323 . S
C353 C218 2.308 . S
C385 C138 1.494 . S
C377 C7 1.433 . S
C417 C98 2.174 . S
C409 C16 2.082 . S
C449 C226 1.637 . S
C441 C29 1.594 . S
C481 C187 1.449 . S
C473 C38 1.174 . S
C505 C8 1.350 . S
C513 C223 1.352 . S
C545 C146 2.211 1_556 S
C537 C27 2.033 . S
C569 C40 2.476 . S
C577 C106 2.418 . S
C601 C19 1.431 . S
C609 C174 1.411 . S
C641 C94 1.346 . S
C633 C51 1.120 . S
C665 C62 1.495 . S
C673 C134 1.429 . S
C697 C74 2.289 . S
C705 C186 2.287 . S
C729 C84 2.307 . S
C737 C227 2.339 . S
C761 C49 1.507 . S
C769 C147 1.858 1_556 S
C801 C107 2.145 . S
C793 C63 2.082 . S
C833 C217 1.488 . S
C825 C71 1.394 . S
C865 C178 1.623 . S
C857 C85 1.678 . S
C889 C52 1.238 . S
C897 C214 1.368 . S
C929 C137 2.259 . S
C921 C73 2.312 . S
C961 C97 2.035 . S
C953 C82 2.001 . S
C985 C60 1.523 . S
C993 C183 1.579 . S
