# Generated by pormake.
# Topology rtl, (3,6)-cn, num edge types: 1
# Building blocks:
#     Node 0, Type 0, BuildingBlock: WUSLED_clean_sbu_0, # of connection points: 3
#     Node 1, Type 0, BuildingBlock: WUSLED_clean_sbu_0, # of connection points: 3
#     Node 2, Type 0, BuildingBlock: WUSLED_clean_sbu_0, # of connection points: 3
#     Node 3, Type 0, BuildingBlock: WUSLED_clean_sbu_0, # of connection points: 3
#     Node 4, Type 1, BuildingBlock: KUMJIN_clean_sbu_1, # of connection points: 6
#     Node 5, Type 1, BuildingBlock: KUMJIN_clean_sbu_1, # of connection points: 6
#     Edge 6, Type (0, 1), BuildingBlock: XUDNAN_clean_linker_2, # of connection points: 2
#     Edge 7, Type (0, 1), BuildingBlock: XUDNAN_clean_linker_2, # of connection points: 2
#     Edge 8, Type (0, 1), BuildingBlock: XUDNAN_clean_linker_2, # of connection points: 2
#     Edge 9, Type (0, 1), BuildingBlock: XUDNAN_clean_linker_2, # of connection points: 2
#     Edge 10, Type (0, 1), BuildingBlock: XUDNAN_clean_linker_2, # of connection points: 2
#     Edge 11, Type (0, 1), BuildingBlock: XUDNAN_clean_linker_2, # of connection points: 2
#     Edge 12, Type (0, 1), BuildingBlock: XUDNAN_clean_linker_2, # of connection points: 2
#     Edge 13, Type (0, 1), BuildingBlock: XUDNAN_clean_linker_2, # of connection points: 2
#     Edge 14, Type (0, 1), BuildingBlock: XUDNAN_clean_linker_2, # of connection points: 2
#     Edge 15, Type (0, 1), BuildingBlock: XUDNAN_clean_linker_2, # of connection points: 2
#     Edge 16, Type (0, 1), BuildingBlock: XUDNAN_clean_linker_2, # of connection points: 2
#     Edge 17, Type (0, 1), BuildingBlock: XUDNAN_clean_linker_2, # of connection points: 2
# Relax obj value: 0.016
# Max RMSD: 0.102
# Mean RMSD: 0.058
data_MOF--net-rtl--node1-WUSLED_clean_sbu_0--node2-KUMJIN_clean_sbu_1--edge1-XUDNAN_clean_linker_2
_symmetry_space_group_name_H-M    P1
_symmetry_Int_Tables_number       1
_symmetry_cell_setting            triclinic
loop_
_symmetry_equiv_pos_as_xyz
'x, y, z'
_cell_length_a     42.21274
_cell_length_b     42.929854
_cell_length_c     36.523211
_cell_angle_alpha  81.08188
_cell_angle_beta   99.015334
_cell_angle_gamma 90.729926
loop_
_atom_site_label
_atom_site_type_symbol
_atom_site_fract_x
_atom_site_fract_y
_atom_site_fract_z
_atom_type_partial_charge
C0 C 0.16243 0.86452 0.08342 0.0
C1 C 0.13871 0.88674 0.08439 0.0
C2 C 0.14738 0.87637 0.15275 0.0
C3 C 0.13122 0.89261 0.11863 0.0
C4 C 0.17131 0.85407 0.15165 0.0
C5 C 0.1788 0.84821 0.11722 0.0
U6 U 0.20699 0.82369 0.01864 0.0
O7 O 0.25473 0.8144 0.05246 0.0
O8 O 0.21916 0.77674 0.05164 0.0
C9 C 0.24921 0.78422 0.06178 0.0
C10 C 0.16915 0.85869 0.04673 0.0
C11 C 0.27331 0.76256 0.05414 0.0
C12 C 0.30861 0.71674 0.07458 0.0
C13 C 0.28631 0.73789 0.08204 0.0
C14 C 0.30548 0.74505 1.01135 0.0
C15 C 0.31831 0.71991 0.03902 0.0
C16 C 0.28312 0.76605 0.01878 0.0
C17 C 0.18353 0.84761 0.91234 0.0
C18 C 0.16238 0.85479 0.84566 0.0
C19 C 0.15552 0.89618 0.88201 0.0
C20 C 0.1714 0.8775 0.91432 0.0
C21 C 0.15124 0.88523 0.84719 0.0
C22 C 0.17848 0.83621 0.87795 0.0
C23 C 0.20251 0.82861 0.94539 0.0
O24 O 0.16112 0.83083 0.03781 0.0
O25 O 0.19712 0.86816 0.03797 0.0
O26 O 0.2234 0.84423 0.96604 0.0
O27 O 0.18651 0.80778 0.96539 0.0
H28 H 0.12573 0.89945 0.05855 0.0
H29 H 0.11228 0.90948 0.11829 0.0
H30 H 0.18441 0.84133 0.17736 0.0
H31 H 0.19724 0.83095 0.11695 0.0
H32 H 0.31764 0.69747 0.09639 0.0
H33 H 0.27892 0.73477 0.10947 0.0
H34 H 0.31272 0.74857 0.98386 0.0
H35 H 0.27336 0.78496 0.99684 0.0
H36 H 0.15969 0.84579 0.81924 0.0
H37 H 0.14684 0.91935 0.88418 0.0
H38 H 0.17476 0.88663 0.94069 0.0
H39 H 0.18762 0.81317 0.8759 0.0
C40 C 0.67073 0.68393 0.72423 0.0
C41 C 0.64452 0.66558 0.71221 0.0
C42 C 0.63339 0.65252 0.7765 0.0
C43 C 0.62602 0.65009 0.73804 0.0
C44 C 0.66019 0.67035 0.78846 0.0
C45 C 0.67859 0.68593 0.76256 0.0
U46 U 0.69442 0.70182 0.62612 0.0
O47 O 0.70053 0.74716 0.59074 0.0
O48 O 0.74126 0.71405 0.60832 0.0
C49 C 0.73114 0.74204 0.59051 0.0
C50 C 0.68942 0.70175 0.69708 0.0
C51 C 0.75304 0.76935 0.59315 0.0
C52 C 0.80735 0.79032 0.60313 0.0
C53 C 0.78583 0.76531 0.60826 0.0
C54 C 0.76358 0.82409 0.56921 0.0
C55 C 0.79657 0.81964 0.58234 0.0
C56 C 0.74214 0.79931 0.5745 0.0
C57 C 0.65458 0.6539 0.55013 0.0
C58 C 0.67335 0.63893 0.49542 0.0
C59 C 0.61639 0.64239 0.49675 0.0
C60 C 0.62286 0.65118 0.53249 0.0
C61 C 0.64152 0.63588 0.47777 0.0
C62 C 0.67981 0.6479 0.53114 0.0
C63 C 0.66044 0.66183 0.58869 0.0
O64 O 0.71158 0.68561 0.68624 0.0
O65 O 0.67261 0.7206 0.66919 0.0
O66 O 0.64922 0.68928 0.59277 0.0
O67 O 0.68902 0.65505 0.60842 0.0
H68 H 0.63814 0.66354 0.68277 0.0
H69 H 0.60589 0.6362 0.72786 0.0
H70 H 0.66642 0.67301 0.81771 0.0
H71 H 0.69873 0.69998 0.77242 0.0
H72 H 0.83267 0.78612 0.61337 0.0
H73 H 0.79518 0.74247 0.62238 0.0
H74 H 0.75449 0.84648 0.55333 0.0
H75 H 0.71719 0.80322 0.5621 0.0
H76 H 0.69337 0.63376 0.48199 0.0
H77 H 0.5916 0.64086 0.48393 0.0
H78 H 0.60298 0.65569 0.54653 0.0
H79 H 0.70454 0.64975 0.544 0.0
C80 C 0.84207 0.1708 0.16017 0.0
C81 C 0.87453 0.16447 0.1595 0.0
C82 C 0.88116 0.13914 0.2247 0.0
C83 C 0.89391 0.14899 0.19153 0.0
C84 C 0.84831 0.14405 0.22477 0.0
C85 C 0.82896 0.15993 0.19278 0.0
U86 U 0.8186 0.19542 0.05463 0.0
O87 O 0.77157 0.20845 0.02008 0.0
O88 O 0.8108 0.24252 0.02111 0.0
C89 C 0.78034 0.23756 1.00961 0.0
C90 C 0.82218 0.18986 0.12775 0.0
C91 C 0.75798 0.26283 1.0126 0.0
C92 C 0.73926 0.30162 0.04674 0.0
C93 C 0.75895 0.27571 0.04586 0.0
C94 C 0.71689 0.3013 0.98156 0.0
C95 C 0.71844 0.31511 0.01433 0.0
C96 C 0.73648 0.2755 0.98073 0.0
C97 C 0.86354 0.15303 0.9914 0.0
C98 C 0.85603 0.1631 0.92318 0.0
C99 C 0.89659 0.12559 0.95751 0.0
C100 C 0.88804 0.13137 0.9913 0.0
C101 C 0.88075 0.14137 0.92295 0.0
C102 C 0.84749 0.16888 0.95716 0.0
C103 C 0.85567 0.15876 0.02767 0.0
O104 O 0.83758 0.21143 0.10792 0.0
O105 O 0.8014 0.17429 0.10693 0.0
O106 O 0.8267 0.1509 0.0344 0.0
O107 O 0.86497 0.18587 0.03793 0.0
H108 H 0.88514 0.17221 0.13452 0.0
H109 H 0.91908 0.14521 0.1906 0.0
H110 H 0.83792 0.13685 0.25002 0.0
H111 H 0.80395 0.16444 0.19382 0.0
H112 H 0.74112 0.31171 0.07238 0.0
H113 H 0.77542 0.26622 0.07081 0.0
H114 H 0.70067 0.31062 0.95633 0.0
H115 H 0.73528 0.26582 0.95486 0.0
H116 H 0.84312 0.17545 0.89713 0.0
H117 H 0.91609 0.10917 0.95854 0.0
H118 H 0.9008 0.11903 0.0175 0.0
H119 H 0.82846 0.1857 0.95673 0.0
C120 C 0.35696 0.33715 0.36046 0.0
C121 C 0.3636 0.36962 0.35547 0.0
C122 C 0.39507 0.36354 0.30621 0.0
C123 C 0.38232 0.3827 0.32848 0.0
C124 C 0.3882 0.33112 0.31125 0.0
C125 C 0.36934 0.31815 0.33795 0.0
U126 U 0.33445 0.32361 0.45985 0.0
O127 O 0.28748 0.31762 0.47897 0.0
O128 O 0.32352 0.27952 0.49512 0.0
C129 C 0.2942 0.28873 0.4964 0.0
C130 C 0.33729 0.32241 0.38866 0.0
C131 C 0.26881 0.26488 0.49253 0.0
C132 C 0.22038 0.24446 0.4593 0.0
C133 C 0.24499 0.26673 0.46076 0.0
C134 C 0.24316 0.21818 0.52116 0.0
C135 C 0.2191 0.2199 0.48955 0.0
C136 C 0.26766 0.24041 0.52259 0.0
C137 C 0.38063 0.36553 0.5368 0.0
C138 C 0.36391 0.38349 0.59101 0.0
C139 C 0.41868 0.36594 0.59418 0.0
C140 C 0.41161 0.35997 0.55721 0.0
C141 C 0.39495 0.37788 0.61147 0.0
C142 C 0.35677 0.37727 0.55411 0.0
C143 C 0.37401 0.35921 0.49759 0.0
O144 O 0.35235 0.30183 0.41608 0.0
O145 O 0.31759 0.34102 0.40006 0.0
O146 O 0.34643 0.36957 0.47764 0.0
O147 O 0.38168 0.33077 0.49259 0.0
H148 H 0.35449 0.38489 0.37252 0.0
H149 H 0.38735 0.40768 0.32554 0.0
H150 H 0.39719 0.31573 0.29426 0.0
H151 H 0.36445 0.29312 0.34108 0.0
H152 H 0.20211 0.24674 0.43464 0.0
H153 H 0.24521 0.28549 0.43726 0.0
H154 H 0.24334 0.19938 0.54469 0.0
H155 H 0.28573 0.23858 0.54744 0.0
H156 H 0.34504 0.39243 0.60367 0.0
H157 H 0.44292 0.36176 0.60898 0.0
H158 H 0.43047 0.3511 0.54447 0.0
H159 H 0.33259 0.3817 0.53922 0.0
Eu160 Eu 0.03557 0.97909 0.51415 0.0
C161 C 0.96489 0.108 0.50545 0.0
N162 N 0.99128 0.09807 0.53084 0.0
C163 C 0.01472 0.14912 0.51969 0.0
C164 C 0.96279 0.13892 0.4854 0.0
C165 C 0.01584 0.11815 0.53861 0.0
C166 C 0.98817 0.15952 0.49281 0.0
C167 C 0.91292 0.09614 0.472 0.0
C168 C 0.94036 0.08674 0.49867 0.0
C169 C 0.91088 0.12682 0.45169 0.0
C170 C 0.93573 0.14816 0.45839 0.0
Eu171 Eu 0.99283 0.04458 0.55889 0.0
N172 N 0.94356 0.05678 0.51782 0.0
C173 C 0.88824 0.07446 0.46674 0.0
C174 C 0.91848 0.03653 0.5149 0.0
C175 C 0.89079 0.04473 0.48881 0.0
H176 H 0.03627 0.1103 0.55961 0.0
H177 H 0.87126 0.02825 0.4861 0.0
H178 H 0.98745 0.91626 0.5193 0.0
H179 H 0.15809 0.99334 0.58508 0.0
H180 H 0.91914 0.01443 0.53331 0.0
H181 H 0.86677 0.08073 0.44652 0.0
H182 H 0.10804 0.01034 0.54317 0.0
H183 H 0.03437 0.16492 0.52579 0.0
H184 H 0.89008 0.13435 0.43089 0.0
H185 H 0.93377 0.17177 0.44255 0.0
H186 H 0.98972 0.86099 0.5511 0.0
H187 H 0.98746 0.18347 0.478 0.0
H188 H 0.16448 0.93843 0.61795 0.0
N189 N 0.03477 0.92644 0.54362 0.0
C190 C 0.06253 0.91523 0.56566 0.0
C191 C 1.0103 0.87602 0.55552 0.0
C192 C 0.06511 0.88363 0.58363 0.0
C193 C 1.00893 0.90742 0.53796 0.0
C194 C 0.03851 0.86405 0.57842 0.0
N195 N 0.08487 0.96633 0.55417 0.0
C196 C 0.10978 0.98671 0.55824 0.0
C197 C 0.11696 0.92473 0.59457 0.0
C198 C 0.08824 0.93566 0.57107 0.0
C199 C 0.1421 0.94591 0.59999 0.0
C200 C 0.13853 0.97697 0.58162 0.0
H201 H 0.03954 0.83967 0.59188 0.0
H202 H 0.09643 0.84837 0.62021 0.0
H203 H 0.14171 0.8843 0.62983 0.0
O204 O 0.06813 0.98316 0.47275 0.0
O205 O 0.03447 0.97125 0.5775 0.0
O206 O 0.03826 0.02139 0.59166 0.0
O207 O 0.03375 0.94561 0.47437 0.0
O208 O 0.05539 0.02873 0.50674 0.0
O209 O 0.04628 0.05247 0.55718 0.0
O210 O 0.96137 0.03752 0.60151 0.0
O211 O 0.99639 0.05464 0.49706 0.0
O212 O 0.99301 1.00626 0.47738 0.0
O213 O 0.99397 0.07648 0.60044 0.0
O214 O 0.97363 0.99376 0.5647 0.0
O215 O 0.98201 0.97645 0.51028 0.0
C216 C 0.04361 0.99104 0.60108 0.0
C217 C 0.04815 0.96588 0.41552 0.0
C218 C 0.05808 0.95547 0.35428 0.0
C219 C 0.03441 0.97819 0.33697 0.0
C220 C 0.02477 0.98842 0.39761 0.0
C221 C 0.01795 0.9945 0.35854 0.0
C222 C 0.06474 0.94942 0.39383 0.0
C223 C 0.06067 0.05126 0.52773 0.0
C224 C 0.05569 0.95978 0.45674 0.0
C225 C 0.09396 0.87262 0.60633 0.0
C226 C 0.11975 0.89311 0.61186 0.0
C227 C 0.98985 0.0371 0.47067 0.0
C228 C 0.98099 0.05403 0.65932 0.0
C229 C 0.97228 0.06376 0.72131 0.0
C230 C 0.99574 0.04058 0.73775 0.0
C231 C 1.00404 0.03091 0.67636 0.0
C232 C 0.96514 0.07038 0.6818 0.0
C233 C 1.01142 0.0243 0.71538 0.0
C234 C 0.96672 0.97502 0.53911 0.0
C235 C 0.97292 0.06086 0.61817 0.0
H236 H 0.02827 0.98306 0.3067 0.0
H237 H 1.01186 1.00131 0.41382 0.0
H238 H 0.99977 0.01189 0.34494 0.0
H239 H 0.08309 0.93229 0.40777 0.0
H240 H 1.0023 0.03525 0.76794 0.0
H241 H 0.01617 0.01792 0.65948 0.0
H242 H 0.94693 0.08785 0.66846 0.0
H243 H 0.02938 1.00651 0.72833 0.0
Eu244 Eu 0.48246 0.48139 1.01107 0.0
C245 C 0.62203 0.53708 0.07135 0.0
N246 N 0.60322 0.51515 0.08798 0.0
C247 C 0.6488 0.48108 0.1113 0.0
C248 C 0.65511 0.53144 0.07321 0.0
C249 C 0.6162 0.48798 0.10911 0.0
C250 C 0.66827 0.5027 0.09281 0.0
C251 C 0.62779 0.59033 0.03956 0.0
C252 C 0.60855 0.56608 0.05456 0.0
C253 C 0.66051 0.5844 0.03994 0.0
C254 C 0.67411 0.55498 0.05659 0.0
Eu255 Eu 0.54801 0.5275 0.07943 0.0
N256 N 0.57691 0.57112 0.05474 0.0
C257 C 0.61373 0.62005 0.02557 0.0
C258 C 0.56351 0.60053 0.04344 0.0
C259 C 0.58156 0.62527 0.02797 0.0
H260 H 0.60122 0.47139 0.12376 0.0
H261 H 0.57068 0.64834 0.01799 0.0
H262 H 0.41087 0.50261 0.02653 0.0
H263 H 0.54425 0.36624 0.04863 0.0
H264 H 0.5386 0.60446 0.0453 0.0
H265 H 0.6277 0.6393 0.01371 0.0
H266 H 0.53411 0.41974 0.01413 0.0
H267 H 0.6589 0.45917 0.12735 0.0
H268 H 0.67563 0.60263 0.02816 0.0
H269 H 0.69953 0.55099 0.05744 0.0
H270 H 0.36676 0.47933 0.05897 0.0
H271 H 0.69356 0.4974 0.09479 0.0
H272 H 0.50698 0.34238 0.09062 0.0
N273 N 0.44057 0.46173 0.04311 0.0
C274 C 0.44395 0.43163 0.06136 0.0
C275 C 0.3884 0.46576 0.06001 0.0
C276 C 0.41976 0.41768 0.08084 0.0
C277 C 0.41327 0.47884 0.04173 0.0
C278 C 0.39162 0.43503 0.07957 0.0
N279 N 0.49423 0.42856 0.04053 0.0
C280 C 0.51894 0.41081 0.03437 0.0
C281 C 0.47584 0.38354 0.07967 0.0
C282 C 0.47177 0.41483 0.0607 0.0
C283 C 0.50298 0.36644 0.07648 0.0
C284 C 0.52423 0.37991 0.05306 0.0
H285 H 0.37217 0.42488 0.09342 0.0
H286 H 0.40618 0.37603 0.11633 0.0
H287 H 0.45527 0.34615 0.11535 0.0
O288 O 0.47398 0.45313 0.96529 0.0
O289 O 0.47808 0.4883 0.07109 0.0
O290 O 0.52942 0.47954 0.09964 0.0
O291 O 0.4397 0.48877 0.9685 0.0
O292 O 0.53521 0.47646 1.00746 0.0
O293 O 0.5554 0.47776 0.06871 0.0
O294 O 0.52291 0.54169 0.12241 0.0
O295 O 0.54581 0.54659 0.01742 0.0
O296 O 0.5088 0.52014 0.97849 0.0
O297 O 0.57469 0.54199 0.13021 0.0
O298 O 0.50064 0.55411 0.05642 0.0
O299 O 0.46665 0.5311 1.01074 0.0
C300 C 0.49872 0.4758 0.1002 0.0
C301 C 0.44754 0.48104 0.90801 0.0
C302 C 0.4409 0.47211 0.84266 0.0
C303 C 0.44649 0.50436 0.83167 0.0
C304 C 0.4526 0.51314 0.89615 0.0
C305 C 0.45226 0.52466 0.85827 0.0
C306 C 0.44172 0.46055 0.88117 0.0
C307 C 0.55933 0.4728 0.03521 0.0
C308 C 0.44844 0.469 0.94829 0.0
C309 C 0.42431 0.38697 0.10076 0.0
C310 C 0.45233 0.37 0.1003 0.0
C311 C 0.53089 0.54172 0.98432 0.0
C312 C 0.55082 0.53333 0.18505 0.0
C313 C 0.56639 0.53971 0.25102 0.0
C314 C 0.55542 0.509 0.26161 0.0
C315 C 0.54039 0.50276 0.19639 0.0
C316 C 0.56376 0.55172 0.21239 0.0
C317 C 0.54247 0.49078 0.23446 0.0
C318 C 0.47465 0.5538 0.03085 0.0
C319 C 0.54924 0.54615 0.14493 0.0
H320 H 0.44677 0.51391 0.80248 0.0
H321 H 0.45668 0.52932 0.91627 0.0
H322 H 0.45647 0.54942 0.84948 0.0
H323 H 0.43739 0.43583 0.89025 0.0
H324 H 0.55748 0.49869 0.29089 0.0
H325 H 0.5309 0.48812 0.17585 0.0
H326 H 0.57166 0.57541 0.20346 0.0
H327 H 0.53436 0.46712 0.24296 0.0
H328 H 0.18667 0.19222 0.5464 0.0
H329 H 0.19359 0.19214 0.42899 0.0
H330 H 0.15266 0.1508 0.42615 0.0
H331 H 0.17865 0.109 0.57066 0.0
H332 H 0.15034 0.11154 0.60228 0.0
H333 H 0.17889 0.14252 0.59494 0.0
H334 H 0.13246 0.18357 0.57581 0.0
H335 H 0.10372 0.15269 0.58301 0.0
H336 H 0.10051 0.17814 0.53842 0.0
H337 H 0.11331 0.10802 0.43628 0.0
H338 H 0.07676 0.06683 0.45816 0.0
H339 H 0.09481 0.09315 0.56965 0.0
C340 C 0.1796 0.18352 0.52007 0.0
C341 C 0.1934 0.19568 0.48782 0.0
C342 C 0.18313 0.18374 0.4539 0.0
C343 C 0.15999 0.16007 0.45205 0.0
C344 C 0.14715 0.14851 0.48433 0.0
C345 C 0.15642 0.15986 0.5177 0.0
C346 C 0.13917 0.14275 0.54841 0.0
C347 C 0.1632 0.12543 0.581 0.0
C348 C 0.11769 0.16566 0.56222 0.0
C349 C 0.11919 0.11967 0.52719 0.0
C350 C 0.12418 0.12361 0.49024 0.0
C351 C 0.10913 0.1048 0.4651 0.0
C352 C 0.08847 0.08131 0.47796 0.0
C353 C 0.08279 0.07667 0.5157 0.0
C354 C 0.09837 0.09627 0.54059 0.0
H355 H 0.37186 0.69086 0.08451 0.0
H356 H 0.31513 0.69528 0.97375 0.0
H357 H 0.35133 0.65629 0.95866 0.0
H358 H 0.44981 0.68064 0.05673 0.0
H359 H 0.46455 0.65319 0.0983 0.0
H360 H 0.4353 0.6829 0.10013 0.0
H361 H 0.39751 0.6396 0.12553 0.0
H362 H 0.42671 0.60981 0.12396 0.0
H363 H 0.38636 0.60762 0.09959 0.0
H364 H 0.39155 0.61525 0.95618 0.0
H365 H 0.43305 0.57367 0.96681 0.0
H366 H 0.46426 0.5947 0.07934 0.0
C367 C 0.36703 0.68364 0.05708 0.0
C368 C 0.34071 0.69651 0.03019 0.0
C369 C 0.33543 0.68641 0.99458 0.0
C370 C 0.35579 0.66411 0.98577 0.0
C371 C 0.38143 0.65199 1.01282 0.0
C372 C 0.38716 0.6613 0.04777 0.0
C373 C 0.41586 0.64365 0.07209 0.0
C374 C 0.44299 0.66646 0.08241 0.0
C375 C 0.40601 0.624 0.10737 0.0
C376 C 0.42503 0.6227 0.04545 0.0
C377 C 0.40487 0.62808 1.01138 0.0
C378 C 0.4076 0.61092 0.98265 0.0
C379 C 0.43124 0.58728 0.98904 0.0
C380 C 0.45196 0.58091 0.02391 0.0
C381 C 0.44908 0.59927 0.05225 0.0
H382 H 0.84779 0.84519 0.62533 0.0
H383 H 0.79766 0.84932 0.51143 0.0
H384 H 0.83508 0.88968 0.48906 0.0
H385 H 0.86358 0.92923 0.61859 0.0
H386 H 0.90283 0.92428 0.64663 0.0
H387 H 0.87246 0.89517 0.65433 0.0
H388 H 0.9106 0.85154 0.64418 0.0
H389 H 0.94107 0.88056 0.6366 0.0
H390 H 0.9279 0.85589 0.60158 0.0
H391 H 0.87841 0.92764 0.47801 0.0
H392 H 0.92435 0.96365 0.47927 0.0
H393 H 0.9461 0.93859 0.60031 0.0
C394 C 0.8448 0.85465 0.59572 0.0
C395 C 0.81961 0.84424 0.57013 0.0
C396 C 0.81643 0.85723 0.53161 0.0
C397 C 0.83767 0.88007 0.51858 0.0
C398 C 0.86201 0.89002 0.5444 0.0
C399 C 0.86569 0.87799 0.58219 0.0
C400 C 0.89382 0.89345 0.60375 0.0
C401 C 0.88248 0.91161 0.63253 0.0
C402 C 0.91989 0.86889 0.62264 0.0
C403 C 0.9053 0.91583 0.57209 0.0
C404 C 0.88666 0.91311 0.5381 0.0
C405 C 0.89304 0.93018 0.50447 0.0
C406 C 0.91924 0.9505 0.50546 0.0
C407 C 0.93858 0.95406 0.53987 0.0
C408 C 0.93135 0.93667 0.5737 0.0
H409 H 0.68447 0.32976 0.06854 0.0
H410 H 0.70874 0.36619 0.95885 0.0
H411 H 0.67443 0.41286 0.95532 0.0
H412 H 0.60368 0.35254 0.04883 0.0
H413 H 0.6013 0.36375 0.09392 0.0
H414 H 0.63017 0.33445 0.09001 0.0
H415 H 0.67613 0.36713 0.1204 0.0
H416 H 0.64735 0.39651 0.12472 0.0
H417 H 0.68076 0.40774 0.10045 0.0
H418 H 0.63408 0.45303 0.96063 0.0
H419 H 0.58994 0.48418 0.97486 0.0
H420 H 0.59249 0.42347 0.08182 0.0
C421 C 0.68306 0.34786 0.04413 0.0
C422 C 0.69919 0.34412 0.01385 0.0
C423 C 0.69625 0.36818 0.98214 0.0
C424 C 0.67705 0.39498 0.98001 0.0
C425 C 0.66107 0.39769 1.00996 0.0
C426 C 0.66397 0.37493 0.04156 0.0
C427 C 0.6427 0.38291 0.06882 0.0
C428 C 0.61799 0.35687 0.07578 0.0
C429 C 0.66296 0.38893 0.10579 0.0
C430 C 0.62673 0.41311 0.04704 0.0
C431 C 0.63799 0.42136 1.01332 0.0
C432 C 0.62545 0.44712 0.98719 0.0
C433 C 0.6004 0.46462 0.99544 0.0
C434 C 0.5883 0.45644 0.02958 0.0
C435 C 0.60198 0.43067 0.05596 0.0
H436 H 0.13272 0.93322 0.17228 0.0
H437 H 0.1415 0.8331 0.21523 0.0
H438 H 0.12323 0.84279 0.27359 0.0
H439 H 0.15747 0.96135 0.26193 0.0
H440 H 0.129 0.99366 0.25049 0.0
H441 H 0.14551 0.97908 0.21372 0.0
H442 H 0.08808 0.97006 0.18021 0.0
H443 H 0.07141 0.9845 0.21688 0.0
H444 H 0.06085 0.94595 0.20547 0.0
H445 H 0.1001 0.86319 0.32555 0.0
H446 H 0.07426 0.89244 0.36635 0.0
H447 H 0.08057 0.97903 0.28892 0.0
C448 C 0.13093 0.91329 0.19397 0.0
C449 C 0.1386 0.88236 0.18907 0.0
C450 C 0.13623 0.85706 0.21845 0.0
C451 C 0.12572 0.86232 0.25166 0.0
C452 C 0.11781 0.89303 0.25521 0.0
C453 C 0.12047 0.9181 0.22719 0.0
C454 C 0.10922 0.94864 0.23713 0.0
C455 C 0.13696 0.97206 0.24105 0.0
C456 C 0.0807 0.96312 0.20821 0.0
C457 C 0.09906 0.93677 0.27472 0.0
C458 C 0.10447 0.90469 0.2849 0.0
C459 C 0.09607 0.88837 0.31801 0.0
C460 C 0.08152 0.90522 0.34112 0.0
C461 C 0.07534 0.93806 0.33093 0.0
C462 C 0.08465 0.95392 0.29742 0.0
H463 H 0.6516 0.62108 0.84882 0.0
H464 H 0.56772 0.65026 0.76594 0.0
H465 H 0.53275 0.62618 0.81045 0.0
H466 H 0.62052 0.54628 0.88661 0.0
H467 H 0.63849 0.54826 0.93431 0.0
H468 H 0.65714 0.56773 0.89598 0.0
H469 H 0.65529 0.62111 0.92107 0.0
H470 H 0.63764 0.60088 0.95968 0.0
H471 H 0.61764 0.63491 0.93053 0.0
H472 H 0.50661 0.59911 0.86386 0.0
H473 H 0.49141 0.56991 0.92222 0.0
H474 H 0.59171 0.55808 0.97096 0.0
C475 C 0.62587 0.62259 0.84009 0.0
C476 C 0.6125 0.63754 0.80366 0.0
C477 C 0.57866 0.63858 0.79335 0.0
C478 C 0.55854 0.62515 0.81858 0.0
C479 C 0.57249 0.61068 0.85417 0.0
C480 C 0.60537 0.6092 0.86495 0.0
C481 C 0.61415 0.59186 0.90476 0.0
C482 C 0.63373 0.56175 0.90543 0.0
C483 C 0.63223 0.61353 0.93051 0.0
C484 C 0.58107 0.58402 0.91474 0.0
C485 C 0.5574 0.59505 0.88506 0.0
C486 C 0.52497 0.59022 0.88717 0.0
C487 C 0.51652 0.57333 0.92024 0.0
C488 C 0.5403 0.56132 0.95075 0.0
C489 C 0.573 0.56719 0.94812 0.0
H490 H 0.87367 0.0855 0.27514 0.0
H491 H 0.93701 0.16437 0.2537 0.0
H492 H 0.97268 0.14515 0.31289 0.0
H493 H 0.88138 0.08319 0.37455 0.0
H494 H 0.8814 0.0408 0.38566 0.0
H495 H 0.86083 0.06008 0.3411 0.0
H496 H 0.89403 0.02707 0.30657 0.0
H497 H 0.91478 0.00767 0.35102 0.0
H498 H 0.93723 0.02764 0.31642 0.0
H499 H 0.99896 0.12046 0.37592 0.0
H500 H 0.01688 0.0891 0.4381 0.0
H501 H 0.93946 0.02351 0.41816 0.0
C502 C 0.89515 0.09856 0.28295 0.0
C503 C 0.90273 0.12636 0.2598 0.0
C504 C 0.93102 0.14283 0.2708 0.0
C505 C 0.95134 0.13217 0.30441 0.0
C506 C 0.94327 0.10476 0.32658 0.0
C507 C 0.91607 0.08792 0.31628 0.0
C508 C 0.9132 0.05916 0.34554 0.0
C509 C 0.88237 0.06093 0.36272 0.0
C510 C 0.91491 0.02857 0.32889 0.0
C511 C 0.94279 0.06277 0.37398 0.0
C512 C 0.95957 0.08943 0.36248 0.0
C513 C 0.98644 0.09918 0.38491 0.0
C514 C 0.99643 0.08125 0.42011 0.0
C515 C 0.97997 0.05361 0.43227 0.0
C516 C 0.95295 0.04407 0.40885 0.0
H517 H 0.37785 0.43037 0.63854 0.0
H518 H 0.43022 0.34165 0.67237 0.0
H519 H 0.44529 0.35457 0.73645 0.0
H520 H 0.43335 0.47603 0.68959 0.0
H521 H 0.40344 0.5003 0.70206 0.0
H522 H 0.39508 0.4831 0.65971 0.0
H523 H 0.34428 0.45685 0.68181 0.0
H524 H 0.35244 0.47406 0.72423 0.0
H525 H 0.34778 0.43202 0.72687 0.0
H526 H 0.45648 0.37844 0.79636 0.0
H527 H 0.46415 0.41193 0.84631 0.0
H528 H 0.40371 0.48451 0.77317 0.0
C529 C 0.39202 0.4134 0.65959 0.0
C530 C 0.40278 0.38495 0.65047 0.0
C531 C 0.4219 0.3637 0.67865 0.0
C532 C 0.43041 0.37074 0.71517 0.0
C533 C 0.41962 0.39914 0.72312 0.0
C534 C 0.40083 0.42012 0.6961 0.0
C535 C 0.39359 0.44968 0.7113 0.0
C536 C 0.40718 0.479 0.68936 0.0
C537 C 0.35737 0.45335 0.71104 0.0
C538 C 0.41155 0.44224 0.75095 0.0
C539 C 0.42621 0.41289 0.75738 0.0
C540 C 0.44488 0.40136 0.79171 0.0
C541 C 0.44897 0.42048 0.82001 0.0
C542 C 0.43459 0.45089 0.81374 0.0
C543 C 0.41531 0.46154 0.77881 0.0
H544 H 0.59348 0.59671 0.45214 0.0
H545 H 0.67369 0.65178 0.41756 0.0
H546 H 0.66281 0.63401 0.35573 0.0
H547 H 0.60418 0.53128 0.40622 0.0
H548 H 0.5619 0.52525 0.39263 0.0
H549 H 0.57579 0.54255 0.43404 0.0
H550 H 0.53847 0.591 0.40793 0.0
H551 H 0.52438 0.5738 0.36647 0.0
H552 H 0.54121 0.61275 0.36218 0.0
H553 H 0.64371 0.60917 0.29773 0.0
H554 H 0.6181 0.57934 0.24866 0.0
H555 H 0.54872 0.54273 0.32011 0.0
C556 C 0.60856 0.60544 0.43149 0.0
C557 C 0.63455 0.62568 0.44001 0.0
C558 C 0.65395 0.63593 0.41214 0.0
C559 C 0.64781 0.62614 0.37675 0.0
C560 C 0.62206 0.60618 0.36942 0.0
C561 C 0.60269 0.59604 0.39598 0.0
C562 C 0.57669 0.57444 0.38118 0.0
C563 C 0.57985 0.54143 0.40493 0.0
C564 C 0.54321 0.58887 0.37933 0.0
C565 C 0.58464 0.57377 0.34226 0.0
C566 C 0.61084 0.59227 0.33596 0.0
C567 C 0.62299 0.59483 0.30227 0.0
C568 C 0.60809 0.57793 0.2744 0.0
C569 C 0.58121 0.55866 0.28022 0.0
C570 C 0.56937 0.5569 0.31469 0.0
H571 H 0.89793 0.08485 0.90434 0.0
H572 H 0.88656 0.18468 0.86052 0.0
H573 H 0.90598 0.17539 0.80269 0.0
H574 H 0.97087 0.07389 0.87135 0.0
H575 H 0.96132 0.03504 0.86027 0.0
H576 H 0.94424 0.04917 0.89688 0.0
H577 H 0.88712 0.03863 0.86366 0.0
H578 H 0.90404 0.02436 0.82698 0.0
H579 H 0.87476 0.05596 0.81538 0.0
H580 H 0.92991 0.15552 0.75106 0.0
H581 H 0.95578 0.12672 0.70993 0.0
H582 H 0.95132 0.03996 0.78771 0.0
C583 C 0.89946 0.10482 0.88261 0.0
C584 C 0.89063 0.13554 0.8871 0.0
C585 C 0.89269 0.16087 0.85764 0.0
C586 C 0.90388 0.15585 0.82473 0.0
C587 C 0.91282 0.12534 0.82155 0.0
C588 C 0.91058 0.10024 0.84966 0.0
C589 C 0.92262 0.06993 0.8399 0.0
C590 C 0.95148 0.05621 0.86882 0.0
C591 C 0.89551 0.0458 0.83626 0.0
C592 C 0.93254 0.08197 0.80219 0.0
C593 C 0.92653 0.11395 0.79195 0.0
C594 C 0.93443 0.13041 0.75866 0.0
C595 C 0.94899 0.11379 0.73535 0.0
C596 C 0.95561 0.08101 0.74542 0.0
C597 C 0.94695 0.06503 0.77925 0.0
H598 H 0.38653 0.41902 0.25568 0.0
H599 H 0.45067 0.33824 0.29313 0.0
H600 H 0.48406 0.35854 0.24516 0.0
H601 H 0.38781 0.42269 0.1602 0.0
H602 H 0.38825 0.46513 0.14795 0.0
H603 H 0.37017 0.44725 0.18747 0.0
H604 H 0.4065 0.47761 0.23265 0.0
H605 H 0.42398 0.49748 0.19355 0.0
H606 H 0.44936 0.47665 0.234 0.0
H607 H 0.51093 0.38764 0.19364 0.0
H608 H 0.52803 0.42242 0.13993 0.0
H609 H 0.44519 0.483 0.13282 0.0
C610 C 0.40786 0.40585 0.25415 0.0
C611 C 0.41587 0.37692 0.27821 0.0
C612 C 0.44375 0.36021 0.2748 0.0
C613 C 0.46303 0.37167 0.24777 0.0
C614 C 0.45422 0.39995 0.22421 0.0
C615 C 0.42737 0.41691 0.22714 0.0
C616 C 0.42271 0.44609 0.19736 0.0
C617 C 0.39032 0.44525 0.17166 0.0
C618 C 0.42582 0.47624 0.21549 0.0
C619 C 0.45069 0.44248 0.17672 0.0
C620 C 0.46892 0.41602 0.19324 0.0
C621 C 0.49677 0.40834 0.18039 0.0
C622 C 0.50635 0.42825 0.14996 0.0
C623 C 0.4878 0.45518 0.13213 0.0
C624 C 0.45954 0.46229 0.14565 0.0
H625 H 0.10636 0.87065 0.78889 0.0
H626 H 0.16464 0.94717 0.82631 0.0
H627 H 0.14343 0.98194 0.76752 0.0
H628 H 0.11491 0.88675 0.69228 0.0
H629 H 0.0739 0.87735 0.67541 0.0
H630 H 0.09319 0.8589 0.72088 0.0
H631 H 0.04682 0.87897 0.75038 0.0
H632 H 0.02795 0.89767 0.70469 0.0
H633 H 0.03729 0.92053 0.74234 0.0
H634 H 0.11712 0.00814 0.7049 0.0
H635 H 0.08609 0.02501 0.64221 0.0
H636 H 0.04503 0.93167 0.64351 0.0
C637 C 0.11461 0.89474 0.78466 0.0
C638 C 0.13711 0.90623 0.81228 0.0
C639 C 0.14711 0.93797 0.80584 0.0
C640 C 0.13534 0.95785 0.77243 0.0
C641 C 0.11343 0.94575 0.74572 0.0
C642 C 0.10289 0.91506 0.75149 0.0
C643 C 0.07898 0.90819 0.71816 0.0
C644 C 0.09101 0.8812 0.70061 0.0
C645 C 0.04579 0.90091 0.72959 0.0
C646 C 0.07857 0.93952 0.69227 0.0
C647 C 0.09837 0.9609 0.70908 0.0
C648 C 0.10153 0.99165 0.69144 0.0
C649 C 0.08376 1.001 0.65581 0.0
C650 C 0.06313 0.97967 0.63797 0.0
C651 C 0.06079 0.94839 0.65634 0.0
loop_
_geom_bond_atom_site_label_1
_geom_bond_atom_site_label_2
_geom_bond_distance
_geom_bond_site_symmetry_2
_ccdc_geom_bond_type
C0 C1 1.264 . S
C0 C5 1.479 . S
C0 C10 1.465 . S
C1 C0 1.264 . S
C1 C3 1.339 . S
C1 H28 0.931 . S
C2 C3 1.395 . S
C2 C4 1.320 . S
C3 C1 1.339 . S
C3 C2 1.395 . S
C3 H29 0.929 . S
C4 C2 1.320 . S
C4 C5 1.405 . S
C4 H30 0.930 . S
C5 C0 1.479 . S
C5 C4 1.405 . S
C5 H31 0.931 . S
U6 O7 2.454 . S
U6 O8 2.456 1_554 S
U6 C9 2.984 . S
U6 C10 2.847 . S
U6 C23 2.882 1_554 S
U6 O24 2.441 . S
U6 O25 2.420 . S
U6 O26 2.455 1_554 S
U6 O27 2.449 1_554 S
O7 U6 2.454 . S
O7 C9 1.353 . S
O8 U6 2.456 1_556 S
O8 C9 1.283 1_556 S
C9 U6 2.984 . S
C9 O7 1.353 . S
C9 O8 1.283 1_554 S
C9 C11 1.363 . S
C10 C0 1.465 . S
C10 U6 2.847 . S
C10 O24 1.249 . S
C10 O25 1.202 . S
C11 C9 1.363 . S
C11 C13 1.408 . S
C11 C16 1.342 . S
C12 C13 1.310 . S
C12 C15 1.461 . S
C12 H32 0.932 . S
C13 C11 1.408 . S
C13 C12 1.310 . S
C13 H33 0.930 . S
C14 C15 1.474 . S
C14 C16 1.285 . S
C14 H34 0.929 1_554 S
C15 C12 1.461 . S
C15 C14 1.474 . S
C16 C11 1.342 . S
C16 C14 1.285 . S
C16 H35 0.930 1_554 S
C17 C20 1.424 . S
C17 C22 1.245 . S
C17 C23 1.428 . S
C18 C21 1.260 . S
C18 C22 1.477 . S
C18 H36 0.932 . S
C19 C20 1.384 . S
C19 C21 1.479 . S
C19 H37 0.929 . S
C20 C17 1.424 . S
C20 C19 1.384 . S
C20 H38 0.928 . S
C21 C18 1.260 . S
C21 C19 1.479 . S
C22 C17 1.245 . S
C22 C18 1.477 . S
C22 H39 0.932 . S
C23 U6 2.882 1_556 S
C23 C17 1.428 . S
C23 O26 1.301 . S
C23 O27 1.282 . S
O24 U6 2.441 . S
O24 C10 1.249 . S
O25 U6 2.420 . S
O25 C10 1.202 . S
O26 U6 2.455 1_556 S
O26 C23 1.301 . S
O27 U6 2.449 1_556 S
O27 C23 1.282 . S
H28 C1 0.931 . S
H29 C3 0.929 . S
H30 C4 0.930 . S
H31 C5 0.931 . S
H32 C12 0.932 . S
H33 C13 0.930 . S
H34 C14 0.929 1_556 S
H35 C16 0.930 1_556 S
H36 C18 0.932 . S
H37 C19 0.929 . S
H38 C20 0.928 . S
H39 C22 0.932 . S
C40 C41 1.264 . S
C40 C45 1.479 . S
C40 C50 1.465 . S
C41 C40 1.264 . S
C41 C43 1.339 . S
C41 H68 0.931 . S
C42 C43 1.395 . S
C42 C44 1.320 . S
C43 C41 1.339 . S
C43 C42 1.395 . S
C43 H69 0.929 . S
C44 C42 1.320 . S
C44 C45 1.405 . S
C44 H70 0.930 . S
C45 C40 1.479 . S
C45 C44 1.405 . S
C45 H71 0.931 . S
U46 O47 2.454 . S
U46 O48 2.458 . S
U46 C49 2.984 . S
U46 C50 2.847 . S
U46 C63 2.882 . S
U46 O64 2.441 . S
U46 O65 2.420 . S
U46 O66 2.455 . S
U46 O67 2.449 . S
O47 U46 2.454 . S
O47 C49 1.353 . S
O48 U46 2.458 . S
O48 C49 1.286 . S
C49 U46 2.984 . S
C49 O47 1.353 . S
C49 O48 1.286 . S
C49 C51 1.363 . S
C50 C40 1.465 . S
C50 U46 2.847 . S
C50 O64 1.249 . S
C50 O65 1.202 . S
C51 C49 1.363 . S
C51 C53 1.408 . S
C51 C56 1.342 . S
C52 C53 1.310 . S
C52 C55 1.461 . S
C52 H72 0.932 . S
C53 C51 1.408 . S
C53 C52 1.310 . S
C53 H73 0.930 . S
C54 C55 1.474 . S
C54 C56 1.285 . S
C54 H74 0.929 . S
C55 C52 1.461 . S
C55 C54 1.474 . S
C56 C51 1.342 . S
C56 C54 1.285 . S
C56 H75 0.930 . S
C57 C60 1.424 . S
C57 C62 1.245 . S
C57 C63 1.428 . S
C58 C61 1.260 . S
C58 C62 1.477 . S
C58 H76 0.932 . S
C59 C60 1.384 . S
C59 C61 1.479 . S
C59 H77 0.929 . S
C60 C57 1.424 . S
C60 C59 1.384 . S
C60 H78 0.928 . S
C61 C58 1.260 . S
C61 C59 1.479 . S
C62 C57 1.245 . S
C62 C58 1.477 . S
C62 H79 0.932 . S
C63 U46 2.882 . S
C63 C57 1.428 . S
C63 O66 1.301 . S
C63 O67 1.282 . S
O64 U46 2.441 . S
O64 C50 1.249 . S
O65 U46 2.420 . S
O65 C50 1.202 . S
O66 U46 2.455 . S
O66 C63 1.301 . S
O67 U46 2.449 . S
O67 C63 1.282 . S
H68 C41 0.931 . S
H69 C43 0.929 . S
H70 C44 0.930 . S
H71 C45 0.931 . S
H72 C52 0.932 . S
H73 C53 0.930 . S
H74 C54 0.929 . S
H75 C56 0.930 . S
H76 C58 0.932 . S
H77 C59 0.929 . S
H78 C60 0.928 . S
H79 C62 0.932 . S
C80 C81 1.264 . S
C80 C85 1.479 . S
C80 C90 1.465 . S
C81 C80 1.264 . S
C81 C83 1.339 . S
C81 H108 0.931 . S
C82 C83 1.395 . S
C82 C84 1.320 . S
C83 C81 1.339 . S
C83 C82 1.395 . S
C83 H109 0.929 . S
C84 C82 1.320 . S
C84 C85 1.405 . S
C84 H110 0.930 . S
C85 C80 1.479 . S
C85 C84 1.405 . S
C85 H111 0.931 . S
U86 O87 2.454 . S
U86 O88 2.457 . S
U86 C89 2.984 . S
U86 C90 2.847 . S
U86 C103 2.882 1_554 S
U86 O104 2.441 . S
U86 O105 2.420 . S
U86 O106 2.455 1_554 S
U86 O107 2.449 . S
O87 U86 2.454 . S
O87 C89 1.353 . S
O88 U86 2.457 . S
O88 C89 1.285 . S
C89 U86 2.984 . S
C89 O87 1.353 . S
C89 O88 1.285 . S
C89 C91 1.363 . S
C90 C80 1.465 . S
C90 U86 2.847 . S
C90 O104 1.249 . S
C90 O105 1.202 . S
C91 C89 1.363 . S
C91 C93 1.408 . S
C91 C96 1.342 1_554 S
C92 C93 1.310 . S
C92 C95 1.461 . S
C92 H112 0.932 . S
C93 C91 1.408 . S
C93 C92 1.310 . S
C93 H113 0.930 . S
C94 C95 1.474 1_556 S
C94 C96 1.285 . S
C94 H114 0.929 . S
C95 C92 1.461 . S
C95 C94 1.474 1_554 S
C96 C91 1.342 1_556 S
C96 C94 1.285 . S
C96 H115 0.930 . S
C97 C100 1.424 . S
C97 C102 1.245 . S
C97 C103 1.428 . S
C98 C101 1.260 . S
C98 C102 1.477 . S
C98 H116 0.932 . S
C99 C100 1.384 . S
C99 C101 1.479 . S
C99 H117 0.929 . S
C100 C97 1.424 . S
C100 C99 1.384 . S
C100 H118 0.928 . S
C101 C98 1.260 . S
C101 C99 1.479 . S
C102 C97 1.245 . S
C102 C98 1.477 . S
C102 H119 0.932 . S
C103 U86 2.882 1_556 S
C103 C97 1.428 . S
C103 O106 1.301 . S
C103 O107 1.282 1_556 S
O104 U86 2.441 . S
O104 C90 1.249 . S
O105 U86 2.420 . S
O105 C90 1.202 . S
O106 U86 2.455 1_556 S
O106 C103 1.301 . S
O107 U86 2.449 . S
O107 C103 1.282 1_554 S
H108 C81 0.931 . S
H109 C83 0.929 . S
H110 C84 0.930 . S
H111 C85 0.931 . S
H112 C92 0.932 . S
H113 C93 0.930 . S
H114 C94 0.929 . S
H115 C96 0.930 . S
H116 C98 0.932 . S
H117 C99 0.929 . S
H118 C100 0.928 . S
H119 C102 0.932 . S
C120 C121 1.264 . S
C120 C125 1.479 . S
C120 C130 1.465 . S
C121 C120 1.264 . S
C121 C123 1.339 . S
C121 H148 0.931 . S
C122 C123 1.395 . S
C122 C124 1.320 . S
C123 C121 1.339 . S
C123 C122 1.395 . S
C123 H149 0.929 . S
C124 C122 1.320 . S
C124 C125 1.405 . S
C124 H150 0.930 . S
C125 C120 1.479 . S
C125 C124 1.405 . S
C125 H151 0.931 . S
U126 O127 2.454 . S
U126 O128 2.458 . S
U126 C129 2.984 . S
U126 C130 2.847 . S
U126 C143 2.882 . S
U126 O144 2.441 . S
U126 O145 2.420 . S
U126 O146 2.455 . S
U126 O147 2.449 . S
O127 U126 2.454 . S
O127 C129 1.353 . S
O128 U126 2.458 . S
O128 C129 1.286 . S
C129 U126 2.984 . S
C129 O127 1.353 . S
C129 O128 1.286 . S
C129 C131 1.363 . S
C130 C120 1.465 . S
C130 U126 2.847 . S
C130 O144 1.249 . S
C130 O145 1.202 . S
C131 C129 1.363 . S
C131 C133 1.408 . S
C131 C136 1.342 . S
C132 C133 1.310 . S
C132 C135 1.461 . S
C132 H152 0.932 . S
C133 C131 1.408 . S
C133 C132 1.310 . S
C133 H153 0.930 . S
C134 C135 1.474 . S
C134 C136 1.285 . S
C134 H154 0.929 . S
C135 C132 1.461 . S
C135 C134 1.474 . S
C136 C131 1.342 . S
C136 C134 1.285 . S
C136 H155 0.930 . S
C137 C140 1.424 . S
C137 C142 1.245 . S
C137 C143 1.428 . S
C138 C141 1.260 . S
C138 C142 1.477 . S
C138 H156 0.932 . S
C139 C140 1.384 . S
C139 C141 1.479 . S
C139 H157 0.929 . S
C140 C137 1.424 . S
C140 C139 1.384 . S
C140 H158 0.928 . S
C141 C138 1.260 . S
C141 C139 1.479 . S
C142 C137 1.245 . S
C142 C138 1.477 . S
C142 H159 0.932 . S
C143 U126 2.882 . S
C143 C137 1.428 . S
C143 O146 1.301 . S
C143 O147 1.282 . S
O144 U126 2.441 . S
O144 C130 1.249 . S
O145 U126 2.420 . S
O145 C130 1.202 . S
O146 U126 2.455 . S
O146 C143 1.301 . S
O147 U126 2.449 . S
O147 C143 1.282 . S
H148 C121 0.931 . S
H149 C123 0.929 . S
H150 C124 0.930 . S
H151 C125 0.931 . S
H152 C132 0.932 . S
H153 C133 0.930 . S
H154 C134 0.929 . S
H155 C136 0.930 . S
H156 C138 0.932 . S
H157 C139 0.929 . S
H158 C140 0.928 . S
H159 C142 0.932 . S
Eu160 N189 2.600 . S
Eu160 N195 2.562 . S
Eu160 O204 2.462 . S
Eu160 O205 2.373 . S
Eu160 O207 2.432 . S
Eu160 O208 2.291 1_565 S
Eu160 O212 2.354 1_455 S
Eu160 O215 2.372 1_455 S
Eu160 C224 2.787 . S
C161 N162 1.365 . S
C161 C164 1.405 . S
C161 C168 1.448 . S
N162 C161 1.365 . S
N162 C165 1.319 1_655 S
N162 Eu171 2.600 . S
C163 C165 1.398 1_655 S
C163 C166 1.386 . S
C163 H183 0.911 1_655 S
C164 C161 1.405 . S
C164 C166 1.403 . S
C164 C170 1.439 . S
C165 N162 1.319 1_455 S
C165 C163 1.398 1_455 S
C165 H176 0.930 . S
C166 C163 1.386 . S
C166 C164 1.403 . S
C166 H187 0.929 . S
C167 C168 1.430 . S
C167 C169 1.387 . S
C167 C173 1.404 . S
C168 C161 1.448 . S
C168 C167 1.430 . S
C168 N172 1.351 . S
C169 C167 1.387 . S
C169 C170 1.374 . S
C169 H184 0.931 . S
C170 C164 1.439 . S
C170 C169 1.374 . S
C170 H185 0.931 . S
Eu171 N162 2.600 . S
Eu171 N172 2.562 . S
Eu171 O206 2.335 1_655 S
Eu171 O209 2.372 1_655 S
Eu171 O210 2.462 . S
Eu171 O211 2.373 . S
Eu171 O213 2.432 . S
Eu171 O214 2.291 1_545 S
Eu171 C235 2.787 . S
N172 C168 1.351 . S
N172 Eu171 2.562 . S
N172 C174 1.325 . S
C173 C167 1.404 . S
C173 C175 1.366 . S
C173 H181 0.930 . S
C174 N172 1.325 . S
C174 C175 1.416 . S
C174 H180 0.929 . S
C175 C173 1.366 . S
C175 C174 1.416 . S
C175 H177 0.930 . S
H176 C165 0.930 . S
H177 C175 0.930 . S
H178 C193 0.930 1_655 S
H179 C200 0.930 . S
H180 C174 0.929 . S
H181 C173 0.930 . S
H182 C196 0.929 . S
H183 C163 0.911 1_455 S
H184 C169 0.931 . S
H185 C170 0.931 . S
H186 C191 0.931 1_655 S
H187 C166 0.929 . S
H188 C199 0.930 . S
N189 Eu160 2.600 . S
N189 C190 1.365 . S
N189 C193 1.319 . S
C190 N189 1.365 . S
C190 C192 1.405 . S
C190 C198 1.448 . S
C191 H186 0.931 1_455 S
C191 C193 1.397 . S
C191 C194 1.367 . S
C192 C190 1.405 . S
C192 C194 1.403 . S
C192 C225 1.439 . S
C193 H178 0.930 1_455 S
C193 N189 1.319 . S
C193 C191 1.397 . S
C194 C191 1.367 . S
C194 C192 1.403 . S
C194 H201 0.929 . S
N195 Eu160 2.562 . S
N195 C196 1.325 . S
N195 C198 1.351 . S
C196 H182 0.929 . S
C196 N195 1.325 . S
C196 C200 1.416 . S
C197 C198 1.430 . S
C197 C199 1.404 . S
C197 C226 1.387 . S
C198 C190 1.448 . S
C198 N195 1.351 . S
C198 C197 1.430 . S
C199 H188 0.930 . S
C199 C197 1.404 . S
C199 C200 1.366 . S
C200 H179 0.930 . S
C200 C196 1.416 . S
C200 C199 1.366 . S
H201 C194 0.929 . S
H202 C225 0.931 . S
H203 C226 0.931 . S
O204 Eu160 2.462 . S
O204 C224 1.252 . S
O205 Eu160 2.373 . S
O205 C216 1.249 . S
O206 Eu171 2.335 1_455 S
O206 C216 1.264 1_545 S
O207 Eu160 2.432 . S
O207 C224 1.268 . S
O208 Eu160 2.291 1_545 S
O208 C223 1.255 . S
O209 Eu171 2.372 1_455 S
O209 C223 1.257 . S
O210 Eu171 2.462 . S
O210 C235 1.252 . S
O211 Eu171 2.373 . S
O211 C227 1.249 . S
O212 Eu160 2.354 1_655 S
O212 C227 1.234 1_565 S
O213 Eu171 2.432 . S
O213 C235 1.268 . S
O214 Eu171 2.291 1_565 S
O214 C234 1.255 . S
O215 Eu160 2.372 1_655 S
O215 C234 1.257 . S
C216 O205 1.249 . S
C216 O206 1.264 1_565 S
C217 C220 1.382 . S
C217 C222 1.390 . S
C217 C224 1.506 . S
C218 C219 1.398 . S
C218 C222 1.392 . S
C219 C218 1.398 . S
C219 C221 1.372 . S
C219 H236 0.931 . S
C220 C217 1.382 . S
C220 C221 1.390 . S
C220 H237 0.931 . S
C221 C219 1.372 . S
C221 C220 1.390 . S
C221 H238 0.929 . S
C222 C217 1.390 . S
C222 C218 1.392 . S
C222 H239 0.930 . S
C223 O208 1.255 . S
C223 O209 1.257 . S
C224 Eu160 2.787 . S
C224 O204 1.252 . S
C224 O207 1.268 . S
C224 C217 1.506 . S
C225 C192 1.439 . S
C225 H202 0.931 . S
C225 C226 1.374 . S
C226 C197 1.387 . S
C226 H203 0.931 . S
C226 C225 1.374 . S
C227 O211 1.249 . S
C227 O212 1.234 1_545 S
C228 C231 1.382 . S
C228 C232 1.390 . S
C228 C235 1.506 . S
C229 C230 1.398 . S
C229 C232 1.392 . S
C230 C229 1.398 . S
C230 C233 1.372 . S
C230 H240 0.931 . S
C231 C228 1.382 . S
C231 C233 1.390 . S
C231 H241 0.931 . S
C232 C228 1.390 . S
C232 C229 1.392 . S
C232 H242 0.930 . S
C233 C230 1.372 . S
C233 C231 1.390 . S
C233 H243 0.929 . S
C234 O214 1.255 . S
C234 O215 1.257 . S
C235 Eu171 2.787 . S
C235 O210 1.252 . S
C235 O213 1.268 . S
C235 C228 1.506 . S
H236 C219 0.931 . S
H237 C220 0.931 . S
H238 C221 0.929 . S
H239 C222 0.930 . S
H240 C230 0.931 . S
H241 C231 0.931 . S
H242 C232 0.930 . S
H243 C233 0.929 . S
Eu244 N273 2.600 . S
Eu244 N279 2.562 1_556 S
Eu244 O288 2.462 . S
Eu244 O289 2.373 1_556 S
Eu244 O291 2.432 . S
Eu244 O292 2.291 1_556 S
Eu244 O296 2.335 . S
Eu244 O299 2.372 . S
Eu244 C308 2.787 . S
C245 N246 1.365 . S
C245 C248 1.405 . S
C245 C252 1.448 . S
N246 C245 1.365 . S
N246 C249 1.319 . S
N246 Eu255 2.600 . S
C247 C249 1.397 . S
C247 C250 1.367 . S
C247 H267 0.931 . S
C248 C245 1.405 . S
C248 C250 1.403 . S
C248 C254 1.439 . S
C249 N246 1.319 . S
C249 C247 1.397 . S
C249 H260 0.930 . S
C250 C247 1.367 . S
C250 C248 1.403 . S
C250 H271 0.929 . S
C251 C252 1.430 . S
C251 C253 1.387 . S
C251 C257 1.404 . S
C252 C245 1.448 . S
C252 C251 1.430 . S
C252 N256 1.351 . S
C253 C251 1.387 . S
C253 C254 1.374 . S
C253 H268 0.931 . S
C254 C248 1.439 . S
C254 C253 1.374 . S
C254 H269 0.931 . S
Eu255 N246 2.600 . S
Eu255 N256 2.562 . S
Eu255 O290 2.335 . S
Eu255 O293 2.372 . S
Eu255 O294 2.462 . S
Eu255 O295 2.373 1_554 S
Eu255 O297 2.432 . S
Eu255 O298 2.291 . S
Eu255 C319 2.787 . S
N256 C252 1.351 . S
N256 Eu255 2.562 . S
N256 C258 1.325 . S
C257 C251 1.404 . S
C257 C259 1.366 . S
C257 H265 0.930 . S
C258 N256 1.325 . S
C258 C259 1.416 . S
C258 H264 0.929 . S
C259 C257 1.366 . S
C259 C258 1.416 . S
C259 H261 0.930 . S
H260 C249 0.930 . S
H261 C259 0.930 . S
H262 C277 0.930 . S
H263 C284 0.930 . S
H264 C258 0.929 . S
H265 C257 0.930 . S
H266 C280 0.929 . S
H267 C247 0.931 . S
H268 C253 0.931 . S
H269 C254 0.931 . S
H270 C275 0.931 . S
H271 C250 0.929 . S
H272 C283 0.930 . S
N273 Eu244 2.600 . S
N273 C274 1.365 1_556 S
N273 C277 1.319 . S
C274 N273 1.365 1_554 S
C274 C276 1.405 . S
C274 C282 1.448 . S
C275 H270 0.931 . S
C275 C277 1.397 . S
C275 C278 1.367 1_556 S
C276 C274 1.405 . S
C276 C278 1.403 . S
C276 C309 1.439 . S
C277 H262 0.930 . S
C277 N273 1.319 . S
C277 C275 1.397 . S
C278 C275 1.367 1_554 S
C278 C276 1.403 . S
C278 H285 0.929 . S
N279 Eu244 2.562 1_554 S
N279 C280 1.325 . S
N279 C282 1.351 . S
C280 H266 0.929 . S
C280 N279 1.325 . S
C280 C284 1.416 . S
C281 C282 1.430 . S
C281 C283 1.404 . S
C281 C310 1.387 . S
C282 C274 1.448 . S
C282 N279 1.351 . S
C282 C281 1.430 . S
C283 H272 0.930 . S
C283 C281 1.404 . S
C283 C284 1.366 . S
C284 H263 0.930 . S
C284 C280 1.416 . S
C284 C283 1.366 . S
H285 C278 0.929 . S
H286 C309 0.931 . S
H287 C310 0.931 . S
O288 Eu244 2.462 . S
O288 C308 1.252 . S
O289 Eu244 2.373 1_554 S
O289 C300 1.249 . S
O290 Eu255 2.335 . S
O290 C300 1.264 . S
O291 Eu244 2.432 . S
O291 C308 1.268 . S
O292 Eu244 2.291 1_554 S
O292 C307 1.255 . S
O293 Eu255 2.372 . S
O293 C307 1.257 . S
O294 Eu255 2.462 . S
O294 C319 1.252 . S
O295 Eu255 2.373 1_556 S
O295 C311 1.249 . S
O296 Eu244 2.335 . S
O296 C311 1.264 . S
O297 Eu255 2.432 . S
O297 C319 1.268 . S
O298 Eu255 2.291 . S
O298 C318 1.255 . S
O299 Eu244 2.372 . S
O299 C318 1.257 1_556 S
C300 O289 1.249 . S
C300 O290 1.264 . S
C301 C304 1.382 . S
C301 C306 1.390 . S
C301 C308 1.506 . S
C302 C303 1.398 . S
C302 C306 1.392 . S
C303 C302 1.398 . S
C303 C305 1.372 . S
C303 H320 0.931 . S
C304 C301 1.382 . S
C304 C305 1.390 . S
C304 H321 0.931 . S
C305 C303 1.372 . S
C305 C304 1.390 . S
C305 H322 0.929 . S
C306 C301 1.390 . S
C306 C302 1.392 . S
C306 H323 0.930 . S
C307 O292 1.255 . S
C307 O293 1.257 . S
C308 Eu244 2.787 . S
C308 O288 1.252 . S
C308 O291 1.268 . S
C308 C301 1.506 . S
C309 C276 1.439 . S
C309 H286 0.931 . S
C309 C310 1.374 . S
C310 C281 1.387 . S
C310 H287 0.931 . S
C310 C309 1.374 . S
C311 O295 1.249 . S
C311 O296 1.264 . S
C312 C315 1.382 . S
C312 C316 1.390 . S
C312 C319 1.506 . S
C313 C314 1.398 . S
C313 C316 1.392 . S
C314 C313 1.398 . S
C314 C317 1.372 . S
C314 H324 0.931 . S
C315 C312 1.382 . S
C315 C317 1.390 . S
C315 H325 0.931 . S
C316 C312 1.390 . S
C316 C313 1.392 . S
C316 H326 0.930 . S
C317 C314 1.372 . S
C317 C315 1.390 . S
C317 H327 0.929 . S
C318 O298 1.255 . S
C318 O299 1.257 1_554 S
C319 Eu255 2.787 . S
C319 O294 1.252 . S
C319 O297 1.268 . S
C319 C312 1.506 . S
H320 C303 0.931 . S
H321 C304 0.931 . S
H322 C305 0.929 . S
H323 C306 0.930 . S
H324 C314 0.931 . S
H325 C315 0.931 . S
H326 C316 0.930 . S
H327 C317 0.929 . S
H328 C340 0.930 . S
H329 C342 0.930 . S
H330 C343 0.930 . S
H331 C347 0.959 . S
H332 C347 0.959 . S
H333 C347 0.961 . S
H334 C348 0.960 . S
H335 C348 0.961 . S
H336 C348 0.959 . S
H337 C351 0.929 . S
H338 C352 0.931 . S
H339 C354 0.930 . S
C340 H328 0.930 . S
C340 C341 1.399 . S
C340 C345 1.399 . S
C341 C340 1.399 . S
C341 C342 1.376 . S
C342 H329 0.930 . S
C342 C341 1.376 . S
C342 C343 1.388 . S
C343 H330 0.930 . S
C343 C342 1.388 . S
C343 C344 1.390 . S
C344 C343 1.390 . S
C344 C345 1.394 . S
C344 C350 1.465 . S
C345 C340 1.399 . S
C345 C344 1.394 . S
C345 C346 1.516 . S
C346 C345 1.516 . S
C346 C347 1.502 . S
C346 C348 1.561 . S
C346 C349 1.526 . S
C347 H331 0.959 . S
C347 H332 0.959 . S
C347 H333 0.961 . S
C347 C346 1.502 . S
C348 H334 0.960 . S
C348 H335 0.961 . S
C348 H336 0.959 . S
C348 C346 1.561 . S
C349 C346 1.526 . S
C349 C350 1.396 . S
C349 C354 1.390 . S
C350 C344 1.465 . S
C350 C349 1.396 . S
C350 C351 1.399 . S
C351 H337 0.929 . S
C351 C350 1.399 . S
C351 C352 1.385 . S
C352 H338 0.931 . S
C352 C351 1.385 . S
C352 C353 1.389 . S
C353 C352 1.389 . S
C353 C354 1.387 . S
C354 H339 0.930 . S
C354 C349 1.390 . S
C354 C353 1.387 . S
H355 C367 0.930 . S
H356 C369 0.930 1_556 S
H357 C370 0.930 . S
H358 C374 0.959 . S
H359 C374 0.959 . S
H360 C374 0.961 . S
H361 C375 0.960 . S
H362 C375 0.961 . S
H363 C375 0.959 . S
H364 C378 0.929 . S
H365 C379 0.931 . S
H366 C381 0.930 . S
C367 H355 0.930 . S
C367 C368 1.399 . S
C367 C372 1.399 . S
C368 C367 1.399 . S
C368 C369 1.376 . S
C369 H356 0.930 1_554 S
C369 C368 1.376 . S
C369 C370 1.388 1_554 S
C370 H357 0.930 . S
C370 C369 1.388 1_556 S
C370 C371 1.390 1_556 S
C371 C370 1.390 1_554 S
C371 C372 1.394 . S
C371 C377 1.465 . S
C372 C367 1.399 . S
C372 C371 1.394 . S
C372 C373 1.516 . S
C373 C372 1.516 . S
C373 C374 1.502 . S
C373 C375 1.561 . S
C373 C376 1.526 . S
C374 H358 0.959 . S
C374 H359 0.959 . S
C374 H360 0.961 . S
C374 C373 1.502 . S
C375 H361 0.960 . S
C375 H362 0.961 . S
C375 H363 0.959 . S
C375 C373 1.561 . S
C376 C373 1.526 . S
C376 C377 1.396 . S
C376 C381 1.390 . S
C377 C371 1.465 . S
C377 C376 1.396 . S
C377 C378 1.399 1_554 S
C378 H364 0.929 . S
C378 C377 1.399 1_556 S
C378 C379 1.385 . S
C379 H365 0.931 . S
C379 C378 1.385 . S
C379 C380 1.389 1_556 S
C380 C379 1.389 1_554 S
C380 C381 1.387 . S
C381 H366 0.930 . S
C381 C376 1.390 . S
C381 C380 1.387 . S
H382 C394 0.930 . S
H383 C396 0.930 . S
H384 C397 0.930 . S
H385 C401 0.959 . S
H386 C401 0.959 . S
H387 C401 0.961 . S
H388 C402 0.960 . S
H389 C402 0.961 . S
H390 C402 0.959 . S
H391 C405 0.929 . S
H392 C406 0.931 . S
H393 C408 0.930 . S
C394 H382 0.930 . S
C394 C395 1.399 . S
C394 C399 1.399 . S
C395 C394 1.399 . S
C395 C396 1.376 . S
C396 H383 0.930 . S
C396 C395 1.376 . S
C396 C397 1.388 . S
C397 H384 0.930 . S
C397 C396 1.388 . S
C397 C398 1.390 . S
C398 C397 1.390 . S
C398 C399 1.394 . S
C398 C404 1.465 . S
C399 C394 1.399 . S
C399 C398 1.394 . S
C399 C400 1.516 . S
C400 C399 1.516 . S
C400 C401 1.502 . S
C400 C402 1.561 . S
C400 C403 1.526 . S
C401 H385 0.959 . S
C401 H386 0.959 . S
C401 H387 0.961 . S
C401 C400 1.502 . S
C402 H388 0.960 . S
C402 H389 0.961 . S
C402 H390 0.959 . S
C402 C400 1.561 . S
C403 C400 1.526 . S
C403 C404 1.396 . S
C403 C408 1.390 . S
C404 C398 1.465 . S
C404 C403 1.396 . S
C404 C405 1.399 . S
C405 H391 0.929 . S
C405 C404 1.399 . S
C405 C406 1.385 . S
C406 H392 0.931 . S
C406 C405 1.385 . S
C406 C407 1.389 . S
C407 C406 1.389 . S
C407 C408 1.387 . S
C408 H393 0.930 . S
C408 C403 1.390 . S
C408 C407 1.387 . S
H409 C421 0.930 . S
H410 C423 0.930 . S
H411 C424 0.930 . S
H412 C428 0.959 . S
H413 C428 0.959 . S
H414 C428 0.961 . S
H415 C429 0.960 . S
H416 C429 0.961 . S
H417 C429 0.959 . S
H418 C432 0.929 . S
H419 C433 0.931 . S
H420 C435 0.930 . S
C421 H409 0.930 . S
C421 C422 1.399 . S
C421 C426 1.399 . S
C422 C421 1.399 . S
C422 C423 1.376 1_554 S
C423 H410 0.930 . S
C423 C422 1.376 1_556 S
C423 C424 1.388 . S
C424 H411 0.930 . S
C424 C423 1.388 . S
C424 C425 1.390 . S
C425 C424 1.390 . S
C425 C426 1.394 1_556 S
C425 C431 1.465 1_556 S
C426 C421 1.399 . S
C426 C425 1.394 1_554 S
C426 C427 1.516 . S
C427 C426 1.516 . S
C427 C428 1.502 . S
C427 C429 1.561 . S
C427 C430 1.526 . S
C428 H412 0.959 . S
C428 H413 0.959 . S
C428 H414 0.961 . S
C428 C427 1.502 . S
C429 H415 0.960 . S
C429 H416 0.961 . S
C429 H417 0.959 . S
C429 C427 1.561 . S
C430 C427 1.526 . S
C430 C431 1.396 . S
C430 C435 1.390 . S
C431 C425 1.465 1_554 S
C431 C430 1.396 . S
C431 C432 1.399 1_554 S
C432 H418 0.929 . S
C432 C431 1.399 1_556 S
C432 C433 1.385 . S
C433 H419 0.931 . S
C433 C432 1.385 . S
C433 C434 1.389 1_556 S
C434 C433 1.389 1_554 S
C434 C435 1.387 . S
C435 H420 0.930 . S
C435 C430 1.390 . S
C435 C434 1.387 . S
H436 C448 0.930 . S
H437 C450 0.930 . S
H438 C451 0.930 . S
H439 C455 0.959 . S
H440 C455 0.959 1_545 S
H441 C455 0.961 1_545 S
H442 C456 0.960 . S
H443 C456 0.961 . S
H444 C456 0.959 1_565 S
H445 C459 0.929 . S
H446 C460 0.931 . S
H447 C462 0.930 . S
C448 H436 0.930 . S
C448 C449 1.399 . S
C448 C453 1.399 . S
C449 C448 1.399 . S
C449 C450 1.376 . S
C450 H437 0.930 . S
C450 C449 1.376 . S
C450 C451 1.388 . S
C451 H438 0.930 . S
C451 C450 1.388 . S
C451 C452 1.390 . S
C452 C451 1.390 . S
C452 C453 1.394 . S
C452 C458 1.465 . S
C453 C448 1.399 . S
C453 C452 1.394 . S
C453 C454 1.516 . S
C454 C453 1.516 . S
C454 C455 1.502 . S
C454 C456 1.561 1_565 S
C454 C457 1.526 . S
C455 H439 0.959 . S
C455 H440 0.959 1_565 S
C455 H441 0.961 1_565 S
C455 C454 1.502 . S
C456 H442 0.960 . S
C456 H443 0.961 . S
C456 H444 0.959 1_545 S
C456 C454 1.561 1_545 S
C457 C454 1.526 . S
C457 C458 1.396 . S
C457 C462 1.390 . S
C458 C452 1.465 . S
C458 C457 1.396 . S
C458 C459 1.399 . S
C459 H445 0.929 . S
C459 C458 1.399 . S
C459 C460 1.385 . S
C460 H446 0.931 . S
C460 C459 1.385 . S
C460 C461 1.389 . S
C461 C460 1.389 . S
C461 C462 1.387 . S
C462 H447 0.930 . S
C462 C457 1.390 . S
C462 C461 1.387 . S
H463 C475 0.930 . S
H464 C477 0.930 . S
H465 C478 0.930 . S
H466 C482 0.959 . S
H467 C482 0.959 . S
H468 C482 0.961 . S
H469 C483 0.960 . S
H470 C483 0.961 . S
H471 C483 0.959 . S
H472 C486 0.929 . S
H473 C487 0.931 . S
H474 C489 0.930 . S
C475 H463 0.930 . S
C475 C476 1.399 . S
C475 C480 1.399 . S
C476 C475 1.399 . S
C476 C477 1.376 . S
C477 H464 0.930 . S
C477 C476 1.376 . S
C477 C478 1.388 . S
C478 H465 0.930 . S
C478 C477 1.388 . S
C478 C479 1.390 . S
C479 C478 1.390 . S
C479 C480 1.394 . S
C479 C485 1.465 . S
C480 C475 1.399 . S
C480 C479 1.394 . S
C480 C481 1.516 . S
C481 C480 1.516 . S
C481 C482 1.502 . S
C481 C483 1.561 . S
C481 C484 1.526 . S
C482 H466 0.959 . S
C482 H467 0.959 . S
C482 H468 0.961 . S
C482 C481 1.502 . S
C483 H469 0.960 . S
C483 H470 0.961 . S
C483 H471 0.959 . S
C483 C481 1.561 . S
C484 C481 1.526 . S
C484 C485 1.396 . S
C484 C489 1.390 . S
C485 C479 1.465 . S
C485 C484 1.396 . S
C485 C486 1.399 . S
C486 H472 0.929 . S
C486 C485 1.399 . S
C486 C487 1.385 . S
C487 H473 0.931 . S
C487 C486 1.385 . S
C487 C488 1.389 . S
C488 C487 1.389 . S
C488 C489 1.387 . S
C489 H474 0.930 . S
C489 C484 1.390 . S
C489 C488 1.387 . S
H490 C502 0.930 . S
H491 C504 0.930 . S
H492 C505 0.930 . S
H493 C509 0.959 . S
H494 C509 0.959 . S
H495 C509 0.961 . S
H496 C510 0.960 . S
H497 C510 0.961 . S
H498 C510 0.959 1_545 S
H499 C513 0.929 . S
H500 C514 0.931 . S
H501 C516 0.930 1_565 S
C502 H490 0.930 . S
C502 C503 1.399 . S
C502 C507 1.399 . S
C503 C502 1.399 . S
C503 C504 1.376 . S
C504 H491 0.930 . S
C504 C503 1.376 . S
C504 C505 1.388 . S
C505 H492 0.930 . S
C505 C504 1.388 . S
C505 C506 1.390 . S
C506 C505 1.390 . S
C506 C507 1.394 . S
C506 C512 1.465 . S
C507 C502 1.399 . S
C507 C506 1.394 . S
C507 C508 1.516 . S
C508 C507 1.516 . S
C508 C509 1.502 1_545 S
C508 C510 1.561 1_545 S
C508 C511 1.526 . S
C509 H493 0.959 . S
C509 H494 0.959 . S
C509 H495 0.961 . S
C509 C508 1.502 1_565 S
C510 H496 0.960 . S
C510 H497 0.961 . S
C510 H498 0.959 1_565 S
C510 C508 1.561 1_565 S
C511 C508 1.526 . S
C511 C512 1.396 . S
C511 C516 1.390 . S
C512 C506 1.465 . S
C512 C511 1.396 . S
C512 C513 1.399 . S
C513 H499 0.929 . S
C513 C512 1.399 . S
C513 C514 1.385 . S
C514 H500 0.931 . S
C514 C513 1.385 . S
C514 C515 1.389 . S
C515 C514 1.389 . S
C515 C516 1.387 . S
C516 H501 0.930 1_545 S
C516 C511 1.390 . S
C516 C515 1.387 . S
H517 C529 0.930 . S
H518 C531 0.930 . S
H519 C532 0.930 . S
H520 C536 0.959 . S
H521 C536 0.959 . S
H522 C536 0.961 . S
H523 C537 0.960 . S
H524 C537 0.961 . S
H525 C537 0.959 . S
H526 C540 0.929 . S
H527 C541 0.931 . S
H528 C543 0.930 . S
C529 H517 0.930 . S
C529 C530 1.399 . S
C529 C534 1.399 . S
C530 C529 1.399 . S
C530 C531 1.376 . S
C531 H518 0.930 . S
C531 C530 1.376 . S
C531 C532 1.388 . S
C532 H519 0.930 . S
C532 C531 1.388 . S
C532 C533 1.390 . S
C533 C532 1.390 . S
C533 C534 1.394 . S
C533 C539 1.465 . S
C534 C529 1.399 . S
C534 C533 1.394 . S
C534 C535 1.516 . S
C535 C534 1.516 . S
C535 C536 1.502 . S
C535 C537 1.561 . S
C535 C538 1.526 . S
C536 H520 0.959 . S
C536 H521 0.959 . S
C536 H522 0.961 . S
C536 C535 1.502 . S
C537 H523 0.960 . S
C537 H524 0.961 . S
C537 H525 0.959 . S
C537 C535 1.561 . S
C538 C535 1.526 . S
C538 C539 1.396 . S
C538 C543 1.390 . S
C539 C533 1.465 . S
C539 C538 1.396 . S
C539 C540 1.399 . S
C540 H526 0.929 . S
C540 C539 1.399 . S
C540 C541 1.385 . S
C541 H527 0.931 . S
C541 C540 1.385 . S
C541 C542 1.389 . S
C542 C541 1.389 . S
C542 C543 1.387 . S
C543 H528 0.930 . S
C543 C538 1.390 . S
C543 C542 1.387 . S
H544 C556 0.930 . S
H545 C558 0.930 . S
H546 C559 0.930 . S
H547 C563 0.959 . S
H548 C563 0.959 . S
H549 C563 0.961 . S
H550 C564 0.960 . S
H551 C564 0.961 . S
H552 C564 0.959 . S
H553 C567 0.929 . S
H554 C568 0.931 . S
H555 C570 0.930 . S
C556 H544 0.930 . S
C556 C557 1.399 . S
C556 C561 1.399 . S
C557 C556 1.399 . S
C557 C558 1.376 . S
C558 H545 0.930 . S
C558 C557 1.376 . S
C558 C559 1.388 . S
C559 H546 0.930 . S
C559 C558 1.388 . S
C559 C560 1.390 . S
C560 C559 1.390 . S
C560 C561 1.394 . S
C560 C566 1.465 . S
C561 C556 1.399 . S
C561 C560 1.394 . S
C561 C562 1.516 . S
C562 C561 1.516 . S
C562 C563 1.502 . S
C562 C564 1.561 . S
C562 C565 1.526 . S
C563 H547 0.959 . S
C563 H548 0.959 . S
C563 H549 0.961 . S
C563 C562 1.502 . S
C564 H550 0.960 . S
C564 H551 0.961 . S
C564 H552 0.959 . S
C564 C562 1.561 . S
C565 C562 1.526 . S
C565 C566 1.396 . S
C565 C570 1.390 . S
C566 C560 1.465 . S
C566 C565 1.396 . S
C566 C567 1.399 . S
C567 H553 0.929 . S
C567 C566 1.399 . S
C567 C568 1.385 . S
C568 H554 0.931 . S
C568 C567 1.385 . S
C568 C569 1.389 . S
C569 C568 1.389 . S
C569 C570 1.387 . S
C570 H555 0.930 . S
C570 C565 1.390 . S
C570 C569 1.387 . S
H571 C583 0.930 . S
H572 C585 0.930 . S
H573 C586 0.930 . S
H574 C590 0.954 1_545 S
H575 C590 0.970 . S
H576 C590 0.964 . S
H577 C591 0.960 . S
H578 C591 0.961 1_565 S
H579 C591 0.959 . S
H580 C594 0.929 . S
H581 C595 0.931 . S
H582 C597 0.930 . S
C583 H571 0.930 . S
C583 C584 1.399 . S
C583 C588 1.399 . S
C584 C583 1.399 . S
C584 C585 1.376 . S
C585 H572 0.930 . S
C585 C584 1.376 . S
C585 C586 1.388 . S
C586 H573 0.930 . S
C586 C585 1.388 . S
C586 C587 1.390 . S
C587 C586 1.390 . S
C587 C588 1.394 . S
C587 C593 1.465 . S
C588 C583 1.399 . S
C588 C587 1.394 . S
C588 C589 1.516 . S
C589 C588 1.516 . S
C589 C590 1.493 1_545 S
C589 C591 1.561 . S
C589 C592 1.526 . S
C590 H574 0.954 1_565 S
C590 H575 0.970 . S
C590 H576 0.964 . S
C590 C589 1.493 1_565 S
C591 H577 0.960 . S
C591 H578 0.961 1_545 S
C591 H579 0.959 . S
C591 C589 1.561 . S
C592 C589 1.526 . S
C592 C593 1.396 . S
C592 C597 1.390 . S
C593 C587 1.465 . S
C593 C592 1.396 . S
C593 C594 1.399 . S
C594 H580 0.929 . S
C594 C593 1.399 . S
C594 C595 1.385 . S
C595 H581 0.931 . S
C595 C594 1.385 . S
C595 C596 1.389 . S
C596 C595 1.389 . S
C596 C597 1.387 . S
C597 H582 0.930 . S
C597 C592 1.390 . S
C597 C596 1.387 . S
H598 C610 0.930 . S
H599 C612 0.930 . S
H600 C613 0.930 . S
H601 C617 0.959 . S
H602 C617 0.959 . S
H603 C617 0.961 . S
H604 C618 0.960 . S
H605 C618 0.961 . S
H606 C618 0.959 . S
H607 C621 0.929 . S
H608 C622 0.931 . S
H609 C624 0.930 . S
C610 H598 0.930 . S
C610 C611 1.399 . S
C610 C615 1.399 . S
C611 C610 1.399 . S
C611 C612 1.376 . S
C612 H599 0.930 . S
C612 C611 1.376 . S
C612 C613 1.388 . S
C613 H600 0.930 . S
C613 C612 1.388 . S
C613 C614 1.390 . S
C614 C613 1.390 . S
C614 C615 1.394 . S
C614 C620 1.465 . S
C615 C610 1.399 . S
C615 C614 1.394 . S
C615 C616 1.516 . S
C616 C615 1.516 . S
C616 C617 1.502 . S
C616 C618 1.561 . S
C616 C619 1.526 . S
C617 H601 0.959 . S
C617 H602 0.959 . S
C617 H603 0.961 . S
C617 C616 1.502 . S
C618 H604 0.960 . S
C618 H605 0.961 . S
C618 H606 0.959 . S
C618 C616 1.561 . S
C619 C616 1.526 . S
C619 C620 1.396 . S
C619 C624 1.390 . S
C620 C614 1.465 . S
C620 C619 1.396 . S
C620 C621 1.399 . S
C621 H607 0.929 . S
C621 C620 1.399 . S
C621 C622 1.385 . S
C622 H608 0.931 . S
C622 C621 1.385 . S
C622 C623 1.389 . S
C623 C622 1.389 . S
C623 C624 1.387 . S
C624 H609 0.930 . S
C624 C619 1.390 . S
C624 C623 1.387 . S
H625 C637 0.930 . S
H626 C639 0.930 . S
H627 C640 0.930 1_545 S
H628 C644 0.959 . S
H629 C644 0.959 . S
H630 C644 0.961 . S
H631 C645 0.960 . S
H632 C645 0.961 . S
H633 C645 0.959 . S
H634 C648 0.929 . S
H635 C649 0.931 . S
H636 C651 0.930 . S
C637 H625 0.930 . S
C637 C638 1.399 . S
C637 C642 1.399 . S
C638 C637 1.399 . S
C638 C639 1.376 . S
C639 H626 0.930 . S
C639 C638 1.376 . S
C639 C640 1.388 . S
C640 H627 0.930 1_565 S
C640 C639 1.388 . S
C640 C641 1.390 . S
C641 C640 1.390 . S
C641 C642 1.394 . S
C641 C647 1.465 . S
C642 C637 1.399 . S
C642 C641 1.394 . S
C642 C643 1.516 . S
C643 C642 1.516 . S
C643 C644 1.502 . S
C643 C645 1.561 . S
C643 C646 1.526 . S
C644 H628 0.959 . S
C644 H629 0.959 . S
C644 H630 0.961 . S
C644 C643 1.502 . S
C645 H631 0.960 . S
C645 H632 0.961 . S
C645 H633 0.959 . S
C645 C643 1.561 . S
C646 C643 1.526 . S
C646 C647 1.396 . S
C646 C651 1.390 . S
C647 C641 1.465 . S
C647 C646 1.396 . S
C647 C648 1.399 1_565 S
C648 H634 0.929 . S
C648 C647 1.399 1_545 S
C648 C649 1.385 . S
C649 H635 0.931 . S
C649 C648 1.385 . S
C649 C650 1.389 1_545 S
C650 C649 1.389 1_565 S
C650 C651 1.387 . S
C651 H636 0.930 . S
C651 C646 1.390 . S
C651 C650 1.387 . S
C353 C223 1.682 . S
C341 C135 1.660 . S
C368 C15 1.623 . S
C380 C318 1.634 . S
C395 C55 1.630 . S
C407 C234 1.642 . S
C422 C95 1.645 . S
C434 C307 1.682 . S
C461 C218 1.363 . S
C449 C2 1.556 . S
C488 C311 1.618 . S
C476 C42 1.614 . S
C503 C82 1.603 . S
C515 C227 1.633 . S
C530 C141 1.537 . S
C542 C302 1.463 . S
C569 C313 1.466 . S
C557 C61 1.547 . S
C596 C229 1.398 . S
C584 C101 1.591 . S
C623 C300 1.645 . S
C611 C122 1.631 . S
C638 C21 1.658 . S
C650 C216 1.652 . S
