# Generated by pormake.
# Topology soc, (4,6)-cn, num edge types: 1
# Building blocks:
#     Node 0, Type 0, BuildingBlock: ESEHIV_clean_sbu_0, # of connection points: 4
#     Node 1, Type 0, BuildingBlock: ESEHIV_clean_sbu_0, # of connection points: 4
#     Node 2, Type 0, BuildingBlock: ESEHIV_clean_sbu_0, # of connection points: 4
#     Node 3, Type 0, BuildingBlock: ESEHIV_clean_sbu_0, # of connection points: 4
#     Node 4, Type 0, BuildingBlock: ESEHIV_clean_sbu_0, # of connection points: 4
#     Node 5, Type 0, BuildingBlock: ESEHIV_clean_sbu_0, # of connection points: 4
#     Node 6, Type 0, BuildingBlock: ESEHIV_clean_sbu_0, # of connection points: 4
#     Node 7, Type 0, BuildingBlock: ESEHIV_clean_sbu_0, # of connection points: 4
#     Node 8, Type 0, BuildingBlock: ESEHIV_clean_sbu_0, # of connection points: 4
#     Node 9, Type 0, BuildingBlock: ESEHIV_clean_sbu_0, # of connection points: 4
#     Node 10, Type 0, BuildingBlock: ESEHIV_clean_sbu_0, # of connection points: 4
#     Node 11, Type 0, BuildingBlock: ESEHIV_clean_sbu_0, # of connection points: 4
#     Node 12, Type 1, BuildingBlock: BETDEL_clean_sbu_0, # of connection points: 6
#     Node 13, Type 1, BuildingBlock: BETDEL_clean_sbu_0, # of connection points: 6
#     Node 14, Type 1, BuildingBlock: BETDEL_clean_sbu_0, # of connection points: 6
#     Node 15, Type 1, BuildingBlock: BETDEL_clean_sbu_0, # of connection points: 6
#     Node 16, Type 1, BuildingBlock: BETDEL_clean_sbu_0, # of connection points: 6
#     Node 17, Type 1, BuildingBlock: BETDEL_clean_sbu_0, # of connection points: 6
#     Node 18, Type 1, BuildingBlock: BETDEL_clean_sbu_0, # of connection points: 6
#     Node 19, Type 1, BuildingBlock: BETDEL_clean_sbu_0, # of connection points: 6
#     Edge 20, Type (0, 1), BuildingBlock: UVAHIK_clean_linker_0, # of connection points: 2
#     Edge 21, Type (0, 1), BuildingBlock: UVAHIK_clean_linker_0, # of connection points: 2
#     Edge 22, Type (0, 1), BuildingBlock: UVAHIK_clean_linker_0, # of connection points: 2
#     Edge 23, Type (0, 1), BuildingBlock: UVAHIK_clean_linker_0, # of connection points: 2
#     Edge 24, Type (0, 1), BuildingBlock: UVAHIK_clean_linker_0, # of connection points: 2
#     Edge 25, Type (0, 1), BuildingBlock: UVAHIK_clean_linker_0, # of connection points: 2
#     Edge 26, Type (0, 1), BuildingBlock: UVAHIK_clean_linker_0, # of connection points: 2
#     Edge 27, Type (0, 1), BuildingBlock: UVAHIK_clean_linker_0, # of connection points: 2
#     Edge 28, Type (0, 1), BuildingBlock: UVAHIK_clean_linker_0, # of connection points: 2
#     Edge 29, Type (0, 1), BuildingBlock: UVAHIK_clean_linker_0, # of connection points: 2
#     Edge 30, Type (0, 1), BuildingBlock: UVAHIK_clean_linker_0, # of connection points: 2
#     Edge 31, Type (0, 1), BuildingBlock: UVAHIK_clean_linker_0, # of connection points: 2
#     Edge 32, Type (0, 1), BuildingBlock: UVAHIK_clean_linker_0, # of connection points: 2
#     Edge 33, Type (0, 1), BuildingBlock: UVAHIK_clean_linker_0, # of connection points: 2
#     Edge 34, Type (0, 1), BuildingBlock: UVAHIK_clean_linker_0, # of connection points: 2
#     Edge 35, Type (0, 1), BuildingBlock: UVAHIK_clean_linker_0, # of connection points: 2
#     Edge 36, Type (0, 1), BuildingBlock: UVAHIK_clean_linker_0, # of connection points: 2
#     Edge 37, Type (0, 1), BuildingBlock: UVAHIK_clean_linker_0, # of connection points: 2
#     Edge 38, Type (0, 1), BuildingBlock: UVAHIK_clean_linker_0, # of connection points: 2
#     Edge 39, Type (0, 1), BuildingBlock: UVAHIK_clean_linker_0, # of connection points: 2
#     Edge 40, Type (0, 1), BuildingBlock: UVAHIK_clean_linker_0, # of connection points: 2
#     Edge 41, Type (0, 1), BuildingBlock: UVAHIK_clean_linker_0, # of connection points: 2
#     Edge 42, Type (0, 1), BuildingBlock: UVAHIK_clean_linker_0, # of connection points: 2
#     Edge 43, Type (0, 1), BuildingBlock: UVAHIK_clean_linker_0, # of connection points: 2
#     Edge 44, Type (0, 1), BuildingBlock: UVAHIK_clean_linker_0, # of connection points: 2
#     Edge 45, Type (0, 1), BuildingBlock: UVAHIK_clean_linker_0, # of connection points: 2
#     Edge 46, Type (0, 1), BuildingBlock: UVAHIK_clean_linker_0, # of connection points: 2
#     Edge 47, Type (0, 1), BuildingBlock: UVAHIK_clean_linker_0, # of connection points: 2
#     Edge 48, Type (0, 1), BuildingBlock: UVAHIK_clean_linker_0, # of connection points: 2
#     Edge 49, Type (0, 1), BuildingBlock: UVAHIK_clean_linker_0, # of connection points: 2
#     Edge 50, Type (0, 1), BuildingBlock: UVAHIK_clean_linker_0, # of connection points: 2
#     Edge 51, Type (0, 1), BuildingBlock: UVAHIK_clean_linker_0, # of connection points: 2
#     Edge 52, Type (0, 1), BuildingBlock: UVAHIK_clean_linker_0, # of connection points: 2
#     Edge 53, Type (0, 1), BuildingBlock: UVAHIK_clean_linker_0, # of connection points: 2
#     Edge 54, Type (0, 1), BuildingBlock: UVAHIK_clean_linker_0, # of connection points: 2
#     Edge 55, Type (0, 1), BuildingBlock: UVAHIK_clean_linker_0, # of connection points: 2
#     Edge 56, Type (0, 1), BuildingBlock: UVAHIK_clean_linker_0, # of connection points: 2
#     Edge 57, Type (0, 1), BuildingBlock: UVAHIK_clean_linker_0, # of connection points: 2
#     Edge 58, Type (0, 1), BuildingBlock: UVAHIK_clean_linker_0, # of connection points: 2
#     Edge 59, Type (0, 1), BuildingBlock: UVAHIK_clean_linker_0, # of connection points: 2
#     Edge 60, Type (0, 1), BuildingBlock: UVAHIK_clean_linker_0, # of connection points: 2
#     Edge 61, Type (0, 1), BuildingBlock: UVAHIK_clean_linker_0, # of connection points: 2
#     Edge 62, Type (0, 1), BuildingBlock: UVAHIK_clean_linker_0, # of connection points: 2
#     Edge 63, Type (0, 1), BuildingBlock: UVAHIK_clean_linker_0, # of connection points: 2
#     Edge 64, Type (0, 1), BuildingBlock: UVAHIK_clean_linker_0, # of connection points: 2
#     Edge 65, Type (0, 1), BuildingBlock: UVAHIK_clean_linker_0, # of connection points: 2
#     Edge 66, Type (0, 1), BuildingBlock: UVAHIK_clean_linker_0, # of connection points: 2
#     Edge 67, Type (0, 1), BuildingBlock: UVAHIK_clean_linker_0, # of connection points: 2
# Relax obj value: 0.106
# Max RMSD: 0.164
# Mean RMSD: 0.144
data_MOF--net-soc--node1-ESEHIV_clean_sbu_0--node2-BETDEL_clean_sbu_0--edge1-UVAHIK_clean_linker_0
_symmetry_space_group_name_H-M    P1
_symmetry_Int_Tables_number       1
_symmetry_cell_setting            triclinic
loop_
_symmetry_equiv_pos_as_xyz
'x, y, z'
_cell_length_a     57.317285
_cell_length_b     57.464138
_cell_length_c     56.789145
_cell_angle_alpha  88.620146
_cell_angle_beta   90.674516
_cell_angle_gamma 81.357793
loop_
_atom_site_label
_atom_site_type_symbol
_atom_site_fract_x
_atom_site_fract_y
_atom_site_fract_z
_atom_type_partial_charge
Cu0 Cu 0.03811 0.02251 0.28143 0.0
N1 N 0.05588 0.03957 0.30036 0.0
N2 N 0.07829 0.06676 0.30976 0.0
C3 C 0.06399 0.05938 0.29338 0.0
C4 C 0.07889 0.05108 0.32796 0.0
C5 C 0.06509 0.03426 0.32206 0.0
O6 O 0.05924 0.99886 0.2651 0.0
C7 C 1.00003 0.04088 0.25037 0.0
O8 O 0.99517 0.01927 0.25057 0.0
H9 H 0.05987 0.06782 0.27628 0.0
H10 H 0.06258 0.01886 0.33249 0.0
N11 N 1.01833 0.00638 0.29931 0.0
N12 N 0.99345 0.98078 0.30677 0.0
C13 C 1.00976 0.98721 0.29203 0.0
C14 C 1.00742 0.01217 0.31966 0.0
C15 C 0.99207 0.99628 0.32438 0.0
C16 C 0.0795 1.002 0.25793 0.0
O17 O 0.08564 0.02308 0.25882 0.0
H18 H 1.01483 0.97867 0.27569 0.0
H19 H 1.00969 0.0274 0.32977 0.0
O20 O 1.0186 0.04514 0.26087 0.0
H21 H 0.08934 0.05113 0.34395 0.0
H22 H 0.97998 0.99688 0.33892 0.0
Cu23 Cu 0.05047 0.00497 0.69806 0.0
N24 N 0.03582 0.98465 0.6797 0.0
N25 N 1.01328 0.95725 0.67171 0.0
C26 C 1.02189 0.96985 0.6886 0.0
C27 C 1.02217 0.96436 0.65132 0.0
C28 C 0.03627 0.98116 0.65634 0.0
O29 O 1.02588 0.02575 0.7141 0.0
C30 C 0.09171 0.97515 0.70822 0.0
O31 O 0.09489 0.98069 0.68603 0.0
H32 H 1.01786 0.96865 0.70712 0.0
H33 H 0.04619 0.99005 0.64384 0.0
N34 N 0.06691 0.02483 0.68027 0.0
N35 N 0.09167 0.05064 0.67318 0.0
C36 C 0.08489 0.03493 0.68872 0.0
C37 C 0.06202 0.03457 0.65864 0.0
C38 C 0.0773 0.0505 0.6542 0.0
C39 C 1.00965 0.0361 0.7003 0.0
O40 O 1.01055 0.03097 0.67788 0.0
H41 H 0.09206 0.03164 0.70641 0.0
H42 H 0.04773 0.03115 0.64728 0.0
O43 O 0.07294 0.9845 0.71827 0.0
H44 H 1.01897 0.95766 0.63412 0.0
H45 H 0.07747 0.06148 0.63847 0.0
Cu46 Cu 0.29738 0.02585 -0.00229 0.0
N47 N 0.27626 0.01257 0.97874 0.0
N48 N 0.2654 0.98983 0.95039 0.0
C49 C 0.28317 0.99466 0.96442 0.0
C50 C 0.24643 0.00537 0.95643 0.0
C51 C 0.25319 0.0194 0.97388 0.0
O52 O 0.31628 0.99966 0.01555 0.0
C53 C 0.29876 0.06082 0.9647 0.0
O54 O 0.27644 0.06341 0.97057 0.0
H55 H 0.30118 0.9858 0.96415 0.0
H56 H 0.24231 0.03415 -0.01834 0.0
N57 N 0.28233 0.04565 0.02021 0.0
N58 N 0.27924 0.07025 0.05026 0.0
C59 C 0.29306 0.06054 0.03292 0.0
C60 C 0.26093 0.04589 0.02975 0.0
C61 C 0.25894 0.06111 0.04829 0.0
C62 C 0.30384 0.9856 0.02542 0.0
O63 O 0.28081 0.98978 0.02254 0.0
H64 H 0.31119 0.06308 0.03032 0.0
H65 H 0.24813 0.03495 0.0244 0.0
O66 O 0.31327 0.0451 0.97574 0.0
H67 H 0.22909 0.00725 0.94825 0.0
H68 H 0.24396 0.06468 0.05977 0.0
Cu69 Cu 0.05112 0.30377 0.01686 0.0
N70 N 0.06923 0.32185 -0.00111 0.0
N71 N 0.09297 0.33098 0.97014 0.0
C72 C 0.08041 0.31477 0.979 0.0
C73 C 0.08933 0.34909 -0.01493 0.0
C74 C 0.07467 0.34342 0.00274 0.0
O75 O 0.07178 0.28543 0.04052 0.0
C76 C 1.01967 0.27315 -0.00268 0.0
O77 O 1.01456 0.26732 0.01896 0.0
H78 H 0.07989 0.29764 0.97168 0.0
H79 H 0.06863 0.35421 0.01743 0.0
N80 N 1.02877 0.32323 0.03416 0.0
N81 N 0.99666 0.33334 0.05601 0.0
C82 C 1.00604 0.32074 0.03766 0.0
C83 C 1.03384 0.33827 0.05057 0.0
C84 C 1.01412 0.34463 0.06394 0.0
C85 C 0.09357 0.27793 0.03741 0.0
O86 O 0.10209 0.27877 0.0161 0.0
H87 H 0.99699 0.3089 0.02781 0.0
H88 H 0.05125 0.34263 0.05398 0.0
O89 O 0.03528 0.28641 -0.00614 0.0
H90 H 0.0967 0.36531 -0.01658 0.0
H91 H 1.01348 0.35508 0.07959 0.0
Cu92 Cu 0.78901 0.9989 -0.00993 0.0
N93 N 0.80542 0.01672 0.97026 0.0
N94 N 0.80968 0.04461 0.94332 0.0
C95 C 0.79517 0.0365 0.95902 0.0
C96 C 0.83003 0.02934 0.94495 0.0
C97 C 0.82731 0.01206 0.96153 0.0
O98 O 0.77089 0.02131 0.01118 0.0
C99 C 0.78572 0.96638 0.95628 0.0
O100 O 0.80858 0.96493 0.9599 0.0
H101 H 0.77713 0.04438 0.96201 0.0
H102 H 0.83997 0.99663 0.96596 0.0
N103 N 0.80915 0.97813 0.00962 0.0
N104 N 0.81864 0.95298 0.03994 0.0
C105 C 0.80147 0.96277 0.02478 0.0
C106 C 0.83208 0.97796 0.01524 0.0
C107 C 0.83798 0.96244 0.03403 0.0
C108 C 0.78411 0.03159 0.02448 0.0
O109 O 0.80707 0.02687 0.0221 0.0
H110 H 0.7832 0.96011 0.02572 0.0
H111 H 0.8433 0.98943 0.00738 0.0
O112 O 0.77194 0.98025 0.96903 0.0
H113 H 0.84539 0.02993 0.93418 0.0
H114 H 0.85488 0.95902 0.04315 0.0
Cu115 Cu 0.04464 0.73015 -0.01826 0.0
N116 N 1.02806 0.73119 0.95315 0.0
N117 N 1.00413 0.73962 0.92181 0.0
C118 C 1.00869 0.7451 0.9443 0.0
C119 C 1.0211 0.72172 0.91652 0.0
C120 C 0.03571 0.71659 0.93578 0.0
O121 O 1.03066 0.71262 0.0067 0.0
C122 C 0.08795 0.73241 0.96146 0.0
O123 O 0.07733 0.75412 0.95808 0.0
H124 H 0.99833 0.75892 0.95396 0.0
H125 H 0.05102 0.70308 0.9371 0.0
N126 N 0.04484 0.75944 -0.00504 0.0
N127 N 0.0545 0.78347 0.02255 0.0
C128 C 0.05387 0.76103 0.01664 0.0
C129 C 0.0392 0.78175 -0.01333 0.0
C130 C 0.0454 0.7967 0.00369 0.0
C131 C 1.0086 0.71138 0.00687 0.0
O132 O 0.99584 0.71767 -0.01221 0.0
H133 H 0.0611 0.74576 0.02738 0.0
H134 H 1.03206 0.78672 0.96925 0.0
O135 O 0.07729 0.71792 0.97306 0.0
H136 H 1.02254 0.71261 0.90001 0.0
H137 H 0.0439 0.81568 0.00209 0.0
Cu138 Cu 0.54575 0.50849 0.78761 0.0
N139 N 0.56388 0.52762 0.8034 0.0
N140 N 0.58438 0.5571 0.80953 0.0
C141 C 0.57155 0.54671 0.79395 0.0
C142 C 0.58473 0.54396 0.82962 0.0
C143 C 0.5721 0.52572 0.82575 0.0
O144 O 0.56672 0.48303 0.77381 0.0
C145 C 0.50609 0.52441 0.75745 0.0
O146 O 0.50034 0.50336 0.76107 0.0
H147 H 0.56757 0.55293 0.776 0.0
H148 H 0.56922 0.51199 0.83826 0.0
N149 N 0.52641 0.49511 0.8085 0.0
N150 N 0.50069 0.47188 0.82066 0.0
C151 C 0.51673 0.4757 0.80431 0.0
C152 C 0.51658 0.50382 0.82843 0.0
C153 C 0.50072 0.4895 0.83602 0.0
C154 C 0.58231 0.48561 0.75862 0.0
O155 O 0.58344 0.50667 0.7496 0.0
H156 H 0.52024 0.46562 0.78856 0.0
H157 H 0.51988 0.52001 0.83626 0.0
O158 O 0.52578 0.52884 0.76535 0.0
H159 H 0.59384 0.54699 0.8458 0.0
H160 H 0.48954 0.4924 0.8512 0.0
Cu161 Cu 0.54403 0.52059 0.20133 0.0
N162 N 0.52962 0.49922 0.18423 0.0
N163 N 0.50744 0.47121 0.17736 0.0
C164 C 0.5139 0.48636 0.19312 0.0
C165 C 0.51974 0.47468 0.15776 0.0
C166 C 0.53347 0.49195 0.16209 0.0
O167 O 0.52004 0.54196 0.21719 0.0
C168 C 0.5852 0.49138 0.21331 0.0
O169 O 0.58837 0.49453 0.19066 0.0
H170 H 0.50793 0.48769 0.21111 0.0
H171 H 0.54571 0.49839 0.15011 0.0
N172 N 0.56044 0.53897 0.18198 0.0
N173 N 0.58815 0.56033 0.17111 0.0
C174 C 0.58006 0.54747 0.18852 0.0
C175 C 0.55562 0.54699 0.15973 0.0
C176 C 0.57274 0.56021 0.15295 0.0
C177 C 0.50157 0.55007 0.2052 0.0
O178 O 0.4995 0.54309 0.18351 0.0
H179 H 0.58803 0.54448 0.20591 0.0
H180 H 0.54069 0.54357 0.14925 0.0
O181 O 0.56644 0.50166 0.22263 0.0
H182 H 0.51896 0.46543 0.14147 0.0
H183 H 0.57385 0.56888 0.13596 0.0
Cu184 Cu 0.8408 0.51648 0.50173 0.0
N185 N 0.85983 0.52624 0.47821 0.0
N186 N 0.86969 0.54413 0.44532 0.0
C187 C 0.85295 0.54306 0.46165 0.0
C188 C 0.88779 0.52732 0.45184 0.0
C189 C 0.88154 0.51613 0.472 0.0
O190 O 0.82535 0.54404 0.51864 0.0
C191 C 0.83039 0.47674 0.47915 0.0
O192 O 0.85226 0.46942 0.48607 0.0
H193 H 0.83578 0.55389 0.46131 0.0
H194 H 0.89167 0.50094 0.48078 0.0
N195 N 0.85944 0.49789 0.52431 0.0
N196 N 0.86999 0.4713 0.55319 0.0
C197 C 0.8523 0.48164 0.53887 0.0
C198 C 0.88229 0.49815 0.52996 0.0
C199 C 0.88893 0.48154 0.54763 0.0
C200 C 0.83903 0.55824 0.52559 0.0
O201 O 0.86128 0.55425 0.51947 0.0
H202 H 0.83458 0.47726 0.53872 0.0
H203 H 0.89331 0.50978 0.52201 0.0
O204 O 0.82054 0.49719 0.48506 0.0
H205 H 0.90388 0.52271 0.44211 0.0
H206 H 0.90616 0.47763 0.55605 0.0
Cu207 Cu 0.55217 0.77873 0.49691 0.0
N208 N 0.57262 0.76117 0.47584 0.0
N209 N 0.59957 0.75319 0.44754 0.0
C210 C 0.58892 0.76955 0.4623 0.0
C211 C 0.58942 0.73381 0.45204 0.0
C212 C 0.57282 0.7388 0.46932 0.0
O213 O 0.56997 0.79742 0.51633 0.0
C214 C 0.51126 0.78739 0.46995 0.0
O215 O 0.51043 0.76555 0.47684 0.0
H216 H 0.59231 0.78755 0.4628 0.0
H217 H 0.56128 0.7271 0.47618 0.0
N218 N 0.53725 0.76039 0.51829 0.0
N219 N 0.51157 0.75134 0.54537 0.0
C220 C 0.51796 0.76829 0.53092 0.0
C221 C 0.54352 0.73775 0.52524 0.0
C222 C 0.52766 0.73208 0.54177 0.0
C223 C 0.59042 0.7879 0.52342 0.0
O224 O 0.599 0.76682 0.51626 0.0
H225 H 0.50868 0.78612 0.52931 0.0
H226 H 0.55877 0.72625 0.51906 0.0
O227 O 0.52815 0.79756 0.47723 0.0
H228 H 0.59354 0.71716 0.44339 0.0
H229 H 0.52828 0.7152 0.55082 0.0
Cu230 Cu 0.2683 0.51279 0.49056 0.0
N231 N 0.25055 0.53637 0.47142 0.0
N232 N 0.24255 0.56636 0.44495 0.0
C233 C 0.25929 0.55315 0.45864 0.0
C234 C 0.22244 0.55755 0.44957 0.0
C235 C 0.22743 0.53912 0.46582 0.0
O236 O 0.29265 0.52729 0.50584 0.0
C237 C 0.2879 0.48811 0.45076 0.0
O238 O 0.2925 0.50872 0.44326 0.0
H239 H 0.2778 0.55497 0.45877 0.0
H240 H 0.21517 0.52817 0.4727 0.0
N241 N 0.25082 0.50141 0.51493 0.0
N242 N 0.24411 0.47866 0.54612 0.0
C243 C 0.25633 0.48021 0.52603 0.0
C244 C 0.23427 0.51365 0.52824 0.0
C245 C 0.23006 0.49968 0.54742 0.0
C246 C 0.30443 0.51795 0.52367 0.0
O247 O 0.30425 0.49558 0.52882 0.0
H248 H 0.2704 0.46687 0.52042 0.0
H249 H 0.22683 0.5319 0.525 0.0
O250 O 0.27939 0.48618 0.47116 0.0
H251 H 0.20529 0.56383 0.44172 0.0
H252 H 0.21817 0.50496 0.56165 0.0
Cu253 Cu 0.53984 0.21703 0.49259 0.0
N254 N 0.55928 0.1988 0.47165 0.0
N255 N 0.58778 0.18995 0.44532 0.0
C256 C 0.57811 0.20565 0.46111 0.0
C257 C 0.57437 0.17252 0.446 0.0
C258 C 0.55676 0.17809 0.46217 0.0
O259 O 0.56031 0.2334 0.51228 0.0
C260 C 0.49956 0.22462 0.4649 0.0
O261 O 0.50098 0.20218 0.47068 0.0
H262 H 0.58392 0.22237 0.46434 0.0
H263 H 0.5427 0.16807 0.46614 0.0
N264 N 0.52506 0.1986 0.51371 0.0
N265 N 0.50181 0.1902 0.5431 0.0
C266 C 0.50896 0.20733 0.52952 0.0
C267 C 0.52836 0.17511 0.51747 0.0
C268 C 0.51392 0.16986 0.53551 0.0
C269 C 0.5762 0.21913 0.52333 0.0
O270 O 0.57725 0.19652 0.51955 0.0
H271 H 0.50265 0.22595 0.53098 0.0
H272 H 0.54077 0.16268 0.50819 0.0
O273 O 0.51517 0.23609 0.47307 0.0
H274 H 0.57682 0.15699 0.43538 0.0
H275 H 0.51296 0.15251 0.54292 0.0
Dy276 Dy 0.27395 0.25653 0.26649 0.0
C277 C 0.34648 0.30789 0.22717 0.0
C278 C 0.23415 0.23669 0.27381 0.0
Dy279 Dy 0.31304 0.28153 0.24076 0.0
O280 O 0.24526 0.24672 0.28987 0.0
O281 O 0.24454 0.23793 0.2537 0.0
O282 O 0.2963 0.24135 0.29807 0.0
O283 O 0.31031 0.26054 0.2721 0.0
C284 C 0.31496 0.25017 0.29172 0.0
C285 C 0.27439 0.27718 0.21512 0.0
O286 O 0.3252 0.24427 0.23101 0.0
O287 O 0.2909 0.22942 0.24178 0.0
O288 O 0.32397 0.31328 0.22299 0.0
O289 O 0.35091 0.28787 0.23885 0.0
O290 O 0.2952 0.27735 0.20639 0.0
O291 O 0.27468 0.28159 0.23689 0.0
O292 O 0.26493 0.29307 0.27998 0.0
O293 O 0.29946 0.30696 0.26839 0.0
C294 C 0.31152 0.22753 0.231 0.0
C295 C 0.27955 0.30896 0.28037 0.0
Dy296 Dy 0.79397 0.28264 0.26204 0.0
C297 C 0.77352 0.2123 0.19466 0.0
C298 C 0.79557 0.31809 0.29355 0.0
Dy299 Dy 0.77783 0.24652 0.2268 0.0
O300 O 0.81366 0.30388 0.2862 0.0
O301 O 0.7765 0.31305 0.28351 0.0
O302 O 0.83085 0.26289 0.26282 0.0
O303 O 0.80224 0.24479 0.25667 0.0
C304 C 0.82443 0.24308 0.25683 0.0
C305 C 0.74762 0.28594 0.23347 0.0
O306 O 0.7632 0.23313 0.25985 0.0
O307 O 0.76906 0.26432 0.2838 0.0
O308 O 0.76343 0.2341 0.19283 0.0
O309 O 0.786 0.20922 0.21406 0.0
O310 O 0.74088 0.26587 0.22897 0.0
O311 O 0.76972 0.28434 0.23222 0.0
O312 O 0.80651 0.29637 0.22793 0.0
O313 O 0.80625 0.26179 0.20744 0.0
C314 C 0.75998 0.24475 0.27978 0.0
C315 C 0.81292 0.28281 0.20977 0.0
Dy316 Dy 0.79975 0.73 0.22439 0.0
C317 C 0.85004 0.80216 0.25831 0.0
C318 C 0.77293 0.69707 0.21087 0.0
Dy319 Dy 0.82701 0.76513 0.24808 0.0
O320 O 0.76991 0.71894 0.20391 0.0
O321 O 0.79089 0.69287 0.22539 0.0
O322 O 0.79412 0.75384 0.19275 0.0
O323 O 0.79534 0.76858 0.2263 0.0
C324 C 0.79398 0.77299 0.20439 0.0
C325 C 0.83419 0.72213 0.26793 0.0
O326 O 0.79233 0.7726 0.26711 0.0
O327 O 0.7795 0.73762 0.25753 0.0
O328 O 0.84414 0.78705 0.2736 0.0
O329 O 0.84331 0.79711 0.23738 0.0
O330 O 0.83684 0.74097 0.27913 0.0
O331 O 0.83159 0.72672 0.24618 0.0
O332 O 0.83312 0.72185 0.20419 0.0
O333 O 0.85011 0.75381 0.21687 0.0
C334 C 0.77783 0.75679 0.27027 0.0
C335 C 0.84969 0.73566 0.20276 0.0
Dy336 Dy 0.27462 0.77099 0.221 0.0
C337 C 0.35131 0.79705 0.28119 0.0
C338 C 0.23414 0.77294 0.19508 0.0
Dy339 Dy 0.31358 0.78637 0.25616 0.0
O340 O 0.23495 0.77763 0.21738 0.0
O341 O 0.25533 0.76667 0.18727 0.0
O342 O 0.29588 0.73685 0.20945 0.0
O343 O 0.31033 0.75885 0.23188 0.0
C344 C 0.31463 0.73953 0.22167 0.0
C345 C 0.26911 0.80895 0.25878 0.0
O346 O 0.32298 0.80304 0.22177 0.0
O347 O 0.29 0.7977 0.19898 0.0
O348 O 0.33278 0.81192 0.27499 0.0
O349 O 0.34938 0.77628 0.27348 0.0
O350 O 0.28341 0.80519 0.27688 0.0
O351 O 0.27982 0.80184 0.24054 0.0
O352 O 0.26721 0.75302 0.25545 0.0
O353 O 0.3023 0.75583 0.27605 0.0
C354 C 0.30984 0.80671 0.20212 0.0
C355 C 0.28216 0.74712 0.27357 0.0
Dy356 Dy 0.29658 0.76535 0.75896 0.0
C357 C 0.28348 0.68438 0.70498 0.0
C358 C 0.29249 0.80716 0.78147 0.0
Dy359 Dy 0.28298 0.72259 0.73274 0.0
O360 O 0.31124 0.79131 0.78193 0.0
O361 O 0.27619 0.80027 0.76851 0.0
O362 O 0.3337 0.74747 0.76463 0.0
O363 O 0.30601 0.72726 0.76237 0.0
C364 C 0.32817 0.7264 0.76314 0.0
C365 C 0.25207 0.76237 0.72933 0.0
O366 O 0.26597 0.71555 0.76701 0.0
O367 O 0.27103 0.7512 0.7837 0.0
O368 O 0.27436 0.70582 0.69912 0.0
O369 O 0.29169 0.68359 0.72648 0.0
O370 O 0.24576 0.74156 0.72973 0.0
O371 O 0.27425 0.76071 0.72898 0.0
O372 O 0.31372 0.77111 0.72437 0.0
O373 O 0.31373 0.73272 0.71256 0.0
C374 C 0.26202 0.73113 0.78401 0.0
C375 C 0.32119 0.75344 0.71033 0.0
Dy376 Dy 0.27823 0.24543 0.74168 0.0
C377 C 0.33307 0.318 0.76953 0.0
C378 C 0.2495 0.21302 0.73203 0.0
Dy379 Dy 0.30941 0.2809 0.76265 0.0
O380 O 0.24434 0.23554 0.72786 0.0
O381 O 0.27043 0.2081 0.74166 0.0
O382 O 0.27931 0.26343 0.70644 0.0
O383 O 0.28023 0.28339 0.73684 0.0
C384 C 0.28159 0.28389 0.71459 0.0
C385 C 0.31626 0.2397 0.78793 0.0
O386 O 0.27463 0.29359 0.77895 0.0
O387 O 0.25647 0.26074 0.77177 0.0
O388 O 0.31837 0.31074 0.78426 0.0
O389 O 0.33448 0.30526 0.75085 0.0
O390 O 0.32729 0.25729 0.7924 0.0
O391 O 0.3032 0.24546 0.77019 0.0
O392 O 0.3136 0.23069 0.7278 0.0
O393 O 0.33112 0.26425 0.73317 0.0
C394 C 0.25739 0.2809 0.78245 0.0
C395 C 0.33086 0.24328 0.72395 0.0
Dy396 Dy 0.78662 0.25965 0.72903 0.0
C397 C 0.85498 0.27049 0.80335 0.0
C398 C 0.74908 0.25692 0.69931 0.0
Dy399 Dy 0.82153 0.27162 0.76824 0.0
O400 O 0.76321 0.23898 0.70834 0.0
O401 O 0.75536 0.27633 0.70673 0.0
O402 O 0.817 0.24013 0.70952 0.0
O403 O 0.819 0.24146 0.74619 0.0
C404 C 0.83041 0.23485 0.72809 0.0
C405 C 0.78429 0.30496 0.75873 0.0
O406 O 0.83705 0.28531 0.73577 0.0
O407 O 0.80309 0.28867 0.71232 0.0
O408 O 0.85935 0.26499 0.78157 0.0
O409 O 0.8324 0.27682 0.80581 0.0
O410 O 0.80449 0.30959 0.76646 0.0
O411 O 0.78449 0.28301 0.75874 0.0
O412 O 0.77394 0.23972 0.75959 0.0
O413 O 0.80244 0.24619 0.78757 0.0
C414 C 0.82464 0.29339 0.71666 0.0
C415 C 0.78385 0.2366 0.78092 0.0
Dy416 Dy 0.76216 0.76064 0.74632 0.0
C417 C 0.83778 0.80846 0.71493 0.0
C418 C 0.72812 0.73396 0.75774 0.0
Dy419 Dy 0.80055 0.78528 0.72473 0.0
O420 O 0.75065 0.72773 0.76076 0.0
O421 O 0.72388 0.7551 0.74832 0.0
O422 O 0.78123 0.75808 0.78103 0.0
O423 O 0.80065 0.75624 0.74976 0.0
C424 C 0.80196 0.75718 0.77192 0.0
C425 C 0.76083 0.78948 0.6989 0.0
O426 O 0.80921 0.75051 0.70715 0.0
O427 O 0.77296 0.73882 0.71462 0.0
O428 O 0.81655 0.81405 0.70638 0.0
O429 O 0.83878 0.79009 0.7289 0.0
O430 O 0.78176 0.78839 0.69015 0.0
O431 O 0.76178 0.79013 0.72116 0.0
O432 O 0.75315 0.79496 0.76455 0.0
O433 O 0.78808 0.80863 0.75488 0.0
C434 C 0.7934 0.73623 0.70349 0.0
C435 C 0.76823 0.8102 0.76702 0.0
C436 C 0.09791 0.09376 0.28486 0.0
C437 C 0.09173 0.08602 0.30731 0.0
C438 C 0.11128 0.11205 0.28237 0.0
C439 C 0.15294 0.14333 0.31466 0.0
H440 H 0.14007 0.18854 0.26257 0.0
C441 C 0.20689 0.21984 0.30133 0.0
C442 C 0.21452 0.22329 0.27827 0.0
C443 C 0.18997 0.20514 0.30578 0.0
C444 C 0.14397 0.17598 0.27713 0.0
H445 H 0.09461 0.09178 0.34473 0.0
H446 H 0.11795 0.12384 0.34039 0.0
H447 H 0.11424 0.15898 0.26892 0.0
H448 H 0.21 0.21473 0.24172 0.0
H449 H 0.18049 0.18909 0.24944 0.0
H450 H 0.18282 0.16021 0.3227 0.0
C451 C 0.11264 0.1155 0.32472 0.0
C452 C 0.12918 0.159 0.28077 0.0
C453 C 0.09925 0.09713 0.32722 0.0
C454 C 0.20439 0.21242 0.25966 0.0
C455 C 0.18741 0.19781 0.26409 0.0
C456 C 0.1677 0.16036 0.31105 0.0
C457 C 0.11886 0.12317 0.30224 0.0
C458 C 0.13366 0.14224 0.29938 0.0
C459 C 0.18026 0.19369 0.28725 0.0
C460 C 0.16357 0.1767 0.29206 0.0
H461 H 0.09291 0.08534 0.26914 0.0
H462 H 0.11615 0.11712 0.26482 0.0
H463 H 0.15711 0.13054 0.32898 0.0
H464 H 0.21441 0.22803 0.316 0.0
H465 H 0.18463 0.20259 0.32378 0.0
C466 C 0.95878 0.05695 0.23705 0.0
C467 C 0.98193 0.06075 0.24231 0.0
C468 C 0.94069 0.076 0.23357 0.0
C469 C 0.92803 0.14055 0.22259 0.0
H470 H 0.87325 0.13659 0.26108 0.0
C471 C 0.86516 0.22289 0.24957 0.0
C472 C 0.841 0.22167 0.2516 0.0
C473 C 0.88115 0.20276 0.24493 0.0
C474 C 0.88816 0.1379 0.24985 0.0
H475 H 1.00451 0.08753 0.24644 0.0
H476 H 0.973 0.12069 0.24023 0.0
H477 H 0.90344 0.10224 0.25782 0.0
H478 H 0.81456 0.19848 0.25062 0.0
H479 H 0.84238 0.16328 0.24184 0.0
H480 H 0.91292 0.17631 0.21485 0.0
C481 C 0.96881 0.10301 0.23884 0.0
C482 C 0.90549 0.11817 0.24799 0.0
C483 C 0.98687 0.08398 0.24249 0.0
C484 C 0.83306 0.19995 0.2488 0.0
C485 C 0.84905 0.17977 0.24403 0.0
C486 C 0.91061 0.16025 0.22432 0.0
C487 C 0.9454 0.09924 0.23506 0.0
C488 C 0.92584 0.1194 0.23471 0.0
C489 C 0.87334 0.1809 0.24216 0.0
C490 C 0.89069 0.15932 0.23838 0.0
H491 H 0.95436 0.03929 0.23672 0.0
H492 H 0.92287 0.07255 0.23036 0.0
H493 H 0.94337 0.14194 0.21198 0.0
H494 H 0.87178 0.23942 0.25171 0.0
H495 H 0.89973 0.20426 0.24408 0.0
C496 C 0.96951 0.95123 0.32174 0.0
C497 C 0.97868 0.96298 0.30279 0.0
C498 C 0.95528 0.93388 0.31764 0.0
C499 C 0.94005 0.89408 0.27107 0.0
H500 H 0.88553 0.88914 0.3096 0.0
C501 C 0.87077 0.83557 0.24572 0.0
C502 C 0.86335 0.82147 0.26384 0.0
C503 C 0.88435 0.85313 0.25093 0.0
C504 C 0.90081 0.89019 0.29881 0.0
H505 H 0.97925 0.96637 0.26468 0.0
H506 H 0.95444 0.9365 0.25756 0.0
H507 H 0.91042 0.91897 0.31812 0.0
H508 H 0.86381 0.81489 0.30158 0.0
H509 H 0.88749 0.84562 0.31072 0.0
H510 H 0.93031 0.86549 0.25162 0.0
C511 C 0.95874 0.94009 0.2756 0.0
C512 C 0.91512 0.90724 0.30373 0.0
C513 C 0.97301 0.95726 0.2797 0.0
C514 C 0.86932 0.82553 0.28728 0.0
C515 C 0.88277 0.84319 0.29251 0.0
C516 C 0.92569 0.87717 0.26608 0.0
C517 C 0.9498 0.92803 0.29449 0.0
C518 C 0.93487 0.90948 0.28984 0.0
C519 C 0.89065 0.85703 0.27438 0.0
C520 C 0.90585 0.87508 0.27982 0.0
H521 H 0.97367 0.95518 0.33971 0.0
H522 H 0.9489 0.9248 0.33261 0.0
H523 H 0.95538 0.89494 0.2603 0.0
H524 H 0.86633 0.83285 0.2275 0.0
H525 H 0.88989 0.86371 0.2366 0.0
C526 C 0.12103 0.9841 0.24938 0.0
C527 C 0.09734 0.98136 0.25275 0.0
C528 C 0.13852 0.96443 0.24814 0.0
C529 C 0.14939 0.90017 0.23928 0.0
H530 H 0.20497 0.90281 0.27818 0.0
C531 C 0.23789 0.83607 0.27903 0.0
C532 C 0.24663 0.82531 0.25835 0.0
C533 C 0.21818 0.85369 0.2781 0.0
C534 C 0.18948 0.90169 0.2674 0.0
H535 H 0.07327 0.95572 0.25607 0.0
H536 H 0.10383 0.9214 0.2538 0.0
H537 H 0.1739 0.93672 0.27545 0.0
H538 H 0.24118 0.82388 0.22059 0.0
H539 H 0.20665 0.85443 0.21899 0.0
H540 H 0.16505 0.86499 0.23135 0.0
C541 C 0.10887 0.93878 0.25216 0.0
C542 C 0.17182 0.92126 0.26557 0.0
C543 C 0.09137 0.95848 0.25352 0.0
C544 C 0.23471 0.83175 0.23686 0.0
C545 C 0.21492 0.84924 0.23594 0.0
C546 C 0.16719 0.88061 0.24097 0.0
C547 C 0.13271 0.94155 0.2501 0.0
C548 C 0.15159 0.92076 0.25147 0.0
C549 C 0.20677 0.8608 0.25647 0.0
C550 C 0.18741 0.88116 0.2551 0.0
H551 H 0.12626 1.00145 0.2486 0.0
H552 H 0.1567 0.96712 0.24612 0.0
H553 H 0.13404 0.89928 0.22822 0.0
H554 H 0.2467 0.83139 0.29584 0.0
H555 H 0.2121 0.86203 0.29427 0.0
C556 C 0.1012 0.93926 0.73469 0.0
C557 C 0.10876 0.95637 0.71973 0.0
C558 C 0.11678 0.91887 0.74135 0.0
C559 C 0.17979 0.89195 0.7438 0.0
H560 H 0.15649 0.83451 0.72709 0.0
C561 C 0.24281 0.8063 0.72574 0.0
C562 C 0.23567 0.78461 0.73157 0.0
C563 C 0.22727 0.82733 0.72806 0.0
C564 C 0.16326 0.85024 0.73234 0.0
H565 H 0.13874 0.96647 0.70136 0.0
H566 H 0.16597 0.93138 0.71345 0.0
H567 H 0.12955 0.87154 0.72673 0.0
H568 H 0.20687 0.7678 0.74471 0.0
H569 H 0.17985 0.80442 0.74925 0.0
H570 H 0.21354 0.87076 0.74932 0.0
C571 C 0.14809 0.93348 0.71991 0.0
C572 C 0.14775 0.87151 0.73213 0.0
C573 C 0.13247 0.95354 0.71292 0.0
C574 C 0.21275 0.7843 0.73987 0.0
C575 C 0.19726 0.80532 0.74241 0.0
C576 C 0.19528 0.87063 0.74429 0.0
C577 C 0.14024 0.91554 0.73354 0.0
C578 C 0.15594 0.89267 0.73734 0.0
C579 C 0.20423 0.82715 0.7364 0.0
C580 C 0.18735 0.84954 0.73802 0.0
H581 H 0.08294 0.94092 0.74 0.0
H582 H 0.1103 0.90536 0.75197 0.0
H583 H 0.18657 0.90797 0.74809 0.0
H584 H 0.26038 0.80699 0.71918 0.0
H585 H 0.2332 0.84368 0.72283 0.0
C586 C 0.10597 0.08884 0.6673 0.0
C587 C 0.10897 0.06594 0.67725 0.0
C588 C 0.12187 0.10423 0.67266 0.0
C589 C 0.182 0.10682 0.69487 0.0
H590 H 0.1556 0.16996 0.71261 0.0
C591 C 0.2398 0.17193 0.73295 0.0
C592 C 0.23396 0.19571 0.726 0.0
C593 C 0.2249 0.15569 0.72702 0.0
C594 C 0.16333 0.15252 0.70739 0.0
H595 H 0.13149 0.04093 0.69987 0.0
H596 H 0.15934 0.06782 0.70919 0.0
H597 H 0.12937 0.14243 0.70121 0.0
H598 H 0.20826 0.2212 0.7072 0.0
H599 H 0.18264 0.19293 0.69633 0.0
H600 H 0.21599 0.11698 0.70071 0.0
C601 C 0.14464 0.07387 0.69731 0.0
C602 C 0.14825 0.13673 0.70088 0.0
C603 C 0.1286 0.05855 0.69213 0.0
C604 C 0.2131 0.20298 0.71294 0.0
C605 C 0.19834 0.18677 0.70684 0.0
C606 C 0.19712 0.1227 0.70118 0.0
C607 C 0.14124 0.09698 0.68789 0.0
C608 C 0.15741 0.11373 0.69453 0.0
C609 C 0.20396 0.16292 0.71387 0.0
C610 C 0.18797 0.14579 0.70748 0.0
H611 H 0.09094 0.0951 0.65593 0.0
H612 H 0.11894 0.12188 0.66496 0.0
H613 H 0.18956 0.08925 0.68987 0.0
H614 H 0.25578 0.16591 0.7431 0.0
H615 H 0.22966 0.13754 0.733 0.0
C616 C 0.991 0.0645 0.73063 0.0
C617 C 0.99071 0.05467 0.7082 0.0
C618 C 0.97364 0.08332 0.73666 0.0
C619 C 0.91411 0.1139 0.71739 0.0
H620 H 0.93211 0.16835 0.74786 0.0
C621 C 0.85815 0.20462 0.70756 0.0
C622 C 0.85122 0.21617 0.72842 0.0
C623 C 0.87572 0.18494 0.70805 0.0
C624 C 0.92683 0.15315 0.73956 0.0
H625 H 0.97165 0.05669 0.67475 0.0
H626 H 0.94209 0.08916 0.68498 0.0
H627 H 0.96123 0.13271 0.74411 0.0
H628 H 0.8581 0.21695 0.76598 0.0
H629 H 0.88945 0.18265 0.7667 0.0
H630 H 0.88011 0.13459 0.7119 0.0
C631 C 0.95531 0.08233 0.69818 0.0
C632 C 0.94343 0.1327 0.73751 0.0
C633 C 0.9725 0.06372 0.69222 0.0
C634 C 0.8631 0.20836 0.74964 0.0
C635 C 0.881 0.18878 0.75007 0.0
C636 C 0.89772 0.13432 0.71916 0.0
C637 C 0.95561 0.0925 0.72041 0.0
C638 C 0.93742 0.11303 0.72581 0.0
C639 C 0.887 0.17653 0.72934 0.0
C640 C 0.90404 0.15434 0.72974 0.0
H641 H 1.00485 0.05798 0.74331 0.0
H642 H 0.97432 0.09067 0.75399 0.0
H643 H 0.90861 0.09891 0.70887 0.0
H644 H 0.84943 0.21027 0.69092 0.0
H645 H 0.88025 0.17602 0.69177 0.0
C646 C 0.99925 0.92579 0.69554 0.0
C647 C 0.99759 0.94011 0.67502 0.0
C648 C 0.98347 0.9098 0.6993 0.0
C649 C 0.93831 0.88013 0.66883 0.0
H650 H 0.91708 0.87129 0.73258 0.0
C651 C 0.85531 0.83845 0.69137 0.0
C652 C 0.8575 0.82148 0.70978 0.0
C653 C 0.87363 0.85132 0.68667 0.0
C654 C 0.92304 0.87339 0.71473 0.0
H655 H 0.97817 0.94893 0.64232 0.0
H656 H 0.95007 0.9216 0.6491 0.0
H657 H 0.9464 0.89707 0.72515 0.0
H658 H 0.88048 0.80454 0.73773 0.0
H659 H 0.91249 0.82748 0.72981 0.0
H660 H 0.91411 0.85706 0.65845 0.0
C661 C 0.96395 0.92217 0.66208 0.0
C662 C 0.93994 0.88811 0.71043 0.0
C663 C 0.97999 0.93792 0.65817 0.0
C664 C 0.87839 0.81752 0.7234 0.0
C665 C 0.89661 0.83068 0.71894 0.0
C666 C 0.92116 0.86567 0.67312 0.0
C667 C 0.96538 0.90797 0.68278 0.0
C668 C 0.94778 0.89176 0.6874 0.0
C669 C 0.89439 0.84772 0.70053 0.0
C670 C 0.91331 0.86222 0.6961 0.0
H671 H 1.0129 0.92686 0.70863 0.0
H672 H 0.98556 0.89883 0.71517 0.0
H673 H 0.94419 0.88207 0.65094 0.0
H674 H 0.83937 0.84184 0.6806 0.0
H675 H 0.87135 0.86449 0.67253 0.0
C676 C 0.30292 0.09995 0.06422 0.0
C677 C 0.28594 0.08512 0.06849 0.0
C678 C 0.31011 0.11372 0.08214 0.0
C679 C 0.31191 0.11817 0.14693 0.0
H680 H 0.31595 0.18396 0.13388 0.0
C681 C 0.30565 0.18748 0.21847 0.0
C682 C 0.31752 0.20704 0.21572 0.0
C683 C 0.30704 0.17039 0.20131 0.0
C684 C 0.31544 0.1655 0.13776 0.0
H685 H 0.2633 0.07306 0.09503 0.0
H686 H 0.27555 0.09728 0.12615 0.0
H687 H 0.30729 0.15896 0.10186 0.0
H688 H 0.34152 0.22314 0.19353 0.0
H689 H 0.34418 0.19304 0.16357 0.0
H690 H 0.31959 0.1248 0.18292 0.0
C691 C 0.28349 0.0981 0.10899 0.0
C692 C 0.31036 0.15119 0.11939 0.0
C693 C 0.27622 0.08446 0.09105 0.0
C694 C 0.33219 0.20826 0.19621 0.0
C695 C 0.3335 0.19115 0.17891 0.0
C696 C 0.31707 0.13245 0.16528 0.0
C697 C 0.30057 0.11283 0.10477 0.0
C698 C 0.30802 0.1275 0.12387 0.0
C699 C 0.32032 0.17244 0.18092 0.0
C700 C 0.31837 0.15642 0.16102 0.0
H701 H 0.3106 0.10101 0.04698 0.0
H702 H 0.32335 0.12483 0.07834 0.0
H703 H 0.3107 0.09985 0.15086 0.0
H704 H 0.29427 0.18594 0.23335 0.0
H705 H 0.29651 0.15635 0.2034 0.0
C706 C 0.96531 0.34813 0.08408 0.0
C707 C 0.97486 0.33118 0.06794 0.0
C708 C 0.94594 0.3446 0.0978 0.0
C709 C 0.91646 0.29609 0.12097 0.0
H710 H 0.86716 0.34616 0.13868 0.0
C711 C 0.83601 0.27629 0.17272 0.0
C712 C 0.82889 0.29069 0.19181 0.0
C713 C 0.8524 0.28256 0.15667 0.0
C714 C 0.88092 0.33204 0.13403 0.0
H715 H 0.97046 0.2976 0.05301 0.0
H716 H 0.93651 0.29191 0.07624 0.0
H717 H 0.89791 0.35483 0.11173 0.0
H718 H 0.83302 0.32342 0.20852 0.0
H719 H 0.86179 0.33433 0.18042 0.0
H720 H 0.89965 0.27332 0.14324 0.0
C721 C 0.94436 0.3077 0.07872 0.0
C722 C 0.89854 0.337 0.11859 0.0
C723 C 0.96374 0.31117 0.06509 0.0
C724 C 0.83809 0.31191 0.19403 0.0
C725 C 0.85451 0.31822 0.17788 0.0
C726 C 0.89888 0.29115 0.1363 0.0
C727 C 0.93556 0.32407 0.09567 0.0
C728 C 0.91649 0.31904 0.11181 0.0
C729 C 0.86214 0.3034 0.15923 0.0
C730 C 0.88083 0.30902 0.14297 0.0
H731 H 0.97311 0.36393 0.08652 0.0
H732 H 0.93968 0.35758 0.11069 0.0
H733 H 0.93031 0.28193 0.11665 0.0
H734 H 0.82924 0.25989 0.17029 0.0
H735 H 0.85756 0.27095 0.14227 0.0
C736 C 0.79983 0.92159 0.05846 0.0
C737 C 0.81569 0.93788 0.05988 0.0
C738 C 0.79581 0.90776 0.07806 0.0
C739 C 0.82158 0.88505 0.13551 0.0
H740 H 0.75948 0.86687 0.14257 0.0
C741 C 0.79716 0.81614 0.20521 0.0
C742 C 0.79246 0.7964 0.19288 0.0
C743 C 0.79802 0.83753 0.19309 0.0
C744 C 0.77678 0.87216 0.14104 0.0
H745 H 0.83972 0.95262 0.08293 0.0
H746 H 0.8325 0.92861 0.11747 0.0
H747 H 0.76537 0.89703 0.11319 0.0
H748 H 0.78345 0.78383 0.15873 0.0
H749 H 0.78395 0.82126 0.13794 0.0
H750 H 0.83287 0.85967 0.16325 0.0
C751 C 0.82344 0.92625 0.10106 0.0
C752 C 0.78027 0.88917 0.12405 0.0
C753 C 0.82764 0.93995 0.08129 0.0
C754 C 0.7873 0.79871 0.16865 0.0
C755 C 0.7875 0.82011 0.15675 0.0
C756 C 0.81796 0.86824 0.15278 0.0
C757 C 0.80734 0.91009 0.0997 0.0
C758 C 0.80293 0.89508 0.12038 0.0
C759 C 0.79329 0.83954 0.16874 0.0
C760 C 0.79574 0.86109 0.15502 0.0
H761 H 0.79064 0.91945 0.04207 0.0
H762 H 0.78383 0.89503 0.07611 0.0
H763 H 0.83926 0.88908 0.13313 0.0
H764 H 0.80071 0.81488 0.22399 0.0
H765 H 0.80248 0.85241 0.20261 0.0
C766 C 0.06642 0.77687 0.06423 0.0
C767 C 0.06595 0.79055 0.04334 0.0
C768 C 0.08124 0.78046 0.08303 0.0
C769 C 0.13753 0.80201 0.09275 0.0
H770 H 0.12638 0.78553 0.15785 0.0
C771 C 0.21416 0.76957 0.15648 0.0
C772 C 0.21275 0.77664 0.17995 0.0
C773 C 0.19462 0.77457 0.14134 0.0
C774 C 0.12974 0.79051 0.13983 0.0
H775 H 0.07918 0.82004 0.0265 0.0
H776 H 0.10476 0.82681 0.05964 0.0
H777 H 0.09359 0.79117 0.12951 0.0
H778 H 0.18983 0.79432 0.20616 0.0
H779 H 0.15552 0.80333 0.17955 0.0
H780 H 0.1736 0.80146 0.10301 0.0
C781 C 0.09405 0.81288 0.06125 0.0
C782 C 0.11097 0.79352 0.12352 0.0
C783 C 0.07919 0.80921 0.04236 0.0
C784 C 0.19129 0.78851 0.18816 0.0
C785 C 0.17169 0.79365 0.17292 0.0
C786 C 0.15623 0.79913 0.10906 0.0
C787 C 0.0959 0.79796 0.08147 0.0
C788 C 0.11476 0.79867 0.09962 0.0
C789 C 0.17322 0.78698 0.14923 0.0
C790 C 0.15272 0.79265 0.13265 0.0
H791 H 0.05609 0.76261 0.06563 0.0
H792 H 0.08221 0.76852 0.09816 0.0
H793 H 0.14125 0.80575 0.07451 0.0
H794 H 0.23048 0.76031 0.14972 0.0
H795 H 0.19631 0.76863 0.1234 0.0
C796 C 0.2891 0.96207 0.92393 0.0
C797 C 0.26697 0.97282 0.93185 0.0
C798 C 0.29074 0.94574 0.90603 0.0
C799 C 0.25656 0.90575 0.87487 0.0
H800 H 0.30807 0.90315 0.83082 0.0
C801 C 0.26684 0.84221 0.79696 0.0
C802 C 0.28926 0.82863 0.79544 0.0
C803 C 0.26325 0.86142 0.81182 0.0
C804 C 0.29363 0.90366 0.84304 0.0
H805 H 0.22914 0.97439 0.92673 0.0
H806 H 0.23206 0.94654 0.89497 0.0
H807 H 0.30288 0.93385 0.86 0.0
H808 H 0.32565 0.82476 0.80755 0.0
H809 H 0.31948 0.85858 0.8333 0.0
H810 H 0.24729 0.87559 0.85763 0.0
C811 C 0.24818 0.95051 0.90302 0.0
C812 C 0.29069 0.92117 0.85985 0.0
C813 C 0.24651 0.96675 0.92114 0.0
C814 C 0.3082 0.83499 0.80841 0.0
C815 C 0.30468 0.85436 0.82306 0.0
C816 C 0.25936 0.8884 0.85787 0.0
C817 C 0.27034 0.9398 0.89524 0.0
C818 C 0.27236 0.9222 0.87626 0.0
C819 C 0.2821 0.86753 0.82518 0.0
C820 C 0.27813 0.88698 0.84202 0.0
H821 H 0.30537 0.96624 0.93131 0.0
H822 H 0.30812 0.93755 0.90087 0.0
H823 H 0.24245 0.90578 0.88738 0.0
H824 H 0.25194 0.83767 0.78709 0.0
H825 H 0.24572 0.87141 0.81298 0.0
C826 C 0.10483 0.31261 0.93219 0.0
C827 C 0.10803 0.3287 0.94981 0.0
C828 C 0.12005 0.30956 0.91308 0.0
C829 C 0.17999 0.31843 0.89485 0.0
H830 H 0.1568 0.30592 0.8327 0.0
C831 C 0.24088 0.30826 0.81407 0.0
C832 C 0.23882 0.28907 0.79967 0.0
C833 C 0.2242 0.3149 0.8314 0.0
C834 C 0.16356 0.30926 0.84999 0.0
H835 H 0.1298 0.35446 0.9607 0.0
H836 H 0.15589 0.34958 0.92712 0.0
H837 H 0.12901 0.31446 0.86468 0.0
H838 H 0.21717 0.2622 0.7919 0.0
H839 H 0.18816 0.27381 0.82206 0.0
H840 H 0.21455 0.31317 0.88012 0.0
C841 C 0.14181 0.33901 0.92831 0.0
C842 C 0.14764 0.31411 0.86835 0.0
C843 C 0.12661 0.34202 0.94748 0.0
C844 C 0.21936 0.27707 0.80265 0.0
C845 C 0.20262 0.2838 0.81987 0.0
C846 C 0.19589 0.3137 0.87646 0.0
C847 C 0.13886 0.32258 0.91096 0.0
C848 C 0.15566 0.31855 0.89109 0.0
C849 C 0.20498 0.30262 0.83465 0.0
C850 C 0.18789 0.30884 0.85386 0.0
H851 H 0.09057 0.30227 0.93311 0.0
H852 H 0.11734 0.29657 0.90022 0.0
H853 H 0.18689 0.32137 0.91218 0.0
H854 H 0.25561 0.31794 0.81229 0.0
H855 H 0.22637 0.32965 0.84231 0.0
C856 C 0.78027 0.07274 0.92077 0.0
C857 C 0.80392 0.06439 0.92711 0.0
C858 C 0.77462 0.09205 0.9053 0.0
C859 C 0.79884 0.14354 0.88164 0.0
H860 H 0.74979 0.14494 0.83374 0.0
C861 C 0.77657 0.22447 0.82196 0.0
C862 C 0.77563 0.22001 0.79783 0.0
C863 C 0.77474 0.20665 0.83859 0.0
C864 C 0.76353 0.14479 0.84701 0.0
H865 H 0.84015 0.06979 0.92188 0.0
H866 H 0.83037 0.10308 0.89441 0.0
H867 H 0.75887 0.11064 0.86036 0.0
H868 H 0.77032 0.19417 0.77198 0.0
H869 H 0.76784 0.16261 0.80104 0.0
H870 H 0.80436 0.17703 0.86782 0.0
C871 C 0.81615 0.09492 0.90177 0.0
C872 C 0.76861 0.12525 0.86239 0.0
C873 C 0.82179 0.07565 0.91732 0.0
C874 C 0.77093 0.19802 0.79054 0.0
C875 C 0.76953 0.17997 0.80721 0.0
C876 C 0.79387 0.16295 0.86627 0.0
C877 C 0.79248 0.10344 0.89571 0.0
C878 C 0.78649 0.12434 0.87972 0.0
C879 C 0.77251 0.18385 0.83138 0.0
C880 C 0.77624 0.1638 0.84869 0.0
H881 H 0.76603 0.06429 0.92757 0.0
H882 H 0.75622 0.09827 0.90114 0.0
H883 H 0.81246 0.14358 0.89502 0.0
H884 H 0.77996 0.24143 0.82797 0.0
H885 H 0.77636 0.21042 0.85708 0.0
C886 C 0.96188 0.75526 0.91527 0.0
C887 C 0.98472 0.74922 0.90648 0.0
C888 C 0.9425 0.76043 0.89975 0.0
C889 C 0.9255 0.74573 0.84011 0.0
H890 H 0.87014 0.79213 0.84934 0.0
C891 C 0.84581 0.75578 0.77557 0.0
C892 C 0.82347 0.75893 0.78585 0.0
C893 C 0.86597 0.75752 0.78919 0.0
C894 C 0.88543 0.77897 0.84661 0.0
H895 H 1.00551 0.74601 0.87481 0.0
H896 H 0.97189 0.75521 0.84779 0.0
H897 H 0.90439 0.79082 0.87567 0.0
H898 H 0.80454 0.76643 0.81829 0.0
H899 H 0.83958 0.76882 0.84212 0.0
H900 H 0.90649 0.73337 0.81157 0.0
C901 C 0.96877 0.75533 0.86657 0.0
C902 C 0.90503 0.77827 0.86168 0.0
C903 C 0.98802 0.75012 0.88202 0.0
C904 C 0.82158 0.7639 0.80989 0.0
C905 C 0.84166 0.76554 0.82351 0.0
C906 C 0.90591 0.74635 0.82515 0.0
C907 C 0.94572 0.75972 0.87521 0.0
C908 C 0.92522 0.76154 0.85867 0.0
C909 C 0.86413 0.76229 0.81338 0.0
C910 C 0.88554 0.76282 0.82832 0.0
H911 H 0.95888 0.75458 0.93405 0.0
H912 H 0.92493 0.7637 0.90694 0.0
H913 H 0.94062 0.73233 0.83757 0.0
H914 H 0.84774 0.75173 0.75711 0.0
H915 H 0.88299 0.75512 0.78077 0.0
C916 C 0.13409 0.26444 0.05442 0.0
C917 C 0.11003 0.27247 0.05799 0.0
C918 C 0.15039 0.26274 0.07315 0.0
C919 C 0.15744 0.26263 0.13856 0.0
H920 H 0.21552 0.28595 0.1229 0.0
C921 C 0.23031 0.2795 0.20772 0.0
C922 C 0.25375 0.27358 0.20038 0.0
C923 C 0.21141 0.27805 0.19198 0.0
C924 C 0.19954 0.27912 0.1276 0.0
H925 H 0.08415 0.28388 0.08451 0.0
H926 H 0.11267 0.28103 0.11721 0.0
H927 H 0.18552 0.28504 0.0926 0.0
H928 H 0.2757 0.25998 0.17148 0.0
H929 H 0.2432 0.25715 0.14455 0.0
H930 H 0.17175 0.25688 0.1738 0.0
C931 C 0.11891 0.27592 0.09988 0.0
C932 C 0.18229 0.27855 0.11014 0.0
C933 C 0.10253 0.27758 0.08108 0.0
C934 C 0.25787 0.2651 0.17757 0.0
C935 C 0.23918 0.26359 0.16203 0.0
C936 C 0.17483 0.26321 0.15616 0.0
C937 C 0.14317 0.26912 0.09602 0.0
C938 C 0.16113 0.26999 0.11521 0.0
C939 C 0.2157 0.27065 0.1687 0.0
C940 C 0.19628 0.27114 0.15078 0.0
H941 H 0.14052 0.26014 0.03696 0.0
H942 H 0.16883 0.25686 0.06957 0.0
H943 H 0.14136 0.25593 0.14313 0.0
H944 H 0.22663 0.28598 0.22524 0.0
H945 H 0.19352 0.28355 0.19772 0.0
C946 C 0.12582 0.74196 0.94583 0.0
C947 C 0.11052 0.72526 0.94918 0.0
C948 C 0.14475 0.73786 0.93045 0.0
C949 C 0.16265 0.7064 0.87662 0.0
H950 H 0.22202 0.72877 0.889 0.0
C951 C 0.23562 0.70623 0.80545 0.0
C952 C 0.24677 0.72645 0.80421 0.0
C953 C 0.2207 0.70258 0.82424 0.0
C954 C 0.2055 0.72257 0.88513 0.0
H955 H 0.10344 0.6908 0.93938 0.0
H956 H 0.13672 0.68354 0.91217 0.0
H957 H 0.19371 0.72783 0.92052 0.0
H958 H 0.25077 0.75865 0.82206 0.0
H959 H 0.22489 0.75244 0.85431 0.0
H960 H 0.17418 0.70184 0.84098 0.0
C961 C 0.13402 0.69984 0.92164 0.0
C962 C 0.18927 0.72194 0.90329 0.0
C963 C 0.11516 0.70383 0.93744 0.0
C964 C 0.2427 0.74278 0.82235 0.0
C965 C 0.22789 0.73912 0.84105 0.0
C966 C 0.1789 0.7071 0.85837 0.0
C967 C 0.1488 0.71703 0.91764 0.0
C968 C 0.16738 0.71439 0.89918 0.0
C969 C 0.21662 0.719 0.84233 0.0
C970 C 0.20033 0.71575 0.86223 0.0
H971 H 0.12258 0.75872 0.95448 0.0
H972 H 0.1555 0.75163 0.92768 0.0
H973 H 0.14589 0.70068 0.87273 0.0
H974 H 0.23827 0.69327 0.79183 0.0
H975 H 0.21248 0.68679 0.82467 0.0
C976 C 0.32765 0.08235 0.94252 0.0
C977 C 0.30543 0.07496 0.94427 0.0
C978 C 0.33214 0.09777 0.924 0.0
C979 C 0.31064 0.12048 0.86445 0.0
H980 H 0.33455 0.17751 0.88124 0.0
C981 C 0.30072 0.20297 0.80171 0.0
C982 C 0.31799 0.21785 0.80272 0.0
C983 C 0.30156 0.18371 0.81761 0.0
C984 C 0.32827 0.16153 0.876 0.0
H985 H 0.27099 0.07702 0.92741 0.0
H986 H 0.27893 0.1032 0.8953 0.0
H987 H 0.33323 0.14652 0.911 0.0
H988 H 0.35016 0.22375 0.82045 0.0
H989 H 0.35219 0.18993 0.84739 0.0
H990 H 0.30561 0.13536 0.82949 0.0
C991 C 0.29286 0.0974 0.90812 0.0
C992 C 0.32752 0.14372 0.89318 0.0
C993 C 0.28827 0.08248 0.92669 0.0
C994 C 0.33649 0.21266 0.81934 0.0
C995 C 0.33752 0.19333 0.83498 0.0
C996 C 0.31161 0.13817 0.8472 0.0
C997 C 0.31468 0.10558 0.90667 0.0
C998 C 0.31831 0.12315 0.88774 0.0
C999 C 0.31984 0.17878 0.83473 0.0
C1000 C 0.32008 0.15917 0.85276 0.0
H1001 H 0.34118 0.07692 0.95583 0.0
H1002 H 0.34919 0.10371 0.92331 0.0
H1003 H 0.30366 0.10474 0.8596 0.0
H1004 H 0.28612 0.20669 0.78924 0.0
H1005 H 0.28742 0.17319 0.81694 0.0
C1006 C 0.98181 0.26279 -0.01934 0.0
C1007 C 1.00478 0.26783 0.97709 0.0
C1008 C 0.9666 0.26103 0.96148 0.0
C1009 C 0.95879 0.27809 0.89742 0.0
H1010 H 0.90897 0.23942 0.90072 0.0
C1011 C 0.89705 0.26601 0.81788 0.0
C1012 C 0.8728 0.26909 0.82269 0.0
C1013 C 0.91378 0.26475 0.83628 0.0
C1014 C 0.92276 0.25038 0.89958 0.0
H1015 H 1.03015 0.27376 0.95045 0.0
H1016 H 1.00418 0.26955 0.91708 0.0
H1017 H 0.93743 0.23795 0.93319 0.0
H1018 H 0.84707 0.27294 0.85051 0.0
H1019 H 0.87628 0.27026 0.88263 0.0
H1020 H 0.94424 0.29006 0.8635 0.0
C1021 C 0.99745 0.26785 0.93466 0.0
C1022 C 0.93907 0.24966 0.91828 0.0
C1023 C 1.01251 0.27001 0.95385 0.0
C1024 C 0.86564 0.27062 0.84626 0.0
C1025 C 0.88236 0.26895 0.86466 0.0
C1026 C 0.9427 0.27851 0.87858 0.0
C1027 C 0.97403 0.26389 0.93814 0.0
C1028 C 0.95724 0.26369 0.91764 0.0
C1029 C 0.90663 0.2661 0.8599 0.0
C1030 C 0.92435 0.26486 0.87953 0.0
H1031 H 0.97518 0.26127 -0.00167 0.0
H1032 H 0.9487 0.2583 0.96509 0.0
H1033 H 0.97209 0.28958 0.89628 0.0
H1034 H 0.90308 0.26474 0.79989 0.0
H1035 H 0.93235 0.26242 0.83205 0.0
C1036 C 0.75548 0.94523 0.93587 0.0
C1037 C 0.77737 0.9535 0.93617 0.0
C1038 C 0.74938 0.9315 0.91712 0.0
C1039 C 0.76356 0.9183 0.85492 0.0
H1040 H 0.74705 0.8563 0.8677 0.0
C1041 C 0.7795 0.8455 0.78698 0.0
C1042 C 0.76393 0.82889 0.78497 0.0
C1043 C 0.77688 0.86211 0.80472 0.0
C1044 C 0.75121 0.87372 0.86372 0.0
H1045 H 0.80954 0.95453 0.91667 0.0
H1046 H 0.79878 0.93141 0.88424 0.0
H1047 H 0.74925 0.88334 0.90011 0.0
H1048 H 0.73308 0.81709 0.8002 0.0
H1049 H 0.72834 0.84636 0.83115 0.0
H1050 H 0.76592 0.90883 0.81875 0.0
C1051 C 0.78635 0.93521 0.89837 0.0
C1052 C 0.75245 0.88922 0.88234 0.0
C1053 C 0.79258 0.94838 0.91711 0.0
C1054 C 0.74537 0.82964 0.8011 0.0
C1055 C 0.74276 0.84633 0.81899 0.0
C1056 C 0.76218 0.90295 0.83637 0.0
C1057 C 0.76481 0.92638 0.89814 0.0
C1058 C 0.75936 0.91143 0.87823 0.0
C1059 C 0.75856 0.86276 0.8211 0.0
C1060 C 0.75674 0.88013 0.84055 0.0
H1061 H 0.74345 0.94879 0.95034 0.0
H1062 H 0.73262 0.92495 0.91742 0.0
H1063 H 0.76857 0.93542 0.85108 0.0
H1064 H 0.79411 0.84551 0.77505 0.0
H1065 H 0.78971 0.87409 0.80594 0.0
C1066 C 1.00524 0.71441 0.05094 0.0
C1067 C 0.9963 0.70778 0.02933 0.0
C1068 C 0.99149 0.71518 0.07131 0.0
C1069 C 0.93987 0.69394 0.09841 0.0
H1070 H 0.93213 0.75271 0.13155 0.0
C1071 C 0.86499 0.71631 0.16554 0.0
C1072 C 0.86826 0.73075 0.18457 0.0
C1073 C 0.88192 0.71232 0.14788 0.0
C1074 C 0.93433 0.73596 0.12291 0.0
H1075 H 0.96633 0.69574 0.0125 0.0
H1076 H 0.94275 0.6963 0.0481 0.0
H1077 H 0.95999 0.7467 0.0994 0.0
H1078 H 0.89234 0.75196 0.20009 0.0
H1079 H 0.92224 0.74433 0.16993 0.0
H1080 H 0.91463 0.68288 0.12201 0.0
C1081 C 0.96027 0.70112 0.0493 0.0
C1082 C 0.95034 0.73257 0.10435 0.0
C1083 C 0.9738 0.7008 0.02887 0.0
C1084 C 0.88913 0.74084 0.18564 0.0
C1085 C 0.90626 0.73657 0.16815 0.0
C1086 C 0.92414 0.69715 0.11721 0.0
C1087 C 0.96867 0.70889 0.07065 0.0
C1088 C 0.95308 0.71165 0.09165 0.0
C1089 C 0.90289 0.72236 0.14884 0.0
C1090 C 0.92079 0.71837 0.12959 0.0
H1091 H 1.02236 0.72019 0.05187 0.0
H1092 H 0.99854 0.72109 0.08752 0.0
H1093 H 0.94173 0.67751 0.08916 0.0
H1094 H 0.84904 0.70843 0.16394 0.0
H1095 H 0.8782 0.70172 0.1332 0.0
C1096 C 0.33194 0.96579 0.05708 0.0
C1097 C 0.31397 0.96482 0.04022 0.0
C1098 C 0.33777 0.94731 0.07389 0.0
C1099 C 0.33048 0.88482 0.0871 0.0
H1100 H 0.33012 0.9022 0.15264 0.0
C1101 C 0.3052 0.82366 0.16089 0.0
C1102 C 0.31655 0.82268 0.18308 0.0
C1103 C 0.30988 0.83972 0.14333 0.0
C1104 C 0.3307 0.89695 0.13445 0.0
H1105 H 0.28892 0.94341 0.02701 0.0
H1106 H 0.29931 0.91133 0.05559 0.0
H1107 H 0.3304 0.93248 0.12163 0.0
H1108 H 0.34216 0.83782 0.2039 0.0
H1109 H 0.35035 0.866 0.17309 0.0
H1110 H 0.33008 0.84949 0.09974 0.0
C1111 C 0.30895 0.92614 0.05611 0.0
C1112 C 0.3309 0.91434 0.11664 0.0
C1113 C 0.30292 0.94462 0.03972 0.0
C1114 C 0.33313 0.83799 0.18702 0.0
C1115 C 0.33771 0.85428 0.16941 0.0
C1116 C 0.3303 0.8675 0.10483 0.0
C1117 C 0.32605 0.9274 0.07379 0.0
C1118 C 0.33006 0.90859 0.09272 0.0
C1119 C 0.32602 0.85543 0.14735 0.0
C1120 C 0.32967 0.8734 0.12874 0.0
H1121 H 0.34053 0.98129 0.05807 0.0
H1122 H 0.3511 0.94879 0.08722 0.0
H1123 H 0.33029 0.87966 0.06889 0.0
H1124 H 0.29233 0.8122 0.1571 0.0
H1125 H 0.30025 0.84026 0.12675 0.0
C1126 C 0.75711 0.06701 0.03908 0.0
C1127 C 0.77505 0.0478 0.04331 0.0
C1128 C 0.75247 0.08471 0.05588 0.0
C1129 C 0.76314 0.09787 0.11884 0.0
H1130 H 0.76245 0.16212 0.09616 0.0
C1131 C 0.78319 0.17082 0.18092 0.0
C1132 C 0.77099 0.19375 0.17743 0.0
C1133 C 0.78077 0.15326 0.16474 0.0
C1134 C 0.76223 0.14436 0.10286 0.0
H1135 H 0.80135 0.03143 0.06866 0.0
H1136 H 0.79295 0.06161 0.09792 0.0
H1137 H 0.76154 0.13079 0.06801 0.0
H1138 H 0.74662 0.21625 0.15423 0.0
H1139 H 0.74215 0.1856 0.12611 0.0
H1140 H 0.76412 0.11124 0.15364 0.0
C1141 C 0.78244 0.06329 0.08182 0.0
C1142 C 0.76165 0.12637 0.08666 0.0
C1143 C 0.78731 0.04598 0.065 0.0
C1144 C 0.75631 0.19875 0.15738 0.0
C1145 C 0.75385 0.18117 0.14118 0.0
C1146 C 0.76362 0.11583 0.13502 0.0
C1147 C 0.7654 0.08322 0.07732 0.0
C1148 C 0.76261 0.1028 0.09443 0.0
C1149 C 0.76602 0.15813 0.14463 0.0
C1150 C 0.76368 0.13929 0.1273 0.0
H1151 H 0.74765 0.06902 0.02236 0.0
H1152 H 0.73914 0.09978 0.05191 0.0
H1153 H 0.76354 0.07999 0.12549 0.0
H1154 H 0.79472 0.16645 0.19615 0.0
H1155 H 0.7908 0.13591 0.16786 0.0
C1156 C 0.60271 0.58322 0.78246 0.0
C1157 C 0.59578 0.57753 0.8053 0.0
C1158 C 0.6142 0.60269 0.77837 0.0
C1159 C 0.65019 0.64104 0.80882 0.0
H1160 H 0.64004 0.67851 0.75085 0.0
C1161 C 0.71825 0.69657 0.77483 0.0
C1162 C 0.71051 0.71874 0.76422 0.0
C1163 C 0.70216 0.68162 0.78098 0.0
C1164 C 0.64287 0.66844 0.76727 0.0
H1165 H 0.59493 0.58831 0.84162 0.0
H1166 H 0.61494 0.62235 0.8345 0.0
H1167 H 0.61506 0.6486 0.75953 0.0
H1168 H 0.67988 0.74278 0.75172 0.0
H1169 H 0.65145 0.71648 0.76261 0.0
H1170 H 0.67795 0.66083 0.8166 0.0
C1171 C 0.6118 0.61152 0.8198 0.0
C1172 C 0.62874 0.6511 0.77212 0.0
C1173 C 0.60036 0.59198 0.8239 0.0
C1174 C 0.68628 0.72575 0.75989 0.0
C1175 C 0.67007 0.71068 0.76603 0.0
C1176 C 0.66427 0.65836 0.80399 0.0
C1177 C 0.61903 0.61701 0.797 0.0
C1178 C 0.63253 0.63688 0.79276 0.0
C1179 C 0.67788 0.68844 0.77671 0.0
C1180 C 0.66112 0.67193 0.78293 0.0
H1181 H 0.59981 0.57229 0.76778 0.0
H1182 H 0.61991 0.6061 0.76067 0.0
H1183 H 0.65375 0.63035 0.82479 0.0
H1184 H 0.73684 0.69063 0.77829 0.0
H1185 H 0.70886 0.66447 0.78873 0.0
C1186 C 0.49381 0.56687 0.74603 0.0
C1187 C 0.48787 0.5442 0.74951 0.0
C1188 C 0.47619 0.5864 0.74337 0.0
C1189 C 0.41157 0.60564 0.73424 0.0
H1190 H 0.42377 0.65748 0.7727 0.0
C1191 C 0.3391 0.68259 0.76029 0.0
C1192 C 0.34563 0.70518 0.75975 0.0
C1193 C 0.35601 0.66272 0.75678 0.0
C1194 C 0.42015 0.64331 0.76163 0.0
H1195 H 0.45872 0.52411 0.75116 0.0
H1196 H 0.42801 0.55822 0.74686 0.0
H1197 H 0.45418 0.62358 0.76888 0.0
H1198 H 0.37471 0.72485 0.75474 0.0
H1199 H 0.40407 0.6904 0.74867 0.0
H1200 H 0.37722 0.62545 0.72744 0.0
C1201 C 0.44628 0.56091 0.74602 0.0
C1202 C 0.43766 0.62387 0.75935 0.0
C1203 C 0.46393 0.54133 0.74854 0.0
C1204 C 0.36922 0.70761 0.75551 0.0
C1205 C 0.38606 0.68786 0.75206 0.0
C1206 C 0.39396 0.62515 0.73658 0.0
C1207 C 0.4522 0.58376 0.74428 0.0
C1208 C 0.43365 0.60479 0.7456 0.0
C1209 C 0.37973 0.66516 0.75283 0.0
C1210 C 0.39811 0.64423 0.75028 0.0
H1211 H 0.51208 0.56968 0.74644 0.0
H1212 H 0.48137 0.6037 0.74144 0.0
H1213 H 0.40794 0.59129 0.72343 0.0
H1214 H 0.32106 0.68025 0.76375 0.0
H1215 H 0.35063 0.64545 0.75771 0.0
C1216 C 0.48952 0.43515 0.80509 0.0
C1217 C 0.48458 0.45482 0.81948 0.0
C1218 C 0.47287 0.42011 0.80164 0.0
C1219 C 0.40853 0.41852 0.80608 0.0
H1220 H 0.42776 0.35245 0.79344 0.0
C1221 C 0.34429 0.34989 0.79453 0.0
C1222 C 0.34835 0.33574 0.77473 0.0
C1223 C 0.36015 0.36508 0.80072 0.0
C1224 C 0.42218 0.37091 0.79684 0.0
H1225 H 0.45839 0.47316 0.84254 0.0
H1226 H 0.42988 0.44633 0.83741 0.0
H1227 H 0.45735 0.37648 0.80497 0.0
H1228 H 0.37178 0.32662 0.74561 0.0
H1229 H 0.39973 0.35287 0.75668 0.0
H1230 H 0.37319 0.41253 0.79842 0.0
C1231 C 0.44638 0.44302 0.8281 0.0
C1232 C 0.43912 0.38474 0.80337 0.0
C1233 C 0.46295 0.45828 0.83133 0.0
C1234 C 0.36822 0.33739 0.76093 0.0
C1235 C 0.38426 0.35226 0.76734 0.0
C1236 C 0.39153 0.40455 0.79991 0.0
C1237 C 0.45092 0.42401 0.81282 0.0
C1238 C 0.4326 0.40884 0.80771 0.0
C1239 C 0.38052 0.36602 0.78744 0.0
C1240 C 0.39827 0.38072 0.79488 0.0
H1241 H 0.50611 0.43152 0.79603 0.0
H1242 H 0.47703 0.40584 0.78956 0.0
H1243 H 0.40282 0.43705 0.8089 0.0
H1244 H 0.3291 0.34889 0.80547 0.0
H1245 H 0.35692 0.37549 0.81633 0.0
C1246 C 0.61675 0.46674 0.73519 0.0
C1247 C 0.60083 0.46547 0.75364 0.0
C1248 C 0.63541 0.44839 0.73195 0.0
C1249 C 0.65832 0.38617 0.7516 0.0
H1250 H 0.71836 0.40341 0.73296 0.0
C1251 C 0.76426 0.34668 0.75776 0.0
C1252 C 0.76316 0.32277 0.75439 0.0
C1253 C 0.74409 0.36354 0.75473 0.0
C1254 C 0.70181 0.39824 0.73844 0.0
H1255 H 0.59185 0.44373 0.78294 0.0
H1256 H 0.62459 0.41244 0.77796 0.0
H1257 H 0.68376 0.43339 0.73364 0.0
H1258 H 0.74017 0.2977 0.74503 0.0
H1259 H 0.70529 0.3271 0.73833 0.0
H1260 H 0.67664 0.3514 0.75802 0.0
C1261 C 0.62246 0.42713 0.76543 0.0
C1262 C 0.68176 0.41546 0.73841 0.0
C1263 C 0.60367 0.44525 0.76842 0.0
C1264 C 0.7416 0.31605 0.74749 0.0
C1265 C 0.7215 0.33295 0.74399 0.0
C1266 C 0.67844 0.36906 0.75204 0.0
C1267 C 0.63879 0.42849 0.74731 0.0
C1268 C 0.65976 0.40976 0.74532 0.0
C1269 C 0.72235 0.35694 0.74787 0.0
C1270 C 0.70058 0.37488 0.74577 0.0
H1271 H 0.61496 0.48203 0.72341 0.0
H1272 H 0.64727 0.44994 0.7175 0.0
H1273 H 0.64167 0.38088 0.75654 0.0
H1274 H 0.78064 0.35236 0.76323 0.0
H1275 H 0.74551 0.38167 0.75841 0.0
C1276 C 0.62625 0.4716 0.22057 0.0
C1277 C 0.60235 0.47419 0.22661 0.0
C1278 C 0.64212 0.45254 0.22946 0.0
C1279 C 0.64258 0.39164 0.24307 0.0
H1280 H 0.70714 0.39215 0.26398 0.0
C1281 C 0.70866 0.30589 0.24694 0.0
C1282 C 0.73161 0.3074 0.23945 0.0
C1283 C 0.693 0.32627 0.25161 0.0
C1284 C 0.68923 0.39166 0.25796 0.0
H1285 H 0.57636 0.45967 0.24749 0.0
H1286 H 0.60414 0.42568 0.26258 0.0
H1287 H 0.67944 0.42889 0.26189 0.0
H1288 H 0.75657 0.33115 0.23151 0.0
H1289 H 0.72898 0.36684 0.23836 0.0
H1290 H 0.65244 0.35501 0.2373 0.0
C1291 C 0.61059 0.43868 0.25125 0.0
C1292 C 0.67334 0.41269 0.25703 0.0
C1293 C 0.59477 0.45812 0.24275 0.0
C1294 C 0.7389 0.32957 0.23725 0.0
C1295 C 0.72309 0.35001 0.24143 0.0
C1296 C 0.65853 0.37072 0.24357 0.0
C1297 C 0.63426 0.43542 0.24416 0.0
C1298 C 0.65 0.41292 0.24915 0.0
C1299 C 0.69978 0.34867 0.24836 0.0
C1300 C 0.68224 0.37049 0.25053 0.0
H1301 H 0.63248 0.48381 0.20814 0.0
H1302 H 0.6602 0.45035 0.22354 0.0
H1303 H 0.62478 0.3914 0.23654 0.0
H1304 H 0.70276 0.28893 0.24914 0.0
H1305 H 0.67547 0.3244 0.2575 0.0
C1306 C 0.60972 0.59265 0.15873 0.0
C1307 C 0.60867 0.57203 0.17222 0.0
C1308 C 0.62897 0.60479 0.16107 0.0
C1309 C 0.69069 0.59914 0.18333 0.0
H1310 H 0.67598 0.66689 0.18842 0.0
C1311 C 0.75805 0.65833 0.21558 0.0
C1312 C 0.75696 0.68042 0.2042 0.0
C1313 C 0.74122 0.64379 0.21034 0.0
C1314 C 0.68046 0.64802 0.18672 0.0
H1315 H 0.62761 0.54734 0.19783 0.0
H1316 H 0.66093 0.56872 0.20221 0.0
H1317 H 0.64437 0.64403 0.18106 0.0
H1318 H 0.73827 0.70426 0.17776 0.0
H1319 H 0.70933 0.67888 0.16836 0.0
H1320 H 0.72686 0.60325 0.18923 0.0
C1321 C 0.64692 0.57549 0.18978 0.0
C1322 C 0.66232 0.63492 0.18247 0.0
C1323 C 0.62767 0.5634 0.18749 0.0
C1324 C 0.73939 0.68738 0.18696 0.0
C1325 C 0.72272 0.6729 0.18168 0.0
C1326 C 0.70891 0.6123 0.18758 0.0
C1327 C 0.64763 0.59652 0.17687 0.0
C1328 C 0.6672 0.61034 0.1807 0.0
C1329 C 0.72309 0.65116 0.19364 0.0
C1330 C 0.70398 0.6369 0.18925 0.0
H1331 H 0.59536 0.59979 0.14688 0.0
H1332 H 0.62915 0.62078 0.15063 0.0
H1333 H 0.69504 0.58023 0.18188 0.0
H1334 H 0.77143 0.65261 0.22898 0.0
H1335 H 0.74191 0.62717 0.21994 0.0
C1336 C 0.46013 0.57054 0.20476 0.0
C1337 C 0.48301 0.56801 0.21454 0.0
C1338 C 0.44282 0.58871 0.21161 0.0
C1339 C 0.43493 0.6485 0.232 0.0
H1340 H 0.3705 0.63751 0.24111 0.0
C1341 C 0.35502 0.72432 0.23886 0.0
C1342 C 0.33523 0.72094 0.22527 0.0
C1343 C 0.37398 0.70595 0.24226 0.0
C1344 C 0.38839 0.64092 0.23859 0.0
H1345 H 0.50567 0.58229 0.23947 0.0
H1346 H 0.47524 0.61465 0.25119 0.0
H1347 H 0.40209 0.60414 0.23927 0.0
H1348 H 0.31989 0.69591 0.20429 0.0
H1349 H 0.35268 0.66425 0.20992 0.0
H1350 H 0.42099 0.68533 0.23019 0.0
C1351 C 0.4708 0.60232 0.23834 0.0
C1352 C 0.40648 0.62179 0.23763 0.0
C1353 C 0.48811 0.58377 0.23176 0.0
C1354 C 0.33482 0.69904 0.21499 0.0
C1355 C 0.35356 0.68078 0.21841 0.0
C1356 C 0.41674 0.66772 0.23283 0.0
C1357 C 0.44802 0.60502 0.22818 0.0
C1358 C 0.42981 0.62534 0.23355 0.0
C1359 C 0.37332 0.68388 0.23221 0.0
C1360 C 0.39316 0.66407 0.23529 0.0
H1361 H 0.45567 0.55866 0.19148 0.0
H1362 H 0.42553 0.59048 0.20327 0.0
H1363 H 0.45276 0.65174 0.22873 0.0
H1364 H 0.35585 0.74108 0.24676 0.0
H1365 H 0.38898 0.70891 0.25293 0.0
C1366 C 0.49276 0.43403 0.16772 0.0
C1367 C 0.49138 0.45442 0.18117 0.0
C1368 C 0.47749 0.41757 0.17189 0.0
C1369 C 0.42033 0.41148 0.19935 0.0
H1370 H 0.44338 0.34456 0.19764 0.0
C1371 C 0.35692 0.34333 0.20623 0.0
C1372 C 0.36401 0.32304 0.2203 0.0
C1373 C 0.37293 0.35853 0.20046 0.0
C1374 C 0.43671 0.36318 0.19835 0.0
H1375 H 0.47239 0.47359 0.20928 0.0
H1376 H 0.44634 0.44476 0.21692 0.0
H1377 H 0.47036 0.37284 0.18989 0.0
H1378 H 0.39346 0.30242 0.23911 0.0
H1379 H 0.42153 0.32927 0.22938 0.0
H1380 H 0.38691 0.40197 0.20848 0.0
C1381 C 0.45904 0.44155 0.20296 0.0
C1382 C 0.4521 0.3794 0.19361 0.0
C1383 C 0.47424 0.45799 0.19876 0.0
C1384 C 0.38757 0.31795 0.22818 0.0
C1385 C 0.40364 0.33327 0.2225 0.0
C1386 C 0.405 0.39531 0.20413 0.0
C1387 C 0.46045 0.42113 0.18959 0.0
C1388 C 0.4441 0.40376 0.19412 0.0
C1389 C 0.39641 0.3539 0.20878 0.0
C1390 C 0.41295 0.37096 0.20367 0.0
H1391 H 0.50585 0.43056 0.15418 0.0
H1392 H 0.47889 0.40216 0.16109 0.0
H1393 H 0.41346 0.43009 0.19961 0.0
H1394 H 0.33888 0.34759 0.19976 0.0
H1395 H 0.36685 0.37396 0.18946 0.0
C1396 C 0.81029 0.57937 0.55464 0.0
C1397 C 0.83138 0.57783 0.54193 0.0
C1398 C 0.80505 0.59659 0.57185 0.0
C1399 C 0.83522 0.63511 0.61026 0.0
H1400 H 0.77232 0.66846 0.62002 0.0
C1401 C 0.81837 0.71487 0.67193 0.0
C1402 C 0.79788 0.71746 0.6856 0.0
C1403 C 0.82196 0.69772 0.65458 0.0
C1404 C 0.78998 0.65913 0.61776 0.0
H1405 H 0.86283 0.59404 0.53666 0.0
H1406 H 0.85359 0.62386 0.56598 0.0
H1407 H 0.77875 0.63905 0.58947 0.0
H1408 H 0.76516 0.70364 0.69165 0.0
H1409 H 0.77156 0.67375 0.66182 0.0
H1410 H 0.84651 0.65503 0.63848 0.0
C1411 C 0.84133 0.61152 0.56327 0.0
C1412 C 0.79366 0.64221 0.60017 0.0
C1413 C 0.84654 0.59443 0.54624 0.0
C1414 C 0.78117 0.7023 0.68151 0.0
C1415 C 0.78475 0.68518 0.66419 0.0
C1416 C 0.83156 0.65196 0.6278 0.0
C1417 C 0.82078 0.61261 0.57673 0.0
C1418 C 0.81639 0.63009 0.59601 0.0
C1419 C 0.80516 0.68264 0.65038 0.0
C1420 C 0.80892 0.66437 0.63176 0.0
H1421 H 0.79825 0.56684 0.55186 0.0
H1422 H 0.78906 0.59682 0.58187 0.0
H1423 H 0.85291 0.62581 0.60802 0.0
H1424 H 0.83158 0.72626 0.67442 0.0
H1425 H 0.83777 0.69658 0.64416 0.0
C1426 C 0.48271 0.77504 0.57107 0.0
C1427 C 0.49182 0.75331 0.56129 0.0
C1428 C 0.46368 0.7768 0.58661 0.0
C1429 C 0.41347 0.74671 0.60422 0.0
H1430 H 0.41429 0.78185 0.66158 0.0
C1431 C 0.34839 0.73633 0.67879 0.0
C1432 C 0.33943 0.75587 0.69223 0.0
C1433 C 0.3661 0.73774 0.66235 0.0
C1434 C 0.41355 0.77226 0.64548 0.0
H1435 H 0.48765 0.71649 0.56011 0.0
H1436 H 0.45465 0.71952 0.58712 0.0
H1437 H 0.44676 0.78105 0.63392 0.0
H1438 H 0.34232 0.79236 0.69863 0.0
H1439 H 0.37312 0.79497 0.6695 0.0
H1440 H 0.38034 0.73795 0.61552 0.0
C1441 C 0.46217 0.73526 0.58275 0.0
C1442 C 0.43224 0.77176 0.62962 0.0
C1443 C 0.48129 0.73345 0.56741 0.0
C1444 C 0.34872 0.77697 0.6886 0.0
C1445 C 0.36652 0.77841 0.67199 0.0
C1446 C 0.39477 0.74732 0.61994 0.0
C1447 C 0.45307 0.75694 0.59258 0.0
C1448 C 0.43262 0.75866 0.60894 0.0
C1449 C 0.37547 0.75877 0.6586 0.0
C1450 C 0.39467 0.75977 0.64103 0.0
H1451 H 0.49047 0.79066 0.56695 0.0
H1452 H 0.45707 0.79381 0.59372 0.0
H1453 H 0.41288 0.73686 0.58825 0.0
H1454 H 0.34195 0.71966 0.68113 0.0
H1455 H 0.37278 0.72206 0.65287 0.0
C1456 C 0.25655 0.43658 0.55759 0.0
C1457 C 0.24774 0.45977 0.56381 0.0
C1458 C 0.26098 0.41847 0.57478 0.0
C1459 C 0.24758 0.40263 0.63695 0.0
H1460 H 0.30139 0.35391 0.6295 0.0
C1461 C 0.27546 0.32811 0.70802 0.0
C1462 C 0.28067 0.3053 0.6992 0.0
C1463 C 0.27265 0.34792 0.69261 0.0
C1464 C 0.2862 0.3673 0.63182 0.0
H1465 H 0.23687 0.4819 0.59332 0.0
H1466 H 0.24473 0.4505 0.62322 0.0
H1467 H 0.29364 0.38617 0.60053 0.0
H1468 H 0.2878 0.28543 0.66746 0.0
H1469 H 0.28316 0.31966 0.64082 0.0
H1470 H 0.24026 0.38363 0.66835 0.0
C1471 C 0.24783 0.44615 0.60496 0.0
C1472 C 0.28167 0.38581 0.6151 0.0
C1473 C 0.24329 0.46425 0.58774 0.0
C1474 C 0.28375 0.30276 0.67483 0.0
C1475 C 0.2812 0.32245 0.65953 0.0
C1476 C 0.2522 0.38414 0.65377 0.0
C1477 C 0.25687 0.42298 0.59879 0.0
C1478 C 0.26211 0.40364 0.6172 0.0
C1479 C 0.27534 0.34531 0.6681 0.0
C1480 C 0.27141 0.36605 0.65128 0.0
H1481 H 0.25988 0.43237 0.53935 0.0
H1482 H 0.26744 0.40083 0.56916 0.0
H1483 H 0.2322 0.41581 0.63914 0.0
H1484 H 0.27298 0.33062 0.72672 0.0
H1485 H 0.26835 0.36527 0.69985 0.0
C1486 C 0.60936 0.20938 0.55243 0.0
C1487 C 0.59278 0.22668 0.54102 0.0
C1488 C 0.62445 0.21527 0.57 0.0
C1489 C 0.65265 0.26285 0.59433 0.0
H1490 H 0.66162 0.22065 0.64912 0.0
C1491 C 0.71565 0.27595 0.673 0.0
C1492 C 0.72947 0.25546 0.68237 0.0
C1493 C 0.69751 0.27446 0.65651 0.0
C1494 C 0.65953 0.23252 0.63388 0.0
H1495 H 0.57965 0.26406 0.53891 0.0
H1496 H 0.60648 0.27451 0.56986 0.0
H1497 H 0.63264 0.21507 0.61895 0.0
H1498 H 0.73517 0.21737 0.68182 0.0
H1499 H 0.70381 0.21469 0.65308 0.0
H1500 H 0.68 0.28 0.60916 0.0
C1501 C 0.60754 0.25627 0.56503 0.0
C1502 C 0.64282 0.22937 0.61659 0.0
C1503 C 0.59216 0.2503 0.54735 0.0
C1504 C 0.72474 0.23347 0.67503 0.0
C1505 C 0.70664 0.23197 0.65862 0.0
C1506 C 0.66951 0.26599 0.61169 0.0
C1507 C 0.6236 0.23869 0.57682 0.0
C1508 C 0.6395 0.24413 0.59632 0.0
C1509 C 0.69273 0.25242 0.64911 0.0
C1510 C 0.67352 0.25052 0.63147 0.0
H1511 H 0.61064 0.19101 0.548 0.0
H1512 H 0.63691 0.20134 0.57827 0.0
H1513 H 0.65062 0.27447 0.5789 0.0
H1514 H 0.71889 0.29316 0.67834 0.0
H1515 H 0.68708 0.29057 0.64977 0.0
C1516 C 0.80727 0.4714 0.44208 0.0
C1517 C 0.81924 0.46186 0.46267 0.0
C1518 C 0.80181 0.45656 0.42408 0.0
C1519 C 0.82215 0.39583 0.40294 0.0
H1520 H 0.76945 0.40982 0.35897 0.0
C1521 C 0.81855 0.34154 0.31932 0.0
C1522 C 0.79663 0.3363 0.31153 0.0
C1523 C 0.8199 0.35781 0.33708 0.0
C1524 C 0.78418 0.40548 0.3712 0.0
H1525 H 0.83327 0.4294 0.4813 0.0
H1526 H 0.82266 0.40367 0.45089 0.0
H1527 H 0.77269 0.43564 0.39204 0.0
H1528 H 0.75885 0.34435 0.31602 0.0
H1529 H 0.76113 0.37231 0.34753 0.0
H1530 H 0.83332 0.36538 0.38281 0.0
C1531 C 0.81833 0.42251 0.44791 0.0
C1532 C 0.78619 0.42051 0.39008 0.0
C1533 C 0.82414 0.43727 0.46558 0.0
C1534 C 0.77601 0.34805 0.32164 0.0
C1535 C 0.77736 0.3642 0.33964 0.0
C1536 C 0.82006 0.3808 0.38427 0.0
C1537 C 0.80798 0.43186 0.42643 0.0
C1538 C 0.80522 0.4159 0.4063 0.0
C1539 C 0.79937 0.36914 0.34785 0.0
C1540 C 0.80115 0.38538 0.36796 0.0
H1541 H 0.80358 0.4903 0.43921 0.0
H1542 H 0.7939 0.46455 0.40786 0.0
H1543 H 0.83738 0.39177 0.41459 0.0
H1544 H 0.83476 0.33295 0.31175 0.0
H1545 H 0.83717 0.36147 0.34234 0.0
C1546 C 0.61992 0.74139 0.41032 0.0
C1547 C 0.61719 0.75601 0.42994 0.0
C1548 C 0.63685 0.744 0.39325 0.0
C1549 C 0.69246 0.76846 0.38271 0.0
H1550 H 0.67668 0.75952 0.31733 0.0
C1551 C 0.75779 0.77762 0.30532 0.0
C1552 C 0.75892 0.76007 0.28832 0.0
C1553 C 0.74024 0.77954 0.32265 0.0
C1554 C 0.6815 0.76192 0.33551 0.0
H1555 H 0.63067 0.78481 0.44687 0.0
H1556 H 0.66003 0.78955 0.41692 0.0
H1557 H 0.6469 0.75819 0.34729 0.0
H1558 H 0.74211 0.73092 0.27632 0.0
H1559 H 0.71204 0.73425 0.30611 0.0
H1560 H 0.72723 0.77198 0.37075 0.0
C1561 C 0.64908 0.77591 0.41486 0.0
C1562 C 0.66437 0.76111 0.35276 0.0
C1563 C 0.63203 0.77334 0.43195 0.0
C1564 C 0.74193 0.74473 0.28899 0.0
C1565 C 0.72444 0.74673 0.30608 0.0
C1566 C 0.70967 0.76929 0.36537 0.0
C1567 C 0.65167 0.76132 0.39518 0.0
C1568 C 0.66967 0.76393 0.3767 0.0
C1569 C 0.72328 0.76411 0.32321 0.0
C1570 C 0.70454 0.76557 0.34156 0.0
H1571 H 0.60877 0.728 0.4079 0.0
H1572 H 0.63846 0.73217 0.3786 0.0
H1573 H 0.6973 0.77058 0.40094 0.0
H1574 H 0.77058 0.7897 0.30542 0.0
H1575 H 0.73983 0.79323 0.33548 0.0
C1576 C 0.26519 0.59725 0.42993 0.0
C1577 C 0.24573 0.58504 0.4281 0.0
C1578 C 0.26841 0.61508 0.41347 0.0
C1579 C 0.25051 0.63813 0.35287 0.0
H1580 H 0.27471 0.69379 0.37362 0.0
C1581 C 0.2565 0.71832 0.2896 0.0
C1582 C 0.27668 0.72945 0.29166 0.0
C1583 C 0.25201 0.70115 0.3063 0.0
C1584 C 0.26816 0.67827 0.36742 0.0
H1585 H 0.21449 0.58224 0.40702 0.0
H1586 H 0.21984 0.61344 0.37878 0.0
H1587 H 0.26848 0.66322 0.40233 0.0
H1588 H 0.3079 0.73101 0.31326 0.0
H1589 H 0.30018 0.70121 0.34201 0.0
H1590 H 0.25025 0.65319 0.31793 0.0
C1591 C 0.2328 0.60908 0.39283 0.0
C1592 C 0.2646 0.66066 0.38395 0.0
C1593 C 0.22957 0.59128 0.40929 0.0
C1594 C 0.29211 0.723 0.31101 0.0
C1595 C 0.2876 0.70591 0.32768 0.0
C1596 C 0.25407 0.65576 0.33632 0.0
C1597 C 0.25228 0.62127 0.39463 0.0
C1598 C 0.25581 0.64025 0.37695 0.0
C1599 C 0.26753 0.69464 0.32558 0.0
C1600 C 0.26306 0.67607 0.34332 0.0
H1601 H 0.27794 0.5932 0.44419 0.0
H1602 H 0.28378 0.62381 0.41539 0.0
H1603 H 0.24405 0.62257 0.34666 0.0
H1604 H 0.24419 0.72276 0.275 0.0
H1605 H 0.23623 0.6931 0.30418 0.0
C1606 C 0.45886 0.22601 0.44888 0.0
C1607 C 0.48024 0.23518 0.44855 0.0
C1608 C 0.44142 0.23279 0.4317 0.0
C1609 C 0.43291 0.25325 0.37029 0.0
H1610 H 0.3669 0.26032 0.3871 0.0
C1611 C 0.35359 0.26431 0.30176 0.0
C1612 C 0.33593 0.25057 0.30719 0.0
C1613 C 0.37203 0.26584 0.31801 0.0
C1614 C 0.38525 0.25833 0.38205 0.0
H1615 H 0.49993 0.25906 0.43005 0.0
H1616 H 0.46921 0.27091 0.3995 0.0
H1617 H 0.39705 0.25846 0.41792 0.0
H1618 H 0.32415 0.22717 0.33349 0.0
H1619 H 0.35598 0.22969 0.36146 0.0
H1620 H 0.4209 0.25248 0.33432 0.0
C1621 C 0.46605 0.25849 0.41331 0.0
C1622 C 0.40255 0.25733 0.39974 0.0
C1623 C 0.48351 0.25192 0.4309 0.0
C1624 C 0.33739 0.23801 0.3288 0.0
C1625 C 0.35558 0.23961 0.34496 0.0
C1626 C 0.41549 0.25428 0.35248 0.0
C1627 C 0.44487 0.24878 0.41341 0.0
C1628 C 0.42664 0.25401 0.3942 0.0
C1629 C 0.37294 0.25383 0.34003 0.0
C1630 C 0.39148 0.25604 0.35824 0.0
H1631 H 0.45582 0.21302 0.4622 0.0
H1632 H 0.42553 0.2247 0.43224 0.0
H1633 H 0.45131 0.25059 0.36541 0.0
H1634 H 0.35282 0.2743 0.2853 0.0
H1635 H 0.38513 0.27694 0.31366 0.0
C1636 C 0.62832 0.79555 0.54072 0.0
C1637 C 0.60361 0.79869 0.54151 0.0
C1638 C 0.64147 0.80199 0.55962 0.0
C1639 C 0.64137 0.80264 0.62238 0.0
H1640 H 0.69647 0.83356 0.61425 0.0
C1641 C 0.71666 0.79975 0.69356 0.0
C1642 C 0.73928 0.79423 0.68404 0.0
C1643 C 0.69681 0.80532 0.67857 0.0
C1644 C 0.6811 0.82496 0.61687 0.0
H1645 H 0.57311 0.81145 0.56229 0.0
H1646 H 0.59637 0.82212 0.59599 0.0
H1647 H 0.66707 0.83578 0.58256 0.0
H1648 H 0.75884 0.78942 0.65161 0.0
H1649 H 0.72466 0.79879 0.62582 0.0
H1650 H 0.65627 0.79043 0.65609 0.0
C1651 C 0.60541 0.81509 0.58048 0.0
C1652 C 0.66424 0.82636 0.59878 0.0
C1653 C 0.59217 0.80917 0.5612 0.0
C1654 C 0.74168 0.79389 0.65949 0.0
C1655 C 0.72207 0.79948 0.64467 0.0
C1656 C 0.6584 0.80105 0.64048 0.0
C1657 C 0.6302 0.8112 0.57994 0.0
C1658 C 0.64472 0.81445 0.60099 0.0
C1659 C 0.69943 0.80557 0.65394 0.0
C1660 C 0.67896 0.81134 0.63744 0.0
H1661 H 0.6375 0.78738 0.52577 0.0
H1662 H 0.66056 0.79857 0.55886 0.0
H1663 H 0.6265 0.79319 0.62443 0.0
H1664 H 0.71436 0.80004 0.71246 0.0
H1665 H 0.67954 0.80978 0.6862 0.0
C1666 C 0.60972 0.18025 0.40856 0.0
C1667 C 0.60717 0.19237 0.42983 0.0
C1668 C 0.62777 0.18359 0.39303 0.0
C1669 C 0.68471 0.20715 0.38902 0.0
H1670 H 0.66906 0.21262 0.32231 0.0
C1671 C 0.74214 0.2468 0.32 0.0
C1672 C 0.745 0.23591 0.29808 0.0
C1673 C 0.72676 0.2395 0.33663 0.0
C1674 C 0.67382 0.21083 0.34085 0.0
H1675 H 0.62237 0.21685 0.45171 0.0
H1676 H 0.65324 0.22321 0.42441 0.0
H1677 H 0.6396 0.20352 0.35023 0.0
H1678 H 0.73423 0.20841 0.27674 0.0
H1679 H 0.70745 0.19574 0.30576 0.0
H1680 H 0.71881 0.21504 0.37956 0.0
C1681 C 0.64146 0.21091 0.41981 0.0
C1682 C 0.65693 0.20557 0.35689 0.0
C1683 C 0.62349 0.20749 0.43537 0.0
C1684 C 0.73248 0.21723 0.29341 0.0
C1685 C 0.717 0.21004 0.30998 0.0
C1686 C 0.70157 0.21255 0.37298 0.0
C1687 C 0.6437 0.19918 0.39832 0.0
C1688 C 0.6621 0.20379 0.3812 0.0
C1689 C 0.71377 0.22126 0.33168 0.0
C1690 C 0.69627 0.21457 0.34872 0.0
H1691 H 0.59749 0.16857 0.40355 0.0
H1692 H 0.62916 0.17399 0.3768 0.0
H1693 H 0.68946 0.20554 0.40757 0.0
H1694 H 0.75147 0.26124 0.32423 0.0
H1695 H 0.72451 0.24864 0.3531 0.0
C1696 C 0.8882 0.56668 0.41519 0.0
C1697 C 0.86799 0.55893 0.4244 0.0
C1698 C 0.88648 0.58144 0.39515 0.0
C1699 C 0.8493 0.60167 0.34326 0.0
H1700 H 0.87732 0.65868 0.34848 0.0
C1701 C 0.82417 0.68371 0.28201 0.0
C1702 C 0.8411 0.69857 0.27834 0.0
C1703 C 0.82948 0.66361 0.29662 0.0
C1704 C 0.86984 0.64262 0.34638 0.0
H1705 H 0.83031 0.55981 0.41941 0.0
H1706 H 0.8273 0.5857 0.38439 0.0
H1707 H 0.88285 0.62933 0.38028 0.0
H1708 H 0.87706 0.70381 0.28537 0.0
H1709 H 0.8869 0.6681 0.3098 0.0
H1710 H 0.83622 0.615 0.30932 0.0
C1711 C 0.84444 0.58035 0.39269 0.0
C1712 C 0.87293 0.62585 0.36473 0.0
C1713 C 0.84611 0.5658 0.41289 0.0
C1714 C 0.86381 0.69243 0.28805 0.0
C1715 C 0.86929 0.67217 0.30223 0.0
C1716 C 0.84641 0.61836 0.32471 0.0
C1717 C 0.86457 0.58851 0.38379 0.0
C1718 C 0.86248 0.60536 0.36349 0.0
C1719 C 0.8519 0.65805 0.30755 0.0
C1720 C 0.85644 0.63919 0.32616 0.0
H1721 H 0.90524 0.56171 0.42377 0.0
H1722 H 0.90229 0.58741 0.38857 0.0
H1723 H 0.84122 0.58588 0.34182 0.0
H1724 H 0.80642 0.68847 0.27489 0.0
H1725 H 0.81557 0.65332 0.30045 0.0
C1726 C 0.4715 0.79205 0.45113 0.0
C1727 C 0.49418 0.79841 0.45188 0.0
C1728 C 0.45638 0.79889 0.43198 0.0
C1729 C 0.4588 0.80848 0.36942 0.0
H1730 H 0.39131 0.82816 0.37434 0.0
C1731 C 0.36815 0.82439 0.3078 0.0
C1732 C 0.37026 0.80247 0.29698 0.0
C1733 C 0.38467 0.8287 0.32482 0.0
C1734 C 0.41017 0.82299 0.37258 0.0
H1735 H 0.51865 0.81763 0.43374 0.0
H1736 H 0.49223 0.82921 0.3997 0.0
H1737 H 0.4168 0.8288 0.40903 0.0
H1738 H 0.39178 0.76827 0.29453 0.0
H1739 H 0.42084 0.77586 0.32416 0.0
H1740 H 0.452 0.80158 0.33323 0.0
C1741 C 0.48614 0.81915 0.41415 0.0
C1742 C 0.42471 0.82327 0.39245 0.0
C1743 C 0.50114 0.81268 0.43364 0.0
C1744 C 0.38976 0.78531 0.30264 0.0
C1745 C 0.40643 0.78972 0.31949 0.0
C1746 C 0.4442 0.80791 0.3496 0.0
C1747 C 0.46381 0.81188 0.41296 0.0
C1748 C 0.44908 0.81552 0.39119 0.0
C1749 C 0.40376 0.81127 0.33113 0.0
C1750 C 0.41968 0.81468 0.35112 0.0
H1751 H 0.46574 0.78103 0.46499 0.0
H1752 H 0.43936 0.79286 0.43144 0.0
H1753 H 0.47751 0.8022 0.36803 0.0
H1754 H 0.35329 0.83794 0.30372 0.0
H1755 H 0.38228 0.84552 0.33339 0.0
C1756 C 0.27921 0.44799 0.44069 0.0
C1757 C 0.28879 0.46835 0.43431 0.0
C1758 C 0.27715 0.4307 0.42421 0.0
C1759 C 0.27455 0.42296 0.35965 0.0
H1760 H 0.28348 0.35645 0.37676 0.0
C1761 C 0.28547 0.34931 0.29181 0.0
C1762 C 0.2749 0.32913 0.29623 0.0
C1763 C 0.2845 0.36695 0.30839 0.0
C1764 C 0.28057 0.37499 0.37181 0.0
H1765 H 0.3048 0.48589 0.40586 0.0
H1766 H 0.30182 0.45545 0.37731 0.0
H1767 H 0.28914 0.38511 0.40651 0.0
H1768 H 0.25428 0.31201 0.32119 0.0
H1769 H 0.25265 0.34295 0.35037 0.0
H1770 H 0.26653 0.41272 0.32481 0.0
C1771 C 0.29527 0.45314 0.39489 0.0
C1772 C 0.28387 0.39144 0.38884 0.0
C1773 C 0.2972 0.47051 0.41134 0.0
C1774 C 0.26245 0.32743 0.31722 0.0
C1775 C 0.26173 0.345 0.33401 0.0
C1776 C 0.27142 0.40651 0.34261 0.0
C1777 C 0.28475 0.43325 0.40096 0.0
C1778 C 0.28109 0.41564 0.38294 0.0
C1779 C 0.27314 0.36474 0.32992 0.0
C1780 C 0.27456 0.38233 0.34845 0.0
H1781 H 0.27247 0.44577 0.45822 0.0
H1782 H 0.2688 0.41574 0.42951 0.0
H1783 H 0.2717 0.44146 0.35456 0.0
H1784 H 0.29517 0.35117 0.27578 0.0
H1785 H 0.2936 0.38183 0.30476 0.0
C1786 C 0.47173 0.17561 0.56819 0.0
C1787 C 0.48543 0.19319 0.56228 0.0
C1788 C 0.45573 0.17868 0.58671 0.0
C1789 C 0.44277 0.21227 0.6408 0.0
H1790 H 0.37896 0.19896 0.63188 0.0
C1791 C 0.36767 0.24824 0.70229 0.0
C1792 C 0.35001 0.23447 0.70757 0.0
C1793 C 0.38495 0.24092 0.68582 0.0
C1794 C 0.39681 0.20239 0.63485 0.0
H1795 H 0.49335 0.22757 0.57154 0.0
H1796 H 0.46546 0.23297 0.60368 0.0
H1797 H 0.40766 0.19039 0.60065 0.0
H1798 H 0.33706 0.20183 0.69989 0.0
H1799 H 0.36753 0.18887 0.67132 0.0
H1800 H 0.43203 0.22434 0.67489 0.0
C1801 C 0.4671 0.21678 0.59404 0.0
C1802 C 0.41325 0.19752 0.61691 0.0
C1803 C 0.4829 0.21381 0.57543 0.0
C1804 C 0.35036 0.21291 0.69624 0.0
C1805 C 0.36774 0.20555 0.67974 0.0
C1806 C 0.42641 0.21701 0.65876 0.0
C1807 C 0.4533 0.19928 0.5999 0.0
C1808 C 0.43629 0.20279 0.61953 0.0
C1809 C 0.38516 0.21957 0.67419 0.0
C1810 C 0.40309 0.21253 0.65587 0.0
H1811 H 0.47315 0.15962 0.55828 0.0
H1812 H 0.44544 0.16483 0.59087 0.0
H1813 H 0.46052 0.21612 0.64353 0.0
H1814 H 0.36798 0.26499 0.71054 0.0
H1815 H 0.3978 0.25239 0.68175 0.0
C1816 C 0.8484 0.45315 0.58415 0.0
C1817 C 0.86883 0.45314 0.57076 0.0
C1818 C 0.84711 0.43537 0.60105 0.0
C1819 C 0.86827 0.37419 0.61464 0.0
H1820 H 0.84723 0.38883 0.67803 0.0
C1821 C 0.82642 0.31148 0.6765 0.0
C1822 C 0.83458 0.30919 0.69999 0.0
C1823 C 0.83437 0.32773 0.66106 0.0
C1824 C 0.85337 0.38451 0.66047 0.0
H1825 H 0.90382 0.43459 0.56429 0.0
H1826 H 0.90135 0.403 0.59358 0.0
H1827 H 0.85367 0.4207 0.65058 0.0
H1828 H 0.85773 0.32174 0.72567 0.0
H1829 H 0.87118 0.35072 0.69869 0.0
H1830 H 0.867 0.33808 0.62424 0.0
C1831 C 0.88651 0.41697 0.59114 0.0
C1832 C 0.85688 0.40269 0.64478 0.0
C1833 C 0.88796 0.43502 0.57454 0.0
C1834 C 0.85124 0.32308 0.70763 0.0
C1835 C 0.85885 0.33969 0.69228 0.0
C1836 C 0.86434 0.35604 0.63021 0.0
C1837 C 0.86608 0.41704 0.60455 0.0
C1838 C 0.86411 0.3977 0.62167 0.0
C1839 C 0.8503 0.34227 0.66894 0.0
C1840 C 0.85664 0.36109 0.65317 0.0
H1841 H 0.83351 0.46704 0.58166 0.0
H1842 H 0.8311 0.43568 0.61107 0.0
H1843 H 0.87372 0.36996 0.59686 0.0
H1844 H 0.81365 0.30091 0.67012 0.0
H1845 H 0.82739 0.32954 0.64319 0.0
C1846 C 0.32042 0.52427 0.56395 0.0
C1847 C 0.31231 0.53348 0.54167 0.0
C1848 C 0.32272 0.53929 0.58261 0.0
C1849 C 0.3214 0.60257 0.5974 0.0
H1850 H 0.29362 0.58374 0.65548 0.0
C1851 C 0.28128 0.66953 0.66438 0.0
C1852 C 0.2875 0.66503 0.68821 0.0
C1853 C 0.28734 0.65229 0.64773 0.0
C1854 C 0.30171 0.58911 0.63949 0.0
H1855 H 0.30212 0.56579 0.52106 0.0
H1856 H 0.30577 0.5918 0.55342 0.0
H1857 H 0.3009 0.5558 0.62375 0.0
H1858 H 0.30437 0.63881 0.71351 0.0
H1859 H 0.31454 0.60825 0.68428 0.0
H1860 H 0.32115 0.63624 0.61285 0.0
C1861 C 0.31054 0.57303 0.55663 0.0
C1862 C 0.30602 0.57308 0.62131 0.0
C1863 C 0.30834 0.55805 0.538 0.0
C1864 C 0.29925 0.64266 0.69524 0.0
C1865 C 0.3051 0.62524 0.67855 0.0
C1866 C 0.31686 0.61863 0.61546 0.0
C1867 C 0.31696 0.56385 0.57938 0.0
C1868 C 0.31545 0.57977 0.59982 0.0
C1869 C 0.29958 0.63007 0.65456 0.0
C1870 C 0.3065 0.61223 0.63648 0.0
H1871 H 0.3238 0.50543 0.56737 0.0
H1872 H 0.32823 0.53162 0.59975 0.0
H1873 H 0.32913 0.60821 0.58133 0.0
H1874 H 0.27225 0.68662 0.65845 0.0
H1875 H 0.2825 0.65637 0.62943 0.0
loop_
_geom_bond_atom_site_label_1
_geom_bond_atom_site_label_2
_geom_bond_distance
_geom_bond_site_symmetry_2
_ccdc_geom_bond_type
Cu0 N1 1.967 1_565 S
Cu0 O6 1.997 . S
Cu0 N11 2.017 . S
Cu0 O20 1.936 1_465 S
N1 Cu0 1.967 1_545 S
N1 C3 1.263 . S
N1 C5 1.389 . S
N2 C3 1.358 . S
N2 C4 1.400 . S
C3 N1 1.263 . S
C3 N2 1.358 . S
C3 H9 0.930 . S
C4 N2 1.400 . S
C4 C5 1.351 . S
C4 H21 0.930 . S
C5 N1 1.389 . S
C5 C4 1.351 . S
C5 H10 0.930 . S
O6 Cu0 1.997 . S
O6 C16 1.282 . S
C7 O8 1.261 . S
C7 O20 1.251 . S
O8 C7 1.261 . S
H9 C3 0.930 . S
H10 C5 0.930 . S
N11 Cu0 2.017 . S
N11 C13 1.335 1_455 S
N11 C14 1.390 . S
N12 C13 1.345 . S
N12 C15 1.336 . S
C13 N11 1.335 1_655 S
C13 N12 1.345 . S
C13 H18 0.930 . S
C14 N11 1.390 . S
C14 C15 1.346 1_455 S
C14 H19 0.930 . S
C15 N12 1.336 . S
C15 C14 1.346 1_655 S
C15 H22 0.929 . S
C16 O6 1.282 . S
C16 O17 1.216 . S
O17 C16 1.216 . S
H18 C13 0.930 . S
H19 C14 0.930 . S
O20 Cu0 1.936 1_645 S
O20 C7 1.251 . S
H21 C4 0.930 . S
H22 C15 0.929 . S
Cu23 N24 1.971 1_445 S
Cu23 O29 1.945 1_455 S
Cu23 N34 2.012 . S
Cu23 O43 1.988 1_545 S
N24 Cu23 1.971 1_665 S
N24 C26 1.263 . S
N24 C28 1.389 . S
N25 C26 1.358 . S
N25 C27 1.400 . S
C26 N24 1.263 . S
C26 N25 1.358 . S
C26 H32 0.930 1_565 S
C27 N25 1.400 . S
C27 C28 1.351 . S
C27 H44 0.930 . S
C28 N24 1.389 . S
C28 C27 1.351 . S
C28 H33 0.930 . S
O29 Cu23 1.945 1_655 S
O29 C39 1.282 . S
C30 O31 1.261 . S
C30 O43 1.251 . S
O31 C30 1.261 . S
H32 C26 0.930 1_545 S
H33 C28 0.930 . S
N34 Cu23 2.012 . S
N34 C36 1.335 . S
N34 C37 1.390 . S
N35 C36 1.345 . S
N35 C38 1.336 . S
C36 N34 1.335 . S
C36 N35 1.345 . S
C36 H41 0.930 . S
C37 N34 1.390 . S
C37 C38 1.346 . S
C37 H42 0.930 . S
C38 N35 1.336 . S
C38 C37 1.346 . S
C38 H45 0.929 . S
C39 O29 1.282 . S
C39 O40 1.216 . S
O40 C39 1.216 . S
H41 C36 0.930 . S
H42 C37 0.930 . S
O43 Cu23 1.988 1_565 S
O43 C30 1.251 . S
H44 C27 0.930 . S
H45 C38 0.929 . S
Cu46 N47 1.999 1_545 S
Cu46 O52 1.974 1_545 S
Cu46 N57 1.985 . S
Cu46 O66 1.959 . S
N47 Cu46 1.999 1_565 S
N47 C49 1.263 . S
N47 C51 1.389 1_554 S
N48 C49 1.358 1_556 S
N48 C50 1.400 . S
C49 N47 1.263 . S
C49 N48 1.358 1_554 S
C49 H55 0.930 . S
C50 N48 1.400 . S
C50 C51 1.351 . S
C50 H67 0.930 . S
C51 N47 1.389 1_556 S
C51 C50 1.351 . S
C51 H56 0.930 . S
O52 Cu46 1.974 1_565 S
O52 C62 1.282 . S
C53 O54 1.261 . S
C53 O66 1.251 . S
O54 C53 1.261 . S
H55 C49 0.930 . S
H56 C51 0.930 . S
N57 Cu46 1.985 . S
N57 C59 1.335 . S
N57 C60 1.390 . S
N58 C59 1.345 . S
N58 C61 1.336 . S
C59 N57 1.335 . S
C59 N58 1.345 . S
C59 H64 0.930 . S
C60 N57 1.390 . S
C60 C61 1.346 . S
C60 H65 0.930 . S
C61 N58 1.336 . S
C61 C60 1.346 . S
C61 H68 0.929 . S
C62 O52 1.282 . S
C62 O63 1.216 . S
O63 C62 1.216 . S
H64 C59 0.930 . S
H65 C60 0.930 . S
O66 Cu46 1.959 . S
O66 C53 1.251 . S
H67 C50 0.930 . S
H68 C61 0.929 . S
Cu69 N70 1.999 1_554 S
Cu69 O75 1.974 . S
Cu69 N80 1.985 1_455 S
Cu69 O89 1.937 1_454 S
N70 Cu69 1.999 1_556 S
N70 C72 1.263 . S
N70 C74 1.389 . S
N71 C72 1.358 . S
N71 C73 1.400 . S
C72 N70 1.263 . S
C72 N71 1.358 . S
C72 H78 0.930 1_556 S
C73 N71 1.400 . S
C73 C74 1.351 . S
C73 H90 0.930 . S
C74 N70 1.389 . S
C74 C73 1.351 . S
C74 H79 0.930 . S
O75 Cu69 1.974 . S
O75 C85 1.282 . S
C76 O77 1.261 . S
C76 O89 1.263 . S
O77 C76 1.261 . S
H78 C72 0.930 1_554 S
H79 C74 0.930 . S
N80 Cu69 1.985 1_655 S
N80 C82 1.335 . S
N80 C83 1.390 . S
N81 C82 1.345 . S
N81 C84 1.336 . S
C82 N80 1.335 . S
C82 N81 1.345 . S
C82 H87 0.930 . S
C83 N80 1.390 . S
C83 C84 1.346 . S
C83 H88 0.930 1_655 S
C84 N81 1.336 . S
C84 C83 1.346 . S
C84 H91 0.929 . S
C85 O75 1.282 . S
C85 O86 1.216 . S
O86 C85 1.216 . S
H87 C82 0.930 . S
H88 C83 0.930 1_455 S
O89 Cu69 1.937 1_656 S
O89 C76 1.263 . S
H90 C73 0.930 . S
H91 C84 0.929 . S
Cu92 N93 1.963 1_554 S
Cu92 O98 2.005 . S
Cu92 N103 2.021 1_545 S
Cu92 O112 1.927 1_544 S
N93 Cu92 1.963 1_556 S
N93 C95 1.263 . S
N93 C97 1.389 . S
N94 C95 1.358 . S
N94 C96 1.400 . S
C95 N93 1.263 . S
C95 N94 1.358 . S
C95 H101 0.930 . S
C96 N94 1.400 . S
C96 C97 1.351 . S
C96 H113 0.930 . S
C97 N93 1.389 . S
C97 C96 1.351 . S
C97 H102 0.930 . S
O98 Cu92 2.005 . S
O98 C108 1.282 . S
C99 O100 1.261 . S
C99 O112 1.251 . S
O100 C99 1.261 . S
H101 C95 0.930 . S
H102 C97 0.930 . S
N103 Cu92 2.021 1_565 S
N103 C105 1.335 . S
N103 C106 1.390 . S
N104 C105 1.345 . S
N104 C107 1.336 . S
C105 N103 1.335 . S
C105 N104 1.345 . S
C105 H110 0.930 . S
C106 N103 1.390 . S
C106 C107 1.346 . S
C106 H111 0.930 1_565 S
C107 N104 1.336 . S
C107 C106 1.346 . S
C107 H114 0.929 . S
C108 O98 1.282 . S
C108 O109 1.216 . S
O109 C108 1.216 . S
H110 C105 0.930 . S
H111 C106 0.930 1_545 S
O112 Cu92 1.927 1_566 S
O112 C99 1.251 . S
H113 C96 0.930 . S
H114 C107 0.929 . S
Cu115 N116 1.999 1_454 S
Cu115 O121 1.974 1_455 S
Cu115 N126 1.985 . S
Cu115 O135 1.959 1_554 S
N116 Cu115 1.999 1_656 S
N116 C118 1.263 . S
N116 C120 1.389 1_655 S
N117 C118 1.358 . S
N117 C119 1.400 . S
C118 N116 1.263 . S
C118 N117 1.358 . S
C118 H124 0.930 . S
C119 N117 1.400 . S
C119 C120 1.351 1_655 S
C119 H136 0.930 . S
C120 N116 1.389 1_455 S
C120 C119 1.351 1_455 S
C120 H125 0.930 . S
O121 Cu115 1.974 1_655 S
O121 C131 1.282 . S
C122 O123 1.261 . S
C122 O135 1.251 . S
O123 C122 1.261 . S
H124 C118 0.930 . S
H125 C120 0.930 . S
N126 Cu115 1.985 . S
N126 C128 1.335 . S
N126 C129 1.390 . S
N127 C128 1.345 . S
N127 C130 1.336 . S
C128 N126 1.335 . S
C128 N127 1.345 . S
C128 H133 0.930 . S
C129 N126 1.390 . S
C129 C130 1.346 . S
C129 H134 0.930 . S
C130 N127 1.336 . S
C130 C129 1.346 . S
C130 H137 0.929 . S
C131 O121 1.282 . S
C131 O132 1.216 . S
O132 C131 1.216 . S
H133 C128 0.930 . S
H134 C129 0.930 . S
O135 Cu115 1.959 1_556 S
O135 C122 1.251 . S
H136 C119 0.930 . S
H137 C130 0.929 . S
Cu138 N139 1.999 . S
Cu138 O144 1.974 . S
Cu138 N149 1.985 . S
Cu138 O158 1.959 . S
N139 Cu138 1.999 . S
N139 C141 1.263 . S
N139 C143 1.389 . S
N140 C141 1.358 . S
N140 C142 1.400 . S
C141 N139 1.263 . S
C141 N140 1.358 . S
C141 H147 0.930 . S
C142 N140 1.400 . S
C142 C143 1.351 . S
C142 H159 0.930 . S
C143 N139 1.389 . S
C143 C142 1.351 . S
C143 H148 0.930 . S
O144 Cu138 1.974 . S
O144 C154 1.282 . S
C145 O146 1.261 . S
C145 O158 1.251 . S
O146 C145 1.261 . S
H147 C141 0.930 . S
H148 C143 0.930 . S
N149 Cu138 1.985 . S
N149 C151 1.335 . S
N149 C152 1.390 . S
N150 C151 1.345 . S
N150 C153 1.336 . S
C151 N149 1.335 . S
C151 N150 1.345 . S
C151 H156 0.930 . S
C152 N149 1.390 . S
C152 C153 1.346 . S
C152 H157 0.930 . S
C153 N150 1.336 . S
C153 C152 1.346 . S
C153 H160 0.929 . S
C154 O144 1.282 . S
C154 O155 1.216 . S
O155 C154 1.216 . S
H156 C151 0.930 . S
H157 C152 0.930 . S
O158 Cu138 1.959 . S
O158 C145 1.251 . S
H159 C142 0.930 . S
H160 C153 0.929 . S
Cu161 N162 1.999 . S
Cu161 O167 1.974 . S
Cu161 N172 1.985 . S
Cu161 O181 1.959 . S
N162 Cu161 1.999 . S
N162 C164 1.263 . S
N162 C166 1.389 . S
N163 C164 1.358 . S
N163 C165 1.400 . S
C164 N162 1.263 . S
C164 N163 1.358 . S
C164 H170 0.930 . S
C165 N163 1.400 . S
C165 C166 1.351 . S
C165 H182 0.930 . S
C166 N162 1.389 . S
C166 C165 1.351 . S
C166 H171 0.930 . S
O167 Cu161 1.974 . S
O167 C177 1.282 . S
C168 O169 1.261 . S
C168 O181 1.251 . S
O169 C168 1.261 . S
H170 C164 0.930 . S
H171 C166 0.930 . S
N172 Cu161 1.985 . S
N172 C174 1.335 . S
N172 C175 1.390 . S
N173 C174 1.345 . S
N173 C176 1.336 . S
C174 N172 1.335 . S
C174 N173 1.345 . S
C174 H179 0.930 . S
C175 N172 1.390 . S
C175 C176 1.346 . S
C175 H180 0.930 . S
C176 N173 1.336 . S
C176 C175 1.346 . S
C176 H183 0.929 . S
C177 O167 1.282 . S
C177 O178 1.216 . S
O178 C177 1.216 . S
H179 C174 0.930 . S
H180 C175 0.930 . S
O181 Cu161 1.959 . S
O181 C168 1.251 . S
H182 C165 0.930 . S
H183 C176 0.929 . S
Cu184 N185 1.999 . S
Cu184 O190 1.974 . S
Cu184 N195 1.985 . S
Cu184 O204 1.959 . S
N185 Cu184 1.999 . S
N185 C187 1.263 . S
N185 C189 1.389 . S
N186 C187 1.358 . S
N186 C188 1.400 . S
C187 N185 1.263 . S
C187 N186 1.358 . S
C187 H193 0.930 . S
C188 N186 1.400 . S
C188 C189 1.351 . S
C188 H205 0.930 . S
C189 N185 1.389 . S
C189 C188 1.351 . S
C189 H194 0.930 . S
O190 Cu184 1.974 . S
O190 C200 1.282 . S
C191 O192 1.261 . S
C191 O204 1.251 . S
O192 C191 1.261 . S
H193 C187 0.930 . S
H194 C189 0.930 . S
N195 Cu184 1.985 . S
N195 C197 1.335 . S
N195 C198 1.390 . S
N196 C197 1.345 . S
N196 C199 1.336 . S
C197 N195 1.335 . S
C197 N196 1.345 . S
C197 H202 0.930 . S
C198 N195 1.390 . S
C198 C199 1.346 . S
C198 H203 0.930 . S
C199 N196 1.336 . S
C199 C198 1.346 . S
C199 H206 0.929 . S
C200 O190 1.282 . S
C200 O201 1.216 . S
O201 C200 1.216 . S
H202 C197 0.930 . S
H203 C198 0.930 . S
O204 Cu184 1.959 . S
O204 C191 1.251 . S
H205 C188 0.930 . S
H206 C199 0.929 . S
Cu207 N208 1.999 . S
Cu207 O213 1.974 . S
Cu207 N218 1.985 . S
Cu207 O227 1.959 . S
N208 Cu207 1.999 . S
N208 C210 1.263 . S
N208 C212 1.389 . S
N209 C210 1.358 . S
N209 C211 1.400 . S
C210 N208 1.263 . S
C210 N209 1.358 . S
C210 H216 0.930 . S
C211 N209 1.400 . S
C211 C212 1.351 . S
C211 H228 0.930 . S
C212 N208 1.389 . S
C212 C211 1.351 . S
C212 H217 0.930 . S
O213 Cu207 1.974 . S
O213 C223 1.282 . S
C214 O215 1.261 . S
C214 O227 1.251 . S
O215 C214 1.261 . S
H216 C210 0.930 . S
H217 C212 0.930 . S
N218 Cu207 1.985 . S
N218 C220 1.335 . S
N218 C221 1.390 . S
N219 C220 1.345 . S
N219 C222 1.336 . S
C220 N218 1.335 . S
C220 N219 1.345 . S
C220 H225 0.930 . S
C221 N218 1.390 . S
C221 C222 1.346 . S
C221 H226 0.930 . S
C222 N219 1.336 . S
C222 C221 1.346 . S
C222 H229 0.929 . S
C223 O213 1.282 . S
C223 O224 1.216 . S
O224 C223 1.216 . S
H225 C220 0.930 . S
H226 C221 0.930 . S
O227 Cu207 1.959 . S
O227 C214 1.251 . S
H228 C211 0.930 . S
H229 C222 0.929 . S
Cu230 N231 1.999 . S
Cu230 O236 1.974 . S
Cu230 N241 1.985 . S
Cu230 O250 1.959 . S
N231 Cu230 1.999 . S
N231 C233 1.263 . S
N231 C235 1.389 . S
N232 C233 1.358 . S
N232 C234 1.400 . S
C233 N231 1.263 . S
C233 N232 1.358 . S
C233 H239 0.930 . S
C234 N232 1.400 . S
C234 C235 1.351 . S
C234 H251 0.930 . S
C235 N231 1.389 . S
C235 C234 1.351 . S
C235 H240 0.930 . S
O236 Cu230 1.974 . S
O236 C246 1.282 . S
C237 O238 1.261 . S
C237 O250 1.251 . S
O238 C237 1.261 . S
H239 C233 0.930 . S
H240 C235 0.930 . S
N241 Cu230 1.985 . S
N241 C243 1.335 . S
N241 C244 1.390 . S
N242 C243 1.345 . S
N242 C245 1.336 . S
C243 N241 1.335 . S
C243 N242 1.345 . S
C243 H248 0.930 . S
C244 N241 1.390 . S
C244 C245 1.346 . S
C244 H249 0.930 . S
C245 N242 1.336 . S
C245 C244 1.346 . S
C245 H252 0.929 . S
C246 O236 1.282 . S
C246 O247 1.216 . S
O247 C246 1.216 . S
H248 C243 0.930 . S
H249 C244 0.930 . S
O250 Cu230 1.959 . S
O250 C237 1.251 . S
H251 C234 0.930 . S
H252 C245 0.929 . S
Cu253 N254 1.999 . S
Cu253 O259 1.974 . S
Cu253 N264 1.985 . S
Cu253 O273 1.959 . S
N254 Cu253 1.999 . S
N254 C256 1.263 . S
N254 C258 1.389 . S
N255 C256 1.358 . S
N255 C257 1.400 . S
C256 N254 1.263 . S
C256 N255 1.358 . S
C256 H262 0.930 . S
C257 N255 1.400 . S
C257 C258 1.351 . S
C257 H274 0.930 . S
C258 N254 1.389 . S
C258 C257 1.351 . S
C258 H263 0.930 . S
O259 Cu253 1.974 . S
O259 C269 1.282 . S
C260 O261 1.261 . S
C260 O273 1.251 . S
O261 C260 1.261 . S
H262 C256 0.930 . S
H263 C258 0.930 . S
N264 Cu253 1.985 . S
N264 C266 1.335 . S
N264 C267 1.390 . S
N265 C266 1.345 . S
N265 C268 1.336 . S
C266 N264 1.335 . S
C266 N265 1.345 . S
C266 H271 0.930 . S
C267 N264 1.390 . S
C267 C268 1.346 . S
C267 H272 0.930 . S
C268 N265 1.336 . S
C268 C267 1.346 . S
C268 H275 0.929 . S
C269 O259 1.282 . S
C269 O270 1.216 . S
O270 C269 1.216 . S
H271 C266 0.930 . S
H272 C267 0.930 . S
O273 Cu253 1.959 . S
O273 C260 1.251 . S
H274 C257 0.930 . S
H275 C268 0.929 . S
Dy276 O280 2.398 . S
Dy276 O281 2.491 . S
Dy276 O282 2.403 . S
Dy276 O283 2.664 . S
Dy276 O287 2.326 . S
Dy276 O291 2.310 . S
Dy276 O292 2.351 . S
C277 O288 1.185 . S
C277 O289 1.355 . S
C278 O280 1.185 . S
C278 O281 1.355 . S
Dy279 O283 2.310 . S
Dy279 O286 2.351 . S
Dy279 O288 2.398 . S
Dy279 O289 2.491 . S
Dy279 O290 2.403 . S
Dy279 O291 2.664 . S
Dy279 O293 2.326 . S
O280 Dy276 2.398 . S
O280 C278 1.185 . S
O281 Dy276 2.491 . S
O281 C278 1.355 . S
O282 Dy276 2.403 . S
O282 C284 1.254 . S
O283 Dy276 2.664 . S
O283 Dy279 2.310 . S
O283 C284 1.268 . S
C284 O282 1.254 . S
C284 O283 1.268 . S
C285 O290 1.254 . S
C285 O291 1.268 . S
O286 Dy279 2.351 . S
O286 C294 1.249 . S
O287 Dy276 2.326 . S
O287 C294 1.267 . S
O288 C277 1.185 . S
O288 Dy279 2.398 . S
O289 C277 1.355 . S
O289 Dy279 2.491 . S
O290 Dy279 2.403 . S
O290 C285 1.254 . S
O291 Dy276 2.310 . S
O291 Dy279 2.664 . S
O291 C285 1.268 . S
O292 Dy276 2.351 . S
O292 C295 1.249 . S
O293 Dy279 2.326 . S
O293 C295 1.267 . S
C294 O286 1.249 . S
C294 O287 1.267 . S
C295 O292 1.249 . S
C295 O293 1.267 . S
Dy296 O300 2.398 . S
Dy296 O301 2.491 . S
Dy296 O302 2.403 . S
Dy296 O303 2.664 . S
Dy296 O307 2.326 . S
Dy296 O311 2.310 . S
Dy296 O312 2.351 . S
C297 O308 1.185 . S
C297 O309 1.355 . S
C298 O300 1.185 . S
C298 O301 1.355 . S
Dy299 O303 2.310 . S
Dy299 O306 2.351 . S
Dy299 O308 2.398 . S
Dy299 O309 2.491 . S
Dy299 O310 2.403 . S
Dy299 O311 2.664 . S
Dy299 O313 2.326 . S
O300 Dy296 2.398 . S
O300 C298 1.185 . S
O301 Dy296 2.491 . S
O301 C298 1.355 . S
O302 Dy296 2.403 . S
O302 C304 1.254 . S
O303 Dy296 2.664 . S
O303 Dy299 2.310 . S
O303 C304 1.268 . S
C304 O302 1.254 . S
C304 O303 1.268 . S
C305 O310 1.254 . S
C305 O311 1.268 . S
O306 Dy299 2.351 . S
O306 C314 1.249 . S
O307 Dy296 2.326 . S
O307 C314 1.267 . S
O308 C297 1.185 . S
O308 Dy299 2.398 . S
O309 C297 1.355 . S
O309 Dy299 2.491 . S
O310 Dy299 2.403 . S
O310 C305 1.254 . S
O311 Dy296 2.310 . S
O311 Dy299 2.664 . S
O311 C305 1.268 . S
O312 Dy296 2.351 . S
O312 C315 1.249 . S
O313 Dy299 2.326 . S
O313 C315 1.267 . S
C314 O306 1.249 . S
C314 O307 1.267 . S
C315 O312 1.249 . S
C315 O313 1.267 . S
Dy316 O320 2.398 . S
Dy316 O321 2.491 . S
Dy316 O322 2.403 . S
Dy316 O323 2.664 . S
Dy316 O327 2.326 . S
Dy316 O331 2.310 . S
Dy316 O332 2.351 . S
C317 O328 1.185 . S
C317 O329 1.355 . S
C318 O320 1.185 . S
C318 O321 1.355 . S
Dy319 O323 2.310 . S
Dy319 O326 2.351 . S
Dy319 O328 2.398 . S
Dy319 O329 2.491 . S
Dy319 O330 2.403 . S
Dy319 O331 2.664 . S
Dy319 O333 2.326 . S
O320 Dy316 2.398 . S
O320 C318 1.185 . S
O321 Dy316 2.491 . S
O321 C318 1.355 . S
O322 Dy316 2.403 . S
O322 C324 1.254 . S
O323 Dy316 2.664 . S
O323 Dy319 2.310 . S
O323 C324 1.268 . S
C324 O322 1.254 . S
C324 O323 1.268 . S
C325 O330 1.254 . S
C325 O331 1.268 . S
O326 Dy319 2.351 . S
O326 C334 1.249 . S
O327 Dy316 2.326 . S
O327 C334 1.267 . S
O328 C317 1.185 . S
O328 Dy319 2.398 . S
O329 C317 1.355 . S
O329 Dy319 2.491 . S
O330 Dy319 2.403 . S
O330 C325 1.254 . S
O331 Dy316 2.310 . S
O331 Dy319 2.664 . S
O331 C325 1.268 . S
O332 Dy316 2.351 . S
O332 C335 1.249 . S
O333 Dy319 2.326 . S
O333 C335 1.267 . S
C334 O326 1.249 . S
C334 O327 1.267 . S
C335 O332 1.249 . S
C335 O333 1.267 . S
Dy336 O340 2.398 . S
Dy336 O341 2.491 . S
Dy336 O342 2.403 . S
Dy336 O343 2.664 . S
Dy336 O347 2.326 . S
Dy336 O351 2.310 . S
Dy336 O352 2.351 . S
C337 O348 1.185 . S
C337 O349 1.355 . S
C338 O340 1.185 . S
C338 O341 1.355 . S
Dy339 O343 2.310 . S
Dy339 O346 2.351 . S
Dy339 O348 2.398 . S
Dy339 O349 2.491 . S
Dy339 O350 2.403 . S
Dy339 O351 2.664 . S
Dy339 O353 2.326 . S
O340 Dy336 2.398 . S
O340 C338 1.185 . S
O341 Dy336 2.491 . S
O341 C338 1.355 . S
O342 Dy336 2.403 . S
O342 C344 1.254 . S
O343 Dy336 2.664 . S
O343 Dy339 2.310 . S
O343 C344 1.268 . S
C344 O342 1.254 . S
C344 O343 1.268 . S
C345 O350 1.254 . S
C345 O351 1.268 . S
O346 Dy339 2.351 . S
O346 C354 1.249 . S
O347 Dy336 2.326 . S
O347 C354 1.267 . S
O348 C337 1.185 . S
O348 Dy339 2.398 . S
O349 C337 1.355 . S
O349 Dy339 2.491 . S
O350 Dy339 2.403 . S
O350 C345 1.254 . S
O351 Dy336 2.310 . S
O351 Dy339 2.664 . S
O351 C345 1.268 . S
O352 Dy336 2.351 . S
O352 C355 1.249 . S
O353 Dy339 2.326 . S
O353 C355 1.267 . S
C354 O346 1.249 . S
C354 O347 1.267 . S
C355 O352 1.249 . S
C355 O353 1.267 . S
Dy356 O360 2.398 . S
Dy356 O361 2.491 . S
Dy356 O362 2.403 . S
Dy356 O363 2.664 . S
Dy356 O367 2.326 . S
Dy356 O371 2.310 . S
Dy356 O372 2.351 . S
C357 O368 1.185 . S
C357 O369 1.355 . S
C358 O360 1.185 . S
C358 O361 1.355 . S
Dy359 O363 2.310 . S
Dy359 O366 2.351 . S
Dy359 O368 2.398 . S
Dy359 O369 2.491 . S
Dy359 O370 2.403 . S
Dy359 O371 2.664 . S
Dy359 O373 2.326 . S
O360 Dy356 2.398 . S
O360 C358 1.185 . S
O361 Dy356 2.491 . S
O361 C358 1.355 . S
O362 Dy356 2.403 . S
O362 C364 1.254 . S
O363 Dy356 2.664 . S
O363 Dy359 2.310 . S
O363 C364 1.268 . S
C364 O362 1.254 . S
C364 O363 1.268 . S
C365 O370 1.254 . S
C365 O371 1.268 . S
O366 Dy359 2.351 . S
O366 C374 1.249 . S
O367 Dy356 2.326 . S
O367 C374 1.267 . S
O368 C357 1.185 . S
O368 Dy359 2.398 . S
O369 C357 1.355 . S
O369 Dy359 2.491 . S
O370 Dy359 2.403 . S
O370 C365 1.254 . S
O371 Dy356 2.310 . S
O371 Dy359 2.664 . S
O371 C365 1.268 . S
O372 Dy356 2.351 . S
O372 C375 1.249 . S
O373 Dy359 2.326 . S
O373 C375 1.267 . S
C374 O366 1.249 . S
C374 O367 1.267 . S
C375 O372 1.249 . S
C375 O373 1.267 . S
Dy376 O380 2.398 . S
Dy376 O381 2.491 . S
Dy376 O382 2.403 . S
Dy376 O383 2.664 . S
Dy376 O387 2.326 . S
Dy376 O391 2.310 . S
Dy376 O392 2.351 . S
C377 O388 1.185 . S
C377 O389 1.355 . S
C378 O380 1.185 . S
C378 O381 1.355 . S
Dy379 O383 2.310 . S
Dy379 O386 2.351 . S
Dy379 O388 2.398 . S
Dy379 O389 2.491 . S
Dy379 O390 2.403 . S
Dy379 O391 2.664 . S
Dy379 O393 2.326 . S
O380 Dy376 2.398 . S
O380 C378 1.185 . S
O381 Dy376 2.491 . S
O381 C378 1.355 . S
O382 Dy376 2.403 . S
O382 C384 1.254 . S
O383 Dy376 2.664 . S
O383 Dy379 2.310 . S
O383 C384 1.268 . S
C384 O382 1.254 . S
C384 O383 1.268 . S
C385 O390 1.254 . S
C385 O391 1.268 . S
O386 Dy379 2.351 . S
O386 C394 1.249 . S
O387 Dy376 2.326 . S
O387 C394 1.267 . S
O388 C377 1.185 . S
O388 Dy379 2.398 . S
O389 C377 1.355 . S
O389 Dy379 2.491 . S
O390 Dy379 2.403 . S
O390 C385 1.254 . S
O391 Dy376 2.310 . S
O391 Dy379 2.664 . S
O391 C385 1.268 . S
O392 Dy376 2.351 . S
O392 C395 1.249 . S
O393 Dy379 2.326 . S
O393 C395 1.267 . S
C394 O386 1.249 . S
C394 O387 1.267 . S
C395 O392 1.249 . S
C395 O393 1.267 . S
Dy396 O400 2.398 . S
Dy396 O401 2.491 . S
Dy396 O402 2.403 . S
Dy396 O403 2.664 . S
Dy396 O407 2.326 . S
Dy396 O411 2.310 . S
Dy396 O412 2.351 . S
C397 O408 1.185 . S
C397 O409 1.355 . S
C398 O400 1.185 . S
C398 O401 1.355 . S
Dy399 O403 2.310 . S
Dy399 O406 2.351 . S
Dy399 O408 2.398 . S
Dy399 O409 2.491 . S
Dy399 O410 2.403 . S
Dy399 O411 2.664 . S
Dy399 O413 2.326 . S
O400 Dy396 2.398 . S
O400 C398 1.185 . S
O401 Dy396 2.491 . S
O401 C398 1.355 . S
O402 Dy396 2.403 . S
O402 C404 1.254 . S
O403 Dy396 2.664 . S
O403 Dy399 2.310 . S
O403 C404 1.268 . S
C404 O402 1.254 . S
C404 O403 1.268 . S
C405 O410 1.254 . S
C405 O411 1.268 . S
O406 Dy399 2.351 . S
O406 C414 1.249 . S
O407 Dy396 2.326 . S
O407 C414 1.267 . S
O408 C397 1.185 . S
O408 Dy399 2.398 . S
O409 C397 1.355 . S
O409 Dy399 2.491 . S
O410 Dy399 2.403 . S
O410 C405 1.254 . S
O411 Dy396 2.310 . S
O411 Dy399 2.664 . S
O411 C405 1.268 . S
O412 Dy396 2.351 . S
O412 C415 1.249 . S
O413 Dy399 2.326 . S
O413 C415 1.267 . S
C414 O406 1.249 . S
C414 O407 1.267 . S
C415 O412 1.249 . S
C415 O413 1.267 . S
Dy416 O420 2.398 . S
Dy416 O421 2.491 . S
Dy416 O422 2.403 . S
Dy416 O423 2.664 . S
Dy416 O427 2.326 . S
Dy416 O431 2.310 . S
Dy416 O432 2.351 . S
C417 O428 1.185 . S
C417 O429 1.355 . S
C418 O420 1.185 . S
C418 O421 1.355 . S
Dy419 O423 2.310 . S
Dy419 O426 2.351 . S
Dy419 O428 2.398 . S
Dy419 O429 2.491 . S
Dy419 O430 2.403 . S
Dy419 O431 2.664 . S
Dy419 O433 2.326 . S
O420 Dy416 2.398 . S
O420 C418 1.185 . S
O421 Dy416 2.491 . S
O421 C418 1.355 . S
O422 Dy416 2.403 . S
O422 C424 1.254 . S
O423 Dy416 2.664 . S
O423 Dy419 2.310 . S
O423 C424 1.268 . S
C424 O422 1.254 . S
C424 O423 1.268 . S
C425 O430 1.254 . S
C425 O431 1.268 . S
O426 Dy419 2.351 . S
O426 C434 1.249 . S
O427 Dy416 2.326 . S
O427 C434 1.267 . S
O428 C417 1.185 . S
O428 Dy419 2.398 . S
O429 C417 1.355 . S
O429 Dy419 2.491 . S
O430 Dy419 2.403 . S
O430 C425 1.254 . S
O431 Dy416 2.310 . S
O431 Dy419 2.664 . S
O431 C425 1.268 . S
O432 Dy416 2.351 . S
O432 C435 1.249 . S
O433 Dy419 2.326 . S
O433 C435 1.267 . S
C434 O426 1.249 . S
C434 O427 1.267 . S
C435 O432 1.249 . S
C435 O433 1.267 . S
C436 C437 1.349 . S
C436 C438 1.327 . S
C436 H461 0.950 . S
C437 C436 1.349 . S
C437 C453 1.349 . S
C438 C436 1.327 . S
C438 C457 1.429 . S
C438 H462 0.950 . S
C439 C456 1.574 . S
C439 C458 1.368 . S
C439 H463 0.949 . S
H440 C444 0.949 . S
C441 C442 1.349 . S
C441 C443 1.327 . S
C441 H464 0.950 . S
C442 C441 1.349 . S
C442 C454 1.349 . S
C443 C441 1.327 . S
C443 C459 1.429 . S
C443 H465 0.950 . S
C444 H440 0.949 . S
C444 C452 1.574 . S
C444 C460 1.368 . S
H445 C453 0.950 . S
H446 C451 0.950 . S
H447 C452 0.949 . S
H448 C454 0.950 . S
H449 C455 0.950 . S
H450 C456 0.949 . S
C451 H446 0.950 . S
C451 C453 1.327 . S
C451 C457 1.429 . S
C452 C444 1.574 . S
C452 H447 0.949 . S
C452 C458 1.368 . S
C453 C437 1.349 . S
C453 H445 0.950 . S
C453 C451 1.327 . S
C454 C442 1.349 . S
C454 H448 0.950 . S
C454 C455 1.327 . S
C455 H449 0.950 . S
C455 C454 1.327 . S
C455 C459 1.429 . S
C456 C439 1.574 . S
C456 H450 0.949 . S
C456 C460 1.368 . S
C457 C438 1.429 . S
C457 C451 1.429 . S
C457 C458 1.523 . S
C458 C439 1.368 . S
C458 C452 1.368 . S
C458 C457 1.523 . S
C459 C443 1.429 . S
C459 C455 1.429 . S
C459 C460 1.523 . S
C460 C444 1.368 . S
C460 C456 1.368 . S
C460 C459 1.523 . S
H461 C436 0.950 . S
H462 C438 0.950 . S
H463 C439 0.949 . S
H464 C441 0.950 . S
H465 C443 0.950 . S
C466 C467 1.349 . S
C466 C468 1.327 . S
C466 H491 0.950 . S
C467 C466 1.349 . S
C467 C483 1.349 . S
C468 C466 1.327 . S
C468 C487 1.429 . S
C468 H492 0.950 . S
C469 C486 1.574 . S
C469 C488 1.368 . S
C469 H493 0.949 . S
H470 C474 0.949 . S
C471 C472 1.349 . S
C471 C473 1.327 . S
C471 H494 0.950 . S
C472 C471 1.349 . S
C472 C484 1.349 . S
C473 C471 1.327 . S
C473 C489 1.429 . S
C473 H495 0.950 . S
C474 H470 0.949 . S
C474 C482 1.574 . S
C474 C490 1.368 . S
H475 C483 0.950 . S
H476 C481 0.950 . S
H477 C482 0.949 . S
H478 C484 0.950 . S
H479 C485 0.950 . S
H480 C486 0.949 . S
C481 H476 0.950 . S
C481 C483 1.327 . S
C481 C487 1.429 . S
C482 C474 1.574 . S
C482 H477 0.949 . S
C482 C488 1.368 . S
C483 C467 1.349 . S
C483 H475 0.950 . S
C483 C481 1.327 . S
C484 C472 1.349 . S
C484 H478 0.950 . S
C484 C485 1.327 . S
C485 H479 0.950 . S
C485 C484 1.327 . S
C485 C489 1.429 . S
C486 C469 1.574 . S
C486 H480 0.949 . S
C486 C490 1.368 . S
C487 C468 1.429 . S
C487 C481 1.429 . S
C487 C488 1.523 . S
C488 C469 1.368 . S
C488 C482 1.368 . S
C488 C487 1.523 . S
C489 C473 1.429 . S
C489 C485 1.429 . S
C489 C490 1.523 . S
C490 C474 1.368 . S
C490 C486 1.368 . S
C490 C489 1.523 . S
H491 C466 0.950 . S
H492 C468 0.950 . S
H493 C469 0.949 . S
H494 C471 0.950 . S
H495 C473 0.950 . S
C496 C497 1.349 . S
C496 C498 1.327 . S
C496 H521 0.950 . S
C497 C496 1.349 . S
C497 C513 1.349 . S
C498 C496 1.327 . S
C498 C517 1.429 . S
C498 H522 0.950 . S
C499 C516 1.574 . S
C499 C518 1.368 . S
C499 H523 0.949 . S
H500 C504 0.949 . S
C501 C502 1.349 . S
C501 C503 1.327 . S
C501 H524 0.950 . S
C502 C501 1.349 . S
C502 C514 1.349 . S
C503 C501 1.327 . S
C503 C519 1.429 . S
C503 H525 0.950 . S
C504 H500 0.949 . S
C504 C512 1.574 . S
C504 C520 1.368 . S
H505 C513 0.950 . S
H506 C511 0.950 . S
H507 C512 0.949 . S
H508 C514 0.950 . S
H509 C515 0.950 . S
H510 C516 0.949 . S
C511 H506 0.950 . S
C511 C513 1.327 . S
C511 C517 1.429 . S
C512 C504 1.574 . S
C512 H507 0.949 . S
C512 C518 1.368 . S
C513 C497 1.349 . S
C513 H505 0.950 . S
C513 C511 1.327 . S
C514 C502 1.349 . S
C514 H508 0.950 . S
C514 C515 1.327 . S
C515 H509 0.950 . S
C515 C514 1.327 . S
C515 C519 1.429 . S
C516 C499 1.574 . S
C516 H510 0.949 . S
C516 C520 1.368 . S
C517 C498 1.429 . S
C517 C511 1.429 . S
C517 C518 1.523 . S
C518 C499 1.368 . S
C518 C512 1.368 . S
C518 C517 1.523 . S
C519 C503 1.429 . S
C519 C515 1.429 . S
C519 C520 1.523 . S
C520 C504 1.368 . S
C520 C516 1.368 . S
C520 C519 1.523 . S
H521 C496 0.950 . S
H522 C498 0.950 . S
H523 C499 0.949 . S
H524 C501 0.950 . S
H525 C503 0.950 . S
C526 C527 1.349 . S
C526 C528 1.327 . S
C526 H551 0.950 . S
C527 C526 1.349 . S
C527 C543 1.349 . S
C528 C526 1.327 . S
C528 C547 1.429 . S
C528 H552 0.950 . S
C529 C546 1.574 . S
C529 C548 1.368 . S
C529 H553 0.949 . S
H530 C534 0.949 . S
C531 C532 1.349 . S
C531 C533 1.327 . S
C531 H554 0.950 . S
C532 C531 1.349 . S
C532 C544 1.349 . S
C533 C531 1.327 . S
C533 C549 1.429 . S
C533 H555 0.950 . S
C534 H530 0.949 . S
C534 C542 1.574 . S
C534 C550 1.368 . S
H535 C543 0.950 . S
H536 C541 0.950 . S
H537 C542 0.949 . S
H538 C544 0.950 . S
H539 C545 0.950 . S
H540 C546 0.949 . S
C541 H536 0.950 . S
C541 C543 1.327 . S
C541 C547 1.429 . S
C542 C534 1.574 . S
C542 H537 0.949 . S
C542 C548 1.368 . S
C543 C527 1.349 . S
C543 H535 0.950 . S
C543 C541 1.327 . S
C544 C532 1.349 . S
C544 H538 0.950 . S
C544 C545 1.327 . S
C545 H539 0.950 . S
C545 C544 1.327 . S
C545 C549 1.429 . S
C546 C529 1.574 . S
C546 H540 0.949 . S
C546 C550 1.368 . S
C547 C528 1.429 . S
C547 C541 1.429 . S
C547 C548 1.523 . S
C548 C529 1.368 . S
C548 C542 1.368 . S
C548 C547 1.523 . S
C549 C533 1.429 . S
C549 C545 1.429 . S
C549 C550 1.523 . S
C550 C534 1.368 . S
C550 C546 1.368 . S
C550 C549 1.523 . S
H551 C526 0.950 . S
H552 C528 0.950 . S
H553 C529 0.949 . S
H554 C531 0.950 . S
H555 C533 0.950 . S
C556 C557 1.349 . S
C556 C558 1.327 . S
C556 H581 0.950 . S
C557 C556 1.349 . S
C557 C573 1.349 . S
C558 C556 1.327 . S
C558 C577 1.429 . S
C558 H582 0.950 . S
C559 C576 1.574 . S
C559 C578 1.368 . S
C559 H583 0.949 . S
H560 C564 0.949 . S
C561 C562 1.349 . S
C561 C563 1.327 . S
C561 H584 0.950 . S
C562 C561 1.349 . S
C562 C574 1.349 . S
C563 C561 1.327 . S
C563 C579 1.429 . S
C563 H585 0.950 . S
C564 H560 0.949 . S
C564 C572 1.574 . S
C564 C580 1.368 . S
H565 C573 0.950 . S
H566 C571 0.950 . S
H567 C572 0.949 . S
H568 C574 0.950 . S
H569 C575 0.950 . S
H570 C576 0.949 . S
C571 H566 0.950 . S
C571 C573 1.327 . S
C571 C577 1.429 . S
C572 C564 1.574 . S
C572 H567 0.949 . S
C572 C578 1.368 . S
C573 C557 1.349 . S
C573 H565 0.950 . S
C573 C571 1.327 . S
C574 C562 1.349 . S
C574 H568 0.950 . S
C574 C575 1.327 . S
C575 H569 0.950 . S
C575 C574 1.327 . S
C575 C579 1.429 . S
C576 C559 1.574 . S
C576 H570 0.949 . S
C576 C580 1.368 . S
C577 C558 1.429 . S
C577 C571 1.429 . S
C577 C578 1.523 . S
C578 C559 1.368 . S
C578 C572 1.368 . S
C578 C577 1.523 . S
C579 C563 1.429 . S
C579 C575 1.429 . S
C579 C580 1.523 . S
C580 C564 1.368 . S
C580 C576 1.368 . S
C580 C579 1.523 . S
H581 C556 0.950 . S
H582 C558 0.950 . S
H583 C559 0.949 . S
H584 C561 0.950 . S
H585 C563 0.950 . S
C586 C587 1.349 . S
C586 C588 1.327 . S
C586 H611 0.950 . S
C587 C586 1.349 . S
C587 C603 1.349 . S
C588 C586 1.327 . S
C588 C607 1.429 . S
C588 H612 0.950 . S
C589 C606 1.574 . S
C589 C608 1.368 . S
C589 H613 0.949 . S
H590 C594 0.949 . S
C591 C592 1.349 . S
C591 C593 1.327 . S
C591 H614 0.950 . S
C592 C591 1.349 . S
C592 C604 1.349 . S
C593 C591 1.327 . S
C593 C609 1.429 . S
C593 H615 0.950 . S
C594 H590 0.949 . S
C594 C602 1.574 . S
C594 C610 1.368 . S
H595 C603 0.950 . S
H596 C601 0.950 . S
H597 C602 0.949 . S
H598 C604 0.950 . S
H599 C605 0.950 . S
H600 C606 0.949 . S
C601 H596 0.950 . S
C601 C603 1.327 . S
C601 C607 1.429 . S
C602 C594 1.574 . S
C602 H597 0.949 . S
C602 C608 1.368 . S
C603 C587 1.349 . S
C603 H595 0.950 . S
C603 C601 1.327 . S
C604 C592 1.349 . S
C604 H598 0.950 . S
C604 C605 1.327 . S
C605 H599 0.950 . S
C605 C604 1.327 . S
C605 C609 1.429 . S
C606 C589 1.574 . S
C606 H600 0.949 . S
C606 C610 1.368 . S
C607 C588 1.429 . S
C607 C601 1.429 . S
C607 C608 1.523 . S
C608 C589 1.368 . S
C608 C602 1.368 . S
C608 C607 1.523 . S
C609 C593 1.429 . S
C609 C605 1.429 . S
C609 C610 1.523 . S
C610 C594 1.368 . S
C610 C606 1.368 . S
C610 C609 1.523 . S
H611 C586 0.950 . S
H612 C588 0.950 . S
H613 C589 0.949 . S
H614 C591 0.950 . S
H615 C593 0.950 . S
C616 C617 1.349 . S
C616 C618 1.327 . S
C616 H641 0.950 . S
C617 C616 1.349 . S
C617 C633 1.349 . S
C618 C616 1.327 . S
C618 C637 1.429 . S
C618 H642 0.950 . S
C619 C636 1.574 . S
C619 C638 1.368 . S
C619 H643 0.949 . S
H620 C624 0.949 . S
C621 C622 1.349 . S
C621 C623 1.327 . S
C621 H644 0.950 . S
C622 C621 1.349 . S
C622 C634 1.349 . S
C623 C621 1.327 . S
C623 C639 1.429 . S
C623 H645 0.950 . S
C624 H620 0.949 . S
C624 C632 1.574 . S
C624 C640 1.368 . S
H625 C633 0.950 . S
H626 C631 0.950 . S
H627 C632 0.949 . S
H628 C634 0.950 . S
H629 C635 0.950 . S
H630 C636 0.949 . S
C631 H626 0.950 . S
C631 C633 1.327 . S
C631 C637 1.429 . S
C632 C624 1.574 . S
C632 H627 0.949 . S
C632 C638 1.368 . S
C633 C617 1.349 . S
C633 H625 0.950 . S
C633 C631 1.327 . S
C634 C622 1.349 . S
C634 H628 0.950 . S
C634 C635 1.327 . S
C635 H629 0.950 . S
C635 C634 1.327 . S
C635 C639 1.429 . S
C636 C619 1.574 . S
C636 H630 0.949 . S
C636 C640 1.368 . S
C637 C618 1.429 . S
C637 C631 1.429 . S
C637 C638 1.523 . S
C638 C619 1.368 . S
C638 C632 1.368 . S
C638 C637 1.523 . S
C639 C623 1.429 . S
C639 C635 1.429 . S
C639 C640 1.523 . S
C640 C624 1.368 . S
C640 C636 1.368 . S
C640 C639 1.523 . S
H641 C616 0.950 . S
H642 C618 0.950 . S
H643 C619 0.949 . S
H644 C621 0.950 . S
H645 C623 0.950 . S
C646 C647 1.349 . S
C646 C648 1.327 . S
C646 H671 0.950 . S
C647 C646 1.349 . S
C647 C663 1.349 . S
C648 C646 1.327 . S
C648 C667 1.429 . S
C648 H672 0.950 . S
C649 C666 1.574 . S
C649 C668 1.368 . S
C649 H673 0.949 . S
H650 C654 0.949 . S
C651 C652 1.349 . S
C651 C653 1.327 . S
C651 H674 0.950 . S
C652 C651 1.349 . S
C652 C664 1.349 . S
C653 C651 1.327 . S
C653 C669 1.429 . S
C653 H675 0.950 . S
C654 H650 0.949 . S
C654 C662 1.574 . S
C654 C670 1.368 . S
H655 C663 0.950 . S
H656 C661 0.950 . S
H657 C662 0.949 . S
H658 C664 0.950 . S
H659 C665 0.950 . S
H660 C666 0.949 . S
C661 H656 0.950 . S
C661 C663 1.327 . S
C661 C667 1.429 . S
C662 C654 1.574 . S
C662 H657 0.949 . S
C662 C668 1.368 . S
C663 C647 1.349 . S
C663 H655 0.950 . S
C663 C661 1.327 . S
C664 C652 1.349 . S
C664 H658 0.950 . S
C664 C665 1.327 . S
C665 H659 0.950 . S
C665 C664 1.327 . S
C665 C669 1.429 . S
C666 C649 1.574 . S
C666 H660 0.949 . S
C666 C670 1.368 . S
C667 C648 1.429 . S
C667 C661 1.429 . S
C667 C668 1.523 . S
C668 C649 1.368 . S
C668 C662 1.368 . S
C668 C667 1.523 . S
C669 C653 1.429 . S
C669 C665 1.429 . S
C669 C670 1.523 . S
C670 C654 1.368 . S
C670 C666 1.368 . S
C670 C669 1.523 . S
H671 C646 0.950 . S
H672 C648 0.950 . S
H673 C649 0.949 . S
H674 C651 0.950 . S
H675 C653 0.950 . S
C676 C677 1.349 . S
C676 C678 1.327 . S
C676 H701 0.950 . S
C677 C676 1.349 . S
C677 C693 1.349 . S
C678 C676 1.327 . S
C678 C697 1.429 . S
C678 H702 0.950 . S
C679 C696 1.574 . S
C679 C698 1.368 . S
C679 H703 0.949 . S
H680 C684 0.949 . S
C681 C682 1.349 . S
C681 C683 1.327 . S
C681 H704 0.950 . S
C682 C681 1.349 . S
C682 C694 1.349 . S
C683 C681 1.327 . S
C683 C699 1.429 . S
C683 H705 0.950 . S
C684 H680 0.949 . S
C684 C692 1.574 . S
C684 C700 1.368 . S
H685 C693 0.950 . S
H686 C691 0.950 . S
H687 C692 0.949 . S
H688 C694 0.950 . S
H689 C695 0.950 . S
H690 C696 0.949 . S
C691 H686 0.950 . S
C691 C693 1.327 . S
C691 C697 1.429 . S
C692 C684 1.574 . S
C692 H687 0.949 . S
C692 C698 1.368 . S
C693 C677 1.349 . S
C693 H685 0.950 . S
C693 C691 1.327 . S
C694 C682 1.349 . S
C694 H688 0.950 . S
C694 C695 1.327 . S
C695 H689 0.950 . S
C695 C694 1.327 . S
C695 C699 1.429 . S
C696 C679 1.574 . S
C696 H690 0.949 . S
C696 C700 1.368 . S
C697 C678 1.429 . S
C697 C691 1.429 . S
C697 C698 1.523 . S
C698 C679 1.368 . S
C698 C692 1.368 . S
C698 C697 1.523 . S
C699 C683 1.429 . S
C699 C695 1.429 . S
C699 C700 1.523 . S
C700 C684 1.368 . S
C700 C696 1.368 . S
C700 C699 1.523 . S
H701 C676 0.950 . S
H702 C678 0.950 . S
H703 C679 0.949 . S
H704 C681 0.950 . S
H705 C683 0.950 . S
C706 C707 1.349 . S
C706 C708 1.327 . S
C706 H731 0.950 . S
C707 C706 1.349 . S
C707 C723 1.349 . S
C708 C706 1.327 . S
C708 C727 1.429 . S
C708 H732 0.950 . S
C709 C726 1.574 . S
C709 C728 1.368 . S
C709 H733 0.949 . S
H710 C714 0.949 . S
C711 C712 1.349 . S
C711 C713 1.327 . S
C711 H734 0.950 . S
C712 C711 1.349 . S
C712 C724 1.349 . S
C713 C711 1.327 . S
C713 C729 1.429 . S
C713 H735 0.950 . S
C714 H710 0.949 . S
C714 C722 1.574 . S
C714 C730 1.368 . S
H715 C723 0.950 . S
H716 C721 0.950 . S
H717 C722 0.949 . S
H718 C724 0.950 . S
H719 C725 0.950 . S
H720 C726 0.949 . S
C721 H716 0.950 . S
C721 C723 1.327 . S
C721 C727 1.429 . S
C722 C714 1.574 . S
C722 H717 0.949 . S
C722 C728 1.368 . S
C723 C707 1.349 . S
C723 H715 0.950 . S
C723 C721 1.327 . S
C724 C712 1.349 . S
C724 H718 0.950 . S
C724 C725 1.327 . S
C725 H719 0.950 . S
C725 C724 1.327 . S
C725 C729 1.429 . S
C726 C709 1.574 . S
C726 H720 0.949 . S
C726 C730 1.368 . S
C727 C708 1.429 . S
C727 C721 1.429 . S
C727 C728 1.523 . S
C728 C709 1.368 . S
C728 C722 1.368 . S
C728 C727 1.523 . S
C729 C713 1.429 . S
C729 C725 1.429 . S
C729 C730 1.523 . S
C730 C714 1.368 . S
C730 C726 1.368 . S
C730 C729 1.523 . S
H731 C706 0.950 . S
H732 C708 0.950 . S
H733 C709 0.949 . S
H734 C711 0.950 . S
H735 C713 0.950 . S
C736 C737 1.349 . S
C736 C738 1.327 . S
C736 H761 0.950 . S
C737 C736 1.349 . S
C737 C753 1.349 . S
C738 C736 1.327 . S
C738 C757 1.429 . S
C738 H762 0.950 . S
C739 C756 1.574 . S
C739 C758 1.368 . S
C739 H763 0.949 . S
H740 C744 0.949 . S
C741 C742 1.349 . S
C741 C743 1.327 . S
C741 H764 0.950 . S
C742 C741 1.349 . S
C742 C754 1.349 . S
C743 C741 1.327 . S
C743 C759 1.429 . S
C743 H765 0.950 . S
C744 H740 0.949 . S
C744 C752 1.574 . S
C744 C760 1.368 . S
H745 C753 0.950 . S
H746 C751 0.950 . S
H747 C752 0.949 . S
H748 C754 0.950 . S
H749 C755 0.950 . S
H750 C756 0.949 . S
C751 H746 0.950 . S
C751 C753 1.327 . S
C751 C757 1.429 . S
C752 C744 1.574 . S
C752 H747 0.949 . S
C752 C758 1.368 . S
C753 C737 1.349 . S
C753 H745 0.950 . S
C753 C751 1.327 . S
C754 C742 1.349 . S
C754 H748 0.950 . S
C754 C755 1.327 . S
C755 H749 0.950 . S
C755 C754 1.327 . S
C755 C759 1.429 . S
C756 C739 1.574 . S
C756 H750 0.949 . S
C756 C760 1.368 . S
C757 C738 1.429 . S
C757 C751 1.429 . S
C757 C758 1.523 . S
C758 C739 1.368 . S
C758 C752 1.368 . S
C758 C757 1.523 . S
C759 C743 1.429 . S
C759 C755 1.429 . S
C759 C760 1.523 . S
C760 C744 1.368 . S
C760 C756 1.368 . S
C760 C759 1.523 . S
H761 C736 0.950 . S
H762 C738 0.950 . S
H763 C739 0.949 . S
H764 C741 0.950 . S
H765 C743 0.950 . S
C766 C767 1.349 . S
C766 C768 1.327 . S
C766 H791 0.950 . S
C767 C766 1.349 . S
C767 C783 1.349 . S
C768 C766 1.327 . S
C768 C787 1.429 . S
C768 H792 0.950 . S
C769 C786 1.574 . S
C769 C788 1.368 . S
C769 H793 0.949 . S
H770 C774 0.949 . S
C771 C772 1.349 . S
C771 C773 1.327 . S
C771 H794 0.950 . S
C772 C771 1.349 . S
C772 C784 1.349 . S
C773 C771 1.327 . S
C773 C789 1.429 . S
C773 H795 0.950 . S
C774 H770 0.949 . S
C774 C782 1.574 . S
C774 C790 1.368 . S
H775 C783 0.950 . S
H776 C781 0.950 . S
H777 C782 0.949 . S
H778 C784 0.950 . S
H779 C785 0.950 . S
H780 C786 0.949 . S
C781 H776 0.950 . S
C781 C783 1.327 . S
C781 C787 1.429 . S
C782 C774 1.574 . S
C782 H777 0.949 . S
C782 C788 1.368 . S
C783 C767 1.349 . S
C783 H775 0.950 . S
C783 C781 1.327 . S
C784 C772 1.349 . S
C784 H778 0.950 . S
C784 C785 1.327 . S
C785 H779 0.950 . S
C785 C784 1.327 . S
C785 C789 1.429 . S
C786 C769 1.574 . S
C786 H780 0.949 . S
C786 C790 1.368 . S
C787 C768 1.429 . S
C787 C781 1.429 . S
C787 C788 1.523 . S
C788 C769 1.368 . S
C788 C782 1.368 . S
C788 C787 1.523 . S
C789 C773 1.429 . S
C789 C785 1.429 . S
C789 C790 1.523 . S
C790 C774 1.368 . S
C790 C786 1.368 . S
C790 C789 1.523 . S
H791 C766 0.950 . S
H792 C768 0.950 . S
H793 C769 0.949 . S
H794 C771 0.950 . S
H795 C773 0.950 . S
C796 C797 1.349 . S
C796 C798 1.327 . S
C796 H821 0.950 . S
C797 C796 1.349 . S
C797 C813 1.349 . S
C798 C796 1.327 . S
C798 C817 1.429 . S
C798 H822 0.950 . S
C799 C816 1.574 . S
C799 C818 1.368 . S
C799 H823 0.949 . S
H800 C804 0.949 . S
C801 C802 1.349 . S
C801 C803 1.327 . S
C801 H824 0.950 . S
C802 C801 1.349 . S
C802 C814 1.349 . S
C803 C801 1.327 . S
C803 C819 1.429 . S
C803 H825 0.950 . S
C804 H800 0.949 . S
C804 C812 1.574 . S
C804 C820 1.368 . S
H805 C813 0.950 . S
H806 C811 0.950 . S
H807 C812 0.949 . S
H808 C814 0.950 . S
H809 C815 0.950 . S
H810 C816 0.949 . S
C811 H806 0.950 . S
C811 C813 1.327 . S
C811 C817 1.429 . S
C812 C804 1.574 . S
C812 H807 0.949 . S
C812 C818 1.368 . S
C813 C797 1.349 . S
C813 H805 0.950 . S
C813 C811 1.327 . S
C814 C802 1.349 . S
C814 H808 0.950 . S
C814 C815 1.327 . S
C815 H809 0.950 . S
C815 C814 1.327 . S
C815 C819 1.429 . S
C816 C799 1.574 . S
C816 H810 0.949 . S
C816 C820 1.368 . S
C817 C798 1.429 . S
C817 C811 1.429 . S
C817 C818 1.523 . S
C818 C799 1.368 . S
C818 C812 1.368 . S
C818 C817 1.523 . S
C819 C803 1.429 . S
C819 C815 1.429 . S
C819 C820 1.523 . S
C820 C804 1.368 . S
C820 C816 1.368 . S
C820 C819 1.523 . S
H821 C796 0.950 . S
H822 C798 0.950 . S
H823 C799 0.949 . S
H824 C801 0.950 . S
H825 C803 0.950 . S
C826 C827 1.349 . S
C826 C828 1.327 . S
C826 H851 0.950 . S
C827 C826 1.349 . S
C827 C843 1.349 . S
C828 C826 1.327 . S
C828 C847 1.429 . S
C828 H852 0.950 . S
C829 C846 1.574 . S
C829 C848 1.368 . S
C829 H853 0.949 . S
H830 C834 0.949 . S
C831 C832 1.349 . S
C831 C833 1.327 . S
C831 H854 0.950 . S
C832 C831 1.349 . S
C832 C844 1.349 . S
C833 C831 1.327 . S
C833 C849 1.429 . S
C833 H855 0.950 . S
C834 H830 0.949 . S
C834 C842 1.574 . S
C834 C850 1.368 . S
H835 C843 0.950 . S
H836 C841 0.950 . S
H837 C842 0.949 . S
H838 C844 0.950 . S
H839 C845 0.950 . S
H840 C846 0.949 . S
C841 H836 0.950 . S
C841 C843 1.327 . S
C841 C847 1.429 . S
C842 C834 1.574 . S
C842 H837 0.949 . S
C842 C848 1.368 . S
C843 C827 1.349 . S
C843 H835 0.950 . S
C843 C841 1.327 . S
C844 C832 1.349 . S
C844 H838 0.950 . S
C844 C845 1.327 . S
C845 H839 0.950 . S
C845 C844 1.327 . S
C845 C849 1.429 . S
C846 C829 1.574 . S
C846 H840 0.949 . S
C846 C850 1.368 . S
C847 C828 1.429 . S
C847 C841 1.429 . S
C847 C848 1.523 . S
C848 C829 1.368 . S
C848 C842 1.368 . S
C848 C847 1.523 . S
C849 C833 1.429 . S
C849 C845 1.429 . S
C849 C850 1.523 . S
C850 C834 1.368 . S
C850 C846 1.368 . S
C850 C849 1.523 . S
H851 C826 0.950 . S
H852 C828 0.950 . S
H853 C829 0.949 . S
H854 C831 0.950 . S
H855 C833 0.950 . S
C856 C857 1.349 . S
C856 C858 1.327 . S
C856 H881 0.950 . S
C857 C856 1.349 . S
C857 C873 1.349 . S
C858 C856 1.327 . S
C858 C877 1.429 . S
C858 H882 0.950 . S
C859 C876 1.574 . S
C859 C878 1.368 . S
C859 H883 0.949 . S
H860 C864 0.949 . S
C861 C862 1.349 . S
C861 C863 1.327 . S
C861 H884 0.950 . S
C862 C861 1.349 . S
C862 C874 1.349 . S
C863 C861 1.327 . S
C863 C879 1.429 . S
C863 H885 0.950 . S
C864 H860 0.949 . S
C864 C872 1.574 . S
C864 C880 1.368 . S
H865 C873 0.950 . S
H866 C871 0.950 . S
H867 C872 0.949 . S
H868 C874 0.950 . S
H869 C875 0.950 . S
H870 C876 0.949 . S
C871 H866 0.950 . S
C871 C873 1.327 . S
C871 C877 1.429 . S
C872 C864 1.574 . S
C872 H867 0.949 . S
C872 C878 1.368 . S
C873 C857 1.349 . S
C873 H865 0.950 . S
C873 C871 1.327 . S
C874 C862 1.349 . S
C874 H868 0.950 . S
C874 C875 1.327 . S
C875 H869 0.950 . S
C875 C874 1.327 . S
C875 C879 1.429 . S
C876 C859 1.574 . S
C876 H870 0.949 . S
C876 C880 1.368 . S
C877 C858 1.429 . S
C877 C871 1.429 . S
C877 C878 1.523 . S
C878 C859 1.368 . S
C878 C872 1.368 . S
C878 C877 1.523 . S
C879 C863 1.429 . S
C879 C875 1.429 . S
C879 C880 1.523 . S
C880 C864 1.368 . S
C880 C876 1.368 . S
C880 C879 1.523 . S
H881 C856 0.950 . S
H882 C858 0.950 . S
H883 C859 0.949 . S
H884 C861 0.950 . S
H885 C863 0.950 . S
C886 C887 1.349 . S
C886 C888 1.327 . S
C886 H911 0.950 . S
C887 C886 1.349 . S
C887 C903 1.349 . S
C888 C886 1.327 . S
C888 C907 1.429 . S
C888 H912 0.950 . S
C889 C906 1.574 . S
C889 C908 1.368 . S
C889 H913 0.949 . S
H890 C894 0.949 . S
C891 C892 1.349 . S
C891 C893 1.327 . S
C891 H914 0.950 . S
C892 C891 1.349 . S
C892 C904 1.349 . S
C893 C891 1.327 . S
C893 C909 1.429 . S
C893 H915 0.950 . S
C894 H890 0.949 . S
C894 C902 1.574 . S
C894 C910 1.368 . S
H895 C903 0.950 . S
H896 C901 0.950 . S
H897 C902 0.949 . S
H898 C904 0.950 . S
H899 C905 0.950 . S
H900 C906 0.949 . S
C901 H896 0.950 . S
C901 C903 1.327 . S
C901 C907 1.429 . S
C902 C894 1.574 . S
C902 H897 0.949 . S
C902 C908 1.368 . S
C903 C887 1.349 . S
C903 H895 0.950 . S
C903 C901 1.327 . S
C904 C892 1.349 . S
C904 H898 0.950 . S
C904 C905 1.327 . S
C905 H899 0.950 . S
C905 C904 1.327 . S
C905 C909 1.429 . S
C906 C889 1.574 . S
C906 H900 0.949 . S
C906 C910 1.368 . S
C907 C888 1.429 . S
C907 C901 1.429 . S
C907 C908 1.523 . S
C908 C889 1.368 . S
C908 C902 1.368 . S
C908 C907 1.523 . S
C909 C893 1.429 . S
C909 C905 1.429 . S
C909 C910 1.523 . S
C910 C894 1.368 . S
C910 C906 1.368 . S
C910 C909 1.523 . S
H911 C886 0.950 . S
H912 C888 0.950 . S
H913 C889 0.949 . S
H914 C891 0.950 . S
H915 C893 0.950 . S
C916 C917 1.349 . S
C916 C918 1.327 . S
C916 H941 0.950 . S
C917 C916 1.349 . S
C917 C933 1.349 . S
C918 C916 1.327 . S
C918 C937 1.429 . S
C918 H942 0.950 . S
C919 C936 1.574 . S
C919 C938 1.368 . S
C919 H943 0.949 . S
H920 C924 0.949 . S
C921 C922 1.349 . S
C921 C923 1.327 . S
C921 H944 0.950 . S
C922 C921 1.349 . S
C922 C934 1.349 . S
C923 C921 1.327 . S
C923 C939 1.429 . S
C923 H945 0.950 . S
C924 H920 0.949 . S
C924 C932 1.574 . S
C924 C940 1.368 . S
H925 C933 0.950 . S
H926 C931 0.950 . S
H927 C932 0.949 . S
H928 C934 0.950 . S
H929 C935 0.950 . S
H930 C936 0.949 . S
C931 H926 0.950 . S
C931 C933 1.327 . S
C931 C937 1.429 . S
C932 C924 1.574 . S
C932 H927 0.949 . S
C932 C938 1.368 . S
C933 C917 1.349 . S
C933 H925 0.950 . S
C933 C931 1.327 . S
C934 C922 1.349 . S
C934 H928 0.950 . S
C934 C935 1.327 . S
C935 H929 0.950 . S
C935 C934 1.327 . S
C935 C939 1.429 . S
C936 C919 1.574 . S
C936 H930 0.949 . S
C936 C940 1.368 . S
C937 C918 1.429 . S
C937 C931 1.429 . S
C937 C938 1.523 . S
C938 C919 1.368 . S
C938 C932 1.368 . S
C938 C937 1.523 . S
C939 C923 1.429 . S
C939 C935 1.429 . S
C939 C940 1.523 . S
C940 C924 1.368 . S
C940 C936 1.368 . S
C940 C939 1.523 . S
H941 C916 0.950 . S
H942 C918 0.950 . S
H943 C919 0.949 . S
H944 C921 0.950 . S
H945 C923 0.950 . S
C946 C947 1.349 . S
C946 C948 1.327 . S
C946 H971 0.950 . S
C947 C946 1.349 . S
C947 C963 1.349 . S
C948 C946 1.327 . S
C948 C967 1.429 . S
C948 H972 0.950 . S
C949 C966 1.574 . S
C949 C968 1.368 . S
C949 H973 0.949 . S
H950 C954 0.949 . S
C951 C952 1.349 . S
C951 C953 1.327 . S
C951 H974 0.950 . S
C952 C951 1.349 . S
C952 C964 1.349 . S
C953 C951 1.327 . S
C953 C969 1.429 . S
C953 H975 0.950 . S
C954 H950 0.949 . S
C954 C962 1.574 . S
C954 C970 1.368 . S
H955 C963 0.950 . S
H956 C961 0.950 . S
H957 C962 0.949 . S
H958 C964 0.950 . S
H959 C965 0.950 . S
H960 C966 0.949 . S
C961 H956 0.950 . S
C961 C963 1.327 . S
C961 C967 1.429 . S
C962 C954 1.574 . S
C962 H957 0.949 . S
C962 C968 1.368 . S
C963 C947 1.349 . S
C963 H955 0.950 . S
C963 C961 1.327 . S
C964 C952 1.349 . S
C964 H958 0.950 . S
C964 C965 1.327 . S
C965 H959 0.950 . S
C965 C964 1.327 . S
C965 C969 1.429 . S
C966 C949 1.574 . S
C966 H960 0.949 . S
C966 C970 1.368 . S
C967 C948 1.429 . S
C967 C961 1.429 . S
C967 C968 1.523 . S
C968 C949 1.368 . S
C968 C962 1.368 . S
C968 C967 1.523 . S
C969 C953 1.429 . S
C969 C965 1.429 . S
C969 C970 1.523 . S
C970 C954 1.368 . S
C970 C966 1.368 . S
C970 C969 1.523 . S
H971 C946 0.950 . S
H972 C948 0.950 . S
H973 C949 0.949 . S
H974 C951 0.950 . S
H975 C953 0.950 . S
C976 C977 1.349 . S
C976 C978 1.327 . S
C976 H1001 0.950 . S
C977 C976 1.349 . S
C977 C993 1.349 . S
C978 C976 1.327 . S
C978 C997 1.429 . S
C978 H1002 0.950 . S
C979 C996 1.574 . S
C979 C998 1.368 . S
C979 H1003 0.949 . S
H980 C984 0.949 . S
C981 C982 1.349 . S
C981 C983 1.327 . S
C981 H1004 0.950 . S
C982 C981 1.349 . S
C982 C994 1.349 . S
C983 C981 1.327 . S
C983 C999 1.429 . S
C983 H1005 0.950 . S
C984 H980 0.949 . S
C984 C992 1.574 . S
C984 C1000 1.368 . S
H985 C993 0.950 . S
H986 C991 0.950 . S
H987 C992 0.949 . S
H988 C994 0.950 . S
H989 C995 0.950 . S
H990 C996 0.949 . S
C991 H986 0.950 . S
C991 C993 1.327 . S
C991 C997 1.429 . S
C992 C984 1.574 . S
C992 H987 0.949 . S
C992 C998 1.368 . S
C993 C977 1.349 . S
C993 H985 0.950 . S
C993 C991 1.327 . S
C994 C982 1.349 . S
C994 H988 0.950 . S
C994 C995 1.327 . S
C995 H989 0.950 . S
C995 C994 1.327 . S
C995 C999 1.429 . S
C996 C979 1.574 . S
C996 H990 0.949 . S
C996 C1000 1.368 . S
C997 C978 1.429 . S
C997 C991 1.429 . S
C997 C998 1.523 . S
C998 C979 1.368 . S
C998 C992 1.368 . S
C998 C997 1.523 . S
C999 C983 1.429 . S
C999 C995 1.429 . S
C999 C1000 1.523 . S
C1000 C984 1.368 . S
C1000 C996 1.368 . S
C1000 C999 1.523 . S
H1001 C976 0.950 . S
H1002 C978 0.950 . S
H1003 C979 0.949 . S
H1004 C981 0.950 . S
H1005 C983 0.950 . S
C1006 C1007 1.349 . S
C1006 C1008 1.327 . S
C1006 H1031 0.911 1_556 S
C1007 C1006 1.349 . S
C1007 C1023 1.349 . S
C1008 C1006 1.327 . S
C1008 C1027 1.429 . S
C1008 H1032 0.950 . S
C1009 C1026 1.574 . S
C1009 C1028 1.368 . S
C1009 H1033 0.949 . S
H1010 C1014 0.949 . S
C1011 C1012 1.349 . S
C1011 C1013 1.327 . S
C1011 H1034 0.950 . S
C1012 C1011 1.349 . S
C1012 C1024 1.349 . S
C1013 C1011 1.327 . S
C1013 C1029 1.429 . S
C1013 H1035 0.950 . S
C1014 H1010 0.949 . S
C1014 C1022 1.574 . S
C1014 C1030 1.368 . S
H1015 C1023 0.950 . S
H1016 C1021 0.950 . S
H1017 C1022 0.949 . S
H1018 C1024 0.950 . S
H1019 C1025 0.950 . S
H1020 C1026 0.949 . S
C1021 H1016 0.950 . S
C1021 C1023 1.327 . S
C1021 C1027 1.429 . S
C1022 C1014 1.574 . S
C1022 H1017 0.949 . S
C1022 C1028 1.368 . S
C1023 C1007 1.349 . S
C1023 H1015 0.950 . S
C1023 C1021 1.327 . S
C1024 C1012 1.349 . S
C1024 H1018 0.950 . S
C1024 C1025 1.327 . S
C1025 H1019 0.950 . S
C1025 C1024 1.327 . S
C1025 C1029 1.429 . S
C1026 C1009 1.574 . S
C1026 H1020 0.949 . S
C1026 C1030 1.368 . S
C1027 C1008 1.429 . S
C1027 C1021 1.429 . S
C1027 C1028 1.523 . S
C1028 C1009 1.368 . S
C1028 C1022 1.368 . S
C1028 C1027 1.523 . S
C1029 C1013 1.429 . S
C1029 C1025 1.429 . S
C1029 C1030 1.523 . S
C1030 C1014 1.368 . S
C1030 C1026 1.368 . S
C1030 C1029 1.523 . S
H1031 C1006 0.911 1_554 S
H1032 C1008 0.950 . S
H1033 C1009 0.949 . S
H1034 C1011 0.950 . S
H1035 C1013 0.950 . S
C1036 C1037 1.349 . S
C1036 C1038 1.327 . S
C1036 H1061 0.950 . S
C1037 C1036 1.349 . S
C1037 C1053 1.349 . S
C1038 C1036 1.327 . S
C1038 C1057 1.429 . S
C1038 H1062 0.950 . S
C1039 C1056 1.574 . S
C1039 C1058 1.368 . S
C1039 H1063 0.949 . S
H1040 C1044 0.949 . S
C1041 C1042 1.349 . S
C1041 C1043 1.327 . S
C1041 H1064 0.950 . S
C1042 C1041 1.349 . S
C1042 C1054 1.349 . S
C1043 C1041 1.327 . S
C1043 C1059 1.429 . S
C1043 H1065 0.950 . S
C1044 H1040 0.949 . S
C1044 C1052 1.574 . S
C1044 C1060 1.368 . S
H1045 C1053 0.950 . S
H1046 C1051 0.950 . S
H1047 C1052 0.949 . S
H1048 C1054 0.950 . S
H1049 C1055 0.950 . S
H1050 C1056 0.949 . S
C1051 H1046 0.950 . S
C1051 C1053 1.327 . S
C1051 C1057 1.429 . S
C1052 C1044 1.574 . S
C1052 H1047 0.949 . S
C1052 C1058 1.368 . S
C1053 C1037 1.349 . S
C1053 H1045 0.950 . S
C1053 C1051 1.327 . S
C1054 C1042 1.349 . S
C1054 H1048 0.950 . S
C1054 C1055 1.327 . S
C1055 H1049 0.950 . S
C1055 C1054 1.327 . S
C1055 C1059 1.429 . S
C1056 C1039 1.574 . S
C1056 H1050 0.949 . S
C1056 C1060 1.368 . S
C1057 C1038 1.429 . S
C1057 C1051 1.429 . S
C1057 C1058 1.523 . S
C1058 C1039 1.368 . S
C1058 C1052 1.368 . S
C1058 C1057 1.523 . S
C1059 C1043 1.429 . S
C1059 C1055 1.429 . S
C1059 C1060 1.523 . S
C1060 C1044 1.368 . S
C1060 C1056 1.368 . S
C1060 C1059 1.523 . S
H1061 C1036 0.950 . S
H1062 C1038 0.950 . S
H1063 C1039 0.949 . S
H1064 C1041 0.950 . S
H1065 C1043 0.950 . S
C1066 C1067 1.349 . S
C1066 C1068 1.327 . S
C1066 H1091 0.950 . S
C1067 C1066 1.349 . S
C1067 C1083 1.349 . S
C1068 C1066 1.327 . S
C1068 C1087 1.429 . S
C1068 H1092 0.950 . S
C1069 C1086 1.574 . S
C1069 C1088 1.368 . S
C1069 H1093 0.949 . S
H1070 C1074 0.949 . S
C1071 C1072 1.349 . S
C1071 C1073 1.327 . S
C1071 H1094 0.950 . S
C1072 C1071 1.349 . S
C1072 C1084 1.349 . S
C1073 C1071 1.327 . S
C1073 C1089 1.429 . S
C1073 H1095 0.950 . S
C1074 H1070 0.949 . S
C1074 C1082 1.574 . S
C1074 C1090 1.368 . S
H1075 C1083 0.950 . S
H1076 C1081 0.950 . S
H1077 C1082 0.949 . S
H1078 C1084 0.950 . S
H1079 C1085 0.950 . S
H1080 C1086 0.949 . S
C1081 H1076 0.950 . S
C1081 C1083 1.327 . S
C1081 C1087 1.429 . S
C1082 C1074 1.574 . S
C1082 H1077 0.949 . S
C1082 C1088 1.368 . S
C1083 C1067 1.349 . S
C1083 H1075 0.950 . S
C1083 C1081 1.327 . S
C1084 C1072 1.349 . S
C1084 H1078 0.950 . S
C1084 C1085 1.327 . S
C1085 H1079 0.950 . S
C1085 C1084 1.327 . S
C1085 C1089 1.429 . S
C1086 C1069 1.574 . S
C1086 H1080 0.949 . S
C1086 C1090 1.368 . S
C1087 C1068 1.429 . S
C1087 C1081 1.429 . S
C1087 C1088 1.523 . S
C1088 C1069 1.368 . S
C1088 C1082 1.368 . S
C1088 C1087 1.523 . S
C1089 C1073 1.429 . S
C1089 C1085 1.429 . S
C1089 C1090 1.523 . S
C1090 C1074 1.368 . S
C1090 C1086 1.368 . S
C1090 C1089 1.523 . S
H1091 C1066 0.950 . S
H1092 C1068 0.950 . S
H1093 C1069 0.949 . S
H1094 C1071 0.950 . S
H1095 C1073 0.950 . S
C1096 C1097 1.349 . S
C1096 C1098 1.327 . S
C1096 H1121 0.950 . S
C1097 C1096 1.349 . S
C1097 C1113 1.349 . S
C1098 C1096 1.327 . S
C1098 C1117 1.429 . S
C1098 H1122 0.950 . S
C1099 C1116 1.574 . S
C1099 C1118 1.368 . S
C1099 H1123 0.949 . S
H1100 C1104 0.949 . S
C1101 C1102 1.349 . S
C1101 C1103 1.327 . S
C1101 H1124 0.950 . S
C1102 C1101 1.349 . S
C1102 C1114 1.349 . S
C1103 C1101 1.327 . S
C1103 C1119 1.429 . S
C1103 H1125 0.950 . S
C1104 H1100 0.949 . S
C1104 C1112 1.574 . S
C1104 C1120 1.368 . S
H1105 C1113 0.950 . S
H1106 C1111 0.950 . S
H1107 C1112 0.949 . S
H1108 C1114 0.950 . S
H1109 C1115 0.950 . S
H1110 C1116 0.949 . S
C1111 H1106 0.950 . S
C1111 C1113 1.327 . S
C1111 C1117 1.429 . S
C1112 C1104 1.574 . S
C1112 H1107 0.949 . S
C1112 C1118 1.368 . S
C1113 C1097 1.349 . S
C1113 H1105 0.950 . S
C1113 C1111 1.327 . S
C1114 C1102 1.349 . S
C1114 H1108 0.950 . S
C1114 C1115 1.327 . S
C1115 H1109 0.950 . S
C1115 C1114 1.327 . S
C1115 C1119 1.429 . S
C1116 C1099 1.574 . S
C1116 H1110 0.949 . S
C1116 C1120 1.368 . S
C1117 C1098 1.429 . S
C1117 C1111 1.429 . S
C1117 C1118 1.523 . S
C1118 C1099 1.368 . S
C1118 C1112 1.368 . S
C1118 C1117 1.523 . S
C1119 C1103 1.429 . S
C1119 C1115 1.429 . S
C1119 C1120 1.523 . S
C1120 C1104 1.368 . S
C1120 C1116 1.368 . S
C1120 C1119 1.523 . S
H1121 C1096 0.950 . S
H1122 C1098 0.950 . S
H1123 C1099 0.949 . S
H1124 C1101 0.950 . S
H1125 C1103 0.950 . S
C1126 C1127 1.349 . S
C1126 C1128 1.327 . S
C1126 H1151 0.950 . S
C1127 C1126 1.349 . S
C1127 C1143 1.349 . S
C1128 C1126 1.327 . S
C1128 C1147 1.429 . S
C1128 H1152 0.950 . S
C1129 C1146 1.574 . S
C1129 C1148 1.368 . S
C1129 H1153 0.949 . S
H1130 C1134 0.949 . S
C1131 C1132 1.349 . S
C1131 C1133 1.327 . S
C1131 H1154 0.950 . S
C1132 C1131 1.349 . S
C1132 C1144 1.349 . S
C1133 C1131 1.327 . S
C1133 C1149 1.429 . S
C1133 H1155 0.950 . S
C1134 H1130 0.949 . S
C1134 C1142 1.574 . S
C1134 C1150 1.368 . S
H1135 C1143 0.950 . S
H1136 C1141 0.950 . S
H1137 C1142 0.949 . S
H1138 C1144 0.950 . S
H1139 C1145 0.950 . S
H1140 C1146 0.949 . S
C1141 H1136 0.950 . S
C1141 C1143 1.327 . S
C1141 C1147 1.429 . S
C1142 C1134 1.574 . S
C1142 H1137 0.949 . S
C1142 C1148 1.368 . S
C1143 C1127 1.349 . S
C1143 H1135 0.950 . S
C1143 C1141 1.327 . S
C1144 C1132 1.349 . S
C1144 H1138 0.950 . S
C1144 C1145 1.327 . S
C1145 H1139 0.950 . S
C1145 C1144 1.327 . S
C1145 C1149 1.429 . S
C1146 C1129 1.574 . S
C1146 H1140 0.949 . S
C1146 C1150 1.368 . S
C1147 C1128 1.429 . S
C1147 C1141 1.429 . S
C1147 C1148 1.523 . S
C1148 C1129 1.368 . S
C1148 C1142 1.368 . S
C1148 C1147 1.523 . S
C1149 C1133 1.429 . S
C1149 C1145 1.429 . S
C1149 C1150 1.523 . S
C1150 C1134 1.368 . S
C1150 C1146 1.368 . S
C1150 C1149 1.523 . S
H1151 C1126 0.950 . S
H1152 C1128 0.950 . S
H1153 C1129 0.949 . S
H1154 C1131 0.950 . S
H1155 C1133 0.950 . S
C1156 C1157 1.349 . S
C1156 C1158 1.327 . S
C1156 H1181 0.950 . S
C1157 C1156 1.349 . S
C1157 C1173 1.349 . S
C1158 C1156 1.327 . S
C1158 C1177 1.429 . S
C1158 H1182 0.950 . S
C1159 C1176 1.574 . S
C1159 C1178 1.368 . S
C1159 H1183 0.949 . S
H1160 C1164 0.949 . S
C1161 C1162 1.349 . S
C1161 C1163 1.327 . S
C1161 H1184 0.950 . S
C1162 C1161 1.349 . S
C1162 C1174 1.349 . S
C1163 C1161 1.327 . S
C1163 C1179 1.429 . S
C1163 H1185 0.950 . S
C1164 H1160 0.949 . S
C1164 C1172 1.574 . S
C1164 C1180 1.368 . S
H1165 C1173 0.950 . S
H1166 C1171 0.950 . S
H1167 C1172 0.949 . S
H1168 C1174 0.950 . S
H1169 C1175 0.950 . S
H1170 C1176 0.949 . S
C1171 H1166 0.950 . S
C1171 C1173 1.327 . S
C1171 C1177 1.429 . S
C1172 C1164 1.574 . S
C1172 H1167 0.949 . S
C1172 C1178 1.368 . S
C1173 C1157 1.349 . S
C1173 H1165 0.950 . S
C1173 C1171 1.327 . S
C1174 C1162 1.349 . S
C1174 H1168 0.950 . S
C1174 C1175 1.327 . S
C1175 H1169 0.950 . S
C1175 C1174 1.327 . S
C1175 C1179 1.429 . S
C1176 C1159 1.574 . S
C1176 H1170 0.949 . S
C1176 C1180 1.368 . S
C1177 C1158 1.429 . S
C1177 C1171 1.429 . S
C1177 C1178 1.523 . S
C1178 C1159 1.368 . S
C1178 C1172 1.368 . S
C1178 C1177 1.523 . S
C1179 C1163 1.429 . S
C1179 C1175 1.429 . S
C1179 C1180 1.523 . S
C1180 C1164 1.368 . S
C1180 C1176 1.368 . S
C1180 C1179 1.523 . S
H1181 C1156 0.950 . S
H1182 C1158 0.950 . S
H1183 C1159 0.949 . S
H1184 C1161 0.950 . S
H1185 C1163 0.950 . S
C1186 C1187 1.349 . S
C1186 C1188 1.327 . S
C1186 H1211 0.950 . S
C1187 C1186 1.349 . S
C1187 C1203 1.349 . S
C1188 C1186 1.327 . S
C1188 C1207 1.429 . S
C1188 H1212 0.950 . S
C1189 C1206 1.574 . S
C1189 C1208 1.368 . S
C1189 H1213 0.949 . S
H1190 C1194 0.949 . S
C1191 C1192 1.349 . S
C1191 C1193 1.327 . S
C1191 H1214 0.950 . S
C1192 C1191 1.349 . S
C1192 C1204 1.349 . S
C1193 C1191 1.327 . S
C1193 C1209 1.429 . S
C1193 H1215 0.950 . S
C1194 H1190 0.949 . S
C1194 C1202 1.574 . S
C1194 C1210 1.368 . S
H1195 C1203 0.950 . S
H1196 C1201 0.950 . S
H1197 C1202 0.949 . S
H1198 C1204 0.950 . S
H1199 C1205 0.950 . S
H1200 C1206 0.949 . S
C1201 H1196 0.950 . S
C1201 C1203 1.327 . S
C1201 C1207 1.429 . S
C1202 C1194 1.574 . S
C1202 H1197 0.949 . S
C1202 C1208 1.368 . S
C1203 C1187 1.349 . S
C1203 H1195 0.950 . S
C1203 C1201 1.327 . S
C1204 C1192 1.349 . S
C1204 H1198 0.950 . S
C1204 C1205 1.327 . S
C1205 H1199 0.950 . S
C1205 C1204 1.327 . S
C1205 C1209 1.429 . S
C1206 C1189 1.574 . S
C1206 H1200 0.949 . S
C1206 C1210 1.368 . S
C1207 C1188 1.429 . S
C1207 C1201 1.429 . S
C1207 C1208 1.523 . S
C1208 C1189 1.368 . S
C1208 C1202 1.368 . S
C1208 C1207 1.523 . S
C1209 C1193 1.429 . S
C1209 C1205 1.429 . S
C1209 C1210 1.523 . S
C1210 C1194 1.368 . S
C1210 C1206 1.368 . S
C1210 C1209 1.523 . S
H1211 C1186 0.950 . S
H1212 C1188 0.950 . S
H1213 C1189 0.949 . S
H1214 C1191 0.950 . S
H1215 C1193 0.950 . S
C1216 C1217 1.349 . S
C1216 C1218 1.327 . S
C1216 H1241 0.950 . S
C1217 C1216 1.349 . S
C1217 C1233 1.349 . S
C1218 C1216 1.327 . S
C1218 C1237 1.429 . S
C1218 H1242 0.950 . S
C1219 C1236 1.574 . S
C1219 C1238 1.368 . S
C1219 H1243 0.949 . S
H1220 C1224 0.949 . S
C1221 C1222 1.349 . S
C1221 C1223 1.327 . S
C1221 H1244 0.950 . S
C1222 C1221 1.349 . S
C1222 C1234 1.349 . S
C1223 C1221 1.327 . S
C1223 C1239 1.429 . S
C1223 H1245 0.950 . S
C1224 H1220 0.949 . S
C1224 C1232 1.574 . S
C1224 C1240 1.368 . S
H1225 C1233 0.950 . S
H1226 C1231 0.950 . S
H1227 C1232 0.949 . S
H1228 C1234 0.950 . S
H1229 C1235 0.950 . S
H1230 C1236 0.949 . S
C1231 H1226 0.950 . S
C1231 C1233 1.327 . S
C1231 C1237 1.429 . S
C1232 C1224 1.574 . S
C1232 H1227 0.949 . S
C1232 C1238 1.368 . S
C1233 C1217 1.349 . S
C1233 H1225 0.950 . S
C1233 C1231 1.327 . S
C1234 C1222 1.349 . S
C1234 H1228 0.950 . S
C1234 C1235 1.327 . S
C1235 H1229 0.950 . S
C1235 C1234 1.327 . S
C1235 C1239 1.429 . S
C1236 C1219 1.574 . S
C1236 H1230 0.949 . S
C1236 C1240 1.368 . S
C1237 C1218 1.429 . S
C1237 C1231 1.429 . S
C1237 C1238 1.523 . S
C1238 C1219 1.368 . S
C1238 C1232 1.368 . S
C1238 C1237 1.523 . S
C1239 C1223 1.429 . S
C1239 C1235 1.429 . S
C1239 C1240 1.523 . S
C1240 C1224 1.368 . S
C1240 C1236 1.368 . S
C1240 C1239 1.523 . S
H1241 C1216 0.950 . S
H1242 C1218 0.950 . S
H1243 C1219 0.949 . S
H1244 C1221 0.950 . S
H1245 C1223 0.950 . S
C1246 C1247 1.349 . S
C1246 C1248 1.327 . S
C1246 H1271 0.950 . S
C1247 C1246 1.349 . S
C1247 C1263 1.349 . S
C1248 C1246 1.327 . S
C1248 C1267 1.429 . S
C1248 H1272 0.950 . S
C1249 C1266 1.574 . S
C1249 C1268 1.368 . S
C1249 H1273 0.949 . S
H1250 C1254 0.949 . S
C1251 C1252 1.349 . S
C1251 C1253 1.327 . S
C1251 H1274 0.950 . S
C1252 C1251 1.349 . S
C1252 C1264 1.349 . S
C1253 C1251 1.327 . S
C1253 C1269 1.429 . S
C1253 H1275 0.950 . S
C1254 H1250 0.949 . S
C1254 C1262 1.574 . S
C1254 C1270 1.368 . S
H1255 C1263 0.950 . S
H1256 C1261 0.950 . S
H1257 C1262 0.949 . S
H1258 C1264 0.950 . S
H1259 C1265 0.950 . S
H1260 C1266 0.949 . S
C1261 H1256 0.950 . S
C1261 C1263 1.327 . S
C1261 C1267 1.429 . S
C1262 C1254 1.574 . S
C1262 H1257 0.949 . S
C1262 C1268 1.368 . S
C1263 C1247 1.349 . S
C1263 H1255 0.950 . S
C1263 C1261 1.327 . S
C1264 C1252 1.349 . S
C1264 H1258 0.950 . S
C1264 C1265 1.327 . S
C1265 H1259 0.950 . S
C1265 C1264 1.327 . S
C1265 C1269 1.429 . S
C1266 C1249 1.574 . S
C1266 H1260 0.949 . S
C1266 C1270 1.368 . S
C1267 C1248 1.429 . S
C1267 C1261 1.429 . S
C1267 C1268 1.523 . S
C1268 C1249 1.368 . S
C1268 C1262 1.368 . S
C1268 C1267 1.523 . S
C1269 C1253 1.429 . S
C1269 C1265 1.429 . S
C1269 C1270 1.523 . S
C1270 C1254 1.368 . S
C1270 C1266 1.368 . S
C1270 C1269 1.523 . S
H1271 C1246 0.950 . S
H1272 C1248 0.950 . S
H1273 C1249 0.949 . S
H1274 C1251 0.950 . S
H1275 C1253 0.950 . S
C1276 C1277 1.349 . S
C1276 C1278 1.327 . S
C1276 H1301 0.950 . S
C1277 C1276 1.349 . S
C1277 C1293 1.349 . S
C1278 C1276 1.327 . S
C1278 C1297 1.429 . S
C1278 H1302 0.950 . S
C1279 C1296 1.574 . S
C1279 C1298 1.368 . S
C1279 H1303 0.949 . S
H1280 C1284 0.949 . S
C1281 C1282 1.349 . S
C1281 C1283 1.327 . S
C1281 H1304 0.950 . S
C1282 C1281 1.349 . S
C1282 C1294 1.349 . S
C1283 C1281 1.327 . S
C1283 C1299 1.429 . S
C1283 H1305 0.950 . S
C1284 H1280 0.949 . S
C1284 C1292 1.574 . S
C1284 C1300 1.368 . S
H1285 C1293 0.950 . S
H1286 C1291 0.950 . S
H1287 C1292 0.949 . S
H1288 C1294 0.950 . S
H1289 C1295 0.950 . S
H1290 C1296 0.949 . S
C1291 H1286 0.950 . S
C1291 C1293 1.327 . S
C1291 C1297 1.429 . S
C1292 C1284 1.574 . S
C1292 H1287 0.949 . S
C1292 C1298 1.368 . S
C1293 C1277 1.349 . S
C1293 H1285 0.950 . S
C1293 C1291 1.327 . S
C1294 C1282 1.349 . S
C1294 H1288 0.950 . S
C1294 C1295 1.327 . S
C1295 H1289 0.950 . S
C1295 C1294 1.327 . S
C1295 C1299 1.429 . S
C1296 C1279 1.574 . S
C1296 H1290 0.949 . S
C1296 C1300 1.368 . S
C1297 C1278 1.429 . S
C1297 C1291 1.429 . S
C1297 C1298 1.523 . S
C1298 C1279 1.368 . S
C1298 C1292 1.368 . S
C1298 C1297 1.523 . S
C1299 C1283 1.429 . S
C1299 C1295 1.429 . S
C1299 C1300 1.523 . S
C1300 C1284 1.368 . S
C1300 C1296 1.368 . S
C1300 C1299 1.523 . S
H1301 C1276 0.950 . S
H1302 C1278 0.950 . S
H1303 C1279 0.949 . S
H1304 C1281 0.950 . S
H1305 C1283 0.950 . S
C1306 C1307 1.349 . S
C1306 C1308 1.327 . S
C1306 H1331 0.950 . S
C1307 C1306 1.349 . S
C1307 C1323 1.349 . S
C1308 C1306 1.327 . S
C1308 C1327 1.429 . S
C1308 H1332 0.950 . S
C1309 C1326 1.574 . S
C1309 C1328 1.368 . S
C1309 H1333 0.949 . S
H1310 C1314 0.949 . S
C1311 C1312 1.349 . S
C1311 C1313 1.327 . S
C1311 H1334 0.950 . S
C1312 C1311 1.349 . S
C1312 C1324 1.349 . S
C1313 C1311 1.327 . S
C1313 C1329 1.429 . S
C1313 H1335 0.950 . S
C1314 H1310 0.949 . S
C1314 C1322 1.574 . S
C1314 C1330 1.368 . S
H1315 C1323 0.950 . S
H1316 C1321 0.950 . S
H1317 C1322 0.949 . S
H1318 C1324 0.950 . S
H1319 C1325 0.950 . S
H1320 C1326 0.949 . S
C1321 H1316 0.950 . S
C1321 C1323 1.327 . S
C1321 C1327 1.429 . S
C1322 C1314 1.574 . S
C1322 H1317 0.949 . S
C1322 C1328 1.368 . S
C1323 C1307 1.349 . S
C1323 H1315 0.950 . S
C1323 C1321 1.327 . S
C1324 C1312 1.349 . S
C1324 H1318 0.950 . S
C1324 C1325 1.327 . S
C1325 H1319 0.950 . S
C1325 C1324 1.327 . S
C1325 C1329 1.429 . S
C1326 C1309 1.574 . S
C1326 H1320 0.949 . S
C1326 C1330 1.368 . S
C1327 C1308 1.429 . S
C1327 C1321 1.429 . S
C1327 C1328 1.523 . S
C1328 C1309 1.368 . S
C1328 C1322 1.368 . S
C1328 C1327 1.523 . S
C1329 C1313 1.429 . S
C1329 C1325 1.429 . S
C1329 C1330 1.523 . S
C1330 C1314 1.368 . S
C1330 C1326 1.368 . S
C1330 C1329 1.523 . S
H1331 C1306 0.950 . S
H1332 C1308 0.950 . S
H1333 C1309 0.949 . S
H1334 C1311 0.950 . S
H1335 C1313 0.950 . S
C1336 C1337 1.349 . S
C1336 C1338 1.327 . S
C1336 H1361 0.950 . S
C1337 C1336 1.349 . S
C1337 C1353 1.349 . S
C1338 C1336 1.327 . S
C1338 C1357 1.429 . S
C1338 H1362 0.950 . S
C1339 C1356 1.574 . S
C1339 C1358 1.368 . S
C1339 H1363 0.949 . S
H1340 C1344 0.949 . S
C1341 C1342 1.349 . S
C1341 C1343 1.327 . S
C1341 H1364 0.950 . S
C1342 C1341 1.349 . S
C1342 C1354 1.349 . S
C1343 C1341 1.327 . S
C1343 C1359 1.429 . S
C1343 H1365 0.950 . S
C1344 H1340 0.949 . S
C1344 C1352 1.574 . S
C1344 C1360 1.368 . S
H1345 C1353 0.950 . S
H1346 C1351 0.950 . S
H1347 C1352 0.949 . S
H1348 C1354 0.950 . S
H1349 C1355 0.950 . S
H1350 C1356 0.949 . S
C1351 H1346 0.950 . S
C1351 C1353 1.327 . S
C1351 C1357 1.429 . S
C1352 C1344 1.574 . S
C1352 H1347 0.949 . S
C1352 C1358 1.368 . S
C1353 C1337 1.349 . S
C1353 H1345 0.950 . S
C1353 C1351 1.327 . S
C1354 C1342 1.349 . S
C1354 H1348 0.950 . S
C1354 C1355 1.327 . S
C1355 H1349 0.950 . S
C1355 C1354 1.327 . S
C1355 C1359 1.429 . S
C1356 C1339 1.574 . S
C1356 H1350 0.949 . S
C1356 C1360 1.368 . S
C1357 C1338 1.429 . S
C1357 C1351 1.429 . S
C1357 C1358 1.523 . S
C1358 C1339 1.368 . S
C1358 C1352 1.368 . S
C1358 C1357 1.523 . S
C1359 C1343 1.429 . S
C1359 C1355 1.429 . S
C1359 C1360 1.523 . S
C1360 C1344 1.368 . S
C1360 C1356 1.368 . S
C1360 C1359 1.523 . S
H1361 C1336 0.950 . S
H1362 C1338 0.950 . S
H1363 C1339 0.949 . S
H1364 C1341 0.950 . S
H1365 C1343 0.950 . S
C1366 C1367 1.349 . S
C1366 C1368 1.327 . S
C1366 H1391 0.950 . S
C1367 C1366 1.349 . S
C1367 C1383 1.349 . S
C1368 C1366 1.327 . S
C1368 C1387 1.429 . S
C1368 H1392 0.950 . S
C1369 C1386 1.574 . S
C1369 C1388 1.368 . S
C1369 H1393 0.949 . S
H1370 C1374 0.949 . S
C1371 C1372 1.349 . S
C1371 C1373 1.327 . S
C1371 H1394 0.950 . S
C1372 C1371 1.349 . S
C1372 C1384 1.349 . S
C1373 C1371 1.327 . S
C1373 C1389 1.429 . S
C1373 H1395 0.950 . S
C1374 H1370 0.949 . S
C1374 C1382 1.574 . S
C1374 C1390 1.368 . S
H1375 C1383 0.950 . S
H1376 C1381 0.950 . S
H1377 C1382 0.949 . S
H1378 C1384 0.950 . S
H1379 C1385 0.950 . S
H1380 C1386 0.949 . S
C1381 H1376 0.950 . S
C1381 C1383 1.327 . S
C1381 C1387 1.429 . S
C1382 C1374 1.574 . S
C1382 H1377 0.949 . S
C1382 C1388 1.368 . S
C1383 C1367 1.349 . S
C1383 H1375 0.950 . S
C1383 C1381 1.327 . S
C1384 C1372 1.349 . S
C1384 H1378 0.950 . S
C1384 C1385 1.327 . S
C1385 H1379 0.950 . S
C1385 C1384 1.327 . S
C1385 C1389 1.429 . S
C1386 C1369 1.574 . S
C1386 H1380 0.949 . S
C1386 C1390 1.368 . S
C1387 C1368 1.429 . S
C1387 C1381 1.429 . S
C1387 C1388 1.523 . S
C1388 C1369 1.368 . S
C1388 C1382 1.368 . S
C1388 C1387 1.523 . S
C1389 C1373 1.429 . S
C1389 C1385 1.429 . S
C1389 C1390 1.523 . S
C1390 C1374 1.368 . S
C1390 C1386 1.368 . S
C1390 C1389 1.523 . S
H1391 C1366 0.950 . S
H1392 C1368 0.950 . S
H1393 C1369 0.949 . S
H1394 C1371 0.950 . S
H1395 C1373 0.950 . S
C1396 C1397 1.349 . S
C1396 C1398 1.327 . S
C1396 H1421 0.950 . S
C1397 C1396 1.349 . S
C1397 C1413 1.349 . S
C1398 C1396 1.327 . S
C1398 C1417 1.429 . S
C1398 H1422 0.950 . S
C1399 C1416 1.574 . S
C1399 C1418 1.368 . S
C1399 H1423 0.949 . S
H1400 C1404 0.949 . S
C1401 C1402 1.349 . S
C1401 C1403 1.327 . S
C1401 H1424 0.950 . S
C1402 C1401 1.349 . S
C1402 C1414 1.349 . S
C1403 C1401 1.327 . S
C1403 C1419 1.429 . S
C1403 H1425 0.950 . S
C1404 H1400 0.949 . S
C1404 C1412 1.574 . S
C1404 C1420 1.368 . S
H1405 C1413 0.950 . S
H1406 C1411 0.950 . S
H1407 C1412 0.949 . S
H1408 C1414 0.950 . S
H1409 C1415 0.950 . S
H1410 C1416 0.949 . S
C1411 H1406 0.950 . S
C1411 C1413 1.327 . S
C1411 C1417 1.429 . S
C1412 C1404 1.574 . S
C1412 H1407 0.949 . S
C1412 C1418 1.368 . S
C1413 C1397 1.349 . S
C1413 H1405 0.950 . S
C1413 C1411 1.327 . S
C1414 C1402 1.349 . S
C1414 H1408 0.950 . S
C1414 C1415 1.327 . S
C1415 H1409 0.950 . S
C1415 C1414 1.327 . S
C1415 C1419 1.429 . S
C1416 C1399 1.574 . S
C1416 H1410 0.949 . S
C1416 C1420 1.368 . S
C1417 C1398 1.429 . S
C1417 C1411 1.429 . S
C1417 C1418 1.523 . S
C1418 C1399 1.368 . S
C1418 C1412 1.368 . S
C1418 C1417 1.523 . S
C1419 C1403 1.429 . S
C1419 C1415 1.429 . S
C1419 C1420 1.523 . S
C1420 C1404 1.368 . S
C1420 C1416 1.368 . S
C1420 C1419 1.523 . S
H1421 C1396 0.950 . S
H1422 C1398 0.950 . S
H1423 C1399 0.949 . S
H1424 C1401 0.950 . S
H1425 C1403 0.950 . S
C1426 C1427 1.349 . S
C1426 C1428 1.327 . S
C1426 H1451 0.950 . S
C1427 C1426 1.349 . S
C1427 C1443 1.349 . S
C1428 C1426 1.327 . S
C1428 C1447 1.429 . S
C1428 H1452 0.950 . S
C1429 C1446 1.574 . S
C1429 C1448 1.368 . S
C1429 H1453 0.949 . S
H1430 C1434 0.949 . S
C1431 C1432 1.349 . S
C1431 C1433 1.327 . S
C1431 H1454 0.950 . S
C1432 C1431 1.349 . S
C1432 C1444 1.349 . S
C1433 C1431 1.327 . S
C1433 C1449 1.429 . S
C1433 H1455 0.950 . S
C1434 H1430 0.949 . S
C1434 C1442 1.574 . S
C1434 C1450 1.368 . S
H1435 C1443 0.950 . S
H1436 C1441 0.950 . S
H1437 C1442 0.949 . S
H1438 C1444 0.950 . S
H1439 C1445 0.950 . S
H1440 C1446 0.949 . S
C1441 H1436 0.950 . S
C1441 C1443 1.327 . S
C1441 C1447 1.429 . S
C1442 C1434 1.574 . S
C1442 H1437 0.949 . S
C1442 C1448 1.368 . S
C1443 C1427 1.349 . S
C1443 H1435 0.950 . S
C1443 C1441 1.327 . S
C1444 C1432 1.349 . S
C1444 H1438 0.950 . S
C1444 C1445 1.327 . S
C1445 H1439 0.950 . S
C1445 C1444 1.327 . S
C1445 C1449 1.429 . S
C1446 C1429 1.574 . S
C1446 H1440 0.949 . S
C1446 C1450 1.368 . S
C1447 C1428 1.429 . S
C1447 C1441 1.429 . S
C1447 C1448 1.523 . S
C1448 C1429 1.368 . S
C1448 C1442 1.368 . S
C1448 C1447 1.523 . S
C1449 C1433 1.429 . S
C1449 C1445 1.429 . S
C1449 C1450 1.523 . S
C1450 C1434 1.368 . S
C1450 C1446 1.368 . S
C1450 C1449 1.523 . S
H1451 C1426 0.950 . S
H1452 C1428 0.950 . S
H1453 C1429 0.949 . S
H1454 C1431 0.950 . S
H1455 C1433 0.950 . S
C1456 C1457 1.349 . S
C1456 C1458 1.327 . S
C1456 H1481 0.950 . S
C1457 C1456 1.349 . S
C1457 C1473 1.349 . S
C1458 C1456 1.327 . S
C1458 C1477 1.429 . S
C1458 H1482 0.950 . S
C1459 C1476 1.574 . S
C1459 C1478 1.368 . S
C1459 H1483 0.949 . S
H1460 C1464 0.949 . S
C1461 C1462 1.349 . S
C1461 C1463 1.327 . S
C1461 H1484 0.950 . S
C1462 C1461 1.349 . S
C1462 C1474 1.349 . S
C1463 C1461 1.327 . S
C1463 C1479 1.429 . S
C1463 H1485 0.950 . S
C1464 H1460 0.949 . S
C1464 C1472 1.574 . S
C1464 C1480 1.368 . S
H1465 C1473 0.950 . S
H1466 C1471 0.950 . S
H1467 C1472 0.949 . S
H1468 C1474 0.950 . S
H1469 C1475 0.950 . S
H1470 C1476 0.949 . S
C1471 H1466 0.950 . S
C1471 C1473 1.327 . S
C1471 C1477 1.429 . S
C1472 C1464 1.574 . S
C1472 H1467 0.949 . S
C1472 C1478 1.368 . S
C1473 C1457 1.349 . S
C1473 H1465 0.950 . S
C1473 C1471 1.327 . S
C1474 C1462 1.349 . S
C1474 H1468 0.950 . S
C1474 C1475 1.327 . S
C1475 H1469 0.950 . S
C1475 C1474 1.327 . S
C1475 C1479 1.429 . S
C1476 C1459 1.574 . S
C1476 H1470 0.949 . S
C1476 C1480 1.368 . S
C1477 C1458 1.429 . S
C1477 C1471 1.429 . S
C1477 C1478 1.523 . S
C1478 C1459 1.368 . S
C1478 C1472 1.368 . S
C1478 C1477 1.523 . S
C1479 C1463 1.429 . S
C1479 C1475 1.429 . S
C1479 C1480 1.523 . S
C1480 C1464 1.368 . S
C1480 C1476 1.368 . S
C1480 C1479 1.523 . S
H1481 C1456 0.950 . S
H1482 C1458 0.950 . S
H1483 C1459 0.949 . S
H1484 C1461 0.950 . S
H1485 C1463 0.950 . S
C1486 C1487 1.349 . S
C1486 C1488 1.327 . S
C1486 H1511 0.950 . S
C1487 C1486 1.349 . S
C1487 C1503 1.349 . S
C1488 C1486 1.327 . S
C1488 C1507 1.429 . S
C1488 H1512 0.950 . S
C1489 C1506 1.574 . S
C1489 C1508 1.368 . S
C1489 H1513 0.949 . S
H1490 C1494 0.949 . S
C1491 C1492 1.349 . S
C1491 C1493 1.327 . S
C1491 H1514 0.950 . S
C1492 C1491 1.349 . S
C1492 C1504 1.349 . S
C1493 C1491 1.327 . S
C1493 C1509 1.429 . S
C1493 H1515 0.950 . S
C1494 H1490 0.949 . S
C1494 C1502 1.574 . S
C1494 C1510 1.368 . S
H1495 C1503 0.950 . S
H1496 C1501 0.950 . S
H1497 C1502 0.949 . S
H1498 C1504 0.950 . S
H1499 C1505 0.950 . S
H1500 C1506 0.949 . S
C1501 H1496 0.950 . S
C1501 C1503 1.327 . S
C1501 C1507 1.429 . S
C1502 C1494 1.574 . S
C1502 H1497 0.949 . S
C1502 C1508 1.368 . S
C1503 C1487 1.349 . S
C1503 H1495 0.950 . S
C1503 C1501 1.327 . S
C1504 C1492 1.349 . S
C1504 H1498 0.950 . S
C1504 C1505 1.327 . S
C1505 H1499 0.950 . S
C1505 C1504 1.327 . S
C1505 C1509 1.429 . S
C1506 C1489 1.574 . S
C1506 H1500 0.949 . S
C1506 C1510 1.368 . S
C1507 C1488 1.429 . S
C1507 C1501 1.429 . S
C1507 C1508 1.523 . S
C1508 C1489 1.368 . S
C1508 C1502 1.368 . S
C1508 C1507 1.523 . S
C1509 C1493 1.429 . S
C1509 C1505 1.429 . S
C1509 C1510 1.523 . S
C1510 C1494 1.368 . S
C1510 C1506 1.368 . S
C1510 C1509 1.523 . S
H1511 C1486 0.950 . S
H1512 C1488 0.950 . S
H1513 C1489 0.949 . S
H1514 C1491 0.950 . S
H1515 C1493 0.950 . S
C1516 C1517 1.349 . S
C1516 C1518 1.327 . S
C1516 H1541 0.950 . S
C1517 C1516 1.349 . S
C1517 C1533 1.349 . S
C1518 C1516 1.327 . S
C1518 C1537 1.429 . S
C1518 H1542 0.950 . S
C1519 C1536 1.574 . S
C1519 C1538 1.368 . S
C1519 H1543 0.949 . S
H1520 C1524 0.949 . S
C1521 C1522 1.349 . S
C1521 C1523 1.327 . S
C1521 H1544 0.950 . S
C1522 C1521 1.349 . S
C1522 C1534 1.349 . S
C1523 C1521 1.327 . S
C1523 C1539 1.429 . S
C1523 H1545 0.950 . S
C1524 H1520 0.949 . S
C1524 C1532 1.574 . S
C1524 C1540 1.368 . S
H1525 C1533 0.950 . S
H1526 C1531 0.950 . S
H1527 C1532 0.949 . S
H1528 C1534 0.950 . S
H1529 C1535 0.950 . S
H1530 C1536 0.949 . S
C1531 H1526 0.950 . S
C1531 C1533 1.327 . S
C1531 C1537 1.429 . S
C1532 C1524 1.574 . S
C1532 H1527 0.949 . S
C1532 C1538 1.368 . S
C1533 C1517 1.349 . S
C1533 H1525 0.950 . S
C1533 C1531 1.327 . S
C1534 C1522 1.349 . S
C1534 H1528 0.950 . S
C1534 C1535 1.327 . S
C1535 H1529 0.950 . S
C1535 C1534 1.327 . S
C1535 C1539 1.429 . S
C1536 C1519 1.574 . S
C1536 H1530 0.949 . S
C1536 C1540 1.368 . S
C1537 C1518 1.429 . S
C1537 C1531 1.429 . S
C1537 C1538 1.523 . S
C1538 C1519 1.368 . S
C1538 C1532 1.368 . S
C1538 C1537 1.523 . S
C1539 C1523 1.429 . S
C1539 C1535 1.429 . S
C1539 C1540 1.523 . S
C1540 C1524 1.368 . S
C1540 C1536 1.368 . S
C1540 C1539 1.523 . S
H1541 C1516 0.950 . S
H1542 C1518 0.950 . S
H1543 C1519 0.949 . S
H1544 C1521 0.950 . S
H1545 C1523 0.950 . S
C1546 C1547 1.349 . S
C1546 C1548 1.327 . S
C1546 H1571 0.950 . S
C1547 C1546 1.349 . S
C1547 C1563 1.349 . S
C1548 C1546 1.327 . S
C1548 C1567 1.429 . S
C1548 H1572 0.950 . S
C1549 C1566 1.574 . S
C1549 C1568 1.368 . S
C1549 H1573 0.949 . S
H1550 C1554 0.949 . S
C1551 C1552 1.349 . S
C1551 C1553 1.327 . S
C1551 H1574 0.950 . S
C1552 C1551 1.349 . S
C1552 C1564 1.349 . S
C1553 C1551 1.327 . S
C1553 C1569 1.429 . S
C1553 H1575 0.950 . S
C1554 H1550 0.949 . S
C1554 C1562 1.574 . S
C1554 C1570 1.368 . S
H1555 C1563 0.950 . S
H1556 C1561 0.950 . S
H1557 C1562 0.949 . S
H1558 C1564 0.950 . S
H1559 C1565 0.950 . S
H1560 C1566 0.949 . S
C1561 H1556 0.950 . S
C1561 C1563 1.327 . S
C1561 C1567 1.429 . S
C1562 C1554 1.574 . S
C1562 H1557 0.949 . S
C1562 C1568 1.368 . S
C1563 C1547 1.349 . S
C1563 H1555 0.950 . S
C1563 C1561 1.327 . S
C1564 C1552 1.349 . S
C1564 H1558 0.950 . S
C1564 C1565 1.327 . S
C1565 H1559 0.950 . S
C1565 C1564 1.327 . S
C1565 C1569 1.429 . S
C1566 C1549 1.574 . S
C1566 H1560 0.949 . S
C1566 C1570 1.368 . S
C1567 C1548 1.429 . S
C1567 C1561 1.429 . S
C1567 C1568 1.523 . S
C1568 C1549 1.368 . S
C1568 C1562 1.368 . S
C1568 C1567 1.523 . S
C1569 C1553 1.429 . S
C1569 C1565 1.429 . S
C1569 C1570 1.523 . S
C1570 C1554 1.368 . S
C1570 C1566 1.368 . S
C1570 C1569 1.523 . S
H1571 C1546 0.950 . S
H1572 C1548 0.950 . S
H1573 C1549 0.949 . S
H1574 C1551 0.950 . S
H1575 C1553 0.950 . S
C1576 C1577 1.349 . S
C1576 C1578 1.327 . S
C1576 H1601 0.950 . S
C1577 C1576 1.349 . S
C1577 C1593 1.349 . S
C1578 C1576 1.327 . S
C1578 C1597 1.429 . S
C1578 H1602 0.950 . S
C1579 C1596 1.574 . S
C1579 C1598 1.368 . S
C1579 H1603 0.949 . S
H1580 C1584 0.949 . S
C1581 C1582 1.349 . S
C1581 C1583 1.327 . S
C1581 H1604 0.950 . S
C1582 C1581 1.349 . S
C1582 C1594 1.349 . S
C1583 C1581 1.327 . S
C1583 C1599 1.429 . S
C1583 H1605 0.950 . S
C1584 H1580 0.949 . S
C1584 C1592 1.574 . S
C1584 C1600 1.368 . S
H1585 C1593 0.950 . S
H1586 C1591 0.950 . S
H1587 C1592 0.949 . S
H1588 C1594 0.950 . S
H1589 C1595 0.950 . S
H1590 C1596 0.949 . S
C1591 H1586 0.950 . S
C1591 C1593 1.327 . S
C1591 C1597 1.429 . S
C1592 C1584 1.574 . S
C1592 H1587 0.949 . S
C1592 C1598 1.368 . S
C1593 C1577 1.349 . S
C1593 H1585 0.950 . S
C1593 C1591 1.327 . S
C1594 C1582 1.349 . S
C1594 H1588 0.950 . S
C1594 C1595 1.327 . S
C1595 H1589 0.950 . S
C1595 C1594 1.327 . S
C1595 C1599 1.429 . S
C1596 C1579 1.574 . S
C1596 H1590 0.949 . S
C1596 C1600 1.368 . S
C1597 C1578 1.429 . S
C1597 C1591 1.429 . S
C1597 C1598 1.523 . S
C1598 C1579 1.368 . S
C1598 C1592 1.368 . S
C1598 C1597 1.523 . S
C1599 C1583 1.429 . S
C1599 C1595 1.429 . S
C1599 C1600 1.523 . S
C1600 C1584 1.368 . S
C1600 C1596 1.368 . S
C1600 C1599 1.523 . S
H1601 C1576 0.950 . S
H1602 C1578 0.950 . S
H1603 C1579 0.949 . S
H1604 C1581 0.950 . S
H1605 C1583 0.950 . S
C1606 C1607 1.349 . S
C1606 C1608 1.327 . S
C1606 H1631 0.950 . S
C1607 C1606 1.349 . S
C1607 C1623 1.349 . S
C1608 C1606 1.327 . S
C1608 C1627 1.429 . S
C1608 H1632 0.950 . S
C1609 C1626 1.574 . S
C1609 C1628 1.368 . S
C1609 H1633 0.949 . S
H1610 C1614 0.949 . S
C1611 C1612 1.349 . S
C1611 C1613 1.327 . S
C1611 H1634 0.950 . S
C1612 C1611 1.349 . S
C1612 C1624 1.349 . S
C1613 C1611 1.327 . S
C1613 C1629 1.429 . S
C1613 H1635 0.950 . S
C1614 H1610 0.949 . S
C1614 C1622 1.574 . S
C1614 C1630 1.368 . S
H1615 C1623 0.950 . S
H1616 C1621 0.950 . S
H1617 C1622 0.949 . S
H1618 C1624 0.950 . S
H1619 C1625 0.950 . S
H1620 C1626 0.949 . S
C1621 H1616 0.950 . S
C1621 C1623 1.327 . S
C1621 C1627 1.429 . S
C1622 C1614 1.574 . S
C1622 H1617 0.949 . S
C1622 C1628 1.368 . S
C1623 C1607 1.349 . S
C1623 H1615 0.950 . S
C1623 C1621 1.327 . S
C1624 C1612 1.349 . S
C1624 H1618 0.950 . S
C1624 C1625 1.327 . S
C1625 H1619 0.950 . S
C1625 C1624 1.327 . S
C1625 C1629 1.429 . S
C1626 C1609 1.574 . S
C1626 H1620 0.949 . S
C1626 C1630 1.368 . S
C1627 C1608 1.429 . S
C1627 C1621 1.429 . S
C1627 C1628 1.523 . S
C1628 C1609 1.368 . S
C1628 C1622 1.368 . S
C1628 C1627 1.523 . S
C1629 C1613 1.429 . S
C1629 C1625 1.429 . S
C1629 C1630 1.523 . S
C1630 C1614 1.368 . S
C1630 C1626 1.368 . S
C1630 C1629 1.523 . S
H1631 C1606 0.950 . S
H1632 C1608 0.950 . S
H1633 C1609 0.949 . S
H1634 C1611 0.950 . S
H1635 C1613 0.950 . S
C1636 C1637 1.349 . S
C1636 C1638 1.327 . S
C1636 H1661 0.950 . S
C1637 C1636 1.349 . S
C1637 C1653 1.349 . S
C1638 C1636 1.327 . S
C1638 C1657 1.429 . S
C1638 H1662 0.950 . S
C1639 C1656 1.574 . S
C1639 C1658 1.368 . S
C1639 H1663 0.949 . S
H1640 C1644 0.949 . S
C1641 C1642 1.349 . S
C1641 C1643 1.327 . S
C1641 H1664 0.950 . S
C1642 C1641 1.349 . S
C1642 C1654 1.349 . S
C1643 C1641 1.327 . S
C1643 C1659 1.429 . S
C1643 H1665 0.950 . S
C1644 H1640 0.949 . S
C1644 C1652 1.574 . S
C1644 C1660 1.368 . S
H1645 C1653 0.950 . S
H1646 C1651 0.950 . S
H1647 C1652 0.949 . S
H1648 C1654 0.950 . S
H1649 C1655 0.950 . S
H1650 C1656 0.949 . S
C1651 H1646 0.950 . S
C1651 C1653 1.327 . S
C1651 C1657 1.429 . S
C1652 C1644 1.574 . S
C1652 H1647 0.949 . S
C1652 C1658 1.368 . S
C1653 C1637 1.349 . S
C1653 H1645 0.950 . S
C1653 C1651 1.327 . S
C1654 C1642 1.349 . S
C1654 H1648 0.950 . S
C1654 C1655 1.327 . S
C1655 H1649 0.950 . S
C1655 C1654 1.327 . S
C1655 C1659 1.429 . S
C1656 C1639 1.574 . S
C1656 H1650 0.949 . S
C1656 C1660 1.368 . S
C1657 C1638 1.429 . S
C1657 C1651 1.429 . S
C1657 C1658 1.523 . S
C1658 C1639 1.368 . S
C1658 C1652 1.368 . S
C1658 C1657 1.523 . S
C1659 C1643 1.429 . S
C1659 C1655 1.429 . S
C1659 C1660 1.523 . S
C1660 C1644 1.368 . S
C1660 C1656 1.368 . S
C1660 C1659 1.523 . S
H1661 C1636 0.950 . S
H1662 C1638 0.950 . S
H1663 C1639 0.949 . S
H1664 C1641 0.950 . S
H1665 C1643 0.950 . S
C1666 C1667 1.349 . S
C1666 C1668 1.327 . S
C1666 H1691 0.950 . S
C1667 C1666 1.349 . S
C1667 C1683 1.349 . S
C1668 C1666 1.327 . S
C1668 C1687 1.429 . S
C1668 H1692 0.950 . S
C1669 C1686 1.574 . S
C1669 C1688 1.368 . S
C1669 H1693 0.949 . S
H1670 C1674 0.949 . S
C1671 C1672 1.349 . S
C1671 C1673 1.327 . S
C1671 H1694 0.950 . S
C1672 C1671 1.349 . S
C1672 C1684 1.349 . S
C1673 C1671 1.327 . S
C1673 C1689 1.429 . S
C1673 H1695 0.950 . S
C1674 H1670 0.949 . S
C1674 C1682 1.574 . S
C1674 C1690 1.368 . S
H1675 C1683 0.950 . S
H1676 C1681 0.950 . S
H1677 C1682 0.949 . S
H1678 C1684 0.950 . S
H1679 C1685 0.950 . S
H1680 C1686 0.949 . S
C1681 H1676 0.950 . S
C1681 C1683 1.327 . S
C1681 C1687 1.429 . S
C1682 C1674 1.574 . S
C1682 H1677 0.949 . S
C1682 C1688 1.368 . S
C1683 C1667 1.349 . S
C1683 H1675 0.950 . S
C1683 C1681 1.327 . S
C1684 C1672 1.349 . S
C1684 H1678 0.950 . S
C1684 C1685 1.327 . S
C1685 H1679 0.950 . S
C1685 C1684 1.327 . S
C1685 C1689 1.429 . S
C1686 C1669 1.574 . S
C1686 H1680 0.949 . S
C1686 C1690 1.368 . S
C1687 C1668 1.429 . S
C1687 C1681 1.429 . S
C1687 C1688 1.523 . S
C1688 C1669 1.368 . S
C1688 C1682 1.368 . S
C1688 C1687 1.523 . S
C1689 C1673 1.429 . S
C1689 C1685 1.429 . S
C1689 C1690 1.523 . S
C1690 C1674 1.368 . S
C1690 C1686 1.368 . S
C1690 C1689 1.523 . S
H1691 C1666 0.950 . S
H1692 C1668 0.950 . S
H1693 C1669 0.949 . S
H1694 C1671 0.950 . S
H1695 C1673 0.950 . S
C1696 C1697 1.349 . S
C1696 C1698 1.327 . S
C1696 H1721 0.950 . S
C1697 C1696 1.349 . S
C1697 C1713 1.349 . S
C1698 C1696 1.327 . S
C1698 C1717 1.429 . S
C1698 H1722 0.950 . S
C1699 C1716 1.574 . S
C1699 C1718 1.368 . S
C1699 H1723 0.949 . S
H1700 C1704 0.949 . S
C1701 C1702 1.349 . S
C1701 C1703 1.327 . S
C1701 H1724 0.950 . S
C1702 C1701 1.349 . S
C1702 C1714 1.349 . S
C1703 C1701 1.327 . S
C1703 C1719 1.429 . S
C1703 H1725 0.950 . S
C1704 H1700 0.949 . S
C1704 C1712 1.574 . S
C1704 C1720 1.368 . S
H1705 C1713 0.950 . S
H1706 C1711 0.950 . S
H1707 C1712 0.949 . S
H1708 C1714 0.950 . S
H1709 C1715 0.950 . S
H1710 C1716 0.949 . S
C1711 H1706 0.950 . S
C1711 C1713 1.327 . S
C1711 C1717 1.429 . S
C1712 C1704 1.574 . S
C1712 H1707 0.949 . S
C1712 C1718 1.368 . S
C1713 C1697 1.349 . S
C1713 H1705 0.950 . S
C1713 C1711 1.327 . S
C1714 C1702 1.349 . S
C1714 H1708 0.950 . S
C1714 C1715 1.327 . S
C1715 H1709 0.950 . S
C1715 C1714 1.327 . S
C1715 C1719 1.429 . S
C1716 C1699 1.574 . S
C1716 H1710 0.949 . S
C1716 C1720 1.368 . S
C1717 C1698 1.429 . S
C1717 C1711 1.429 . S
C1717 C1718 1.523 . S
C1718 C1699 1.368 . S
C1718 C1712 1.368 . S
C1718 C1717 1.523 . S
C1719 C1703 1.429 . S
C1719 C1715 1.429 . S
C1719 C1720 1.523 . S
C1720 C1704 1.368 . S
C1720 C1716 1.368 . S
C1720 C1719 1.523 . S
H1721 C1696 0.950 . S
H1722 C1698 0.950 . S
H1723 C1699 0.949 . S
H1724 C1701 0.950 . S
H1725 C1703 0.950 . S
C1726 C1727 1.349 . S
C1726 C1728 1.327 . S
C1726 H1751 0.950 . S
C1727 C1726 1.349 . S
C1727 C1743 1.349 . S
C1728 C1726 1.327 . S
C1728 C1747 1.429 . S
C1728 H1752 0.950 . S
C1729 C1746 1.574 . S
C1729 C1748 1.368 . S
C1729 H1753 0.949 . S
H1730 C1734 0.949 . S
C1731 C1732 1.349 . S
C1731 C1733 1.327 . S
C1731 H1754 0.950 . S
C1732 C1731 1.349 . S
C1732 C1744 1.349 . S
C1733 C1731 1.327 . S
C1733 C1749 1.429 . S
C1733 H1755 0.950 . S
C1734 H1730 0.949 . S
C1734 C1742 1.574 . S
C1734 C1750 1.368 . S
H1735 C1743 0.950 . S
H1736 C1741 0.950 . S
H1737 C1742 0.949 . S
H1738 C1744 0.950 . S
H1739 C1745 0.950 . S
H1740 C1746 0.949 . S
C1741 H1736 0.950 . S
C1741 C1743 1.327 . S
C1741 C1747 1.429 . S
C1742 C1734 1.574 . S
C1742 H1737 0.949 . S
C1742 C1748 1.368 . S
C1743 C1727 1.349 . S
C1743 H1735 0.950 . S
C1743 C1741 1.327 . S
C1744 C1732 1.349 . S
C1744 H1738 0.950 . S
C1744 C1745 1.327 . S
C1745 H1739 0.950 . S
C1745 C1744 1.327 . S
C1745 C1749 1.429 . S
C1746 C1729 1.574 . S
C1746 H1740 0.949 . S
C1746 C1750 1.368 . S
C1747 C1728 1.429 . S
C1747 C1741 1.429 . S
C1747 C1748 1.523 . S
C1748 C1729 1.368 . S
C1748 C1742 1.368 . S
C1748 C1747 1.523 . S
C1749 C1733 1.429 . S
C1749 C1745 1.429 . S
C1749 C1750 1.523 . S
C1750 C1734 1.368 . S
C1750 C1746 1.368 . S
C1750 C1749 1.523 . S
H1751 C1726 0.950 . S
H1752 C1728 0.950 . S
H1753 C1729 0.949 . S
H1754 C1731 0.950 . S
H1755 C1733 0.950 . S
C1756 C1757 1.349 . S
C1756 C1758 1.327 . S
C1756 H1781 0.950 . S
C1757 C1756 1.349 . S
C1757 C1773 1.349 . S
C1758 C1756 1.327 . S
C1758 C1777 1.429 . S
C1758 H1782 0.950 . S
C1759 C1776 1.574 . S
C1759 C1778 1.368 . S
C1759 H1783 0.949 . S
H1760 C1764 0.949 . S
C1761 C1762 1.349 . S
C1761 C1763 1.327 . S
C1761 H1784 0.950 . S
C1762 C1761 1.349 . S
C1762 C1774 1.349 . S
C1763 C1761 1.327 . S
C1763 C1779 1.429 . S
C1763 H1785 0.950 . S
C1764 H1760 0.949 . S
C1764 C1772 1.574 . S
C1764 C1780 1.368 . S
H1765 C1773 0.950 . S
H1766 C1771 0.950 . S
H1767 C1772 0.949 . S
H1768 C1774 0.950 . S
H1769 C1775 0.950 . S
H1770 C1776 0.949 . S
C1771 H1766 0.950 . S
C1771 C1773 1.327 . S
C1771 C1777 1.429 . S
C1772 C1764 1.574 . S
C1772 H1767 0.949 . S
C1772 C1778 1.368 . S
C1773 C1757 1.349 . S
C1773 H1765 0.950 . S
C1773 C1771 1.327 . S
C1774 C1762 1.349 . S
C1774 H1768 0.950 . S
C1774 C1775 1.327 . S
C1775 H1769 0.950 . S
C1775 C1774 1.327 . S
C1775 C1779 1.429 . S
C1776 C1759 1.574 . S
C1776 H1770 0.949 . S
C1776 C1780 1.368 . S
C1777 C1758 1.429 . S
C1777 C1771 1.429 . S
C1777 C1778 1.523 . S
C1778 C1759 1.368 . S
C1778 C1772 1.368 . S
C1778 C1777 1.523 . S
C1779 C1763 1.429 . S
C1779 C1775 1.429 . S
C1779 C1780 1.523 . S
C1780 C1764 1.368 . S
C1780 C1776 1.368 . S
C1780 C1779 1.523 . S
H1781 C1756 0.950 . S
H1782 C1758 0.950 . S
H1783 C1759 0.949 . S
H1784 C1761 0.950 . S
H1785 C1763 0.950 . S
C1786 C1787 1.349 . S
C1786 C1788 1.327 . S
C1786 H1811 0.950 . S
C1787 C1786 1.349 . S
C1787 C1803 1.349 . S
C1788 C1786 1.327 . S
C1788 C1807 1.429 . S
C1788 H1812 0.950 . S
C1789 C1806 1.574 . S
C1789 C1808 1.368 . S
C1789 H1813 0.949 . S
H1790 C1794 0.949 . S
C1791 C1792 1.349 . S
C1791 C1793 1.327 . S
C1791 H1814 0.950 . S
C1792 C1791 1.349 . S
C1792 C1804 1.349 . S
C1793 C1791 1.327 . S
C1793 C1809 1.429 . S
C1793 H1815 0.950 . S
C1794 H1790 0.949 . S
C1794 C1802 1.574 . S
C1794 C1810 1.368 . S
H1795 C1803 0.950 . S
H1796 C1801 0.950 . S
H1797 C1802 0.949 . S
H1798 C1804 0.950 . S
H1799 C1805 0.950 . S
H1800 C1806 0.949 . S
C1801 H1796 0.950 . S
C1801 C1803 1.327 . S
C1801 C1807 1.429 . S
C1802 C1794 1.574 . S
C1802 H1797 0.949 . S
C1802 C1808 1.368 . S
C1803 C1787 1.349 . S
C1803 H1795 0.950 . S
C1803 C1801 1.327 . S
C1804 C1792 1.349 . S
C1804 H1798 0.950 . S
C1804 C1805 1.327 . S
C1805 H1799 0.950 . S
C1805 C1804 1.327 . S
C1805 C1809 1.429 . S
C1806 C1789 1.574 . S
C1806 H1800 0.949 . S
C1806 C1810 1.368 . S
C1807 C1788 1.429 . S
C1807 C1801 1.429 . S
C1807 C1808 1.523 . S
C1808 C1789 1.368 . S
C1808 C1802 1.368 . S
C1808 C1807 1.523 . S
C1809 C1793 1.429 . S
C1809 C1805 1.429 . S
C1809 C1810 1.523 . S
C1810 C1794 1.368 . S
C1810 C1806 1.368 . S
C1810 C1809 1.523 . S
H1811 C1786 0.950 . S
H1812 C1788 0.950 . S
H1813 C1789 0.949 . S
H1814 C1791 0.950 . S
H1815 C1793 0.950 . S
C1816 C1817 1.349 . S
C1816 C1818 1.327 . S
C1816 H1841 0.950 . S
C1817 C1816 1.349 . S
C1817 C1833 1.349 . S
C1818 C1816 1.327 . S
C1818 C1837 1.429 . S
C1818 H1842 0.950 . S
C1819 C1836 1.574 . S
C1819 C1838 1.368 . S
C1819 H1843 0.949 . S
H1820 C1824 0.949 . S
C1821 C1822 1.349 . S
C1821 C1823 1.327 . S
C1821 H1844 0.950 . S
C1822 C1821 1.349 . S
C1822 C1834 1.349 . S
C1823 C1821 1.327 . S
C1823 C1839 1.429 . S
C1823 H1845 0.950 . S
C1824 H1820 0.949 . S
C1824 C1832 1.574 . S
C1824 C1840 1.368 . S
H1825 C1833 0.950 . S
H1826 C1831 0.950 . S
H1827 C1832 0.949 . S
H1828 C1834 0.950 . S
H1829 C1835 0.950 . S
H1830 C1836 0.949 . S
C1831 H1826 0.950 . S
C1831 C1833 1.327 . S
C1831 C1837 1.429 . S
C1832 C1824 1.574 . S
C1832 H1827 0.949 . S
C1832 C1838 1.368 . S
C1833 C1817 1.349 . S
C1833 H1825 0.950 . S
C1833 C1831 1.327 . S
C1834 C1822 1.349 . S
C1834 H1828 0.950 . S
C1834 C1835 1.327 . S
C1835 H1829 0.950 . S
C1835 C1834 1.327 . S
C1835 C1839 1.429 . S
C1836 C1819 1.574 . S
C1836 H1830 0.949 . S
C1836 C1840 1.368 . S
C1837 C1818 1.429 . S
C1837 C1831 1.429 . S
C1837 C1838 1.523 . S
C1838 C1819 1.368 . S
C1838 C1832 1.368 . S
C1838 C1837 1.523 . S
C1839 C1823 1.429 . S
C1839 C1835 1.429 . S
C1839 C1840 1.523 . S
C1840 C1824 1.368 . S
C1840 C1836 1.368 . S
C1840 C1839 1.523 . S
H1841 C1816 0.950 . S
H1842 C1818 0.950 . S
H1843 C1819 0.949 . S
H1844 C1821 0.950 . S
H1845 C1823 0.950 . S
C1846 C1847 1.349 . S
C1846 C1848 1.327 . S
C1846 H1871 0.950 . S
C1847 C1846 1.349 . S
C1847 C1863 1.349 . S
C1848 C1846 1.327 . S
C1848 C1867 1.429 . S
C1848 H1872 0.950 . S
C1849 C1866 1.574 . S
C1849 C1868 1.368 . S
C1849 H1873 0.949 . S
H1850 C1854 0.949 . S
C1851 C1852 1.349 . S
C1851 C1853 1.327 . S
C1851 H1874 0.950 . S
C1852 C1851 1.349 . S
C1852 C1864 1.349 . S
C1853 C1851 1.327 . S
C1853 C1869 1.429 . S
C1853 H1875 0.950 . S
C1854 H1850 0.949 . S
C1854 C1862 1.574 . S
C1854 C1870 1.368 . S
H1855 C1863 0.950 . S
H1856 C1861 0.950 . S
H1857 C1862 0.949 . S
H1858 C1864 0.950 . S
H1859 C1865 0.950 . S
H1860 C1866 0.949 . S
C1861 H1856 0.950 . S
C1861 C1863 1.327 . S
C1861 C1867 1.429 . S
C1862 C1854 1.574 . S
C1862 H1857 0.949 . S
C1862 C1868 1.368 . S
C1863 C1847 1.349 . S
C1863 H1855 0.950 . S
C1863 C1861 1.327 . S
C1864 C1852 1.349 . S
C1864 H1858 0.950 . S
C1864 C1865 1.327 . S
C1865 H1859 0.950 . S
C1865 C1864 1.327 . S
C1865 C1869 1.429 . S
C1866 C1849 1.574 . S
C1866 H1860 0.949 . S
C1866 C1870 1.368 . S
C1867 C1848 1.429 . S
C1867 C1861 1.429 . S
C1867 C1868 1.523 . S
C1868 C1849 1.368 . S
C1868 C1862 1.368 . S
C1868 C1867 1.523 . S
C1869 C1853 1.429 . S
C1869 C1865 1.429 . S
C1869 C1870 1.523 . S
C1870 C1854 1.368 . S
C1870 C1866 1.368 . S
C1870 C1869 1.523 . S
H1871 C1846 0.950 . S
H1872 C1848 0.950 . S
H1873 C1849 0.949 . S
H1874 C1851 0.950 . S
H1875 C1853 0.950 . S
C442 C278 1.759 . S
C437 N2 1.766 . S
C472 C304 2.514 . S
C467 C7 2.541 . S
C502 C317 1.759 . S
C497 N12 1.719 . S
C527 C16 1.708 . S
C532 C345 1.726 . S
C562 C365 2.592 . S
C557 C30 2.608 . S
C592 C378 1.611 . S
C587 N35 1.604 . S
C617 C39 1.838 . S
C622 C404 1.799 . S
C652 C417 1.601 . S
C647 N25 1.532 . S
C682 C294 1.206 . S
C677 N58 1.159 . S
C707 N81 1.384 . S
C712 C315 1.424 . S
C742 C324 1.329 . S
C737 N104 1.296 . S
C767 N127 1.140 . S
C772 C338 1.141 . S
C802 C358 0.820 . S
C797 N48 0.827 . S
C832 C394 1.618 . S
C827 N71 1.601 . S
C857 N94 0.861 . S
C862 C415 0.862 . S
C892 C424 1.788 . S
C887 N117 1.801 . S
C917 C85 2.203 . S
C922 C285 2.181 . S
C947 C122 1.826 . S
C952 C374 1.815 . S
C977 C53 1.830 1_556 S
C982 C385 1.786 . S
C1012 C397 1.439 . S
C1007 C76 1.484 . S
C1042 C435 1.658 . S
C1037 C99 1.661 . S
C1072 C335 1.965 . S
C1067 C131 1.936 . S
C1102 C354 1.142 . S
C1097 C62 1.137 . S
C1127 C108 1.110 . S
C1132 C297 1.092 . S
C1162 C418 1.817 . S
C1157 N140 1.838 . S
C1187 C145 2.541 . S
C1192 C364 2.508 . S
C1222 C377 1.689 . S
C1217 N150 1.639 . S
C1247 C154 1.707 . S
C1252 C405 1.722 . S
C1282 C305 2.586 . S
C1277 C168 2.604 . S
C1307 N173 1.516 . S
C1312 C318 1.530 . S
C1342 C344 1.797 . S
C1337 C177 1.839 . S
C1372 C277 1.670 . S
C1367 N163 1.602 . S
C1402 C434 1.648 . S
C1397 C200 1.657 . S
C1432 C375 1.731 . S
C1427 N219 1.685 . S
C1457 N242 1.529 . S
C1462 C384 1.563 . S
C1492 C398 1.419 . S
C1487 C269 1.483 . S
C1522 C298 1.123 . S
C1517 C191 1.158 . S
C1547 N209 1.833 . S
C1552 C334 1.856 . S
C1577 N232 1.173 . S
C1582 C355 1.166 . S
C1607 C260 2.288 . S
C1612 C284 2.257 . S
C1637 C223 1.940 . S
C1642 C425 1.922 . S
C1667 N255 1.372 . S
C1672 C314 1.424 . S
C1697 N186 1.304 . S
C1702 C325 1.324 . S
C1732 C337 1.124 . S
C1727 C214 1.155 . S
C1762 C295 1.385 . S
C1757 C237 1.385 . S
C1792 C395 1.529 . S
C1787 N265 1.480 . S
C1822 C414 0.816 . S
C1817 N196 0.812 . S
C1852 C357 0.783 . S
C1847 C246 0.785 . S
