# Generated by pormake.
# Topology pyr, (3,6)-cn, num edge types: 1
# Building blocks:
#     Node 0, Type 0, BuildingBlock: WUSLED_clean_sbu_0, # of connection points: 3
#     Node 1, Type 0, BuildingBlock: WUSLED_clean_sbu_0, # of connection points: 3
#     Node 2, Type 0, BuildingBlock: WUSLED_clean_sbu_0, # of connection points: 3
#     Node 3, Type 0, BuildingBlock: WUSLED_clean_sbu_0, # of connection points: 3
#     Node 4, Type 0, BuildingBlock: WUSLED_clean_sbu_0, # of connection points: 3
#     Node 5, Type 0, BuildingBlock: WUSLED_clean_sbu_0, # of connection points: 3
#     Node 6, Type 0, BuildingBlock: WUSLED_clean_sbu_0, # of connection points: 3
#     Node 7, Type 0, BuildingBlock: WUSLED_clean_sbu_0, # of connection points: 3
#     Node 8, Type 1, BuildingBlock: JUFBIX_clean_sbu_0, # of connection points: 6
#     Node 9, Type 1, BuildingBlock: JUFBIX_clean_sbu_0, # of connection points: 6
#     Node 10, Type 1, BuildingBlock: JUFBIX_clean_sbu_0, # of connection points: 6
#     Node 11, Type 1, BuildingBlock: JUFBIX_clean_sbu_0, # of connection points: 6
#     Edge 12, Type (0, 1), BuildingBlock: TEMPAE_clean_linker_10, # of connection points: 2
#     Edge 13, Type (0, 1), BuildingBlock: TEMPAE_clean_linker_10, # of connection points: 2
#     Edge 14, Type (0, 1), BuildingBlock: TEMPAE_clean_linker_10, # of connection points: 2
#     Edge 15, Type (0, 1), BuildingBlock: TEMPAE_clean_linker_10, # of connection points: 2
#     Edge 16, Type (0, 1), BuildingBlock: TEMPAE_clean_linker_10, # of connection points: 2
#     Edge 17, Type (0, 1), BuildingBlock: TEMPAE_clean_linker_10, # of connection points: 2
#     Edge 18, Type (0, 1), BuildingBlock: TEMPAE_clean_linker_10, # of connection points: 2
#     Edge 19, Type (0, 1), BuildingBlock: TEMPAE_clean_linker_10, # of connection points: 2
#     Edge 20, Type (0, 1), BuildingBlock: TEMPAE_clean_linker_10, # of connection points: 2
#     Edge 21, Type (0, 1), BuildingBlock: TEMPAE_clean_linker_10, # of connection points: 2
#     Edge 22, Type (0, 1), BuildingBlock: TEMPAE_clean_linker_10, # of connection points: 2
#     Edge 23, Type (0, 1), BuildingBlock: TEMPAE_clean_linker_10, # of connection points: 2
#     Edge 24, Type (0, 1), BuildingBlock: TEMPAE_clean_linker_10, # of connection points: 2
#     Edge 25, Type (0, 1), BuildingBlock: TEMPAE_clean_linker_10, # of connection points: 2
#     Edge 26, Type (0, 1), BuildingBlock: TEMPAE_clean_linker_10, # of connection points: 2
#     Edge 27, Type (0, 1), BuildingBlock: TEMPAE_clean_linker_10, # of connection points: 2
#     Edge 28, Type (0, 1), BuildingBlock: TEMPAE_clean_linker_10, # of connection points: 2
#     Edge 29, Type (0, 1), BuildingBlock: TEMPAE_clean_linker_10, # of connection points: 2
#     Edge 30, Type (0, 1), BuildingBlock: TEMPAE_clean_linker_10, # of connection points: 2
#     Edge 31, Type (0, 1), BuildingBlock: TEMPAE_clean_linker_10, # of connection points: 2
#     Edge 32, Type (0, 1), BuildingBlock: TEMPAE_clean_linker_10, # of connection points: 2
#     Edge 33, Type (0, 1), BuildingBlock: TEMPAE_clean_linker_10, # of connection points: 2
#     Edge 34, Type (0, 1), BuildingBlock: TEMPAE_clean_linker_10, # of connection points: 2
#     Edge 35, Type (0, 1), BuildingBlock: TEMPAE_clean_linker_10, # of connection points: 2
# Relax obj value: 0.040
# Max RMSD: 0.089
# Mean RMSD: 0.030
data_MOF--net-pyr--node1-WUSLED_clean_sbu_0--node2-JUFBIX_clean_sbu_0--edge1-TEMPAE_clean_linker_10
_symmetry_space_group_name_H-M    P1
_symmetry_Int_Tables_number       1
_symmetry_cell_setting            triclinic
loop_
_symmetry_equiv_pos_as_xyz
'x, y, z'
_cell_length_a     49.563158
_cell_length_b     47.270284
_cell_length_c     49.45079
_cell_angle_alpha  86.124549
_cell_angle_beta   90.876925
_cell_angle_gamma 92.623022
loop_
_atom_site_label
_atom_site_type_symbol
_atom_site_fract_x
_atom_site_fract_y
_atom_site_fract_z
_atom_type_partial_charge
C0 C 0.12445 0.2139 0.11076 0.0
C1 C 0.1048 0.22625 0.12596 0.0
C2 C 0.09859 0.26478 0.09005 0.0
C3 C 0.09207 0.25121 0.11577 0.0
C4 C 0.1178 0.25161 0.07481 0.0
C5 C 0.13044 0.22687 0.08499 0.0
U6 U 0.15904 0.14274 0.1477 0.0
O7 O 0.17868 0.11344 0.12114 0.0
O8 O 0.20394 0.14021 0.14712 0.0
C9 C 0.20329 0.12135 0.12874 0.0
C10 C 0.1398 0.18833 0.12097 0.0
C11 C 0.2286 0.10911 0.11787 0.0
C12 C 0.25608 0.09566 0.07975 0.0
C13 C 0.23169 0.10526 0.09002 0.0
C14 C 0.27485 0.09242 0.12492 0.0
C15 C 0.27848 0.08918 0.09692 0.0
C16 C 0.25066 0.10239 0.13507 0.0
C17 C 0.12314 0.10808 0.21891 0.0
C18 C 0.12814 0.08558 0.26499 0.0
C19 C 0.08398 0.09846 0.2489 0.0
C20 C 0.09519 0.10863 0.22366 0.0
C21 C 0.10021 0.08684 0.27037 0.0
C22 C 0.13935 0.09627 0.23999 0.0
C23 C 0.13551 0.12087 0.19278 0.0
O24 O 0.15733 0.18964 0.14111 0.0
O25 O 0.13171 0.16228 0.11605 0.0
O26 O 0.1283 0.11299 0.16858 0.0
O27 O 0.15558 0.14004 0.19259 0.0
H28 H 0.0995 0.21684 0.14585 0.0
H29 H 0.0776 0.2602 0.12851 0.0
H30 H 0.12321 0.26026 0.05472 0.0
H31 H 0.14531 0.21794 0.07261 0.0
H32 H 0.2575 0.09401 0.0581 0.0
H33 H 0.21542 0.11042 0.07593 0.0
H34 H 0.29076 0.08713 0.13935 0.0
H35 H 0.24922 0.10477 0.15662 0.0
H36 H 0.14165 0.07619 0.28007 0.0
H37 H 0.06256 0.10045 0.25165 0.0
H38 H 0.082 0.11772 0.20805 0.0
H39 H 0.16089 0.0952 0.23713 0.0
C40 C 0.33595 0.87838 0.58756 0.0
C41 C 0.32324 0.89057 0.60886 0.0
C42 C 0.28681 0.90486 0.57827 0.0
C43 C 0.29873 0.9036 0.60425 0.0
C44 C 0.30017 0.89368 0.55682 0.0
C45 C 0.32456 0.88047 0.56148 0.0
U46 U 0.39999 0.86352 0.62813 0.0
O47 O 0.41661 0.82308 0.64292 0.0
O48 O 0.43992 0.85204 0.61447 0.0
C49 C 0.43788 0.82677 0.6273 0.0
C50 C 0.36049 0.86254 0.59242 0.0
C51 C 0.44362 0.8027 0.6113 0.0
C52 C 0.42852 0.76198 0.58669 0.0
C53 C 0.42277 0.78673 0.59905 0.0
C54 C 0.47611 0.77001 0.59711 0.0
C55 C 0.4552 0.75322 0.58608 0.0
C56 C 0.47032 0.79452 0.60975 0.0
C57 C 0.41625 0.90932 0.68853 0.0
C58 C 0.44599 0.89816 0.72695 0.0
C59 C 0.42617 0.94418 0.72151 0.0
C60 C 0.41318 0.93635 0.69775 0.0
C61 C 0.4423 0.92502 0.73643 0.0
C62 C 0.43314 0.89036 0.70295 0.0
C63 C 0.40021 0.90104 0.66488 0.0
O64 O 0.38338 0.87715 0.58802 0.0
O65 O 0.36069 0.8459 0.61482 0.0
O66 O 0.38705 0.87625 0.6676 0.0
O67 O 0.41163 0.9061 0.64113 0.0
H68 H 0.33198 0.88948 0.6291 0.0
H69 H 0.28897 0.91248 0.62101 0.0
H70 H 0.29131 0.8943 0.53663 0.0
H71 H 0.33422 0.87131 0.54483 0.0
H72 H 0.41215 0.74937 0.57809 0.0
H73 H 0.40202 0.7929 0.59979 0.0
H74 H 0.49678 0.7635 0.59702 0.0
H75 H 0.48661 0.80662 0.61907 0.0
H76 H 0.45831 0.8831 0.73838 0.0
H77 H 0.42288 0.96486 0.72876 0.0
H78 H 0.40013 0.95115 0.68694 0.0
H79 H 0.43577 0.8694 0.69607 0.0
C80 C 0.6151 0.41399 0.80951 0.0
C81 C 0.62786 0.4388 0.79739 0.0
C82 C 0.59618 0.43819 0.75838 0.0
C83 C 0.61844 0.45081 0.77213 0.0
C84 C 0.58324 0.41385 0.77124 0.0
C85 C 0.59259 0.402 0.7962 0.0
U86 U 0.65534 0.3872 0.87839 0.0
O87 O 0.6335 0.3659 0.9135 0.0
O88 O 0.65948 0.34141 0.88918 0.0
C89 C 0.64335 0.34106 0.91004 0.0
C90 C 0.62446 0.39887 0.83528 0.0
C91 C 0.62684 0.31451 0.9176 0.0
C92 C 0.58901 0.2798 0.91258 0.0
C93 C 0.60265 0.30597 0.90447 0.0
C94 C 0.6231 0.27101 0.94716 0.0
C95 C 0.59937 0.26163 0.93382 0.0
C96 C 0.63655 0.2968 0.93911 0.0
C97 C 0.72429 0.42595 0.9052 0.0
C98 C 0.75254 0.42538 0.94662 0.0
C99 C 0.76933 0.44978 0.90541 0.0
C100 C 0.74516 0.4423 0.89192 0.0
C101 C 0.77358 0.44145 0.93292 0.0
C102 C 0.72819 0.41759 0.9329 0.0
C103 C 0.69901 0.41947 0.88907 0.0
O104 O 0.64549 0.38295 0.83499 0.0
O105 O 0.62088 0.40951 0.8588 0.0
O106 O 0.67515 0.42284 0.89942 0.0
O107 O 0.69888 0.3985 0.87292 0.0
H108 H 0.64525 0.44862 0.80716 0.0
H109 H 0.62908 0.46952 0.76306 0.0
H110 H 0.56568 0.40375 0.76203 0.0
H111 H 0.58222 0.383 0.80507 0.0
H112 H 0.57079 0.27348 0.90177 0.0
H113 H 0.59452 0.31923 0.88787 0.0
H114 H 0.63149 0.25834 0.96403 0.0
H115 H 0.65496 0.30289 0.94976 0.0
H116 H 0.75514 0.41841 0.96778 0.0
H117 H 0.78482 0.46233 0.89424 0.0
H118 H 0.74274 0.44945 0.87077 0.0
H119 H 0.71256 0.40505 0.94386 0.0
C120 C 0.85302 0.59478 0.42997 0.0
C121 C 0.84581 0.61266 0.45002 0.0
C122 C 0.80387 0.58476 0.45692 0.0
C123 C 0.82122 0.60763 0.46348 0.0
C124 C 0.81157 0.56647 0.43759 0.0
C125 C 0.83603 0.57143 0.42422 0.0
U126 U 0.91599 0.64049 0.40861 0.0
O127 O 0.95404 0.62729 0.39178 0.0
O128 O 0.92802 0.65595 0.36756 0.0
C129 C 0.94919 0.64018 0.36791 0.0
C130 C 0.87671 0.60143 0.41296 0.0
C131 C 0.95146 0.62305 0.34435 0.0
C132 C 0.93103 0.59332 0.3106 0.0
C133 C 0.92928 0.60672 0.33489 0.0
C134 C 0.97755 0.61095 0.30599 0.0
C135 C 0.95509 0.59572 0.29578 0.0
C136 C 0.97568 0.62462 0.33002 0.0
C137 C 0.93395 0.70648 0.44974 0.0
C138 C 0.96915 0.74352 0.44123 0.0
C139 C 0.93466 0.7491 0.47443 0.0
C140 C 0.92308 0.72258 0.4693 0.0
C141 C 0.95748 0.76009 0.46016 0.0
C142 C 0.9573 0.71684 0.43587 0.0
C143 C 0.91916 0.67998 0.44355 0.0
O144 O 0.87541 0.62477 0.39711 0.0
O145 O 0.90044 0.59838 0.42476 0.0
O146 O 0.93213 0.6563 0.44684 0.0
O147 O 0.90374 0.68141 0.42171 0.0
H148 H 0.85869 0.63092 0.45452 0.0
H149 H 0.81531 0.62207 0.47821 0.0
H150 H 0.79817 0.54892 0.43217 0.0
H151 H 0.84124 0.55762 0.40867 0.0
H152 H 0.91354 0.58149 0.30314 0.0
H153 H 0.91043 0.60507 0.34582 0.0
H154 H 0.99621 0.61325 0.29476 0.0
H155 H 0.99294 0.63715 0.337 0.0
H156 H 0.98674 0.75162 0.42994 0.0
H157 H 0.92547 0.76132 0.48932 0.0
H158 H 0.90511 0.71489 0.48021 0.0
H159 H 0.96591 0.70468 0.42061 0.0
C160 C 0.89767 0.80989 0.91521 0.0
C161 C 0.90939 0.79223 0.89713 0.0
C162 C 0.92382 0.75893 0.93481 0.0
C163 C 0.92217 0.76711 0.9068 0.0
C164 C 0.91271 0.77701 0.95277 0.0
C165 C 0.89981 0.80186 0.94314 0.0
U166 U 0.86308 0.87989 0.87685 0.0
O167 O 0.81819 0.88379 0.87611 0.0
O168 O 0.84364 0.91162 0.90071 0.0
C169 C 0.81903 0.90472 0.89235 0.0
C170 C 0.8808 0.83492 0.90624 0.0
C171 C 0.79404 0.91443 0.90614 0.0
C172 C 0.76505 0.91952 0.94579 0.0
C173 C 0.78893 0.90989 0.93421 0.0
C174 C 0.75085 0.93861 0.9018 0.0
C175 C 0.74526 0.93387 0.92973 0.0
C176 C 0.7746 0.9292 0.89038 0.0
C177 C 0.90047 0.91167 0.80527 0.0
C178 C 0.89938 0.94346 0.76359 0.0
C179 C 0.9361 0.91217 0.77089 0.0
C180 C 0.92486 0.90185 0.79603 0.0
C181 C 0.9237 0.93326 0.75376 0.0
C182 C 0.88794 0.93273 0.78861 0.0
C183 C 0.88818 0.89901 0.83158 0.0
O184 O 0.88909 0.86117 0.91019 0.0
O185 O 0.86366 0.83324 0.88579 0.0
O186 O 0.86808 0.87988 0.83211 0.0
O187 O 0.89445 0.90835 0.85545 0.0
H188 H 0.90825 0.79752 0.87551 0.0
H189 H 0.93066 0.75393 0.8923 0.0
H190 H 0.91324 0.77146 0.97438 0.0
H191 H 0.89073 0.81453 0.95771 0.0
H192 H 0.7618 0.91516 0.9673 0.0
H193 H 0.80325 0.89869 0.94722 0.0
H194 H 0.73681 0.94993 0.88857 0.0
H195 H 0.77781 0.93357 0.86886 0.0
H196 H 0.88895 0.96001 0.75216 0.0
H197 H 0.95437 0.90283 0.76485 0.0
H198 H 0.93514 0.8856 0.80815 0.0
H199 H 0.86918 0.94099 0.79492 0.0
C200 C 0.5807 0.14385 0.33914 0.0
C201 C 0.59983 0.12524 0.33091 0.0
C202 C 0.57066 0.11285 0.29289 0.0
C203 C 0.59485 0.10986 0.30794 0.0
C204 C 0.55155 0.13132 0.30155 0.0
C205 C 0.55653 0.14658 0.32445 0.0
U206 U 0.6238 0.16373 0.39983 0.0
O207 O 0.63674 0.20524 0.41405 0.0
O208 O 0.61245 0.17508 0.4405 0.0
C209 C 0.6239 0.2007 0.4371 0.0
C210 C 0.5858 0.1611 0.36252 0.0
C211 C 0.60807 0.22419 0.44509 0.0
C212 C 0.57592 0.26084 0.43487 0.0
C213 C 0.58842 0.23644 0.42779 0.0
C214 C 0.60192 0.26019 0.47684 0.0
C215 C 0.583 0.27303 0.45924 0.0
C216 C 0.61432 0.23588 0.46983 0.0
C217 C 0.68837 0.12196 0.41242 0.0
C218 C 0.72152 0.12747 0.44859 0.0
C219 C 0.72903 0.09563 0.41326 0.0
C220 C 0.70455 0.10256 0.40111 0.0
C221 C 0.73773 0.10771 0.43728 0.0
C222 C 0.69691 0.13461 0.43617 0.0
C223 C 0.66309 0.12872 0.39834 0.0
O224 O 0.58384 0.14737 0.38648 0.0
O225 O 0.60689 0.17897 0.36046 0.0
O226 O 0.66319 0.15338 0.38441 0.0
O227 O 0.64075 0.12252 0.41189 0.0
H228 H 0.61864 0.1228 0.34211 0.0
H229 H 0.60989 0.09564 0.302 0.0
H230 H 0.53295 0.13457 0.29024 0.0
H231 H 0.5416 0.1609 0.33048 0.0
H232 H 0.56148 0.27074 0.42099 0.0
H233 H 0.58343 0.2277 0.40855 0.0
H234 H 0.60771 0.26953 0.49561 0.0
H235 H 0.62949 0.22672 0.48334 0.0
H236 H 0.72768 0.13711 0.4671 0.0
H237 H 0.74131 0.08098 0.40356 0.0
H238 H 0.69831 0.09286 0.38264 0.0
H239 H 0.6846 0.14986 0.44502 0.0
C240 C 0.29793 0.60337 0.13067 0.0
C241 C 0.29266 0.61627 0.10465 0.0
C242 C 0.24907 0.58899 0.10153 0.0
C243 C 0.26856 0.60901 0.09018 0.0
C244 C 0.25474 0.57615 0.12736 0.0
C245 C 0.2787 0.58309 0.14151 0.0
U246 U 0.36721 0.64049 0.15899 0.0
O247 O 0.37691 0.64396 0.20259 0.0
O248 O 0.401 0.61704 0.17867 0.0
C249 C 0.39758 0.62755 0.20227 0.0
C250 C 0.32282 0.60956 0.14757 0.0
C251 C 0.40712 0.61234 0.22804 0.0
C252 C 0.40299 0.57657 0.26632 0.0
C253 C 0.39313 0.58897 0.24139 0.0
C254 C 0.44068 0.61074 0.26497 0.0
C255 C 0.42697 0.58735 0.27876 0.0
C256 C 0.43104 0.62277 0.24013 0.0
C257 C 0.40005 0.71108 0.11998 0.0
C258 C 0.42733 0.75349 0.13103 0.0
C259 C 0.41636 0.74583 0.08429 0.0
C260 C 0.40238 0.72027 0.09248 0.0
C261 C 0.42886 0.76322 0.10335 0.0
C262 C 0.41302 0.72782 0.13927 0.0
C263 C 0.38139 0.68593 0.12713 0.0
O264 O 0.34681 0.60506 0.13815 0.0
O265 O 0.32316 0.63099 0.1632 0.0
O266 O 0.36557 0.68653 0.14816 0.0
O267 O 0.38937 0.66035 0.12339 0.0
H268 H 0.30699 0.63197 0.09558 0.0
H269 H 0.2649 0.61948 0.07039 0.0
H270 H 0.24053 0.56049 0.1367 0.0
H271 H 0.28218 0.5725 0.1613 0.0
H272 H 0.39178 0.55841 0.27568 0.0
H273 H 0.37459 0.58038 0.23266 0.0
H274 H 0.45869 0.62053 0.27358 0.0
H275 H 0.44223 0.64084 0.23049 0.0
H276 H 0.43699 0.76582 0.14643 0.0
H277 H 0.41641 0.75241 0.0629 0.0
H278 H 0.39239 0.70808 0.07714 0.0
H279 H 0.41164 0.72142 0.16066 0.0
C280 C 0.06609 0.31518 0.60306 0.0
C281 C 0.08118 0.30855 0.58064 0.0
C282 C 0.05494 0.26381 0.57828 0.0
C283 C 0.07549 0.28303 0.56817 0.0
C284 C 0.03943 0.27117 0.60005 0.0
C285 C 0.04493 0.29657 0.61225 0.0
U286 U 0.10984 0.38161 0.61947 0.0
O287 O 0.09785 0.4216 0.63541 0.0
O288 O 0.1255 0.39406 0.6589 0.0
C289 C 0.11199 0.41737 0.65792 0.0
C290 C 0.0729 0.34005 0.61869 0.0
C291 C 0.09953 0.42386 0.68341 0.0
C292 C 0.06588 0.41561 0.71872 0.0
C293 C 0.07549 0.41012 0.69309 0.0
C294 C 0.10406 0.44864 0.72468 0.0
C295 C 0.08051 0.43448 0.73488 0.0
C296 C 0.11341 0.44343 0.69917 0.0
C297 C 0.17213 0.40401 0.57689 0.0
C298 C 0.20806 0.43699 0.59062 0.0
C299 C 0.21185 0.4128 0.54922 0.0
C300 C 0.18659 0.39936 0.55369 0.0
C301 C 0.22317 0.43113 0.56796 0.0
C302 C 0.18265 0.42337 0.59514 0.0
C303 C 0.14748 0.38643 0.5826 0.0
O304 O 0.09521 0.3386 0.6333 0.0
O305 O 0.06973 0.36522 0.60632 0.0
O306 O 0.12449 0.39918 0.57968 0.0
O307 O 0.14865 0.36915 0.60448 0.0
H308 H 0.09771 0.32266 0.57331 0.0
H309 H 0.08779 0.27778 0.55145 0.0
H310 H 0.02331 0.25689 0.60804 0.0
H311 H 0.03308 0.30132 0.62947 0.0
H312 H 0.04765 0.40447 0.7263 0.0
H313 H 0.06458 0.39484 0.68118 0.0
H314 H 0.11548 0.46347 0.73669 0.0
H315 H 0.13196 0.45422 0.69199 0.0
H316 H 0.21643 0.45097 0.6054 0.0
H317 H 0.22295 0.40822 0.53143 0.0
H318 H 0.17874 0.3845 0.53945 0.0
H319 H 0.17169 0.42714 0.61325 0.0
Co320 Co 0.99223 0.01552 0.50646 0.0
C321 C 1.01043 0.96032 0.50176 0.0
Co322 Co 0.0343 0.00862 0.51838 0.0
C323 C 0.94103 0.04075 0.49358 0.0
C324 C 0.9385 0.99547 0.49262 0.0
N325 N 0.95608 0.01761 0.49668 0.0
N326 N 0.91511 0.03364 0.48799 0.0
C327 C 0.9133 1.00534 0.48725 0.0
H328 H 0.94857 0.06229 0.49593 0.0
H329 H 0.94322 0.97334 0.49405 0.0
C330 C 0.01688 0.0642 0.52281 0.0
N331 N 0.0704 1.00719 0.52721 0.0
C332 C 0.08498 0.98582 0.53821 0.0
C333 C 0.08855 0.02907 0.52221 0.0
N334 N 0.11125 0.99399 0.5407 0.0
C335 C 0.11356 0.02112 0.53078 0.0
C336 C 0.02746 0.02611 0.4622 0.0
O337 O 0.99383 0.05429 0.51573 0.0
O338 O 0.03632 0.04774 0.52478 0.0
O339 O 0.04438 0.01757 0.48031 0.0
O340 O 1.00293 0.02787 0.46921 0.0
O341 O 0.03239 0.96948 0.51209 0.0
H342 H 0.08413 0.04937 0.51219 0.0
H343 H 0.07665 0.96476 0.54406 0.0
O344 O 0.99133 0.97697 0.49725 0.0
O345 O 0.98155 1.00311 0.54372 0.0
O346 O 0.02381 0.99936 0.55655 0.0
C347 C 0.99874 0.99759 0.56264 0.0
H348 H 0.89497 0.99281 0.48345 0.0
H349 H 0.13223 0.03388 0.52897 0.0
Co350 Co 0.50451 1.00811 0.9954 0.0
C351 C 0.50082 0.96124 0.03527 0.0
Co352 Co 0.52133 0.0159 0.03564 0.0
C353 C 0.49826 0.99701 0.93816 0.0
C354 C 0.4628 0.98669 0.96177 0.0
N355 N 0.48831 0.99784 0.96339 0.0
N356 N 0.47969 0.98607 0.9211 0.0
C357 C 0.45743 0.97961 0.93577 0.0
H358 H 0.51863 1.00398 0.93249 0.0
H359 H 0.44915 0.98317 0.97863 0.0
C360 C 0.52471 0.06292 0.99587 0.0
N361 N 0.53751 0.0265 0.06763 0.0
C362 C 0.52798 0.02672 0.0931 0.0
C363 C 0.56199 0.04025 0.06846 0.0
N364 N 0.54569 0.04015 0.10943 0.0
C365 C 0.56699 0.04872 0.09406 0.0
C366 C 0.56041 0.99578 0.99946 0.0
O367 O 0.51407 0.04552 0.9798 0.0
O368 O 0.52875 0.05425 0.02046 0.0
O369 O 0.557 1.0043 0.02309 0.0
O370 O 0.53978 0.99501 0.98364 0.0
O371 O 0.51384 0.97779 0.05062 0.0
H372 H 0.57487 0.0451 0.05115 0.0
H373 H 0.50809 0.0185 0.0992 0.0
O374 O 0.49483 0.97048 0.01125 0.0
O375 O 0.46948 0.02182 1.00716 0.0
O376 O 0.48537 0.02688 0.04802 0.0
C377 C 0.46537 0.02821 0.03138 0.0
H378 H 0.43884 0.96987 0.92825 0.0
H379 H 0.58449 0.06105 0.10076 0.0
Co380 Co 0.53455 0.52135 0.51243 0.0
C381 C 0.49541 0.52371 0.4692 0.0
Co382 Co 0.49383 0.50462 0.52313 0.0
C383 C 0.59242 0.5316 0.50657 0.0
C384 C 0.56873 0.5644 0.48759 0.0
N385 N 0.56673 0.53886 0.50156 0.0
N386 N 0.61012 0.55197 0.49657 0.0
C387 C 0.59542 0.57257 0.48462 0.0
H388 H 0.59801 0.51232 0.51795 0.0
H389 H 0.55177 0.57662 0.48053 0.0
C390 C 0.53284 0.50239 0.56654 0.0
N391 N 0.46178 0.48732 0.53471 0.0
C392 C 0.43605 0.49533 0.53179 0.0
C393 C 0.46039 0.46318 0.55094 0.0
N394 N 0.41894 0.47723 0.54605 0.0
C395 C 0.43413 0.45701 0.558 0.0
C396 C 0.52847 0.46533 0.50464 0.0
O397 O 0.54919 0.5125 0.54836 0.0
O398 O 0.50821 0.49802 0.55975 0.0
O399 O 0.50527 0.46891 0.51384 0.0
O400 O 0.54548 0.48614 0.50164 0.0
O401 O 0.47959 0.51147 0.48683 0.0
H402 H 0.47755 0.45116 0.55777 0.0
H403 H 0.43014 0.51444 0.52034 0.0
O404 O 0.51964 0.5301 0.47621 0.0
O405 O 0.52376 0.55651 0.52369 0.0
O406 O 0.48235 0.54038 0.53208 0.0
C407 C 0.50004 0.56065 0.53115 0.0
H408 H 0.60351 0.59213 0.47459 0.0
H409 H 0.42668 0.43913 0.57106 0.0
Co410 Co 0.01804 0.51113 0.99373 0.0
C411 C 0.96243 0.49691 1.00635 0.0
Co412 Co 1.00715 0.51537 0.03607 0.0
C413 C 0.03803 0.49242 0.94234 0.0
C414 C 1.00775 0.52339 0.93806 0.0
N415 N 0.02285 0.50891 0.95681 0.0
N416 N 0.03304 0.49669 0.91548 0.0
C417 C 0.01414 0.51612 0.91274 0.0
H418 H 0.05209 0.47745 0.95121 0.0
H419 H 0.99224 0.53771 0.94245 0.0
C420 C 0.06282 0.52979 0.02342 0.0
N421 N 1.00239 0.51782 0.07293 0.0
C422 C 0.98546 0.53242 0.08739 0.0
C423 C 0.01961 0.50617 0.09154 0.0
N424 N 0.99166 0.52995 0.1141 0.0
C425 C 0.01303 0.51356 0.11678 0.0
C426 C 0.02589 0.46048 0.02552 0.0
O427 O 0.05616 0.52264 0.99967 0.0
O428 O 0.04455 0.52882 0.04132 0.0
O429 O 0.01805 0.47628 0.04345 0.0
O430 O 0.02672 0.47092 1.00101 0.0
O431 O 0.96959 0.50163 0.03063 0.0
H432 H 0.03669 0.49395 0.08698 0.0
H433 H 0.9696 0.5452 0.07854 0.0
O434 O 0.98024 0.50005 0.98799 0.0
O435 O 1.00946 0.55111 0.9869 0.0
O436 O 0.99602 0.55472 0.02825 0.0
C437 C 0.99915 0.56606 1.00423 0.0
H438 H 1.00516 0.5239 0.89373 0.0
H439 H 0.02351 0.50801 0.13564 0.0
C440 C 0.06126 0.06681 0.30133 0.0
C441 C 0.08847 0.07671 0.29817 0.0
C442 C 0.05033 0.05766 0.32711 0.0
C443 C 0.06663 0.05839 0.35102 0.0
C444 C 0.09406 0.06807 0.348 0.0
C445 C 0.10446 0.07704 0.32206 0.0
C446 C 0.02109 0.04737 0.32858 0.0
C447 C 0.11266 0.06907 0.3724 0.0
C448 C 0.03261 0.06116 0.421 0.0
C449 C 0.03642 0.03396 0.43341 0.0
C450 C 0.04228 0.0693 0.39454 0.0
C451 C 0.05526 0.04955 0.37917 0.0
C452 C 0.05821 0.02167 0.39135 0.0
C453 C 0.04935 0.01448 0.41828 0.0
C454 C 0.03887 0.09935 0.38318 0.0
C455 C 0.06999 0.99901 0.37564 0.0
H456 H 0.04831 0.06577 0.28357 0.0
H457 H 0.12526 0.08493 0.32077 0.0
H458 H 0.01832 0.02883 0.34343 0.0
H459 H 1.00883 0.06458 0.33533 0.0
H460 H 0.01308 0.0414 0.30854 0.0
H461 H 0.13286 0.07894 0.36724 0.0
H462 H 0.10358 0.08118 0.38816 0.0
H463 H 0.11541 0.04721 0.38134 0.0
H464 H 0.02273 0.07646 0.43237 0.0
H465 H 0.05208 0.99326 0.42737 0.0
H466 H 0.02425 0.09937 0.36599 0.0
H467 H 0.05837 0.10874 0.37527 0.0
H468 H 0.03141 0.11307 0.39857 0.0
H469 H 0.0554 0.99302 0.35951 0.0
H470 H 0.07422 0.97965 0.38874 0.0
H471 H 0.08892 1.00697 0.36551 0.0
C472 C 0.47546 0.9514 0.7649 0.0
C473 C 0.45307 0.93247 0.76305 0.0
C474 C 0.48391 0.96102 0.79006 0.0
C475 C 0.46926 0.95177 0.81364 0.0
C476 C 0.44683 0.93226 0.81177 0.0
C477 C 0.4391 0.92271 0.78644 0.0
C478 C 0.50806 0.98154 0.79138 0.0
C479 C 0.43027 0.9224 0.83631 0.0
C480 C 0.49635 0.95833 0.88525 0.0
C481 C 0.48217 0.98129 0.89305 0.0
C482 C 0.49347 0.94923 0.85884 0.0
C483 C 0.47614 0.96366 0.84007 0.0
C484 C 0.46314 0.98796 0.84758 0.0
C485 C 0.46623 0.99635 0.8741 0.0
C486 C 0.50747 0.92313 0.85159 0.0
C487 C 0.44473 1.00414 0.82813 0.0
H488 H 0.48601 0.95901 0.74659 0.0
H489 H 0.42152 0.9084 0.78472 0.0
H490 H 0.50208 1.00153 0.79966 0.0
H491 H 0.5236 0.97239 0.80533 0.0
H492 H 0.51724 0.98668 0.77119 0.0
H493 H 0.41442 0.90599 0.83167 0.0
H494 H 0.44349 0.91359 0.8528 0.0
H495 H 0.42031 0.94073 0.84408 0.0
H496 H 0.50824 0.9465 0.90031 0.0
H497 H 0.45517 0.01391 0.88058 0.0
H498 H 0.51851 0.92748 0.8323 0.0
H499 H 0.4922 0.90571 0.84843 0.0
H500 H 0.52191 0.91572 0.86765 0.0
H501 H 0.45598 0.01191 0.80968 0.0
H502 H 0.43622 0.0226 0.83724 0.0
H503 H 0.42777 0.98991 0.82165 0.0
C504 C 0.57696 0.43052 0.71141 0.0
C505 C 0.58667 0.4494 0.73056 0.0
C506 C 0.56754 0.44018 0.68548 0.0
C507 C 0.56798 0.46964 0.67784 0.0
C508 C 0.57759 0.48894 0.697 0.0
C509 C 0.5868 0.47867 0.72296 0.0
C510 C 0.55753 0.41864 0.66602 0.0
C511 C 0.57783 0.52054 0.69015 0.0
C512 C 0.56943 0.49142 0.6015 0.0
C513 C 0.54207 0.4954 0.5952 0.0
C514 C 0.57808 0.48345 0.62821 0.0
C515 C 0.55913 0.47994 0.64957 0.0
C516 C 0.53157 0.4848 0.64345 0.0
C517 C 0.52338 0.49203 0.61644 0.0
C518 C 0.60754 0.47815 0.63349 0.0
C519 C 0.51053 0.48178 0.66533 0.0
H520 H 0.57709 0.40787 0.71648 0.0
H521 H 0.59373 0.49366 0.73746 0.0
H522 H 0.5372 0.42382 0.658 0.0
H523 H 0.57129 0.41927 0.64848 0.0
H524 H 0.5564 0.3967 0.67565 0.0
H525 H 0.58688 0.53281 0.70667 0.0
H526 H 0.58934 0.5261 0.67132 0.0
H527 H 0.55686 0.52719 0.68628 0.0
H528 H 0.58407 0.49382 0.58536 0.0
H529 H 0.5022 0.49515 0.61198 0.0
H530 H 0.60975 0.45591 0.64164 0.0
H531 H 0.61578 0.49216 0.64903 0.0
H532 H 0.61983 0.48191 0.61489 0.0
H533 H 0.50704 0.45902 0.6719 0.0
H534 H 0.49096 0.49036 0.65824 0.0
H535 H 0.51762 0.49291 0.68335 0.0
C536 C 0.97671 0.5659 0.26317 0.0
C537 C 0.95644 0.58426 0.26878 0.0
C538 C 0.97971 0.55695 0.23694 0.0
C539 C 0.96248 0.56732 0.21574 0.0
C540 C 0.94175 0.58558 0.22143 0.0
C541 C 0.93875 0.59355 0.24801 0.0
C542 C 1.00171 0.53697 0.2318 0.0
C543 C 0.92327 0.59728 0.19927 0.0
C544 C 0.99222 0.5675 0.14555 0.0
C545 C 0.97983 0.54288 0.13603 0.0
C546 C 0.98589 0.57642 0.17109 0.0
C547 C 0.96695 0.56 0.18745 0.0
C548 C 0.95354 0.53576 0.17726 0.0
C549 C 0.96023 0.52748 0.15159 0.0
C550 C 1.00054 0.60246 0.18116 0.0
C551 C 0.9337 0.5173 0.19418 0.0
H552 H 0.99035 0.55875 0.27931 0.0
H553 H 0.92326 0.608 0.25237 0.0
H554 H 0.99332 0.51869 0.22092 0.0
H555 H 0.01734 0.54812 0.21869 0.0
H556 H 0.0116 0.52876 0.25087 0.0
H557 H 0.90883 0.61211 0.20684 0.0
H558 H 0.93537 0.60865 0.18288 0.0
H559 H 0.91166 0.57962 0.19016 0.0
H560 H 1.00794 0.57878 0.13358 0.0
H561 H 0.95144 0.50796 0.14429 0.0
H562 H 0.01425 0.59614 0.19824 0.0
H563 H 0.98591 0.61694 0.18892 0.0
H564 H 0.01275 0.61425 0.16506 0.0
H565 H 0.94493 0.50465 0.20998 0.0
H566 H 0.92171 0.50241 0.18176 0.0
H567 H 0.91963 0.53035 0.20467 0.0
C568 C 0.30687 0.06427 0.06252 0.0
C569 C 0.30544 0.07967 0.086 0.0
C570 C 0.33187 0.05531 0.05265 0.0
C571 C 0.35679 0.06173 0.06619 0.0
C572 C 0.35548 0.07745 0.08965 0.0
C573 C 0.33031 0.08605 0.09909 0.0
C574 C 0.33145 0.03842 0.02784 0.0
C575 C 0.38098 0.08586 0.10468 0.0
C576 C 0.42237 0.01999 0.05963 0.0
C577 C 0.43749 0.03661 0.03999 0.0
C578 C 0.39598 0.02714 0.06729 0.0
C579 C 0.3842 0.05238 0.05611 0.0
C580 C 0.39947 0.06922 0.03622 0.0
C581 C 0.42529 0.06085 0.02805 0.0
C582 C 0.38045 1.00731 0.0872 0.0
C583 C 0.38862 0.09626 0.02327 0.0
H584 H 0.28831 0.05864 0.05195 0.0
H585 H 0.33034 0.09844 0.11672 0.0
H586 H 0.34528 0.04868 0.01233 0.0
H587 H 0.3388 0.01693 0.03335 0.0
H588 H 0.31091 0.03618 0.01871 0.0
H589 H 0.37686 0.09721 0.12302 0.0
H590 H 0.39238 0.0668 0.11093 0.0
H591 H 0.39415 0.09983 0.09102 0.0
H592 H 0.431 1.00087 0.06867 0.0
H593 H 0.4363 0.0738 0.0126 0.0
H594 H 0.36083 1.00056 0.07798 0.0
H595 H 0.37589 0.01842 0.10553 0.0
H596 H 0.39168 0.98809 0.09347 0.0
H597 H 0.37363 0.09097 1.0073 0.0
H598 H 0.40489 0.11027 0.01367 0.0
H599 H 0.3783 0.10824 0.03833 0.0
C600 C 0.25525 0.93562 0.55129 0.0
C601 C 0.25994 0.91666 0.5737 0.0
C602 C 0.22966 0.94637 0.54639 0.0
C603 C 0.20839 0.93779 0.56432 0.0
C604 C 0.21294 0.9185 0.58684 0.0
C605 C 0.23875 0.90818 0.59132 0.0
C606 C 0.22549 0.96721 0.52232 0.0
C607 C 0.19051 0.9088 0.60613 0.0
C608 C 0.15286 0.98923 0.56691 0.0
C609 C 0.13333 0.97741 0.54986 0.0
C610 C 0.17709 0.97601 0.57247 0.0
C611 C 0.18181 0.95042 0.56045 0.0
C612 C 0.16162 0.93769 0.54406 0.0
C613 C 0.13737 0.95139 0.53902 0.0
C614 C 0.19807 0.99009 0.59022 0.0
C615 C 0.16619 0.91059 0.53063 0.0
H616 H 0.27171 0.94229 0.53779 0.0
H617 H 0.2423 0.89313 0.60839 0.0
H618 H 0.20873 0.95935 0.5093 0.0
H619 H 0.21968 0.98785 0.52938 0.0
H620 H 0.24392 0.97089 0.50983 0.0
H621 H 0.19761 0.89442 0.62319 0.0
H622 H 0.1816 0.92738 0.61456 0.0
H623 H 0.17415 0.89751 0.59501 0.0
H624 H 0.14938 0.0094 0.57516 0.0
H625 H 0.12226 0.94269 0.52545 0.0
H626 H 0.21627 0.99658 0.57814 0.0
H627 H 0.20441 0.97493 0.60697 0.0
H628 H 0.19053 0.00917 0.59908 0.0
H629 H 0.18055 0.91516 0.51373 0.0
H630 H 0.14715 0.90117 0.52228 0.0
H631 H 0.1753 0.8947 0.54512 0.0
C632 C 0.82452 0.44055 0.93528 0.0
C633 C 0.80039 0.44886 0.94633 0.0
C634 C 0.85013 0.44832 0.94627 0.0
C635 C 0.85218 0.46563 0.96867 0.0
C636 C 0.82783 0.47444 0.97976 0.0
C637 C 0.80235 0.46566 0.96876 0.0
C638 C 0.87509 0.43782 0.93383 0.0
C639 C 0.82869 0.4941 1.00258 0.0
C640 C 0.91862 0.46657 0.011 0.0
C641 C 0.93355 0.48972 0.99849 0.0
C642 C 0.89218 0.45871 1.00178 0.0
C643 C 0.8798 0.47475 0.97995 0.0
C644 C 0.89459 0.49875 0.96799 0.0
C645 C 0.92124 0.50548 0.97695 0.0
C646 C 0.87764 0.43281 0.01505 0.0
C647 C 0.88244 0.51726 0.94535 0.0
H648 H 0.82334 0.42771 0.91791 0.0
H649 H 0.78396 0.47275 0.97717 0.0
H650 H 0.88862 0.45602 0.92664 0.0
H651 H 0.88645 0.42499 0.94938 0.0
H652 H 0.87022 0.42466 0.91647 0.0
H653 H 0.80824 0.4975 1.01031 0.0
H654 H 0.84142 0.48559 0.0196 0.0
H655 H 0.83804 0.51497 0.99531 0.0
H656 H 0.92797 0.45396 0.02738 0.0
H657 H 0.93253 0.5234 0.96712 0.0
H658 H 0.87234 0.41738 0.99964 0.0
H659 H 0.85844 0.43884 0.02386 0.0
H660 H 0.88995 0.42218 0.03136 0.0
H661 H 0.88131 0.50573 0.92654 0.0
H662 H 0.89456 0.5374 0.94118 0.0
H663 H 0.86156 0.52242 0.95038 0.0
C664 C 0.77125 0.56483 0.49173 0.0
C665 C 0.77645 0.5814 0.46773 0.0
C666 C 0.7446 0.55866 0.50016 0.0
C667 C 0.72301 0.56918 0.48396 0.0
C668 C 0.72836 0.58657 0.46002 0.0
C669 C 0.75513 0.59247 0.4522 0.0
C670 C 0.73949 0.54022 0.52586 0.0
C671 C 0.70582 0.59841 0.44236 0.0
C672 C 0.65324 0.53326 0.48487 0.0
C673 C 0.63887 0.55273 0.49824 0.0
C674 C 0.68113 0.53762 0.48108 0.0
C675 C 0.69467 0.56171 0.49149 0.0
C676 C 0.68036 0.58031 0.50663 0.0
C677 C 0.65248 0.57566 0.50964 0.0
C678 C 0.69568 0.51773 0.46429 0.0
C679 C 0.69421 0.60591 0.5184 0.0
H680 H 0.78798 0.55613 0.50344 0.0
H681 H 0.75947 0.60513 0.43352 0.0
H682 H 0.72555 0.5505 0.53912 0.0
H683 H 0.72957 0.5197 0.52079 0.0
H684 H 0.75844 0.53585 0.53736 0.0
H685 H 0.71351 0.61126 0.42422 0.0
H686 H 0.69235 0.58084 0.43549 0.0
H687 H 0.69336 0.61195 0.45418 0.0
H688 H 0.64231 0.51582 0.47582 0.0
H689 H 0.64096 0.59056 0.51994 0.0
H690 H 0.71384 0.51001 0.47534 0.0
H691 H 0.70266 0.52928 0.4452 0.0
H692 H 0.68257 0.49915 0.45904 0.0
H693 H 0.71045 0.599 0.53271 0.0
H694 H 0.67997 0.61847 0.5293 0.0
H695 H 0.70386 0.61993 0.50207 0.0
C696 C 0.10055 0.31229 0.06143 0.0
C697 C 0.0862 0.29262 0.07929 0.0
C698 C 0.08975 0.33834 0.05145 0.0
C699 C 0.06386 0.34596 0.05959 0.0
C700 C 0.04897 0.32614 0.07718 0.0
C701 C 0.06014 0.30001 0.08668 0.0
C702 C 0.10654 0.35812 0.03254 0.0
C703 C 0.02095 0.33247 0.08585 0.0
C704 C 0.04863 0.42564 0.05881 0.0
C705 C 0.03515 0.43095 0.03384 0.0
C706 C 0.05806 0.39848 0.06715 0.0
C707 C 0.05314 0.37511 0.05081 0.0
C708 C 0.03874 0.38015 0.0259 0.0
C709 C 0.03056 0.40792 0.01748 0.0
C710 C 0.07375 0.3949 0.09346 0.0
C711 C 0.03207 0.3563 1.00781 0.0
H712 H 0.12076 0.30779 0.05556 0.0
H713 H 0.04817 0.28525 0.09979 0.0
H714 H 0.09459 0.36458 0.01419 0.0
H715 H 0.11246 0.37768 0.04279 0.0
H716 H 0.12512 0.3483 0.02607 0.0
H717 H 0.01183 0.31519 0.0996 0.0
H718 H 0.02153 0.3525 0.09635 0.0
H719 H 1.00768 0.33556 0.0677 0.0
H720 H 0.05249 0.44309 0.07169 0.0
H721 H 0.02002 0.41145 0.99827 0.0
H722 H 0.09393 0.38685 0.08961 0.0
H723 H 0.06312 0.37895 0.10748 0.0
H724 H 0.07654 0.41509 0.10364 0.0
H725 H 0.05012 0.35237 0.99586 0.0
H726 H 0.01532 0.36154 0.99342 0.0
H727 H 0.02634 0.33635 0.01989 0.0
C728 C 0.55832 0.22773 0.94297 0.0
C729 C 0.58653 0.23271 0.94196 0.0
C730 C 0.54666 0.20077 0.95169 0.0
C731 C 0.56347 0.17801 0.95956 0.0
C732 C 0.59186 0.1829 0.95848 0.0
C733 C 0.60291 0.20987 0.94961 0.0
C734 C 0.51632 0.19671 0.95291 0.0
C735 C 0.61073 0.15947 0.96649 0.0
C736 C 0.53859 0.11341 1.00507 0.0
C737 C 0.53306 0.09276 0.98632 0.0
C738 C 0.54753 0.14136 0.99663 0.0
C739 C 0.55165 0.14898 0.9687 0.0
C740 C 0.54595 0.12824 0.94968 0.0
C741 C 0.53645 0.10061 0.95865 0.0
C742 C 0.55294 0.16264 0.01771 0.0
C743 C 0.55029 0.1351 0.91978 0.0
H744 H 0.54531 0.24506 0.93747 0.0
H745 H 0.62466 0.21295 0.94845 0.0
H746 H 0.50932 0.1791 0.94043 0.0
H747 H 0.51015 0.19066 0.97407 0.0
H748 H 0.50592 0.21617 0.94567 0.0
H749 H 0.63226 0.16709 0.96627 0.0
H750 H 0.60596 0.15001 0.9871 0.0
H751 H 0.60796 0.14233 0.9523 0.0
H752 H 0.53594 0.10773 0.02651 0.0
H753 H 0.53235 0.08489 0.94397 0.0
H754 H 0.54076 0.18151 0.01305 0.0
H755 H 0.5745 0.17006 0.01731 0.0
H756 H 0.5481 0.15368 0.03851 0.0
H757 H 0.53626 0.15154 0.91217 0.0
H758 H 0.5469 0.11618 0.9078 0.0
H759 H 0.57116 0.14394 0.9162 0.0
C760 C 0.99459 0.79552 0.47159 0.0
C761 C 0.96762 0.7895 0.46423 0.0
C762 C 1.00336 0.82313 0.47771 0.0
C763 C 0.98478 0.84513 0.476 0.0
C764 C 0.95774 0.83921 0.46784 0.0
C765 C 0.9495 0.81147 0.46215 0.0
C766 C 0.03226 0.82868 0.48663 0.0
C767 C 0.93741 0.86213 0.46525 0.0
C768 C 0.99689 0.91056 0.51591 0.0
C769 C 1.00636 0.93053 0.49574 0.0
C770 C 0.99029 0.88247 0.50989 0.0
C771 C 0.99335 0.87434 0.48307 0.0
C772 C 1.0032 0.89458 0.46271 0.0
C773 C 1.00952 0.92256 0.46931 0.0
C774 C 0.97941 0.8617 0.53205 0.0
C775 C 1.00673 0.88677 0.43391 0.0
H776 H 1.00855 0.77847 0.47336 0.0
H777 H 0.92871 0.80685 0.45616 0.0
H778 H 0.0419 0.84605 0.47341 0.0
H779 H 0.03277 0.83576 0.50758 0.0
H780 H 0.04441 0.80955 0.48613 0.0
H781 H 0.91697 0.85379 0.45941 0.0
H782 H 0.93592 0.87228 0.48472 0.0
H783 H 0.94416 0.8789 0.44974 0.0
H784 H 0.99403 0.91715 0.53622 0.0
H785 H 0.01655 0.93835 0.45376 0.0
H786 H 0.9923 0.8431 0.5344 0.0
H787 H 0.95879 0.85374 0.52651 0.0
H788 H 0.9785 0.87136 0.55187 0.0
H789 H 0.02271 0.87114 0.43336 0.0
H790 H 0.01246 0.9055 0.42007 0.0
H791 H 0.98781 0.87658 0.42615 0.0
C792 C 0.48064 0.72361 0.55614 0.0
C793 C 0.46109 0.72551 0.576 0.0
C794 C 0.48734 0.69713 0.54758 0.0
C795 C 0.47462 0.67212 0.55976 0.0
C796 C 0.45505 0.674 0.58004 0.0
C797 C 0.44825 0.70074 0.58766 0.0
C798 C 0.50791 0.69591 0.52553 0.0
C799 C 0.44198 0.64771 0.5943 0.0
C800 C 0.47158 0.6024 0.52609 0.0
C801 C 0.49344 0.58891 0.53852 0.0
C802 C 0.46592 0.63008 0.532 0.0
C803 C 0.48186 0.64385 0.55165 0.0
C804 C 0.50389 0.63003 0.56443 0.0
C805 C 0.50983 0.6029 0.55715 0.0
C806 C 0.44298 0.6446 0.5172 0.0
C807 C 0.5211 0.6437 0.58587 0.0
H808 H 0.49057 0.74287 0.54725 0.0
H809 H 0.43351 0.7023 0.60341 0.0
H810 H 0.52536 0.6838 0.53328 0.0
H811 H 0.49885 0.68458 0.50842 0.0
H812 H 0.51545 0.71737 0.51773 0.0
H813 H 0.42693 0.65286 0.60944 0.0
H814 H 0.43176 0.63423 0.57938 0.0
H815 H 0.45773 0.63494 0.60482 0.0
H816 H 0.45938 0.59156 0.51124 0.0
H817 H 0.52692 0.5923 0.56647 0.0
H818 H 0.45039 0.6653 0.50749 0.0
H819 H 0.42715 0.64902 0.53176 0.0
H820 H 0.43364 0.63159 0.50135 0.0
H821 H 0.53448 0.66078 0.57617 0.0
H822 H 0.53401 0.6282 0.59716 0.0
H823 H 0.50833 0.65351 0.60058 0.0
C824 C 0.96312 0.94067 0.71964 0.0
C825 C 0.93571 0.94401 0.726 0.0
C826 C 0.9741 0.94934 0.69375 0.0
C827 C 0.95792 0.96283 0.67314 0.0
C828 C 0.9306 0.96718 0.67954 0.0
C829 C 0.91989 0.95747 0.70526 0.0
C830 C 1.00326 0.94391 0.6885 0.0
C831 C 0.91236 0.98201 0.65898 0.0
C832 C 0.99283 1.00651 0.61261 0.0
C833 C 0.98933 0.98852 0.59114 0.0
C834 C 0.98269 0.99867 0.63903 0.0
C835 C 0.96919 0.9717 0.64484 0.0
C836 C 0.96614 0.95332 0.62323 0.0
C837 C 0.97575 0.96204 0.59685 0.0
C838 C 0.98611 0.01956 0.6607 0.0
C839 C 0.95292 0.92408 0.62805 0.0
H840 H 0.97646 0.93132 0.7349 0.0
H841 H 0.89872 0.96021 0.7087 0.0
H842 H 1.00503 0.93335 0.66927 0.0
H843 H 0.01511 0.96438 0.68629 0.0
H844 H 0.01245 0.93047 0.70516 0.0
H845 H 0.8929 0.98722 0.66789 0.0
H846 H 0.92249 1.00193 0.65029 0.0
H847 H 0.90798 0.96819 0.64205 0.0
H848 H 1.003 0.02711 0.60858 0.0
H849 H 0.97288 0.94788 0.58059 0.0
H850 H 0.99967 0.01101 0.67701 0.0
H851 H 0.96635 0.02274 0.67004 0.0
H852 H 0.99478 0.04047 0.65264 0.0
H853 H 0.96453 0.9117 0.64375 0.0
H854 H 0.95175 0.91229 0.60935 0.0
H855 H 0.93221 0.92559 0.63583 0.0
C856 C 0.53947 0.0869 0.26149 0.0
C857 C 0.56553 0.09777 0.26766 0.0
C858 C 0.53364 0.07521 0.2366 0.0
C859 C 0.55442 0.074 0.21751 0.0
C860 C 0.58102 0.08385 0.22399 0.0
C861 C 0.58623 0.0957 0.24894 0.0
C862 C 0.50507 0.06491 0.2304 0.0
C863 C 0.60375 0.08298 0.2041 0.0
C864 C 0.54738 0.0271 0.15808 0.0
C865 C 0.54231 0.04716 0.13679 0.0
C866 C 0.55044 0.03528 0.18478 0.0
C867 C 0.54814 0.06417 0.19006 0.0
C868 C 0.54154 0.08419 0.16863 0.0
C869 C 0.53889 0.07541 0.14217 0.0
C870 C 0.55774 0.0134 0.20699 0.0
C871 C 0.53852 0.11509 0.17345 0.0
H872 H 0.52346 0.08788 0.27603 0.0
H873 H 0.60635 0.1043 0.25332 0.0
H874 H 0.49721 0.07717 0.21227 0.0
H875 H 0.50471 0.04231 0.22559 0.0
H876 H 0.49125 0.06703 0.24756 0.0
H877 H 0.62372 0.08864 0.21325 0.0
H878 H 0.60449 0.06153 0.19637 0.0
H879 H 0.60016 0.09813 0.18642 0.0
H880 H 0.55051 1.00539 0.15352 0.0
H881 H 0.5353 0.09079 0.12538 0.0
H882 H 0.54385 0.01393 0.22431 0.0
H883 H 0.57846 0.01839 0.21464 0.0
H884 H 0.55698 0.99158 0.19988 0.0
H885 H 0.52278 0.11711 0.18883 0.0
H886 H 0.53293 0.1278 0.15464 0.0
H887 H 0.55773 0.12429 0.18156 0.0
C888 C 0.41995 0.56221 0.32592 0.0
C889 C 0.4375 0.57513 0.30607 0.0
C890 C 0.42947 0.55226 0.35186 0.0
C891 C 0.45726 0.55567 0.35886 0.0
C892 C 0.4752 0.56812 0.3389 0.0
C893 C 0.46527 0.57722 0.31292 0.0
C894 C 0.40957 0.53858 0.37209 0.0
C895 C 0.50503 0.57197 0.34502 0.0
C896 C 0.47704 0.55899 0.4342 0.0
C897 C 0.48561 0.53156 0.4411 0.0
C898 C 0.46783 0.56701 0.4077 0.0
C899 C 0.46736 0.54724 0.38725 0.0
C900 C 0.47651 0.51956 0.39414 0.0
C901 C 0.48532 0.51203 0.42094 0.0
C902 C 0.45867 0.59678 0.40156 0.0
C903 C 0.47672 0.4977 0.37329 0.0
H904 H 0.3985 0.56043 0.32156 0.0
H905 H 0.47956 0.58603 0.29794 0.0
H906 H 0.41679 0.51787 0.3805 0.0
H907 H 0.40791 0.55229 0.38928 0.0
H908 H 0.38917 0.53505 0.36299 0.0
H909 H 0.51621 0.58339 0.32798 0.0
H910 H 0.50828 0.584 0.36339 0.0
H911 H 0.51379 0.55094 0.34934 0.0
H912 H 0.47744 0.57422 0.44967 0.0
H913 H 0.49214 0.49085 0.42613 0.0
H914 H 0.43749 0.59609 0.39396 0.0
H915 H 0.47129 0.60769 0.38533 0.0
H916 H 0.45994 0.60954 0.41963 0.0
H917 H 0.45564 0.49076 0.36835 0.0
H918 H 0.48786 0.47874 0.38063 0.0
H919 H 0.48605 0.5069 0.35423 0.0
C920 C 0.04767 0.45002 0.76827 0.0
C921 C 0.07251 0.43874 0.76293 0.0
C922 C 0.04168 0.45738 0.79453 0.0
C923 C 0.06087 0.45286 0.81579 0.0
C924 C 0.08548 0.44038 0.81058 0.0
C925 C 0.09105 0.43361 0.78416 0.0
C926 C 0.01538 0.47106 0.7993 0.0
C927 C 0.10622 0.43489 0.83277 0.0
C928 C 0.05868 0.50093 0.87384 0.0
C929 C 0.04445 0.48372 0.89331 0.0
C930 C 0.06476 0.49088 0.84878 0.0
C931 C 0.05609 0.46294 0.84304 0.0
C932 C 0.04259 0.44502 0.86316 0.0
C933 C 0.0369 0.45569 0.88821 0.0
C934 C 0.07934 0.51067 0.82803 0.0
C935 C 0.03285 0.4152 0.8577 0.0
H936 H 0.03349 0.45418 0.75173 0.0
H937 H 0.11021 0.42472 0.77993 0.0
H938 H 1.00439 0.45931 0.81624 0.0
H939 H 0.01954 0.49307 0.80525 0.0
H940 H 1.00207 0.47178 0.78101 0.0
H941 H 0.12444 0.42518 0.8253 0.0
H942 H 0.11256 0.45505 0.84179 0.0
H943 H 0.0972 0.42051 0.84921 0.0
H944 H 0.06394 0.52275 0.87794 0.0
H945 H 0.02523 0.44279 0.90319 0.0
H946 H 0.06567 0.51545 0.8105 0.0
H947 H 0.09713 0.50046 0.82031 0.0
H948 H 0.08628 0.53101 0.83644 0.0
H949 H 0.01534 0.41607 0.84346 0.0
H950 H 0.02647 0.40271 0.87653 0.0
H951 H 0.04886 0.4039 0.84797 0.0
C952 C 0.71765 0.95658 0.96605 0.0
C953 C 0.71872 0.94334 0.94135 0.0
C954 C 0.69304 0.96635 0.9761 0.0
C955 C 0.668 0.96195 0.96196 0.0
C956 C 0.66902 0.94814 0.93728 0.0
C957 C 0.69398 0.9396 0.92724 0.0
C958 C 0.69413 0.98152 1.00198 0.0
C959 C 0.64348 0.94213 0.9213 0.0
C960 C 0.59985 0.96228 1.00087 0.0
C961 C 0.58814 0.9874 0.99038 0.0
C962 C 0.62544 0.95391 0.99202 0.0
C963 C 0.64083 0.97135 0.97266 0.0
C964 C 0.62945 0.99732 0.96282 0.0
C965 C 0.60342 1.0047 0.97136 0.0
C966 C 0.63593 0.92606 1.00339 0.0
C967 C 0.64523 0.01804 0.94391 0.0
H968 H 0.73629 0.96004 0.97734 0.0
H969 H 0.69398 0.92932 0.90831 0.0
H970 H 0.6796 0.99875 1.00135 0.0
H971 H 0.68876 0.96619 0.01923 0.0
H972 H 0.7147 0.99076 1.00597 0.0
H973 H 0.64693 0.9287 0.90419 0.0
H974 H 0.62792 0.93128 0.93472 0.0
H975 H 0.63527 0.96239 0.91296 0.0
H976 H 0.58866 0.94873 0.01574 0.0
H977 H 0.59515 0.02447 0.96344 0.0
H978 H 0.65364 0.93016 0.01676 0.0
H979 H 0.64273 0.91352 0.98678 0.0
H980 H 0.62045 0.91317 0.01538 0.0
H981 H 0.66271 0.02724 0.95516 0.0
H982 H 0.63279 0.03564 0.93558 0.0
H983 H 0.65342 1.00723 0.92682 0.0
C984 C 0.77148 0.07138 0.44965 0.0
C985 C 0.76384 0.09958 0.44987 0.0
C986 C 0.79735 0.0637 0.45791 0.0
C987 C 0.81575 0.08456 0.46755 0.0
C988 C 0.80774 0.11267 0.46947 0.0
C989 C 0.78187 0.11998 0.46031 0.0
C990 C 0.80523 0.03346 0.45541 0.0
C991 C 0.82685 0.13522 0.48012 0.0
C992 C 0.87418 0.05169 0.50548 0.0
C993 C 0.89309 0.05183 0.48484 0.0
C994 C 0.84943 0.06431 0.50076 0.0
C995 C 0.84363 0.07679 0.47463 0.0
C996 C 0.86349 0.07841 0.45421 0.0
C997 C 0.88821 0.06592 0.45969 0.0
C998 C 0.82881 0.06244 0.52304 0.0
C999 C 0.85783 0.09108 0.42596 0.0
H1000 H 0.75737 0.05534 0.44237 0.0
H1001 H 0.77618 0.14183 0.46042 0.0
H1002 H 0.82274 0.03316 0.44172 0.0
H1003 H 0.81153 0.0239 0.47548 0.0
H1004 H 0.78848 0.01994 0.44732 0.0
H1005 H 0.81619 0.15446 0.48475 0.0
H1006 H 0.83749 0.12698 0.49873 0.0
H1007 H 0.84243 0.14147 0.46471 0.0
H1008 H 0.87834 0.04043 0.52481 0.0
H1009 H 0.90304 0.06542 0.44386 0.0
H1010 H 0.81214 0.0471 0.51811 0.0
H1011 H 0.81987 0.08333 0.52474 0.0
H1012 H 0.8377 0.05537 0.54298 0.0
H1013 H 0.84309 0.07693 0.41563 0.0
H1014 H 0.8764 0.09379 0.41358 0.0
H1015 H 0.8487 0.11199 0.42673 0.0
C1016 C 0.19791 0.58442 0.10082 0.0
C1017 C 0.22244 0.58177 0.08749 0.0
C1018 C 0.17267 0.57648 0.08906 0.0
C1019 C 0.17144 0.56451 0.06343 0.0
C1020 C 0.19623 0.56152 0.04992 0.0
C1021 C 0.22122 0.5706 0.0618 0.0
C1022 C 0.14722 0.58077 0.10433 0.0
C1023 C 0.19647 0.54837 0.02297 0.0
C1024 C 0.10626 0.51954 0.04888 0.0
C1025 C 0.09155 0.53781 0.03122 0.0
C1026 C 0.13246 0.52745 0.05853 0.0
C1027 C 0.14431 0.55483 0.05125 0.0
C1028 C 0.12947 0.57332 0.03328 0.0
C1029 C 0.10355 0.56455 0.02336 0.0
C1030 C 0.14745 0.50641 0.07673 0.0
C1031 C 0.14059 0.60286 0.02527 0.0
H1032 H 0.19846 0.59295 0.12064 0.0
H1033 H 0.23993 0.56809 0.05134 0.0
H1034 H 0.13259 0.5923 0.09097 0.0
H1035 H 0.13751 0.55987 0.11085 0.0
H1036 H 0.15124 0.59286 0.12257 0.0
H1037 H 0.21713 0.54305 0.01727 0.0
H1038 H 0.18321 0.52878 0.0234 0.0
H1039 H 0.18849 0.56344 1.00697 0.0
H1040 H 0.09715 0.49893 0.05528 0.0
H1041 H 0.09224 0.57904 1.01013 0.0
H1042 H 0.15099 0.51484 0.09693 0.0
H1043 H 0.16753 0.50318 0.06809 0.0
H1044 H 0.13625 0.48553 0.07945 0.0
H1045 H 0.14329 0.61507 0.0436 0.0
H1046 H 0.12714 0.61451 1.01066 0.0
H1047 H 0.16075 0.60193 0.01603 0.0
C1048 C 0.25892 0.47061 0.56696 0.0
C1049 C 0.25152 0.44187 0.56476 0.0
C1050 C 0.28586 0.48054 0.56325 0.0
C1051 C 0.30561 0.46117 0.55753 0.0
C1052 C 0.29822 0.43211 0.55558 0.0
C1053 C 0.27127 0.42285 0.55923 0.0
C1054 C 0.29322 0.51167 0.5653 0.0
C1055 C 0.31884 0.41064 0.55017 0.0
C1056 C 0.3735 0.48228 0.5264 0.0
C1057 C 0.39044 0.47877 0.54913 0.0
C1058 C 0.34541 0.47811 0.52896 0.0
C1059 C 0.33438 0.47067 0.55488 0.0
C1060 C 0.35145 0.46902 0.57806 0.0
C1061 C 0.37931 0.47314 0.57484 0.0
C1062 C 0.32775 0.47971 0.50381 0.0
C1063 C 0.34048 0.46121 0.60604 0.0
H1064 H 0.24361 0.48531 0.57118 0.0
H1065 H 0.26565 0.40052 0.5581 0.0
H1066 H 0.3091 0.51444 0.58108 0.0
H1067 H 0.30172 0.52077 0.54581 0.0
H1068 H 0.27557 0.52392 0.57029 0.0
H1069 H 0.30944 0.38916 0.54771 0.0
H1070 H 0.33028 0.41746 0.53157 0.0
H1071 H 0.33362 0.40915 0.56724 0.0
H1072 H 0.38236 0.48646 0.50654 0.0
H1073 H 0.39268 0.47081 0.59233 0.0
H1074 H 0.31077 0.49371 0.50655 0.0
H1075 H 0.31883 0.45829 0.50027 0.0
H1076 H 0.33918 0.48777 0.48551 0.0
H1077 H 0.32535 0.47653 0.61112 0.0
H1078 H 0.3566 0.46095 0.6219 0.0
H1079 H 0.33007 0.43989 0.60658 0.0
C1080 C 0.95831 0.73088 0.96338 0.0
C1081 C 0.93601 0.73126 0.94535 0.0
C1082 C 0.96958 0.70504 0.97357 0.0
C1083 C 0.95794 0.67841 0.96646 0.0
C1084 C 0.93503 0.67878 0.94873 0.0
C1085 C 0.92474 0.70492 0.93816 0.0
C1086 C 0.99444 0.70634 0.99149 0.0
C1087 C 0.92095 0.65138 0.94129 0.0
C1088 C 0.99779 0.60947 0.97068 0.0
C1089 C 0.98986 0.59565 0.99567 0.0
C1090 C 0.98832 0.63643 0.9615 0.0
C1091 C 0.96968 0.65025 0.97712 0.0
C1092 C 0.96172 0.63649 1.00247 0.0
C1093 C 0.97208 0.60982 0.0115 0.0
C1094 C 0.99843 0.65022 0.93493 0.0
C1095 C 0.94214 0.64986 0.02028 0.0
H1096 H 0.96729 0.75095 0.96919 0.0
H1097 H 0.90731 0.70473 0.92466 0.0
H1098 H 0.99153 0.69233 1.01022 0.0
H1099 H 0.01176 0.69851 0.98064 0.0
H1100 H 0.99973 0.72824 0.99724 0.0
H1101 H 0.90316 0.65498 0.92777 0.0
H1102 H 0.93518 0.63834 0.93098 0.0
H1103 H 0.91416 0.6389 0.95998 0.0
H1104 H 0.01158 0.59916 0.95812 0.0
H1105 H 0.96566 0.59971 0.0308 0.0
H1106 H 1.00836 0.67123 0.93834 0.0
H1107 H 0.98124 0.65397 0.92071 0.0
H1108 H 0.01307 0.63713 0.92518 0.0
H1109 H 0.95283 0.66726 0.03068 0.0
H1110 H 0.93348 0.63431 0.03601 0.0
H1111 H 0.92535 0.65918 1.00809 0.0
C1112 C 0.44074 0.81543 0.10969 0.0
C1113 C 0.44222 0.79168 0.09414 0.0
C1114 C 0.4514 0.84255 0.10034 0.0
C1115 C 0.46398 0.84646 0.07468 0.0
C1116 C 0.46612 0.82255 0.05912 0.0
C1117 C 0.4554 0.79566 0.06901 0.0
C1118 C 0.4484 0.86732 0.11761 0.0
C1119 C 0.47991 0.82528 0.03199 0.0
C1120 C 0.46628 0.9206 0.03767 0.0
C1121 C 0.49182 0.93181 0.04516 0.0
C1122 C 0.45698 0.89311 0.04723 0.0
C1123 C 0.47401 0.87569 0.06385 0.0
C1124 C 0.50027 0.8866 0.07058 0.0
C1125 C 0.50858 0.91469 0.06174 0.0
C1126 C 0.42872 0.88286 0.03979 0.0
C1127 C 0.51968 0.86866 0.08717 0.0
H1128 H 0.43043 0.8131 0.12892 0.0
H1129 H 0.45743 0.77764 0.05689 0.0
H1130 H 0.46833 0.87822 0.121 0.0
H1131 H 0.43533 0.88302 0.10687 0.0
H1132 H 0.43942 0.86072 0.13762 0.0
H1133 H 0.4785 0.80516 0.02156 0.0
H1134 H 0.47089 0.84217 0.01856 0.0
H1135 H 0.50155 0.83156 0.03488 0.0
H1136 H 0.45321 0.9337 0.02485 0.0
H1137 H 0.52847 0.92306 0.0673 0.0
H1138 H 0.4172 0.87638 0.05844 0.0
H1139 H 0.42949 0.86393 0.0278 0.0
H1140 H 0.41756 0.89938 0.02778 0.0
H1141 H 0.51269 0.86572 0.10841 0.0
H1142 H 0.54047 0.87851 0.08718 0.0
H1143 H 0.52035 0.8473 0.07923 0.0
C1144 C 0.05011 0.21127 0.58632 0.0
C1145 C 0.05057 0.23517 0.5679 0.0
C1146 C 0.04442 0.18396 0.57774 0.0
C1147 C 0.03889 0.18036 0.54999 0.0
C1148 C 0.03975 0.20436 0.53113 0.0
C1149 C 0.04576 0.23155 0.5403 0.0
C1150 C 0.04441 0.15895 0.59844 0.0
C1151 C 0.0339 0.20129 0.5014 0.0
C1152 C 0.04839 0.1062 0.52793 0.0
C1153 C 0.02185 0.09443 0.52828 0.0
C1154 C 0.05408 0.13442 0.53395 0.0
C1155 C 0.03274 0.15131 0.54089 0.0
C1156 C 1.00581 0.13974 0.54087 0.0
C1157 C 1.00065 0.11146 0.53435 0.0
C1158 C 0.08301 0.14598 0.53336 0.0
C1159 C 0.98257 0.15696 0.54859 0.0
H1160 H 0.05423 0.21401 0.6076 0.0
H1161 H 0.04602 0.25003 0.52606 0.0
H1162 H 0.02493 0.14649 0.59759 0.0
H1163 H 0.0606 0.14465 0.59376 0.0
H1164 H 0.04771 0.16555 0.61942 0.0
H1165 H 0.03652 0.22178 0.48916 0.0
H1166 H 0.04739 0.18581 0.4934 0.0
H1167 H 0.01284 0.19285 0.49869 0.0
H1168 H 0.06489 0.09331 0.52295 0.0
H1169 H 0.98014 0.10246 0.53472 0.0
H1170 H 0.08939 0.15218 0.55381 0.0
H1171 H 0.0848 0.16534 0.51941 0.0
H1172 H 0.09716 0.13033 0.52673 0.0
H1173 H 0.98484 0.16193 0.57014 0.0
H1174 H 0.96271 0.14556 0.54586 0.0
H1175 H 0.9827 0.17744 0.53624 0.0
C1176 C 0.5485 0.3025 0.47851 0.0
C1177 C 0.57302 0.30069 0.46525 0.0
C1178 C 0.54002 0.32882 0.48591 0.0
C1179 C 0.55643 0.35364 0.47955 0.0
C1180 C 0.58116 0.35175 0.46599 0.0
C1181 C 0.58922 0.32519 0.45911 0.0
C1182 C 0.51372 0.33008 0.5007 0.0
C1183 C 0.59925 0.37774 0.45902 0.0
C1184 C 0.52587 0.42582 0.47435 0.0
C1185 C 0.53554 0.43698 0.49826 0.0
C1186 C 0.53214 0.39839 0.4682 0.0
C1187 C 0.54789 0.38179 0.48678 0.0
C1188 C 0.55697 0.39287 0.51141 0.0
C1189 C 0.55077 0.42055 0.51679 0.0
C1190 C 0.52247 0.38744 0.44159 0.0
C1191 C 0.57309 0.37551 0.5321 0.0
H1192 H 0.53625 0.2833 0.48342 0.0
H1193 H 0.60833 0.32346 0.44909 0.0
H1194 H 0.51709 0.34096 0.51973 0.0
H1195 H 0.49932 0.34263 0.48801 0.0
H1196 H 0.50427 0.30864 0.50573 0.0
H1197 H 0.61726 0.37275 0.44743 0.0
H1198 H 0.58783 0.3939 0.44688 0.0
H1199 H 0.60622 0.3874 0.47789 0.0
H1200 H 0.51373 0.43873 0.46035 0.0
H1201 H 0.55758 0.42931 0.53556 0.0
H1202 H 0.50998 0.36752 0.44529 0.0
H1203 H 0.54006 0.38236 0.42946 0.0
H1204 H 0.51036 0.40304 0.42944 0.0
H1205 H 0.56039 0.35705 0.54029 0.0
H1206 H 0.58022 0.38802 0.54927 0.0
H1207 H 0.59087 0.36705 0.52255 0.0
loop_
_geom_bond_atom_site_label_1
_geom_bond_atom_site_label_2
_geom_bond_distance
_geom_bond_site_symmetry_2
_ccdc_geom_bond_type
C0 C1 1.264 . S
C0 C5 1.479 . S
C0 C10 1.465 . S
C1 C0 1.264 . S
C1 C3 1.339 . S
C1 H28 0.931 . S
C2 C3 1.395 . S
C2 C4 1.320 . S
C3 C1 1.339 . S
C3 C2 1.395 . S
C3 H29 0.929 . S
C4 C2 1.320 . S
C4 C5 1.405 . S
C4 H30 0.930 . S
C5 C0 1.479 . S
C5 C4 1.405 . S
C5 H31 0.931 . S
U6 O7 2.454 . S
U6 O8 2.458 . S
U6 C9 2.984 . S
U6 C10 2.847 . S
U6 C23 2.882 . S
U6 O24 2.441 . S
U6 O25 2.420 . S
U6 O26 2.455 . S
U6 O27 2.449 . S
O7 U6 2.454 . S
O7 C9 1.353 . S
O8 U6 2.458 . S
O8 C9 1.286 . S
C9 U6 2.984 . S
C9 O7 1.353 . S
C9 O8 1.286 . S
C9 C11 1.363 . S
C10 C0 1.465 . S
C10 U6 2.847 . S
C10 O24 1.249 . S
C10 O25 1.202 . S
C11 C9 1.363 . S
C11 C13 1.408 . S
C11 C16 1.342 . S
C12 C13 1.310 . S
C12 C15 1.461 . S
C12 H32 0.932 . S
C13 C11 1.408 . S
C13 C12 1.310 . S
C13 H33 0.930 . S
C14 C15 1.474 . S
C14 C16 1.285 . S
C14 H34 0.929 . S
C15 C12 1.461 . S
C15 C14 1.474 . S
C16 C11 1.342 . S
C16 C14 1.285 . S
C16 H35 0.930 . S
C17 C20 1.424 . S
C17 C22 1.245 . S
C17 C23 1.428 . S
C18 C21 1.260 . S
C18 C22 1.477 . S
C18 H36 0.932 . S
C19 C20 1.384 . S
C19 C21 1.479 . S
C19 H37 0.929 . S
C20 C17 1.424 . S
C20 C19 1.384 . S
C20 H38 0.928 . S
C21 C18 1.260 . S
C21 C19 1.479 . S
C22 C17 1.245 . S
C22 C18 1.477 . S
C22 H39 0.932 . S
C23 U6 2.882 . S
C23 C17 1.428 . S
C23 O26 1.301 . S
C23 O27 1.282 . S
O24 U6 2.441 . S
O24 C10 1.249 . S
O25 U6 2.420 . S
O25 C10 1.202 . S
O26 U6 2.455 . S
O26 C23 1.301 . S
O27 U6 2.449 . S
O27 C23 1.282 . S
H28 C1 0.931 . S
H29 C3 0.929 . S
H30 C4 0.930 . S
H31 C5 0.931 . S
H32 C12 0.932 . S
H33 C13 0.930 . S
H34 C14 0.929 . S
H35 C16 0.930 . S
H36 C18 0.932 . S
H37 C19 0.929 . S
H38 C20 0.928 . S
H39 C22 0.932 . S
C40 C41 1.264 . S
C40 C45 1.479 . S
C40 C50 1.465 . S
C41 C40 1.264 . S
C41 C43 1.339 . S
C41 H68 0.931 . S
C42 C43 1.395 . S
C42 C44 1.320 . S
C43 C41 1.339 . S
C43 C42 1.395 . S
C43 H69 0.929 . S
C44 C42 1.320 . S
C44 C45 1.405 . S
C44 H70 0.930 . S
C45 C40 1.479 . S
C45 C44 1.405 . S
C45 H71 0.931 . S
U46 O47 2.454 . S
U46 O48 2.458 . S
U46 C49 2.984 . S
U46 C50 2.847 . S
U46 C63 2.882 . S
U46 O64 2.441 . S
U46 O65 2.420 . S
U46 O66 2.455 . S
U46 O67 2.449 . S
O47 U46 2.454 . S
O47 C49 1.353 . S
O48 U46 2.458 . S
O48 C49 1.286 . S
C49 U46 2.984 . S
C49 O47 1.353 . S
C49 O48 1.286 . S
C49 C51 1.363 . S
C50 C40 1.465 . S
C50 U46 2.847 . S
C50 O64 1.249 . S
C50 O65 1.202 . S
C51 C49 1.363 . S
C51 C53 1.408 . S
C51 C56 1.342 . S
C52 C53 1.310 . S
C52 C55 1.461 . S
C52 H72 0.932 . S
C53 C51 1.408 . S
C53 C52 1.310 . S
C53 H73 0.930 . S
C54 C55 1.474 . S
C54 C56 1.285 . S
C54 H74 0.929 . S
C55 C52 1.461 . S
C55 C54 1.474 . S
C56 C51 1.342 . S
C56 C54 1.285 . S
C56 H75 0.930 . S
C57 C60 1.424 . S
C57 C62 1.245 . S
C57 C63 1.428 . S
C58 C61 1.260 . S
C58 C62 1.477 . S
C58 H76 0.932 . S
C59 C60 1.384 . S
C59 C61 1.479 . S
C59 H77 0.929 . S
C60 C57 1.424 . S
C60 C59 1.384 . S
C60 H78 0.928 . S
C61 C58 1.260 . S
C61 C59 1.479 . S
C62 C57 1.245 . S
C62 C58 1.477 . S
C62 H79 0.932 . S
C63 U46 2.882 . S
C63 C57 1.428 . S
C63 O66 1.301 . S
C63 O67 1.282 . S
O64 U46 2.441 . S
O64 C50 1.249 . S
O65 U46 2.420 . S
O65 C50 1.202 . S
O66 U46 2.455 . S
O66 C63 1.301 . S
O67 U46 2.449 . S
O67 C63 1.282 . S
H68 C41 0.931 . S
H69 C43 0.929 . S
H70 C44 0.930 . S
H71 C45 0.931 . S
H72 C52 0.932 . S
H73 C53 0.930 . S
H74 C54 0.929 . S
H75 C56 0.930 . S
H76 C58 0.932 . S
H77 C59 0.929 . S
H78 C60 0.928 . S
H79 C62 0.932 . S
C80 C81 1.264 . S
C80 C85 1.479 . S
C80 C90 1.465 . S
C81 C80 1.264 . S
C81 C83 1.339 . S
C81 H108 0.931 . S
C82 C83 1.395 . S
C82 C84 1.320 . S
C83 C81 1.339 . S
C83 C82 1.395 . S
C83 H109 0.929 . S
C84 C82 1.320 . S
C84 C85 1.405 . S
C84 H110 0.930 . S
C85 C80 1.479 . S
C85 C84 1.405 . S
C85 H111 0.931 . S
U86 O87 2.454 . S
U86 O88 2.458 . S
U86 C89 2.984 . S
U86 C90 2.847 . S
U86 C103 2.882 . S
U86 O104 2.441 . S
U86 O105 2.420 . S
U86 O106 2.455 . S
U86 O107 2.449 . S
O87 U86 2.454 . S
O87 C89 1.353 . S
O88 U86 2.458 . S
O88 C89 1.286 . S
C89 U86 2.984 . S
C89 O87 1.353 . S
C89 O88 1.286 . S
C89 C91 1.363 . S
C90 C80 1.465 . S
C90 U86 2.847 . S
C90 O104 1.249 . S
C90 O105 1.202 . S
C91 C89 1.363 . S
C91 C93 1.408 . S
C91 C96 1.342 . S
C92 C93 1.310 . S
C92 C95 1.461 . S
C92 H112 0.932 . S
C93 C91 1.408 . S
C93 C92 1.310 . S
C93 H113 0.930 . S
C94 C95 1.474 . S
C94 C96 1.285 . S
C94 H114 0.929 . S
C95 C92 1.461 . S
C95 C94 1.474 . S
C96 C91 1.342 . S
C96 C94 1.285 . S
C96 H115 0.930 . S
C97 C100 1.424 . S
C97 C102 1.245 . S
C97 C103 1.428 . S
C98 C101 1.260 . S
C98 C102 1.477 . S
C98 H116 0.932 . S
C99 C100 1.384 . S
C99 C101 1.479 . S
C99 H117 0.929 . S
C100 C97 1.424 . S
C100 C99 1.384 . S
C100 H118 0.928 . S
C101 C98 1.260 . S
C101 C99 1.479 . S
C102 C97 1.245 . S
C102 C98 1.477 . S
C102 H119 0.932 . S
C103 U86 2.882 . S
C103 C97 1.428 . S
C103 O106 1.301 . S
C103 O107 1.282 . S
O104 U86 2.441 . S
O104 C90 1.249 . S
O105 U86 2.420 . S
O105 C90 1.202 . S
O106 U86 2.455 . S
O106 C103 1.301 . S
O107 U86 2.449 . S
O107 C103 1.282 . S
H108 C81 0.931 . S
H109 C83 0.929 . S
H110 C84 0.930 . S
H111 C85 0.931 . S
H112 C92 0.932 . S
H113 C93 0.930 . S
H114 C94 0.929 . S
H115 C96 0.930 . S
H116 C98 0.932 . S
H117 C99 0.929 . S
H118 C100 0.928 . S
H119 C102 0.932 . S
C120 C121 1.264 . S
C120 C125 1.479 . S
C120 C130 1.465 . S
C121 C120 1.264 . S
C121 C123 1.339 . S
C121 H148 0.931 . S
C122 C123 1.395 . S
C122 C124 1.320 . S
C123 C121 1.339 . S
C123 C122 1.395 . S
C123 H149 0.929 . S
C124 C122 1.320 . S
C124 C125 1.405 . S
C124 H150 0.930 . S
C125 C120 1.479 . S
C125 C124 1.405 . S
C125 H151 0.931 . S
U126 O127 2.454 . S
U126 O128 2.458 . S
U126 C129 2.984 . S
U126 C130 2.847 . S
U126 C143 2.882 . S
U126 O144 2.441 . S
U126 O145 2.420 . S
U126 O146 2.455 . S
U126 O147 2.449 . S
O127 U126 2.454 . S
O127 C129 1.353 . S
O128 U126 2.458 . S
O128 C129 1.286 . S
C129 U126 2.984 . S
C129 O127 1.353 . S
C129 O128 1.286 . S
C129 C131 1.363 . S
C130 C120 1.465 . S
C130 U126 2.847 . S
C130 O144 1.249 . S
C130 O145 1.202 . S
C131 C129 1.363 . S
C131 C133 1.408 . S
C131 C136 1.342 . S
C132 C133 1.310 . S
C132 C135 1.461 . S
C132 H152 0.932 . S
C133 C131 1.408 . S
C133 C132 1.310 . S
C133 H153 0.930 . S
C134 C135 1.474 . S
C134 C136 1.285 . S
C134 H154 0.929 . S
C135 C132 1.461 . S
C135 C134 1.474 . S
C136 C131 1.342 . S
C136 C134 1.285 . S
C136 H155 0.930 . S
C137 C140 1.424 . S
C137 C142 1.245 . S
C137 C143 1.428 . S
C138 C141 1.260 . S
C138 C142 1.477 . S
C138 H156 0.932 . S
C139 C140 1.384 . S
C139 C141 1.479 . S
C139 H157 0.929 . S
C140 C137 1.424 . S
C140 C139 1.384 . S
C140 H158 0.928 . S
C141 C138 1.260 . S
C141 C139 1.479 . S
C142 C137 1.245 . S
C142 C138 1.477 . S
C142 H159 0.932 . S
C143 U126 2.882 . S
C143 C137 1.428 . S
C143 O146 1.301 . S
C143 O147 1.282 . S
O144 U126 2.441 . S
O144 C130 1.249 . S
O145 U126 2.420 . S
O145 C130 1.202 . S
O146 U126 2.455 . S
O146 C143 1.301 . S
O147 U126 2.449 . S
O147 C143 1.282 . S
H148 C121 0.931 . S
H149 C123 0.929 . S
H150 C124 0.930 . S
H151 C125 0.931 . S
H152 C132 0.932 . S
H153 C133 0.930 . S
H154 C134 0.929 . S
H155 C136 0.930 . S
H156 C138 0.932 . S
H157 C139 0.929 . S
H158 C140 0.928 . S
H159 C142 0.932 . S
C160 C161 1.264 . S
C160 C165 1.479 . S
C160 C170 1.465 . S
C161 C160 1.264 . S
C161 C163 1.339 . S
C161 H188 0.931 . S
C162 C163 1.395 . S
C162 C164 1.320 . S
C163 C161 1.339 . S
C163 C162 1.395 . S
C163 H189 0.929 . S
C164 C162 1.320 . S
C164 C165 1.405 . S
C164 H190 0.930 . S
C165 C160 1.479 . S
C165 C164 1.405 . S
C165 H191 0.931 . S
U166 O167 2.454 . S
U166 O168 2.458 . S
U166 C169 2.984 . S
U166 C170 2.847 . S
U166 C183 2.882 . S
U166 O184 2.441 . S
U166 O185 2.420 . S
U166 O186 2.455 . S
U166 O187 2.449 . S
O167 U166 2.454 . S
O167 C169 1.353 . S
O168 U166 2.458 . S
O168 C169 1.286 . S
C169 U166 2.984 . S
C169 O167 1.353 . S
C169 O168 1.286 . S
C169 C171 1.363 . S
C170 C160 1.465 . S
C170 U166 2.847 . S
C170 O184 1.249 . S
C170 O185 1.202 . S
C171 C169 1.363 . S
C171 C173 1.408 . S
C171 C176 1.342 . S
C172 C173 1.310 . S
C172 C175 1.461 . S
C172 H192 0.932 . S
C173 C171 1.408 . S
C173 C172 1.310 . S
C173 H193 0.930 . S
C174 C175 1.474 . S
C174 C176 1.285 . S
C174 H194 0.929 . S
C175 C172 1.461 . S
C175 C174 1.474 . S
C176 C171 1.342 . S
C176 C174 1.285 . S
C176 H195 0.930 . S
C177 C180 1.424 . S
C177 C182 1.245 . S
C177 C183 1.428 . S
C178 C181 1.260 . S
C178 C182 1.477 . S
C178 H196 0.932 . S
C179 C180 1.384 . S
C179 C181 1.479 . S
C179 H197 0.929 . S
C180 C177 1.424 . S
C180 C179 1.384 . S
C180 H198 0.928 . S
C181 C178 1.260 . S
C181 C179 1.479 . S
C182 C177 1.245 . S
C182 C178 1.477 . S
C182 H199 0.932 . S
C183 U166 2.882 . S
C183 C177 1.428 . S
C183 O186 1.301 . S
C183 O187 1.282 . S
O184 U166 2.441 . S
O184 C170 1.249 . S
O185 U166 2.420 . S
O185 C170 1.202 . S
O186 U166 2.455 . S
O186 C183 1.301 . S
O187 U166 2.449 . S
O187 C183 1.282 . S
H188 C161 0.931 . S
H189 C163 0.929 . S
H190 C164 0.930 . S
H191 C165 0.931 . S
H192 C172 0.932 . S
H193 C173 0.930 . S
H194 C174 0.929 . S
H195 C176 0.930 . S
H196 C178 0.932 . S
H197 C179 0.929 . S
H198 C180 0.928 . S
H199 C182 0.932 . S
C200 C201 1.264 . S
C200 C205 1.479 . S
C200 C210 1.465 . S
C201 C200 1.264 . S
C201 C203 1.339 . S
C201 H228 0.931 . S
C202 C203 1.395 . S
C202 C204 1.320 . S
C203 C201 1.339 . S
C203 C202 1.395 . S
C203 H229 0.929 . S
C204 C202 1.320 . S
C204 C205 1.405 . S
C204 H230 0.930 . S
C205 C200 1.479 . S
C205 C204 1.405 . S
C205 H231 0.931 . S
U206 O207 2.454 . S
U206 O208 2.458 . S
U206 C209 2.984 . S
U206 C210 2.847 . S
U206 C223 2.882 . S
U206 O224 2.441 . S
U206 O225 2.420 . S
U206 O226 2.455 . S
U206 O227 2.449 . S
O207 U206 2.454 . S
O207 C209 1.353 . S
O208 U206 2.458 . S
O208 C209 1.286 . S
C209 U206 2.984 . S
C209 O207 1.353 . S
C209 O208 1.286 . S
C209 C211 1.363 . S
C210 C200 1.465 . S
C210 U206 2.847 . S
C210 O224 1.249 . S
C210 O225 1.202 . S
C211 C209 1.363 . S
C211 C213 1.408 . S
C211 C216 1.342 . S
C212 C213 1.310 . S
C212 C215 1.461 . S
C212 H232 0.932 . S
C213 C211 1.408 . S
C213 C212 1.310 . S
C213 H233 0.930 . S
C214 C215 1.474 . S
C214 C216 1.285 . S
C214 H234 0.929 . S
C215 C212 1.461 . S
C215 C214 1.474 . S
C216 C211 1.342 . S
C216 C214 1.285 . S
C216 H235 0.930 . S
C217 C220 1.424 . S
C217 C222 1.245 . S
C217 C223 1.428 . S
C218 C221 1.260 . S
C218 C222 1.477 . S
C218 H236 0.932 . S
C219 C220 1.384 . S
C219 C221 1.479 . S
C219 H237 0.929 . S
C220 C217 1.424 . S
C220 C219 1.384 . S
C220 H238 0.928 . S
C221 C218 1.260 . S
C221 C219 1.479 . S
C222 C217 1.245 . S
C222 C218 1.477 . S
C222 H239 0.932 . S
C223 U206 2.882 . S
C223 C217 1.428 . S
C223 O226 1.301 . S
C223 O227 1.282 . S
O224 U206 2.441 . S
O224 C210 1.249 . S
O225 U206 2.420 . S
O225 C210 1.202 . S
O226 U206 2.455 . S
O226 C223 1.301 . S
O227 U206 2.449 . S
O227 C223 1.282 . S
H228 C201 0.931 . S
H229 C203 0.929 . S
H230 C204 0.930 . S
H231 C205 0.931 . S
H232 C212 0.932 . S
H233 C213 0.930 . S
H234 C214 0.929 . S
H235 C216 0.930 . S
H236 C218 0.932 . S
H237 C219 0.929 . S
H238 C220 0.928 . S
H239 C222 0.932 . S
C240 C241 1.264 . S
C240 C245 1.479 . S
C240 C250 1.465 . S
C241 C240 1.264 . S
C241 C243 1.339 . S
C241 H268 0.931 . S
C242 C243 1.395 . S
C242 C244 1.320 . S
C243 C241 1.339 . S
C243 C242 1.395 . S
C243 H269 0.929 . S
C244 C242 1.320 . S
C244 C245 1.405 . S
C244 H270 0.930 . S
C245 C240 1.479 . S
C245 C244 1.405 . S
C245 H271 0.931 . S
U246 O247 2.454 . S
U246 O248 2.458 . S
U246 C249 2.984 . S
U246 C250 2.847 . S
U246 C263 2.882 . S
U246 O264 2.441 . S
U246 O265 2.420 . S
U246 O266 2.455 . S
U246 O267 2.449 . S
O247 U246 2.454 . S
O247 C249 1.353 . S
O248 U246 2.458 . S
O248 C249 1.286 . S
C249 U246 2.984 . S
C249 O247 1.353 . S
C249 O248 1.286 . S
C249 C251 1.363 . S
C250 C240 1.465 . S
C250 U246 2.847 . S
C250 O264 1.249 . S
C250 O265 1.202 . S
C251 C249 1.363 . S
C251 C253 1.408 . S
C251 C256 1.342 . S
C252 C253 1.310 . S
C252 C255 1.461 . S
C252 H272 0.932 . S
C253 C251 1.408 . S
C253 C252 1.310 . S
C253 H273 0.930 . S
C254 C255 1.474 . S
C254 C256 1.285 . S
C254 H274 0.929 . S
C255 C252 1.461 . S
C255 C254 1.474 . S
C256 C251 1.342 . S
C256 C254 1.285 . S
C256 H275 0.930 . S
C257 C260 1.424 . S
C257 C262 1.245 . S
C257 C263 1.428 . S
C258 C261 1.260 . S
C258 C262 1.477 . S
C258 H276 0.932 . S
C259 C260 1.384 . S
C259 C261 1.479 . S
C259 H277 0.929 . S
C260 C257 1.424 . S
C260 C259 1.384 . S
C260 H278 0.928 . S
C261 C258 1.260 . S
C261 C259 1.479 . S
C262 C257 1.245 . S
C262 C258 1.477 . S
C262 H279 0.932 . S
C263 U246 2.882 . S
C263 C257 1.428 . S
C263 O266 1.301 . S
C263 O267 1.282 . S
O264 U246 2.441 . S
O264 C250 1.249 . S
O265 U246 2.420 . S
O265 C250 1.202 . S
O266 U246 2.455 . S
O266 C263 1.301 . S
O267 U246 2.449 . S
O267 C263 1.282 . S
H268 C241 0.931 . S
H269 C243 0.929 . S
H270 C244 0.930 . S
H271 C245 0.931 . S
H272 C252 0.932 . S
H273 C253 0.930 . S
H274 C254 0.929 . S
H275 C256 0.930 . S
H276 C258 0.932 . S
H277 C259 0.929 . S
H278 C260 0.928 . S
H279 C262 0.932 . S
C280 C281 1.264 . S
C280 C285 1.479 . S
C280 C290 1.465 . S
C281 C280 1.264 . S
C281 C283 1.339 . S
C281 H308 0.931 . S
C282 C283 1.395 . S
C282 C284 1.320 . S
C283 C281 1.339 . S
C283 C282 1.395 . S
C283 H309 0.929 . S
C284 C282 1.320 . S
C284 C285 1.405 . S
C284 H310 0.930 . S
C285 C280 1.479 . S
C285 C284 1.405 . S
C285 H311 0.931 . S
U286 O287 2.454 . S
U286 O288 2.458 . S
U286 C289 2.984 . S
U286 C290 2.847 . S
U286 C303 2.882 . S
U286 O304 2.441 . S
U286 O305 2.420 . S
U286 O306 2.455 . S
U286 O307 2.449 . S
O287 U286 2.454 . S
O287 C289 1.353 . S
O288 U286 2.458 . S
O288 C289 1.286 . S
C289 U286 2.984 . S
C289 O287 1.353 . S
C289 O288 1.286 . S
C289 C291 1.363 . S
C290 C280 1.465 . S
C290 U286 2.847 . S
C290 O304 1.249 . S
C290 O305 1.202 . S
C291 C289 1.363 . S
C291 C293 1.408 . S
C291 C296 1.342 . S
C292 C293 1.310 . S
C292 C295 1.461 . S
C292 H312 0.932 . S
C293 C291 1.408 . S
C293 C292 1.310 . S
C293 H313 0.930 . S
C294 C295 1.474 . S
C294 C296 1.285 . S
C294 H314 0.929 . S
C295 C292 1.461 . S
C295 C294 1.474 . S
C296 C291 1.342 . S
C296 C294 1.285 . S
C296 H315 0.930 . S
C297 C300 1.424 . S
C297 C302 1.245 . S
C297 C303 1.428 . S
C298 C301 1.260 . S
C298 C302 1.477 . S
C298 H316 0.932 . S
C299 C300 1.384 . S
C299 C301 1.479 . S
C299 H317 0.929 . S
C300 C297 1.424 . S
C300 C299 1.384 . S
C300 H318 0.928 . S
C301 C298 1.260 . S
C301 C299 1.479 . S
C302 C297 1.245 . S
C302 C298 1.477 . S
C302 H319 0.932 . S
C303 U286 2.882 . S
C303 C297 1.428 . S
C303 O306 1.301 . S
C303 O307 1.282 . S
O304 U286 2.441 . S
O304 C290 1.249 . S
O305 U286 2.420 . S
O305 C290 1.202 . S
O306 U286 2.455 . S
O306 C303 1.301 . S
O307 U286 2.449 . S
O307 C303 1.282 . S
H308 C281 0.931 . S
H309 C283 0.929 . S
H310 C284 0.930 . S
H311 C285 0.931 . S
H312 C292 0.932 . S
H313 C293 0.930 . S
H314 C294 0.929 . S
H315 C296 0.930 . S
H316 C298 0.932 . S
H317 C299 0.929 . S
H318 C300 0.928 . S
H319 C302 0.932 . S
Co320 N325 2.057 . S
Co320 O337 2.021 . S
Co320 O340 2.062 . S
Co320 O344 2.117 1_545 S
Co320 O345 2.022 . S
C321 O341 1.259 1_655 S
C321 O344 1.258 . S
Co322 N331 2.057 . S
Co322 O338 2.117 1_565 S
Co322 O339 2.020 1_565 S
Co322 O341 2.021 . S
Co322 O346 2.062 . S
C323 N325 1.316 . S
C323 N326 1.347 . S
C323 H328 0.931 . S
C324 N325 1.359 1_565 S
C324 C327 1.341 1_565 S
C324 H329 0.952 . S
N325 Co320 2.057 . S
N325 C323 1.316 . S
N325 C324 1.359 1_545 S
N326 C323 1.347 . S
N326 C327 1.373 . S
C327 C324 1.341 1_545 S
C327 N326 1.373 . S
C327 H348 0.931 . S
H328 C323 0.931 . S
H329 C324 0.952 . S
C330 O337 1.259 1_455 S
C330 O338 1.258 . S
N331 Co322 2.057 . S
N331 C332 1.316 . S
N331 C333 1.375 1_565 S
C332 N331 1.316 . S
C332 N334 1.347 . S
C332 H343 0.931 . S
C333 N331 1.375 1_545 S
C333 C335 1.350 1_545 S
C333 H342 0.930 . S
N334 C332 1.347 . S
N334 C335 1.373 . S
C335 C333 1.350 1_565 S
C335 N334 1.373 . S
C335 H349 0.931 1_565 S
C336 O339 1.256 . S
C336 O340 1.255 1_455 S
O337 Co320 2.021 . S
O337 C330 1.259 1_655 S
O338 Co322 2.117 1_545 S
O338 C330 1.258 . S
O339 Co322 2.020 1_545 S
O339 C336 1.256 . S
O340 Co320 2.062 . S
O340 C336 1.255 1_655 S
O341 C321 1.259 1_455 S
O341 Co322 2.021 . S
H342 C333 0.930 . S
H343 C332 0.931 . S
O344 Co320 2.117 1_565 S
O344 C321 1.258 . S
O345 Co320 2.022 . S
O345 C347 1.252 1_545 S
O346 Co322 2.062 . S
O346 C347 1.255 1_455 S
C347 O345 1.252 1_565 S
C347 O346 1.255 1_655 S
H348 C327 0.931 . S
H349 C335 0.931 1_545 S
Co350 N355 2.057 . S
Co350 O367 2.021 1_565 S
Co350 O370 2.062 . S
Co350 O374 2.117 1_556 S
Co350 O375 2.020 1_565 S
C351 O371 1.259 . S
C351 O374 1.258 . S
Co352 N361 2.057 . S
Co352 O368 2.117 . S
Co352 O369 2.020 1_545 S
Co352 O371 2.021 1_545 S
Co352 O376 2.062 . S
C353 N355 1.316 . S
C353 N356 1.347 . S
C353 H358 0.931 1_565 S
C354 N355 1.375 . S
C354 C357 1.350 . S
C354 H359 0.930 . S
N355 Co350 2.057 . S
N355 C353 1.316 . S
N355 C354 1.375 . S
N356 C353 1.347 . S
N356 C357 1.373 . S
C357 C354 1.350 . S
C357 N356 1.373 . S
C357 H378 0.931 . S
H358 C353 0.931 1_545 S
H359 C354 0.930 . S
C360 O367 1.259 . S
C360 O368 1.258 1_556 S
N361 Co352 2.057 . S
N361 C362 1.316 . S
N361 C363 1.375 . S
C362 N361 1.316 . S
C362 N364 1.347 . S
C362 H373 0.931 1_545 S
C363 N361 1.375 . S
C363 C365 1.350 . S
C363 H372 0.930 . S
N364 C362 1.347 . S
N364 C365 1.373 . S
C365 C363 1.350 . S
C365 N364 1.373 . S
C365 H379 0.931 . S
C366 O369 1.256 1_556 S
C366 O370 1.255 . S
O367 Co350 2.021 1_545 S
O367 C360 1.259 . S
O368 Co352 2.117 . S
O368 C360 1.258 1_554 S
O369 Co352 2.020 1_565 S
O369 C366 1.256 1_554 S
O370 Co350 2.062 . S
O370 C366 1.255 . S
O371 C351 1.259 . S
O371 Co352 2.021 1_565 S
H372 C363 0.930 . S
H373 C362 0.931 1_565 S
O374 Co350 2.117 1_554 S
O374 C351 1.258 . S
O375 Co350 2.020 1_545 S
O375 C377 1.256 1_556 S
O376 Co352 2.062 . S
O376 C377 1.255 . S
C377 O375 1.256 1_554 S
C377 O376 1.255 . S
H378 C357 0.931 . S
H379 C365 0.931 . S
Co380 N385 2.057 . S
Co380 O397 2.021 . S
Co380 O400 2.062 . S
Co380 O404 2.117 . S
Co380 O405 2.020 . S
C381 O401 1.259 . S
C381 O404 1.258 . S
Co382 N391 2.057 . S
Co382 O398 2.117 . S
Co382 O399 2.020 . S
Co382 O401 2.021 . S
Co382 O406 2.062 . S
C383 N385 1.316 . S
C383 N386 1.347 . S
C383 H388 0.931 . S
C384 N385 1.375 . S
C384 C387 1.350 . S
C384 H389 0.930 . S
N385 Co380 2.057 . S
N385 C383 1.316 . S
N385 C384 1.375 . S
N386 C383 1.347 . S
N386 C387 1.373 . S
C387 C384 1.350 . S
C387 N386 1.373 . S
C387 H408 0.931 . S
H388 C383 0.931 . S
H389 C384 0.930 . S
C390 O397 1.259 . S
C390 O398 1.258 . S
N391 Co382 2.057 . S
N391 C392 1.316 . S
N391 C393 1.375 . S
C392 N391 1.316 . S
C392 N394 1.347 . S
C392 H403 0.931 . S
C393 N391 1.375 . S
C393 C395 1.350 . S
C393 H402 0.930 . S
N394 C392 1.347 . S
N394 C395 1.373 . S
C395 C393 1.350 . S
C395 N394 1.373 . S
C395 H409 0.931 . S
C396 O399 1.256 . S
C396 O400 1.255 . S
O397 Co380 2.021 . S
O397 C390 1.259 . S
O398 Co382 2.117 . S
O398 C390 1.258 . S
O399 Co382 2.020 . S
O399 C396 1.256 . S
O400 Co380 2.062 . S
O400 C396 1.255 . S
O401 C381 1.259 . S
O401 Co382 2.021 . S
H402 C393 0.930 . S
H403 C392 0.931 . S
O404 Co380 2.117 . S
O404 C381 1.258 . S
O405 Co380 2.020 . S
O405 C407 1.256 . S
O406 Co382 2.062 . S
O406 C407 1.255 . S
C407 O405 1.256 . S
C407 O406 1.255 . S
H408 C387 0.931 . S
H409 C395 0.931 . S
Co410 N415 2.057 . S
Co410 O427 2.021 . S
Co410 O430 2.062 . S
Co410 O434 2.117 1_455 S
Co410 O435 2.018 1_455 S
C411 O431 1.259 1_556 S
C411 O434 1.258 . S
Co412 N421 2.057 . S
Co412 O428 2.117 1_655 S
Co412 O429 2.020 1_655 S
Co412 O431 2.021 . S
Co412 O436 2.062 . S
C413 N415 1.316 . S
C413 N416 1.347 . S
C413 H418 0.931 . S
C414 N415 1.375 1_655 S
C414 C417 1.350 1_655 S
C414 H419 0.930 . S
N415 Co410 2.057 . S
N415 C413 1.316 . S
N415 C414 1.375 1_455 S
N416 C413 1.347 . S
N416 C417 1.373 . S
C417 C414 1.350 1_455 S
C417 N416 1.373 . S
C417 H438 0.931 1_455 S
H418 C413 0.931 . S
H419 C414 0.930 . S
C420 O427 1.259 1_554 S
C420 O428 1.258 . S
N421 Co412 2.057 . S
N421 C422 1.316 . S
N421 C423 1.375 1_655 S
C422 N421 1.316 . S
C422 N424 1.347 . S
C422 H433 0.931 . S
C423 N421 1.375 1_455 S
C423 C425 1.350 1_455 S
C423 H432 0.930 . S
N424 C422 1.347 . S
N424 C425 1.373 . S
C425 C423 1.350 1_655 S
C425 N424 1.373 . S
C425 H439 0.931 1_655 S
C426 O429 1.256 . S
C426 O430 1.255 1_554 S
O427 Co410 2.021 . S
O427 C420 1.259 1_556 S
O428 Co412 2.117 1_455 S
O428 C420 1.258 . S
O429 Co412 2.020 1_455 S
O429 C426 1.256 . S
O430 Co410 2.062 . S
O430 C426 1.255 1_556 S
O431 C411 1.259 1_554 S
O431 Co412 2.021 . S
H432 C423 0.930 . S
H433 C422 0.931 . S
O434 Co410 2.117 1_655 S
O434 C411 1.258 . S
O435 Co410 2.018 1_655 S
O435 C437 1.258 . S
O436 Co412 2.062 . S
O436 C437 1.255 1_554 S
C437 O435 1.258 . S
C437 O436 1.255 1_556 S
H438 C417 0.931 1_655 S
H439 C425 0.931 1_455 S
C440 C441 1.391 . S
C440 C442 1.394 . S
C440 H456 0.931 . S
C441 C440 1.391 . S
C441 C445 1.376 . S
C442 C440 1.394 . S
C442 C443 1.369 . S
C442 C446 1.531 1_455 S
C443 C442 1.369 . S
C443 C444 1.410 . S
C443 C451 1.503 . S
C444 C443 1.410 . S
C444 C445 1.392 . S
C444 C447 1.511 . S
C445 C441 1.376 . S
C445 C444 1.392 . S
C445 H457 0.929 . S
C446 C442 1.531 1_655 S
C446 H458 0.961 . S
C446 H459 0.962 . S
C446 H460 0.960 . S
C447 C444 1.511 . S
C447 H461 0.961 . S
C447 H462 0.961 . S
C447 H463 0.961 . S
C448 C449 1.370 . S
C448 C450 1.363 . S
C448 H464 0.931 . S
C449 C448 1.370 . S
C449 C453 1.408 . S
C450 C448 1.363 . S
C450 C451 1.370 . S
C450 C454 1.524 . S
C451 C443 1.503 . S
C451 C450 1.370 . S
C451 C452 1.403 . S
C452 C451 1.403 . S
C452 C453 1.404 . S
C452 C455 1.539 1_545 S
C453 C449 1.408 . S
C453 C452 1.404 . S
C453 H465 0.930 1_545 S
C454 C450 1.524 . S
C454 H466 0.956 . S
C454 H467 0.961 . S
C454 H468 0.961 . S
C455 C452 1.539 1_565 S
C455 H469 0.958 . S
C455 H470 0.961 . S
C455 H471 0.960 . S
H456 C440 0.931 . S
H457 C445 0.929 . S
H458 C446 0.961 . S
H459 C446 0.962 . S
H460 C446 0.960 . S
H461 C447 0.961 . S
H462 C447 0.961 . S
H463 C447 0.961 . S
H464 C448 0.931 . S
H465 C453 0.930 1_565 S
H466 C454 0.956 . S
H467 C454 0.961 . S
H468 C454 0.961 . S
H469 C455 0.958 . S
H470 C455 0.961 . S
H471 C455 0.960 . S
C472 C473 1.391 . S
C472 C474 1.394 . S
C472 H488 0.931 . S
C473 C472 1.391 . S
C473 C477 1.376 . S
C474 C472 1.394 . S
C474 C475 1.369 . S
C474 C478 1.531 . S
C475 C474 1.369 . S
C475 C476 1.410 . S
C475 C483 1.503 . S
C476 C475 1.410 . S
C476 C477 1.392 . S
C476 C479 1.511 . S
C477 C473 1.376 . S
C477 C476 1.392 . S
C477 H489 0.929 . S
C478 C474 1.531 . S
C478 H490 0.960 . S
C478 H491 0.962 . S
C478 H492 0.960 . S
C479 C476 1.511 . S
C479 H493 0.961 . S
C479 H494 0.961 . S
C479 H495 0.961 . S
C480 C481 1.370 . S
C480 C482 1.363 . S
C480 H496 0.931 . S
C481 C480 1.370 . S
C481 C485 1.408 . S
C482 C480 1.363 . S
C482 C483 1.370 . S
C482 C486 1.524 . S
C483 C475 1.503 . S
C483 C482 1.370 . S
C483 C484 1.403 . S
C484 C483 1.403 . S
C484 C485 1.404 . S
C484 C487 1.539 . S
C485 C481 1.408 . S
C485 C484 1.404 . S
C485 H497 0.907 1_565 S
C486 C482 1.524 . S
C486 H498 0.956 . S
C486 H499 0.961 . S
C486 H500 0.961 . S
C487 C484 1.539 . S
C487 H501 0.958 1_565 S
C487 H502 0.961 1_565 S
C487 H503 0.960 . S
H488 C472 0.931 . S
H489 C477 0.929 . S
H490 C478 0.960 . S
H491 C478 0.962 . S
H492 C478 0.960 . S
H493 C479 0.961 . S
H494 C479 0.961 . S
H495 C479 0.961 . S
H496 C480 0.931 . S
H497 C485 0.907 1_545 S
H498 C486 0.956 . S
H499 C486 0.961 . S
H500 C486 0.961 . S
H501 C487 0.958 1_545 S
H502 C487 0.961 1_545 S
H503 C487 0.960 . S
C504 C505 1.391 . S
C504 C506 1.394 . S
C504 H520 0.931 . S
C505 C504 1.391 . S
C505 C509 1.376 . S
C506 C504 1.394 . S
C506 C507 1.369 . S
C506 C510 1.531 . S
C507 C506 1.369 . S
C507 C508 1.410 . S
C507 C515 1.503 . S
C508 C507 1.410 . S
C508 C509 1.392 . S
C508 C511 1.511 . S
C509 C505 1.376 . S
C509 C508 1.392 . S
C509 H521 0.929 . S
C510 C506 1.531 . S
C510 H522 0.960 . S
C510 H523 0.962 . S
C510 H524 0.960 . S
C511 C508 1.511 . S
C511 H525 0.961 . S
C511 H526 0.961 . S
C511 H527 0.961 . S
C512 C513 1.370 . S
C512 C514 1.363 . S
C512 H528 0.931 . S
C513 C512 1.370 . S
C513 C517 1.408 . S
C514 C512 1.363 . S
C514 C515 1.370 . S
C514 C518 1.524 . S
C515 C507 1.503 . S
C515 C514 1.370 . S
C515 C516 1.403 . S
C516 C515 1.403 . S
C516 C517 1.404 . S
C516 C519 1.539 . S
C517 C513 1.408 . S
C517 C516 1.404 . S
C517 H529 0.930 . S
C518 C514 1.524 . S
C518 H530 0.956 . S
C518 H531 0.961 . S
C518 H532 0.961 . S
C519 C516 1.539 . S
C519 H533 0.958 . S
C519 H534 0.961 . S
C519 H535 0.960 . S
H520 C504 0.931 . S
H521 C509 0.929 . S
H522 C510 0.960 . S
H523 C510 0.962 . S
H524 C510 0.960 . S
H525 C511 0.961 . S
H526 C511 0.961 . S
H527 C511 0.961 . S
H528 C512 0.931 . S
H529 C517 0.930 . S
H530 C518 0.956 . S
H531 C518 0.961 . S
H532 C518 0.961 . S
H533 C519 0.958 . S
H534 C519 0.961 . S
H535 C519 0.960 . S
C536 C537 1.391 . S
C536 C538 1.394 . S
C536 H552 0.931 . S
C537 C536 1.391 . S
C537 C541 1.376 . S
C538 C536 1.394 . S
C538 C539 1.369 . S
C538 C542 1.531 . S
C539 C538 1.369 . S
C539 C540 1.410 . S
C539 C547 1.503 . S
C540 C539 1.410 . S
C540 C541 1.392 . S
C540 C543 1.511 . S
C541 C537 1.376 . S
C541 C540 1.392 . S
C541 H553 0.929 . S
C542 C538 1.531 . S
C542 H554 0.960 . S
C542 H555 0.962 1_655 S
C542 H556 0.960 . S
C543 C540 1.511 . S
C543 H557 0.961 . S
C543 H558 0.961 . S
C543 H559 0.961 . S
C544 C545 1.370 . S
C544 C546 1.363 . S
C544 H560 0.931 . S
C545 C544 1.370 . S
C545 C549 1.408 . S
C546 C544 1.363 . S
C546 C547 1.370 . S
C546 C550 1.524 . S
C547 C539 1.503 . S
C547 C546 1.370 . S
C547 C548 1.403 . S
C548 C547 1.403 . S
C548 C549 1.404 . S
C548 C551 1.539 . S
C549 C545 1.408 . S
C549 C548 1.404 . S
C549 H561 0.930 . S
C550 C546 1.524 . S
C550 H562 0.956 1_655 S
C550 H563 0.961 . S
C550 H564 0.959 1_655 S
C551 C548 1.539 . S
C551 H565 0.958 . S
C551 H566 0.961 . S
C551 H567 0.960 . S
H552 C536 0.931 . S
H553 C541 0.929 . S
H554 C542 0.960 . S
H555 C542 0.962 1_455 S
H556 C542 0.960 . S
H557 C543 0.961 . S
H558 C543 0.961 . S
H559 C543 0.961 . S
H560 C544 0.931 . S
H561 C549 0.930 . S
H562 C550 0.956 1_455 S
H563 C550 0.961 . S
H564 C550 0.959 1_455 S
H565 C551 0.958 . S
H566 C551 0.961 . S
H567 C551 0.960 . S
C568 C569 1.391 . S
C568 C570 1.394 . S
C568 H584 0.931 . S
C569 C568 1.391 . S
C569 C573 1.376 . S
C570 C568 1.394 . S
C570 C571 1.369 . S
C570 C574 1.531 . S
C571 C570 1.369 . S
C571 C572 1.410 . S
C571 C579 1.503 . S
C572 C571 1.410 . S
C572 C573 1.392 . S
C572 C575 1.511 . S
C573 C569 1.376 . S
C573 C572 1.392 . S
C573 H585 0.929 . S
C574 C570 1.531 . S
C574 H586 0.960 1_554 S
C574 H587 0.962 . S
C574 H588 0.960 1_554 S
C575 C572 1.511 . S
C575 H589 0.961 . S
C575 H590 0.961 . S
C575 H591 0.961 . S
C576 C577 1.370 . S
C576 C578 1.363 . S
C576 H592 0.931 1_545 S
C577 C576 1.370 . S
C577 C581 1.408 . S
C578 C576 1.363 . S
C578 C579 1.370 . S
C578 C582 1.537 . S
C579 C571 1.503 . S
C579 C578 1.370 . S
C579 C580 1.403 . S
C580 C579 1.403 . S
C580 C581 1.404 . S
C580 C583 1.539 . S
C581 C577 1.408 . S
C581 C580 1.404 . S
C581 H593 0.930 . S
C582 C578 1.537 . S
C582 H594 0.947 1_545 S
C582 H595 0.975 . S
C582 H596 0.944 1_545 S
C583 C580 1.539 . S
C583 H597 0.958 1_554 S
C583 H598 0.961 . S
C583 H599 0.960 . S
H584 C568 0.931 . S
H585 C573 0.929 . S
H586 C574 0.960 1_556 S
H587 C574 0.962 . S
H588 C574 0.960 1_556 S
H589 C575 0.961 . S
H590 C575 0.961 . S
H591 C575 0.961 . S
H592 C576 0.931 1_565 S
H593 C581 0.930 . S
H594 C582 0.947 1_565 S
H595 C582 0.975 . S
H596 C582 0.944 1_565 S
H597 C583 0.958 1_556 S
H598 C583 0.961 . S
H599 C583 0.960 . S
C600 C601 1.391 . S
C600 C602 1.394 . S
C600 H616 0.931 . S
C601 C600 1.391 . S
C601 C605 1.376 . S
C602 C600 1.394 . S
C602 C603 1.369 . S
C602 C606 1.531 . S
C603 C602 1.369 . S
C603 C604 1.410 . S
C603 C611 1.503 . S
C604 C603 1.410 . S
C604 C605 1.392 . S
C604 C607 1.511 . S
C605 C601 1.376 . S
C605 C604 1.392 . S
C605 H617 0.929 . S
C606 C602 1.531 . S
C606 H618 0.960 . S
C606 H619 0.962 . S
C606 H620 0.960 . S
C607 C604 1.511 . S
C607 H621 0.961 . S
C607 H622 0.961 . S
C607 H623 0.961 . S
C608 C609 1.370 . S
C608 C610 1.363 . S
C608 H624 0.931 . S
C609 C608 1.370 . S
C609 C613 1.408 . S
C610 C608 1.363 . S
C610 C611 1.370 . S
C610 C614 1.524 . S
C611 C603 1.503 . S
C611 C610 1.370 . S
C611 C612 1.403 . S
C612 C611 1.403 . S
C612 C613 1.404 . S
C612 C615 1.539 . S
C613 C609 1.408 . S
C613 C612 1.404 . S
C613 H625 0.930 . S
C614 C610 1.524 . S
C614 H626 0.956 . S
C614 H627 0.961 . S
C614 H628 0.961 . S
C615 C612 1.539 . S
C615 H629 0.958 . S
C615 H630 0.961 . S
C615 H631 0.960 . S
H616 C600 0.931 . S
H617 C605 0.929 . S
H618 C606 0.960 . S
H619 C606 0.962 . S
H620 C606 0.960 . S
H621 C607 0.961 . S
H622 C607 0.961 . S
H623 C607 0.961 . S
H624 C608 0.931 . S
H625 C613 0.930 . S
H626 C614 0.956 . S
H627 C614 0.961 . S
H628 C614 0.961 . S
H629 C615 0.958 . S
H630 C615 0.961 . S
H631 C615 0.960 . S
C632 C633 1.391 . S
C632 C634 1.394 . S
C632 H648 0.931 . S
C633 C632 1.391 . S
C633 C637 1.376 . S
C634 C632 1.394 . S
C634 C635 1.369 . S
C634 C638 1.531 . S
C635 C634 1.369 . S
C635 C636 1.410 . S
C635 C643 1.503 . S
C636 C635 1.410 . S
C636 C637 1.392 . S
C636 C639 1.511 . S
C637 C633 1.376 . S
C637 C636 1.392 . S
C637 H649 0.929 . S
C638 C634 1.531 . S
C638 H650 0.960 . S
C638 H651 0.962 . S
C638 H652 0.960 . S
C639 C636 1.511 . S
C639 H653 0.961 1_556 S
C639 H654 0.967 . S
C639 H655 0.961 . S
C640 C641 1.370 . S
C640 C642 1.363 . S
C640 H656 0.931 1_556 S
C641 C640 1.370 . S
C641 C645 1.408 . S
C642 C640 1.363 . S
C642 C643 1.370 . S
C642 C646 1.524 . S
C643 C635 1.503 . S
C643 C642 1.370 . S
C643 C644 1.403 . S
C644 C643 1.403 . S
C644 C645 1.404 . S
C644 C647 1.539 . S
C645 C641 1.408 . S
C645 C644 1.404 . S
C645 H657 0.930 . S
C646 C642 1.524 . S
C646 H658 0.956 . S
C646 H659 0.961 1_556 S
C646 H660 0.961 1_556 S
C647 C644 1.539 . S
C647 H661 0.958 . S
C647 H662 0.961 . S
C647 H663 0.960 . S
H648 C632 0.931 . S
H649 C637 0.929 . S
H650 C638 0.960 . S
H651 C638 0.962 . S
H652 C638 0.960 . S
H653 C639 0.961 1_554 S
H654 C639 0.967 . S
H655 C639 0.961 . S
H656 C640 0.931 1_554 S
H657 C645 0.930 . S
H658 C646 0.956 . S
H659 C646 0.961 1_554 S
H660 C646 0.961 1_554 S
H661 C647 0.958 . S
H662 C647 0.961 . S
H663 C647 0.960 . S
C664 C665 1.391 . S
C664 C666 1.394 . S
C664 H680 0.931 . S
C665 C664 1.391 . S
C665 C669 1.376 . S
C666 C664 1.394 . S
C666 C667 1.369 . S
C666 C670 1.531 . S
C667 C666 1.369 . S
C667 C668 1.410 . S
C667 C675 1.503 . S
C668 C667 1.410 . S
C668 C669 1.392 . S
C668 C671 1.511 . S
C669 C665 1.376 . S
C669 C668 1.392 . S
C669 H681 0.929 . S
C670 C666 1.531 . S
C670 H682 0.960 . S
C670 H683 0.962 . S
C670 H684 0.960 . S
C671 C668 1.511 . S
C671 H685 0.961 . S
C671 H686 0.961 . S
C671 H687 0.961 . S
C672 C673 1.370 . S
C672 C674 1.363 . S
C672 H688 0.931 . S
C673 C672 1.370 . S
C673 C677 1.408 . S
C674 C672 1.363 . S
C674 C675 1.370 . S
C674 C678 1.524 . S
C675 C667 1.503 . S
C675 C674 1.370 . S
C675 C676 1.403 . S
C676 C675 1.403 . S
C676 C677 1.404 . S
C676 C679 1.539 . S
C677 C673 1.408 . S
C677 C676 1.404 . S
C677 H689 0.930 . S
C678 C674 1.524 . S
C678 H690 0.956 . S
C678 H691 0.961 . S
C678 H692 0.961 . S
C679 C676 1.539 . S
C679 H693 0.958 . S
C679 H694 0.961 . S
C679 H695 0.960 . S
H680 C664 0.931 . S
H681 C669 0.929 . S
H682 C670 0.960 . S
H683 C670 0.962 . S
H684 C670 0.960 . S
H685 C671 0.961 . S
H686 C671 0.961 . S
H687 C671 0.961 . S
H688 C672 0.931 . S
H689 C677 0.930 . S
H690 C678 0.956 . S
H691 C678 0.961 . S
H692 C678 0.961 . S
H693 C679 0.958 . S
H694 C679 0.961 . S
H695 C679 0.960 . S
C696 C697 1.391 . S
C696 C698 1.394 . S
C696 H712 0.931 . S
C697 C696 1.391 . S
C697 C701 1.376 . S
C698 C696 1.394 . S
C698 C699 1.369 . S
C698 C702 1.531 . S
C699 C698 1.369 . S
C699 C700 1.410 . S
C699 C707 1.503 . S
C700 C699 1.410 . S
C700 C701 1.392 . S
C700 C703 1.508 . S
C701 C697 1.376 . S
C701 C700 1.392 . S
C701 H713 0.929 . S
C702 C698 1.531 . S
C702 H714 0.962 1_554 S
C702 H715 0.962 . S
C702 H716 0.960 1_554 S
C703 C700 1.508 . S
C703 H717 0.961 1_455 S
C703 H718 0.961 . S
C703 H719 0.963 1_455 S
C704 C705 1.370 . S
C704 C706 1.363 . S
C704 H720 0.931 . S
C705 C704 1.370 . S
C705 C709 1.408 . S
C706 C704 1.363 . S
C706 C707 1.370 . S
C706 C710 1.524 . S
C707 C699 1.503 . S
C707 C706 1.370 . S
C707 C708 1.403 . S
C708 C707 1.403 . S
C708 C709 1.404 . S
C708 C711 1.539 1_554 S
C709 C705 1.408 . S
C709 C708 1.404 . S
C709 H721 0.930 1_554 S
C710 C706 1.524 . S
C710 H722 0.956 . S
C710 H723 0.961 . S
C710 H724 0.961 . S
C711 C708 1.539 1_556 S
C711 H725 0.958 . S
C711 H726 0.961 1_455 S
C711 H727 0.960 1_556 S
H712 C696 0.931 . S
H713 C701 0.929 . S
H714 C702 0.962 1_556 S
H715 C702 0.962 . S
H716 C702 0.960 1_556 S
H717 C703 0.961 1_655 S
H718 C703 0.961 . S
H719 C703 0.963 1_655 S
H720 C704 0.931 . S
H721 C709 0.930 1_556 S
H722 C710 0.956 . S
H723 C710 0.961 . S
H724 C710 0.961 . S
H725 C711 0.958 . S
H726 C711 0.961 1_655 S
H727 C711 0.960 1_554 S
C728 C729 1.391 . S
C728 C730 1.394 . S
C728 H744 0.931 . S
C729 C728 1.391 . S
C729 C733 1.376 . S
C730 C728 1.394 . S
C730 C731 1.369 . S
C730 C734 1.531 . S
C731 C730 1.369 . S
C731 C732 1.410 . S
C731 C739 1.503 . S
C732 C731 1.410 . S
C732 C733 1.392 . S
C732 C735 1.511 . S
C733 C729 1.376 . S
C733 C732 1.392 . S
C733 H745 0.929 . S
C734 C730 1.531 . S
C734 H746 0.960 . S
C734 H747 0.962 . S
C734 H748 0.960 . S
C735 C732 1.511 . S
C735 H749 0.961 . S
C735 H750 0.961 . S
C735 H751 0.961 . S
C736 C737 1.370 . S
C736 C738 1.363 . S
C736 H752 0.931 1_556 S
C737 C736 1.370 . S
C737 C741 1.408 . S
C738 C736 1.363 . S
C738 C739 1.370 . S
C738 C742 1.524 1_556 S
C739 C731 1.503 . S
C739 C738 1.370 . S
C739 C740 1.403 . S
C740 C739 1.403 . S
C740 C741 1.404 . S
C740 C743 1.539 . S
C741 C737 1.408 . S
C741 C740 1.404 . S
C741 H753 0.930 . S
C742 C738 1.524 1_554 S
C742 H754 0.956 . S
C742 H755 0.961 . S
C742 H756 0.961 . S
C743 C740 1.539 . S
C743 H757 0.958 . S
C743 H758 0.961 . S
C743 H759 0.960 . S
H744 C728 0.931 . S
H745 C733 0.929 . S
H746 C734 0.960 . S
H747 C734 0.962 . S
H748 C734 0.960 . S
H749 C735 0.961 . S
H750 C735 0.961 . S
H751 C735 0.961 . S
H752 C736 0.931 1_554 S
H753 C741 0.930 . S
H754 C742 0.956 . S
H755 C742 0.961 . S
H756 C742 0.961 . S
H757 C743 0.958 . S
H758 C743 0.961 . S
H759 C743 0.960 . S
C760 C761 1.391 . S
C760 C762 1.394 . S
C760 H776 0.931 1_655 S
C761 C760 1.391 . S
C761 C765 1.376 . S
C762 C760 1.394 . S
C762 C763 1.369 . S
C762 C766 1.531 1_655 S
C763 C762 1.369 . S
C763 C764 1.410 . S
C763 C771 1.503 . S
C764 C763 1.410 . S
C764 C765 1.392 . S
C764 C767 1.511 . S
C765 C761 1.376 . S
C765 C764 1.392 . S
C765 H777 0.929 . S
C766 C762 1.531 1_455 S
C766 H778 0.960 . S
C766 H779 0.962 . S
C766 H780 0.960 . S
C767 C764 1.511 . S
C767 H781 0.961 . S
C767 H782 0.961 . S
C767 H783 0.961 . S
C768 C769 1.370 . S
C768 C770 1.363 . S
C768 H784 0.931 . S
C769 C768 1.370 . S
C769 C773 1.408 . S
C770 C768 1.363 . S
C770 C771 1.370 . S
C770 C774 1.524 . S
C771 C763 1.503 . S
C771 C770 1.370 . S
C771 C772 1.403 . S
C772 C771 1.403 . S
C772 C773 1.404 . S
C772 C775 1.539 . S
C773 C769 1.408 . S
C773 C772 1.404 . S
C773 H785 0.930 . S
C774 C770 1.524 . S
C774 H786 0.956 . S
C774 H787 0.961 . S
C774 H788 0.961 . S
C775 C772 1.539 . S
C775 H789 0.958 1_655 S
C775 H790 0.961 . S
C775 H791 0.960 . S
H776 C760 0.931 1_455 S
H777 C765 0.929 . S
H778 C766 0.960 . S
H779 C766 0.962 . S
H780 C766 0.960 . S
H781 C767 0.961 . S
H782 C767 0.961 . S
H783 C767 0.961 . S
H784 C768 0.931 . S
H785 C773 0.930 . S
H786 C774 0.956 . S
H787 C774 0.961 . S
H788 C774 0.961 . S
H789 C775 0.958 1_455 S
H790 C775 0.961 . S
H791 C775 0.960 . S
C792 C793 1.391 . S
C792 C794 1.394 . S
C792 H808 0.931 . S
C793 C792 1.391 . S
C793 C797 1.376 . S
C794 C792 1.394 . S
C794 C795 1.369 . S
C794 C798 1.531 . S
C795 C794 1.369 . S
C795 C796 1.410 . S
C795 C803 1.503 . S
C796 C795 1.410 . S
C796 C797 1.392 . S
C796 C799 1.511 . S
C797 C793 1.376 . S
C797 C796 1.392 . S
C797 H809 0.929 . S
C798 C794 1.531 . S
C798 H810 0.960 . S
C798 H811 0.962 . S
C798 H812 0.960 . S
C799 C796 1.511 . S
C799 H813 0.961 . S
C799 H814 0.961 . S
C799 H815 0.961 . S
C800 C801 1.370 . S
C800 C802 1.363 . S
C800 H816 0.931 . S
C801 C800 1.370 . S
C801 C805 1.408 . S
C802 C800 1.363 . S
C802 C803 1.370 . S
C802 C806 1.524 . S
C803 C795 1.503 . S
C803 C802 1.370 . S
C803 C804 1.403 . S
C804 C803 1.403 . S
C804 C805 1.404 . S
C804 C807 1.539 . S
C805 C801 1.408 . S
C805 C804 1.404 . S
C805 H817 0.930 . S
C806 C802 1.524 . S
C806 H818 0.956 . S
C806 H819 0.961 . S
C806 H820 0.961 . S
C807 C804 1.539 . S
C807 H821 0.958 . S
C807 H822 0.961 . S
C807 H823 0.960 . S
H808 C792 0.931 . S
H809 C797 0.929 . S
H810 C798 0.960 . S
H811 C798 0.962 . S
H812 C798 0.960 . S
H813 C799 0.961 . S
H814 C799 0.961 . S
H815 C799 0.961 . S
H816 C800 0.931 . S
H817 C805 0.930 . S
H818 C806 0.956 . S
H819 C806 0.961 . S
H820 C806 0.961 . S
H821 C807 0.958 . S
H822 C807 0.961 . S
H823 C807 0.960 . S
C824 C825 1.391 . S
C824 C826 1.394 . S
C824 H840 0.931 . S
C825 C824 1.391 . S
C825 C829 1.376 . S
C826 C824 1.394 . S
C826 C827 1.369 . S
C826 C830 1.531 1_655 S
C827 C826 1.369 . S
C827 C828 1.410 . S
C827 C835 1.503 . S
C828 C827 1.410 . S
C828 C829 1.392 . S
C828 C831 1.511 . S
C829 C825 1.376 . S
C829 C828 1.392 . S
C829 H841 0.929 . S
C830 C826 1.531 1_455 S
C830 H842 0.960 . S
C830 H843 0.962 . S
C830 H844 0.960 . S
C831 C828 1.511 . S
C831 H845 0.961 . S
C831 H846 0.961 . S
C831 H847 0.961 . S
C832 C833 1.370 . S
C832 C834 1.363 . S
C832 H848 0.931 1_565 S
C833 C832 1.370 . S
C833 C837 1.408 . S
C834 C832 1.363 . S
C834 C835 1.370 . S
C834 C838 1.524 1_565 S
C835 C827 1.503 . S
C835 C834 1.370 . S
C835 C836 1.403 . S
C836 C835 1.403 . S
C836 C837 1.404 . S
C836 C839 1.539 . S
C837 C833 1.408 . S
C837 C836 1.404 . S
C837 H849 0.930 . S
C838 C834 1.524 1_545 S
C838 H850 0.956 . S
C838 H851 0.961 . S
C838 H852 0.961 . S
C839 C836 1.539 . S
C839 H853 0.958 . S
C839 H854 0.961 . S
C839 H855 0.960 . S
H840 C824 0.931 . S
H841 C829 0.929 . S
H842 C830 0.960 . S
H843 C830 0.962 . S
H844 C830 0.960 . S
H845 C831 0.961 . S
H846 C831 0.961 . S
H847 C831 0.961 . S
H848 C832 0.931 1_545 S
H849 C837 0.930 . S
H850 C838 0.956 . S
H851 C838 0.961 . S
H852 C838 0.961 . S
H853 C839 0.958 . S
H854 C839 0.961 . S
H855 C839 0.960 . S
C856 C857 1.391 . S
C856 C858 1.394 . S
C856 H872 0.931 . S
C857 C856 1.391 . S
C857 C861 1.376 . S
C858 C856 1.394 . S
C858 C859 1.369 . S
C858 C862 1.531 . S
C859 C858 1.369 . S
C859 C860 1.410 . S
C859 C867 1.503 . S
C860 C859 1.410 . S
C860 C861 1.392 . S
C860 C863 1.511 . S
C861 C857 1.376 . S
C861 C860 1.392 . S
C861 H873 0.929 . S
C862 C858 1.531 . S
C862 H874 0.960 . S
C862 H875 0.962 . S
C862 H876 0.960 . S
C863 C860 1.511 . S
C863 H877 0.961 . S
C863 H878 0.961 . S
C863 H879 0.961 . S
C864 C865 1.370 . S
C864 C866 1.363 . S
C864 H880 0.931 . S
C865 C864 1.370 . S
C865 C869 1.408 . S
C866 C864 1.363 . S
C866 C867 1.370 . S
C866 C870 1.524 . S
C867 C859 1.503 . S
C867 C866 1.370 . S
C867 C868 1.403 . S
C868 C867 1.403 . S
C868 C869 1.404 . S
C868 C871 1.539 . S
C869 C865 1.408 . S
C869 C868 1.404 . S
C869 H881 0.930 . S
C870 C866 1.524 . S
C870 H882 0.956 . S
C870 H883 0.961 . S
C870 H884 0.961 1_545 S
C871 C868 1.539 . S
C871 H885 0.958 . S
C871 H886 0.961 . S
C871 H887 0.960 . S
H872 C856 0.931 . S
H873 C861 0.929 . S
H874 C862 0.960 . S
H875 C862 0.962 . S
H876 C862 0.960 . S
H877 C863 0.961 . S
H878 C863 0.961 . S
H879 C863 0.961 . S
H880 C864 0.931 . S
H881 C869 0.930 . S
H882 C870 0.956 . S
H883 C870 0.961 . S
H884 C870 0.961 1_565 S
H885 C871 0.958 . S
H886 C871 0.961 . S
H887 C871 0.960 . S
C888 C889 1.391 . S
C888 C890 1.394 . S
C888 H904 0.931 . S
C889 C888 1.391 . S
C889 C893 1.376 . S
C890 C888 1.394 . S
C890 C891 1.369 . S
C890 C894 1.531 . S
C891 C890 1.369 . S
C891 C892 1.410 . S
C891 C899 1.503 . S
C892 C891 1.410 . S
C892 C893 1.392 . S
C892 C895 1.511 . S
C893 C889 1.376 . S
C893 C892 1.392 . S
C893 H905 0.929 . S
C894 C890 1.531 . S
C894 H906 0.960 . S
C894 H907 0.962 . S
C894 H908 0.960 . S
C895 C892 1.511 . S
C895 H909 0.961 . S
C895 H910 0.961 . S
C895 H911 0.961 . S
C896 C897 1.370 . S
C896 C898 1.363 . S
C896 H912 0.931 . S
C897 C896 1.370 . S
C897 C901 1.408 . S
C898 C896 1.363 . S
C898 C899 1.370 . S
C898 C902 1.524 . S
C899 C891 1.503 . S
C899 C898 1.370 . S
C899 C900 1.403 . S
C900 C899 1.403 . S
C900 C901 1.404 . S
C900 C903 1.539 . S
C901 C897 1.408 . S
C901 C900 1.404 . S
C901 H913 0.930 . S
C902 C898 1.524 . S
C902 H914 0.956 . S
C902 H915 0.961 . S
C902 H916 0.961 . S
C903 C900 1.539 . S
C903 H917 0.958 . S
C903 H918 0.961 . S
C903 H919 0.960 . S
H904 C888 0.931 . S
H905 C893 0.929 . S
H906 C894 0.960 . S
H907 C894 0.962 . S
H908 C894 0.960 . S
H909 C895 0.961 . S
H910 C895 0.961 . S
H911 C895 0.961 . S
H912 C896 0.931 . S
H913 C901 0.930 . S
H914 C902 0.956 . S
H915 C902 0.961 . S
H916 C902 0.961 . S
H917 C903 0.958 . S
H918 C903 0.961 . S
H919 C903 0.960 . S
C920 C921 1.391 . S
C920 C922 1.394 . S
C920 H936 0.931 . S
C921 C920 1.391 . S
C921 C925 1.376 . S
C922 C920 1.394 . S
C922 C923 1.369 . S
C922 C926 1.507 1_455 S
C923 C922 1.369 . S
C923 C924 1.410 . S
C923 C931 1.503 . S
C924 C923 1.410 . S
C924 C925 1.392 . S
C924 C927 1.511 . S
C925 C921 1.376 . S
C925 C924 1.392 . S
C925 H937 0.929 . S
C926 C922 1.507 1_655 S
C926 H938 0.965 . S
C926 H939 0.958 1_655 S
C926 H940 0.984 . S
C927 C924 1.511 . S
C927 H941 0.961 . S
C927 H942 0.961 . S
C927 H943 0.961 . S
C928 C929 1.370 . S
C928 C930 1.363 . S
C928 H944 0.931 . S
C929 C928 1.370 . S
C929 C933 1.408 . S
C930 C928 1.363 . S
C930 C931 1.370 . S
C930 C934 1.524 . S
C931 C923 1.503 . S
C931 C930 1.370 . S
C931 C932 1.403 . S
C932 C931 1.403 . S
C932 C933 1.404 . S
C932 C935 1.539 . S
C933 C929 1.408 . S
C933 C932 1.404 . S
C933 H945 0.930 . S
C934 C930 1.524 . S
C934 H946 0.956 . S
C934 H947 0.961 . S
C934 H948 0.961 . S
C935 C932 1.539 . S
C935 H949 0.976 . S
C935 H950 0.961 . S
C935 H951 0.960 . S
H936 C920 0.931 . S
H937 C925 0.929 . S
H938 C926 0.965 . S
H939 C926 0.958 1_455 S
H940 C926 0.984 . S
H941 C927 0.961 . S
H942 C927 0.961 . S
H943 C927 0.961 . S
H944 C928 0.931 . S
H945 C933 0.930 . S
H946 C934 0.956 . S
H947 C934 0.961 . S
H948 C934 0.961 . S
H949 C935 0.976 . S
H950 C935 0.961 . S
H951 C935 0.960 . S
C952 C953 1.391 . S
C952 C954 1.394 . S
C952 H968 0.931 . S
C953 C952 1.391 . S
C953 C957 1.376 . S
C954 C952 1.394 . S
C954 C955 1.369 . S
C954 C958 1.529 . S
C955 C954 1.369 . S
C955 C956 1.410 . S
C955 C963 1.503 . S
C956 C955 1.410 . S
C956 C957 1.392 . S
C956 C959 1.511 . S
C957 C953 1.376 . S
C957 C956 1.392 . S
C957 H969 0.929 . S
C958 C954 1.529 . S
C958 H970 0.960 1_565 S
C958 H971 0.963 1_556 S
C958 H972 0.961 1_566 S
C959 C956 1.511 . S
C959 H973 0.961 . S
C959 H974 0.961 . S
C959 H975 0.961 . S
C960 C961 1.370 . S
C960 C962 1.363 . S
C960 H976 0.937 . S
C961 C960 1.370 . S
C961 C965 1.408 . S
C962 C960 1.363 . S
C962 C963 1.370 . S
C962 C966 1.524 . S
C963 C955 1.503 . S
C963 C962 1.370 . S
C963 C964 1.403 . S
C964 C963 1.403 . S
C964 C965 1.404 . S
C964 C967 1.539 1_565 S
C965 C961 1.408 . S
C965 C964 1.404 . S
C965 H977 0.930 1_565 S
C966 C962 1.524 . S
C966 H978 0.956 1_556 S
C966 H979 0.961 . S
C966 H980 0.961 1_556 S
C967 C964 1.539 1_545 S
C967 H981 0.958 . S
C967 H982 0.961 . S
C967 H983 0.960 . S
H968 C952 0.931 . S
H969 C957 0.929 . S
H970 C958 0.960 1_545 S
H971 C958 0.963 1_554 S
H972 C958 0.961 1_544 S
H973 C959 0.961 . S
H974 C959 0.961 . S
H975 C959 0.961 . S
H976 C960 0.937 . S
H977 C965 0.930 1_545 S
H978 C966 0.956 1_554 S
H979 C966 0.961 . S
H980 C966 0.961 1_554 S
H981 C967 0.958 . S
H982 C967 0.961 . S
H983 C967 0.960 . S
C984 C985 1.391 . S
C984 C986 1.394 . S
C984 H1000 0.931 . S
C985 C984 1.391 . S
C985 C989 1.376 . S
C986 C984 1.394 . S
C986 C987 1.369 . S
C986 C990 1.531 . S
C987 C986 1.369 . S
C987 C988 1.410 . S
C987 C995 1.503 . S
C988 C987 1.410 . S
C988 C989 1.392 . S
C988 C991 1.511 . S
C989 C985 1.376 . S
C989 C988 1.392 . S
C989 H1001 0.929 . S
C990 C986 1.531 . S
C990 H1002 0.960 . S
C990 H1003 0.962 . S
C990 H1004 0.960 . S
C991 C988 1.511 . S
C991 H1005 0.961 . S
C991 H1006 0.961 . S
C991 H1007 0.961 . S
C992 C993 1.370 . S
C992 C994 1.363 . S
C992 H1008 0.931 . S
C993 C992 1.370 . S
C993 C997 1.408 . S
C994 C992 1.363 . S
C994 C995 1.370 . S
C994 C998 1.524 . S
C995 C987 1.503 . S
C995 C994 1.370 . S
C995 C996 1.403 . S
C996 C995 1.403 . S
C996 C997 1.404 . S
C996 C999 1.539 . S
C997 C993 1.408 . S
C997 C996 1.404 . S
C997 H1009 0.930 . S
C998 C994 1.524 . S
C998 H1010 0.956 . S
C998 H1011 0.961 . S
C998 H1012 0.961 . S
C999 C996 1.539 . S
C999 H1013 0.958 . S
C999 H1014 0.961 . S
C999 H1015 0.960 . S
H1000 C984 0.931 . S
H1001 C989 0.929 . S
H1002 C990 0.960 . S
H1003 C990 0.962 . S
H1004 C990 0.960 . S
H1005 C991 0.961 . S
H1006 C991 0.961 . S
H1007 C991 0.961 . S
H1008 C992 0.931 . S
H1009 C997 0.930 . S
H1010 C998 0.956 . S
H1011 C998 0.961 . S
H1012 C998 0.961 . S
H1013 C999 0.958 . S
H1014 C999 0.961 . S
H1015 C999 0.960 . S
C1016 C1017 1.391 . S
C1016 C1018 1.394 . S
C1016 H1032 0.931 . S
C1017 C1016 1.391 . S
C1017 C1021 1.376 . S
C1018 C1016 1.394 . S
C1018 C1019 1.369 . S
C1018 C1022 1.531 . S
C1019 C1018 1.369 . S
C1019 C1020 1.410 . S
C1019 C1027 1.503 . S
C1020 C1019 1.410 . S
C1020 C1021 1.392 . S
C1020 C1023 1.511 . S
C1021 C1017 1.376 . S
C1021 C1020 1.392 . S
C1021 H1033 0.929 . S
C1022 C1018 1.531 . S
C1022 H1034 0.960 . S
C1022 H1035 0.962 . S
C1022 H1036 0.960 . S
C1023 C1020 1.511 . S
C1023 H1037 0.961 1_554 S
C1023 H1038 0.961 . S
C1023 H1039 0.961 1_554 S
C1024 C1025 1.370 . S
C1024 C1026 1.363 . S
C1024 H1040 0.931 . S
C1025 C1024 1.370 . S
C1025 C1029 1.408 . S
C1026 C1024 1.363 . S
C1026 C1027 1.370 . S
C1026 C1030 1.524 . S
C1027 C1019 1.503 . S
C1027 C1026 1.370 . S
C1027 C1028 1.403 . S
C1028 C1027 1.403 . S
C1028 C1029 1.404 . S
C1028 C1031 1.539 . S
C1029 C1025 1.408 . S
C1029 C1028 1.404 . S
C1029 H1041 0.930 . S
C1030 C1026 1.524 . S
C1030 H1042 0.956 . S
C1030 H1043 0.961 . S
C1030 H1044 0.961 . S
C1031 C1028 1.539 . S
C1031 H1045 0.958 . S
C1031 H1046 0.961 1_554 S
C1031 H1047 0.960 . S
H1032 C1016 0.931 . S
H1033 C1021 0.929 . S
H1034 C1022 0.960 . S
H1035 C1022 0.962 . S
H1036 C1022 0.960 . S
H1037 C1023 0.961 1_556 S
H1038 C1023 0.961 . S
H1039 C1023 0.961 1_556 S
H1040 C1024 0.931 . S
H1041 C1029 0.930 . S
H1042 C1030 0.956 . S
H1043 C1030 0.961 . S
H1044 C1030 0.961 . S
H1045 C1031 0.958 . S
H1046 C1031 0.961 1_556 S
H1047 C1031 0.960 . S
C1048 C1049 1.391 . S
C1048 C1050 1.394 . S
C1048 H1064 0.931 . S
C1049 C1048 1.391 . S
C1049 C1053 1.376 . S
C1050 C1048 1.394 . S
C1050 C1051 1.369 . S
C1050 C1054 1.531 . S
C1051 C1050 1.369 . S
C1051 C1052 1.410 . S
C1051 C1059 1.503 . S
C1052 C1051 1.410 . S
C1052 C1053 1.392 . S
C1052 C1055 1.511 . S
C1053 C1049 1.376 . S
C1053 C1052 1.392 . S
C1053 H1065 0.929 . S
C1054 C1050 1.531 . S
C1054 H1066 0.960 . S
C1054 H1067 0.962 . S
C1054 H1068 0.960 . S
C1055 C1052 1.511 . S
C1055 H1069 0.961 . S
C1055 H1070 0.961 . S
C1055 H1071 0.961 . S
C1056 C1057 1.370 . S
C1056 C1058 1.363 . S
C1056 H1072 0.931 . S
C1057 C1056 1.370 . S
C1057 C1061 1.408 . S
C1058 C1056 1.363 . S
C1058 C1059 1.370 . S
C1058 C1062 1.524 . S
C1059 C1051 1.503 . S
C1059 C1058 1.370 . S
C1059 C1060 1.403 . S
C1060 C1059 1.403 . S
C1060 C1061 1.404 . S
C1060 C1063 1.539 . S
C1061 C1057 1.408 . S
C1061 C1060 1.404 . S
C1061 H1073 0.930 . S
C1062 C1058 1.524 . S
C1062 H1074 0.956 . S
C1062 H1075 0.961 . S
C1062 H1076 0.961 . S
C1063 C1060 1.539 . S
C1063 H1077 0.958 . S
C1063 H1078 0.961 . S
C1063 H1079 0.960 . S
H1064 C1048 0.931 . S
H1065 C1053 0.929 . S
H1066 C1054 0.960 . S
H1067 C1054 0.962 . S
H1068 C1054 0.960 . S
H1069 C1055 0.961 . S
H1070 C1055 0.961 . S
H1071 C1055 0.961 . S
H1072 C1056 0.931 . S
H1073 C1061 0.930 . S
H1074 C1062 0.956 . S
H1075 C1062 0.961 . S
H1076 C1062 0.961 . S
H1077 C1063 0.958 . S
H1078 C1063 0.961 . S
H1079 C1063 0.960 . S
C1080 C1081 1.391 . S
C1080 C1082 1.394 . S
C1080 H1096 0.931 . S
C1081 C1080 1.391 . S
C1081 C1085 1.376 . S
C1082 C1080 1.394 . S
C1082 C1083 1.369 . S
C1082 C1086 1.531 . S
C1083 C1082 1.369 . S
C1083 C1084 1.410 . S
C1083 C1091 1.503 . S
C1084 C1083 1.410 . S
C1084 C1085 1.392 . S
C1084 C1087 1.511 . S
C1085 C1081 1.376 . S
C1085 C1084 1.392 . S
C1085 H1097 0.929 . S
C1086 C1082 1.531 . S
C1086 H1098 0.960 1_556 S
C1086 H1099 0.962 1_655 S
C1086 H1100 0.960 1_556 S
C1087 C1084 1.511 . S
C1087 H1101 0.961 . S
C1087 H1102 0.961 . S
C1087 H1103 0.961 . S
C1088 C1089 1.370 . S
C1088 C1090 1.363 . S
C1088 H1104 0.933 1_655 S
C1089 C1088 1.370 . S
C1089 C1093 1.409 . S
C1090 C1088 1.363 . S
C1090 C1091 1.370 . S
C1090 C1094 1.524 . S
C1091 C1083 1.503 . S
C1091 C1090 1.370 . S
C1091 C1092 1.403 . S
C1092 C1091 1.403 . S
C1092 C1093 1.404 . S
C1092 C1095 1.539 1_556 S
C1093 C1089 1.409 . S
C1093 C1092 1.404 . S
C1093 H1105 0.929 1_556 S
C1094 C1090 1.524 . S
C1094 H1106 0.956 1_655 S
C1094 H1107 0.961 . S
C1094 H1108 0.946 1_655 S
C1095 C1092 1.539 1_554 S
C1095 H1109 0.958 . S
C1095 H1110 0.961 . S
C1095 H1111 0.960 . S
H1096 C1080 0.931 . S
H1097 C1085 0.929 . S
H1098 C1086 0.960 1_554 S
H1099 C1086 0.962 1_455 S
H1100 C1086 0.960 1_554 S
H1101 C1087 0.961 . S
H1102 C1087 0.961 . S
H1103 C1087 0.961 . S
H1104 C1088 0.933 1_455 S
H1105 C1093 0.929 1_554 S
H1106 C1094 0.956 1_455 S
H1107 C1094 0.961 . S
H1108 C1094 0.946 1_455 S
H1109 C1095 0.958 . S
H1110 C1095 0.961 . S
H1111 C1095 0.960 . S
C1112 C1113 1.391 . S
C1112 C1114 1.394 . S
C1112 H1128 0.931 . S
C1113 C1112 1.391 . S
C1113 C1117 1.376 . S
C1114 C1112 1.394 . S
C1114 C1115 1.369 . S
C1114 C1118 1.531 . S
C1115 C1114 1.369 . S
C1115 C1116 1.410 . S
C1115 C1123 1.503 . S
C1116 C1115 1.410 . S
C1116 C1117 1.392 . S
C1116 C1119 1.511 . S
C1117 C1113 1.376 . S
C1117 C1116 1.392 . S
C1117 H1129 0.929 . S
C1118 C1114 1.531 . S
C1118 H1130 0.960 . S
C1118 H1131 0.962 . S
C1118 H1132 0.960 . S
C1119 C1116 1.511 . S
C1119 H1133 0.961 1_554 S
C1119 H1134 0.961 . S
C1119 H1135 0.961 . S
C1120 C1121 1.370 . S
C1120 C1122 1.363 . S
C1120 H1136 0.931 . S
C1121 C1120 1.370 . S
C1121 C1125 1.408 . S
C1122 C1120 1.363 . S
C1122 C1123 1.370 . S
C1122 C1126 1.524 . S
C1123 C1115 1.503 . S
C1123 C1122 1.370 . S
C1123 C1124 1.403 . S
C1124 C1123 1.403 . S
C1124 C1125 1.404 . S
C1124 C1127 1.539 . S
C1125 C1121 1.408 . S
C1125 C1124 1.404 . S
C1125 H1137 0.930 . S
C1126 C1122 1.524 . S
C1126 H1138 0.956 . S
C1126 H1139 0.961 . S
C1126 H1140 0.961 . S
C1127 C1124 1.539 . S
C1127 H1141 0.958 . S
C1127 H1142 0.961 . S
C1127 H1143 0.960 . S
H1128 C1112 0.931 . S
H1129 C1117 0.929 . S
H1130 C1118 0.960 . S
H1131 C1118 0.962 . S
H1132 C1118 0.960 . S
H1133 C1119 0.961 1_556 S
H1134 C1119 0.961 . S
H1135 C1119 0.961 . S
H1136 C1120 0.931 . S
H1137 C1125 0.930 . S
H1138 C1126 0.956 . S
H1139 C1126 0.961 . S
H1140 C1126 0.961 . S
H1141 C1127 0.958 . S
H1142 C1127 0.961 . S
H1143 C1127 0.960 . S
C1144 C1145 1.391 . S
C1144 C1146 1.394 . S
C1144 H1160 0.931 . S
C1145 C1144 1.391 . S
C1145 C1149 1.376 . S
C1146 C1144 1.394 . S
C1146 C1147 1.369 . S
C1146 C1150 1.531 . S
C1147 C1146 1.369 . S
C1147 C1148 1.410 . S
C1147 C1155 1.503 . S
C1148 C1147 1.410 . S
C1148 C1149 1.392 . S
C1148 C1151 1.511 . S
C1149 C1145 1.376 . S
C1149 C1148 1.392 . S
C1149 H1161 0.929 . S
C1150 C1146 1.531 . S
C1150 H1162 0.960 . S
C1150 H1163 0.962 . S
C1150 H1164 0.960 . S
C1151 C1148 1.511 . S
C1151 H1165 0.961 . S
C1151 H1166 0.961 . S
C1151 H1167 0.961 1_455 S
C1152 C1153 1.370 . S
C1152 C1154 1.363 . S
C1152 H1168 0.931 . S
C1153 C1152 1.370 . S
C1153 C1157 1.408 1_455 S
C1154 C1152 1.363 . S
C1154 C1155 1.370 . S
C1154 C1158 1.524 . S
C1155 C1147 1.503 . S
C1155 C1154 1.370 . S
C1155 C1156 1.386 1_455 S
C1156 C1155 1.386 1_655 S
C1156 C1157 1.405 . S
C1156 C1159 1.556 . S
C1157 C1153 1.408 1_655 S
C1157 C1156 1.405 . S
C1157 H1169 0.930 . S
C1158 C1154 1.524 . S
C1158 H1170 0.956 . S
C1158 H1171 0.961 . S
C1158 H1172 0.961 . S
C1159 C1156 1.556 . S
C1159 H1173 0.958 . S
C1159 H1174 0.961 . S
C1159 H1175 0.960 . S
H1160 C1144 0.931 . S
H1161 C1149 0.929 . S
H1162 C1150 0.960 . S
H1163 C1150 0.962 . S
H1164 C1150 0.960 . S
H1165 C1151 0.961 . S
H1166 C1151 0.961 . S
H1167 C1151 0.961 1_655 S
H1168 C1152 0.931 . S
H1169 C1157 0.930 . S
H1170 C1158 0.956 . S
H1171 C1158 0.961 . S
H1172 C1158 0.961 . S
H1173 C1159 0.958 . S
H1174 C1159 0.961 . S
H1175 C1159 0.960 . S
C1176 C1177 1.391 . S
C1176 C1178 1.394 . S
C1176 H1192 0.931 . S
C1177 C1176 1.391 . S
C1177 C1181 1.376 . S
C1178 C1176 1.394 . S
C1178 C1179 1.369 . S
C1178 C1182 1.531 . S
C1179 C1178 1.369 . S
C1179 C1180 1.410 . S
C1179 C1187 1.503 . S
C1180 C1179 1.410 . S
C1180 C1181 1.392 . S
C1180 C1183 1.511 . S
C1181 C1177 1.376 . S
C1181 C1180 1.392 . S
C1181 H1193 0.929 . S
C1182 C1178 1.531 . S
C1182 H1194 0.960 . S
C1182 H1195 0.962 . S
C1182 H1196 0.960 . S
C1183 C1180 1.511 . S
C1183 H1197 0.961 . S
C1183 H1198 0.961 . S
C1183 H1199 0.961 . S
C1184 C1185 1.370 . S
C1184 C1186 1.363 . S
C1184 H1200 0.931 . S
C1185 C1184 1.370 . S
C1185 C1189 1.408 . S
C1186 C1184 1.363 . S
C1186 C1187 1.370 . S
C1186 C1190 1.524 . S
C1187 C1179 1.503 . S
C1187 C1186 1.370 . S
C1187 C1188 1.403 . S
C1188 C1187 1.403 . S
C1188 C1189 1.404 . S
C1188 C1191 1.539 . S
C1189 C1185 1.408 . S
C1189 C1188 1.404 . S
C1189 H1201 0.930 . S
C1190 C1186 1.524 . S
C1190 H1202 0.956 . S
C1190 H1203 0.961 . S
C1190 H1204 0.961 . S
C1191 C1188 1.539 . S
C1191 H1205 0.958 . S
C1191 H1206 0.961 . S
C1191 H1207 0.960 . S
H1192 C1176 0.931 . S
H1193 C1181 0.929 . S
H1194 C1182 0.960 . S
H1195 C1182 0.962 . S
H1196 C1182 0.960 . S
H1197 C1183 0.961 . S
H1198 C1183 0.961 . S
H1199 C1183 0.961 . S
H1200 C1184 0.931 . S
H1201 C1189 0.930 . S
H1202 C1190 0.956 . S
H1203 C1190 0.961 . S
H1204 C1190 0.961 . S
H1205 C1191 0.958 . S
H1206 C1191 0.961 . S
H1207 C1191 0.960 . S
C441 C21 2.240 . S
C449 C336 2.238 . S
C473 C61 1.126 . S
C481 N356 1.159 . S
C513 C390 1.967 . S
C505 C82 1.958 . S
C537 C135 1.396 . S
C545 N424 1.344 . S
C577 C377 2.385 . S
C569 C15 2.360 . S
C609 N334 1.230 . S
C601 C42 1.215 . S
C641 C411 2.015 . S
C633 C101 2.017 . S
C673 N386 1.053 . S
C665 C122 1.068 . S
C697 C2 1.911 . S
C705 C426 1.914 . S
C737 C360 1.707 . S
C729 C95 1.668 . S
C761 C141 1.569 . S
C769 C321 1.566 . S
C793 C55 1.480 . S
C801 C407 1.504 . S
C833 C347 2.254 . S
C825 C181 2.151 . S
C857 C202 1.095 . S
C865 N364 1.127 . S
C889 C255 1.979 . S
C897 C381 1.985 . S
C921 C295 1.365 . S
C929 N416 1.301 . S
C953 C175 2.354 . S
C961 C366 2.373 . S
C993 N326 1.256 . S
C985 C221 1.198 . S
C1025 C420 1.960 . S
C1017 C242 1.892 . S
C1057 N394 1.111 . S
C1049 C301 1.109 . S
C1081 C162 1.798 . S
C1089 C437 1.872 . S
C1121 C351 1.733 . S
C1113 C261 1.676 . S
C1153 C330 1.533 . S
C1145 C282 1.542 . S
C1177 C215 1.527 . S
C1185 C396 1.543 . S
