# Generated by pormake.
# Topology iac, (4,6)-cn, num edge types: 1
# Building blocks:
#     Node 0, Type 0, BuildingBlock: QUQFOY_clean_sbu_3, # of connection points: 4
#     Node 1, Type 0, BuildingBlock: QUQFOY_clean_sbu_3, # of connection points: 4
#     Node 2, Type 0, BuildingBlock: QUQFOY_clean_sbu_3, # of connection points: 4
#     Node 3, Type 0, BuildingBlock: QUQFOY_clean_sbu_3, # of connection points: 4
#     Node 4, Type 0, BuildingBlock: QUQFOY_clean_sbu_3, # of connection points: 4
#     Node 5, Type 0, BuildingBlock: QUQFOY_clean_sbu_3, # of connection points: 4
#     Node 6, Type 0, BuildingBlock: QUQFOY_clean_sbu_3, # of connection points: 4
#     Node 7, Type 0, BuildingBlock: QUQFOY_clean_sbu_3, # of connection points: 4
#     Node 8, Type 0, BuildingBlock: QUQFOY_clean_sbu_3, # of connection points: 4
#     Node 9, Type 0, BuildingBlock: QUQFOY_clean_sbu_3, # of connection points: 4
#     Node 10, Type 0, BuildingBlock: QUQFOY_clean_sbu_3, # of connection points: 4
#     Node 11, Type 0, BuildingBlock: QUQFOY_clean_sbu_3, # of connection points: 4
#     Node 12, Type 0, BuildingBlock: QUQFOY_clean_sbu_3, # of connection points: 4
#     Node 13, Type 0, BuildingBlock: QUQFOY_clean_sbu_3, # of connection points: 4
#     Node 14, Type 0, BuildingBlock: QUQFOY_clean_sbu_3, # of connection points: 4
#     Node 15, Type 0, BuildingBlock: QUQFOY_clean_sbu_3, # of connection points: 4
#     Node 16, Type 0, BuildingBlock: QUQFOY_clean_sbu_3, # of connection points: 4
#     Node 17, Type 0, BuildingBlock: QUQFOY_clean_sbu_3, # of connection points: 4
#     Node 18, Type 0, BuildingBlock: QUQFOY_clean_sbu_3, # of connection points: 4
#     Node 19, Type 0, BuildingBlock: QUQFOY_clean_sbu_3, # of connection points: 4
#     Node 20, Type 0, BuildingBlock: QUQFOY_clean_sbu_3, # of connection points: 4
#     Node 21, Type 0, BuildingBlock: QUQFOY_clean_sbu_3, # of connection points: 4
#     Node 22, Type 0, BuildingBlock: QUQFOY_clean_sbu_3, # of connection points: 4
#     Node 23, Type 0, BuildingBlock: QUQFOY_clean_sbu_3, # of connection points: 4
#     Node 24, Type 1, BuildingBlock: JUFBIX_clean_sbu_0, # of connection points: 6
#     Node 25, Type 1, BuildingBlock: JUFBIX_clean_sbu_0, # of connection points: 6
#     Node 26, Type 1, BuildingBlock: JUFBIX_clean_sbu_0, # of connection points: 6
#     Node 27, Type 1, BuildingBlock: JUFBIX_clean_sbu_0, # of connection points: 6
#     Node 28, Type 1, BuildingBlock: JUFBIX_clean_sbu_0, # of connection points: 6
#     Node 29, Type 1, BuildingBlock: JUFBIX_clean_sbu_0, # of connection points: 6
#     Node 30, Type 1, BuildingBlock: JUFBIX_clean_sbu_0, # of connection points: 6
#     Node 31, Type 1, BuildingBlock: JUFBIX_clean_sbu_0, # of connection points: 6
#     Node 32, Type 1, BuildingBlock: JUFBIX_clean_sbu_0, # of connection points: 6
#     Node 33, Type 1, BuildingBlock: JUFBIX_clean_sbu_0, # of connection points: 6
#     Node 34, Type 1, BuildingBlock: JUFBIX_clean_sbu_0, # of connection points: 6
#     Node 35, Type 1, BuildingBlock: JUFBIX_clean_sbu_0, # of connection points: 6
#     Node 36, Type 1, BuildingBlock: JUFBIX_clean_sbu_0, # of connection points: 6
#     Node 37, Type 1, BuildingBlock: JUFBIX_clean_sbu_0, # of connection points: 6
#     Node 38, Type 1, BuildingBlock: JUFBIX_clean_sbu_0, # of connection points: 6
#     Node 39, Type 1, BuildingBlock: JUFBIX_clean_sbu_0, # of connection points: 6
#     Edge 40, Type (0, 1), BuildingBlock: KIFKEQ_clean_linker_1, # of connection points: 2
#     Edge 41, Type (0, 1), BuildingBlock: KIFKEQ_clean_linker_1, # of connection points: 2
#     Edge 42, Type (0, 1), BuildingBlock: KIFKEQ_clean_linker_1, # of connection points: 2
#     Edge 43, Type (0, 1), BuildingBlock: KIFKEQ_clean_linker_1, # of connection points: 2
#     Edge 44, Type (0, 1), BuildingBlock: KIFKEQ_clean_linker_1, # of connection points: 2
#     Edge 45, Type (0, 1), BuildingBlock: KIFKEQ_clean_linker_1, # of connection points: 2
#     Edge 46, Type (0, 1), BuildingBlock: KIFKEQ_clean_linker_1, # of connection points: 2
#     Edge 47, Type (0, 1), BuildingBlock: KIFKEQ_clean_linker_1, # of connection points: 2
#     Edge 48, Type (0, 1), BuildingBlock: KIFKEQ_clean_linker_1, # of connection points: 2
#     Edge 49, Type (0, 1), BuildingBlock: KIFKEQ_clean_linker_1, # of connection points: 2
#     Edge 50, Type (0, 1), BuildingBlock: KIFKEQ_clean_linker_1, # of connection points: 2
#     Edge 51, Type (0, 1), BuildingBlock: KIFKEQ_clean_linker_1, # of connection points: 2
#     Edge 52, Type (0, 1), BuildingBlock: KIFKEQ_clean_linker_1, # of connection points: 2
#     Edge 53, Type (0, 1), BuildingBlock: KIFKEQ_clean_linker_1, # of connection points: 2
#     Edge 54, Type (0, 1), BuildingBlock: KIFKEQ_clean_linker_1, # of connection points: 2
#     Edge 55, Type (0, 1), BuildingBlock: KIFKEQ_clean_linker_1, # of connection points: 2
#     Edge 56, Type (0, 1), BuildingBlock: KIFKEQ_clean_linker_1, # of connection points: 2
#     Edge 57, Type (0, 1), BuildingBlock: KIFKEQ_clean_linker_1, # of connection points: 2
#     Edge 58, Type (0, 1), BuildingBlock: KIFKEQ_clean_linker_1, # of connection points: 2
#     Edge 59, Type (0, 1), BuildingBlock: KIFKEQ_clean_linker_1, # of connection points: 2
#     Edge 60, Type (0, 1), BuildingBlock: KIFKEQ_clean_linker_1, # of connection points: 2
#     Edge 61, Type (0, 1), BuildingBlock: KIFKEQ_clean_linker_1, # of connection points: 2
#     Edge 62, Type (0, 1), BuildingBlock: KIFKEQ_clean_linker_1, # of connection points: 2
#     Edge 63, Type (0, 1), BuildingBlock: KIFKEQ_clean_linker_1, # of connection points: 2
#     Edge 64, Type (0, 1), BuildingBlock: KIFKEQ_clean_linker_1, # of connection points: 2
#     Edge 65, Type (0, 1), BuildingBlock: KIFKEQ_clean_linker_1, # of connection points: 2
#     Edge 66, Type (0, 1), BuildingBlock: KIFKEQ_clean_linker_1, # of connection points: 2
#     Edge 67, Type (0, 1), BuildingBlock: KIFKEQ_clean_linker_1, # of connection points: 2
#     Edge 68, Type (0, 1), BuildingBlock: KIFKEQ_clean_linker_1, # of connection points: 2
#     Edge 69, Type (0, 1), BuildingBlock: KIFKEQ_clean_linker_1, # of connection points: 2
#     Edge 70, Type (0, 1), BuildingBlock: KIFKEQ_clean_linker_1, # of connection points: 2
#     Edge 71, Type (0, 1), BuildingBlock: KIFKEQ_clean_linker_1, # of connection points: 2
#     Edge 72, Type (0, 1), BuildingBlock: KIFKEQ_clean_linker_1, # of connection points: 2
#     Edge 73, Type (0, 1), BuildingBlock: KIFKEQ_clean_linker_1, # of connection points: 2
#     Edge 74, Type (0, 1), BuildingBlock: KIFKEQ_clean_linker_1, # of connection points: 2
#     Edge 75, Type (0, 1), BuildingBlock: KIFKEQ_clean_linker_1, # of connection points: 2
#     Edge 76, Type (0, 1), BuildingBlock: KIFKEQ_clean_linker_1, # of connection points: 2
#     Edge 77, Type (0, 1), BuildingBlock: KIFKEQ_clean_linker_1, # of connection points: 2
#     Edge 78, Type (0, 1), BuildingBlock: KIFKEQ_clean_linker_1, # of connection points: 2
#     Edge 79, Type (0, 1), BuildingBlock: KIFKEQ_clean_linker_1, # of connection points: 2
#     Edge 80, Type (0, 1), BuildingBlock: KIFKEQ_clean_linker_1, # of connection points: 2
#     Edge 81, Type (0, 1), BuildingBlock: KIFKEQ_clean_linker_1, # of connection points: 2
#     Edge 82, Type (0, 1), BuildingBlock: KIFKEQ_clean_linker_1, # of connection points: 2
#     Edge 83, Type (0, 1), BuildingBlock: KIFKEQ_clean_linker_1, # of connection points: 2
#     Edge 84, Type (0, 1), BuildingBlock: KIFKEQ_clean_linker_1, # of connection points: 2
#     Edge 85, Type (0, 1), BuildingBlock: KIFKEQ_clean_linker_1, # of connection points: 2
#     Edge 86, Type (0, 1), BuildingBlock: KIFKEQ_clean_linker_1, # of connection points: 2
#     Edge 87, Type (0, 1), BuildingBlock: KIFKEQ_clean_linker_1, # of connection points: 2
#     Edge 88, Type (0, 1), BuildingBlock: KIFKEQ_clean_linker_1, # of connection points: 2
#     Edge 89, Type (0, 1), BuildingBlock: KIFKEQ_clean_linker_1, # of connection points: 2
#     Edge 90, Type (0, 1), BuildingBlock: KIFKEQ_clean_linker_1, # of connection points: 2
#     Edge 91, Type (0, 1), BuildingBlock: KIFKEQ_clean_linker_1, # of connection points: 2
#     Edge 92, Type (0, 1), BuildingBlock: KIFKEQ_clean_linker_1, # of connection points: 2
#     Edge 93, Type (0, 1), BuildingBlock: KIFKEQ_clean_linker_1, # of connection points: 2
#     Edge 94, Type (0, 1), BuildingBlock: KIFKEQ_clean_linker_1, # of connection points: 2
#     Edge 95, Type (0, 1), BuildingBlock: KIFKEQ_clean_linker_1, # of connection points: 2
#     Edge 96, Type (0, 1), BuildingBlock: KIFKEQ_clean_linker_1, # of connection points: 2
#     Edge 97, Type (0, 1), BuildingBlock: KIFKEQ_clean_linker_1, # of connection points: 2
#     Edge 98, Type (0, 1), BuildingBlock: KIFKEQ_clean_linker_1, # of connection points: 2
#     Edge 99, Type (0, 1), BuildingBlock: KIFKEQ_clean_linker_1, # of connection points: 2
#     Edge 100, Type (0, 1), BuildingBlock: KIFKEQ_clean_linker_1, # of connection points: 2
#     Edge 101, Type (0, 1), BuildingBlock: KIFKEQ_clean_linker_1, # of connection points: 2
#     Edge 102, Type (0, 1), BuildingBlock: KIFKEQ_clean_linker_1, # of connection points: 2
#     Edge 103, Type (0, 1), BuildingBlock: KIFKEQ_clean_linker_1, # of connection points: 2
#     Edge 104, Type (0, 1), BuildingBlock: KIFKEQ_clean_linker_1, # of connection points: 2
#     Edge 105, Type (0, 1), BuildingBlock: KIFKEQ_clean_linker_1, # of connection points: 2
#     Edge 106, Type (0, 1), BuildingBlock: KIFKEQ_clean_linker_1, # of connection points: 2
#     Edge 107, Type (0, 1), BuildingBlock: KIFKEQ_clean_linker_1, # of connection points: 2
#     Edge 108, Type (0, 1), BuildingBlock: KIFKEQ_clean_linker_1, # of connection points: 2
#     Edge 109, Type (0, 1), BuildingBlock: KIFKEQ_clean_linker_1, # of connection points: 2
#     Edge 110, Type (0, 1), BuildingBlock: KIFKEQ_clean_linker_1, # of connection points: 2
#     Edge 111, Type (0, 1), BuildingBlock: KIFKEQ_clean_linker_1, # of connection points: 2
#     Edge 112, Type (0, 1), BuildingBlock: KIFKEQ_clean_linker_1, # of connection points: 2
#     Edge 113, Type (0, 1), BuildingBlock: KIFKEQ_clean_linker_1, # of connection points: 2
#     Edge 114, Type (0, 1), BuildingBlock: KIFKEQ_clean_linker_1, # of connection points: 2
#     Edge 115, Type (0, 1), BuildingBlock: KIFKEQ_clean_linker_1, # of connection points: 2
#     Edge 116, Type (0, 1), BuildingBlock: KIFKEQ_clean_linker_1, # of connection points: 2
#     Edge 117, Type (0, 1), BuildingBlock: KIFKEQ_clean_linker_1, # of connection points: 2
#     Edge 118, Type (0, 1), BuildingBlock: KIFKEQ_clean_linker_1, # of connection points: 2
#     Edge 119, Type (0, 1), BuildingBlock: KIFKEQ_clean_linker_1, # of connection points: 2
#     Edge 120, Type (0, 1), BuildingBlock: KIFKEQ_clean_linker_1, # of connection points: 2
#     Edge 121, Type (0, 1), BuildingBlock: KIFKEQ_clean_linker_1, # of connection points: 2
#     Edge 122, Type (0, 1), BuildingBlock: KIFKEQ_clean_linker_1, # of connection points: 2
#     Edge 123, Type (0, 1), BuildingBlock: KIFKEQ_clean_linker_1, # of connection points: 2
#     Edge 124, Type (0, 1), BuildingBlock: KIFKEQ_clean_linker_1, # of connection points: 2
#     Edge 125, Type (0, 1), BuildingBlock: KIFKEQ_clean_linker_1, # of connection points: 2
#     Edge 126, Type (0, 1), BuildingBlock: KIFKEQ_clean_linker_1, # of connection points: 2
#     Edge 127, Type (0, 1), BuildingBlock: KIFKEQ_clean_linker_1, # of connection points: 2
#     Edge 128, Type (0, 1), BuildingBlock: KIFKEQ_clean_linker_1, # of connection points: 2
#     Edge 129, Type (0, 1), BuildingBlock: KIFKEQ_clean_linker_1, # of connection points: 2
#     Edge 130, Type (0, 1), BuildingBlock: KIFKEQ_clean_linker_1, # of connection points: 2
#     Edge 131, Type (0, 1), BuildingBlock: KIFKEQ_clean_linker_1, # of connection points: 2
#     Edge 132, Type (0, 1), BuildingBlock: KIFKEQ_clean_linker_1, # of connection points: 2
#     Edge 133, Type (0, 1), BuildingBlock: KIFKEQ_clean_linker_1, # of connection points: 2
#     Edge 134, Type (0, 1), BuildingBlock: KIFKEQ_clean_linker_1, # of connection points: 2
#     Edge 135, Type (0, 1), BuildingBlock: KIFKEQ_clean_linker_1, # of connection points: 2
# Relax obj value: 0.223
# Max RMSD: 0.231
# Mean RMSD: 0.112
data_MOF--net-iac--node1-QUQFOY_clean_sbu_3--node2-JUFBIX_clean_sbu_0--edge1-KIFKEQ_clean_linker_1
_symmetry_space_group_name_H-M    P1
_symmetry_Int_Tables_number       1
_symmetry_cell_setting            triclinic
loop_
_symmetry_equiv_pos_as_xyz
'x, y, z'
_cell_length_a     55.918848
_cell_length_b     58.260465
_cell_length_c     57.268052
_cell_angle_alpha  90.24478
_cell_angle_beta   88.448527
_cell_angle_gamma 89.389408
loop_
_atom_site_label
_atom_site_type_symbol
_atom_site_fract_x
_atom_site_fract_y
_atom_site_fract_z
_atom_type_partial_charge
C0 C 0.97473 0.26854 0.18328 0.0
O1 O 0.98812 0.25484 0.19431 0.0
Cd2 Cd 0.02707 0.2423 0.18202 0.0
O3 O 0.98207 0.27749 0.16394 0.0
Cd4 Cd 0.02116 0.27818 0.13832 0.0
C5 C 0.01728 0.21854 0.12702 0.0
O6 O 0.04547 0.27819 0.17391 0.0
O7 O 0.06647 0.27754 0.14223 0.0
O8 O 0.00636 0.31875 0.13233 0.0
C9 C 0.06611 0.27813 0.16437 0.0
O10 O 0.02158 0.21657 0.14865 0.0
C11 C 0.01559 0.3219 0.11212 0.0
O12 O 0.01572 0.23862 0.1179 0.0
O13 O 0.02702 0.30475 0.10343 0.0
C14 C 0.0088 0.7794 0.37364 0.0
O15 O 0.02592 0.79211 0.36691 0.0
Cd16 Cd 0.06361 0.79278 0.38448 0.0
O17 O 0.0113 0.76519 0.39033 0.0
Cd18 Cd 0.04456 0.75334 0.41572 0.0
C19 C 0.0428 0.80572 0.43974 0.0
O20 O 0.0736 0.75287 0.38446 0.0
O21 O 0.08877 0.75302 0.41856 0.0
O22 O 0.03042 0.7139 0.41474 0.0
C23 C 0.09174 0.74994 0.39675 0.0
O24 O 0.05519 0.81214 0.42201 0.0
C25 C 0.0352 0.70998 0.43592 0.0
O26 O 0.03539 0.78526 0.44128 0.0
O27 O 0.0429 0.72663 0.44781 0.0
C28 C 0.47485 0.76479 0.68 0.0
O29 O 0.48866 0.75019 0.68928 0.0
Cd30 Cd 0.52943 0.7425 0.67855 0.0
O31 O 0.48226 0.77666 0.66247 0.0
Cd32 Cd 0.52135 0.77927 0.63731 0.0
C33 C 0.52216 0.7198 0.62347 0.0
O34 O 0.54579 0.77979 0.67303 0.0
O35 O 0.56655 0.77984 0.64118 0.0
O36 O 0.50558 0.81958 0.63152 0.0
C37 C 0.56633 0.78063 0.66332 0.0
O38 O 0.52855 0.71735 0.64449 0.0
C39 C 0.51502 0.82303 0.61144 0.0
O40 O 0.51686 0.73993 0.61589 0.0
O41 O 0.52688 0.80615 0.60276 0.0
C42 C 0.52202 0.25266 0.83474 0.0
O43 O 0.53986 0.26167 0.82429 0.0
Cd44 Cd 0.57327 0.27387 0.84541 0.0
O45 O 0.52305 0.247 0.85618 0.0
Cd46 Cd 0.5515 0.24507 0.88863 0.0
C47 C 0.54045 0.30118 0.89053 0.0
O48 O 0.58726 0.24106 0.86541 0.0
O49 O 0.59262 0.25344 0.90031 0.0
O50 O 0.54055 0.20539 0.89232 0.0
C51 C 0.60175 0.24671 0.88094 0.0
O52 O 0.55354 0.30173 0.87196 0.0
C53 C 0.54011 0.20527 0.91449 0.0
O54 O 0.53607 0.28229 0.90081 0.0
O55 O 0.54396 0.22416 0.92484 0.0
C56 C 0.10651 0.99263 0.32054 0.0
O57 O 0.09362 0.00206 0.30525 0.0
Cd58 Cd 0.10588 0.00981 0.26583 0.0
O59 O 0.12786 0.98596 0.31566 0.0
Cd60 Cd 0.15694 0.98355 0.28264 0.0
C61 C 0.15543 0.04191 0.27819 0.0
O62 O 0.12603 0.97481 0.25715 0.0
O63 O 0.16019 0.97666 0.23942 0.0
O64 O 0.17011 0.94879 0.3016 0.0
C65 C 0.13783 0.97377 0.23811 0.0
O66 O 0.13474 0.04105 0.26941 0.0
C67 C 0.1923 0.95269 0.29866 0.0
O68 O 0.16615 0.02389 0.28506 0.0
O69 O 0.19804 0.97106 0.28812 0.0
C70 C 0.26451 0.93303 0.51336 0.0
O71 O 0.24706 0.94094 0.50206 0.0
Cd72 Cd 0.20947 0.92263 0.5043 0.0
O73 O 0.26159 0.91659 0.52776 0.0
Cd74 Cd 0.22851 0.89312 0.54401 0.0
C75 C 0.22865 0.86776 0.49176 0.0
O76 O 0.19998 0.92355 0.54573 0.0
O77 O 0.1847 0.88975 0.54915 0.0
O78 O 0.24267 0.8966 0.58362 0.0
C79 C 0.1824 0.91129 0.55181 0.0
O80 O 0.21931 0.88617 0.48412 0.0
C81 C 0.24262 0.87512 0.58725 0.0
O82 O 0.23342 0.86582 0.51315 0.0
O83 O 0.237 0.86222 0.57042 0.0
C84 C 0.44838 0.03189 0.7668 0.0
O85 O 0.45341 0.02043 0.7484 0.0
Cd86 Cd 0.42604 0.01824 0.71732 0.0
O87 O 0.42875 0.04312 0.76883 0.0
Cd88 Cd 0.39334 0.05123 0.74556 0.0
C89 C 0.37836 -0.00355 0.74859 0.0
O90 O 0.41399 0.05697 0.70937 0.0
O91 O 0.37638 0.04972 0.70628 0.0
O92 O 0.3949 0.09075 0.75689 0.0
C93 C 0.39554 0.05742 0.6971 0.0
O94 O 0.39424 0.99329 0.73249 0.0
C95 C 0.37266 0.09285 0.7614 0.0
O96 O 0.3751 0.01612 0.75783 0.0
O97 O 0.36016 0.0748 0.76057 0.0
C98 C 0.30455 0.10948 0.02079 0.0
O99 O 0.29119 0.09771 0.0343 0.0
Cd100 Cd 0.25254 0.10945 0.04808 0.0
O101 O 0.29717 0.12884 0.01298 0.0
Cd102 Cd 0.25773 0.15251 0.01472 0.0
C103 C 0.26181 0.1621 0.0749 0.0
O104 O 0.23243 0.11809 0.01274 0.0
O105 O 0.21272 0.14897 0.02086 0.0
O106 O 0.26256 0.15841 0.97173 0.0
C107 C 0.21224 0.12771 0.01592 0.0
O108 O 0.25749 0.14073 0.07644 0.0
C109 C 0.26142 0.18016 0.9716 0.0
O110 O 0.2635 0.17151 0.05472 0.0
O111 O 0.25867 0.18966 0.99156 0.0
C112 C 0.76213 0.43507 0.02328 0.0
O113 O 0.74554 0.44242 0.01048 0.0
Cd114 Cd 0.7074 0.42525 0.00876 0.0
O115 O 0.75856 0.41852 0.03746 0.0
Cd116 Cd 0.72439 0.39392 0.04989 0.0
C117 C 0.72751 0.37084 -0.00395 0.0
O118 O 0.69572 0.42401 0.04924 0.0
O119 O 0.68009 0.39052 0.0518 0.0
O120 O 0.73437 0.39472 0.09078 0.0
C121 C 0.67728 0.41213 0.05287 0.0
O122 O 0.71743 0.38899 0.98859 0.0
C123 C 0.73434 0.37302 0.09287 0.0
O124 O 0.73206 0.36877 0.0175 0.0
O125 O 0.73075 0.3612 0.07467 0.0
C126 C 0.94478 0.53094 0.27182 0.0
O127 O 0.95007 0.51938 0.25354 0.0
Cd128 Cd 0.92474 0.51945 0.22071 0.0
O129 O 0.92586 0.54329 0.27298 0.0
Cd130 Cd 0.89246 0.55387 0.24815 0.0
C131 C 0.87343 0.49998 0.2477 0.0
O132 O 0.91577 0.55909 0.21334 0.0
O133 O 0.87791 0.5553 0.20799 0.0
O134 O 0.89543 0.59295 0.26117 0.0
C135 C 0.89825 0.56128 0.2 0.0
O136 O 0.89032 0.49613 0.23277 0.0
C137 C 0.87316 0.5957 0.26515 0.0
O138 O 0.87094 0.51955 0.25736 0.0
O139 O 0.85999 0.57825 0.2629 0.0
C140 C 0.80441 0.61224 0.52617 0.0
O141 O 0.79052 0.60311 0.54132 0.0
Cd142 Cd 0.75001 0.61302 0.55099 0.0
O143 O 0.79726 0.62956 0.51436 0.0
Cd144 Cd 0.7582 0.65381 0.51343 0.0
C145 C 0.75764 0.66708 0.57381 0.0
O146 O 0.73301 0.61915 0.51388 0.0
O147 O 0.7128 0.6505 0.51507 0.0
O148 O 0.76512 0.65938 0.47039 0.0
C149 C 0.71264 0.62873 0.51402 0.0
O150 O 0.75124 0.64636 0.57669 0.0
C151 C 0.76301 0.6811 0.47009 0.0
O152 O 0.76276 0.67443 0.55319 0.0
O153 O 0.75917 0.69059 0.4899 0.0
C154 C 0.62727 0.50099 0.79651 0.0
O155 O 0.61611 0.50883 0.7792 0.0
Cd156 Cd 0.6297 0.50795 0.73967 0.0
O157 O 0.64789 0.49161 0.79387 0.0
Cd158 Cd 0.67664 0.4846 0.76065 0.0
C159 C 0.67725 0.5418 0.75008 0.0
O160 O 0.64666 0.47014 0.73602 0.0
O161 O 0.67981 0.4767 0.71778 0.0
O162 O 0.6931 0.45235 0.78206 0.0
C163 C 0.6588 0.46878 0.71719 0.0
O164 O 0.65763 0.54008 0.73948 0.0
C165 C 0.71477 0.45728 0.77723 0.0
O166 O 0.6866 0.52448 0.75981 0.0
O167 O 0.71851 0.47491 0.76478 0.0
C168 C 0.97019 0.78198 0.85888 0.0
O169 O 0.9853 0.79451 0.84818 0.0
Cd170 Cd 0.02492 0.80298 0.8598 0.0
O171 O 0.97587 0.77221 0.87807 0.0
Cd172 Cd 0.01451 0.76932 0.90286 0.0
C173 C 0.01737 0.82894 0.91422 0.0
O174 O 0.04332 0.76729 0.86897 0.0
O175 O 0.05948 0.77227 0.90204 0.0
O176 O 0.0064 0.72707 0.90549 0.0
C177 C 0.06239 0.76915 0.88021 0.0
O178 O 0.02326 0.82977 0.89261 0.0
C179 C 0.00889 0.72449 0.92728 0.0
O180 O 0.01151 0.80957 0.92339 0.0
O181 O 0.01333 0.74283 0.9385 0.0
C182 C -0.00238 0.27125 0.68024 0.0
O183 O 0.01794 0.26801 0.68909 0.0
Cd184 Cd 0.05479 0.27692 0.6703 0.0
O185 O -0.00443 0.28065 0.66027 0.0
Cd186 Cd 0.02119 0.2984 0.6292 0.0
C187 C 0.04801 0.24731 0.61836 0.0
O188 O 0.04648 0.31462 0.65685 0.0
O189 O 0.06163 0.31544 0.62225 0.0
O190 O 0.99095 0.32821 0.62498 0.0
C191 C 0.06373 0.3204 0.64366 0.0
O192 O 0.05837 0.24937 0.6378 0.0
C193 C 0.99188 0.32808 0.60281 0.0
O194 O 0.03291 0.26223 0.6117 0.0
O195 O 0.00584 0.31345 0.59295 0.0
C196 C 0.46865 0.28169 0.36001 0.0
O197 O 0.48215 0.29633 0.35011 0.0
Cd198 Cd 0.52217 0.30583 0.36036 0.0
O199 O 0.47601 0.27049 0.37774 0.0
Cd200 Cd 0.51447 0.26938 0.40247 0.0
C201 C 0.51483 0.32945 0.41534 0.0
O202 O 0.54314 0.27089 0.36855 0.0
O203 O 0.55909 0.27144 0.40231 0.0
O204 O 0.51573 0.22649 0.40491 0.0
C205 C 0.56208 0.27125 0.38026 0.0
O206 O 0.51887 0.33177 0.39351 0.0
C207 C 0.51033 0.22432 0.42642 0.0
O208 O 0.51197 0.30927 0.42404 0.0
O209 O 0.50632 0.24304 0.43749 0.0
C210 C 0.48262 0.77602 0.17925 0.0
O211 O 0.50145 0.76798 0.18822 0.0
Cd212 Cd 0.53982 0.76754 0.16999 0.0
O213 O 0.48308 0.78505 0.15898 0.0
Cd214 Cd 0.51262 0.79508 0.12754 0.0
C215 C 0.52761 0.73944 0.1182 0.0
O216 O 0.54029 0.8056 0.15572 0.0
O217 O 0.55606 0.80439 0.12136 0.0
O218 O 0.48845 0.82948 0.12281 0.0
C219 C 0.5587 0.80821 0.14293 0.0
O220 O 0.53809 0.73984 0.13769 0.0
C221 C 0.49008 0.82956 0.10066 0.0
O222 O 0.5159 0.75682 0.11112 0.0
O223 O 0.5018 0.81319 0.09093 0.0
C224 C 0.93634 0.03901 0.77691 0.0
O225 O 0.94968 0.03234 0.75982 0.0
Cd226 Cd 0.93593 0.03099 0.7205 0.0
O227 O 0.91495 0.04578 0.77376 0.0
Cd228 Cd 0.88531 0.05217 0.74368 0.0
C229 C 0.88796 -0.00441 0.73026 0.0
O230 O 0.91532 0.06713 0.71779 0.0
O231 O 0.88041 0.06533 0.70325 0.0
O232 O 0.87129 0.08012 0.7721 0.0
C233 C 0.90226 0.07045 0.70044 0.0
O234 O 0.90863 -0.00188 0.72076 0.0
C235 C 0.84943 0.07873 0.7669 0.0
O236 O 0.87688 0.01233 0.74008 0.0
O237 O 0.84412 0.06485 0.75075 0.0
C238 C 0.82549 0.11086 0.51621 0.0
O239 O 0.81454 0.09914 0.53171 0.0
Cd240 Cd 0.77664 0.11003 0.54882 0.0
O241 O 0.81657 0.12954 0.50882 0.0
Cd242 Cd 0.78049 0.15347 0.5134 0.0
C243 C 0.78683 0.16405 0.57091 0.0
O244 O 0.75443 0.12146 0.51583 0.0
O245 O 0.73696 0.15433 0.52117 0.0
O246 O 0.78143 0.15825 0.47176 0.0
C247 C 0.73525 0.13267 0.51974 0.0
O248 O 0.78247 0.14293 0.57454 0.0
C249 C 0.78494 0.1797 0.47212 0.0
O250 O 0.78819 0.17204 0.55028 0.0
O251 O 0.78576 0.18936 0.49201 0.0
C252 C 0.59292 0.02782 0.32234 0.0
O253 O 0.57837 0.03793 0.30906 0.0
Cd254 Cd 0.58478 0.04086 0.26759 0.0
O255 O 0.61154 0.01778 0.31401 0.0
Cd256 Cd 0.63206 0.00855 0.27731 0.0
C257 C 0.6412 0.0645 0.26528 0.0
O258 O 0.59692 0.00334 0.25541 0.0
O259 O 0.63006 0.00367 0.2352 0.0
O260 O 0.63529 0.96941 0.28926 0.0
C261 C 0.60747 0.00179 0.23562 0.0
O262 O 0.61882 0.06624 0.26193 0.0
C263 C 0.65795 0.96881 0.28944 0.0
O264 O 0.65053 0.04573 0.27215 0.0
O265 O 0.66898 0.98711 0.28407 0.0
C266 C 0.80554 0.94039 0.00971 0.0
O267 O 0.79155 0.95017 -0.00436 0.0
Cd268 Cd 0.75231 0.93824 0.98552 0.0
O269 O 0.79892 0.92214 0.02046 0.0
Cd270 Cd 0.76084 0.89706 0.02341 0.0
C271 C 0.76077 0.88337 0.96301 0.0
O272 O 0.73266 0.92994 0.02188 0.0
O273 O 0.71584 0.89699 0.02306 0.0
O274 O 0.76166 0.89518 0.0669 0.0
C275 C 0.7134 0.91867 0.0224 0.0
O276 O 0.75674 0.90471 0.96015 0.0
C277 C 0.76655 0.87398 0.06892 0.0
O278 O 0.76335 0.8753 0.98367 0.0
O279 O 0.76919 0.86289 0.0498 0.0
C280 C 0.32999 0.61576 0.01384 0.0
O281 O 0.32057 0.60304 0.02944 0.0
Cd282 Cd 0.28181 0.61123 0.04711 0.0
O283 O 0.31904 0.63346 0.00672 0.0
Cd284 Cd 0.28136 0.65407 0.01177 0.0
C285 C 0.28665 0.66629 0.06872 0.0
O286 O 0.25654 0.6206 0.0156 0.0
O287 O 0.23886 0.6535 0.02126 0.0
O288 O 0.27892 0.65684 0.9701 0.0
C289 C 0.23737 0.63181 0.02008 0.0
O290 O 0.28336 0.64497 0.0723 0.0
C291 C 0.28221 0.6783 0.96916 0.0
O292 O 0.28864 0.67418 0.04808 0.0
O293 O 0.28451 0.68893 0.98839 0.0
C294 C 0.09628 0.52111 0.82094 0.0
O295 O 0.0823 0.53011 0.80635 0.0
Cd296 Cd 0.09185 0.53175 0.76534 0.0
O297 O 0.11605 0.512 0.81425 0.0
Cd298 Cd 0.1406 0.50314 0.77974 0.0
C299 C 0.14608 0.55936 0.7675 0.0
O300 O 0.107 0.49411 0.75708 0.0
O301 O 0.14049 0.49413 0.73775 0.0
O302 O 0.14829 0.4684 0.80065 0.0
C303 C 0.11802 0.49148 0.73769 0.0
O304 O 0.12428 0.55952 0.76153 0.0
C305 C 0.17076 0.4685 0.79698 0.0
O306 O 0.15574 0.54144 0.77588 0.0
O307 O 0.17936 0.485 0.78509 0.0
C308 C 0.30596 0.43861 0.5092 0.0
O309 O 0.29159 0.44827 0.49542 0.0
Cd310 Cd 0.25225 0.43598 0.4861 0.0
O311 O 0.29966 0.42033 0.52011 0.0
Cd312 Cd 0.26141 0.39534 0.52403 0.0
C313 C 0.26132 0.38113 0.46381 0.0
O314 O 0.23316 0.42853 0.52301 0.0
O315 O 0.2164 0.39569 0.52546 0.0
O316 O 0.27114 0.39358 0.56644 0.0
C317 C 0.21391 0.4173 0.52433 0.0
O318 O 0.25665 0.40233 0.46082 0.0
C319 C 0.26844 0.37216 0.56932 0.0
O320 O 0.26452 0.37335 0.48449 0.0
O321 O 0.26301 0.36097 0.5511 0.0
C322 C 0.45453 0.53171 0.26939 0.0
O323 O 0.46701 0.5194 0.25525 0.0
Cd324 Cd 0.45235 0.50868 0.21758 0.0
O325 O 0.434 0.53906 0.26381 0.0
Cd326 Cd 0.40609 0.53822 0.23194 0.0
C327 C 0.40119 0.48089 0.23453 0.0
O328 O 0.43453 0.54173 0.19978 0.0
O329 O 0.39849 0.53224 0.19094 0.0
O330 O 0.39677 0.57849 0.23548 0.0
C331 C 0.41939 0.53787 0.18413 0.0
O332 O 0.42199 0.47965 0.22494 0.0
C333 C 0.37512 0.57592 0.24204 0.0
O334 O 0.39186 0.50016 0.24033 0.0
O335 O 0.36763 0.55551 0.24413 0.0
Co336 Co 0.01115 0.03286 0.00326 0.0
C337 C 0.00747 0.06288 0.04243 0.0
Co338 Co 0.01761 0.016 0.03658 0.0
C339 C -0.00449 0.04003 0.9566 0.0
C340 C 0.01444 0.0689 0.96973 0.0
N341 N 0.00627 0.04797 0.97571 0.0
N342 N -0.00314 0.05507 0.93881 0.0
C343 C 0.00871 0.0733 0.94699 0.0
H344 H 0.98765 0.02318 0.95551 0.0
H345 H 0.02444 0.07999 0.98099 0.0
C346 C 0.02127 0.98582 -0.0024 0.0
N347 N 0.02297 0.00047 0.06387 0.0
C348 C 0.03896 0.00514 0.08038 0.0
C349 C 0.01415 0.9797 0.06957 0.0
N350 N 0.04078 0.98787 0.09582 0.0
C351 C 0.02516 0.97186 0.08919 0.0
C352 C 0.96987 0.01353 0.02282 0.0
O353 O 0.01665 0.0041 0.98636 0.0
O354 O 0.02362 0.98748 0.01957 0.0
O355 O 0.98414 0.00816 0.03891 0.0
O356 O 0.97782 0.02545 0.00578 0.0
O357 O 0.01172 0.04446 0.05363 0.0
H358 H 0.00138 0.97035 0.05944 0.0
H359 H 0.05004 0.02026 0.0803 0.0
O360 O 0.00559 0.06149 0.02033 0.0
O361 O 0.04442 0.04025 0.00052 0.0
O362 O 0.05104 0.02419 0.03416 0.0
C363 C 0.05874 0.03569 0.01672 0.0
H364 H 0.01306 0.08862 0.93721 0.0
H365 H 0.02233 0.95547 0.09762 0.0
Co366 Co 0.29816 0.76493 0.30945 0.0
C367 C 0.29735 0.72466 0.28479 0.0
Co368 Co 0.28049 0.76873 0.2757 0.0
C369 C 0.29904 0.76752 0.35866 0.0
C370 C 0.33416 0.75953 0.34519 0.0
N371 N 0.31132 0.76272 0.33868 0.0
N372 N 0.31302 0.76755 0.3773 0.0
C373 C 0.33532 0.76295 0.36906 0.0
H374 H 0.28046 0.77295 0.35943 0.0
H375 H 0.34917 0.75631 0.33329 0.0
C376 C 0.2814 0.80907 0.30003 0.0
N377 N 0.26704 0.77124 0.24685 0.0
C378 C 0.27643 0.76271 0.22671 0.0
C379 C 0.24573 0.78044 0.2412 0.0
N380 N 0.26181 0.76596 0.20871 0.0
C381 C 0.24236 0.777 0.21769 0.0
C382 C 0.24914 0.75706 0.31091 0.0
O383 O 0.29149 0.79678 0.31526 0.0
O384 O 0.27505 0.79999 0.28105 0.0
O385 O 0.25017 0.76197 0.28936 0.0
O386 O 0.26809 0.75718 0.32246 0.0
O387 O 0.28628 0.73708 0.27035 0.0
H388 H 0.2332 0.78848 0.2535 0.0
H389 H 0.29317 0.7532 0.2255 0.0
O390 O 0.30455 0.73352 0.30363 0.0
O391 O 0.32821 0.77234 0.29587 0.0
O392 O 0.31065 0.77556 0.26222 0.0
C393 C 0.32945 0.77625 0.27409 0.0
H394 H 0.3513 0.76318 0.3793 0.0
H395 H 0.22665 0.78171 0.20808 0.0
Co396 Co 0.48977 0.01841 0.50714 0.0
C397 C 0.50523 0.06357 0.49852 0.0
Co398 Co 0.52129 0.02731 0.52701 0.0
C399 C 0.44417 7e-05 0.49852 0.0
C400 C 0.46041 0.01271 0.46694 0.0
N401 N 0.46395 0.01031 0.48999 0.0
N402 N 0.42829 -0.00416 0.4818 0.0
C403 C 0.43842 0.00382 0.46183 0.0
H404 H 0.44145 -0.00385 0.51683 0.0
H405 H 0.47303 0.02033 0.45468 0.0
C406 C 0.50624 0.98219 0.53576 0.0
N407 N 0.54708 0.03541 0.54418 0.0
C408 C 0.56689 0.04556 0.53565 0.0
C409 C 0.55035 0.03354 0.56735 0.0
N410 N 0.58248 0.05015 0.55247 0.0
C411 C 0.57219 0.04276 0.57255 0.0
C412 C 0.47786 0.03764 0.54933 0.0
O413 O 0.49009 0.98796 0.52153 0.0
O414 O 0.52197 -0.00302 0.54067 0.0
O415 O 0.50041 0.03798 0.55141 0.0
O416 O 0.46921 0.02939 0.53098 0.0
O417 O 0.52085 0.05765 0.51317 0.0
H418 H 0.53761 0.02615 0.57965 0.0
H419 H 0.56958 0.05003 0.51744 0.0
O420 O 0.48952 0.04891 0.49305 0.0
O421 O 0.51022 0.00756 0.48312 0.0
O422 O 0.54198 0.0169 0.50237 0.0
C423 C 0.53277 0.00875 0.48417 0.0
H424 H 0.43069 0.00311 0.44473 0.0
H425 H 0.57995 0.0438 0.58963 0.0
Co426 Co 0.29006 0.29123 0.77805 0.0
C427 C 0.27514 0.30135 0.73286 0.0
Co428 Co 0.25523 0.27626 0.77096 0.0
C429 C 0.3385 0.2886 0.79157 0.0
C430 C 0.33004 0.32167 0.77774 0.0
N431 N 0.32029 0.30143 0.78372 0.0
N432 N 0.35952 0.29971 0.79018 0.0
C433 C 0.35418 0.32067 0.78167 0.0
H434 H 0.33633 0.27109 0.79735 0.0
H435 H 0.32046 0.33576 0.76988 0.0
C436 C 0.26973 0.26563 0.81573 0.0
N437 N 0.22501 0.26663 0.76425 0.0
C438 C 0.20918 0.28053 0.75394 0.0
C439 C 0.21495 0.2457 0.76415 0.0
N440 N 0.1898 0.26931 0.74691 0.0
C441 C 0.19322 0.24728 0.75327 0.0
C442 C 0.29126 0.24671 0.75965 0.0
O443 O 0.2878 0.27751 0.80923 0.0
O444 O 0.2528 0.26313 0.80153 0.0
O445 O 0.26862 0.24831 0.75956 0.0
O446 O 0.30328 0.26376 0.7662 0.0
O447 O 0.2577 0.28921 0.73996 0.0
H448 H 0.22346 0.23017 0.77026 0.0
H449 H 0.21279 0.29831 0.74986 0.0
O450 O 0.29203 0.30478 0.74689 0.0
O451 O 0.27712 0.31853 0.79008 0.0
O452 O 0.24198 0.30435 0.78296 0.0
C453 C 0.25458 0.3206 0.79062 0.0
H454 H 0.36689 0.33396 0.77734 0.0
H455 H 0.18143 0.23322 0.74947 0.0
Co456 Co 0.00095 0.0098 0.51545 0.0
C457 C 0.98811 0.03959 0.55086 0.0
Co458 Co 0.0228 0.04105 0.51537 0.0
C459 C -0.00528 0.96204 0.5148 0.0
C460 C 0.96039 0.9785 0.51662 0.0
N461 N 0.98405 0.98282 0.51571 0.0
N462 N 0.97894 0.94481 0.51521 0.0
C463 C 0.95717 0.95499 0.5161 0.0
H464 H 0.01391 0.95962 0.51302 0.0
H465 H 0.94646 0.99154 0.51734 0.0
C466 C 0.0352 0.01124 0.4797 0.0
N467 N 0.04074 0.0676 0.51538 0.0
C468 C 0.03511 0.08756 0.52627 0.0
C469 C 0.06325 0.07051 0.5068 0.0
N470 N 0.05322 0.10258 0.52517 0.0
C471 C 0.07093 0.09209 0.51272 0.0
C472 C 0.04195 0.00646 0.54142 0.0
O473 O 0.019 -0.00098 0.48909 0.0
O474 O 0.03954 0.03079 0.48829 0.0
O475 O 0.04585 0.02662 0.53404 0.0
O476 O 0.02308 -0.00365 0.5356 0.0
O477 O 0.00562 0.05092 0.5426 0.0
H478 H 0.07389 0.05744 0.49782 0.0
H479 H 0.01829 0.09086 0.53553 0.0
O480 O 0.9828 0.02061 0.54147 0.0
O481 O 0.979 0.02352 0.49558 0.0
O482 O -0.00051 0.05548 0.49674 0.0
C483 C 0.98145 0.04443 0.48985 0.0
H484 H 0.94025 0.94613 0.51618 0.0
H485 H 0.0886 0.09898 0.50941 0.0
Co486 Co 0.2722 0.7953 0.78787 0.0
C487 C 0.22558 0.77971 0.79721 0.0
Co488 Co 0.26443 0.76273 0.77043 0.0
C489 C 0.29292 0.83897 0.7937 0.0
C490 C 0.27048 0.83096 0.82332 0.0
N491 N 0.27877 0.8225 0.80261 0.0
N492 N 0.29389 0.85734 0.80788 0.0
C493 C 0.27965 0.85261 0.82652 0.0
H494 H 0.30182 0.83785 0.77669 0.0
H495 H 0.25837 0.82209 0.83515 0.0
C496 C 0.31087 0.77768 0.76078 0.0
N497 N 0.25805 0.73583 0.75517 0.0
C498 C 0.24589 0.7177 0.76352 0.0
C499 C 0.26364 0.73048 0.73272 0.0
N500 N 0.2435 0.70127 0.74714 0.0
C501 C 0.25463 0.70921 0.7277 0.0
C502 C 0.25481 0.80112 0.74398 0.0
O503 O 0.30446 0.79424 0.77419 0.0
O504 O 0.29602 0.76181 0.75722 0.0
O505 O 0.25399 0.77938 0.74424 0.0
O506 O 0.26193 0.81175 0.76179 0.0
O507 O 0.2326 0.7635 0.78366 0.0
H508 H 0.27331 0.7415 0.72069 0.0
H509 H 0.23828 0.71693 0.78108 0.0
O510 O 0.24001 0.79594 0.80128 0.0
O511 O 0.2825 0.77909 0.81389 0.0
O512 O 0.27496 0.74624 0.79687 0.0
C513 C 0.28201 0.75735 0.81452 0.0
H514 H 0.27622 0.86393 0.8413 0.0
H515 H 0.25608 0.70034 0.71107 0.0
Co516 Co 0.50755 0.00829 0.99054 0.0
C517 C 0.5508 -0.00281 0.01221 0.0
Co518 Co 0.51044 0.02271 0.02569 0.0
C519 C 0.50249 0.00715 0.94108 0.0
C520 C 0.51245 0.97428 0.95447 0.0
N521 N 0.50657 -0.0041 0.96107 0.0
N522 N 0.50591 0.99353 0.92217 0.0
C523 C 0.51199 0.97274 0.93052 0.0
H524 H 0.49741 0.02511 0.94047 0.0
H525 H 0.51756 0.96074 0.96626 0.0
C526 C 0.46756 0.03425 0.00419 0.0
N527 N 0.51163 0.03513 0.05498 0.0
C528 C 0.51859 0.02435 0.07437 0.0
C529 C 0.5067 0.05694 0.0617 0.0
N530 N 0.51846 0.03857 0.09292 0.0
C531 C 0.51111 0.05916 0.08511 0.0
C532 C 0.52719 0.05167 0.99142 0.0
O533 O 0.47587 0.02166 0.98754 0.0
O534 O 0.47987 0.03663 0.02232 0.0
O535 O 0.5247 0.04935 0.01333 0.0
O536 O 0.52115 0.03541 0.97809 0.0
O537 O 0.5415 0.00868 0.02914 0.0
H538 H 0.50084 0.07044 0.05019 0.0
H539 H 0.52471 0.00666 0.07463 0.0
O540 O 0.53911 -0.00479 -0.00642 0.0
O541 O 0.49386 0.9813 0.00307 0.0
O542 O 0.49594 -0.00393 0.03815 0.0
C543 C 0.49019 0.97959 0.02494 0.0
H544 H 0.51655 0.95772 0.92007 0.0
H545 H 0.50957 0.07473 0.09546 0.0
Co546 Co 0.25839 0.25433 0.27911 0.0
C547 C 0.30705 0.26554 0.28261 0.0
Co548 Co 0.26806 0.28602 0.26104 0.0
C549 C 0.23654 0.21072 0.28696 0.0
C550 C 0.25957 0.21997 0.31468 0.0
N551 N 0.2508 0.22759 0.29437 0.0
N552 N 0.2363 0.19277 0.30169 0.0
C553 C 0.25079 0.19841 0.31914 0.0
H554 H 0.22724 0.2112 0.27062 0.0
H555 H 0.27195 0.22927 0.32529 0.0
C556 C 0.21961 0.27512 0.2571 0.0
N557 N 0.27568 0.31256 0.2456 0.0
C558 C 0.29056 0.3291 0.25252 0.0
C559 C 0.26872 0.31896 0.2242 0.0
N560 N 0.2934 0.34548 0.23618 0.0
C561 C 0.27968 0.33922 0.21831 0.0
C562 C 0.27071 0.24737 0.23156 0.0
O563 O 0.2253 0.2582 0.26993 0.0
O564 O 0.23553 0.28986 0.25217 0.0
O565 O 0.27421 0.26889 0.23244 0.0
O566 O 0.26454 0.23719 0.25039 0.0
O567 O 0.30084 0.2822 0.26976 0.0
H568 H 0.25687 0.30926 0.21338 0.0
H569 H 0.29986 0.32866 0.26885 0.0
O570 O 0.29141 0.25066 0.28816 0.0
O571 O 0.25232 0.27132 0.30768 0.0
O572 O 0.26188 0.3032 0.28989 0.0
C573 C 0.25582 0.29285 0.30869 0.0
H574 H 0.25486 0.18764 0.3339 0.0
H575 H 0.27787 0.34849 0.20211 0.0
Co576 Co 0.49991 0.51138 0.97943 0.0
C577 C 0.48353 0.53124 0.02019 0.0
Co578 Co 0.52089 0.5416 0.98908 0.0
C579 C 0.49424 0.4669 0.96131 0.0
C580 C 0.45982 0.48136 0.96993 0.0
N581 N 0.48344 0.48583 0.97023 0.0
N582 N 0.47854 0.45082 0.9551 0.0
C583 C 0.45674 0.45966 0.96066 0.0
H584 H 0.51347 0.46494 0.95947 0.0
H585 H 0.44583 0.49317 0.97577 0.0
C586 C 0.53754 0.52177 0.94847 0.0
N587 N 0.53801 0.5668 -0.00173 0.0
C588 C 0.52947 0.58568 0.00946 0.0
C589 C 0.5619 0.5696 -0.00317 0.0
N590 N 0.54707 0.60009 0.01534 0.0
C591 C 0.56754 0.59005 0.00732 0.0
C592 C 0.53768 0.50092 0.00727 0.0
O593 O 0.52035 0.50824 0.95262 0.0
O594 O 0.54101 0.53834 0.96233 0.0
O595 O 0.54143 0.52235 0.0062 0.0
O596 O 0.52049 0.49241 -0.00367 0.0
O597 O 0.5007 0.54472 0.01571 0.0
H598 H 0.57447 0.55728 0.98918 0.0
H599 H 0.51074 0.5883 0.01405 0.0
O600 O 0.47967 0.51464 0.00637 0.0
O601 O 0.4792 0.5305 0.96282 0.0
O602 O 0.49991 0.56072 0.97242 0.0
C603 C 0.482 0.55212 0.96249 0.0
H604 H 0.43988 0.45133 0.95769 0.0
H605 H 0.58535 0.59681 0.00914 0.0
Co606 Co 0.77258 0.29615 0.29181 0.0
C607 C 0.72791 0.27728 0.3033 0.0
Co608 Co 0.76753 0.26209 0.2764 0.0
C609 C 0.78469 0.34317 0.29108 0.0
C610 C 0.77023 0.33399 0.32467 0.0
N611 N 0.77602 0.32535 0.30335 0.0
N612 N 0.7845 0.36271 0.3037 0.0
C613 C 0.77556 0.35705 0.32498 0.0
H614 H 0.79136 0.34171 0.27321 0.0
H615 H 0.76255 0.3242 0.33897 0.0
C616 C 0.81189 0.28108 0.26435 0.0
N617 N 0.76465 0.23277 0.26469 0.0
C618 C 0.74455 0.22145 0.25964 0.0
C619 C 0.78249 0.21721 0.26155 0.0
N620 N 0.74908 0.19933 0.25376 0.0
C621 C 0.773 0.19668 0.25479 0.0
C622 C 0.75309 0.29626 0.24765 0.0
O623 O 0.80478 0.29705 0.2782 0.0
O624 O 0.79816 0.26424 0.26109 0.0
O625 O 0.75347 0.27452 0.24938 0.0
O626 O 0.76061 0.30838 0.26427 0.0
O627 O 0.73652 0.26022 0.2918 0.0
H628 H 0.8011 0.22026 0.26505 0.0
H629 H 0.72685 0.22911 0.261 0.0
O630 O 0.74055 0.29521 0.3051 0.0
O631 O 0.7845 0.28386 0.31937 0.0
O632 O 0.78171 0.24975 0.30346 0.0
C633 C 0.78732 0.2623 0.32062 0.0
H634 H 0.77283 0.36874 0.33957 0.0
H635 H 0.7828 0.1807 0.25232 0.0
Co636 Co 0.00646 0.50688 0.49682 0.0
C637 C 0.05023 0.49434 0.51681 0.0
Co638 Co 0.0104 0.51956 0.53252 0.0
C639 C -0.00043 0.50661 0.44738 0.0
C640 C 0.0095 0.47354 0.46031 0.0
N641 N 0.00426 0.49523 0.46716 0.0
N642 N 0.0019 0.49294 0.42837 0.0
C643 C 0.00801 0.47206 0.43646 0.0
H644 H -0.00521 0.52465 0.447 0.0
H645 H 0.0148 0.45986 0.47185 0.0
C646 C 0.96698 0.53257 0.5129 0.0
N647 N 0.01314 0.53072 0.56223 0.0
C648 C 0.02148 0.51884 0.5804 0.0
C649 C 0.00945 0.55228 0.57034 0.0
N650 N 0.02353 0.53212 0.59947 0.0
C651 C 0.01607 0.55324 0.59331 0.0
C652 C 0.02642 0.54978 0.49869 0.0
O653 O 0.97493 0.52117 0.49521 0.0
O654 O 0.97973 0.53357 0.53091 0.0
O655 O 0.02426 0.54658 0.52053 0.0
O656 O 0.02022 0.53405 0.48479 0.0
O657 O 0.04147 0.50539 0.53425 0.0
H658 H 0.00321 0.56651 0.55997 0.0
H659 H 0.02728 0.50107 0.57926 0.0
O660 O 0.03797 0.49299 0.49848 0.0
O661 O 0.9924 0.47976 0.50892 0.0
O662 O -0.00375 0.49265 0.54452 0.0
C663 C 0.98948 0.47705 0.53077 0.0
H664 H 0.01188 0.45697 0.42588 0.0
H665 H 0.01607 0.56834 0.60439 0.0
Co666 Co 0.78757 0.79415 0.27726 0.0
C667 C 0.77439 0.80277 0.23156 0.0
Co668 Co 0.75408 0.77699 0.26929 0.0
C669 C 0.83367 0.79796 0.2965 0.0
C670 C 0.82201 0.82994 0.28227 0.0
N671 N 0.81546 0.80796 0.28539 0.0
N672 N 0.85147 0.81277 0.30059 0.0
C673 C 0.84415 0.83297 0.29163 0.0
H674 H 0.83381 0.78002 0.30124 0.0
H675 H 0.81129 0.84293 0.27391 0.0
C676 C 0.76711 0.76789 0.31471 0.0
N677 N 0.72602 0.76363 0.2607 0.0
C678 C 0.71068 0.77359 0.24609 0.0
C679 C 0.7173 0.74241 0.26451 0.0
N680 N 0.69313 0.75944 0.24004 0.0
C681 C 0.69681 0.73982 0.25181 0.0
C682 C 0.79403 0.75015 0.26064 0.0
O683 O 0.78413 0.78132 0.30882 0.0
O684 O 0.75126 0.76368 0.29979 0.0
O685 O 0.77144 0.75067 0.25892 0.0
O686 O 0.80468 0.76781 0.26779 0.0
O687 O 0.75711 0.79033 0.23846 0.0
H688 H 0.72577 0.72945 0.27504 0.0
H689 H 0.71259 0.79089 0.23952 0.0
O690 O 0.79097 0.8067 0.2458 0.0
O691 O 0.7705 0.82045 0.28685 0.0
O692 O 0.73668 0.80336 0.28006 0.0
C693 C 0.74788 0.82091 0.28684 0.0
H694 H 0.85386 0.84892 0.29201 0.0
H695 H 0.6861 0.72451 0.25053 0.0
Co696 Co 0.81456 0.27639 0.81269 0.0
C697 C 0.80177 0.23298 0.79934 0.0
Co698 Co 0.79599 0.27573 0.77929 0.0
C699 C 0.82159 0.29321 0.85794 0.0
C700 C 0.8405 0.26138 0.85328 0.0
N701 N 0.82801 0.27747 0.84169 0.0
N702 N 0.82882 0.28746 0.87933 0.0
C703 C 0.84069 0.26735 0.87665 0.0
H704 H 0.80929 0.30725 0.8547 0.0
H705 H 0.84708 0.24539 0.84573 0.0
C706 C 0.80797 0.31928 0.79291 0.0
N707 N 0.78236 0.27456 0.75043 0.0
C708 C 0.78841 0.25937 0.73349 0.0
C709 C 0.76619 0.28875 0.74085 0.0
N710 N 0.77701 0.26354 0.71348 0.0
C711 C 0.76283 0.28199 0.71808 0.0
C712 C 0.76458 0.28012 0.81589 0.0
O713 O 0.81617 0.30894 0.81049 0.0
O714 O 0.79873 0.30773 0.77672 0.0
O715 O 0.76586 0.27942 0.79376 0.0
O716 O 0.78366 0.27897 0.82737 0.0
O717 O 0.79304 0.24344 0.7821 0.0
H718 H 0.75787 0.30335 0.74966 0.0
H719 H 0.80118 0.24556 0.73589 0.0
O720 O 0.81264 0.24425 0.8147 0.0
O721 O 0.84517 0.27346 0.79793 0.0
O722 O 0.8263 0.27212 0.76484 0.0
C723 C 0.84569 0.27161 0.77581 0.0
H724 H 0.84738 0.25697 0.89073 0.0
H725 H 0.75137 0.29042 0.70576 0.0
Co726 Co 0.76008 0.75957 0.77621 0.0
C727 C 0.80819 0.77131 0.78055 0.0
Co728 Co 0.76892 0.79181 0.75881 0.0
C729 C 0.74018 0.7154 0.78016 0.0
C730 C 0.75971 0.72353 0.81067 0.0
N731 N 0.75249 0.73228 0.79026 0.0
N732 N 0.7398 0.69613 0.79306 0.0
C733 C 0.75191 0.70122 0.81245 0.0
H734 H 0.73224 0.71713 0.76324 0.0
H735 H 0.77078 0.73242 0.82291 0.0
C736 C 0.72088 0.78034 0.75438 0.0
N737 N 0.77646 0.81859 0.74369 0.0
C738 C 0.79279 0.83431 0.7494 0.0
C739 C 0.76838 0.82532 0.72279 0.0
N740 N 0.79542 0.85045 0.73275 0.0
C741 C 0.78 0.84493 0.71602 0.0
C742 C 0.77261 0.75385 0.72853 0.0
O743 O 0.72706 0.76324 0.76672 0.0
O744 O 0.73639 0.79556 0.74986 0.0
O745 O 0.77533 0.77544 0.7298 0.0
O746 O 0.76701 0.74321 0.74719 0.0
O747 O 0.80169 0.78804 0.76788 0.0
H748 H 0.75537 0.81616 0.71278 0.0
H749 H 0.80321 0.83341 0.76503 0.0
O750 O 0.79289 0.75597 0.78563 0.0
O751 O 0.75339 0.77584 0.8051 0.0
O752 O 0.76241 0.80829 0.78797 0.0
C753 C 0.75646 0.79744 0.80653 0.0
H754 H 0.75592 0.6894 0.82637 0.0
H755 H 0.77738 0.8543 0.7 0.0
Co756 Co 0.51023 0.53407 0.50107 0.0
C757 C 0.50661 0.56448 0.54003 0.0
Co758 Co 0.51712 0.5177 0.5347 0.0
C759 C 0.49711 0.5408 0.45314 0.0
C760 C 0.51178 0.57087 0.46855 0.0
N761 N 0.50533 0.54911 0.47336 0.0
N762 N 0.49832 0.55649 0.43588 0.0
C763 C 0.50743 0.57548 0.44558 0.0
H764 H 0.49079 0.52344 0.45104 0.0
H765 H 0.52005 0.5824 0.48072 0.0
C766 C 0.52082 0.48703 0.4962 0.0
N767 N 0.52276 0.5024 0.56237 0.0
C768 C 0.54209 0.5038 0.57587 0.0
C769 C 0.51029 0.48449 0.57104 0.0
N770 N 0.54242 0.48726 0.59228 0.0
C771 C 0.52228 0.47521 0.58943 0.0
C772 C 0.46921 0.51467 0.52092 0.0
O773 O 0.51651 0.50513 0.48449 0.0
O774 O 0.52266 0.48903 0.5182 0.0
O775 O 0.48347 0.51015 0.53729 0.0
O776 O 0.47709 0.52603 0.50345 0.0
O777 O 0.51155 0.54634 0.55142 0.0
H778 H 0.49421 0.47768 0.56371 0.0
H779 H 0.55644 0.51581 0.57285 0.0
O780 O 0.50409 0.56266 0.51805 0.0
O781 O 0.54309 0.5422 0.49839 0.0
O782 O 0.5508 0.52573 0.5315 0.0
C783 C 0.55792 0.53765 0.51412 0.0
H784 H 0.51167 0.59123 0.4365 0.0
H785 H 0.51692 0.4603 0.59941 0.0
Co786 Co 0.9898 0.51756 0.00819 0.0
C787 C 0.00525 0.56275 -0.00064 0.0
Co788 Co 0.02227 0.52594 0.02676 0.0
C789 C 0.94312 0.50045 0.00273 0.0
C790 C 0.9576 0.51199 0.96995 0.0
N791 N 0.96264 0.50995 -0.00728 0.0
N792 N 0.92594 0.49636 0.98725 0.0
C793 C 0.93498 0.50364 0.96651 0.0
H794 H 0.94155 0.49695 0.02123 0.0
H795 H 0.96961 0.519 0.95674 0.0
C796 C 0.0071 0.48084 0.03566 0.0
N797 N 0.04917 0.53328 0.04264 0.0
C798 C 0.06747 0.54606 0.03462 0.0
C799 C 0.0548 0.52763 0.06465 0.0
N800 N 0.08433 0.54875 0.05073 0.0
C801 C 0.07654 0.53708 0.06966 0.0
C802 C 0.98054 0.53659 0.0513 0.0
O803 O 0.99004 0.48716 0.02274 0.0
O804 O 0.0236 0.49516 0.03945 0.0
O805 O 0.00315 0.53596 0.05259 0.0
O806 O 0.97087 0.52927 0.03304 0.0
O807 O 0.02097 0.55679 0.01392 0.0
H808 H 0.04371 0.51749 0.07633 0.0
H809 H 0.06848 0.55309 0.01715 0.0
O810 O 0.98968 0.54796 -0.0062 0.0
O811 O 0.00866 0.50613 0.98324 0.0
O812 O 0.04134 0.5162 0.0007 0.0
C813 C 0.03125 0.50779 0.98306 0.0
H814 H 0.92609 0.50283 0.94999 0.0
H815 H 0.08566 0.53584 0.08605 0.0
H816 H 0.0214 0.21049 0.07886 0.0
H817 H 0.0051 0.17655 0.14404 0.0
H818 H 0.01848 0.17359 0.05825 0.0
H819 H 0.00114 0.14038 0.12377 0.0
H820 H 0.01933 0.07309 0.08756 0.0
H821 H 0.02146 0.11041 0.10644 0.0
H822 H -0.00381 0.14288 0.04392 0.0
H823 H -0.00488 0.10535 0.02471 0.0
C824 C 0.0169 0.19529 0.08879 0.0
C825 C 0.01377 0.19671 0.11325 0.0
C826 C 0.01512 0.17398 0.07695 0.0
C827 C 0.00989 0.15344 0.08916 0.0
C828 C 0.00597 0.15527 0.11352 0.0
C829 C 0.00804 0.17632 0.12527 0.0
C830 C 0.014 0.08812 0.07784 0.0
C831 C 0.00683 0.08592 0.05458 0.0
C832 C 0.01511 0.10977 0.08877 0.0
C833 C 0.00882 0.13018 0.07702 0.0
C834 C 0.0015 0.1279 0.05371 0.0
C835 C 0.00062 0.1062 0.04268 0.0
H836 H 0.10118 0.73369 0.3532 0.0
H837 H 0.13544 0.75915 0.41472 0.0
H838 H 0.13965 0.73183 0.33245 0.0
H839 H 0.174 0.75816 0.39365 0.0
H840 H 0.2424 0.73952 0.35448 0.0
H841 H 0.20464 0.73422 0.37577 0.0
H842 H 0.16651 0.75952 0.31625 0.0
H843 H 0.20426 0.76406 0.29468 0.0
C844 C 0.11702 0.73884 0.36228 0.0
C845 C 0.11541 0.7468 0.38544 0.0
C846 C 0.13901 0.73789 0.35036 0.0
C847 C 0.15979 0.74515 0.36128 0.0
C848 C 0.15831 0.75225 0.38481 0.0
C849 C 0.13627 0.75293 0.39686 0.0
C850 C 0.22592 0.74371 0.34586 0.0
C851 C 0.22621 0.75227 0.32294 0.0
C852 C 0.20432 0.7408 0.35812 0.0
C853 C 0.18262 0.74655 0.34776 0.0
C854 C 0.18292 0.7546 0.32461 0.0
C855 C 0.20452 0.75732 0.31227 0.0
H856 H 0.48145 0.85739 0.61906 0.0
H857 H 0.54397 0.84073 0.57634 0.0
H858 H 0.47878 0.89504 0.60021 0.0
H859 H 0.54169 0.87867 0.558 0.0
H860 H 0.54463 0.95967 0.55448 0.0
H861 H 0.5463 0.92122 0.57154 0.0
H862 H 0.4713 0.91256 0.55883 0.0
H863 H 0.46975 0.95086 0.54108 0.0
C864 C 0.49463 0.8617 0.60563 0.0
C865 C 0.5129 0.84583 0.59926 0.0
C866 C 0.49304 0.88333 0.59475 0.0
C867 C 0.51004 0.89007 0.57756 0.0
C868 C 0.52834 0.87422 0.57123 0.0
C869 C 0.52958 0.85236 0.58169 0.0
C870 C 0.52846 0.9496 0.55522 0.0
C871 C 0.50705 0.95855 0.54631 0.0
C872 C 0.52947 0.92743 0.56494 0.0
C873 C 0.50895 0.91362 0.56663 0.0
C874 C 0.48745 0.92266 0.55796 0.0
C875 C 0.48658 0.94464 0.54768 0.0
H876 H 0.51101 0.27221 0.79313 0.0
H877 H 0.48016 0.23366 0.85068 0.0
H878 H 0.47106 0.28092 0.77953 0.0
H879 H 0.44019 0.24234 0.83679 0.0
H880 H 0.3721 0.25445 0.79397 0.0
H881 H 0.41163 0.23882 0.80127 0.0
H882 H 0.44021 0.30729 0.80228 0.0
H883 H 0.40063 0.32324 0.7959 0.0
C884 C 0.49579 0.26503 0.80251 0.0
C885 C 0.49872 0.25261 0.82326 0.0
C886 C 0.47295 0.27015 0.79477 0.0
C887 C 0.45271 0.26263 0.80741 0.0
C888 C 0.45561 0.24835 0.82682 0.0
C889 C 0.47847 0.24344 0.83475 0.0
C890 C 0.3866 0.26633 0.796 0.0
C891 C 0.38294 0.29027 0.79443 0.0
C892 C 0.40931 0.25725 0.79997 0.0
C893 C 0.42887 0.27185 0.80204 0.0
C894 C 0.4254 0.29566 0.80027 0.0
C895 C 0.40268 0.30478 0.79665 0.0
H896 H 0.06296 0.84691 0.44965 0.0
H897 H 0.00349 0.80343 0.46881 0.0
H898 H 0.04589 0.87749 0.47435 0.0
H899 H 0.98624 0.83429 0.49321 0.0
H900 H 0.95404 0.91238 0.49241 0.0
H901 H 0.96963 0.8748 0.47969 0.0
H902 H 0.03387 0.88616 0.51804 0.0
H903 H 0.01809 0.92333 0.53122 0.0
C904 C 0.04648 0.84377 0.45944 0.0
C905 C 0.03452 0.82285 0.45725 0.0
C906 C 0.03677 0.8612 0.47365 0.0
C907 C 0.01476 0.85815 0.4856 0.0
C908 C 0.00322 0.83698 0.48412 0.0
C909 C 0.01317 0.81936 0.47026 0.0
C910 C 0.97106 0.90647 0.49879 0.0
C911 C 0.98511 0.92095 0.51232 0.0
C912 C 0.98 0.88502 0.4915 0.0
C913 C 0.0031 0.8779 0.49762 0.0
C914 C 0.01617 0.89149 0.51284 0.0
C915 C 0.00717 0.91274 0.52027 0.0
H916 H 0.44268 0.80107 0.67559 0.0
H917 H 0.45102 0.73493 0.70833 0.0
H918 H 0.40297 0.80542 0.69489 0.0
H919 H 0.41191 0.73926 0.72728 0.0
H920 H 0.3311 0.74184 0.73638 0.0
H921 H 0.36966 0.73997 0.71576 0.0
H922 H 0.3839 0.80972 0.73638 0.0
H923 H 0.34492 0.81167 0.75725 0.0
C924 C 0.43604 0.78743 0.68671 0.0
C925 C 0.45013 0.76763 0.69031 0.0
C926 C 0.41339 0.79 0.69792 0.0
C927 C 0.40418 0.77265 0.71263 0.0
C928 C 0.41823 0.75286 0.71593 0.0
C929 C 0.44081 0.75044 0.70507 0.0
C930 C 0.34239 0.75683 0.73665 0.0
C931 C 0.33488 0.77685 0.74871 0.0
C932 C 0.36459 0.75573 0.7248 0.0
C933 C 0.38 0.77466 0.72443 0.0
C934 C 0.37242 0.79487 0.73617 0.0
C935 C 0.35018 0.79591 0.74831 0.0
H936 H 0.55378 0.19593 0.9588 0.0
H937 H 0.52074 0.16574 0.89886 0.0
H938 H 0.55392 0.15866 0.978 0.0
H939 H 0.51973 0.12878 0.91837 0.0
H940 H 0.52654 0.093 0.01373 0.0
H941 H 0.5296 0.13066 -0.00407 0.0
H942 H 0.54574 0.09873 0.92893 0.0
H943 H 0.54144 0.06102 0.94661 0.0
C944 C 0.5461 0.1814 0.94996 0.0
C945 C 0.53731 0.18364 0.92735 0.0
C946 C 0.54619 0.16004 0.96093 0.0
C947 C 0.53715 0.14062 0.94961 0.0
C948 C 0.52749 0.14319 0.92734 0.0
C949 C 0.52777 0.16442 0.91625 0.0
C950 C 0.53114 0.09404 -0.00473 0.0
C951 C 0.53359 0.0741 0.9815 0.0
C952 C 0.53292 0.11566 0.98506 0.0
C953 C 0.53753 0.11776 0.96092 0.0
C954 C 0.54148 0.09774 0.94745 0.0
C955 C 0.53932 0.07612 0.9576 0.0
H956 H 0.06989 0.27134 0.21154 0.0
H957 H 0.11282 0.28362 0.1492 0.0
H958 H 0.10601 0.27073 0.23472 0.0
H959 H 0.14895 0.28309 0.17239 0.0
H960 H 0.20519 0.30594 0.22425 0.0
H961 H 0.1684 0.30642 0.20244 0.0
H962 H 0.14316 0.24771 0.24121 0.0
H963 H 0.18025 0.24713 0.26312 0.0
C964 C 0.08703 0.27391 0.20274 0.0
C965 C 0.08834 0.27759 0.17843 0.0
C966 C 0.10781 0.27343 0.21606 0.0
C967 C 0.13052 0.27693 0.20554 0.0
C968 C 0.1318 0.2806 0.18121 0.0
C969 C 0.11106 0.28078 0.16784 0.0
C970 C 0.19176 0.29321 0.22838 0.0
C971 C 0.19583 0.27653 0.24563 0.0
C972 C 0.17067 0.29337 0.21564 0.0
C973 C 0.15275 0.27701 0.21982 0.0
C974 C 0.15646 0.26068 0.23753 0.0
C975 C 0.17776 0.26034 0.25014 0.0
H976 H 0.09058 0.98169 0.23224 0.0
H977 H 0.15686 0.96807 0.1937 0.0
H978 H 0.06976 0.98588 0.19576 0.0
H979 H 0.1354 0.97165 0.15686 0.0
H980 H 0.06514 0.94997 0.10859 0.0
H981 H 0.09185 0.94645 0.14172 0.0
H982 H 0.08021 0.01812 0.15808 0.0
H983 H 0.05385 0.02176 0.1247 0.0
C984 C 0.1007 0.97941 0.21598 0.0
C985 C 0.1254 0.97465 0.21579 0.0
C986 C 0.08875 0.98193 0.19517 0.0
C987 C 0.10114 0.97927 0.17378 0.0
C988 C 0.12566 0.97386 0.17334 0.0
C989 C 0.13783 0.9718 0.19429 0.0
C990 C 0.06848 0.96496 0.1192 0.0
C991 C 0.05735 0.98608 0.11438 0.0
C992 C 0.08389 0.963 0.13787 0.0
C993 C 0.08799 0.98206 0.15214 0.0
C994 C 0.07731 0.00329 0.14707 0.0
C995 C 0.0623 0.00535 0.12812 0.0
H996 H 0.23835 0.82286 0.50125 0.0
H997 H 0.2411 0.87297 0.44582 0.0
H998 H 0.26141 0.79578 0.47653 0.0
H999 H 0.26442 0.84599 0.42137 0.0
H1000 H 0.33012 0.80535 0.39748 0.0
H1001 H 0.3084 0.82851 0.42717 0.0
H1002 H 0.25597 0.77505 0.43507 0.0
H1003 H 0.27755 0.75223 0.40505 0.0
C1004 C 0.24352 0.82792 0.48366 0.0
C1005 C 0.23796 0.85 0.47543 0.0
C1006 C 0.25679 0.8125 0.46965 0.0
C1007 C 0.26506 0.81912 0.44739 0.0
C1008 C 0.25859 0.84076 0.43873 0.0
C1009 C 0.24496 0.85602 0.45256 0.0
C1010 C 0.31457 0.79824 0.40638 0.0
C1011 C 0.30551 0.77706 0.39936 0.0
C1012 C 0.30196 0.81155 0.42299 0.0
C1013 C 0.2804 0.8036 0.433 0.0
C1014 C 0.27256 0.78149 0.42755 0.0
C1015 C 0.28495 0.7684 0.41064 0.0
H1016 H 0.41925 0.09276 0.67787 0.0
H1017 H 0.37828 0.03291 0.66088 0.0
H1018 H 0.43419 0.09486 0.63757 0.0
H1019 H 0.3941 0.03419 0.62077 0.0
H1020 H 0.42902 0.0391 0.55012 0.0
H1021 H 0.40251 0.05129 0.5825 0.0
H1022 H 0.4642 0.06794 0.623 0.0
H1023 H 0.4905 0.05632 0.5907 0.0
C1024 C 0.41293 0.08049 0.66522 0.0
C1025 C 0.39808 0.06244 0.67226 0.0
C1026 C 0.42152 0.08161 0.64227 0.0
C1027 C 0.4159 0.06428 0.62629 0.0
C1028 C 0.39876 0.04779 0.63271 0.0
C1029 C 0.38975 0.04697 0.65565 0.0
C1030 C 0.43686 0.04569 0.56586 0.0
C1031 C 0.46183 0.04651 0.56806 0.0
C1032 C 0.42167 0.05268 0.58432 0.0
C1033 C 0.43125 0.06065 0.6052 0.0
C1034 C 0.45621 0.06234 0.60695 0.0
C1035 C 0.47134 0.05539 0.58855 0.0
H1036 H 0.25878 0.16364 0.92692 0.0
H1037 H 0.26759 0.22681 0.96517 0.0
H1038 H 0.26092 0.18469 0.89019 0.0
H1039 H 0.26998 0.24796 0.92817 0.0
H1040 H 0.29836 0.27215 0.85384 0.0
H1041 H 0.29644 0.25242 0.89165 0.0
H1042 H 0.23667 0.21295 0.8684 0.0
H1043 H 0.23841 0.23269 0.83093 0.0
C1044 C 0.26122 0.18205 0.92754 0.0
C1045 C 0.26295 0.19344 0.94917 0.0
C1046 C 0.26233 0.19418 0.90639 0.0
C1047 C 0.26557 0.21813 0.90604 0.0
C1048 C 0.26763 0.22954 0.92766 0.0
C1049 C 0.26613 0.21741 0.94892 0.0
C1050 C 0.28474 0.25933 0.85683 0.0
C1051 C 0.26855 0.25411 0.83917 0.0
C1052 C 0.28357 0.24806 0.87859 0.0
C1053 C 0.26645 0.23094 0.8832 0.0
C1054 C 0.25027 0.22581 0.86553 0.0
C1055 C 0.2512 0.23728 0.84398 0.0
H1056 H 0.1315 0.98496 0.36007 0.0
H1057 H 0.05977 -0.00538 0.33518 0.0
H1058 H 0.11571 0.98456 0.40027 0.0
H1059 H 0.04412 0.99404 0.37532 0.0
H1060 H 0.02223 0.97728 0.44984 0.0
H1061 H 0.04091 0.96782 0.41184 0.0
H1062 H 0.09552 0.01813 0.42353 0.0
H1063 H 0.07686 0.02776 0.46131 0.0
C1064 C 0.11236 0.98663 0.36315 0.0
C1065 C 0.09686 0.99009 0.34454 0.0
C1066 C 0.10339 0.98642 0.38611 0.0
C1067 C 0.07878 0.98927 0.39075 0.0
C1068 C 0.06317 0.99158 0.37211 0.0
C1069 C 0.07214 0.99213 0.3492 0.0
C1070 C 0.03844 0.98603 0.44443 0.0
C1071 C 0.04797 0.00345 0.45832 0.0
C1072 C 0.04905 0.98064 0.42275 0.0
C1073 C 0.06954 0.99231 0.41488 0.0
C1074 C 0.07983 0.00877 0.42935 0.0
C1075 C 0.06905 0.0144 0.45084 0.0
H1076 H 0.24032 0.8977 0.62897 0.0
H1077 H 0.25344 0.83091 0.59785 0.0
H1078 H 0.2414 0.88073 0.66775 0.0
H1079 H 0.25563 0.81407 0.63653 0.0
H1080 H 0.23196 0.7857 0.70566 0.0
H1081 H 0.22915 0.80477 0.66808 0.0
H1082 H 0.26648 0.86326 0.69546 0.0
H1083 H 0.26828 0.84462 0.73328 0.0
C1084 C 0.24395 0.87947 0.63047 0.0
C1085 C 0.24668 0.86556 0.61049 0.0
C1086 C 0.24457 0.86974 0.65266 0.0
C1087 C 0.24825 0.84599 0.65522 0.0
C1088 C 0.25207 0.83231 0.63516 0.0
C1089 C 0.2511 0.84198 0.61301 0.0
C1090 C 0.23921 0.80278 0.7037 0.0
C1091 C 0.25037 0.81367 0.72231 0.0
C1092 C 0.23785 0.81361 0.68213 0.0
C1093 C 0.24797 0.83537 0.67866 0.0
C1094 C 0.25835 0.84659 0.69758 0.0
C1095 C 0.2594 0.83589 0.71925 0.0
H1096 H 0.48576 0.00208 0.77285 0.0
H1097 H 0.44598 0.05754 0.8067 0.0
H1098 H 0.50601 -0.00567 0.80925 0.0
H1099 H 0.46604 0.04963 0.84296 0.0
H1100 H 0.51197 0.036 0.90393 0.0
H1101 H 0.50441 0.0478 0.86401 0.0
H1102 H 0.48817 0.97773 0.84592 0.0
H1103 H 0.49541 0.96596 0.88584 0.0
C1104 C 0.48173 0.01294 0.78787 0.0
C1105 C 0.46397 0.03016 0.78706 0.0
C1106 C 0.49325 0.00843 0.80869 0.0
C1107 C 0.48735 0.02119 0.82892 0.0
C1108 C 0.47103 0.03959 0.82759 0.0
C1109 C 0.45941 0.04401 0.80685 0.0
C1110 C 0.5068 0.02311 0.89144 0.0
C1111 C 0.50383 0.0001 0.89814 0.0
C1112 C 0.50268 0.02986 0.86857 0.0
C1113 C 0.49565 0.01369 0.85194 0.0
C1114 C 0.49391 0.9905 0.85831 0.0
C1115 C 0.49795 0.98377 0.8812 0.0
H1116 H 0.27076 0.14514 0.1182 0.0
H1117 H 0.26012 0.20933 0.08251 0.0
H1118 H 0.27466 0.16541 0.15486 0.0
H1119 H 0.26297 0.2299 0.11975 0.0
H1120 H 0.28663 0.26284 0.18843 0.0
H1121 H 0.28581 0.24309 0.15074 0.0
H1122 H 0.25416 0.18416 0.18458 0.0
H1123 H 0.25601 0.20354 0.22214 0.0
C1124 C 0.26906 0.16367 0.11814 0.0
C1125 C 0.26497 0.17547 0.09716 0.0
C1126 C 0.27111 0.17541 0.13943 0.0
C1127 C 0.26881 0.1995 0.1408 0.0
C1128 C 0.2651 0.21142 0.11969 0.0
C1129 C 0.26333 0.1996 0.0982 0.0
C1130 C 0.27978 0.24554 0.18786 0.0
C1131 C 0.27164 0.23478 0.20856 0.0
C1132 C 0.27904 0.23422 0.16607 0.0
C1133 C 0.26994 0.21179 0.16417 0.0
C1134 C 0.26183 0.20112 0.185 0.0
C1135 C 0.26279 0.21234 0.20675 0.0
H1136 H 0.16892 0.13719 0.03821 0.0
H1137 H 0.20468 0.0872 -0.00665 0.0
H1138 H 0.13275 0.11352 0.03893 0.0
H1139 H 0.16838 0.06404 -0.00651 0.0
H1140 H 0.08616 0.04907 0.9789 0.0
H1141 H 0.12341 0.0709 0.97879 0.0
H1142 H 0.1222 0.07034 0.05409 0.0
H1143 H 0.08535 0.04782 0.05425 0.0
C1144 C 0.16901 0.12129 0.02836 0.0
C1145 C 0.18972 0.11413 0.01572 0.0
C1146 C 0.14836 0.10766 0.02888 0.0
C1147 C 0.14772 0.08686 0.01629 0.0
C1148 C 0.16828 0.07995 0.00332 0.0
C1149 C 0.18907 0.09324 0.00329 0.0
C1150 C 0.09407 0.05322 -0.00457 0.0
C1151 C 0.08287 0.04644 0.01657 0.0
C1152 C 0.11537 0.06579 -0.00464 0.0
C1153 C 0.12567 0.07251 0.01643 0.0
C1154 C 0.11462 0.06556 0.03758 0.0
C1155 C 0.09365 0.05245 0.03764 0.0
H1156 H 0.66833 0.45762 0.05631 0.0
H1157 H 0.63299 0.39213 0.05272 0.0
H1158 H 0.63068 0.47727 0.05179 0.0
H1159 H 0.59449 0.41204 0.04919 0.0
H1160 H 0.54719 0.45577 -0.00063 0.0
H1161 H 0.57744 0.43228 0.01776 0.0
H1162 H 0.59244 0.48833 0.06482 0.0
H1163 H 0.56317 0.51226 0.04525 0.0
C1164 C 0.65234 0.4474 0.05508 0.0
C1165 C 0.65363 0.42335 0.05426 0.0
C1166 C 0.63058 0.45872 0.05282 0.0
C1167 C 0.6095 0.44626 0.04994 0.0
C1168 C 0.6105 0.42212 0.05096 0.0
C1169 C 0.63247 0.41072 0.05306 0.0
C1170 C 0.5568 0.46292 0.01384 0.0
C1171 C 0.55346 0.48593 0.02054 0.0
C1172 C 0.57393 0.44937 0.02461 0.0
C1173 C 0.58766 0.45853 0.04255 0.0
C1174 C 0.58264 0.48097 0.0506 0.0
C1175 C 0.56594 0.49468 0.03944 0.0
H1176 H 0.8394 0.50059 0.28284 0.0
H1177 H 0.87098 0.457 0.22872 0.0
H1178 H 0.81455 0.46886 0.29623 0.0
H1179 H 0.84624 0.42532 0.24228 0.0
H1180 H 0.78448 0.37891 0.25958 0.0
H1181 H 0.80346 0.41374 0.24529 0.0
H1182 H 0.82271 0.43117 0.31567 0.0
H1183 H 0.80388 0.3961 0.32999 0.0
C1184 C 0.84092 0.48431 0.27368 0.0
C1185 C 0.85725 0.48126 0.25477 0.0
C1186 C 0.82677 0.46615 0.28144 0.0
C1187 C 0.82852 0.44468 0.27031 0.0
C1188 C 0.84435 0.4418 0.25102 0.0
C1189 C 0.85861 0.45989 0.24335 0.0
C1190 C 0.79276 0.39017 0.27202 0.0
C1191 C 0.79308 0.38459 0.29586 0.0
C1192 C 0.80355 0.41011 0.26383 0.0
C1193 C 0.81477 0.42496 0.27934 0.0
C1194 C 0.81404 0.42005 0.30336 0.0
C1195 C 0.80327 0.40001 0.31156 0.0
H1196 H 0.8377 0.61848 0.48978 0.0
H1197 H 0.82666 0.58217 0.55473 0.0
H1198 H 0.87725 0.59971 0.48478 0.0
H1199 H 0.86542 0.56371 0.54969 0.0
H1200 H 0.94537 0.5553 0.54945 0.0
H1201 H 0.90736 0.57572 0.55091 0.0
H1202 H 0.89668 0.55922 0.47843 0.0
H1203 H 0.93536 0.53859 0.47682 0.0
C1204 C 0.84366 0.60665 0.503 0.0
C1205 C 0.8289 0.60199 0.52271 0.0
C1206 C 0.86622 0.59575 0.50004 0.0
C1207 C 0.8746 0.58026 0.5169 0.0
C1208 C 0.85978 0.57573 0.5365 0.0
C1209 C 0.83738 0.58633 0.53932 0.0
C1210 C 0.93505 0.55592 0.53372 0.0
C1211 C 0.94346 0.545 0.51306 0.0
C1212 C 0.91313 0.56767 0.5346 0.0
C1213 C 0.8988 0.56902 0.51485 0.0
C1214 C 0.90733 0.55861 0.49394 0.0
C1215 C 0.92939 0.54662 0.49307 0.0
H1216 H 0.14968 0.08085 0.25244 0.0
H1217 H 0.18695 0.05331 0.31132 0.0
H1218 H 0.16957 0.11752 0.25758 0.0
H1219 H 0.20563 0.09014 0.3175 0.0
H1220 H 0.25433 0.15066 0.30949 0.0
H1221 H 0.23489 0.11413 0.30279 0.0
H1222 H 0.17144 0.15037 0.28075 0.0
H1223 H 0.19177 0.18681 0.28621 0.0
C1224 C 0.16196 0.08277 0.26662 0.0
C1225 C 0.16696 0.06426 0.28136 0.0
C1226 C 0.17324 0.10381 0.26971 0.0
C1227 C 0.18934 0.10688 0.28793 0.0
C1228 C 0.19388 0.08835 0.3029 0.0
C1229 C 0.18305 0.06723 0.29947 0.0
C1230 C 0.2362 0.15067 0.3033 0.0
C1231 C 0.22443 0.17137 0.29843 0.0
C1232 C 0.22496 0.12979 0.29954 0.0
C1233 C 0.20145 0.12919 0.29136 0.0
C1234 C 0.18967 0.15007 0.28665 0.0
C1235 C 0.20117 0.17095 0.28992 0.0
H1236 H 0.2763 0.97411 0.49379 0.0
H1237 H 0.30704 0.91228 0.52234 0.0
H1238 H 0.31627 0.98866 0.4854 0.0
H1239 H 0.34693 0.92626 0.51297 0.0
H1240 H 0.41388 0.96845 0.51755 0.0
H1241 H 0.37421 0.95386 0.52518 0.0
H1242 H 0.35059 0.9833 0.46045 0.0
H1243 H 0.39008 -0.00049 0.45365 0.0
C1244 C 0.29163 0.9636 0.49815 0.0
C1245 C 0.28861 0.94215 0.50886 0.0
C1246 C 0.31452 0.97182 0.49315 0.0
C1247 C 0.33482 0.95861 0.49845 0.0
C1248 C 0.33171 0.93707 0.50904 0.0
C1249 C 0.30885 0.92902 0.51437 0.0
C1250 C 0.40024 0.97215 0.50504 0.0
C1251 C 0.40518 0.98552 0.48514 0.0
C1252 C 0.37749 0.96341 0.50926 0.0
C1253 C 0.35917 0.96743 0.49347 0.0
C1254 C 0.36422 0.98021 0.47318 0.0
C1255 C 0.38697 0.98924 0.4691 0.0
H1256 H 0.89577 0.63632 0.25935 0.0
H1257 H 0.82699 0.60708 0.27723 0.0
H1258 H 0.87731 0.67399 0.25649 0.0
H1259 H 0.80857 0.64513 0.27551 0.0
H1260 H 0.77819 0.70933 0.24355 0.0
H1261 H 0.79818 0.67206 0.24605 0.0
H1262 H 0.8589 0.70443 0.27726 0.0
H1263 H 0.83955 0.74155 0.27367 0.0
C1264 C 0.87679 0.63806 0.26332 0.0
C1265 C 0.86276 0.61878 0.26838 0.0
C1266 C 0.86618 0.65968 0.26166 0.0
C1267 C 0.8414 0.66251 0.26542 0.0
C1268 C 0.82761 0.6434 0.27187 0.0
C1269 C 0.83819 0.62168 0.2732 0.0
C1270 C 0.79601 0.70847 0.25047 0.0
C1271 C 0.8073 0.72832 0.2584 0.0
C1272 C 0.80732 0.68712 0.25224 0.0
C1273 C 0.82996 0.68524 0.26223 0.0
C1274 C 0.84157 0.70525 0.2693 0.0
C1275 C 0.83044 0.72658 0.26723 0.0
H1276 H 0.71344 0.4233 0.80975 0.0
H1277 H 0.76088 0.45738 0.76052 0.0
H1278 H 0.74451 0.39472 0.8169 0.0
H1279 H 0.79191 0.42854 0.76756 0.0
H1280 H 0.80422 0.34782 0.83064 0.0
H1281 H 0.78769 0.38686 0.83067 0.0
H1282 H 0.78852 0.38601 0.75525 0.0
H1283 H 0.80463 0.34702 0.75519 0.0
C1284 C 0.73067 0.42494 0.80083 0.0
C1285 C 0.73464 0.4423 0.78432 0.0
C1286 C 0.74854 0.40874 0.80511 0.0
C1287 C 0.77056 0.40949 0.79274 0.0
C1288 C 0.77506 0.42766 0.7773 0.0
C1289 C 0.75729 0.44407 0.77326 0.0
C1290 C 0.80173 0.35633 0.81408 0.0
C1291 C 0.80533 0.34439 0.79289 0.0
C1292 C 0.7922 0.37859 0.81413 0.0
C1293 C 0.78664 0.38926 0.79299 0.0
C1294 C 0.79277 0.37821 0.77179 0.0
C1295 C 0.80188 0.35587 0.77174 0.0
H1296 H 0.00363 0.83849 0.96084 0.0
H1297 H 0.03271 0.87062 0.89868 0.0
H1298 H 0.00456 0.87573 0.98126 0.0
H1299 H 0.03419 0.90698 0.91885 0.0
H1300 H 0.01306 0.97542 0.95154 0.0
H1301 H 0.01117 0.93784 0.93292 0.0
H1302 H 0.02847 0.90541 -0.00193 0.0
H1303 H 0.02974 0.94317 0.01685 0.0
C1304 C 0.01028 0.85333 0.9515 0.0
C1305 C 0.01789 0.85122 0.9279 0.0
C1306 C 0.01095 0.8748 0.96326 0.0
C1307 C 0.01924 0.89483 0.9518 0.0
C1308 C 0.0271 0.89243 0.92835 0.0
C1309 C 0.02639 0.87122 0.91671 0.0
C1310 C 0.01668 0.96034 0.96192 0.0
C1311 C 0.02182 0.96262 0.98574 0.0
C1312 C 0.01565 0.93858 0.95117 0.0
C1313 C 0.01979 0.91815 0.96377 0.0
C1314 C 0.02491 0.92047 0.98766 0.0
C1315 C 0.0259 0.94228 -0.00157 0.0
H1316 H 0.95349 0.26026 0.66484 0.0
H1317 H 0.99319 0.27118 0.7275 0.0
H1318 H 0.91687 0.25609 0.68841 0.0
H1319 H 0.95656 0.26867 0.75097 0.0
H1320 H 0.88787 0.25299 0.79016 0.0
H1321 H 0.92478 0.24789 0.76676 0.0
H1322 H 0.89103 0.28091 0.7084 0.0
H1323 H 0.85416 0.28455 0.73123 0.0
C1324 C 0.95432 0.26171 0.68367 0.0
C1325 C 0.97602 0.26622 0.69437 0.0
C1326 C 0.93337 0.25952 0.69719 0.0
C1327 C 0.93362 0.26249 0.72161 0.0
C1328 C 0.95562 0.266 0.7323 0.0
C1329 C 0.97665 0.2676 0.71882 0.0
C1330 C 0.88851 0.25905 0.7723 0.0
C1331 C 0.86832 0.26917 0.76245 0.0
C1332 C 0.9096 0.25619 0.75888 0.0
C1333 C 0.91092 0.26387 0.73559 0.0
C1334 C 0.89059 0.27416 0.72598 0.0
C1335 C 0.86949 0.27653 0.73918 0.0
H1336 H 0.48416 0.21053 0.46559 0.0
H1337 H 0.53413 0.18499 0.41276 0.0
H1338 H 0.4821 0.17188 0.48283 0.0
H1339 H 0.5328 0.14682 0.43053 0.0
H1340 H 0.54363 0.092 0.49186 0.0
H1341 H 0.54452 0.13055 0.47478 0.0
H1342 H 0.46842 0.12811 0.46528 0.0
H1343 H 0.46762 0.08906 0.48152 0.0
C1344 C 0.49483 0.19678 0.45774 0.0
C1345 C 0.50929 0.20102 0.43771 0.0
C1346 C 0.49357 0.17459 0.46758 0.0
C1347 C 0.5073 0.15617 0.45809 0.0
C1348 C 0.52203 0.16054 0.43833 0.0
C1349 C 0.52274 0.18248 0.42811 0.0
C1350 C 0.52705 0.0996 0.48608 0.0
C1351 C 0.50555 0.08724 0.48806 0.0
C1352 C 0.52759 0.12173 0.47625 0.0
C1353 C 0.50653 0.13255 0.46873 0.0
C1354 C 0.48495 0.12038 0.47101 0.0
C1355 C 0.48452 0.09793 0.48021 0.0
H1356 H 0.56881 0.81986 0.18712 0.0
H1357 H 0.60098 0.79147 0.12373 0.0
H1358 H 0.60304 0.80679 0.20899 0.0
H1359 H 0.63561 0.77861 0.14582 0.0
H1360 H 0.70041 0.78083 0.19904 0.0
H1361 H 0.66964 0.79481 0.17287 0.0
H1362 H 0.61526 0.76382 0.21706 0.0
H1363 H 0.64619 0.74978 0.24322 0.0
C1364 C 0.58351 0.81135 0.17776 0.0
C1365 C 0.58214 0.80638 0.15382 0.0
C1366 C 0.60292 0.80369 0.19032 0.0
C1367 C 0.62146 0.79117 0.17912 0.0
C1368 C 0.62129 0.78804 0.15479 0.0
C1369 C 0.60164 0.79557 0.14216 0.0
C1370 C 0.68186 0.77682 0.20293 0.0
C1371 C 0.67544 0.7645 0.22317 0.0
C1372 C 0.66438 0.78471 0.18796 0.0
C1373 C 0.64021 0.78063 0.19323 0.0
C1374 C 0.63386 0.76738 0.21288 0.0
C1375 C 0.65142 0.7592 0.22768 0.0
H1376 H 0.06752 0.20639 0.63152 0.0
H1377 H 0.03905 0.24199 0.5721 0.0
H1378 H 0.07157 0.17133 0.60811 0.0
H1379 H 0.04336 0.20694 0.54874 0.0
H1380 H 0.07461 0.14162 0.51092 0.0
H1381 H 0.07673 0.17775 0.5331 0.0
H1382 H 0.0376 0.14667 0.59058 0.0
H1383 H 0.03538 0.11091 0.56849 0.0
C1384 C 0.06247 0.20683 0.6134 0.0
C1385 C 0.05274 0.22684 0.60369 0.0
C1386 C 0.06474 0.18679 0.60007 0.0
C1387 C 0.05768 0.18655 0.57673 0.0
C1388 C 0.04904 0.2068 0.56667 0.0
C1389 C 0.04643 0.22675 0.58009 0.0
C1390 C 0.06658 0.14264 0.52832 0.0
C1391 C 0.05465 0.1237 0.53797 0.0
C1392 C 0.06774 0.16318 0.54092 0.0
C1393 C 0.05743 0.1648 0.56352 0.0
C1394 C 0.04587 0.14572 0.57327 0.0
C1395 C 0.04436 0.12541 0.56055 0.0
H1396 H 0.60472 0.25678 0.3979 0.0
H1397 H 0.57446 0.2873 0.3367 0.0
H1398 H 0.64463 0.25771 0.37898 0.0
H1399 H 0.61455 0.28901 0.31821 0.0
H1400 H 0.69762 0.3131 0.31488 0.0
H1401 H 0.65735 0.31141 0.33293 0.0
H1402 H 0.66294 0.23765 0.33586 0.0
H1403 H 0.70285 0.23917 0.31698 0.0
C1404 C 0.60659 0.26378 0.38048 0.0
C1405 C 0.58637 0.27192 0.36881 0.0
C1406 C 0.62943 0.26425 0.36964 0.0
C1407 C 0.63269 0.27346 0.34714 0.0
C1408 C 0.61256 0.28186 0.33556 0.0
C1409 C 0.58962 0.28081 0.34614 0.0
C1410 C 0.69026 0.29651 0.31931 0.0
C1411 C 0.7035 0.27627 0.31445 0.0
C1412 C 0.66718 0.29556 0.32957 0.0
C1413 C 0.65704 0.27441 0.33583 0.0
C1414 C 0.67034 0.25419 0.33127 0.0
C1415 C 0.69316 0.25508 0.32041 0.0
H1416 H 0.49984 0.83939 0.05495 0.0
H1417 H 0.46029 0.86415 0.116 0.0
H1418 H 0.4924 0.87557 0.03538 0.0
H1419 H 0.45202 0.90015 0.09609 0.0
H1420 H 0.48575 0.96874 0.07104 0.0
H1421 H 0.47817 0.93125 0.08764 0.0
H1422 H 0.46677 0.9038 0.0186 0.0
H1423 H 0.47518 0.94138 0.00184 0.0
C1424 C 0.48892 0.85232 0.06392 0.0
C1425 C 0.48109 0.84917 0.08716 0.0
C1426 C 0.4845 0.87305 0.05264 0.0
C1427 C 0.47194 0.89093 0.06432 0.0
C1428 C 0.46223 0.88691 0.08682 0.0
C1429 C 0.46688 0.86627 0.09819 0.0
C1430 C 0.48119 0.95483 0.05941 0.0
C1431 C 0.48146 0.95792 0.03511 0.0
C1432 C 0.47662 0.93331 0.06896 0.0
C1433 C 0.47205 0.91443 0.05443 0.0
C1434 C 0.47064 0.91791 0.03022 0.0
C1435 C 0.47538 0.93945 0.02064 0.0
H1436 H 0.92869 0.7619 0.87727 0.0
H1437 H 0.95735 0.79441 0.81513 0.0
H1438 H 0.88986 0.75836 0.85852 0.0
H1439 H 0.91946 0.79026 0.7964 0.0
H1440 H 0.84307 0.80382 0.77652 0.0
H1441 H 0.88093 0.80563 0.79615 0.0
H1442 H 0.86669 0.74031 0.8288 0.0
H1443 H 0.82813 0.73891 0.80956 0.0
C1444 C 0.92683 0.76817 0.85964 0.0
C1445 C 0.94629 0.77869 0.84796 0.0
C1446 C 0.90454 0.76604 0.84876 0.0
C1447 C 0.90114 0.77428 0.82588 0.0
C1448 C 0.92087 0.78425 0.81418 0.0
C1449 C 0.94287 0.7865 0.825 0.0
C1450 C 0.84802 0.78968 0.78768 0.0
C1451 C 0.83245 0.77111 0.79116 0.0
C1452 C 0.86994 0.79067 0.799 0.0
C1453 C 0.87729 0.77304 0.81413 0.0
C1454 C 0.86175 0.75436 0.81754 0.0
C1455 C 0.83967 0.75343 0.80625 0.0
H1456 H 0.98259 0.03246 0.79022 0.0
H1457 H 0.91105 0.0467 0.81751 0.0
H1458 H -0.00219 0.03496 0.82975 0.0
H1459 H 0.92632 0.04935 0.85675 0.0
H1460 H 0.0163 0.07212 0.89888 0.0
H1461 H 0.00201 0.0666 0.85938 0.0
H1462 H 0.94488 0.02421 0.88657 0.0
H1463 H 0.95884 0.03018 0.92613 0.0
C1464 C 0.97012 0.036 0.80462 0.0
C1465 C 0.94565 0.03946 0.80074 0.0
C1466 C 0.97885 0.03754 0.82718 0.0
C1467 C 0.96321 0.04236 0.84622 0.0
C1468 C 0.93871 0.04537 0.84239 0.0
C1469 C 0.93002 0.044 0.81989 0.0
C1470 C 0.0006 0.06177 0.89641 0.0
C1471 C 0.98858 0.05168 0.91555 0.0
C1472 C 0.99262 0.05837 0.87382 0.0
C1473 C 0.97239 0.04496 0.86999 0.0
C1474 C 0.96045 0.03475 0.8891 0.0
C1475 C 0.96852 0.03803 0.91167 0.0
H1476 H 0.7958 0.15305 0.61609 0.0
H1477 H 0.78093 0.21061 0.57113 0.0
H1478 H 0.79479 0.17877 0.64989 0.0
H1479 H 0.7797 0.23622 0.60507 0.0
H1480 H 0.74621 0.26196 0.67759 0.0
H1481 H 0.75078 0.23916 0.64183 0.0
H1482 H 0.81894 0.21354 0.66459 0.0
H1483 H 0.81499 0.23678 0.69978 0.0
C1484 C 0.79252 0.1712 0.61341 0.0
C1485 C 0.78843 0.17982 0.59099 0.0
C1486 C 0.79201 0.18589 0.63272 0.0
C1487 C 0.78707 0.20938 0.62998 0.0
C1488 C 0.78338 0.21811 0.60757 0.0
C1489 C 0.78427 0.20349 0.58819 0.0
C1490 C 0.76234 0.25178 0.67485 0.0
C1491 C 0.78003 0.25101 0.69182 0.0
C1492 C 0.76492 0.23873 0.65439 0.0
C1493 C 0.78512 0.22453 0.65066 0.0
C1494 C 0.80304 0.22413 0.66728 0.0
C1495 C 0.80063 0.23736 0.68754 0.0
H1496 H 0.55018 0.03644 0.34478 0.0
H1497 H 0.62276 0.01363 0.35645 0.0
H1498 H 0.53947 0.02774 0.38527 0.0
H1499 H 0.61186 0.005 0.39709 0.0
H1500 H 0.57779 0.02422 0.47393 0.0
H1501 H 0.59557 0.0277 0.4346 0.0
H1502 H 0.53771 0.98839 0.40687 0.0
H1503 H 0.51995 0.98484 0.44592 0.0
C1504 C 0.5639 0.02985 0.35604 0.0
C1505 C 0.58723 0.02552 0.34743 0.0
C1506 C 0.55772 0.02466 0.37909 0.0
C1507 C 0.5748 0.01528 0.39396 0.0
C1508 C 0.59842 0.01204 0.38579 0.0
C1509 C 0.60457 0.017 0.36261 0.0
C1510 C 0.56938 0.01561 0.45955 0.0
C1511 C 0.54726 0.00468 0.4628 0.0
C1512 C 0.57949 0.0177 0.4371 0.0
C1513 C 0.56753 0.00885 0.41786 0.0
C1514 C 0.54687 -0.0042 0.42149 0.0
C1515 C 0.53683 0.99366 0.44382 0.0
H1516 H 0.79133 0.83463 0.08117 0.0
H1517 H 0.74621 0.88857 0.11041 0.0
H1518 H 0.79458 0.81759 0.12028 0.0
H1519 H 0.74874 0.87109 0.14909 0.0
H1520 H 0.73572 0.81173 0.20475 0.0
H1521 H 0.73465 0.82863 0.16576 0.0
H1522 H 0.81153 0.83332 0.16403 0.0
H1523 H 0.81263 0.81707 0.20367 0.0
C1524 C 0.78201 0.8428 0.09586 0.0
C1525 C 0.7685 0.86303 0.09252 0.0
C1526 C 0.78398 0.83309 0.11829 0.0
C1527 C 0.77193 0.84297 0.13786 0.0
C1528 C 0.75823 0.86301 0.13444 0.0
C1529 C 0.75682 0.87305 0.11222 0.0
C1530 C 0.75246 0.81635 0.19615 0.0
C1531 C 0.77428 0.813 0.20752 0.0
C1532 C 0.75181 0.8261 0.17377 0.0
C1533 C 0.77299 0.83228 0.16168 0.0
C1534 C 0.79489 0.82864 0.17279 0.0
C1535 C 0.79551 0.81943 0.19555 0.0
H1536 H 0.94887 0.07911 0.68936 0.0
H1537 H 0.87992 0.0694 0.65862 0.0
H1538 H 0.96812 0.07648 0.65085 0.0
H1539 H 0.89926 0.06707 0.61994 0.0
H1540 H 0.9475 0.02152 0.57013 0.0
H1541 H 0.92487 0.03527 0.60432 0.0
H1542 H 0.9734 0.09203 0.61087 0.0
H1543 H -0.00365 0.07811 0.5767 0.0
C1544 C 0.93777 0.07701 0.6743 0.0
C1545 C 0.91298 0.07396 0.677 0.0
C1546 C 0.94879 0.07565 0.65222 0.0
C1547 C 0.93519 0.07121 0.63249 0.0
C1548 C 0.91017 0.07011 0.63497 0.0
C1549 C 0.89912 0.07153 0.65707 0.0
C1550 C 0.95328 0.03701 0.57876 0.0
C1551 C 0.97387 0.04856 0.57094 0.0
C1552 C 0.94014 0.04505 0.59817 0.0
C1553 C 0.94735 0.06477 0.61017 0.0
C1554 C 0.96754 0.07672 0.60197 0.0
C1555 C 0.98066 0.06873 0.58247 0.0
H1556 H 0.77442 0.16551 0.42851 0.0
H1557 H 0.80361 0.22254 0.46643 0.0
H1558 H 0.78002 0.18616 0.39216 0.0
H1559 H 0.81031 0.24301 0.42973 0.0
H1560 H 0.78492 0.28169 0.36388 0.0
H1561 H 0.78788 0.26202 0.401 0.0
H1562 H 0.8086 0.19942 0.36454 0.0
H1563 H 0.80439 0.21893 0.3273 0.0
C1564 C 0.78229 0.18242 0.42901 0.0
C1565 C 0.78844 0.19251 0.45026 0.0
C1566 C 0.78579 0.19417 0.40812 0.0
C1567 C 0.79586 0.21617 0.40796 0.0
C1568 C 0.8023 0.22618 0.42926 0.0
C1569 C 0.79847 0.21449 0.45026 0.0
C1570 C 0.79057 0.26384 0.36383 0.0
C1571 C 0.79405 0.25169 0.34276 0.0
C1572 C 0.79237 0.25257 0.38513 0.0
C1573 C 0.79803 0.22902 0.38574 0.0
C1574 C 0.8035 0.21741 0.36464 0.0
C1575 C 0.80129 0.22859 0.34333 0.0
H1576 H 0.55999 -0.00594 0.23067 0.0
H1577 H 0.62417 0.01401 0.19244 0.0
H1578 H 0.53629 0.00246 0.19637 0.0
H1579 H 0.60037 0.02263 0.15842 0.0
H1580 H 0.54557 0.066 0.11896 0.0
H1581 H 0.56669 0.05496 0.15409 0.0
H1582 H 0.53442 0.98801 0.15186 0.0
H1583 H 0.51335 -0.00093 0.11657 0.0
C1584 C 0.56903 -6e-05 0.21486 0.0
C1585 C 0.59384 0.00356 0.21418 0.0
C1586 C 0.5555 0.00471 0.19535 0.0
C1587 C 0.56661 0.01347 0.17511 0.0
C1588 C 0.5915 0.01618 0.17407 0.0
C1589 C 0.60507 0.01109 0.19343 0.0
C1590 C 0.54265 0.04914 0.12629 0.0
C1591 C 0.52799 0.03331 0.11519 0.0
C1592 C 0.55487 0.04276 0.14613 0.0
C1593 C 0.55228 0.0206 0.15529 0.0
C1594 C 0.53666 0.00516 0.14495 0.0
C1595 C 0.52472 0.01144 0.12488 0.0
H1596 H 0.74562 0.83851 0.95645 0.0
H1597 H 0.77857 0.89513 0.92022 0.0
H1598 H 0.74315 0.8176 0.91934 0.0
H1599 H 0.77751 0.87414 0.88368 0.0
H1600 H 0.7537 0.84378 0.81607 0.0
H1601 H 0.75448 0.86304 0.85382 0.0
H1602 H 0.7596 0.79724 0.88805 0.0
H1603 H 0.75739 0.77811 0.85025 0.0
C1604 C 0.75284 0.84629 0.94067 0.0
C1605 C 0.76221 0.86859 0.94144 0.0
C1606 C 0.75144 0.83429 0.91921 0.0
C1607 C 0.75971 0.84411 0.89791 0.0
C1608 C 0.77007 0.86603 0.89915 0.0
C1609 C 0.77102 0.87808 0.92037 0.0
C1610 C 0.75473 0.8334 0.83167 0.0
C1611 C 0.75538 0.80932 0.82992 0.0
C1612 C 0.75551 0.84449 0.85353 0.0
C1613 C 0.75752 0.83195 0.87452 0.0
C1614 C 0.7578 0.80777 0.87268 0.0
C1615 C 0.7566 0.79669 0.85081 0.0
H1616 H 0.82038 0.98274 -0.00418 0.0
H1617 H 0.84504 0.9226 0.03221 0.0
H1618 H 0.85878 0.00064 0.00055 0.0
H1619 H 0.88429 0.94041 0.03632 0.0
H1620 H 0.94677 0.98729 0.05627 0.0
H1621 H 0.90734 0.96969 0.0544 0.0
H1622 H 0.89816 -0.0006 0.98619 0.0
H1623 H 0.93697 0.01747 0.98846 0.0
C1624 C 0.83408 0.97317 0.00473 0.0
C1625 C 0.82946 0.95103 0.01346 0.0
C1626 C 0.85635 0.98348 0.00732 0.0
C1627 C 0.87506 0.97201 0.01855 0.0
C1628 C 0.87039 0.94996 0.0277 0.0
C1629 C 0.84787 0.93964 0.02525 0.0
C1630 C 0.93618 0.9903 0.04101 0.0
C1631 C 0.94508 0.00408 0.02264 0.0
C1632 C 0.9136 0.97996 0.03981 0.0
C1633 C 0.89925 0.98302 0.02016 0.0
C1634 C 0.90824 -0.00311 0.00187 0.0
C1635 C 0.93068 0.00729 0.00312 0.0
H1636 H 0.3591 0.64255 0.98662 0.0
H1637 H 0.35219 0.57392 0.01431 0.0
H1638 H 0.39564 0.63077 0.96512 0.0
H1639 H 0.38847 0.56227 -0.00726 0.0
H1640 H 0.44086 0.53941 0.94176 0.0
H1641 H 0.40227 0.55813 0.94914 0.0
H1642 H 0.43756 0.61661 0.9786 0.0
H1643 H 0.47623 0.59802 0.9713 0.0
C1644 C 0.36538 0.62498 0.98811 0.0
C1645 C 0.35285 0.60913 0.0022 0.0
C1646 C 0.38616 0.61829 0.97572 0.0
C1647 C 0.39445 0.59556 0.97691 0.0
C1648 C 0.38204 0.57978 0.99109 0.0
C1649 C 0.3615 0.58653 0.00372 0.0
C1650 C 0.44051 0.55669 0.94885 0.0
C1651 C 0.46147 0.5669 0.95677 0.0
C1652 C 0.4184 0.56731 0.95319 0.0
C1653 C 0.41707 0.58836 0.96515 0.0
C1654 C 0.43818 0.60023 0.96957 0.0
C1655 C 0.46035 0.58957 0.96531 0.0
H1656 H 0.19125 0.56662 0.78258 0.0
H1657 H 0.13376 0.59911 0.74542 0.0
H1658 H 0.21547 0.60075 0.77712 0.0
H1659 H 0.15806 0.63333 0.74018 0.0
H1660 H 0.23807 0.67608 0.7863 0.0
H1661 H 0.21426 0.64148 0.79116 0.0
H1662 H 0.1959 0.64433 0.71844 0.0
H1663 H 0.21929 0.67923 0.71372 0.0
C1664 C 0.18376 0.58104 0.77329 0.0
C1665 C 0.16057 0.58018 0.76444 0.0
C1666 C 0.1976 0.60059 0.77026 0.0
C1667 C 0.1886 0.6196 0.75823 0.0
C1668 C 0.16548 0.61877 0.74932 0.0
C1669 C 0.15154 0.59926 0.75246 0.0
C1670 C 0.22887 0.66934 0.77141 0.0
C1671 C 0.23045 0.68033 0.74966 0.0
C1672 C 0.21544 0.64947 0.77413 0.0
C1673 C 0.20325 0.64033 0.75517 0.0
C1674 C 0.20498 0.65118 0.73337 0.0
C1675 C 0.21855 0.67097 0.73061 0.0
H1676 H 0.17082 0.40124 0.54097 0.0
H1677 H 0.20263 0.45912 0.50564 0.0
H1678 H 0.13139 0.42005 0.53952 0.0
H1679 H 0.16305 0.4775 0.50348 0.0
H1680 H 0.08134 0.48325 0.48054 0.0
H1681 H 0.12103 0.46505 0.48255 0.0
H1682 H 0.11287 0.46091 0.55748 0.0
H1683 H 0.07356 0.47984 0.55564 0.0
C1684 C 0.16939 0.41792 0.53282 0.0
C1685 C 0.18991 0.42869 0.52348 0.0
C1686 C 0.14683 0.4287 0.53205 0.0
C1687 C 0.14412 0.45023 0.52134 0.0
C1688 C 0.16457 0.46088 0.51176 0.0
C1689 C 0.18723 0.45039 0.5131 0.0
C1690 C 0.08803 0.47852 0.49746 0.0
C1691 C 0.07426 0.48307 0.51793 0.0
C1692 C 0.11078 0.46816 0.49859 0.0
C1693 C 0.12005 0.46152 0.52016 0.0
C1694 C 0.10617 0.46576 0.54061 0.0
C1695 C 0.08371 0.47668 0.53954 0.0
H1696 H 0.90151 0.95665 0.70589 0.0
H1697 H 0.84867 0.98325 0.75585 0.0
H1698 H 0.88173 0.9193 0.70698 0.0
H1699 H 0.82915 0.94634 0.75674 0.0
H1700 H 0.81189 0.87289 0.77029 0.0
H1701 H 0.83768 0.90636 0.77001 0.0
H1702 H 0.84126 0.90448 0.69459 0.0
H1703 H 0.81598 0.87058 0.69487 0.0
C1704 C 0.88579 0.95453 0.71711 0.0
C1705 C 0.8766 0.97289 0.7307 0.0
C1706 C 0.8745 0.93323 0.71769 0.0
C1707 C 0.85407 0.93 0.73208 0.0
C1708 C 0.8451 0.94829 0.74579 0.0
C1709 C 0.85618 0.9695 0.74507 0.0
C1710 C 0.81852 0.87937 0.75369 0.0
C1711 C 0.8117 0.86932 0.7326 0.0
C1712 C 0.83314 0.89857 0.75352 0.0
C1713 C 0.84127 0.90802 0.73227 0.0
C1714 C 0.83531 0.89743 0.7112 0.0
C1715 C 0.82059 0.87826 0.71137 0.0
H1716 H 0.72709 0.0871 0.51535 0.0
H1717 H 0.69282 0.15113 0.53621 0.0
H1718 H 0.69041 0.06667 0.52486 0.0
H1719 H 0.6559 0.1305 0.54563 0.0
H1720 H 0.60343 0.07964 0.58201 0.0
H1721 H 0.64105 0.10007 0.5748 0.0
H1722 H 0.64959 0.06597 0.50791 0.0
H1723 H 0.61245 0.04546 0.51526 0.0
C1724 C 0.71169 0.09681 0.52191 0.0
C1725 C 0.71273 0.12071 0.52496 0.0
C1726 C 0.69072 0.08511 0.52732 0.0
C1727 C 0.67043 0.09705 0.53596 0.0
C1728 C 0.67144 0.12093 0.53919 0.0
C1729 C 0.69244 0.13271 0.53362 0.0
C1730 C 0.61359 0.07638 0.56595 0.0
C1731 C 0.60513 0.06109 0.54914 0.0
C1732 C 0.63487 0.08819 0.56173 0.0
C1733 C 0.64807 0.08458 0.54079 0.0
C1734 C 0.6398 0.06894 0.52425 0.0
C1735 C 0.61851 0.05735 0.52837 0.0
H1736 H 0.15758 0.43325 0.82537 0.0
H1737 H 0.21757 0.45996 0.78519 0.0
H1738 H 0.17964 0.39756 0.83132 0.0
H1739 H 0.23938 0.42412 0.79071 0.0
H1740 H 0.2765 0.35873 0.80724 0.0
H1741 H 0.25791 0.39582 0.81661 0.0
H1742 H 0.18859 0.36801 0.80165 0.0
H1743 H 0.207 0.33098 0.79269 0.0
C1744 C 0.17564 0.43164 0.81817 0.0
C1745 C 0.18571 0.44912 0.80438 0.0
C1746 C 0.18822 0.41123 0.82156 0.0
C1747 C 0.21101 0.40796 0.81115 0.0
C1748 C 0.22187 0.4262 0.79906 0.0
C1749 C 0.20932 0.44668 0.79575 0.0
C1750 C 0.25724 0.36046 0.80634 0.0
C1751 C 0.2432 0.34208 0.79893 0.0
C1752 C 0.24665 0.38167 0.8117 0.0
C1753 C 0.22187 0.38479 0.80977 0.0
C1754 C 0.20771 0.36604 0.80362 0.0
C1755 C 0.21828 0.34487 0.79825 0.0
H1756 H 0.37986 0.61858 0.22421 0.0
H1757 H 0.33583 0.57839 0.27143 0.0
H1758 H 0.35614 0.65275 0.23424 0.0
H1759 H 0.31233 0.613 0.28192 0.0
H1760 H 0.31283 0.69094 0.31393 0.0
H1761 H 0.32734 0.65256 0.30274 0.0
H1762 H 0.31028 0.6661 0.23102 0.0
H1763 H 0.29544 0.70426 0.24208 0.0
C1764 C 0.36501 0.61707 0.23664 0.0
C1765 C 0.35966 0.59596 0.24713 0.0
C1766 C 0.35138 0.63654 0.24224 0.0
C1767 C 0.33247 0.63533 0.25875 0.0
C1768 C 0.32686 0.6142 0.2691 0.0
C1769 C 0.3402 0.59452 0.26307 0.0
C1770 C 0.31178 0.68555 0.29586 0.0
C1771 C 0.30326 0.70063 0.27883 0.0
C1772 C 0.3199 0.66359 0.28953 0.0
C1773 C 0.31991 0.65659 0.26606 0.0
C1774 C 0.31042 0.67124 0.24923 0.0
C1775 C 0.30195 0.69303 0.25558 0.0
H1776 H 0.54325 0.67823 0.63107 0.0
H1777 H 0.49669 0.71201 0.58285 0.0
H1778 H 0.53841 0.64215 0.61079 0.0
H1779 H 0.49116 0.67521 0.56257 0.0
H1780 H 0.50351 0.60732 0.51978 0.0
H1781 H 0.50707 0.64497 0.5383 0.0
H1782 H 0.51202 0.61222 0.60552 0.0
H1783 H 0.50928 0.57473 0.58689 0.0
C1784 C 0.53185 0.67802 0.61608 0.0
C1785 C 0.52029 0.69831 0.60882 0.0
C1786 C 0.52885 0.65703 0.60447 0.0
C1787 C 0.51394 0.65521 0.58513 0.0
C1788 C 0.50286 0.67566 0.57732 0.0
C1789 C 0.50602 0.69689 0.58896 0.0
C1790 C 0.50516 0.60813 0.53856 0.0
C1791 C 0.50616 0.58773 0.55173 0.0
C1792 C 0.50715 0.62989 0.54926 0.0
C1793 C 0.51019 0.63205 0.57356 0.0
C1794 C 0.51036 0.61159 0.58675 0.0
C1795 C 0.50851 0.58989 0.57605 0.0
H1796 H 0.63487 0.27069 0.9054 0.0
H1797 H 0.62549 0.23167 0.84198 0.0
H1798 H 0.67498 0.28152 0.89143 0.0
H1799 H 0.66535 0.24216 0.82833 0.0
H1800 H 0.72112 0.28656 0.79677 0.0
H1801 H 0.68221 0.27927 0.81501 0.0
H1802 H 0.71582 0.26473 0.88044 0.0
H1803 H 0.75497 0.27245 0.86228 0.0
C1804 C 0.64152 0.26415 0.88869 0.0
C1805 C 0.62701 0.25061 0.87459 0.0
C1806 C 0.66439 0.27036 0.88073 0.0
C1807 C 0.67294 0.2631 0.8586 0.0
C1808 C 0.65889 0.24853 0.84517 0.0
C1809 C 0.63616 0.24238 0.85307 0.0
C1810 C 0.72022 0.28217 0.81514 0.0
C1811 C 0.74108 0.27967 0.828 0.0
C1812 C 0.69798 0.27786 0.82553 0.0
C1813 C 0.69616 0.27089 0.84894 0.0
C1814 C 0.7168 0.26999 0.86232 0.0
C1815 C 0.73916 0.27437 0.85191 0.0
H1816 H 0.98295 0.35692 0.12033 0.0
H1817 H 0.0439 0.33883 0.07604 0.0
H1818 H 0.98042 0.39444 0.10126 0.0
H1819 H 0.04176 0.37664 0.0574 0.0
H1820 H 0.046 0.45744 0.05238 0.0
H1821 H 0.04765 0.41904 0.06957 0.0
H1822 H 0.97176 0.41204 0.06073 0.0
H1823 H 0.97019 0.45028 0.0429 0.0
C1824 C -0.00418 0.36089 0.1065 0.0
C1825 C 0.01361 0.34464 0.09978 0.0
C1826 C -0.00569 0.38245 0.09548 0.0
C1827 C 0.0109 0.38877 0.07774 0.0
C1828 C 0.02873 0.37254 0.07105 0.0
C1829 C 0.02989 0.35075 0.08169 0.0
C1830 C 0.02963 0.44773 0.05399 0.0
C1831 C 0.00796 0.45715 0.04615 0.0
C1832 C 0.03062 0.42558 0.06378 0.0
C1833 C 0.00986 0.41225 0.06662 0.0
C1834 C 0.98812 0.42174 0.05897 0.0
C1835 C 0.98723 0.4437 0.04864 0.0
H1836 H 0.00068 0.79607 0.33038 0.0
H1837 H 0.96465 0.76886 0.39179 0.0
H1838 H 0.96231 0.80326 0.31274 0.0
H1839 H 0.92606 0.77702 0.37458 0.0
H1840 H 0.86165 0.77606 0.32803 0.0
H1841 H 0.89971 0.76641 0.34474 0.0
H1842 H 0.92962 0.82912 0.31711 0.0
H1843 H 0.89209 0.83798 0.29887 0.0
C1844 C 0.98449 0.79168 0.34012 0.0
C1845 C 0.98557 0.78201 0.36247 0.0
C1846 C 0.9625 0.79597 0.3301 0.0
C1847 C 0.9411 0.79104 0.34238 0.0
C1848 C 0.94221 0.78083 0.36456 0.0
C1849 C 0.96428 0.7762 0.37445 0.0
C1850 C 0.87635 0.78769 0.32514 0.0
C1851 C 0.8737 0.80773 0.31175 0.0
C1852 C 0.89816 0.78227 0.33508 0.0
C1853 C 0.91777 0.79691 0.33216 0.0
C1854 C 0.91501 0.81721 0.31929 0.0
C1855 C 0.89329 0.82248 0.30909 0.0
H1856 H 0.53736 0.34195 0.86782 0.0
H1857 H 0.51775 0.30895 0.93295 0.0
H1858 H 0.51908 0.37751 0.88186 0.0
H1859 H 0.50005 0.34503 0.94738 0.0
H1860 H 0.4549 0.41052 0.95931 0.0
H1861 H 0.4676 0.37335 0.94255 0.0
H1862 H 0.5292 0.40569 0.91008 0.0
H1863 H 0.51602 0.44243 0.92576 0.0
C1864 C 0.52931 0.34233 0.88523 0.0
C1865 C 0.5293 0.32271 0.8994 0.0
C1866 C 0.51881 0.36274 0.89329 0.0
C1867 C 0.50831 0.36416 0.91582 0.0
C1868 C 0.5078 0.34441 0.92985 0.0
C1869 C 0.51814 0.32383 0.92167 0.0
C1870 C 0.47089 0.4096 0.94826 0.0
C1871 C 0.48461 0.42928 0.94404 0.0
C1872 C 0.47831 0.38835 0.93889 0.0
C1873 C 0.49944 0.38657 0.92504 0.0
C1874 C 0.51269 0.40644 0.92042 0.0
C1875 C 0.50531 0.4275 0.92969 0.0
H1876 H 0.93244 0.27912 0.16149 0.0
H1877 H 0.96271 0.27052 0.22946 0.0
H1878 H 0.89257 0.28455 0.18018 0.0
H1879 H 0.92335 0.27639 0.24795 0.0
H1880 H 0.85118 0.30724 0.27418 0.0
H1881 H 0.89022 0.30721 0.25349 0.0
H1882 H 0.8646 0.25746 0.20436 0.0
H1883 H 0.82591 0.25711 0.22517 0.0
C1884 C 0.93067 0.27876 0.18037 0.0
C1885 C 0.95075 0.27426 0.19395 0.0
C1886 C 0.90786 0.28175 0.19107 0.0
C1887 C 0.90478 0.28091 0.21559 0.0
C1888 C 0.92506 0.27733 0.22909 0.0
C1889 C 0.94763 0.27383 0.21843 0.0
C1890 C 0.85386 0.29638 0.25892 0.0
C1891 C 0.83544 0.28204 0.2515 0.0
C1892 C 0.87622 0.29634 0.24706 0.0
C1893 C 0.88051 0.28238 0.2272 0.0
C1894 C 0.86185 0.26858 0.21941 0.0
C1895 C 0.83971 0.26826 0.23151 0.0
H1896 H 0.01325 0.67247 0.41785 0.0
H1897 H 0.05514 0.69489 0.47584 0.0
H1898 H 0.01369 0.63345 0.43306 0.0
H1899 H 0.05661 0.65584 0.49043 0.0
H1900 H 0.03552 0.56216 0.45335 0.0
H1901 H 0.03913 0.60104 0.43818 0.0
H1902 H 0.0326 0.62802 0.50858 0.0
H1903 H 0.03015 0.58931 0.52369 0.0
C1904 C 0.02255 0.66903 0.43384 0.0
C1905 C 0.03399 0.68671 0.44576 0.0
C1906 C 0.02308 0.64664 0.44241 0.0
C1907 C 0.03535 0.64145 0.4629 0.0
C1908 C 0.04671 0.65924 0.47481 0.0
C1909 C 0.04588 0.68165 0.46643 0.0
C1910 C 0.03538 0.57641 0.46557 0.0
C1911 C 0.03251 0.5727 0.48969 0.0
C1912 C 0.03714 0.5987 0.45688 0.0
C1913 C 0.03579 0.61769 0.47213 0.0
C1914 C 0.03396 0.61384 0.49632 0.0
C1915 C 0.03251 0.59158 0.50501 0.0
H1916 H 0.57082 0.77398 0.71044 0.0
H1917 H 0.61265 0.78758 0.64771 0.0
H1918 H 0.60722 0.77416 0.73319 0.0
H1919 H 0.64907 0.78785 0.67048 0.0
H1920 H 0.70558 0.81122 0.72193 0.0
H1921 H 0.6685 0.81127 0.70052 0.0
H1922 H 0.64485 0.75176 0.73894 0.0
H1923 H 0.68219 0.75161 0.76043 0.0
C1924 C 0.58778 0.77704 0.70146 0.0
C1925 C 0.5887 0.78081 0.67716 0.0
C1926 C 0.60871 0.77701 0.71454 0.0
C1927 C 0.63121 0.78107 0.70379 0.0
C1928 C 0.6321 0.78491 0.67948 0.0
C1929 C 0.61119 0.78465 0.66635 0.0
C1930 C 0.69244 0.79822 0.72606 0.0
C1931 C 0.69701 0.78145 0.74309 0.0
C1932 C 0.67118 0.79814 0.71356 0.0
C1933 C 0.65361 0.78143 0.71778 0.0
C1934 C 0.65785 0.765 0.73526 0.0
C1935 C 0.67931 0.7649 0.74761 0.0
H1936 H 0.61795 0.44539 0.71127 0.0
H1937 H 0.67126 0.48495 0.67374 0.0
H1938 H 0.59216 0.44713 0.67783 0.0
H1939 H 0.64537 0.48656 0.63997 0.0
H1940 H 0.55404 0.44562 0.60998 0.0
H1941 H 0.58608 0.43695 0.63664 0.0
H1942 H 0.60689 0.50813 0.63569 0.0
H1943 H 0.57475 0.51687 0.60919 0.0
C1944 C 0.62441 0.45392 0.69558 0.0
C1945 C 0.64643 0.46526 0.69514 0.0
C1946 C 0.60967 0.45484 0.67639 0.0
C1947 C 0.61664 0.46724 0.65642 0.0
C1948 C 0.63946 0.47716 0.65531 0.0
C1949 C 0.65434 0.47606 0.67451 0.0
C1950 C 0.56534 0.45946 0.61554 0.0
C1951 C 0.56164 0.48202 0.60767 0.0
C1952 C 0.58382 0.45443 0.63064 0.0
C1953 C 0.59902 0.47184 0.63816 0.0
C1954 C 0.59574 0.49427 0.62984 0.0
C1955 C 0.57723 0.49931 0.61477 0.0
H1956 H 0.72854 0.37288 0.94834 0.0
H1957 H 0.75116 0.33093 0.00604 0.0
H1958 H 0.75445 0.35047 0.92187 0.0
H1959 H 0.77739 0.30887 0.97952 0.0
H1960 H 0.80748 0.2651 0.91531 0.0
H1961 H 0.78018 0.28272 0.94462 0.0
H1962 H 0.79891 0.34989 0.91866 0.0
H1963 H 0.82582 0.33217 0.8894 0.0
C1964 C 0.73862 0.3586 0.95532 0.0
C1965 C 0.73812 0.35398 0.97936 0.0
C1966 C 0.75367 0.34595 0.9402 0.0
C1967 C 0.76844 0.32843 0.94883 0.0
C1968 C 0.76635 0.32242 0.97247 0.0
C1969 C 0.7513 0.33509 0.98761 0.0
C1970 C 0.80633 0.28363 0.91655 0.0
C1971 C 0.81865 0.2974 0.90026 0.0
C1972 C 0.79055 0.29369 0.93306 0.0
C1973 C 0.78696 0.31761 0.9334 0.0
C1974 C 0.8008 0.33137 0.91831 0.0
C1975 C 0.81646 0.32133 0.90188 0.0
H1976 H 0.92825 0.59279 0.18211 0.0
H1977 H 0.87897 0.53994 0.16275 0.0
H1978 H 0.94453 0.5936 0.14223 0.0
H1979 H 0.89602 0.53977 0.12308 0.0
H1980 H 0.93209 0.54293 0.05262 0.0
H1981 H 0.90721 0.55648 0.08563 0.0
H1982 H 0.97056 0.56402 0.12656 0.0
H1983 H -0.00468 0.55118 0.0936 0.0
C1984 C 0.92054 0.58178 0.16906 0.0
C1985 C 0.90278 0.56602 0.1753 0.0
C1986 C 0.92989 0.58215 0.14634 0.0
C1987 C 0.92206 0.56626 0.12979 0.0
C1988 C 0.90244 0.55222 0.13546 0.0
C1989 C 0.8927 0.55223 0.15815 0.0
C1990 C 0.94067 0.54776 0.06863 0.0
C1991 C 0.96561 0.5458 0.07069 0.0
C1992 C 0.92643 0.55553 0.08746 0.0
C1993 C 0.93691 0.56142 0.10861 0.0
C1994 C 0.96194 0.56012 0.11033 0.0
C1995 C 0.97614 0.55246 0.09154 0.0
H1996 H 0.76276 0.66449 0.42518 0.0
H1997 H 0.76614 0.72802 0.46385 0.0
H1998 H 0.76378 0.68582 0.38855 0.0
H1999 H 0.76739 0.74944 0.42704 0.0
H2000 H 0.79412 0.77656 0.35352 0.0
H2001 H 0.79341 0.75636 0.39105 0.0
H2002 H 0.73789 0.71227 0.3664 0.0
H2003 H 0.73842 0.73247 0.32915 0.0
C2004 C 0.76381 0.68303 0.42592 0.0
C2005 C 0.76433 0.69443 0.44765 0.0
C2006 C 0.76426 0.69532 0.40482 0.0
C2007 C 0.76558 0.71947 0.40464 0.0
C2008 C 0.76652 0.73089 0.42636 0.0
C2009 C 0.7657 0.71858 0.44754 0.0
C2010 C 0.78165 0.76265 0.35614 0.0
C2011 C 0.76629 0.75628 0.33814 0.0
C2012 C 0.78118 0.75108 0.37775 0.0
C2013 C 0.76566 0.73251 0.3819 0.0
C2014 C 0.75029 0.72625 0.36389 0.0
C2015 C 0.7505 0.738 0.34249 0.0
H2016 H 0.59522 0.53367 0.81067 0.0
H2017 H 0.63478 0.47481 0.83529 0.0
H2018 H 0.57626 0.53843 0.8492 0.0
H2019 H 0.61521 0.47942 0.87399 0.0
H2020 H 0.54334 0.48261 0.92272 0.0
H2021 H 0.56814 0.47717 0.88726 0.0
H2022 H 0.59182 0.54726 0.89207 0.0
H2023 H 0.56737 0.55272 0.92776 0.0
C2024 C 0.59983 0.52173 0.82433 0.0
C2025 C 0.61636 0.50379 0.82002 0.0
C2026 C 0.58912 0.52459 0.84637 0.0
C2027 C 0.59442 0.50933 0.86439 0.0
C2028 C 0.61094 0.49136 0.86023 0.0
C2029 C 0.6221 0.48878 0.83821 0.0
C2030 C 0.55399 0.4968 0.9163 0.0
C2031 C 0.55329 0.51817 0.92779 0.0
C2032 C 0.56829 0.4936 0.89619 0.0
C2033 C 0.58177 0.51182 0.88712 0.0
C2034 C 0.58149 0.53301 0.89885 0.0
C2035 C 0.56753 0.53611 0.91918 0.0
H2036 H 0.74694 0.32868 0.10147 0.0
H2037 H 0.72606 0.39237 0.13552 0.0
H2038 H 0.74906 0.31 0.13937 0.0
H2039 H 0.72679 0.37352 0.17328 0.0
H2040 H 0.75958 0.34096 0.23669 0.0
H2041 H 0.75431 0.35919 0.19943 0.0
H2042 H 0.72621 0.29608 0.17168 0.0
H2043 H 0.73278 0.27728 0.20908 0.0
C2044 C 0.74272 0.33862 0.11711 0.0
C2045 C 0.73663 0.36199 0.11569 0.0
C2046 C 0.74362 0.32788 0.13878 0.0
C2047 C 0.73803 0.34023 0.15939 0.0
C2048 C 0.73166 0.36359 0.15782 0.0
C2049 C 0.73122 0.37441 0.1362 0.0
C2050 C 0.75202 0.33095 0.22277 0.0
C2051 C 0.74668 0.30763 0.22577 0.0
C2052 C 0.74886 0.3415 0.20136 0.0
C2053 C 0.73986 0.32912 0.1825 0.0
C2054 C 0.7336 0.30598 0.18575 0.0
C2055 C 0.73713 0.29527 0.20719 0.0
H2056 H 0.98083 0.49996 0.27915 0.0
H2057 H 0.94162 0.5565 0.31174 0.0
H2058 H 0.00022 0.4922 0.31601 0.0
H2059 H 0.96079 0.54854 0.34846 0.0
H2060 H 0.98983 0.46519 0.39271 0.0
H2061 H 0.98198 0.4765 0.35284 0.0
H2062 H -0.00096 0.54668 0.36972 0.0
H2063 H 0.00725 0.53532 0.40966 0.0
C2064 C 0.97668 0.51098 0.29402 0.0
C2065 C 0.95941 0.52859 0.29269 0.0
C2066 C 0.98772 0.50648 0.3151 0.0
C2067 C 0.98179 0.51962 0.33507 0.0
C2068 C 0.9658 0.53823 0.33328 0.0
C2069 C 0.95468 0.54265 0.31229 0.0
C2070 C 0.9924 0.48293 0.38785 0.0
C2071 C -0.00115 0.49939 0.40444 0.0
C2072 C 0.98799 0.4894 0.36497 0.0
C2073 C 0.9899 0.51247 0.35825 0.0
C2074 C -0.00278 0.52881 0.37456 0.0
C2075 C 0.00172 0.52232 0.39745 0.0
H2076 H 0.78292 0.70754 0.58006 0.0
H2077 H 0.737 0.65994 0.61675 0.0
H2078 H 0.7885 0.7286 0.61674 0.0
H2079 H 0.74178 0.68106 0.65276 0.0
H2080 H 0.77058 0.70749 0.71985 0.0
H2081 H 0.76816 0.68785 0.68243 0.0
H2082 H 0.77238 0.75294 0.64678 0.0
H2083 H 0.77575 0.77249 0.68437 0.0
C2084 C 0.77375 0.70172 0.59581 0.0
C2085 C 0.75965 0.68184 0.59528 0.0
C2086 C 0.77693 0.71382 0.61696 0.0
C2087 C 0.76597 0.70647 0.63817 0.0
C2088 C 0.75124 0.68705 0.63724 0.0
C2089 C 0.74827 0.67495 0.61633 0.0
C2090 C 0.77131 0.71764 0.70405 0.0
C2091 C 0.77341 0.74166 0.70534 0.0
C2092 C 0.76962 0.70636 0.68241 0.0
C2093 C 0.76964 0.71867 0.6612 0.0
C2094 C 0.77244 0.74268 0.66248 0.0
C2095 C 0.77434 0.75396 0.68418 0.0
H2096 H 0.70784 0.58254 0.52134 0.0
H2097 H 0.66641 0.64372 0.50776 0.0
H2098 H 0.67137 0.55975 0.5215 0.0
H2099 H 0.62989 0.62086 0.50777 0.0
H2100 H 0.57463 0.56915 0.48262 0.0
H2101 H 0.61165 0.59072 0.48314 0.0
H2102 H 0.63291 0.5539 0.54454 0.0
H2103 H 0.59551 0.53224 0.54418 0.0
C2104 C 0.69094 0.59117 0.51839 0.0
C2105 C 0.69015 0.61503 0.51446 0.0
C2106 C 0.66998 0.57807 0.51863 0.0
C2107 C 0.64761 0.58837 0.51458 0.0
C2108 C 0.64681 0.61226 0.51071 0.0
C2109 C 0.66775 0.62542 0.51081 0.0
C2110 C 0.58723 0.56539 0.49616 0.0
C2111 C 0.58196 0.54878 0.51333 0.0
C2112 C 0.60843 0.57799 0.49656 0.0
C2113 C 0.62527 0.57428 0.51399 0.0
C2114 C 0.62042 0.55719 0.53079 0.0
C2115 C 0.59896 0.54473 0.53058 0.0
H2116 H 0.17802 0.9494 0.57839 0.0
H2117 H 0.1368 0.89777 0.54385 0.0
H2118 H 0.14178 0.97188 0.58651 0.0
H2119 H 0.10058 0.92079 0.55068 0.0
H2120 H 0.03775 0.96449 0.56196 0.0
H2121 H 0.07041 0.93968 0.57415 0.0
H2122 H 0.12042 -0.00566 0.55988 0.0
H2123 H 0.08784 0.01922 0.5486 0.0
C2124 C 0.16105 0.94279 0.5728 0.0
C2125 C 0.16005 0.92222 0.56008 0.0
C2126 C 0.14034 0.95564 0.5774 0.0
C2127 C 0.11839 0.94844 0.56876 0.0
C2128 C 0.11716 0.92682 0.55773 0.0
C2129 C 0.13788 0.91368 0.55361 0.0
C2130 C 0.05567 0.97138 0.5621 0.0
C2131 C 0.06039 0.99362 0.55387 0.0
C2132 C 0.07436 0.95712 0.56898 0.0
C2133 C 0.09806 0.96484 0.56756 0.0
C2134 C 0.10239 0.98782 0.5614 0.0
C2135 C 0.0837 0.00211 0.55473 0.0
H2136 H 0.37405 0.95423 0.72855 0.0
H2137 H 0.35172 -0.00567 0.78914 0.0
H2138 H 0.35328 0.92115 0.74458 0.0
H2139 H 0.33168 0.96096 0.80561 0.0
H2140 H 0.27858 0.90091 0.81528 0.0
H2141 H 0.29838 0.93569 0.80116 0.0
H2142 H 0.35829 0.89439 0.77542 0.0
H2143 H 0.33802 0.85989 0.78881 0.0
C2144 C 0.36474 0.95595 0.74531 0.0
C2145 C 0.36459 0.97682 0.75762 0.0
C2146 C 0.353 0.93696 0.7546 0.0
C2147 C 0.34112 0.93834 0.77654 0.0
C2148 C 0.34052 0.95938 0.78861 0.0
C2149 C 0.35206 0.97847 0.77919 0.0
C2150 C 0.29613 0.8995 0.80692 0.0
C2151 C 0.30677 0.8779 0.80287 0.0
C2152 C 0.30747 0.91931 0.79881 0.0
C2153 C 0.32972 0.91774 0.78678 0.0
C2154 C 0.34084 0.89613 0.78397 0.0
C2155 C 0.3294 0.87642 0.79178 0.0
H2156 H 0.34628 0.13233 0.00929 0.0
H2157 H 0.31708 0.06444 0.01715 0.0
H2158 H 0.38626 0.11526 0.00201 0.0
H2159 H 0.35657 0.04755 0.00949 0.0
H2160 H 0.42899 0.02413 0.97709 0.0
H2161 H 0.38974 0.04357 0.97755 0.0
H2162 H 0.41447 0.09204 0.02845 0.0
H2163 H 0.45328 0.07253 0.02835 0.0
C2164 C 0.3483 0.11383 0.00909 0.0
C2165 C 0.32851 0.09978 0.01398 0.0
C2166 C 0.37117 0.10404 0.00502 0.0
C2167 C 0.37458 0.08002 0.00515 0.0
C2168 C 0.35458 0.06606 0.00905 0.0
C2169 C 0.33194 0.07579 0.01361 0.0
C2170 C 0.42607 0.03904 0.98821 0.0
C2171 C 0.4442 0.04662 0.00283 0.0
C2172 C 0.40361 0.05015 0.98851 0.0
C2173 C 0.399 0.0694 0.00302 0.0
C2174 C 0.41746 0.07744 0.01693 0.0
C2175 C 0.43966 0.06609 0.01699 0.0
H2176 H 0.66303 0.58324 0.73226 0.0
H2177 H 0.71586 0.55176 0.77613 0.0
H2178 H 0.67833 0.62111 0.74223 0.0
H2179 H 0.73088 0.58946 0.78599 0.0
H2180 H 0.72732 0.66075 0.82136 0.0
H2181 H 0.71299 0.6232 0.80936 0.0
H2182 H 0.71686 0.64419 0.73718 0.0
H2183 H 0.73178 0.68133 0.74887 0.0
C2184 C 0.67804 0.58435 0.74376 0.0
C2185 C 0.68812 0.5645 0.75349 0.0
C2186 C 0.68676 0.60599 0.74945 0.0
C2187 C 0.70553 0.6081 0.76511 0.0
C2188 C 0.71612 0.58827 0.7742 0.0
C2189 C 0.7076 0.56669 0.76836 0.0
C2190 C 0.72529 0.65734 0.80294 0.0
C2191 C 0.73064 0.67418 0.78617 0.0
C2192 C 0.71706 0.63587 0.79609 0.0
C2193 C 0.71386 0.63091 0.77236 0.0
C2194 C 0.71892 0.64773 0.7556 0.0
C2195 C 0.72736 0.66908 0.7624 0.0
H2196 H 0.77385 0.47647 0.00461 0.0
H2197 H 0.80474 0.41542 0.03461 0.0
H2198 H 0.8137 0.4912 -0.00369 0.0
H2199 H 0.84466 0.42964 0.02539 0.0
H2200 H 0.91265 0.47094 0.02503 0.0
H2201 H 0.87304 0.45737 0.03515 0.0
H2202 H 0.84684 0.48456 0.97042 0.0
H2203 H 0.88623 0.49973 0.96106 0.0
C2204 C 0.78919 0.46621 0.00944 0.0
C2205 C 0.78622 0.4448 0.02025 0.0
C2206 C 0.81204 0.47454 0.00447 0.0
C2207 C 0.83241 0.4615 0.00992 0.0
C2208 C 0.82938 0.44027 0.0212 0.0
C2209 C 0.80651 0.43209 0.02647 0.0
C2210 C 0.89847 0.47441 0.01304 0.0
C2211 C 0.90271 0.4868 0.99232 0.0
C2212 C 0.87573 0.46626 0.01873 0.0
C2213 C 0.85668 0.46994 0.00368 0.0
C2214 C 0.861 0.4818 0.98266 0.0
C2215 C 0.88373 0.49022 0.9771 0.0
H2216 H 0.32715 0.10367 0.77672 0.0
H2217 H 0.39268 0.13333 0.74958 0.0
H2218 H 0.30739 0.14118 0.7747 0.0
H2219 H 0.37281 0.17013 0.74613 0.0
H2220 H 0.33833 0.23777 0.76539 0.0
H2221 H 0.35767 0.20076 0.76752 0.0
H2222 H 0.29216 0.16796 0.74757 0.0
H2223 H 0.27211 0.20543 0.747 0.0
C2224 C 0.33733 0.11825 0.77051 0.0
C2225 C 0.36146 0.11569 0.76352 0.0
C2226 C 0.32596 0.13962 0.76899 0.0
C2227 C 0.33844 0.15865 0.76005 0.0
C2228 C 0.36271 0.15601 0.75347 0.0
C2229 C 0.37415 0.13486 0.75547 0.0
C2230 C 0.32802 0.22274 0.76117 0.0
C2231 C 0.30362 0.22451 0.75614 0.0
C2232 C 0.3392 0.20142 0.76231 0.0
C2233 C 0.32647 0.18131 0.75786 0.0
C2234 C 0.30234 0.18311 0.75162 0.0
C2235 C 0.29094 0.20455 0.75092 0.0
H2236 H 0.18565 0.91505 0.32605 0.0
H2237 H 0.23994 0.95199 0.28691 0.0
H2238 H 0.21383 0.8835 0.33162 0.0
H2239 H 0.26814 0.9203 0.29251 0.0
H2240 H 0.27059 0.83018 0.34177 0.0
H2241 H 0.25412 0.86915 0.34715 0.0
H2242 H 0.26357 0.8813 0.27313 0.0
H2243 H 0.27955 0.84261 0.26778 0.0
C2244 C 0.20377 0.91665 0.3191 0.0
C2245 C 0.21048 0.93573 0.30563 0.0
C2246 C 0.21997 0.8987 0.32252 0.0
C2247 C 0.24308 0.89945 0.31235 0.0
C2248 C 0.25036 0.9193 0.30041 0.0
C2249 C 0.23421 0.93738 0.29718 0.0
C2250 C 0.26968 0.84148 0.32684 0.0
C2251 C 0.27598 0.83345 0.30433 0.0
C2252 C 0.26026 0.86367 0.3299 0.0
C2253 C 0.25758 0.87816 0.31055 0.0
C2254 C 0.26568 0.87061 0.28838 0.0
C2255 C 0.27462 0.8484 0.28528 0.0
H2256 H 0.49678 0.37071 0.40236 0.0
H2257 H 0.53048 0.33797 0.46041 0.0
H2258 H 0.49831 0.40751 0.42202 0.0
H2259 H 0.53327 0.37538 0.48001 0.0
H2260 H 0.51965 0.44482 0.51756 0.0
H2261 H 0.51707 0.40689 0.49981 0.0
H2262 H 0.5216 0.43773 0.43134 0.0
H2263 H 0.52288 0.47567 0.44927 0.0
C2264 C 0.50456 0.37137 0.41947 0.0
C2265 C 0.51345 0.35116 0.42972 0.0
C2266 C 0.50578 0.39276 0.43074 0.0
C2267 C 0.51644 0.39509 0.45264 0.0
C2268 C 0.52476 0.37467 0.46329 0.0
C2269 C 0.52315 0.35303 0.45206 0.0
C2270 C 0.52022 0.44353 0.49868 0.0
C2271 C 0.52147 0.46356 0.48494 0.0
C2272 C 0.51883 0.42155 0.48839 0.0
C2273 C 0.51885 0.41867 0.4639 0.0
C2274 C 0.52081 0.4388 0.45021 0.0
C2275 C 0.52186 0.46079 0.46052 0.0
H2276 H 0.43684 0.77569 0.16404 0.0
H2277 H 0.47845 0.77815 0.22642 0.0
H2278 H 0.40011 0.77714 0.18793 0.0
H2279 H 0.44201 0.78114 0.25027 0.0
H2280 H 0.37265 0.75978 0.28706 0.0
H2281 H 0.40986 0.75999 0.26412 0.0
H2282 H 0.37567 0.8009 0.21134 0.0
H2283 H 0.3381 0.7993 0.23373 0.0
C2284 C 0.43806 0.77673 0.18286 0.0
C2285 C 0.46036 0.77658 0.19344 0.0
C2286 C 0.41707 0.77781 0.19658 0.0
C2287 C 0.41805 0.77934 0.22109 0.0
C2288 C 0.4405 0.77948 0.23153 0.0
C2289 C 0.46141 0.77785 0.21786 0.0
C2290 C 0.37326 0.76906 0.2707 0.0
C2291 C 0.35262 0.77946 0.26206 0.0
C2292 C 0.39459 0.76926 0.25754 0.0
C2293 C 0.39577 0.78031 0.23573 0.0
C2294 C 0.37528 0.7917 0.22773 0.0
C2295 C 0.35383 0.79103 0.24065 0.0
H2296 H -0.00247 0.68332 0.90697 0.0
H2297 H 0.01701 0.7122 0.97315 0.0
H2298 H -0.00359 0.64516 0.92425 0.0
H2299 H 0.0156 0.67392 0.99066 0.0
H2300 H 0.03516 0.59878 0.00884 0.0
H2301 H 0.0355 0.6373 0.9922 0.0
H2302 H 0.97542 0.61992 0.95004 0.0
H2303 H 0.97533 0.58127 0.96651 0.0
C2304 C 0.00143 0.68162 0.92531 0.0
C2305 C 0.00734 0.70112 0.93856 0.0
C2306 C 0.00066 0.65957 0.93534 0.0
C2307 C 0.00588 0.65604 0.95903 0.0
C2308 C 0.01172 0.67561 0.97233 0.0
C2309 C 0.01237 0.69774 0.96229 0.0
C2310 C 0.02195 0.60311 -0.00396 0.0
C2311 C 0.00521 0.58663 0.98912 0.0
C2312 C 0.02205 0.62542 0.98653 0.0
C2313 C 0.00548 0.63214 0.96962 0.0
C2314 C 0.98873 0.6156 0.96273 0.0
C2315 C 0.98856 0.59331 0.97233 0.0
H2316 H 0.07342 0.34063 0.6846 0.0
H2317 H 0.10631 0.30251 0.62721 0.0
H2318 H 0.10649 0.33029 0.7092 0.0
H2319 H 0.13989 0.29246 0.65175 0.0
H2320 H 0.16665 0.24752 0.71241 0.0
H2321 H 0.14001 0.26518 0.68439 0.0
H2322 H 0.14799 0.33087 0.71852 0.0
H2323 H 0.17354 0.31298 0.74709 0.0
C2324 C 0.08835 0.33093 0.67696 0.0
C2325 C 0.08726 0.32216 0.65418 0.0
C2326 C 0.10726 0.3249 0.69107 0.0
C2327 C 0.12545 0.31004 0.68256 0.0
C2328 C 0.12575 0.30347 0.65889 0.0
C2329 C 0.10678 0.30957 0.64472 0.0
C2330 C 0.16233 0.26562 0.71413 0.0
C2331 C 0.17212 0.27887 0.73193 0.0
C2332 C 0.14754 0.27586 0.6978 0.0
C2333 C 0.14228 0.29952 0.69901 0.0
C2334 C 0.15175 0.31263 0.71708 0.0
C2335 C 0.1664 0.30239 0.73341 0.0
H2336 H 0.54923 0.69843 0.12814 0.0
H2337 H 0.51097 0.73377 0.07412 0.0
H2338 H 0.55378 0.66488 0.10284 0.0
H2339 H 0.51605 0.70042 0.04869 0.0
H2340 H 0.50795 0.62782 0.01945 0.0
H2341 H 0.5027 0.66121 0.0448 0.0
H2342 H 0.57542 0.65319 0.06736 0.0
H2343 H 0.58032 0.61918 0.04284 0.0
C2344 C 0.54182 0.69907 0.11088 0.0
C2345 C 0.52974 0.71879 0.10317 0.0
C2346 C 0.54458 0.67989 0.09632 0.0
C2347 C 0.53538 0.68004 0.07373 0.0
C2348 C 0.52311 0.69967 0.0661 0.0
C2349 C 0.52029 0.71883 0.08066 0.0
C2350 C 0.52277 0.63306 0.02993 0.0
C2351 C 0.54452 0.62072 0.02917 0.0
C2352 C 0.51984 0.65236 0.04428 0.0
C2353 C 0.53862 0.6598 0.05815 0.0
C2354 C 0.5605 0.6477 0.05712 0.0
C2355 C 0.56341 0.62837 0.0428 0.0
H2356 H 0.10579 0.77903 0.89917 0.0
H2357 H 0.0734 0.76254 0.83372 0.0
H2358 H 0.14478 0.78205 0.87907 0.0
H2359 H 0.11226 0.76574 0.81361 0.0
H2360 H 0.18979 0.74897 0.78977 0.0
H2361 H 0.15088 0.74642 0.80978 0.0
H2362 H 0.16722 0.80601 0.85123 0.0
H2363 H 0.20636 0.80845 0.83129 0.0
C2364 C 0.10696 0.77602 0.8805 0.0
C2365 C 0.08637 0.77048 0.86812 0.0
C2366 C 0.12934 0.77792 0.86891 0.0
C2367 C 0.13182 0.77418 0.84463 0.0
C2368 C 0.11121 0.7685 0.83232 0.0
C2369 C 0.08883 0.76675 0.84387 0.0
C2370 C 0.18509 0.76164 0.80306 0.0
C2371 C 0.20131 0.77897 0.80881 0.0
C2372 C 0.16265 0.76022 0.81451 0.0
C2373 C 0.15575 0.77598 0.83221 0.0
C2374 C 0.17195 0.79339 0.83791 0.0
C2375 C 0.19437 0.79491 0.82632 0.0
H2376 H 0.95949 0.36029 0.61876 0.0
H2377 H -0.00162 0.33746 0.55654 0.0
H2378 H 0.94909 0.39603 0.59931 0.0
H2379 H 0.98882 0.37335 0.53747 0.0
H2380 H 0.98457 0.46483 0.57644 0.0
H2381 H 0.9756 0.42715 0.59177 0.0
H2382 H 0.96332 0.40236 0.52187 0.0
H2383 H 0.97311 0.44018 0.50637 0.0
C2384 C 0.96533 0.36268 0.60075 0.0
C2385 C 0.98026 0.34638 0.58935 0.0
C2386 C 0.95947 0.38318 0.58965 0.0
C2387 C 0.96866 0.38782 0.56708 0.0
C2388 C 0.98138 0.3704 0.55484 0.0
C2389 C 0.98702 0.34981 0.56585 0.0
C2390 C 0.97953 0.45149 0.56434 0.0
C2391 C 0.98003 0.45534 0.54016 0.0
C2392 C 0.9741 0.42987 0.57317 0.0
C2393 C 0.96889 0.41163 0.55802 0.0
C2394 C 0.96762 0.41597 0.53395 0.0
C2395 C 0.97319 0.43762 0.52509 0.0
H2396 H 0.44264 0.31202 0.33486 0.0
H2397 H 0.43936 0.24348 0.36282 0.0
H2398 H 0.4045 0.30684 0.31672 0.0
H2399 H 0.40127 0.23764 0.34348 0.0
H2400 H 0.32208 0.24203 0.32127 0.0
H2401 H 0.36028 0.2451 0.34071 0.0
H2402 H 0.38574 0.29041 0.28609 0.0
H2403 H 0.34722 0.28826 0.2676 0.0
C2404 C 0.43382 0.29567 0.33701 0.0
C2405 C 0.4443 0.27815 0.35029 0.0
C2406 C 0.41186 0.29255 0.32629 0.0
C2407 C 0.3996 0.27159 0.32797 0.0
C2408 C 0.40986 0.25412 0.34172 0.0
C2409 C 0.43182 0.25741 0.35284 0.0
C2410 C 0.33595 0.25248 0.31332 0.0
C2411 C 0.33143 0.26496 0.29285 0.0
C2412 C 0.35802 0.25423 0.32449 0.0
C2413 C 0.37639 0.26832 0.31539 0.0
C2414 C 0.37206 0.27995 0.29429 0.0
C2415 C 0.34992 0.2785 0.2834 0.0
H2416 H 0.43359 0.56011 0.30194 0.0
H2417 H 0.49445 0.51462 0.2904 0.0
H2418 H 0.44529 0.56629 0.34193 0.0
H2419 H 0.50643 0.52124 0.3306 0.0
H2420 H 0.49985 0.5166 0.4113 0.0
H2421 H 0.49078 0.51142 0.37021 0.0
H2422 H 0.47658 0.58418 0.36433 0.0
H2423 H 0.48472 0.58921 0.40555 0.0
C2424 C 0.44963 0.55159 0.30786 0.0
C2425 C 0.46305 0.53677 0.29301 0.0
C2426 C 0.4564 0.55527 0.33076 0.0
C2427 C 0.47674 0.54422 0.33938 0.0
C2428 C 0.4905 0.52977 0.32445 0.0
C2429 C 0.48374 0.52612 0.30142 0.0
C2430 C 0.49453 0.53143 0.4013 0.0
C2431 C 0.49286 0.5533 0.41171 0.0
C2432 C 0.4897 0.52852 0.3777 0.0
C2433 C 0.48304 0.54741 0.36408 0.0
C2434 C 0.4815 0.56928 0.37445 0.0
C2435 C 0.48634 0.57219 0.39801 0.0
H2436 H 0.26881 0.65778 0.1124 0.0
H2437 H 0.30101 0.71113 0.07014 0.0
H2438 H 0.2624 0.68508 0.1443 0.0
H2439 H 0.29487 0.73842 0.10257 0.0
H2440 H 0.30303 0.76299 0.18341 0.0
H2441 H 0.31004 0.74046 0.14755 0.0
H2442 H 0.23513 0.72336 0.14728 0.0
H2443 H 0.22812 0.74604 0.18294 0.0
C2444 C 0.27483 0.67524 0.11001 0.0
C2445 C 0.2854 0.68232 0.08874 0.0
C2446 C 0.27093 0.69088 0.1282 0.0
C2447 C 0.27786 0.7138 0.12563 0.0
C2448 C 0.28928 0.7208 0.10478 0.0
C2449 C 0.29281 0.70521 0.08634 0.0
C2450 C 0.28805 0.75475 0.17535 0.0
C2451 C 0.26508 0.75608 0.18587 0.0
C2452 C 0.29203 0.74201 0.1549 0.0
C2453 C 0.27314 0.73012 0.14495 0.0
C2454 C 0.24996 0.73234 0.15482 0.0
C2455 C 0.24592 0.7454 0.17503 0.0
H2456 H 0.05238 0.53083 0.84071 0.0
H2457 H 0.12347 0.50684 0.85706 0.0
H2458 H 0.03925 0.52396 0.88095 0.0
H2459 H 0.11013 0.49984 0.89728 0.0
H2460 H 0.01569 0.48614 0.94435 0.0
H2461 H 0.03359 0.48814 0.90524 0.0
H2462 H 0.09479 0.52278 0.93263 0.0
H2463 H 0.07698 0.5207 0.97198 0.0
C2464 C 0.06523 0.52427 0.8529 0.0
C2465 C 0.08889 0.51925 0.8457 0.0
C2466 C 0.05766 0.52011 0.87584 0.0
C2467 C 0.07364 0.511 0.89198 0.0
C2468 C 0.09751 0.50678 0.88508 0.0
C2469 C 0.10506 0.51079 0.86209 0.0
C2470 C 0.03323 0.49369 0.94214 0.0
C2471 C 0.04478 0.50363 0.9611 0.0
C2472 C 0.04335 0.49498 0.91976 0.0
C2473 C 0.06519 0.50614 0.91599 0.0
C2474 C 0.07783 0.51419 0.93517 0.0
C2475 C 0.06767 0.51293 0.95765 0.0
H2476 H 0.25899 0.3275 0.58231 0.0
H2477 H 0.28318 0.39185 0.61014 0.0
H2478 H 0.26157 0.31023 0.62106 0.0
H2479 H 0.2856 0.37471 0.64886 0.0
H2480 H 0.30756 0.33115 0.71218 0.0
H2481 H 0.30698 0.34754 0.67285 0.0
H2482 H 0.24216 0.31081 0.65928 0.0
H2483 H 0.24284 0.29439 0.69832 0.0
C2484 C 0.26494 0.33799 0.59664 0.0
C2485 C 0.27086 0.36115 0.59289 0.0
C2486 C 0.26628 0.3281 0.61902 0.0
C2487 C 0.27376 0.34097 0.63841 0.0
C2488 C 0.28003 0.36405 0.63451 0.0
C2489 C 0.27851 0.37397 0.6122 0.0
C2490 C 0.29322 0.3265 0.70079 0.0
C2491 C 0.27529 0.31133 0.70863 0.0
C2492 C 0.29279 0.33604 0.67818 0.0
C2493 C 0.27453 0.33058 0.66257 0.0
C2494 C 0.25673 0.31527 0.67045 0.0
C2495 C 0.25706 0.3059 0.69305 0.0
H2496 H 0.462 0.55108 0.16498 0.0
H2497 H 0.39229 0.5261 0.14701 0.0
H2498 H 0.47403 0.55113 0.12388 0.0
H2499 H 0.40437 0.52639 0.10564 0.0
H2500 H 0.48306 0.56839 0.04894 0.0
H2501 H 0.46441 0.57175 0.08764 0.0
H2502 H 0.43378 0.50447 0.07986 0.0
H2503 H 0.45221 0.50117 0.04076 0.0
C2504 C 0.4492 0.54575 0.15223 0.0
C2505 C 0.42625 0.53854 0.15917 0.0
C2506 C 0.45602 0.54594 0.12868 0.0
C2507 C 0.44005 0.53889 0.11161 0.0
C2508 C 0.41703 0.5318 0.1185 0.0
C2509 C 0.41013 0.53172 0.14212 0.0
C2510 C 0.4721 0.55441 0.05533 0.0
C2511 C 0.46941 0.53433 0.04203 0.0
C2512 C 0.46149 0.55633 0.0775 0.0
C2513 C 0.44803 0.53821 0.08684 0.0
C2514 C 0.44404 0.51871 0.07301 0.0
C2515 C 0.45465 0.51679 0.0507 0.0
H2516 H 0.26439 0.66404 0.92809 0.0
H2517 H 0.30458 0.71854 0.95929 0.0
H2518 H 0.26773 0.68279 0.89037 0.0
H2519 H 0.30925 0.73678 0.92123 0.0
H2520 H 0.28982 0.71146 0.8214 0.0
H2521 H 0.29331 0.69197 0.85881 0.0
H2522 H 0.28694 0.75741 0.89461 0.0
H2523 H 0.28489 0.77675 0.85744 0.0
C2524 C 0.27414 0.67997 0.92677 0.0
C2525 C 0.28404 0.69001 0.94655 0.0
C2526 C 0.27633 0.69059 0.90509 0.0
C2527 C 0.28889 0.71126 0.90266 0.0
C2528 C 0.29912 0.72108 0.92251 0.0
C2529 C 0.29648 0.71067 0.94431 0.0
C2530 C 0.28963 0.72162 0.8373 0.0
C2531 C 0.28699 0.74556 0.83654 0.0
C2532 C 0.29141 0.71048 0.85874 0.0
C2533 C 0.2901 0.72308 0.87978 0.0
C2534 C 0.28838 0.74713 0.87883 0.0
C2535 C 0.28705 0.75824 0.85745 0.0
H2536 H 0.07123 0.48151 0.73206 0.0
H2537 H 0.13481 0.50399 0.6945 0.0
H2538 H 0.04734 0.49005 0.69802 0.0
H2539 H 0.1108 0.51269 0.66058 0.0
H2540 H 0.05398 0.55751 0.62415 0.0
H2541 H 0.0776 0.54441 0.65695 0.0
H2542 H 0.04347 0.47834 0.65421 0.0
H2543 H 0.01984 0.49151 0.62135 0.0
C2544 C 0.08013 0.48784 0.71637 0.0
C2545 C 0.10478 0.49229 0.71592 0.0
C2546 C 0.06649 0.4927 0.69697 0.0
C2547 C 0.07729 0.50233 0.67698 0.0
C2548 C 0.10213 0.50557 0.67602 0.0
C2549 C 0.11584 0.50041 0.69531 0.0
C2550 C 0.05128 0.54036 0.63085 0.0
C2551 C 0.03516 0.52548 0.62038 0.0
C2552 C 0.06498 0.53277 0.64931 0.0
C2553 C 0.06249 0.51031 0.65774 0.0
C2554 C 0.04571 0.4957 0.64787 0.0
C2555 C 0.03226 0.5032 0.62919 0.0
H2556 H 0.24672 0.33605 0.45798 0.0
H2557 H 0.27843 0.39262 0.42066 0.0
H2558 H 0.24403 0.31466 0.42121 0.0
H2559 H 0.27725 0.37115 0.38441 0.0
H2560 H 0.2534 0.33937 0.3174 0.0
H2561 H 0.25454 0.35927 0.35479 0.0
H2562 H 0.25989 0.29404 0.39011 0.0
H2563 H 0.25724 0.2743 0.3527 0.0
C2564 C 0.25365 0.34371 0.44202 0.0
C2565 C 0.26273 0.36613 0.4424 0.0
C2566 C 0.25212 0.33143 0.42074 0.0
C2567 C 0.26001 0.34106 0.39922 0.0
C2568 C 0.2701 0.36313 0.40007 0.0
C2569 C 0.27114 0.37547 0.42111 0.0
C2570 C 0.25456 0.32927 0.33317 0.0
C2571 C 0.2551 0.30516 0.33184 0.0
C2572 C 0.25555 0.34072 0.35483 0.0
C2573 C 0.2577 0.32854 0.37603 0.0
C2574 C 0.25795 0.30433 0.37459 0.0
C2575 C 0.2565 0.29288 0.35294 0.0
H2576 H 0.32042 0.4807 0.49411 0.0
H2577 H 0.34578 0.42181 0.53208 0.0
H2578 H 0.35852 0.49922 0.49849 0.0
H2579 H 0.38477 0.44027 0.53586 0.0
H2580 H 0.4464 0.4888 0.55495 0.0
H2581 H 0.40735 0.47038 0.55331 0.0
H2582 H 0.39795 0.49832 0.48437 0.0
H2583 H 0.43636 0.51718 0.48638 0.0
C2584 C 0.33422 0.47151 0.50328 0.0
C2585 C 0.32985 0.44953 0.51257 0.0
C2586 C 0.35633 0.48219 0.50568 0.0
C2587 C 0.37516 0.47129 0.51727 0.0
C2588 C 0.37077 0.4494 0.52694 0.0
C2589 C 0.3484 0.43869 0.52466 0.0
C2590 C 0.43584 0.49126 0.53957 0.0
C2591 C 0.44457 0.50477 0.52091 0.0
C2592 C 0.41347 0.48043 0.53851 0.0
C2593 C 0.39917 0.48275 0.51873 0.0
C2594 C 0.40799 0.49637 0.50016 0.0
C2595 C 0.43021 0.50723 0.50126 0.0
H2596 H 0.84551 0.0685 0.52148 0.0
H2597 H 0.85663 0.13355 0.48695 0.0
H2598 H 0.88309 0.05418 0.50469 0.0
H2599 H 0.89448 0.11901 0.46999 0.0
H2600 H 0.97298 0.09062 0.4898 0.0
H2601 H 0.93349 0.10837 0.48852 0.0
H2602 H 0.90385 0.04382 0.46674 0.0
H2603 H 0.94329 0.02588 0.4684 0.0
C2604 C 0.85591 0.0797 0.51019 0.0
C2605 C 0.84822 0.10221 0.50574 0.0
C2606 C 0.87727 0.07138 0.50026 0.0
C2607 C 0.8915 0.08541 0.48575 0.0
C2608 C 0.88374 0.10784 0.481 0.0
C2609 C 0.86217 0.11614 0.4908 0.0
C2610 C 0.95826 0.08045 0.48373 0.0
C2611 C 0.96098 0.05671 0.47998 0.0
C2612 C 0.93561 0.09065 0.48297 0.0
C2613 C 0.91558 0.07722 0.47827 0.0
C2614 C 0.91899 0.05435 0.47099 0.0
C2615 C 0.94157 0.04413 0.47186 0.0
H2616 H 0.68988 0.06664 0.2676 0.0
H2617 H 0.62722 0.10779 0.25301 0.0
H2618 H 0.71501 0.10006 0.26134 0.0
H2619 H 0.65249 0.14109 0.2465 0.0
H2620 H 0.70384 0.1981 0.27197 0.0
H2621 H 0.67697 0.16564 0.27179 0.0
H2622 H 0.72867 0.12675 0.23 0.0
H2623 H 0.7556 0.15944 0.22994 0.0
C2624 C 0.68148 0.08276 0.26294 0.0
C2625 C 0.65654 0.08459 0.26097 0.0
C2626 C 0.6959 0.10184 0.25915 0.0
C2627 C 0.68567 0.12312 0.25338 0.0
C2628 C 0.6608 0.12491 0.2511 0.0
C2629 C 0.64637 0.10582 0.25479 0.0
C2630 C 0.70929 0.1829 0.26223 0.0
C2631 C 0.73198 0.1813 0.25112 0.0
C2632 C 0.69388 0.16425 0.26218 0.0
C2633 C 0.70085 0.14363 0.25107 0.0
C2634 C 0.72305 0.14235 0.23904 0.0
C2635 C 0.73844 0.16103 0.23902 0.0
H2636 H 0.6698 0.9026 0.03779 0.0
H2637 H 0.70292 0.9609 0.0044 0.0
H2638 H 0.63061 0.92195 0.0361 0.0
H2639 H 0.66366 0.97979 0.00197 0.0
H2640 H 0.58268 0.98589 0.97682 0.0
H2641 H 0.62203 0.96729 0.9797 0.0
H2642 H 0.61229 0.96359 0.05451 0.0
H2643 H 0.57322 0.983 0.05179 0.0
C2644 C 0.66871 0.91947 0.03 0.0
C2645 C 0.68951 0.9302 0.02126 0.0
C2646 C 0.6463 0.93057 0.02913 0.0
C2647 C 0.64408 0.95238 0.0189 0.0
C2648 C 0.66482 0.96298 0.00991 0.0
C2649 C 0.68729 0.95218 0.01137 0.0
C2650 C 0.58895 0.98122 -0.0061 0.0
C2651 C 0.57481 0.98602 0.01408 0.0
C2652 C 0.6115 0.97061 -0.00447 0.0
C2653 C 0.62021 0.96394 0.01731 0.0
C2654 C 0.606 0.96847 0.03749 0.0
C2655 C 0.5837 0.97967 0.03593 0.0
H2656 H 0.41113 0.43823 0.21662 0.0
H2657 H 0.35907 0.47613 0.25916 0.0
H2658 H 0.3856 0.40457 0.21842 0.0
H2659 H 0.33361 0.44244 0.26081 0.0
H2660 H 0.31761 0.36446 0.19988 0.0
H2661 H 0.34513 0.39661 0.2014 0.0
H2662 H 0.33303 0.4016 0.27607 0.0
H2663 H 0.30516 0.36959 0.27448 0.0
C2664 C 0.3944 0.43931 0.22657 0.0
C2665 C 0.38701 0.45988 0.23759 0.0
C2666 C 0.37976 0.4201 0.22746 0.0
C2667 C 0.35762 0.42106 0.23958 0.0
C2668 C 0.35067 0.44127 0.25144 0.0
C2669 C 0.3652 0.46056 0.25038 0.0
C2670 C 0.32069 0.37256 0.21656 0.0
C2671 C 0.30924 0.36464 0.23705 0.0
C2672 C 0.33663 0.39072 0.21748 0.0
C2673 C 0.34125 0.40141 0.23888 0.0
C2674 C 0.3297 0.39363 0.25936 0.0
C2675 C 0.31391 0.3753 0.25847 0.0
H2676 H 0.19362 0.65128 0.02961 0.0
H2677 H 0.23017 0.58572 0.02269 0.0
H2678 H 0.15626 0.63162 0.03884 0.0
H2679 H 0.19276 0.56613 0.03163 0.0
H2680 H 0.12651 0.5401 0.07111 0.0
H2681 H 0.1638 0.56102 0.065 0.0
H2682 H 0.12838 0.60684 0.01756 0.0
H2683 H 0.09108 0.58638 0.02417 0.0
C2684 C 0.19366 0.63269 0.03002 0.0
C2685 C 0.21476 0.62001 0.02537 0.0
C2686 C 0.17229 0.62147 0.03524 0.0
C2687 C 0.17169 0.59739 0.03597 0.0
C2688 C 0.19281 0.58472 0.03147 0.0
C2689 C 0.21416 0.59593 0.02617 0.0
C2690 C 0.12668 0.55481 0.05964 0.0
C2691 C 0.10599 0.56154 0.04799 0.0
C2692 C 0.14802 0.56663 0.05597 0.0
C2693 C 0.14894 0.58546 0.04074 0.0
C2694 C 0.12812 0.59248 0.02952 0.0
C2695 C 0.10686 0.58062 0.0331 0.0
H2696 H 0.70299 0.96338 0.30591 0.0
H2697 H 0.64131 0.92583 0.28392 0.0
H2698 H 0.72452 0.92728 0.31164 0.0
H2699 H 0.66308 0.89001 0.28787 0.0
H2700 H 0.70195 0.82602 0.30352 0.0
H2701 H 0.68015 0.86201 0.3104 0.0
H2702 H 0.74317 0.8997 0.28854 0.0
H2703 H 0.76511 0.86395 0.28345 0.0
C2704 C 0.69412 0.94737 0.30227 0.0
C2705 C 0.67065 0.94729 0.29433 0.0
C2706 C 0.70643 0.92669 0.30542 0.0
C2707 C 0.69568 0.90563 0.3 0.0
C2708 C 0.67188 0.90573 0.2927 0.0
C2709 C 0.65942 0.92632 0.29017 0.0
C2710 C 0.7111 0.84209 0.30061 0.0
C2711 C 0.73507 0.84231 0.29283 0.0
C2712 C 0.69864 0.86272 0.30439 0.0
C2713 C 0.70975 0.88387 0.29976 0.0
C2714 C 0.73404 0.8839 0.29273 0.0
C2715 C 0.74662 0.86335 0.28958 0.0
H2716 H 0.81509 0.10173 0.7441 0.0
H2717 H 0.8448 0.09241 0.81215 0.0
H2718 H 0.79548 0.13687 0.75734 0.0
H2719 H 0.82333 0.12652 0.82642 0.0
H2720 H 0.8311 0.20493 0.82326 0.0
H2721 H 0.834 0.1637 0.82065 0.0
H2722 H 0.77157 0.16268 0.77747 0.0
H2723 H 0.76993 0.20452 0.77885 0.0
C2724 C 0.8164 0.1067 0.76228 0.0
C2725 C 0.83183 0.09492 0.777 0.0
C2726 C 0.80501 0.12684 0.77002 0.0
C2727 C 0.80846 0.13512 0.79283 0.0
C2728 C 0.82115 0.12127 0.80845 0.0
C2729 C 0.83325 0.10161 0.80042 0.0
C2730 C 0.81778 0.19586 0.8135 0.0
C2731 C 0.80068 0.20786 0.80079 0.0
C2732 C 0.81919 0.17205 0.81221 0.0
C2733 C 0.80317 0.15961 0.79857 0.0
C2734 C 0.78465 0.17164 0.78759 0.0
C2735 C 0.78363 0.19559 0.78841 0.0
loop_
_geom_bond_atom_site_label_1
_geom_bond_atom_site_label_2
_geom_bond_distance
_geom_bond_site_symmetry_2
_ccdc_geom_bond_type
C0 O1 1.306 . S
C0 O3 1.160 . S
O1 C0 1.306 . S
O1 Cd2 2.228 1_655 S
Cd2 O1 2.228 1_455 S
Cd2 O6 2.273 . S
Cd2 O10 2.277 . S
O3 C0 1.160 . S
O3 Cd4 2.203 1_655 S
Cd4 O3 2.203 1_455 S
Cd4 O6 2.411 . S
Cd4 O7 2.333 . S
Cd4 O8 2.352 . S
Cd4 O12 2.277 . S
Cd4 O13 2.356 . S
C5 O10 1.209 . S
C5 O12 1.226 . S
O6 Cd2 2.273 . S
O6 Cd4 2.411 . S
O6 C9 1.320 . S
O7 Cd4 2.333 . S
O7 C9 1.214 . S
O8 Cd4 2.352 . S
O8 C11 1.258 . S
C9 O6 1.320 . S
C9 O7 1.214 . S
O10 Cd2 2.277 . S
O10 C5 1.209 . S
C11 O8 1.258 . S
C11 O13 1.282 . S
O12 Cd4 2.277 . S
O12 C5 1.226 . S
O13 Cd4 2.356 . S
O13 C11 1.282 . S
C14 O15 1.306 . S
C14 O17 1.160 . S
O15 C14 1.306 . S
O15 Cd16 2.228 . S
Cd16 O15 2.228 . S
Cd16 O20 2.273 . S
Cd16 O24 2.277 . S
O17 C14 1.160 . S
O17 Cd18 2.203 . S
Cd18 O17 2.203 . S
Cd18 O20 2.411 . S
Cd18 O21 2.333 . S
Cd18 O22 2.352 . S
Cd18 O26 2.277 . S
Cd18 O27 2.356 . S
C19 O24 1.209 . S
C19 O26 1.226 . S
O20 Cd16 2.273 . S
O20 Cd18 2.411 . S
O20 C23 1.320 . S
O21 Cd18 2.333 . S
O21 C23 1.214 . S
O22 Cd18 2.352 . S
O22 C25 1.258 . S
C23 O20 1.320 . S
C23 O21 1.214 . S
O24 Cd16 2.277 . S
O24 C19 1.209 . S
C25 O22 1.258 . S
C25 O27 1.282 . S
O26 Cd18 2.277 . S
O26 C19 1.226 . S
O27 Cd18 2.356 . S
O27 C25 1.282 . S
C28 O29 1.306 . S
C28 O31 1.160 . S
O29 C28 1.306 . S
O29 Cd30 2.228 . S
Cd30 O29 2.228 . S
Cd30 O34 2.273 . S
Cd30 O38 2.277 . S
O31 C28 1.160 . S
O31 Cd32 2.203 . S
Cd32 O31 2.203 . S
Cd32 O34 2.411 . S
Cd32 O35 2.333 . S
Cd32 O36 2.352 . S
Cd32 O40 2.277 . S
Cd32 O41 2.356 . S
C33 O38 1.209 . S
C33 O40 1.226 . S
O34 Cd30 2.273 . S
O34 Cd32 2.411 . S
O34 C37 1.320 . S
O35 Cd32 2.333 . S
O35 C37 1.214 . S
O36 Cd32 2.352 . S
O36 C39 1.258 . S
C37 O34 1.320 . S
C37 O35 1.214 . S
O38 Cd30 2.277 . S
O38 C33 1.209 . S
C39 O36 1.258 . S
C39 O41 1.282 . S
O40 Cd32 2.277 . S
O40 C33 1.226 . S
O41 Cd32 2.356 . S
O41 C39 1.282 . S
C42 O43 1.306 . S
C42 O45 1.160 . S
O43 C42 1.306 . S
O43 Cd44 2.228 . S
Cd44 O43 2.228 . S
Cd44 O48 2.273 . S
Cd44 O52 2.277 . S
O45 C42 1.160 . S
O45 Cd46 2.203 . S
Cd46 O45 2.203 . S
Cd46 O48 2.411 . S
Cd46 O49 2.333 . S
Cd46 O50 2.352 . S
Cd46 O54 2.277 . S
Cd46 O55 2.356 . S
C47 O52 1.209 . S
C47 O54 1.226 . S
O48 Cd44 2.273 . S
O48 Cd46 2.411 . S
O48 C51 1.320 . S
O49 Cd46 2.333 . S
O49 C51 1.214 . S
O50 Cd46 2.352 . S
O50 C53 1.258 . S
C51 O48 1.320 . S
C51 O49 1.214 . S
O52 Cd44 2.277 . S
O52 C47 1.209 . S
C53 O50 1.258 . S
C53 O55 1.282 . S
O54 Cd46 2.277 . S
O54 C47 1.226 . S
O55 Cd46 2.356 . S
O55 C53 1.282 . S
C56 O57 1.306 . S
C56 O59 1.160 . S
O57 C56 1.306 . S
O57 Cd58 2.228 . S
Cd58 O57 2.228 . S
Cd58 O62 2.273 . S
Cd58 O66 2.277 . S
O59 C56 1.160 . S
O59 Cd60 2.203 . S
Cd60 O59 2.203 . S
Cd60 O62 2.411 . S
Cd60 O63 2.333 . S
Cd60 O64 2.352 1_545 S
Cd60 O68 2.277 . S
Cd60 O69 2.356 1_545 S
C61 O66 1.209 . S
C61 O68 1.226 . S
O62 Cd58 2.273 . S
O62 Cd60 2.411 . S
O62 C65 1.320 . S
O63 Cd60 2.333 . S
O63 C65 1.214 . S
O64 Cd60 2.352 1_565 S
O64 C67 1.258 . S
C65 O62 1.320 . S
C65 O63 1.214 . S
O66 Cd58 2.277 . S
O66 C61 1.209 . S
C67 O64 1.258 . S
C67 O69 1.282 . S
O68 Cd60 2.277 . S
O68 C61 1.226 . S
O69 Cd60 2.356 1_565 S
O69 C67 1.282 . S
C70 O71 1.306 . S
C70 O73 1.160 . S
O71 C70 1.306 . S
O71 Cd72 2.228 . S
Cd72 O71 2.228 . S
Cd72 O76 2.273 . S
Cd72 O80 2.277 . S
O73 C70 1.160 . S
O73 Cd74 2.203 . S
Cd74 O73 2.203 . S
Cd74 O76 2.411 . S
Cd74 O77 2.333 . S
Cd74 O78 2.352 . S
Cd74 O82 2.277 . S
Cd74 O83 2.356 . S
C75 O80 1.209 . S
C75 O82 1.226 . S
O76 Cd72 2.273 . S
O76 Cd74 2.411 . S
O76 C79 1.320 . S
O77 Cd74 2.333 . S
O77 C79 1.214 . S
O78 Cd74 2.352 . S
O78 C81 1.258 . S
C79 O76 1.320 . S
C79 O77 1.214 . S
O80 Cd72 2.277 . S
O80 C75 1.209 . S
C81 O78 1.258 . S
C81 O83 1.282 . S
O82 Cd74 2.277 . S
O82 C75 1.226 . S
O83 Cd74 2.356 . S
O83 C81 1.282 . S
C84 O85 1.306 . S
C84 O87 1.160 . S
O85 C84 1.306 . S
O85 Cd86 2.228 . S
Cd86 O85 2.228 . S
Cd86 O90 2.273 . S
Cd86 O94 2.277 . S
O87 C84 1.160 . S
O87 Cd88 2.203 . S
Cd88 O87 2.203 . S
Cd88 O90 2.411 . S
Cd88 O91 2.333 . S
Cd88 O92 2.352 . S
Cd88 O96 2.277 . S
Cd88 O97 2.356 . S
C89 O94 1.209 . S
C89 O96 1.226 . S
O90 Cd86 2.273 . S
O90 Cd88 2.411 . S
O90 C93 1.320 . S
O91 Cd88 2.333 . S
O91 C93 1.214 . S
O92 Cd88 2.352 . S
O92 C95 1.258 . S
C93 O90 1.320 . S
C93 O91 1.214 . S
O94 Cd86 2.277 . S
O94 C89 1.209 . S
C95 O92 1.258 . S
C95 O97 1.282 . S
O96 Cd88 2.277 . S
O96 C89 1.226 . S
O97 Cd88 2.356 . S
O97 C95 1.282 . S
C98 O99 1.306 . S
C98 O101 1.160 . S
O99 C98 1.306 . S
O99 Cd100 2.228 . S
Cd100 O99 2.228 . S
Cd100 O104 2.273 . S
Cd100 O108 2.277 . S
O101 C98 1.160 . S
O101 Cd102 2.203 . S
Cd102 O101 2.203 . S
Cd102 O104 2.411 . S
Cd102 O105 2.333 . S
Cd102 O106 2.352 1_554 S
Cd102 O110 2.277 . S
Cd102 O111 2.356 1_554 S
C103 O108 1.209 . S
C103 O110 1.226 . S
O104 Cd100 2.273 . S
O104 Cd102 2.411 . S
O104 C107 1.320 . S
O105 Cd102 2.333 . S
O105 C107 1.214 . S
O106 Cd102 2.352 1_556 S
O106 C109 1.258 . S
C107 O104 1.320 . S
C107 O105 1.214 . S
O108 Cd100 2.277 . S
O108 C103 1.209 . S
C109 O106 1.258 . S
C109 O111 1.282 . S
O110 Cd102 2.277 . S
O110 C103 1.226 . S
O111 Cd102 2.356 1_556 S
O111 C109 1.282 . S
C112 O113 1.306 . S
C112 O115 1.160 . S
O113 C112 1.306 . S
O113 Cd114 2.228 . S
Cd114 O113 2.228 . S
Cd114 O118 2.273 . S
Cd114 O122 2.277 . S
O115 C112 1.160 . S
O115 Cd116 2.203 . S
Cd116 O115 2.203 . S
Cd116 O118 2.411 . S
Cd116 O119 2.333 . S
Cd116 O120 2.352 . S
Cd116 O124 2.277 . S
Cd116 O125 2.356 . S
C117 O122 1.209 . S
C117 O124 1.226 . S
O118 Cd114 2.273 . S
O118 Cd116 2.411 . S
O118 C121 1.320 . S
O119 Cd116 2.333 . S
O119 C121 1.214 . S
O120 Cd116 2.352 . S
O120 C123 1.258 . S
C121 O118 1.320 . S
C121 O119 1.214 . S
O122 Cd114 2.277 . S
O122 C117 1.209 . S
C123 O120 1.258 . S
C123 O125 1.282 . S
O124 Cd116 2.277 . S
O124 C117 1.226 . S
O125 Cd116 2.356 . S
O125 C123 1.282 . S
C126 O127 1.306 . S
C126 O129 1.160 . S
O127 C126 1.306 . S
O127 Cd128 2.228 . S
Cd128 O127 2.228 . S
Cd128 O132 2.273 . S
Cd128 O136 2.277 . S
O129 C126 1.160 . S
O129 Cd130 2.203 . S
Cd130 O129 2.203 . S
Cd130 O132 2.411 . S
Cd130 O133 2.333 . S
Cd130 O134 2.352 . S
Cd130 O138 2.277 . S
Cd130 O139 2.356 . S
C131 O136 1.209 . S
C131 O138 1.226 . S
O132 Cd128 2.273 . S
O132 Cd130 2.411 . S
O132 C135 1.320 . S
O133 Cd130 2.333 . S
O133 C135 1.214 . S
O134 Cd130 2.352 . S
O134 C137 1.258 . S
C135 O132 1.320 . S
C135 O133 1.214 . S
O136 Cd128 2.277 . S
O136 C131 1.209 . S
C137 O134 1.258 . S
C137 O139 1.282 . S
O138 Cd130 2.277 . S
O138 C131 1.226 . S
O139 Cd130 2.356 . S
O139 C137 1.282 . S
C140 O141 1.306 . S
C140 O143 1.160 . S
O141 C140 1.306 . S
O141 Cd142 2.228 . S
Cd142 O141 2.228 . S
Cd142 O146 2.273 . S
Cd142 O150 2.277 . S
O143 C140 1.160 . S
O143 Cd144 2.203 . S
Cd144 O143 2.203 . S
Cd144 O146 2.411 . S
Cd144 O147 2.333 . S
Cd144 O148 2.352 . S
Cd144 O152 2.277 . S
Cd144 O153 2.356 . S
C145 O150 1.209 . S
C145 O152 1.226 . S
O146 Cd142 2.273 . S
O146 Cd144 2.411 . S
O146 C149 1.320 . S
O147 Cd144 2.333 . S
O147 C149 1.214 . S
O148 Cd144 2.352 . S
O148 C151 1.258 . S
C149 O146 1.320 . S
C149 O147 1.214 . S
O150 Cd142 2.277 . S
O150 C145 1.209 . S
C151 O148 1.258 . S
C151 O153 1.282 . S
O152 Cd144 2.277 . S
O152 C145 1.226 . S
O153 Cd144 2.356 . S
O153 C151 1.282 . S
C154 O155 1.306 . S
C154 O157 1.160 . S
O155 C154 1.306 . S
O155 Cd156 2.228 . S
Cd156 O155 2.228 . S
Cd156 O160 2.273 . S
Cd156 O164 2.277 . S
O157 C154 1.160 . S
O157 Cd158 2.203 . S
Cd158 O157 2.203 . S
Cd158 O160 2.411 . S
Cd158 O161 2.333 . S
Cd158 O162 2.352 . S
Cd158 O166 2.277 . S
Cd158 O167 2.356 . S
C159 O164 1.209 . S
C159 O166 1.226 . S
O160 Cd156 2.273 . S
O160 Cd158 2.411 . S
O160 C163 1.320 . S
O161 Cd158 2.333 . S
O161 C163 1.214 . S
O162 Cd158 2.352 . S
O162 C165 1.258 . S
C163 O160 1.320 . S
C163 O161 1.214 . S
O164 Cd156 2.277 . S
O164 C159 1.209 . S
C165 O162 1.258 . S
C165 O167 1.282 . S
O166 Cd158 2.277 . S
O166 C159 1.226 . S
O167 Cd158 2.356 . S
O167 C165 1.282 . S
C168 O169 1.306 . S
C168 O171 1.160 . S
O169 C168 1.306 . S
O169 Cd170 2.228 1_655 S
Cd170 O169 2.228 1_455 S
Cd170 O174 2.273 . S
Cd170 O178 2.277 . S
O171 C168 1.160 . S
O171 Cd172 2.203 1_655 S
Cd172 O171 2.203 1_455 S
Cd172 O174 2.411 . S
Cd172 O175 2.333 . S
Cd172 O176 2.352 . S
Cd172 O180 2.277 . S
Cd172 O181 2.356 . S
C173 O178 1.209 . S
C173 O180 1.226 . S
O174 Cd170 2.273 . S
O174 Cd172 2.411 . S
O174 C177 1.320 . S
O175 Cd172 2.333 . S
O175 C177 1.214 . S
O176 Cd172 2.352 . S
O176 C179 1.258 . S
C177 O174 1.320 . S
C177 O175 1.214 . S
O178 Cd170 2.277 . S
O178 C173 1.209 . S
C179 O176 1.258 . S
C179 O181 1.282 . S
O180 Cd172 2.277 . S
O180 C173 1.226 . S
O181 Cd172 2.356 . S
O181 C179 1.282 . S
C182 O183 1.306 . S
C182 O185 1.160 . S
O183 C182 1.306 . S
O183 Cd184 2.228 1_655 S
Cd184 O183 2.228 1_455 S
Cd184 O188 2.273 . S
Cd184 O192 2.277 . S
O185 C182 1.160 . S
O185 Cd186 2.203 1_655 S
Cd186 O185 2.203 1_455 S
Cd186 O188 2.411 . S
Cd186 O189 2.333 . S
Cd186 O190 2.351 1_455 S
Cd186 O194 2.277 1_455 S
Cd186 O195 2.356 . S
C187 O192 1.215 . S
C187 O194 1.225 1_455 S
O188 Cd184 2.273 . S
O188 Cd186 2.411 . S
O188 C191 1.320 . S
O189 Cd186 2.333 . S
O189 C191 1.214 . S
O190 Cd186 2.351 1_655 S
O190 C193 1.255 1_655 S
C191 O188 1.320 . S
C191 O189 1.214 . S
O192 Cd184 2.277 . S
O192 C187 1.215 . S
C193 O190 1.255 1_455 S
C193 O195 1.282 . S
O194 Cd186 2.277 1_655 S
O194 C187 1.225 1_655 S
O195 Cd186 2.356 . S
O195 C193 1.282 . S
C196 O197 1.306 . S
C196 O199 1.160 . S
O197 C196 1.306 . S
O197 Cd198 2.228 . S
Cd198 O197 2.228 . S
Cd198 O202 2.273 . S
Cd198 O206 2.277 . S
O199 C196 1.160 . S
O199 Cd200 2.203 . S
Cd200 O199 2.203 . S
Cd200 O202 2.411 . S
Cd200 O203 2.333 . S
Cd200 O204 2.352 . S
Cd200 O208 2.277 . S
Cd200 O209 2.356 . S
C201 O206 1.209 . S
C201 O208 1.226 . S
O202 Cd198 2.273 . S
O202 Cd200 2.411 . S
O202 C205 1.320 . S
O203 Cd200 2.333 . S
O203 C205 1.214 . S
O204 Cd200 2.352 . S
O204 C207 1.258 . S
C205 O202 1.320 . S
C205 O203 1.214 . S
O206 Cd198 2.277 . S
O206 C201 1.209 . S
C207 O204 1.258 . S
C207 O209 1.282 . S
O208 Cd200 2.277 . S
O208 C201 1.226 . S
O209 Cd200 2.356 . S
O209 C207 1.282 . S
C210 O211 1.306 . S
C210 O213 1.160 . S
O211 C210 1.306 . S
O211 Cd212 2.228 . S
Cd212 O211 2.228 . S
Cd212 O216 2.273 . S
Cd212 O220 2.277 . S
O213 C210 1.160 . S
O213 Cd214 2.203 . S
Cd214 O213 2.203 . S
Cd214 O216 2.411 . S
Cd214 O217 2.333 . S
Cd214 O218 2.352 . S
Cd214 O222 2.277 . S
Cd214 O223 2.356 . S
C215 O220 1.209 . S
C215 O222 1.226 . S
O216 Cd212 2.273 . S
O216 Cd214 2.411 . S
O216 C219 1.320 . S
O217 Cd214 2.333 . S
O217 C219 1.214 . S
O218 Cd214 2.352 . S
O218 C221 1.258 . S
C219 O216 1.320 . S
C219 O217 1.214 . S
O220 Cd212 2.277 . S
O220 C215 1.209 . S
C221 O218 1.258 . S
C221 O223 1.282 . S
O222 Cd214 2.277 . S
O222 C215 1.226 . S
O223 Cd214 2.356 . S
O223 C221 1.282 . S
C224 O225 1.306 . S
C224 O227 1.160 . S
O225 C224 1.306 . S
O225 Cd226 2.228 . S
Cd226 O225 2.228 . S
Cd226 O230 2.273 . S
Cd226 O234 2.277 . S
O227 C224 1.160 . S
O227 Cd228 2.203 . S
Cd228 O227 2.203 . S
Cd228 O230 2.411 . S
Cd228 O231 2.333 . S
Cd228 O232 2.352 . S
Cd228 O236 2.277 . S
Cd228 O237 2.356 . S
C229 O234 1.209 . S
C229 O236 1.226 . S
O230 Cd226 2.273 . S
O230 Cd228 2.411 . S
O230 C233 1.320 . S
O231 Cd228 2.333 . S
O231 C233 1.214 . S
O232 Cd228 2.352 . S
O232 C235 1.258 . S
C233 O230 1.320 . S
C233 O231 1.214 . S
O234 Cd226 2.277 . S
O234 C229 1.209 . S
C235 O232 1.258 . S
C235 O237 1.282 . S
O236 Cd228 2.277 . S
O236 C229 1.226 . S
O237 Cd228 2.356 . S
O237 C235 1.282 . S
C238 O239 1.306 . S
C238 O241 1.160 . S
O239 C238 1.306 . S
O239 Cd240 2.228 . S
Cd240 O239 2.228 . S
Cd240 O244 2.273 . S
Cd240 O248 2.277 . S
O241 C238 1.160 . S
O241 Cd242 2.203 . S
Cd242 O241 2.203 . S
Cd242 O244 2.411 . S
Cd242 O245 2.333 . S
Cd242 O246 2.352 . S
Cd242 O250 2.277 . S
Cd242 O251 2.356 . S
C243 O248 1.209 . S
C243 O250 1.226 . S
O244 Cd240 2.273 . S
O244 Cd242 2.411 . S
O244 C247 1.320 . S
O245 Cd242 2.333 . S
O245 C247 1.214 . S
O246 Cd242 2.352 . S
O246 C249 1.258 . S
C247 O244 1.320 . S
C247 O245 1.214 . S
O248 Cd240 2.277 . S
O248 C243 1.209 . S
C249 O246 1.258 . S
C249 O251 1.282 . S
O250 Cd242 2.277 . S
O250 C243 1.226 . S
O251 Cd242 2.356 . S
O251 C249 1.282 . S
C252 O253 1.306 . S
C252 O255 1.160 . S
O253 C252 1.306 . S
O253 Cd254 2.228 . S
Cd254 O253 2.228 . S
Cd254 O258 2.273 . S
Cd254 O262 2.277 . S
O255 C252 1.160 . S
O255 Cd256 2.203 . S
Cd256 O255 2.203 . S
Cd256 O258 2.411 . S
Cd256 O259 2.333 . S
Cd256 O260 2.352 1_545 S
Cd256 O264 2.277 . S
Cd256 O265 2.356 1_545 S
C257 O262 1.209 . S
C257 O264 1.226 . S
O258 Cd254 2.273 . S
O258 Cd256 2.411 . S
O258 C261 1.320 . S
O259 Cd256 2.333 . S
O259 C261 1.214 . S
O260 Cd256 2.352 1_565 S
O260 C263 1.258 . S
C261 O258 1.320 . S
C261 O259 1.214 . S
O262 Cd254 2.277 . S
O262 C257 1.209 . S
C263 O260 1.258 . S
C263 O265 1.282 . S
O264 Cd256 2.277 . S
O264 C257 1.226 . S
O265 Cd256 2.356 1_565 S
O265 C263 1.282 . S
C266 O267 1.306 . S
C266 O269 1.160 . S
O267 C266 1.306 . S
O267 Cd268 2.228 1_554 S
Cd268 O267 2.228 1_556 S
Cd268 O272 2.273 1_556 S
Cd268 O276 2.277 . S
O269 C266 1.160 . S
O269 Cd270 2.203 . S
Cd270 O269 2.203 . S
Cd270 O272 2.411 . S
Cd270 O273 2.333 . S
Cd270 O274 2.352 . S
Cd270 O278 2.277 1_554 S
Cd270 O279 2.356 . S
C271 O276 1.209 . S
C271 O278 1.226 . S
O272 Cd268 2.273 1_554 S
O272 Cd270 2.411 . S
O272 C275 1.320 . S
O273 Cd270 2.333 . S
O273 C275 1.214 . S
O274 Cd270 2.352 . S
O274 C277 1.258 . S
C275 O272 1.320 . S
C275 O273 1.214 . S
O276 Cd268 2.277 . S
O276 C271 1.209 . S
C277 O274 1.258 . S
C277 O279 1.282 . S
O278 Cd270 2.277 1_556 S
O278 C271 1.226 . S
O279 Cd270 2.356 . S
O279 C277 1.282 . S
C280 O281 1.306 . S
C280 O283 1.160 1_554 S
O281 C280 1.306 . S
O281 Cd282 2.228 . S
Cd282 O281 2.228 . S
Cd282 O286 2.273 . S
Cd282 O290 2.277 . S
O283 C280 1.160 1_556 S
O283 Cd284 2.203 . S
Cd284 O283 2.203 . S
Cd284 O286 2.411 1_556 S
Cd284 O287 2.333 . S
Cd284 O288 2.352 . S
Cd284 O292 2.277 1_556 S
Cd284 O293 2.356 . S
C285 O290 1.209 . S
C285 O292 1.226 . S
O286 Cd282 2.273 . S
O286 Cd284 2.411 1_554 S
O286 C289 1.323 . S
O287 Cd284 2.333 . S
O287 C289 1.210 1_556 S
O288 Cd284 2.352 . S
O288 C291 1.258 . S
C289 O286 1.323 . S
C289 O287 1.210 1_554 S
O290 Cd282 2.277 . S
O290 C285 1.209 . S
C291 O288 1.258 . S
C291 O293 1.282 . S
O292 Cd284 2.277 1_554 S
O292 C285 1.226 . S
O293 Cd284 2.356 . S
O293 C291 1.282 . S
C294 O295 1.306 . S
C294 O297 1.160 . S
O295 C294 1.306 . S
O295 Cd296 2.228 . S
Cd296 O295 2.228 . S
Cd296 O300 2.273 . S
Cd296 O304 2.277 . S
O297 C294 1.160 . S
O297 Cd298 2.203 . S
Cd298 O297 2.203 . S
Cd298 O300 2.411 . S
Cd298 O301 2.333 . S
Cd298 O302 2.352 . S
Cd298 O306 2.277 . S
Cd298 O307 2.356 . S
C299 O304 1.209 . S
C299 O306 1.226 . S
O300 Cd296 2.273 . S
O300 Cd298 2.411 . S
O300 C303 1.320 . S
O301 Cd298 2.333 . S
O301 C303 1.214 . S
O302 Cd298 2.352 . S
O302 C305 1.258 . S
C303 O300 1.320 . S
C303 O301 1.214 . S
O304 Cd296 2.277 . S
O304 C299 1.209 . S
C305 O302 1.258 . S
C305 O307 1.282 . S
O306 Cd298 2.277 . S
O306 C299 1.226 . S
O307 Cd298 2.356 . S
O307 C305 1.282 . S
C308 O309 1.306 . S
C308 O311 1.160 . S
O309 C308 1.306 . S
O309 Cd310 2.228 . S
Cd310 O309 2.228 . S
Cd310 O314 2.273 . S
Cd310 O318 2.277 . S
O311 C308 1.160 . S
O311 Cd312 2.203 . S
Cd312 O311 2.203 . S
Cd312 O314 2.411 . S
Cd312 O315 2.333 . S
Cd312 O316 2.352 . S
Cd312 O320 2.277 . S
Cd312 O321 2.356 . S
C313 O318 1.209 . S
C313 O320 1.226 . S
O314 Cd310 2.273 . S
O314 Cd312 2.411 . S
O314 C317 1.320 . S
O315 Cd312 2.333 . S
O315 C317 1.214 . S
O316 Cd312 2.352 . S
O316 C319 1.258 . S
C317 O314 1.320 . S
C317 O315 1.214 . S
O318 Cd310 2.277 . S
O318 C313 1.209 . S
C319 O316 1.258 . S
C319 O321 1.282 . S
O320 Cd312 2.277 . S
O320 C313 1.226 . S
O321 Cd312 2.356 . S
O321 C319 1.282 . S
C322 O323 1.306 . S
C322 O325 1.160 . S
O323 C322 1.306 . S
O323 Cd324 2.228 . S
Cd324 O323 2.228 . S
Cd324 O328 2.273 . S
Cd324 O332 2.277 . S
O325 C322 1.160 . S
O325 Cd326 2.203 . S
Cd326 O325 2.203 . S
Cd326 O328 2.411 . S
Cd326 O329 2.333 . S
Cd326 O330 2.352 . S
Cd326 O334 2.277 . S
Cd326 O335 2.356 . S
C327 O332 1.209 . S
C327 O334 1.226 . S
O328 Cd324 2.273 . S
O328 Cd326 2.411 . S
O328 C331 1.320 . S
O329 Cd326 2.333 . S
O329 C331 1.214 . S
O330 Cd326 2.352 . S
O330 C333 1.258 . S
C331 O328 1.320 . S
C331 O329 1.214 . S
O332 Cd324 2.277 . S
O332 C327 1.209 . S
C333 O330 1.258 . S
C333 O335 1.282 . S
O334 Cd326 2.277 . S
O334 C327 1.226 . S
O335 Cd326 2.356 . S
O335 C333 1.282 . S
Co336 N341 2.057 1_554 S
Co336 O353 2.021 1_554 S
Co336 O356 2.062 1_455 S
Co336 O360 2.117 . S
Co336 O361 2.020 . S
C337 O357 1.259 . S
C337 O360 1.258 . S
Co338 N347 2.057 . S
Co338 O354 2.117 1_545 S
Co338 O355 2.020 1_455 S
Co338 O357 2.021 . S
Co338 O362 2.062 . S
C339 N341 1.316 . S
C339 N342 1.347 1_455 S
C339 H344 0.931 . S
C340 N341 1.365 1_655 S
C340 C343 1.366 . S
C340 H345 0.923 1_655 S
N341 Co336 2.057 1_556 S
N341 C339 1.316 . S
N341 C340 1.365 1_455 S
N342 C339 1.347 1_655 S
N342 C343 1.373 . S
C343 C340 1.366 . S
C343 N342 1.373 . S
C343 H364 0.931 . S
H344 C339 0.931 . S
H345 C340 0.923 1_455 S
C346 O353 1.259 1_564 S
C346 O354 1.258 . S
N347 Co338 2.057 . S
N347 C348 1.316 . S
N347 C349 1.375 1_545 S
C348 N347 1.316 . S
C348 N350 1.347 . S
C348 H359 0.931 . S
C349 N347 1.375 1_565 S
C349 C351 1.350 . S
C349 H358 0.930 . S
N350 C348 1.347 . S
N350 C351 1.373 1_545 S
C351 C349 1.350 . S
C351 N350 1.373 1_565 S
C351 H365 0.931 . S
C352 O355 1.256 . S
C352 O356 1.255 . S
O353 Co336 2.021 1_556 S
O353 C346 1.259 1_546 S
O354 Co338 2.117 1_565 S
O354 C346 1.258 . S
O355 Co338 2.020 1_655 S
O355 C352 1.256 . S
O356 Co336 2.062 1_655 S
O356 C352 1.255 . S
O357 C337 1.259 . S
O357 Co338 2.021 . S
H358 C349 0.930 . S
H359 C348 0.931 . S
O360 Co336 2.117 . S
O360 C337 1.258 . S
O361 Co336 2.020 . S
O361 C363 1.256 . S
O362 Co338 2.062 . S
O362 C363 1.255 . S
C363 O361 1.256 . S
C363 O362 1.255 . S
H364 C343 0.931 . S
H365 C351 0.931 . S
Co366 N371 2.057 . S
Co366 O383 2.021 . S
Co366 O386 2.062 . S
Co366 O390 2.117 . S
Co366 O391 2.020 . S
C367 O387 1.259 . S
C367 O390 1.258 . S
Co368 N377 2.057 . S
Co368 O384 2.117 . S
Co368 O385 2.020 . S
Co368 O387 2.021 . S
Co368 O392 2.062 . S
C369 N371 1.316 . S
C369 N372 1.347 . S
C369 H374 0.931 . S
C370 N371 1.375 . S
C370 C373 1.350 . S
C370 H375 0.930 . S
N371 Co366 2.057 . S
N371 C369 1.316 . S
N371 C370 1.375 . S
N372 C369 1.347 . S
N372 C373 1.373 . S
C373 C370 1.350 . S
C373 N372 1.373 . S
C373 H394 0.931 . S
H374 C369 0.931 . S
H375 C370 0.930 . S
C376 O383 1.259 . S
C376 O384 1.258 . S
N377 Co368 2.057 . S
N377 C378 1.316 . S
N377 C379 1.375 . S
C378 N377 1.316 . S
C378 N380 1.347 . S
C378 H389 0.931 . S
C379 N377 1.375 . S
C379 C381 1.350 . S
C379 H388 0.930 . S
N380 C378 1.347 . S
N380 C381 1.373 . S
C381 C379 1.350 . S
C381 N380 1.373 . S
C381 H395 0.931 . S
C382 O385 1.256 . S
C382 O386 1.255 . S
O383 Co366 2.021 . S
O383 C376 1.259 . S
O384 Co368 2.117 . S
O384 C376 1.258 . S
O385 Co368 2.020 . S
O385 C382 1.256 . S
O386 Co366 2.062 . S
O386 C382 1.255 . S
O387 C367 1.259 . S
O387 Co368 2.021 . S
H388 C379 0.930 . S
H389 C378 0.931 . S
O390 Co366 2.117 . S
O390 C367 1.258 . S
O391 Co366 2.020 . S
O391 C393 1.256 . S
O392 Co368 2.062 . S
O392 C393 1.255 . S
C393 O391 1.256 . S
C393 O392 1.255 . S
H394 C373 0.931 . S
H395 C381 0.931 . S
Co396 N401 2.057 . S
Co396 O413 2.021 1_545 S
Co396 O416 2.062 . S
Co396 O420 2.117 . S
Co396 O421 2.020 . S
C397 O417 1.259 . S
C397 O420 1.258 . S
Co398 N407 2.057 . S
Co398 O414 2.117 . S
Co398 O415 2.020 . S
Co398 O417 2.021 . S
Co398 O422 2.062 . S
C399 N401 1.316 1_565 S
C399 N402 1.347 1_565 S
C399 H404 0.931 . S
C400 N401 1.375 . S
C400 C403 1.350 . S
C400 H405 0.930 . S
N401 Co396 2.057 . S
N401 C399 1.316 1_545 S
N401 C400 1.375 . S
N402 C399 1.347 1_545 S
N402 C403 1.373 . S
C403 C400 1.350 . S
C403 N402 1.373 . S
C403 H424 0.931 . S
H404 C399 0.931 . S
H405 C400 0.930 . S
C406 O413 1.259 . S
C406 O414 1.258 1_565 S
N407 Co398 2.057 . S
N407 C408 1.316 . S
N407 C409 1.375 . S
C408 N407 1.316 . S
C408 N410 1.347 . S
C408 H419 0.931 . S
C409 N407 1.375 . S
C409 C411 1.350 . S
C409 H418 0.930 . S
N410 C408 1.347 . S
N410 C411 1.373 . S
C411 C409 1.350 . S
C411 N410 1.373 . S
C411 H425 0.931 . S
C412 O415 1.256 . S
C412 O416 1.255 . S
O413 Co396 2.021 1_565 S
O413 C406 1.259 . S
O414 Co398 2.117 . S
O414 C406 1.258 1_545 S
O415 Co398 2.020 . S
O415 C412 1.256 . S
O416 Co396 2.062 . S
O416 C412 1.255 . S
O417 C397 1.259 . S
O417 Co398 2.021 . S
H418 C409 0.930 . S
H419 C408 0.931 . S
O420 Co396 2.117 . S
O420 C397 1.258 . S
O421 Co396 2.020 . S
O421 C423 1.256 . S
O422 Co398 2.062 . S
O422 C423 1.255 . S
C423 O421 1.256 . S
C423 O422 1.255 . S
H424 C403 0.931 . S
H425 C411 0.931 . S
Co426 N431 2.057 . S
Co426 O443 2.021 . S
Co426 O446 2.062 . S
Co426 O450 2.117 . S
Co426 O451 2.020 . S
C427 O447 1.259 . S
C427 O450 1.258 . S
Co428 N437 2.057 . S
Co428 O444 2.117 . S
Co428 O445 2.020 . S
Co428 O447 2.021 . S
Co428 O452 2.062 . S
C429 N431 1.316 . S
C429 N432 1.347 . S
C429 H434 0.931 . S
C430 N431 1.375 . S
C430 C433 1.350 . S
C430 H435 0.930 . S
N431 Co426 2.057 . S
N431 C429 1.316 . S
N431 C430 1.375 . S
N432 C429 1.347 . S
N432 C433 1.373 . S
C433 C430 1.350 . S
C433 N432 1.373 . S
C433 H454 0.931 . S
H434 C429 0.931 . S
H435 C430 0.930 . S
C436 O443 1.259 . S
C436 O444 1.258 . S
N437 Co428 2.057 . S
N437 C438 1.316 . S
N437 C439 1.375 . S
C438 N437 1.316 . S
C438 N440 1.347 . S
C438 H449 0.931 . S
C439 N437 1.375 . S
C439 C441 1.350 . S
C439 H448 0.930 . S
N440 C438 1.347 . S
N440 C441 1.373 . S
C441 C439 1.350 . S
C441 N440 1.373 . S
C441 H455 0.931 . S
C442 O445 1.256 . S
C442 O446 1.255 . S
O443 Co426 2.021 . S
O443 C436 1.259 . S
O444 Co428 2.117 . S
O444 C436 1.258 . S
O445 Co428 2.020 . S
O445 C442 1.256 . S
O446 Co426 2.062 . S
O446 C442 1.255 . S
O447 C427 1.259 . S
O447 Co428 2.021 . S
H448 C439 0.930 . S
H449 C438 0.931 . S
O450 Co426 2.117 . S
O450 C427 1.258 . S
O451 Co426 2.020 . S
O451 C453 1.256 . S
O452 Co428 2.062 . S
O452 C453 1.255 . S
C453 O451 1.256 . S
C453 O452 1.255 . S
H454 C433 0.931 . S
H455 C441 0.931 . S
Co456 N461 2.057 1_545 S
Co456 O473 2.021 . S
Co456 O476 2.052 1_545 S
Co456 O480 2.117 . S
Co456 O481 2.020 1_455 S
C457 O477 1.259 . S
C457 O480 1.258 . S
Co458 N467 2.057 . S
Co458 O474 2.117 . S
Co458 O475 2.020 . S
Co458 O477 2.021 . S
Co458 O482 2.062 1_455 S
C459 N461 1.316 . S
C459 N462 1.347 . S
C459 H464 0.931 . S
C460 N461 1.375 1_655 S
C460 C463 1.350 . S
C460 H465 0.930 . S
N461 Co456 2.057 1_565 S
N461 C459 1.316 . S
N461 C460 1.375 1_455 S
N462 C459 1.347 . S
N462 C463 1.373 1_455 S
C463 C460 1.350 . S
C463 N462 1.373 1_655 S
C463 H484 0.931 . S
H464 C459 0.931 . S
H465 C460 0.930 . S
C466 O473 1.259 . S
C466 O474 1.258 . S
N467 Co458 2.057 . S
N467 C468 1.316 . S
N467 C469 1.375 . S
C468 N467 1.316 . S
C468 N470 1.347 . S
C468 H479 0.931 . S
C469 N467 1.375 . S
C469 C471 1.350 . S
C469 H478 0.930 . S
N470 C468 1.347 . S
N470 C471 1.373 . S
C471 C469 1.350 . S
C471 N470 1.373 . S
C471 H485 0.931 . S
C472 O475 1.256 . S
C472 O476 1.228 1_545 S
O473 Co456 2.021 . S
O473 C466 1.259 . S
O474 Co458 2.117 . S
O474 C466 1.258 . S
O475 Co458 2.020 . S
O475 C472 1.256 . S
O476 Co456 2.052 1_565 S
O476 C472 1.228 1_565 S
O477 C457 1.259 . S
O477 Co458 2.021 . S
H478 C469 0.930 . S
H479 C468 0.931 . S
O480 Co456 2.117 . S
O480 C457 1.258 . S
O481 Co456 2.020 1_655 S
O481 C483 1.256 . S
O482 Co458 2.062 1_655 S
O482 C483 1.255 . S
C483 O481 1.256 . S
C483 O482 1.255 . S
H484 C463 0.931 . S
H485 C471 0.931 . S
Co486 N491 2.057 . S
Co486 O503 2.021 . S
Co486 O506 2.062 . S
Co486 O510 2.117 . S
Co486 O511 2.020 . S
C487 O507 1.259 . S
C487 O510 1.258 . S
Co488 N497 2.057 . S
Co488 O504 2.117 . S
Co488 O505 2.020 . S
Co488 O507 2.021 . S
Co488 O512 2.062 . S
C489 N491 1.316 . S
C489 N492 1.347 . S
C489 H494 0.931 . S
C490 N491 1.375 . S
C490 C493 1.350 . S
C490 H495 0.930 . S
N491 Co486 2.057 . S
N491 C489 1.316 . S
N491 C490 1.375 . S
N492 C489 1.347 . S
N492 C493 1.373 . S
C493 C490 1.350 . S
C493 N492 1.373 . S
C493 H514 0.931 . S
H494 C489 0.931 . S
H495 C490 0.930 . S
C496 O503 1.259 . S
C496 O504 1.258 . S
N497 Co488 2.057 . S
N497 C498 1.316 . S
N497 C499 1.375 . S
C498 N497 1.316 . S
C498 N500 1.347 . S
C498 H509 0.931 . S
C499 N497 1.375 . S
C499 C501 1.350 . S
C499 H508 0.930 . S
N500 C498 1.347 . S
N500 C501 1.373 . S
C501 C499 1.350 . S
C501 N500 1.373 . S
C501 H515 0.931 . S
C502 O505 1.256 . S
C502 O506 1.255 . S
O503 Co486 2.021 . S
O503 C496 1.259 . S
O504 Co488 2.117 . S
O504 C496 1.258 . S
O505 Co488 2.020 . S
O505 C502 1.256 . S
O506 Co486 2.062 . S
O506 C502 1.255 . S
O507 C487 1.259 . S
O507 Co488 2.021 . S
H508 C499 0.930 . S
H509 C498 0.931 . S
O510 Co486 2.117 . S
O510 C487 1.258 . S
O511 Co486 2.020 . S
O511 C513 1.256 . S
O512 Co488 2.062 . S
O512 C513 1.255 . S
C513 O511 1.256 . S
C513 O512 1.255 . S
H514 C493 0.931 . S
H515 C501 0.931 . S
Co516 N521 2.057 1_554 S
Co516 O533 2.021 . S
Co516 O536 2.062 1_554 S
Co516 O540 2.117 . S
Co516 O541 2.020 1_545 S
C517 O537 1.259 . S
C517 O540 1.258 . S
Co518 N527 2.057 . S
Co518 O534 2.117 . S
Co518 O535 2.020 . S
Co518 O537 2.021 . S
Co518 O542 2.062 . S
C519 N521 1.316 . S
C519 N522 1.347 . S
C519 H524 0.931 . S
C520 N521 1.375 . S
C520 C523 1.350 . S
C520 H525 0.930 1_545 S
N521 Co516 2.057 1_556 S
N521 C519 1.316 . S
N521 C520 1.375 . S
N522 C519 1.347 . S
N522 C523 1.373 . S
C523 C520 1.350 . S
C523 N522 1.373 . S
C523 H544 0.931 1_545 S
H524 C519 0.931 . S
H525 C520 0.930 1_565 S
C526 O533 1.259 . S
C526 O534 1.258 . S
N527 Co518 2.057 . S
N527 C528 1.316 . S
N527 C529 1.375 . S
C528 N527 1.316 . S
C528 N530 1.347 . S
C528 H539 0.931 . S
C529 N527 1.375 . S
C529 C531 1.350 . S
C529 H538 0.930 . S
N530 C528 1.347 . S
N530 C531 1.373 . S
C531 C529 1.350 . S
C531 N530 1.373 . S
C531 H545 0.931 . S
C532 O535 1.256 . S
C532 O536 1.255 1_554 S
O533 Co516 2.021 . S
O533 C526 1.259 . S
O534 Co518 2.117 . S
O534 C526 1.258 . S
O535 Co518 2.020 . S
O535 C532 1.256 . S
O536 Co516 2.062 1_556 S
O536 C532 1.255 1_556 S
O537 C517 1.259 . S
O537 Co518 2.021 . S
H538 C529 0.930 . S
H539 C528 0.931 . S
O540 Co516 2.117 . S
O540 C517 1.258 . S
O541 Co516 2.020 1_565 S
O541 C543 1.256 . S
O542 Co518 2.062 . S
O542 C543 1.255 1_545 S
C543 O541 1.256 . S
C543 O542 1.255 1_565 S
H544 C523 0.931 1_565 S
H545 C531 0.931 . S
Co546 N551 2.057 . S
Co546 O563 2.021 . S
Co546 O566 2.062 . S
Co546 O570 2.117 . S
Co546 O571 2.020 . S
C547 O567 1.259 . S
C547 O570 1.258 . S
Co548 N557 2.057 . S
Co548 O564 2.117 . S
Co548 O565 2.020 . S
Co548 O567 2.021 . S
Co548 O572 2.062 . S
C549 N551 1.316 . S
C549 N552 1.347 . S
C549 H554 0.931 . S
C550 N551 1.375 . S
C550 C553 1.350 . S
C550 H555 0.930 . S
N551 Co546 2.057 . S
N551 C549 1.316 . S
N551 C550 1.375 . S
N552 C549 1.347 . S
N552 C553 1.373 . S
C553 C550 1.350 . S
C553 N552 1.373 . S
C553 H574 0.931 . S
H554 C549 0.931 . S
H555 C550 0.930 . S
C556 O563 1.259 . S
C556 O564 1.258 . S
N557 Co548 2.057 . S
N557 C558 1.316 . S
N557 C559 1.375 . S
C558 N557 1.316 . S
C558 N560 1.347 . S
C558 H569 0.931 . S
C559 N557 1.375 . S
C559 C561 1.350 . S
C559 H568 0.930 . S
N560 C558 1.347 . S
N560 C561 1.373 . S
C561 C559 1.350 . S
C561 N560 1.373 . S
C561 H575 0.931 . S
C562 O565 1.256 . S
C562 O566 1.255 . S
O563 Co546 2.021 . S
O563 C556 1.259 . S
O564 Co548 2.117 . S
O564 C556 1.258 . S
O565 Co548 2.020 . S
O565 C562 1.256 . S
O566 Co546 2.062 . S
O566 C562 1.255 . S
O567 C547 1.259 . S
O567 Co548 2.021 . S
H568 C559 0.930 . S
H569 C558 0.931 . S
O570 Co546 2.117 . S
O570 C547 1.258 . S
O571 Co546 2.020 . S
O571 C573 1.256 . S
O572 Co548 2.062 . S
O572 C573 1.255 . S
C573 O571 1.256 . S
C573 O572 1.255 . S
H574 C553 0.931 . S
H575 C561 0.931 . S
Co576 N581 2.057 . S
Co576 O593 2.021 1_554 S
Co576 O596 2.062 . S
Co576 O600 2.117 . S
Co576 O601 2.020 . S
C577 O597 1.259 . S
C577 O600 1.258 . S
Co578 N587 2.057 . S
Co578 O594 2.117 . S
Co578 O595 2.020 . S
Co578 O597 2.021 . S
Co578 O602 2.062 . S
C579 N581 1.316 1_556 S
C579 N582 1.347 1_556 S
C579 H584 0.931 . S
C580 N581 1.375 . S
C580 C583 1.350 . S
C580 H585 0.930 . S
N581 Co576 2.057 . S
N581 C579 1.316 1_554 S
N581 C580 1.375 . S
N582 C579 1.347 1_554 S
N582 C583 1.373 . S
C583 C580 1.350 . S
C583 N582 1.373 . S
C583 H604 0.931 . S
H584 C579 0.931 . S
H585 C580 0.930 . S
C586 O593 1.259 . S
C586 O594 1.258 1_556 S
N587 Co578 2.057 . S
N587 C588 1.316 . S
N587 C589 1.375 . S
C588 N587 1.316 . S
C588 N590 1.347 . S
C588 H599 0.931 . S
C589 N587 1.375 . S
C589 C591 1.350 . S
C589 H598 0.930 . S
N590 C588 1.347 . S
N590 C591 1.373 . S
C591 C589 1.350 . S
C591 N590 1.373 . S
C591 H605 0.931 . S
C592 O595 1.256 . S
C592 O596 1.255 . S
O593 Co576 2.021 1_556 S
O593 C586 1.259 . S
O594 Co578 2.117 . S
O594 C586 1.258 1_554 S
O595 Co578 2.020 . S
O595 C592 1.256 . S
O596 Co576 2.062 . S
O596 C592 1.255 . S
O597 C577 1.259 . S
O597 Co578 2.021 . S
H598 C589 0.930 . S
H599 C588 0.931 . S
O600 Co576 2.117 . S
O600 C577 1.258 . S
O601 Co576 2.020 . S
O601 C603 1.256 . S
O602 Co578 2.062 . S
O602 C603 1.255 . S
C603 O601 1.256 . S
C603 O602 1.255 . S
H604 C583 0.931 . S
H605 C591 0.931 . S
Co606 N611 2.057 . S
Co606 O623 2.021 . S
Co606 O626 2.062 . S
Co606 O630 2.117 . S
Co606 O631 2.020 . S
C607 O627 1.259 . S
C607 O630 1.258 . S
Co608 N617 2.057 . S
Co608 O624 2.117 . S
Co608 O625 2.020 . S
Co608 O627 2.021 . S
Co608 O632 2.062 . S
C609 N611 1.316 . S
C609 N612 1.347 . S
C609 H614 0.931 . S
C610 N611 1.375 . S
C610 C613 1.350 . S
C610 H615 0.930 . S
N611 Co606 2.057 . S
N611 C609 1.316 . S
N611 C610 1.375 . S
N612 C609 1.347 . S
N612 C613 1.373 . S
C613 C610 1.350 . S
C613 N612 1.373 . S
C613 H634 0.931 . S
H614 C609 0.931 . S
H615 C610 0.930 . S
C616 O623 1.259 . S
C616 O624 1.258 . S
N617 Co608 2.057 . S
N617 C618 1.316 . S
N617 C619 1.375 . S
C618 N617 1.316 . S
C618 N620 1.347 . S
C618 H629 0.931 . S
C619 N617 1.375 . S
C619 C621 1.350 . S
C619 H628 0.930 . S
N620 C618 1.347 . S
N620 C621 1.373 . S
C621 C619 1.350 . S
C621 N620 1.373 . S
C621 H635 0.931 . S
C622 O625 1.256 . S
C622 O626 1.255 . S
O623 Co606 2.021 . S
O623 C616 1.259 . S
O624 Co608 2.117 . S
O624 C616 1.258 . S
O625 Co608 2.020 . S
O625 C622 1.256 . S
O626 Co606 2.062 . S
O626 C622 1.255 . S
O627 C607 1.259 . S
O627 Co608 2.021 . S
H628 C619 0.930 . S
H629 C618 0.931 . S
O630 Co606 2.117 . S
O630 C607 1.258 . S
O631 Co606 2.020 . S
O631 C633 1.256 . S
O632 Co608 2.062 . S
O632 C633 1.255 . S
C633 O631 1.256 . S
C633 O632 1.255 . S
H634 C613 0.931 . S
H635 C621 0.931 . S
Co636 N641 2.057 . S
Co636 O653 2.021 1_455 S
Co636 O656 2.062 . S
Co636 O660 2.117 . S
Co636 O661 2.020 . S
C637 O657 1.259 . S
C637 O660 1.258 . S
Co638 N647 2.057 . S
Co638 O654 2.121 . S
Co638 O655 2.020 . S
Co638 O657 2.021 . S
Co638 O662 2.062 . S
C639 N641 1.316 1_655 S
C639 N642 1.351 . S
C639 H644 0.931 . S
C640 N641 1.375 . S
C640 C643 1.350 . S
C640 H645 0.930 . S
N641 Co636 2.057 . S
N641 C639 1.316 1_455 S
N641 C640 1.375 . S
N642 C639 1.351 . S
N642 C643 1.348 1_655 S
C643 C640 1.350 . S
C643 N642 1.348 1_455 S
C643 H664 0.931 . S
H644 C639 0.931 . S
H645 C640 0.930 . S
C646 O653 1.259 . S
C646 O654 1.254 1_655 S
N647 Co638 2.057 . S
N647 C648 1.316 . S
N647 C649 1.375 . S
C648 N647 1.316 . S
C648 N650 1.347 . S
C648 H659 0.931 . S
C649 N647 1.375 . S
C649 C651 1.350 . S
C649 H658 0.930 . S
N650 C648 1.347 . S
N650 C651 1.373 . S
C651 C649 1.350 . S
C651 N650 1.373 . S
C651 H665 0.931 . S
C652 O655 1.256 . S
C652 O656 1.255 . S
O653 Co636 2.021 1_655 S
O653 C646 1.259 . S
O654 Co638 2.121 . S
O654 C646 1.254 1_455 S
O655 Co638 2.020 . S
O655 C652 1.256 . S
O656 Co636 2.062 . S
O656 C652 1.255 . S
O657 C637 1.259 . S
O657 Co638 2.021 . S
H658 C649 0.930 . S
H659 C648 0.931 . S
O660 Co636 2.117 . S
O660 C637 1.258 . S
O661 Co636 2.020 . S
O661 C663 1.256 . S
O662 Co638 2.062 . S
O662 C663 1.255 . S
C663 O661 1.256 . S
C663 O662 1.255 . S
H664 C643 0.931 . S
H665 C651 0.931 . S
Co666 N671 2.057 . S
Co666 O683 2.021 . S
Co666 O686 2.062 . S
Co666 O690 2.117 . S
Co666 O691 2.020 . S
C667 O687 1.259 . S
C667 O690 1.258 . S
Co668 N677 2.057 . S
Co668 O684 2.117 . S
Co668 O685 2.020 . S
Co668 O687 2.021 . S
Co668 O692 2.062 . S
C669 N671 1.316 . S
C669 N672 1.347 . S
C669 H674 0.931 . S
C670 N671 1.375 . S
C670 C673 1.350 . S
C670 H675 0.930 . S
N671 Co666 2.057 . S
N671 C669 1.316 . S
N671 C670 1.375 . S
N672 C669 1.347 . S
N672 C673 1.373 . S
C673 C670 1.350 . S
C673 N672 1.373 . S
C673 H694 0.931 . S
H674 C669 0.931 . S
H675 C670 0.930 . S
C676 O683 1.259 . S
C676 O684 1.258 . S
N677 Co668 2.057 . S
N677 C678 1.316 . S
N677 C679 1.375 . S
C678 N677 1.316 . S
C678 N680 1.347 . S
C678 H689 0.931 . S
C679 N677 1.375 . S
C679 C681 1.350 . S
C679 H688 0.930 . S
N680 C678 1.347 . S
N680 C681 1.373 . S
C681 C679 1.350 . S
C681 N680 1.373 . S
C681 H695 0.931 . S
C682 O685 1.256 . S
C682 O686 1.255 . S
O683 Co666 2.021 . S
O683 C676 1.259 . S
O684 Co668 2.117 . S
O684 C676 1.258 . S
O685 Co668 2.020 . S
O685 C682 1.256 . S
O686 Co666 2.062 . S
O686 C682 1.255 . S
O687 C667 1.259 . S
O687 Co668 2.021 . S
H688 C679 0.930 . S
H689 C678 0.931 . S
O690 Co666 2.117 . S
O690 C667 1.258 . S
O691 Co666 2.020 . S
O691 C693 1.256 . S
O692 Co668 2.062 . S
O692 C693 1.255 . S
C693 O691 1.256 . S
C693 O692 1.255 . S
H694 C673 0.931 . S
H695 C681 0.931 . S
Co696 N701 2.057 . S
Co696 O713 2.021 . S
Co696 O716 2.062 . S
Co696 O720 2.117 . S
Co696 O721 2.020 . S
C697 O717 1.259 . S
C697 O720 1.258 . S
Co698 N707 2.057 . S
Co698 O714 2.117 . S
Co698 O715 2.020 . S
Co698 O717 2.021 . S
Co698 O722 2.062 . S
C699 N701 1.316 . S
C699 N702 1.347 . S
C699 H704 0.931 . S
C700 N701 1.375 . S
C700 C703 1.350 . S
C700 H705 0.930 . S
N701 Co696 2.057 . S
N701 C699 1.316 . S
N701 C700 1.375 . S
N702 C699 1.347 . S
N702 C703 1.373 . S
C703 C700 1.350 . S
C703 N702 1.373 . S
C703 H724 0.931 . S
H704 C699 0.931 . S
H705 C700 0.930 . S
C706 O713 1.259 . S
C706 O714 1.258 . S
N707 Co698 2.057 . S
N707 C708 1.316 . S
N707 C709 1.375 . S
C708 N707 1.316 . S
C708 N710 1.347 . S
C708 H719 0.931 . S
C709 N707 1.375 . S
C709 C711 1.350 . S
C709 H718 0.930 . S
N710 C708 1.347 . S
N710 C711 1.373 . S
C711 C709 1.350 . S
C711 N710 1.373 . S
C711 H725 0.931 . S
C712 O715 1.256 . S
C712 O716 1.255 . S
O713 Co696 2.021 . S
O713 C706 1.259 . S
O714 Co698 2.117 . S
O714 C706 1.258 . S
O715 Co698 2.020 . S
O715 C712 1.256 . S
O716 Co696 2.062 . S
O716 C712 1.255 . S
O717 C697 1.259 . S
O717 Co698 2.021 . S
H718 C709 0.930 . S
H719 C708 0.931 . S
O720 Co696 2.117 . S
O720 C697 1.258 . S
O721 Co696 2.020 . S
O721 C723 1.256 . S
O722 Co698 2.062 . S
O722 C723 1.255 . S
C723 O721 1.256 . S
C723 O722 1.255 . S
H724 C703 0.931 . S
H725 C711 0.931 . S
Co726 N731 2.057 . S
Co726 O743 2.021 . S
Co726 O746 2.062 . S
Co726 O750 2.117 . S
Co726 O751 2.020 . S
C727 O747 1.259 . S
C727 O750 1.258 . S
Co728 N737 2.057 . S
Co728 O744 2.117 . S
Co728 O745 2.020 . S
Co728 O747 2.021 . S
Co728 O752 2.062 . S
C729 N731 1.316 . S
C729 N732 1.347 . S
C729 H734 0.931 . S
C730 N731 1.375 . S
C730 C733 1.350 . S
C730 H735 0.930 . S
N731 Co726 2.057 . S
N731 C729 1.316 . S
N731 C730 1.375 . S
N732 C729 1.347 . S
N732 C733 1.373 . S
C733 C730 1.350 . S
C733 N732 1.373 . S
C733 H754 0.931 . S
H734 C729 0.931 . S
H735 C730 0.930 . S
C736 O743 1.259 . S
C736 O744 1.258 . S
N737 Co728 2.057 . S
N737 C738 1.316 . S
N737 C739 1.375 . S
C738 N737 1.316 . S
C738 N740 1.347 . S
C738 H749 0.931 . S
C739 N737 1.375 . S
C739 C741 1.350 . S
C739 H748 0.930 . S
N740 C738 1.347 . S
N740 C741 1.373 . S
C741 C739 1.350 . S
C741 N740 1.373 . S
C741 H755 0.931 . S
C742 O745 1.256 . S
C742 O746 1.255 . S
O743 Co726 2.021 . S
O743 C736 1.259 . S
O744 Co728 2.117 . S
O744 C736 1.258 . S
O745 Co728 2.020 . S
O745 C742 1.256 . S
O746 Co726 2.062 . S
O746 C742 1.255 . S
O747 C727 1.259 . S
O747 Co728 2.021 . S
H748 C739 0.930 . S
H749 C738 0.931 . S
O750 Co726 2.117 . S
O750 C727 1.258 . S
O751 Co726 2.020 . S
O751 C753 1.256 . S
O752 Co728 2.062 . S
O752 C753 1.255 . S
C753 O751 1.256 . S
C753 O752 1.255 . S
H754 C733 0.931 . S
H755 C741 0.931 . S
Co756 N761 2.057 . S
Co756 O773 2.021 . S
Co756 O776 2.062 . S
Co756 O780 2.117 . S
Co756 O781 2.020 . S
C757 O777 1.259 . S
C757 O780 1.258 . S
Co758 N767 2.057 . S
Co758 O774 2.117 . S
Co758 O775 2.020 . S
Co758 O777 2.021 . S
Co758 O782 2.062 . S
C759 N761 1.316 . S
C759 N762 1.347 . S
C759 H764 0.931 . S
C760 N761 1.375 . S
C760 C763 1.350 . S
C760 H765 0.930 . S
N761 Co756 2.057 . S
N761 C759 1.316 . S
N761 C760 1.375 . S
N762 C759 1.347 . S
N762 C763 1.373 . S
C763 C760 1.350 . S
C763 N762 1.373 . S
C763 H784 0.931 . S
H764 C759 0.931 . S
H765 C760 0.930 . S
C766 O773 1.259 . S
C766 O774 1.258 . S
N767 Co758 2.057 . S
N767 C768 1.316 . S
N767 C769 1.375 . S
C768 N767 1.316 . S
C768 N770 1.347 . S
C768 H779 0.931 . S
C769 N767 1.375 . S
C769 C771 1.350 . S
C769 H778 0.930 . S
N770 C768 1.347 . S
N770 C771 1.373 . S
C771 C769 1.350 . S
C771 N770 1.373 . S
C771 H785 0.931 . S
C772 O775 1.256 . S
C772 O776 1.255 . S
O773 Co756 2.021 . S
O773 C766 1.259 . S
O774 Co758 2.117 . S
O774 C766 1.258 . S
O775 Co758 2.020 . S
O775 C772 1.256 . S
O776 Co756 2.062 . S
O776 C772 1.255 . S
O777 C757 1.259 . S
O777 Co758 2.021 . S
H778 C769 0.930 . S
H779 C768 0.931 . S
O780 Co756 2.117 . S
O780 C757 1.258 . S
O781 Co756 2.020 . S
O781 C783 1.256 . S
O782 Co758 2.062 . S
O782 C783 1.255 . S
C783 O781 1.256 . S
C783 O782 1.255 . S
H784 C763 0.931 . S
H785 C771 0.931 . S
Co786 N791 2.057 1_455 S
Co786 O803 2.021 . S
Co786 O806 2.062 1_455 S
Co786 O810 2.117 . S
Co786 O811 2.020 1_554 S
C787 O807 1.259 . S
C787 O810 1.258 . S
Co788 N797 2.057 . S
Co788 O804 2.117 . S
Co788 O805 2.020 . S
Co788 O807 2.021 . S
Co788 O812 2.062 1_554 S
C789 N791 1.316 . S
C789 N792 1.347 . S
C789 H794 0.931 . S
C790 N791 1.381 . S
C790 C793 1.350 . S
C790 H795 0.925 1_554 S
N791 Co786 2.057 1_655 S
N791 C789 1.316 . S
N791 C790 1.381 . S
N792 C789 1.347 . S
N792 C793 1.373 . S
C793 C790 1.350 . S
C793 N792 1.373 . S
C793 H814 0.931 1_554 S
H794 C789 0.931 . S
H795 C790 0.925 1_556 S
C796 O803 1.259 . S
C796 O804 1.258 . S
N797 Co788 2.057 . S
N797 C798 1.316 . S
N797 C799 1.375 . S
C798 N797 1.316 . S
C798 N800 1.347 . S
C798 H809 0.931 . S
C799 N797 1.375 . S
C799 C801 1.350 . S
C799 H808 0.930 . S
N800 C798 1.347 . S
N800 C801 1.373 . S
C801 C799 1.350 . S
C801 N800 1.373 . S
C801 H815 0.931 . S
C802 O805 1.256 . S
C802 O806 1.255 1_455 S
O803 Co786 2.021 . S
O803 C796 1.259 . S
O804 Co788 2.117 . S
O804 C796 1.258 . S
O805 Co788 2.020 . S
O805 C802 1.256 . S
O806 Co786 2.062 1_655 S
O806 C802 1.255 1_655 S
O807 C787 1.259 . S
O807 Co788 2.021 . S
H808 C799 0.930 . S
H809 C798 0.931 . S
O810 Co786 2.117 . S
O810 C787 1.258 . S
O811 Co786 2.020 1_556 S
O811 C813 1.256 . S
O812 Co788 2.062 1_556 S
O812 C813 1.255 . S
C813 O811 1.256 . S
C813 O812 1.255 . S
H814 C793 0.931 1_556 S
H815 C801 0.931 . S
H816 C824 0.950 . S
H817 C829 0.950 1_655 S
H818 C826 0.950 . S
H819 C828 0.950 1_655 S
H820 C830 0.950 . S
H821 C832 0.950 . S
H822 C834 0.950 . S
H823 C835 0.950 . S
C824 H816 0.950 . S
C824 C825 1.386 . S
C824 C826 1.391 . S
C825 C824 1.386 . S
C825 C829 1.393 . S
C826 H818 0.950 . S
C826 C824 1.391 . S
C826 C827 1.400 . S
C827 C826 1.400 . S
C827 C828 1.398 . S
C827 C833 1.491 . S
C828 H819 0.950 1_455 S
C828 C827 1.398 . S
C828 C829 1.391 . S
C829 H817 0.950 1_455 S
C829 C825 1.393 . S
C829 C828 1.391 . S
C830 H820 0.950 . S
C830 C831 1.386 1_655 S
C830 C832 1.391 . S
C831 C830 1.386 1_455 S
C831 C835 1.393 . S
C832 H821 0.950 . S
C832 C830 1.391 . S
C832 C833 1.400 1_655 S
C833 C827 1.491 . S
C833 C832 1.400 1_455 S
C833 C834 1.398 . S
C834 H822 0.950 . S
C834 C833 1.398 . S
C834 C835 1.391 . S
C835 H823 0.950 . S
C835 C831 1.393 . S
C835 C834 1.391 . S
H836 C844 0.950 . S
H837 C849 0.950 . S
H838 C846 0.950 . S
H839 C848 0.950 . S
H840 C850 0.950 . S
H841 C852 0.950 . S
H842 C854 0.950 . S
H843 C855 0.950 . S
C844 H836 0.950 . S
C844 C845 1.386 . S
C844 C846 1.391 . S
C845 C844 1.386 . S
C845 C849 1.393 . S
C846 H838 0.950 . S
C846 C844 1.391 . S
C846 C847 1.400 . S
C847 C846 1.400 . S
C847 C848 1.398 . S
C847 C853 1.491 . S
C848 H839 0.950 . S
C848 C847 1.398 . S
C848 C849 1.391 . S
C849 H837 0.950 . S
C849 C845 1.393 . S
C849 C848 1.391 . S
C850 H840 0.950 . S
C850 C851 1.386 . S
C850 C852 1.391 . S
C851 C850 1.386 . S
C851 C855 1.393 . S
C852 H841 0.950 . S
C852 C850 1.391 . S
C852 C853 1.400 . S
C853 C847 1.491 . S
C853 C852 1.400 . S
C853 C854 1.398 . S
C854 H842 0.950 . S
C854 C853 1.398 . S
C854 C855 1.391 . S
C855 H843 0.950 . S
C855 C851 1.393 . S
C855 C854 1.391 . S
H856 C864 0.950 . S
H857 C869 0.950 . S
H858 C866 0.950 . S
H859 C868 0.950 . S
H860 C870 0.950 . S
H861 C872 0.950 . S
H862 C874 0.950 . S
H863 C875 0.950 . S
C864 H856 0.950 . S
C864 C865 1.386 . S
C864 C866 1.391 . S
C865 C864 1.386 . S
C865 C869 1.393 . S
C866 H858 0.950 . S
C866 C864 1.391 . S
C866 C867 1.400 . S
C867 C866 1.400 . S
C867 C868 1.398 . S
C867 C873 1.491 . S
C868 H859 0.950 . S
C868 C867 1.398 . S
C868 C869 1.391 . S
C869 H857 0.950 . S
C869 C865 1.393 . S
C869 C868 1.391 . S
C870 H860 0.950 . S
C870 C871 1.386 . S
C870 C872 1.391 . S
C871 C870 1.386 . S
C871 C875 1.393 . S
C872 H861 0.950 . S
C872 C870 1.391 . S
C872 C873 1.400 . S
C873 C867 1.491 . S
C873 C872 1.400 . S
C873 C874 1.398 . S
C874 H862 0.950 . S
C874 C873 1.398 . S
C874 C875 1.391 . S
C875 H863 0.950 . S
C875 C871 1.393 . S
C875 C874 1.391 . S
H876 C884 0.950 . S
H877 C889 0.950 . S
H878 C886 0.950 . S
H879 C888 0.950 . S
H880 C890 0.950 . S
H881 C892 0.950 . S
H882 C894 0.950 . S
H883 C895 0.950 . S
C884 H876 0.950 . S
C884 C885 1.386 . S
C884 C886 1.391 . S
C885 C884 1.386 . S
C885 C889 1.393 . S
C886 H878 0.950 . S
C886 C884 1.391 . S
C886 C887 1.400 . S
C887 C886 1.400 . S
C887 C888 1.398 . S
C887 C893 1.491 . S
C888 H879 0.950 . S
C888 C887 1.398 . S
C888 C889 1.391 . S
C889 H877 0.950 . S
C889 C885 1.393 . S
C889 C888 1.391 . S
C890 H880 0.950 . S
C890 C891 1.386 . S
C890 C892 1.391 . S
C891 C890 1.386 . S
C891 C895 1.393 . S
C892 H881 0.950 . S
C892 C890 1.391 . S
C892 C893 1.400 . S
C893 C887 1.491 . S
C893 C892 1.400 . S
C893 C894 1.398 . S
C894 H882 0.950 . S
C894 C893 1.398 . S
C894 C895 1.391 . S
C895 H883 0.950 . S
C895 C891 1.393 . S
C895 C894 1.391 . S
H896 C904 0.950 . S
H897 C909 0.950 . S
H898 C906 0.950 . S
H899 C908 0.950 . S
H900 C910 0.950 . S
H901 C912 0.950 1_655 S
H902 C914 0.950 . S
H903 C915 0.950 . S
C904 H896 0.950 . S
C904 C905 1.386 . S
C904 C906 1.391 . S
C905 C904 1.386 . S
C905 C909 1.393 . S
C906 H898 0.950 . S
C906 C904 1.391 . S
C906 C907 1.400 . S
C907 C906 1.400 . S
C907 C908 1.398 . S
C907 C913 1.491 . S
C908 H899 0.950 . S
C908 C907 1.398 . S
C908 C909 1.391 . S
C909 H897 0.950 . S
C909 C905 1.393 . S
C909 C908 1.391 . S
C910 H900 0.950 . S
C910 C911 1.386 1_655 S
C910 C912 1.391 1_655 S
C911 C910 1.386 1_455 S
C911 C915 1.393 . S
C912 H901 0.950 1_455 S
C912 C910 1.391 1_455 S
C912 C913 1.400 . S
C913 C907 1.491 . S
C913 C912 1.400 . S
C913 C914 1.398 . S
C914 H902 0.950 . S
C914 C913 1.398 . S
C914 C915 1.391 . S
C915 H903 0.950 . S
C915 C911 1.393 . S
C915 C914 1.391 . S
H916 C924 0.950 . S
H917 C929 0.950 . S
H918 C926 0.950 . S
H919 C928 0.950 . S
H920 C930 0.950 . S
H921 C932 0.950 . S
H922 C934 0.950 . S
H923 C935 0.950 . S
C924 H916 0.950 . S
C924 C925 1.386 . S
C924 C926 1.391 . S
C925 C924 1.386 . S
C925 C929 1.393 . S
C926 H918 0.950 . S
C926 C924 1.391 . S
C926 C927 1.400 . S
C927 C926 1.400 . S
C927 C928 1.398 . S
C927 C933 1.491 . S
C928 H919 0.950 . S
C928 C927 1.398 . S
C928 C929 1.391 . S
C929 H917 0.950 . S
C929 C925 1.393 . S
C929 C928 1.391 . S
C930 H920 0.950 . S
C930 C931 1.386 . S
C930 C932 1.391 . S
C931 C930 1.386 . S
C931 C935 1.393 . S
C932 H921 0.950 . S
C932 C930 1.391 . S
C932 C933 1.400 . S
C933 C927 1.491 . S
C933 C932 1.400 . S
C933 C934 1.398 . S
C934 H922 0.950 . S
C934 C933 1.398 . S
C934 C935 1.391 . S
C935 H923 0.950 . S
C935 C931 1.393 . S
C935 C934 1.391 . S
H936 C944 0.950 . S
H937 C949 0.950 . S
H938 C946 0.950 . S
H939 C948 0.950 . S
H940 C950 0.950 1_554 S
H941 C952 0.950 . S
H942 C954 0.950 . S
H943 C955 0.950 . S
C944 H936 0.950 . S
C944 C945 1.386 . S
C944 C946 1.391 . S
C945 C944 1.386 . S
C945 C949 1.393 . S
C946 H938 0.950 . S
C946 C944 1.391 . S
C946 C947 1.400 . S
C947 C946 1.400 . S
C947 C948 1.398 . S
C947 C953 1.491 . S
C948 H939 0.950 . S
C948 C947 1.398 . S
C948 C949 1.391 . S
C949 H937 0.950 . S
C949 C945 1.393 . S
C949 C948 1.391 . S
C950 H940 0.950 1_556 S
C950 C951 1.384 1_556 S
C950 C952 1.391 . S
C951 C950 1.384 1_554 S
C951 C955 1.387 1_554 S
C952 H941 0.950 . S
C952 C950 1.391 . S
C952 C953 1.400 . S
C953 C947 1.491 . S
C953 C952 1.400 . S
C953 C954 1.398 . S
C954 H942 0.950 . S
C954 C953 1.398 . S
C954 C955 1.391 . S
C955 H943 0.950 . S
C955 C951 1.387 1_556 S
C955 C954 1.391 . S
H956 C964 0.950 . S
H957 C969 0.950 . S
H958 C966 0.950 . S
H959 C968 0.950 . S
H960 C970 0.950 . S
H961 C972 0.950 . S
H962 C974 0.950 . S
H963 C975 0.950 . S
C964 H956 0.950 . S
C964 C965 1.386 . S
C964 C966 1.391 . S
C965 C964 1.386 . S
C965 C969 1.393 . S
C966 H958 0.950 . S
C966 C964 1.391 . S
C966 C967 1.400 . S
C967 C966 1.400 . S
C967 C968 1.398 . S
C967 C973 1.491 . S
C968 H959 0.950 . S
C968 C967 1.398 . S
C968 C969 1.391 . S
C969 H957 0.950 . S
C969 C965 1.393 . S
C969 C968 1.391 . S
C970 H960 0.950 . S
C970 C971 1.386 . S
C970 C972 1.391 . S
C971 C970 1.386 . S
C971 C975 1.393 . S
C972 H961 0.950 . S
C972 C970 1.391 . S
C972 C973 1.400 . S
C973 C967 1.491 . S
C973 C972 1.400 . S
C973 C974 1.398 . S
C974 H962 0.950 . S
C974 C973 1.398 . S
C974 C975 1.391 . S
C975 H963 0.950 . S
C975 C971 1.393 . S
C975 C974 1.391 . S
H976 C984 0.950 . S
H977 C989 0.958 . S
H978 C986 0.950 . S
H979 C988 0.955 . S
H980 C990 0.956 . S
H981 C992 0.947 1_565 S
H982 C994 0.950 . S
H983 C995 0.950 . S
C984 H976 0.950 . S
C984 C985 1.386 . S
C984 C986 1.391 . S
C985 C984 1.386 . S
C985 C989 1.393 . S
C986 H978 0.950 . S
C986 C984 1.391 . S
C986 C987 1.400 . S
C987 C986 1.400 . S
C987 C988 1.398 . S
C987 C993 1.491 . S
C988 H979 0.955 . S
C988 C987 1.398 . S
C988 C989 1.391 . S
C989 H977 0.958 . S
C989 C985 1.393 . S
C989 C988 1.391 . S
C990 H980 0.956 . S
C990 C991 1.381 1_565 S
C990 C992 1.390 1_565 S
C991 C990 1.381 1_545 S
C991 C995 1.393 . S
C992 H981 0.947 1_545 S
C992 C990 1.390 1_545 S
C992 C993 1.404 . S
C993 C987 1.491 . S
C993 C992 1.404 . S
C993 C994 1.398 . S
C994 H982 0.950 . S
C994 C993 1.398 . S
C994 C995 1.391 . S
C995 H983 0.950 . S
C995 C991 1.393 . S
C995 C994 1.391 . S
H996 C1004 0.950 . S
H997 C1009 0.950 . S
H998 C1006 0.950 . S
H999 C1008 0.950 . S
H1000 C1010 0.950 . S
H1001 C1012 0.950 . S
H1002 C1014 0.950 . S
H1003 C1015 0.950 . S
C1004 H996 0.950 . S
C1004 C1005 1.386 . S
C1004 C1006 1.391 . S
C1005 C1004 1.386 . S
C1005 C1009 1.393 . S
C1006 H998 0.950 . S
C1006 C1004 1.391 . S
C1006 C1007 1.400 . S
C1007 C1006 1.400 . S
C1007 C1008 1.398 . S
C1007 C1013 1.491 . S
C1008 H999 0.950 . S
C1008 C1007 1.398 . S
C1008 C1009 1.391 . S
C1009 H997 0.950 . S
C1009 C1005 1.393 . S
C1009 C1008 1.391 . S
C1010 H1000 0.950 . S
C1010 C1011 1.386 . S
C1010 C1012 1.391 . S
C1011 C1010 1.386 . S
C1011 C1015 1.393 . S
C1012 H1001 0.950 . S
C1012 C1010 1.391 . S
C1012 C1013 1.400 . S
C1013 C1007 1.491 . S
C1013 C1012 1.400 . S
C1013 C1014 1.398 . S
C1014 H1002 0.950 . S
C1014 C1013 1.398 . S
C1014 C1015 1.391 . S
C1015 H1003 0.950 . S
C1015 C1011 1.393 . S
C1015 C1014 1.391 . S
H1016 C1024 0.950 . S
H1017 C1029 0.950 . S
H1018 C1026 0.950 . S
H1019 C1028 0.950 . S
H1020 C1030 0.950 . S
H1021 C1032 0.950 . S
H1022 C1034 0.950 . S
H1023 C1035 0.950 . S
C1024 H1016 0.950 . S
C1024 C1025 1.386 . S
C1024 C1026 1.391 . S
C1025 C1024 1.386 . S
C1025 C1029 1.393 . S
C1026 H1018 0.950 . S
C1026 C1024 1.391 . S
C1026 C1027 1.400 . S
C1027 C1026 1.400 . S
C1027 C1028 1.398 . S
C1027 C1033 1.491 . S
C1028 H1019 0.950 . S
C1028 C1027 1.398 . S
C1028 C1029 1.391 . S
C1029 H1017 0.950 . S
C1029 C1025 1.393 . S
C1029 C1028 1.391 . S
C1030 H1020 0.950 . S
C1030 C1031 1.386 . S
C1030 C1032 1.391 . S
C1031 C1030 1.386 . S
C1031 C1035 1.393 . S
C1032 H1021 0.950 . S
C1032 C1030 1.391 . S
C1032 C1033 1.400 . S
C1033 C1027 1.491 . S
C1033 C1032 1.400 . S
C1033 C1034 1.398 . S
C1034 H1022 0.950 . S
C1034 C1033 1.398 . S
C1034 C1035 1.391 . S
C1035 H1023 0.950 . S
C1035 C1031 1.393 . S
C1035 C1034 1.391 . S
H1036 C1044 0.950 . S
H1037 C1049 0.950 . S
H1038 C1046 0.950 . S
H1039 C1048 0.950 . S
H1040 C1050 0.950 . S
H1041 C1052 0.950 . S
H1042 C1054 0.950 . S
H1043 C1055 0.950 . S
C1044 H1036 0.950 . S
C1044 C1045 1.386 . S
C1044 C1046 1.391 . S
C1045 C1044 1.386 . S
C1045 C1049 1.393 . S
C1046 H1038 0.950 . S
C1046 C1044 1.391 . S
C1046 C1047 1.400 . S
C1047 C1046 1.400 . S
C1047 C1048 1.398 . S
C1047 C1053 1.491 . S
C1048 H1039 0.950 . S
C1048 C1047 1.398 . S
C1048 C1049 1.391 . S
C1049 H1037 0.950 . S
C1049 C1045 1.393 . S
C1049 C1048 1.391 . S
C1050 H1040 0.950 . S
C1050 C1051 1.386 . S
C1050 C1052 1.391 . S
C1051 C1050 1.386 . S
C1051 C1055 1.393 . S
C1052 H1041 0.950 . S
C1052 C1050 1.391 . S
C1052 C1053 1.400 . S
C1053 C1047 1.491 . S
C1053 C1052 1.400 . S
C1053 C1054 1.398 . S
C1054 H1042 0.950 . S
C1054 C1053 1.398 . S
C1054 C1055 1.391 . S
C1055 H1043 0.950 . S
C1055 C1051 1.393 . S
C1055 C1054 1.391 . S
H1056 C1064 0.950 . S
H1057 C1069 0.950 . S
H1058 C1066 0.950 1_565 S
H1059 C1068 0.950 . S
H1060 C1070 0.950 . S
H1061 C1072 0.950 . S
H1062 C1074 0.950 1_565 S
H1063 C1075 0.950 . S
C1064 H1056 0.950 . S
C1064 C1065 1.386 1_565 S
C1064 C1066 1.391 1_565 S
C1065 C1064 1.386 1_545 S
C1065 C1069 1.393 . S
C1066 H1058 0.950 1_545 S
C1066 C1064 1.391 1_545 S
C1066 C1067 1.400 . S
C1067 C1066 1.400 . S
C1067 C1068 1.398 . S
C1067 C1073 1.491 . S
C1068 H1059 0.950 . S
C1068 C1067 1.398 . S
C1068 C1069 1.391 . S
C1069 H1057 0.950 . S
C1069 C1065 1.393 . S
C1069 C1068 1.391 . S
C1070 H1060 0.950 . S
C1070 C1071 1.386 . S
C1070 C1072 1.391 . S
C1071 C1070 1.386 . S
C1071 C1075 1.393 . S
C1072 H1061 0.950 . S
C1072 C1070 1.391 . S
C1072 C1073 1.400 . S
C1073 C1067 1.491 . S
C1073 C1072 1.400 . S
C1073 C1074 1.398 . S
C1074 H1062 0.950 1_545 S
C1074 C1073 1.398 . S
C1074 C1075 1.391 . S
C1075 H1063 0.950 . S
C1075 C1071 1.393 . S
C1075 C1074 1.391 . S
H1076 C1084 0.950 . S
H1077 C1089 0.950 . S
H1078 C1086 0.950 . S
H1079 C1088 0.950 . S
H1080 C1090 0.950 . S
H1081 C1092 0.950 . S
H1082 C1094 0.950 . S
H1083 C1095 0.950 . S
C1084 H1076 0.950 . S
C1084 C1085 1.386 . S
C1084 C1086 1.391 . S
C1085 C1084 1.386 . S
C1085 C1089 1.393 . S
C1086 H1078 0.950 . S
C1086 C1084 1.391 . S
C1086 C1087 1.400 . S
C1087 C1086 1.400 . S
C1087 C1088 1.398 . S
C1087 C1093 1.491 . S
C1088 H1079 0.950 . S
C1088 C1087 1.398 . S
C1088 C1089 1.391 . S
C1089 H1077 0.950 . S
C1089 C1085 1.393 . S
C1089 C1088 1.391 . S
C1090 H1080 0.950 . S
C1090 C1091 1.386 . S
C1090 C1092 1.391 . S
C1091 C1090 1.386 . S
C1091 C1095 1.393 . S
C1092 H1081 0.950 . S
C1092 C1090 1.391 . S
C1092 C1093 1.400 . S
C1093 C1087 1.491 . S
C1093 C1092 1.400 . S
C1093 C1094 1.398 . S
C1094 H1082 0.950 . S
C1094 C1093 1.398 . S
C1094 C1095 1.391 . S
C1095 H1083 0.950 . S
C1095 C1091 1.393 . S
C1095 C1094 1.391 . S
H1096 C1104 0.950 . S
H1097 C1109 0.950 . S
H1098 C1106 0.950 . S
H1099 C1108 0.950 . S
H1100 C1110 0.950 . S
H1101 C1112 0.950 . S
H1102 C1114 0.950 . S
H1103 C1115 0.950 . S
C1104 H1096 0.950 . S
C1104 C1105 1.386 . S
C1104 C1106 1.391 . S
C1105 C1104 1.386 . S
C1105 C1109 1.393 . S
C1106 H1098 0.950 . S
C1106 C1104 1.391 . S
C1106 C1107 1.400 . S
C1107 C1106 1.400 . S
C1107 C1108 1.398 . S
C1107 C1113 1.491 . S
C1108 H1099 0.950 . S
C1108 C1107 1.398 . S
C1108 C1109 1.391 . S
C1109 H1097 0.950 . S
C1109 C1105 1.393 . S
C1109 C1108 1.391 . S
C1110 H1100 0.950 . S
C1110 C1111 1.386 . S
C1110 C1112 1.391 . S
C1111 C1110 1.386 . S
C1111 C1115 1.393 . S
C1112 H1101 0.950 . S
C1112 C1110 1.391 . S
C1112 C1113 1.400 . S
C1113 C1107 1.491 . S
C1113 C1112 1.400 . S
C1113 C1114 1.398 . S
C1114 H1102 0.950 . S
C1114 C1113 1.398 . S
C1114 C1115 1.391 . S
C1115 H1103 0.950 . S
C1115 C1111 1.393 . S
C1115 C1114 1.391 . S
H1116 C1124 0.950 . S
H1117 C1129 0.950 . S
H1118 C1126 0.950 . S
H1119 C1128 0.950 . S
H1120 C1130 0.950 . S
H1121 C1132 0.950 . S
H1122 C1134 0.950 . S
H1123 C1135 0.950 . S
C1124 H1116 0.950 . S
C1124 C1125 1.386 . S
C1124 C1126 1.391 . S
C1125 C1124 1.386 . S
C1125 C1129 1.393 . S
C1126 H1118 0.950 . S
C1126 C1124 1.391 . S
C1126 C1127 1.400 . S
C1127 C1126 1.400 . S
C1127 C1128 1.398 . S
C1127 C1133 1.491 . S
C1128 H1119 0.950 . S
C1128 C1127 1.398 . S
C1128 C1129 1.391 . S
C1129 H1117 0.950 . S
C1129 C1125 1.393 . S
C1129 C1128 1.391 . S
C1130 H1120 0.950 . S
C1130 C1131 1.386 . S
C1130 C1132 1.391 . S
C1131 C1130 1.386 . S
C1131 C1135 1.393 . S
C1132 H1121 0.950 . S
C1132 C1130 1.391 . S
C1132 C1133 1.400 . S
C1133 C1127 1.491 . S
C1133 C1132 1.400 . S
C1133 C1134 1.398 . S
C1134 H1122 0.950 . S
C1134 C1133 1.398 . S
C1134 C1135 1.391 . S
C1135 H1123 0.950 . S
C1135 C1131 1.393 . S
C1135 C1134 1.391 . S
H1136 C1144 0.950 . S
H1137 C1149 0.950 1_556 S
H1138 C1146 0.950 . S
H1139 C1148 0.950 1_556 S
H1140 C1150 0.913 1_556 S
H1141 C1152 0.950 1_556 S
H1142 C1154 0.950 . S
H1143 C1155 0.950 . S
C1144 H1136 0.950 . S
C1144 C1145 1.386 . S
C1144 C1146 1.391 . S
C1145 C1144 1.386 . S
C1145 C1149 1.393 . S
C1146 H1138 0.950 . S
C1146 C1144 1.391 . S
C1146 C1147 1.400 . S
C1147 C1146 1.400 . S
C1147 C1148 1.398 . S
C1147 C1153 1.491 . S
C1148 H1139 0.950 1_554 S
C1148 C1147 1.398 . S
C1148 C1149 1.391 . S
C1149 H1137 0.950 1_554 S
C1149 C1145 1.393 . S
C1149 C1148 1.391 . S
C1150 H1140 0.913 1_554 S
C1150 C1151 1.417 . S
C1150 C1152 1.397 . S
C1151 C1150 1.417 . S
C1151 C1155 1.393 . S
C1152 H1141 0.950 1_554 S
C1152 C1150 1.397 . S
C1152 C1153 1.400 . S
C1153 C1147 1.491 . S
C1153 C1152 1.400 . S
C1153 C1154 1.398 . S
C1154 H1142 0.950 . S
C1154 C1153 1.398 . S
C1154 C1155 1.391 . S
C1155 H1143 0.950 . S
C1155 C1151 1.393 . S
C1155 C1154 1.391 . S
H1156 C1164 0.950 . S
H1157 C1169 0.950 . S
H1158 C1166 0.950 . S
H1159 C1168 0.950 . S
H1160 C1170 0.950 . S
H1161 C1172 0.950 . S
H1162 C1174 0.950 . S
H1163 C1175 0.950 . S
C1164 H1156 0.950 . S
C1164 C1165 1.386 . S
C1164 C1166 1.391 . S
C1165 C1164 1.386 . S
C1165 C1169 1.393 . S
C1166 H1158 0.950 . S
C1166 C1164 1.391 . S
C1166 C1167 1.400 . S
C1167 C1166 1.400 . S
C1167 C1168 1.398 . S
C1167 C1173 1.491 . S
C1168 H1159 0.950 . S
C1168 C1167 1.398 . S
C1168 C1169 1.391 . S
C1169 H1157 0.950 . S
C1169 C1165 1.393 . S
C1169 C1168 1.391 . S
C1170 H1160 0.950 . S
C1170 C1171 1.386 . S
C1170 C1172 1.391 . S
C1171 C1170 1.386 . S
C1171 C1175 1.393 . S
C1172 H1161 0.950 . S
C1172 C1170 1.391 . S
C1172 C1173 1.400 . S
C1173 C1167 1.491 . S
C1173 C1172 1.400 . S
C1173 C1174 1.398 . S
C1174 H1162 0.950 . S
C1174 C1173 1.398 . S
C1174 C1175 1.391 . S
C1175 H1163 0.950 . S
C1175 C1171 1.393 . S
C1175 C1174 1.391 . S
H1176 C1184 0.950 . S
H1177 C1189 0.950 . S
H1178 C1186 0.950 . S
H1179 C1188 0.950 . S
H1180 C1190 0.950 . S
H1181 C1192 0.950 . S
H1182 C1194 0.950 . S
H1183 C1195 0.950 . S
C1184 H1176 0.950 . S
C1184 C1185 1.386 . S
C1184 C1186 1.391 . S
C1185 C1184 1.386 . S
C1185 C1189 1.393 . S
C1186 H1178 0.950 . S
C1186 C1184 1.391 . S
C1186 C1187 1.400 . S
C1187 C1186 1.400 . S
C1187 C1188 1.398 . S
C1187 C1193 1.491 . S
C1188 H1179 0.950 . S
C1188 C1187 1.398 . S
C1188 C1189 1.391 . S
C1189 H1177 0.950 . S
C1189 C1185 1.393 . S
C1189 C1188 1.391 . S
C1190 H1180 0.950 . S
C1190 C1191 1.386 . S
C1190 C1192 1.391 . S
C1191 C1190 1.386 . S
C1191 C1195 1.393 . S
C1192 H1181 0.950 . S
C1192 C1190 1.391 . S
C1192 C1193 1.400 . S
C1193 C1187 1.491 . S
C1193 C1192 1.400 . S
C1193 C1194 1.398 . S
C1194 H1182 0.950 . S
C1194 C1193 1.398 . S
C1194 C1195 1.391 . S
C1195 H1183 0.950 . S
C1195 C1191 1.393 . S
C1195 C1194 1.391 . S
H1196 C1204 0.950 . S
H1197 C1209 0.950 . S
H1198 C1206 0.950 . S
H1199 C1208 0.950 . S
H1200 C1210 0.950 . S
H1201 C1212 0.950 . S
H1202 C1214 0.950 . S
H1203 C1215 0.950 . S
C1204 H1196 0.950 . S
C1204 C1205 1.386 . S
C1204 C1206 1.391 . S
C1205 C1204 1.386 . S
C1205 C1209 1.393 . S
C1206 H1198 0.950 . S
C1206 C1204 1.391 . S
C1206 C1207 1.400 . S
C1207 C1206 1.400 . S
C1207 C1208 1.398 . S
C1207 C1213 1.491 . S
C1208 H1199 0.950 . S
C1208 C1207 1.398 . S
C1208 C1209 1.391 . S
C1209 H1197 0.950 . S
C1209 C1205 1.393 . S
C1209 C1208 1.391 . S
C1210 H1200 0.950 . S
C1210 C1211 1.386 . S
C1210 C1212 1.391 . S
C1211 C1210 1.386 . S
C1211 C1215 1.393 . S
C1212 H1201 0.950 . S
C1212 C1210 1.391 . S
C1212 C1213 1.400 . S
C1213 C1207 1.491 . S
C1213 C1212 1.400 . S
C1213 C1214 1.398 . S
C1214 H1202 0.950 . S
C1214 C1213 1.398 . S
C1214 C1215 1.391 . S
C1215 H1203 0.950 . S
C1215 C1211 1.393 . S
C1215 C1214 1.391 . S
H1216 C1224 0.950 . S
H1217 C1229 0.950 . S
H1218 C1226 0.950 . S
H1219 C1228 0.950 . S
H1220 C1230 0.950 . S
H1221 C1232 0.950 . S
H1222 C1234 0.950 . S
H1223 C1235 0.950 . S
C1224 H1216 0.950 . S
C1224 C1225 1.386 . S
C1224 C1226 1.391 . S
C1225 C1224 1.386 . S
C1225 C1229 1.393 . S
C1226 H1218 0.950 . S
C1226 C1224 1.391 . S
C1226 C1227 1.400 . S
C1227 C1226 1.400 . S
C1227 C1228 1.398 . S
C1227 C1233 1.491 . S
C1228 H1219 0.950 . S
C1228 C1227 1.398 . S
C1228 C1229 1.391 . S
C1229 H1217 0.950 . S
C1229 C1225 1.393 . S
C1229 C1228 1.391 . S
C1230 H1220 0.950 . S
C1230 C1231 1.386 . S
C1230 C1232 1.391 . S
C1231 C1230 1.386 . S
C1231 C1235 1.393 . S
C1232 H1221 0.950 . S
C1232 C1230 1.391 . S
C1232 C1233 1.400 . S
C1233 C1227 1.491 . S
C1233 C1232 1.400 . S
C1233 C1234 1.398 . S
C1234 H1222 0.950 . S
C1234 C1233 1.398 . S
C1234 C1235 1.391 . S
C1235 H1223 0.950 . S
C1235 C1231 1.393 . S
C1235 C1234 1.391 . S
H1236 C1244 0.950 . S
H1237 C1249 0.950 . S
H1238 C1246 0.950 . S
H1239 C1248 0.950 . S
H1240 C1250 0.950 . S
H1241 C1252 0.950 . S
H1242 C1254 0.950 1_545 S
H1243 C1255 0.950 . S
C1244 H1236 0.950 . S
C1244 C1245 1.386 . S
C1244 C1246 1.391 . S
C1245 C1244 1.386 . S
C1245 C1249 1.393 . S
C1246 H1238 0.950 . S
C1246 C1244 1.391 . S
C1246 C1247 1.400 . S
C1247 C1246 1.400 . S
C1247 C1248 1.398 . S
C1247 C1253 1.491 . S
C1248 H1239 0.950 . S
C1248 C1247 1.398 . S
C1248 C1249 1.391 . S
C1249 H1237 0.950 . S
C1249 C1245 1.393 . S
C1249 C1248 1.391 . S
C1250 H1240 0.950 . S
C1250 C1251 1.386 . S
C1250 C1252 1.391 . S
C1251 C1250 1.386 . S
C1251 C1255 1.393 1_565 S
C1252 H1241 0.950 . S
C1252 C1250 1.391 . S
C1252 C1253 1.400 . S
C1253 C1247 1.491 . S
C1253 C1252 1.400 . S
C1253 C1254 1.398 . S
C1254 H1242 0.950 1_565 S
C1254 C1253 1.398 . S
C1254 C1255 1.391 1_565 S
C1255 H1243 0.950 . S
C1255 C1251 1.393 1_545 S
C1255 C1254 1.391 1_545 S
H1256 C1264 0.950 . S
H1257 C1269 0.950 . S
H1258 C1266 0.950 . S
H1259 C1268 0.950 . S
H1260 C1270 0.950 . S
H1261 C1272 0.950 . S
H1262 C1274 0.950 . S
H1263 C1275 0.950 . S
C1264 H1256 0.950 . S
C1264 C1265 1.386 . S
C1264 C1266 1.391 . S
C1265 C1264 1.386 . S
C1265 C1269 1.393 . S
C1266 H1258 0.950 . S
C1266 C1264 1.391 . S
C1266 C1267 1.400 . S
C1267 C1266 1.400 . S
C1267 C1268 1.398 . S
C1267 C1273 1.491 . S
C1268 H1259 0.950 . S
C1268 C1267 1.398 . S
C1268 C1269 1.391 . S
C1269 H1257 0.950 . S
C1269 C1265 1.393 . S
C1269 C1268 1.391 . S
C1270 H1260 0.950 . S
C1270 C1271 1.386 . S
C1270 C1272 1.391 . S
C1271 C1270 1.386 . S
C1271 C1275 1.393 . S
C1272 H1261 0.950 . S
C1272 C1270 1.391 . S
C1272 C1273 1.400 . S
C1273 C1267 1.491 . S
C1273 C1272 1.400 . S
C1273 C1274 1.398 . S
C1274 H1262 0.950 . S
C1274 C1273 1.398 . S
C1274 C1275 1.391 . S
C1275 H1263 0.950 . S
C1275 C1271 1.393 . S
C1275 C1274 1.391 . S
H1276 C1284 0.950 . S
H1277 C1289 0.950 . S
H1278 C1286 0.950 . S
H1279 C1288 0.950 . S
H1280 C1290 0.950 . S
H1281 C1292 0.950 . S
H1282 C1294 0.950 . S
H1283 C1295 0.950 . S
C1284 H1276 0.950 . S
C1284 C1285 1.386 . S
C1284 C1286 1.391 . S
C1285 C1284 1.386 . S
C1285 C1289 1.393 . S
C1286 H1278 0.950 . S
C1286 C1284 1.391 . S
C1286 C1287 1.400 . S
C1287 C1286 1.400 . S
C1287 C1288 1.398 . S
C1287 C1293 1.491 . S
C1288 H1279 0.950 . S
C1288 C1287 1.398 . S
C1288 C1289 1.391 . S
C1289 H1277 0.950 . S
C1289 C1285 1.393 . S
C1289 C1288 1.391 . S
C1290 H1280 0.950 . S
C1290 C1291 1.386 . S
C1290 C1292 1.391 . S
C1291 C1290 1.386 . S
C1291 C1295 1.393 . S
C1292 H1281 0.950 . S
C1292 C1290 1.391 . S
C1292 C1293 1.400 . S
C1293 C1287 1.491 . S
C1293 C1292 1.400 . S
C1293 C1294 1.398 . S
C1294 H1282 0.950 . S
C1294 C1293 1.398 . S
C1294 C1295 1.391 . S
C1295 H1283 0.950 . S
C1295 C1291 1.393 . S
C1295 C1294 1.391 . S
H1296 C1304 0.950 . S
H1297 C1309 0.950 . S
H1298 C1306 0.950 . S
H1299 C1308 0.950 . S
H1300 C1310 0.950 . S
H1301 C1312 0.950 . S
H1302 C1314 0.950 1_554 S
H1303 C1315 0.950 . S
C1304 H1296 0.950 . S
C1304 C1305 1.386 . S
C1304 C1306 1.391 . S
C1305 C1304 1.386 . S
C1305 C1309 1.393 . S
C1306 H1298 0.950 . S
C1306 C1304 1.391 . S
C1306 C1307 1.400 . S
C1307 C1306 1.400 . S
C1307 C1308 1.398 . S
C1307 C1313 1.491 . S
C1308 H1299 0.950 . S
C1308 C1307 1.398 . S
C1308 C1309 1.391 . S
C1309 H1297 0.950 . S
C1309 C1305 1.393 . S
C1309 C1308 1.391 . S
C1310 H1300 0.950 . S
C1310 C1311 1.386 . S
C1310 C1312 1.391 . S
C1311 C1310 1.386 . S
C1311 C1315 1.393 1_556 S
C1312 H1301 0.950 . S
C1312 C1310 1.391 . S
C1312 C1313 1.400 . S
C1313 C1307 1.491 . S
C1313 C1312 1.400 . S
C1313 C1314 1.398 . S
C1314 H1302 0.950 1_556 S
C1314 C1313 1.398 . S
C1314 C1315 1.391 1_556 S
C1315 H1303 0.950 . S
C1315 C1311 1.393 1_554 S
C1315 C1314 1.391 1_554 S
H1316 C1324 0.950 . S
H1317 C1329 0.950 . S
H1318 C1326 0.950 . S
H1319 C1328 0.950 . S
H1320 C1330 0.950 . S
H1321 C1332 0.950 . S
H1322 C1334 0.950 . S
H1323 C1335 0.950 . S
C1324 H1316 0.950 . S
C1324 C1325 1.386 . S
C1324 C1326 1.391 . S
C1325 C1324 1.386 . S
C1325 C1329 1.393 . S
C1326 H1318 0.950 . S
C1326 C1324 1.391 . S
C1326 C1327 1.400 . S
C1327 C1326 1.400 . S
C1327 C1328 1.398 . S
C1327 C1333 1.491 . S
C1328 H1319 0.950 . S
C1328 C1327 1.398 . S
C1328 C1329 1.391 . S
C1329 H1317 0.950 . S
C1329 C1325 1.393 . S
C1329 C1328 1.391 . S
C1330 H1320 0.950 . S
C1330 C1331 1.386 . S
C1330 C1332 1.391 . S
C1331 C1330 1.386 . S
C1331 C1335 1.393 . S
C1332 H1321 0.950 . S
C1332 C1330 1.391 . S
C1332 C1333 1.400 . S
C1333 C1327 1.491 . S
C1333 C1332 1.400 . S
C1333 C1334 1.398 . S
C1334 H1322 0.950 . S
C1334 C1333 1.398 . S
C1334 C1335 1.391 . S
C1335 H1323 0.950 . S
C1335 C1331 1.393 . S
C1335 C1334 1.391 . S
H1336 C1344 0.950 . S
H1337 C1349 0.950 . S
H1338 C1346 0.950 . S
H1339 C1348 0.950 . S
H1340 C1350 0.950 . S
H1341 C1352 0.950 . S
H1342 C1354 0.950 . S
H1343 C1355 0.950 . S
C1344 H1336 0.950 . S
C1344 C1345 1.386 . S
C1344 C1346 1.391 . S
C1345 C1344 1.386 . S
C1345 C1349 1.393 . S
C1346 H1338 0.950 . S
C1346 C1344 1.391 . S
C1346 C1347 1.400 . S
C1347 C1346 1.400 . S
C1347 C1348 1.398 . S
C1347 C1353 1.491 . S
C1348 H1339 0.950 . S
C1348 C1347 1.398 . S
C1348 C1349 1.391 . S
C1349 H1337 0.950 . S
C1349 C1345 1.393 . S
C1349 C1348 1.391 . S
C1350 H1340 0.950 . S
C1350 C1351 1.386 . S
C1350 C1352 1.391 . S
C1351 C1350 1.386 . S
C1351 C1355 1.393 . S
C1352 H1341 0.950 . S
C1352 C1350 1.391 . S
C1352 C1353 1.400 . S
C1353 C1347 1.491 . S
C1353 C1352 1.400 . S
C1353 C1354 1.398 . S
C1354 H1342 0.950 . S
C1354 C1353 1.398 . S
C1354 C1355 1.391 . S
C1355 H1343 0.950 . S
C1355 C1351 1.393 . S
C1355 C1354 1.391 . S
H1356 C1364 0.950 . S
H1357 C1369 0.950 . S
H1358 C1366 0.950 . S
H1359 C1368 0.950 . S
H1360 C1370 0.950 . S
H1361 C1372 0.950 . S
H1362 C1374 0.950 . S
H1363 C1375 0.950 . S
C1364 H1356 0.950 . S
C1364 C1365 1.386 . S
C1364 C1366 1.391 . S
C1365 C1364 1.386 . S
C1365 C1369 1.393 . S
C1366 H1358 0.950 . S
C1366 C1364 1.391 . S
C1366 C1367 1.400 . S
C1367 C1366 1.400 . S
C1367 C1368 1.398 . S
C1367 C1373 1.491 . S
C1368 H1359 0.950 . S
C1368 C1367 1.398 . S
C1368 C1369 1.391 . S
C1369 H1357 0.950 . S
C1369 C1365 1.393 . S
C1369 C1368 1.391 . S
C1370 H1360 0.950 . S
C1370 C1371 1.386 . S
C1370 C1372 1.391 . S
C1371 C1370 1.386 . S
C1371 C1375 1.393 . S
C1372 H1361 0.950 . S
C1372 C1370 1.391 . S
C1372 C1373 1.400 . S
C1373 C1367 1.491 . S
C1373 C1372 1.400 . S
C1373 C1374 1.398 . S
C1374 H1362 0.950 . S
C1374 C1373 1.398 . S
C1374 C1375 1.391 . S
C1375 H1363 0.950 . S
C1375 C1371 1.393 . S
C1375 C1374 1.391 . S
H1376 C1384 0.941 1_655 S
H1377 C1389 0.950 . S
H1378 C1386 0.950 . S
H1379 C1388 0.950 . S
H1380 C1390 0.950 . S
H1381 C1392 0.950 . S
H1382 C1394 0.950 . S
H1383 C1395 0.950 . S
C1384 H1376 0.941 1_455 S
C1384 C1385 1.386 . S
C1384 C1386 1.391 . S
C1385 C1384 1.386 . S
C1385 C1389 1.393 . S
C1386 H1378 0.950 . S
C1386 C1384 1.391 . S
C1386 C1387 1.400 . S
C1387 C1386 1.400 . S
C1387 C1388 1.398 . S
C1387 C1393 1.491 . S
C1388 H1379 0.950 . S
C1388 C1387 1.398 . S
C1388 C1389 1.391 . S
C1389 H1377 0.950 . S
C1389 C1385 1.393 . S
C1389 C1388 1.391 . S
C1390 H1380 0.950 . S
C1390 C1391 1.386 . S
C1390 C1392 1.391 . S
C1391 C1390 1.386 . S
C1391 C1395 1.393 . S
C1392 H1381 0.950 . S
C1392 C1390 1.391 . S
C1392 C1393 1.400 . S
C1393 C1387 1.491 . S
C1393 C1392 1.400 . S
C1393 C1394 1.398 . S
C1394 H1382 0.950 . S
C1394 C1393 1.398 . S
C1394 C1395 1.391 . S
C1395 H1383 0.950 . S
C1395 C1391 1.393 . S
C1395 C1394 1.391 . S
H1396 C1404 0.950 . S
H1397 C1409 0.950 . S
H1398 C1406 0.950 . S
H1399 C1408 0.950 . S
H1400 C1410 0.950 . S
H1401 C1412 0.950 . S
H1402 C1414 0.950 . S
H1403 C1415 0.950 . S
C1404 H1396 0.950 . S
C1404 C1405 1.386 . S
C1404 C1406 1.391 . S
C1405 C1404 1.386 . S
C1405 C1409 1.393 . S
C1406 H1398 0.950 . S
C1406 C1404 1.391 . S
C1406 C1407 1.400 . S
C1407 C1406 1.400 . S
C1407 C1408 1.398 . S
C1407 C1413 1.491 . S
C1408 H1399 0.950 . S
C1408 C1407 1.398 . S
C1408 C1409 1.391 . S
C1409 H1397 0.950 . S
C1409 C1405 1.393 . S
C1409 C1408 1.391 . S
C1410 H1400 0.950 . S
C1410 C1411 1.386 . S
C1410 C1412 1.391 . S
C1411 C1410 1.386 . S
C1411 C1415 1.393 . S
C1412 H1401 0.950 . S
C1412 C1410 1.391 . S
C1412 C1413 1.400 . S
C1413 C1407 1.491 . S
C1413 C1412 1.400 . S
C1413 C1414 1.398 . S
C1414 H1402 0.950 . S
C1414 C1413 1.398 . S
C1414 C1415 1.391 . S
C1415 H1403 0.950 . S
C1415 C1411 1.393 . S
C1415 C1414 1.391 . S
H1416 C1424 0.950 . S
H1417 C1429 0.950 . S
H1418 C1426 0.950 . S
H1419 C1428 0.950 . S
H1420 C1430 0.950 . S
H1421 C1432 0.950 . S
H1422 C1434 0.950 . S
H1423 C1435 0.950 . S
C1424 H1416 0.950 . S
C1424 C1425 1.386 . S
C1424 C1426 1.391 . S
C1425 C1424 1.386 . S
C1425 C1429 1.393 . S
C1426 H1418 0.950 . S
C1426 C1424 1.391 . S
C1426 C1427 1.400 . S
C1427 C1426 1.400 . S
C1427 C1428 1.398 . S
C1427 C1433 1.491 . S
C1428 H1419 0.950 . S
C1428 C1427 1.398 . S
C1428 C1429 1.391 . S
C1429 H1417 0.950 . S
C1429 C1425 1.393 . S
C1429 C1428 1.391 . S
C1430 H1420 0.950 . S
C1430 C1431 1.386 . S
C1430 C1432 1.391 . S
C1431 C1430 1.386 . S
C1431 C1435 1.393 . S
C1432 H1421 0.950 . S
C1432 C1430 1.391 . S
C1432 C1433 1.400 . S
C1433 C1427 1.491 . S
C1433 C1432 1.400 . S
C1433 C1434 1.398 . S
C1434 H1422 0.950 . S
C1434 C1433 1.398 . S
C1434 C1435 1.391 . S
C1435 H1423 0.950 . S
C1435 C1431 1.393 . S
C1435 C1434 1.391 . S
H1436 C1444 0.950 . S
H1437 C1449 0.950 . S
H1438 C1446 0.950 . S
H1439 C1448 0.950 . S
H1440 C1450 0.950 . S
H1441 C1452 0.950 . S
H1442 C1454 0.950 . S
H1443 C1455 0.950 . S
C1444 H1436 0.950 . S
C1444 C1445 1.386 . S
C1444 C1446 1.391 . S
C1445 C1444 1.386 . S
C1445 C1449 1.393 . S
C1446 H1438 0.950 . S
C1446 C1444 1.391 . S
C1446 C1447 1.400 . S
C1447 C1446 1.400 . S
C1447 C1448 1.398 . S
C1447 C1453 1.491 . S
C1448 H1439 0.950 . S
C1448 C1447 1.398 . S
C1448 C1449 1.391 . S
C1449 H1437 0.950 . S
C1449 C1445 1.393 . S
C1449 C1448 1.391 . S
C1450 H1440 0.950 . S
C1450 C1451 1.386 . S
C1450 C1452 1.391 . S
C1451 C1450 1.386 . S
C1451 C1455 1.393 . S
C1452 H1441 0.950 . S
C1452 C1450 1.391 . S
C1452 C1453 1.400 . S
C1453 C1447 1.491 . S
C1453 C1452 1.400 . S
C1453 C1454 1.398 . S
C1454 H1442 0.950 . S
C1454 C1453 1.398 . S
C1454 C1455 1.391 . S
C1455 H1443 0.950 . S
C1455 C1451 1.393 . S
C1455 C1454 1.391 . S
H1456 C1464 0.950 . S
H1457 C1469 0.950 . S
H1458 C1466 0.950 . S
H1459 C1468 0.950 . S
H1460 C1470 0.949 1_455 S
H1461 C1472 0.950 . S
H1462 C1474 0.950 . S
H1463 C1475 0.950 . S
C1464 H1456 0.950 . S
C1464 C1465 1.386 . S
C1464 C1466 1.391 . S
C1465 C1464 1.386 . S
C1465 C1469 1.393 . S
C1466 H1458 0.950 . S
C1466 C1464 1.391 . S
C1466 C1467 1.400 . S
C1467 C1466 1.400 . S
C1467 C1468 1.398 . S
C1467 C1473 1.491 . S
C1468 H1459 0.950 . S
C1468 C1467 1.398 . S
C1468 C1469 1.391 . S
C1469 H1457 0.950 . S
C1469 C1465 1.393 . S
C1469 C1468 1.391 . S
C1470 H1460 0.949 1_655 S
C1470 C1471 1.386 . S
C1470 C1472 1.391 . S
C1471 C1470 1.386 . S
C1471 C1475 1.393 . S
C1472 H1461 0.950 . S
C1472 C1470 1.391 . S
C1472 C1473 1.400 . S
C1473 C1467 1.491 . S
C1473 C1472 1.400 . S
C1473 C1474 1.398 . S
C1474 H1462 0.950 . S
C1474 C1473 1.398 . S
C1474 C1475 1.391 . S
C1475 H1463 0.950 . S
C1475 C1471 1.393 . S
C1475 C1474 1.391 . S
H1476 C1484 0.950 . S
H1477 C1489 0.950 . S
H1478 C1486 0.950 . S
H1479 C1488 0.950 . S
H1480 C1490 0.950 . S
H1481 C1492 0.950 . S
H1482 C1494 0.950 . S
H1483 C1495 0.950 . S
C1484 H1476 0.950 . S
C1484 C1485 1.386 . S
C1484 C1486 1.391 . S
C1485 C1484 1.386 . S
C1485 C1489 1.393 . S
C1486 H1478 0.950 . S
C1486 C1484 1.391 . S
C1486 C1487 1.400 . S
C1487 C1486 1.400 . S
C1487 C1488 1.398 . S
C1487 C1493 1.491 . S
C1488 H1479 0.950 . S
C1488 C1487 1.398 . S
C1488 C1489 1.391 . S
C1489 H1477 0.950 . S
C1489 C1485 1.393 . S
C1489 C1488 1.391 . S
C1490 H1480 0.950 . S
C1490 C1491 1.386 . S
C1490 C1492 1.391 . S
C1491 C1490 1.386 . S
C1491 C1495 1.393 . S
C1492 H1481 0.950 . S
C1492 C1490 1.391 . S
C1492 C1493 1.400 . S
C1493 C1487 1.491 . S
C1493 C1492 1.400 . S
C1493 C1494 1.398 . S
C1494 H1482 0.950 . S
C1494 C1493 1.398 . S
C1494 C1495 1.391 . S
C1495 H1483 0.950 . S
C1495 C1491 1.393 . S
C1495 C1494 1.391 . S
H1496 C1504 0.950 . S
H1497 C1509 0.950 . S
H1498 C1506 0.950 . S
H1499 C1508 0.950 . S
H1500 C1510 0.950 . S
H1501 C1512 0.950 . S
H1502 C1514 0.950 . S
H1503 C1515 0.950 . S
C1504 H1496 0.950 . S
C1504 C1505 1.386 1_565 S
C1504 C1506 1.391 . S
C1505 C1504 1.386 1_545 S
C1505 C1509 1.393 . S
C1506 H1498 0.950 . S
C1506 C1504 1.391 . S
C1506 C1507 1.400 1_565 S
C1507 C1506 1.400 1_545 S
C1507 C1508 1.398 . S
C1507 C1513 1.491 . S
C1508 H1499 0.950 . S
C1508 C1507 1.398 . S
C1508 C1509 1.391 . S
C1509 H1497 0.950 . S
C1509 C1505 1.393 . S
C1509 C1508 1.391 . S
C1510 H1500 0.950 . S
C1510 C1511 1.386 . S
C1510 C1512 1.391 . S
C1511 C1510 1.386 . S
C1511 C1515 1.393 1_545 S
C1512 H1501 0.950 . S
C1512 C1510 1.391 . S
C1512 C1513 1.400 . S
C1513 C1507 1.491 . S
C1513 C1512 1.400 . S
C1513 C1514 1.398 1_545 S
C1514 H1502 0.950 . S
C1514 C1513 1.398 1_565 S
C1514 C1515 1.391 . S
C1515 H1503 0.950 . S
C1515 C1511 1.393 1_565 S
C1515 C1514 1.391 . S
H1516 C1524 0.950 . S
H1517 C1529 0.950 . S
H1518 C1526 0.950 . S
H1519 C1528 0.950 . S
H1520 C1530 0.950 . S
H1521 C1532 0.950 . S
H1522 C1534 0.950 . S
H1523 C1535 0.950 . S
C1524 H1516 0.950 . S
C1524 C1525 1.386 . S
C1524 C1526 1.391 . S
C1525 C1524 1.386 . S
C1525 C1529 1.393 . S
C1526 H1518 0.950 . S
C1526 C1524 1.391 . S
C1526 C1527 1.400 . S
C1527 C1526 1.400 . S
C1527 C1528 1.398 . S
C1527 C1533 1.491 . S
C1528 H1519 0.950 . S
C1528 C1527 1.398 . S
C1528 C1529 1.391 . S
C1529 H1517 0.950 . S
C1529 C1525 1.393 . S
C1529 C1528 1.391 . S
C1530 H1520 0.950 . S
C1530 C1531 1.386 . S
C1530 C1532 1.391 . S
C1531 C1530 1.386 . S
C1531 C1535 1.393 . S
C1532 H1521 0.950 . S
C1532 C1530 1.391 . S
C1532 C1533 1.400 . S
C1533 C1527 1.491 . S
C1533 C1532 1.400 . S
C1533 C1534 1.398 . S
C1534 H1522 0.950 . S
C1534 C1533 1.398 . S
C1534 C1535 1.391 . S
C1535 H1523 0.950 . S
C1535 C1531 1.393 . S
C1535 C1534 1.391 . S
H1536 C1544 0.950 . S
H1537 C1549 0.950 . S
H1538 C1546 0.950 . S
H1539 C1548 0.950 . S
H1540 C1550 0.950 1_565 S
H1541 C1552 0.963 . S
H1542 C1554 0.950 . S
H1543 C1555 0.950 . S
C1544 H1536 0.950 . S
C1544 C1545 1.386 . S
C1544 C1546 1.391 . S
C1545 C1544 1.386 . S
C1545 C1549 1.393 . S
C1546 H1538 0.950 . S
C1546 C1544 1.391 . S
C1546 C1547 1.400 . S
C1547 C1546 1.400 . S
C1547 C1548 1.398 . S
C1547 C1553 1.491 . S
C1548 H1539 0.950 . S
C1548 C1547 1.398 . S
C1548 C1549 1.391 . S
C1549 H1537 0.950 . S
C1549 C1545 1.393 . S
C1549 C1548 1.391 . S
C1550 H1540 0.950 1_545 S
C1550 C1551 1.386 . S
C1550 C1552 1.391 . S
C1551 C1550 1.386 . S
C1551 C1555 1.393 . S
C1552 H1541 0.963 . S
C1552 C1550 1.391 . S
C1552 C1553 1.400 . S
C1553 C1547 1.491 . S
C1553 C1552 1.400 . S
C1553 C1554 1.398 . S
C1554 H1542 0.950 . S
C1554 C1553 1.398 . S
C1554 C1555 1.391 . S
C1555 H1543 0.950 . S
C1555 C1551 1.393 . S
C1555 C1554 1.391 . S
H1556 C1564 0.950 . S
H1557 C1569 0.950 . S
H1558 C1566 0.950 . S
H1559 C1568 0.950 . S
H1560 C1570 0.950 . S
H1561 C1572 0.950 . S
H1562 C1574 0.950 . S
H1563 C1575 0.950 . S
C1564 H1556 0.950 . S
C1564 C1565 1.386 . S
C1564 C1566 1.391 . S
C1565 C1564 1.386 . S
C1565 C1569 1.393 . S
C1566 H1558 0.950 . S
C1566 C1564 1.391 . S
C1566 C1567 1.400 . S
C1567 C1566 1.400 . S
C1567 C1568 1.398 . S
C1567 C1573 1.491 . S
C1568 H1559 0.950 . S
C1568 C1567 1.398 . S
C1568 C1569 1.391 . S
C1569 H1557 0.950 . S
C1569 C1565 1.393 . S
C1569 C1568 1.391 . S
C1570 H1560 0.950 . S
C1570 C1571 1.386 . S
C1570 C1572 1.391 . S
C1571 C1570 1.386 . S
C1571 C1575 1.393 . S
C1572 H1561 0.950 . S
C1572 C1570 1.391 . S
C1572 C1573 1.400 . S
C1573 C1567 1.491 . S
C1573 C1572 1.400 . S
C1573 C1574 1.398 . S
C1574 H1562 0.950 . S
C1574 C1573 1.398 . S
C1574 C1575 1.391 . S
C1575 H1563 0.950 . S
C1575 C1571 1.393 . S
C1575 C1574 1.391 . S
H1576 C1584 0.950 . S
H1577 C1589 0.950 . S
H1578 C1586 0.977 . S
H1579 C1588 0.950 . S
H1580 C1590 0.950 . S
H1581 C1592 0.950 . S
H1582 C1594 0.950 1_565 S
H1583 C1595 0.950 . S
C1584 H1576 0.950 . S
C1584 C1585 1.386 1_565 S
C1584 C1586 1.401 . S
C1585 C1584 1.386 1_545 S
C1585 C1589 1.393 . S
C1586 H1578 0.977 . S
C1586 C1584 1.401 . S
C1586 C1587 1.364 1_565 S
C1587 C1586 1.364 1_545 S
C1587 C1588 1.398 . S
C1587 C1593 1.491 . S
C1588 H1579 0.950 . S
C1588 C1587 1.398 . S
C1588 C1589 1.391 . S
C1589 H1577 0.950 . S
C1589 C1585 1.393 . S
C1589 C1588 1.391 . S
C1590 H1580 0.950 . S
C1590 C1591 1.386 . S
C1590 C1592 1.391 . S
C1591 C1590 1.386 . S
C1591 C1595 1.393 . S
C1592 H1581 0.950 . S
C1592 C1590 1.391 . S
C1592 C1593 1.400 . S
C1593 C1587 1.491 . S
C1593 C1592 1.400 . S
C1593 C1594 1.398 . S
C1594 H1582 0.950 1_545 S
C1594 C1593 1.398 . S
C1594 C1595 1.391 . S
C1595 H1583 0.950 . S
C1595 C1591 1.393 . S
C1595 C1594 1.391 . S
H1596 C1604 0.950 . S
H1597 C1609 0.950 . S
H1598 C1606 0.950 . S
H1599 C1608 0.950 . S
H1600 C1610 0.950 . S
H1601 C1612 0.950 . S
H1602 C1614 0.950 . S
H1603 C1615 0.950 . S
C1604 H1596 0.950 . S
C1604 C1605 1.386 . S
C1604 C1606 1.391 . S
C1605 C1604 1.386 . S
C1605 C1609 1.393 . S
C1606 H1598 0.950 . S
C1606 C1604 1.391 . S
C1606 C1607 1.400 . S
C1607 C1606 1.400 . S
C1607 C1608 1.398 . S
C1607 C1613 1.491 . S
C1608 H1599 0.950 . S
C1608 C1607 1.398 . S
C1608 C1609 1.391 . S
C1609 H1597 0.950 . S
C1609 C1605 1.393 . S
C1609 C1608 1.391 . S
C1610 H1600 0.950 . S
C1610 C1611 1.386 . S
C1610 C1612 1.391 . S
C1611 C1610 1.386 . S
C1611 C1615 1.393 . S
C1612 H1601 0.950 . S
C1612 C1610 1.391 . S
C1612 C1613 1.400 . S
C1613 C1607 1.491 . S
C1613 C1612 1.400 . S
C1613 C1614 1.398 . S
C1614 H1602 0.950 . S
C1614 C1613 1.398 . S
C1614 C1615 1.391 . S
C1615 H1603 0.950 . S
C1615 C1611 1.393 . S
C1615 C1614 1.391 . S
H1616 C1624 0.950 . S
H1617 C1629 0.950 . S
H1618 C1626 0.950 . S
H1619 C1628 0.950 . S
H1620 C1630 0.950 . S
H1621 C1632 0.950 . S
H1622 C1634 0.954 . S
H1623 C1635 0.950 . S
C1624 H1616 0.950 . S
C1624 C1625 1.386 . S
C1624 C1626 1.391 . S
C1625 C1624 1.386 . S
C1625 C1629 1.393 . S
C1626 H1618 0.950 . S
C1626 C1624 1.391 . S
C1626 C1627 1.400 . S
C1627 C1626 1.400 . S
C1627 C1628 1.398 . S
C1627 C1633 1.491 . S
C1628 H1619 0.950 . S
C1628 C1627 1.398 . S
C1628 C1629 1.391 . S
C1629 H1617 0.950 . S
C1629 C1625 1.393 . S
C1629 C1628 1.391 . S
C1630 H1620 0.950 . S
C1630 C1631 1.386 1_565 S
C1630 C1632 1.391 . S
C1631 C1630 1.386 1_545 S
C1631 C1635 1.393 . S
C1632 H1621 0.950 . S
C1632 C1630 1.391 . S
C1632 C1633 1.400 . S
C1633 C1627 1.491 . S
C1633 C1632 1.400 . S
C1633 C1634 1.389 1_565 S
C1634 H1622 0.954 . S
C1634 C1633 1.389 1_545 S
C1634 C1635 1.396 . S
C1635 H1623 0.950 . S
C1635 C1631 1.393 . S
C1635 C1634 1.396 . S
H1636 C1644 0.950 . S
H1637 C1649 0.950 . S
H1638 C1646 0.950 . S
H1639 C1648 0.950 . S
H1640 C1650 0.950 . S
H1641 C1652 0.950 . S
H1642 C1654 0.950 . S
H1643 C1655 0.950 . S
C1644 H1636 0.950 . S
C1644 C1645 1.386 1_556 S
C1644 C1646 1.391 . S
C1645 C1644 1.386 1_554 S
C1645 C1649 1.393 . S
C1646 H1638 0.950 . S
C1646 C1644 1.391 . S
C1646 C1647 1.400 1_556 S
C1647 C1646 1.400 1_554 S
C1647 C1648 1.398 . S
C1647 C1653 1.491 . S
C1648 H1639 0.950 . S
C1648 C1647 1.398 . S
C1648 C1649 1.391 . S
C1649 H1637 0.950 . S
C1649 C1645 1.393 . S
C1649 C1648 1.391 . S
C1650 H1640 0.950 . S
C1650 C1651 1.386 . S
C1650 C1652 1.391 . S
C1651 C1650 1.386 . S
C1651 C1655 1.393 1_554 S
C1652 H1641 0.950 . S
C1652 C1650 1.391 . S
C1652 C1653 1.400 . S
C1653 C1647 1.491 . S
C1653 C1652 1.400 . S
C1653 C1654 1.398 1_554 S
C1654 H1642 0.950 . S
C1654 C1653 1.398 1_556 S
C1654 C1655 1.391 . S
C1655 H1643 0.950 . S
C1655 C1651 1.393 1_556 S
C1655 C1654 1.391 . S
H1656 C1664 0.950 . S
H1657 C1669 0.950 . S
H1658 C1666 0.950 . S
H1659 C1668 0.950 . S
H1660 C1670 0.950 . S
H1661 C1672 0.950 . S
H1662 C1674 0.950 . S
H1663 C1675 0.950 . S
C1664 H1656 0.950 . S
C1664 C1665 1.386 . S
C1664 C1666 1.391 . S
C1665 C1664 1.386 . S
C1665 C1669 1.393 . S
C1666 H1658 0.950 . S
C1666 C1664 1.391 . S
C1666 C1667 1.400 . S
C1667 C1666 1.400 . S
C1667 C1668 1.398 . S
C1667 C1673 1.491 . S
C1668 H1659 0.950 . S
C1668 C1667 1.398 . S
C1668 C1669 1.391 . S
C1669 H1657 0.950 . S
C1669 C1665 1.393 . S
C1669 C1668 1.391 . S
C1670 H1660 0.950 . S
C1670 C1671 1.386 . S
C1670 C1672 1.391 . S
C1671 C1670 1.386 . S
C1671 C1675 1.393 . S
C1672 H1661 0.950 . S
C1672 C1670 1.391 . S
C1672 C1673 1.400 . S
C1673 C1667 1.491 . S
C1673 C1672 1.400 . S
C1673 C1674 1.398 . S
C1674 H1662 0.950 . S
C1674 C1673 1.398 . S
C1674 C1675 1.391 . S
C1675 H1663 0.950 . S
C1675 C1671 1.393 . S
C1675 C1674 1.391 . S
H1676 C1684 0.950 . S
H1677 C1689 0.950 . S
H1678 C1686 0.950 . S
H1679 C1688 0.950 . S
H1680 C1690 0.950 . S
H1681 C1692 0.950 . S
H1682 C1694 0.950 . S
H1683 C1695 0.950 . S
C1684 H1676 0.950 . S
C1684 C1685 1.386 . S
C1684 C1686 1.391 . S
C1685 C1684 1.386 . S
C1685 C1689 1.393 . S
C1686 H1678 0.950 . S
C1686 C1684 1.391 . S
C1686 C1687 1.400 . S
C1687 C1686 1.400 . S
C1687 C1688 1.398 . S
C1687 C1693 1.491 . S
C1688 H1679 0.950 . S
C1688 C1687 1.398 . S
C1688 C1689 1.391 . S
C1689 H1677 0.950 . S
C1689 C1685 1.393 . S
C1689 C1688 1.391 . S
C1690 H1680 0.950 . S
C1690 C1691 1.386 . S
C1690 C1692 1.391 . S
C1691 C1690 1.386 . S
C1691 C1695 1.393 . S
C1692 H1681 0.950 . S
C1692 C1690 1.391 . S
C1692 C1693 1.400 . S
C1693 C1687 1.491 . S
C1693 C1692 1.400 . S
C1693 C1694 1.398 . S
C1694 H1682 0.950 . S
C1694 C1693 1.398 . S
C1694 C1695 1.391 . S
C1695 H1683 0.950 . S
C1695 C1691 1.393 . S
C1695 C1694 1.391 . S
H1696 C1704 0.950 . S
H1697 C1709 0.950 . S
H1698 C1706 0.950 . S
H1699 C1708 0.950 . S
H1700 C1710 0.950 . S
H1701 C1712 0.950 . S
H1702 C1714 0.950 . S
H1703 C1715 0.950 . S
C1704 H1696 0.950 . S
C1704 C1705 1.386 . S
C1704 C1706 1.391 . S
C1705 C1704 1.386 . S
C1705 C1709 1.393 . S
C1706 H1698 0.950 . S
C1706 C1704 1.391 . S
C1706 C1707 1.400 . S
C1707 C1706 1.400 . S
C1707 C1708 1.398 . S
C1707 C1713 1.491 . S
C1708 H1699 0.950 . S
C1708 C1707 1.398 . S
C1708 C1709 1.391 . S
C1709 H1697 0.950 . S
C1709 C1705 1.393 . S
C1709 C1708 1.391 . S
C1710 H1700 0.950 . S
C1710 C1711 1.386 . S
C1710 C1712 1.391 . S
C1711 C1710 1.386 . S
C1711 C1715 1.393 . S
C1712 H1701 0.950 . S
C1712 C1710 1.391 . S
C1712 C1713 1.400 . S
C1713 C1707 1.491 . S
C1713 C1712 1.400 . S
C1713 C1714 1.398 . S
C1714 H1702 0.950 . S
C1714 C1713 1.398 . S
C1714 C1715 1.391 . S
C1715 H1703 0.950 . S
C1715 C1711 1.393 . S
C1715 C1714 1.391 . S
H1716 C1724 0.950 . S
H1717 C1729 0.950 . S
H1718 C1726 0.950 . S
H1719 C1728 0.950 . S
H1720 C1730 0.950 . S
H1721 C1732 0.950 . S
H1722 C1734 0.950 . S
H1723 C1735 0.950 . S
C1724 H1716 0.950 . S
C1724 C1725 1.386 . S
C1724 C1726 1.391 . S
C1725 C1724 1.386 . S
C1725 C1729 1.393 . S
C1726 H1718 0.950 . S
C1726 C1724 1.391 . S
C1726 C1727 1.400 . S
C1727 C1726 1.400 . S
C1727 C1728 1.398 . S
C1727 C1733 1.491 . S
C1728 H1719 0.950 . S
C1728 C1727 1.398 . S
C1728 C1729 1.391 . S
C1729 H1717 0.950 . S
C1729 C1725 1.393 . S
C1729 C1728 1.391 . S
C1730 H1720 0.950 . S
C1730 C1731 1.386 . S
C1730 C1732 1.391 . S
C1731 C1730 1.386 . S
C1731 C1735 1.393 . S
C1732 H1721 0.950 . S
C1732 C1730 1.391 . S
C1732 C1733 1.400 . S
C1733 C1727 1.491 . S
C1733 C1732 1.400 . S
C1733 C1734 1.398 . S
C1734 H1722 0.950 . S
C1734 C1733 1.398 . S
C1734 C1735 1.391 . S
C1735 H1723 0.950 . S
C1735 C1731 1.393 . S
C1735 C1734 1.391 . S
H1736 C1744 0.950 . S
H1737 C1749 0.950 . S
H1738 C1746 0.950 . S
H1739 C1748 0.950 . S
H1740 C1750 0.950 . S
H1741 C1752 0.950 . S
H1742 C1754 0.950 . S
H1743 C1755 0.950 . S
C1744 H1736 0.950 . S
C1744 C1745 1.386 . S
C1744 C1746 1.391 . S
C1745 C1744 1.386 . S
C1745 C1749 1.393 . S
C1746 H1738 0.950 . S
C1746 C1744 1.391 . S
C1746 C1747 1.400 . S
C1747 C1746 1.400 . S
C1747 C1748 1.398 . S
C1747 C1753 1.491 . S
C1748 H1739 0.950 . S
C1748 C1747 1.398 . S
C1748 C1749 1.391 . S
C1749 H1737 0.950 . S
C1749 C1745 1.393 . S
C1749 C1748 1.391 . S
C1750 H1740 0.950 . S
C1750 C1751 1.386 . S
C1750 C1752 1.391 . S
C1751 C1750 1.386 . S
C1751 C1755 1.393 . S
C1752 H1741 0.950 . S
C1752 C1750 1.391 . S
C1752 C1753 1.400 . S
C1753 C1747 1.491 . S
C1753 C1752 1.400 . S
C1753 C1754 1.398 . S
C1754 H1742 0.950 . S
C1754 C1753 1.398 . S
C1754 C1755 1.391 . S
C1755 H1743 0.950 . S
C1755 C1751 1.393 . S
C1755 C1754 1.391 . S
H1756 C1764 0.950 . S
H1757 C1769 0.950 . S
H1758 C1766 0.950 . S
H1759 C1768 0.950 . S
H1760 C1770 0.950 . S
H1761 C1772 0.950 . S
H1762 C1774 0.950 . S
H1763 C1775 0.950 . S
C1764 H1756 0.950 . S
C1764 C1765 1.386 . S
C1764 C1766 1.391 . S
C1765 C1764 1.386 . S
C1765 C1769 1.393 . S
C1766 H1758 0.950 . S
C1766 C1764 1.391 . S
C1766 C1767 1.400 . S
C1767 C1766 1.400 . S
C1767 C1768 1.398 . S
C1767 C1773 1.491 . S
C1768 H1759 0.950 . S
C1768 C1767 1.398 . S
C1768 C1769 1.391 . S
C1769 H1757 0.950 . S
C1769 C1765 1.393 . S
C1769 C1768 1.391 . S
C1770 H1760 0.950 . S
C1770 C1771 1.386 . S
C1770 C1772 1.391 . S
C1771 C1770 1.386 . S
C1771 C1775 1.393 . S
C1772 H1761 0.950 . S
C1772 C1770 1.391 . S
C1772 C1773 1.400 . S
C1773 C1767 1.491 . S
C1773 C1772 1.400 . S
C1773 C1774 1.398 . S
C1774 H1762 0.950 . S
C1774 C1773 1.398 . S
C1774 C1775 1.391 . S
C1775 H1763 0.950 . S
C1775 C1771 1.393 . S
C1775 C1774 1.391 . S
H1776 C1784 0.950 . S
H1777 C1789 0.950 . S
H1778 C1786 0.950 . S
H1779 C1788 0.950 . S
H1780 C1790 0.950 . S
H1781 C1792 0.950 . S
H1782 C1794 0.950 . S
H1783 C1795 0.950 . S
C1784 H1776 0.950 . S
C1784 C1785 1.386 . S
C1784 C1786 1.391 . S
C1785 C1784 1.386 . S
C1785 C1789 1.393 . S
C1786 H1778 0.950 . S
C1786 C1784 1.391 . S
C1786 C1787 1.400 . S
C1787 C1786 1.400 . S
C1787 C1788 1.398 . S
C1787 C1793 1.491 . S
C1788 H1779 0.950 . S
C1788 C1787 1.398 . S
C1788 C1789 1.391 . S
C1789 H1777 0.950 . S
C1789 C1785 1.393 . S
C1789 C1788 1.391 . S
C1790 H1780 0.950 . S
C1790 C1791 1.386 . S
C1790 C1792 1.391 . S
C1791 C1790 1.386 . S
C1791 C1795 1.393 . S
C1792 H1781 0.950 . S
C1792 C1790 1.391 . S
C1792 C1793 1.400 . S
C1793 C1787 1.491 . S
C1793 C1792 1.400 . S
C1793 C1794 1.398 . S
C1794 H1782 0.950 . S
C1794 C1793 1.398 . S
C1794 C1795 1.391 . S
C1795 H1783 0.950 . S
C1795 C1791 1.393 . S
C1795 C1794 1.391 . S
H1796 C1804 0.950 . S
H1797 C1809 0.950 . S
H1798 C1806 0.950 . S
H1799 C1808 0.950 . S
H1800 C1810 0.950 . S
H1801 C1812 0.950 . S
H1802 C1814 0.950 . S
H1803 C1815 0.950 . S
C1804 H1796 0.950 . S
C1804 C1805 1.386 . S
C1804 C1806 1.391 . S
C1805 C1804 1.386 . S
C1805 C1809 1.393 . S
C1806 H1798 0.950 . S
C1806 C1804 1.391 . S
C1806 C1807 1.400 . S
C1807 C1806 1.400 . S
C1807 C1808 1.398 . S
C1807 C1813 1.491 . S
C1808 H1799 0.950 . S
C1808 C1807 1.398 . S
C1808 C1809 1.391 . S
C1809 H1797 0.950 . S
C1809 C1805 1.393 . S
C1809 C1808 1.391 . S
C1810 H1800 0.950 . S
C1810 C1811 1.386 . S
C1810 C1812 1.391 . S
C1811 C1810 1.386 . S
C1811 C1815 1.393 . S
C1812 H1801 0.950 . S
C1812 C1810 1.391 . S
C1812 C1813 1.400 . S
C1813 C1807 1.491 . S
C1813 C1812 1.400 . S
C1813 C1814 1.398 . S
C1814 H1802 0.950 . S
C1814 C1813 1.398 . S
C1814 C1815 1.391 . S
C1815 H1803 0.950 . S
C1815 C1811 1.393 . S
C1815 C1814 1.391 . S
H1816 C1824 0.950 1_655 S
H1817 C1829 0.950 . S
H1818 C1826 0.950 1_655 S
H1819 C1828 0.950 . S
H1820 C1830 0.950 . S
H1821 C1832 0.950 . S
H1822 C1834 0.950 1_655 S
H1823 C1835 0.950 . S
C1824 H1816 0.950 1_455 S
C1824 C1825 1.386 . S
C1824 C1826 1.391 . S
C1825 C1824 1.386 . S
C1825 C1829 1.393 . S
C1826 H1818 0.950 1_455 S
C1826 C1824 1.391 . S
C1826 C1827 1.400 . S
C1827 C1826 1.400 . S
C1827 C1828 1.398 . S
C1827 C1833 1.491 . S
C1828 H1819 0.950 . S
C1828 C1827 1.398 . S
C1828 C1829 1.391 . S
C1829 H1817 0.950 . S
C1829 C1825 1.393 . S
C1829 C1828 1.391 . S
C1830 H1820 0.950 . S
C1830 C1831 1.386 . S
C1830 C1832 1.391 . S
C1831 C1830 1.386 . S
C1831 C1835 1.393 . S
C1832 H1821 0.950 . S
C1832 C1830 1.391 . S
C1832 C1833 1.400 . S
C1833 C1827 1.491 . S
C1833 C1832 1.400 . S
C1833 C1834 1.398 . S
C1834 H1822 0.950 1_455 S
C1834 C1833 1.398 . S
C1834 C1835 1.391 . S
C1835 H1823 0.950 . S
C1835 C1831 1.393 . S
C1835 C1834 1.391 . S
H1836 C1844 0.950 1_455 S
H1837 C1849 0.950 . S
H1838 C1846 0.950 . S
H1839 C1848 0.950 . S
H1840 C1850 0.950 . S
H1841 C1852 0.950 . S
H1842 C1854 0.950 . S
H1843 C1855 0.950 . S
C1844 H1836 0.950 1_655 S
C1844 C1845 1.386 . S
C1844 C1846 1.391 . S
C1845 C1844 1.386 . S
C1845 C1849 1.393 . S
C1846 H1838 0.950 . S
C1846 C1844 1.391 . S
C1846 C1847 1.400 . S
C1847 C1846 1.400 . S
C1847 C1848 1.398 . S
C1847 C1853 1.491 . S
C1848 H1839 0.950 . S
C1848 C1847 1.398 . S
C1848 C1849 1.391 . S
C1849 H1837 0.950 . S
C1849 C1845 1.393 . S
C1849 C1848 1.391 . S
C1850 H1840 0.950 . S
C1850 C1851 1.386 . S
C1850 C1852 1.391 . S
C1851 C1850 1.386 . S
C1851 C1855 1.393 . S
C1852 H1841 0.950 . S
C1852 C1850 1.391 . S
C1852 C1853 1.400 . S
C1853 C1847 1.491 . S
C1853 C1852 1.400 . S
C1853 C1854 1.398 . S
C1854 H1842 0.950 . S
C1854 C1853 1.398 . S
C1854 C1855 1.391 . S
C1855 H1843 0.950 . S
C1855 C1851 1.393 . S
C1855 C1854 1.391 . S
H1856 C1864 0.950 . S
H1857 C1869 0.950 . S
H1858 C1866 0.950 . S
H1859 C1868 0.950 . S
H1860 C1870 0.950 . S
H1861 C1872 0.969 . S
H1862 C1874 0.950 . S
H1863 C1875 0.950 . S
C1864 H1856 0.950 . S
C1864 C1865 1.386 . S
C1864 C1866 1.391 . S
C1865 C1864 1.386 . S
C1865 C1869 1.393 . S
C1866 H1858 0.950 . S
C1866 C1864 1.391 . S
C1866 C1867 1.400 . S
C1867 C1866 1.400 . S
C1867 C1868 1.398 . S
C1867 C1873 1.491 . S
C1868 H1859 0.950 . S
C1868 C1867 1.398 . S
C1868 C1869 1.391 . S
C1869 H1857 0.950 . S
C1869 C1865 1.393 . S
C1869 C1868 1.391 . S
C1870 H1860 0.950 . S
C1870 C1871 1.386 1_554 S
C1870 C1872 1.391 1_554 S
C1871 C1870 1.386 1_556 S
C1871 C1875 1.393 . S
C1872 H1861 0.969 . S
C1872 C1870 1.391 1_556 S
C1872 C1873 1.400 . S
C1873 C1867 1.491 . S
C1873 C1872 1.400 . S
C1873 C1874 1.398 . S
C1874 H1862 0.950 . S
C1874 C1873 1.398 . S
C1874 C1875 1.391 . S
C1875 H1863 0.950 . S
C1875 C1871 1.393 . S
C1875 C1874 1.391 . S
H1876 C1884 0.950 . S
H1877 C1889 0.950 . S
H1878 C1886 0.950 . S
H1879 C1888 0.950 . S
H1880 C1890 0.950 . S
H1881 C1892 0.950 . S
H1882 C1894 0.950 . S
H1883 C1895 0.950 . S
C1884 H1876 0.950 . S
C1884 C1885 1.386 . S
C1884 C1886 1.391 . S
C1885 C1884 1.386 . S
C1885 C1889 1.393 . S
C1886 H1878 0.950 . S
C1886 C1884 1.391 . S
C1886 C1887 1.400 . S
C1887 C1886 1.400 . S
C1887 C1888 1.398 . S
C1887 C1893 1.491 . S
C1888 H1879 0.950 . S
C1888 C1887 1.398 . S
C1888 C1889 1.391 . S
C1889 H1877 0.950 . S
C1889 C1885 1.393 . S
C1889 C1888 1.391 . S
C1890 H1880 0.950 . S
C1890 C1891 1.386 . S
C1890 C1892 1.391 . S
C1891 C1890 1.386 . S
C1891 C1895 1.393 . S
C1892 H1881 0.950 . S
C1892 C1890 1.391 . S
C1892 C1893 1.400 . S
C1893 C1887 1.491 . S
C1893 C1892 1.400 . S
C1893 C1894 1.398 . S
C1894 H1882 0.950 . S
C1894 C1893 1.398 . S
C1894 C1895 1.391 . S
C1895 H1883 0.950 . S
C1895 C1891 1.393 . S
C1895 C1894 1.391 . S
H1896 C1904 0.950 . S
H1897 C1909 0.950 . S
H1898 C1906 0.950 . S
H1899 C1908 0.950 . S
H1900 C1910 0.950 . S
H1901 C1912 0.950 . S
H1902 C1914 0.950 . S
H1903 C1915 0.950 . S
C1904 H1896 0.950 . S
C1904 C1905 1.386 . S
C1904 C1906 1.391 . S
C1905 C1904 1.386 . S
C1905 C1909 1.393 . S
C1906 H1898 0.950 . S
C1906 C1904 1.391 . S
C1906 C1907 1.400 . S
C1907 C1906 1.400 . S
C1907 C1908 1.398 . S
C1907 C1913 1.491 . S
C1908 H1899 0.950 . S
C1908 C1907 1.398 . S
C1908 C1909 1.391 . S
C1909 H1897 0.950 . S
C1909 C1905 1.393 . S
C1909 C1908 1.391 . S
C1910 H1900 0.950 . S
C1910 C1911 1.386 . S
C1910 C1912 1.391 . S
C1911 C1910 1.386 . S
C1911 C1915 1.393 . S
C1912 H1901 0.950 . S
C1912 C1910 1.391 . S
C1912 C1913 1.400 . S
C1913 C1907 1.491 . S
C1913 C1912 1.400 . S
C1913 C1914 1.398 . S
C1914 H1902 0.950 . S
C1914 C1913 1.398 . S
C1914 C1915 1.391 . S
C1915 H1903 0.950 . S
C1915 C1911 1.393 . S
C1915 C1914 1.391 . S
H1916 C1924 0.950 . S
H1917 C1929 0.950 . S
H1918 C1926 0.950 . S
H1919 C1928 0.950 . S
H1920 C1930 0.950 . S
H1921 C1932 0.950 . S
H1922 C1934 0.950 . S
H1923 C1935 0.950 . S
C1924 H1916 0.950 . S
C1924 C1925 1.386 . S
C1924 C1926 1.391 . S
C1925 C1924 1.386 . S
C1925 C1929 1.393 . S
C1926 H1918 0.950 . S
C1926 C1924 1.391 . S
C1926 C1927 1.400 . S
C1927 C1926 1.400 . S
C1927 C1928 1.398 . S
C1927 C1933 1.491 . S
C1928 H1919 0.950 . S
C1928 C1927 1.398 . S
C1928 C1929 1.391 . S
C1929 H1917 0.950 . S
C1929 C1925 1.393 . S
C1929 C1928 1.391 . S
C1930 H1920 0.950 . S
C1930 C1931 1.386 . S
C1930 C1932 1.391 . S
C1931 C1930 1.386 . S
C1931 C1935 1.393 . S
C1932 H1921 0.950 . S
C1932 C1930 1.391 . S
C1932 C1933 1.400 . S
C1933 C1927 1.491 . S
C1933 C1932 1.400 . S
C1933 C1934 1.398 . S
C1934 H1922 0.950 . S
C1934 C1933 1.398 . S
C1934 C1935 1.391 . S
C1935 H1923 0.950 . S
C1935 C1931 1.393 . S
C1935 C1934 1.391 . S
H1936 C1944 0.950 . S
H1937 C1949 0.950 . S
H1938 C1946 0.950 . S
H1939 C1948 0.950 . S
H1940 C1950 0.950 . S
H1941 C1952 0.950 . S
H1942 C1954 0.950 . S
H1943 C1955 0.950 . S
C1944 H1936 0.950 . S
C1944 C1945 1.386 . S
C1944 C1946 1.391 . S
C1945 C1944 1.386 . S
C1945 C1949 1.393 . S
C1946 H1938 0.950 . S
C1946 C1944 1.391 . S
C1946 C1947 1.400 . S
C1947 C1946 1.400 . S
C1947 C1948 1.398 . S
C1947 C1953 1.491 . S
C1948 H1939 0.950 . S
C1948 C1947 1.398 . S
C1948 C1949 1.391 . S
C1949 H1937 0.950 . S
C1949 C1945 1.393 . S
C1949 C1948 1.391 . S
C1950 H1940 0.950 . S
C1950 C1951 1.386 . S
C1950 C1952 1.391 . S
C1951 C1950 1.386 . S
C1951 C1955 1.393 . S
C1952 H1941 0.950 . S
C1952 C1950 1.391 . S
C1952 C1953 1.400 . S
C1953 C1947 1.491 . S
C1953 C1952 1.400 . S
C1953 C1954 1.398 . S
C1954 H1942 0.950 . S
C1954 C1953 1.398 . S
C1954 C1955 1.391 . S
C1955 H1943 0.950 . S
C1955 C1951 1.393 . S
C1955 C1954 1.391 . S
H1956 C1964 0.950 . S
H1957 C1969 0.950 . S
H1958 C1966 0.950 . S
H1959 C1968 0.950 . S
H1960 C1970 0.950 . S
H1961 C1972 0.950 . S
H1962 C1974 0.950 . S
H1963 C1975 0.950 . S
C1964 H1956 0.950 . S
C1964 C1965 1.386 . S
C1964 C1966 1.391 . S
C1965 C1964 1.386 . S
C1965 C1969 1.393 . S
C1966 H1958 0.950 . S
C1966 C1964 1.391 . S
C1966 C1967 1.400 . S
C1967 C1966 1.400 . S
C1967 C1968 1.398 . S
C1967 C1973 1.491 . S
C1968 H1959 0.950 . S
C1968 C1967 1.398 . S
C1968 C1969 1.391 . S
C1969 H1957 0.950 . S
C1969 C1965 1.393 . S
C1969 C1968 1.391 . S
C1970 H1960 0.950 . S
C1970 C1971 1.386 . S
C1970 C1972 1.391 . S
C1971 C1970 1.386 . S
C1971 C1975 1.393 . S
C1972 H1961 0.950 . S
C1972 C1970 1.391 . S
C1972 C1973 1.400 . S
C1973 C1967 1.491 . S
C1973 C1972 1.400 . S
C1973 C1974 1.398 . S
C1974 H1962 0.950 . S
C1974 C1973 1.398 . S
C1974 C1975 1.391 . S
C1975 H1963 0.950 . S
C1975 C1971 1.393 . S
C1975 C1974 1.391 . S
H1976 C1984 0.950 . S
H1977 C1989 0.950 . S
H1978 C1986 0.950 . S
H1979 C1988 0.950 . S
H1980 C1990 0.950 . S
H1981 C1992 0.950 . S
H1982 C1994 0.950 . S
H1983 C1995 0.950 . S
C1984 H1976 0.950 . S
C1984 C1985 1.386 . S
C1984 C1986 1.391 . S
C1985 C1984 1.386 . S
C1985 C1989 1.393 . S
C1986 H1978 0.950 . S
C1986 C1984 1.391 . S
C1986 C1987 1.400 . S
C1987 C1986 1.400 . S
C1987 C1988 1.398 . S
C1987 C1993 1.491 . S
C1988 H1979 0.950 . S
C1988 C1987 1.398 . S
C1988 C1989 1.391 . S
C1989 H1977 0.950 . S
C1989 C1985 1.393 . S
C1989 C1988 1.391 . S
C1990 H1980 0.950 . S
C1990 C1991 1.386 . S
C1990 C1992 1.391 . S
C1991 C1990 1.386 . S
C1991 C1995 1.393 1_655 S
C1992 H1981 0.950 . S
C1992 C1990 1.391 . S
C1992 C1993 1.400 . S
C1993 C1987 1.491 . S
C1993 C1992 1.400 . S
C1993 C1994 1.398 . S
C1994 H1982 0.950 . S
C1994 C1993 1.398 . S
C1994 C1995 1.391 1_655 S
C1995 H1983 0.950 . S
C1995 C1991 1.393 1_455 S
C1995 C1994 1.391 1_455 S
H1996 C2004 0.950 . S
H1997 C2009 0.950 . S
H1998 C2006 0.950 . S
H1999 C2008 0.950 . S
H2000 C2010 0.950 . S
H2001 C2012 0.950 . S
H2002 C2014 0.950 . S
H2003 C2015 0.950 . S
C2004 H1996 0.950 . S
C2004 C2005 1.386 . S
C2004 C2006 1.391 . S
C2005 C2004 1.386 . S
C2005 C2009 1.393 . S
C2006 H1998 0.950 . S
C2006 C2004 1.391 . S
C2006 C2007 1.400 . S
C2007 C2006 1.400 . S
C2007 C2008 1.398 . S
C2007 C2013 1.491 . S
C2008 H1999 0.950 . S
C2008 C2007 1.398 . S
C2008 C2009 1.391 . S
C2009 H1997 0.950 . S
C2009 C2005 1.393 . S
C2009 C2008 1.391 . S
C2010 H2000 0.950 . S
C2010 C2011 1.386 . S
C2010 C2012 1.391 . S
C2011 C2010 1.386 . S
C2011 C2015 1.393 . S
C2012 H2001 0.950 . S
C2012 C2010 1.391 . S
C2012 C2013 1.400 . S
C2013 C2007 1.491 . S
C2013 C2012 1.400 . S
C2013 C2014 1.398 . S
C2014 H2002 0.950 . S
C2014 C2013 1.398 . S
C2014 C2015 1.391 . S
C2015 H2003 0.950 . S
C2015 C2011 1.393 . S
C2015 C2014 1.391 . S
H2016 C2024 0.950 . S
H2017 C2029 0.950 . S
H2018 C2026 0.950 . S
H2019 C2028 0.950 . S
H2020 C2030 0.950 . S
H2021 C2032 0.950 . S
H2022 C2034 0.950 . S
H2023 C2035 0.950 . S
C2024 H2016 0.950 . S
C2024 C2025 1.386 . S
C2024 C2026 1.391 . S
C2025 C2024 1.386 . S
C2025 C2029 1.393 . S
C2026 H2018 0.950 . S
C2026 C2024 1.391 . S
C2026 C2027 1.400 . S
C2027 C2026 1.400 . S
C2027 C2028 1.398 . S
C2027 C2033 1.491 . S
C2028 H2019 0.950 . S
C2028 C2027 1.398 . S
C2028 C2029 1.391 . S
C2029 H2017 0.950 . S
C2029 C2025 1.393 . S
C2029 C2028 1.391 . S
C2030 H2020 0.950 . S
C2030 C2031 1.386 . S
C2030 C2032 1.391 . S
C2031 C2030 1.386 . S
C2031 C2035 1.393 . S
C2032 H2021 0.950 . S
C2032 C2030 1.391 . S
C2032 C2033 1.400 . S
C2033 C2027 1.491 . S
C2033 C2032 1.400 . S
C2033 C2034 1.398 . S
C2034 H2022 0.950 . S
C2034 C2033 1.398 . S
C2034 C2035 1.391 . S
C2035 H2023 0.950 . S
C2035 C2031 1.393 . S
C2035 C2034 1.391 . S
H2036 C2044 0.950 . S
H2037 C2049 0.950 . S
H2038 C2046 0.950 . S
H2039 C2048 0.950 . S
H2040 C2050 0.950 . S
H2041 C2052 0.950 . S
H2042 C2054 0.950 . S
H2043 C2055 0.950 . S
C2044 H2036 0.950 . S
C2044 C2045 1.386 . S
C2044 C2046 1.391 . S
C2045 C2044 1.386 . S
C2045 C2049 1.393 . S
C2046 H2038 0.950 . S
C2046 C2044 1.391 . S
C2046 C2047 1.400 . S
C2047 C2046 1.400 . S
C2047 C2048 1.398 . S
C2047 C2053 1.491 . S
C2048 H2039 0.950 . S
C2048 C2047 1.398 . S
C2048 C2049 1.391 . S
C2049 H2037 0.950 . S
C2049 C2045 1.393 . S
C2049 C2048 1.391 . S
C2050 H2040 0.950 . S
C2050 C2051 1.386 . S
C2050 C2052 1.391 . S
C2051 C2050 1.386 . S
C2051 C2055 1.393 . S
C2052 H2041 0.950 . S
C2052 C2050 1.391 . S
C2052 C2053 1.400 . S
C2053 C2047 1.491 . S
C2053 C2052 1.400 . S
C2053 C2054 1.398 . S
C2054 H2042 0.950 . S
C2054 C2053 1.398 . S
C2054 C2055 1.391 . S
C2055 H2043 0.950 . S
C2055 C2051 1.393 . S
C2055 C2054 1.391 . S
H2056 C2064 0.950 . S
H2057 C2069 0.950 . S
H2058 C2066 0.950 . S
H2059 C2068 0.950 . S
H2060 C2070 0.950 . S
H2061 C2072 0.950 . S
H2062 C2074 0.950 . S
H2063 C2075 0.950 . S
C2064 H2056 0.950 . S
C2064 C2065 1.386 . S
C2064 C2066 1.391 . S
C2065 C2064 1.386 . S
C2065 C2069 1.393 . S
C2066 H2058 0.950 . S
C2066 C2064 1.391 . S
C2066 C2067 1.400 . S
C2067 C2066 1.400 . S
C2067 C2068 1.398 . S
C2067 C2073 1.491 . S
C2068 H2059 0.950 . S
C2068 C2067 1.398 . S
C2068 C2069 1.391 . S
C2069 H2057 0.950 . S
C2069 C2065 1.393 . S
C2069 C2068 1.391 . S
C2070 H2060 0.950 . S
C2070 C2071 1.386 . S
C2070 C2072 1.391 . S
C2071 C2070 1.386 . S
C2071 C2075 1.393 . S
C2072 H2061 0.950 . S
C2072 C2070 1.391 . S
C2072 C2073 1.400 . S
C2073 C2067 1.491 . S
C2073 C2072 1.400 . S
C2073 C2074 1.398 . S
C2074 H2062 0.950 . S
C2074 C2073 1.398 . S
C2074 C2075 1.391 . S
C2075 H2063 0.950 . S
C2075 C2071 1.393 . S
C2075 C2074 1.391 . S
H2076 C2084 0.950 . S
H2077 C2089 0.950 . S
H2078 C2086 0.950 . S
H2079 C2088 0.950 . S
H2080 C2090 0.950 . S
H2081 C2092 0.950 . S
H2082 C2094 0.950 . S
H2083 C2095 0.950 . S
C2084 H2076 0.950 . S
C2084 C2085 1.386 . S
C2084 C2086 1.391 . S
C2085 C2084 1.386 . S
C2085 C2089 1.393 . S
C2086 H2078 0.950 . S
C2086 C2084 1.391 . S
C2086 C2087 1.400 . S
C2087 C2086 1.400 . S
C2087 C2088 1.398 . S
C2087 C2093 1.491 . S
C2088 H2079 0.950 . S
C2088 C2087 1.398 . S
C2088 C2089 1.391 . S
C2089 H2077 0.950 . S
C2089 C2085 1.393 . S
C2089 C2088 1.391 . S
C2090 H2080 0.950 . S
C2090 C2091 1.386 . S
C2090 C2092 1.391 . S
C2091 C2090 1.386 . S
C2091 C2095 1.393 . S
C2092 H2081 0.950 . S
C2092 C2090 1.391 . S
C2092 C2093 1.400 . S
C2093 C2087 1.491 . S
C2093 C2092 1.400 . S
C2093 C2094 1.398 . S
C2094 H2082 0.950 . S
C2094 C2093 1.398 . S
C2094 C2095 1.391 . S
C2095 H2083 0.950 . S
C2095 C2091 1.393 . S
C2095 C2094 1.391 . S
H2096 C2104 0.950 . S
H2097 C2109 0.950 . S
H2098 C2106 0.950 . S
H2099 C2108 0.950 . S
H2100 C2110 0.950 . S
H2101 C2112 0.950 . S
H2102 C2114 0.950 . S
H2103 C2115 0.950 . S
C2104 H2096 0.950 . S
C2104 C2105 1.386 . S
C2104 C2106 1.391 . S
C2105 C2104 1.386 . S
C2105 C2109 1.393 . S
C2106 H2098 0.950 . S
C2106 C2104 1.391 . S
C2106 C2107 1.400 . S
C2107 C2106 1.400 . S
C2107 C2108 1.398 . S
C2107 C2113 1.491 . S
C2108 H2099 0.950 . S
C2108 C2107 1.398 . S
C2108 C2109 1.391 . S
C2109 H2097 0.950 . S
C2109 C2105 1.393 . S
C2109 C2108 1.391 . S
C2110 H2100 0.950 . S
C2110 C2111 1.386 . S
C2110 C2112 1.391 . S
C2111 C2110 1.386 . S
C2111 C2115 1.393 . S
C2112 H2101 0.950 . S
C2112 C2110 1.391 . S
C2112 C2113 1.400 . S
C2113 C2107 1.491 . S
C2113 C2112 1.400 . S
C2113 C2114 1.398 . S
C2114 H2102 0.950 . S
C2114 C2113 1.398 . S
C2114 C2115 1.391 . S
C2115 H2103 0.950 . S
C2115 C2111 1.393 . S
C2115 C2114 1.391 . S
H2116 C2124 0.950 . S
H2117 C2129 0.950 . S
H2118 C2126 0.950 . S
H2119 C2128 0.950 . S
H2120 C2130 0.950 . S
H2121 C2132 0.950 . S
H2122 C2134 0.950 1_545 S
H2123 C2135 0.950 . S
C2124 H2116 0.950 . S
C2124 C2125 1.386 . S
C2124 C2126 1.391 . S
C2125 C2124 1.386 . S
C2125 C2129 1.393 . S
C2126 H2118 0.950 . S
C2126 C2124 1.391 . S
C2126 C2127 1.400 . S
C2127 C2126 1.400 . S
C2127 C2128 1.398 . S
C2127 C2133 1.491 . S
C2128 H2119 0.950 . S
C2128 C2127 1.398 . S
C2128 C2129 1.391 . S
C2129 H2117 0.950 . S
C2129 C2125 1.393 . S
C2129 C2128 1.391 . S
C2130 H2120 0.950 . S
C2130 C2131 1.386 1_565 S
C2130 C2132 1.391 . S
C2131 C2130 1.386 1_545 S
C2131 C2135 1.393 . S
C2132 H2121 0.950 . S
C2132 C2130 1.391 . S
C2132 C2133 1.400 . S
C2133 C2127 1.491 . S
C2133 C2132 1.400 . S
C2133 C2134 1.398 . S
C2134 H2122 0.950 1_565 S
C2134 C2133 1.398 . S
C2134 C2135 1.391 1_565 S
C2135 H2123 0.950 . S
C2135 C2131 1.393 . S
C2135 C2134 1.391 1_545 S
H2136 C2144 0.950 . S
H2137 C2149 0.950 1_545 S
H2138 C2146 0.950 . S
H2139 C2148 0.950 . S
H2140 C2150 0.950 . S
H2141 C2152 0.950 . S
H2142 C2154 0.950 . S
H2143 C2155 0.950 . S
C2144 H2136 0.950 . S
C2144 C2145 1.386 . S
C2144 C2146 1.391 . S
C2145 C2144 1.386 . S
C2145 C2149 1.393 . S
C2146 H2138 0.950 . S
C2146 C2144 1.391 . S
C2146 C2147 1.400 . S
C2147 C2146 1.400 . S
C2147 C2148 1.398 . S
C2147 C2153 1.491 . S
C2148 H2139 0.950 . S
C2148 C2147 1.398 . S
C2148 C2149 1.391 . S
C2149 H2137 0.950 1_565 S
C2149 C2145 1.393 . S
C2149 C2148 1.391 . S
C2150 H2140 0.950 . S
C2150 C2151 1.386 . S
C2150 C2152 1.391 . S
C2151 C2150 1.386 . S
C2151 C2155 1.393 . S
C2152 H2141 0.950 . S
C2152 C2150 1.391 . S
C2152 C2153 1.400 . S
C2153 C2147 1.491 . S
C2153 C2152 1.400 . S
C2153 C2154 1.398 . S
C2154 H2142 0.950 . S
C2154 C2153 1.398 . S
C2154 C2155 1.391 . S
C2155 H2143 0.950 . S
C2155 C2151 1.393 . S
C2155 C2154 1.391 . S
H2156 C2164 0.950 . S
H2157 C2169 0.950 . S
H2158 C2166 0.950 . S
H2159 C2168 0.950 . S
H2160 C2170 0.950 . S
H2161 C2172 0.950 . S
H2162 C2174 0.950 . S
H2163 C2175 0.950 . S
C2164 H2156 0.950 . S
C2164 C2165 1.386 . S
C2164 C2166 1.391 . S
C2165 C2164 1.386 . S
C2165 C2169 1.393 . S
C2166 H2158 0.950 . S
C2166 C2164 1.391 . S
C2166 C2167 1.400 . S
C2167 C2166 1.400 . S
C2167 C2168 1.398 . S
C2167 C2173 1.491 . S
C2168 H2159 0.950 . S
C2168 C2167 1.398 . S
C2168 C2169 1.391 . S
C2169 H2157 0.950 . S
C2169 C2165 1.393 . S
C2169 C2168 1.391 . S
C2170 H2160 0.950 . S
C2170 C2171 1.386 . S
C2170 C2172 1.391 . S
C2171 C2170 1.386 . S
C2171 C2175 1.393 . S
C2172 H2161 0.950 . S
C2172 C2170 1.391 . S
C2172 C2173 1.400 . S
C2173 C2167 1.491 . S
C2173 C2172 1.400 . S
C2173 C2174 1.398 . S
C2174 H2162 0.950 . S
C2174 C2173 1.398 . S
C2174 C2175 1.391 . S
C2175 H2163 0.950 . S
C2175 C2171 1.393 . S
C2175 C2174 1.391 . S
H2176 C2184 0.950 . S
H2177 C2189 0.950 . S
H2178 C2186 0.950 . S
H2179 C2188 0.950 . S
H2180 C2190 0.950 . S
H2181 C2192 0.950 . S
H2182 C2194 0.950 . S
H2183 C2195 0.950 . S
C2184 H2176 0.950 . S
C2184 C2185 1.386 . S
C2184 C2186 1.391 . S
C2185 C2184 1.386 . S
C2185 C2189 1.393 . S
C2186 H2178 0.950 . S
C2186 C2184 1.391 . S
C2186 C2187 1.400 . S
C2187 C2186 1.400 . S
C2187 C2188 1.398 . S
C2187 C2193 1.491 . S
C2188 H2179 0.950 . S
C2188 C2187 1.398 . S
C2188 C2189 1.391 . S
C2189 H2177 0.950 . S
C2189 C2185 1.393 . S
C2189 C2188 1.391 . S
C2190 H2180 0.950 . S
C2190 C2191 1.386 . S
C2190 C2192 1.391 . S
C2191 C2190 1.386 . S
C2191 C2195 1.393 . S
C2192 H2181 0.950 . S
C2192 C2190 1.391 . S
C2192 C2193 1.400 . S
C2193 C2187 1.491 . S
C2193 C2192 1.400 . S
C2193 C2194 1.398 . S
C2194 H2182 0.950 . S
C2194 C2193 1.398 . S
C2194 C2195 1.391 . S
C2195 H2183 0.950 . S
C2195 C2191 1.393 . S
C2195 C2194 1.391 . S
H2196 C2204 0.950 . S
H2197 C2209 0.950 . S
H2198 C2206 0.950 . S
H2199 C2208 0.950 . S
H2200 C2210 0.950 . S
H2201 C2212 0.950 . S
H2202 C2214 0.950 . S
H2203 C2215 0.950 . S
C2204 H2196 0.950 . S
C2204 C2205 1.386 . S
C2204 C2206 1.391 . S
C2205 C2204 1.386 . S
C2205 C2209 1.393 . S
C2206 H2198 0.950 . S
C2206 C2204 1.391 . S
C2206 C2207 1.400 . S
C2207 C2206 1.400 . S
C2207 C2208 1.398 . S
C2207 C2213 1.491 . S
C2208 H2199 0.950 . S
C2208 C2207 1.398 . S
C2208 C2209 1.391 . S
C2209 H2197 0.950 . S
C2209 C2205 1.393 . S
C2209 C2208 1.391 . S
C2210 H2200 0.950 . S
C2210 C2211 1.386 . S
C2210 C2212 1.391 . S
C2211 C2210 1.386 . S
C2211 C2215 1.393 . S
C2212 H2201 0.950 . S
C2212 C2210 1.391 . S
C2212 C2213 1.400 . S
C2213 C2207 1.491 . S
C2213 C2212 1.400 . S
C2213 C2214 1.398 . S
C2214 H2202 0.950 . S
C2214 C2213 1.398 . S
C2214 C2215 1.391 . S
C2215 H2203 0.950 . S
C2215 C2211 1.393 . S
C2215 C2214 1.391 . S
H2216 C2224 0.950 . S
H2217 C2229 0.950 . S
H2218 C2226 0.950 . S
H2219 C2228 0.950 . S
H2220 C2230 0.950 . S
H2221 C2232 0.950 . S
H2222 C2234 0.950 . S
H2223 C2235 0.950 . S
C2224 H2216 0.950 . S
C2224 C2225 1.386 . S
C2224 C2226 1.391 . S
C2225 C2224 1.386 . S
C2225 C2229 1.393 . S
C2226 H2218 0.950 . S
C2226 C2224 1.391 . S
C2226 C2227 1.400 . S
C2227 C2226 1.400 . S
C2227 C2228 1.398 . S
C2227 C2233 1.491 . S
C2228 H2219 0.950 . S
C2228 C2227 1.398 . S
C2228 C2229 1.391 . S
C2229 H2217 0.950 . S
C2229 C2225 1.393 . S
C2229 C2228 1.391 . S
C2230 H2220 0.950 . S
C2230 C2231 1.386 . S
C2230 C2232 1.391 . S
C2231 C2230 1.386 . S
C2231 C2235 1.393 . S
C2232 H2221 0.950 . S
C2232 C2230 1.391 . S
C2232 C2233 1.400 . S
C2233 C2227 1.491 . S
C2233 C2232 1.400 . S
C2233 C2234 1.398 . S
C2234 H2222 0.950 . S
C2234 C2233 1.398 . S
C2234 C2235 1.391 . S
C2235 H2223 0.950 . S
C2235 C2231 1.393 . S
C2235 C2234 1.391 . S
H2236 C2244 0.950 . S
H2237 C2249 0.950 . S
H2238 C2246 0.950 . S
H2239 C2248 0.950 . S
H2240 C2250 0.950 . S
H2241 C2252 0.950 . S
H2242 C2254 0.950 . S
H2243 C2255 0.950 . S
C2244 H2236 0.950 . S
C2244 C2245 1.386 . S
C2244 C2246 1.391 . S
C2245 C2244 1.386 . S
C2245 C2249 1.393 . S
C2246 H2238 0.950 . S
C2246 C2244 1.391 . S
C2246 C2247 1.400 . S
C2247 C2246 1.400 . S
C2247 C2248 1.398 . S
C2247 C2253 1.491 . S
C2248 H2239 0.950 . S
C2248 C2247 1.398 . S
C2248 C2249 1.391 . S
C2249 H2237 0.950 . S
C2249 C2245 1.393 . S
C2249 C2248 1.391 . S
C2250 H2240 0.950 . S
C2250 C2251 1.386 . S
C2250 C2252 1.391 . S
C2251 C2250 1.386 . S
C2251 C2255 1.393 . S
C2252 H2241 0.950 . S
C2252 C2250 1.391 . S
C2252 C2253 1.400 . S
C2253 C2247 1.491 . S
C2253 C2252 1.400 . S
C2253 C2254 1.398 . S
C2254 H2242 0.950 . S
C2254 C2253 1.398 . S
C2254 C2255 1.391 . S
C2255 H2243 0.950 . S
C2255 C2251 1.393 . S
C2255 C2254 1.391 . S
H2256 C2264 0.950 . S
H2257 C2269 0.950 . S
H2258 C2266 0.950 . S
H2259 C2268 0.950 . S
H2260 C2270 0.950 . S
H2261 C2272 0.950 . S
H2262 C2274 0.950 . S
H2263 C2275 0.950 . S
C2264 H2256 0.950 . S
C2264 C2265 1.386 . S
C2264 C2266 1.391 . S
C2265 C2264 1.386 . S
C2265 C2269 1.393 . S
C2266 H2258 0.950 . S
C2266 C2264 1.391 . S
C2266 C2267 1.400 . S
C2267 C2266 1.400 . S
C2267 C2268 1.398 . S
C2267 C2273 1.491 . S
C2268 H2259 0.950 . S
C2268 C2267 1.398 . S
C2268 C2269 1.391 . S
C2269 H2257 0.950 . S
C2269 C2265 1.393 . S
C2269 C2268 1.391 . S
C2270 H2260 0.950 . S
C2270 C2271 1.386 . S
C2270 C2272 1.391 . S
C2271 C2270 1.386 . S
C2271 C2275 1.393 . S
C2272 H2261 0.950 . S
C2272 C2270 1.391 . S
C2272 C2273 1.400 . S
C2273 C2267 1.491 . S
C2273 C2272 1.400 . S
C2273 C2274 1.398 . S
C2274 H2262 0.950 . S
C2274 C2273 1.398 . S
C2274 C2275 1.391 . S
C2275 H2263 0.950 . S
C2275 C2271 1.393 . S
C2275 C2274 1.391 . S
H2276 C2284 0.950 . S
H2277 C2289 0.950 . S
H2278 C2286 0.950 . S
H2279 C2288 0.950 . S
H2280 C2290 0.950 . S
H2281 C2292 0.950 . S
H2282 C2294 0.950 . S
H2283 C2295 0.950 . S
C2284 H2276 0.950 . S
C2284 C2285 1.386 . S
C2284 C2286 1.391 . S
C2285 C2284 1.386 . S
C2285 C2289 1.393 . S
C2286 H2278 0.950 . S
C2286 C2284 1.391 . S
C2286 C2287 1.400 . S
C2287 C2286 1.400 . S
C2287 C2288 1.398 . S
C2287 C2293 1.491 . S
C2288 H2279 0.950 . S
C2288 C2287 1.398 . S
C2288 C2289 1.391 . S
C2289 H2277 0.950 . S
C2289 C2285 1.393 . S
C2289 C2288 1.391 . S
C2290 H2280 0.950 . S
C2290 C2291 1.386 . S
C2290 C2292 1.391 . S
C2291 C2290 1.386 . S
C2291 C2295 1.393 . S
C2292 H2281 0.950 . S
C2292 C2290 1.391 . S
C2292 C2293 1.400 . S
C2293 C2287 1.491 . S
C2293 C2292 1.400 . S
C2293 C2294 1.398 . S
C2294 H2282 0.950 . S
C2294 C2293 1.398 . S
C2294 C2295 1.391 . S
C2295 H2283 0.950 . S
C2295 C2291 1.393 . S
C2295 C2294 1.391 . S
H2296 C2304 0.950 . S
H2297 C2309 0.950 . S
H2298 C2306 0.929 1_655 S
H2299 C2308 0.950 . S
H2300 C2310 0.950 . S
H2301 C2312 0.950 1_554 S
H2302 C2314 0.950 1_655 S
H2303 C2315 0.950 1_655 S
C2304 H2296 0.950 . S
C2304 C2305 1.386 . S
C2304 C2306 1.391 . S
C2305 C2304 1.386 . S
C2305 C2309 1.393 . S
C2306 H2298 0.929 1_455 S
C2306 C2304 1.391 . S
C2306 C2307 1.400 . S
C2307 C2306 1.400 . S
C2307 C2308 1.398 . S
C2307 C2313 1.491 . S
C2308 H2299 0.950 . S
C2308 C2307 1.398 . S
C2308 C2309 1.391 . S
C2309 H2297 0.950 . S
C2309 C2305 1.393 . S
C2309 C2308 1.391 . S
C2310 H2300 0.950 . S
C2310 C2311 1.386 1_554 S
C2310 C2312 1.391 1_554 S
C2311 C2310 1.386 1_556 S
C2311 C2315 1.393 . S
C2312 H2301 0.950 1_556 S
C2312 C2310 1.391 1_556 S
C2312 C2313 1.400 . S
C2313 C2307 1.491 . S
C2313 C2312 1.400 . S
C2313 C2314 1.398 . S
C2314 H2302 0.950 1_455 S
C2314 C2313 1.398 . S
C2314 C2315 1.391 . S
C2315 H2303 0.950 1_455 S
C2315 C2311 1.393 . S
C2315 C2314 1.391 . S
H2316 C2324 0.950 . S
H2317 C2329 0.950 . S
H2318 C2326 0.950 . S
H2319 C2328 0.950 . S
H2320 C2330 0.950 . S
H2321 C2332 0.950 . S
H2322 C2334 0.950 . S
H2323 C2335 0.950 . S
C2324 H2316 0.950 . S
C2324 C2325 1.386 . S
C2324 C2326 1.391 . S
C2325 C2324 1.386 . S
C2325 C2329 1.393 . S
C2326 H2318 0.950 . S
C2326 C2324 1.391 . S
C2326 C2327 1.400 . S
C2327 C2326 1.400 . S
C2327 C2328 1.398 . S
C2327 C2333 1.491 . S
C2328 H2319 0.950 . S
C2328 C2327 1.398 . S
C2328 C2329 1.391 . S
C2329 H2317 0.950 . S
C2329 C2325 1.393 . S
C2329 C2328 1.391 . S
C2330 H2320 0.950 . S
C2330 C2331 1.386 . S
C2330 C2332 1.391 . S
C2331 C2330 1.386 . S
C2331 C2335 1.393 . S
C2332 H2321 0.950 . S
C2332 C2330 1.391 . S
C2332 C2333 1.400 . S
C2333 C2327 1.491 . S
C2333 C2332 1.400 . S
C2333 C2334 1.398 . S
C2334 H2322 0.950 . S
C2334 C2333 1.398 . S
C2334 C2335 1.391 . S
C2335 H2323 0.950 . S
C2335 C2331 1.393 . S
C2335 C2334 1.391 . S
H2336 C2344 0.950 . S
H2337 C2349 0.950 . S
H2338 C2346 0.950 . S
H2339 C2348 0.950 . S
H2340 C2350 0.950 . S
H2341 C2352 0.950 . S
H2342 C2354 0.950 . S
H2343 C2355 0.950 . S
C2344 H2336 0.950 . S
C2344 C2345 1.386 . S
C2344 C2346 1.391 . S
C2345 C2344 1.386 . S
C2345 C2349 1.393 . S
C2346 H2338 0.950 . S
C2346 C2344 1.391 . S
C2346 C2347 1.400 . S
C2347 C2346 1.400 . S
C2347 C2348 1.398 . S
C2347 C2353 1.491 . S
C2348 H2339 0.950 . S
C2348 C2347 1.398 . S
C2348 C2349 1.391 . S
C2349 H2337 0.950 . S
C2349 C2345 1.393 . S
C2349 C2348 1.391 . S
C2350 H2340 0.950 . S
C2350 C2351 1.386 . S
C2350 C2352 1.391 . S
C2351 C2350 1.386 . S
C2351 C2355 1.393 . S
C2352 H2341 0.950 . S
C2352 C2350 1.391 . S
C2352 C2353 1.400 . S
C2353 C2347 1.491 . S
C2353 C2352 1.400 . S
C2353 C2354 1.398 . S
C2354 H2342 0.950 . S
C2354 C2353 1.398 . S
C2354 C2355 1.391 . S
C2355 H2343 0.950 . S
C2355 C2351 1.393 . S
C2355 C2354 1.391 . S
H2356 C2364 0.950 . S
H2357 C2369 0.950 . S
H2358 C2366 0.950 . S
H2359 C2368 0.950 . S
H2360 C2370 0.950 . S
H2361 C2372 0.950 . S
H2362 C2374 0.950 . S
H2363 C2375 0.950 . S
C2364 H2356 0.950 . S
C2364 C2365 1.386 . S
C2364 C2366 1.391 . S
C2365 C2364 1.386 . S
C2365 C2369 1.393 . S
C2366 H2358 0.950 . S
C2366 C2364 1.391 . S
C2366 C2367 1.400 . S
C2367 C2366 1.400 . S
C2367 C2368 1.398 . S
C2367 C2373 1.491 . S
C2368 H2359 0.950 . S
C2368 C2367 1.398 . S
C2368 C2369 1.391 . S
C2369 H2357 0.950 . S
C2369 C2365 1.393 . S
C2369 C2368 1.391 . S
C2370 H2360 0.950 . S
C2370 C2371 1.386 . S
C2370 C2372 1.391 . S
C2371 C2370 1.386 . S
C2371 C2375 1.393 . S
C2372 H2361 0.950 . S
C2372 C2370 1.391 . S
C2372 C2373 1.400 . S
C2373 C2367 1.491 . S
C2373 C2372 1.400 . S
C2373 C2374 1.398 . S
C2374 H2362 0.950 . S
C2374 C2373 1.398 . S
C2374 C2375 1.391 . S
C2375 H2363 0.950 . S
C2375 C2371 1.393 . S
C2375 C2374 1.391 . S
H2376 C2384 0.950 . S
H2377 C2389 0.950 . S
H2378 C2386 0.950 . S
H2379 C2388 0.950 . S
H2380 C2390 0.950 . S
H2381 C2392 0.950 . S
H2382 C2394 0.950 . S
H2383 C2395 0.950 . S
C2384 H2376 0.950 . S
C2384 C2385 1.386 1_655 S
C2384 C2386 1.391 . S
C2385 C2384 1.386 1_455 S
C2385 C2389 1.393 . S
C2386 H2378 0.950 . S
C2386 C2384 1.391 . S
C2386 C2387 1.400 1_655 S
C2387 C2386 1.400 1_455 S
C2387 C2388 1.398 . S
C2387 C2393 1.491 . S
C2388 H2379 0.950 . S
C2388 C2387 1.398 . S
C2388 C2389 1.391 . S
C2389 H2377 0.950 . S
C2389 C2385 1.393 . S
C2389 C2388 1.391 . S
C2390 H2380 0.950 . S
C2390 C2391 1.386 . S
C2390 C2392 1.391 . S
C2391 C2390 1.386 . S
C2391 C2395 1.393 1_455 S
C2392 H2381 0.950 . S
C2392 C2390 1.391 . S
C2392 C2393 1.400 . S
C2393 C2387 1.491 . S
C2393 C2392 1.400 . S
C2393 C2394 1.398 1_455 S
C2394 H2382 0.950 . S
C2394 C2393 1.398 1_655 S
C2394 C2395 1.391 . S
C2395 H2383 0.950 . S
C2395 C2391 1.393 1_655 S
C2395 C2394 1.391 . S
H2396 C2404 0.950 . S
H2397 C2409 0.950 . S
H2398 C2406 0.950 . S
H2399 C2408 0.950 . S
H2400 C2410 0.950 . S
H2401 C2412 0.950 . S
H2402 C2414 0.950 . S
H2403 C2415 0.950 . S
C2404 H2396 0.950 . S
C2404 C2405 1.386 . S
C2404 C2406 1.391 . S
C2405 C2404 1.386 . S
C2405 C2409 1.393 . S
C2406 H2398 0.950 . S
C2406 C2404 1.391 . S
C2406 C2407 1.400 . S
C2407 C2406 1.400 . S
C2407 C2408 1.398 . S
C2407 C2413 1.491 . S
C2408 H2399 0.950 . S
C2408 C2407 1.398 . S
C2408 C2409 1.391 . S
C2409 H2397 0.950 . S
C2409 C2405 1.393 . S
C2409 C2408 1.391 . S
C2410 H2400 0.950 . S
C2410 C2411 1.386 . S
C2410 C2412 1.391 . S
C2411 C2410 1.386 . S
C2411 C2415 1.393 . S
C2412 H2401 0.950 . S
C2412 C2410 1.391 . S
C2412 C2413 1.400 . S
C2413 C2407 1.491 . S
C2413 C2412 1.400 . S
C2413 C2414 1.398 . S
C2414 H2402 0.950 . S
C2414 C2413 1.398 . S
C2414 C2415 1.391 . S
C2415 H2403 0.950 . S
C2415 C2411 1.393 . S
C2415 C2414 1.391 . S
H2416 C2424 0.950 . S
H2417 C2429 0.950 . S
H2418 C2426 0.950 . S
H2419 C2428 0.950 . S
H2420 C2430 0.950 . S
H2421 C2432 0.950 . S
H2422 C2434 0.950 . S
H2423 C2435 0.950 . S
C2424 H2416 0.950 . S
C2424 C2425 1.386 . S
C2424 C2426 1.391 . S
C2425 C2424 1.386 . S
C2425 C2429 1.393 . S
C2426 H2418 0.950 . S
C2426 C2424 1.391 . S
C2426 C2427 1.400 . S
C2427 C2426 1.400 . S
C2427 C2428 1.398 . S
C2427 C2433 1.491 . S
C2428 H2419 0.950 . S
C2428 C2427 1.398 . S
C2428 C2429 1.391 . S
C2429 H2417 0.950 . S
C2429 C2425 1.393 . S
C2429 C2428 1.391 . S
C2430 H2420 0.950 . S
C2430 C2431 1.386 . S
C2430 C2432 1.391 . S
C2431 C2430 1.386 . S
C2431 C2435 1.393 . S
C2432 H2421 0.950 . S
C2432 C2430 1.391 . S
C2432 C2433 1.400 . S
C2433 C2427 1.491 . S
C2433 C2432 1.400 . S
C2433 C2434 1.398 . S
C2434 H2422 0.950 . S
C2434 C2433 1.398 . S
C2434 C2435 1.391 . S
C2435 H2423 0.950 . S
C2435 C2431 1.393 . S
C2435 C2434 1.391 . S
H2436 C2444 0.950 . S
H2437 C2449 0.950 . S
H2438 C2446 0.950 . S
H2439 C2448 0.950 . S
H2440 C2450 0.950 . S
H2441 C2452 0.950 . S
H2442 C2454 0.950 . S
H2443 C2455 0.950 . S
C2444 H2436 0.950 . S
C2444 C2445 1.386 . S
C2444 C2446 1.391 . S
C2445 C2444 1.386 . S
C2445 C2449 1.393 . S
C2446 H2438 0.950 . S
C2446 C2444 1.391 . S
C2446 C2447 1.400 . S
C2447 C2446 1.400 . S
C2447 C2448 1.398 . S
C2447 C2453 1.491 . S
C2448 H2439 0.950 . S
C2448 C2447 1.398 . S
C2448 C2449 1.391 . S
C2449 H2437 0.950 . S
C2449 C2445 1.393 . S
C2449 C2448 1.391 . S
C2450 H2440 0.950 . S
C2450 C2451 1.386 . S
C2450 C2452 1.391 . S
C2451 C2450 1.386 . S
C2451 C2455 1.393 . S
C2452 H2441 0.950 . S
C2452 C2450 1.391 . S
C2452 C2453 1.400 . S
C2453 C2447 1.491 . S
C2453 C2452 1.400 . S
C2453 C2454 1.398 . S
C2454 H2442 0.950 . S
C2454 C2453 1.398 . S
C2454 C2455 1.391 . S
C2455 H2443 0.950 . S
C2455 C2451 1.393 . S
C2455 C2454 1.391 . S
H2456 C2464 0.950 . S
H2457 C2469 0.950 . S
H2458 C2466 0.950 . S
H2459 C2468 0.950 . S
H2460 C2470 0.950 . S
H2461 C2472 0.950 . S
H2462 C2474 0.950 . S
H2463 C2475 0.950 . S
C2464 H2456 0.950 . S
C2464 C2465 1.386 . S
C2464 C2466 1.391 . S
C2465 C2464 1.386 . S
C2465 C2469 1.393 . S
C2466 H2458 0.950 . S
C2466 C2464 1.391 . S
C2466 C2467 1.400 . S
C2467 C2466 1.400 . S
C2467 C2468 1.398 . S
C2467 C2473 1.491 . S
C2468 H2459 0.950 . S
C2468 C2467 1.398 . S
C2468 C2469 1.391 . S
C2469 H2457 0.950 . S
C2469 C2465 1.393 . S
C2469 C2468 1.391 . S
C2470 H2460 0.950 . S
C2470 C2471 1.386 . S
C2470 C2472 1.391 . S
C2471 C2470 1.386 . S
C2471 C2475 1.393 . S
C2472 H2461 0.950 . S
C2472 C2470 1.391 . S
C2472 C2473 1.400 . S
C2473 C2467 1.491 . S
C2473 C2472 1.400 . S
C2473 C2474 1.398 . S
C2474 H2462 0.950 . S
C2474 C2473 1.398 . S
C2474 C2475 1.391 . S
C2475 H2463 0.950 . S
C2475 C2471 1.393 . S
C2475 C2474 1.391 . S
H2476 C2484 0.950 . S
H2477 C2489 0.950 . S
H2478 C2486 0.950 . S
H2479 C2488 0.950 . S
H2480 C2490 0.950 . S
H2481 C2492 0.950 . S
H2482 C2494 0.950 . S
H2483 C2495 0.950 . S
C2484 H2476 0.950 . S
C2484 C2485 1.386 . S
C2484 C2486 1.391 . S
C2485 C2484 1.386 . S
C2485 C2489 1.393 . S
C2486 H2478 0.950 . S
C2486 C2484 1.391 . S
C2486 C2487 1.400 . S
C2487 C2486 1.400 . S
C2487 C2488 1.398 . S
C2487 C2493 1.491 . S
C2488 H2479 0.950 . S
C2488 C2487 1.398 . S
C2488 C2489 1.391 . S
C2489 H2477 0.950 . S
C2489 C2485 1.393 . S
C2489 C2488 1.391 . S
C2490 H2480 0.950 . S
C2490 C2491 1.386 . S
C2490 C2492 1.391 . S
C2491 C2490 1.386 . S
C2491 C2495 1.393 . S
C2492 H2481 0.950 . S
C2492 C2490 1.391 . S
C2492 C2493 1.400 . S
C2493 C2487 1.491 . S
C2493 C2492 1.400 . S
C2493 C2494 1.398 . S
C2494 H2482 0.950 . S
C2494 C2493 1.398 . S
C2494 C2495 1.391 . S
C2495 H2483 0.950 . S
C2495 C2491 1.393 . S
C2495 C2494 1.391 . S
H2496 C2504 0.950 . S
H2497 C2509 0.950 . S
H2498 C2506 0.950 . S
H2499 C2508 0.950 . S
H2500 C2510 0.950 . S
H2501 C2512 0.950 . S
H2502 C2514 0.950 . S
H2503 C2515 0.950 . S
C2504 H2496 0.950 . S
C2504 C2505 1.386 . S
C2504 C2506 1.391 . S
C2505 C2504 1.386 . S
C2505 C2509 1.393 . S
C2506 H2498 0.950 . S
C2506 C2504 1.391 . S
C2506 C2507 1.400 . S
C2507 C2506 1.400 . S
C2507 C2508 1.398 . S
C2507 C2513 1.491 . S
C2508 H2499 0.950 . S
C2508 C2507 1.398 . S
C2508 C2509 1.391 . S
C2509 H2497 0.950 . S
C2509 C2505 1.393 . S
C2509 C2508 1.391 . S
C2510 H2500 0.950 . S
C2510 C2511 1.386 . S
C2510 C2512 1.391 . S
C2511 C2510 1.386 . S
C2511 C2515 1.393 . S
C2512 H2501 0.950 . S
C2512 C2510 1.391 . S
C2512 C2513 1.400 . S
C2513 C2507 1.491 . S
C2513 C2512 1.400 . S
C2513 C2514 1.398 . S
C2514 H2502 0.950 . S
C2514 C2513 1.398 . S
C2514 C2515 1.391 . S
C2515 H2503 0.950 . S
C2515 C2511 1.393 . S
C2515 C2514 1.391 . S
H2516 C2524 0.950 . S
H2517 C2529 0.950 . S
H2518 C2526 0.950 . S
H2519 C2528 0.950 . S
H2520 C2530 0.950 . S
H2521 C2532 0.950 . S
H2522 C2534 0.950 . S
H2523 C2535 0.950 . S
C2524 H2516 0.950 . S
C2524 C2525 1.386 . S
C2524 C2526 1.391 . S
C2525 C2524 1.386 . S
C2525 C2529 1.393 . S
C2526 H2518 0.950 . S
C2526 C2524 1.391 . S
C2526 C2527 1.400 . S
C2527 C2526 1.400 . S
C2527 C2528 1.398 . S
C2527 C2533 1.491 . S
C2528 H2519 0.950 . S
C2528 C2527 1.398 . S
C2528 C2529 1.391 . S
C2529 H2517 0.950 . S
C2529 C2525 1.393 . S
C2529 C2528 1.391 . S
C2530 H2520 0.950 . S
C2530 C2531 1.386 . S
C2530 C2532 1.391 . S
C2531 C2530 1.386 . S
C2531 C2535 1.393 . S
C2532 H2521 0.950 . S
C2532 C2530 1.391 . S
C2532 C2533 1.400 . S
C2533 C2527 1.491 . S
C2533 C2532 1.400 . S
C2533 C2534 1.398 . S
C2534 H2522 0.950 . S
C2534 C2533 1.398 . S
C2534 C2535 1.391 . S
C2535 H2523 0.950 . S
C2535 C2531 1.393 . S
C2535 C2534 1.391 . S
H2536 C2544 0.950 . S
H2537 C2549 0.950 . S
H2538 C2546 0.950 . S
H2539 C2548 0.950 . S
H2540 C2550 0.950 . S
H2541 C2552 0.950 . S
H2542 C2554 0.950 . S
H2543 C2555 0.950 . S
C2544 H2536 0.950 . S
C2544 C2545 1.386 . S
C2544 C2546 1.391 . S
C2545 C2544 1.386 . S
C2545 C2549 1.393 . S
C2546 H2538 0.950 . S
C2546 C2544 1.391 . S
C2546 C2547 1.400 . S
C2547 C2546 1.400 . S
C2547 C2548 1.398 . S
C2547 C2553 1.491 . S
C2548 H2539 0.950 . S
C2548 C2547 1.398 . S
C2548 C2549 1.391 . S
C2549 H2537 0.950 . S
C2549 C2545 1.393 . S
C2549 C2548 1.391 . S
C2550 H2540 0.950 . S
C2550 C2551 1.386 . S
C2550 C2552 1.391 . S
C2551 C2550 1.386 . S
C2551 C2555 1.393 . S
C2552 H2541 0.950 . S
C2552 C2550 1.391 . S
C2552 C2553 1.400 . S
C2553 C2547 1.491 . S
C2553 C2552 1.400 . S
C2553 C2554 1.398 . S
C2554 H2542 0.950 . S
C2554 C2553 1.398 . S
C2554 C2555 1.391 . S
C2555 H2543 0.950 . S
C2555 C2551 1.393 . S
C2555 C2554 1.391 . S
H2556 C2564 0.950 . S
H2557 C2569 0.950 . S
H2558 C2566 0.950 . S
H2559 C2568 0.950 . S
H2560 C2570 0.950 . S
H2561 C2572 0.950 . S
H2562 C2574 0.950 . S
H2563 C2575 0.950 . S
C2564 H2556 0.950 . S
C2564 C2565 1.386 . S
C2564 C2566 1.391 . S
C2565 C2564 1.386 . S
C2565 C2569 1.393 . S
C2566 H2558 0.950 . S
C2566 C2564 1.391 . S
C2566 C2567 1.400 . S
C2567 C2566 1.400 . S
C2567 C2568 1.398 . S
C2567 C2573 1.491 . S
C2568 H2559 0.950 . S
C2568 C2567 1.398 . S
C2568 C2569 1.391 . S
C2569 H2557 0.950 . S
C2569 C2565 1.393 . S
C2569 C2568 1.391 . S
C2570 H2560 0.950 . S
C2570 C2571 1.386 . S
C2570 C2572 1.391 . S
C2571 C2570 1.386 . S
C2571 C2575 1.393 . S
C2572 H2561 0.950 . S
C2572 C2570 1.391 . S
C2572 C2573 1.400 . S
C2573 C2567 1.491 . S
C2573 C2572 1.400 . S
C2573 C2574 1.398 . S
C2574 H2562 0.950 . S
C2574 C2573 1.398 . S
C2574 C2575 1.391 . S
C2575 H2563 0.950 . S
C2575 C2571 1.393 . S
C2575 C2574 1.391 . S
H2576 C2584 0.950 . S
H2577 C2589 0.950 . S
H2578 C2586 0.950 . S
H2579 C2588 0.950 . S
H2580 C2590 0.950 . S
H2581 C2592 0.950 . S
H2582 C2594 0.950 . S
H2583 C2595 0.950 . S
C2584 H2576 0.950 . S
C2584 C2585 1.386 . S
C2584 C2586 1.391 . S
C2585 C2584 1.386 . S
C2585 C2589 1.393 . S
C2586 H2578 0.950 . S
C2586 C2584 1.391 . S
C2586 C2587 1.400 . S
C2587 C2586 1.400 . S
C2587 C2588 1.398 . S
C2587 C2593 1.491 . S
C2588 H2579 0.950 . S
C2588 C2587 1.398 . S
C2588 C2589 1.391 . S
C2589 H2577 0.950 . S
C2589 C2585 1.393 . S
C2589 C2588 1.391 . S
C2590 H2580 0.950 . S
C2590 C2591 1.386 . S
C2590 C2592 1.391 . S
C2591 C2590 1.386 . S
C2591 C2595 1.393 . S
C2592 H2581 0.950 . S
C2592 C2590 1.391 . S
C2592 C2593 1.400 . S
C2593 C2587 1.491 . S
C2593 C2592 1.400 . S
C2593 C2594 1.398 . S
C2594 H2582 0.950 . S
C2594 C2593 1.398 . S
C2594 C2595 1.391 . S
C2595 H2583 0.950 . S
C2595 C2591 1.393 . S
C2595 C2594 1.391 . S
H2596 C2604 0.950 . S
H2597 C2609 0.950 . S
H2598 C2606 0.950 . S
H2599 C2608 0.950 . S
H2600 C2610 0.950 . S
H2601 C2612 0.950 . S
H2602 C2614 0.950 . S
H2603 C2615 0.950 . S
C2604 H2596 0.950 . S
C2604 C2605 1.386 . S
C2604 C2606 1.391 . S
C2605 C2604 1.386 . S
C2605 C2609 1.393 . S
C2606 H2598 0.950 . S
C2606 C2604 1.391 . S
C2606 C2607 1.400 . S
C2607 C2606 1.400 . S
C2607 C2608 1.398 . S
C2607 C2613 1.491 . S
C2608 H2599 0.950 . S
C2608 C2607 1.398 . S
C2608 C2609 1.391 . S
C2609 H2597 0.950 . S
C2609 C2605 1.393 . S
C2609 C2608 1.391 . S
C2610 H2600 0.950 . S
C2610 C2611 1.386 . S
C2610 C2612 1.391 . S
C2611 C2610 1.386 . S
C2611 C2615 1.393 . S
C2612 H2601 0.950 . S
C2612 C2610 1.391 . S
C2612 C2613 1.400 . S
C2613 C2607 1.491 . S
C2613 C2612 1.400 . S
C2613 C2614 1.398 . S
C2614 H2602 0.950 . S
C2614 C2613 1.398 . S
C2614 C2615 1.391 . S
C2615 H2603 0.950 . S
C2615 C2611 1.393 . S
C2615 C2614 1.391 . S
H2616 C2624 0.950 . S
H2617 C2629 0.950 . S
H2618 C2626 0.950 . S
H2619 C2628 0.950 . S
H2620 C2630 0.950 . S
H2621 C2632 0.950 . S
H2622 C2634 0.950 . S
H2623 C2635 0.950 . S
C2624 H2616 0.950 . S
C2624 C2625 1.386 . S
C2624 C2626 1.391 . S
C2625 C2624 1.386 . S
C2625 C2629 1.393 . S
C2626 H2618 0.950 . S
C2626 C2624 1.391 . S
C2626 C2627 1.400 . S
C2627 C2626 1.400 . S
C2627 C2628 1.398 . S
C2627 C2633 1.491 . S
C2628 H2619 0.950 . S
C2628 C2627 1.398 . S
C2628 C2629 1.391 . S
C2629 H2617 0.950 . S
C2629 C2625 1.393 . S
C2629 C2628 1.391 . S
C2630 H2620 0.950 . S
C2630 C2631 1.386 . S
C2630 C2632 1.391 . S
C2631 C2630 1.386 . S
C2631 C2635 1.393 . S
C2632 H2621 0.950 . S
C2632 C2630 1.391 . S
C2632 C2633 1.400 . S
C2633 C2627 1.491 . S
C2633 C2632 1.400 . S
C2633 C2634 1.398 . S
C2634 H2622 0.950 . S
C2634 C2633 1.398 . S
C2634 C2635 1.391 . S
C2635 H2623 0.950 . S
C2635 C2631 1.393 . S
C2635 C2634 1.391 . S
H2636 C2644 0.950 . S
H2637 C2649 0.950 . S
H2638 C2646 0.950 . S
H2639 C2648 0.950 . S
H2640 C2650 0.933 1_556 S
H2641 C2652 0.950 1_545 S
H2642 C2654 0.950 . S
H2643 C2655 0.950 . S
C2644 H2636 0.950 . S
C2644 C2645 1.386 . S
C2644 C2646 1.391 . S
C2645 C2644 1.386 . S
C2645 C2649 1.393 . S
C2646 H2638 0.950 . S
C2646 C2644 1.391 . S
C2646 C2647 1.400 . S
C2647 C2646 1.400 . S
C2647 C2648 1.398 . S
C2647 C2653 1.491 . S
C2648 H2639 0.950 . S
C2648 C2647 1.398 . S
C2648 C2649 1.391 . S
C2649 H2637 0.950 . S
C2649 C2645 1.393 . S
C2649 C2648 1.391 . S
C2650 H2640 0.933 1_554 S
C2650 C2651 1.386 1_545 S
C2650 C2652 1.391 1_545 S
C2651 C2650 1.386 1_565 S
C2651 C2655 1.393 . S
C2652 H2641 0.950 1_565 S
C2652 C2650 1.391 1_565 S
C2652 C2653 1.400 . S
C2653 C2647 1.491 . S
C2653 C2652 1.400 . S
C2653 C2654 1.398 . S
C2654 H2642 0.950 . S
C2654 C2653 1.398 . S
C2654 C2655 1.391 . S
C2655 H2643 0.950 . S
C2655 C2651 1.393 . S
C2655 C2654 1.391 . S
H2656 C2664 0.950 . S
H2657 C2669 0.950 . S
H2658 C2666 0.950 . S
H2659 C2668 0.950 . S
H2660 C2670 0.950 . S
H2661 C2672 0.950 . S
H2662 C2674 0.950 . S
H2663 C2675 0.950 . S
C2664 H2656 0.950 . S
C2664 C2665 1.386 . S
C2664 C2666 1.391 . S
C2665 C2664 1.386 . S
C2665 C2669 1.393 . S
C2666 H2658 0.950 . S
C2666 C2664 1.391 . S
C2666 C2667 1.400 . S
C2667 C2666 1.400 . S
C2667 C2668 1.398 . S
C2667 C2673 1.491 . S
C2668 H2659 0.950 . S
C2668 C2667 1.398 . S
C2668 C2669 1.391 . S
C2669 H2657 0.950 . S
C2669 C2665 1.393 . S
C2669 C2668 1.391 . S
C2670 H2660 0.950 . S
C2670 C2671 1.386 . S
C2670 C2672 1.391 . S
C2671 C2670 1.386 . S
C2671 C2675 1.393 . S
C2672 H2661 0.950 . S
C2672 C2670 1.391 . S
C2672 C2673 1.400 . S
C2673 C2667 1.491 . S
C2673 C2672 1.400 . S
C2673 C2674 1.398 . S
C2674 H2662 0.950 . S
C2674 C2673 1.398 . S
C2674 C2675 1.391 . S
C2675 H2663 0.950 . S
C2675 C2671 1.393 . S
C2675 C2674 1.391 . S
H2676 C2684 0.950 . S
H2677 C2689 0.950 . S
H2678 C2686 0.950 . S
H2679 C2688 0.950 . S
H2680 C2690 0.950 . S
H2681 C2692 0.950 . S
H2682 C2694 0.950 1_556 S
H2683 C2695 0.950 . S
C2684 H2676 0.950 . S
C2684 C2685 1.386 1_556 S
C2684 C2686 1.391 . S
C2685 C2684 1.386 1_554 S
C2685 C2689 1.393 . S
C2686 H2678 0.950 . S
C2686 C2684 1.391 . S
C2686 C2687 1.400 1_556 S
C2687 C2686 1.400 1_554 S
C2687 C2688 1.398 . S
C2687 C2693 1.491 . S
C2688 H2679 0.950 . S
C2688 C2687 1.398 . S
C2688 C2689 1.391 . S
C2689 H2677 0.950 . S
C2689 C2685 1.393 . S
C2689 C2688 1.391 . S
C2690 H2680 0.950 . S
C2690 C2691 1.386 . S
C2690 C2692 1.391 . S
C2691 C2690 1.386 . S
C2691 C2695 1.393 . S
C2692 H2681 0.950 . S
C2692 C2690 1.391 . S
C2692 C2693 1.400 . S
C2693 C2687 1.491 . S
C2693 C2692 1.400 . S
C2693 C2694 1.398 . S
C2694 H2682 0.950 1_554 S
C2694 C2693 1.398 . S
C2694 C2695 1.391 . S
C2695 H2683 0.950 . S
C2695 C2691 1.393 . S
C2695 C2694 1.391 . S
H2696 C2704 0.950 . S
H2697 C2709 0.950 . S
H2698 C2706 0.950 . S
H2699 C2708 0.950 . S
H2700 C2710 0.950 . S
H2701 C2712 0.950 . S
H2702 C2714 0.950 . S
H2703 C2715 0.950 . S
C2704 H2696 0.950 . S
C2704 C2705 1.386 . S
C2704 C2706 1.391 . S
C2705 C2704 1.386 . S
C2705 C2709 1.393 . S
C2706 H2698 0.950 . S
C2706 C2704 1.391 . S
C2706 C2707 1.400 . S
C2707 C2706 1.400 . S
C2707 C2708 1.398 . S
C2707 C2713 1.491 . S
C2708 H2699 0.950 . S
C2708 C2707 1.398 . S
C2708 C2709 1.391 . S
C2709 H2697 0.950 . S
C2709 C2705 1.393 . S
C2709 C2708 1.391 . S
C2710 H2700 0.950 . S
C2710 C2711 1.386 . S
C2710 C2712 1.391 . S
C2711 C2710 1.386 . S
C2711 C2715 1.393 . S
C2712 H2701 0.950 . S
C2712 C2710 1.391 . S
C2712 C2713 1.400 . S
C2713 C2707 1.491 . S
C2713 C2712 1.400 . S
C2713 C2714 1.398 . S
C2714 H2702 0.950 . S
C2714 C2713 1.398 . S
C2714 C2715 1.391 . S
C2715 H2703 0.950 . S
C2715 C2711 1.393 . S
C2715 C2714 1.391 . S
H2716 C2724 0.950 . S
H2717 C2729 0.950 . S
H2718 C2726 0.950 . S
H2719 C2728 0.950 . S
H2720 C2730 0.950 . S
H2721 C2732 0.950 . S
H2722 C2734 0.950 . S
H2723 C2735 0.950 . S
C2724 H2716 0.950 . S
C2724 C2725 1.386 . S
C2724 C2726 1.391 . S
C2725 C2724 1.386 . S
C2725 C2729 1.393 . S
C2726 H2718 0.950 . S
C2726 C2724 1.391 . S
C2726 C2727 1.400 . S
C2727 C2726 1.400 . S
C2727 C2728 1.398 . S
C2727 C2733 1.491 . S
C2728 H2719 0.950 . S
C2728 C2727 1.398 . S
C2728 C2729 1.391 . S
C2729 H2717 0.950 . S
C2729 C2725 1.393 . S
C2729 C2728 1.391 . S
C2730 H2720 0.950 . S
C2730 C2731 1.386 . S
C2730 C2732 1.391 . S
C2731 C2730 1.386 . S
C2731 C2735 1.393 . S
C2732 H2721 0.950 . S
C2732 C2730 1.391 . S
C2732 C2733 1.400 . S
C2733 C2727 1.491 . S
C2733 C2732 1.400 . S
C2733 C2734 1.398 . S
C2734 H2722 0.950 . S
C2734 C2733 1.398 . S
C2734 C2735 1.391 . S
C2735 H2723 0.950 . S
C2735 C2731 1.393 . S
C2735 C2734 1.391 . S
C831 C337 1.792 . S
C825 C5 1.819 . S
C845 C23 1.009 . S
C851 C382 1.010 . S
C865 C39 1.677 . S
C871 C406 1.650 . S
C891 N432 1.033 . S
C885 C42 1.021 . S
C905 C19 1.115 . S
C911 N462 1.124 . S
C931 C496 1.582 . S
C925 C28 1.604 . S
C951 C532 1.125 . S
C945 C53 1.119 . S
C965 C9 1.760 . S
C971 C556 1.739 . S
C985 C65 1.000 . S
C991 N350 0.991 . S
C1005 C75 1.117 . S
C1011 N372 1.120 . S
C1031 C412 1.081 . S
C1025 C93 1.082 . S
C1051 C436 1.710 . S
C1045 C109 1.739 . S
C1065 C56 1.215 . S
C1071 C466 1.198 . S
C1091 C502 1.029 . S
C1085 C81 1.028 . S
C1111 N522 1.104 . S
C1105 C84 1.097 . S
C1131 C562 1.698 . S
C1125 C103 1.721 . S
C1151 C363 1.639 . S
C1145 C107 1.649 . S
C1171 C592 1.029 . S
C1165 C121 1.028 . S
C1185 C131 1.149 . S
C1191 N612 1.153 . S
C1211 C646 1.598 . S
C1205 C140 1.622 . S
C1225 C61 0.960 . S
C1231 N552 0.960 . S
C1251 N402 1.039 1_565 S
C1245 C70 1.037 . S
C1265 C137 1.055 . S
C1271 C682 1.046 . S
C1291 C706 0.983 . S
C1285 C165 1.007 . S
C1305 C173 1.786 . S
C1311 C346 1.751 1_556 S
C1331 C723 0.962 . S
C1325 C182 0.951 . S
C1345 C207 1.651 . S
C1351 C397 1.617 . S
C1365 C219 1.009 . S
C1371 N680 1.015 . S
C1391 N470 1.098 . S
C1385 C187 1.097 . S
C1411 C607 1.573 . S
C1405 C205 1.599 . S
C1431 C543 1.089 . S
C1425 C221 1.098 . S
C1451 C727 1.703 . S
C1445 C168 1.719 . S
C1471 N342 0.962 . S
C1465 C224 0.960 . S
C1485 C243 1.084 . S
C1491 N710 1.091 . S
C1511 C423 1.022 . S
C1505 C252 1.024 . S
C1525 C277 1.713 . S
C1531 C667 1.679 . S
C1545 C233 1.232 . S
C1551 C457 1.203 1_655 S
C1565 C249 1.005 . S
C1571 C633 1.020 . S
C1591 N530 1.091 . S
C1585 C261 1.089 . S
C1605 C271 1.701 . S
C1611 C753 1.682 . S
C1625 C266 1.622 . S
C1631 C352 1.599 . S
C1645 C280 0.975 . S
C1651 C603 0.985 . S
C1665 C299 1.099 . S
C1671 N500 1.106 . S
C1685 C317 1.602 . S
C1691 C637 1.580 . S
C1711 N740 0.933 . S
C1705 C229 0.942 1_565 S
C1731 N410 1.034 . S
C1725 C247 1.029 . S
C1751 C453 1.018 . S
C1745 C305 1.011 . S
C1771 C367 0.980 . S
C1765 C333 0.999 . S
C1785 C33 1.817 . S
C1791 C757 1.787 . S
C1811 C712 0.993 . S
C1805 C51 1.006 . S
C1831 C796 1.645 . S
C1825 C11 1.675 . S
C1845 C14 1.026 1_655 S
C1851 N672 1.032 . S
C1865 C47 1.110 . S
C1871 N582 1.125 1_556 S
C1891 C616 1.583 . S
C1885 C0 1.600 . S
C1911 C652 1.127 . S
C1905 C25 1.133 . S
C1931 C736 1.737 . S
C1925 C37 1.757 . S
C1951 N770 0.992 . S
C1945 C163 0.999 . S
C1965 C117 1.105 1_556 S
C1971 N702 1.119 . S
C1985 C135 1.082 . S
C1991 C802 1.075 1_655 S
C2011 C676 1.713 . S
C2005 C151 1.738 . S
C2031 C586 1.193 . S
C2025 C154 1.206 . S
C2045 C123 1.036 . S
C2051 C622 1.044 . S
C2071 N642 1.114 . S
C2065 C126 1.086 . S
C2085 C145 1.723 . S
C2091 C742 1.705 . S
C2111 C783 1.645 . S
C2105 C149 1.655 . S
C2131 C472 1.029 . S
C2125 C79 1.028 . S
C2151 N492 1.148 . S
C2145 C89 1.134 1_565 S
C2165 C98 1.617 . S
C2171 C526 1.595 . S
C2191 N732 0.955 . S
C2185 C159 0.961 . S
C2205 C112 1.037 . S
C2211 N792 1.039 . S
C2231 C442 1.054 . S
C2225 C95 1.050 . S
C2251 C376 0.996 . S
C2245 C67 1.006 . S
C2265 C201 1.792 . S
C2271 C766 1.763 . S
C2291 C393 0.963 . S
C2285 C210 0.946 . S
C2311 C787 1.629 1_556 S
C2305 C179 1.651 . S
C2325 C191 1.015 . S
C2331 N440 1.014 . S
C2345 C215 1.091 . S
C2351 N590 1.095 . S
C2365 C177 1.597 . S
C2371 C487 1.579 . S
C2385 C193 1.104 . S
C2391 C663 1.101 . S
C2405 C196 1.719 . S
C2411 C547 1.691 . S
C2431 N762 0.959 . S
C2425 C322 0.962 . S
C2445 C285 1.089 . S
C2451 N380 1.088 . S
C2471 C813 1.024 . S
C2465 C294 1.010 . S
C2485 C319 1.706 . S
C2491 C427 1.676 . S
C2505 C331 1.228 . S
C2511 C577 1.190 . S
C2531 C513 1.010 . S
C2525 C291 1.009 . S
C2545 C303 1.088 . S
C2551 N650 1.091 . S
C2571 C573 1.675 . S
C2565 C313 1.698 . S
C2591 C772 1.601 . S
C2585 C308 1.624 . S
C2611 C483 0.980 . S
C2605 C238 0.985 . S
C2625 C257 1.097 . S
C2631 N620 1.106 . S
C2651 C517 1.581 1_565 S
C2645 C275 1.601 . S
C2671 N560 0.942 . S
C2665 C327 0.942 . S
C2685 C289 1.041 . S
C2691 N800 1.038 . S
C2711 C693 1.012 . S
C2705 C263 1.025 . S
C2731 C697 0.980 . S
C2725 C235 0.999 . S
