# Generated by pormake.
# Topology gar, (4,6)-cn, num edge types: 1
# Building blocks:
#     Node 0, Type 0, BuildingBlock: QUQFOY_clean_sbu_1, # of connection points: 4
#     Node 1, Type 0, BuildingBlock: QUQFOY_clean_sbu_1, # of connection points: 4
#     Node 2, Type 0, BuildingBlock: QUQFOY_clean_sbu_1, # of connection points: 4
#     Node 3, Type 0, BuildingBlock: QUQFOY_clean_sbu_1, # of connection points: 4
#     Node 4, Type 0, BuildingBlock: QUQFOY_clean_sbu_1, # of connection points: 4
#     Node 5, Type 0, BuildingBlock: QUQFOY_clean_sbu_1, # of connection points: 4
#     Node 6, Type 0, BuildingBlock: QUQFOY_clean_sbu_1, # of connection points: 4
#     Node 7, Type 0, BuildingBlock: QUQFOY_clean_sbu_1, # of connection points: 4
#     Node 8, Type 0, BuildingBlock: QUQFOY_clean_sbu_1, # of connection points: 4
#     Node 9, Type 0, BuildingBlock: QUQFOY_clean_sbu_1, # of connection points: 4
#     Node 10, Type 0, BuildingBlock: QUQFOY_clean_sbu_1, # of connection points: 4
#     Node 11, Type 0, BuildingBlock: QUQFOY_clean_sbu_1, # of connection points: 4
#     Node 12, Type 0, BuildingBlock: QUQFOY_clean_sbu_1, # of connection points: 4
#     Node 13, Type 0, BuildingBlock: QUQFOY_clean_sbu_1, # of connection points: 4
#     Node 14, Type 0, BuildingBlock: QUQFOY_clean_sbu_1, # of connection points: 4
#     Node 15, Type 0, BuildingBlock: QUQFOY_clean_sbu_1, # of connection points: 4
#     Node 16, Type 0, BuildingBlock: QUQFOY_clean_sbu_1, # of connection points: 4
#     Node 17, Type 0, BuildingBlock: QUQFOY_clean_sbu_1, # of connection points: 4
#     Node 18, Type 0, BuildingBlock: QUQFOY_clean_sbu_1, # of connection points: 4
#     Node 19, Type 0, BuildingBlock: QUQFOY_clean_sbu_1, # of connection points: 4
#     Node 20, Type 0, BuildingBlock: QUQFOY_clean_sbu_1, # of connection points: 4
#     Node 21, Type 0, BuildingBlock: QUQFOY_clean_sbu_1, # of connection points: 4
#     Node 22, Type 0, BuildingBlock: QUQFOY_clean_sbu_1, # of connection points: 4
#     Node 23, Type 0, BuildingBlock: QUQFOY_clean_sbu_1, # of connection points: 4
#     Node 24, Type 1, BuildingBlock: KUMBUR_clean_sbu_1, # of connection points: 6
#     Node 25, Type 1, BuildingBlock: KUMBUR_clean_sbu_1, # of connection points: 6
#     Node 26, Type 1, BuildingBlock: KUMBUR_clean_sbu_1, # of connection points: 6
#     Node 27, Type 1, BuildingBlock: KUMBUR_clean_sbu_1, # of connection points: 6
#     Node 28, Type 1, BuildingBlock: KUMBUR_clean_sbu_1, # of connection points: 6
#     Node 29, Type 1, BuildingBlock: KUMBUR_clean_sbu_1, # of connection points: 6
#     Node 30, Type 1, BuildingBlock: KUMBUR_clean_sbu_1, # of connection points: 6
#     Node 31, Type 1, BuildingBlock: KUMBUR_clean_sbu_1, # of connection points: 6
#     Node 32, Type 1, BuildingBlock: KUMBUR_clean_sbu_1, # of connection points: 6
#     Node 33, Type 1, BuildingBlock: KUMBUR_clean_sbu_1, # of connection points: 6
#     Node 34, Type 1, BuildingBlock: KUMBUR_clean_sbu_1, # of connection points: 6
#     Node 35, Type 1, BuildingBlock: KUMBUR_clean_sbu_1, # of connection points: 6
#     Node 36, Type 1, BuildingBlock: KUMBUR_clean_sbu_1, # of connection points: 6
#     Node 37, Type 1, BuildingBlock: KUMBUR_clean_sbu_1, # of connection points: 6
#     Node 38, Type 1, BuildingBlock: KUMBUR_clean_sbu_1, # of connection points: 6
#     Node 39, Type 1, BuildingBlock: KUMBUR_clean_sbu_1, # of connection points: 6
#     Edge 40, Type (0, 1), BuildingBlock: KIFKEQ_clean_linker_1, # of connection points: 2
#     Edge 41, Type (0, 1), BuildingBlock: KIFKEQ_clean_linker_1, # of connection points: 2
#     Edge 42, Type (0, 1), BuildingBlock: KIFKEQ_clean_linker_1, # of connection points: 2
#     Edge 43, Type (0, 1), BuildingBlock: KIFKEQ_clean_linker_1, # of connection points: 2
#     Edge 44, Type (0, 1), BuildingBlock: KIFKEQ_clean_linker_1, # of connection points: 2
#     Edge 45, Type (0, 1), BuildingBlock: KIFKEQ_clean_linker_1, # of connection points: 2
#     Edge 46, Type (0, 1), BuildingBlock: KIFKEQ_clean_linker_1, # of connection points: 2
#     Edge 47, Type (0, 1), BuildingBlock: KIFKEQ_clean_linker_1, # of connection points: 2
#     Edge 48, Type (0, 1), BuildingBlock: KIFKEQ_clean_linker_1, # of connection points: 2
#     Edge 49, Type (0, 1), BuildingBlock: KIFKEQ_clean_linker_1, # of connection points: 2
#     Edge 50, Type (0, 1), BuildingBlock: KIFKEQ_clean_linker_1, # of connection points: 2
#     Edge 51, Type (0, 1), BuildingBlock: KIFKEQ_clean_linker_1, # of connection points: 2
#     Edge 52, Type (0, 1), BuildingBlock: KIFKEQ_clean_linker_1, # of connection points: 2
#     Edge 53, Type (0, 1), BuildingBlock: KIFKEQ_clean_linker_1, # of connection points: 2
#     Edge 54, Type (0, 1), BuildingBlock: KIFKEQ_clean_linker_1, # of connection points: 2
#     Edge 55, Type (0, 1), BuildingBlock: KIFKEQ_clean_linker_1, # of connection points: 2
#     Edge 56, Type (0, 1), BuildingBlock: KIFKEQ_clean_linker_1, # of connection points: 2
#     Edge 57, Type (0, 1), BuildingBlock: KIFKEQ_clean_linker_1, # of connection points: 2
#     Edge 58, Type (0, 1), BuildingBlock: KIFKEQ_clean_linker_1, # of connection points: 2
#     Edge 59, Type (0, 1), BuildingBlock: KIFKEQ_clean_linker_1, # of connection points: 2
#     Edge 60, Type (0, 1), BuildingBlock: KIFKEQ_clean_linker_1, # of connection points: 2
#     Edge 61, Type (0, 1), BuildingBlock: KIFKEQ_clean_linker_1, # of connection points: 2
#     Edge 62, Type (0, 1), BuildingBlock: KIFKEQ_clean_linker_1, # of connection points: 2
#     Edge 63, Type (0, 1), BuildingBlock: KIFKEQ_clean_linker_1, # of connection points: 2
#     Edge 64, Type (0, 1), BuildingBlock: KIFKEQ_clean_linker_1, # of connection points: 2
#     Edge 65, Type (0, 1), BuildingBlock: KIFKEQ_clean_linker_1, # of connection points: 2
#     Edge 66, Type (0, 1), BuildingBlock: KIFKEQ_clean_linker_1, # of connection points: 2
#     Edge 67, Type (0, 1), BuildingBlock: KIFKEQ_clean_linker_1, # of connection points: 2
#     Edge 68, Type (0, 1), BuildingBlock: KIFKEQ_clean_linker_1, # of connection points: 2
#     Edge 69, Type (0, 1), BuildingBlock: KIFKEQ_clean_linker_1, # of connection points: 2
#     Edge 70, Type (0, 1), BuildingBlock: KIFKEQ_clean_linker_1, # of connection points: 2
#     Edge 71, Type (0, 1), BuildingBlock: KIFKEQ_clean_linker_1, # of connection points: 2
#     Edge 72, Type (0, 1), BuildingBlock: KIFKEQ_clean_linker_1, # of connection points: 2
#     Edge 73, Type (0, 1), BuildingBlock: KIFKEQ_clean_linker_1, # of connection points: 2
#     Edge 74, Type (0, 1), BuildingBlock: KIFKEQ_clean_linker_1, # of connection points: 2
#     Edge 75, Type (0, 1), BuildingBlock: KIFKEQ_clean_linker_1, # of connection points: 2
#     Edge 76, Type (0, 1), BuildingBlock: KIFKEQ_clean_linker_1, # of connection points: 2
#     Edge 77, Type (0, 1), BuildingBlock: KIFKEQ_clean_linker_1, # of connection points: 2
#     Edge 78, Type (0, 1), BuildingBlock: KIFKEQ_clean_linker_1, # of connection points: 2
#     Edge 79, Type (0, 1), BuildingBlock: KIFKEQ_clean_linker_1, # of connection points: 2
#     Edge 80, Type (0, 1), BuildingBlock: KIFKEQ_clean_linker_1, # of connection points: 2
#     Edge 81, Type (0, 1), BuildingBlock: KIFKEQ_clean_linker_1, # of connection points: 2
#     Edge 82, Type (0, 1), BuildingBlock: KIFKEQ_clean_linker_1, # of connection points: 2
#     Edge 83, Type (0, 1), BuildingBlock: KIFKEQ_clean_linker_1, # of connection points: 2
#     Edge 84, Type (0, 1), BuildingBlock: KIFKEQ_clean_linker_1, # of connection points: 2
#     Edge 85, Type (0, 1), BuildingBlock: KIFKEQ_clean_linker_1, # of connection points: 2
#     Edge 86, Type (0, 1), BuildingBlock: KIFKEQ_clean_linker_1, # of connection points: 2
#     Edge 87, Type (0, 1), BuildingBlock: KIFKEQ_clean_linker_1, # of connection points: 2
#     Edge 88, Type (0, 1), BuildingBlock: KIFKEQ_clean_linker_1, # of connection points: 2
#     Edge 89, Type (0, 1), BuildingBlock: KIFKEQ_clean_linker_1, # of connection points: 2
#     Edge 90, Type (0, 1), BuildingBlock: KIFKEQ_clean_linker_1, # of connection points: 2
#     Edge 91, Type (0, 1), BuildingBlock: KIFKEQ_clean_linker_1, # of connection points: 2
#     Edge 92, Type (0, 1), BuildingBlock: KIFKEQ_clean_linker_1, # of connection points: 2
#     Edge 93, Type (0, 1), BuildingBlock: KIFKEQ_clean_linker_1, # of connection points: 2
#     Edge 94, Type (0, 1), BuildingBlock: KIFKEQ_clean_linker_1, # of connection points: 2
#     Edge 95, Type (0, 1), BuildingBlock: KIFKEQ_clean_linker_1, # of connection points: 2
#     Edge 96, Type (0, 1), BuildingBlock: KIFKEQ_clean_linker_1, # of connection points: 2
#     Edge 97, Type (0, 1), BuildingBlock: KIFKEQ_clean_linker_1, # of connection points: 2
#     Edge 98, Type (0, 1), BuildingBlock: KIFKEQ_clean_linker_1, # of connection points: 2
#     Edge 99, Type (0, 1), BuildingBlock: KIFKEQ_clean_linker_1, # of connection points: 2
#     Edge 100, Type (0, 1), BuildingBlock: KIFKEQ_clean_linker_1, # of connection points: 2
#     Edge 101, Type (0, 1), BuildingBlock: KIFKEQ_clean_linker_1, # of connection points: 2
#     Edge 102, Type (0, 1), BuildingBlock: KIFKEQ_clean_linker_1, # of connection points: 2
#     Edge 103, Type (0, 1), BuildingBlock: KIFKEQ_clean_linker_1, # of connection points: 2
#     Edge 104, Type (0, 1), BuildingBlock: KIFKEQ_clean_linker_1, # of connection points: 2
#     Edge 105, Type (0, 1), BuildingBlock: KIFKEQ_clean_linker_1, # of connection points: 2
#     Edge 106, Type (0, 1), BuildingBlock: KIFKEQ_clean_linker_1, # of connection points: 2
#     Edge 107, Type (0, 1), BuildingBlock: KIFKEQ_clean_linker_1, # of connection points: 2
#     Edge 108, Type (0, 1), BuildingBlock: KIFKEQ_clean_linker_1, # of connection points: 2
#     Edge 109, Type (0, 1), BuildingBlock: KIFKEQ_clean_linker_1, # of connection points: 2
#     Edge 110, Type (0, 1), BuildingBlock: KIFKEQ_clean_linker_1, # of connection points: 2
#     Edge 111, Type (0, 1), BuildingBlock: KIFKEQ_clean_linker_1, # of connection points: 2
#     Edge 112, Type (0, 1), BuildingBlock: KIFKEQ_clean_linker_1, # of connection points: 2
#     Edge 113, Type (0, 1), BuildingBlock: KIFKEQ_clean_linker_1, # of connection points: 2
#     Edge 114, Type (0, 1), BuildingBlock: KIFKEQ_clean_linker_1, # of connection points: 2
#     Edge 115, Type (0, 1), BuildingBlock: KIFKEQ_clean_linker_1, # of connection points: 2
#     Edge 116, Type (0, 1), BuildingBlock: KIFKEQ_clean_linker_1, # of connection points: 2
#     Edge 117, Type (0, 1), BuildingBlock: KIFKEQ_clean_linker_1, # of connection points: 2
#     Edge 118, Type (0, 1), BuildingBlock: KIFKEQ_clean_linker_1, # of connection points: 2
#     Edge 119, Type (0, 1), BuildingBlock: KIFKEQ_clean_linker_1, # of connection points: 2
#     Edge 120, Type (0, 1), BuildingBlock: KIFKEQ_clean_linker_1, # of connection points: 2
#     Edge 121, Type (0, 1), BuildingBlock: KIFKEQ_clean_linker_1, # of connection points: 2
#     Edge 122, Type (0, 1), BuildingBlock: KIFKEQ_clean_linker_1, # of connection points: 2
#     Edge 123, Type (0, 1), BuildingBlock: KIFKEQ_clean_linker_1, # of connection points: 2
#     Edge 124, Type (0, 1), BuildingBlock: KIFKEQ_clean_linker_1, # of connection points: 2
#     Edge 125, Type (0, 1), BuildingBlock: KIFKEQ_clean_linker_1, # of connection points: 2
#     Edge 126, Type (0, 1), BuildingBlock: KIFKEQ_clean_linker_1, # of connection points: 2
#     Edge 127, Type (0, 1), BuildingBlock: KIFKEQ_clean_linker_1, # of connection points: 2
#     Edge 128, Type (0, 1), BuildingBlock: KIFKEQ_clean_linker_1, # of connection points: 2
#     Edge 129, Type (0, 1), BuildingBlock: KIFKEQ_clean_linker_1, # of connection points: 2
#     Edge 130, Type (0, 1), BuildingBlock: KIFKEQ_clean_linker_1, # of connection points: 2
#     Edge 131, Type (0, 1), BuildingBlock: KIFKEQ_clean_linker_1, # of connection points: 2
#     Edge 132, Type (0, 1), BuildingBlock: KIFKEQ_clean_linker_1, # of connection points: 2
#     Edge 133, Type (0, 1), BuildingBlock: KIFKEQ_clean_linker_1, # of connection points: 2
#     Edge 134, Type (0, 1), BuildingBlock: KIFKEQ_clean_linker_1, # of connection points: 2
#     Edge 135, Type (0, 1), BuildingBlock: KIFKEQ_clean_linker_1, # of connection points: 2
# Relax obj value: 0.091
# Max RMSD: 0.188
# Mean RMSD: 0.141
data_MOF--net-gar--node1-QUQFOY_clean_sbu_1--node2-KUMBUR_clean_sbu_1--edge1-KIFKEQ_clean_linker_1
_symmetry_space_group_name_H-M    P1
_symmetry_Int_Tables_number       1
_symmetry_cell_setting            triclinic
loop_
_symmetry_equiv_pos_as_xyz
'x, y, z'
_cell_length_a     61.778185
_cell_length_b     61.784489
_cell_length_c     58.06159
_cell_angle_alpha  96.400066
_cell_angle_beta   96.41389
_cell_angle_gamma 103.30995
loop_
_atom_site_label
_atom_site_type_symbol
_atom_site_fract_x
_atom_site_fract_y
_atom_site_fract_z
_atom_type_partial_charge
O0 O 0.05974 0.28587 0.38286 0.0
Cd1 Cd 0.06094 0.3038 0.35433 0.0
Cd2 Cd 0.04494 0.33445 0.40003 0.0
O3 O 0.05456 0.30744 0.41428 0.0
O4 O 0.07858 0.2866 0.33265 0.0
O5 O 0.09327 0.32121 0.3487 0.0
C6 C 0.09607 0.30341 0.33658 0.0
C7 C 0.04774 0.36919 0.42568 0.0
C8 C 0.05809 0.28913 0.40463 0.0
C9 C 1.01234 0.31538 0.3514 0.0
O10 O 0.0178 0.32542 0.37252 0.0
O11 O 0.02672 0.30701 0.34084 0.0
O12 O 0.03362 0.35072 0.42734 0.0
O13 O 0.06066 0.3682 0.40979 0.0
O14 O 0.01796 0.72575 0.70422 0.0
Cd15 Cd 0.02338 0.7549 0.72981 0.0
Cd16 Cd 0.04355 0.77315 0.69303 0.0
O17 O 0.03059 0.7417 0.67439 0.0
O18 O 0.99767 0.74897 0.75119 0.0
O19 O 0.99908 0.77421 0.72776 0.0
C20 C 0.98815 0.76343 0.74247 0.0
C21 C 0.04117 0.80509 0.67528 0.0
C22 C 0.0219 0.72424 0.68297 0.0
C23 C 0.0768 0.77087 0.7349 0.0
O24 O 0.07325 0.77487 0.71401 0.0
O25 O 0.05974 0.76485 0.74598 0.0
O26 O 0.05453 0.79285 0.66957 0.0
O27 O 0.02851 0.79902 0.69083 0.0
O28 O 0.59938 0.81952 0.87683 0.0
Cd29 Cd 0.57567 0.81964 0.9 0.0
Cd30 Cd 0.55185 0.83622 0.85809 0.0
O31 O 0.58233 0.82784 0.84447 0.0
O32 O 0.58708 0.8041 0.92599 0.0
O33 O 0.55523 0.78935 0.90261 0.0
C34 C 0.56976 0.78745 0.91961 0.0
C35 C 0.51121 0.82488 0.84106 0.0
C36 C 0.5994 0.82233 0.85539 0.0
C37 C 0.5635 0.86584 0.9076 0.0
O38 O 0.55758 0.86414 0.88544 0.0
O39 O 0.57001 0.84985 0.91623 0.0
O40 O 0.52579 0.83983 0.83323 0.0
O41 O 0.51966 0.81491 0.857 0.0
O42 O 0.52017 0.21285 0.19956 0.0
Cd43 Cd 0.52485 0.24215 0.22545 0.0
Cd44 Cd 0.54508 0.26289 0.19001 0.0
O45 O 0.53488 0.23088 0.17195 0.0
O46 O 0.49917 0.23881 0.24721 0.0
O47 O 0.50067 0.26141 0.22098 0.0
C48 C 0.48987 0.2526 0.23689 0.0
C49 C 0.54342 0.29339 0.16933 0.0
C50 C 0.52615 0.21255 0.17906 0.0
C51 C 0.57814 0.26216 0.23249 0.0
O52 O 0.57443 0.26768 0.21229 0.0
O53 O 0.56107 0.25307 0.24229 0.0
O54 O 0.55672 0.28064 0.16532 0.0
O55 O 0.53026 0.28851 0.18477 0.0
O56 O 0.06093 0.76795 0.12395 0.0
Cd57 Cd 0.0643 0.79832 0.14453 0.0
Cd58 Cd 0.08462 0.8165 0.1077 0.0
O59 O 0.07435 0.77984 0.09268 0.0
O60 O 0.04455 0.78887 0.16857 0.0
O61 O 0.03889 0.81404 0.14587 0.0
C62 C 0.03273 0.80232 0.16211 0.0
C63 C 0.07596 0.85166 0.09459 0.0
C64 C 0.06616 0.76335 0.10374 0.0
C65 C 0.11402 0.81848 0.15521 0.0
O66 O 0.11333 0.82177 0.13376 0.0
O67 O 0.09589 0.81102 0.16336 0.0
O68 O 0.09032 0.84199 0.08587 0.0
O69 O 0.06539 0.84096 0.10959 0.0
O70 O 0.5522 0.77756 0.45169 0.0
Cd71 Cd 0.53549 0.77735 0.4815 0.0
Cd72 Cd 0.50482 0.79452 0.43681 0.0
O73 O 0.53161 0.78639 0.42166 0.0
O74 O 0.55247 0.7597 0.50359 0.0
O75 O 0.51816 0.74488 0.48686 0.0
C76 C 0.53576 0.74211 0.49937 0.0
C77 C 0.47022 0.79265 0.41158 0.0
C78 C 0.54921 0.78089 0.4303 0.0
C79 C 0.52523 0.82668 0.48511 0.0
O80 O 0.51479 0.82115 0.46422 0.0
O81 O 0.53316 0.81203 0.49568 0.0
O82 O 0.48826 0.80808 0.41179 0.0
O83 O 0.47159 0.7779 0.42541 0.0
O84 O 0.57049 0.26379 0.62492 0.0
Cd85 Cd 0.57454 0.29313 0.64738 0.0
Cd86 Cd 0.59494 0.31335 0.61199 0.0
O87 O 0.58458 0.27748 0.59475 0.0
O88 O 0.55511 0.28087 0.67031 0.0
O89 O 0.54855 0.30786 0.65074 0.0
C90 C 0.54249 0.29406 0.66528 0.0
C91 C 0.58518 0.34833 0.60013 0.0
C92 C 0.57566 0.26033 0.60452 0.0
C93 C 0.6242 0.31351 0.65948 0.0
O94 O 0.62357 0.31819 0.63848 0.0
O95 O 0.60601 0.30483 0.66693 0.0
O96 O 0.60105 0.34043 0.59234 0.0
O97 O 0.57393 0.33614 0.61362 0.0
O98 O 1.01649 0.23674 0.95916 0.0
Cd99 Cd 1.01601 0.25965 0.93509 0.0
Cd100 Cd 1.00134 0.28627 0.97746 0.0
O101 O 1.00894 0.25534 0.99114 0.0
O102 O 0.03238 0.24922 0.90937 0.0
O103 O 0.04585 0.28096 0.93337 0.0
C104 C 0.04845 0.267 0.9162 0.0
C105 C 1.01211 0.32641 0.9962 0.0
C106 C 1.01402 0.23773 0.98075 0.0
C107 C 0.97143 0.27445 0.9272 0.0
O108 O 0.97444 0.28211 0.94909 0.0
O109 O 0.98595 0.26537 0.91867 0.0
O110 O 0.99562 0.31167 1.00157 0.0
O111 O 0.02387 0.31833 0.98191 0.0
O112 O 0.39581 0.03395 0.28122 0.0
Cd113 Cd 0.38156 0.03398 0.31191 0.0
Cd114 Cd 0.41796 0.03004 0.32741 0.0
O115 O 0.42776 0.04993 0.30323 0.0
O116 O 0.35897 0.0513 0.31208 0.0
O117 O 0.39266 0.06212 0.33418 0.0
C118 C 0.37354 0.06603 0.32713 0.0
C119 C 0.43912 0.0366 0.36315 0.0
C120 C 0.4164 0.04414 0.28309 0.0
C121 C 0.38176 0.99005 0.31932 0.0
O122 O 0.40204 0.9971 0.31641 0.0
O123 O 0.36994 1.00396 0.32299 0.0
O124 O 0.44623 0.02851 0.34484 0.0
O125 O 0.41986 0.04156 0.36096 0.0
O126 O 0.29469 0.19898 0.56987 0.0
Cd127 Cd 0.29008 0.17482 0.54081 0.0
Cd128 Cd 0.27131 0.20745 0.51955 0.0
O129 O 0.28057 0.2249 0.55444 0.0
O130 O 0.3047 0.15202 0.5533 0.0
O131 O 0.31624 0.16989 0.52442 0.0
C132 C 0.31846 0.15533 0.53826 0.0
C133 C 0.27923 0.22179 0.48367 0.0
C134 C 0.28937 0.21774 0.57224 0.0
C135 C 0.24058 0.16166 0.52133 0.0
O136 O 0.2425 0.1814 0.51603 0.0
O137 O 0.25767 0.15572 0.53024 0.0
O138 O 0.26437 0.22742 0.49547 0.0
O139 O 0.29073 0.20906 0.49286 0.0
O140 O 0.13683 0.04775 0.76203 0.0
Cd141 Cd 0.15907 0.04964 0.79161 0.0
Cd142 Cd 0.12814 0.07071 0.81111 0.0
O143 O 0.11029 0.06142 0.77631 0.0
O144 O 0.18098 0.03557 0.77683 0.0
O145 O 0.16442 0.02198 0.80551 0.0
C146 C 0.17825 0.02066 0.79066 0.0
C147 C 0.1149 0.06107 0.84663 0.0
C148 C 0.11838 0.05348 0.75879 0.0
C149 C 0.17465 0.09919 0.80963 0.0
O150 O 0.15503 0.09907 0.81458 0.0
O151 O 0.17949 0.08119 0.8017 0.0
O152 O 0.10752 0.07532 0.83523 0.0
O153 O 0.12897 0.05137 0.83743 0.0
O154 O 0.30693 0.94729 0.04373 0.0
Cd155 Cd 0.30307 0.96001 0.01262 0.0
Cd156 Cd 0.30142 0.92181 1.00057 0.0
O157 O 0.28435 0.91516 0.02807 0.0
O158 O 0.29213 0.98648 0.0206 0.0
O159 O 0.27201 0.95573 0.9969 0.0
C160 C 0.27316 0.97499 0.00889 0.0
C161 C 0.29009 0.90301 0.96416 0.0
C162 C 0.29463 0.92843 0.04616 0.0
C163 C 0.34386 0.95522 1.00302 0.0
O164 O 0.33532 0.93604 0.00838 0.0
O165 O 0.33112 0.96773 0.99735 0.0
O166 O 0.29782 0.89342 0.98078 0.0
O167 O 0.28786 0.92329 0.96851 0.0
O168 O 0.31093 0.39212 0.09539 0.0
Cd169 Cd 0.31242 0.41358 0.07049 0.0
Cd170 Cd 0.32488 0.3759 0.04523 0.0
O171 O 0.3135 0.36085 0.07446 0.0
O172 O 0.29909 0.43792 0.08433 0.0
O173 O 0.28342 0.41521 0.05169 0.0
C174 C 0.28267 0.43148 0.06739 0.0
C175 C 0.31516 0.359 0.00513 0.0
C176 C 0.31045 0.3713 0.0937 0.0
C177 C 0.35931 0.42131 0.05758 0.0
O178 O 0.35547 0.40016 0.05138 0.0
O179 O 0.34378 0.43005 0.06392 0.0
O180 O 0.32828 0.35194 0.0198 0.0
O181 O 0.30634 0.37474 0.01341 0.0
O182 O 0.77446 0.13736 0.11223 0.0
Cd183 Cd 0.77469 0.11397 0.08528 0.0
Cd184 Cd 0.77359 0.14668 0.05867 0.0
O185 O 0.7865 0.16392 0.09105 0.0
O186 O 0.79728 0.09743 0.09372 0.0
O187 O 0.8003 0.12249 0.06857 0.0
C188 C 0.80907 0.10935 0.08041 0.0
C189 C 0.78122 0.16839 0.02922 0.0
C190 C 0.78279 0.15775 0.11061 0.0
C191 C 0.73314 0.10746 0.05538 0.0
O192 O 0.74132 0.12753 0.05235 0.0
O193 O 0.74496 0.09682 0.06669 0.0
O194 O 0.76816 0.17227 0.04403 0.0
O195 O 0.79059 0.15193 0.0312 0.0
O196 O 0.19313 0.55528 0.23264 0.0
Cd197 Cd 0.21857 0.55767 0.25812 0.0
Cd198 Cd 0.18903 0.56221 0.28672 0.0
O199 O 0.16748 0.55009 0.2563 0.0
O200 O 0.23641 0.53673 0.24877 0.0
O201 O 0.21513 0.53386 0.27759 0.0
C202 C 0.22822 0.52589 0.26493 0.0
C203 C 0.1748 0.55448 0.32079 0.0
C204 C 0.17276 0.55044 0.23584 0.0
C205 C 0.22797 0.60151 0.284 0.0
O206 O 0.20893 0.59429 0.29031 0.0
O207 O 0.23679 0.58853 0.27182 0.0
O208 O 0.16787 0.56794 0.30811 0.0
O209 O 0.18961 0.54452 0.31391 0.0
O210 O 0.8131 0.89392 0.60349 0.0
Cd211 Cd 0.81516 0.91511 0.57834 0.0
Cd212 Cd 0.82763 0.8785 0.55352 0.0
O213 O 0.81792 0.86325 0.58337 0.0
O214 O 0.79879 0.93787 0.58902 0.0
O215 O 0.78797 0.91464 0.55572 0.0
C216 C 0.7847 0.93073 0.5701 0.0
C217 C 0.81703 0.86082 0.51377 0.0
C218 C 0.81379 0.87341 0.60225 0.0
C219 C 0.86132 0.92497 0.56488 0.0
O220 O 0.85745 0.90399 0.55768 0.0
O221 O 0.84621 0.93308 0.57311 0.0
O222 O 0.83234 0.85581 0.52771 0.0
O223 O 0.80648 0.87478 0.52271 0.0
O224 O 0.94593 0.02532 0.23548 0.0
Cd225 Cd 0.92517 0.02292 0.26141 0.0
Cd226 Cd 0.96134 1.00728 0.28373 0.0
O227 O 0.9758 0.0173 0.25394 0.0
O228 O 0.90045 0.03694 0.25031 0.0
O229 O 0.92599 0.05212 0.28122 0.0
C230 C 0.90862 0.05317 0.26718 0.0
C231 C 0.97835 0.01927 0.32331 0.0
C232 C 0.96603 0.02332 0.236 0.0
C233 C 0.9153 0.97546 0.27472 0.0
O234 O 0.93638 0.97746 0.27927 0.0
O235 O 0.90783 0.99193 0.26891 0.0
O236 O 0.98535 1.00524 0.30961 0.0
O237 O 0.96255 0.02761 0.31424 0.0
O238 O 0.28067 0.64097 0.60761 0.0
Cd239 Cd 0.27949 0.61565 0.58228 0.0
Cd240 Cd 0.27619 0.64616 0.55227 0.0
O241 O 0.28733 0.66622 0.58355 0.0
O242 O 0.30201 0.59902 0.59044 0.0
O243 O 0.30314 0.62153 0.56273 0.0
C244 C 0.31226 0.60861 0.5746 0.0
C245 C 0.27945 0.66573 0.52054 0.0
C246 C 0.28582 0.66121 0.60396 0.0
C247 C 0.23694 0.60587 0.55332 0.0
O248 O 0.24481 0.6248 0.54712 0.0
O249 O 0.24902 0.59727 0.5669 0.0
O250 O 0.26679 0.66914 0.5359 0.0
O251 O 0.29169 0.65171 0.52368 0.0
O252 O 0.44747 0.53084 0.74199 0.0
Cd253 Cd 0.42445 0.5274 0.76534 0.0
Cd254 Cd 0.46154 0.51333 0.79084 0.0
O255 O 0.47718 0.52364 0.76166 0.0
O256 O 0.40165 0.54237 0.75135 0.0
O257 O 0.42087 0.55399 0.78678 0.0
C258 C 0.40612 0.55648 0.77034 0.0
C259 C 0.47985 0.52222 0.83039 0.0
C260 C 0.46771 0.52923 0.74326 0.0
C261 C 0.41478 0.48022 0.77718 0.0
O262 O 0.43553 0.484 0.78544 0.0
O263 O 0.40696 0.49552 0.76894 0.0
O264 O 0.48461 0.50749 0.81551 0.0
O265 O 0.4656 0.53298 0.82256 0.0
O266 O 0.69424 0.05618 0.72651 0.0
Cd267 Cd 0.71937 0.05869 0.75216 0.0
Cd268 Cd 0.68872 0.06223 0.78021 0.0
O269 O 0.6679 0.05056 0.74939 0.0
O270 O 0.73729 0.03774 0.74349 0.0
O271 O 0.71577 0.03555 0.77224 0.0
C272 C 0.72908 0.02747 0.75999 0.0
C273 C 0.67382 0.05511 0.814 0.0
C274 C 0.67375 0.05116 0.72919 0.0
C275 C 0.72822 0.1017 0.77916 0.0
O276 O 0.70903 0.09412 0.78495 0.0
O277 O 0.73718 0.08932 0.76644 0.0
O278 O 0.66728 0.0685 0.80093 0.0
O279 O 0.68821 0.04446 0.80736 0.0
O280 O 0.78698 0.69754 0.07365 0.0
Cd281 Cd 0.78649 0.67693 0.04288 0.0
Cd282 Cd 0.76729 0.70945 0.02601 0.0
O283 O 0.77752 0.7268 0.06062 0.0
O284 O 0.80391 0.65592 0.05464 0.0
O285 O 0.81444 0.67692 0.02751 0.0
C286 C 0.81809 0.66227 0.04067 0.0
C287 C 0.77501 0.72416 0.99047 0.0
C288 C 0.7834 0.71698 0.0777 0.0
C289 C 0.73785 0.66221 0.02476 0.0
O290 O 0.73881 0.68286 0.02345 0.0
O291 O 0.75569 0.65577 0.02972 0.0
O292 O 0.76015 0.72963 1.00238 0.0
O293 O 0.78638 0.71112 0.99922 0.0
O294 O 0.89534 0.53664 0.78726 0.0
Cd295 Cd 0.87514 0.5346 0.81328 0.0
Cd296 Cd 0.91015 0.53354 0.83726 0.0
O297 O 0.92568 0.54984 0.81305 0.0
O298 O 0.85421 0.55314 0.80797 0.0
O299 O 0.88247 0.56115 0.83768 0.0
C300 C 0.86632 0.56684 0.82565 0.0
C301 C 0.92928 0.53843 0.87413 0.0
C302 C 0.91627 0.54559 0.792 0.0
C303 C 0.87399 0.49139 0.82256 0.0
O304 O 0.89479 0.50051 0.82736 0.0
O305 O 0.86018 0.50339 0.81935 0.0
O306 O 0.93577 0.52834 0.85664 0.0
O307 O 0.91239 0.54722 0.87061 0.0
O308 O 0.80489 0.44085 0.55795 0.0
Cd309 Cd 0.80611 0.45792 0.52949 0.0
Cd310 Cd 0.80892 0.42256 0.5073 0.0
O311 O 0.79402 0.40929 0.53368 0.0
O312 O 0.78784 0.47979 0.53084 0.0
O313 O 0.77903 0.44793 0.50571 0.0
C314 C 0.7741 0.46606 0.51425 0.0
C315 C 0.79807 0.40187 0.47096 0.0
C316 C 0.79743 0.41965 0.55432 0.0
C317 C 0.85004 0.45893 0.51824 0.0
O318 O 0.84232 0.43783 0.51449 0.0
O319 O 0.83695 0.47167 0.52146 0.0
O320 O 0.80878 0.39477 0.48762 0.0
O321 O 0.79335 0.42108 0.47483 0.0
O322 O 0.64432 0.54699 0.26819 0.0
Cd323 Cd 0.66486 0.54858 0.29921 0.0
Cd324 Cd 0.6313 0.5655 0.31712 0.0
O325 O 0.61454 0.5546 0.28188 0.0
O326 O 0.68737 0.53195 0.28955 0.0
O327 O 0.66466 0.52092 0.31512 0.0
C328 C 0.68039 0.51771 0.30328 0.0
C329 C 0.61737 0.55664 0.35296 0.0
C330 C 0.62444 0.54955 0.26449 0.0
C331 C 0.67713 0.59749 0.31819 0.0
O332 O 0.65646 0.59535 0.32044 0.0
O333 O 0.6843 0.58031 0.31209 0.0
O334 O 0.60946 0.56972 0.34025 0.0
O335 O 0.63234 0.54753 0.34484 0.0
Tb336 Tb 0.07965 0.06481 0.06319 0.0
C337 C 1.00069 0.98557 0.00927 0.0
N338 N 1.01315 1.00499 1.00361 0.0
C339 C 1.01348 0.98598 0.96523 0.0
C340 C 0.99472 0.96548 0.99332 0.0
C341 C 0.0189 1.00551 0.98157 0.0
C342 C 1.00155 0.96583 0.97119 0.0
C343 C 0.97926 0.96664 0.03701 0.0
C344 C 0.99284 0.98613 0.03069 0.0
C345 C 0.97392 0.94645 0.02151 0.0
C346 C 0.98155 0.94589 0.99967 0.0
Tb347 Tb 0.019 0.03607 0.03148 0.0
N348 N 0.99815 1.00599 0.04516 0.0
C349 C 0.97109 0.96818 0.05851 0.0
C350 C 0.98884 1.00789 0.06526 0.0
C351 C 0.9757 0.989 0.07258 0.0
H352 H 0.02671 0.02101 0.9759 0.0
H353 H 0.9687 0.99062 0.08878 0.0
H354 H 0.06834 0.07418 0.11883 0.0
H355 H 0.11731 0.12116 0.00576 0.0
H356 H 0.99079 0.02405 0.0752 0.0
H357 H 0.96066 0.9536 0.06405 0.0
H358 H 0.09687 0.08502 0.01505 0.0
H359 H 0.0181 0.98661 0.94783 0.0
H360 H 0.96352 0.93129 0.02604 0.0
H361 H 0.97684 0.93031 0.98765 0.0
H362 H 0.0759 0.10611 0.14969 0.0
H363 H 0.99712 0.95081 0.95836 0.0
H364 H 0.12863 0.15441 0.03632 0.0
N365 N 0.08148 0.09327 0.09283 0.0
C366 C 0.0936 0.11366 0.08902 0.0
C367 C 0.08056 0.10859 0.13257 0.0
C368 C 0.09939 0.13232 0.1069 0.0
C369 C 0.0755 0.09048 0.11453 0.0
C370 C 0.09251 0.1296 0.12875 0.0
N371 N 0.09448 0.09767 0.05003 0.0
C372 C 0.10052 0.0994 0.02827 0.0
C373 C 0.11315 0.13675 0.06277 0.0
C374 C 0.10058 0.11583 0.06716 0.0
C375 C 0.11908 0.13861 0.04039 0.0
C376 C 0.11259 0.11991 0.02305 0.0
H377 H 0.09677 0.14348 0.14295 0.0
H378 H 0.11698 0.1674 0.11623 0.0
H379 H 0.12883 0.17133 0.07761 0.0
O380 O 0.11391 0.06878 0.06022 0.0
O381 O 0.05726 0.08819 0.05444 0.0
O382 O 0.03282 0.06977 0.02178 0.0
O383 O 0.10203 0.06558 0.09338 0.0
O384 O 0.07912 0.04869 0.02707 0.0
O385 O 0.0438 0.04808 0.00868 0.0
O386 O 0.99262 0.0504 0.03956 0.0
O387 O 0.03544 1.0116 0.04798 0.0
O388 O 0.07386 0.02714 0.05812 0.0
O389 O 0.99185 0.03202 0.00477 0.0
O390 O 0.02407 0.05358 0.06766 0.0
O391 O 0.05647 0.047 0.08464 0.0
C392 C 0.04285 0.08866 0.03573 0.0
C393 C 0.13593 0.05584 0.08934 0.0
C394 C 0.1593 0.03042 0.08007 0.0
C395 C 0.16961 0.03473 0.10353 0.0
C396 C 0.14643 0.06014 0.11267 0.0
C397 C 0.16315 0.04954 0.11973 0.0
C398 C 0.14238 0.04094 0.07305 0.0
C399 C 0.06486 0.04745 0.00798 0.0
C400 C 0.11938 0.06826 0.08241 0.0
C401 C 0.11223 0.15299 0.10262 0.0
C402 C 0.11907 0.1552 0.08065 0.0
C403 C 0.05606 1.00957 0.0548 0.0
C404 C 0.96047 0.04821 0.01051 0.0
C405 C 0.93079 0.06578 0.01938 0.0
C406 C 0.92181 0.06201 0.99561 0.0
C407 C 0.95143 0.04416 0.98667 0.0
C408 C 0.94989 0.05876 0.0268 0.0
C409 C 0.93208 0.05104 0.97929 0.0
C410 C 0.03579 0.04853 0.0857 0.0
C411 C 0.98208 0.04374 0.01829 0.0
H412 H 0.18309 0.02714 0.10916 0.0
H413 H 0.14186 0.07194 0.12535 0.0
H414 H 0.17135 0.05308 0.13768 0.0
H415 H 0.13453 0.03773 0.05493 0.0
H416 H 0.90685 0.06737 0.9898 0.0
H417 H 0.95956 0.03621 0.97374 0.0
H418 H 0.95671 0.062 0.04526 0.0
H419 H 0.9252 0.04809 0.96092 0.0
Tb420 Tb 0.2717 0.79736 0.31281 0.0
C421 C 0.32175 0.76041 0.22497 0.0
N422 N 0.33021 0.77744 0.24282 0.0
C423 C 0.36483 0.76599 0.24771 0.0
C424 C 0.33437 0.7451 0.21805 0.0
C425 C 0.35152 0.78053 0.25413 0.0
C426 C 0.35619 0.74813 0.22964 0.0
C427 C 0.29019 0.73983 0.19625 0.0
C428 C 0.30003 0.75791 0.21421 0.0
C429 C 0.30265 0.72449 0.18925 0.0
C430 C 0.32471 0.72715 0.20009 0.0
Tb431 Tb 0.30711 0.79984 0.25273 0.0
N432 N 0.28832 0.77276 0.22197 0.0
C433 C 0.26806 0.73753 0.18606 0.0
C434 C 0.26682 0.77078 0.21157 0.0
C435 C 0.25639 0.75315 0.19368 0.0
H436 H 0.35847 0.79438 0.26793 0.0
H437 H 0.2393 0.75163 0.18576 0.0
H438 H 0.22026 0.80409 0.29868 0.0
H439 H 0.33772 0.8389 0.38454 0.0
H440 H 0.25733 0.78255 0.21663 0.0
H441 H 0.25985 0.72382 0.1723 0.0
H442 H 0.31962 0.81011 0.35162 0.0
H443 H 0.38172 0.76855 0.25672 0.0
H444 H 0.29533 0.71045 0.17556 0.0
H445 H 0.33408 0.71514 0.1946 0.0
H446 H 0.1974 0.82954 0.31197 0.0
H447 H 0.36645 0.73676 0.22482 0.0
H448 H 0.31787 0.86682 0.39942 0.0
N449 N 0.24854 0.81931 0.32444 0.0
C450 C 0.25688 0.835 0.34364 0.0
C451 C 0.2142 0.8314 0.32092 0.0
C452 C 0.24444 0.85002 0.35179 0.0
C453 C 0.22733 0.81713 0.31325 0.0
C454 C 0.22284 0.84804 0.34016 0.0
N455 N 0.28989 0.82192 0.34584 0.0
C456 C 0.31072 0.82228 0.35698 0.0
C457 C 0.28797 0.85305 0.3741 0.0
C458 C 0.27825 0.83635 0.35477 0.0
C459 C 0.30975 0.85416 0.38463 0.0
C460 C 0.32105 0.83853 0.37619 0.0
H461 H 0.2127 0.8592 0.34593 0.0
H462 H 0.24478 0.87848 0.37744 0.0
H463 H 0.28301 0.88125 0.39686 0.0
O464 O 0.27347 0.77203 0.33367 0.0
O465 O 0.28658 0.83243 0.31037 0.0
O466 O 0.29723 0.81341 0.28316 0.0
O467 O 0.24157 0.77764 0.32034 0.0
O468 O 0.30549 0.78873 0.31527 0.0
O469 O 0.32772 0.80468 0.28771 0.0
O470 O 0.306 0.82359 0.22993 0.0
O471 O 0.29696 0.76649 0.26229 0.0
O472 O 0.26976 0.7774 0.27905 0.0
O473 O 0.33757 0.82166 0.24847 0.0
O474 O 0.27428 0.80953 0.24854 0.0
O475 O 0.25187 0.79876 0.27825 0.0
C476 C 0.29764 0.83322 0.29303 0.0
C477 C 0.24525 0.76637 0.35772 0.0
C478 C 0.24718 0.75042 0.3938 0.0
C479 C 0.23323 0.76338 0.40253 0.0
C480 C 0.23142 0.77957 0.36651 0.0
C481 C 0.22543 0.778 0.38888 0.0
C482 C 0.25309 0.75188 0.37148 0.0
C483 C 0.32517 0.79523 0.30718 0.0
C484 C 0.25194 0.76724 0.33441 0.0
C485 C 0.25401 0.86666 0.37106 0.0
C486 C 0.27576 0.86822 0.38213 0.0
C487 C 0.28094 0.76226 0.27514 0.0
C488 C 0.33694 0.83097 0.20998 0.0
C489 C 0.33595 0.8438 0.17209 0.0
C490 C 0.35038 0.83048 0.16546 0.0
C491 C 0.35148 0.81764 0.2034 0.0
C492 C 0.32949 0.84419 0.19434 0.0
C493 C 0.35824 0.81754 0.1812 0.0
C494 C 0.25506 0.80656 0.25784 0.0
C495 C 0.32777 0.83035 0.23213 0.0
H496 H 0.22843 0.76217 0.41982 0.0
H497 H 0.2252 0.79098 0.35618 0.0
H498 H 0.21471 0.78807 0.3956 0.0
H499 H 0.2637 0.7416 0.36478 0.0
H500 H 0.35557 0.8302 0.14824 0.0
H501 H 0.35738 0.80716 0.21517 0.0
H502 H 0.31816 0.85443 0.19927 0.0
H503 H 0.36941 0.80727 0.17613 0.0
Tb504 Tb 0.51949 0.03683 0.56424 0.0
C505 C 0.60206 0.08968 0.51641 0.0
N506 N 0.58693 0.06944 0.50956 0.0
C507 C 0.58418 0.07684 0.46971 0.0
C508 C 0.6084 0.10444 0.50011 0.0
C509 C 0.5788 0.06249 0.48633 0.0
C510 C 0.59884 0.09798 0.47664 0.0
C511 C 0.62909 0.11526 0.54695 0.0
C512 C 0.61222 0.09521 0.53967 0.0
C513 C 0.63499 0.13016 0.53084 0.0
C514 C 0.6246 0.12482 0.50753 0.0
Tb515 Tb 0.58108 0.04799 0.53906 0.0
N516 N 0.60575 0.08077 0.55511 0.0
C517 C 0.63964 0.11964 0.57022 0.0
C518 C 0.61668 0.08441 0.57745 0.0
C519 C 0.63352 0.10405 0.58547 0.0
H520 H 0.56866 0.04572 0.48016 0.0
H521 H 0.642 0.10698 0.6033 0.0
H522 H 0.53425 0.03801 0.62301 0.0
H523 H 0.46319 0.9744 0.49887 0.0
H524 H 0.61287 0.07195 0.58888 0.0
H525 H 0.65272 0.13482 0.57647 0.0
H526 H 0.48867 1.01155 0.51401 0.0
H527 H 0.57742 0.07135 0.45143 0.0
H528 H 0.64777 0.14573 0.53617 0.0
H529 H 0.62959 0.13636 0.49524 0.0
H530 H 0.5285 1.01112 0.65082 0.0
H531 H 0.60326 0.10887 0.46361 0.0
H532 H 0.45578 0.94544 0.52512 0.0
N533 N 0.51663 0.01435 0.5932 0.0
C534 C 0.50267 0.99347 0.58606 0.0
C535 C 0.52146 1.00584 0.63259 0.0
C536 C 0.49822 0.97781 0.60193 0.0
C537 C 0.52516 0.02096 0.61641 0.0
C538 C 0.50814 0.98413 0.6253 0.0
N539 N 0.49702 1.00301 0.54764 0.0
C540 C 0.48626 0.99874 0.52521 0.0
C541 C 0.47747 0.96652 0.55508 0.0
C542 C 0.49221 0.98781 0.56282 0.0
C543 C 0.46725 0.96159 0.53171 0.0
C544 C 0.47151 0.97785 0.51678 0.0
H545 H 0.50511 0.97258 0.638 0.0
H546 H 0.48013 0.94432 0.60614 0.0
H547 H 0.46207 0.93445 0.5652 0.0
O548 O 0.49095 0.04694 0.54985 0.0
O549 O 0.53132 1.0062 0.5502 0.0
O550 O 0.56104 0.01266 0.52772 0.0
O551 O 0.4956 0.04148 0.58581 0.0
O552 O 0.52964 0.05109 0.53365 0.0
O553 O 0.55203 0.03555 0.51257 0.0
O554 O 0.60561 0.0339 0.55591 0.0
O555 O 0.57149 0.07946 0.55383 0.0
O556 O 0.53717 0.07347 0.56934 0.0
O557 O 0.60704 0.04213 0.52097 0.0
O558 O 0.56835 0.03519 0.56914 0.0
O559 O 0.54775 0.05189 0.59067 0.0
C560 C 0.54503 0.99889 0.53652 0.0
C561 C 0.47787 0.07011 0.57793 0.0
C562 C 0.45269 0.09521 0.57462 0.0
C563 C 0.46519 0.10899 0.59491 0.0
C564 C 0.49029 0.0844 0.59796 0.0
C565 C 0.48385 0.10361 0.60643 0.0
C566 C 0.45904 0.07558 0.5663 0.0
C567 C 0.53241 0.03952 0.51463 0.0
C568 C 0.48371 0.0489 0.57004 0.0
C569 C 0.48369 0.95652 0.59416 0.0
C570 C 0.47335 0.9509 0.57084 0.0
C571 C 0.55564 0.08698 0.56395 0.0
C572 C 0.62105 1.01141 0.52957 0.0
C573 C 0.64764 0.98779 0.52947 0.0
C574 C 0.63353 0.97303 0.51078 0.0
C575 C 0.60719 0.99648 0.51083 0.0
C576 C 0.6412 1.00685 0.53909 0.0
C577 C 0.61331 0.97727 0.50167 0.0
C578 C 0.56707 0.04777 0.58809 0.0
C579 C 0.61579 0.03284 0.53747 0.0
H580 H 0.46036 0.12384 0.60209 0.0
H581 H 0.50484 0.08062 0.60731 0.0
H582 H 0.49329 0.11431 0.62207 0.0
H583 H 0.44942 0.06465 0.55085 0.0
H584 H 0.63831 0.95832 0.50311 0.0
H585 H 0.59201 1.00008 0.50278 0.0
H586 H 0.65227 0.01856 0.5532 0.0
H587 H 0.60261 0.96595 0.48711 0.0
Tb588 Tb 0.32575 0.27753 0.79032 0.0
C589 C 0.24613 0.30206 0.73414 0.0
N590 N 0.25918 0.31375 0.75414 0.0
C591 C 0.26043 0.34828 0.73833 0.0
C592 C 0.24059 0.313 0.71507 0.0
C593 C 0.26512 0.33673 0.75691 0.0
C594 C 0.24848 0.33634 0.71715 0.0
C595 C 0.22178 0.26686 0.71387 0.0
C596 C 0.23677 0.27928 0.73348 0.0
C597 C 0.21711 0.27747 0.6944 0.0
C598 C 0.22653 0.30049 0.69498 0.0
Tb599 Tb 0.26521 0.29253 0.78311 0.0
N600 N 0.24201 0.26939 0.75243 0.0
C601 C 0.21161 0.24426 0.71465 0.0
C602 C 0.23095 0.24784 0.75397 0.0
C603 C 0.21598 0.23481 0.73492 0.0
H604 H 0.27271 0.34637 0.77364 0.0
H605 H 0.20769 0.21756 0.73596 0.0
H606 H 0.31626 0.22198 0.79037 0.0
H607 H 0.37977 0.34757 0.8498 0.0
H608 H 0.2338 0.24074 0.76984 0.0
H609 H 0.19997 0.23414 0.69994 0.0
H610 H 0.35444 0.32954 0.81362 0.0
H611 H 0.26553 0.36645 0.74058 0.0
H612 H 0.20583 0.26817 0.67904 0.0
H613 H 0.22225 0.30859 0.6801 0.0
H614 H 0.32414 0.19649 0.81806 0.0
H615 H 0.24452 0.34538 0.70294 0.0
H616 H 0.38994 0.32455 0.87955 0.0
N617 N 0.33261 0.2518 0.81373 0.0
C618 C 0.34653 0.26049 0.83411 0.0
C619 C 0.33025 0.21448 0.82297 0.0
C620 C 0.35207 0.24648 0.85024 0.0
C621 C 0.32535 0.22906 0.8075 0.0
C622 C 0.34341 0.22323 0.8446 0.0
N623 N 0.34978 0.29653 0.82275 0.0
C624 C 0.3585 0.31924 0.8264 0.0
C625 C 0.37014 0.29318 0.85961 0.0
C626 C 0.35563 0.28353 0.83864 0.0
C627 C 0.37878 0.31649 0.86364 0.0
C628 C 0.37302 0.32954 0.84691 0.0
H629 H 0.34727 0.2119 0.85651 0.0
H630 H 0.37062 0.24555 0.88395 0.0
H631 H 0.38631 0.28645 0.89222 0.0
O632 O 0.3589 0.28666 0.78272 0.0
O633 O 0.31206 0.28667 0.82301 0.0
O634 O 0.28862 0.31023 0.81453 0.0
O635 O 0.33637 0.25486 0.767 0.0
O636 O 0.32612 0.31052 0.78022 0.0
O637 O 0.29414 0.32264 0.78826 0.0
O638 O 0.24122 0.2804 0.80496 0.0
O639 O 0.27427 0.27067 0.75454 0.0
O640 O 0.31136 0.28666 0.75776 0.0
O641 O 0.23858 0.30797 0.78657 0.0
O642 O 0.2711 0.26535 0.80198 0.0
O643 O 0.29543 0.24961 0.78278 0.0
C644 C 0.30132 0.30214 0.82958 0.0
C645 C 0.37566 0.25871 0.76631 0.0
C646 C 0.4095 0.25863 0.74844 0.0
C647 C 0.41101 0.23891 0.75772 0.0
C648 C 0.37746 0.23915 0.77572 0.0
C649 C 0.39517 0.22937 0.77147 0.0
C650 C 0.39191 0.26857 0.75297 0.0
C651 C 0.31505 0.32628 0.78321 0.0
C652 C 0.35622 0.26836 0.76815 0.0
C653 C 0.36631 0.25604 0.87127 0.0
C654 C 0.37531 0.27932 0.87594 0.0
C655 C 0.29282 0.27485 0.74501 0.0
C656 C 0.22187 0.30617 0.82119 0.0
C657 C 0.1936 0.30617 0.84767 0.0
C658 C 0.20513 0.32823 0.8575 0.0
C659 C 0.23302 0.32815 0.83139 0.0
C660 C 0.20204 0.29523 0.8293 0.0
C661 C 0.22463 0.33909 0.84939 0.0
C662 C 0.27778 0.24771 0.79387 0.0
C663 C 0.22979 0.29513 0.80103 0.0
H664 H 0.4244 0.2309 0.75424 0.0
H665 H 0.36506 0.23126 0.78593 0.0
H666 H 0.39644 0.21415 0.77855 0.0
H667 H 0.39042 0.28353 0.74538 0.0
H668 H 0.19883 0.33726 0.87129 0.0
H669 H 0.24801 0.337 0.82516 0.0
H670 H 0.19324 0.27831 0.82135 0.0
H671 H 0.23317 0.35614 0.85698 0.0
Tb672 Tb 0.06026 0.01741 0.53884 0.0
C673 C 0.03143 0.09716 0.59356 0.0
N674 N 0.01971 0.083 0.57432 0.0
C675 C 0.98559 0.08028 0.59113 0.0
C676 C 0.02068 0.1031 0.61263 0.0
C677 C 0.99703 0.07469 0.57276 0.0
C678 C 0.99747 0.09448 0.6112 0.0
C679 C 0.06735 0.11915 0.61441 0.0
C680 C 0.05448 0.10501 0.59444 0.0
C681 C 0.05673 0.12512 0.63348 0.0
C682 C 0.03345 0.11714 0.63257 0.0
Tb683 Tb 0.04016 0.0751 0.54547 0.0
N684 N 0.0643 0.09824 0.57595 0.0
C685 C 0.0905 0.12689 0.6146 0.0
C686 C 0.0866 0.10706 0.57548 0.0
C687 C 0.1001 0.12107 0.59491 0.0
H688 H 0.98762 0.06423 0.5571 0.0
H689 H 0.11785 0.12767 0.59452 0.0
H690 H 0.11384 0.03057 0.53007 0.0
H691 H 0.98569 0.96224 0.48701 0.0
H692 H 0.09407 0.10413 0.56004 0.0
H693 H 0.101 0.13776 0.62961 0.0
H694 H 1.00701 0.98836 0.52118 0.0
H695 H 0.9676 0.0737 0.58976 0.0
H696 H 0.06636 0.1359 0.649 0.0
H697 H 0.02551 0.12184 0.64743 0.0
H698 H 0.13602 0.02124 0.49937 0.0
H699 H 0.98857 0.09869 0.62545 0.0
H700 H 1.0052 0.95073 0.45454 0.0
N701 N 0.08272 1.01058 0.51162 0.0
C702 C 0.07234 0.99542 0.49255 0.0
C703 C 0.11808 0.01404 0.49711 0.0
C704 C 0.08443 0.98925 0.47475 0.0
C705 C 0.10537 0.01966 0.51429 0.0
C706 C 0.10756 0.99883 0.47721 0.0
N707 N 0.03812 0.99349 0.50778 0.0
C708 C 1.01567 0.98443 0.50694 0.0
C709 C 0.03786 0.97106 0.47088 0.0
C710 C 0.04933 0.98644 0.49065 0.0
C711 C 1.01465 0.96256 0.46946 0.0
C712 C 1.00355 0.96915 0.48766 0.0
H713 H 0.11746 0.99448 0.46395 0.0
H714 H 0.08208 0.96892 0.44122 0.0
H715 H 0.04132 0.95302 0.43781 0.0
O716 O 0.04932 0.98884 0.55633 0.0
O717 O 0.05131 0.03071 0.50602 0.0
O718 O 0.02526 0.05104 0.51379 0.0
O719 O 0.08355 0.99937 0.54862 0.0
O720 O 0.02945 0.01777 0.55434 0.0
O721 O 1.01317 0.04401 0.53831 0.0
O722 O 0.05085 0.10414 0.52842 0.0
O723 O 0.04713 0.0603 0.57801 0.0
O724 O 0.07439 0.04188 0.57031 0.0
O725 O 1.01668 0.09308 0.53577 0.0
O726 O 0.07029 0.07384 0.52878 0.0
O727 O 0.08622 0.04884 0.54702 0.0
C728 C 0.03535 0.04051 0.49896 0.0
C729 C 0.07595 0.96581 0.56689 0.0
C730 C 0.07038 0.93489 0.59016 0.0
C731 C 0.09047 0.93022 0.58445 0.0
C732 C 0.09598 0.96065 0.5614 0.0
C733 C 0.10312 0.94298 0.5701 0.0
C734 C 0.06295 0.95266 0.58123 0.0
C735 C 1.01188 0.02578 0.54854 0.0
C736 C 0.06917 0.9848 0.55721 0.0
C737 C 0.07307 0.97386 0.45508 0.0
C738 C 0.04986 0.9648 0.45314 0.0
C739 C 0.0631 0.0506 0.5852 0.0
C740 C 0.02368 0.12651 0.51666 0.0
C741 C 0.02984 0.15979 0.49622 0.0
C742 C 1.00775 0.16112 0.49824 0.0
C743 C 1.00166 0.12858 0.51829 0.0
C744 C 0.03789 0.14227 0.50538 0.0
C745 C 0.99382 0.14566 0.50913 0.0
C746 C 0.08769 0.06571 0.53487 0.0
C747 C 0.03082 0.10776 0.52701 0.0
H748 H 0.09638 0.91661 0.59115 0.0
H749 H 0.10619 0.97025 0.55024 0.0
H750 H 0.11856 0.93919 0.56575 0.0
H751 H 0.04749 0.95637 0.58566 0.0
H752 H 1.00122 0.17431 0.49133 0.0
H753 H 0.99032 0.11695 0.52677 0.0
H754 H 0.05492 0.14107 0.50394 0.0
H755 H 0.97684 0.14696 0.51056 0.0
Tb756 Tb 0.29576 0.82056 0.76538 0.0
C757 C 0.24483 0.74222 0.81074 0.0
N758 N 0.26538 0.75657 0.81831 0.0
C759 C 0.25593 0.76085 0.85732 0.0
C760 C 0.22876 0.73734 0.82609 0.0
C761 C 0.27148 0.76484 0.84159 0.0
C762 C 0.23437 0.74733 0.84948 0.0
C763 C 0.21979 0.71534 0.77973 0.0
C764 C 0.24029 0.73128 0.78784 0.0
C765 C 0.20348 0.71108 0.79475 0.0
C766 C 0.20793 0.72209 0.81784 0.0
Tb767 Tb 0.28879 0.76109 0.79028 0.0
N768 N 0.25616 0.73624 0.77349 0.0
C769 C 0.21647 0.70391 0.75689 0.0
C770 C 0.25363 0.72418 0.75173 0.0
C771 C 0.2336 0.70814 0.74295 0.0
H772 H 0.28844 0.77409 0.84847 0.0
H773 H 0.23145 0.69894 0.72552 0.0
H774 H 0.29821 0.80396 0.70841 0.0
H775 H 0.35165 0.88351 0.83072 0.0
H776 H 0.2671 0.72692 0.74126 0.0
H777 H 0.20096 0.69147 0.75004 0.0
H778 H 0.3168 0.85433 0.81516 0.0
H779 H 0.26075 0.76783 0.87562 0.0
H780 H 0.18753 0.69902 0.7888 0.0
H781 H 0.19536 0.71827 0.82936 0.0
H782 H 0.3256 0.81186 0.68123 0.0
H783 H 0.2225 0.74401 0.86181 0.0
H784 H 0.38097 0.89377 0.80534 0.0
N785 N 0.31952 0.82523 0.7378 0.0
C786 C 0.33878 0.84169 0.7448 0.0
C787 C 0.3297 0.82007 0.69918 0.0
C788 C 0.3547 0.84723 0.72943 0.0
C789 C 0.31437 0.8152 0.71498 0.0
C790 C 0.35006 0.83596 0.70648 0.0
N791 N 0.32702 0.84727 0.78206 0.0
C792 C 0.32984 0.85816 0.80433 0.0
C793 C 0.36254 0.86992 0.77549 0.0
C794 C 0.34259 0.85315 0.76754 0.0
C795 C 0.36585 0.88076 0.79857 0.0
C796 C 0.34939 0.87493 0.81299 0.0
H797 H 0.36183 0.83979 0.69413 0.0
H798 H 0.38701 0.8684 0.72575 0.0
H799 H 0.39395 0.88811 0.76607 0.0
O800 O 0.28921 0.85273 0.77091 0.0
O801 O 0.32833 0.81098 0.77708 0.0
O802 O 0.32323 0.78332 0.80192 0.0
O803 O 0.27817 0.83101 0.73721 0.0
O804 O 0.28481 0.81633 0.79896 0.0
O805 O 0.30064 0.79084 0.8165 0.0
O806 O 0.3031 0.73583 0.77551 0.0
O807 O 0.25822 0.76827 0.77028 0.0
O808 O 0.26277 0.80655 0.77706 0.0
O809 O 0.29492 0.73641 0.81048 0.0
O810 O 0.30316 0.77053 0.75969 0.0
O811 O 0.28227 0.79031 0.74077 0.0
C812 C 0.33649 0.79911 0.79236 0.0
C813 C 0.26883 0.86729 0.7402 0.0
C814 C 0.25189 0.89907 0.74576 0.0
C815 C 0.24882 0.89907 0.72145 0.0
C816 C 0.26545 0.86742 0.7159 0.0
C817 C 0.25555 0.88329 0.70662 0.0
C818 C 0.26196 0.8832 0.75517 0.0
C819 C 0.29489 0.81003 0.81707 0.0
C820 C 0.27877 0.85008 0.74967 0.0
C821 C 0.37459 0.86398 0.73731 0.0
C822 C 0.37851 0.87525 0.76027 0.0
C823 C 0.24948 0.78599 0.77223 0.0
C824 C 0.32511 0.7208 0.80237 0.0
C825 C 0.34927 0.69463 0.8007 0.0
C826 C 0.36535 0.70969 0.81764 0.0
C827 C 0.34125 0.73545 0.81953 0.0
C828 C 0.32908 0.70023 0.79312 0.0
C829 C 0.36128 0.72992 0.82706 0.0
C830 C 0.2909 0.77303 0.74103 0.0
C831 C 0.30389 0.7265 0.79448 0.0
H832 H 0.2411 0.91125 0.71396 0.0
H833 H 0.27052 0.85528 0.70406 0.0
H834 H 0.25303 0.88332 0.68787 0.0
H835 H 0.26427 0.88316 0.77395 0.0
H836 H 0.38091 0.70559 0.82387 0.0
H837 H 0.3382 0.75102 0.82727 0.0
H838 H 0.31657 0.68869 0.78005 0.0
H839 H 0.37363 0.74129 0.84035 0.0
Tb840 Tb 0.54297 0.05605 0.0169 0.0
C841 C 0.57647 1.00198 0.10534 0.0
N842 N 0.56138 0.99432 0.08558 0.0
C843 C 0.57409 0.96038 0.08072 0.0
C844 C 0.59143 0.98935 0.11323 0.0
C845 C 0.55978 0.97362 0.07345 0.0
C846 C 0.59011 0.96834 0.10059 0.0
C847 C 0.59297 0.03159 0.13775 0.0
C848 C 0.57716 0.02276 0.11747 0.0
C849 C 0.60807 0.01921 0.14554 0.0
C850 C 0.60727 0.99811 0.13333 0.0
Tb851 Tb 0.53951 0.01776 0.07456 0.0
N852 N 0.56277 0.03459 0.1089 0.0
C853 C 0.59323 0.05266 0.14954 0.0
C854 C 0.56236 0.05472 0.12113 0.0
C855 C 0.57767 0.06413 0.14133 0.0
H856 H 0.54715 0.96701 0.05844 0.0
H857 H 0.57737 0.08023 0.15062 0.0
H858 H 0.53721 0.1071 0.03312 0.0
H859 H 0.49864 0.99169 0.94447 0.0
H860 H 0.55025 0.06374 0.11594 0.0
H861 H 0.60514 0.06006 0.16513 0.0
H862 H 0.52783 1.00815 0.97727 0.0
H863 H 0.57271 0.94401 0.071 0.0
H864 H 0.62041 0.02579 0.16099 0.0
H865 H 0.619 0.98872 0.13955 0.0
H866 H 0.512 0.13088 0.02186 0.0
H867 H 0.60127 0.9581 0.1061 0.0
H868 H 0.47117 0.01264 0.93115 0.0
N869 N 0.52102 0.0796 0.0069 0.0
C870 C 0.50469 0.07183 0.98827 0.0
C871 C 0.50964 0.11424 0.01233 0.0
C872 C 0.48981 0.08483 0.98115 0.0
C873 C 0.5238 0.1006 0.01884 0.0
C874 C 0.49247 0.10628 0.99346 0.0
N875 N 0.51737 0.03865 0.98426 0.0
C876 C 0.51616 0.01781 0.97253 0.0
C877 C 0.48564 0.04166 0.95738 0.0
C878 C 0.50274 0.05061 0.97658 0.0
C879 C 0.48408 0.02014 0.94591 0.0
C880 C 0.49951 1.00826 0.95343 0.0
H881 H 0.48144 0.11682 0.98851 0.0
H882 H 0.46109 0.08567 0.95645 0.0
H883 H 0.45737 0.04777 0.93565 0.0
O884 O 0.56859 0.05639 0.99622 0.0
O885 O 0.50919 0.04471 0.02502 0.0
O886 O 0.52029 0.01716 0.04077 0.0
O887 O 0.56506 0.08715 0.01504 0.0
O888 O 0.55247 0.02304 0.01079 0.0
O889 O 0.54211 0.99931 0.03948 0.0
O890 O 0.51262 0.01806 0.09356 0.0
O891 O 0.57472 0.03378 0.07334 0.0
O892 O 0.55537 0.0454 0.04726 0.0
O893 O 0.51991 0.98692 0.08072 0.0
O894 O 0.53038 0.05131 0.07889 0.0
O895 O 0.54592 0.07534 0.05252 0.0
C896 C 0.50502 0.0283 0.03744 0.0
C897 C 0.57687 0.08808 0.97768 0.0
C898 C 0.59124 0.08717 0.94056 0.0
C899 C 0.57709 0.10047 0.93276 0.0
C900 C 0.56287 0.10161 0.96999 0.0
C901 C 0.56318 0.10794 0.94762 0.0
C902 C 0.59137 0.08144 0.96313 0.0
C903 C 0.54955 1.00324 0.01902 0.0
C904 C 0.57502 0.0782 0.99933 0.0
C905 C 0.47275 0.07599 0.96212 0.0
C906 C 0.47064 0.05442 0.95029 0.0
C907 C 0.57522 0.04599 0.05693 0.0
C908 C 0.50619 0.98922 0.11705 0.0
C909 C 0.49456 0.99501 0.15532 0.0
C910 C 0.50316 0.97713 0.1619 0.0
C911 C 0.51451 0.9711 0.12363 0.0
C912 C 0.49583 1.0008 0.13287 0.0
C913 C 0.5129 0.96508 0.14597 0.0
C914 C 0.53619 0.07153 0.0717 0.0
C915 C 0.50822 0.99648 0.09398 0.0
H916 H 0.57685 0.10506 0.91528 0.0
H917 H 0.5514 0.10685 0.98092 0.0
H918 H 0.55229 0.11821 0.94162 0.0
H919 H 0.60194 0.07071 0.96893 0.0
H920 H 0.50212 0.97239 0.17923 0.0
H921 H 0.52237 0.96167 0.11166 0.0
H922 H 0.48919 0.01469 0.12794 0.0
H923 H 0.51933 0.95115 0.151 0.0
Tb924 Tb 0.28098 0.25482 0.26569 0.0
C925 C 0.35808 0.32929 0.32406 0.0
N926 N 0.33742 0.31894 0.3288 0.0
C927 C 0.35282 0.31957 0.3688 0.0
C928 C 0.37695 0.3351 0.34163 0.0
C929 C 0.33457 0.31414 0.35088 0.0
C930 C 0.37409 0.33012 0.36419 0.0
C931 C 0.38151 0.34485 0.29601 0.0
C932 C 0.3603 0.33427 0.30148 0.0
C933 C 0.40029 0.35069 0.31352 0.0
C934 C 0.398 0.34592 0.33627 0.0
Tb935 Tb 0.30884 0.31489 0.2988 0.0
N936 N 0.3417 0.32866 0.28491 0.0
C937 C 0.38319 0.34952 0.27317 0.0
C938 C 0.34317 0.33419 0.26294 0.0
C939 C 0.36392 0.34422 0.25659 0.0
H940 H 0.3181 0.30741 0.35522 0.0
H941 H 0.36494 0.34835 0.23905 0.0
H942 H 0.26839 0.26387 0.21011 0.0
H943 H 0.23121 0.20613 0.32146 0.0
H944 H 0.32848 0.33175 0.25041 0.0
H945 H 0.39919 0.35761 0.26828 0.0
H946 H 0.26581 0.22818 0.31019 0.0
H947 H 0.35036 0.31607 0.38631 0.0
H948 H 0.41665 0.35904 0.30968 0.0
H949 H 0.41263 0.35069 0.34961 0.0
H950 H 0.23484 0.25687 0.181 0.0
H951 H 0.38813 0.33454 0.37821 0.0
H952 H 0.19547 0.1979 0.29449 0.0
N953 N 0.25094 0.24993 0.23676 0.0
C954 C 0.23104 0.23754 0.24142 0.0
C955 C 0.23344 0.25172 0.1981 0.0
C956 C 0.21143 0.23238 0.22482 0.0
C957 C 0.25246 0.25628 0.21504 0.0
C958 C 0.21278 0.23993 0.20308 0.0
N959 N 0.24973 0.23476 0.27833 0.0
C960 C 0.25027 0.2259 0.29883 0.0
C961 C 0.21035 0.21616 0.26809 0.0
C962 C 0.23049 0.22943 0.26274 0.0
C963 C 0.21059 0.20809 0.28967 0.0
C964 C 0.23069 0.21284 0.30502 0.0
H965 H 0.19813 0.23621 0.18981 0.0
H966 H 0.17602 0.2154 0.2177 0.0
H967 H 0.17506 0.20133 0.25566 0.0
O968 O 0.29305 0.22685 0.27304 0.0
O969 O 0.25528 0.27202 0.27826 0.0
O970 O 0.27205 0.30637 0.30122 0.0
O971 O 0.27714 0.22864 0.2379 0.0
O972 O 0.29658 0.25834 0.30288 0.0
O973 O 0.29153 0.29166 0.32018 0.0
O974 O 0.30651 0.34693 0.29137 0.0
O975 O 0.33169 0.29164 0.29255 0.0
O976 O 0.31547 0.26948 0.25799 0.0
O977 O 0.31289 0.34054 0.32683 0.0
O978 O 0.29151 0.31318 0.26294 0.0
O979 O 0.29502 0.27988 0.24408 0.0
C980 C 0.25391 0.29045 0.29155 0.0
C981 C 0.29004 0.19517 0.24301 0.0
C982 C 0.30581 0.16387 0.2507 0.0
C983 C 0.29682 0.15287 0.228 0.0
C984 C 0.2813 0.18434 0.22016 0.0
C985 C 0.28472 0.16322 0.21272 0.0
C986 C 0.30235 0.18491 0.25806 0.0
C987 C 0.29281 0.27091 0.32124 0.0
C988 C 0.28671 0.21718 0.2514 0.0
C989 C 0.19125 0.21947 0.23022 0.0
C990 C 0.19071 0.2114 0.25181 0.0
C991 C 0.33365 0.27906 0.2732 0.0
C992 C 0.28838 0.36341 0.31943 0.0
C993 C 0.26482 0.38886 0.31242 0.0
C994 C 0.2512 0.38004 0.32856 0.0
C995 C 0.27473 0.35454 0.33574 0.0
C996 C 0.28335 0.38065 0.30792 0.0
C997 C 0.25625 0.36292 0.34028 0.0
C998 C 0.292 0.30014 0.24358 0.0
C999 C 0.30724 0.3543 0.31343 0.0
H1000 H 0.29929 0.13646 0.22214 0.0
H1001 H 0.27181 0.1921 0.20814 0.0
H1002 H 0.27792 0.15485 0.19515 0.0
H1003 H 0.30902 0.19313 0.27577 0.0
H1004 H 0.23699 0.38666 0.33233 0.0
H1005 H 0.2781 0.34098 0.34476 0.0
H1006 H 0.29387 0.38772 0.29549 0.0
H1007 H 0.24578 0.35607 0.35278 0.0
Tb1008 Tb 0.56286 0.51125 0.04305 0.0
C1009 C 0.53529 0.58971 0.10082 0.0
N1010 N 0.52345 0.57552 0.08165 0.0
C1011 C 0.48985 0.57142 0.09958 0.0
C1012 C 0.5249 0.59503 0.12036 0.0
C1013 C 0.50092 0.56662 0.08063 0.0
C1014 C 0.5019 0.58559 0.11959 0.0
C1015 C 0.57089 0.61373 0.12021 0.0
C1016 C 0.55803 0.59874 0.10081 0.0
C1017 C 0.56068 0.61893 0.13986 0.0
C1018 C 0.53775 0.60958 0.13995 0.0
Tb1019 Tb 0.54338 0.56883 0.05192 0.0
N1020 N 0.56741 0.59299 0.08162 0.0
C1021 C 0.59349 0.6234 0.11905 0.0
C1022 C 0.58889 0.60381 0.0797 0.0
C1023 C 0.6024 0.61871 0.09853 0.0
H1024 H 0.49131 0.55628 0.06501 0.0
H1025 H 0.61956 0.62692 0.09702 0.0
H1026 H 0.61724 0.52523 0.03668 0.0
H1027 H 0.4893 0.46018 0.98621 0.0
H1028 H 0.59546 0.60181 0.06346 0.0
H1029 H 0.60395 0.63505 0.13355 0.0
H1030 H 0.50981 0.48376 0.02243 0.0
H1031 H 0.47199 0.56432 0.09866 0.0
H1032 H 0.57032 0.63035 0.15498 0.0
H1033 H 0.53008 0.61385 0.15516 0.0
H1034 H 0.64031 0.5182 0.00604 0.0
H1035 H 0.49326 0.5893 0.13423 0.0
H1036 H 0.50984 0.45134 0.9536 0.0
N1037 N 0.58637 0.50672 0.01623 0.0
C1038 C 0.57635 0.49323 0.99589 0.0
C1039 C 0.62232 0.51123 1.0029 0.0
C1040 C 0.58901 0.4884 0.9781 0.0
C1041 C 0.6091 0.5155 0.02009 0.0
C1042 C 0.61224 0.49766 0.98181 0.0
N1043 N 0.54143 0.49005 0.01007 0.0
C1044 C 0.51888 0.48095 0.00816 0.0
C1045 C 0.54222 0.47059 0.97186 0.0
C1046 C 0.5532 0.48444 0.99278 0.0
C1047 C 0.51891 0.46208 0.9694 0.0
C1048 C 0.50724 0.46715 0.98771 0.0
H1049 H 0.62256 0.49432 0.96857 0.0
H1050 H 0.58757 0.47059 0.9434 0.0
H1051 H 0.54664 0.45501 0.93795 0.0
O1052 O 0.55015 0.48194 0.05773 0.0
O1053 O 0.55503 0.52715 0.01156 0.0
O1054 O 0.52786 0.54548 0.02007 0.0
O1055 O 0.58375 0.48949 0.04919 0.0
O1056 O 0.53174 0.51093 0.05838 0.0
O1057 O 0.51624 0.53811 0.04352 0.0
O1058 O 0.55336 0.59662 0.03311 0.0
O1059 O 0.55072 0.5535 0.08397 0.0
O1060 O 0.57658 0.53247 0.07694 0.0
O1061 O 0.52034 0.58789 0.04413 0.0
O1062 O 0.57411 0.56741 0.03647 0.0
O1063 O 0.58956 0.5418 0.05431 0.0
C1064 C 0.53833 0.53607 0.00484 0.0
C1065 C 0.57734 0.4689 0.08064 0.0
C1066 C 0.57557 0.44024 0.10661 0.0
C1067 C 0.59379 0.45457 0.12179 0.0
C1068 C 0.59548 0.48302 0.09612 0.0
C1069 C 0.60371 0.47577 0.1165 0.0
C1070 C 0.56751 0.44742 0.08589 0.0
C1071 C 0.51443 0.5194 0.0529 0.0
C1072 C 0.56906 0.47595 0.05859 0.0
C1073 C 0.57811 0.47454 0.95725 0.0
C1074 C 0.55479 0.46566 0.95414 0.0
C1075 C 0.5662 0.54325 0.09129 0.0
C1076 C 0.5268 0.61989 0.02284 0.0
C1077 C 0.53281 0.65169 1.00042 0.0
C1078 C 0.51066 0.65311 1.00188 0.0
C1079 C 0.50474 0.622 0.02402 0.0
C1080 C 0.54102 0.63502 0.01102 0.0
C1081 C 0.4968 0.63844 0.01364 0.0
C1082 C 0.59151 0.55993 0.0441 0.0
C1083 C 0.53385 0.60126 0.03338 0.0
H1084 H 0.60051 0.44922 0.13764 0.0
H1085 H 0.60341 0.49955 0.09237 0.0
H1086 H 0.61787 0.48661 0.12821 0.0
H1087 H 0.55357 0.4364 0.07397 0.0
H1088 H 0.50407 0.66576 0.99391 0.0
H1089 H 0.49338 0.61075 0.03286 0.0
H1090 H 0.55806 0.63371 0.00983 0.0
H1091 H 0.47975 0.63977 0.01465 0.0
Tb1092 Tb 0.79975 0.3173 0.272 0.0
C1093 C 0.74997 0.23476 0.3212 0.0
N1094 N 0.76886 0.25169 0.32849 0.0
C1095 C 0.75808 0.25622 0.36687 0.0
C1096 C 0.73406 0.22849 0.3364 0.0
C1097 C 0.77343 0.26187 0.35125 0.0
C1098 C 0.73823 0.23963 0.35937 0.0
C1099 C 0.72713 0.20597 0.29034 0.0
C1100 C 0.74656 0.22343 0.29839 0.0
C1101 C 0.71119 0.19997 0.30541 0.0
C1102 C 0.71465 0.21117 0.32835 0.0
Tb1103 Tb 0.79258 0.25735 0.30107 0.0
N1104 N 0.76193 0.23005 0.28388 0.0
C1105 C 0.72422 0.19516 0.26729 0.0
C1106 C 0.75975 0.21881 0.26185 0.0
C1107 C 0.74071 0.20148 0.25306 0.0
H1108 H 0.78915 0.27381 0.3579 0.0
H1109 H 0.73895 0.19277 0.23546 0.0
H1110 H 0.80015 0.29848 0.21458 0.0
H1111 H 0.85691 0.3832 0.33311 0.0
H1112 H 0.77297 0.22254 0.25136 0.0
H1113 H 0.70949 0.18171 0.26044 0.0
H1114 H 0.82239 0.35296 0.3201 0.0
H1115 H 0.76175 0.26442 0.38482 0.0
H1116 H 0.69612 0.18665 0.2995 0.0
H1117 H 0.70224 0.20622 0.3398 0.0
H1118 H 0.8267 0.30472 0.18648 0.0
H1119 H 0.72645 0.23523 0.3716 0.0
H1120 H 0.88523 0.39185 0.30633 0.0
N1121 N 0.82244 0.3201 0.24324 0.0
C1122 C 0.84206 0.33633 0.24932 0.0
C1123 C 0.8314 0.31341 0.20423 0.0
C1124 C 0.8574 0.34108 0.23318 0.0
C1125 C 0.81655 0.30946 0.22063 0.0
C1126 C 0.85201 0.32909 0.21058 0.0
N1127 N 0.83165 0.34387 0.28699 0.0
C1128 C 0.83489 0.35622 0.30862 0.0
C1129 C 0.86644 0.36609 0.2782 0.0
C1130 C 0.84659 0.34886 0.27162 0.0
C1131 C 0.87019 0.37844 0.30064 0.0
C1132 C 0.8543 0.37354 0.31586 0.0
H1133 H 0.86333 0.3323 0.19769 0.0
H1134 H 0.88931 0.36182 0.22768 0.0
H1135 H 0.89724 0.38361 0.26705 0.0
O1136 O 0.78833 0.34636 0.28321 0.0
O1137 O 0.83218 0.31036 0.2886 0.0
O1138 O 0.82811 0.27644 0.30439 0.0
O1139 O 0.78851 0.33471 0.24629 0.0
O1140 O 0.78669 0.30823 0.30339 0.0
O1141 O 0.80405 0.28805 0.32573 0.0
O1142 O 0.80437 0.22855 0.28983 0.0
O1143 O 0.75985 0.26521 0.28713 0.0
O1144 O 0.76416 0.29765 0.26862 0.0
O1145 O 0.80463 0.24044 0.32685 0.0
O1146 O 0.8055 0.26715 0.26977 0.0
O1147 O 0.78691 0.28672 0.24804 0.0
C1148 C 0.84065 0.29527 0.29911 0.0
C1149 C 0.77476 0.36802 0.25381 0.0
C1150 C 0.75609 0.39843 0.26077 0.0
C1151 C 0.7562 0.40175 0.23727 0.0
C1152 C 0.77465 0.37171 0.23032 0.0
C1153 C 0.76542 0.38845 0.22216 0.0
C1154 C 0.76538 0.3815 0.26911 0.0
C1155 C 0.79892 0.30701 0.32264 0.0
C1156 C 0.78383 0.34944 0.2615 0.0
C1157 C 0.87736 0.35802 0.23986 0.0
C1158 C 0.88185 0.37049 0.26227 0.0
C1159 C 0.75142 0.27971 0.27559 0.0
C1160 C 0.81896 0.20743 0.31917 0.0
C1161 C 0.83909 0.1781 0.31232 0.0
C1162 C 0.84024 0.17568 0.33615 0.0
C1163 C 0.82026 0.20447 0.34292 0.0
C1164 C 0.82817 0.19387 0.30369 0.0
C1165 C 0.83078 0.18869 0.35128 0.0
C1166 C 0.79284 0.2682 0.25077 0.0
C1167 C 0.8093 0.22571 0.31157 0.0
H1168 H 0.74901 0.41465 0.2306 0.0
H1169 H 0.78164 0.36157 0.21812 0.0
H1170 H 0.76535 0.39107 0.20402 0.0
H1171 H 0.76515 0.3788 0.28721 0.0
H1172 H 0.84853 0.16362 0.34307 0.0
H1173 H 0.81337 0.21459 0.35522 0.0
H1174 H 0.82752 0.19604 0.28538 0.0
H1175 H 0.8318 0.18669 0.36962 0.0
Tb1176 Tb 0.04239 0.56823 0.52461 0.0
C1177 C 0.0777 0.51912 0.61404 0.0
N1178 N 0.06072 0.50993 0.59632 0.0
C1179 C 0.07251 0.47547 0.5932 0.0
C1180 C 0.09322 0.50702 0.62172 0.0
C1181 C 0.0578 0.48833 0.58594 0.0
C1182 C 0.09041 0.4849 0.61108 0.0
C1183 C 0.09756 0.55148 0.64208 0.0
C1184 C 0.07973 0.54095 0.62408 0.0
C1185 C 0.1133 0.53966 0.64965 0.0
C1186 C 0.1111 0.51744 0.63954 0.0
Tb1187 Tb 0.03846 0.53248 0.58446 0.0
N1188 N 0.0644 0.55193 0.61587 0.0
C1189 C 0.09909 0.57358 0.65186 0.0
C1190 C 0.06543 0.57326 0.62608 0.0
C1191 C 0.08282 0.58442 0.64397 0.0
H1192 H 0.04409 0.48089 0.57205 0.0
H1193 H 0.08361 0.60141 0.65171 0.0
H1194 H 0.03642 0.61974 0.54241 0.0
H1195 H 1.00163 0.50716 0.44897 0.0
H1196 H 0.053 0.582 0.62095 0.0
H1197 H 0.11258 0.58232 0.66564 0.0
H1198 H 0.02985 0.52299 0.48348 0.0
H1199 H 0.07013 0.45835 0.58491 0.0
H1200 H 0.1272 0.54753 0.66334 0.0
H1201 H 0.12332 0.5085 0.64556 0.0
H1202 H 1.01112 0.6434 0.53138 0.0
H1203 H 0.10193 0.47499 0.61651 0.0
H1204 H 0.97412 0.52821 0.43578 0.0
N1205 N 0.02042 0.59232 0.51571 0.0
C1206 C 1.00484 0.58525 0.49622 0.0
C1207 C 1.00897 0.62693 0.52152 0.0
C1208 C 0.99012 0.59841 0.48913 0.0
C1209 C 0.02307 0.61321 0.52797 0.0
C1210 C 0.99225 0.61941 0.50217 0.0
N1211 N 0.018 0.55245 0.49096 0.0
C1212 C 0.01788 0.53234 0.47837 0.0
C1213 C 0.9874 0.55638 0.46333 0.0
C1214 C 1.0037 0.56473 0.48326 0.0
C1215 C 0.98651 0.5353 0.45108 0.0
C1216 C 1.00196 0.52333 0.45853 0.0
H1217 H 0.98133 0.63007 0.49725 0.0
H1218 H 0.96226 0.60002 0.46365 0.0
H1219 H 0.95968 0.56305 0.44125 0.0
O1220 O 0.0683 0.56611 0.50454 0.0
O1221 O 1.00802 0.54844 0.52338 0.0
O1222 O 0.02606 0.5441 0.55488 0.0
O1223 O 0.06145 0.59795 0.51555 0.0
O1224 O 0.05025 0.53409 0.52175 0.0
O1225 O 0.03574 0.51155 0.55 0.0
O1226 O 1.01492 0.53221 0.60758 0.0
O1227 O 0.07187 0.54201 0.57461 0.0
O1228 O 0.06226 0.57039 0.55858 0.0
O1229 O 1.01468 0.50202 0.5849 0.0
O1230 O 0.02752 0.56477 0.58754 0.0
O1231 O 0.04162 0.58769 0.55957 0.0
C1232 C 1.00693 0.53925 0.54196 0.0
C1233 C 0.07191 0.59233 0.47803 0.0
C1234 C 0.08523 0.58702 0.44055 0.0
C1235 C 0.0711 0.59974 0.43125 0.0
C1236 C 0.05786 0.60512 0.46864 0.0
C1237 C 0.05756 0.60882 0.44533 0.0
C1238 C 0.0856 0.5835 0.46396 0.0
C1239 C 0.04399 0.51436 0.52986 0.0
C1240 C 0.07215 0.58728 0.50213 0.0
C1241 C 0.97383 0.59023 0.46926 0.0
C1242 C 0.9724 0.56921 0.45645 0.0
C1243 C 0.07685 0.55859 0.56247 0.0
C1244 C 1.00316 0.4985 0.62235 0.0
C1245 C 0.99131 0.49782 0.66073 0.0
C1246 C 0.99891 0.47836 0.66307 0.0
C1247 C 1.01047 0.4788 0.62453 0.0
C1248 C 0.99314 0.50755 0.64028 0.0
C1249 C 1.00819 0.46873 0.64484 0.0
C1250 C 0.0318 0.58427 0.5788 0.0
C1251 C 1.0063 0.51069 0.60224 0.0
H1252 H 0.07077 0.60286 0.41324 0.0
H1253 H 0.04705 0.61214 0.47915 0.0
H1254 H 0.04678 0.6187 0.43816 0.0
H1255 H 0.09626 0.57346 0.47116 0.0
H1256 H 0.99752 0.47062 0.67887 0.0
H1257 H 0.01809 0.47135 0.61079 0.0
H1258 H 0.98742 0.52274 0.63867 0.0
H1259 H 1.01388 0.4536 0.64657 0.0
Tb1260 Tb 0.81948 0.77843 0.29718 0.0
C1261 C 0.74103 0.80669 0.2407 0.0
N1262 N 0.75464 0.81827 0.2604 0.0
C1263 C 0.75787 0.85267 0.24408 0.0
C1264 C 0.73554 0.81774 0.22172 0.0
C1265 C 0.76294 0.84101 0.26244 0.0
C1266 C 0.74413 0.841 0.22363 0.0
C1267 C 0.7198 0.77086 0.21873 0.0
C1268 C 0.7333 0.78344 0.2392 0.0
C1269 C 0.7141 0.78188 0.1999 0.0
C1270 C 0.72194 0.80523 0.20139 0.0
Tb1271 Tb 0.76069 0.79711 0.28903 0.0
N1272 N 0.73989 0.77314 0.25741 0.0
C1273 C 0.71256 0.74754 0.21775 0.0
C1274 C 0.73199 0.75057 0.25694 0.0
C1275 C 0.71853 0.7374 0.23701 0.0
H1276 H 0.77297 0.85032 0.27843 0.0
H1277 H 0.71253 0.71945 0.23664 0.0
H1278 H 0.80486 0.72572 0.30935 0.0
H1279 H 0.88317 0.85116 0.34001 0.0
H1280 H 0.73547 0.74264 0.27195 0.0
H1281 H 0.70215 0.73727 0.20234 0.0
H1282 H 0.85323 0.8296 0.30884 0.0
H1283 H 0.76442 0.87068 0.24578 0.0
H1284 H 0.70374 0.77246 0.18403 0.0
H1285 H 0.71753 0.81344 0.18663 0.0
H1286 H 0.81374 0.70517 0.34157 0.0
H1287 H 0.74028 0.85011 0.20943 0.0
H1288 H 0.89454 0.83334 0.37398 0.0
N1289 N 0.82583 0.75721 0.32593 0.0
C1290 C 0.84208 0.76786 0.34402 0.0
C1291 C 0.82159 0.72289 0.34266 0.0
C1292 C 0.8484 0.7565 0.36243 0.0
C1293 C 0.81612 0.73479 0.32464 0.0
C1294 C 0.83767 0.73383 0.36174 0.0
N1295 N 0.84605 0.80062 0.32584 0.0
C1296 C 0.85717 0.82201 0.32401 0.0
C1297 C 0.87026 0.80163 0.36177 0.0
C1298 C 0.85281 0.79016 0.34377 0.0
C1299 C 0.88103 0.82394 0.36052 0.0
C1300 C 0.87455 0.83411 0.34146 0.0
H1301 H 0.84206 0.72449 0.37553 0.0
H1302 H 0.87054 0.75953 0.39496 0.0
H1303 H 0.88971 0.79902 0.39435 0.0
O1304 O 0.84573 0.78775 0.2763 0.0
O1305 O 0.80942 0.79261 0.3301 0.0
O1306 O 0.78019 0.81066 0.32364 0.0
O1307 O 0.83849 0.75548 0.28928 0.0
O1308 O 0.81745 0.80895 0.2818 0.0
O1309 O 0.79109 0.82486 0.29812 0.0
O1310 O 0.73063 0.78446 0.3028 0.0
O1311 O 0.77705 0.78996 0.25759 0.0
O1312 O 0.79465 0.76264 0.26655 0.0
O1313 O 0.73893 0.8181 0.29476 0.0
O1314 O 0.76245 0.76806 0.30732 0.0
O1315 O 0.78814 0.75221 0.29043 0.0
C1316 C 0.79583 0.80488 0.33741 0.0
C1317 C 0.86933 0.76143 0.26667 0.0
C1318 C 0.90182 0.76828 0.24559 0.0
C1319 C 0.90421 0.74655 0.24786 0.0
C1320 C 0.87216 0.73971 0.26862 0.0
C1321 C 0.88945 0.73237 0.25926 0.0
C1322 C 0.88428 0.77578 0.25497 0.0
C1323 C 0.81024 0.82655 0.28948 0.0
C1324 C 0.85112 0.76867 0.27762 0.0
C1325 C 0.86547 0.76798 0.38066 0.0
C1326 C 0.87642 0.79046 0.3803 0.0
C1327 C 0.78654 0.77367 0.25103 0.0
C1328 C 0.71755 0.8119 0.32593 0.0
C1329 C 0.68943 0.81024 0.35304 0.0
C1330 C 0.70328 0.82993 0.3665 0.0
C1331 C 0.73103 0.83127 0.34015 0.0
C1332 C 0.69659 0.80141 0.33241 0.0
C1333 C 0.72382 0.84025 0.36013 0.0
C1334 C 0.77122 0.75092 0.30248 0.0
C1335 C 0.72491 0.80351 0.30384 0.0
H1336 H 0.91758 0.74055 0.24071 0.0
H1337 H 0.86105 0.72828 0.27751 0.0
H1338 H 0.89145 0.71564 0.26092 0.0
H1339 H 0.88245 0.79259 0.25332 0.0
H1340 H 0.69811 0.83749 0.38205 0.0
H1341 H 0.7471 0.8397 0.33569 0.0
H1342 H 0.68606 0.78642 0.32163 0.0
H1343 H 0.73422 0.85537 0.37073 0.0
Tb1344 Tb 0.77992 0.29539 0.82049 0.0
C1345 C 0.83396 0.26139 0.73304 0.0
N1346 N 0.84221 0.27806 0.75128 0.0
C1347 C 0.87694 0.26678 0.75594 0.0
C1348 C 0.84676 0.24638 0.72576 0.0
C1349 C 0.86347 0.28103 0.76273 0.0
C1350 C 0.86852 0.2493 0.73743 0.0
C1351 C 0.80284 0.24148 0.7035 0.0
C1352 C 0.81238 0.25907 0.72208 0.0
C1353 C 0.81541 0.22636 0.69624 0.0
C1354 C 0.83735 0.22883 0.70731 0.0
Tb1355 Tb 0.81857 0.29948 0.76232 0.0
N1356 N 0.80056 0.27371 0.73006 0.0
C1357 C 0.78091 0.23948 0.69289 0.0
C1358 C 0.77928 0.27205 0.71919 0.0
C1359 C 0.76917 0.25495 0.70067 0.0
H1360 H 0.87019 0.29441 0.77714 0.0
H1361 H 0.75224 0.25371 0.69241 0.0
H1362 H 0.7296 0.304 0.80173 0.0
H1363 H 0.83445 0.32623 0.90277 0.0
H1364 H 0.76964 0.28364 0.72428 0.0
H1365 H 0.77295 0.22617 0.67864 0.0
H1366 H 0.81877 0.29978 0.86673 0.0
H1367 H 0.89376 0.26921 0.76509 0.0
H1368 H 0.80831 0.21268 0.68211 0.0
H1369 H 0.84685 0.21703 0.70157 0.0
H1370 H 0.7079 0.33162 0.81133 0.0
H1371 H 0.87891 0.23815 0.73236 0.0
H1372 H 0.8169 0.35732 0.914 0.0
N1373 N 0.75666 0.31843 0.82921 0.0
C1374 C 0.76373 0.33359 0.84897 0.0
C1375 C 0.72379 0.33262 0.82188 0.0
C1376 C 0.75174 0.34965 0.85535 0.0
C1377 C 0.73641 0.31716 0.81622 0.0
C1378 C 0.73168 0.3492 0.8413 0.0
N1379 N 0.79359 0.31661 0.85638 0.0
C1380 C 0.8113 0.31359 0.87089 0.0
C1381 C 0.79092 0.34787 0.88389 0.0
C1382 C 0.78282 0.33258 0.86316 0.0
C1383 C 0.81005 0.34584 0.89798 0.0
C1384 C 0.82004 0.32837 0.89164 0.0
H1385 H 0.72189 0.36118 0.84561 0.0
H1386 H 0.75117 0.37802 0.88068 0.0
H1387 H 0.78568 0.3766 0.9056 0.0
O1388 O 0.77931 0.26737 0.83808 0.0
O1389 O 0.80065 0.32955 0.82302 0.0
O1390 O 0.80684 0.31182 0.79201 0.0
O1391 O 0.74874 0.27597 0.82556 0.0
O1392 O 0.81449 0.28846 0.82573 0.0
O1393 O 0.83829 0.3003 0.79732 0.0
O1394 O 0.81852 0.3245 0.7411 0.0
O1395 O 0.80719 0.26568 0.77053 0.0
O1396 O 0.77974 0.27698 0.78639 0.0
O1397 O 0.84932 0.32274 0.76128 0.0
O1398 O 0.78593 0.3096 0.75671 0.0
O1399 O 0.76247 0.29926 0.78559 0.0
C1400 C 0.81099 0.33079 0.80512 0.0
C1401 C 0.7495 0.26018 0.86054 0.0
C1402 C 0.75424 0.2482 0.89868 0.0
C1403 C 0.73482 0.25471 0.90391 0.0
C1404 C 0.72985 0.2664 0.86576 0.0
C1405 C 0.72257 0.2636 0.88737 0.0
C1406 C 0.76135 0.25065 0.87695 0.0
C1407 C 0.83443 0.29288 0.8177 0.0
C1408 C 0.75766 0.2633 0.83808 0.0
C1409 C 0.75998 0.36536 0.87566 0.0
C1410 C 0.7796 0.36452 0.88987 0.0
C1411 C 0.79074 0.26169 0.78291 0.0
C1412 C 0.85082 0.33498 0.72386 0.0
C1413 C 0.84827 0.34612 0.68509 0.0
C1414 C 0.86626 0.33683 0.68037 0.0
C1415 C 0.86905 0.32595 0.71924 0.0
C1416 C 0.84098 0.34559 0.70694 0.0
C1417 C 0.87683 0.32709 0.69758 0.0
C1418 C 0.76631 0.30679 0.76523 0.0
C1419 C 0.84022 0.33213 0.74507 0.0
H1420 H 0.72906 0.25269 0.92068 0.0
H1421 H 0.72015 0.27348 0.85323 0.0
H1422 H 0.70747 0.26841 0.89133 0.0
H1423 H 0.77635 0.24551 0.87305 0.0
H1424 H 0.87208 0.33715 0.66346 0.0
H1425 H 0.87696 0.31769 0.73206 0.0
H1426 H 0.82681 0.3525 0.71034 0.0
H1427 H 0.89078 0.32002 0.69395 0.0
Tb1428 Tb 0.77521 0.75958 0.77617 0.0
C1429 C 0.85505 0.8363 0.83114 0.0
N1430 N 0.83495 0.82404 0.83558 0.0
C1431 C 0.85162 0.82315 0.87484 0.0
C1432 C 0.87429 0.84193 0.84831 0.0
C1433 C 0.83296 0.81816 0.85744 0.0
C1434 C 0.8724 0.83494 0.87024 0.0
C1435 C 0.87671 0.85703 0.80456 0.0
C1436 C 0.85625 0.84409 0.80958 0.0
C1437 C 0.89587 0.86233 0.82154 0.0
C1438 C 0.89464 0.85489 0.84336 0.0
Tb1439 Tb 0.80544 0.82148 0.80678 0.0
N1440 N 0.83737 0.83877 0.79345 0.0
C1441 C 0.8773 0.86428 0.78259 0.0
C1442 C 0.83773 0.84645 0.77231 0.0
C1443 C 0.85772 0.85895 0.76641 0.0
H1444 H 0.81689 0.81108 0.86231 0.0
H1445 H 0.85791 0.86487 0.74956 0.0
H1446 H 0.76431 0.77011 0.72032 0.0
H1447 H 0.72209 0.71682 0.83297 0.0
H1448 H 0.82253 0.84374 0.76033 0.0
H1449 H 0.89272 0.87417 0.77804 0.0
H1450 H 0.75756 0.73823 0.82271 0.0
H1451 H 0.84977 0.81853 0.8921 0.0
H1452 H 0.9117 0.87234 0.81802 0.0
H1453 H 0.90951 0.85942 0.8564 0.0
H1454 H 0.73154 0.7633 0.69063 0.0
H1455 H 0.88672 0.83913 0.88394 0.0
H1456 H 0.68745 0.7078 0.80427 0.0
N1457 N 0.74597 0.75795 0.7473 0.0
C1458 C 0.72565 0.7461 0.75174 0.0
C1459 C 0.72954 0.75885 0.70791 0.0
C1460 C 0.70651 0.74056 0.73444 0.0
C1461 C 0.74816 0.76353 0.72534 0.0
C1462 C 0.70861 0.74743 0.7125 0.0
N1463 N 0.74292 0.74365 0.78966 0.0
C1464 C 0.74241 0.73571 0.81067 0.0
C1465 C 0.70363 0.72543 0.77815 0.0
C1466 C 0.72417 0.73841 0.77334 0.0
C1467 C 0.70289 0.71788 0.79997 0.0
C1468 C 0.72237 0.72304 0.81628 0.0
H1469 H 0.69435 0.74335 0.69873 0.0
H1470 H 0.67128 0.72313 0.72606 0.0
H1471 H 0.66876 0.71003 0.76432 0.0
O1472 O 0.77598 0.72709 0.78264 0.0
O1473 O 0.75176 0.7784 0.79168 0.0
O1474 O 0.76838 0.81592 0.80574 0.0
O1475 O 0.77041 0.73425 0.74736 0.0
O1476 O 0.79339 0.76341 0.81186 0.0
O1477 O 0.78947 0.79744 0.82859 0.0
O1478 O 0.80405 0.85414 0.80141 0.0
O1479 O 0.82919 0.8028 0.79194 0.0
O1480 O 0.81224 0.7658 0.7753 0.0
O1481 O 0.80834 0.84545 0.83623 0.0
O1482 O 0.78742 0.81727 0.77107 0.0
O1483 O 0.79118 0.78332 0.75387 0.0
C1484 C 0.75046 0.79872 0.80078 0.0
C1485 C 0.78364 0.70195 0.75244 0.0
C1486 C 0.80563 0.67548 0.76129 0.0
C1487 C 0.80028 0.6649 0.73803 0.0
C1488 C 0.77825 0.69134 0.72911 0.0
C1489 C 0.78667 0.67294 0.72193 0.0
C1490 C 0.79749 0.69399 0.76843 0.0
C1491 C 0.79096 0.77678 0.83016 0.0
C1492 C 0.77207 0.71892 0.76052 0.0
C1493 C 0.68605 0.72766 0.73923 0.0
C1494 C 0.68462 0.72014 0.761 0.0
C1495 C 0.83032 0.78287 0.78148 0.0
C1496 C 0.78557 0.87027 0.82913 0.0
C1497 C 0.76173 0.89474 0.81888 0.0
C1498 C 0.7484 0.88773 0.83601 0.0
C1499 C 0.7724 0.86342 0.84654 0.0
C1500 C 0.78023 0.88603 0.81561 0.0
C1501 C 0.75389 0.87221 0.84993 0.0
C1502 C 0.79009 0.80419 0.75269 0.0
C1503 C 0.80407 0.86039 0.82358 0.0
H1504 H 0.80629 0.65027 0.7325 0.0
H1505 H 0.76704 0.69688 0.71663 0.0
H1506 H 0.78223 0.66463 0.70403 0.0
H1507 H 0.80137 0.70158 0.78664 0.0
H1508 H 0.73411 0.89455 0.83888 0.0
H1509 H 0.77612 0.85108 0.85722 0.0
H1510 H 0.79031 0.89128 0.80212 0.0
H1511 H 0.74371 0.86686 0.86324 0.0
Tb1512 Tb 0.5836 0.55794 0.57148 0.0
C1513 C 0.50762 0.4809 0.51466 0.0
N1514 N 0.5185 0.50117 0.50941 0.0
C1515 C 0.51756 0.48463 0.46976 0.0
C1516 C 0.50143 0.46165 0.49757 0.0
C1517 C 0.52334 0.50329 0.48722 0.0
C1518 C 0.50658 0.46373 0.47494 0.0
C1519 C 0.49126 0.45875 0.5433 0.0
C1520 C 0.50254 0.47949 0.5373 0.0
C1521 C 0.48512 0.43956 0.5263 0.0
C1522 C 0.49014 0.44102 0.50351 0.0
Tb1523 Tb 0.52391 0.53055 0.53885 0.0
N1524 N 0.50876 0.49841 0.55342 0.0
C1525 C 0.48622 0.45795 0.56612 0.0
C1526 C 0.50247 0.4979 0.57518 0.0
C1527 C 0.49169 0.47766 0.58206 0.0
H1528 H 0.53057 0.51947 0.48246 0.0
H1529 H 0.48702 0.47741 0.59947 0.0
H1530 H 0.57565 0.56852 0.62762 0.0
H1531 H 0.62772 0.61075 0.51486 0.0
H1532 H 0.5046 0.51301 0.58699 0.0
H1533 H 0.47759 0.44235 0.57141 0.0
H1534 H 0.60686 0.57539 0.52552 0.0
H1535 H 0.5212 0.48648 0.45217 0.0
H1536 H 0.47635 0.42353 0.53058 0.0
H1537 H 0.48515 0.42608 0.49056 0.0
H1538 H 0.58376 0.60116 0.65812 0.0
H1539 H 0.50195 0.44936 0.46128 0.0
H1540 H 0.63718 0.64547 0.54345 0.0
N1541 N 0.58903 0.58706 0.60141 0.0
C1542 C 0.60103 0.60724 0.59708 0.0
C1543 C 0.5884 0.6032 0.64091 0.0
C1544 C 0.60686 0.62628 0.61446 0.0
C1545 C 0.58321 0.58473 0.62323 0.0
C1546 C 0.60016 0.62409 0.63648 0.0
N1547 N 0.60185 0.59001 0.55881 0.0
C1548 C 0.60947 0.59047 0.53765 0.0
C1549 C 0.62056 0.62925 0.57014 0.0
C1550 C 0.60783 0.60871 0.57518 0.0
C1551 C 0.62735 0.63003 0.548 0.0
C1552 C 0.62191 0.6105 0.53176 0.0
H1553 H 0.60439 0.6383 0.65032 0.0
H1554 H 0.62414 0.66155 0.62262 0.0
H1555 H 0.63611 0.66416 0.58381 0.0
O1556 O 0.61272 0.54842 0.56345 0.0
O1557 O 0.56402 0.58333 0.56281 0.0
O1558 O 0.53566 0.56616 0.53233 0.0
O1559 O 0.60947 0.56085 0.59938 0.0
O1560 O 0.58058 0.54217 0.53433 0.0
O1561 O 0.54709 0.54662 0.51666 0.0
O1562 O 0.49358 0.53694 0.54752 0.0
O1563 O 0.54572 0.50641 0.54548 0.0
O1564 O 0.57038 0.52299 0.5786 0.0
O1565 O 0.49693 0.52542 0.51204 0.0
O1566 O 0.52671 0.5485 0.57468 0.0
O1567 O 0.55904 0.54256 0.59274 0.0
C1568 C 0.54866 0.58463 0.54539 0.0
C1569 C 0.64408 0.55058 0.59353 0.0
C1570 C 0.6753 0.53477 0.58587 0.0
C1571 C 0.68652 0.5441 0.60839 0.0
C1572 C 0.65508 0.55965 0.61625 0.0
C1573 C 0.6763 0.55641 0.62361 0.0
C1574 C 0.65422 0.5381 0.57856 0.0
C1575 C 0.56771 0.54487 0.51562 0.0
C1576 C 0.62178 0.55328 0.58538 0.0
C1577 C 0.61945 0.64678 0.60945 0.0
C1578 C 0.62628 0.64826 0.58736 0.0
C1579 C 0.55973 0.50474 0.5639 0.0
C1580 C 0.47512 0.5514 0.51745 0.0
C1581 C 0.44893 0.57468 0.52142 0.0
C1582 C 0.45549 0.58471 0.50199 0.0
C1583 C 0.48174 0.56148 0.49793 0.0
C1584 C 0.45884 0.55823 0.52923 0.0
C1585 C 0.47203 0.57821 0.49038 0.0
C1586 C 0.5393 0.5466 0.59377 0.0
C1587 C 0.4846 0.53353 0.52562 0.0
H1588 H 0.70298 0.5417 0.61419 0.0
H1589 H 0.64735 0.56922 0.62823 0.0
H1590 H 0.68481 0.56344 0.64108 0.0
H1591 H 0.64578 0.531 0.56101 0.0
H1592 H 0.44757 0.59727 0.49566 0.0
H1593 H 0.49442 0.55654 0.48853 0.0
H1594 H 0.45332 0.55022 0.54401 0.0
H1595 H 0.47714 0.58593 0.47538 0.0
Tb1596 Tb 1.01608 0.54134 0.07381 0.0
C1597 C 0.09968 0.59111 0.02605 0.0
N1598 N 0.08274 0.57229 0.01848 0.0
C1599 C 0.07893 0.58321 0.98011 0.0
C1600 C 0.10634 0.60704 0.01098 0.0
C1601 C 0.07289 0.56783 0.9956 0.0
C1602 C 0.09556 0.60298 0.98786 0.0
C1603 C 0.12799 0.61386 0.05741 0.0
C1604 C 0.11057 0.59446 0.04906 0.0
C1605 C 0.13442 0.6298 0.04244 0.0
C1606 C 0.12365 0.62639 0.01932 0.0
Tb1607 Tb 0.07645 0.54848 0.04572 0.0
N1608 N 0.10351 0.57911 0.06346 0.0
C1609 C 0.13829 0.61677 0.08065 0.0
C1610 C 0.11419 0.58134 0.08575 0.0
C1611 C 0.13147 0.60034 0.09481 0.0
H1612 H 0.06091 0.55218 0.98878 0.0
H1613 H 0.13976 0.60214 0.1126 0.0
H1614 H 0.03453 0.54112 0.13134 0.0
H1615 H 0.9493 0.48451 0.01339 0.0
H1616 H 0.11001 0.56822 0.09629 0.0
H1617 H 0.1517 0.63147 0.08773 0.0
H1618 H 0.9798 0.51884 0.02614 0.0
H1619 H 0.07099 0.57962 0.96206 0.0
H1620 H 0.14771 0.64483 0.04857 0.0
H1621 H 0.1289 0.63881 0.00797 0.0
H1622 H 0.02887 0.51445 0.15937 0.0
H1623 H 0.10025 0.61478 0.97573 0.0
H1624 H 0.94101 0.45609 0.0401 0.0
N1625 N 1.01348 0.51857 0.10257 0.0
C1626 C 0.99731 0.4989 0.09654 0.0
C1627 C 0.02024 0.50966 0.14161 0.0
C1628 C 0.99269 0.48354 0.11268 0.0
C1629 C 0.02397 0.52457 0.12522 0.0
C1630 C 1.00477 0.48894 0.13525 0.0
N1631 N 0.98931 0.50947 0.05905 0.0
C1632 C 0.97666 0.50633 0.03759 0.0
C1633 C 0.9672 0.47466 0.06793 0.0
C1634 C 0.98454 0.49446 0.07438 0.0
C1635 C 0.95452 0.47106 0.04568 0.0
C1636 C 0.95921 0.48701 0.0305 0.0
H1637 H 1.00167 0.47761 0.14814 0.0
H1638 H 0.97202 0.45163 0.11829 0.0
H1639 H 0.9498 0.44385 0.07914 0.0
O1640 O 0.98688 0.55263 0.06299 0.0
O1641 O 0.0226 0.50894 0.05656 0.0
O1642 O 0.05707 0.5129 0.04189 0.0
O1643 O 0.99894 0.55257 0.09984 0.0
O1644 O 0.02478 0.55428 0.04213 0.0
O1645 O 0.04608 0.53721 0.0207 0.0
O1646 O 0.10536 0.5368 0.05722 0.0
O1647 O 0.06823 0.5813 0.05886 0.0
O1648 O 0.03512 0.57702 0.07617 0.0
O1649 O 0.09343 0.53631 0.02019 0.0
O1650 O 0.06606 0.53537 0.07665 0.0
O1651 O 0.04663 0.55442 0.09794 0.0
C1652 C 0.03782 0.50039 0.04639 0.0
C1653 C 0.96544 0.56606 0.09258 0.0
C1654 C 0.93573 0.58562 0.08603 0.0
C1655 C 0.932 0.58492 0.10936 0.0
C1656 C 0.96138 0.56551 0.11591 0.0
C1657 C 0.94475 0.57488 0.12418 0.0
C1658 C 0.95244 0.57612 0.07757 0.0
C1659 C 0.02692 0.54218 0.02313 0.0
C1660 C 0.984 0.55711 0.08477 0.0
C1661 C 0.97572 0.4636 0.1061 0.0
C1662 C 0.963 0.4592 0.08383 0.0
C1663 C 0.05326 0.58977 0.06957 0.0
C1664 C 0.12645 0.52199 0.02777 0.0
C1665 C 0.15715 0.50354 0.03465 0.0
C1666 C 0.1589 0.50174 0.01067 0.0
C1667 C 0.12875 0.52002 1.00383 0.0
C1668 C 0.14088 0.51374 0.04333 0.0
C1669 C 0.14483 0.50997 0.99541 0.0
C1670 C 0.06497 0.54798 0.09567 0.0
C1671 C 0.10819 0.53172 0.0355 0.0
H1672 H 0.91926 0.59228 0.11612 0.0
H1673 H 0.97116 0.55796 0.12787 0.0
H1674 H 0.94185 0.57447 0.14219 0.0
H1675 H 0.95549 0.5769 0.05962 0.0
H1676 H 0.17124 0.49388 1.00374 0.0
H1677 H 0.11796 0.52611 0.99142 0.0
H1678 H 0.13931 0.51494 0.0618 0.0
H1679 H 0.14631 0.50846 0.97694 0.0
H1680 H 0.98505 0.20603 1.00196 0.0
H1681 H 0.05255 0.2223 0.98556 0.0
H1682 H 0.99117 0.17094 0.0151 0.0
H1683 H 0.05895 0.18789 0.99934 0.0
H1684 H 0.0697 0.13293 0.04648 0.0
H1685 H 0.06321 0.16788 0.03477 0.0
H1686 H 0.99751 0.1321 0.99979 0.0
H1687 H 1.00479 0.09668 0.01042 0.0
C1688 C 1.00144 0.2026 1.00172 0.0
C1689 C 0.01842 0.2179 0.99311 0.0
C1690 C 1.00493 0.18208 0.00904 0.0
C1691 C 0.02571 0.17593 0.00856 0.0
C1692 C 0.04276 0.19156 1.00044 0.0
C1693 C 0.03908 0.21165 0.99256 0.0
C1694 C 0.05399 0.13215 0.03611 0.0
C1695 C 0.03819 0.11116 0.0294 0.0
C1696 C 0.05011 0.15259 0.02929 0.0
C1697 C 0.02969 0.15356 0.01609 0.0
C1698 C 1.01349 0.13267 0.00993 0.0
C1699 C 0.01777 0.11205 0.01605 0.0
H1700 H 0.15618 0.82093 0.14234 0.0
H1701 H 0.12146 0.82009 0.20284 0.0
H1702 H 0.1903 0.81878 0.16687 0.0
H1703 H 0.1555 0.81857 0.22738 0.0
H1704 H 0.21037 0.78813 0.2596 0.0
H1705 H 0.1776 0.79303 0.23543 0.0
H1706 H 0.22081 0.83654 0.19713 0.0
H1707 H 0.25374 0.8316 0.22153 0.0
C1708 C 0.15592 0.82081 0.16094 0.0
C1709 C 0.13592 0.8207 0.17048 0.0
C1710 C 0.17556 0.81955 0.17509 0.0
C1711 C 0.17582 0.81823 0.19925 0.0
C1712 C 0.15601 0.819 0.20885 0.0
C1713 C 0.13643 0.82013 0.19473 0.0
C1714 C 0.21298 0.79917 0.24642 0.0
C1715 C 0.23487 0.80986 0.24302 0.0
C1716 C 0.19405 0.80193 0.23237 0.0
C1717 C 0.19629 0.81542 0.21428 0.0
C1718 C 0.21823 0.82591 0.21069 0.0
C1719 C 0.2372 0.82316 0.22482 0.0
H1720 H 0.52481 0.86181 0.46057 0.0
H1721 H 0.53457 0.84955 0.53218 0.0
H1722 H 0.52917 0.90125 0.47339 0.0
H1723 H 0.53919 0.89008 0.54535 0.0
H1724 H 0.5266 0.96338 0.56019 0.0
H1725 H 0.52248 0.92285 0.54975 0.0
H1726 H 0.55386 0.93568 0.48829 0.0
H1727 H 0.55667 0.97565 0.49803 0.0
C1728 C 0.52795 0.8674 0.47926 0.0
C1729 C 0.52921 0.8517 0.49511 0.0
C1730 C 0.53071 0.89055 0.48672 0.0
C1731 C 0.53479 0.89971 0.51061 0.0
C1732 C 0.53601 0.88413 0.52675 0.0
C1733 C 0.5335 0.86066 0.51917 0.0
C1734 C 0.53231 0.9576 0.54422 0.0
C1735 C 0.54198 0.97343 0.53005 0.0
C1736 C 0.53026 0.93409 0.53835 0.0
C1737 C 0.53771 0.9252 0.51795 0.0
C1738 C 0.54746 0.94116 0.50395 0.0
C1739 C 0.54945 0.96452 0.50978 0.0
H1740 H 0.52102 0.32698 0.6786 0.0
H1741 H 0.51538 0.25559 0.67279 0.0
H1742 H 0.48591 0.32177 0.69616 0.0
H1743 H 0.4806 0.25035 0.68957 0.0
H1744 H 0.41124 0.24197 0.70379 0.0
H1745 H 0.441 0.25402 0.68009 0.0
H1746 H 0.47429 0.30817 0.73524 0.0
H1747 H 0.44407 0.29627 0.75873 0.0
C1748 C 0.51214 0.31023 0.68083 0.0
C1749 C 0.52093 0.29169 0.67459 0.0
C1750 C 0.49216 0.30725 0.69086 0.0
C1751 C 0.48045 0.28562 0.69407 0.0
C1752 C 0.48904 0.26717 0.68707 0.0
C1753 C 0.5091 0.27019 0.67767 0.0
C1754 C 0.42473 0.25668 0.71058 0.0
C1755 C 0.42571 0.26802 0.7331 0.0
C1756 C 0.44171 0.2636 0.69708 0.0
C1757 C 0.46012 0.28183 0.70598 0.0
C1758 C 0.46025 0.29415 0.7279 0.0
C1759 C 0.44312 0.28727 0.74138 0.0
H1760 H 0.07773 0.83405 0.66568 0.0
H1761 H 1.00581 0.82326 0.66191 0.0
H1762 H 0.07958 0.86838 0.64819 0.0
H1763 H 1.00758 0.85761 0.6434 0.0
H1764 H 0.0336 0.89955 0.57831 0.0
H1765 H 0.02231 0.86927 0.60189 0.0
H1766 H 0.0701 0.90762 0.66039 0.0
H1767 H 0.08121 0.93774 0.6369 0.0
C1768 C 0.0623 0.83907 0.66108 0.0
C1769 C 0.04164 0.82607 0.66515 0.0
C1770 C 0.06337 0.85879 0.65122 0.0
C1771 C 0.04375 0.86574 0.64465 0.0
C1772 C 0.02295 0.85267 0.64848 0.0
C1773 C 0.02195 0.83313 0.65906 0.0
C1774 C 0.04081 0.90189 0.59656 0.0
C1775 C 0.05812 0.92095 0.60593 0.0
C1776 C 0.03445 0.88458 0.61001 0.0
C1777 C 0.04554 0.88606 0.63285 0.0
C1778 C 0.06139 0.90604 0.64279 0.0
C1779 C 0.06762 0.92332 0.62945 0.0
H1780 H 0.48808 0.83692 0.80232 0.0
H1781 H 0.47561 0.80312 0.86206 0.0
H1782 H 0.44797 0.83129 0.79077 0.0
H1783 H 0.43558 0.79769 0.85128 0.0
H1784 H 0.3603 0.78741 0.83054 0.0
H1785 H 0.40012 0.79244 0.84127 0.0
H1786 H 0.41219 0.82747 0.78164 0.0
H1787 H 0.37197 0.82139 0.77078 0.0
C1788 C 0.47676 0.82818 0.81311 0.0
C1789 C 0.48572 0.82041 0.83318 0.0
C1790 C 0.45316 0.82489 0.80647 0.0
C1791 C 0.43695 0.81387 0.8197 0.0
C1792 C 0.44626 0.80616 0.83989 0.0
C1793 C 0.46982 0.80923 0.84632 0.0
C1794 C 0.37136 0.7959 0.81942 0.0
C1795 C 0.36213 0.80362 0.79946 0.0
C1796 C 0.39491 0.79912 0.82579 0.0
C1797 C 0.411 0.81049 0.81268 0.0
C1798 C 0.40154 0.81852 0.79276 0.0
C1799 C 0.37788 0.81516 0.78637 0.0
H1800 H 0.55609 0.20645 0.14989 0.0
H1801 H 0.49678 0.16981 0.17403 0.0
H1802 H 0.55838 0.17319 0.12568 0.0
H1803 H 0.49767 0.13614 0.14785 0.0
H1804 H 0.51203 0.07298 0.10919 0.0
H1805 H 0.50928 0.10562 0.13529 0.0
H1806 H 0.5495 0.14886 0.09407 0.0
H1807 H 0.55456 0.11641 0.07045 0.0
C1808 C 0.54312 0.19123 0.14965 0.0
C1809 C 0.52613 0.19108 0.16394 0.0
C1810 C 0.54426 0.17184 0.1353 0.0
C1811 C 0.52797 0.15132 0.13382 0.0
C1812 C 0.51083 0.15117 0.14825 0.0
C1813 C 0.51012 0.17064 0.1633 0.0
C1814 C 0.52051 0.0895 0.10589 0.0
C1815 C 0.53339 0.09173 0.0873 0.0
C1816 C 0.51871 0.1085 0.12085 0.0
C1817 C 0.52924 0.13059 0.11748 0.0
C1818 C 0.54154 0.13261 0.09834 0.0
C1819 C 0.54397 0.11367 0.084 0.0
H1820 H 0.11457 0.26656 0.33233 0.0
H1821 H 0.13024 0.33644 0.32404 0.0
H1822 H 0.15114 0.26369 0.32269 0.0
H1823 H 0.16646 0.33362 0.31274 0.0
H1824 H 0.23789 0.32877 0.30123 0.0
H1825 H 0.20175 0.33226 0.31214 0.0
H1826 H 0.17972 0.25985 0.30513 0.0
H1827 H 0.21636 0.25711 0.29608 0.0
C1828 C 0.12568 0.28136 0.32797 0.0
C1829 C 0.11883 0.30172 0.32899 0.0
C1830 C 0.14714 0.27976 0.3222 0.0
C1831 C 0.163 0.29831 0.31643 0.0
C1832 C 0.1558 0.31867 0.3172 0.0
C1833 C 0.13452 0.32037 0.32361 0.0
C1834 C 0.22546 0.3136 0.30243 0.0
C1835 C 0.23068 0.29259 0.29758 0.0
C1836 C 0.20411 0.3155 0.30844 0.0
C1837 C 0.18648 0.29642 0.30984 0.0
C1838 C 0.19193 0.27538 0.3048 0.0
C1839 C 0.21332 0.27361 0.299 0.0
H1840 H 0.99745 1.00358 0.21808 0.0
H1841 H 0.96109 0.05401 0.20674 0.0
H1842 H 1.01392 1.00948 0.18248 0.0
H1843 H 0.97888 0.06168 0.17245 0.0
H1844 H 0.99888 0.06135 0.10002 0.0
H1845 H 0.98254 0.05511 0.13545 0.0
H1846 H 0.03686 0.02604 0.1598 0.0
H1847 H 0.05156 0.03025 0.12318 0.0
C1848 C 0.99333 0.0163 0.20817 0.0
C1849 C 0.97782 0.02819 0.21528 0.0
C1850 C 1.00296 0.01993 0.18761 0.0
C1851 C 0.99798 0.03614 0.17375 0.0
C1852 C 0.98295 0.04852 0.18161 0.0
C1853 C 0.9728 0.04434 0.20169 0.0
C1854 C 1.00716 0.05337 0.11286 0.0
C1855 C 0.02638 0.04599 0.10836 0.0
C1856 C 0.99793 0.05001 0.13366 0.0
C1857 C 1.00804 0.0399 0.15128 0.0
C1858 C 0.02782 0.03327 0.14692 0.0
C1859 C 0.0366 0.036 0.1258 0.0
H1860 H 0.3094 0.67237 0.48851 0.0
H1861 H 0.24526 0.6823 0.50429 0.0
H1862 H 0.30452 0.68976 0.45257 0.0
H1863 H 0.24047 0.69892 0.46904 0.0
H1864 H 0.22446 0.70864 0.39777 0.0
H1865 H 0.23596 0.68377 0.42414 0.0
H1866 H 0.29936 0.73244 0.44685 0.0
H1867 H 0.2879 0.75713 0.41997 0.0
C1868 C 0.29434 0.67812 0.48425 0.0
C1869 C 0.27776 0.67613 0.49914 0.0
C1870 C 0.29156 0.68793 0.46383 0.0
C1871 C 0.27193 0.69515 0.45803 0.0
C1872 C 0.25551 0.69301 0.47293 0.0
C1873 C 0.25842 0.68373 0.49327 0.0
C1874 C 0.24098 0.71369 0.40811 0.0
C1875 C 0.25515 0.73478 0.40763 0.0
C1876 C 0.24765 0.69948 0.42288 0.0
C1877 C 0.26844 0.7064 0.43748 0.0
C1878 C 0.28337 0.72676 0.43555 0.0
C1879 C 0.27672 0.74095 0.42059 0.0
H1880 H 0.68035 0.0459 0.68389 0.0
H1881 H 0.62926 0.04943 0.72863 0.0
H1882 H 0.65341 0.04508 0.64986 0.0
H1883 H 0.60218 0.04828 0.6942 0.0
H1884 H 0.57507 0.07698 0.62814 0.0
H1885 H 0.60033 0.07636 0.66365 0.0
H1886 H 0.61696 0.01738 0.63022 0.0
H1887 H 0.59201 0.0179 0.59511 0.0
C1888 C 0.66331 0.04624 0.6864 0.0
C1889 C 0.65682 0.04785 0.70879 0.0
C1890 C 0.64799 0.04574 0.66699 0.0
C1891 C 0.62603 0.04676 0.66977 0.0
C1892 C 0.61925 0.04774 0.69198 0.0
C1893 C 0.6346 0.04816 0.71149 0.0
C1894 C 0.58414 0.06392 0.62861 0.0
C1895 C 0.58197 0.04768 0.6091 0.0
C1896 C 0.59835 0.0635 0.64874 0.0
C1897 C 0.61032 0.04681 0.64929 0.0
C1898 C 0.60793 0.03048 0.62987 0.0
C1899 C 0.59381 0.03089 0.60985 0.0
H1900 H 0.3194 0.31847 0.98411 0.0
H1901 H 0.30339 0.37983 0.96789 0.0
H1902 H 0.31524 0.30465 0.94262 0.0
H1903 H 0.30086 0.367 0.92627 0.0
H1904 H 0.28183 0.33355 0.85077 0.0
H1905 H 0.2836 0.34622 0.89215 0.0
H1906 H 0.32851 0.30392 0.9084 0.0
H1907 H 0.32453 0.2896 0.86727 0.0
C1908 C 0.31508 0.3291 0.97161 0.0
C1909 C 0.31155 0.3502 0.97948 0.0
C1910 C 0.31296 0.32129 0.94755 0.0
C1911 C 0.30785 0.33457 0.93036 0.0
C1912 C 0.30434 0.35579 0.93844 0.0
C1913 C 0.3059 0.36333 0.96253 0.0
C1914 C 0.29195 0.32679 0.86317 0.0
C1915 C 0.30325 0.31063 0.85527 0.0
C1916 C 0.29325 0.33434 0.8872 0.0
C1917 C 0.30632 0.3264 0.90437 0.0
C1918 C 0.31784 0.31038 0.8963 0.0
C1919 C 0.316 0.30241 0.87233 0.0
H1920 H 0.02006 0.01906 0.34471 0.0
H1921 H 0.95657 0.03044 0.35983 0.0
H1922 H 0.03415 0.02554 0.38628 0.0
H1923 H 0.96969 0.03506 0.4016 0.0
H1924 H 1.00239 0.05752 0.47695 0.0
H1925 H 0.98957 0.05419 0.43535 0.0
H1926 H 0.03613 0.0134 0.42087 0.0
H1927 H 0.05044 0.01904 0.46204 0.0
C1928 C 1.00904 0.02284 0.35702 0.0
C1929 C 0.98725 0.0244 0.34886 0.0
C1930 C 1.017 0.02628 0.38111 0.0
C1931 C 1.00319 0.03067 0.39802 0.0
C1932 C 0.98129 0.03223 0.38962 0.0
C1933 C 0.97359 0.02945 0.36547 0.0
C1934 C 1.00999 0.04793 0.46486 0.0
C1935 C 0.02724 0.03816 0.47322 0.0
C1936 C 1.00241 0.04576 0.44074 0.0
C1937 C 1.01149 0.03333 0.42404 0.0
C1938 C 0.02872 0.0235 0.4326 0.0
C1939 C 0.03672 0.02626 0.45661 0.0
H1940 H 0.27735 0.7019 0.60116 0.0
H1941 H 0.29899 0.66027 0.64977 0.0
H1942 H 0.27883 0.73106 0.63374 0.0
H1943 H 0.30043 0.68945 0.68229 0.0
H1944 H 0.3248 0.7555 0.72947 0.0
H1945 H 0.32435 0.72948 0.69468 0.0
H1946 H 0.25708 0.73349 0.66923 0.0
H1947 H 0.2577 0.76009 0.70412 0.0
C1948 C 0.28269 0.69918 0.6188 0.0
C1949 C 0.28823 0.67909 0.6232 0.0
C1950 C 0.2833 0.71567 0.6373 0.0
C1951 C 0.28978 0.71228 0.6602 0.0
C1952 C 0.29557 0.69232 0.66458 0.0
C1953 C 0.2947 0.67572 0.64613 0.0
C1954 C 0.31 0.75091 0.71633 0.0
C1955 C 0.29117 0.75937 0.71923 0.0
C1956 C 0.30976 0.73611 0.69658 0.0
C1957 C 0.29061 0.72952 0.6797 0.0
C1958 C 0.27204 0.73863 0.68213 0.0
C1959 C 0.27238 0.75369 0.70189 0.0
H1960 H 0.68154 0.09055 0.84681 0.0
H1961 H 0.6501 0.01955 0.83229 0.0
H1962 H 0.66396 0.09351 0.88205 0.0
H1963 H 0.63181 0.02254 0.86778 0.0
H1964 H 0.57749 0.06088 0.89847 0.0
H1965 H 0.6012 0.04688 0.87221 0.0
H1966 H 0.66008 0.07893 0.92235 0.0
H1967 H 0.63632 0.09271 0.94866 0.0
C1968 C 0.67137 0.07545 0.85171 0.0
C1969 C 0.66706 0.05485 0.83717 0.0
C1970 C 0.66143 0.07709 0.87187 0.0
C1971 C 0.64665 0.05822 0.87753 0.0
C1972 C 0.64328 0.03724 0.86367 0.0
C1973 C 0.65369 0.03551 0.84357 0.0
C1974 C 0.59549 0.06474 0.90381 0.0
C1975 C 0.60531 0.07827 0.9251 0.0
C1976 C 0.60895 0.0564 0.88911 0.0
C1977 C 0.63236 0.0618 0.89545 0.0
C1978 C 0.64203 0.07448 0.91726 0.0
C1979 C 0.62855 0.08253 0.93209 0.0
H1980 H 0.29933 0.3257 0.09716 0.0
H1981 H 0.3132 0.39101 0.13877 0.0
H1982 H 0.29295 0.30799 0.13235 0.0
H1983 H 0.3077 0.37358 0.17373 0.0
H1984 H 0.27907 0.33782 0.23167 0.0
H1985 H 0.28187 0.35383 0.19516 0.0
H1986 H 0.3106 0.30055 0.1678 0.0
H1987 H 0.30734 0.28443 0.20397 0.0
C1988 C 0.30117 0.3363 0.11378 0.0
C1989 C 0.30674 0.35983 0.11492 0.0
C1990 C 0.29759 0.32615 0.13408 0.0
C1991 C 0.29967 0.33923 0.15619 0.0
C1992 C 0.30537 0.36276 0.15718 0.0
C1993 C 0.30873 0.37283 0.13697 0.0
C1994 C 0.28583 0.32944 0.2178 0.0
C1995 C 0.29277 0.30968 0.22087 0.0
C1996 C 0.2876 0.33871 0.1968 0.0
C1997 C 0.29656 0.32863 0.17822 0.0
C1998 C 0.30327 0.30873 0.18131 0.0
C1999 C 0.30145 0.29947 0.20224 0.0
H2000 H 0.23506 0.9739 0.97889 0.0
H2001 H 0.26516 0.98806 0.05148 0.0
H2002 H 0.20008 0.98198 0.99055 0.0
H2003 H 0.23066 0.99512 0.06298 0.0
H2004 H 0.16579 0.9888 0.08294 0.0
H2005 H 0.18823 0.96999 0.05929 0.0
H2006 H 0.19442 0.02204 0.01491 0.0
H2007 H 0.17192 0.04087 0.03849 0.0
C2008 C 0.23411 0.97876 0.99719 0.0
C2009 C 0.25269 0.98097 0.01431 0.0
C2010 C 0.21425 0.98311 1.00382 0.0
C2011 C 0.21278 0.98868 0.02761 0.0
C2012 C 0.23135 0.99048 0.04456 0.0
C2013 C 0.25117 0.98686 0.03795 0.0
C2014 C 0.17133 0.99576 0.06766 0.0
C2015 C 0.16762 0.0164 0.06271 0.0
C2016 C 0.18389 0.98493 0.05405 0.0
C2017 C 0.19299 0.99476 0.0355 0.0
C2018 C 0.18725 0.01409 0.02898 0.0
C2019 C 0.17458 0.0249 0.04256 0.0
H2020 H 0.7275 0.61644 0.01312 0.0
H2021 H 0.69879 0.67137 0.03558 0.0
H2022 H 0.69238 0.58955 0.01688 0.0
H2023 H 0.66406 0.64441 0.03982 0.0
H2024 H 0.62888 0.57707 0.0762 0.0
H2025 H 0.66473 0.60122 0.06971 0.0
H2026 H 0.64035 0.59341 0.99598 0.0
H2027 H 0.60419 0.57004 1.00259 0.0
C2028 C 0.71364 0.62276 0.01858 0.0
C2029 C 0.71584 0.64604 0.02387 0.0
C2030 C 0.69367 0.6074 0.02082 0.0
C2031 C 0.67578 0.61506 0.02878 0.0
C2032 C 0.67774 0.63823 0.03365 0.0
C2033 C 0.69751 0.6536 0.03102 0.0
C2034 C 0.6314 0.58027 0.0586 0.0
C2035 C 0.61392 0.5719 0.03987 0.0
C2036 C 0.65176 0.59406 0.05492 0.0
C2037 C 0.6551 0.59904 0.03236 0.0
C2038 C 0.63802 0.58978 0.01349 0.0
C2039 C 0.61745 0.57651 0.01727 0.0
H2040 H 0.71852 0.51451 0.32952 0.0
H2041 H 0.66339 0.47679 0.27778 0.0
H2042 H 0.73673 0.48322 0.32602 0.0
H2043 H 0.6817 0.4458 0.27348 0.0
H2044 H 0.714 0.38885 0.27282 0.0
H2045 H 0.69443 0.41598 0.28917 0.0
H2046 H 0.75576 0.46843 0.29683 0.0
H2047 H 0.7751 0.44113 0.281 0.0
C2048 C 0.71015 0.49928 0.31775 0.0
C2049 C 0.68952 0.49779 0.30411 0.0
C2050 C 0.72061 0.48144 0.31556 0.0
C2051 C 0.71077 0.46194 0.2994 0.0
C2052 C 0.68962 0.46029 0.28643 0.0
C2053 C 0.67913 0.47805 0.28878 0.0
C2054 C 0.72336 0.40604 0.27887 0.0
C2055 C 0.74603 0.41299 0.27595 0.0
C2056 C 0.71215 0.42165 0.28793 0.0
C2057 C 0.72341 0.44452 0.29409 0.0
C2058 C 0.74654 0.451 0.29256 0.0
C2059 C 0.75769 0.4354 0.28348 0.0
H2060 H 0.87211 0.50309 0.52524 0.0
H2061 H 0.88269 0.43596 0.52108 0.0
H2062 H 0.91215 0.51871 0.53719 0.0
H2063 H 0.92281 0.45176 0.53342 0.0
H2064 H 0.99115 0.49854 0.51692 0.0
H2065 H 0.9532 0.47506 0.5148 0.0
H2066 H 0.94128 0.51998 0.57203 0.0
H2067 H 0.9794 0.54349 0.57392 0.0
C2068 C 0.88298 0.4917 0.52687 0.0
C2069 C 0.87433 0.46835 0.52239 0.0
C2070 C 0.90579 0.50061 0.53408 0.0
C2071 C 0.92025 0.48631 0.53688 0.0
C2072 C 0.9118 0.463 0.53167 0.0
C2073 C 0.88895 0.45405 0.52442 0.0
C2074 C 0.98058 0.50275 0.52956 0.0
C2075 C 0.98759 0.52255 0.54544 0.0
C2076 C 0.95903 0.48937 0.52846 0.0
C2077 C 0.9444 0.49609 0.54298 0.0
C2078 C 0.95235 0.51475 0.56051 0.0
C2079 C 0.97399 0.52806 0.56168 0.0
H2080 H 0.39917 0.10372 0.31673 0.0
H2081 H 0.33882 0.07751 0.34572 0.0
H2082 H 0.38379 0.134 0.30439 0.0
H2083 H 0.32383 0.1088 0.33488 0.0
H2084 H 0.29125 0.1232 0.26414 0.0
H2085 H 0.31041 0.10653 0.29371 0.0
H2086 H 0.36637 0.16529 0.30585 0.0
H2087 H 0.34718 0.18166 0.27565 0.0
C2088 C 0.3833 0.10548 0.32201 0.0
C2089 C 0.36991 0.08838 0.33178 0.0
C2090 C 0.37442 0.1228 0.31488 0.0
C2091 C 0.35227 0.12322 0.31797 0.0
C2092 C 0.34067 0.10836 0.33166 0.0
C2093 C 0.3493 0.09067 0.33814 0.0
C2094 C 0.30771 0.13237 0.27304 0.0
C2095 C 0.31801 0.15338 0.26751 0.0
C2096 C 0.31848 0.12317 0.29037 0.0
C2097 C 0.33975 0.13484 0.30243 0.0
C2098 C 0.34995 0.15603 0.29697 0.0
C2099 C 0.3391 0.16527 0.27965 0.0
H2100 H 0.32291 0.1198 0.56068 0.0
H2101 H 0.35504 0.1636 0.51482 0.0
H2102 H 0.35465 0.10267 0.56384 0.0
H2103 H 0.38686 0.1462 0.51783 0.0
H2104 H 0.45002 0.13645 0.56426 0.0
H2105 H 0.41655 0.1483 0.55044 0.0
H2106 H 0.37697 0.07989 0.54396 0.0
H2107 H 0.41062 0.06809 0.55843 0.0
C2108 C 0.33663 0.12557 0.55099 0.0
C2109 C 0.33661 0.1433 0.53776 0.0
C2110 C 0.35474 0.11557 0.55263 0.0
C2111 C 0.37335 0.12315 0.5412 0.0
C2112 C 0.37286 0.14016 0.52706 0.0
C2113 C 0.35462 0.15008 0.52528 0.0
C2114 C 0.43422 0.12389 0.55966 0.0
C2115 C 0.43289 0.10141 0.56276 0.0
C2116 C 0.41506 0.13063 0.55147 0.0
C2117 C 0.39405 0.11507 0.54621 0.0
C2118 C 0.39289 0.09232 0.54811 0.0
C2119 C 0.41216 0.08553 0.55622 0.0
H2120 H 0.72102 0.60804 0.31041 0.0
H2121 H 0.66805 0.63856 0.32941 0.0
H2122 H 0.74479 0.64496 0.30863 0.0
H2123 H 0.69168 0.67552 0.32709 0.0
H2124 H 0.74549 0.74125 0.33709 0.0
H2125 H 0.72429 0.70441 0.3437 0.0
H2126 H 0.7472 0.67331 0.28372 0.0
H2127 H 0.7688 0.70999 0.27764 0.0
C2128 C 0.71448 0.62263 0.31446 0.0
C2129 C 0.69251 0.62024 0.32001 0.0
C2130 C 0.72809 0.64385 0.3132 0.0
C2131 C 0.72015 0.66331 0.31746 0.0
C2132 C 0.69849 0.66099 0.32388 0.0
C2133 C 0.68486 0.63973 0.32514 0.0
C2134 C 0.74605 0.72648 0.32543 0.0
C2135 C 0.75893 0.7285 0.30698 0.0
C2136 C 0.73382 0.70536 0.32913 0.0
C2137 C 0.73398 0.68577 0.31428 0.0
C2138 C 0.74698 0.68789 0.29584 0.0
C2139 C 0.75933 0.70896 0.29228 0.0
H2140 H 0.83108 0.46536 0.81208 0.0
H2141 H 0.90078 0.46229 0.82227 0.0
H2142 H 0.81977 0.42463 0.80188 0.0
H2143 H 0.88942 0.42182 0.81145 0.0
H2144 H 0.85019 0.35224 0.83096 0.0
H2145 H 0.86898 0.3916 0.83125 0.0
H2146 H 0.82253 0.39427 0.77066 0.0
H2147 H 0.80355 0.35497 0.77086 0.0
C2148 C 0.84392 0.45602 0.81202 0.0
C2149 C 0.86674 0.46691 0.81795 0.0
C2150 C 0.83752 0.43284 0.80584 0.0
C2151 C 0.85386 0.42035 0.80544 0.0
C2152 C 0.87661 0.43121 0.81151 0.0
C2153 C 0.88302 0.45431 0.81783 0.0
C2154 C 0.8447 0.36117 0.81725 0.0
C2155 C 0.82575 0.35111 0.80087 0.0
C2156 C 0.8554 0.38352 0.81731 0.0
C2157 C 0.84685 0.39585 0.80118 0.0
C2158 C 0.82914 0.38501 0.78339 0.0
C2159 C 0.8185 0.36263 0.78334 0.0
H2160 H 0.04474 0.87566 0.10778 0.0
H2161 H 0.09944 0.88084 0.06726 0.0
H2162 H 0.04013 0.91234 0.09871 0.0
H2163 H 0.09495 0.91747 0.05818 0.0
H2164 H 0.09508 0.99343 0.06077 0.0
H2165 H 0.0995 0.95673 0.06994 0.0
H2166 H 0.02832 0.93546 0.07193 0.0
H2167 H 0.02405 0.97209 0.06293 0.0
C2168 C 0.05582 0.88444 0.0968 0.0
C2169 C 0.07248 0.87454 0.08832 0.0
C2170 C 0.0531 0.90581 0.09144 0.0
C2171 C 0.06709 0.91877 0.07751 0.0
C2172 C 0.08379 0.9088 0.06914 0.0
C2173 C 0.08632 0.88735 0.07428 0.0
C2174 C 0.08024 0.981 0.06305 0.0
C2175 C 0.05906 0.98637 0.06059 0.0
C2176 C 0.08278 0.95954 0.06828 0.0
C2177 C 0.06435 0.9422 0.07178 0.0
C2178 C 0.04322 0.94777 0.06965 0.0
C2179 C 0.04067 0.96909 0.06412 0.0
H2180 H 0.96033 0.26197 0.8792 0.0
H2181 H 0.93615 0.29269 0.93822 0.0
H2182 H 0.92857 0.2668 0.85312 0.0
H2183 H 0.90391 0.29691 0.91233 0.0
H2184 H 0.85656 0.31945 0.85861 0.0
H2185 H 0.88901 0.31529 0.88435 0.0
H2186 H 0.89088 0.25618 0.83798 0.0
H2187 H 0.8587 0.26096 0.81211 0.0
C2188 C 0.94815 0.2696 0.88677 0.0
C2189 C 0.95112 0.27681 0.91113 0.0
C2190 C 0.92962 0.27229 0.87166 0.0
C2191 C 0.91309 0.28228 0.88017 0.0
C2192 C 0.91611 0.28945 0.9046 0.0
C2193 C 0.9347 0.28682 0.9197 0.0
C2194 C 0.86373 0.3054 0.85409 0.0
C2195 C 0.85457 0.29028 0.83347 0.0
C2196 C 0.88251 0.30292 0.86895 0.0
C2197 C 0.89297 0.28517 0.86383 0.0
C2198 C 0.88385 0.27025 0.84284 0.0
C2199 C 0.86513 0.27285 0.82792 0.0
H2200 H 0.60083 0.23813 0.57643 0.0
H2201 H 0.54146 0.22529 0.61008 0.0
H2202 H 0.59606 0.1974 0.56619 0.0
H2203 H 0.53691 0.18519 0.60067 0.0
H2204 H 0.52333 0.11094 0.57123 0.0
H2205 H 0.52724 0.15137 0.57791 0.0
H2206 H 0.59857 0.16258 0.576 0.0
H2207 H 0.59422 0.12212 0.56912 0.0
C2208 C 0.58644 0.22676 0.58121 0.0
C2209 C 0.57138 0.23558 0.59385 0.0
C2210 C 0.58383 0.20306 0.57569 0.0
C2211 C 0.56598 0.18703 0.58245 0.0
C2212 C 0.55072 0.19614 0.59454 0.0
C2213 C 0.5534 0.2196 0.6001 0.0
C2214 C 0.53994 0.12192 0.57232 0.0
C2215 C 0.55843 0.11255 0.56923 0.0
C2216 C 0.54229 0.14556 0.57628 0.0
C2217 C 0.56336 0.16127 0.57759 0.0
C2218 C 0.58187 0.15178 0.57471 0.0
C2219 C 0.57941 0.12815 0.57067 0.0
H2220 H 0.58499 0.76214 0.43869 0.0
H2221 H 0.55533 0.79758 0.38876 0.0
H2222 H 0.61694 0.76392 0.41737 0.0
H2223 H 0.58781 0.80023 0.36789 0.0
H2224 H 0.64649 0.79569 0.32818 0.0
H2225 H 0.61107 0.78429 0.34422 0.0
H2226 H 0.6487 0.79087 0.41308 0.0
H2227 H 0.68351 0.80123 0.39696 0.0
C2228 C 0.58522 0.77027 0.4231 0.0
C2229 C 0.56757 0.7799 0.41569 0.0
C2230 C 0.60371 0.77145 0.41088 0.0
C2231 C 0.6054 0.78261 0.391 0.0
C2232 C 0.58723 0.79135 0.38295 0.0
C2233 C 0.56855 0.78993 0.39506 0.0
C2234 C 0.64709 0.79412 0.34662 0.0
C2235 C 0.66787 0.7996 0.36131 0.0
C2236 C 0.62677 0.78786 0.35593 0.0
C2237 C 0.62677 0.78679 0.38012 0.0
C2238 C 0.64771 0.79116 0.3944 0.0
C2239 C 0.66783 0.79736 0.38515 0.0
H2240 H 0.03923 0.2447 0.39035 0.0
H2241 H 0.0777 0.29059 0.45002 0.0
H2242 H 0.03749 0.21354 0.41264 0.0
H2243 H 0.07773 0.25917 0.47211 0.0
H2244 H 0.04762 0.20342 0.5142 0.0
H2245 H 0.05761 0.23463 0.49235 0.0
H2246 H 0.05187 0.18764 0.42953 0.0
H2247 H 0.04056 0.15649 0.45164 0.0
C2248 C 0.04777 0.24804 0.40819 0.0
C2249 C 0.0585 0.27018 0.41842 0.0
C2250 C 0.04701 0.23002 0.42105 0.0
C2251 C 0.05751 0.23337 0.44448 0.0
C2252 C 0.06891 0.25561 0.45442 0.0
C2253 C 0.06907 0.27377 0.4417 0.0
C2254 C 0.04926 0.19983 0.49587 0.0
C2255 C 0.04353 0.1775 0.48473 0.0
C2256 C 0.05496 0.21783 0.48314 0.0
C2257 C 0.05519 0.21409 0.45875 0.0
C2258 C 0.05126 0.19154 0.44804 0.0
C2259 C 0.04529 0.17351 0.46081 0.0
H2260 H 0.6147 0.28616 0.21612 0.0
H2261 H 0.59955 0.24553 0.27067 0.0
H2262 H 0.65397 0.28899 0.22604 0.0
H2263 H 0.64013 0.24951 0.28195 0.0
H2264 H 0.71581 0.24725 0.28767 0.0
H2265 H 0.67531 0.24299 0.27918 0.0
H2266 H 0.68772 0.30274 0.24562 0.0
H2267 H 0.7276 0.30582 0.25272 0.0
C2268 C 0.61966 0.27805 0.23074 0.0
C2269 C 0.6031 0.26565 0.24247 0.0
C2270 C 0.64286 0.27993 0.23674 0.0
C2271 C 0.65142 0.26985 0.25527 0.0
C2272 C 0.63492 0.2576 0.26745 0.0
C2273 C 0.61132 0.2555 0.26117 0.0
C2274 C 0.70998 0.25919 0.27801 0.0
C2275 C 0.72576 0.27658 0.27055 0.0
C2276 C 0.68632 0.25696 0.27334 0.0
C2277 C 0.67711 0.27221 0.26118 0.0
C2278 C 0.6931 0.28988 0.25427 0.0
C2279 C 0.71657 0.29187 0.25863 0.0
H2280 H 0.56454 0.87114 0.95559 0.0
H2281 H 0.55918 0.9075 0.89685 0.0
H2282 H 0.56173 0.90373 0.98195 0.0
H2283 H 0.55642 0.94026 0.9233 0.0
H2284 H 0.57271 1.00285 0.98075 0.0
H2285 H 0.57635 0.97058 0.95419 0.0
H2286 H 0.53617 0.92573 0.99363 0.0
H2287 H 0.53213 0.95785 0.01967 0.0
C2288 C 0.56286 0.8861 0.9482 0.0
C2289 C 0.56217 0.8864 0.92384 0.0
C2290 C 0.56106 0.90491 0.96343 0.0
C2291 C 0.5588 0.925 0.95505 0.0
C2292 C 0.55835 0.92538 0.9307 0.0
C2293 C 0.55982 0.90642 0.91539 0.0
C2294 C 0.56467 0.98612 0.98386 0.0
C2295 C 0.5525 0.98328 1.00296 0.0
C2296 C 0.56668 0.96747 0.96845 0.0
C2297 C 0.55671 0.94518 0.97156 0.0
C2298 C 0.54456 0.9424 0.99068 0.0
C2299 C 0.54237 0.96102 0.00591 0.0
H2300 H 0.96546 0.79618 0.73131 0.0
H2301 H 0.95752 0.73795 0.76685 0.0
H2302 H 0.92859 0.80063 0.73995 0.0
H2303 H 0.92063 0.7422 0.77535 0.0
H2304 H 0.84484 0.74348 0.7709 0.0
H2305 H 0.88153 0.73902 0.76164 0.0
H2306 H 0.90557 0.81094 0.76803 0.0
H2307 H 0.86896 0.81515 0.77688 0.0
C2308 C 0.956 0.78428 0.74107 0.0
C2309 C 0.96518 0.76672 0.74837 0.0
C2310 C 0.93456 0.78688 0.74617 0.0
C2311 C 0.92082 0.77184 0.75853 0.0
C2312 C 0.93001 0.7542 0.76564 0.0
C2313 C 0.95157 0.75181 0.76086 0.0
C2314 C 0.85788 0.75845 0.77044 0.0
C2315 C 0.85336 0.77985 0.77533 0.0
C2316 C 0.87931 0.75588 0.76518 0.0
C2317 C 0.8974 0.77454 0.76407 0.0
C2318 C 0.89265 0.79589 0.76848 0.0
C2319 C 0.87136 0.79841 0.77401 0.0
H2320 H 0.142 0.0654 0.88843 0.0
H2321 H 0.07246 0.04778 0.85772 0.0
H2322 H 0.13086 0.062 0.92731 0.0
H2323 H 0.06109 0.04273 0.89607 0.0
H2324 H 0.04481 0.05962 0.96869 0.0
H2325 H 0.05712 0.06184 0.93081 0.0
H2326 H 0.11639 0.04045 0.95538 0.0
H2327 H 0.10406 0.03875 0.99399 0.0
C2328 C 0.1243 0.0603 0.88997 0.0
C2329 C 0.10811 0.05687 0.86998 0.0
C2330 C 0.11783 0.05824 0.91233 0.0
C2331 C 0.09494 0.05223 0.91533 0.0
C2332 C 0.07886 0.04805 0.89498 0.0
C2333 C 0.08533 0.0507 0.87278 0.0
C2334 C 0.0604 0.05512 0.96612 0.0
C2335 C 0.07315 0.04856 0.98457 0.0
C2336 C 0.06749 0.0563 0.94408 0.0
C2337 C 0.08771 0.05098 0.93939 0.0
C2338 C 0.10076 0.04479 0.95801 0.0
C2339 C 0.09363 0.04366 0.98025 0.0
H2340 H 0.80719 0.37949 0.55333 0.0
H2341 H 0.78898 0.43045 0.59901 0.0
H2342 H 0.81473 0.3603 0.58593 0.0
H2343 H 0.79488 0.41005 0.63209 0.0
H2344 H 0.84438 0.38899 0.68624 0.0
H2345 H 0.82578 0.40494 0.65548 0.0
H2346 H 0.80366 0.33896 0.61413 0.0
H2347 H 0.82389 0.32369 0.64431 0.0
C2348 C 0.8039 0.3861 0.57033 0.0
C2349 C 0.79752 0.40645 0.57374 0.0
C2350 C 0.80809 0.37494 0.58913 0.0
C2351 C 0.80545 0.38354 0.6118 0.0
C2352 C 0.79756 0.40319 0.61495 0.0
C2353 C 0.79398 0.41479 0.59608 0.0
C2354 C 0.83561 0.37809 0.67042 0.0
C2355 C 0.83614 0.35543 0.66702 0.0
C2356 C 0.8246 0.38707 0.65296 0.0
C2357 C 0.8135 0.37335 0.63203 0.0
C2358 C 0.81269 0.35022 0.62961 0.0
C2359 C 0.82424 0.34142 0.64679 0.0
H2360 H 0.42491 0.04147 0.40573 0.0
H2361 H 0.48283 0.03609 0.37197 0.0
H2362 H 0.44618 0.04067 0.44358 0.0
H2363 H 0.5041 0.03589 0.40964 0.0
H2364 H 0.5276 1.01076 0.47481 0.0
H2365 H 0.50317 1.00957 0.43841 0.0
H2366 H 0.47879 0.06423 0.47051 0.0
H2367 H 0.50269 0.06502 0.50696 0.0
C2368 C 0.44225 0.04048 0.40648 0.0
C2369 C 0.45229 0.03873 0.38608 0.0
C2370 C 0.45434 0.03997 0.42803 0.0
C2371 C 0.47657 0.03787 0.42929 0.0
C2372 C 0.48677 0.03693 0.40896 0.0
C2373 C 0.47469 0.03727 0.38749 0.0
C2374 C 0.51695 0.02243 0.47397 0.0
C2375 C 0.51714 0.03817 0.49333 0.0
C2376 C 0.50305 0.02177 0.45329 0.0
C2377 C 0.48941 0.03701 0.45175 0.0
C2378 C 0.48907 0.05223 0.4714 0.0
C2379 C 0.50282 0.05276 0.49214 0.0
H2380 H 0.78076 0.69444 0.11529 0.0
H2381 H 0.78751 0.7613 0.09721 0.0
H2382 H 0.78111 0.70844 0.15588 0.0
H2383 H 0.78908 0.77584 0.13865 0.0
H2384 H 0.7714 0.79197 0.21281 0.0
H2385 H 0.77025 0.77905 0.17137 0.0
H2386 H 0.80303 0.7274 0.18976 0.0
H2387 H 0.80273 0.7394 0.23094 0.0
C2388 C 0.78273 0.71232 0.12003 0.0
C2389 C 0.78435 0.72673 0.10277 0.0
C2390 C 0.78308 0.72045 0.14359 0.0
C2391 C 0.78549 0.74347 0.15109 0.0
C2392 C 0.787 0.75798 0.13379 0.0
C2393 C 0.78627 0.74969 0.10995 0.0
C2394 C 0.778 0.77761 0.20803 0.0
C2395 C 0.78664 0.76647 0.22546 0.0
C2396 C 0.77767 0.77035 0.18409 0.0
C2397 C 0.78634 0.75191 0.17675 0.0
C2398 C 0.79557 0.74123 0.19433 0.0
C2399 C 0.7956 0.74828 0.21818 0.0
H2400 H 0.14087 0.05689 0.72146 0.0
H2401 H 0.07403 0.05053 0.73948 0.0
H2402 H 0.12709 0.05712 0.681 0.0
H2403 H 0.05965 0.04954 0.69797 0.0
H2404 H 0.04467 0.06707 0.62286 0.0
H2405 H 0.05697 0.06846 0.66461 0.0
H2406 H 0.10806 0.03436 0.6476 0.0
H2407 H 0.09667 0.03423 0.60631 0.0
C2408 C 0.12301 0.05511 0.71672 0.0
C2409 C 0.10854 0.0533 0.73391 0.0
C2410 C 0.11501 0.0551 0.69322 0.0
C2411 C 0.09204 0.05283 0.68566 0.0
C2412 C 0.07747 0.0514 0.70291 0.0
C2413 C 0.08565 0.05181 0.72677 0.0
C2414 C 0.05877 0.06021 0.62803 0.0
C2415 C 0.06992 0.051 0.61095 0.0
C2416 C 0.06567 0.06071 0.65212 0.0
C2417 C 0.0838 0.05177 0.65992 0.0
C2418 C 0.09448 0.04205 0.64269 0.0
C2419 C 0.08777 0.04179 0.61874 0.0
H2420 H 0.78721 0.35687 0.46153 0.0
H2421 H 0.79786 0.41729 0.42891 0.0
H2422 H 0.78634 0.33457 0.42398 0.0
H2423 H 0.79744 0.39488 0.39117 0.0
H2424 H 0.77496 0.33883 0.32593 0.0
H2425 H 0.77221 0.36279 0.36106 0.0
H2426 H 0.81925 0.33445 0.40116 0.0
H2427 H 0.82229 0.31051 0.36594 0.0
C2428 C 0.789 0.36525 0.44617 0.0
C2429 C 0.79282 0.38864 0.44787 0.0
C2430 C 0.78866 0.35259 0.42485 0.0
C2431 C 0.79238 0.36322 0.40508 0.0
C2432 C 0.7946 0.38646 0.40636 0.0
C2433 C 0.79474 0.39918 0.42777 0.0
C2434 C 0.78491 0.33784 0.34218 0.0
C2435 C 0.79866 0.32261 0.34338 0.0
C2436 C 0.78331 0.35157 0.36219 0.0
C2437 C 0.79523 0.35007 0.38362 0.0
C2438 C 0.80957 0.33547 0.38473 0.0
C2439 C 0.81135 0.32186 0.36468 0.0
H2440 H 0.40621 0.05301 0.23827 0.0
H2441 H 0.45397 0.02999 0.28342 0.0
H2442 H 0.42719 0.04719 0.20543 0.0
H2443 H 0.47374 0.02284 0.25114 0.0
H2444 H 0.51488 0.01964 0.19668 0.0
H2445 H 0.49743 0.03838 0.22596 0.0
H2446 H 0.43359 0.01687 0.18057 0.0
H2447 H 0.45172 0.99959 0.15073 0.0
C2448 C 0.42124 0.04689 0.2411 0.0
C2449 C 0.42882 0.04236 0.26327 0.0
C2450 C 0.43317 0.04345 0.22242 0.0
C2451 C 0.45239 0.03487 0.2257 0.0
C2452 C 0.45965 0.03033 0.24803 0.0
C2453 C 0.44818 0.03427 0.26659 0.0
C2454 C 0.49721 0.01929 0.19299 0.0
C2455 C 0.48438 1.00781 0.17196 0.0
C2456 C 0.48716 0.02993 0.20967 0.0
C2457 C 0.46393 0.02855 0.2059 0.0
C2458 C 0.45148 0.01829 0.18408 0.0
C2459 C 0.46173 1.00816 0.16712 0.0
H2460 H 0.80734 0.7191 0.96229 0.0
H2461 H 0.7493 0.74643 0.96517 0.0
H2462 H 0.81157 0.73137 0.92403 0.0
H2463 H 0.75281 0.75779 0.92678 0.0
H2464 H 0.77503 0.79534 0.86779 0.0
H2465 H 0.77238 0.7832 0.90586 0.0
H2466 H 0.79843 0.7263 0.88364 0.0
H2467 H 0.80209 0.73929 0.84558 0.0
C2468 C 0.79543 0.72769 0.95478 0.0
C2469 C 0.77809 0.73191 0.96711 0.0
C2470 C 0.79772 0.73459 0.93261 0.0
C2471 C 0.78264 0.7458 0.92193 0.0
C2472 C 0.76519 0.74977 0.93432 0.0
C2473 C 0.76305 0.74308 0.95648 0.0
C2474 C 0.78036 0.78029 0.87097 0.0
C2475 C 0.78897 0.76846 0.85344 0.0
C2476 C 0.77859 0.7731 0.89293 0.0
C2477 C 0.78503 0.75355 0.89825 0.0
C2478 C 0.79354 0.74159 0.88062 0.0
C2479 C 0.79548 0.74893 0.85859 0.0
H2480 H 0.83528 0.12732 0.04959 0.0
H2481 H 0.83544 0.0903 0.10857 0.0
H2482 H 0.8722 0.1227 0.04422 0.0
H2483 H 0.87312 0.08625 0.10366 0.0
H2484 H 0.90432 0.04511 0.04797 0.0
H2485 H 0.8813 0.06167 0.07257 0.0
H2486 H 0.91166 0.12739 0.0557 0.0
H2487 H 0.93399 0.11025 0.03014 0.0
C2488 C 0.84346 0.11858 0.06173 0.0
C2489 C 0.8323 0.10846 0.07896 0.0
C2490 C 0.86485 0.11629 0.05895 0.0
C2491 C 0.87549 0.10395 0.07345 0.0
C2492 C 0.86511 0.09557 0.09205 0.0
C2493 C 0.84353 0.09767 0.09469 0.0
C2494 C 0.90621 0.06312 0.04995 0.0
C2495 C 0.91995 0.07647 0.03677 0.0
C2496 C 0.89342 0.07272 0.06433 0.0
C2497 C 0.89441 0.0958 0.06568 0.0
C2498 C 0.91027 0.10949 0.05452 0.0
C2499 C 0.92283 0.09978 0.03984 0.0
H2500 H 0.39791 0.40858 0.04976 0.0
H2501 H 0.37251 0.46736 0.06535 0.0
H2502 H 0.43525 0.43271 0.04966 0.0
H2503 H 0.40987 0.4914 0.06529 0.0
H2504 H 0.47353 0.52498 0.03433 0.0
H2505 H 0.4363 0.50177 0.03641 0.0
H2506 H 0.46626 0.45937 0.07753 0.0
H2507 H 0.50356 0.48277 0.07583 0.0
C2508 C 0.40025 0.42662 0.05319 0.0
C2509 C 0.38212 0.43597 0.05753 0.0
C2510 C 0.42171 0.44045 0.05328 0.0
C2511 C 0.42555 0.46399 0.05749 0.0
C2512 C 0.40744 0.47335 0.06177 0.0
C2513 C 0.38603 0.45953 0.0619 0.0
C2514 C 0.47223 0.51097 0.0442 0.0
C2515 C 0.49163 0.50593 0.05512 0.0
C2516 C 0.45084 0.49761 0.04532 0.0
C2517 C 0.44829 0.47869 0.0571 0.0
C2518 C 0.46765 0.47369 0.06811 0.0
C2519 C 0.48904 0.48719 0.06721 0.0
H2520 H 0.3939 0.57996 0.73628 0.0
H2521 H 0.39337 0.57516 0.80981 0.0
H2522 H 0.37714 0.61227 0.74052 0.0
H2523 H 0.37583 0.60695 0.81385 0.0
H2524 H 0.32622 0.65244 0.80546 0.0
H2525 H 0.33752 0.61718 0.79605 0.0
H2526 H 0.39377 0.65307 0.76632 0.0
H2527 H 0.38284 0.68829 0.7763 0.0
C2528 C 0.3899 0.58565 0.75326 0.0
C2529 C 0.39503 0.57522 0.77277 0.0
C2530 C 0.38035 0.60409 0.75566 0.0
C2531 C 0.37511 0.61198 0.77748 0.0
C2532 C 0.37956 0.60106 0.79681 0.0
C2533 C 0.38972 0.58304 0.79455 0.0
C2534 C 0.34074 0.65263 0.79654 0.0
C2535 C 0.35374 0.67297 0.79162 0.0
C2536 C 0.34725 0.63256 0.79129 0.0
C2537 C 0.36656 0.6325 0.78058 0.0
C2538 C 0.37877 0.65267 0.77447 0.0
C2539 C 0.37256 0.67276 0.78019 0.0
H2540 H 0.20642 0.61949 0.52423 0.0
H2541 H 0.2131 0.56922 0.56903 0.0
H2542 H 0.16568 0.60582 0.51929 0.0
H2543 H 0.17267 0.55618 0.56473 0.0
H2544 H 0.10079 0.52901 0.54928 0.0
H2545 H 0.13875 0.53805 0.53903 0.0
H2546 H 0.13857 0.60848 0.54591 0.0
H2547 H 0.10027 0.59917 0.55501 0.0
C2548 C 0.19922 0.60526 0.53264 0.0
C2549 C 0.21289 0.59539 0.54706 0.0
C2550 C 0.17593 0.59755 0.52989 0.0
C2551 C 0.16605 0.57993 0.54155 0.0
C2552 C 0.1798 0.56945 0.55505 0.0
C2553 C 0.20301 0.57702 0.55766 0.0
C2554 C 0.10882 0.54632 0.5481 0.0
C2555 C 0.09806 0.5635 0.5532 0.0
C2556 C 0.13043 0.55149 0.54225 0.0
C2557 C 0.14168 0.57396 0.54205 0.0
C2558 C 0.13024 0.59098 0.54569 0.0
C2559 C 0.10844 0.58572 0.55109 0.0
H2560 H 0.7326 0.01325 0.80193 0.0
H2561 H 0.73757 0.99532 0.72888 0.0
H2562 H 0.74089 0.97802 0.81048 0.0
H2563 H 0.74563 0.95963 0.73761 0.0
H2564 H 0.72209 0.89556 0.79365 0.0
H2565 H 0.71465 0.92625 0.77288 0.0
H2566 H 0.78414 0.96242 0.79172 0.0
H2567 H 0.79164 0.93218 0.81258 0.0
C2568 C 0.73537 1.00168 0.78776 0.0
C2569 C 0.7346 1.00674 0.76484 0.0
C2570 C 0.74004 0.98169 0.79262 0.0
C2571 C 0.74362 0.96652 0.77456 0.0
C2572 C 0.74279 0.97137 0.75158 0.0
C2573 C 0.7384 0.99163 0.74672 0.0
C2574 C 0.73573 0.90998 0.79302 0.0
C2575 C 0.75728 0.91189 0.80489 0.0
C2576 C 0.7316 0.92714 0.78088 0.0
C2577 C 0.74901 0.94612 0.78065 0.0
C2578 C 0.77076 0.9475 0.7914 0.0
C2579 C 0.7749 0.93043 0.80346 0.0
H2580 H 0.75712 0.92563 0.52875 0.0
H2581 H 0.76875 0.95853 0.60025 0.0
H2582 H 0.72533 0.94207 0.52051 0.0
H2583 H 0.73696 0.97517 0.59194 0.0
H2584 H 0.66113 0.97574 0.57148 0.0
H2585 H 0.69548 0.9635 0.58247 0.0
H2586 H 0.71763 0.9786 0.51673 0.0
H2587 H 0.68306 0.99011 0.50568 0.0
C2588 C 0.7529 0.9364 0.5427 0.0
C2589 C 0.76544 0.94078 0.56512 0.0
C2590 C 0.7348 0.94599 0.53794 0.0
C2591 C 0.7287 0.96006 0.55554 0.0
C2592 C 0.74117 0.96433 0.57804 0.0
C2593 C 0.75944 0.95489 0.58275 0.0
C2594 C 0.6736 0.97673 0.55967 0.0
C2595 C 0.66957 0.98364 0.53773 0.0
C2596 C 0.69323 0.96978 0.56591 0.0
C2597 C 0.70912 0.96977 0.5503 0.0
C2598 C 0.70548 0.9779 0.52889 0.0
C2599 C 0.68583 0.98463 0.52262 0.0
H2600 H 0.3694 0.4662 0.76182 0.0
H2601 H 0.42526 0.44346 0.79365 0.0
H2602 H 0.34424 0.42955 0.76301 0.0
H2603 H 0.40008 0.40696 0.79476 0.0
H2604 H 0.35454 0.33781 0.76562 0.0
H2605 H 0.37769 0.37487 0.7643 0.0
H2606 H 0.32869 0.40489 0.79397 0.0
H2607 H 0.30556 0.36739 0.79638 0.0
C2608 C 0.37634 0.45345 0.76911 0.0
C2609 C 0.39944 0.45784 0.77761 0.0
C2610 C 0.36186 0.43251 0.7699 0.0
C2611 C 0.37016 0.4154 0.779 0.0
C2612 C 0.39321 0.41976 0.78746 0.0
C2613 C 0.40764 0.44071 0.78684 0.0
C2614 C 0.34847 0.35218 0.77193 0.0
C2615 C 0.3279 0.3494 0.78101 0.0
C2616 C 0.3619 0.3735 0.77118 0.0
C2617 C 0.35511 0.39281 0.77913 0.0
C2618 C 0.33429 0.39025 0.78758 0.0
C2619 C 0.32093 0.36875 0.78877 0.0
H2620 H 0.2613 0.62392 0.26277 0.0
H2621 H 0.21761 0.63333 0.31434 0.0
H2622 H 0.27528 0.6642 0.26576 0.0
H2623 H 0.23228 0.67399 0.31788 0.0
H2624 H 0.24007 0.74085 0.28423 0.0
H2625 H 0.22885 0.70204 0.29162 0.0
H2626 H 0.29753 0.69673 0.29232 0.0
H2627 H 0.30853 0.73531 0.28428 0.0
C2628 C 0.25518 0.6346 0.27526 0.0
C2629 C 0.23852 0.62558 0.28844 0.0
C2630 C 0.26324 0.65767 0.27704 0.0
C2631 C 0.25504 0.67211 0.29229 0.0
C2632 C 0.23882 0.66312 0.306 0.0
C2633 C 0.23055 0.63995 0.30405 0.0
C2634 C 0.25279 0.73148 0.2866 0.0
C2635 C 0.27505 0.74072 0.28358 0.0
C2636 C 0.24642 0.70937 0.29089 0.0
C2637 C 0.26234 0.69644 0.29231 0.0
C2638 C 0.28492 0.70631 0.29092 0.0
C2639 C 0.29121 0.72829 0.28638 0.0
H2640 H 0.50276 0.70171 0.49439 0.0
H2641 H 0.57242 0.72973 0.5221 0.0
H2642 H 0.50556 0.66526 0.50552 0.0
H2643 H 0.57548 0.69325 0.53285 0.0
H2644 H 0.57192 0.62811 0.56702 0.0
H2645 H 0.56918 0.66469 0.55659 0.0
H2646 H 0.5171 0.63179 0.49947 0.0
H2647 H 0.52061 0.59531 0.50956 0.0
C2648 C 0.51877 0.70026 0.50291 0.0
C2649 C 0.53726 0.71934 0.50732 0.0
C2650 C 0.52049 0.67897 0.50923 0.0
C2651 C 0.54084 0.67542 0.52032 0.0
C2652 C 0.55929 0.69463 0.5248 0.0
C2653 C 0.55755 0.71591 0.51848 0.0
C2654 C 0.56004 0.62845 0.55203 0.0
C2655 C 0.5466 0.60796 0.53928 0.0
C2656 C 0.55837 0.64983 0.54593 0.0
C2657 C 0.54281 0.6521 0.52694 0.0
C2658 C 0.52919 0.63155 0.51438 0.0
C2659 C 0.53118 0.61021 0.52025 0.0
H2660 H 0.66749 0.32057 0.64799 0.0
H2661 H 0.63074 0.31161 0.7066 0.0
H2662 H 0.70199 0.31984 0.67295 0.0
H2663 H 0.66499 0.31151 0.73152 0.0
H2664 H 0.72217 0.28482 0.76374 0.0
H2665 H 0.68931 0.28829 0.7388 0.0
H2666 H 0.73145 0.33708 0.70472 0.0
H2667 H 0.76465 0.33348 0.73003 0.0
C2668 C 0.66679 0.31887 0.66627 0.0
C2669 C 0.64611 0.3161 0.67509 0.0
C2670 C 0.68667 0.31846 0.68068 0.0
C2671 C 0.68654 0.31531 0.70442 0.0
C2672 C 0.66595 0.31339 0.71332 0.0
C2673 C 0.64618 0.31368 0.69896 0.0
C2674 C 0.72451 0.29676 0.75139 0.0
C2675 C 0.74619 0.30939 0.74958 0.0
C2676 C 0.70549 0.2987 0.73685 0.0
C2677 C 0.70733 0.31329 0.71974 0.0
C2678 C 0.72913 0.32561 0.71754 0.0
C2679 C 0.74825 0.32365 0.73219 0.0
H2680 H 0.98351 0.35003 0.01524 0.0
H2681 H 0.05017 0.36119 0.99643 0.0
H2682 H 0.98923 0.39022 0.02744 0.0
H2683 H 0.05603 0.4015 0.00813 0.0
H2684 H 0.06893 0.47478 0.04182 0.0
H2685 H 0.06336 0.43447 0.0314 0.0
H2686 H 0.9915 0.42653 0.02384 0.0
H2687 H 0.9975 0.46689 0.03515 0.0
C2688 C 0.99957 0.36101 0.01381 0.0
C2689 C 1.01635 0.35173 0.00484 0.0
C2690 C 1.00287 0.38455 0.02066 0.0
C2691 C 0.02324 0.40028 0.01907 0.0
C2692 C 0.04009 0.39078 0.01022 0.0
C2693 C 0.03669 0.36724 1.00323 0.0
C2694 C 0.05185 0.46451 0.038 0.0
C2695 C 0.0337 0.47476 0.03972 0.0
C2696 C 0.04854 0.44092 0.03172 0.0
C2697 C 0.02681 0.42606 0.02637 0.0
C2698 C 1.00864 0.43647 0.02805 0.0
C2699 C 1.01203 0.46008 0.03465 0.0
H2700 H 0.02493 0.83464 0.19404 0.0
H2701 H 0.99408 0.77017 0.15291 0.0
H2702 H 0.99127 0.83236 0.21359 0.0
H2703 H 0.96053 0.76783 0.17202 0.0
H2704 H 0.89764 0.77144 0.19924 0.0
H2705 H 0.92835 0.78463 0.17702 0.0
H2706 H 0.9739 0.80776 0.2417 0.0
H2707 H 0.94303 0.79467 0.26375 0.0
C2708 C 1.01071 0.82026 0.18887 0.0
C2709 C 1.01183 0.80266 0.1719 0.0
C2710 C 0.99155 0.81888 0.20009 0.0
C2711 C 0.97312 0.80001 0.19423 0.0
C2712 C 0.97418 0.7828 0.17666 0.0
C2713 C 0.9934 0.78404 0.16578 0.0
C2714 C 0.91402 0.78022 0.20864 0.0
C2715 C 0.918 0.78235 0.23313 0.0
C2716 C 0.93166 0.78752 0.19597 0.0
C2717 C 0.95364 0.79698 0.20758 0.0
C2718 C 0.95717 0.80072 0.23221 0.0
C2719 C 0.93952 0.79332 0.24487 0.0
H2720 H 0.51544 0.32221 0.17034 0.0
H2721 H 0.57375 0.31021 0.14136 0.0
H2722 H 0.51896 0.35656 0.15213 0.0
H2723 H 0.57747 0.34445 0.1237 0.0
H2724 H 0.57172 0.39938 0.08098 0.0
H2725 H 0.56013 0.36236 0.09355 0.0
H2726 H 0.54574 0.39376 0.15846 0.0
H2727 H 0.55729 0.43059 0.14578 0.0
C2728 C 0.52889 0.32681 0.16 0.0
C2729 C 0.5443 0.31346 0.15731 0.0
C2730 C 0.53095 0.34649 0.14962 0.0
C2731 C 0.54845 0.35322 0.13637 0.0
C2732 C 0.56353 0.33957 0.13335 0.0
C2733 C 0.56146 0.31996 0.14364 0.0
C2734 C 0.56562 0.39822 0.0977 0.0
C2735 C 0.56552 0.41774 0.11252 0.0
C2736 C 0.55914 0.3771 0.10498 0.0
C2737 C 0.5522 0.37512 0.12712 0.0
C2738 C 0.55087 0.39463 0.14129 0.0
C2739 C 0.55761 0.41573 0.13412 0.0
H2740 H 0.98432 0.28372 0.3149 0.0
H2741 H 0.98387 0.34175 0.36324 0.0
H2742 H 0.94402 0.27911 0.30136 0.0
H2743 H 0.94416 0.33725 0.34989 0.0
H2744 H 0.8747 0.33508 0.30995 0.0
H2745 H 0.91532 0.34014 0.31987 0.0
H2746 H 0.90604 0.26826 0.31205 0.0
H2747 H 0.86549 0.26338 0.30206 0.0
C2748 C 0.9759 0.29575 0.32245 0.0
C2749 C 0.98801 0.31326 0.34024 0.0
C2750 C 0.95248 0.29297 0.31482 0.0
C2751 C 0.94015 0.30777 0.32433 0.0
C2752 C 0.95253 0.32552 0.34165 0.0
C2753 C 0.97566 0.32807 0.34947 0.0
C2754 C 0.88122 0.32033 0.31 0.0
C2755 C 0.86623 0.29884 0.30491 0.0
C2756 C 0.90479 0.32319 0.31602 0.0
C2757 C 0.91469 0.30466 0.31693 0.0
C2758 C 0.89966 0.28314 0.31145 0.0
C2759 C 0.87609 0.28032 0.30583 0.0
H2760 H 0.98563 0.69239 0.65746 0.0
H2761 H 0.05732 0.70683 0.67738 0.0
H2762 H 0.98688 0.65814 0.6319 0.0
H2763 H 0.05868 0.67284 0.65232 0.0
H2764 H 0.0577 0.62731 0.58461 0.0
H2765 H 0.05398 0.66006 0.61005 0.0
H2766 H 0.9952 0.61984 0.63225 0.0
H2767 H 0.99908 0.58685 0.60673 0.0
C2768 C 1.00154 0.68798 0.65671 0.0
C2769 C 0.02135 0.70211 0.66958 0.0
C2770 C 1.00231 0.66842 0.64206 0.0
C2771 C 0.02293 0.66274 0.63984 0.0
C2772 C 0.04257 0.67678 0.6532 0.0
C2773 C 0.04178 0.69617 0.66776 0.0
C2774 C 0.04382 0.62546 0.5947 0.0
C2775 C 0.02862 0.60444 0.5935 0.0
C2776 C 0.0418 0.64424 0.6095 0.0
C2777 C 0.02433 0.64268 0.62338 0.0
C2778 C 1.00879 0.62174 0.62178 0.0
C2779 C 1.01107 0.6028 0.60724 0.0
H2780 H 0.62295 0.84406 0.82155 0.0
H2781 H 0.62407 0.79162 0.86426 0.0
H2782 H 0.65826 0.83898 0.80806 0.0
H2783 H 0.65865 0.78626 0.85067 0.0
H2784 H 0.71256 0.76738 0.80901 0.0
H2785 H 0.67679 0.77262 0.81956 0.0
H2786 H 0.69965 0.8438 0.81856 0.0
H2787 H 0.73548 0.83826 0.80744 0.0
C2788 C 0.63034 0.83116 0.82783 0.0
C2789 C 0.61992 0.81819 0.84405 0.0
C2790 C 0.65098 0.82834 0.82022 0.0
C2791 C 0.66203 0.81206 0.828 0.0
C2792 C 0.65118 0.79885 0.84376 0.0
C2793 C 0.631 0.802 0.85171 0.0
C2794 C 0.71009 0.78415 0.81064 0.0
C2795 C 0.72759 0.80221 0.80703 0.0
C2796 C 0.6893 0.78731 0.81711 0.0
C2797 C 0.68454 0.80877 0.82019 0.0
C2798 C 0.70196 0.82689 0.81631 0.0
C2799 C 0.7229 0.82371 0.81006 0.0
H2800 H 0.51278 0.53343 0.73892 0.0
H2801 H 0.44939 0.53417 0.69973 0.0
H2802 H 0.53104 0.53976 0.70409 0.0
H2803 H 0.46714 0.53943 0.66504 0.0
H2804 H 0.50571 0.56522 0.60814 0.0
H2805 H 0.49013 0.56317 0.64493 0.0
H2806 H 0.53572 0.52353 0.6673 0.0
H2807 H 0.55178 0.5265 0.63106 0.0
C2808 C 0.5027 0.53485 0.72291 0.0
C2809 C 0.47956 0.5333 0.72235 0.0
C2810 C 0.51315 0.53835 0.70278 0.0
C2811 C 0.50072 0.5402 0.6814 0.0
C2812 C 0.47759 0.53866 0.68103 0.0
C2813 C 0.46727 0.53541 0.7011 0.0
C2814 C 0.51248 0.55622 0.62102 0.0
C2815 C 0.53007 0.54613 0.61658 0.0
C2816 C 0.50344 0.55486 0.64216 0.0
C2817 C 0.51143 0.54301 0.6594 0.0
C2818 C 0.52922 0.53313 0.65491 0.0
C2819 C 0.53841 0.53473 0.63393 0.0
H2820 H 0.763 0.20322 0.02265 0.0
H2821 H 0.80568 0.16438 0.99276 0.0
H2822 H 0.76444 0.22434 0.99029 0.0
H2823 H 0.80737 0.1863 0.95981 0.0
H2824 H 0.76216 0.20659 0.89482 0.0
H2825 H 0.77694 0.1889 0.92679 0.0
H2826 H 0.79104 0.252 0.9728 0.0
H2827 H 0.77537 0.26923 0.94115 0.0
C2828 C 0.77311 0.19947 0.00936 0.0
C2829 C 0.78426 0.18215 0.01025 0.0
C2830 C 0.77411 0.21179 0.99087 0.0
C2831 C 0.7864 0.20725 0.97281 0.0
C2832 C 0.79795 0.19018 0.97371 0.0
C2833 C 0.79698 0.17772 0.99246 0.0
C2834 C 0.76893 0.21667 0.91169 0.0
C2835 C 0.76713 0.23893 0.91605 0.0
C2836 C 0.77761 0.20668 0.92982 0.0
C2837 C 0.78469 0.21905 0.95228 0.0
C2838 C 0.78528 0.24206 0.95569 0.0
C2839 C 0.77624 0.25187 0.93776 0.0
H2840 H 0.12795 0.54653 0.23632 0.0
H2841 H 0.1784 0.54651 0.19013 0.0
H2842 H 0.09974 0.54436 0.20252 0.0
H2843 H 0.1503 0.54453 0.15675 0.0
H2844 H 0.08955 0.5175 0.10197 0.0
H2845 H 0.11396 0.51572 0.13711 0.0
H2846 H 0.09651 0.57326 0.17259 0.0
H2847 H 0.07194 0.57525 0.13717 0.0
C2848 C 0.13293 0.5458 0.219 0.0
C2849 C 0.1553 0.54677 0.21575 0.0
C2850 C 0.11689 0.54471 0.19984 0.0
C2851 C 0.12311 0.54432 0.17738 0.0
C2852 C 0.14526 0.54461 0.17405 0.0
C2853 C 0.16127 0.54581 0.19312 0.0
C2854 C 0.09082 0.52973 0.11727 0.0
C2855 C 0.07898 0.54657 0.11704 0.0
C2856 C 0.10468 0.52863 0.13729 0.0
C2857 C 0.10683 0.54429 0.15726 0.0
C2858 C 0.0947 0.56086 0.1573 0.0
C2859 C 0.08085 0.56206 0.13716 0.0
H2860 H 0.7795 0.85705 0.48143 0.0
H2861 H 0.8458 0.84521 0.48772 0.0
H2862 H 0.77427 0.84467 0.43946 0.0
H2863 H 0.84056 0.8318 0.44629 0.0
H2864 H 0.83484 0.82195 0.3679 0.0
H2865 H 0.83969 0.83565 0.40923 0.0
H2866 H 0.76734 0.82072 0.40668 0.0
H2867 H 0.76311 0.80818 0.36486 0.0
C2868 C 0.79294 0.85163 0.47383 0.0
C2869 C 0.81302 0.85206 0.48811 0.0
C2870 C 0.78992 0.84424 0.44954 0.0
C2871 C 0.80694 0.83704 0.43858 0.0
C2872 C 0.82698 0.83745 0.45322 0.0
C2873 C 0.82995 0.84486 0.4774 0.0
C2874 C 0.82005 0.8213 0.37627 0.0
C2875 C 0.79867 0.8135 0.36301 0.0
C2876 C 0.82271 0.82921 0.40032 0.0
C2877 C 0.80397 0.8292 0.41231 0.0
C2878 C 0.78245 0.82151 0.39873 0.0
C2879 C 0.7799 0.81406 0.37451 0.0
H2880 H 0.50884 0.50056 0.85175 0.0
H2881 H 0.47238 0.55096 0.86689 0.0
H2882 H 0.5225 0.50361 0.89316 0.0
H2883 H 0.48683 0.55486 0.90839 0.0
H2884 H 0.49852 0.54251 0.98421 0.0
H2885 H 0.48485 0.53943 0.94274 0.0
H2886 H 0.54628 0.52344 0.92576 0.0
H2887 H 0.55944 0.52571 0.96727 0.0
C2888 C 0.50396 0.51257 0.8639 0.0
C2889 C 0.48949 0.52554 0.85578 0.0
C2890 C 0.51196 0.51446 0.88784 0.0
C2891 C 0.50595 0.52953 0.9046 0.0
C2892 C 0.49168 0.54274 0.89636 0.0
C2893 C 0.48352 0.54072 0.87238 0.0
C2894 C 0.50912 0.5383 0.97163 0.0
C2895 C 0.5301 0.53426 0.97926 0.0
C2896 C 0.50132 0.53669 0.94766 0.0
C2897 C 0.51434 0.53123 0.93042 0.0
C2898 C 0.5354 0.52728 0.93817 0.0
C2899 C 0.54309 0.52868 0.96215 0.0
H2900 H 0.78446 0.20184 0.11083 0.0
H2901 H 0.79022 0.15175 0.15614 0.0
H2902 H 0.7885 0.22993 0.14498 0.0
H2903 H 0.79432 0.18004 0.19034 0.0
H2904 H 0.82341 0.24397 0.24319 0.0
H2905 H 0.82278 0.21766 0.20847 0.0
H2906 H 0.76218 0.23249 0.17663 0.0
H2907 H 0.76275 0.25894 0.21142 0.0
C2908 C 0.78688 0.19695 0.12811 0.0
C2909 C 0.78693 0.17473 0.13107 0.0
C2910 C 0.78903 0.21293 0.14749 0.0
C2911 C 0.79158 0.20687 0.16995 0.0
C2912 C 0.79243 0.18489 0.173 0.0
C2913 C 0.78997 0.1688 0.15358 0.0
C2914 C 0.81 0.24163 0.22874 0.0
C2915 C 0.79307 0.2533 0.22972 0.0
C2916 C 0.80967 0.22665 0.20903 0.0
C2917 C 0.79247 0.22329 0.19021 0.0
C2918 C 0.77572 0.23519 0.19102 0.0
C2919 C 0.77603 0.25018 0.21075 0.0
H2920 H 0.14435 0.51995 0.33304 0.0
H2921 H 0.18694 0.58603 0.35814 0.0
H2922 H 0.12362 0.52285 0.36656 0.0
H2923 H 0.16651 0.5891 0.39133 0.0
H2924 H 0.12955 0.58881 0.45202 0.0
H2925 H 0.15415 0.57447 0.42739 0.0
H2926 H 0.09816 0.54942 0.3719 0.0
H2927 H 0.07348 0.5634 0.39671 0.0
C2928 C 0.14983 0.5346 0.34633 0.0
C2929 C 0.16722 0.55269 0.34347 0.0
C2930 C 0.13793 0.53637 0.36528 0.0
C2931 C 0.14345 0.55622 0.3814 0.0
C2932 C 0.16212 0.57347 0.3794 0.0
C2933 C 0.17381 0.57176 0.36046 0.0
C2934 C 0.12246 0.57987 0.4347 0.0
C2935 C 0.09974 0.57742 0.42605 0.0
C2936 C 0.13649 0.57166 0.42069 0.0
C2937 C 0.128 0.5608 0.39785 0.0
C2938 C 0.10505 0.55745 0.38959 0.0
C2939 C 0.09103 0.56578 0.40357 0.0
H2940 H 0.81577 0.89329 0.64706 0.0
H2941 H 0.80298 0.8278 0.60609 0.0
H2942 H 0.80926 0.87611 0.68198 0.0
H2943 H 0.7956 0.8103 0.6413 0.0
H2944 H 0.80691 0.78751 0.71441 0.0
H2945 H 0.81174 0.803 0.67791 0.0
H2946 H 0.78208 0.85664 0.70213 0.0
H2947 H 0.7777 0.84134 0.73876 0.0
C2948 C 0.81136 0.87512 0.64539 0.0
C2949 C 0.80993 0.86201 0.62353 0.0
C2950 C 0.80741 0.86518 0.66559 0.0
C2951 C 0.80163 0.84167 0.66478 0.0
C2952 C 0.80025 0.82846 0.64288 0.0
C2953 C 0.80442 0.83848 0.62258 0.0
C2954 C 0.80128 0.80255 0.71191 0.0
C2955 C 0.79197 0.81316 0.72974 0.0
C2956 C 0.80397 0.81143 0.69081 0.0
C2957 C 0.79751 0.83129 0.6868 0.0
C2958 C 0.78775 0.84161 0.70451 0.0
C2959 C 0.78507 0.83273 0.7256 0.0
H2960 H 0.73751 0.44117 0.52711 0.0
H2961 H 0.76107 0.49836 0.49227 0.0
H2962 H 0.70627 0.45604 0.53731 0.0
H2963 H 0.72871 0.5127 0.50089 0.0
H2964 H 0.71458 0.54955 0.5699 0.0
H2965 H 0.73095 0.52936 0.5409 0.0
H2966 H 0.67411 0.47185 0.5342 0.0
H2967 H 0.65806 0.49222 0.5638 0.0
C2968 C 0.73496 0.45612 0.52017 0.0
C2969 C 0.75153 0.46892 0.50926 0.0
C2970 C 0.71706 0.46469 0.52599 0.0
C2971 C 0.71556 0.48594 0.52055 0.0
C2972 C 0.72998 0.49661 0.50589 0.0
C2973 C 0.7483 0.48837 0.50073 0.0
C2974 C 0.70577 0.53256 0.56227 0.0
C2975 C 0.6855 0.52212 0.56925 0.0
C2976 C 0.71476 0.52116 0.54524 0.0
C2977 C 0.7036 0.49909 0.53499 0.0
C2978 C 0.68298 0.48885 0.54171 0.0
C2979 C 0.67395 0.50035 0.55871 0.0
H2980 H 0.23045 0.11688 0.52576 0.0
H2981 H 0.19955 0.17124 0.51297 0.0
H2982 H 0.19358 0.09241 0.5268 0.0
H2983 H 0.16281 0.14701 0.51472 0.0
H2984 H 0.09727 0.09347 0.50196 0.0
H2985 H 0.134 0.11516 0.49592 0.0
H2986 H 0.16553 0.08808 0.55249 0.0
H2987 H 0.12886 0.0662 0.55824 0.0
C2988 C 0.21578 0.12358 0.52301 0.0
C2989 C 0.218 0.14607 0.51931 0.0
C2990 C 0.19463 0.10958 0.5238 0.0
C2991 C 0.17516 0.11773 0.52104 0.0
C2992 C 0.17734 0.14002 0.51662 0.0
C2993 C 0.19847 0.15398 0.51567 0.0
C2994 C 0.11208 0.09204 0.51298 0.0
C2995 C 0.11015 0.07795 0.53043 0.0
C2996 C 0.13315 0.10456 0.5096 0.0
C2997 C 0.15281 0.10342 0.5237 0.0
C2998 C 0.15085 0.08911 0.541 0.0
C2999 C 0.12979 0.07656 0.54434 0.0
H3000 H 0.17744 0.98598 0.81707 0.0
H3001 H 0.20697 0.0148 0.75993 0.0
H3002 H 0.19783 0.95628 0.81248 0.0
H3003 H 0.22675 0.98549 0.75527 0.0
H3004 H 0.27326 0.9428 0.75849 0.0
H3005 H 0.25736 0.97269 0.77524 0.0
H3006 H 0.19711 0.92334 0.78198 0.0
H3007 H 0.21351 0.89339 0.76575 0.0
C3008 C 0.1883 0.98605 0.80366 0.0
C3009 C 0.19061 1.00278 0.7889 0.0
C3010 C 0.19994 0.96908 0.80103 0.0
C3011 C 0.21417 0.96873 0.78373 0.0
C3012 C 0.21643 0.98556 0.76917 0.0
C3013 C 0.20487 1.00232 0.77173 0.0
C3014 C 0.25694 0.93838 0.7643 0.0
C3015 C 0.24451 0.91598 0.76085 0.0
C3016 C 0.24776 0.95542 0.77372 0.0
C3017 C 0.22578 0.9504 0.77947 0.0
C3018 C 0.21407 0.92774 0.77777 0.0
C3019 C 0.22339 0.91063 0.76846 0.0
H3020 H 0.37326 0.93984 0.03108 0.0
H3021 H 0.3684 0.99314 0.98985 0.0
H3022 H 0.41175 0.95919 0.04675 0.0
H3023 H 0.4074 1.01193 0.00454 0.0
H3024 H 0.47205 0.04994 0.04251 0.0
H3025 H 0.43192 0.03218 0.0386 0.0
H3026 H 0.44684 0.96682 0.03376 0.0
H3027 H 0.48655 0.98458 0.039 0.0
C3028 C 0.38062 0.95545 0.02494 0.0
C3029 C 0.36799 0.96496 0.00911 0.0
C3030 C 0.4026 0.96659 0.03406 0.0
C3031 C 0.41248 0.98717 0.02709 0.0
C3032 C 0.40002 0.99639 0.01075 0.0
C3033 C 0.37787 0.98544 1.00196 0.0
C3034 C 0.46658 0.03183 0.04131 0.0
C3035 C 0.48205 0.01849 0.04061 0.0
C3036 C 0.44374 0.02168 0.0389 0.0
C3037 C 0.43628 0.99812 0.03522 0.0
C3038 C 0.45203 0.985 0.03667 0.0
C3039 C 0.4748 0.99516 0.03958 0.0
H3040 H 0.88419 0.59441 0.79767 0.0
H3041 H 0.84658 0.59078 0.85595 0.0
H3042 H 0.87443 0.62886 0.79032 0.0
H3043 H 0.8372 0.62638 0.84931 0.0
H3044 H 0.78911 0.64728 0.79076 0.0
H3045 H 0.81025 0.62881 0.81687 0.0
H3046 H 0.87235 0.66666 0.79807 0.0
H3047 H 0.85077 0.68428 0.77112 0.0
C3048 C 0.87468 0.60179 0.80961 0.0
C3049 C 0.86583 0.59022 0.82712 0.0
C3050 C 0.86923 0.62167 0.80559 0.0
C3051 C 0.85479 0.63026 0.81909 0.0
C3052 C 0.84808 0.6199 0.83845 0.0
C3053 C 0.85345 0.59971 0.84234 0.0
C3054 C 0.8073 0.6517 0.79255 0.0
C3055 C 0.81853 0.66644 0.77869 0.0
C3056 C 0.81946 0.64155 0.8078 0.0
C3057 C 0.843 0.64615 0.80937 0.0
C3058 C 0.85422 0.66258 0.79696 0.0
C3059 C 0.84199 0.67249 0.78147 0.0
H3060 H 0.82583 0.62868 0.01062 0.0
H3061 H 0.85519 0.67595 0.0727 0.0
H3062 H 0.85723 0.61059 0.01569 0.0
H3063 H 0.8864 0.65808 0.078 0.0
H3064 H 0.94561 0.62935 0.07944 0.0
H3065 H 0.91938 0.64976 0.06287 0.0
H3066 H 0.86826 0.5874 0.0446 0.0
H3067 H 0.8947 0.56719 0.0609 0.0
C3068 C 0.83936 0.6355 0.02497 0.0
C3069 C 0.83844 0.65379 0.04113 0.0
C3070 C 0.85719 0.62511 0.02799 0.0
C3071 C 0.87438 0.63293 0.0472 0.0
C3072 C 0.87373 0.65186 0.06277 0.0
C3073 C 0.85585 0.66208 0.05983 0.0
C3074 C 0.92899 0.62003 0.07111 0.0
C3075 C 0.92209 0.59679 0.07117 0.0
C3076 C 0.91392 0.63168 0.06185 0.0
C3077 C 0.89165 0.62025 0.05262 0.0
C3078 C 0.88532 0.5967 0.05132 0.0
C3079 C 0.9004 0.5851 0.06064 0.0
H3080 H 0.19543 0.11141 0.77323 0.0
H3081 H 0.19077 0.13484 0.84482 0.0
H3082 H 0.22157 0.14663 0.77055 0.0
H3083 H 0.21857 0.16976 0.84305 0.0
H3084 H 0.24703 0.23906 0.82386 0.0
H3085 H 0.22346 0.20328 0.82869 0.0
H3086 H 0.25692 0.16955 0.77955 0.0
H3087 H 0.2791 0.20579 0.77314 0.0
C3088 C 0.20042 0.1241 0.78858 0.0
C3089 C 0.19107 0.12057 0.80919 0.0
C3090 C 0.21565 0.14427 0.78716 0.0
C3091 C 0.22248 0.16128 0.80659 0.0
C3092 C 0.21344 0.15739 0.8275 0.0
C3093 C 0.1976 0.13736 0.82866 0.0
C3094 C 0.24939 0.22402 0.81403 0.0
C3095 C 0.26509 0.22537 0.79814 0.0
C3096 C 0.23598 0.20333 0.81706 0.0
C3097 C 0.23808 0.18324 0.80457 0.0
C3098 C 0.25438 0.18457 0.78922 0.0
C3099 C 0.2675 0.20539 0.78583 0.0
H3100 H 0.39468 0.95848 0.29175 0.0
H3101 H 0.34438 0.96814 0.33535 0.0
H3102 H 0.37344 0.91992 0.27828 0.0
H3103 H 0.32362 0.92925 0.32271 0.0
H3104 H 0.27998 0.86762 0.28425 0.0
H3105 H 0.30133 0.90659 0.28729 0.0
H3106 H 0.36321 0.88482 0.29351 0.0
H3107 H 0.34187 0.84623 0.29009 0.0
C3108 C 0.3793 0.95216 0.29879 0.0
C3109 C 0.37096 0.96613 0.3144 0.0
C3110 C 0.36712 0.9302 0.29098 0.0
C3111 C 0.34667 0.92189 0.29901 0.0
C3112 C 0.33894 0.93557 0.31558 0.0
C3113 C 0.35093 0.95764 0.32308 0.0
C3114 C 0.29811 0.87127 0.28516 0.0
C3115 C 0.30942 0.8542 0.28658 0.0
C3116 C 0.31029 0.89344 0.28722 0.0
C3117 C 0.33387 0.89863 0.29115 0.0
C3118 C 0.34504 0.88125 0.29032 0.0
C3119 C 0.33282 0.85908 0.2881 0.0
H3120 H 0.54549 0.35873 0.5818 0.0
H3121 H 0.61509 0.39029 0.60641 0.0
H3122 H 0.53921 0.39508 0.57304 0.0
H3123 H 0.60881 0.42673 0.5985 0.0
H3124 H 0.58708 0.49434 0.60054 0.0
H3125 H 0.59263 0.45794 0.60912 0.0
H3126 H 0.54542 0.42489 0.54815 0.0
H3127 H 0.54043 0.4614 0.5392 0.0
C3128 C 0.55953 0.3734 0.58549 0.0
C3129 C 0.58093 0.37104 0.59478 0.0
C3130 C 0.55594 0.39451 0.58032 0.0
C3131 C 0.57339 0.4146 0.58487 0.0
C3132 C 0.59467 0.41218 0.59463 0.0
C3133 C 0.59839 0.39098 0.59911 0.0
C3134 C 0.57781 0.47942 0.58878 0.0
C3135 C 0.56301 0.48153 0.56911 0.0
C3136 C 0.58111 0.4582 0.59374 0.0
C3137 C 0.56958 0.43769 0.57952 0.0
C3138 C 0.55461 0.43979 0.55996 0.0
C3139 C 0.55163 0.46108 0.55477 0.0
H3140 H 0.46014 0.82624 0.38853 0.0
H3141 H 0.43152 0.75838 0.39972 0.0
H3142 H 0.42557 0.82648 0.3642 0.0
H3143 H 0.39709 0.75803 0.37427 0.0
H3144 H 0.32969 0.77024 0.3434 0.0
H3145 H 0.36389 0.76941 0.36846 0.0
H3146 H 0.4031 0.81525 0.32896 0.0
H3147 H 0.36894 0.81722 0.30525 0.0
C3148 C 0.44652 0.8112 0.38559 0.0
C3149 C 0.4488 0.79229 0.39621 0.0
C3150 C 0.42655 0.81124 0.37134 0.0
C3151 C 0.40811 0.79221 0.36678 0.0
C3152 C 0.4105 0.77322 0.37741 0.0
C3153 C 0.43042 0.77332 0.39199 0.0
C3154 C 0.34562 0.78022 0.34013 0.0
C3155 C 0.34629 0.79374 0.32207 0.0
C3156 C 0.36543 0.7796 0.35445 0.0
C3157 C 0.38672 0.79232 0.35112 0.0
C3158 C 0.38729 0.8055 0.33272 0.0
C3159 C 0.36751 0.80634 0.31866 0.0
H3160 H 0.04018 0.72738 0.11941 0.0
H3161 H 0.08632 0.74101 0.06946 0.0
H3162 H 0.03831 0.68796 0.11186 0.0
H3163 H 0.08364 0.70047 0.06067 0.0
H3164 H 0.08671 0.62551 0.05907 0.0
H3165 H 0.08987 0.6659 0.06565 0.0
H3166 H 0.02725 0.65329 0.09419 0.0
H3167 H 0.02511 0.61354 0.08891 0.0
C3168 C 0.04973 0.722 0.10629 0.0
C3169 C 0.06329 0.73817 0.09505 0.0
C3170 C 0.0485 0.69875 0.10169 0.0
C3171 C 0.06056 0.68977 0.08526 0.0
C3172 C 0.07399 0.70592 0.0736 0.0
C3173 C 0.07534 0.72952 0.07839 0.0
C3174 C 0.07381 0.63127 0.06715 0.0
C3175 C 0.05587 0.61545 0.0737 0.0
C3176 C 0.07544 0.65489 0.07074 0.0
C3177 C 0.05901 0.66407 0.08085 0.0
C3178 C 0.04092 0.64802 0.08702 0.0
C3179 C 0.0395 0.62459 0.08373 0.0
H3180 H 0.08662 0.3007 0.92947 0.0
H3181 H 0.058 0.24198 0.8781 0.0
H3182 H 0.12131 0.30681 0.91234 0.0
H3183 H 0.09306 0.24793 0.86104 0.0
H3184 H 0.15201 0.28487 0.82291 0.0
H3185 H 0.11663 0.27322 0.83885 0.0
H3186 H 0.15302 0.29112 0.90897 0.0
H3187 H 0.18797 0.3031 0.89305 0.0
C3188 C 0.08772 0.28906 0.9145 0.0
C3189 C 0.06944 0.27088 0.9052 0.0
C3190 C 0.10775 0.29243 0.90477 0.0
C3191 C 0.11019 0.27775 0.88539 0.0
C3192 C 0.09181 0.25965 0.87586 0.0
C3193 C 0.07172 0.25621 0.88571 0.0
C3194 C 0.15241 0.28591 0.8417 0.0
C3195 C 0.17271 0.29528 0.85675 0.0
C3196 C 0.13214 0.27925 0.85087 0.0
C3197 C 0.13182 0.28177 0.87527 0.0
C3198 C 0.15244 0.28962 0.89014 0.0
C3199 C 0.17254 0.29637 0.88102 0.0
H3200 H 0.59926 0.77748 0.95342 0.0
H3201 H 0.53445 0.75006 0.91138 0.0
H3202 H 0.59533 0.74315 0.97142 0.0
H3203 H 0.53022 0.71604 0.92974 0.0
H3204 H 0.53081 0.65062 0.95338 0.0
H3205 H 0.54276 0.68271 0.9327 0.0
H3206 H 0.57487 0.72327 0.99845 0.0
H3207 H 0.56333 0.69083 0.01882 0.0
C3208 C 0.5841 0.76417 0.94807 0.0
C3209 C 0.56712 0.76664 0.93096 0.0
C3210 C 0.58183 0.74444 0.95846 0.0
C3211 C 0.56251 0.72659 0.95205 0.0
C3212 C 0.54558 0.72911 0.93486 0.0
C3213 C 0.54788 0.7488 0.92446 0.0
C3214 C 0.54125 0.66617 0.9632 0.0
C3215 C 0.5464 0.66817 0.98764 0.0
C3216 C 0.54774 0.68473 0.95145 0.0
C3217 C 0.55931 0.70589 0.9639 0.0
C3218 C 0.56602 0.70734 0.98817 0.0
C3219 C 0.55957 0.6887 0.99991 0.0
H3220 H 0.10543 0.7528 0.71115 0.0
H3221 H 0.10468 0.79008 0.77811 0.0
H3222 H 0.14544 0.7559 0.72076 0.0
H3223 H 0.14541 0.79338 0.78797 0.0
H3224 H 0.22408 0.81549 0.78678 0.0
H3225 H 0.18325 0.81096 0.78017 0.0
H3226 H 0.17516 0.74497 0.74202 0.0
H3227 H 0.21588 0.74981 0.74826 0.0
C3228 C 0.11371 0.76145 0.72823 0.0
C3229 C 0.10117 0.77088 0.74383 0.0
C3230 C 0.13702 0.76321 0.73384 0.0
C3231 C 0.14945 0.77492 0.7553 0.0
C3232 C 0.13692 0.78429 0.77116 0.0
C3233 C 0.11327 0.78216 0.76564 0.0
C3234 C 0.21366 0.79993 0.777 0.0
C3235 C 0.22385 0.78294 0.76837 0.0
C3236 C 0.18993 0.79723 0.77332 0.0
C3237 C 0.17512 0.77752 0.76049 0.0
C3238 C 0.18543 0.76056 0.75184 0.0
C3239 C 0.2091 0.7632 0.75571 0.0
H3240 H 0.05712 0.4125 0.41524 0.0
H3241 H 0.04021 0.37466 0.47142 0.0
H3242 H 0.05624 0.44702 0.4397 0.0
H3243 H 0.04092 0.40915 0.49664 0.0
H3244 H 0.02228 0.47046 0.53164 0.0
H3245 H 0.0237 0.43651 0.50719 0.0
H3246 H 0.07106 0.47597 0.46931 0.0
H3247 H 0.06887 0.51011 0.49346 0.0
C3248 C 0.05361 0.41161 0.43302 0.0
C3249 C 0.04867 0.39068 0.44124 0.0
C3250 C 0.05322 0.43156 0.44728 0.0
C3251 C 0.04842 0.43144 0.47055 0.0
C3252 C 0.04407 0.41038 0.47882 0.0
C3253 C 0.04387 0.3904 0.46435 0.0
C3254 C 0.03315 0.47199 0.51821 0.0
C3255 C 0.0455 0.49332 0.51478 0.0
C3256 C 0.03409 0.45226 0.50405 0.0
C3257 C 0.04761 0.45289 0.48591 0.0
C3258 C 0.06009 0.47433 0.48261 0.0
C3259 C 0.05897 0.49412 0.49669 0.0
H3260 H 0.46792 0.24512 0.27599 0.0
H3261 H 0.45959 0.27107 0.21069 0.0
H3262 H 0.43189 0.25213 0.28462 0.0
H3263 H 0.42325 0.27753 0.21899 0.0
H3264 H 0.34685 0.26445 0.23089 0.0
H3265 H 0.3835 0.25917 0.22245 0.0
H3266 H 0.41084 0.28104 0.29505 0.0
H3267 H 0.37427 0.28683 0.30336 0.0
C3268 C 0.45853 0.25235 0.26335 0.0
C3269 C 0.46736 0.2575 0.24255 0.0
C3270 C 0.4376 0.2565 0.26839 0.0
C3271 C 0.42392 0.26551 0.25266 0.0
C3272 C 0.4327 0.27047 0.23175 0.0
C3273 C 0.4539 0.26684 0.22697 0.0
C3274 C 0.36059 0.26823 0.24519 0.0
C3275 C 0.35692 0.27605 0.26798 0.0
C3276 C 0.38196 0.26526 0.24026 0.0
C3277 C 0.40083 0.26944 0.25792 0.0
C3278 C 0.39712 0.27726 0.28074 0.0
C3279 C 0.37588 0.28073 0.28557 0.0
H3280 H 0.57683 0.55791 0.36731 0.0
H3281 H 0.64159 0.54788 0.39222 0.0
H3282 H 0.56522 0.55378 0.4055 0.0
H3283 H 0.63088 0.54551 0.43126 0.0
H3284 H 0.60147 0.52778 0.49813 0.0
H3285 H 0.61307 0.52906 0.45925 0.0
H3286 H 0.5655 0.56846 0.44223 0.0
H3287 H 0.55327 0.56581 0.48012 0.0
C3288 C 0.58872 0.555 0.38108 0.0
C3289 C 0.61013 0.55316 0.37648 0.0
C3290 C 0.58217 0.5529 0.40337 0.0
C3291 C 0.59706 0.54963 0.42233 0.0
C3292 C 0.61854 0.54767 0.41752 0.0
C3293 C 0.62484 0.54914 0.39497 0.0
C3294 C 0.59349 0.53662 0.48596 0.0
C3295 C 0.57621 0.54643 0.49235 0.0
C3296 C 0.60023 0.53753 0.4635 0.0
C3297 C 0.59021 0.54865 0.44675 0.0
C3298 C 0.57336 0.559 0.45372 0.0
C3299 C 0.56639 0.5577 0.47585 0.0
H3300 H 0.26315 0.90205 0.06731 0.0
H3301 H 0.33394 0.93356 0.07319 0.0
H3302 H 0.2706 0.88331 0.10145 0.0
H3303 H 0.34162 0.91414 0.10593 0.0
H3304 H 0.35129 0.88828 0.17256 0.0
H3305 H 0.33788 0.9116 0.14567 0.0
H3306 H 0.28796 0.85317 0.10918 0.0
H3307 H 0.30115 0.83018 0.13678 0.0
C3308 C 0.28019 0.90516 0.07619 0.0
C3309 C 0.29794 0.9195 0.06815 0.0
C3310 C 0.2845 0.89436 0.09549 0.0
C3311 C 0.30669 0.89738 0.1065 0.0
C3312 C 0.32427 0.91201 0.09843 0.0
C3313 C 0.31991 0.92313 0.07963 0.0
C3314 C 0.33741 0.88062 0.15878 0.0
C3315 C 0.32757 0.85756 0.15603 0.0
C3316 C 0.32971 0.89385 0.14345 0.0
C3317 C 0.31212 0.88414 0.12505 0.0
C3318 C 0.30152 0.86116 0.12316 0.0
C3319 C 0.30923 0.84793 0.13862 0.0
H3320 H 0.94112 0.57292 0.9101 0.0
H3321 H 0.94198 0.50372 0.89014 0.0
H3322 H 0.96415 0.57353 0.94737 0.0
H3323 H 0.96345 0.50361 0.92774 0.0
H3324 H 0.02589 0.51909 0.98025 0.0
H3325 H 1.00068 0.51845 0.94492 0.0
H3326 H 0.96607 0.5605 0.98382 0.0
H3327 H 0.99256 0.56282 0.01857 0.0
C3328 C 0.94586 0.55777 0.91405 0.0
C3329 C 0.94032 0.53843 0.89749 0.0
C3330 C 0.95888 0.558 0.9353 0.0
C3331 C 0.96588 0.53868 0.94027 0.0
C3332 C 0.95894 0.51894 0.9241 0.0
C3333 C 0.94654 0.51894 0.90272 0.0
C3334 C 1.01304 0.52837 0.98115 0.0
C3335 C 1.0112 0.54103 1.00206 0.0
C3336 C 0.99838 0.52775 0.96103 0.0
C3337 C 0.98127 0.5393 0.96167 0.0
C3338 C 0.97928 0.55172 0.9827 0.0
C3339 C 0.99434 0.55286 1.00265 0.0
H3340 H 0.32315 0.2221 0.60841 0.0
H3341 H 0.25985 0.23899 0.59178 0.0
H3342 H 0.32432 0.23636 0.64971 0.0
H3343 H 0.26068 0.25277 0.63333 0.0
H3344 H 0.2586 0.24665 0.71321 0.0
H3345 H 0.25812 0.23549 0.67139 0.0
H3346 H 0.32741 0.27206 0.67726 0.0
H3347 H 0.32752 0.28412 0.71887 0.0
C3348 C 0.30964 0.22922 0.61352 0.0
C3349 C 0.29159 0.22972 0.59662 0.0
C3350 C 0.31029 0.23737 0.63727 0.0
C3351 C 0.29256 0.24569 0.64503 0.0
C3352 C 0.27459 0.24641 0.62808 0.0
C3353 C 0.27424 0.23878 0.60418 0.0
C3354 C 0.27353 0.25287 0.70554 0.0
C3355 C 0.29279 0.26696 0.71952 0.0
C3356 C 0.27332 0.2463 0.68148 0.0
C3357 C 0.29264 0.25306 0.6707 0.0
C3358 C 0.31217 0.26654 0.68483 0.0
C3359 C 0.31221 0.2735 0.70878 0.0
H3360 H 0.64655 0.55484 0.22672 0.0
H3361 H 0.57943 0.54221 0.24509 0.0
H3362 H 0.6317 0.55394 0.18605 0.0
H3363 H 0.56434 0.54109 0.20372 0.0
H3364 H 0.54706 0.51665 0.12191 0.0
H3365 H 0.55974 0.5184 0.16393 0.0
H3366 H 0.61405 0.57563 0.16053 0.0
H3367 H 0.60147 0.57349 0.11858 0.0
C3368 C 0.62851 0.55173 0.22212 0.0
C3369 C 0.61425 0.54849 0.23945 0.0
C3370 C 0.61998 0.55143 0.19863 0.0
C3371 C 0.59676 0.54756 0.19133 0.0
C3372 C 0.58233 0.54404 0.20856 0.0
C3373 C 0.59097 0.54476 0.23235 0.0
C3374 C 0.56159 0.52969 0.13028 0.0
C3375 C 0.57325 0.54497 0.117 0.0
C3376 C 0.56883 0.53078 0.1544 0.0
C3377 C 0.58801 0.54713 0.16586 0.0
C3378 C 0.59941 0.5626 0.15243 0.0
C3379 C 0.59216 0.56149 0.12837 0.0
H3380 H 0.26379 0.8618 0.94883 0.0
H3381 H 0.30915 0.91785 0.92751 0.0
H3382 H 0.26429 0.83865 0.91198 0.0
H3383 H 0.31021 0.89442 0.89076 0.0
H3384 H 0.32882 0.83039 0.85172 0.0
H3385 H 0.32575 0.85566 0.88646 0.0
H3386 H 0.25383 0.84084 0.86624 0.0
H3387 H 0.25698 0.81608 0.83158 0.0
C3388 C 0.27332 0.86922 0.93587 0.0
C3389 C 0.28615 0.89143 0.94047 0.0
C3390 C 0.27375 0.85606 0.91505 0.0
C3391 C 0.28747 0.8649 0.89903 0.0
C3392 C 0.29965 0.88743 0.90316 0.0
C3393 C 0.29879 0.9008 0.92382 0.0
C3394 C 0.31243 0.83233 0.85517 0.0
C3395 C 0.29309 0.82149 0.83954 0.0
C3396 C 0.31071 0.84691 0.87457 0.0
C3397 C 0.28958 0.85015 0.8785 0.0
C3398 C 0.27022 0.83853 0.86328 0.0
C3399 C 0.27199 0.82437 0.84375 0.0
H3400 H 0.90966 0.55858 0.74882 0.0
H3401 H 0.95405 0.53138 0.79364 0.0
H3402 H 0.93105 0.55286 0.71656 0.0
H3403 H 0.97405 0.52384 0.76154 0.0
H3404 H 1.01285 0.51605 0.70411 0.0
H3405 H 0.99798 0.53503 0.73554 0.0
H3406 H 0.93395 0.52249 0.69105 0.0
H3407 H 0.94968 0.50517 0.65931 0.0
C3408 C 0.92415 0.55163 0.75172 0.0
C3409 C 0.93044 0.54558 0.77353 0.0
C3410 C 0.93626 0.54812 0.7333 0.0
C3411 C 0.95424 0.53769 0.7363 0.0
C3412 C 0.9608 0.53243 0.75855 0.0
C3413 C 0.94922 0.53662 0.77701 0.0
C3414 C 0.99563 0.51748 0.70125 0.0
C3415 C 0.98211 0.50872 0.67977 0.0
C3416 C 0.98706 0.52832 0.71915 0.0
C3417 C 0.96458 0.52996 0.71607 0.0
C3418 C 0.95138 0.52181 0.6941 0.0
C3419 C 0.96018 0.51151 0.67603 0.0
H3420 H 0.25109 0.23986 0.45614 0.0
H3421 H 0.31306 0.21896 0.45662 0.0
H3422 H 0.25391 0.24983 0.41711 0.0
H3423 H 0.31656 0.22995 0.41765 0.0
H3424 H 0.30714 0.2353 0.33812 0.0
H3425 H 0.30418 0.22296 0.37667 0.0
H3426 H 0.27181 0.27596 0.39585 0.0
H3427 H 0.27401 0.28747 0.3575 0.0
C3428 C 0.26558 0.23769 0.44807 0.0
C3429 C 0.28193 0.22875 0.45987 0.0
C3430 C 0.2673 0.24356 0.4255 0.0
C3431 C 0.28564 0.24106 0.41383 0.0
C3432 C 0.30202 0.232 0.42565 0.0
C3433 C 0.30013 0.22585 0.44822 0.0
C3434 C 0.29922 0.24414 0.35054 0.0
C3435 C 0.29082 0.26242 0.34448 0.0
C3436 C 0.29768 0.2372 0.37286 0.0
C3437 C 0.28763 0.24827 0.38981 0.0
C3438 C 0.27927 0.26652 0.3835 0.0
C3439 C 0.28074 0.27335 0.36135 0.0
H3440 H 0.34003 0.58936 0.60094 0.0
H3441 H 0.3333 0.61981 0.53772 0.0
H3442 H 0.37514 0.58108 0.59098 0.0
H3443 H 0.36801 0.61151 0.52802 0.0
H3444 H 0.40593 0.56159 0.5019 0.0
H3445 H 0.37345 0.56957 0.5184 0.0
H3446 H 0.41677 0.60546 0.58123 0.0
H3447 H 0.44947 0.59702 0.56468 0.0
C3448 C 0.34609 0.59432 0.58505 0.0
C3449 C 0.33387 0.60481 0.56983 0.0
C3450 C 0.36613 0.58977 0.57953 0.0
C3451 C 0.37379 0.59549 0.55868 0.0
C3452 C 0.36208 0.6068 0.54407 0.0
C3453 C 0.34229 0.6115 0.54963 0.0
C3454 C 0.4084 0.5712 0.51919 0.0
C3455 C 0.42989 0.57933 0.53191 0.0
C3456 C 0.38999 0.57561 0.52863 0.0
C3457 C 0.39295 0.58834 0.55079 0.0
C3458 C 0.41434 0.59561 0.56407 0.0
C3459 C 0.43286 0.59103 0.55462 0.0
H3460 H 0.87348 0.97106 0.57316 0.0
H3461 H 0.89927 0.91355 0.55257 0.0
H3462 H 0.90953 0.99609 0.56972 0.0
H3463 H 0.9353 0.93866 0.54929 0.0
H3464 H 1.00325 0.99013 0.57298 0.0
H3465 H 0.96701 0.96626 0.57707 0.0
H3466 H 0.93331 1.00671 0.53696 0.0
H3467 H 0.96969 0.03031 0.53206 0.0
C3468 C 0.88682 0.96371 0.56796 0.0
C3469 C 0.88343 0.94021 0.5632 0.0
C3470 C 0.90743 0.9781 0.56586 0.0
C3471 C 0.92526 0.96936 0.55926 0.0
C3472 C 0.92195 0.9459 0.55464 0.0
C3473 C 0.90126 0.93151 0.55645 0.0
C3474 C 0.98818 0.99409 0.56504 0.0
C3475 C 0.98952 1.01238 0.55233 0.0
C3476 C 0.96738 0.98029 0.56735 0.0
C3477 C 0.9473 0.98456 0.55731 0.0
C3478 C 0.94851 1.00312 0.54507 0.0
C3479 C 0.96939 0.01673 0.54239 0.0
H3480 H 0.92973 0.09714 0.26942 0.0
H3481 H 0.86496 0.05266 0.27005 0.0
H3482 H 0.91313 0.1294 0.27271 0.0
H3483 H 0.84844 0.08481 0.27532 0.0
H3484 H 0.81909 0.14361 0.27727 0.0
H3485 H 0.8362 0.11428 0.26121 0.0
H3486 H 0.90048 0.15093 0.30025 0.0
H3487 H 0.88343 0.18028 0.31511 0.0
C3488 C 0.91195 0.0944 0.27064 0.0
C3489 C 0.89862 0.07259 0.26982 0.0
C3490 C 0.90238 0.11285 0.27257 0.0
C3491 C 0.87936 0.10996 0.27452 0.0
C3492 C 0.86606 0.08789 0.27339 0.0
C3493 C 0.87555 0.06942 0.27072 0.0
C3494 C 0.83703 0.14567 0.28153 0.0
C3495 C 0.84999 0.1641 0.29738 0.0
C3496 C 0.84683 0.1287 0.27272 0.0
C3497 C 0.86972 0.12978 0.27982 0.0
C3498 C 0.8829 0.14931 0.29417 0.0
C3499 C 0.87315 0.16623 0.30279 0.0
H3500 H 0.70929 0.06643 0.06184 0.0
H3501 H 0.70289 0.12632 0.03221 0.0
H3502 H 0.66892 0.05206 0.05422 0.0
H3503 H 0.66219 0.11157 0.02427 0.0
H3504 H 0.59612 0.08987 0.06153 0.0
H3505 H 0.63404 0.10524 0.05277 0.0
H3506 H 0.63661 0.03879 0.02253 0.0
H3507 H 0.59919 0.02351 0.03228 0.0
C3508 C 0.69932 0.07624 0.05313 0.0
C3509 C 0.7092 0.09745 0.04765 0.0
C3510 C 0.67621 0.06794 0.04858 0.0
C3511 C 0.66259 0.08064 0.03837 0.0
C3512 C 0.67246 0.1015 0.03205 0.0
C3513 C 0.69567 0.10984 0.03659 0.0
C3514 C 0.60477 0.07883 0.05252 0.0
C3515 C 0.59543 0.05568 0.0478 0.0
C3516 C 0.62621 0.08756 0.04727 0.0
C3517 C 0.63819 0.07304 0.03727 0.0
C3518 C 0.62771 0.05017 0.03053 0.0
C3519 C 0.6065 0.04145 0.03611 0.0
H3520 H 0.24575 0.49899 0.23564 0.0
H3521 H 0.22252 0.50517 0.30314 0.0
H3522 H 0.25576 0.46402 0.24353 0.0
H3523 H 0.23272 0.47065 0.31086 0.0
H3524 H 0.28562 0.43183 0.3276 0.0
H3525 H 0.27775 0.46488 0.31206 0.0
H3526 H 0.22825 0.42184 0.25758 0.0
H3527 H 0.23608 0.38856 0.27338 0.0
C3528 C 0.24283 0.49289 0.25208 0.0
C3529 C 0.23368 0.50478 0.26896 0.0
C3530 C 0.24839 0.47296 0.25643 0.0
C3531 C 0.24507 0.46515 0.27778 0.0
C3532 C 0.23547 0.47672 0.29435 0.0
C3533 C 0.22967 0.49636 0.28992 0.0
C3534 C 0.27327 0.42957 0.31217 0.0
C3535 C 0.26105 0.40809 0.30178 0.0
C3536 C 0.26892 0.44827 0.30326 0.0
C3537 C 0.25245 0.44554 0.28382 0.0
C3538 C 0.2411 0.42402 0.27254 0.0
C3539 C 0.24535 0.40522 0.28163 0.0
H3540 H 0.27824 0.46828 0.09575 0.0
H3541 H 0.24327 0.41856 0.03716 0.0
H3542 H 0.24637 0.48554 0.09441 0.0
H3543 H 0.21159 0.43591 0.03564 0.0
H3544 H 0.1511 0.46066 0.0439 0.0
H3545 H 0.18096 0.44259 0.05619 0.0
H3546 H 0.22886 0.50724 0.0686 0.0
H3547 H 0.19881 0.52513 0.05668 0.0
C3548 C 0.26375 0.46101 0.08259 0.0
C3549 C 0.26337 0.44209 0.06646 0.0
C3550 C 0.24548 0.47092 0.08183 0.0
C3551 C 0.2263 0.46205 0.06504 0.0
C3552 C 0.22587 0.44297 0.04911 0.0
C3553 C 0.24417 0.43315 0.04978 0.0
C3554 C 0.16784 0.47104 0.05028 0.0
C3555 C 0.17268 0.49427 0.04965 0.0
C3556 C 0.18502 0.46069 0.05694 0.0
C3557 C 0.20743 0.47339 0.06289 0.0
C3558 C 0.21183 0.49693 0.06421 0.0
C3559 C 0.19462 0.50724 0.05753 0.0
H3560 H 0.87066 0.96838 0.27956 0.0
H3561 H 0.92352 0.9337 0.27437 0.0
H3562 H 0.8443 0.93303 0.28281 0.0
H3563 H 0.89723 0.89843 0.27765 0.0
H3564 H 0.84005 0.83584 0.25857 0.0
H3565 H 0.86453 0.87181 0.25486 0.0
H3566 H 0.8359 0.90441 0.3093 0.0
H3567 H 0.811 0.86813 0.31285 0.0
C3568 C 0.87665 0.9532 0.27903 0.0
C3569 C 0.89922 0.95389 0.2766 0.0
C3570 C 0.86156 0.93296 0.28109 0.0
C3571 C 0.86856 0.91281 0.28041 0.0
C3572 C 0.89114 0.91354 0.27796 0.0
C3573 C 0.90629 0.93381 0.27622 0.0
C3574 C 0.83884 0.85066 0.26973 0.0
C3575 C 0.82359 0.84904 0.28612 0.0
C3576 C 0.85303 0.87131 0.26768 0.0
C3577 C 0.85246 0.89103 0.28197 0.0
C3578 C 0.83672 0.88959 0.29791 0.0
C3579 C 0.82243 0.86881 0.29995 0.0
H3580 H 0.76551 0.12451 0.76398 0.0
H3581 H 0.7158 0.13232 0.80919 0.0
H3582 H 0.78208 0.16446 0.77187 0.0
H3583 H 0.73298 0.17261 0.81762 0.0
H3584 H 0.74813 0.24104 0.78625 0.0
H3585 H 0.73434 0.20228 0.79238 0.0
H3586 H 0.80265 0.19501 0.80237 0.0
H3587 H 0.81635 0.23379 0.79549 0.0
C3588 C 0.75849 0.1347 0.77609 0.0
C3589 C 0.73945 0.12539 0.78602 0.0
C3590 C 0.76811 0.15755 0.78078 0.0
C3591 C 0.75899 0.17143 0.79567 0.0
C3592 C 0.74031 0.1621 0.80617 0.0
C3593 C 0.73055 0.13916 0.80135 0.0
C3594 C 0.76016 0.23125 0.79036 0.0
C3595 C 0.78317 0.23994 0.79023 0.0
C3596 C 0.75232 0.20921 0.79406 0.0
C3597 C 0.7675 0.19577 0.79768 0.0
C3598 C 0.79069 0.20511 0.79932 0.0
C3599 C 0.7985 0.22709 0.79533 0.0
loop_
_geom_bond_atom_site_label_1
_geom_bond_atom_site_label_2
_geom_bond_distance
_geom_bond_site_symmetry_2
_ccdc_geom_bond_type
O0 Cd1 2.223 . S
O0 C8 1.315 . S
Cd1 O0 2.223 . S
Cd1 O4 2.297 . S
Cd1 O5 2.439 . S
Cd1 O11 2.240 . S
Cd2 O3 2.240 . S
Cd2 O10 2.223 1_455 S
Cd2 O12 2.297 . S
Cd2 O13 2.439 . S
O3 Cd2 2.240 . S
O3 C8 1.279 . S
O4 Cd1 2.297 . S
O4 C6 1.247 . S
O5 Cd1 2.439 . S
O5 C6 1.208 . S
C6 O4 1.247 . S
C6 O5 1.208 . S
C7 O12 1.247 . S
C7 O13 1.208 . S
C8 O0 1.315 . S
C8 O3 1.279 . S
C9 O10 1.315 . S
C9 O11 1.279 1_655 S
O10 Cd2 2.223 1_655 S
O10 C9 1.315 . S
O11 Cd1 2.240 . S
O11 C9 1.279 1_455 S
O12 Cd2 2.297 . S
O12 C7 1.247 . S
O13 Cd2 2.439 . S
O13 C7 1.208 . S
O14 Cd15 2.223 . S
O14 C22 1.315 . S
Cd15 O14 2.223 . S
Cd15 O18 2.297 1_455 S
Cd15 O19 2.439 1_455 S
Cd15 O25 2.240 . S
Cd16 O17 2.240 . S
Cd16 O24 2.223 . S
Cd16 O26 2.297 . S
Cd16 O27 2.439 . S
O17 Cd16 2.240 . S
O17 C22 1.279 . S
O18 Cd15 2.297 1_655 S
O18 C20 1.247 . S
O19 Cd15 2.439 1_655 S
O19 C20 1.208 . S
C20 O18 1.247 . S
C20 O19 1.208 . S
C21 O26 1.247 . S
C21 O27 1.208 . S
C22 O14 1.315 . S
C22 O17 1.279 . S
C23 O24 1.315 . S
C23 O25 1.279 . S
O24 Cd16 2.223 . S
O24 C23 1.315 . S
O25 Cd15 2.240 . S
O25 C23 1.279 . S
O26 Cd16 2.297 . S
O26 C21 1.247 . S
O27 Cd16 2.439 . S
O27 C21 1.208 . S
O28 Cd29 2.223 . S
O28 C36 1.315 . S
Cd29 O28 2.223 . S
Cd29 O32 2.297 . S
Cd29 O33 2.439 . S
Cd29 O39 2.240 . S
Cd30 O31 2.240 . S
Cd30 O38 2.223 . S
Cd30 O40 2.297 . S
Cd30 O41 2.439 . S
O31 Cd30 2.240 . S
O31 C36 1.279 . S
O32 Cd29 2.297 . S
O32 C34 1.247 . S
O33 Cd29 2.439 . S
O33 C34 1.208 . S
C34 O32 1.247 . S
C34 O33 1.208 . S
C35 O40 1.247 . S
C35 O41 1.208 . S
C36 O28 1.315 . S
C36 O31 1.279 . S
C37 O38 1.315 . S
C37 O39 1.279 . S
O38 Cd30 2.223 . S
O38 C37 1.315 . S
O39 Cd29 2.240 . S
O39 C37 1.279 . S
O40 Cd30 2.297 . S
O40 C35 1.247 . S
O41 Cd30 2.439 . S
O41 C35 1.208 . S
O42 Cd43 2.223 . S
O42 C50 1.315 . S
Cd43 O42 2.223 . S
Cd43 O46 2.297 . S
Cd43 O47 2.439 . S
Cd43 O53 2.240 . S
Cd44 O45 2.240 . S
Cd44 O52 2.223 . S
Cd44 O54 2.297 . S
Cd44 O55 2.439 . S
O45 Cd44 2.240 . S
O45 C50 1.279 . S
O46 Cd43 2.297 . S
O46 C48 1.247 . S
O47 Cd43 2.439 . S
O47 C48 1.208 . S
C48 O46 1.247 . S
C48 O47 1.208 . S
C49 O54 1.247 . S
C49 O55 1.208 . S
C50 O42 1.315 . S
C50 O45 1.279 . S
C51 O52 1.315 . S
C51 O53 1.279 . S
O52 Cd44 2.223 . S
O52 C51 1.315 . S
O53 Cd43 2.240 . S
O53 C51 1.279 . S
O54 Cd44 2.297 . S
O54 C49 1.247 . S
O55 Cd44 2.439 . S
O55 C49 1.208 . S
O56 Cd57 2.223 . S
O56 C64 1.315 . S
Cd57 O56 2.223 . S
Cd57 O60 2.297 . S
Cd57 O61 2.439 . S
Cd57 O67 2.240 . S
Cd58 O59 2.240 . S
Cd58 O66 2.223 . S
Cd58 O68 2.297 . S
Cd58 O69 2.439 . S
O59 Cd58 2.240 . S
O59 C64 1.279 . S
O60 Cd57 2.297 . S
O60 C62 1.247 . S
O61 Cd57 2.439 . S
O61 C62 1.208 . S
C62 O60 1.247 . S
C62 O61 1.208 . S
C63 O68 1.247 . S
C63 O69 1.208 . S
C64 O56 1.315 . S
C64 O59 1.279 . S
C65 O66 1.315 . S
C65 O67 1.279 . S
O66 Cd58 2.223 . S
O66 C65 1.315 . S
O67 Cd57 2.240 . S
O67 C65 1.279 . S
O68 Cd58 2.297 . S
O68 C63 1.247 . S
O69 Cd58 2.439 . S
O69 C63 1.208 . S
O70 Cd71 2.223 . S
O70 C78 1.315 . S
Cd71 O70 2.223 . S
Cd71 O74 2.297 . S
Cd71 O75 2.439 . S
Cd71 O81 2.240 . S
Cd72 O73 2.240 . S
Cd72 O80 2.223 . S
Cd72 O82 2.297 . S
Cd72 O83 2.439 . S
O73 Cd72 2.240 . S
O73 C78 1.279 . S
O74 Cd71 2.297 . S
O74 C76 1.247 . S
O75 Cd71 2.439 . S
O75 C76 1.208 . S
C76 O74 1.247 . S
C76 O75 1.208 . S
C77 O82 1.247 . S
C77 O83 1.208 . S
C78 O70 1.315 . S
C78 O73 1.279 . S
C79 O80 1.315 . S
C79 O81 1.279 . S
O80 Cd72 2.223 . S
O80 C79 1.315 . S
O81 Cd71 2.240 . S
O81 C79 1.279 . S
O82 Cd72 2.297 . S
O82 C77 1.247 . S
O83 Cd72 2.439 . S
O83 C77 1.208 . S
O84 Cd85 2.223 . S
O84 C92 1.315 . S
Cd85 O84 2.223 . S
Cd85 O88 2.297 . S
Cd85 O89 2.439 . S
Cd85 O95 2.240 . S
Cd86 O87 2.240 . S
Cd86 O94 2.223 . S
Cd86 O96 2.297 . S
Cd86 O97 2.439 . S
O87 Cd86 2.240 . S
O87 C92 1.279 . S
O88 Cd85 2.297 . S
O88 C90 1.247 . S
O89 Cd85 2.439 . S
O89 C90 1.208 . S
C90 O88 1.247 . S
C90 O89 1.208 . S
C91 O96 1.247 . S
C91 O97 1.208 . S
C92 O84 1.315 . S
C92 O87 1.279 . S
C93 O94 1.315 . S
C93 O95 1.279 . S
O94 Cd86 2.223 . S
O94 C93 1.315 . S
O95 Cd85 2.240 . S
O95 C93 1.279 . S
O96 Cd86 2.297 . S
O96 C91 1.247 . S
O97 Cd86 2.439 . S
O97 C91 1.208 . S
O98 Cd99 2.223 1_655 S
O98 C106 1.315 . S
Cd99 O98 2.223 1_455 S
Cd99 O102 2.297 . S
Cd99 O103 2.439 . S
Cd99 O109 2.240 1_455 S
Cd100 O101 2.240 1_655 S
Cd100 O108 2.223 . S
Cd100 O110 2.297 . S
Cd100 O111 2.439 1_655 S
O101 Cd100 2.240 1_455 S
O101 C106 1.279 1_455 S
O102 Cd99 2.297 . S
O102 C104 1.247 . S
O103 Cd99 2.439 . S
O103 C104 1.208 . S
C104 O102 1.247 . S
C104 O103 1.208 . S
C105 O110 1.230 1_455 S
C105 O111 1.226 . S
C106 O98 1.315 . S
C106 O101 1.279 1_655 S
C107 O108 1.315 . S
C107 O109 1.279 . S
O108 Cd100 2.223 . S
O108 C107 1.315 . S
O109 Cd99 2.240 1_655 S
O109 C107 1.279 . S
O110 Cd100 2.297 . S
O110 C105 1.230 1_655 S
O111 Cd100 2.439 1_455 S
O111 C105 1.226 . S
O112 Cd113 2.223 . S
O112 C120 1.315 . S
Cd113 O112 2.223 . S
Cd113 O116 2.297 . S
Cd113 O117 2.439 . S
Cd113 O123 2.240 1_545 S
Cd114 O115 2.240 . S
Cd114 O122 2.223 1_545 S
Cd114 O124 2.297 1_545 S
Cd114 O125 2.439 . S
O115 Cd114 2.240 . S
O115 C120 1.279 . S
O116 Cd113 2.297 . S
O116 C118 1.247 . S
O117 Cd113 2.439 . S
O117 C118 1.208 . S
C118 O116 1.247 . S
C118 O117 1.208 . S
C119 O124 1.247 1_545 S
C119 O125 1.208 . S
C120 O112 1.315 . S
C120 O115 1.279 . S
C121 O122 1.315 . S
C121 O123 1.279 . S
O122 Cd114 2.223 1_565 S
O122 C121 1.315 . S
O123 Cd113 2.240 1_565 S
O123 C121 1.279 . S
O124 Cd114 2.297 1_565 S
O124 C119 1.247 1_565 S
O125 Cd114 2.439 . S
O125 C119 1.208 . S
O126 Cd127 2.223 . S
O126 C134 1.315 . S
Cd127 O126 2.223 . S
Cd127 O130 2.297 . S
Cd127 O131 2.439 . S
Cd127 O137 2.240 . S
Cd128 O129 2.240 . S
Cd128 O136 2.223 . S
Cd128 O138 2.297 . S
Cd128 O139 2.439 . S
O129 Cd128 2.240 . S
O129 C134 1.279 . S
O130 Cd127 2.297 . S
O130 C132 1.247 . S
O131 Cd127 2.439 . S
O131 C132 1.208 . S
C132 O130 1.247 . S
C132 O131 1.208 . S
C133 O138 1.247 . S
C133 O139 1.208 . S
C134 O126 1.315 . S
C134 O129 1.279 . S
C135 O136 1.315 . S
C135 O137 1.279 . S
O136 Cd128 2.223 . S
O136 C135 1.315 . S
O137 Cd127 2.240 . S
O137 C135 1.279 . S
O138 Cd128 2.297 . S
O138 C133 1.247 . S
O139 Cd128 2.439 . S
O139 C133 1.208 . S
O140 Cd141 2.223 . S
O140 C148 1.315 . S
Cd141 O140 2.223 . S
Cd141 O144 2.297 . S
Cd141 O145 2.439 . S
Cd141 O151 2.240 . S
Cd142 O143 2.240 . S
Cd142 O150 2.223 . S
Cd142 O152 2.297 . S
Cd142 O153 2.439 . S
O143 Cd142 2.240 . S
O143 C148 1.279 . S
O144 Cd141 2.297 . S
O144 C146 1.247 1_545 S
O145 Cd141 2.439 . S
O145 C146 1.208 1_545 S
C146 O144 1.247 1_565 S
C146 O145 1.208 1_565 S
C147 O152 1.247 . S
C147 O153 1.208 . S
C148 O140 1.315 . S
C148 O143 1.279 . S
C149 O150 1.315 . S
C149 O151 1.279 . S
O150 Cd142 2.223 . S
O150 C149 1.315 . S
O151 Cd141 2.240 . S
O151 C149 1.279 . S
O152 Cd142 2.297 . S
O152 C147 1.247 . S
O153 Cd142 2.439 . S
O153 C147 1.208 . S
O154 Cd155 2.223 . S
O154 C162 1.315 . S
Cd155 O154 2.223 . S
Cd155 O158 2.297 . S
Cd155 O159 2.439 1_554 S
Cd155 O165 2.240 1_554 S
Cd156 O157 2.240 1_556 S
Cd156 O164 2.223 1_556 S
Cd156 O166 2.297 . S
Cd156 O167 2.439 . S
O157 Cd156 2.240 1_554 S
O157 C162 1.279 . S
O158 Cd155 2.297 . S
O158 C160 1.247 . S
O159 Cd155 2.439 1_556 S
O159 C160 1.208 1_556 S
C160 O158 1.247 . S
C160 O159 1.208 1_554 S
C161 O166 1.247 . S
C161 O167 1.208 . S
C162 O154 1.315 . S
C162 O157 1.279 . S
C163 O164 1.315 . S
C163 O165 1.279 1_554 S
O164 Cd156 2.223 1_554 S
O164 C163 1.315 . S
O165 Cd155 2.240 1_556 S
O165 C163 1.279 1_556 S
O166 Cd156 2.297 . S
O166 C161 1.247 . S
O167 Cd156 2.439 . S
O167 C161 1.208 . S
O168 Cd169 2.223 . S
O168 C176 1.315 . S
Cd169 O168 2.223 . S
Cd169 O172 2.297 . S
Cd169 O173 2.439 . S
Cd169 O179 2.240 . S
Cd170 O171 2.240 . S
Cd170 O178 2.223 . S
Cd170 O180 2.297 . S
Cd170 O181 2.439 . S
O171 Cd170 2.240 . S
O171 C176 1.279 . S
O172 Cd169 2.297 . S
O172 C174 1.247 . S
O173 Cd169 2.439 . S
O173 C174 1.208 . S
C174 O172 1.247 . S
C174 O173 1.208 . S
C175 O180 1.247 1_556 S
C175 O181 1.208 1_556 S
C176 O168 1.315 . S
C176 O171 1.279 . S
C177 O178 1.315 . S
C177 O179 1.279 . S
O178 Cd170 2.223 . S
O178 C177 1.315 . S
O179 Cd169 2.240 . S
O179 C177 1.279 . S
O180 Cd170 2.297 . S
O180 C175 1.247 1_554 S
O181 Cd170 2.439 . S
O181 C175 1.208 1_554 S
O182 Cd183 2.223 . S
O182 C190 1.315 . S
Cd183 O182 2.223 . S
Cd183 O186 2.297 . S
Cd183 O187 2.439 . S
Cd183 O193 2.240 . S
Cd184 O185 2.240 . S
Cd184 O192 2.223 . S
Cd184 O194 2.297 . S
Cd184 O195 2.439 . S
O185 Cd184 2.240 . S
O185 C190 1.279 . S
O186 Cd183 2.297 . S
O186 C188 1.247 . S
O187 Cd183 2.439 . S
O187 C188 1.208 . S
C188 O186 1.247 . S
C188 O187 1.208 . S
C189 O194 1.247 . S
C189 O195 1.208 . S
C190 O182 1.315 . S
C190 O185 1.279 . S
C191 O192 1.315 . S
C191 O193 1.279 . S
O192 Cd184 2.223 . S
O192 C191 1.315 . S
O193 Cd183 2.240 . S
O193 C191 1.279 . S
O194 Cd184 2.297 . S
O194 C189 1.247 . S
O195 Cd184 2.439 . S
O195 C189 1.208 . S
O196 Cd197 2.223 . S
O196 C204 1.315 . S
Cd197 O196 2.223 . S
Cd197 O200 2.297 . S
Cd197 O201 2.439 . S
Cd197 O207 2.240 . S
Cd198 O199 2.240 . S
Cd198 O206 2.223 . S
Cd198 O208 2.297 . S
Cd198 O209 2.439 . S
O199 Cd198 2.240 . S
O199 C204 1.279 . S
O200 Cd197 2.297 . S
O200 C202 1.247 . S
O201 Cd197 2.439 . S
O201 C202 1.208 . S
C202 O200 1.247 . S
C202 O201 1.208 . S
C203 O208 1.247 . S
C203 O209 1.208 . S
C204 O196 1.315 . S
C204 O199 1.279 . S
C205 O206 1.315 . S
C205 O207 1.279 . S
O206 Cd198 2.223 . S
O206 C205 1.315 . S
O207 Cd197 2.240 . S
O207 C205 1.279 . S
O208 Cd198 2.297 . S
O208 C203 1.247 . S
O209 Cd198 2.439 . S
O209 C203 1.208 . S
O210 Cd211 2.223 . S
O210 C218 1.315 . S
Cd211 O210 2.223 . S
Cd211 O214 2.297 . S
Cd211 O215 2.439 . S
Cd211 O221 2.240 . S
Cd212 O213 2.240 . S
Cd212 O220 2.223 . S
Cd212 O222 2.297 . S
Cd212 O223 2.439 . S
O213 Cd212 2.240 . S
O213 C218 1.279 . S
O214 Cd211 2.297 . S
O214 C216 1.247 . S
O215 Cd211 2.439 . S
O215 C216 1.208 . S
C216 O214 1.247 . S
C216 O215 1.208 . S
C217 O222 1.247 . S
C217 O223 1.208 . S
C218 O210 1.315 . S
C218 O213 1.279 . S
C219 O220 1.315 . S
C219 O221 1.279 . S
O220 Cd212 2.223 . S
O220 C219 1.315 . S
O221 Cd211 2.240 . S
O221 C219 1.279 . S
O222 Cd212 2.297 . S
O222 C217 1.247 . S
O223 Cd212 2.439 . S
O223 C217 1.208 . S
O224 Cd225 2.223 . S
O224 C232 1.315 . S
Cd225 O224 2.223 . S
Cd225 O228 2.297 . S
Cd225 O229 2.439 . S
Cd225 O235 2.240 1_545 S
Cd226 O227 2.240 . S
Cd226 O234 2.223 1_545 S
Cd226 O236 2.297 1_545 S
Cd226 O237 2.439 . S
O227 Cd226 2.240 . S
O227 C232 1.279 . S
O228 Cd225 2.297 . S
O228 C230 1.247 . S
O229 Cd225 2.439 . S
O229 C230 1.208 . S
C230 O228 1.247 . S
C230 O229 1.208 . S
C231 O236 1.247 1_545 S
C231 O237 1.208 . S
C232 O224 1.315 . S
C232 O227 1.279 . S
C233 O234 1.315 . S
C233 O235 1.279 . S
O234 Cd226 2.223 1_565 S
O234 C233 1.315 . S
O235 Cd225 2.240 1_565 S
O235 C233 1.279 . S
O236 Cd226 2.297 1_565 S
O236 C231 1.247 1_565 S
O237 Cd226 2.439 . S
O237 C231 1.208 . S
O238 Cd239 2.223 . S
O238 C246 1.315 . S
Cd239 O238 2.223 . S
Cd239 O242 2.297 . S
Cd239 O243 2.439 . S
Cd239 O249 2.240 . S
Cd240 O241 2.240 . S
Cd240 O248 2.223 . S
Cd240 O250 2.297 . S
Cd240 O251 2.439 . S
O241 Cd240 2.240 . S
O241 C246 1.279 . S
O242 Cd239 2.297 . S
O242 C244 1.247 . S
O243 Cd239 2.439 . S
O243 C244 1.208 . S
C244 O242 1.247 . S
C244 O243 1.208 . S
C245 O250 1.247 . S
C245 O251 1.208 . S
C246 O238 1.315 . S
C246 O241 1.279 . S
C247 O248 1.315 . S
C247 O249 1.279 . S
O248 Cd240 2.223 . S
O248 C247 1.315 . S
O249 Cd239 2.240 . S
O249 C247 1.279 . S
O250 Cd240 2.297 . S
O250 C245 1.247 . S
O251 Cd240 2.439 . S
O251 C245 1.208 . S
O252 Cd253 2.223 . S
O252 C260 1.315 . S
Cd253 O252 2.223 . S
Cd253 O256 2.297 . S
Cd253 O257 2.439 . S
Cd253 O263 2.240 . S
Cd254 O255 2.240 . S
Cd254 O262 2.223 . S
Cd254 O264 2.297 . S
Cd254 O265 2.439 . S
O255 Cd254 2.240 . S
O255 C260 1.279 . S
O256 Cd253 2.297 . S
O256 C258 1.247 . S
O257 Cd253 2.439 . S
O257 C258 1.208 . S
C258 O256 1.247 . S
C258 O257 1.208 . S
C259 O264 1.247 . S
C259 O265 1.208 . S
C260 O252 1.315 . S
C260 O255 1.279 . S
C261 O262 1.315 . S
C261 O263 1.279 . S
O262 Cd254 2.223 . S
O262 C261 1.315 . S
O263 Cd253 2.240 . S
O263 C261 1.279 . S
O264 Cd254 2.297 . S
O264 C259 1.247 . S
O265 Cd254 2.439 . S
O265 C259 1.208 . S
O266 Cd267 2.223 . S
O266 C274 1.315 . S
Cd267 O266 2.223 . S
Cd267 O270 2.297 . S
Cd267 O271 2.439 . S
Cd267 O277 2.240 . S
Cd268 O269 2.240 . S
Cd268 O276 2.223 . S
Cd268 O278 2.297 . S
Cd268 O279 2.439 . S
O269 Cd268 2.240 . S
O269 C274 1.279 . S
O270 Cd267 2.297 . S
O270 C272 1.247 . S
O271 Cd267 2.439 . S
O271 C272 1.208 . S
C272 O270 1.247 . S
C272 O271 1.208 . S
C273 O278 1.247 . S
C273 O279 1.208 . S
C274 O266 1.315 . S
C274 O269 1.279 . S
C275 O276 1.315 . S
C275 O277 1.279 . S
O276 Cd268 2.223 . S
O276 C275 1.315 . S
O277 Cd267 2.240 . S
O277 C275 1.279 . S
O278 Cd268 2.297 . S
O278 C273 1.247 . S
O279 Cd268 2.439 . S
O279 C273 1.208 . S
O280 Cd281 2.223 . S
O280 C288 1.315 . S
Cd281 O280 2.223 . S
Cd281 O284 2.297 . S
Cd281 O285 2.439 . S
Cd281 O291 2.240 . S
Cd282 O283 2.240 . S
Cd282 O290 2.223 . S
Cd282 O292 2.297 1_554 S
Cd282 O293 2.439 1_554 S
O283 Cd282 2.240 . S
O283 C288 1.279 . S
O284 Cd281 2.297 . S
O284 C286 1.247 . S
O285 Cd281 2.439 . S
O285 C286 1.208 . S
C286 O284 1.247 . S
C286 O285 1.208 . S
C287 O292 1.247 . S
C287 O293 1.208 . S
C288 O280 1.315 . S
C288 O283 1.279 . S
C289 O290 1.315 . S
C289 O291 1.279 . S
O290 Cd282 2.223 . S
O290 C289 1.315 . S
O291 Cd281 2.240 . S
O291 C289 1.279 . S
O292 Cd282 2.297 1_556 S
O292 C287 1.247 . S
O293 Cd282 2.439 1_556 S
O293 C287 1.208 . S
O294 Cd295 2.223 . S
O294 C302 1.315 . S
Cd295 O294 2.223 . S
Cd295 O298 2.297 . S
Cd295 O299 2.439 . S
Cd295 O305 2.240 . S
Cd296 O297 2.240 . S
Cd296 O304 2.223 . S
Cd296 O306 2.297 . S
Cd296 O307 2.439 . S
O297 Cd296 2.240 . S
O297 C302 1.279 . S
O298 Cd295 2.297 . S
O298 C300 1.247 . S
O299 Cd295 2.439 . S
O299 C300 1.208 . S
C300 O298 1.247 . S
C300 O299 1.208 . S
C301 O306 1.247 . S
C301 O307 1.208 . S
C302 O294 1.315 . S
C302 O297 1.279 . S
C303 O304 1.315 . S
C303 O305 1.279 . S
O304 Cd296 2.223 . S
O304 C303 1.315 . S
O305 Cd295 2.240 . S
O305 C303 1.279 . S
O306 Cd296 2.297 . S
O306 C301 1.247 . S
O307 Cd296 2.439 . S
O307 C301 1.208 . S
O308 Cd309 2.223 . S
O308 C316 1.315 . S
Cd309 O308 2.223 . S
Cd309 O312 2.297 . S
Cd309 O313 2.439 . S
Cd309 O319 2.240 . S
Cd310 O311 2.240 . S
Cd310 O318 2.223 . S
Cd310 O320 2.297 . S
Cd310 O321 2.439 . S
O311 Cd310 2.240 . S
O311 C316 1.279 . S
O312 Cd309 2.297 . S
O312 C314 1.247 . S
O313 Cd309 2.439 . S
O313 C314 1.208 . S
C314 O312 1.247 . S
C314 O313 1.208 . S
C315 O320 1.247 . S
C315 O321 1.208 . S
C316 O308 1.315 . S
C316 O311 1.279 . S
C317 O318 1.315 . S
C317 O319 1.279 . S
O318 Cd310 2.223 . S
O318 C317 1.315 . S
O319 Cd309 2.240 . S
O319 C317 1.279 . S
O320 Cd310 2.297 . S
O320 C315 1.247 . S
O321 Cd310 2.439 . S
O321 C315 1.208 . S
O322 Cd323 2.223 . S
O322 C330 1.315 . S
Cd323 O322 2.223 . S
Cd323 O326 2.297 . S
Cd323 O327 2.439 . S
Cd323 O333 2.240 . S
Cd324 O325 2.240 . S
Cd324 O332 2.223 . S
Cd324 O334 2.297 . S
Cd324 O335 2.439 . S
O325 Cd324 2.240 . S
O325 C330 1.279 . S
O326 Cd323 2.297 . S
O326 C328 1.247 . S
O327 Cd323 2.439 . S
O327 C328 1.208 . S
C328 O326 1.247 . S
C328 O327 1.208 . S
C329 O334 1.247 . S
C329 O335 1.208 . S
C330 O322 1.315 . S
C330 O325 1.279 . S
C331 O332 1.315 . S
C331 O333 1.279 . S
O332 Cd324 2.223 . S
O332 C331 1.315 . S
O333 Cd323 2.240 . S
O333 C331 1.279 . S
O334 Cd324 2.297 . S
O334 C329 1.247 . S
O335 Cd324 2.439 . S
O335 C329 1.208 . S
Tb336 N365 2.617 . S
Tb336 N371 2.572 . S
Tb336 O380 2.465 . S
Tb336 O381 2.387 . S
Tb336 O383 2.428 . S
Tb336 O384 2.308 . S
Tb336 O388 2.349 . S
Tb336 O391 2.393 . S
Tb336 C400 2.802 . S
C337 N338 1.379 1_554 S
C337 C340 1.416 1_554 S
C337 C344 1.424 . S
N338 C337 1.379 1_556 S
N338 C341 1.334 . S
N338 Tb347 2.617 1_566 S
C339 C341 1.390 . S
C339 C342 1.339 . S
C339 H359 0.930 . S
C340 C337 1.416 1_556 S
C340 C342 1.416 . S
C340 C346 1.448 . S
C341 N338 1.334 . S
C341 C339 1.390 . S
C341 H352 0.930 1_565 S
C342 C339 1.339 . S
C342 C340 1.416 . S
C342 H363 0.930 . S
C343 C344 1.413 . S
C343 C345 1.427 . S
C343 C349 1.416 . S
C344 C337 1.424 . S
C344 C343 1.413 . S
C344 N348 1.361 . S
C345 C343 1.427 . S
C345 C346 1.328 1_554 S
C345 H360 0.929 . S
C346 C340 1.448 . S
C346 C345 1.328 1_556 S
C346 H361 0.930 . S
Tb347 N338 2.617 1_544 S
Tb347 N348 2.572 1_545 S
Tb347 O382 2.349 1_655 S
Tb347 O385 2.428 1_655 S
Tb347 O386 2.465 . S
Tb347 O387 2.387 1_645 S
Tb347 O389 2.428 . S
Tb347 O390 2.308 1_655 S
Tb347 C411 2.802 . S
N348 C344 1.361 . S
N348 Tb347 2.572 1_565 S
N348 C350 1.340 . S
C349 C343 1.416 . S
C349 C351 1.332 . S
C349 H357 0.931 . S
C350 N348 1.340 . S
C350 C351 1.407 . S
C350 H356 0.930 1_565 S
C351 C349 1.332 . S
C351 C350 1.407 . S
C351 H353 0.929 . S
H352 C341 0.930 1_545 S
H353 C351 0.929 . S
H354 C369 0.930 . S
H355 C376 0.929 . S
H356 C350 0.930 1_545 S
H357 C349 0.931 . S
H358 C372 0.930 . S
H359 C339 0.930 . S
H360 C345 0.929 . S
H361 C346 0.930 . S
H362 C367 0.930 . S
H363 C342 0.930 . S
H364 C375 0.931 . S
N365 Tb336 2.617 . S
N365 C366 1.379 . S
N365 C369 1.334 . S
C366 N365 1.379 . S
C366 C368 1.416 . S
C366 C374 1.424 . S
C367 H362 0.930 . S
C367 C369 1.390 . S
C367 C370 1.339 . S
C368 C366 1.416 . S
C368 C370 1.416 . S
C368 C401 1.448 . S
C369 H354 0.930 . S
C369 N365 1.334 . S
C369 C367 1.390 . S
C370 C367 1.339 . S
C370 C368 1.416 . S
C370 H377 0.930 . S
N371 Tb336 2.572 . S
N371 C372 1.340 . S
N371 C374 1.361 . S
C372 H358 0.930 . S
C372 N371 1.340 . S
C372 C376 1.407 . S
C373 C374 1.413 . S
C373 C375 1.416 . S
C373 C402 1.427 . S
C374 C366 1.424 . S
C374 N371 1.361 . S
C374 C373 1.413 . S
C375 H364 0.931 . S
C375 C373 1.416 . S
C375 C376 1.332 . S
C376 H355 0.929 . S
C376 C372 1.407 . S
C376 C375 1.332 . S
H377 C370 0.930 . S
H378 C401 0.930 . S
H379 C402 0.929 . S
O380 Tb336 2.465 . S
O380 C400 1.264 . S
O381 Tb336 2.387 . S
O381 C392 1.264 . S
O382 Tb347 2.349 1_455 S
O382 C392 1.243 . S
O383 Tb336 2.428 . S
O383 C400 1.256 . S
O384 Tb336 2.308 . S
O384 C399 1.266 . S
O385 Tb347 2.428 1_455 S
O385 C399 1.252 . S
O386 Tb347 2.465 . S
O386 C411 1.264 . S
O387 Tb347 2.387 1_465 S
O387 C403 1.264 . S
O388 Tb336 2.349 . S
O388 C403 1.243 1_545 S
O389 Tb347 2.428 . S
O389 C411 1.256 . S
O390 Tb347 2.308 1_455 S
O390 C410 1.266 . S
O391 Tb336 2.393 . S
O391 C410 1.248 . S
C392 O381 1.264 . S
C392 O382 1.243 . S
C393 C396 1.399 . S
C393 C398 1.383 . S
C393 C400 1.496 . S
C394 C395 1.399 . S
C394 C398 1.389 . S
C395 C394 1.399 . S
C395 C397 1.380 . S
C395 H412 0.929 . S
C396 C393 1.399 . S
C396 C397 1.392 . S
C396 H413 0.929 . S
C397 C395 1.380 . S
C397 C396 1.392 . S
C397 H414 0.929 . S
C398 C393 1.383 . S
C398 C394 1.389 . S
C398 H415 0.931 . S
C399 O384 1.266 . S
C399 O385 1.252 . S
C400 Tb336 2.802 . S
C400 O380 1.264 . S
C400 O383 1.256 . S
C400 C393 1.496 . S
C401 C368 1.448 . S
C401 H378 0.930 . S
C401 C402 1.328 . S
C402 C373 1.427 . S
C402 H379 0.929 . S
C402 C401 1.328 . S
C403 O387 1.264 . S
C403 O388 1.243 1_565 S
C404 C407 1.399 1_554 S
C404 C408 1.383 . S
C404 C411 1.496 . S
C405 C406 1.399 . S
C405 C408 1.389 . S
C406 C405 1.399 . S
C406 C409 1.380 1_554 S
C406 H416 0.929 . S
C407 C404 1.399 1_556 S
C407 C409 1.392 . S
C407 H417 0.929 . S
C408 C404 1.383 . S
C408 C405 1.389 . S
C408 H418 0.931 . S
C409 C406 1.380 1_556 S
C409 C407 1.392 . S
C409 H419 0.929 . S
C410 O390 1.266 . S
C410 O391 1.248 . S
C411 Tb347 2.802 . S
C411 O386 1.264 . S
C411 O389 1.256 . S
C411 C404 1.496 . S
H412 C395 0.929 . S
H413 C396 0.929 . S
H414 C397 0.929 . S
H415 C398 0.931 . S
H416 C406 0.929 . S
H417 C407 0.929 . S
H418 C408 0.931 . S
H419 C409 0.929 . S
Tb420 N449 2.617 . S
Tb420 N455 2.572 . S
Tb420 O464 2.465 . S
Tb420 O465 2.387 . S
Tb420 O467 2.428 . S
Tb420 O468 2.308 . S
Tb420 O472 2.349 . S
Tb420 O475 2.393 . S
Tb420 C484 2.802 . S
C421 N422 1.379 . S
C421 C424 1.416 . S
C421 C428 1.424 . S
N422 C421 1.379 . S
N422 C425 1.334 . S
N422 Tb431 2.617 . S
C423 C425 1.390 . S
C423 C426 1.339 . S
C423 H443 0.930 . S
C424 C421 1.416 . S
C424 C426 1.416 . S
C424 C430 1.448 . S
C425 N422 1.334 . S
C425 C423 1.390 . S
C425 H436 0.930 . S
C426 C423 1.339 . S
C426 C424 1.416 . S
C426 H447 0.930 . S
C427 C428 1.413 . S
C427 C429 1.427 . S
C427 C433 1.416 . S
C428 C421 1.424 . S
C428 C427 1.413 . S
C428 N432 1.361 . S
C429 C427 1.427 . S
C429 C430 1.328 . S
C429 H444 0.929 . S
C430 C424 1.448 . S
C430 C429 1.328 . S
C430 H445 0.930 . S
Tb431 N422 2.617 . S
Tb431 N432 2.572 . S
Tb431 O466 2.349 . S
Tb431 O469 2.393 . S
Tb431 O470 2.465 . S
Tb431 O471 2.387 . S
Tb431 O473 2.428 . S
Tb431 O474 2.308 . S
Tb431 C495 2.802 . S
N432 C428 1.361 . S
N432 Tb431 2.572 . S
N432 C434 1.340 . S
C433 C427 1.416 . S
C433 C435 1.332 . S
C433 H441 0.931 . S
C434 N432 1.340 . S
C434 C435 1.407 . S
C434 H440 0.930 . S
C435 C433 1.332 . S
C435 C434 1.407 . S
C435 H437 0.929 . S
H436 C425 0.930 . S
H437 C435 0.929 . S
H438 C453 0.930 . S
H439 C460 0.929 . S
H440 C434 0.930 . S
H441 C433 0.931 . S
H442 C456 0.930 . S
H443 C423 0.930 . S
H444 C429 0.929 . S
H445 C430 0.930 . S
H446 C451 0.930 . S
H447 C426 0.930 . S
H448 C459 0.931 . S
N449 Tb420 2.617 . S
N449 C450 1.379 . S
N449 C453 1.334 . S
C450 N449 1.379 . S
C450 C452 1.416 . S
C450 C458 1.424 . S
C451 H446 0.930 . S
C451 C453 1.390 . S
C451 C454 1.339 . S
C452 C450 1.416 . S
C452 C454 1.416 . S
C452 C485 1.448 . S
C453 H438 0.930 . S
C453 N449 1.334 . S
C453 C451 1.390 . S
C454 C451 1.339 . S
C454 C452 1.416 . S
C454 H461 0.930 . S
N455 Tb420 2.572 . S
N455 C456 1.340 . S
N455 C458 1.361 . S
C456 H442 0.930 . S
C456 N455 1.340 . S
C456 C460 1.407 . S
C457 C458 1.413 . S
C457 C459 1.416 . S
C457 C486 1.427 . S
C458 C450 1.424 . S
C458 N455 1.361 . S
C458 C457 1.413 . S
C459 H448 0.931 . S
C459 C457 1.416 . S
C459 C460 1.332 . S
C460 H439 0.929 . S
C460 C456 1.407 . S
C460 C459 1.332 . S
H461 C454 0.930 . S
H462 C485 0.930 . S
H463 C486 0.929 . S
O464 Tb420 2.465 . S
O464 C484 1.264 . S
O465 Tb420 2.387 . S
O465 C476 1.264 . S
O466 Tb431 2.349 . S
O466 C476 1.243 . S
O467 Tb420 2.428 . S
O467 C484 1.256 . S
O468 Tb420 2.308 . S
O468 C483 1.266 . S
O469 Tb431 2.393 . S
O469 C483 1.248 . S
O470 Tb431 2.465 . S
O470 C495 1.264 . S
O471 Tb431 2.387 . S
O471 C487 1.264 . S
O472 Tb420 2.349 . S
O472 C487 1.243 . S
O473 Tb431 2.428 . S
O473 C495 1.256 . S
O474 Tb431 2.308 . S
O474 C494 1.266 . S
O475 Tb420 2.393 . S
O475 C494 1.248 . S
C476 O465 1.264 . S
C476 O466 1.243 . S
C477 C480 1.399 . S
C477 C482 1.383 . S
C477 C484 1.496 . S
C478 C479 1.399 . S
C478 C482 1.389 . S
C479 C478 1.399 . S
C479 C481 1.380 . S
C479 H496 0.929 . S
C480 C477 1.399 . S
C480 C481 1.392 . S
C480 H497 0.929 . S
C481 C479 1.380 . S
C481 C480 1.392 . S
C481 H498 0.929 . S
C482 C477 1.383 . S
C482 C478 1.389 . S
C482 H499 0.931 . S
C483 O468 1.266 . S
C483 O469 1.248 . S
C484 Tb420 2.802 . S
C484 O464 1.264 . S
C484 O467 1.256 . S
C484 C477 1.496 . S
C485 C452 1.448 . S
C485 H462 0.930 . S
C485 C486 1.328 . S
C486 C457 1.427 . S
C486 H463 0.929 . S
C486 C485 1.328 . S
C487 O471 1.264 . S
C487 O472 1.243 . S
C488 C491 1.399 . S
C488 C492 1.383 . S
C488 C495 1.496 . S
C489 C490 1.399 . S
C489 C492 1.389 . S
C490 C489 1.399 . S
C490 C493 1.380 . S
C490 H500 0.929 . S
C491 C488 1.399 . S
C491 C493 1.392 . S
C491 H501 0.929 . S
C492 C488 1.383 . S
C492 C489 1.389 . S
C492 H502 0.931 . S
C493 C490 1.380 . S
C493 C491 1.392 . S
C493 H503 0.929 . S
C494 O474 1.266 . S
C494 O475 1.248 . S
C495 Tb431 2.802 . S
C495 O470 1.264 . S
C495 O473 1.256 . S
C495 C488 1.496 . S
H496 C479 0.929 . S
H497 C480 0.929 . S
H498 C481 0.929 . S
H499 C482 0.931 . S
H500 C490 0.929 . S
H501 C491 0.929 . S
H502 C492 0.931 . S
H503 C493 0.929 . S
Tb504 N533 2.602 1_545 S
Tb504 N539 2.572 1_545 S
Tb504 O548 2.465 . S
Tb504 O549 2.387 1_545 S
Tb504 O551 2.428 . S
Tb504 O552 2.308 . S
Tb504 O556 2.349 . S
Tb504 O559 2.393 . S
Tb504 C568 2.802 . S
C505 N506 1.379 . S
C505 C508 1.416 . S
C505 C512 1.424 . S
N506 C505 1.379 . S
N506 C509 1.334 . S
N506 Tb515 2.617 . S
C507 C509 1.390 . S
C507 C510 1.339 . S
C507 H527 0.930 . S
C508 C505 1.416 . S
C508 C510 1.416 . S
C508 C514 1.448 . S
C509 N506 1.334 . S
C509 C507 1.390 . S
C509 H520 0.930 . S
C510 C507 1.339 . S
C510 C508 1.416 . S
C510 H531 0.930 . S
C511 C512 1.413 . S
C511 C513 1.427 . S
C511 C517 1.416 . S
C512 C505 1.424 . S
C512 C511 1.413 . S
C512 N516 1.361 . S
C513 C511 1.427 . S
C513 C514 1.328 . S
C513 H528 0.929 . S
C514 C508 1.448 . S
C514 C513 1.328 . S
C514 H529 0.930 . S
Tb515 N506 2.617 . S
Tb515 N516 2.572 . S
Tb515 O550 2.349 1_545 S
Tb515 O553 2.393 . S
Tb515 O554 2.465 . S
Tb515 O555 2.387 . S
Tb515 O557 2.428 . S
Tb515 O558 2.308 . S
Tb515 C579 2.802 . S
N516 C512 1.361 . S
N516 Tb515 2.572 . S
N516 C518 1.340 . S
C517 C511 1.416 . S
C517 C519 1.332 . S
C517 H525 0.931 . S
C518 N516 1.340 . S
C518 C519 1.407 . S
C518 H524 0.930 . S
C519 C517 1.332 . S
C519 C518 1.407 . S
C519 H521 0.929 . S
H520 C509 0.930 . S
H521 C519 0.929 . S
H522 C537 0.930 . S
H523 C544 0.929 . S
H524 C518 0.930 . S
H525 C517 0.931 . S
H526 C540 0.930 . S
H527 C507 0.930 . S
H528 C513 0.929 . S
H529 C514 0.930 . S
H530 C535 0.930 . S
H531 C510 0.930 . S
H532 C543 0.931 . S
N533 Tb504 2.602 1_565 S
N533 C534 1.395 . S
N533 C537 1.336 1_565 S
C534 N533 1.395 . S
C534 C536 1.416 . S
C534 C542 1.424 . S
C535 H530 0.930 . S
C535 C537 1.390 1_565 S
C535 C538 1.339 . S
C536 C534 1.416 . S
C536 C538 1.416 . S
C536 C569 1.448 . S
C537 H522 0.930 . S
C537 N533 1.336 1_545 S
C537 C535 1.390 1_545 S
C538 C535 1.339 . S
C538 C536 1.416 . S
C538 H545 0.930 . S
N539 Tb504 2.572 1_565 S
N539 C540 1.340 . S
N539 C542 1.361 . S
C540 H526 0.930 . S
C540 N539 1.340 . S
C540 C544 1.407 . S
C541 C542 1.413 . S
C541 C543 1.416 . S
C541 C570 1.427 . S
C542 C534 1.424 . S
C542 N539 1.361 . S
C542 C541 1.413 . S
C543 H532 0.931 . S
C543 C541 1.416 . S
C543 C544 1.332 . S
C544 H523 0.929 . S
C544 C540 1.407 . S
C544 C543 1.332 . S
H545 C538 0.930 . S
H546 C569 0.930 . S
H547 C570 0.929 . S
O548 Tb504 2.465 . S
O548 C568 1.264 . S
O549 Tb504 2.387 1_565 S
O549 C560 1.264 . S
O550 Tb515 2.349 1_565 S
O550 C560 1.243 . S
O551 Tb504 2.428 . S
O551 C568 1.256 . S
O552 Tb504 2.308 . S
O552 C567 1.266 . S
O553 Tb515 2.393 . S
O553 C567 1.248 . S
O554 Tb515 2.465 . S
O554 C579 1.264 . S
O555 Tb515 2.387 . S
O555 C571 1.264 . S
O556 Tb504 2.349 . S
O556 C571 1.243 . S
O557 Tb515 2.428 . S
O557 C579 1.256 . S
O558 Tb515 2.308 . S
O558 C578 1.266 . S
O559 Tb504 2.393 . S
O559 C578 1.248 . S
C560 O549 1.264 . S
C560 O550 1.243 . S
C561 C564 1.399 . S
C561 C566 1.383 . S
C561 C568 1.496 . S
C562 C563 1.399 . S
C562 C566 1.389 . S
C563 C562 1.399 . S
C563 C565 1.380 . S
C563 H580 0.929 . S
C564 C561 1.399 . S
C564 C565 1.392 . S
C564 H581 0.929 . S
C565 C563 1.380 . S
C565 C564 1.392 . S
C565 H582 0.929 . S
C566 C561 1.383 . S
C566 C562 1.389 . S
C566 H583 0.931 . S
C567 O552 1.266 . S
C567 O553 1.248 . S
C568 Tb504 2.802 . S
C568 O548 1.264 . S
C568 O551 1.256 . S
C568 C561 1.496 . S
C569 C536 1.448 . S
C569 H546 0.930 . S
C569 C570 1.328 . S
C570 C541 1.427 . S
C570 H547 0.929 . S
C570 C569 1.328 . S
C571 O555 1.264 . S
C571 O556 1.243 . S
C572 C575 1.399 1_545 S
C572 C576 1.382 1_545 S
C572 C579 1.497 . S
C573 C574 1.399 . S
C573 C576 1.389 . S
C574 C573 1.399 . S
C574 C577 1.380 . S
C574 H584 0.929 . S
C575 C572 1.399 1_565 S
C575 C577 1.392 . S
C575 H585 0.929 . S
C576 C572 1.382 1_565 S
C576 C573 1.389 . S
C576 H586 0.931 . S
C577 C574 1.380 . S
C577 C575 1.392 . S
C577 H587 0.929 . S
C578 O558 1.266 . S
C578 O559 1.248 . S
C579 Tb515 2.802 . S
C579 O554 1.264 . S
C579 O557 1.256 . S
C579 C572 1.497 . S
H580 C563 0.929 . S
H581 C564 0.929 . S
H582 C565 0.929 . S
H583 C566 0.931 . S
H584 C574 0.929 . S
H585 C575 0.929 . S
H586 C576 0.931 . S
H587 C577 0.929 . S
Tb588 N617 2.617 . S
Tb588 N623 2.572 . S
Tb588 O632 2.465 . S
Tb588 O633 2.387 . S
Tb588 O635 2.428 . S
Tb588 O636 2.308 . S
Tb588 O640 2.349 . S
Tb588 O643 2.393 . S
Tb588 C652 2.802 . S
C589 N590 1.379 . S
C589 C592 1.416 . S
C589 C596 1.424 . S
N590 C589 1.379 . S
N590 C593 1.334 . S
N590 Tb599 2.617 . S
C591 C593 1.390 . S
C591 C594 1.339 . S
C591 H611 0.930 . S
C592 C589 1.416 . S
C592 C594 1.416 . S
C592 C598 1.448 . S
C593 N590 1.334 . S
C593 C591 1.390 . S
C593 H604 0.930 . S
C594 C591 1.339 . S
C594 C592 1.416 . S
C594 H615 0.930 . S
C595 C596 1.413 . S
C595 C597 1.427 . S
C595 C601 1.416 . S
C596 C589 1.424 . S
C596 C595 1.413 . S
C596 N600 1.361 . S
C597 C595 1.427 . S
C597 C598 1.328 . S
C597 H612 0.929 . S
C598 C592 1.448 . S
C598 C597 1.328 . S
C598 H613 0.930 . S
Tb599 N590 2.617 . S
Tb599 N600 2.572 . S
Tb599 O634 2.349 . S
Tb599 O637 2.393 . S
Tb599 O638 2.465 . S
Tb599 O639 2.387 . S
Tb599 O641 2.428 . S
Tb599 O642 2.308 . S
Tb599 C663 2.802 . S
N600 C596 1.361 . S
N600 Tb599 2.572 . S
N600 C602 1.340 . S
C601 C595 1.416 . S
C601 C603 1.332 . S
C601 H609 0.931 . S
C602 N600 1.340 . S
C602 C603 1.407 . S
C602 H608 0.930 . S
C603 C601 1.332 . S
C603 C602 1.407 . S
C603 H605 0.929 . S
H604 C593 0.930 . S
H605 C603 0.929 . S
H606 C621 0.930 . S
H607 C628 0.929 . S
H608 C602 0.930 . S
H609 C601 0.931 . S
H610 C624 0.930 . S
H611 C591 0.930 . S
H612 C597 0.929 . S
H613 C598 0.930 . S
H614 C619 0.930 . S
H615 C594 0.930 . S
H616 C627 0.931 . S
N617 Tb588 2.617 . S
N617 C618 1.379 . S
N617 C621 1.334 . S
C618 N617 1.379 . S
C618 C620 1.416 . S
C618 C626 1.424 . S
C619 H614 0.930 . S
C619 C621 1.390 . S
C619 C622 1.339 . S
C620 C618 1.416 . S
C620 C622 1.416 . S
C620 C653 1.448 . S
C621 H606 0.930 . S
C621 N617 1.334 . S
C621 C619 1.390 . S
C622 C619 1.339 . S
C622 C620 1.416 . S
C622 H629 0.930 . S
N623 Tb588 2.572 . S
N623 C624 1.340 . S
N623 C626 1.361 . S
C624 H610 0.930 . S
C624 N623 1.340 . S
C624 C628 1.407 . S
C625 C626 1.413 . S
C625 C627 1.416 . S
C625 C654 1.427 . S
C626 C618 1.424 . S
C626 N623 1.361 . S
C626 C625 1.413 . S
C627 H616 0.931 . S
C627 C625 1.416 . S
C627 C628 1.332 . S
C628 H607 0.929 . S
C628 C624 1.407 . S
C628 C627 1.332 . S
H629 C622 0.930 . S
H630 C653 0.930 . S
H631 C654 0.929 . S
O632 Tb588 2.465 . S
O632 C652 1.264 . S
O633 Tb588 2.387 . S
O633 C644 1.264 . S
O634 Tb599 2.349 . S
O634 C644 1.243 . S
O635 Tb588 2.428 . S
O635 C652 1.256 . S
O636 Tb588 2.308 . S
O636 C651 1.266 . S
O637 Tb599 2.393 . S
O637 C651 1.248 . S
O638 Tb599 2.465 . S
O638 C663 1.264 . S
O639 Tb599 2.387 . S
O639 C655 1.264 . S
O640 Tb588 2.349 . S
O640 C655 1.243 . S
O641 Tb599 2.428 . S
O641 C663 1.256 . S
O642 Tb599 2.308 . S
O642 C662 1.266 . S
O643 Tb588 2.393 . S
O643 C662 1.248 . S
C644 O633 1.264 . S
C644 O634 1.243 . S
C645 C648 1.399 . S
C645 C650 1.383 . S
C645 C652 1.496 . S
C646 C647 1.399 . S
C646 C650 1.389 . S
C647 C646 1.399 . S
C647 C649 1.380 . S
C647 H664 0.929 . S
C648 C645 1.399 . S
C648 C649 1.392 . S
C648 H665 0.929 . S
C649 C647 1.380 . S
C649 C648 1.392 . S
C649 H666 0.929 . S
C650 C645 1.383 . S
C650 C646 1.389 . S
C650 H667 0.931 . S
C651 O636 1.266 . S
C651 O637 1.248 . S
C652 Tb588 2.802 . S
C652 O632 1.264 . S
C652 O635 1.256 . S
C652 C645 1.496 . S
C653 C620 1.448 . S
C653 H630 0.930 . S
C653 C654 1.328 . S
C654 C625 1.427 . S
C654 H631 0.929 . S
C654 C653 1.328 . S
C655 O639 1.264 . S
C655 O640 1.243 . S
C656 C659 1.399 . S
C656 C660 1.383 . S
C656 C663 1.496 . S
C657 C658 1.399 . S
C657 C660 1.389 . S
C658 C657 1.399 . S
C658 C661 1.380 . S
C658 H668 0.929 . S
C659 C656 1.399 . S
C659 C661 1.392 . S
C659 H669 0.929 . S
C660 C656 1.383 . S
C660 C657 1.389 . S
C660 H670 0.931 . S
C661 C658 1.380 . S
C661 C659 1.392 . S
C661 H671 0.929 . S
C662 O642 1.266 . S
C662 O643 1.248 . S
C663 Tb599 2.802 . S
C663 O638 1.264 . S
C663 O641 1.256 . S
C663 C656 1.496 . S
H664 C647 0.929 . S
H665 C648 0.929 . S
H666 C649 0.929 . S
H667 C650 0.931 . S
H668 C658 0.929 . S
H669 C659 0.929 . S
H670 C660 0.931 . S
H671 C661 0.929 . S
Tb672 N701 2.617 1_545 S
Tb672 N707 2.572 1_545 S
Tb672 O716 2.465 1_545 S
Tb672 O717 2.387 . S
Tb672 O719 2.428 1_545 S
Tb672 O720 2.308 . S
Tb672 O724 2.349 . S
Tb672 O727 2.393 . S
Tb672 C736 2.802 1_545 S
C673 N674 1.379 . S
C673 C676 1.416 . S
C673 C680 1.424 . S
N674 C673 1.379 . S
N674 C677 1.334 1_455 S
N674 Tb683 2.617 . S
C675 C677 1.390 . S
C675 C678 1.339 . S
C675 H695 0.930 . S
C676 C673 1.416 . S
C676 C678 1.416 1_455 S
C676 C682 1.448 . S
C677 N674 1.334 1_655 S
C677 C675 1.390 . S
C677 H688 0.930 . S
C678 C675 1.339 . S
C678 C676 1.416 1_655 S
C678 H699 0.930 . S
C679 C680 1.413 . S
C679 C681 1.427 . S
C679 C685 1.416 . S
C680 C673 1.424 . S
C680 C679 1.413 . S
C680 N684 1.361 . S
C681 C679 1.427 . S
C681 C682 1.328 . S
C681 H696 0.929 . S
C682 C676 1.448 . S
C682 C681 1.328 . S
C682 H697 0.930 . S
Tb683 N674 2.617 . S
Tb683 N684 2.572 . S
Tb683 O718 2.349 . S
Tb683 O721 2.393 1_455 S
Tb683 O722 2.465 . S
Tb683 O723 2.387 . S
Tb683 O725 2.428 . S
Tb683 O726 2.308 . S
Tb683 C747 2.802 . S
N684 C680 1.361 . S
N684 Tb683 2.572 . S
N684 C686 1.340 . S
C685 C679 1.416 . S
C685 C687 1.332 . S
C685 H693 0.931 . S
C686 N684 1.340 . S
C686 C687 1.407 . S
C686 H692 0.930 . S
C687 C685 1.332 . S
C687 C686 1.407 . S
C687 H689 0.929 . S
H688 C677 0.930 . S
H689 C687 0.929 . S
H690 C705 0.930 1_545 S
H691 C712 0.929 . S
H692 C686 0.930 . S
H693 C685 0.931 . S
H694 C708 0.930 1_655 S
H695 C675 0.930 . S
H696 C681 0.929 . S
H697 C682 0.930 . S
H698 C703 0.925 1_545 S
H699 C678 0.930 . S
H700 C711 0.936 . S
N701 Tb672 2.617 1_565 S
N701 C702 1.379 . S
N701 C705 1.334 . S
C702 N701 1.379 . S
C702 C704 1.416 . S
C702 C710 1.424 . S
C703 H698 0.925 1_565 S
C703 C705 1.390 . S
C703 C706 1.339 . S
C704 C702 1.416 . S
C704 C706 1.416 . S
C704 C737 1.448 . S
C705 H690 0.930 1_565 S
C705 N701 1.334 . S
C705 C703 1.390 . S
C706 C703 1.339 . S
C706 C704 1.416 . S
C706 H713 0.930 . S
N707 Tb672 2.572 1_565 S
N707 C708 1.340 . S
N707 C710 1.361 . S
C708 H694 0.930 1_455 S
C708 N707 1.340 . S
C708 C712 1.407 1_455 S
C709 C710 1.413 . S
C709 C711 1.402 1_455 S
C709 C738 1.427 . S
C710 C702 1.424 . S
C710 N707 1.361 . S
C710 C709 1.413 . S
C711 H700 0.936 . S
C711 C709 1.402 1_655 S
C711 C712 1.342 . S
C712 H691 0.929 . S
C712 C708 1.407 1_655 S
C712 C711 1.342 . S
H713 C706 0.930 . S
H714 C737 0.930 . S
H715 C738 0.929 . S
O716 Tb672 2.465 1_565 S
O716 C736 1.264 . S
O717 Tb672 2.387 . S
O717 C728 1.264 . S
O718 Tb683 2.349 . S
O718 C728 1.243 . S
O719 Tb672 2.428 1_565 S
O719 C736 1.256 . S
O720 Tb672 2.308 . S
O720 C735 1.266 1_455 S
O721 Tb683 2.393 1_655 S
O721 C735 1.248 . S
O722 Tb683 2.465 . S
O722 C747 1.264 . S
O723 Tb683 2.387 . S
O723 C739 1.264 . S
O724 Tb672 2.349 . S
O724 C739 1.243 . S
O725 Tb683 2.428 . S
O725 C747 1.256 . S
O726 Tb683 2.308 . S
O726 C746 1.266 . S
O727 Tb672 2.393 . S
O727 C746 1.248 . S
C728 O717 1.264 . S
C728 O718 1.243 . S
C729 C732 1.399 . S
C729 C734 1.383 . S
C729 C736 1.496 . S
C730 C731 1.399 . S
C730 C734 1.389 . S
C731 C730 1.399 . S
C731 C733 1.380 . S
C731 H748 0.929 . S
C732 C729 1.399 . S
C732 C733 1.392 . S
C732 H749 0.929 . S
C733 C731 1.380 . S
C733 C732 1.392 . S
C733 H750 0.929 . S
C734 C729 1.383 . S
C734 C730 1.389 . S
C734 H751 0.931 . S
C735 O720 1.266 1_655 S
C735 O721 1.248 . S
C736 Tb672 2.802 1_565 S
C736 O716 1.264 . S
C736 O719 1.256 . S
C736 C729 1.496 . S
C737 C704 1.448 . S
C737 H714 0.930 . S
C737 C738 1.328 . S
C738 C709 1.427 . S
C738 H715 0.929 . S
C738 C737 1.328 . S
C739 O723 1.264 . S
C739 O724 1.243 . S
C740 C743 1.399 1_455 S
C740 C744 1.383 . S
C740 C747 1.496 . S
C741 C742 1.399 . S
C741 C744 1.389 . S
C742 C741 1.399 . S
C742 C745 1.380 1_455 S
C742 H752 0.929 . S
C743 C740 1.399 1_655 S
C743 C745 1.392 . S
C743 H753 0.929 . S
C744 C740 1.383 . S
C744 C741 1.389 . S
C744 H754 0.931 . S
C745 C742 1.380 1_655 S
C745 C743 1.392 . S
C745 H755 0.929 . S
C746 O726 1.266 . S
C746 O727 1.248 . S
C747 Tb683 2.802 . S
C747 O722 1.264 . S
C747 O725 1.256 . S
C747 C740 1.496 . S
H748 C731 0.929 . S
H749 C732 0.929 . S
H750 C733 0.929 . S
H751 C734 0.931 . S
H752 C742 0.929 . S
H753 C743 0.929 . S
H754 C744 0.931 . S
H755 C745 0.929 . S
Tb756 N785 2.617 . S
Tb756 N791 2.572 . S
Tb756 O800 2.465 . S
Tb756 O801 2.387 . S
Tb756 O803 2.428 . S
Tb756 O804 2.308 . S
Tb756 O808 2.349 . S
Tb756 O811 2.393 . S
Tb756 C820 2.802 . S
C757 N758 1.379 . S
C757 C760 1.416 . S
C757 C764 1.424 . S
N758 C757 1.379 . S
N758 C761 1.334 . S
N758 Tb767 2.617 . S
C759 C761 1.390 . S
C759 C762 1.339 . S
C759 H779 0.930 . S
C760 C757 1.416 . S
C760 C762 1.416 . S
C760 C766 1.448 . S
C761 N758 1.334 . S
C761 C759 1.390 . S
C761 H772 0.930 . S
C762 C759 1.339 . S
C762 C760 1.416 . S
C762 H783 0.930 . S
C763 C764 1.413 . S
C763 C765 1.427 . S
C763 C769 1.416 . S
C764 C757 1.424 . S
C764 C763 1.413 . S
C764 N768 1.361 . S
C765 C763 1.427 . S
C765 C766 1.328 . S
C765 H780 0.929 . S
C766 C760 1.448 . S
C766 C765 1.328 . S
C766 H781 0.930 . S
Tb767 N758 2.617 . S
Tb767 N768 2.572 . S
Tb767 O802 2.349 . S
Tb767 O805 2.393 . S
Tb767 O806 2.465 . S
Tb767 O807 2.387 . S
Tb767 O809 2.428 . S
Tb767 O810 2.308 . S
Tb767 C831 2.802 . S
N768 C764 1.361 . S
N768 Tb767 2.572 . S
N768 C770 1.340 . S
C769 C763 1.416 . S
C769 C771 1.332 . S
C769 H777 0.931 . S
C770 N768 1.340 . S
C770 C771 1.407 . S
C770 H776 0.930 . S
C771 C769 1.332 . S
C771 C770 1.407 . S
C771 H773 0.929 . S
H772 C761 0.930 . S
H773 C771 0.929 . S
H774 C789 0.930 . S
H775 C796 0.929 . S
H776 C770 0.930 . S
H777 C769 0.931 . S
H778 C792 0.930 . S
H779 C759 0.930 . S
H780 C765 0.929 . S
H781 C766 0.930 . S
H782 C787 0.930 . S
H783 C762 0.930 . S
H784 C795 0.931 . S
N785 Tb756 2.617 . S
N785 C786 1.379 . S
N785 C789 1.334 . S
C786 N785 1.379 . S
C786 C788 1.416 . S
C786 C794 1.424 . S
C787 H782 0.930 . S
C787 C789 1.390 . S
C787 C790 1.339 . S
C788 C786 1.416 . S
C788 C790 1.416 . S
C788 C821 1.448 . S
C789 H774 0.930 . S
C789 N785 1.334 . S
C789 C787 1.390 . S
C790 C787 1.339 . S
C790 C788 1.416 . S
C790 H797 0.930 . S
N791 Tb756 2.572 . S
N791 C792 1.340 . S
N791 C794 1.361 . S
C792 H778 0.930 . S
C792 N791 1.340 . S
C792 C796 1.407 . S
C793 C794 1.413 . S
C793 C795 1.416 . S
C793 C822 1.427 . S
C794 C786 1.424 . S
C794 N791 1.361 . S
C794 C793 1.413 . S
C795 H784 0.931 . S
C795 C793 1.416 . S
C795 C796 1.332 . S
C796 H775 0.929 . S
C796 C792 1.407 . S
C796 C795 1.332 . S
H797 C790 0.930 . S
H798 C821 0.930 . S
H799 C822 0.929 . S
O800 Tb756 2.465 . S
O800 C820 1.264 . S
O801 Tb756 2.387 . S
O801 C812 1.264 . S
O802 Tb767 2.349 . S
O802 C812 1.243 . S
O803 Tb756 2.428 . S
O803 C820 1.256 . S
O804 Tb756 2.308 . S
O804 C819 1.266 . S
O805 Tb767 2.393 . S
O805 C819 1.248 . S
O806 Tb767 2.465 . S
O806 C831 1.264 . S
O807 Tb767 2.387 . S
O807 C823 1.264 . S
O808 Tb756 2.349 . S
O808 C823 1.243 . S
O809 Tb767 2.428 . S
O809 C831 1.256 . S
O810 Tb767 2.308 . S
O810 C830 1.266 . S
O811 Tb756 2.393 . S
O811 C830 1.248 . S
C812 O801 1.264 . S
C812 O802 1.243 . S
C813 C816 1.399 . S
C813 C818 1.383 . S
C813 C820 1.496 . S
C814 C815 1.399 . S
C814 C818 1.389 . S
C815 C814 1.399 . S
C815 C817 1.380 . S
C815 H832 0.929 . S
C816 C813 1.399 . S
C816 C817 1.392 . S
C816 H833 0.929 . S
C817 C815 1.380 . S
C817 C816 1.392 . S
C817 H834 0.929 . S
C818 C813 1.383 . S
C818 C814 1.389 . S
C818 H835 0.931 . S
C819 O804 1.266 . S
C819 O805 1.248 . S
C820 Tb756 2.802 . S
C820 O800 1.264 . S
C820 O803 1.256 . S
C820 C813 1.496 . S
C821 C788 1.448 . S
C821 H798 0.930 . S
C821 C822 1.328 . S
C822 C793 1.427 . S
C822 H799 0.929 . S
C822 C821 1.328 . S
C823 O807 1.264 . S
C823 O808 1.243 . S
C824 C827 1.399 . S
C824 C828 1.383 . S
C824 C831 1.496 . S
C825 C826 1.399 . S
C825 C828 1.389 . S
C826 C825 1.399 . S
C826 C829 1.380 . S
C826 H836 0.929 . S
C827 C824 1.399 . S
C827 C829 1.392 . S
C827 H837 0.929 . S
C828 C824 1.383 . S
C828 C825 1.389 . S
C828 H838 0.931 . S
C829 C826 1.380 . S
C829 C827 1.392 . S
C829 H839 0.929 . S
C830 O810 1.266 . S
C830 O811 1.248 . S
C831 Tb767 2.802 . S
C831 O806 1.264 . S
C831 O809 1.256 . S
C831 C824 1.496 . S
H832 C815 0.929 . S
H833 C816 0.929 . S
H834 C817 0.929 . S
H835 C818 0.931 . S
H836 C826 0.929 . S
H837 C827 0.929 . S
H838 C828 0.931 . S
H839 C829 0.929 . S
Tb840 N869 2.617 1_554 S
Tb840 N875 2.572 1_554 S
Tb840 O884 2.465 1_554 S
Tb840 O885 2.387 . S
Tb840 O887 2.428 1_554 S
Tb840 O888 2.308 . S
Tb840 O892 2.349 . S
Tb840 O895 2.393 . S
Tb840 C904 2.802 1_554 S
C841 N842 1.379 1_545 S
C841 C844 1.416 1_545 S
C841 C848 1.424 . S
N842 C841 1.379 1_565 S
N842 C845 1.334 . S
N842 Tb851 2.617 1_565 S
C843 C845 1.390 . S
C843 C846 1.339 . S
C843 H863 0.930 . S
C844 C841 1.416 1_565 S
C844 C846 1.416 . S
C844 C850 1.448 1_565 S
C845 N842 1.334 . S
C845 C843 1.390 . S
C845 H856 0.930 . S
C846 C843 1.339 . S
C846 C844 1.416 . S
C846 H867 0.930 . S
C847 C848 1.413 . S
C847 C849 1.427 . S
C847 C853 1.416 . S
C848 C841 1.424 . S
C848 C847 1.413 . S
C848 N852 1.361 . S
C849 C847 1.427 . S
C849 C850 1.328 . S
C849 H864 0.929 . S
C850 C844 1.448 1_545 S
C850 C849 1.328 . S
C850 H865 0.930 1_545 S
Tb851 N842 2.617 1_545 S
Tb851 N852 2.572 . S
Tb851 O886 2.349 . S
Tb851 O889 2.393 1_545 S
Tb851 O890 2.465 . S
Tb851 O891 2.387 . S
Tb851 O893 2.428 1_545 S
Tb851 O894 2.308 . S
Tb851 C915 2.802 . S
N852 C848 1.361 . S
N852 Tb851 2.572 . S
N852 C854 1.340 . S
C853 C847 1.416 . S
C853 C855 1.332 . S
C853 H861 0.931 . S
C854 N852 1.340 . S
C854 C855 1.407 . S
C854 H860 0.930 . S
C855 C853 1.332 . S
C855 C854 1.407 . S
C855 H857 0.929 . S
H856 C845 0.930 . S
H857 C855 0.929 . S
H858 C873 0.930 . S
H859 C880 0.929 . S
H860 C854 0.930 . S
H861 C853 0.931 . S
H862 C876 0.931 1_565 S
H863 C843 0.930 . S
H864 C849 0.929 . S
H865 C850 0.930 1_565 S
H866 C871 0.930 . S
H867 C846 0.930 . S
H868 C879 0.931 1_565 S
N869 Tb840 2.617 1_556 S
N869 C870 1.379 . S
N869 C873 1.334 1_556 S
C870 N869 1.379 . S
C870 C872 1.416 . S
C870 C878 1.424 . S
C871 H866 0.930 . S
C871 C873 1.390 . S
C871 C874 1.339 1_554 S
C872 C870 1.416 . S
C872 C874 1.416 . S
C872 C905 1.448 . S
C873 H858 0.930 . S
C873 N869 1.334 1_554 S
C873 C871 1.390 . S
C874 C871 1.339 1_556 S
C874 C872 1.416 . S
C874 H881 0.930 . S
N875 Tb840 2.572 1_556 S
N875 C876 1.340 . S
N875 C878 1.361 . S
C876 H862 0.931 1_545 S
C876 N875 1.340 . S
C876 C880 1.407 1_545 S
C877 C878 1.413 . S
C877 C879 1.416 . S
C877 C906 1.427 . S
C878 C870 1.424 . S
C878 N875 1.361 . S
C878 C877 1.413 . S
C879 H868 0.931 1_545 S
C879 C877 1.416 . S
C879 C880 1.332 1_545 S
C880 H859 0.929 . S
C880 C876 1.407 1_565 S
C880 C879 1.332 1_565 S
H881 C874 0.930 . S
H882 C905 0.930 . S
H883 C906 0.929 . S
O884 Tb840 2.465 1_556 S
O884 C904 1.264 . S
O885 Tb840 2.387 . S
O885 C896 1.264 . S
O886 Tb851 2.349 . S
O886 C896 1.243 . S
O887 Tb840 2.428 1_556 S
O887 C904 1.256 . S
O888 Tb840 2.308 . S
O888 C903 1.266 1_545 S
O889 Tb851 2.393 1_565 S
O889 C903 1.248 . S
O890 Tb851 2.465 . S
O890 C915 1.264 . S
O891 Tb851 2.387 . S
O891 C907 1.264 . S
O892 Tb840 2.349 . S
O892 C907 1.243 . S
O893 Tb851 2.428 1_565 S
O893 C915 1.256 1_565 S
O894 Tb851 2.308 . S
O894 C914 1.266 . S
O895 Tb840 2.393 . S
O895 C914 1.248 . S
C896 O885 1.264 . S
C896 O886 1.243 . S
C897 C900 1.399 . S
C897 C902 1.383 . S
C897 C904 1.496 . S
C898 C899 1.399 . S
C898 C902 1.389 . S
C899 C898 1.399 . S
C899 C901 1.380 . S
C899 H916 0.929 . S
C900 C897 1.399 . S
C900 C901 1.392 . S
C900 H917 0.929 . S
C901 C899 1.380 . S
C901 C900 1.392 . S
C901 H918 0.929 . S
C902 C897 1.383 . S
C902 C898 1.389 . S
C902 H919 0.931 . S
C903 O888 1.266 1_565 S
C903 O889 1.248 . S
C904 Tb840 2.802 1_556 S
C904 O884 1.264 . S
C904 O887 1.256 . S
C904 C897 1.496 . S
C905 C872 1.448 . S
C905 H882 0.930 . S
C905 C906 1.328 . S
C906 C877 1.427 . S
C906 H883 0.929 . S
C906 C905 1.328 . S
C907 O891 1.264 . S
C907 O892 1.243 . S
C908 C911 1.399 . S
C908 C912 1.383 1_565 S
C908 C915 1.496 1_565 S
C909 C910 1.399 1_545 S
C909 C912 1.389 . S
C910 C909 1.399 1_565 S
C910 C913 1.380 . S
C910 H920 0.929 . S
C911 C908 1.399 . S
C911 C913 1.392 . S
C911 H921 0.929 . S
C912 C908 1.383 1_545 S
C912 C909 1.389 . S
C912 H922 0.931 . S
C913 C910 1.380 . S
C913 C911 1.392 . S
C913 H923 0.929 . S
C914 O894 1.266 . S
C914 O895 1.248 . S
C915 Tb851 2.802 . S
C915 O890 1.264 . S
C915 O893 1.256 1_545 S
C915 C908 1.496 1_545 S
H916 C899 0.929 . S
H917 C900 0.929 . S
H918 C901 0.929 . S
H919 C902 0.931 . S
H920 C910 0.929 . S
H921 C911 0.929 . S
H922 C912 0.931 . S
H923 C913 0.929 . S
Tb924 N953 2.617 . S
Tb924 N959 2.572 . S
Tb924 O968 2.465 . S
Tb924 O969 2.387 . S
Tb924 O971 2.428 . S
Tb924 O972 2.308 . S
Tb924 O976 2.349 . S
Tb924 O979 2.393 . S
Tb924 C988 2.802 . S
C925 N926 1.379 . S
C925 C928 1.416 . S
C925 C932 1.424 . S
N926 C925 1.379 . S
N926 C929 1.334 . S
N926 Tb935 2.617 . S
C927 C929 1.390 . S
C927 C930 1.339 . S
C927 H947 0.930 . S
C928 C925 1.416 . S
C928 C930 1.416 . S
C928 C934 1.448 . S
C929 N926 1.334 . S
C929 C927 1.390 . S
C929 H940 0.930 . S
C930 C927 1.339 . S
C930 C928 1.416 . S
C930 H951 0.930 . S
C931 C932 1.413 . S
C931 C933 1.427 . S
C931 C937 1.416 . S
C932 C925 1.424 . S
C932 C931 1.413 . S
C932 N936 1.361 . S
C933 C931 1.427 . S
C933 C934 1.328 . S
C933 H948 0.929 . S
C934 C928 1.448 . S
C934 C933 1.328 . S
C934 H949 0.930 . S
Tb935 N926 2.617 . S
Tb935 N936 2.572 . S
Tb935 O970 2.349 . S
Tb935 O973 2.393 . S
Tb935 O974 2.465 . S
Tb935 O975 2.387 . S
Tb935 O977 2.428 . S
Tb935 O978 2.308 . S
Tb935 C999 2.802 . S
N936 C932 1.361 . S
N936 Tb935 2.572 . S
N936 C938 1.340 . S
C937 C931 1.416 . S
C937 C939 1.332 . S
C937 H945 0.931 . S
C938 N936 1.340 . S
C938 C939 1.407 . S
C938 H944 0.930 . S
C939 C937 1.332 . S
C939 C938 1.407 . S
C939 H941 0.929 . S
H940 C929 0.930 . S
H941 C939 0.929 . S
H942 C957 0.930 . S
H943 C964 0.929 . S
H944 C938 0.930 . S
H945 C937 0.931 . S
H946 C960 0.930 . S
H947 C927 0.930 . S
H948 C933 0.929 . S
H949 C934 0.930 . S
H950 C955 0.930 . S
H951 C930 0.930 . S
H952 C963 0.931 . S
N953 Tb924 2.617 . S
N953 C954 1.379 . S
N953 C957 1.334 . S
C954 N953 1.379 . S
C954 C956 1.416 . S
C954 C962 1.424 . S
C955 H950 0.930 . S
C955 C957 1.390 . S
C955 C958 1.339 . S
C956 C954 1.416 . S
C956 C958 1.416 . S
C956 C989 1.448 . S
C957 H942 0.930 . S
C957 N953 1.334 . S
C957 C955 1.390 . S
C958 C955 1.339 . S
C958 C956 1.416 . S
C958 H965 0.930 . S
N959 Tb924 2.572 . S
N959 C960 1.340 . S
N959 C962 1.361 . S
C960 H946 0.930 . S
C960 N959 1.340 . S
C960 C964 1.407 . S
C961 C962 1.413 . S
C961 C963 1.416 . S
C961 C990 1.427 . S
C962 C954 1.424 . S
C962 N959 1.361 . S
C962 C961 1.413 . S
C963 H952 0.931 . S
C963 C961 1.416 . S
C963 C964 1.332 . S
C964 H943 0.929 . S
C964 C960 1.407 . S
C964 C963 1.332 . S
H965 C958 0.930 . S
H966 C989 0.930 . S
H967 C990 0.929 . S
O968 Tb924 2.465 . S
O968 C988 1.264 . S
O969 Tb924 2.387 . S
O969 C980 1.264 . S
O970 Tb935 2.349 . S
O970 C980 1.243 . S
O971 Tb924 2.428 . S
O971 C988 1.256 . S
O972 Tb924 2.308 . S
O972 C987 1.266 . S
O973 Tb935 2.393 . S
O973 C987 1.248 . S
O974 Tb935 2.465 . S
O974 C999 1.264 . S
O975 Tb935 2.387 . S
O975 C991 1.264 . S
O976 Tb924 2.349 . S
O976 C991 1.243 . S
O977 Tb935 2.428 . S
O977 C999 1.256 . S
O978 Tb935 2.308 . S
O978 C998 1.266 . S
O979 Tb924 2.393 . S
O979 C998 1.248 . S
C980 O969 1.264 . S
C980 O970 1.243 . S
C981 C984 1.399 . S
C981 C986 1.383 . S
C981 C988 1.496 . S
C982 C983 1.399 . S
C982 C986 1.389 . S
C983 C982 1.399 . S
C983 C985 1.380 . S
C983 H1000 0.929 . S
C984 C981 1.399 . S
C984 C985 1.392 . S
C984 H1001 0.929 . S
C985 C983 1.380 . S
C985 C984 1.392 . S
C985 H1002 0.929 . S
C986 C981 1.383 . S
C986 C982 1.389 . S
C986 H1003 0.931 . S
C987 O972 1.266 . S
C987 O973 1.248 . S
C988 Tb924 2.802 . S
C988 O968 1.264 . S
C988 O971 1.256 . S
C988 C981 1.496 . S
C989 C956 1.448 . S
C989 H966 0.930 . S
C989 C990 1.328 . S
C990 C961 1.427 . S
C990 H967 0.929 . S
C990 C989 1.328 . S
C991 O975 1.264 . S
C991 O976 1.243 . S
C992 C995 1.399 . S
C992 C996 1.383 . S
C992 C999 1.496 . S
C993 C994 1.399 . S
C993 C996 1.389 . S
C994 C993 1.399 . S
C994 C997 1.380 . S
C994 H1004 0.929 . S
C995 C992 1.399 . S
C995 C997 1.392 . S
C995 H1005 0.929 . S
C996 C992 1.383 . S
C996 C993 1.389 . S
C996 H1006 0.931 . S
C997 C994 1.380 . S
C997 C995 1.392 . S
C997 H1007 0.929 . S
C998 O978 1.266 . S
C998 O979 1.248 . S
C999 Tb935 2.802 . S
C999 O974 1.264 . S
C999 O977 1.256 . S
C999 C992 1.496 . S
H1000 C983 0.929 . S
H1001 C984 0.929 . S
H1002 C985 0.929 . S
H1003 C986 0.931 . S
H1004 C994 0.929 . S
H1005 C995 0.929 . S
H1006 C996 0.931 . S
H1007 C997 0.929 . S
Tb1008 N1037 2.617 . S
Tb1008 N1043 2.572 . S
Tb1008 O1052 2.465 . S
Tb1008 O1053 2.387 . S
Tb1008 O1055 2.428 . S
Tb1008 O1056 2.308 . S
Tb1008 O1060 2.349 . S
Tb1008 O1063 2.393 . S
Tb1008 C1072 2.802 . S
C1009 N1010 1.379 . S
C1009 C1012 1.416 . S
C1009 C1016 1.424 . S
N1010 C1009 1.379 . S
N1010 C1013 1.334 . S
N1010 Tb1019 2.617 . S
C1011 C1013 1.390 . S
C1011 C1014 1.339 . S
C1011 H1031 0.930 . S
C1012 C1009 1.416 . S
C1012 C1014 1.416 . S
C1012 C1018 1.448 . S
C1013 N1010 1.334 . S
C1013 C1011 1.390 . S
C1013 H1024 0.930 . S
C1014 C1011 1.339 . S
C1014 C1012 1.416 . S
C1014 H1035 0.930 . S
C1015 C1016 1.413 . S
C1015 C1017 1.427 . S
C1015 C1021 1.416 . S
C1016 C1009 1.424 . S
C1016 C1015 1.413 . S
C1016 N1020 1.361 . S
C1017 C1015 1.427 . S
C1017 C1018 1.328 . S
C1017 H1032 0.929 . S
C1018 C1012 1.448 . S
C1018 C1017 1.328 . S
C1018 H1033 0.930 . S
Tb1019 N1010 2.617 . S
Tb1019 N1020 2.572 . S
Tb1019 O1054 2.349 . S
Tb1019 O1057 2.393 . S
Tb1019 O1058 2.465 . S
Tb1019 O1059 2.387 . S
Tb1019 O1061 2.428 . S
Tb1019 O1062 2.308 . S
Tb1019 C1083 2.802 . S
N1020 C1016 1.361 . S
N1020 Tb1019 2.572 . S
N1020 C1022 1.340 . S
C1021 C1015 1.416 . S
C1021 C1023 1.332 . S
C1021 H1029 0.931 . S
C1022 N1020 1.340 . S
C1022 C1023 1.407 . S
C1022 H1028 0.930 . S
C1023 C1021 1.332 . S
C1023 C1022 1.407 . S
C1023 H1025 0.929 . S
H1024 C1013 0.930 . S
H1025 C1023 0.929 . S
H1026 C1041 0.930 . S
H1027 C1048 0.929 . S
H1028 C1022 0.930 . S
H1029 C1021 0.931 . S
H1030 C1044 0.930 . S
H1031 C1011 0.930 . S
H1032 C1017 0.929 . S
H1033 C1018 0.930 . S
H1034 C1039 0.930 . S
H1035 C1014 0.930 . S
H1036 C1047 0.931 . S
N1037 Tb1008 2.617 . S
N1037 C1038 1.379 1_554 S
N1037 C1041 1.334 . S
C1038 N1037 1.379 1_556 S
C1038 C1040 1.416 . S
C1038 C1046 1.424 . S
C1039 H1034 0.930 . S
C1039 C1041 1.390 1_556 S
C1039 C1042 1.339 . S
C1040 C1038 1.416 . S
C1040 C1042 1.416 . S
C1040 C1073 1.448 . S
C1041 H1026 0.930 . S
C1041 N1037 1.334 . S
C1041 C1039 1.390 1_554 S
C1042 C1039 1.339 . S
C1042 C1040 1.416 . S
C1042 H1049 0.930 . S
N1043 Tb1008 2.572 . S
N1043 C1044 1.340 . S
N1043 C1046 1.361 1_554 S
C1044 H1030 0.930 . S
C1044 N1043 1.340 . S
C1044 C1048 1.407 1_554 S
C1045 C1046 1.413 . S
C1045 C1047 1.416 . S
C1045 C1074 1.427 . S
C1046 C1038 1.424 . S
C1046 N1043 1.361 1_556 S
C1046 C1045 1.413 . S
C1047 H1036 0.931 . S
C1047 C1045 1.416 . S
C1047 C1048 1.332 . S
C1048 H1027 0.929 . S
C1048 C1044 1.407 1_556 S
C1048 C1047 1.332 . S
H1049 C1042 0.930 . S
H1050 C1073 0.930 . S
H1051 C1074 0.929 . S
O1052 Tb1008 2.465 . S
O1052 C1072 1.264 . S
O1053 Tb1008 2.387 . S
O1053 C1064 1.264 1_554 S
O1054 Tb1019 2.349 . S
O1054 C1064 1.243 1_554 S
O1055 Tb1008 2.428 . S
O1055 C1072 1.256 . S
O1056 Tb1008 2.308 . S
O1056 C1071 1.266 . S
O1057 Tb1019 2.393 . S
O1057 C1071 1.248 . S
O1058 Tb1019 2.465 . S
O1058 C1083 1.264 . S
O1059 Tb1019 2.387 . S
O1059 C1075 1.264 . S
O1060 Tb1008 2.349 . S
O1060 C1075 1.243 . S
O1061 Tb1019 2.428 . S
O1061 C1083 1.256 . S
O1062 Tb1019 2.308 . S
O1062 C1082 1.266 . S
O1063 Tb1008 2.393 . S
O1063 C1082 1.248 . S
C1064 O1053 1.264 1_556 S
C1064 O1054 1.243 1_556 S
C1065 C1068 1.399 . S
C1065 C1070 1.383 . S
C1065 C1072 1.496 . S
C1066 C1067 1.399 . S
C1066 C1070 1.389 . S
C1067 C1066 1.399 . S
C1067 C1069 1.380 . S
C1067 H1084 0.929 . S
C1068 C1065 1.399 . S
C1068 C1069 1.392 . S
C1068 H1085 0.929 . S
C1069 C1067 1.380 . S
C1069 C1068 1.392 . S
C1069 H1086 0.929 . S
C1070 C1065 1.383 . S
C1070 C1066 1.389 . S
C1070 H1087 0.931 . S
C1071 O1056 1.266 . S
C1071 O1057 1.248 . S
C1072 Tb1008 2.802 . S
C1072 O1052 1.264 . S
C1072 O1055 1.256 . S
C1072 C1065 1.496 . S
C1073 C1040 1.448 . S
C1073 H1050 0.930 . S
C1073 C1074 1.328 . S
C1074 C1045 1.427 . S
C1074 H1051 0.929 . S
C1074 C1073 1.328 . S
C1075 O1059 1.264 . S
C1075 O1060 1.243 . S
C1076 C1079 1.399 . S
C1076 C1080 1.383 . S
C1076 C1083 1.496 . S
C1077 C1078 1.399 . S
C1077 C1080 1.389 1_556 S
C1078 C1077 1.399 . S
C1078 C1081 1.380 1_556 S
C1078 H1088 0.929 . S
C1079 C1076 1.399 . S
C1079 C1081 1.392 . S
C1079 H1089 0.929 . S
C1080 C1076 1.383 . S
C1080 C1077 1.389 1_554 S
C1080 H1090 0.931 . S
C1081 C1078 1.380 1_554 S
C1081 C1079 1.392 . S
C1081 H1091 0.929 1_554 S
C1082 O1062 1.266 . S
C1082 O1063 1.248 . S
C1083 Tb1019 2.802 . S
C1083 O1058 1.264 . S
C1083 O1061 1.256 . S
C1083 C1076 1.496 . S
H1084 C1067 0.929 . S
H1085 C1068 0.929 . S
H1086 C1069 0.929 . S
H1087 C1070 0.931 . S
H1088 C1078 0.929 . S
H1089 C1079 0.929 . S
H1090 C1080 0.931 . S
H1091 C1081 0.929 1_556 S
Tb1092 N1121 2.617 . S
Tb1092 N1127 2.572 . S
Tb1092 O1136 2.465 . S
Tb1092 O1137 2.387 . S
Tb1092 O1139 2.428 . S
Tb1092 O1140 2.308 . S
Tb1092 O1144 2.349 . S
Tb1092 O1147 2.393 . S
Tb1092 C1156 2.802 . S
C1093 N1094 1.379 . S
C1093 C1096 1.416 . S
C1093 C1100 1.424 . S
N1094 C1093 1.379 . S
N1094 C1097 1.334 . S
N1094 Tb1103 2.617 . S
C1095 C1097 1.390 . S
C1095 C1098 1.339 . S
C1095 H1115 0.930 . S
C1096 C1093 1.416 . S
C1096 C1098 1.416 . S
C1096 C1102 1.448 . S
C1097 N1094 1.334 . S
C1097 C1095 1.390 . S
C1097 H1108 0.930 . S
C1098 C1095 1.339 . S
C1098 C1096 1.416 . S
C1098 H1119 0.930 . S
C1099 C1100 1.413 . S
C1099 C1101 1.427 . S
C1099 C1105 1.416 . S
C1100 C1093 1.424 . S
C1100 C1099 1.413 . S
C1100 N1104 1.361 . S
C1101 C1099 1.427 . S
C1101 C1102 1.328 . S
C1101 H1116 0.929 . S
C1102 C1096 1.448 . S
C1102 C1101 1.328 . S
C1102 H1117 0.930 . S
Tb1103 N1094 2.617 . S
Tb1103 N1104 2.572 . S
Tb1103 O1138 2.349 . S
Tb1103 O1141 2.393 . S
Tb1103 O1142 2.465 . S
Tb1103 O1143 2.387 . S
Tb1103 O1145 2.428 . S
Tb1103 O1146 2.308 . S
Tb1103 C1167 2.802 . S
N1104 C1100 1.361 . S
N1104 Tb1103 2.572 . S
N1104 C1106 1.340 . S
C1105 C1099 1.416 . S
C1105 C1107 1.332 . S
C1105 H1113 0.931 . S
C1106 N1104 1.340 . S
C1106 C1107 1.407 . S
C1106 H1112 0.930 . S
C1107 C1105 1.332 . S
C1107 C1106 1.407 . S
C1107 H1109 0.929 . S
H1108 C1097 0.930 . S
H1109 C1107 0.929 . S
H1110 C1125 0.930 . S
H1111 C1132 0.929 . S
H1112 C1106 0.930 . S
H1113 C1105 0.931 . S
H1114 C1128 0.930 . S
H1115 C1095 0.930 . S
H1116 C1101 0.929 . S
H1117 C1102 0.930 . S
H1118 C1123 0.930 . S
H1119 C1098 0.930 . S
H1120 C1131 0.931 . S
N1121 Tb1092 2.617 . S
N1121 C1122 1.379 . S
N1121 C1125 1.334 . S
C1122 N1121 1.379 . S
C1122 C1124 1.416 . S
C1122 C1130 1.424 . S
C1123 H1118 0.930 . S
C1123 C1125 1.390 . S
C1123 C1126 1.339 . S
C1124 C1122 1.416 . S
C1124 C1126 1.416 . S
C1124 C1157 1.448 . S
C1125 H1110 0.930 . S
C1125 N1121 1.334 . S
C1125 C1123 1.390 . S
C1126 C1123 1.339 . S
C1126 C1124 1.416 . S
C1126 H1133 0.930 . S
N1127 Tb1092 2.572 . S
N1127 C1128 1.340 . S
N1127 C1130 1.361 . S
C1128 H1114 0.930 . S
C1128 N1127 1.340 . S
C1128 C1132 1.407 . S
C1129 C1130 1.413 . S
C1129 C1131 1.416 . S
C1129 C1158 1.427 . S
C1130 C1122 1.424 . S
C1130 N1127 1.361 . S
C1130 C1129 1.413 . S
C1131 H1120 0.931 . S
C1131 C1129 1.416 . S
C1131 C1132 1.332 . S
C1132 H1111 0.929 . S
C1132 C1128 1.407 . S
C1132 C1131 1.332 . S
H1133 C1126 0.930 . S
H1134 C1157 0.930 . S
H1135 C1158 0.929 . S
O1136 Tb1092 2.465 . S
O1136 C1156 1.264 . S
O1137 Tb1092 2.387 . S
O1137 C1148 1.264 . S
O1138 Tb1103 2.349 . S
O1138 C1148 1.243 . S
O1139 Tb1092 2.428 . S
O1139 C1156 1.256 . S
O1140 Tb1092 2.308 . S
O1140 C1155 1.266 . S
O1141 Tb1103 2.393 . S
O1141 C1155 1.248 . S
O1142 Tb1103 2.465 . S
O1142 C1167 1.264 . S
O1143 Tb1103 2.387 . S
O1143 C1159 1.264 . S
O1144 Tb1092 2.349 . S
O1144 C1159 1.243 . S
O1145 Tb1103 2.428 . S
O1145 C1167 1.256 . S
O1146 Tb1103 2.308 . S
O1146 C1166 1.266 . S
O1147 Tb1092 2.393 . S
O1147 C1166 1.248 . S
C1148 O1137 1.264 . S
C1148 O1138 1.243 . S
C1149 C1152 1.399 . S
C1149 C1154 1.383 . S
C1149 C1156 1.496 . S
C1150 C1151 1.399 . S
C1150 C1154 1.389 . S
C1151 C1150 1.399 . S
C1151 C1153 1.380 . S
C1151 H1168 0.929 . S
C1152 C1149 1.399 . S
C1152 C1153 1.392 . S
C1152 H1169 0.929 . S
C1153 C1151 1.380 . S
C1153 C1152 1.392 . S
C1153 H1170 0.929 . S
C1154 C1149 1.383 . S
C1154 C1150 1.389 . S
C1154 H1171 0.931 . S
C1155 O1140 1.266 . S
C1155 O1141 1.248 . S
C1156 Tb1092 2.802 . S
C1156 O1136 1.264 . S
C1156 O1139 1.256 . S
C1156 C1149 1.496 . S
C1157 C1124 1.448 . S
C1157 H1134 0.930 . S
C1157 C1158 1.328 . S
C1158 C1129 1.427 . S
C1158 H1135 0.929 . S
C1158 C1157 1.328 . S
C1159 O1143 1.264 . S
C1159 O1144 1.243 . S
C1160 C1163 1.399 . S
C1160 C1164 1.383 . S
C1160 C1167 1.496 . S
C1161 C1162 1.399 . S
C1161 C1164 1.389 . S
C1162 C1161 1.399 . S
C1162 C1165 1.380 . S
C1162 H1172 0.929 . S
C1163 C1160 1.399 . S
C1163 C1165 1.392 . S
C1163 H1173 0.929 . S
C1164 C1160 1.383 . S
C1164 C1161 1.389 . S
C1164 H1174 0.931 . S
C1165 C1162 1.380 . S
C1165 C1163 1.392 . S
C1165 H1175 0.929 . S
C1166 O1146 1.266 . S
C1166 O1147 1.248 . S
C1167 Tb1103 2.802 . S
C1167 O1142 1.264 . S
C1167 O1145 1.256 . S
C1167 C1160 1.496 . S
H1168 C1151 0.929 . S
H1169 C1152 0.929 . S
H1170 C1153 0.929 . S
H1171 C1154 0.931 . S
H1172 C1162 0.929 . S
H1173 C1163 0.929 . S
H1174 C1164 0.931 . S
H1175 C1165 0.929 . S
Tb1176 N1205 2.617 1_455 S
Tb1176 N1211 2.572 1_455 S
Tb1176 O1220 2.465 . S
Tb1176 O1221 2.387 1_455 S
Tb1176 O1223 2.428 . S
Tb1176 O1224 2.308 . S
Tb1176 O1228 2.349 . S
Tb1176 O1231 2.393 . S
Tb1176 C1240 2.802 . S
C1177 N1178 1.379 . S
C1177 C1180 1.416 . S
C1177 C1184 1.424 . S
N1178 C1177 1.379 . S
N1178 C1181 1.334 . S
N1178 Tb1187 2.617 . S
C1179 C1181 1.390 . S
C1179 C1182 1.339 . S
C1179 H1199 0.930 . S
C1180 C1177 1.416 . S
C1180 C1182 1.416 . S
C1180 C1186 1.448 . S
C1181 N1178 1.334 . S
C1181 C1179 1.390 . S
C1181 H1192 0.930 . S
C1182 C1179 1.339 . S
C1182 C1180 1.416 . S
C1182 H1203 0.930 . S
C1183 C1184 1.413 . S
C1183 C1185 1.427 . S
C1183 C1189 1.416 . S
C1184 C1177 1.424 . S
C1184 C1183 1.413 . S
C1184 N1188 1.361 . S
C1185 C1183 1.427 . S
C1185 C1186 1.328 . S
C1185 H1200 0.929 . S
C1186 C1180 1.448 . S
C1186 C1185 1.328 . S
C1186 H1201 0.930 . S
Tb1187 N1178 2.617 . S
Tb1187 N1188 2.572 . S
Tb1187 O1222 2.349 1_455 S
Tb1187 O1225 2.393 . S
Tb1187 O1226 2.465 . S
Tb1187 O1227 2.387 . S
Tb1187 O1229 2.428 . S
Tb1187 O1230 2.308 . S
Tb1187 C1251 2.802 . S
N1188 C1184 1.361 . S
N1188 Tb1187 2.572 . S
N1188 C1190 1.340 . S
C1189 C1183 1.416 . S
C1189 C1191 1.332 . S
C1189 H1197 0.931 . S
C1190 N1188 1.340 . S
C1190 C1191 1.407 . S
C1190 H1196 0.930 . S
C1191 C1189 1.332 . S
C1191 C1190 1.407 . S
C1191 H1193 0.929 . S
H1192 C1181 0.930 . S
H1193 C1191 0.929 . S
H1194 C1209 0.930 1_455 S
H1195 C1216 0.929 . S
H1196 C1190 0.930 . S
H1197 C1189 0.931 . S
H1198 C1212 0.958 . S
H1199 C1179 0.930 . S
H1200 C1185 0.929 . S
H1201 C1186 0.930 . S
H1202 C1207 0.930 . S
H1203 C1182 0.930 . S
H1204 C1215 0.931 . S
N1205 Tb1176 2.617 1_655 S
N1205 C1206 1.379 . S
N1205 C1209 1.334 . S
C1206 N1205 1.379 . S
C1206 C1208 1.416 . S
C1206 C1214 1.424 . S
C1207 H1202 0.930 . S
C1207 C1209 1.390 . S
C1207 C1210 1.339 . S
C1208 C1206 1.416 . S
C1208 C1210 1.416 . S
C1208 C1241 1.448 . S
C1209 H1194 0.930 1_655 S
C1209 N1205 1.334 . S
C1209 C1207 1.390 . S
C1210 C1207 1.339 . S
C1210 C1208 1.416 . S
C1210 H1217 0.930 . S
N1211 Tb1176 2.572 1_655 S
N1211 C1212 1.340 . S
N1211 C1214 1.361 . S
C1212 H1198 0.958 . S
C1212 N1211 1.340 . S
C1212 C1216 1.407 . S
C1213 C1214 1.413 . S
C1213 C1215 1.416 . S
C1213 C1242 1.427 . S
C1214 C1206 1.424 . S
C1214 N1211 1.361 . S
C1214 C1213 1.413 . S
C1215 H1204 0.931 . S
C1215 C1213 1.416 . S
C1215 C1216 1.332 . S
C1216 H1195 0.929 . S
C1216 C1212 1.407 . S
C1216 C1215 1.332 . S
H1217 C1210 0.930 . S
H1218 C1241 0.930 . S
H1219 C1242 0.929 . S
O1220 Tb1176 2.465 . S
O1220 C1240 1.264 . S
O1221 Tb1176 2.387 1_655 S
O1221 C1232 1.264 . S
O1222 Tb1187 2.349 1_655 S
O1222 C1232 1.243 . S
O1223 Tb1176 2.428 . S
O1223 C1240 1.256 . S
O1224 Tb1176 2.308 . S
O1224 C1239 1.266 . S
O1225 Tb1187 2.393 . S
O1225 C1239 1.248 . S
O1226 Tb1187 2.465 . S
O1226 C1251 1.264 . S
O1227 Tb1187 2.387 . S
O1227 C1243 1.264 . S
O1228 Tb1176 2.349 . S
O1228 C1243 1.243 . S
O1229 Tb1187 2.428 . S
O1229 C1251 1.256 . S
O1230 Tb1187 2.308 . S
O1230 C1250 1.266 . S
O1231 Tb1176 2.393 . S
O1231 C1250 1.248 . S
C1232 O1221 1.264 . S
C1232 O1222 1.243 . S
C1233 C1236 1.399 . S
C1233 C1238 1.383 . S
C1233 C1240 1.496 . S
C1234 C1235 1.399 . S
C1234 C1238 1.389 . S
C1235 C1234 1.399 . S
C1235 C1237 1.380 . S
C1235 H1252 0.929 . S
C1236 C1233 1.399 . S
C1236 C1237 1.392 . S
C1236 H1253 0.929 . S
C1237 C1235 1.380 . S
C1237 C1236 1.392 . S
C1237 H1254 0.929 . S
C1238 C1233 1.383 . S
C1238 C1234 1.389 . S
C1238 H1255 0.931 . S
C1239 O1224 1.266 . S
C1239 O1225 1.248 . S
C1240 Tb1176 2.802 . S
C1240 O1220 1.264 . S
C1240 O1223 1.256 . S
C1240 C1233 1.496 . S
C1241 C1208 1.448 . S
C1241 H1218 0.930 . S
C1241 C1242 1.328 . S
C1242 C1213 1.427 . S
C1242 H1219 0.929 . S
C1242 C1241 1.328 . S
C1243 O1227 1.264 . S
C1243 O1228 1.243 . S
C1244 C1247 1.399 . S
C1244 C1248 1.383 . S
C1244 C1251 1.496 1_655 S
C1245 C1246 1.399 . S
C1245 C1248 1.389 . S
C1246 C1245 1.399 . S
C1246 C1249 1.380 . S
C1246 H1256 0.929 . S
C1247 C1244 1.399 . S
C1247 C1249 1.392 . S
C1247 H1257 0.929 . S
C1248 C1244 1.383 . S
C1248 C1245 1.389 . S
C1248 H1258 0.931 . S
C1249 C1246 1.380 . S
C1249 C1247 1.392 . S
C1249 H1259 0.929 . S
C1250 O1230 1.266 . S
C1250 O1231 1.248 . S
C1251 Tb1187 2.802 . S
C1251 O1226 1.264 . S
C1251 O1229 1.256 . S
C1251 C1244 1.496 1_455 S
H1252 C1235 0.929 . S
H1253 C1236 0.929 . S
H1254 C1237 0.929 . S
H1255 C1238 0.931 . S
H1256 C1246 0.929 . S
H1257 C1247 0.929 . S
H1258 C1248 0.931 . S
H1259 C1249 0.929 . S
Tb1260 N1289 2.617 . S
Tb1260 N1295 2.572 . S
Tb1260 O1304 2.465 . S
Tb1260 O1305 2.387 . S
Tb1260 O1307 2.428 . S
Tb1260 O1308 2.308 . S
Tb1260 O1312 2.349 . S
Tb1260 O1315 2.393 . S
Tb1260 C1324 2.802 . S
C1261 N1262 1.379 . S
C1261 C1264 1.416 . S
C1261 C1268 1.424 . S
N1262 C1261 1.379 . S
N1262 C1265 1.334 . S
N1262 Tb1271 2.617 . S
C1263 C1265 1.390 . S
C1263 C1266 1.339 . S
C1263 H1283 0.930 . S
C1264 C1261 1.416 . S
C1264 C1266 1.416 . S
C1264 C1270 1.448 . S
C1265 N1262 1.334 . S
C1265 C1263 1.390 . S
C1265 H1276 0.930 . S
C1266 C1263 1.339 . S
C1266 C1264 1.416 . S
C1266 H1287 0.930 . S
C1267 C1268 1.413 . S
C1267 C1269 1.427 . S
C1267 C1273 1.416 . S
C1268 C1261 1.424 . S
C1268 C1267 1.413 . S
C1268 N1272 1.361 . S
C1269 C1267 1.427 . S
C1269 C1270 1.328 . S
C1269 H1284 0.929 . S
C1270 C1264 1.448 . S
C1270 C1269 1.328 . S
C1270 H1285 0.930 . S
Tb1271 N1262 2.617 . S
Tb1271 N1272 2.572 . S
Tb1271 O1306 2.349 . S
Tb1271 O1309 2.393 . S
Tb1271 O1310 2.465 . S
Tb1271 O1311 2.387 . S
Tb1271 O1313 2.428 . S
Tb1271 O1314 2.308 . S
Tb1271 C1335 2.802 . S
N1272 C1268 1.361 . S
N1272 Tb1271 2.572 . S
N1272 C1274 1.340 . S
C1273 C1267 1.416 . S
C1273 C1275 1.332 . S
C1273 H1281 0.931 . S
C1274 N1272 1.340 . S
C1274 C1275 1.407 . S
C1274 H1280 0.930 . S
C1275 C1273 1.332 . S
C1275 C1274 1.407 . S
C1275 H1277 0.929 . S
H1276 C1265 0.930 . S
H1277 C1275 0.929 . S
H1278 C1293 0.930 . S
H1279 C1300 0.929 . S
H1280 C1274 0.930 . S
H1281 C1273 0.931 . S
H1282 C1296 0.930 . S
H1283 C1263 0.930 . S
H1284 C1269 0.929 . S
H1285 C1270 0.930 . S
H1286 C1291 0.930 . S
H1287 C1266 0.930 . S
H1288 C1299 0.931 . S
N1289 Tb1260 2.617 . S
N1289 C1290 1.379 . S
N1289 C1293 1.334 . S
C1290 N1289 1.379 . S
C1290 C1292 1.416 . S
C1290 C1298 1.424 . S
C1291 H1286 0.930 . S
C1291 C1293 1.390 . S
C1291 C1294 1.339 . S
C1292 C1290 1.416 . S
C1292 C1294 1.416 . S
C1292 C1325 1.448 . S
C1293 H1278 0.930 . S
C1293 N1289 1.334 . S
C1293 C1291 1.390 . S
C1294 C1291 1.339 . S
C1294 C1292 1.416 . S
C1294 H1301 0.930 . S
N1295 Tb1260 2.572 . S
N1295 C1296 1.340 . S
N1295 C1298 1.361 . S
C1296 H1282 0.930 . S
C1296 N1295 1.340 . S
C1296 C1300 1.407 . S
C1297 C1298 1.413 . S
C1297 C1299 1.416 . S
C1297 C1326 1.427 . S
C1298 C1290 1.424 . S
C1298 N1295 1.361 . S
C1298 C1297 1.413 . S
C1299 H1288 0.931 . S
C1299 C1297 1.416 . S
C1299 C1300 1.332 . S
C1300 H1279 0.929 . S
C1300 C1296 1.407 . S
C1300 C1299 1.332 . S
H1301 C1294 0.930 . S
H1302 C1325 0.930 . S
H1303 C1326 0.929 . S
O1304 Tb1260 2.465 . S
O1304 C1324 1.264 . S
O1305 Tb1260 2.387 . S
O1305 C1316 1.264 . S
O1306 Tb1271 2.349 . S
O1306 C1316 1.243 . S
O1307 Tb1260 2.428 . S
O1307 C1324 1.256 . S
O1308 Tb1260 2.308 . S
O1308 C1323 1.266 . S
O1309 Tb1271 2.393 . S
O1309 C1323 1.248 . S
O1310 Tb1271 2.465 . S
O1310 C1335 1.264 . S
O1311 Tb1271 2.387 . S
O1311 C1327 1.264 . S
O1312 Tb1260 2.349 . S
O1312 C1327 1.243 . S
O1313 Tb1271 2.428 . S
O1313 C1335 1.256 . S
O1314 Tb1271 2.308 . S
O1314 C1334 1.266 . S
O1315 Tb1260 2.393 . S
O1315 C1334 1.248 . S
C1316 O1305 1.264 . S
C1316 O1306 1.243 . S
C1317 C1320 1.399 . S
C1317 C1322 1.383 . S
C1317 C1324 1.496 . S
C1318 C1319 1.399 . S
C1318 C1322 1.389 . S
C1319 C1318 1.399 . S
C1319 C1321 1.380 . S
C1319 H1336 0.929 . S
C1320 C1317 1.399 . S
C1320 C1321 1.392 . S
C1320 H1337 0.929 . S
C1321 C1319 1.380 . S
C1321 C1320 1.392 . S
C1321 H1338 0.929 . S
C1322 C1317 1.383 . S
C1322 C1318 1.389 . S
C1322 H1339 0.931 . S
C1323 O1308 1.266 . S
C1323 O1309 1.248 . S
C1324 Tb1260 2.802 . S
C1324 O1304 1.264 . S
C1324 O1307 1.256 . S
C1324 C1317 1.496 . S
C1325 C1292 1.448 . S
C1325 H1302 0.930 . S
C1325 C1326 1.328 . S
C1326 C1297 1.427 . S
C1326 H1303 0.929 . S
C1326 C1325 1.328 . S
C1327 O1311 1.264 . S
C1327 O1312 1.243 . S
C1328 C1331 1.399 . S
C1328 C1332 1.383 . S
C1328 C1335 1.496 . S
C1329 C1330 1.399 . S
C1329 C1332 1.389 . S
C1330 C1329 1.399 . S
C1330 C1333 1.380 . S
C1330 H1340 0.929 . S
C1331 C1328 1.399 . S
C1331 C1333 1.392 . S
C1331 H1341 0.929 . S
C1332 C1328 1.383 . S
C1332 C1329 1.389 . S
C1332 H1342 0.931 . S
C1333 C1330 1.380 . S
C1333 C1331 1.392 . S
C1333 H1343 0.929 . S
C1334 O1314 1.266 . S
C1334 O1315 1.248 . S
C1335 Tb1271 2.802 . S
C1335 O1310 1.264 . S
C1335 O1313 1.256 . S
C1335 C1328 1.496 . S
H1336 C1319 0.929 . S
H1337 C1320 0.929 . S
H1338 C1321 0.929 . S
H1339 C1322 0.931 . S
H1340 C1330 0.929 . S
H1341 C1331 0.929 . S
H1342 C1332 0.931 . S
H1343 C1333 0.929 . S
Tb1344 N1373 2.617 . S
Tb1344 N1379 2.572 . S
Tb1344 O1388 2.465 . S
Tb1344 O1389 2.387 . S
Tb1344 O1391 2.428 . S
Tb1344 O1392 2.308 . S
Tb1344 O1396 2.349 . S
Tb1344 O1399 2.393 . S
Tb1344 C1408 2.802 . S
C1345 N1346 1.379 . S
C1345 C1348 1.416 . S
C1345 C1352 1.424 . S
N1346 C1345 1.379 . S
N1346 C1349 1.334 . S
N1346 Tb1355 2.617 . S
C1347 C1349 1.390 . S
C1347 C1350 1.339 . S
C1347 H1367 0.930 . S
C1348 C1345 1.416 . S
C1348 C1350 1.416 . S
C1348 C1354 1.448 . S
C1349 N1346 1.334 . S
C1349 C1347 1.390 . S
C1349 H1360 0.930 . S
C1350 C1347 1.339 . S
C1350 C1348 1.416 . S
C1350 H1371 0.930 . S
C1351 C1352 1.413 . S
C1351 C1353 1.427 . S
C1351 C1357 1.416 . S
C1352 C1345 1.424 . S
C1352 C1351 1.413 . S
C1352 N1356 1.361 . S
C1353 C1351 1.427 . S
C1353 C1354 1.328 . S
C1353 H1368 0.929 . S
C1354 C1348 1.448 . S
C1354 C1353 1.328 . S
C1354 H1369 0.930 . S
Tb1355 N1346 2.617 . S
Tb1355 N1356 2.572 . S
Tb1355 O1390 2.349 . S
Tb1355 O1393 2.393 . S
Tb1355 O1394 2.465 . S
Tb1355 O1395 2.387 . S
Tb1355 O1397 2.428 . S
Tb1355 O1398 2.308 . S
Tb1355 C1419 2.802 . S
N1356 C1352 1.361 . S
N1356 Tb1355 2.572 . S
N1356 C1358 1.340 . S
C1357 C1351 1.416 . S
C1357 C1359 1.332 . S
C1357 H1365 0.931 . S
C1358 N1356 1.340 . S
C1358 C1359 1.407 . S
C1358 H1364 0.930 . S
C1359 C1357 1.332 . S
C1359 C1358 1.407 . S
C1359 H1361 0.929 . S
H1360 C1349 0.930 . S
H1361 C1359 0.929 . S
H1362 C1377 0.930 . S
H1363 C1384 0.929 . S
H1364 C1358 0.930 . S
H1365 C1357 0.931 . S
H1366 C1380 0.930 . S
H1367 C1347 0.930 . S
H1368 C1353 0.929 . S
H1369 C1354 0.930 . S
H1370 C1375 0.930 . S
H1371 C1350 0.930 . S
H1372 C1383 0.931 . S
N1373 Tb1344 2.617 . S
N1373 C1374 1.379 . S
N1373 C1377 1.334 . S
C1374 N1373 1.379 . S
C1374 C1376 1.416 . S
C1374 C1382 1.424 . S
C1375 H1370 0.930 . S
C1375 C1377 1.390 . S
C1375 C1378 1.339 . S
C1376 C1374 1.416 . S
C1376 C1378 1.416 . S
C1376 C1409 1.448 . S
C1377 H1362 0.930 . S
C1377 N1373 1.334 . S
C1377 C1375 1.390 . S
C1378 C1375 1.339 . S
C1378 C1376 1.416 . S
C1378 H1385 0.930 . S
N1379 Tb1344 2.572 . S
N1379 C1380 1.340 . S
N1379 C1382 1.361 . S
C1380 H1366 0.930 . S
C1380 N1379 1.340 . S
C1380 C1384 1.407 . S
C1381 C1382 1.413 . S
C1381 C1383 1.416 . S
C1381 C1410 1.427 . S
C1382 C1374 1.424 . S
C1382 N1379 1.361 . S
C1382 C1381 1.413 . S
C1383 H1372 0.931 . S
C1383 C1381 1.416 . S
C1383 C1384 1.332 . S
C1384 H1363 0.929 . S
C1384 C1380 1.407 . S
C1384 C1383 1.332 . S
H1385 C1378 0.930 . S
H1386 C1409 0.930 . S
H1387 C1410 0.929 . S
O1388 Tb1344 2.465 . S
O1388 C1408 1.264 . S
O1389 Tb1344 2.387 . S
O1389 C1400 1.264 . S
O1390 Tb1355 2.349 . S
O1390 C1400 1.243 . S
O1391 Tb1344 2.428 . S
O1391 C1408 1.256 . S
O1392 Tb1344 2.308 . S
O1392 C1407 1.266 . S
O1393 Tb1355 2.393 . S
O1393 C1407 1.248 . S
O1394 Tb1355 2.465 . S
O1394 C1419 1.264 . S
O1395 Tb1355 2.387 . S
O1395 C1411 1.264 . S
O1396 Tb1344 2.349 . S
O1396 C1411 1.243 . S
O1397 Tb1355 2.428 . S
O1397 C1419 1.256 . S
O1398 Tb1355 2.308 . S
O1398 C1418 1.266 . S
O1399 Tb1344 2.393 . S
O1399 C1418 1.248 . S
C1400 O1389 1.264 . S
C1400 O1390 1.243 . S
C1401 C1404 1.399 . S
C1401 C1406 1.383 . S
C1401 C1408 1.496 . S
C1402 C1403 1.399 . S
C1402 C1406 1.389 . S
C1403 C1402 1.399 . S
C1403 C1405 1.380 . S
C1403 H1420 0.929 . S
C1404 C1401 1.399 . S
C1404 C1405 1.392 . S
C1404 H1421 0.929 . S
C1405 C1403 1.380 . S
C1405 C1404 1.392 . S
C1405 H1422 0.929 . S
C1406 C1401 1.383 . S
C1406 C1402 1.389 . S
C1406 H1423 0.931 . S
C1407 O1392 1.266 . S
C1407 O1393 1.248 . S
C1408 Tb1344 2.802 . S
C1408 O1388 1.264 . S
C1408 O1391 1.256 . S
C1408 C1401 1.496 . S
C1409 C1376 1.448 . S
C1409 H1386 0.930 . S
C1409 C1410 1.328 . S
C1410 C1381 1.427 . S
C1410 H1387 0.929 . S
C1410 C1409 1.328 . S
C1411 O1395 1.264 . S
C1411 O1396 1.243 . S
C1412 C1415 1.399 . S
C1412 C1416 1.383 . S
C1412 C1419 1.496 . S
C1413 C1414 1.399 . S
C1413 C1416 1.389 . S
C1414 C1413 1.399 . S
C1414 C1417 1.380 . S
C1414 H1424 0.929 . S
C1415 C1412 1.399 . S
C1415 C1417 1.392 . S
C1415 H1425 0.929 . S
C1416 C1412 1.383 . S
C1416 C1413 1.389 . S
C1416 H1426 0.931 . S
C1417 C1414 1.380 . S
C1417 C1415 1.392 . S
C1417 H1427 0.929 . S
C1418 O1398 1.266 . S
C1418 O1399 1.248 . S
C1419 Tb1355 2.802 . S
C1419 O1394 1.264 . S
C1419 O1397 1.256 . S
C1419 C1412 1.496 . S
H1420 C1403 0.929 . S
H1421 C1404 0.929 . S
H1422 C1405 0.929 . S
H1423 C1406 0.931 . S
H1424 C1414 0.929 . S
H1425 C1415 0.929 . S
H1426 C1416 0.931 . S
H1427 C1417 0.929 . S
Tb1428 N1457 2.617 . S
Tb1428 N1463 2.572 . S
Tb1428 O1472 2.465 . S
Tb1428 O1473 2.387 . S
Tb1428 O1475 2.428 . S
Tb1428 O1476 2.308 . S
Tb1428 O1480 2.349 . S
Tb1428 O1483 2.393 . S
Tb1428 C1492 2.802 . S
C1429 N1430 1.379 . S
C1429 C1432 1.416 . S
C1429 C1436 1.424 . S
N1430 C1429 1.379 . S
N1430 C1433 1.334 . S
N1430 Tb1439 2.617 . S
C1431 C1433 1.390 . S
C1431 C1434 1.339 . S
C1431 H1451 0.930 . S
C1432 C1429 1.416 . S
C1432 C1434 1.416 . S
C1432 C1438 1.448 . S
C1433 N1430 1.334 . S
C1433 C1431 1.390 . S
C1433 H1444 0.930 . S
C1434 C1431 1.339 . S
C1434 C1432 1.416 . S
C1434 H1455 0.930 . S
C1435 C1436 1.413 . S
C1435 C1437 1.427 . S
C1435 C1441 1.416 . S
C1436 C1429 1.424 . S
C1436 C1435 1.413 . S
C1436 N1440 1.361 . S
C1437 C1435 1.427 . S
C1437 C1438 1.328 . S
C1437 H1452 0.929 . S
C1438 C1432 1.448 . S
C1438 C1437 1.328 . S
C1438 H1453 0.930 . S
Tb1439 N1430 2.617 . S
Tb1439 N1440 2.572 . S
Tb1439 O1474 2.349 . S
Tb1439 O1477 2.393 . S
Tb1439 O1478 2.465 . S
Tb1439 O1479 2.387 . S
Tb1439 O1481 2.428 . S
Tb1439 O1482 2.308 . S
Tb1439 C1503 2.802 . S
N1440 C1436 1.361 . S
N1440 Tb1439 2.572 . S
N1440 C1442 1.340 . S
C1441 C1435 1.416 . S
C1441 C1443 1.332 . S
C1441 H1449 0.931 . S
C1442 N1440 1.340 . S
C1442 C1443 1.407 . S
C1442 H1448 0.930 . S
C1443 C1441 1.332 . S
C1443 C1442 1.407 . S
C1443 H1445 0.929 . S
H1444 C1433 0.930 . S
H1445 C1443 0.929 . S
H1446 C1461 0.930 . S
H1447 C1468 0.929 . S
H1448 C1442 0.930 . S
H1449 C1441 0.931 . S
H1450 C1464 0.930 . S
H1451 C1431 0.930 . S
H1452 C1437 0.929 . S
H1453 C1438 0.930 . S
H1454 C1459 0.930 . S
H1455 C1434 0.930 . S
H1456 C1467 0.931 . S
N1457 Tb1428 2.617 . S
N1457 C1458 1.379 . S
N1457 C1461 1.334 . S
C1458 N1457 1.379 . S
C1458 C1460 1.416 . S
C1458 C1466 1.424 . S
C1459 H1454 0.930 . S
C1459 C1461 1.390 . S
C1459 C1462 1.339 . S
C1460 C1458 1.416 . S
C1460 C1462 1.416 . S
C1460 C1493 1.448 . S
C1461 H1446 0.930 . S
C1461 N1457 1.334 . S
C1461 C1459 1.390 . S
C1462 C1459 1.339 . S
C1462 C1460 1.416 . S
C1462 H1469 0.930 . S
N1463 Tb1428 2.572 . S
N1463 C1464 1.340 . S
N1463 C1466 1.361 . S
C1464 H1450 0.930 . S
C1464 N1463 1.340 . S
C1464 C1468 1.407 . S
C1465 C1466 1.413 . S
C1465 C1467 1.416 . S
C1465 C1494 1.427 . S
C1466 C1458 1.424 . S
C1466 N1463 1.361 . S
C1466 C1465 1.413 . S
C1467 H1456 0.931 . S
C1467 C1465 1.416 . S
C1467 C1468 1.332 . S
C1468 H1447 0.929 . S
C1468 C1464 1.407 . S
C1468 C1467 1.332 . S
H1469 C1462 0.930 . S
H1470 C1493 0.930 . S
H1471 C1494 0.929 . S
O1472 Tb1428 2.465 . S
O1472 C1492 1.264 . S
O1473 Tb1428 2.387 . S
O1473 C1484 1.264 . S
O1474 Tb1439 2.349 . S
O1474 C1484 1.243 . S
O1475 Tb1428 2.428 . S
O1475 C1492 1.256 . S
O1476 Tb1428 2.308 . S
O1476 C1491 1.266 . S
O1477 Tb1439 2.393 . S
O1477 C1491 1.248 . S
O1478 Tb1439 2.465 . S
O1478 C1503 1.264 . S
O1479 Tb1439 2.387 . S
O1479 C1495 1.264 . S
O1480 Tb1428 2.349 . S
O1480 C1495 1.243 . S
O1481 Tb1439 2.428 . S
O1481 C1503 1.256 . S
O1482 Tb1439 2.308 . S
O1482 C1502 1.266 . S
O1483 Tb1428 2.393 . S
O1483 C1502 1.248 . S
C1484 O1473 1.264 . S
C1484 O1474 1.243 . S
C1485 C1488 1.399 . S
C1485 C1490 1.383 . S
C1485 C1492 1.496 . S
C1486 C1487 1.399 . S
C1486 C1490 1.389 . S
C1487 C1486 1.399 . S
C1487 C1489 1.380 . S
C1487 H1504 0.929 . S
C1488 C1485 1.399 . S
C1488 C1489 1.392 . S
C1488 H1505 0.929 . S
C1489 C1487 1.380 . S
C1489 C1488 1.392 . S
C1489 H1506 0.929 . S
C1490 C1485 1.383 . S
C1490 C1486 1.389 . S
C1490 H1507 0.931 . S
C1491 O1476 1.266 . S
C1491 O1477 1.248 . S
C1492 Tb1428 2.802 . S
C1492 O1472 1.264 . S
C1492 O1475 1.256 . S
C1492 C1485 1.496 . S
C1493 C1460 1.448 . S
C1493 H1470 0.930 . S
C1493 C1494 1.328 . S
C1494 C1465 1.427 . S
C1494 H1471 0.929 . S
C1494 C1493 1.328 . S
C1495 O1479 1.264 . S
C1495 O1480 1.243 . S
C1496 C1499 1.399 . S
C1496 C1500 1.383 . S
C1496 C1503 1.496 . S
C1497 C1498 1.399 . S
C1497 C1500 1.389 . S
C1498 C1497 1.399 . S
C1498 C1501 1.380 . S
C1498 H1508 0.929 . S
C1499 C1496 1.399 . S
C1499 C1501 1.392 . S
C1499 H1509 0.929 . S
C1500 C1496 1.383 . S
C1500 C1497 1.389 . S
C1500 H1510 0.931 . S
C1501 C1498 1.380 . S
C1501 C1499 1.392 . S
C1501 H1511 0.929 . S
C1502 O1482 1.266 . S
C1502 O1483 1.248 . S
C1503 Tb1439 2.802 . S
C1503 O1478 1.264 . S
C1503 O1481 1.256 . S
C1503 C1496 1.496 . S
H1504 C1487 0.929 . S
H1505 C1488 0.929 . S
H1506 C1489 0.929 . S
H1507 C1490 0.931 . S
H1508 C1498 0.929 . S
H1509 C1499 0.929 . S
H1510 C1500 0.931 . S
H1511 C1501 0.929 . S
Tb1512 N1541 2.617 . S
Tb1512 N1547 2.572 . S
Tb1512 O1556 2.465 . S
Tb1512 O1557 2.387 . S
Tb1512 O1559 2.428 . S
Tb1512 O1560 2.308 . S
Tb1512 O1564 2.349 . S
Tb1512 O1567 2.393 . S
Tb1512 C1576 2.802 . S
C1513 N1514 1.379 . S
C1513 C1516 1.416 . S
C1513 C1520 1.424 . S
N1514 C1513 1.379 . S
N1514 C1517 1.334 . S
N1514 Tb1523 2.617 . S
C1515 C1517 1.390 . S
C1515 C1518 1.339 . S
C1515 H1535 0.930 . S
C1516 C1513 1.416 . S
C1516 C1518 1.416 . S
C1516 C1522 1.448 . S
C1517 N1514 1.334 . S
C1517 C1515 1.390 . S
C1517 H1528 0.930 . S
C1518 C1515 1.339 . S
C1518 C1516 1.416 . S
C1518 H1539 0.930 . S
C1519 C1520 1.413 . S
C1519 C1521 1.427 . S
C1519 C1525 1.416 . S
C1520 C1513 1.424 . S
C1520 C1519 1.413 . S
C1520 N1524 1.361 . S
C1521 C1519 1.427 . S
C1521 C1522 1.328 . S
C1521 H1536 0.929 . S
C1522 C1516 1.448 . S
C1522 C1521 1.328 . S
C1522 H1537 0.930 . S
Tb1523 N1514 2.617 . S
Tb1523 N1524 2.572 . S
Tb1523 O1558 2.349 . S
Tb1523 O1561 2.393 . S
Tb1523 O1562 2.465 . S
Tb1523 O1563 2.387 . S
Tb1523 O1565 2.428 . S
Tb1523 O1566 2.308 . S
Tb1523 C1587 2.802 . S
N1524 C1520 1.361 . S
N1524 Tb1523 2.572 . S
N1524 C1526 1.340 . S
C1525 C1519 1.416 . S
C1525 C1527 1.332 . S
C1525 H1533 0.931 . S
C1526 N1524 1.340 . S
C1526 C1527 1.407 . S
C1526 H1532 0.930 . S
C1527 C1525 1.332 . S
C1527 C1526 1.407 . S
C1527 H1529 0.929 . S
H1528 C1517 0.930 . S
H1529 C1527 0.929 . S
H1530 C1545 0.930 . S
H1531 C1552 0.929 . S
H1532 C1526 0.930 . S
H1533 C1525 0.931 . S
H1534 C1548 0.930 . S
H1535 C1515 0.930 . S
H1536 C1521 0.929 . S
H1537 C1522 0.930 . S
H1538 C1543 0.930 . S
H1539 C1518 0.930 . S
H1540 C1551 0.931 . S
N1541 Tb1512 2.617 . S
N1541 C1542 1.379 . S
N1541 C1545 1.334 . S
C1542 N1541 1.379 . S
C1542 C1544 1.416 . S
C1542 C1550 1.424 . S
C1543 H1538 0.930 . S
C1543 C1545 1.390 . S
C1543 C1546 1.339 . S
C1544 C1542 1.416 . S
C1544 C1546 1.416 . S
C1544 C1577 1.448 . S
C1545 H1530 0.930 . S
C1545 N1541 1.334 . S
C1545 C1543 1.390 . S
C1546 C1543 1.339 . S
C1546 C1544 1.416 . S
C1546 H1553 0.930 . S
N1547 Tb1512 2.572 . S
N1547 C1548 1.340 . S
N1547 C1550 1.361 . S
C1548 H1534 0.930 . S
C1548 N1547 1.340 . S
C1548 C1552 1.407 . S
C1549 C1550 1.413 . S
C1549 C1551 1.416 . S
C1549 C1578 1.427 . S
C1550 C1542 1.424 . S
C1550 N1547 1.361 . S
C1550 C1549 1.413 . S
C1551 H1540 0.931 . S
C1551 C1549 1.416 . S
C1551 C1552 1.332 . S
C1552 H1531 0.929 . S
C1552 C1548 1.407 . S
C1552 C1551 1.332 . S
H1553 C1546 0.930 . S
H1554 C1577 0.930 . S
H1555 C1578 0.929 . S
O1556 Tb1512 2.465 . S
O1556 C1576 1.264 . S
O1557 Tb1512 2.387 . S
O1557 C1568 1.264 . S
O1558 Tb1523 2.349 . S
O1558 C1568 1.243 . S
O1559 Tb1512 2.428 . S
O1559 C1576 1.256 . S
O1560 Tb1512 2.308 . S
O1560 C1575 1.266 . S
O1561 Tb1523 2.393 . S
O1561 C1575 1.248 . S
O1562 Tb1523 2.465 . S
O1562 C1587 1.264 . S
O1563 Tb1523 2.387 . S
O1563 C1579 1.264 . S
O1564 Tb1512 2.349 . S
O1564 C1579 1.243 . S
O1565 Tb1523 2.428 . S
O1565 C1587 1.256 . S
O1566 Tb1523 2.308 . S
O1566 C1586 1.266 . S
O1567 Tb1512 2.393 . S
O1567 C1586 1.248 . S
C1568 O1557 1.264 . S
C1568 O1558 1.243 . S
C1569 C1572 1.399 . S
C1569 C1574 1.383 . S
C1569 C1576 1.496 . S
C1570 C1571 1.399 . S
C1570 C1574 1.389 . S
C1571 C1570 1.399 . S
C1571 C1573 1.380 . S
C1571 H1588 0.929 . S
C1572 C1569 1.399 . S
C1572 C1573 1.392 . S
C1572 H1589 0.929 . S
C1573 C1571 1.380 . S
C1573 C1572 1.392 . S
C1573 H1590 0.929 . S
C1574 C1569 1.383 . S
C1574 C1570 1.389 . S
C1574 H1591 0.931 . S
C1575 O1560 1.266 . S
C1575 O1561 1.248 . S
C1576 Tb1512 2.802 . S
C1576 O1556 1.264 . S
C1576 O1559 1.256 . S
C1576 C1569 1.496 . S
C1577 C1544 1.448 . S
C1577 H1554 0.930 . S
C1577 C1578 1.328 . S
C1578 C1549 1.427 . S
C1578 H1555 0.929 . S
C1578 C1577 1.328 . S
C1579 O1563 1.264 . S
C1579 O1564 1.243 . S
C1580 C1583 1.399 . S
C1580 C1584 1.383 . S
C1580 C1587 1.496 . S
C1581 C1582 1.399 . S
C1581 C1584 1.389 . S
C1582 C1581 1.399 . S
C1582 C1585 1.380 . S
C1582 H1592 0.929 . S
C1583 C1580 1.399 . S
C1583 C1585 1.392 . S
C1583 H1593 0.929 . S
C1584 C1580 1.383 . S
C1584 C1581 1.389 . S
C1584 H1594 0.931 . S
C1585 C1582 1.380 . S
C1585 C1583 1.392 . S
C1585 H1595 0.929 . S
C1586 O1566 1.266 . S
C1586 O1567 1.248 . S
C1587 Tb1523 2.802 . S
C1587 O1562 1.264 . S
C1587 O1565 1.256 . S
C1587 C1580 1.496 . S
H1588 C1571 0.929 . S
H1589 C1572 0.929 . S
H1590 C1573 0.929 . S
H1591 C1574 0.931 . S
H1592 C1582 0.929 . S
H1593 C1583 0.929 . S
H1594 C1584 0.931 . S
H1595 C1585 0.929 . S
Tb1596 N1625 2.615 1_455 S
Tb1596 N1631 2.567 1_455 S
Tb1596 O1640 2.459 1_455 S
Tb1596 O1641 2.391 . S
Tb1596 O1643 2.422 1_455 S
Tb1596 O1644 2.309 . S
Tb1596 O1648 2.351 . S
Tb1596 O1651 2.398 . S
Tb1596 C1660 2.796 1_455 S
C1597 N1598 1.379 . S
C1597 C1600 1.416 . S
C1597 C1604 1.424 . S
N1598 C1597 1.379 . S
N1598 C1601 1.334 1_554 S
N1598 Tb1607 2.617 . S
C1599 C1601 1.390 . S
C1599 C1602 1.339 . S
C1599 H1619 0.930 . S
C1600 C1597 1.416 . S
C1600 C1602 1.416 1_554 S
C1600 C1606 1.448 . S
C1601 N1598 1.334 1_556 S
C1601 C1599 1.390 . S
C1601 H1612 0.930 . S
C1602 C1599 1.339 . S
C1602 C1600 1.416 1_556 S
C1602 H1623 0.930 . S
C1603 C1604 1.413 . S
C1603 C1605 1.427 . S
C1603 C1609 1.416 . S
C1604 C1597 1.424 . S
C1604 C1603 1.413 . S
C1604 N1608 1.361 . S
C1605 C1603 1.427 . S
C1605 C1606 1.328 . S
C1605 H1620 0.929 . S
C1606 C1600 1.448 . S
C1606 C1605 1.328 . S
C1606 H1621 0.930 . S
Tb1607 N1598 2.617 . S
Tb1607 N1608 2.572 . S
Tb1607 O1642 2.349 . S
Tb1607 O1645 2.393 . S
Tb1607 O1646 2.465 . S
Tb1607 O1647 2.387 . S
Tb1607 O1649 2.428 . S
Tb1607 O1650 2.308 . S
Tb1607 C1671 2.802 . S
N1608 C1604 1.361 . S
N1608 Tb1607 2.572 . S
N1608 C1610 1.340 . S
C1609 C1603 1.416 . S
C1609 C1611 1.332 . S
C1609 H1617 0.931 . S
C1610 N1608 1.340 . S
C1610 C1611 1.407 . S
C1610 H1616 0.930 . S
C1611 C1609 1.332 . S
C1611 C1610 1.407 . S
C1611 H1613 0.929 . S
H1612 C1601 0.930 . S
H1613 C1611 0.929 . S
H1614 C1629 0.930 1_455 S
H1615 C1636 0.929 . S
H1616 C1610 0.930 . S
H1617 C1609 0.931 . S
H1618 C1632 0.930 . S
H1619 C1599 0.930 . S
H1620 C1605 0.929 . S
H1621 C1606 0.930 . S
H1622 C1627 0.946 . S
H1623 C1602 0.930 . S
H1624 C1635 0.931 . S
N1625 Tb1596 2.615 1_655 S
N1625 C1626 1.379 . S
N1625 C1629 1.334 . S
C1626 N1625 1.379 . S
C1626 C1628 1.416 . S
C1626 C1634 1.424 . S
C1627 H1622 0.946 . S
C1627 C1629 1.390 . S
C1627 C1630 1.339 . S
C1628 C1626 1.416 . S
C1628 C1630 1.416 . S
C1628 C1661 1.448 . S
C1629 H1614 0.930 1_655 S
C1629 N1625 1.334 . S
C1629 C1627 1.390 . S
C1630 C1627 1.339 . S
C1630 C1628 1.416 . S
C1630 H1637 0.930 . S
N1631 Tb1596 2.567 1_655 S
N1631 C1632 1.340 . S
N1631 C1634 1.361 . S
C1632 H1618 0.930 . S
C1632 N1631 1.340 . S
C1632 C1636 1.407 . S
C1633 C1634 1.413 . S
C1633 C1635 1.416 . S
C1633 C1662 1.427 . S
C1634 C1626 1.424 . S
C1634 N1631 1.361 . S
C1634 C1633 1.413 . S
C1635 H1624 0.931 . S
C1635 C1633 1.416 . S
C1635 C1636 1.332 . S
C1636 H1615 0.929 . S
C1636 C1632 1.407 . S
C1636 C1635 1.332 . S
H1637 C1630 0.930 . S
H1638 C1661 0.930 . S
H1639 C1662 0.929 . S
O1640 Tb1596 2.459 1_655 S
O1640 C1660 1.264 . S
O1641 Tb1596 2.391 . S
O1641 C1652 1.264 . S
O1642 Tb1607 2.349 . S
O1642 C1652 1.243 . S
O1643 Tb1596 2.422 1_655 S
O1643 C1660 1.256 . S
O1644 Tb1596 2.309 . S
O1644 C1659 1.266 . S
O1645 Tb1607 2.393 . S
O1645 C1659 1.248 . S
O1646 Tb1607 2.465 . S
O1646 C1671 1.264 . S
O1647 Tb1607 2.387 . S
O1647 C1663 1.264 . S
O1648 Tb1596 2.351 . S
O1648 C1663 1.243 . S
O1649 Tb1607 2.428 . S
O1649 C1671 1.256 . S
O1650 Tb1607 2.308 . S
O1650 C1670 1.266 . S
O1651 Tb1596 2.398 . S
O1651 C1670 1.248 . S
C1652 O1641 1.264 . S
C1652 O1642 1.243 . S
C1653 C1656 1.399 . S
C1653 C1658 1.383 . S
C1653 C1660 1.496 . S
C1654 C1655 1.399 . S
C1654 C1658 1.389 . S
C1655 C1654 1.399 . S
C1655 C1657 1.380 . S
C1655 H1672 0.929 . S
C1656 C1653 1.399 . S
C1656 C1657 1.392 . S
C1656 H1673 0.929 . S
C1657 C1655 1.380 . S
C1657 C1656 1.392 . S
C1657 H1674 0.929 . S
C1658 C1653 1.383 . S
C1658 C1654 1.389 . S
C1658 H1675 0.931 . S
C1659 O1644 1.266 . S
C1659 O1645 1.248 . S
C1660 Tb1596 2.796 1_655 S
C1660 O1640 1.264 . S
C1660 O1643 1.256 . S
C1660 C1653 1.496 . S
C1661 C1628 1.448 . S
C1661 H1638 0.930 . S
C1661 C1662 1.328 . S
C1662 C1633 1.427 . S
C1662 H1639 0.929 . S
C1662 C1661 1.328 . S
C1663 O1647 1.264 . S
C1663 O1648 1.243 . S
C1664 C1667 1.399 . S
C1664 C1668 1.383 . S
C1664 C1671 1.496 . S
C1665 C1666 1.399 . S
C1665 C1668 1.389 . S
C1666 C1665 1.399 . S
C1666 C1669 1.380 . S
C1666 H1676 0.929 . S
C1667 C1664 1.399 . S
C1667 C1669 1.392 . S
C1667 H1677 0.929 1_554 S
C1668 C1664 1.383 . S
C1668 C1665 1.389 . S
C1668 H1678 0.931 . S
C1669 C1666 1.380 . S
C1669 C1667 1.392 . S
C1669 H1679 0.929 1_554 S
C1670 O1650 1.266 . S
C1670 O1651 1.248 . S
C1671 Tb1607 2.802 . S
C1671 O1646 1.264 . S
C1671 O1649 1.256 . S
C1671 C1664 1.496 . S
H1672 C1655 0.929 . S
H1673 C1656 0.929 . S
H1674 C1657 0.929 . S
H1675 C1658 0.931 . S
H1676 C1666 0.929 . S
H1677 C1667 0.929 1_556 S
H1678 C1668 0.931 . S
H1679 C1669 0.929 1_556 S
H1680 C1688 0.950 . S
H1681 C1693 0.950 . S
H1682 C1690 0.950 . S
H1683 C1692 0.950 . S
H1684 C1694 0.950 . S
H1685 C1696 0.950 . S
H1686 C1698 0.950 . S
H1687 C1699 0.921 1_655 S
C1688 H1680 0.950 . S
C1688 C1689 1.386 . S
C1688 C1690 1.391 . S
C1689 C1688 1.386 . S
C1689 C1693 1.393 1_655 S
C1690 H1682 0.950 . S
C1690 C1688 1.391 . S
C1690 C1691 1.400 1_655 S
C1691 C1690 1.400 1_455 S
C1691 C1692 1.398 . S
C1691 C1697 1.491 1_556 S
C1692 H1683 0.950 . S
C1692 C1691 1.398 . S
C1692 C1693 1.391 . S
C1693 H1681 0.950 . S
C1693 C1689 1.393 1_455 S
C1693 C1692 1.391 . S
C1694 H1684 0.950 . S
C1694 C1695 1.386 . S
C1694 C1696 1.391 . S
C1695 C1694 1.386 . S
C1695 C1699 1.439 . S
C1696 H1685 0.950 . S
C1696 C1694 1.391 . S
C1696 C1697 1.400 . S
C1697 C1691 1.491 1_554 S
C1697 C1696 1.400 . S
C1697 C1698 1.398 1_455 S
C1698 H1686 0.950 . S
C1698 C1697 1.398 1_655 S
C1698 C1699 1.374 1_655 S
C1699 H1687 0.921 1_455 S
C1699 C1695 1.439 . S
C1699 C1698 1.374 1_455 S
H1700 C1708 0.950 . S
H1701 C1713 0.950 . S
H1702 C1710 0.950 . S
H1703 C1712 0.950 . S
H1704 C1714 0.950 . S
H1705 C1716 0.950 . S
H1706 C1718 0.950 . S
H1707 C1719 0.950 . S
C1708 H1700 0.950 . S
C1708 C1709 1.386 . S
C1708 C1710 1.391 . S
C1709 C1708 1.386 . S
C1709 C1713 1.393 . S
C1710 H1702 0.950 . S
C1710 C1708 1.391 . S
C1710 C1711 1.400 . S
C1711 C1710 1.400 . S
C1711 C1712 1.398 . S
C1711 C1717 1.491 . S
C1712 H1703 0.950 . S
C1712 C1711 1.398 . S
C1712 C1713 1.391 . S
C1713 H1701 0.950 . S
C1713 C1709 1.393 . S
C1713 C1712 1.391 . S
C1714 H1704 0.950 . S
C1714 C1715 1.386 . S
C1714 C1716 1.391 . S
C1715 C1714 1.386 . S
C1715 C1719 1.393 . S
C1716 H1705 0.950 . S
C1716 C1714 1.391 . S
C1716 C1717 1.400 . S
C1717 C1711 1.491 . S
C1717 C1716 1.400 . S
C1717 C1718 1.398 . S
C1718 H1706 0.950 . S
C1718 C1717 1.398 . S
C1718 C1719 1.391 . S
C1719 H1707 0.950 . S
C1719 C1715 1.393 . S
C1719 C1718 1.391 . S
H1720 C1728 0.950 . S
H1721 C1733 0.950 . S
H1722 C1730 0.950 . S
H1723 C1732 0.950 . S
H1724 C1734 0.950 . S
H1725 C1736 0.950 . S
H1726 C1738 0.950 . S
H1727 C1739 0.950 . S
C1728 H1720 0.950 . S
C1728 C1729 1.386 . S
C1728 C1730 1.391 . S
C1729 C1728 1.386 . S
C1729 C1733 1.393 . S
C1730 H1722 0.950 . S
C1730 C1728 1.391 . S
C1730 C1731 1.400 . S
C1731 C1730 1.400 . S
C1731 C1732 1.398 . S
C1731 C1737 1.491 . S
C1732 H1723 0.950 . S
C1732 C1731 1.398 . S
C1732 C1733 1.391 . S
C1733 H1721 0.950 . S
C1733 C1729 1.393 . S
C1733 C1732 1.391 . S
C1734 H1724 0.950 . S
C1734 C1735 1.386 . S
C1734 C1736 1.391 . S
C1735 C1734 1.386 . S
C1735 C1739 1.393 . S
C1736 H1725 0.950 . S
C1736 C1734 1.391 . S
C1736 C1737 1.400 . S
C1737 C1731 1.491 . S
C1737 C1736 1.400 . S
C1737 C1738 1.398 . S
C1738 H1726 0.950 . S
C1738 C1737 1.398 . S
C1738 C1739 1.391 . S
C1739 H1727 0.950 . S
C1739 C1735 1.393 . S
C1739 C1738 1.391 . S
H1740 C1748 0.950 . S
H1741 C1753 0.950 . S
H1742 C1750 0.950 . S
H1743 C1752 0.950 . S
H1744 C1754 0.950 . S
H1745 C1756 0.950 . S
H1746 C1758 0.950 . S
H1747 C1759 0.950 . S
C1748 H1740 0.950 . S
C1748 C1749 1.386 . S
C1748 C1750 1.391 . S
C1749 C1748 1.386 . S
C1749 C1753 1.393 . S
C1750 H1742 0.950 . S
C1750 C1748 1.391 . S
C1750 C1751 1.400 . S
C1751 C1750 1.400 . S
C1751 C1752 1.398 . S
C1751 C1757 1.491 . S
C1752 H1743 0.950 . S
C1752 C1751 1.398 . S
C1752 C1753 1.391 . S
C1753 H1741 0.950 . S
C1753 C1749 1.393 . S
C1753 C1752 1.391 . S
C1754 H1744 0.950 . S
C1754 C1755 1.386 . S
C1754 C1756 1.391 . S
C1755 C1754 1.386 . S
C1755 C1759 1.393 . S
C1756 H1745 0.950 . S
C1756 C1754 1.391 . S
C1756 C1757 1.400 . S
C1757 C1751 1.491 . S
C1757 C1756 1.400 . S
C1757 C1758 1.398 . S
C1758 H1746 0.950 . S
C1758 C1757 1.398 . S
C1758 C1759 1.391 . S
C1759 H1747 0.950 . S
C1759 C1755 1.393 . S
C1759 C1758 1.391 . S
H1760 C1768 0.950 . S
H1761 C1773 0.950 1_655 S
H1762 C1770 0.950 . S
H1763 C1772 0.914 1_655 S
H1764 C1774 0.971 . S
H1765 C1776 0.927 1_655 S
H1766 C1778 0.950 . S
H1767 C1779 0.950 . S
C1768 H1760 0.950 . S
C1768 C1769 1.386 . S
C1768 C1770 1.391 . S
C1769 C1768 1.386 . S
C1769 C1773 1.393 . S
C1770 H1762 0.950 . S
C1770 C1768 1.391 . S
C1770 C1771 1.400 . S
C1771 C1770 1.400 . S
C1771 C1772 1.398 . S
C1771 C1777 1.491 . S
C1772 H1763 0.914 1_455 S
C1772 C1771 1.398 . S
C1772 C1773 1.391 . S
C1773 H1761 0.950 1_455 S
C1773 C1769 1.393 . S
C1773 C1772 1.391 . S
C1774 H1764 0.971 . S
C1774 C1775 1.386 . S
C1774 C1776 1.391 . S
C1775 C1774 1.386 . S
C1775 C1779 1.393 . S
C1776 H1765 0.927 1_455 S
C1776 C1774 1.391 . S
C1776 C1777 1.400 . S
C1777 C1771 1.491 . S
C1777 C1776 1.400 . S
C1777 C1778 1.398 . S
C1778 H1766 0.950 . S
C1778 C1777 1.398 . S
C1778 C1779 1.391 . S
C1779 H1767 0.950 . S
C1779 C1775 1.393 . S
C1779 C1778 1.391 . S
H1780 C1788 0.950 . S
H1781 C1793 0.950 . S
H1782 C1790 0.950 . S
H1783 C1792 0.950 . S
H1784 C1794 0.950 . S
H1785 C1796 0.950 . S
H1786 C1798 0.950 . S
H1787 C1799 0.950 . S
C1788 H1780 0.950 . S
C1788 C1789 1.386 . S
C1788 C1790 1.391 . S
C1789 C1788 1.386 . S
C1789 C1793 1.393 . S
C1790 H1782 0.950 . S
C1790 C1788 1.391 . S
C1790 C1791 1.400 . S
C1791 C1790 1.400 . S
C1791 C1792 1.398 . S
C1791 C1797 1.491 . S
C1792 H1783 0.950 . S
C1792 C1791 1.398 . S
C1792 C1793 1.391 . S
C1793 H1781 0.950 . S
C1793 C1789 1.393 . S
C1793 C1792 1.391 . S
C1794 H1784 0.950 . S
C1794 C1795 1.386 . S
C1794 C1796 1.391 . S
C1795 C1794 1.386 . S
C1795 C1799 1.393 . S
C1796 H1785 0.950 . S
C1796 C1794 1.391 . S
C1796 C1797 1.400 . S
C1797 C1791 1.491 . S
C1797 C1796 1.400 . S
C1797 C1798 1.398 . S
C1798 H1786 0.950 . S
C1798 C1797 1.398 . S
C1798 C1799 1.391 . S
C1799 H1787 0.950 . S
C1799 C1795 1.393 . S
C1799 C1798 1.391 . S
H1800 C1808 0.950 . S
H1801 C1813 0.950 . S
H1802 C1810 0.950 . S
H1803 C1812 0.950 . S
H1804 C1814 0.950 . S
H1805 C1816 0.950 . S
H1806 C1818 0.950 . S
H1807 C1819 0.950 . S
C1808 H1800 0.950 . S
C1808 C1809 1.386 . S
C1808 C1810 1.391 . S
C1809 C1808 1.386 . S
C1809 C1813 1.393 . S
C1810 H1802 0.950 . S
C1810 C1808 1.391 . S
C1810 C1811 1.400 . S
C1811 C1810 1.400 . S
C1811 C1812 1.398 . S
C1811 C1817 1.491 . S
C1812 H1803 0.950 . S
C1812 C1811 1.398 . S
C1812 C1813 1.391 . S
C1813 H1801 0.950 . S
C1813 C1809 1.393 . S
C1813 C1812 1.391 . S
C1814 H1804 0.950 . S
C1814 C1815 1.386 . S
C1814 C1816 1.391 . S
C1815 C1814 1.386 . S
C1815 C1819 1.393 . S
C1816 H1805 0.950 . S
C1816 C1814 1.391 . S
C1816 C1817 1.400 . S
C1817 C1811 1.491 . S
C1817 C1816 1.400 . S
C1817 C1818 1.398 . S
C1818 H1806 0.950 . S
C1818 C1817 1.398 . S
C1818 C1819 1.391 . S
C1819 H1807 0.950 . S
C1819 C1815 1.393 . S
C1819 C1818 1.391 . S
H1820 C1828 0.950 . S
H1821 C1833 0.950 . S
H1822 C1830 0.950 . S
H1823 C1832 0.950 . S
H1824 C1834 0.950 . S
H1825 C1836 0.950 . S
H1826 C1838 0.950 . S
H1827 C1839 0.950 . S
C1828 H1820 0.950 . S
C1828 C1829 1.386 . S
C1828 C1830 1.391 . S
C1829 C1828 1.386 . S
C1829 C1833 1.393 . S
C1830 H1822 0.950 . S
C1830 C1828 1.391 . S
C1830 C1831 1.400 . S
C1831 C1830 1.400 . S
C1831 C1832 1.398 . S
C1831 C1837 1.491 . S
C1832 H1823 0.950 . S
C1832 C1831 1.398 . S
C1832 C1833 1.391 . S
C1833 H1821 0.950 . S
C1833 C1829 1.393 . S
C1833 C1832 1.391 . S
C1834 H1824 0.950 . S
C1834 C1835 1.386 . S
C1834 C1836 1.391 . S
C1835 C1834 1.386 . S
C1835 C1839 1.393 . S
C1836 H1825 0.950 . S
C1836 C1834 1.391 . S
C1836 C1837 1.400 . S
C1837 C1831 1.491 . S
C1837 C1836 1.400 . S
C1837 C1838 1.398 . S
C1838 H1826 0.950 . S
C1838 C1837 1.398 . S
C1838 C1839 1.391 . S
C1839 H1827 0.950 . S
C1839 C1835 1.393 . S
C1839 C1838 1.391 . S
H1840 C1848 0.950 . S
H1841 C1853 0.950 . S
H1842 C1850 0.950 1_565 S
H1843 C1852 0.950 . S
H1844 C1854 0.950 . S
H1845 C1856 0.950 . S
H1846 C1858 0.950 . S
H1847 C1859 0.950 . S
C1848 H1840 0.950 . S
C1848 C1849 1.386 1_565 S
C1848 C1850 1.391 1_565 S
C1849 C1848 1.386 1_545 S
C1849 C1853 1.393 . S
C1850 H1842 0.950 1_545 S
C1850 C1848 1.391 1_545 S
C1850 C1851 1.400 . S
C1851 C1850 1.400 . S
C1851 C1852 1.398 . S
C1851 C1857 1.491 . S
C1852 H1843 0.950 . S
C1852 C1851 1.398 . S
C1852 C1853 1.391 . S
C1853 H1841 0.950 . S
C1853 C1849 1.393 . S
C1853 C1852 1.391 . S
C1854 H1844 0.950 . S
C1854 C1855 1.386 1_655 S
C1854 C1856 1.391 . S
C1855 C1854 1.386 1_455 S
C1855 C1859 1.393 . S
C1856 H1845 0.950 . S
C1856 C1854 1.391 . S
C1856 C1857 1.400 . S
C1857 C1851 1.491 . S
C1857 C1856 1.400 . S
C1857 C1858 1.398 . S
C1858 H1846 0.950 . S
C1858 C1857 1.398 . S
C1858 C1859 1.391 1_655 S
C1859 H1847 0.950 . S
C1859 C1855 1.393 . S
C1859 C1858 1.391 1_455 S
H1860 C1868 0.950 . S
H1861 C1873 0.950 . S
H1862 C1870 0.950 . S
H1863 C1872 0.950 . S
H1864 C1874 0.950 . S
H1865 C1876 0.950 . S
H1866 C1878 0.950 . S
H1867 C1879 0.950 . S
C1868 H1860 0.950 . S
C1868 C1869 1.386 . S
C1868 C1870 1.391 . S
C1869 C1868 1.386 . S
C1869 C1873 1.393 . S
C1870 H1862 0.950 . S
C1870 C1868 1.391 . S
C1870 C1871 1.400 . S
C1871 C1870 1.400 . S
C1871 C1872 1.398 . S
C1871 C1877 1.491 . S
C1872 H1863 0.950 . S
C1872 C1871 1.398 . S
C1872 C1873 1.391 . S
C1873 H1861 0.950 . S
C1873 C1869 1.393 . S
C1873 C1872 1.391 . S
C1874 H1864 0.950 . S
C1874 C1875 1.386 . S
C1874 C1876 1.391 . S
C1875 C1874 1.386 . S
C1875 C1879 1.393 . S
C1876 H1865 0.950 . S
C1876 C1874 1.391 . S
C1876 C1877 1.400 . S
C1877 C1871 1.491 . S
C1877 C1876 1.400 . S
C1877 C1878 1.398 . S
C1878 H1866 0.950 . S
C1878 C1877 1.398 . S
C1878 C1879 1.391 . S
C1879 H1867 0.950 . S
C1879 C1875 1.393 . S
C1879 C1878 1.391 . S
H1880 C1888 0.950 . S
H1881 C1893 0.950 . S
H1882 C1890 0.950 . S
H1883 C1892 0.950 . S
H1884 C1894 0.950 . S
H1885 C1896 0.950 . S
H1886 C1898 0.950 . S
H1887 C1899 0.950 . S
C1888 H1880 0.950 . S
C1888 C1889 1.386 . S
C1888 C1890 1.391 . S
C1889 C1888 1.386 . S
C1889 C1893 1.393 . S
C1890 H1882 0.950 . S
C1890 C1888 1.391 . S
C1890 C1891 1.400 . S
C1891 C1890 1.400 . S
C1891 C1892 1.398 . S
C1891 C1897 1.491 . S
C1892 H1883 0.950 . S
C1892 C1891 1.398 . S
C1892 C1893 1.391 . S
C1893 H1881 0.950 . S
C1893 C1889 1.393 . S
C1893 C1892 1.391 . S
C1894 H1884 0.950 . S
C1894 C1895 1.386 . S
C1894 C1896 1.391 . S
C1895 C1894 1.386 . S
C1895 C1899 1.393 . S
C1896 H1885 0.950 . S
C1896 C1894 1.391 . S
C1896 C1897 1.400 . S
C1897 C1891 1.491 . S
C1897 C1896 1.400 . S
C1897 C1898 1.398 . S
C1898 H1886 0.950 . S
C1898 C1897 1.398 . S
C1898 C1899 1.391 . S
C1899 H1887 0.950 . S
C1899 C1895 1.393 . S
C1899 C1898 1.391 . S
H1900 C1908 0.950 . S
H1901 C1913 0.950 . S
H1902 C1910 0.950 . S
H1903 C1912 0.950 . S
H1904 C1914 0.950 . S
H1905 C1916 0.950 . S
H1906 C1918 0.950 . S
H1907 C1919 0.950 . S
C1908 H1900 0.950 . S
C1908 C1909 1.386 . S
C1908 C1910 1.391 . S
C1909 C1908 1.386 . S
C1909 C1913 1.393 . S
C1910 H1902 0.950 . S
C1910 C1908 1.391 . S
C1910 C1911 1.400 . S
C1911 C1910 1.400 . S
C1911 C1912 1.398 . S
C1911 C1917 1.491 . S
C1912 H1903 0.950 . S
C1912 C1911 1.398 . S
C1912 C1913 1.391 . S
C1913 H1901 0.950 . S
C1913 C1909 1.393 . S
C1913 C1912 1.391 . S
C1914 H1904 0.950 . S
C1914 C1915 1.386 . S
C1914 C1916 1.391 . S
C1915 C1914 1.386 . S
C1915 C1919 1.393 . S
C1916 H1905 0.950 . S
C1916 C1914 1.391 . S
C1916 C1917 1.400 . S
C1917 C1911 1.491 . S
C1917 C1916 1.400 . S
C1917 C1918 1.398 . S
C1918 H1906 0.950 . S
C1918 C1917 1.398 . S
C1918 C1919 1.391 . S
C1919 H1907 0.950 . S
C1919 C1915 1.393 . S
C1919 C1918 1.391 . S
H1920 C1928 0.950 . S
H1921 C1933 0.950 . S
H1922 C1930 0.950 1_455 S
H1923 C1932 0.950 . S
H1924 C1934 0.950 . S
H1925 C1936 0.950 . S
H1926 C1938 0.950 . S
H1927 C1939 0.950 . S
C1928 H1920 0.950 . S
C1928 C1929 1.386 . S
C1928 C1930 1.391 . S
C1929 C1928 1.386 . S
C1929 C1933 1.393 . S
C1930 H1922 0.950 1_655 S
C1930 C1928 1.391 . S
C1930 C1931 1.400 . S
C1931 C1930 1.400 . S
C1931 C1932 1.398 . S
C1931 C1937 1.491 . S
C1932 H1923 0.950 . S
C1932 C1931 1.398 . S
C1932 C1933 1.391 . S
C1933 H1921 0.950 . S
C1933 C1929 1.393 . S
C1933 C1932 1.391 . S
C1934 H1924 0.950 . S
C1934 C1935 1.386 1_655 S
C1934 C1936 1.391 . S
C1935 C1934 1.386 1_455 S
C1935 C1939 1.393 . S
C1936 H1925 0.950 . S
C1936 C1934 1.391 . S
C1936 C1937 1.400 . S
C1937 C1931 1.491 . S
C1937 C1936 1.400 . S
C1937 C1938 1.398 1_655 S
C1938 H1926 0.950 . S
C1938 C1937 1.398 1_455 S
C1938 C1939 1.391 . S
C1939 H1927 0.950 . S
C1939 C1935 1.393 . S
C1939 C1938 1.391 . S
H1940 C1948 0.950 . S
H1941 C1953 0.950 . S
H1942 C1950 0.950 . S
H1943 C1952 0.950 . S
H1944 C1954 0.950 . S
H1945 C1956 0.950 . S
H1946 C1958 0.950 . S
H1947 C1959 0.950 . S
C1948 H1940 0.950 . S
C1948 C1949 1.386 . S
C1948 C1950 1.391 . S
C1949 C1948 1.386 . S
C1949 C1953 1.393 . S
C1950 H1942 0.950 . S
C1950 C1948 1.391 . S
C1950 C1951 1.400 . S
C1951 C1950 1.400 . S
C1951 C1952 1.398 . S
C1951 C1957 1.491 . S
C1952 H1943 0.950 . S
C1952 C1951 1.398 . S
C1952 C1953 1.391 . S
C1953 H1941 0.950 . S
C1953 C1949 1.393 . S
C1953 C1952 1.391 . S
C1954 H1944 0.950 . S
C1954 C1955 1.386 . S
C1954 C1956 1.391 . S
C1955 C1954 1.386 . S
C1955 C1959 1.393 . S
C1956 H1945 0.950 . S
C1956 C1954 1.391 . S
C1956 C1957 1.400 . S
C1957 C1951 1.491 . S
C1957 C1956 1.400 . S
C1957 C1958 1.398 . S
C1958 H1946 0.950 . S
C1958 C1957 1.398 . S
C1958 C1959 1.391 . S
C1959 H1947 0.950 . S
C1959 C1955 1.393 . S
C1959 C1958 1.391 . S
H1960 C1968 0.950 . S
H1961 C1973 0.950 . S
H1962 C1970 0.950 . S
H1963 C1972 0.950 . S
H1964 C1974 0.950 . S
H1965 C1976 0.950 . S
H1966 C1978 0.950 . S
H1967 C1979 0.950 . S
C1968 H1960 0.950 . S
C1968 C1969 1.386 . S
C1968 C1970 1.391 . S
C1969 C1968 1.386 . S
C1969 C1973 1.393 . S
C1970 H1962 0.950 . S
C1970 C1968 1.391 . S
C1970 C1971 1.400 . S
C1971 C1970 1.400 . S
C1971 C1972 1.398 . S
C1971 C1977 1.491 . S
C1972 H1963 0.950 . S
C1972 C1971 1.398 . S
C1972 C1973 1.391 . S
C1973 H1961 0.950 . S
C1973 C1969 1.393 . S
C1973 C1972 1.391 . S
C1974 H1964 0.950 . S
C1974 C1975 1.386 . S
C1974 C1976 1.391 . S
C1975 C1974 1.386 . S
C1975 C1979 1.393 . S
C1976 H1965 0.950 . S
C1976 C1974 1.391 . S
C1976 C1977 1.400 . S
C1977 C1971 1.491 . S
C1977 C1976 1.400 . S
C1977 C1978 1.398 . S
C1978 H1966 0.950 . S
C1978 C1977 1.398 . S
C1978 C1979 1.391 . S
C1979 H1967 0.950 . S
C1979 C1975 1.393 . S
C1979 C1978 1.391 . S
H1980 C1988 0.950 . S
H1981 C1993 0.950 . S
H1982 C1990 0.950 . S
H1983 C1992 0.950 . S
H1984 C1994 0.950 . S
H1985 C1996 0.950 . S
H1986 C1998 0.950 . S
H1987 C1999 0.950 . S
C1988 H1980 0.950 . S
C1988 C1989 1.386 . S
C1988 C1990 1.391 . S
C1989 C1988 1.386 . S
C1989 C1993 1.393 . S
C1990 H1982 0.950 . S
C1990 C1988 1.391 . S
C1990 C1991 1.400 . S
C1991 C1990 1.400 . S
C1991 C1992 1.398 . S
C1991 C1997 1.491 . S
C1992 H1983 0.950 . S
C1992 C1991 1.398 . S
C1992 C1993 1.391 . S
C1993 H1981 0.950 . S
C1993 C1989 1.393 . S
C1993 C1992 1.391 . S
C1994 H1984 0.950 . S
C1994 C1995 1.386 . S
C1994 C1996 1.391 . S
C1995 C1994 1.386 . S
C1995 C1999 1.393 . S
C1996 H1985 0.950 . S
C1996 C1994 1.391 . S
C1996 C1997 1.400 . S
C1997 C1991 1.491 . S
C1997 C1996 1.400 . S
C1997 C1998 1.398 . S
C1998 H1986 0.950 . S
C1998 C1997 1.398 . S
C1998 C1999 1.391 . S
C1999 H1987 0.950 . S
C1999 C1995 1.393 . S
C1999 C1998 1.391 . S
H2000 C2008 0.950 . S
H2001 C2013 0.950 . S
H2002 C2010 0.950 1_556 S
H2003 C2012 0.950 . S
H2004 C2014 0.950 . S
H2005 C2016 0.950 . S
H2006 C2018 0.950 . S
H2007 C2019 0.950 . S
C2008 H2000 0.950 . S
C2008 C2009 1.386 1_556 S
C2008 C2010 1.391 1_556 S
C2009 C2008 1.386 1_554 S
C2009 C2013 1.393 . S
C2010 H2002 0.950 1_554 S
C2010 C2008 1.391 1_554 S
C2010 C2011 1.400 . S
C2011 C2010 1.400 . S
C2011 C2012 1.398 . S
C2011 C2017 1.491 . S
C2012 H2003 0.950 . S
C2012 C2011 1.398 . S
C2012 C2013 1.391 . S
C2013 H2001 0.950 . S
C2013 C2009 1.393 . S
C2013 C2012 1.391 . S
C2014 H2004 0.950 . S
C2014 C2015 1.386 . S
C2014 C2016 1.391 1_545 S
C2015 C2014 1.386 . S
C2015 C2019 1.393 . S
C2016 H2005 0.950 . S
C2016 C2014 1.391 1_565 S
C2016 C2017 1.400 . S
C2017 C2011 1.491 . S
C2017 C2016 1.400 . S
C2017 C2018 1.398 . S
C2018 H2006 0.950 . S
C2018 C2017 1.398 . S
C2018 C2019 1.391 1_565 S
C2019 H2007 0.950 . S
C2019 C2015 1.393 . S
C2019 C2018 1.391 1_545 S
H2020 C2028 0.950 . S
H2021 C2033 0.950 . S
H2022 C2030 0.950 . S
H2023 C2032 0.950 . S
H2024 C2034 0.950 . S
H2025 C2036 0.950 . S
H2026 C2038 0.950 . S
H2027 C2039 0.950 . S
C2028 H2020 0.950 . S
C2028 C2029 1.386 . S
C2028 C2030 1.391 . S
C2029 C2028 1.386 . S
C2029 C2033 1.393 . S
C2030 H2022 0.950 . S
C2030 C2028 1.391 . S
C2030 C2031 1.400 . S
C2031 C2030 1.400 . S
C2031 C2032 1.398 . S
C2031 C2037 1.491 . S
C2032 H2023 0.950 . S
C2032 C2031 1.398 . S
C2032 C2033 1.391 . S
C2033 H2021 0.950 . S
C2033 C2029 1.393 . S
C2033 C2032 1.391 . S
C2034 H2024 0.950 . S
C2034 C2035 1.386 . S
C2034 C2036 1.391 . S
C2035 C2034 1.386 . S
C2035 C2039 1.393 . S
C2036 H2025 0.950 . S
C2036 C2034 1.391 . S
C2036 C2037 1.400 . S
C2037 C2031 1.491 . S
C2037 C2036 1.400 . S
C2037 C2038 1.398 . S
C2038 H2026 0.950 . S
C2038 C2037 1.398 . S
C2038 C2039 1.391 . S
C2039 H2027 0.950 . S
C2039 C2035 1.393 . S
C2039 C2038 1.391 . S
H2040 C2048 0.950 . S
H2041 C2053 0.950 . S
H2042 C2050 0.950 . S
H2043 C2052 0.950 . S
H2044 C2054 0.950 . S
H2045 C2056 0.950 . S
H2046 C2058 0.950 . S
H2047 C2059 0.950 . S
C2048 H2040 0.950 . S
C2048 C2049 1.386 . S
C2048 C2050 1.391 . S
C2049 C2048 1.386 . S
C2049 C2053 1.393 . S
C2050 H2042 0.950 . S
C2050 C2048 1.391 . S
C2050 C2051 1.400 . S
C2051 C2050 1.400 . S
C2051 C2052 1.398 . S
C2051 C2057 1.491 . S
C2052 H2043 0.950 . S
C2052 C2051 1.398 . S
C2052 C2053 1.391 . S
C2053 H2041 0.950 . S
C2053 C2049 1.393 . S
C2053 C2052 1.391 . S
C2054 H2044 0.950 . S
C2054 C2055 1.386 . S
C2054 C2056 1.391 . S
C2055 C2054 1.386 . S
C2055 C2059 1.393 . S
C2056 H2045 0.950 . S
C2056 C2054 1.391 . S
C2056 C2057 1.400 . S
C2057 C2051 1.491 . S
C2057 C2056 1.400 . S
C2057 C2058 1.398 . S
C2058 H2046 0.950 . S
C2058 C2057 1.398 . S
C2058 C2059 1.391 . S
C2059 H2047 0.950 . S
C2059 C2055 1.393 . S
C2059 C2058 1.391 . S
H2060 C2068 0.950 . S
H2061 C2073 0.950 . S
H2062 C2070 0.950 . S
H2063 C2072 0.950 . S
H2064 C2074 0.950 . S
H2065 C2076 0.950 . S
H2066 C2078 0.950 . S
H2067 C2079 0.950 . S
C2068 H2060 0.950 . S
C2068 C2069 1.386 . S
C2068 C2070 1.391 . S
C2069 C2068 1.386 . S
C2069 C2073 1.393 . S
C2070 H2062 0.950 . S
C2070 C2068 1.391 . S
C2070 C2071 1.400 . S
C2071 C2070 1.400 . S
C2071 C2072 1.398 . S
C2071 C2077 1.491 . S
C2072 H2063 0.950 . S
C2072 C2071 1.398 . S
C2072 C2073 1.391 . S
C2073 H2061 0.950 . S
C2073 C2069 1.393 . S
C2073 C2072 1.391 . S
C2074 H2064 0.950 . S
C2074 C2075 1.386 . S
C2074 C2076 1.391 . S
C2075 C2074 1.386 . S
C2075 C2079 1.393 . S
C2076 H2065 0.950 . S
C2076 C2074 1.391 . S
C2076 C2077 1.400 . S
C2077 C2071 1.491 . S
C2077 C2076 1.400 . S
C2077 C2078 1.398 . S
C2078 H2066 0.950 . S
C2078 C2077 1.398 . S
C2078 C2079 1.391 . S
C2079 H2067 0.950 . S
C2079 C2075 1.393 . S
C2079 C2078 1.391 . S
H2080 C2088 0.950 . S
H2081 C2093 0.950 . S
H2082 C2090 0.950 . S
H2083 C2092 0.950 . S
H2084 C2094 0.950 . S
H2085 C2096 0.950 . S
H2086 C2098 0.950 . S
H2087 C2099 0.950 . S
C2088 H2080 0.950 . S
C2088 C2089 1.386 . S
C2088 C2090 1.391 . S
C2089 C2088 1.386 . S
C2089 C2093 1.393 . S
C2090 H2082 0.950 . S
C2090 C2088 1.391 . S
C2090 C2091 1.400 . S
C2091 C2090 1.400 . S
C2091 C2092 1.398 . S
C2091 C2097 1.491 . S
C2092 H2083 0.950 . S
C2092 C2091 1.398 . S
C2092 C2093 1.391 . S
C2093 H2081 0.950 . S
C2093 C2089 1.393 . S
C2093 C2092 1.391 . S
C2094 H2084 0.950 . S
C2094 C2095 1.386 . S
C2094 C2096 1.391 . S
C2095 C2094 1.386 . S
C2095 C2099 1.393 . S
C2096 H2085 0.950 . S
C2096 C2094 1.391 . S
C2096 C2097 1.400 . S
C2097 C2091 1.491 . S
C2097 C2096 1.400 . S
C2097 C2098 1.398 . S
C2098 H2086 0.950 . S
C2098 C2097 1.398 . S
C2098 C2099 1.391 . S
C2099 H2087 0.950 . S
C2099 C2095 1.393 . S
C2099 C2098 1.391 . S
H2100 C2108 0.950 . S
H2101 C2113 0.950 . S
H2102 C2110 0.950 . S
H2103 C2112 0.950 . S
H2104 C2114 0.950 . S
H2105 C2116 0.950 . S
H2106 C2118 0.950 . S
H2107 C2119 0.950 . S
C2108 H2100 0.950 . S
C2108 C2109 1.386 . S
C2108 C2110 1.391 . S
C2109 C2108 1.386 . S
C2109 C2113 1.393 . S
C2110 H2102 0.950 . S
C2110 C2108 1.391 . S
C2110 C2111 1.400 . S
C2111 C2110 1.400 . S
C2111 C2112 1.398 . S
C2111 C2117 1.491 . S
C2112 H2103 0.950 . S
C2112 C2111 1.398 . S
C2112 C2113 1.391 . S
C2113 H2101 0.950 . S
C2113 C2109 1.393 . S
C2113 C2112 1.391 . S
C2114 H2104 0.950 . S
C2114 C2115 1.386 . S
C2114 C2116 1.391 . S
C2115 C2114 1.386 . S
C2115 C2119 1.393 . S
C2116 H2105 0.950 . S
C2116 C2114 1.391 . S
C2116 C2117 1.400 . S
C2117 C2111 1.491 . S
C2117 C2116 1.400 . S
C2117 C2118 1.398 . S
C2118 H2106 0.950 . S
C2118 C2117 1.398 . S
C2118 C2119 1.391 . S
C2119 H2107 0.950 . S
C2119 C2115 1.393 . S
C2119 C2118 1.391 . S
H2120 C2128 0.950 . S
H2121 C2133 0.950 . S
H2122 C2130 0.950 . S
H2123 C2132 0.950 . S
H2124 C2134 0.950 . S
H2125 C2136 0.950 . S
H2126 C2138 0.950 . S
H2127 C2139 0.950 . S
C2128 H2120 0.950 . S
C2128 C2129 1.386 . S
C2128 C2130 1.391 . S
C2129 C2128 1.386 . S
C2129 C2133 1.393 . S
C2130 H2122 0.950 . S
C2130 C2128 1.391 . S
C2130 C2131 1.400 . S
C2131 C2130 1.400 . S
C2131 C2132 1.398 . S
C2131 C2137 1.491 . S
C2132 H2123 0.950 . S
C2132 C2131 1.398 . S
C2132 C2133 1.391 . S
C2133 H2121 0.950 . S
C2133 C2129 1.393 . S
C2133 C2132 1.391 . S
C2134 H2124 0.950 . S
C2134 C2135 1.386 . S
C2134 C2136 1.391 . S
C2135 C2134 1.386 . S
C2135 C2139 1.393 . S
C2136 H2125 0.950 . S
C2136 C2134 1.391 . S
C2136 C2137 1.400 . S
C2137 C2131 1.491 . S
C2137 C2136 1.400 . S
C2137 C2138 1.398 . S
C2138 H2126 0.950 . S
C2138 C2137 1.398 . S
C2138 C2139 1.391 . S
C2139 H2127 0.950 . S
C2139 C2135 1.393 . S
C2139 C2138 1.391 . S
H2140 C2148 0.950 . S
H2141 C2153 0.950 . S
H2142 C2150 0.950 . S
H2143 C2152 0.950 . S
H2144 C2154 0.950 . S
H2145 C2156 0.950 . S
H2146 C2158 0.950 . S
H2147 C2159 0.950 . S
C2148 H2140 0.950 . S
C2148 C2149 1.386 . S
C2148 C2150 1.391 . S
C2149 C2148 1.386 . S
C2149 C2153 1.393 . S
C2150 H2142 0.950 . S
C2150 C2148 1.391 . S
C2150 C2151 1.400 . S
C2151 C2150 1.400 . S
C2151 C2152 1.398 . S
C2151 C2157 1.491 . S
C2152 H2143 0.950 . S
C2152 C2151 1.398 . S
C2152 C2153 1.391 . S
C2153 H2141 0.950 . S
C2153 C2149 1.393 . S
C2153 C2152 1.391 . S
C2154 H2144 0.950 . S
C2154 C2155 1.386 . S
C2154 C2156 1.391 . S
C2155 C2154 1.386 . S
C2155 C2159 1.393 . S
C2156 H2145 0.950 . S
C2156 C2154 1.391 . S
C2156 C2157 1.400 . S
C2157 C2151 1.491 . S
C2157 C2156 1.400 . S
C2157 C2158 1.398 . S
C2158 H2146 0.950 . S
C2158 C2157 1.398 . S
C2158 C2159 1.391 . S
C2159 H2147 0.950 . S
C2159 C2155 1.393 . S
C2159 C2158 1.391 . S
H2160 C2168 0.950 . S
H2161 C2173 0.950 . S
H2162 C2170 0.950 . S
H2163 C2172 0.950 . S
H2164 C2174 0.950 . S
H2165 C2176 0.950 . S
H2166 C2178 0.950 . S
H2167 C2179 0.950 . S
C2168 H2160 0.950 . S
C2168 C2169 1.386 . S
C2168 C2170 1.391 . S
C2169 C2168 1.386 . S
C2169 C2173 1.393 . S
C2170 H2162 0.950 . S
C2170 C2168 1.391 . S
C2170 C2171 1.400 . S
C2171 C2170 1.400 . S
C2171 C2172 1.398 . S
C2171 C2177 1.491 . S
C2172 H2163 0.950 . S
C2172 C2171 1.398 . S
C2172 C2173 1.391 . S
C2173 H2161 0.950 . S
C2173 C2169 1.393 . S
C2173 C2172 1.391 . S
C2174 H2164 0.950 . S
C2174 C2175 1.386 . S
C2174 C2176 1.391 . S
C2175 C2174 1.386 . S
C2175 C2179 1.393 . S
C2176 H2165 0.950 . S
C2176 C2174 1.391 . S
C2176 C2177 1.400 . S
C2177 C2171 1.491 . S
C2177 C2176 1.400 . S
C2177 C2178 1.398 . S
C2178 H2166 0.950 . S
C2178 C2177 1.398 . S
C2178 C2179 1.391 . S
C2179 H2167 0.950 . S
C2179 C2175 1.393 . S
C2179 C2178 1.391 . S
H2180 C2188 0.950 . S
H2181 C2193 0.950 . S
H2182 C2190 0.950 . S
H2183 C2192 0.950 . S
H2184 C2194 0.950 . S
H2185 C2196 0.950 . S
H2186 C2198 0.950 . S
H2187 C2199 0.950 . S
C2188 H2180 0.950 . S
C2188 C2189 1.386 . S
C2188 C2190 1.391 . S
C2189 C2188 1.386 . S
C2189 C2193 1.393 . S
C2190 H2182 0.950 . S
C2190 C2188 1.391 . S
C2190 C2191 1.400 . S
C2191 C2190 1.400 . S
C2191 C2192 1.398 . S
C2191 C2197 1.491 . S
C2192 H2183 0.950 . S
C2192 C2191 1.398 . S
C2192 C2193 1.391 . S
C2193 H2181 0.950 . S
C2193 C2189 1.393 . S
C2193 C2192 1.391 . S
C2194 H2184 0.950 . S
C2194 C2195 1.386 . S
C2194 C2196 1.391 . S
C2195 C2194 1.386 . S
C2195 C2199 1.393 . S
C2196 H2185 0.950 . S
C2196 C2194 1.391 . S
C2196 C2197 1.400 . S
C2197 C2191 1.491 . S
C2197 C2196 1.400 . S
C2197 C2198 1.398 . S
C2198 H2186 0.950 . S
C2198 C2197 1.398 . S
C2198 C2199 1.391 . S
C2199 H2187 0.950 . S
C2199 C2195 1.393 . S
C2199 C2198 1.391 . S
H2200 C2208 0.950 . S
H2201 C2213 0.950 . S
H2202 C2210 0.950 . S
H2203 C2212 0.950 . S
H2204 C2214 0.950 . S
H2205 C2216 0.950 . S
H2206 C2218 0.950 . S
H2207 C2219 0.950 . S
C2208 H2200 0.950 . S
C2208 C2209 1.386 . S
C2208 C2210 1.391 . S
C2209 C2208 1.386 . S
C2209 C2213 1.393 . S
C2210 H2202 0.950 . S
C2210 C2208 1.391 . S
C2210 C2211 1.400 . S
C2211 C2210 1.400 . S
C2211 C2212 1.398 . S
C2211 C2217 1.491 . S
C2212 H2203 0.950 . S
C2212 C2211 1.398 . S
C2212 C2213 1.391 . S
C2213 H2201 0.950 . S
C2213 C2209 1.393 . S
C2213 C2212 1.391 . S
C2214 H2204 0.950 . S
C2214 C2215 1.386 . S
C2214 C2216 1.391 . S
C2215 C2214 1.386 . S
C2215 C2219 1.393 . S
C2216 H2205 0.950 . S
C2216 C2214 1.391 . S
C2216 C2217 1.400 . S
C2217 C2211 1.491 . S
C2217 C2216 1.400 . S
C2217 C2218 1.398 . S
C2218 H2206 0.950 . S
C2218 C2217 1.398 . S
C2218 C2219 1.391 . S
C2219 H2207 0.950 . S
C2219 C2215 1.393 . S
C2219 C2218 1.391 . S
H2220 C2228 0.950 . S
H2221 C2233 0.950 . S
H2222 C2230 0.950 . S
H2223 C2232 0.950 . S
H2224 C2234 0.950 . S
H2225 C2236 0.950 . S
H2226 C2238 0.950 . S
H2227 C2239 0.950 . S
C2228 H2220 0.950 . S
C2228 C2229 1.386 . S
C2228 C2230 1.391 . S
C2229 C2228 1.386 . S
C2229 C2233 1.393 . S
C2230 H2222 0.950 . S
C2230 C2228 1.391 . S
C2230 C2231 1.400 . S
C2231 C2230 1.400 . S
C2231 C2232 1.398 . S
C2231 C2237 1.491 . S
C2232 H2223 0.950 . S
C2232 C2231 1.398 . S
C2232 C2233 1.391 . S
C2233 H2221 0.950 . S
C2233 C2229 1.393 . S
C2233 C2232 1.391 . S
C2234 H2224 0.950 . S
C2234 C2235 1.386 . S
C2234 C2236 1.391 . S
C2235 C2234 1.386 . S
C2235 C2239 1.393 . S
C2236 H2225 0.950 . S
C2236 C2234 1.391 . S
C2236 C2237 1.400 . S
C2237 C2231 1.491 . S
C2237 C2236 1.400 . S
C2237 C2238 1.398 . S
C2238 H2226 0.950 . S
C2238 C2237 1.398 . S
C2238 C2239 1.391 . S
C2239 H2227 0.950 . S
C2239 C2235 1.393 . S
C2239 C2238 1.391 . S
H2240 C2248 0.950 . S
H2241 C2253 0.950 . S
H2242 C2250 0.950 . S
H2243 C2252 0.950 . S
H2244 C2254 0.950 . S
H2245 C2256 0.950 . S
H2246 C2258 0.950 . S
H2247 C2259 0.950 . S
C2248 H2240 0.950 . S
C2248 C2249 1.386 . S
C2248 C2250 1.391 . S
C2249 C2248 1.386 . S
C2249 C2253 1.393 . S
C2250 H2242 0.950 . S
C2250 C2248 1.391 . S
C2250 C2251 1.400 . S
C2251 C2250 1.400 . S
C2251 C2252 1.398 . S
C2251 C2257 1.491 . S
C2252 H2243 0.950 . S
C2252 C2251 1.398 . S
C2252 C2253 1.391 . S
C2253 H2241 0.950 . S
C2253 C2249 1.393 . S
C2253 C2252 1.391 . S
C2254 H2244 0.950 . S
C2254 C2255 1.386 . S
C2254 C2256 1.391 . S
C2255 C2254 1.386 . S
C2255 C2259 1.393 . S
C2256 H2245 0.950 . S
C2256 C2254 1.391 . S
C2256 C2257 1.400 . S
C2257 C2251 1.491 . S
C2257 C2256 1.400 . S
C2257 C2258 1.398 . S
C2258 H2246 0.950 . S
C2258 C2257 1.398 . S
C2258 C2259 1.391 . S
C2259 H2247 0.950 . S
C2259 C2255 1.393 . S
C2259 C2258 1.391 . S
H2260 C2268 0.950 . S
H2261 C2273 0.950 . S
H2262 C2270 0.950 . S
H2263 C2272 0.950 . S
H2264 C2274 0.950 . S
H2265 C2276 0.950 . S
H2266 C2278 0.950 . S
H2267 C2279 0.950 . S
C2268 H2260 0.950 . S
C2268 C2269 1.386 . S
C2268 C2270 1.391 . S
C2269 C2268 1.386 . S
C2269 C2273 1.393 . S
C2270 H2262 0.950 . S
C2270 C2268 1.391 . S
C2270 C2271 1.400 . S
C2271 C2270 1.400 . S
C2271 C2272 1.398 . S
C2271 C2277 1.491 . S
C2272 H2263 0.950 . S
C2272 C2271 1.398 . S
C2272 C2273 1.391 . S
C2273 H2261 0.950 . S
C2273 C2269 1.393 . S
C2273 C2272 1.391 . S
C2274 H2264 0.950 . S
C2274 C2275 1.386 . S
C2274 C2276 1.391 . S
C2275 C2274 1.386 . S
C2275 C2279 1.393 . S
C2276 H2265 0.950 . S
C2276 C2274 1.391 . S
C2276 C2277 1.400 . S
C2277 C2271 1.491 . S
C2277 C2276 1.400 . S
C2277 C2278 1.398 . S
C2278 H2266 0.950 . S
C2278 C2277 1.398 . S
C2278 C2279 1.391 . S
C2279 H2267 0.950 . S
C2279 C2275 1.393 . S
C2279 C2278 1.391 . S
H2280 C2288 0.950 . S
H2281 C2293 0.950 . S
H2282 C2290 0.950 . S
H2283 C2292 0.950 . S
H2284 C2294 0.950 . S
H2285 C2296 0.950 . S
H2286 C2298 0.950 . S
H2287 C2299 0.950 1_554 S
C2288 H2280 0.950 . S
C2288 C2289 1.386 . S
C2288 C2290 1.391 . S
C2289 C2288 1.386 . S
C2289 C2293 1.393 . S
C2290 H2282 0.950 . S
C2290 C2288 1.391 . S
C2290 C2291 1.400 . S
C2291 C2290 1.400 . S
C2291 C2292 1.398 . S
C2291 C2297 1.491 . S
C2292 H2283 0.950 . S
C2292 C2291 1.398 . S
C2292 C2293 1.391 . S
C2293 H2281 0.950 . S
C2293 C2289 1.393 . S
C2293 C2292 1.391 . S
C2294 H2284 0.950 . S
C2294 C2295 1.386 . S
C2294 C2296 1.391 . S
C2295 C2294 1.386 . S
C2295 C2299 1.393 . S
C2296 H2285 0.950 . S
C2296 C2294 1.391 . S
C2296 C2297 1.400 . S
C2297 C2291 1.491 . S
C2297 C2296 1.400 . S
C2297 C2298 1.398 . S
C2298 H2286 0.950 . S
C2298 C2297 1.398 . S
C2298 C2299 1.391 . S
C2299 H2287 0.950 1_556 S
C2299 C2295 1.393 . S
C2299 C2298 1.391 . S
H2300 C2308 0.950 . S
H2301 C2313 0.950 . S
H2302 C2310 0.950 . S
H2303 C2312 0.950 . S
H2304 C2314 0.950 . S
H2305 C2316 0.950 . S
H2306 C2318 0.950 . S
H2307 C2319 0.950 . S
C2308 H2300 0.950 . S
C2308 C2309 1.386 . S
C2308 C2310 1.391 . S
C2309 C2308 1.386 . S
C2309 C2313 1.393 . S
C2310 H2302 0.950 . S
C2310 C2308 1.391 . S
C2310 C2311 1.400 . S
C2311 C2310 1.400 . S
C2311 C2312 1.398 . S
C2311 C2317 1.491 . S
C2312 H2303 0.950 . S
C2312 C2311 1.398 . S
C2312 C2313 1.391 . S
C2313 H2301 0.950 . S
C2313 C2309 1.393 . S
C2313 C2312 1.391 . S
C2314 H2304 0.950 . S
C2314 C2315 1.386 . S
C2314 C2316 1.391 . S
C2315 C2314 1.386 . S
C2315 C2319 1.393 . S
C2316 H2305 0.950 . S
C2316 C2314 1.391 . S
C2316 C2317 1.400 . S
C2317 C2311 1.491 . S
C2317 C2316 1.400 . S
C2317 C2318 1.398 . S
C2318 H2306 0.950 . S
C2318 C2317 1.398 . S
C2318 C2319 1.391 . S
C2319 H2307 0.950 . S
C2319 C2315 1.393 . S
C2319 C2318 1.391 . S
H2320 C2328 0.950 . S
H2321 C2333 0.950 . S
H2322 C2330 0.950 . S
H2323 C2332 0.950 . S
H2324 C2334 0.950 . S
H2325 C2336 0.950 . S
H2326 C2338 0.950 . S
H2327 C2339 0.950 . S
C2328 H2320 0.950 . S
C2328 C2329 1.386 . S
C2328 C2330 1.391 . S
C2329 C2328 1.386 . S
C2329 C2333 1.393 . S
C2330 H2322 0.950 . S
C2330 C2328 1.391 . S
C2330 C2331 1.400 . S
C2331 C2330 1.400 . S
C2331 C2332 1.398 . S
C2331 C2337 1.491 . S
C2332 H2323 0.950 . S
C2332 C2331 1.398 . S
C2332 C2333 1.391 . S
C2333 H2321 0.950 . S
C2333 C2329 1.393 . S
C2333 C2332 1.391 . S
C2334 H2324 0.950 . S
C2334 C2335 1.386 . S
C2334 C2336 1.391 . S
C2335 C2334 1.386 . S
C2335 C2339 1.393 . S
C2336 H2325 0.950 . S
C2336 C2334 1.391 . S
C2336 C2337 1.400 . S
C2337 C2331 1.491 . S
C2337 C2336 1.400 . S
C2337 C2338 1.398 . S
C2338 H2326 0.950 . S
C2338 C2337 1.398 . S
C2338 C2339 1.391 . S
C2339 H2327 0.950 . S
C2339 C2335 1.393 . S
C2339 C2338 1.391 . S
H2340 C2348 0.950 . S
H2341 C2353 0.950 . S
H2342 C2350 0.950 . S
H2343 C2352 0.950 . S
H2344 C2354 0.950 . S
H2345 C2356 0.950 . S
H2346 C2358 0.950 . S
H2347 C2359 0.950 . S
C2348 H2340 0.950 . S
C2348 C2349 1.386 . S
C2348 C2350 1.391 . S
C2349 C2348 1.386 . S
C2349 C2353 1.393 . S
C2350 H2342 0.950 . S
C2350 C2348 1.391 . S
C2350 C2351 1.400 . S
C2351 C2350 1.400 . S
C2351 C2352 1.398 . S
C2351 C2357 1.491 . S
C2352 H2343 0.950 . S
C2352 C2351 1.398 . S
C2352 C2353 1.391 . S
C2353 H2341 0.950 . S
C2353 C2349 1.393 . S
C2353 C2352 1.391 . S
C2354 H2344 0.950 . S
C2354 C2355 1.386 . S
C2354 C2356 1.391 . S
C2355 C2354 1.386 . S
C2355 C2359 1.393 . S
C2356 H2345 0.950 . S
C2356 C2354 1.391 . S
C2356 C2357 1.400 . S
C2357 C2351 1.491 . S
C2357 C2356 1.400 . S
C2357 C2358 1.398 . S
C2358 H2346 0.950 . S
C2358 C2357 1.398 . S
C2358 C2359 1.391 . S
C2359 H2347 0.950 . S
C2359 C2355 1.393 . S
C2359 C2358 1.391 . S
H2360 C2368 0.950 . S
H2361 C2373 0.950 . S
H2362 C2370 0.950 . S
H2363 C2372 0.950 . S
H2364 C2374 0.950 . S
H2365 C2376 0.950 . S
H2366 C2378 0.950 . S
H2367 C2379 0.950 . S
C2368 H2360 0.950 . S
C2368 C2369 1.386 . S
C2368 C2370 1.391 . S
C2369 C2368 1.386 . S
C2369 C2373 1.393 . S
C2370 H2362 0.950 . S
C2370 C2368 1.391 . S
C2370 C2371 1.400 . S
C2371 C2370 1.400 . S
C2371 C2372 1.398 . S
C2371 C2377 1.491 . S
C2372 H2363 0.950 . S
C2372 C2371 1.398 . S
C2372 C2373 1.391 . S
C2373 H2361 0.950 . S
C2373 C2369 1.393 . S
C2373 C2372 1.391 . S
C2374 H2364 0.950 . S
C2374 C2375 1.386 . S
C2374 C2376 1.391 . S
C2375 C2374 1.386 . S
C2375 C2379 1.393 . S
C2376 H2365 0.950 . S
C2376 C2374 1.391 . S
C2376 C2377 1.400 . S
C2377 C2371 1.491 . S
C2377 C2376 1.400 . S
C2377 C2378 1.398 . S
C2378 H2366 0.950 . S
C2378 C2377 1.398 . S
C2378 C2379 1.391 . S
C2379 H2367 0.950 . S
C2379 C2375 1.393 . S
C2379 C2378 1.391 . S
H2380 C2388 0.950 . S
H2381 C2393 0.950 . S
H2382 C2390 0.950 . S
H2383 C2392 0.950 . S
H2384 C2394 0.950 . S
H2385 C2396 0.950 . S
H2386 C2398 0.950 . S
H2387 C2399 0.950 . S
C2388 H2380 0.950 . S
C2388 C2389 1.386 . S
C2388 C2390 1.391 . S
C2389 C2388 1.386 . S
C2389 C2393 1.393 . S
C2390 H2382 0.950 . S
C2390 C2388 1.391 . S
C2390 C2391 1.400 . S
C2391 C2390 1.400 . S
C2391 C2392 1.398 . S
C2391 C2397 1.491 . S
C2392 H2383 0.950 . S
C2392 C2391 1.398 . S
C2392 C2393 1.391 . S
C2393 H2381 0.950 . S
C2393 C2389 1.393 . S
C2393 C2392 1.391 . S
C2394 H2384 0.950 . S
C2394 C2395 1.386 . S
C2394 C2396 1.391 . S
C2395 C2394 1.386 . S
C2395 C2399 1.393 . S
C2396 H2385 0.950 . S
C2396 C2394 1.391 . S
C2396 C2397 1.400 . S
C2397 C2391 1.491 . S
C2397 C2396 1.400 . S
C2397 C2398 1.398 . S
C2398 H2386 0.950 . S
C2398 C2397 1.398 . S
C2398 C2399 1.391 . S
C2399 H2387 0.950 . S
C2399 C2395 1.393 . S
C2399 C2398 1.391 . S
H2400 C2408 0.950 . S
H2401 C2413 0.950 . S
H2402 C2410 0.950 . S
H2403 C2412 0.950 . S
H2404 C2414 0.950 . S
H2405 C2416 0.950 . S
H2406 C2418 0.950 . S
H2407 C2419 0.950 . S
C2408 H2400 0.950 . S
C2408 C2409 1.386 . S
C2408 C2410 1.391 . S
C2409 C2408 1.386 . S
C2409 C2413 1.393 . S
C2410 H2402 0.950 . S
C2410 C2408 1.391 . S
C2410 C2411 1.400 . S
C2411 C2410 1.400 . S
C2411 C2412 1.398 . S
C2411 C2417 1.491 . S
C2412 H2403 0.950 . S
C2412 C2411 1.398 . S
C2412 C2413 1.391 . S
C2413 H2401 0.950 . S
C2413 C2409 1.393 . S
C2413 C2412 1.391 . S
C2414 H2404 0.950 . S
C2414 C2415 1.386 . S
C2414 C2416 1.391 . S
C2415 C2414 1.386 . S
C2415 C2419 1.393 . S
C2416 H2405 0.950 . S
C2416 C2414 1.391 . S
C2416 C2417 1.400 . S
C2417 C2411 1.491 . S
C2417 C2416 1.400 . S
C2417 C2418 1.398 . S
C2418 H2406 0.950 . S
C2418 C2417 1.398 . S
C2418 C2419 1.391 . S
C2419 H2407 0.950 . S
C2419 C2415 1.393 . S
C2419 C2418 1.391 . S
H2420 C2428 0.950 . S
H2421 C2433 0.950 . S
H2422 C2430 0.950 . S
H2423 C2432 0.950 . S
H2424 C2434 0.950 . S
H2425 C2436 0.950 . S
H2426 C2438 0.950 . S
H2427 C2439 0.950 . S
C2428 H2420 0.950 . S
C2428 C2429 1.386 . S
C2428 C2430 1.391 . S
C2429 C2428 1.386 . S
C2429 C2433 1.393 . S
C2430 H2422 0.950 . S
C2430 C2428 1.391 . S
C2430 C2431 1.400 . S
C2431 C2430 1.400 . S
C2431 C2432 1.398 . S
C2431 C2437 1.491 . S
C2432 H2423 0.950 . S
C2432 C2431 1.398 . S
C2432 C2433 1.391 . S
C2433 H2421 0.950 . S
C2433 C2429 1.393 . S
C2433 C2432 1.391 . S
C2434 H2424 0.950 . S
C2434 C2435 1.386 . S
C2434 C2436 1.391 . S
C2435 C2434 1.386 . S
C2435 C2439 1.393 . S
C2436 H2425 0.950 . S
C2436 C2434 1.391 . S
C2436 C2437 1.400 . S
C2437 C2431 1.491 . S
C2437 C2436 1.400 . S
C2437 C2438 1.398 . S
C2438 H2426 0.950 . S
C2438 C2437 1.398 . S
C2438 C2439 1.391 . S
C2439 H2427 0.950 . S
C2439 C2435 1.393 . S
C2439 C2438 1.391 . S
H2440 C2448 0.950 . S
H2441 C2453 0.950 . S
H2442 C2450 0.950 . S
H2443 C2452 0.949 1_565 S
H2444 C2454 0.950 1_565 S
H2445 C2456 0.950 1_565 S
H2446 C2458 0.950 . S
H2447 C2459 0.950 . S
C2448 H2440 0.950 . S
C2448 C2449 1.386 . S
C2448 C2450 1.391 . S
C2449 C2448 1.386 . S
C2449 C2453 1.393 1_545 S
C2450 H2442 0.950 . S
C2450 C2448 1.391 . S
C2450 C2451 1.400 . S
C2451 C2450 1.400 . S
C2451 C2452 1.399 . S
C2451 C2457 1.491 . S
C2452 H2443 0.949 1_545 S
C2452 C2451 1.399 . S
C2452 C2453 1.391 1_545 S
C2453 H2441 0.950 . S
C2453 C2449 1.393 1_565 S
C2453 C2452 1.391 1_565 S
C2454 H2444 0.950 1_545 S
C2454 C2455 1.386 . S
C2454 C2456 1.391 . S
C2455 C2454 1.386 . S
C2455 C2459 1.393 . S
C2456 H2445 0.950 1_545 S
C2456 C2454 1.391 . S
C2456 C2457 1.400 . S
C2457 C2451 1.491 . S
C2457 C2456 1.400 . S
C2457 C2458 1.398 . S
C2458 H2446 0.950 . S
C2458 C2457 1.398 . S
C2458 C2459 1.391 . S
C2459 H2447 0.950 . S
C2459 C2455 1.393 . S
C2459 C2458 1.391 . S
H2460 C2468 0.950 . S
H2461 C2473 0.950 . S
H2462 C2470 0.950 . S
H2463 C2472 0.950 . S
H2464 C2474 0.950 . S
H2465 C2476 0.950 . S
H2466 C2478 0.950 . S
H2467 C2479 0.950 . S
C2468 H2460 0.950 . S
C2468 C2469 1.386 . S
C2468 C2470 1.391 . S
C2469 C2468 1.386 . S
C2469 C2473 1.393 . S
C2470 H2462 0.950 . S
C2470 C2468 1.391 . S
C2470 C2471 1.400 . S
C2471 C2470 1.400 . S
C2471 C2472 1.398 . S
C2471 C2477 1.491 . S
C2472 H2463 0.950 . S
C2472 C2471 1.398 . S
C2472 C2473 1.391 . S
C2473 H2461 0.950 . S
C2473 C2469 1.393 . S
C2473 C2472 1.391 . S
C2474 H2464 0.950 . S
C2474 C2475 1.386 . S
C2474 C2476 1.391 . S
C2475 C2474 1.386 . S
C2475 C2479 1.393 . S
C2476 H2465 0.950 . S
C2476 C2474 1.391 . S
C2476 C2477 1.400 . S
C2477 C2471 1.491 . S
C2477 C2476 1.400 . S
C2477 C2478 1.398 . S
C2478 H2466 0.950 . S
C2478 C2477 1.398 . S
C2478 C2479 1.391 . S
C2479 H2467 0.950 . S
C2479 C2475 1.393 . S
C2479 C2478 1.391 . S
H2480 C2488 0.950 . S
H2481 C2493 0.950 . S
H2482 C2490 0.950 . S
H2483 C2492 0.950 . S
H2484 C2494 0.950 . S
H2485 C2496 0.950 . S
H2486 C2498 0.950 . S
H2487 C2499 0.950 . S
C2488 H2480 0.950 . S
C2488 C2489 1.386 . S
C2488 C2490 1.391 . S
C2489 C2488 1.386 . S
C2489 C2493 1.393 . S
C2490 H2482 0.950 . S
C2490 C2488 1.391 . S
C2490 C2491 1.400 . S
C2491 C2490 1.400 . S
C2491 C2492 1.398 . S
C2491 C2497 1.491 . S
C2492 H2483 0.950 . S
C2492 C2491 1.398 . S
C2492 C2493 1.391 . S
C2493 H2481 0.950 . S
C2493 C2489 1.393 . S
C2493 C2492 1.391 . S
C2494 H2484 0.950 . S
C2494 C2495 1.386 . S
C2494 C2496 1.391 . S
C2495 C2494 1.386 . S
C2495 C2499 1.393 . S
C2496 H2485 0.950 . S
C2496 C2494 1.391 . S
C2496 C2497 1.400 . S
C2497 C2491 1.491 . S
C2497 C2496 1.400 . S
C2497 C2498 1.398 . S
C2498 H2486 0.950 . S
C2498 C2497 1.398 . S
C2498 C2499 1.391 . S
C2499 H2487 0.950 . S
C2499 C2495 1.393 . S
C2499 C2498 1.391 . S
H2500 C2508 0.950 . S
H2501 C2513 0.950 . S
H2502 C2510 0.950 . S
H2503 C2512 0.950 . S
H2504 C2514 0.950 . S
H2505 C2516 0.950 . S
H2506 C2518 0.950 . S
H2507 C2519 0.950 . S
C2508 H2500 0.950 . S
C2508 C2509 1.386 . S
C2508 C2510 1.391 . S
C2509 C2508 1.386 . S
C2509 C2513 1.393 . S
C2510 H2502 0.950 . S
C2510 C2508 1.391 . S
C2510 C2511 1.400 . S
C2511 C2510 1.400 . S
C2511 C2512 1.398 . S
C2511 C2517 1.491 . S
C2512 H2503 0.950 . S
C2512 C2511 1.398 . S
C2512 C2513 1.391 . S
C2513 H2501 0.950 . S
C2513 C2509 1.393 . S
C2513 C2512 1.391 . S
C2514 H2504 0.950 . S
C2514 C2515 1.386 . S
C2514 C2516 1.391 . S
C2515 C2514 1.386 . S
C2515 C2519 1.393 . S
C2516 H2505 0.950 . S
C2516 C2514 1.391 . S
C2516 C2517 1.400 . S
C2517 C2511 1.491 . S
C2517 C2516 1.400 . S
C2517 C2518 1.398 . S
C2518 H2506 0.950 . S
C2518 C2517 1.398 . S
C2518 C2519 1.391 . S
C2519 H2507 0.950 . S
C2519 C2515 1.393 . S
C2519 C2518 1.391 . S
H2520 C2528 0.950 . S
H2521 C2533 0.950 . S
H2522 C2530 0.950 . S
H2523 C2532 0.950 . S
H2524 C2534 0.950 . S
H2525 C2536 0.950 . S
H2526 C2538 0.950 . S
H2527 C2539 0.950 . S
C2528 H2520 0.950 . S
C2528 C2529 1.386 . S
C2528 C2530 1.391 . S
C2529 C2528 1.386 . S
C2529 C2533 1.393 . S
C2530 H2522 0.950 . S
C2530 C2528 1.391 . S
C2530 C2531 1.400 . S
C2531 C2530 1.400 . S
C2531 C2532 1.398 . S
C2531 C2537 1.491 . S
C2532 H2523 0.950 . S
C2532 C2531 1.398 . S
C2532 C2533 1.391 . S
C2533 H2521 0.950 . S
C2533 C2529 1.393 . S
C2533 C2532 1.391 . S
C2534 H2524 0.950 . S
C2534 C2535 1.386 . S
C2534 C2536 1.391 . S
C2535 C2534 1.386 . S
C2535 C2539 1.393 . S
C2536 H2525 0.950 . S
C2536 C2534 1.391 . S
C2536 C2537 1.400 . S
C2537 C2531 1.491 . S
C2537 C2536 1.400 . S
C2537 C2538 1.398 . S
C2538 H2526 0.950 . S
C2538 C2537 1.398 . S
C2538 C2539 1.391 . S
C2539 H2527 0.950 . S
C2539 C2535 1.393 . S
C2539 C2538 1.391 . S
H2540 C2548 0.950 . S
H2541 C2553 0.950 . S
H2542 C2550 0.950 . S
H2543 C2552 0.950 . S
H2544 C2554 0.950 . S
H2545 C2556 0.950 . S
H2546 C2558 0.950 . S
H2547 C2559 0.950 . S
C2548 H2540 0.950 . S
C2548 C2549 1.386 . S
C2548 C2550 1.391 . S
C2549 C2548 1.386 . S
C2549 C2553 1.393 . S
C2550 H2542 0.950 . S
C2550 C2548 1.391 . S
C2550 C2551 1.400 . S
C2551 C2550 1.400 . S
C2551 C2552 1.398 . S
C2551 C2557 1.491 . S
C2552 H2543 0.950 . S
C2552 C2551 1.398 . S
C2552 C2553 1.391 . S
C2553 H2541 0.950 . S
C2553 C2549 1.393 . S
C2553 C2552 1.391 . S
C2554 H2544 0.950 . S
C2554 C2555 1.386 . S
C2554 C2556 1.391 . S
C2555 C2554 1.386 . S
C2555 C2559 1.393 . S
C2556 H2545 0.950 . S
C2556 C2554 1.391 . S
C2556 C2557 1.400 . S
C2557 C2551 1.491 . S
C2557 C2556 1.400 . S
C2557 C2558 1.398 . S
C2558 H2546 0.950 . S
C2558 C2557 1.398 . S
C2558 C2559 1.391 . S
C2559 H2547 0.950 . S
C2559 C2555 1.393 . S
C2559 C2558 1.391 . S
H2560 C2568 0.950 1_545 S
H2561 C2573 0.950 . S
H2562 C2570 0.950 . S
H2563 C2572 0.950 . S
H2564 C2574 0.950 . S
H2565 C2576 0.950 . S
H2566 C2578 0.950 . S
H2567 C2579 0.950 . S
C2568 H2560 0.950 1_565 S
C2568 C2569 1.386 . S
C2568 C2570 1.391 . S
C2569 C2568 1.386 . S
C2569 C2573 1.393 . S
C2570 H2562 0.950 . S
C2570 C2568 1.391 . S
C2570 C2571 1.400 . S
C2571 C2570 1.400 . S
C2571 C2572 1.398 . S
C2571 C2577 1.491 . S
C2572 H2563 0.950 . S
C2572 C2571 1.398 . S
C2572 C2573 1.391 . S
C2573 H2561 0.950 . S
C2573 C2569 1.393 . S
C2573 C2572 1.391 . S
C2574 H2564 0.950 . S
C2574 C2575 1.386 . S
C2574 C2576 1.391 . S
C2575 C2574 1.386 . S
C2575 C2579 1.393 . S
C2576 H2565 0.950 . S
C2576 C2574 1.391 . S
C2576 C2577 1.400 . S
C2577 C2571 1.491 . S
C2577 C2576 1.400 . S
C2577 C2578 1.398 . S
C2578 H2566 0.950 . S
C2578 C2577 1.398 . S
C2578 C2579 1.391 . S
C2579 H2567 0.950 . S
C2579 C2575 1.393 . S
C2579 C2578 1.391 . S
H2580 C2588 0.950 . S
H2581 C2593 0.950 . S
H2582 C2590 0.950 . S
H2583 C2592 0.950 . S
H2584 C2594 0.950 . S
H2585 C2596 0.950 . S
H2586 C2598 0.950 . S
H2587 C2599 0.950 . S
C2588 H2580 0.950 . S
C2588 C2589 1.386 . S
C2588 C2590 1.391 . S
C2589 C2588 1.386 . S
C2589 C2593 1.393 . S
C2590 H2582 0.950 . S
C2590 C2588 1.391 . S
C2590 C2591 1.400 . S
C2591 C2590 1.400 . S
C2591 C2592 1.398 . S
C2591 C2597 1.491 . S
C2592 H2583 0.950 . S
C2592 C2591 1.398 . S
C2592 C2593 1.391 . S
C2593 H2581 0.950 . S
C2593 C2589 1.393 . S
C2593 C2592 1.391 . S
C2594 H2584 0.950 . S
C2594 C2595 1.386 . S
C2594 C2596 1.391 . S
C2595 C2594 1.386 . S
C2595 C2599 1.393 . S
C2596 H2585 0.950 . S
C2596 C2594 1.391 . S
C2596 C2597 1.400 . S
C2597 C2591 1.491 . S
C2597 C2596 1.400 . S
C2597 C2598 1.398 . S
C2598 H2586 0.950 . S
C2598 C2597 1.398 . S
C2598 C2599 1.391 . S
C2599 H2587 0.950 . S
C2599 C2595 1.393 . S
C2599 C2598 1.391 . S
H2600 C2608 0.950 . S
H2601 C2613 0.950 . S
H2602 C2610 0.950 . S
H2603 C2612 0.950 . S
H2604 C2614 0.950 . S
H2605 C2616 0.950 . S
H2606 C2618 0.950 . S
H2607 C2619 0.950 . S
C2608 H2600 0.950 . S
C2608 C2609 1.386 . S
C2608 C2610 1.391 . S
C2609 C2608 1.386 . S
C2609 C2613 1.393 . S
C2610 H2602 0.950 . S
C2610 C2608 1.391 . S
C2610 C2611 1.400 . S
C2611 C2610 1.400 . S
C2611 C2612 1.398 . S
C2611 C2617 1.491 . S
C2612 H2603 0.950 . S
C2612 C2611 1.398 . S
C2612 C2613 1.391 . S
C2613 H2601 0.950 . S
C2613 C2609 1.393 . S
C2613 C2612 1.391 . S
C2614 H2604 0.950 . S
C2614 C2615 1.386 . S
C2614 C2616 1.391 . S
C2615 C2614 1.386 . S
C2615 C2619 1.393 . S
C2616 H2605 0.950 . S
C2616 C2614 1.391 . S
C2616 C2617 1.400 . S
C2617 C2611 1.491 . S
C2617 C2616 1.400 . S
C2617 C2618 1.398 . S
C2618 H2606 0.950 . S
C2618 C2617 1.398 . S
C2618 C2619 1.391 . S
C2619 H2607 0.950 . S
C2619 C2615 1.393 . S
C2619 C2618 1.391 . S
H2620 C2628 0.950 . S
H2621 C2633 0.950 . S
H2622 C2630 0.950 . S
H2623 C2632 0.950 . S
H2624 C2634 0.950 . S
H2625 C2636 0.950 . S
H2626 C2638 0.950 . S
H2627 C2639 0.950 . S
C2628 H2620 0.950 . S
C2628 C2629 1.386 . S
C2628 C2630 1.391 . S
C2629 C2628 1.386 . S
C2629 C2633 1.393 . S
C2630 H2622 0.950 . S
C2630 C2628 1.391 . S
C2630 C2631 1.400 . S
C2631 C2630 1.400 . S
C2631 C2632 1.398 . S
C2631 C2637 1.491 . S
C2632 H2623 0.950 . S
C2632 C2631 1.398 . S
C2632 C2633 1.391 . S
C2633 H2621 0.950 . S
C2633 C2629 1.393 . S
C2633 C2632 1.391 . S
C2634 H2624 0.950 . S
C2634 C2635 1.386 . S
C2634 C2636 1.391 . S
C2635 C2634 1.386 . S
C2635 C2639 1.393 . S
C2636 H2625 0.950 . S
C2636 C2634 1.391 . S
C2636 C2637 1.400 . S
C2637 C2631 1.491 . S
C2637 C2636 1.400 . S
C2637 C2638 1.398 . S
C2638 H2626 0.950 . S
C2638 C2637 1.398 . S
C2638 C2639 1.391 . S
C2639 H2627 0.950 . S
C2639 C2635 1.393 . S
C2639 C2638 1.391 . S
H2640 C2648 0.950 . S
H2641 C2653 0.950 . S
H2642 C2650 0.950 . S
H2643 C2652 0.950 . S
H2644 C2654 0.950 . S
H2645 C2656 0.950 . S
H2646 C2658 0.950 . S
H2647 C2659 0.950 . S
C2648 H2640 0.950 . S
C2648 C2649 1.386 . S
C2648 C2650 1.391 . S
C2649 C2648 1.386 . S
C2649 C2653 1.393 . S
C2650 H2642 0.950 . S
C2650 C2648 1.391 . S
C2650 C2651 1.400 . S
C2651 C2650 1.400 . S
C2651 C2652 1.398 . S
C2651 C2657 1.491 . S
C2652 H2643 0.950 . S
C2652 C2651 1.398 . S
C2652 C2653 1.391 . S
C2653 H2641 0.950 . S
C2653 C2649 1.393 . S
C2653 C2652 1.391 . S
C2654 H2644 0.950 . S
C2654 C2655 1.386 . S
C2654 C2656 1.391 . S
C2655 C2654 1.386 . S
C2655 C2659 1.393 . S
C2656 H2645 0.950 . S
C2656 C2654 1.391 . S
C2656 C2657 1.400 . S
C2657 C2651 1.491 . S
C2657 C2656 1.400 . S
C2657 C2658 1.398 . S
C2658 H2646 0.950 . S
C2658 C2657 1.398 . S
C2658 C2659 1.391 . S
C2659 H2647 0.950 . S
C2659 C2655 1.393 . S
C2659 C2658 1.391 . S
H2660 C2668 0.950 . S
H2661 C2673 0.950 . S
H2662 C2670 0.950 . S
H2663 C2672 0.950 . S
H2664 C2674 0.950 . S
H2665 C2676 0.950 . S
H2666 C2678 0.950 . S
H2667 C2679 0.950 . S
C2668 H2660 0.950 . S
C2668 C2669 1.386 . S
C2668 C2670 1.391 . S
C2669 C2668 1.386 . S
C2669 C2673 1.393 . S
C2670 H2662 0.950 . S
C2670 C2668 1.391 . S
C2670 C2671 1.400 . S
C2671 C2670 1.400 . S
C2671 C2672 1.398 . S
C2671 C2677 1.491 . S
C2672 H2663 0.950 . S
C2672 C2671 1.398 . S
C2672 C2673 1.391 . S
C2673 H2661 0.950 . S
C2673 C2669 1.393 . S
C2673 C2672 1.391 . S
C2674 H2664 0.950 . S
C2674 C2675 1.386 . S
C2674 C2676 1.391 . S
C2675 C2674 1.386 . S
C2675 C2679 1.393 . S
C2676 H2665 0.950 . S
C2676 C2674 1.391 . S
C2676 C2677 1.400 . S
C2677 C2671 1.491 . S
C2677 C2676 1.400 . S
C2677 C2678 1.398 . S
C2678 H2666 0.950 . S
C2678 C2677 1.398 . S
C2678 C2679 1.391 . S
C2679 H2667 0.950 . S
C2679 C2675 1.393 . S
C2679 C2678 1.391 . S
H2680 C2688 0.950 . S
H2681 C2693 0.950 . S
H2682 C2690 0.950 . S
H2683 C2692 0.950 . S
H2684 C2694 0.950 . S
H2685 C2696 0.950 . S
H2686 C2698 0.950 . S
H2687 C2699 0.950 1_655 S
C2688 H2680 0.950 . S
C2688 C2689 1.386 1_655 S
C2688 C2690 1.391 . S
C2689 C2688 1.386 1_455 S
C2689 C2693 1.393 1_556 S
C2690 H2682 0.950 . S
C2690 C2688 1.391 . S
C2690 C2691 1.400 1_656 S
C2691 C2690 1.400 1_454 S
C2691 C2692 1.398 . S
C2691 C2697 1.491 . S
C2692 H2683 0.950 . S
C2692 C2691 1.398 . S
C2692 C2693 1.391 . S
C2693 H2681 0.950 . S
C2693 C2689 1.393 1_554 S
C2693 C2692 1.391 . S
C2694 H2684 0.950 . S
C2694 C2695 1.386 . S
C2694 C2696 1.391 . S
C2695 C2694 1.386 . S
C2695 C2699 1.393 . S
C2696 H2685 0.950 . S
C2696 C2694 1.391 . S
C2696 C2697 1.400 . S
C2697 C2691 1.491 . S
C2697 C2696 1.400 . S
C2697 C2698 1.398 1_455 S
C2698 H2686 0.950 . S
C2698 C2697 1.398 1_655 S
C2698 C2699 1.391 1_655 S
C2699 H2687 0.950 1_455 S
C2699 C2695 1.393 . S
C2699 C2698 1.391 1_455 S
H2700 C2708 0.950 1_455 S
H2701 C2713 0.950 . S
H2702 C2710 0.950 . S
H2703 C2712 0.950 . S
H2704 C2714 0.950 . S
H2705 C2716 0.950 . S
H2706 C2718 0.950 . S
H2707 C2719 0.950 . S
C2708 H2700 0.950 1_655 S
C2708 C2709 1.386 . S
C2708 C2710 1.391 . S
C2709 C2708 1.386 . S
C2709 C2713 1.393 . S
C2710 H2702 0.950 . S
C2710 C2708 1.391 . S
C2710 C2711 1.400 . S
C2711 C2710 1.400 . S
C2711 C2712 1.398 . S
C2711 C2717 1.491 . S
C2712 H2703 0.950 . S
C2712 C2711 1.398 . S
C2712 C2713 1.391 . S
C2713 H2701 0.950 . S
C2713 C2709 1.393 . S
C2713 C2712 1.391 . S
C2714 H2704 0.950 . S
C2714 C2715 1.386 . S
C2714 C2716 1.391 . S
C2715 C2714 1.386 . S
C2715 C2719 1.393 . S
C2716 H2705 0.950 . S
C2716 C2714 1.391 . S
C2716 C2717 1.400 . S
C2717 C2711 1.491 . S
C2717 C2716 1.400 . S
C2717 C2718 1.398 . S
C2718 H2706 0.950 . S
C2718 C2717 1.398 . S
C2718 C2719 1.391 . S
C2719 H2707 0.950 . S
C2719 C2715 1.393 . S
C2719 C2718 1.391 . S
H2720 C2728 0.950 . S
H2721 C2733 0.950 . S
H2722 C2730 0.950 . S
H2723 C2732 0.950 . S
H2724 C2734 0.950 . S
H2725 C2736 0.950 . S
H2726 C2738 0.950 . S
H2727 C2739 0.950 . S
C2728 H2720 0.950 . S
C2728 C2729 1.386 . S
C2728 C2730 1.391 . S
C2729 C2728 1.386 . S
C2729 C2733 1.393 . S
C2730 H2722 0.950 . S
C2730 C2728 1.391 . S
C2730 C2731 1.400 . S
C2731 C2730 1.400 . S
C2731 C2732 1.398 . S
C2731 C2737 1.491 . S
C2732 H2723 0.950 . S
C2732 C2731 1.398 . S
C2732 C2733 1.391 . S
C2733 H2721 0.950 . S
C2733 C2729 1.393 . S
C2733 C2732 1.391 . S
C2734 H2724 0.950 . S
C2734 C2735 1.386 . S
C2734 C2736 1.391 . S
C2735 C2734 1.386 . S
C2735 C2739 1.393 . S
C2736 H2725 0.950 . S
C2736 C2734 1.391 . S
C2736 C2737 1.400 . S
C2737 C2731 1.491 . S
C2737 C2736 1.400 . S
C2737 C2738 1.398 . S
C2738 H2726 0.950 . S
C2738 C2737 1.398 . S
C2738 C2739 1.391 . S
C2739 H2727 0.950 . S
C2739 C2735 1.393 . S
C2739 C2738 1.391 . S
H2740 C2748 0.950 . S
H2741 C2753 0.950 . S
H2742 C2750 0.950 . S
H2743 C2752 0.950 . S
H2744 C2754 0.950 . S
H2745 C2756 0.950 . S
H2746 C2758 0.950 . S
H2747 C2759 0.950 . S
C2748 H2740 0.950 . S
C2748 C2749 1.386 . S
C2748 C2750 1.391 . S
C2749 C2748 1.386 . S
C2749 C2753 1.393 . S
C2750 H2742 0.950 . S
C2750 C2748 1.391 . S
C2750 C2751 1.400 . S
C2751 C2750 1.400 . S
C2751 C2752 1.398 . S
C2751 C2757 1.491 . S
C2752 H2743 0.950 . S
C2752 C2751 1.398 . S
C2752 C2753 1.391 . S
C2753 H2741 0.950 . S
C2753 C2749 1.393 . S
C2753 C2752 1.391 . S
C2754 H2744 0.950 . S
C2754 C2755 1.386 . S
C2754 C2756 1.391 . S
C2755 C2754 1.386 . S
C2755 C2759 1.393 . S
C2756 H2745 0.950 . S
C2756 C2754 1.391 . S
C2756 C2757 1.400 . S
C2757 C2751 1.491 . S
C2757 C2756 1.400 . S
C2757 C2758 1.398 . S
C2758 H2746 0.950 . S
C2758 C2757 1.398 . S
C2758 C2759 1.391 . S
C2759 H2747 0.950 . S
C2759 C2755 1.393 . S
C2759 C2758 1.391 . S
H2760 C2768 0.950 . S
H2761 C2773 0.950 . S
H2762 C2770 0.950 . S
H2763 C2772 0.950 . S
H2764 C2774 0.950 . S
H2765 C2776 0.950 . S
H2766 C2778 0.950 . S
H2767 C2779 0.950 . S
C2768 H2760 0.950 . S
C2768 C2769 1.386 1_655 S
C2768 C2770 1.391 . S
C2769 C2768 1.386 1_455 S
C2769 C2773 1.393 . S
C2770 H2762 0.950 . S
C2770 C2768 1.391 . S
C2770 C2771 1.400 1_655 S
C2771 C2770 1.400 1_455 S
C2771 C2772 1.398 . S
C2771 C2777 1.491 . S
C2772 H2763 0.950 . S
C2772 C2771 1.398 . S
C2772 C2773 1.391 . S
C2773 H2761 0.950 . S
C2773 C2769 1.393 . S
C2773 C2772 1.391 . S
C2774 H2764 0.950 . S
C2774 C2775 1.386 . S
C2774 C2776 1.391 . S
C2775 C2774 1.386 . S
C2775 C2779 1.393 1_455 S
C2776 H2765 0.950 . S
C2776 C2774 1.391 . S
C2776 C2777 1.400 . S
C2777 C2771 1.491 . S
C2777 C2776 1.400 . S
C2777 C2778 1.398 1_455 S
C2778 H2766 0.950 . S
C2778 C2777 1.398 1_655 S
C2778 C2779 1.391 . S
C2779 H2767 0.950 . S
C2779 C2775 1.393 1_655 S
C2779 C2778 1.391 . S
H2780 C2788 0.950 . S
H2781 C2793 0.950 . S
H2782 C2790 0.950 . S
H2783 C2792 0.950 . S
H2784 C2794 0.950 . S
H2785 C2796 0.950 . S
H2786 C2798 0.950 . S
H2787 C2799 0.950 . S
C2788 H2780 0.950 . S
C2788 C2789 1.386 . S
C2788 C2790 1.391 . S
C2789 C2788 1.386 . S
C2789 C2793 1.393 . S
C2790 H2782 0.950 . S
C2790 C2788 1.391 . S
C2790 C2791 1.400 . S
C2791 C2790 1.400 . S
C2791 C2792 1.398 . S
C2791 C2797 1.491 . S
C2792 H2783 0.950 . S
C2792 C2791 1.398 . S
C2792 C2793 1.391 . S
C2793 H2781 0.950 . S
C2793 C2789 1.393 . S
C2793 C2792 1.391 . S
C2794 H2784 0.950 . S
C2794 C2795 1.386 . S
C2794 C2796 1.391 . S
C2795 C2794 1.386 . S
C2795 C2799 1.393 . S
C2796 H2785 0.950 . S
C2796 C2794 1.391 . S
C2796 C2797 1.400 . S
C2797 C2791 1.491 . S
C2797 C2796 1.400 . S
C2797 C2798 1.398 . S
C2798 H2786 0.950 . S
C2798 C2797 1.398 . S
C2798 C2799 1.391 . S
C2799 H2787 0.950 . S
C2799 C2795 1.393 . S
C2799 C2798 1.391 . S
H2800 C2808 0.950 . S
H2801 C2813 0.950 . S
H2802 C2810 0.950 . S
H2803 C2812 0.950 . S
H2804 C2814 0.950 . S
H2805 C2816 0.950 . S
H2806 C2818 0.950 . S
H2807 C2819 0.950 . S
C2808 H2800 0.950 . S
C2808 C2809 1.386 . S
C2808 C2810 1.391 . S
C2809 C2808 1.386 . S
C2809 C2813 1.393 . S
C2810 H2802 0.950 . S
C2810 C2808 1.391 . S
C2810 C2811 1.400 . S
C2811 C2810 1.400 . S
C2811 C2812 1.398 . S
C2811 C2817 1.491 . S
C2812 H2803 0.950 . S
C2812 C2811 1.398 . S
C2812 C2813 1.391 . S
C2813 H2801 0.950 . S
C2813 C2809 1.393 . S
C2813 C2812 1.391 . S
C2814 H2804 0.950 . S
C2814 C2815 1.386 . S
C2814 C2816 1.391 . S
C2815 C2814 1.386 . S
C2815 C2819 1.393 . S
C2816 H2805 0.950 . S
C2816 C2814 1.391 . S
C2816 C2817 1.400 . S
C2817 C2811 1.491 . S
C2817 C2816 1.400 . S
C2817 C2818 1.398 . S
C2818 H2806 0.950 . S
C2818 C2817 1.398 . S
C2818 C2819 1.391 . S
C2819 H2807 0.950 . S
C2819 C2815 1.393 . S
C2819 C2818 1.391 . S
H2820 C2828 0.932 1_554 S
H2821 C2833 0.950 . S
H2822 C2830 0.950 . S
H2823 C2832 0.950 . S
H2824 C2834 0.950 . S
H2825 C2836 0.950 . S
H2826 C2838 0.950 . S
H2827 C2839 0.950 . S
C2828 H2820 0.932 1_556 S
C2828 C2829 1.386 . S
C2828 C2830 1.409 . S
C2829 C2828 1.386 . S
C2829 C2833 1.393 . S
C2830 H2822 0.950 . S
C2830 C2828 1.409 . S
C2830 C2831 1.400 . S
C2831 C2830 1.400 . S
C2831 C2832 1.398 . S
C2831 C2837 1.491 . S
C2832 H2823 0.950 . S
C2832 C2831 1.398 . S
C2832 C2833 1.391 . S
C2833 H2821 0.950 . S
C2833 C2829 1.393 . S
C2833 C2832 1.391 . S
C2834 H2824 0.950 . S
C2834 C2835 1.386 . S
C2834 C2836 1.391 . S
C2835 C2834 1.386 . S
C2835 C2839 1.393 . S
C2836 H2825 0.950 . S
C2836 C2834 1.391 . S
C2836 C2837 1.400 . S
C2837 C2831 1.491 . S
C2837 C2836 1.400 . S
C2837 C2838 1.398 . S
C2838 H2826 0.950 . S
C2838 C2837 1.398 . S
C2838 C2839 1.391 . S
C2839 H2827 0.950 . S
C2839 C2835 1.393 . S
C2839 C2838 1.391 . S
H2840 C2848 0.950 . S
H2841 C2853 0.950 . S
H2842 C2850 0.950 . S
H2843 C2852 0.950 . S
H2844 C2854 0.950 . S
H2845 C2856 0.950 . S
H2846 C2858 0.950 . S
H2847 C2859 0.950 . S
C2848 H2840 0.950 . S
C2848 C2849 1.386 . S
C2848 C2850 1.391 . S
C2849 C2848 1.386 . S
C2849 C2853 1.393 . S
C2850 H2842 0.950 . S
C2850 C2848 1.391 . S
C2850 C2851 1.400 . S
C2851 C2850 1.400 . S
C2851 C2852 1.398 . S
C2851 C2857 1.491 . S
C2852 H2843 0.950 . S
C2852 C2851 1.398 . S
C2852 C2853 1.391 . S
C2853 H2841 0.950 . S
C2853 C2849 1.393 . S
C2853 C2852 1.391 . S
C2854 H2844 0.950 . S
C2854 C2855 1.386 . S
C2854 C2856 1.391 . S
C2855 C2854 1.386 . S
C2855 C2859 1.393 . S
C2856 H2845 0.950 . S
C2856 C2854 1.391 . S
C2856 C2857 1.400 . S
C2857 C2851 1.491 . S
C2857 C2856 1.400 . S
C2857 C2858 1.398 . S
C2858 H2846 0.950 . S
C2858 C2857 1.398 . S
C2858 C2859 1.391 . S
C2859 H2847 0.950 . S
C2859 C2855 1.393 . S
C2859 C2858 1.391 . S
H2860 C2868 0.950 . S
H2861 C2873 0.950 . S
H2862 C2870 0.950 . S
H2863 C2872 0.950 . S
H2864 C2874 0.950 . S
H2865 C2876 0.950 . S
H2866 C2878 0.950 . S
H2867 C2879 0.950 . S
C2868 H2860 0.950 . S
C2868 C2869 1.386 . S
C2868 C2870 1.391 . S
C2869 C2868 1.386 . S
C2869 C2873 1.393 . S
C2870 H2862 0.950 . S
C2870 C2868 1.391 . S
C2870 C2871 1.400 . S
C2871 C2870 1.400 . S
C2871 C2872 1.398 . S
C2871 C2877 1.491 . S
C2872 H2863 0.950 . S
C2872 C2871 1.398 . S
C2872 C2873 1.391 . S
C2873 H2861 0.950 . S
C2873 C2869 1.393 . S
C2873 C2872 1.391 . S
C2874 H2864 0.950 . S
C2874 C2875 1.386 . S
C2874 C2876 1.391 . S
C2875 C2874 1.386 . S
C2875 C2879 1.393 . S
C2876 H2865 0.950 . S
C2876 C2874 1.391 . S
C2876 C2877 1.400 . S
C2877 C2871 1.491 . S
C2877 C2876 1.400 . S
C2877 C2878 1.398 . S
C2878 H2866 0.950 . S
C2878 C2877 1.398 . S
C2878 C2879 1.391 . S
C2879 H2867 0.950 . S
C2879 C2875 1.393 . S
C2879 C2878 1.391 . S
H2880 C2888 0.950 . S
H2881 C2893 0.950 . S
H2882 C2890 0.950 . S
H2883 C2892 0.950 . S
H2884 C2894 0.950 . S
H2885 C2896 0.950 . S
H2886 C2898 0.950 . S
H2887 C2899 0.950 . S
C2888 H2880 0.950 . S
C2888 C2889 1.386 . S
C2888 C2890 1.391 . S
C2889 C2888 1.386 . S
C2889 C2893 1.393 . S
C2890 H2882 0.950 . S
C2890 C2888 1.391 . S
C2890 C2891 1.400 . S
C2891 C2890 1.400 . S
C2891 C2892 1.398 . S
C2891 C2897 1.491 . S
C2892 H2883 0.950 . S
C2892 C2891 1.398 . S
C2892 C2893 1.391 . S
C2893 H2881 0.950 . S
C2893 C2889 1.393 . S
C2893 C2892 1.391 . S
C2894 H2884 0.950 . S
C2894 C2895 1.386 . S
C2894 C2896 1.391 . S
C2895 C2894 1.386 . S
C2895 C2899 1.393 . S
C2896 H2885 0.950 . S
C2896 C2894 1.391 . S
C2896 C2897 1.400 . S
C2897 C2891 1.491 . S
C2897 C2896 1.400 . S
C2897 C2898 1.398 . S
C2898 H2886 0.950 . S
C2898 C2897 1.398 . S
C2898 C2899 1.391 . S
C2899 H2887 0.950 . S
C2899 C2895 1.393 . S
C2899 C2898 1.391 . S
H2900 C2908 0.950 . S
H2901 C2913 0.950 . S
H2902 C2910 0.950 . S
H2903 C2912 0.950 . S
H2904 C2914 0.950 . S
H2905 C2916 0.950 . S
H2906 C2918 0.950 . S
H2907 C2919 0.950 . S
C2908 H2900 0.950 . S
C2908 C2909 1.386 . S
C2908 C2910 1.391 . S
C2909 C2908 1.386 . S
C2909 C2913 1.393 . S
C2910 H2902 0.950 . S
C2910 C2908 1.391 . S
C2910 C2911 1.400 . S
C2911 C2910 1.400 . S
C2911 C2912 1.398 . S
C2911 C2917 1.491 . S
C2912 H2903 0.950 . S
C2912 C2911 1.398 . S
C2912 C2913 1.391 . S
C2913 H2901 0.950 . S
C2913 C2909 1.393 . S
C2913 C2912 1.391 . S
C2914 H2904 0.950 . S
C2914 C2915 1.386 . S
C2914 C2916 1.391 . S
C2915 C2914 1.386 . S
C2915 C2919 1.393 . S
C2916 H2905 0.950 . S
C2916 C2914 1.391 . S
C2916 C2917 1.400 . S
C2917 C2911 1.491 . S
C2917 C2916 1.400 . S
C2917 C2918 1.398 . S
C2918 H2906 0.950 . S
C2918 C2917 1.398 . S
C2918 C2919 1.391 . S
C2919 H2907 0.950 . S
C2919 C2915 1.393 . S
C2919 C2918 1.391 . S
H2920 C2928 0.950 . S
H2921 C2933 0.950 . S
H2922 C2930 0.950 . S
H2923 C2932 0.950 . S
H2924 C2934 0.950 . S
H2925 C2936 0.950 . S
H2926 C2938 0.950 . S
H2927 C2939 0.950 . S
C2928 H2920 0.950 . S
C2928 C2929 1.386 . S
C2928 C2930 1.391 . S
C2929 C2928 1.386 . S
C2929 C2933 1.393 . S
C2930 H2922 0.950 . S
C2930 C2928 1.391 . S
C2930 C2931 1.400 . S
C2931 C2930 1.400 . S
C2931 C2932 1.398 . S
C2931 C2937 1.491 . S
C2932 H2923 0.950 . S
C2932 C2931 1.398 . S
C2932 C2933 1.391 . S
C2933 H2921 0.950 . S
C2933 C2929 1.393 . S
C2933 C2932 1.391 . S
C2934 H2924 0.950 . S
C2934 C2935 1.386 . S
C2934 C2936 1.391 . S
C2935 C2934 1.386 . S
C2935 C2939 1.393 . S
C2936 H2925 0.950 . S
C2936 C2934 1.391 . S
C2936 C2937 1.400 . S
C2937 C2931 1.491 . S
C2937 C2936 1.400 . S
C2937 C2938 1.398 . S
C2938 H2926 0.950 . S
C2938 C2937 1.398 . S
C2938 C2939 1.391 . S
C2939 H2927 0.950 . S
C2939 C2935 1.393 . S
C2939 C2938 1.391 . S
H2940 C2948 0.950 . S
H2941 C2953 0.950 . S
H2942 C2950 0.950 . S
H2943 C2952 0.950 . S
H2944 C2954 0.950 . S
H2945 C2956 0.950 . S
H2946 C2958 0.950 . S
H2947 C2959 0.950 . S
C2948 H2940 0.950 . S
C2948 C2949 1.386 . S
C2948 C2950 1.391 . S
C2949 C2948 1.386 . S
C2949 C2953 1.393 . S
C2950 H2942 0.950 . S
C2950 C2948 1.391 . S
C2950 C2951 1.400 . S
C2951 C2950 1.400 . S
C2951 C2952 1.398 . S
C2951 C2957 1.491 . S
C2952 H2943 0.950 . S
C2952 C2951 1.398 . S
C2952 C2953 1.391 . S
C2953 H2941 0.950 . S
C2953 C2949 1.393 . S
C2953 C2952 1.391 . S
C2954 H2944 0.950 . S
C2954 C2955 1.386 . S
C2954 C2956 1.391 . S
C2955 C2954 1.386 . S
C2955 C2959 1.393 . S
C2956 H2945 0.950 . S
C2956 C2954 1.391 . S
C2956 C2957 1.400 . S
C2957 C2951 1.491 . S
C2957 C2956 1.400 . S
C2957 C2958 1.398 . S
C2958 H2946 0.950 . S
C2958 C2957 1.398 . S
C2958 C2959 1.391 . S
C2959 H2947 0.950 . S
C2959 C2955 1.393 . S
C2959 C2958 1.391 . S
H2960 C2968 0.950 . S
H2961 C2973 0.950 . S
H2962 C2970 0.950 . S
H2963 C2972 0.950 . S
H2964 C2974 0.950 . S
H2965 C2976 0.950 . S
H2966 C2978 0.950 . S
H2967 C2979 0.950 . S
C2968 H2960 0.950 . S
C2968 C2969 1.386 . S
C2968 C2970 1.391 . S
C2969 C2968 1.386 . S
C2969 C2973 1.393 . S
C2970 H2962 0.950 . S
C2970 C2968 1.391 . S
C2970 C2971 1.400 . S
C2971 C2970 1.400 . S
C2971 C2972 1.398 . S
C2971 C2977 1.491 . S
C2972 H2963 0.950 . S
C2972 C2971 1.398 . S
C2972 C2973 1.391 . S
C2973 H2961 0.950 . S
C2973 C2969 1.393 . S
C2973 C2972 1.391 . S
C2974 H2964 0.950 . S
C2974 C2975 1.386 . S
C2974 C2976 1.391 . S
C2975 C2974 1.386 . S
C2975 C2979 1.393 . S
C2976 H2965 0.950 . S
C2976 C2974 1.391 . S
C2976 C2977 1.400 . S
C2977 C2971 1.491 . S
C2977 C2976 1.400 . S
C2977 C2978 1.398 . S
C2978 H2966 0.950 . S
C2978 C2977 1.398 . S
C2978 C2979 1.391 . S
C2979 H2967 0.950 . S
C2979 C2975 1.393 . S
C2979 C2978 1.391 . S
H2980 C2988 0.950 . S
H2981 C2993 0.950 . S
H2982 C2990 0.950 . S
H2983 C2992 0.950 . S
H2984 C2994 0.950 . S
H2985 C2996 0.950 . S
H2986 C2998 0.950 . S
H2987 C2999 0.950 . S
C2988 H2980 0.950 . S
C2988 C2989 1.386 . S
C2988 C2990 1.391 . S
C2989 C2988 1.386 . S
C2989 C2993 1.393 . S
C2990 H2982 0.950 . S
C2990 C2988 1.391 . S
C2990 C2991 1.400 . S
C2991 C2990 1.400 . S
C2991 C2992 1.398 . S
C2991 C2997 1.491 . S
C2992 H2983 0.950 . S
C2992 C2991 1.398 . S
C2992 C2993 1.391 . S
C2993 H2981 0.950 . S
C2993 C2989 1.393 . S
C2993 C2992 1.391 . S
C2994 H2984 0.950 . S
C2994 C2995 1.386 . S
C2994 C2996 1.391 . S
C2995 C2994 1.386 . S
C2995 C2999 1.393 . S
C2996 H2985 0.950 . S
C2996 C2994 1.391 . S
C2996 C2997 1.400 . S
C2997 C2991 1.491 . S
C2997 C2996 1.400 . S
C2997 C2998 1.398 . S
C2998 H2986 0.950 . S
C2998 C2997 1.398 . S
C2998 C2999 1.391 . S
C2999 H2987 0.950 . S
C2999 C2995 1.393 . S
C2999 C2998 1.391 . S
H3000 C3008 0.950 . S
H3001 C3013 0.950 . S
H3002 C3010 0.950 . S
H3003 C3012 0.950 . S
H3004 C3014 0.950 . S
H3005 C3016 0.950 . S
H3006 C3018 0.950 . S
H3007 C3019 0.950 . S
C3008 H3000 0.950 . S
C3008 C3009 1.386 . S
C3008 C3010 1.391 . S
C3009 C3008 1.386 . S
C3009 C3013 1.393 . S
C3010 H3002 0.950 . S
C3010 C3008 1.391 . S
C3010 C3011 1.400 . S
C3011 C3010 1.400 . S
C3011 C3012 1.398 . S
C3011 C3017 1.491 . S
C3012 H3003 0.950 . S
C3012 C3011 1.398 . S
C3012 C3013 1.391 . S
C3013 H3001 0.950 . S
C3013 C3009 1.393 . S
C3013 C3012 1.391 . S
C3014 H3004 0.950 . S
C3014 C3015 1.386 . S
C3014 C3016 1.391 . S
C3015 C3014 1.386 . S
C3015 C3019 1.393 . S
C3016 H3005 0.950 . S
C3016 C3014 1.391 . S
C3016 C3017 1.400 . S
C3017 C3011 1.491 . S
C3017 C3016 1.400 . S
C3017 C3018 1.398 . S
C3018 H3006 0.950 . S
C3018 C3017 1.398 . S
C3018 C3019 1.391 . S
C3019 H3007 0.950 . S
C3019 C3015 1.393 . S
C3019 C3018 1.391 . S
H3020 C3028 0.950 . S
H3021 C3033 0.950 . S
H3022 C3030 0.950 . S
H3023 C3032 0.950 . S
H3024 C3034 0.950 . S
H3025 C3036 0.950 . S
H3026 C3038 0.950 . S
H3027 C3039 0.950 . S
C3028 H3020 0.950 . S
C3028 C3029 1.386 . S
C3028 C3030 1.391 . S
C3029 C3028 1.386 . S
C3029 C3033 1.393 . S
C3030 H3022 0.950 . S
C3030 C3028 1.391 . S
C3030 C3031 1.400 . S
C3031 C3030 1.400 . S
C3031 C3032 1.398 . S
C3031 C3037 1.491 . S
C3032 H3023 0.950 . S
C3032 C3031 1.398 . S
C3032 C3033 1.391 . S
C3033 H3021 0.950 . S
C3033 C3029 1.393 . S
C3033 C3032 1.391 . S
C3034 H3024 0.950 . S
C3034 C3035 1.386 . S
C3034 C3036 1.391 . S
C3035 C3034 1.386 . S
C3035 C3039 1.393 1_545 S
C3036 H3025 0.950 . S
C3036 C3034 1.391 . S
C3036 C3037 1.400 1_545 S
C3037 C3031 1.491 . S
C3037 C3036 1.400 1_565 S
C3037 C3038 1.398 . S
C3038 H3026 0.950 . S
C3038 C3037 1.398 . S
C3038 C3039 1.391 . S
C3039 H3027 0.950 . S
C3039 C3035 1.393 1_565 S
C3039 C3038 1.391 . S
H3040 C3048 0.950 . S
H3041 C3053 0.950 . S
H3042 C3050 0.950 . S
H3043 C3052 0.950 . S
H3044 C3054 0.950 . S
H3045 C3056 0.950 . S
H3046 C3058 0.950 . S
H3047 C3059 0.950 . S
C3048 H3040 0.950 . S
C3048 C3049 1.386 . S
C3048 C3050 1.391 . S
C3049 C3048 1.386 . S
C3049 C3053 1.393 . S
C3050 H3042 0.950 . S
C3050 C3048 1.391 . S
C3050 C3051 1.400 . S
C3051 C3050 1.400 . S
C3051 C3052 1.398 . S
C3051 C3057 1.491 . S
C3052 H3043 0.950 . S
C3052 C3051 1.398 . S
C3052 C3053 1.391 . S
C3053 H3041 0.950 . S
C3053 C3049 1.393 . S
C3053 C3052 1.391 . S
C3054 H3044 0.950 . S
C3054 C3055 1.386 . S
C3054 C3056 1.391 . S
C3055 C3054 1.386 . S
C3055 C3059 1.393 . S
C3056 H3045 0.950 . S
C3056 C3054 1.391 . S
C3056 C3057 1.400 . S
C3057 C3051 1.491 . S
C3057 C3056 1.400 . S
C3057 C3058 1.398 . S
C3058 H3046 0.950 . S
C3058 C3057 1.398 . S
C3058 C3059 1.391 . S
C3059 H3047 0.950 . S
C3059 C3055 1.393 . S
C3059 C3058 1.391 . S
H3060 C3068 0.950 . S
H3061 C3073 0.950 . S
H3062 C3070 0.950 . S
H3063 C3072 0.950 . S
H3064 C3074 0.950 . S
H3065 C3076 0.950 . S
H3066 C3078 0.950 . S
H3067 C3079 0.950 . S
C3068 H3060 0.950 . S
C3068 C3069 1.386 . S
C3068 C3070 1.391 . S
C3069 C3068 1.386 . S
C3069 C3073 1.393 . S
C3070 H3062 0.950 . S
C3070 C3068 1.391 . S
C3070 C3071 1.400 . S
C3071 C3070 1.400 . S
C3071 C3072 1.398 . S
C3071 C3077 1.491 . S
C3072 H3063 0.950 . S
C3072 C3071 1.398 . S
C3072 C3073 1.391 . S
C3073 H3061 0.950 . S
C3073 C3069 1.393 . S
C3073 C3072 1.391 . S
C3074 H3064 0.950 . S
C3074 C3075 1.386 . S
C3074 C3076 1.391 . S
C3075 C3074 1.386 . S
C3075 C3079 1.393 . S
C3076 H3065 0.950 . S
C3076 C3074 1.391 . S
C3076 C3077 1.400 . S
C3077 C3071 1.491 . S
C3077 C3076 1.400 . S
C3077 C3078 1.398 . S
C3078 H3066 0.950 . S
C3078 C3077 1.398 . S
C3078 C3079 1.391 . S
C3079 H3067 0.950 . S
C3079 C3075 1.393 . S
C3079 C3078 1.391 . S
H3080 C3088 0.950 . S
H3081 C3093 0.950 . S
H3082 C3090 0.950 . S
H3083 C3092 0.950 . S
H3084 C3094 0.950 . S
H3085 C3096 0.950 . S
H3086 C3098 0.950 . S
H3087 C3099 0.950 . S
C3088 H3080 0.950 . S
C3088 C3089 1.386 . S
C3088 C3090 1.391 . S
C3089 C3088 1.386 . S
C3089 C3093 1.393 . S
C3090 H3082 0.950 . S
C3090 C3088 1.391 . S
C3090 C3091 1.400 . S
C3091 C3090 1.400 . S
C3091 C3092 1.398 . S
C3091 C3097 1.491 . S
C3092 H3083 0.950 . S
C3092 C3091 1.398 . S
C3092 C3093 1.391 . S
C3093 H3081 0.950 . S
C3093 C3089 1.393 . S
C3093 C3092 1.391 . S
C3094 H3084 0.950 . S
C3094 C3095 1.386 . S
C3094 C3096 1.391 . S
C3095 C3094 1.386 . S
C3095 C3099 1.393 . S
C3096 H3085 0.950 . S
C3096 C3094 1.391 . S
C3096 C3097 1.400 . S
C3097 C3091 1.491 . S
C3097 C3096 1.400 . S
C3097 C3098 1.398 . S
C3098 H3086 0.950 . S
C3098 C3097 1.398 . S
C3098 C3099 1.391 . S
C3099 H3087 0.950 . S
C3099 C3095 1.393 . S
C3099 C3098 1.391 . S
H3100 C3108 0.950 . S
H3101 C3113 0.950 . S
H3102 C3110 0.950 . S
H3103 C3112 0.950 . S
H3104 C3114 0.950 . S
H3105 C3116 0.950 . S
H3106 C3118 0.950 . S
H3107 C3119 0.950 . S
C3108 H3100 0.950 . S
C3108 C3109 1.386 . S
C3108 C3110 1.391 . S
C3109 C3108 1.386 . S
C3109 C3113 1.393 . S
C3110 H3102 0.950 . S
C3110 C3108 1.391 . S
C3110 C3111 1.400 . S
C3111 C3110 1.400 . S
C3111 C3112 1.398 . S
C3111 C3117 1.491 . S
C3112 H3103 0.950 . S
C3112 C3111 1.398 . S
C3112 C3113 1.391 . S
C3113 H3101 0.950 . S
C3113 C3109 1.393 . S
C3113 C3112 1.391 . S
C3114 H3104 0.950 . S
C3114 C3115 1.386 . S
C3114 C3116 1.391 . S
C3115 C3114 1.386 . S
C3115 C3119 1.393 . S
C3116 H3105 0.950 . S
C3116 C3114 1.391 . S
C3116 C3117 1.400 . S
C3117 C3111 1.491 . S
C3117 C3116 1.400 . S
C3117 C3118 1.398 . S
C3118 H3106 0.950 . S
C3118 C3117 1.398 . S
C3118 C3119 1.391 . S
C3119 H3107 0.950 . S
C3119 C3115 1.393 . S
C3119 C3118 1.391 . S
H3120 C3128 0.950 . S
H3121 C3133 0.950 . S
H3122 C3130 0.950 . S
H3123 C3132 0.950 . S
H3124 C3134 0.950 . S
H3125 C3136 0.950 . S
H3126 C3138 0.950 . S
H3127 C3139 0.950 . S
C3128 H3120 0.950 . S
C3128 C3129 1.386 . S
C3128 C3130 1.391 . S
C3129 C3128 1.386 . S
C3129 C3133 1.393 . S
C3130 H3122 0.950 . S
C3130 C3128 1.391 . S
C3130 C3131 1.400 . S
C3131 C3130 1.400 . S
C3131 C3132 1.398 . S
C3131 C3137 1.491 . S
C3132 H3123 0.950 . S
C3132 C3131 1.398 . S
C3132 C3133 1.391 . S
C3133 H3121 0.950 . S
C3133 C3129 1.393 . S
C3133 C3132 1.391 . S
C3134 H3124 0.950 . S
C3134 C3135 1.386 . S
C3134 C3136 1.391 . S
C3135 C3134 1.386 . S
C3135 C3139 1.393 . S
C3136 H3125 0.950 . S
C3136 C3134 1.391 . S
C3136 C3137 1.400 . S
C3137 C3131 1.491 . S
C3137 C3136 1.400 . S
C3137 C3138 1.398 . S
C3138 H3126 0.950 . S
C3138 C3137 1.398 . S
C3138 C3139 1.391 . S
C3139 H3127 0.950 . S
C3139 C3135 1.393 . S
C3139 C3138 1.391 . S
H3140 C3148 0.950 . S
H3141 C3153 0.950 . S
H3142 C3150 0.950 . S
H3143 C3152 0.950 . S
H3144 C3154 0.950 . S
H3145 C3156 0.950 . S
H3146 C3158 0.950 . S
H3147 C3159 0.950 . S
C3148 H3140 0.950 . S
C3148 C3149 1.386 . S
C3148 C3150 1.391 . S
C3149 C3148 1.386 . S
C3149 C3153 1.393 . S
C3150 H3142 0.950 . S
C3150 C3148 1.391 . S
C3150 C3151 1.400 . S
C3151 C3150 1.400 . S
C3151 C3152 1.398 . S
C3151 C3157 1.491 . S
C3152 H3143 0.950 . S
C3152 C3151 1.398 . S
C3152 C3153 1.391 . S
C3153 H3141 0.950 . S
C3153 C3149 1.393 . S
C3153 C3152 1.391 . S
C3154 H3144 0.950 . S
C3154 C3155 1.386 . S
C3154 C3156 1.391 . S
C3155 C3154 1.386 . S
C3155 C3159 1.393 . S
C3156 H3145 0.950 . S
C3156 C3154 1.391 . S
C3156 C3157 1.400 . S
C3157 C3151 1.491 . S
C3157 C3156 1.400 . S
C3157 C3158 1.398 . S
C3158 H3146 0.950 . S
C3158 C3157 1.398 . S
C3158 C3159 1.391 . S
C3159 H3147 0.950 . S
C3159 C3155 1.393 . S
C3159 C3158 1.391 . S
H3160 C3168 0.950 . S
H3161 C3173 0.950 . S
H3162 C3170 0.950 . S
H3163 C3172 0.950 . S
H3164 C3174 0.950 . S
H3165 C3176 0.950 . S
H3166 C3178 0.950 . S
H3167 C3179 0.950 . S
C3168 H3160 0.950 . S
C3168 C3169 1.386 . S
C3168 C3170 1.391 . S
C3169 C3168 1.386 . S
C3169 C3173 1.393 . S
C3170 H3162 0.950 . S
C3170 C3168 1.391 . S
C3170 C3171 1.400 . S
C3171 C3170 1.400 . S
C3171 C3172 1.398 . S
C3171 C3177 1.491 . S
C3172 H3163 0.950 . S
C3172 C3171 1.398 . S
C3172 C3173 1.391 . S
C3173 H3161 0.950 . S
C3173 C3169 1.393 . S
C3173 C3172 1.391 . S
C3174 H3164 0.950 . S
C3174 C3175 1.386 . S
C3174 C3176 1.391 . S
C3175 C3174 1.386 . S
C3175 C3179 1.393 . S
C3176 H3165 0.950 . S
C3176 C3174 1.391 . S
C3176 C3177 1.400 . S
C3177 C3171 1.491 . S
C3177 C3176 1.400 . S
C3177 C3178 1.398 . S
C3178 H3166 0.950 . S
C3178 C3177 1.398 . S
C3178 C3179 1.391 . S
C3179 H3167 0.950 . S
C3179 C3175 1.393 . S
C3179 C3178 1.391 . S
H3180 C3188 0.950 . S
H3181 C3193 0.950 . S
H3182 C3190 0.950 . S
H3183 C3192 0.950 . S
H3184 C3194 0.950 . S
H3185 C3196 0.950 . S
H3186 C3198 0.950 . S
H3187 C3199 0.950 . S
C3188 H3180 0.950 . S
C3188 C3189 1.386 . S
C3188 C3190 1.391 . S
C3189 C3188 1.386 . S
C3189 C3193 1.393 . S
C3190 H3182 0.950 . S
C3190 C3188 1.391 . S
C3190 C3191 1.400 . S
C3191 C3190 1.400 . S
C3191 C3192 1.398 . S
C3191 C3197 1.491 . S
C3192 H3183 0.950 . S
C3192 C3191 1.398 . S
C3192 C3193 1.391 . S
C3193 H3181 0.950 . S
C3193 C3189 1.393 . S
C3193 C3192 1.391 . S
C3194 H3184 0.950 . S
C3194 C3195 1.386 . S
C3194 C3196 1.391 . S
C3195 C3194 1.386 . S
C3195 C3199 1.393 . S
C3196 H3185 0.950 . S
C3196 C3194 1.391 . S
C3196 C3197 1.400 . S
C3197 C3191 1.491 . S
C3197 C3196 1.400 . S
C3197 C3198 1.398 . S
C3198 H3186 0.950 . S
C3198 C3197 1.398 . S
C3198 C3199 1.391 . S
C3199 H3187 0.950 . S
C3199 C3195 1.393 . S
C3199 C3198 1.391 . S
H3200 C3208 0.950 . S
H3201 C3213 0.950 . S
H3202 C3210 0.950 . S
H3203 C3212 0.950 . S
H3204 C3214 0.950 . S
H3205 C3216 0.950 . S
H3206 C3218 0.950 . S
H3207 C3219 0.950 1_554 S
C3208 H3200 0.950 . S
C3208 C3209 1.386 . S
C3208 C3210 1.391 . S
C3209 C3208 1.386 . S
C3209 C3213 1.393 . S
C3210 H3202 0.950 . S
C3210 C3208 1.391 . S
C3210 C3211 1.400 . S
C3211 C3210 1.400 . S
C3211 C3212 1.398 . S
C3211 C3217 1.491 . S
C3212 H3203 0.950 . S
C3212 C3211 1.398 . S
C3212 C3213 1.391 . S
C3213 H3201 0.950 . S
C3213 C3209 1.393 . S
C3213 C3212 1.391 . S
C3214 H3204 0.950 . S
C3214 C3215 1.386 . S
C3214 C3216 1.391 . S
C3215 C3214 1.386 . S
C3215 C3219 1.393 . S
C3216 H3205 0.950 . S
C3216 C3214 1.391 . S
C3216 C3217 1.400 . S
C3217 C3211 1.491 . S
C3217 C3216 1.400 . S
C3217 C3218 1.398 . S
C3218 H3206 0.950 . S
C3218 C3217 1.398 . S
C3218 C3219 1.391 . S
C3219 H3207 0.950 1_556 S
C3219 C3215 1.393 . S
C3219 C3218 1.391 . S
H3220 C3228 0.950 . S
H3221 C3233 0.950 . S
H3222 C3230 0.950 . S
H3223 C3232 0.950 . S
H3224 C3234 0.950 . S
H3225 C3236 0.950 . S
H3226 C3238 0.950 . S
H3227 C3239 0.950 . S
C3228 H3220 0.950 . S
C3228 C3229 1.386 . S
C3228 C3230 1.391 . S
C3229 C3228 1.386 . S
C3229 C3233 1.393 . S
C3230 H3222 0.950 . S
C3230 C3228 1.391 . S
C3230 C3231 1.400 . S
C3231 C3230 1.400 . S
C3231 C3232 1.398 . S
C3231 C3237 1.491 . S
C3232 H3223 0.950 . S
C3232 C3231 1.398 . S
C3232 C3233 1.391 . S
C3233 H3221 0.950 . S
C3233 C3229 1.393 . S
C3233 C3232 1.391 . S
C3234 H3224 0.950 . S
C3234 C3235 1.386 . S
C3234 C3236 1.391 . S
C3235 C3234 1.386 . S
C3235 C3239 1.393 . S
C3236 H3225 0.950 . S
C3236 C3234 1.391 . S
C3236 C3237 1.400 . S
C3237 C3231 1.491 . S
C3237 C3236 1.400 . S
C3237 C3238 1.398 . S
C3238 H3226 0.950 . S
C3238 C3237 1.398 . S
C3238 C3239 1.391 . S
C3239 H3227 0.950 . S
C3239 C3235 1.393 . S
C3239 C3238 1.391 . S
H3240 C3248 0.950 . S
H3241 C3253 0.950 . S
H3242 C3250 0.950 . S
H3243 C3252 0.950 . S
H3244 C3254 0.950 . S
H3245 C3256 0.950 . S
H3246 C3258 0.950 . S
H3247 C3259 0.950 . S
C3248 H3240 0.950 . S
C3248 C3249 1.386 . S
C3248 C3250 1.391 . S
C3249 C3248 1.386 . S
C3249 C3253 1.393 . S
C3250 H3242 0.950 . S
C3250 C3248 1.391 . S
C3250 C3251 1.400 . S
C3251 C3250 1.400 . S
C3251 C3252 1.398 . S
C3251 C3257 1.491 . S
C3252 H3243 0.950 . S
C3252 C3251 1.398 . S
C3252 C3253 1.391 . S
C3253 H3241 0.950 . S
C3253 C3249 1.393 . S
C3253 C3252 1.391 . S
C3254 H3244 0.950 . S
C3254 C3255 1.386 . S
C3254 C3256 1.391 . S
C3255 C3254 1.386 . S
C3255 C3259 1.393 . S
C3256 H3245 0.950 . S
C3256 C3254 1.391 . S
C3256 C3257 1.400 . S
C3257 C3251 1.491 . S
C3257 C3256 1.400 . S
C3257 C3258 1.398 . S
C3258 H3246 0.950 . S
C3258 C3257 1.398 . S
C3258 C3259 1.391 . S
C3259 H3247 0.950 . S
C3259 C3255 1.393 . S
C3259 C3258 1.391 . S
H3260 C3268 0.950 . S
H3261 C3273 0.950 . S
H3262 C3270 0.950 . S
H3263 C3272 0.950 . S
H3264 C3274 0.950 . S
H3265 C3276 0.950 . S
H3266 C3278 0.950 . S
H3267 C3279 0.950 . S
C3268 H3260 0.950 . S
C3268 C3269 1.386 . S
C3268 C3270 1.391 . S
C3269 C3268 1.386 . S
C3269 C3273 1.393 . S
C3270 H3262 0.950 . S
C3270 C3268 1.391 . S
C3270 C3271 1.400 . S
C3271 C3270 1.400 . S
C3271 C3272 1.398 . S
C3271 C3277 1.491 . S
C3272 H3263 0.950 . S
C3272 C3271 1.398 . S
C3272 C3273 1.391 . S
C3273 H3261 0.950 . S
C3273 C3269 1.393 . S
C3273 C3272 1.391 . S
C3274 H3264 0.950 . S
C3274 C3275 1.386 . S
C3274 C3276 1.391 . S
C3275 C3274 1.386 . S
C3275 C3279 1.393 . S
C3276 H3265 0.950 . S
C3276 C3274 1.391 . S
C3276 C3277 1.400 . S
C3277 C3271 1.491 . S
C3277 C3276 1.400 . S
C3277 C3278 1.398 . S
C3278 H3266 0.950 . S
C3278 C3277 1.398 . S
C3278 C3279 1.391 . S
C3279 H3267 0.950 . S
C3279 C3275 1.393 . S
C3279 C3278 1.391 . S
H3280 C3288 0.950 . S
H3281 C3293 0.950 . S
H3282 C3290 0.950 . S
H3283 C3292 0.950 . S
H3284 C3294 0.950 . S
H3285 C3296 0.950 . S
H3286 C3298 0.950 . S
H3287 C3299 0.950 . S
C3288 H3280 0.950 . S
C3288 C3289 1.386 . S
C3288 C3290 1.391 . S
C3289 C3288 1.386 . S
C3289 C3293 1.393 . S
C3290 H3282 0.950 . S
C3290 C3288 1.391 . S
C3290 C3291 1.400 . S
C3291 C3290 1.400 . S
C3291 C3292 1.398 . S
C3291 C3297 1.491 . S
C3292 H3283 0.950 . S
C3292 C3291 1.398 . S
C3292 C3293 1.391 . S
C3293 H3281 0.950 . S
C3293 C3289 1.393 . S
C3293 C3292 1.391 . S
C3294 H3284 0.950 . S
C3294 C3295 1.386 . S
C3294 C3296 1.391 . S
C3295 C3294 1.386 . S
C3295 C3299 1.393 . S
C3296 H3285 0.950 . S
C3296 C3294 1.391 . S
C3296 C3297 1.400 . S
C3297 C3291 1.491 . S
C3297 C3296 1.400 . S
C3297 C3298 1.398 . S
C3298 H3286 0.950 . S
C3298 C3297 1.398 . S
C3298 C3299 1.391 . S
C3299 H3287 0.950 . S
C3299 C3295 1.393 . S
C3299 C3298 1.391 . S
H3300 C3308 0.950 . S
H3301 C3313 0.950 . S
H3302 C3310 0.950 . S
H3303 C3312 0.950 . S
H3304 C3314 0.950 . S
H3305 C3316 0.950 . S
H3306 C3318 0.950 . S
H3307 C3319 0.950 . S
C3308 H3300 0.950 . S
C3308 C3309 1.386 . S
C3308 C3310 1.391 . S
C3309 C3308 1.386 . S
C3309 C3313 1.393 . S
C3310 H3302 0.950 . S
C3310 C3308 1.391 . S
C3310 C3311 1.400 . S
C3311 C3310 1.400 . S
C3311 C3312 1.398 . S
C3311 C3317 1.491 . S
C3312 H3303 0.950 . S
C3312 C3311 1.398 . S
C3312 C3313 1.391 . S
C3313 H3301 0.950 . S
C3313 C3309 1.393 . S
C3313 C3312 1.391 . S
C3314 H3304 0.950 . S
C3314 C3315 1.386 . S
C3314 C3316 1.391 . S
C3315 C3314 1.386 . S
C3315 C3319 1.393 . S
C3316 H3305 0.950 . S
C3316 C3314 1.391 . S
C3316 C3317 1.400 . S
C3317 C3311 1.491 . S
C3317 C3316 1.400 . S
C3317 C3318 1.398 . S
C3318 H3306 0.950 . S
C3318 C3317 1.398 . S
C3318 C3319 1.391 . S
C3319 H3307 0.950 . S
C3319 C3315 1.393 . S
C3319 C3318 1.391 . S
H3320 C3328 0.950 . S
H3321 C3333 0.950 . S
H3322 C3330 0.950 . S
H3323 C3332 0.950 . S
H3324 C3334 0.901 1_455 S
H3325 C3336 0.950 . S
H3326 C3338 0.950 . S
H3327 C3339 0.950 . S
C3328 H3320 0.950 . S
C3328 C3329 1.386 . S
C3328 C3330 1.391 . S
C3329 C3328 1.386 . S
C3329 C3333 1.393 . S
C3330 H3322 0.950 . S
C3330 C3328 1.391 . S
C3330 C3331 1.400 . S
C3331 C3330 1.400 . S
C3331 C3332 1.398 . S
C3331 C3337 1.491 . S
C3332 H3323 0.950 . S
C3332 C3331 1.398 . S
C3332 C3333 1.391 . S
C3333 H3321 0.950 . S
C3333 C3329 1.393 . S
C3333 C3332 1.391 . S
C3334 H3324 0.901 1_655 S
C3334 C3335 1.405 1_556 S
C3334 C3336 1.421 . S
C3335 C3334 1.405 1_554 S
C3335 C3339 1.393 . S
C3336 H3325 0.950 . S
C3336 C3334 1.421 . S
C3336 C3337 1.400 . S
C3337 C3331 1.491 . S
C3337 C3336 1.400 . S
C3337 C3338 1.398 . S
C3338 H3326 0.950 . S
C3338 C3337 1.398 . S
C3338 C3339 1.391 1_556 S
C3339 H3327 0.950 . S
C3339 C3335 1.393 . S
C3339 C3338 1.391 1_554 S
H3340 C3348 0.950 . S
H3341 C3353 0.950 . S
H3342 C3350 0.950 . S
H3343 C3352 0.950 . S
H3344 C3354 0.950 . S
H3345 C3356 0.950 . S
H3346 C3358 0.950 . S
H3347 C3359 0.950 . S
C3348 H3340 0.950 . S
C3348 C3349 1.386 . S
C3348 C3350 1.391 . S
C3349 C3348 1.386 . S
C3349 C3353 1.393 . S
C3350 H3342 0.950 . S
C3350 C3348 1.391 . S
C3350 C3351 1.400 . S
C3351 C3350 1.400 . S
C3351 C3352 1.398 . S
C3351 C3357 1.491 . S
C3352 H3343 0.950 . S
C3352 C3351 1.398 . S
C3352 C3353 1.391 . S
C3353 H3341 0.950 . S
C3353 C3349 1.393 . S
C3353 C3352 1.391 . S
C3354 H3344 0.950 . S
C3354 C3355 1.386 . S
C3354 C3356 1.391 . S
C3355 C3354 1.386 . S
C3355 C3359 1.393 . S
C3356 H3345 0.950 . S
C3356 C3354 1.391 . S
C3356 C3357 1.400 . S
C3357 C3351 1.491 . S
C3357 C3356 1.400 . S
C3357 C3358 1.398 . S
C3358 H3346 0.950 . S
C3358 C3357 1.398 . S
C3358 C3359 1.391 . S
C3359 H3347 0.950 . S
C3359 C3355 1.393 . S
C3359 C3358 1.391 . S
H3360 C3368 0.950 . S
H3361 C3373 0.950 . S
H3362 C3370 0.950 . S
H3363 C3372 0.950 . S
H3364 C3374 0.950 . S
H3365 C3376 0.950 . S
H3366 C3378 0.950 . S
H3367 C3379 0.950 . S
C3368 H3360 0.950 . S
C3368 C3369 1.386 . S
C3368 C3370 1.391 . S
C3369 C3368 1.386 . S
C3369 C3373 1.393 . S
C3370 H3362 0.950 . S
C3370 C3368 1.391 . S
C3370 C3371 1.400 . S
C3371 C3370 1.400 . S
C3371 C3372 1.398 . S
C3371 C3377 1.491 . S
C3372 H3363 0.950 . S
C3372 C3371 1.398 . S
C3372 C3373 1.391 . S
C3373 H3361 0.950 . S
C3373 C3369 1.393 . S
C3373 C3372 1.391 . S
C3374 H3364 0.950 . S
C3374 C3375 1.386 . S
C3374 C3376 1.391 . S
C3375 C3374 1.386 . S
C3375 C3379 1.393 . S
C3376 H3365 0.950 . S
C3376 C3374 1.391 . S
C3376 C3377 1.400 . S
C3377 C3371 1.491 . S
C3377 C3376 1.400 . S
C3377 C3378 1.398 . S
C3378 H3366 0.950 . S
C3378 C3377 1.398 . S
C3378 C3379 1.391 . S
C3379 H3367 0.950 . S
C3379 C3375 1.393 . S
C3379 C3378 1.391 . S
H3380 C3388 0.950 . S
H3381 C3393 0.950 . S
H3382 C3390 0.950 . S
H3383 C3392 0.950 . S
H3384 C3394 0.950 . S
H3385 C3396 0.950 . S
H3386 C3398 0.950 . S
H3387 C3399 0.950 . S
C3388 H3380 0.950 . S
C3388 C3389 1.386 . S
C3388 C3390 1.391 . S
C3389 C3388 1.386 . S
C3389 C3393 1.393 . S
C3390 H3382 0.950 . S
C3390 C3388 1.391 . S
C3390 C3391 1.400 . S
C3391 C3390 1.400 . S
C3391 C3392 1.398 . S
C3391 C3397 1.491 . S
C3392 H3383 0.950 . S
C3392 C3391 1.398 . S
C3392 C3393 1.391 . S
C3393 H3381 0.950 . S
C3393 C3389 1.393 . S
C3393 C3392 1.391 . S
C3394 H3384 0.950 . S
C3394 C3395 1.386 . S
C3394 C3396 1.391 . S
C3395 C3394 1.386 . S
C3395 C3399 1.393 . S
C3396 H3385 0.950 . S
C3396 C3394 1.391 . S
C3396 C3397 1.400 . S
C3397 C3391 1.491 . S
C3397 C3396 1.400 . S
C3397 C3398 1.398 . S
C3398 H3386 0.950 . S
C3398 C3397 1.398 . S
C3398 C3399 1.391 . S
C3399 H3387 0.950 . S
C3399 C3395 1.393 . S
C3399 C3398 1.391 . S
H3400 C3408 0.950 . S
H3401 C3413 0.950 . S
H3402 C3410 0.950 . S
H3403 C3412 0.950 . S
H3404 C3414 0.950 . S
H3405 C3416 0.950 . S
H3406 C3418 0.950 . S
H3407 C3419 0.950 . S
C3408 H3400 0.950 . S
C3408 C3409 1.386 . S
C3408 C3410 1.391 . S
C3409 C3408 1.386 . S
C3409 C3413 1.393 . S
C3410 H3402 0.950 . S
C3410 C3408 1.391 . S
C3410 C3411 1.400 . S
C3411 C3410 1.400 . S
C3411 C3412 1.398 . S
C3411 C3417 1.491 . S
C3412 H3403 0.950 . S
C3412 C3411 1.398 . S
C3412 C3413 1.391 . S
C3413 H3401 0.950 . S
C3413 C3409 1.393 . S
C3413 C3412 1.391 . S
C3414 H3404 0.950 . S
C3414 C3415 1.386 . S
C3414 C3416 1.391 . S
C3415 C3414 1.386 . S
C3415 C3419 1.393 . S
C3416 H3405 0.950 . S
C3416 C3414 1.391 . S
C3416 C3417 1.400 . S
C3417 C3411 1.491 . S
C3417 C3416 1.400 . S
C3417 C3418 1.398 . S
C3418 H3406 0.950 . S
C3418 C3417 1.398 . S
C3418 C3419 1.391 . S
C3419 H3407 0.950 . S
C3419 C3415 1.393 . S
C3419 C3418 1.391 . S
H3420 C3428 0.950 . S
H3421 C3433 0.950 . S
H3422 C3430 0.950 . S
H3423 C3432 0.950 . S
H3424 C3434 0.950 . S
H3425 C3436 0.950 . S
H3426 C3438 0.950 . S
H3427 C3439 0.950 . S
C3428 H3420 0.950 . S
C3428 C3429 1.386 . S
C3428 C3430 1.391 . S
C3429 C3428 1.386 . S
C3429 C3433 1.393 . S
C3430 H3422 0.950 . S
C3430 C3428 1.391 . S
C3430 C3431 1.400 . S
C3431 C3430 1.400 . S
C3431 C3432 1.398 . S
C3431 C3437 1.491 . S
C3432 H3423 0.950 . S
C3432 C3431 1.398 . S
C3432 C3433 1.391 . S
C3433 H3421 0.950 . S
C3433 C3429 1.393 . S
C3433 C3432 1.391 . S
C3434 H3424 0.950 . S
C3434 C3435 1.386 . S
C3434 C3436 1.391 . S
C3435 C3434 1.386 . S
C3435 C3439 1.393 . S
C3436 H3425 0.950 . S
C3436 C3434 1.391 . S
C3436 C3437 1.400 . S
C3437 C3431 1.491 . S
C3437 C3436 1.400 . S
C3437 C3438 1.398 . S
C3438 H3426 0.950 . S
C3438 C3437 1.398 . S
C3438 C3439 1.391 . S
C3439 H3427 0.950 . S
C3439 C3435 1.393 . S
C3439 C3438 1.391 . S
H3440 C3448 0.950 . S
H3441 C3453 0.950 . S
H3442 C3450 0.950 . S
H3443 C3452 0.950 . S
H3444 C3454 0.950 . S
H3445 C3456 0.950 . S
H3446 C3458 0.950 . S
H3447 C3459 0.950 . S
C3448 H3440 0.950 . S
C3448 C3449 1.386 . S
C3448 C3450 1.391 . S
C3449 C3448 1.386 . S
C3449 C3453 1.393 . S
C3450 H3442 0.950 . S
C3450 C3448 1.391 . S
C3450 C3451 1.400 . S
C3451 C3450 1.400 . S
C3451 C3452 1.398 . S
C3451 C3457 1.491 . S
C3452 H3443 0.950 . S
C3452 C3451 1.398 . S
C3452 C3453 1.391 . S
C3453 H3441 0.950 . S
C3453 C3449 1.393 . S
C3453 C3452 1.391 . S
C3454 H3444 0.950 . S
C3454 C3455 1.386 . S
C3454 C3456 1.391 . S
C3455 C3454 1.386 . S
C3455 C3459 1.393 . S
C3456 H3445 0.950 . S
C3456 C3454 1.391 . S
C3456 C3457 1.400 . S
C3457 C3451 1.491 . S
C3457 C3456 1.400 . S
C3457 C3458 1.398 . S
C3458 H3446 0.950 . S
C3458 C3457 1.398 . S
C3458 C3459 1.391 . S
C3459 H3447 0.950 . S
C3459 C3455 1.393 . S
C3459 C3458 1.391 . S
H3460 C3468 0.950 . S
H3461 C3473 0.950 . S
H3462 C3470 0.950 . S
H3463 C3472 0.950 . S
H3464 C3474 0.950 . S
H3465 C3476 0.950 . S
H3466 C3478 0.950 . S
H3467 C3479 0.953 1_545 S
C3468 H3460 0.950 . S
C3468 C3469 1.386 . S
C3468 C3470 1.391 . S
C3469 C3468 1.386 . S
C3469 C3473 1.393 . S
C3470 H3462 0.950 . S
C3470 C3468 1.391 . S
C3470 C3471 1.400 . S
C3471 C3470 1.400 . S
C3471 C3472 1.398 . S
C3471 C3477 1.491 . S
C3472 H3463 0.950 . S
C3472 C3471 1.398 . S
C3472 C3473 1.391 . S
C3473 H3461 0.950 . S
C3473 C3469 1.393 . S
C3473 C3472 1.391 . S
C3474 H3464 0.950 . S
C3474 C3475 1.386 . S
C3474 C3476 1.391 . S
C3475 C3474 1.386 . S
C3475 C3479 1.391 . S
C3476 H3465 0.950 . S
C3476 C3474 1.391 . S
C3476 C3477 1.400 . S
C3477 C3471 1.491 . S
C3477 C3476 1.400 . S
C3477 C3478 1.398 . S
C3478 H3466 0.950 . S
C3478 C3477 1.398 . S
C3478 C3479 1.389 . S
C3479 H3467 0.953 1_565 S
C3479 C3475 1.391 . S
C3479 C3478 1.389 . S
H3480 C3488 0.950 . S
H3481 C3493 0.950 . S
H3482 C3490 0.950 . S
H3483 C3492 0.950 . S
H3484 C3494 0.950 . S
H3485 C3496 0.950 . S
H3486 C3498 0.950 . S
H3487 C3499 0.950 . S
C3488 H3480 0.950 . S
C3488 C3489 1.386 . S
C3488 C3490 1.391 . S
C3489 C3488 1.386 . S
C3489 C3493 1.393 . S
C3490 H3482 0.950 . S
C3490 C3488 1.391 . S
C3490 C3491 1.400 . S
C3491 C3490 1.400 . S
C3491 C3492 1.398 . S
C3491 C3497 1.491 . S
C3492 H3483 0.950 . S
C3492 C3491 1.398 . S
C3492 C3493 1.391 . S
C3493 H3481 0.950 . S
C3493 C3489 1.393 . S
C3493 C3492 1.391 . S
C3494 H3484 0.950 . S
C3494 C3495 1.386 . S
C3494 C3496 1.391 . S
C3495 C3494 1.386 . S
C3495 C3499 1.393 . S
C3496 H3485 0.950 . S
C3496 C3494 1.391 . S
C3496 C3497 1.400 . S
C3497 C3491 1.491 . S
C3497 C3496 1.400 . S
C3497 C3498 1.398 . S
C3498 H3486 0.950 . S
C3498 C3497 1.398 . S
C3498 C3499 1.391 . S
C3499 H3487 0.950 . S
C3499 C3495 1.393 . S
C3499 C3498 1.391 . S
H3500 C3508 0.950 . S
H3501 C3513 0.950 . S
H3502 C3510 0.950 . S
H3503 C3512 0.950 . S
H3504 C3514 0.950 . S
H3505 C3516 0.950 . S
H3506 C3518 0.950 . S
H3507 C3519 0.950 . S
C3508 H3500 0.950 . S
C3508 C3509 1.386 . S
C3508 C3510 1.391 . S
C3509 C3508 1.386 . S
C3509 C3513 1.393 . S
C3510 H3502 0.950 . S
C3510 C3508 1.391 . S
C3510 C3511 1.400 . S
C3511 C3510 1.400 . S
C3511 C3512 1.398 . S
C3511 C3517 1.491 . S
C3512 H3503 0.950 . S
C3512 C3511 1.398 . S
C3512 C3513 1.391 . S
C3513 H3501 0.950 . S
C3513 C3509 1.393 . S
C3513 C3512 1.391 . S
C3514 H3504 0.950 . S
C3514 C3515 1.386 . S
C3514 C3516 1.391 . S
C3515 C3514 1.386 . S
C3515 C3519 1.393 . S
C3516 H3505 0.950 . S
C3516 C3514 1.391 . S
C3516 C3517 1.400 . S
C3517 C3511 1.491 . S
C3517 C3516 1.400 . S
C3517 C3518 1.398 . S
C3518 H3506 0.950 . S
C3518 C3517 1.398 . S
C3518 C3519 1.391 . S
C3519 H3507 0.950 . S
C3519 C3515 1.393 . S
C3519 C3518 1.391 . S
H3520 C3528 0.950 . S
H3521 C3533 0.950 . S
H3522 C3530 0.950 . S
H3523 C3532 0.950 . S
H3524 C3534 0.950 . S
H3525 C3536 0.950 . S
H3526 C3538 0.950 . S
H3527 C3539 0.950 . S
C3528 H3520 0.950 . S
C3528 C3529 1.386 . S
C3528 C3530 1.391 . S
C3529 C3528 1.386 . S
C3529 C3533 1.393 . S
C3530 H3522 0.950 . S
C3530 C3528 1.391 . S
C3530 C3531 1.400 . S
C3531 C3530 1.400 . S
C3531 C3532 1.398 . S
C3531 C3537 1.491 . S
C3532 H3523 0.950 . S
C3532 C3531 1.398 . S
C3532 C3533 1.391 . S
C3533 H3521 0.950 . S
C3533 C3529 1.393 . S
C3533 C3532 1.391 . S
C3534 H3524 0.950 . S
C3534 C3535 1.386 . S
C3534 C3536 1.391 . S
C3535 C3534 1.386 . S
C3535 C3539 1.393 . S
C3536 H3525 0.950 . S
C3536 C3534 1.391 . S
C3536 C3537 1.400 . S
C3537 C3531 1.491 . S
C3537 C3536 1.400 . S
C3537 C3538 1.398 . S
C3538 H3526 0.950 . S
C3538 C3537 1.398 . S
C3538 C3539 1.391 . S
C3539 H3527 0.950 . S
C3539 C3535 1.393 . S
C3539 C3538 1.391 . S
H3540 C3548 0.950 . S
H3541 C3553 0.950 . S
H3542 C3550 0.950 . S
H3543 C3552 0.950 . S
H3544 C3554 0.950 . S
H3545 C3556 0.950 . S
H3546 C3558 0.950 . S
H3547 C3559 0.950 . S
C3548 H3540 0.950 . S
C3548 C3549 1.386 . S
C3548 C3550 1.391 . S
C3549 C3548 1.386 . S
C3549 C3553 1.393 . S
C3550 H3542 0.950 . S
C3550 C3548 1.391 . S
C3550 C3551 1.400 . S
C3551 C3550 1.400 . S
C3551 C3552 1.398 . S
C3551 C3557 1.491 . S
C3552 H3543 0.950 . S
C3552 C3551 1.398 . S
C3552 C3553 1.391 . S
C3553 H3541 0.950 . S
C3553 C3549 1.393 . S
C3553 C3552 1.391 . S
C3554 H3544 0.950 . S
C3554 C3555 1.386 . S
C3554 C3556 1.391 . S
C3555 C3554 1.386 . S
C3555 C3559 1.393 . S
C3556 H3545 0.950 . S
C3556 C3554 1.391 . S
C3556 C3557 1.400 . S
C3557 C3551 1.491 . S
C3557 C3556 1.400 . S
C3557 C3558 1.398 . S
C3558 H3546 0.950 . S
C3558 C3557 1.398 . S
C3558 C3559 1.391 . S
C3559 H3547 0.950 . S
C3559 C3555 1.393 . S
C3559 C3558 1.391 . S
H3560 C3568 0.950 . S
H3561 C3573 0.950 . S
H3562 C3570 0.950 . S
H3563 C3572 0.950 . S
H3564 C3574 0.950 . S
H3565 C3576 0.950 . S
H3566 C3578 0.950 . S
H3567 C3579 0.950 . S
C3568 H3560 0.950 . S
C3568 C3569 1.386 . S
C3568 C3570 1.391 . S
C3569 C3568 1.386 . S
C3569 C3573 1.393 . S
C3570 H3562 0.950 . S
C3570 C3568 1.391 . S
C3570 C3571 1.400 . S
C3571 C3570 1.400 . S
C3571 C3572 1.398 . S
C3571 C3577 1.491 . S
C3572 H3563 0.950 . S
C3572 C3571 1.398 . S
C3572 C3573 1.391 . S
C3573 H3561 0.950 . S
C3573 C3569 1.393 . S
C3573 C3572 1.391 . S
C3574 H3564 0.950 . S
C3574 C3575 1.386 . S
C3574 C3576 1.391 . S
C3575 C3574 1.386 . S
C3575 C3579 1.393 . S
C3576 H3565 0.950 . S
C3576 C3574 1.391 . S
C3576 C3577 1.400 . S
C3577 C3571 1.491 . S
C3577 C3576 1.400 . S
C3577 C3578 1.398 . S
C3578 H3566 0.950 . S
C3578 C3577 1.398 . S
C3578 C3579 1.391 . S
C3579 H3567 0.950 . S
C3579 C3575 1.393 . S
C3579 C3578 1.391 . S
H3580 C3588 0.950 . S
H3581 C3593 0.950 . S
H3582 C3590 0.950 . S
H3583 C3592 0.950 . S
H3584 C3594 0.950 . S
H3585 C3596 0.950 . S
H3586 C3598 0.950 . S
H3587 C3599 0.950 . S
C3588 H3580 0.950 . S
C3588 C3589 1.386 . S
C3588 C3590 1.391 . S
C3589 C3588 1.386 . S
C3589 C3593 1.393 . S
C3590 H3582 0.950 . S
C3590 C3588 1.391 . S
C3590 C3591 1.400 . S
C3591 C3590 1.400 . S
C3591 C3592 1.398 . S
C3591 C3597 1.491 . S
C3592 H3583 0.950 . S
C3592 C3591 1.398 . S
C3592 C3593 1.391 . S
C3593 H3581 0.950 . S
C3593 C3589 1.393 . S
C3593 C3592 1.391 . S
C3594 H3584 0.950 . S
C3594 C3595 1.386 . S
C3594 C3596 1.391 . S
C3595 C3594 1.386 . S
C3595 C3599 1.393 . S
C3596 H3585 0.950 . S
C3596 C3594 1.391 . S
C3596 C3597 1.400 . S
C3597 C3591 1.491 . S
C3597 C3596 1.400 . S
C3597 C3598 1.398 . S
C3598 H3586 0.950 . S
C3598 C3597 1.398 . S
C3598 C3599 1.391 . S
C3599 H3587 0.950 . S
C3599 C3595 1.393 . S
C3599 C3598 1.391 . S
C1689 C106 2.400 . S
C1695 C392 2.460 . S
C1709 C65 1.855 . S
C1715 C494 1.833 . S
C1729 C79 2.121 . S
C1735 C560 2.153 . S
C1755 C646 1.192 . S
C1749 C90 1.265 . S
C1769 C21 1.275 . S
C1775 C730 1.242 . S
C1795 C812 1.789 . S
C1789 C35 1.772 . S
C1815 C914 1.907 . S
C1809 C50 1.924 . S
C1829 C6 2.007 . S
C1835 C980 2.065 . S
C1855 C410 1.894 . S
C1849 C232 1.917 . S
C1869 C245 0.940 . S
C1875 C478 0.908 . S
C1895 C578 1.188 . S
C1889 C274 1.204 . S
C1915 C644 1.631 . S
C1909 C175 1.593 . S
C1929 C231 1.449 . S
C1935 C728 1.476 . S
C1955 C830 1.127 . S
C1949 C246 1.139 . S
C1975 C898 0.830 . S
C1969 C273 0.809 . S
C1995 C998 1.824 . S
C1989 C176 1.845 . S
C2015 C394 1.046 . S
C2009 C160 1.040 . S
C2029 C289 1.669 . S
C2035 C1082 1.657 . S
C2055 C1150 1.340 . S
C2049 C328 1.370 . S
C2075 C1232 0.986 . S
C2069 C317 0.982 . S
C2089 C118 0.983 . S
C2095 C982 1.038 . S
C2109 C132 1.359 . S
C2115 C562 1.336 . S
C2129 C331 1.743 . S
C2135 C1334 1.723 . S
C2155 C1400 1.054 . S
C2149 C303 1.046 . S
C2175 C403 2.085 . S
C2169 C63 2.079 . S
C2195 C1407 2.289 . S
C2189 C107 2.253 . S
C2209 C92 1.988 . S
C2215 C571 2.043 . S
C2229 C78 1.819 . S
C2235 C1329 1.656 . S
C2255 C741 1.653 . S
C2249 C8 1.817 . S
C2269 C51 2.000 . S
C2275 C1159 2.046 . S
C2295 C903 2.291 1_556 S
C2289 C37 2.254 . S
C2315 C1495 2.084 . S
C2309 C20 2.078 . S
C2335 C399 1.737 1_556 S
C2329 C147 1.730 . S
C2355 C1413 1.083 . S
C2349 C316 1.136 . S
C2369 C119 1.149 . S
C2375 C567 1.208 . S
C2389 C288 1.796 . S
C2395 C1327 1.816 . S
C2409 C148 1.796 . S
C2415 C739 1.816 . S
C2435 C1155 1.188 . S
C2429 C315 1.160 . S
C2449 C120 1.128 . S
C2455 C909 1.047 . S
C2469 C287 1.741 . S
C2475 C1491 1.731 . S
C2489 C188 0.921 . S
C2495 C405 0.873 . S
C2509 C177 1.981 . S
C2515 C1071 2.001 . S
C2529 C258 1.442 . S
C2535 C825 1.387 . S
C2549 C247 1.028 . S
C2555 C1243 1.043 . S
C2575 C1497 0.906 . S
C2569 C272 0.917 1_565 S
C2589 C216 1.268 . S
C2595 C573 1.227 . S
C2615 C651 1.989 . S
C2609 C261 1.992 . S
C2635 C487 1.031 . S
C2629 C205 1.027 . S
C2649 C76 2.021 . S
C2655 C1568 2.073 . S
C2675 C1418 1.902 . S
C2669 C93 1.923 . S
C2689 C105 1.758 . S
C2695 C1652 1.783 . S
C2709 C62 1.301 1_655 S
C2715 C1318 1.218 . S
C2729 C49 1.263 . S
C2735 C1066 1.210 . S
C2755 C1148 2.158 . S
C2749 C9 2.124 . S
C2775 C1250 1.841 . S
C2769 C22 1.853 . S
C2795 C1484 2.460 . S
C2789 C36 2.402 . S
C2815 C1586 1.822 . S
C2809 C260 1.843 . S
C2829 C189 0.820 1_556 S
C2835 C1402 0.790 . S
C2855 C1670 1.134 . S
C2849 C204 1.140 . S
C2875 C1316 1.475 . S
C2869 C217 1.456 . S
C2895 C1064 1.631 . S
C2889 C259 1.591 . S
C2909 C190 1.217 . S
C2915 C1166 1.204 . S
C2935 C1234 0.887 . S
C2929 C203 0.938 . S
C2949 C218 1.909 . S
C2955 C1502 1.883 . S
C2975 C1570 1.037 . S
C2969 C314 0.983 . S
C2989 C135 1.744 . S
C2995 C746 1.728 . S
C3015 C814 1.352 . S
C3009 C146 1.328 . S
C3035 C896 1.052 . S
C3029 C163 1.042 . S
C3055 C1486 1.043 . S
C3049 C300 1.004 . S
C3069 C286 1.338 . S
C3075 C1654 1.328 . S
C3095 C662 1.649 . S
C3089 C149 1.668 . S
C3115 C476 0.985 . S
C3109 C121 0.975 . S
C3129 C91 2.065 . S
C3135 C1579 2.069 . S
C3155 C483 1.915 . S
C3149 C77 1.807 . S
C3169 C64 1.987 . S
C3175 C1663 2.035 . S
C3189 C104 1.466 . S
C3195 C657 1.380 . S
C3209 C34 1.461 . S
C3215 C1077 1.415 . S
C3235 C823 2.033 . S
C3229 C23 1.974 . S
C3249 C7 1.806 . S
C3255 C1239 1.920 . S
C3269 C48 2.060 . S
C3275 C991 2.068 . S
C3295 C1575 1.699 . S
C3289 C329 1.721 . S
C3309 C162 1.168 . S
C3315 C489 1.087 . S
C3335 C1659 1.198 1_655 S
C3329 C301 1.150 . S
C3349 C134 1.820 . S
C3355 C655 1.832 . S
C3369 C330 1.809 . S
C3375 C1075 1.834 . S
C3395 C819 1.182 . S
C3389 C161 1.169 . S
C3409 C302 1.163 . S
C3415 C1245 1.075 . S
C3435 C987 1.709 . S
C3429 C133 1.713 . S
C3455 C1581 1.035 . S
C3449 C244 1.058 . S
C3475 C735 1.949 1_565 S
C3469 C219 1.940 . S
C3489 C230 1.248 . S
C3495 C1161 1.205 . S
C3515 C907 0.999 . S
C3509 C191 0.999 . S
C3529 C202 1.058 . S
C3535 C993 1.033 . S
C3549 C174 1.454 . S
C3555 C1665 1.418 . S
C3575 C1323 1.953 . S
C3569 C233 1.938 . S
C3595 C1411 0.999 . S
C3589 C275 0.997 . S
