# Generated by pormake.
# Topology gar, (4,6)-cn, num edge types: 1
# Building blocks:
#     Node 0, Type 0, BuildingBlock: CEKHIL_clean_sbu_0, # of connection points: 4
#     Node 1, Type 0, BuildingBlock: CEKHIL_clean_sbu_0, # of connection points: 4
#     Node 2, Type 0, BuildingBlock: CEKHIL_clean_sbu_0, # of connection points: 4
#     Node 3, Type 0, BuildingBlock: CEKHIL_clean_sbu_0, # of connection points: 4
#     Node 4, Type 0, BuildingBlock: CEKHIL_clean_sbu_0, # of connection points: 4
#     Node 5, Type 0, BuildingBlock: CEKHIL_clean_sbu_0, # of connection points: 4
#     Node 6, Type 0, BuildingBlock: CEKHIL_clean_sbu_0, # of connection points: 4
#     Node 7, Type 0, BuildingBlock: CEKHIL_clean_sbu_0, # of connection points: 4
#     Node 8, Type 0, BuildingBlock: CEKHIL_clean_sbu_0, # of connection points: 4
#     Node 9, Type 0, BuildingBlock: CEKHIL_clean_sbu_0, # of connection points: 4
#     Node 10, Type 0, BuildingBlock: CEKHIL_clean_sbu_0, # of connection points: 4
#     Node 11, Type 0, BuildingBlock: CEKHIL_clean_sbu_0, # of connection points: 4
#     Node 12, Type 0, BuildingBlock: CEKHIL_clean_sbu_0, # of connection points: 4
#     Node 13, Type 0, BuildingBlock: CEKHIL_clean_sbu_0, # of connection points: 4
#     Node 14, Type 0, BuildingBlock: CEKHIL_clean_sbu_0, # of connection points: 4
#     Node 15, Type 0, BuildingBlock: CEKHIL_clean_sbu_0, # of connection points: 4
#     Node 16, Type 0, BuildingBlock: CEKHIL_clean_sbu_0, # of connection points: 4
#     Node 17, Type 0, BuildingBlock: CEKHIL_clean_sbu_0, # of connection points: 4
#     Node 18, Type 0, BuildingBlock: CEKHIL_clean_sbu_0, # of connection points: 4
#     Node 19, Type 0, BuildingBlock: CEKHIL_clean_sbu_0, # of connection points: 4
#     Node 20, Type 0, BuildingBlock: CEKHIL_clean_sbu_0, # of connection points: 4
#     Node 21, Type 0, BuildingBlock: CEKHIL_clean_sbu_0, # of connection points: 4
#     Node 22, Type 0, BuildingBlock: CEKHIL_clean_sbu_0, # of connection points: 4
#     Node 23, Type 0, BuildingBlock: CEKHIL_clean_sbu_0, # of connection points: 4
#     Node 24, Type 1, BuildingBlock: MIFKUJ_clean_sbu_0, # of connection points: 6
#     Node 25, Type 1, BuildingBlock: MIFKUJ_clean_sbu_0, # of connection points: 6
#     Node 26, Type 1, BuildingBlock: MIFKUJ_clean_sbu_0, # of connection points: 6
#     Node 27, Type 1, BuildingBlock: MIFKUJ_clean_sbu_0, # of connection points: 6
#     Node 28, Type 1, BuildingBlock: MIFKUJ_clean_sbu_0, # of connection points: 6
#     Node 29, Type 1, BuildingBlock: MIFKUJ_clean_sbu_0, # of connection points: 6
#     Node 30, Type 1, BuildingBlock: MIFKUJ_clean_sbu_0, # of connection points: 6
#     Node 31, Type 1, BuildingBlock: MIFKUJ_clean_sbu_0, # of connection points: 6
#     Node 32, Type 1, BuildingBlock: MIFKUJ_clean_sbu_0, # of connection points: 6
#     Node 33, Type 1, BuildingBlock: MIFKUJ_clean_sbu_0, # of connection points: 6
#     Node 34, Type 1, BuildingBlock: MIFKUJ_clean_sbu_0, # of connection points: 6
#     Node 35, Type 1, BuildingBlock: MIFKUJ_clean_sbu_0, # of connection points: 6
#     Node 36, Type 1, BuildingBlock: MIFKUJ_clean_sbu_0, # of connection points: 6
#     Node 37, Type 1, BuildingBlock: MIFKUJ_clean_sbu_0, # of connection points: 6
#     Node 38, Type 1, BuildingBlock: MIFKUJ_clean_sbu_0, # of connection points: 6
#     Node 39, Type 1, BuildingBlock: MIFKUJ_clean_sbu_0, # of connection points: 6
#     Edge 40, Type (0, 1), BuildingBlock: OJICUG_clean_linker_0, # of connection points: 2
#     Edge 41, Type (0, 1), BuildingBlock: OJICUG_clean_linker_0, # of connection points: 2
#     Edge 42, Type (0, 1), BuildingBlock: OJICUG_clean_linker_0, # of connection points: 2
#     Edge 43, Type (0, 1), BuildingBlock: OJICUG_clean_linker_0, # of connection points: 2
#     Edge 44, Type (0, 1), BuildingBlock: OJICUG_clean_linker_0, # of connection points: 2
#     Edge 45, Type (0, 1), BuildingBlock: OJICUG_clean_linker_0, # of connection points: 2
#     Edge 46, Type (0, 1), BuildingBlock: OJICUG_clean_linker_0, # of connection points: 2
#     Edge 47, Type (0, 1), BuildingBlock: OJICUG_clean_linker_0, # of connection points: 2
#     Edge 48, Type (0, 1), BuildingBlock: OJICUG_clean_linker_0, # of connection points: 2
#     Edge 49, Type (0, 1), BuildingBlock: OJICUG_clean_linker_0, # of connection points: 2
#     Edge 50, Type (0, 1), BuildingBlock: OJICUG_clean_linker_0, # of connection points: 2
#     Edge 51, Type (0, 1), BuildingBlock: OJICUG_clean_linker_0, # of connection points: 2
#     Edge 52, Type (0, 1), BuildingBlock: OJICUG_clean_linker_0, # of connection points: 2
#     Edge 53, Type (0, 1), BuildingBlock: OJICUG_clean_linker_0, # of connection points: 2
#     Edge 54, Type (0, 1), BuildingBlock: OJICUG_clean_linker_0, # of connection points: 2
#     Edge 55, Type (0, 1), BuildingBlock: OJICUG_clean_linker_0, # of connection points: 2
#     Edge 56, Type (0, 1), BuildingBlock: OJICUG_clean_linker_0, # of connection points: 2
#     Edge 57, Type (0, 1), BuildingBlock: OJICUG_clean_linker_0, # of connection points: 2
#     Edge 58, Type (0, 1), BuildingBlock: OJICUG_clean_linker_0, # of connection points: 2
#     Edge 59, Type (0, 1), BuildingBlock: OJICUG_clean_linker_0, # of connection points: 2
#     Edge 60, Type (0, 1), BuildingBlock: OJICUG_clean_linker_0, # of connection points: 2
#     Edge 61, Type (0, 1), BuildingBlock: OJICUG_clean_linker_0, # of connection points: 2
#     Edge 62, Type (0, 1), BuildingBlock: OJICUG_clean_linker_0, # of connection points: 2
#     Edge 63, Type (0, 1), BuildingBlock: OJICUG_clean_linker_0, # of connection points: 2
#     Edge 64, Type (0, 1), BuildingBlock: OJICUG_clean_linker_0, # of connection points: 2
#     Edge 65, Type (0, 1), BuildingBlock: OJICUG_clean_linker_0, # of connection points: 2
#     Edge 66, Type (0, 1), BuildingBlock: OJICUG_clean_linker_0, # of connection points: 2
#     Edge 67, Type (0, 1), BuildingBlock: OJICUG_clean_linker_0, # of connection points: 2
#     Edge 68, Type (0, 1), BuildingBlock: OJICUG_clean_linker_0, # of connection points: 2
#     Edge 69, Type (0, 1), BuildingBlock: OJICUG_clean_linker_0, # of connection points: 2
#     Edge 70, Type (0, 1), BuildingBlock: OJICUG_clean_linker_0, # of connection points: 2
#     Edge 71, Type (0, 1), BuildingBlock: OJICUG_clean_linker_0, # of connection points: 2
#     Edge 72, Type (0, 1), BuildingBlock: OJICUG_clean_linker_0, # of connection points: 2
#     Edge 73, Type (0, 1), BuildingBlock: OJICUG_clean_linker_0, # of connection points: 2
#     Edge 74, Type (0, 1), BuildingBlock: OJICUG_clean_linker_0, # of connection points: 2
#     Edge 75, Type (0, 1), BuildingBlock: OJICUG_clean_linker_0, # of connection points: 2
#     Edge 76, Type (0, 1), BuildingBlock: OJICUG_clean_linker_0, # of connection points: 2
#     Edge 77, Type (0, 1), BuildingBlock: OJICUG_clean_linker_0, # of connection points: 2
#     Edge 78, Type (0, 1), BuildingBlock: OJICUG_clean_linker_0, # of connection points: 2
#     Edge 79, Type (0, 1), BuildingBlock: OJICUG_clean_linker_0, # of connection points: 2
#     Edge 80, Type (0, 1), BuildingBlock: OJICUG_clean_linker_0, # of connection points: 2
#     Edge 81, Type (0, 1), BuildingBlock: OJICUG_clean_linker_0, # of connection points: 2
#     Edge 82, Type (0, 1), BuildingBlock: OJICUG_clean_linker_0, # of connection points: 2
#     Edge 83, Type (0, 1), BuildingBlock: OJICUG_clean_linker_0, # of connection points: 2
#     Edge 84, Type (0, 1), BuildingBlock: OJICUG_clean_linker_0, # of connection points: 2
#     Edge 85, Type (0, 1), BuildingBlock: OJICUG_clean_linker_0, # of connection points: 2
#     Edge 86, Type (0, 1), BuildingBlock: OJICUG_clean_linker_0, # of connection points: 2
#     Edge 87, Type (0, 1), BuildingBlock: OJICUG_clean_linker_0, # of connection points: 2
#     Edge 88, Type (0, 1), BuildingBlock: OJICUG_clean_linker_0, # of connection points: 2
#     Edge 89, Type (0, 1), BuildingBlock: OJICUG_clean_linker_0, # of connection points: 2
#     Edge 90, Type (0, 1), BuildingBlock: OJICUG_clean_linker_0, # of connection points: 2
#     Edge 91, Type (0, 1), BuildingBlock: OJICUG_clean_linker_0, # of connection points: 2
#     Edge 92, Type (0, 1), BuildingBlock: OJICUG_clean_linker_0, # of connection points: 2
#     Edge 93, Type (0, 1), BuildingBlock: OJICUG_clean_linker_0, # of connection points: 2
#     Edge 94, Type (0, 1), BuildingBlock: OJICUG_clean_linker_0, # of connection points: 2
#     Edge 95, Type (0, 1), BuildingBlock: OJICUG_clean_linker_0, # of connection points: 2
#     Edge 96, Type (0, 1), BuildingBlock: OJICUG_clean_linker_0, # of connection points: 2
#     Edge 97, Type (0, 1), BuildingBlock: OJICUG_clean_linker_0, # of connection points: 2
#     Edge 98, Type (0, 1), BuildingBlock: OJICUG_clean_linker_0, # of connection points: 2
#     Edge 99, Type (0, 1), BuildingBlock: OJICUG_clean_linker_0, # of connection points: 2
#     Edge 100, Type (0, 1), BuildingBlock: OJICUG_clean_linker_0, # of connection points: 2
#     Edge 101, Type (0, 1), BuildingBlock: OJICUG_clean_linker_0, # of connection points: 2
#     Edge 102, Type (0, 1), BuildingBlock: OJICUG_clean_linker_0, # of connection points: 2
#     Edge 103, Type (0, 1), BuildingBlock: OJICUG_clean_linker_0, # of connection points: 2
#     Edge 104, Type (0, 1), BuildingBlock: OJICUG_clean_linker_0, # of connection points: 2
#     Edge 105, Type (0, 1), BuildingBlock: OJICUG_clean_linker_0, # of connection points: 2
#     Edge 106, Type (0, 1), BuildingBlock: OJICUG_clean_linker_0, # of connection points: 2
#     Edge 107, Type (0, 1), BuildingBlock: OJICUG_clean_linker_0, # of connection points: 2
#     Edge 108, Type (0, 1), BuildingBlock: OJICUG_clean_linker_0, # of connection points: 2
#     Edge 109, Type (0, 1), BuildingBlock: OJICUG_clean_linker_0, # of connection points: 2
#     Edge 110, Type (0, 1), BuildingBlock: OJICUG_clean_linker_0, # of connection points: 2
#     Edge 111, Type (0, 1), BuildingBlock: OJICUG_clean_linker_0, # of connection points: 2
#     Edge 112, Type (0, 1), BuildingBlock: OJICUG_clean_linker_0, # of connection points: 2
#     Edge 113, Type (0, 1), BuildingBlock: OJICUG_clean_linker_0, # of connection points: 2
#     Edge 114, Type (0, 1), BuildingBlock: OJICUG_clean_linker_0, # of connection points: 2
#     Edge 115, Type (0, 1), BuildingBlock: OJICUG_clean_linker_0, # of connection points: 2
#     Edge 116, Type (0, 1), BuildingBlock: OJICUG_clean_linker_0, # of connection points: 2
#     Edge 117, Type (0, 1), BuildingBlock: OJICUG_clean_linker_0, # of connection points: 2
#     Edge 118, Type (0, 1), BuildingBlock: OJICUG_clean_linker_0, # of connection points: 2
#     Edge 119, Type (0, 1), BuildingBlock: OJICUG_clean_linker_0, # of connection points: 2
#     Edge 120, Type (0, 1), BuildingBlock: OJICUG_clean_linker_0, # of connection points: 2
#     Edge 121, Type (0, 1), BuildingBlock: OJICUG_clean_linker_0, # of connection points: 2
#     Edge 122, Type (0, 1), BuildingBlock: OJICUG_clean_linker_0, # of connection points: 2
#     Edge 123, Type (0, 1), BuildingBlock: OJICUG_clean_linker_0, # of connection points: 2
#     Edge 124, Type (0, 1), BuildingBlock: OJICUG_clean_linker_0, # of connection points: 2
#     Edge 125, Type (0, 1), BuildingBlock: OJICUG_clean_linker_0, # of connection points: 2
#     Edge 126, Type (0, 1), BuildingBlock: OJICUG_clean_linker_0, # of connection points: 2
#     Edge 127, Type (0, 1), BuildingBlock: OJICUG_clean_linker_0, # of connection points: 2
#     Edge 128, Type (0, 1), BuildingBlock: OJICUG_clean_linker_0, # of connection points: 2
#     Edge 129, Type (0, 1), BuildingBlock: OJICUG_clean_linker_0, # of connection points: 2
#     Edge 130, Type (0, 1), BuildingBlock: OJICUG_clean_linker_0, # of connection points: 2
#     Edge 131, Type (0, 1), BuildingBlock: OJICUG_clean_linker_0, # of connection points: 2
#     Edge 132, Type (0, 1), BuildingBlock: OJICUG_clean_linker_0, # of connection points: 2
#     Edge 133, Type (0, 1), BuildingBlock: OJICUG_clean_linker_0, # of connection points: 2
#     Edge 134, Type (0, 1), BuildingBlock: OJICUG_clean_linker_0, # of connection points: 2
#     Edge 135, Type (0, 1), BuildingBlock: OJICUG_clean_linker_0, # of connection points: 2
# Relax obj value: 0.106
# Max RMSD: 0.308
# Mean RMSD: 0.134
data_MOF--net-gar--node1-CEKHIL_clean_sbu_0--node2-MIFKUJ_clean_sbu_0--edge1-OJICUG_clean_linker_0
_symmetry_space_group_name_H-M    P1
_symmetry_Int_Tables_number       1
_symmetry_cell_setting            triclinic
loop_
_symmetry_equiv_pos_as_xyz
'x, y, z'
_cell_length_a     42.194565
_cell_length_b     41.794606
_cell_length_c     39.280647
_cell_angle_alpha  94.734902
_cell_angle_beta   94.992761
_cell_angle_gamma 99.746509
loop_
_atom_site_label
_atom_site_type_symbol
_atom_site_fract_x
_atom_site_fract_y
_atom_site_fract_z
_atom_type_partial_charge
Co0 Co 0.04108 0.28876 0.41996 0.0
O1 O 0.08558 0.28414 0.42507 0.0
O2 O 0.05244 0.26929 0.37731 0.0
C3 C 0.04883 0.34037 0.44428 0.0
O4 O 0.99426 0.29061 0.40457 0.0
Co5 Co 1.00421 0.30072 0.48345 0.0
O6 O 0.9702 0.30934 0.44901 0.0
C7 C 0.01717 0.23486 0.46405 0.0
C8 C 0.08131 0.27207 0.39313 0.0
C9 C 0.97006 0.30051 0.41714 0.0
O10 O 0.02816 0.24471 0.43647 0.0
O11 O 0.00849 0.25391 0.48733 0.0
O12 O 0.05332 0.33432 0.41224 0.0
O13 O 0.0426 0.31521 0.46121 0.0
Co14 Co 0.01655 0.75641 0.62791 0.0
O15 O 0.97179 0.76003 0.62308 0.0
O16 O 0.99595 0.74104 0.66742 0.0
C17 C 0.03463 0.80684 0.61385 0.0
O18 O 0.06289 0.75067 0.64166 0.0
Co19 Co 0.05424 0.76082 0.56317 0.0
O20 O 0.09184 0.76002 0.59677 0.0
C21 C 0.00844 0.70117 0.57083 0.0
C22 C 0.96984 0.74894 0.65279 0.0
C23 C 0.0897 0.75374 0.62781 0.0
O24 O 1.00618 0.71148 0.60219 0.0
O25 O 0.02342 0.71878 0.55006 0.0
O26 O 0.02824 0.8023 0.64502 0.0
O27 O 0.02718 0.78144 0.59184 0.0
Co28 Co 0.54125 0.78905 0.91972 0.0
O29 O 0.58572 0.78425 0.92475 0.0
O30 O 0.55242 0.76922 0.87716 0.0
C31 C 0.54931 0.84083 0.94368 0.0
O32 O 0.49445 0.79101 0.90435 0.0
Co33 Co 0.50451 0.80198 0.98313 0.0
O34 O 0.47046 0.81028 0.94856 0.0
C35 C 0.51709 0.73579 0.96442 0.0
C36 C 0.58133 0.77204 0.89286 0.0
C37 C 0.47028 0.8011 0.91678 0.0
O38 O 0.52817 0.7452 0.9367 0.0
O39 O 0.50852 0.75518 0.98745 0.0
O40 O 0.55366 0.83455 0.91164 0.0
O41 O 0.54296 0.81581 0.96077 0.0
Co42 Co 0.51527 0.25641 0.12743 0.0
O43 O 0.47041 0.25962 0.12266 0.0
O44 O 0.49487 0.24075 0.16691 0.0
C45 C 0.53298 0.30699 0.11353 0.0
O46 O 0.5617 0.25104 0.14117 0.0
Co47 Co 0.55294 0.26121 0.06277 0.0
O48 O 0.59063 0.2606 0.09631 0.0
C49 C 0.50776 0.20112 0.07045 0.0
C50 C 0.46862 0.2484 0.15232 0.0
C51 C 0.58852 0.25428 0.12734 0.0
O52 O 0.50526 0.21149 0.10172 0.0
O53 O 0.52269 0.21879 0.04969 0.0
O54 O 0.52661 0.30226 0.14466 0.0
O55 O 0.52569 0.28164 0.0914 0.0
Co56 Co 0.03249 0.78142 0.17722 0.0
O57 O 0.98673 0.77032 0.16614 0.0
O58 O 0.01227 0.76509 0.2165 0.0
C59 C 0.03701 0.82988 0.15524 0.0
O60 O 0.07952 0.79124 0.19801 0.0
Co61 Co 0.07746 0.79069 0.11938 0.0
O62 O 0.11137 0.80793 0.15764 0.0
C63 C 0.04764 0.72434 0.13238 0.0
C64 C 0.98507 0.76214 0.19713 0.0
C65 C 0.10734 0.80279 0.18862 0.0
O66 O 0.03711 0.7362 0.15955 0.0
O67 O 0.06222 0.74213 0.11145 0.0
O68 O 0.02938 0.8272 0.18634 0.0
O69 O 0.0397 0.80305 0.13781 0.0
Co70 Co 0.51592 0.76809 0.38634 0.0
O71 O 0.56223 0.77882 0.38819 0.0
O72 O 0.53043 0.75103 0.34404 0.0
C73 C 0.50945 0.81832 0.4061 0.0
O74 O 0.46706 0.75461 0.37421 0.0
Co75 Co 0.48153 0.77376 0.45296 0.0
O76 O 0.44216 0.7685 0.42018 0.0
C77 C 0.51748 0.72022 0.44023 0.0
C78 C 0.55943 0.76479 0.35711 0.0
C79 C 0.44138 0.75836 0.38855 0.0
O80 O 0.51922 0.7267 0.40879 0.0
O81 O 0.50638 0.73822 0.46258 0.0
O82 O 0.51266 0.81176 0.3738 0.0
O83 O 0.51266 0.79535 0.42537 0.0
Co84 Co 0.53306 0.27588 0.67756 0.0
O85 O 0.4874 0.26355 0.66583 0.0
O86 O 0.51263 0.25936 0.71663 0.0
C87 C 0.53646 0.32419 0.65522 0.0
O88 O 0.57982 0.28715 0.69933 0.0
Co89 Co 0.57908 0.28637 0.62103 0.0
O90 O 0.6121 0.3049 0.65975 0.0
C91 C 0.55061 0.21944 0.63357 0.0
C92 C 0.48553 0.25582 0.69697 0.0
C93 C 0.60764 0.2997 0.69063 0.0
O94 O 0.53918 0.23092 0.66037 0.0
O95 O 0.5652 0.23762 0.61296 0.0
O96 O 0.52853 0.32129 0.68618 0.0
O97 O 0.54024 0.29759 0.63806 0.0
Co98 Co 0.01715 0.26612 0.88891 0.0
O99 O 0.06348 0.27553 0.89038 0.0
O100 O 0.03093 0.24872 0.84628 0.0
C101 C 0.01252 0.31683 0.90902 0.0
O102 O 0.96804 0.25419 0.8772 0.0
Co103 Co 0.9836 0.27286 0.95591 0.0
O104 O 0.94425 0.2695 0.92347 0.0
C105 C 0.01756 0.21786 0.94263 0.0
C106 C 0.06019 0.26178 0.85917 0.0
C107 C 0.94284 0.25923 0.8918 0.0
O108 O 0.01935 0.22437 0.91118 0.0
O109 O 0.00711 0.23624 0.96515 0.0
O110 O 0.01519 0.31009 0.87661 0.0
O111 O 0.01505 0.29362 0.92816 0.0
Co112 Co 0.42658 0.03235 0.30806 0.0
O113 O 0.42915 0.0761 0.29574 0.0
O114 O 0.38428 0.03902 0.29022 0.0
C115 C 0.45621 0.04552 0.3592 0.0
O116 O 0.41382 0.98536 0.31847 0.0
Co117 Co 0.48731 1.00008 0.32028 0.0
O118 O 0.45701 0.96363 0.33541 0.0
C119 C 0.46042 0.00673 0.24957 0.0
C120 C 0.39823 0.0686 0.28671 0.0
C121 C 0.42655 0.96182 0.32952 0.0
O122 O 0.4361 0.01726 0.26102 0.0
O123 O 0.48429 1.00082 0.26904 0.0
O124 O 0.42566 0.04746 0.35606 0.0
O125 O 0.46827 0.0382 0.33113 0.0
Co126 Co 0.27907 0.13774 0.49647 0.0
O127 O 0.3259 0.14634 0.5043 0.0
O128 O 0.29565 0.09875 0.50855 0.0
C129 C 0.27709 0.1638 0.44723 0.0
O130 O 0.2304 0.118 0.49014 0.0
Co131 Co 0.23816 0.19255 0.49453 0.0
O132 O 0.20033 0.15694 0.48359 0.0
C133 C 0.2668 0.17699 0.56137 0.0
C134 C 0.32449 0.11613 0.51054 0.0
C135 C 0.2027 0.12715 0.48555 0.0
O136 O 0.27591 0.15182 0.54655 0.0
O137 O 0.25391 0.19741 0.5447 0.0
O138 O 0.28163 0.13372 0.44636 0.0
O139 O 0.27511 0.17729 0.47748 0.0
Co140 Co 0.14764 0.013 0.80765 0.0
O141 O 0.13905 0.96583 0.79884 0.0
O142 O 0.18654 0.99666 0.79667 0.0
C143 C 0.12051 0.01376 0.85572 0.0
O144 O 0.16767 0.06177 0.8154 0.0
Co145 Co 0.09444 0.05546 0.80938 0.0
O146 O 0.13005 0.0931 0.82207 0.0
C147 C 0.11067 0.0277 0.74255 0.0
C148 C 0.16931 0.96752 0.79385 0.0
C149 C 0.15942 0.08998 0.82056 0.0
O150 O 0.13502 0.01756 0.75759 0.0
O151 O 0.09045 0.04079 0.759 0.0
O152 O 0.15033 0.00915 0.85744 0.0
O153 O 0.10792 0.01683 0.82535 0.0
Co154 Co 0.25528 0.86943 -0.00071 0.0
O155 O 0.21129 0.86653 0.01029 0.0
O156 O 0.24755 0.91197 0.01691 0.0
C157 C 0.24333 0.83945 0.94764 0.0
O158 O 0.30236 0.88297 0.99034 0.0
Co159 Co 0.28796 0.80844 0.98683 0.0
O160 O 0.32398 0.83974 0.9726 0.0
C161 C 0.28051 0.83442 0.05776 0.0
C162 C 0.2181 0.89773 0.01942 0.0
C163 C 0.32586 0.87039 0.97935 0.0
O164 O 0.26953 0.85907 0.0468 0.0
O165 O 0.28679 0.81096 0.03784 0.0
O166 O 0.24126 0.87026 0.95053 0.0
O167 O 0.25021 0.82753 0.97597 0.0
Co168 Co 0.28091 0.38838 0.04697 0.0
O169 O 0.23414 0.37998 0.04274 0.0
O170 O 0.26418 0.42497 0.069 0.0
C171 C 0.28408 0.37328 0.99083 0.0
O172 O 0.33006 0.40722 0.05414 0.0
Co173 Co 0.31984 0.33335 0.0305 0.0
O174 O 0.35642 0.36981 0.03072 0.0
C175 C 0.28544 0.33383 0.09299 0.0
C176 C 0.23541 0.40889 0.0581 0.0
C177 C 0.35608 0.39861 0.04396 0.0
O178 O 0.28167 0.36374 0.09013 0.0
O179 O 0.29738 0.3172 0.07013 0.0
O180 O 0.27985 0.40257 0.00063 0.0
O181 O 0.28448 0.35391 0.01464 0.0
Co182 Co 0.7885 0.14303 0.04054 0.0
O183 O 0.83213 0.14261 0.02967 0.0
O184 O 0.80383 0.105 0.05663 0.0
C185 C 0.76948 0.15401 0.98838 0.0
O186 O 0.74211 0.13446 0.05378 0.0
Co187 Co 0.75982 0.2071 0.03644 0.0
O188 O 0.71914 0.17819 0.04376 0.0
C189 C 0.80779 0.20207 0.0933 0.0
C190 C 0.83014 0.11487 0.04257 0.0
C191 C 0.71755 0.1492 0.0523 0.0
O192 O 0.8043 0.17088 0.08569 0.0
O193 O 0.79625 0.22098 0.07344 0.0
O194 O 0.77217 0.12426 0.99364 0.0
O195 O 0.78124 0.17587 0.0133 0.0
Co196 Co 0.14658 0.50113 0.26845 0.0
O197 O 0.1459 0.4575 0.28071 0.0
O198 O 0.18301 0.48416 0.25175 0.0
C199 C 0.13711 0.5221 0.32021 0.0
O200 O 0.15606 0.54713 0.25363 0.0
Co201 Co 0.08426 0.53201 0.27203 0.0
O202 O 0.11355 0.57189 0.26244 0.0
C203 C 0.08734 0.48188 0.21665 0.0
C204 C 0.17269 0.45827 0.2667 0.0
C205 C 0.14211 0.57228 0.25389 0.0
O206 O 0.1182 0.48492 0.22399 0.0
O207 O 0.06913 0.49432 0.23641 0.0
O208 O 0.16627 0.51831 0.31482 0.0
O209 O 0.11492 0.51024 0.29575 0.0
Co210 Co 0.78192 0.89269 0.54598 0.0
O211 O 0.73512 0.88769 0.5408 0.0
O212 O 0.76757 0.93036 0.56867 0.0
C213 C 0.78494 0.8777 0.48981 0.0
O214 O 0.83152 0.90888 0.55377 0.0
Co215 Co 0.81804 0.83558 0.52889 0.0
O216 O 0.85573 0.87071 0.52835 0.0
C217 C 0.78394 0.8372 0.59166 0.0
C218 C 0.73827 0.91676 0.5565 0.0
C219 C 0.85676 0.89949 0.54246 0.0
O220 O 0.78066 0.86727 0.58877 0.0
O221 O 0.79561 0.82027 0.56883 0.0
O222 O 0.78244 0.90748 0.4999 0.0
O223 O 0.78396 0.85799 0.51335 0.0
Co224 Co 0.90175 0.00994 0.25761 0.0
O225 O 0.91121 0.05711 0.26315 0.0
O226 O 0.86522 0.02827 0.2383 0.0
C227 C 0.91867 0.00451 0.31279 0.0
O228 O 0.88176 0.96069 0.24975 0.0
Co229 Co 0.9555 0.96891 0.26856 0.0
O230 O 0.91886 0.93322 0.27161 0.0
C231 C 0.95081 1.0022 0.20548 0.0
C232 C 0.88211 0.05683 0.24939 0.0
C233 C 0.88999 0.93421 0.25976 0.0
O234 O 0.92346 0.00984 0.21276 0.0
O235 O 0.96792 0.98754 0.22532 0.0
O236 O 0.88973 0.00985 0.30443 0.0
O237 O 0.93707 0.00466 0.28818 0.0
Co238 Co 0.28715 0.64584 0.53669 0.0
O239 O 0.33048 0.64687 0.52457 0.0
O240 O 0.3045 0.60904 0.55328 0.0
C241 C 0.26636 0.65525 0.48472 0.0
O242 O 0.24124 0.63613 0.55108 0.0
Co243 Co 0.25668 0.70885 0.53245 0.0
O244 O 0.21688 0.67884 0.54029 0.0
C245 C 0.3056 0.70551 0.58901 0.0
C246 C 0.33004 0.6197 0.53831 0.0
C247 C 0.21617 0.65012 0.54938 0.0
O248 O 0.30318 0.67447 0.58123 0.0
O249 O 0.29278 0.72396 0.56958 0.0
O250 O 0.27024 0.6259 0.49038 0.0
O251 O 0.27808 0.67774 0.50907 0.0
Co252 Co 0.4016 0.50912 0.76095 0.0
O253 O 0.41112 0.55633 0.76598 0.0
O254 O 0.36567 0.52744 0.74001 0.0
C255 C 0.41691 0.5044 0.81673 0.0
O256 O 0.38176 0.45986 0.75324 0.0
Co257 Co 0.4554 0.46844 0.77545 0.0
O258 O 0.41859 0.43221 0.77558 0.0
C259 C 0.45424 0.50352 0.71324 0.0
C260 C 0.38235 0.55604 0.75132 0.0
C261 C 0.38994 0.43324 0.76297 0.0
O262 O 0.42509 0.50828 0.71724 0.0
O263 O 0.47103 0.49086 0.73544 0.0
O264 O 0.38813 0.50968 0.80738 0.0
O265 O 0.43587 0.50417 0.79274 0.0
Co266 Co 0.64684 0.00507 0.77452 0.0
O267 O 0.64608 0.96166 0.78758 0.0
O268 O 0.68126 0.9866 0.75532 0.0
C269 C 0.6412 0.02795 0.82667 0.0
O270 O 0.65638 0.05038 0.75815 0.0
Co271 Co 0.58638 0.03843 0.78178 0.0
O272 O 0.61569 0.07706 0.7694 0.0
C273 C 0.5847 0.98676 0.72653 0.0
C274 C 0.67153 0.96128 0.77138 0.0
C275 C 0.64333 0.07611 0.75889 0.0
O276 O 0.61559 0.98844 0.7322 0.0
O277 O 0.56826 1.00086 0.74703 0.0
O278 O 0.66957 0.02291 0.81953 0.0
O279 O 0.61752 0.01606 0.80382 0.0
Co280 Co 0.77551 0.64029 0.99509 0.0
O281 O 0.82234 0.64871 0.00177 0.0
O282 O 0.79215 0.60121 0.00664 0.0
C283 C 0.77291 0.66626 0.94585 0.0
O284 O 0.72684 0.62066 0.98982 0.0
Co285 Co 0.7347 0.69501 0.99409 0.0
O286 O 0.69662 0.65957 0.98419 0.0
C287 C 0.7645 0.67966 0.06047 0.0
C288 C 0.82098 0.61845 0.0078 0.0
C289 C 0.69909 0.62978 0.986 0.0
O290 O 0.7734 0.65449 0.04538 0.0
O291 O 0.75125 0.70001 0.04406 0.0
O292 O 0.77712 0.63608 0.9449 0.0
O293 O 0.77139 0.67989 0.97618 0.0
Co294 Co 0.92799 0.53645 0.8107 0.0
O295 O 0.93007 0.58053 0.79946 0.0
O296 O 0.88565 0.54282 0.79256 0.0
C297 C 0.95699 0.54877 0.86236 0.0
O298 O 0.91573 0.48904 0.8198 0.0
Co299 Co 0.98929 0.50503 0.8227 0.0
O300 O 0.9592 0.46752 0.83626 0.0
C301 C 0.96297 0.51266 0.7521 0.0
C302 C 0.89927 0.57267 0.78978 0.0
C303 C 0.92872 0.4654 0.83019 0.0
O304 O 0.93836 0.52269 0.76349 0.0
O305 O 0.98676 0.50669 0.77162 0.0
O306 O 0.92634 0.55026 0.85903 0.0
O307 O 0.96946 0.54247 0.83429 0.0
Co308 Co 0.7557 0.36757 0.50057 0.0
O309 O 0.71164 0.36382 0.51119 0.0
O310 O 0.74738 0.40972 0.51845 0.0
C311 C 0.74435 0.33803 0.44875 0.0
O312 O 0.80278 0.38175 0.49207 0.0
Co313 Co 0.78905 0.30712 0.4885 0.0
O314 O 0.82499 0.33882 0.47471 0.0
C315 C 0.78055 0.33251 0.5592 0.0
C316 C 0.71804 0.39495 0.52068 0.0
C317 C 0.82654 0.36944 0.48137 0.0
O318 O 0.76971 0.35712 0.54803 0.0
O319 O 0.78717 0.30911 0.53946 0.0
O320 O 0.74196 0.36875 0.45186 0.0
O321 O 0.75119 0.32589 0.47699 0.0
Co322 Co 0.6482 0.51428 0.31005 0.0
O323 O 0.63952 0.4671 0.30147 0.0
O324 O 0.68694 0.49779 0.29865 0.0
C325 C 0.62154 0.5152 0.35852 0.0
O326 O 0.66827 0.56311 0.31735 0.0
Co327 Co 0.595 0.55668 0.31216 0.0
O328 O 0.63063 0.59442 0.32406 0.0
C329 C 0.61062 0.52869 0.24516 0.0
C330 C 0.66967 0.46868 0.29609 0.0
C331 C 0.65998 0.59134 0.32228 0.0
O332 O 0.63509 0.51861 0.26002 0.0
O333 O 0.59056 0.54186 0.26179 0.0
O334 O 0.65137 0.51064 0.35991 0.0
O335 O 0.60867 0.51817 0.32823 0.0
Zn336 Zn 0.06365 0.99849 0.05187 0.0
Zn337 Zn 0.99638 0.03363 0.00979 0.0
C338 C 0.04965 0.95232 0.09613 0.0
O339 O 0.06649 0.97777 0.1154 0.0
C340 C 0.01727 0.08858 0.97969 0.0
O341 O 1.00179 0.06706 0.95499 0.0
O342 O 0.11108 0.99224 0.0594 0.0
O343 O 0.05756 0.00265 0.0009 0.0
O344 O 0.01391 0.0101 0.96955 0.0
C345 C 0.11267 0.96597 0.04092 0.0
O346 O 0.0868 0.9512 0.02104 0.0
O347 O 0.0419 0.95493 0.06455 0.0
C348 C 0.92947 0.03604 0.02425 0.0
O349 O 0.9359 0.01791 0.04881 0.0
O350 O 0.94969 0.04186 0.00215 0.0
O351 O 0.99856 0.01326 0.05512 0.0
O352 O 0.04589 0.03085 0.08439 0.0
O353 O 0.02018 0.08012 0.01017 0.0
C354 C 0.04309 0.00543 0.97184 0.0
C355 C 0.01507 0.0257 0.0831 0.0
Zn356 Zn 0.2484 0.74785 0.31125 0.0
Zn357 Zn 0.2953 0.79126 0.26141 0.0
C358 C 0.20783 0.70317 0.26278 0.0
O359 O 0.18847 0.72272 0.27295 0.0
C360 C 0.34794 0.83594 0.29754 0.0
O361 O 0.36331 0.81344 0.28523 0.0
O362 O 0.23194 0.72685 0.35164 0.0
O363 O 0.29552 0.7607 0.32756 0.0
O364 O 0.31463 0.75322 0.27808 0.0
C365 C 0.23769 0.69821 0.35439 0.0
O366 O 0.25118 0.68395 0.32985 0.0
O367 O 0.23789 0.71115 0.2726 0.0
C368 C 0.29909 0.82391 0.20333 0.0
O369 O 0.28812 0.84426 0.22472 0.0
O370 O 0.30698 0.79818 0.21411 0.0
O371 O 0.2474 0.79216 0.25462 0.0
O372 O 0.22327 0.78306 0.30131 0.0
O373 O 0.31738 0.83178 0.29132 0.0
C374 C 0.31774 0.75305 0.3105 0.0
C375 C 0.22334 0.7931 0.27174 0.0
Zn376 Zn 0.49279 0.02607 0.55112 0.0
Zn377 Zn 0.56233 0.99382 0.52527 0.0
C378 C 0.51888 0.08044 0.59724 0.0
O379 O 0.49958 0.06288 0.61587 0.0
C380 C 0.53311 0.94739 0.47197 0.0
O381 O 0.54946 0.96958 0.45532 0.0
O382 O 0.44617 0.03731 0.5479 0.0
O383 O 0.50146 0.00978 0.50467 0.0
O384 O 0.5512 0.02835 0.49465 0.0
C385 C 0.44402 0.06538 0.53798 0.0
O386 O 0.47055 0.08393 0.53098 0.0
O387 O 0.52241 0.06851 0.56728 0.0
C388 C 0.63109 0.98894 0.54913 0.0
O389 O 0.62831 0.00993 0.57501 0.0
O390 O 0.60807 0.98164 0.52487 0.0
O391 O 0.55476 0.0027 0.57478 0.0
O392 O 0.50302 0.99365 0.58397 0.0
O393 O 0.53374 0.95245 0.50442 0.0
C394 C 0.5209 0.02764 0.48832 0.0
C395 C 0.53207 0.98946 0.59117 0.0
Zn396 Zn 0.30348 0.24139 0.77311 0.0
Zn397 Zn 0.24351 0.27722 0.79179 0.0
C398 C 0.28466 0.20222 0.7099 0.0
O399 O 0.29794 0.18216 0.72828 0.0
C400 C 0.26678 0.32201 0.84861 0.0
O401 O 0.25734 0.34048 0.82562 0.0
O402 O 0.34849 0.23117 0.76895 0.0
O403 O 0.3132 0.2905 0.78568 0.0
O404 O 0.27035 0.30622 0.76106 0.0
C405 C 0.36007 0.24485 0.74383 0.0
O406 O 0.34288 0.26276 0.72661 0.0
O407 O 0.28157 0.2298 0.72441 0.0
C408 C 0.17296 0.2681 0.78411 0.0
O409 O 0.17482 0.24321 0.76213 0.0
O410 O 0.19871 0.28797 0.79576 0.0
O411 O 0.23405 0.22765 0.78355 0.0
O412 O 0.27853 0.21184 0.80402 0.0
O413 O 0.26458 0.2916 0.83998 0.0
C414 C 0.30071 0.31154 0.76997 0.0
C415 C 0.24785 0.20716 0.7987 0.0
Zn416 Zn 0.04916 0.98649 0.53248 0.0
Zn417 Zn 0.01364 0.04153 0.5121 0.0
C418 C 0.08758 0.01141 0.59406 0.0
O419 O 0.1082 0.99892 0.5761 0.0
C420 C 0.96915 0.01643 0.45503 0.0
O421 O 0.95052 0.02553 0.47776 0.0
O422 O 0.06129 0.9433 0.54174 0.0
O423 O 1.00061 0.97294 0.51942 0.0
O424 O 0.98575 0.01597 0.54439 0.0
C425 C 0.04846 0.93353 0.56806 0.0
O426 O 0.03001 0.95126 0.58348 0.0
O427 O 0.05956 0.01218 0.57949 0.0
C428 C 0.0137 0.09911 0.48417 0.0
O429 O 0.02967 0.0824 0.46407 0.0
O430 O 1.00171 0.08589 0.50933 0.0
O431 O 0.06293 0.05425 0.5201 0.0
O432 O 0.07878 0.00946 0.50049 0.0
O433 O 0.99927 0.0191 0.46408 0.0
C434 C 0.97986 0.98549 0.53514 0.0
C435 C 0.08384 0.04038 0.50613 0.0
Zn436 Zn 0.26155 0.80043 0.75612 0.0
Zn437 Zn 0.29954 0.72966 0.78592 0.0
C438 C 0.21411 0.76847 0.70384 0.0
O439 O 0.23724 0.78096 0.68598 0.0
C440 C 0.34703 0.76422 0.83799 0.0
O441 O 0.32404 0.7534 0.85678 0.0
O442 O 0.25064 0.84722 0.76067 0.0
O443 O 0.27857 0.78919 0.80205 0.0
O444 O 0.26657 0.74039 0.81874 0.0
C445 C 0.22251 0.84855 0.76993 0.0
O446 O 0.20442 0.82131 0.77622 0.0
O447 O 0.21929 0.77135 0.73642 0.0
C448 C 0.33462 0.67883 0.76764 0.0
O449 O 0.35359 0.70536 0.76087 0.0
O450 O 0.30788 0.68184 0.77957 0.0
O451 O 0.28428 0.74215 0.73967 0.0
O452 O 0.29548 0.79163 0.72459 0.0
O453 O 0.34242 0.75766 0.80552 0.0
C454 C 0.26283 0.7702 0.82069 0.0
C455 C 0.3005 0.76226 0.7224 0.0
Zn456 Zn 0.54399 0.03846 0.99387 0.0
Zn457 Zn 0.50013 0.99847 0.0452 0.0
C458 C 0.58649 0.08395 0.04009 0.0
O459 O 0.56811 0.10224 0.02515 0.0
C460 C 0.4531 0.94698 0.0085 0.0
O461 O 0.47526 0.93021 0.01853 0.0
O462 O 0.56671 0.05608 0.95524 0.0
O463 O 0.536 0.99082 0.97987 0.0
O464 O 0.53675 0.97589 0.03205 0.0
C465 C 0.59565 0.05125 0.95477 0.0
O466 O 0.60825 0.03668 0.97963 0.0
O467 O 0.57816 0.0531 0.03456 0.0
C468 C 0.46802 0.99556 0.10381 0.0
O469 O 0.44816 0.00846 0.08366 0.0
O470 O 0.49287 0.98729 0.09216 0.0
O471 O 0.50406 0.0476 0.05101 0.0
O472 O 0.50477 0.05875 0.99755 0.0
O473 O 0.4586 0.97778 0.01572 0.0
C474 C 0.54044 0.97002 0.00059 0.0
C475 C 0.49858 0.06603 0.02789 0.0
Zn476 Zn 0.29806 0.22123 0.25083 0.0
Zn477 Zn 0.24767 0.28651 0.2916 0.0
C478 C 0.34699 0.23577 0.21063 0.0
O479 O 0.32274 0.2184 0.19025 0.0
C480 C 0.19775 0.27406 0.32967 0.0
O481 O 0.22229 0.29083 0.35013 0.0
O482 O 0.30406 0.17406 0.24418 0.0
O483 O 0.28909 0.22688 0.30052 0.0
O484 O 0.27265 0.26724 0.3299 0.0
C485 C 0.3288 0.17242 0.26463 0.0
O486 O 0.34198 0.19811 0.28584 0.0
O487 O 0.34275 0.24364 0.24172 0.0
C488 C 0.23055 0.34436 0.27399 0.0
O489 O 0.21761 0.32291 0.24811 0.0
O490 O 0.24679 0.33512 0.29915 0.0
O491 O 0.25745 0.28011 0.24193 0.0
O492 O 0.26849 0.23591 0.2139 0.0
O493 O 0.20142 0.26762 0.29814 0.0
C494 C 0.2819 0.23973 0.32861 0.0
C495 C 0.26333 0.26511 0.21436 0.0
Zn496 Zn 0.54737 0.4881 0.0351 0.0
Zn497 Zn 0.51143 0.54319 0.01566 0.0
C498 C 0.58633 0.51218 0.09673 0.0
O499 O 0.60673 0.49961 0.07852 0.0
C500 C 0.46677 0.51792 0.95908 0.0
O501 O 0.4484 0.52769 0.98175 0.0
O502 O 0.55947 0.44463 0.0433 0.0
O503 O 0.49877 0.47482 0.02263 0.0
O504 O 0.48352 0.51757 0.04787 0.0
C505 C 0.54684 0.43448 0.06956 0.0
O506 O 0.52869 0.45211 0.08561 0.0
O507 O 0.5583 0.51324 0.08237 0.0
C508 C 0.51193 0.6003 0.98683 0.0
O509 O 0.52781 0.58308 0.96714 0.0
O510 O 0.4997 0.5876 0.01216 0.0
O511 O 0.56073 0.5559 0.02381 0.0
O512 O 0.5764 0.5115 0.00287 0.0
O513 O 0.49689 0.52033 0.96797 0.0
C514 C 0.47792 0.48711 0.03845 0.0
C515 C 0.58141 0.54237 0.009 0.0
Zn516 Zn 0.7603 0.30073 0.25624 0.0
Zn517 Zn 0.79901 0.22943 0.28657 0.0
C518 C 0.71282 0.2689 0.20363 0.0
O519 O 0.73621 0.28068 0.18574 0.0
C520 C 0.84657 0.26457 0.33868 0.0
O521 O 0.82347 0.25445 0.35764 0.0
O522 O 0.74999 0.34775 0.2617 0.0
O523 O 0.77719 0.28813 0.30197 0.0
O524 O 0.76632 0.23957 0.3196 0.0
C525 C 0.72195 0.34924 0.27112 0.0
O526 O 0.70363 0.32201 0.27708 0.0
O527 O 0.7178 0.27226 0.23624 0.0
C528 C 0.83421 0.17921 0.26744 0.0
O529 O 0.85336 0.20601 0.26167 0.0
O530 O 0.80718 0.18181 0.27887 0.0
O531 O 0.78243 0.24374 0.24196 0.0
O532 O 0.79407 0.29185 0.22417 0.0
O533 O 0.84195 0.25739 0.30629 0.0
C534 C 0.7618 0.26914 0.32094 0.0
C535 C 0.79911 0.26255 0.22388 0.0
Zn536 Zn 0.04171 0.53717 0.49163 0.0
Zn537 Zn 1.00056 0.49899 0.54641 0.0
C538 C 0.08587 0.58336 0.53588 0.0
O539 O 0.06736 0.60161 0.52106 0.0
C540 C 0.95315 0.44712 0.51141 0.0
O541 O 0.97533 0.4306 0.52197 0.0
O542 O 0.0623 0.5525 0.45065 0.0
O543 O 0.03277 0.48924 0.47979 0.0
O544 O 0.0367 0.47594 0.5326 0.0
C545 C 0.0911 0.54757 0.44908 0.0
O546 O 0.10517 0.53485 0.4745 0.0
O547 O 0.07751 0.55251 0.53063 0.0
C548 C 0.97004 0.49916 0.60605 0.0
O549 O 0.95045 0.51221 0.58573 0.0
O550 O 0.99411 0.48934 0.59413 0.0
O551 O 1.0049 0.54811 0.55091 0.0
O552 O 1.00325 0.55837 0.49702 0.0
O553 O 0.95861 0.478 0.51788 0.0
C554 C 0.03896 0.46932 0.5009 0.0
C555 C 0.99838 0.56612 0.52774 0.0
Zn556 Zn 0.80284 0.74347 0.27271 0.0
Zn557 Zn 0.74323 0.77979 0.29172 0.0
C558 C 0.78434 0.70478 0.20906 0.0
O559 O 0.79801 0.68476 0.22714 0.0
C560 C 0.767 0.82581 0.34784 0.0
O561 O 0.75767 0.84413 0.32462 0.0
O562 O 0.84798 0.73383 0.26854 0.0
O563 O 0.81236 0.79249 0.28597 0.0
O564 O 0.76997 0.80782 0.26009 0.0
C565 C 0.85941 0.7481 0.2437 0.0
O566 O 0.84189 0.76589 0.22674 0.0
O567 O 0.78096 0.73213 0.22388 0.0
C568 C 0.67295 0.77099 0.28343 0.0
O569 O 0.67505 0.74593 0.2618 0.0
O570 O 0.6986 0.79097 0.29515 0.0
O571 O 0.73328 0.73006 0.28558 0.0
O572 O 0.77819 0.71332 0.30327 0.0
O573 O 0.76445 0.79529 0.33959 0.0
C574 C 0.80024 0.81325 0.26946 0.0
C575 C 0.74746 0.70894 0.2991 0.0
Zn576 Zn 0.74946 0.24998 0.81614 0.0
Zn577 Zn 0.7959 0.29396 0.76508 0.0
C578 C 0.70987 0.20569 0.76621 0.0
O579 O 0.69023 0.22516 0.77576 0.0
C580 C 0.85 0.33904 0.79866 0.0
O581 O 0.86492 0.31591 0.78699 0.0
O582 O 0.73411 0.22817 0.85669 0.0
O583 O 0.79661 0.26442 0.83212 0.0
O584 O 0.81539 0.25632 0.78257 0.0
C585 C 0.74036 0.19964 0.859 0.0
O586 O 0.75355 0.18578 0.83395 0.0
O587 O 0.7397 0.21349 0.77718 0.0
C588 C 0.79806 0.32411 0.70528 0.0
O589 O 0.78792 0.34543 0.72628 0.0
O590 O 0.80582 0.29865 0.71684 0.0
O591 O 0.74808 0.29577 0.76063 0.0
O592 O 0.72288 0.28416 0.80611 0.0
O593 O 0.81941 0.3351 0.79298 0.0
C594 C 0.81879 0.2567 0.81502 0.0
C595 C 0.72337 0.29525 0.77703 0.0
Zn596 Zn 0.79862 0.72433 0.75036 0.0
Zn597 Zn 0.74731 0.78905 0.79075 0.0
C598 C 0.8481 0.73822 0.71084 0.0
O599 O 0.8238 0.72104 0.69036 0.0
C600 C 0.69756 0.77542 0.82894 0.0
O601 O 0.72188 0.79258 0.84941 0.0
O602 O 0.80467 0.67705 0.74407 0.0
O603 O 0.78879 0.72979 0.79983 0.0
O604 O 0.77285 0.77053 0.82904 0.0
C605 C 0.82893 0.67551 0.76527 0.0
O606 O 0.84154 0.70125 0.78666 0.0
O607 O 0.84372 0.74632 0.74184 0.0
C608 C 0.7293 0.84679 0.77386 0.0
O609 O 0.71704 0.82575 0.7474 0.0
O610 O 0.74558 0.83735 0.79883 0.0
O611 O 0.75722 0.78311 0.74102 0.0
O612 O 0.76983 0.73966 0.71295 0.0
O613 O 0.70129 0.76923 0.79738 0.0
C614 C 0.78139 0.7427 0.82778 0.0
C615 C 0.7636 0.7685 0.71345 0.0
Zn616 Zn 0.56319 0.49402 0.5541 0.0
Zn617 Zn 0.49862 0.53842 0.51201 0.0
C618 C 0.54749 0.44692 0.59675 0.0
O619 O 0.56503 0.47171 0.61637 0.0
C620 C 0.52011 0.59189 0.47862 0.0
O621 O 0.50662 0.56929 0.45398 0.0
O622 O 0.61012 0.48717 0.56182 0.0
O623 O 0.55859 0.50074 0.50374 0.0
O624 O 0.51621 0.51241 0.47344 0.0
C625 C 0.6117 0.46126 0.54283 0.0
O626 O 0.58595 0.4469 0.52253 0.0
O627 O 0.54013 0.4502 0.56524 0.0
C628 C 0.44242 0.55997 0.52854 0.0
O629 O 0.46315 0.57002 0.55573 0.0
O630 O 0.45149 0.54438 0.50279 0.0
O631 O 0.49913 0.5245 0.56061 0.0
O632 O 0.54756 0.52605 0.58813 0.0
O633 O 0.52148 0.5846 0.50955 0.0
C634 C 0.54465 0.5057 0.47519 0.0
C635 C 0.51705 0.52424 0.5883 0.0
Zn636 Zn 0.98976 0.53006 0.05054 0.0
Zn637 Zn 0.065 0.49533 0.0271 0.0
C638 C 0.01274 0.58564 0.09614 0.0
O639 O 0.99272 0.56836 0.11431 0.0
C640 C 0.03949 0.44646 0.97436 0.0
O641 O 0.05613 0.46831 0.95757 0.0
O642 O 0.94272 0.53944 0.04259 0.0
O643 O 1.00617 0.51112 0.00795 0.0
O644 O 0.05446 0.52627 0.99204 0.0
C645 C 0.94055 0.56719 0.03191 0.0
O646 O 0.96721 0.58592 0.0255 0.0
O647 O 0.01744 0.57333 0.06677 0.0
C648 C 0.11501 0.45968 0.04647 0.0
O649 O 0.0884 0.43987 0.05114 0.0
O650 O 0.11244 0.48757 0.03636 0.0
O651 O 0.04688 0.51202 0.06944 0.0
O652 O 0.99898 0.49974 0.08655 0.0
O653 O 0.03891 0.45236 0.00656 0.0
C654 C 0.02438 0.52799 0.98941 0.0
C655 C 0.02816 0.49507 0.08739 0.0
C656 C 0.02729 0.16099 0.92825 0.0
C657 C 0.02473 0.18632 0.95305 0.0
H658 H 0.02755 0.11006 0.91762 0.0
C659 C 0.02564 0.18011 0.98787 0.0
H660 H 0.02704 0.16493 0.90133 0.0
C661 C 0.02611 0.14862 0.99727 0.0
C662 C 0.02551 0.12279 0.97199 0.0
H663 H 0.02427 0.19923 0.00777 0.0
H664 H 0.02459 0.14416 0.0239 0.0
C665 C 0.02757 0.12953 0.93764 0.0
C666 C 0.16713 0.81859 0.20329 0.0
C667 C 0.13661 0.80645 0.21348 0.0
H668 H 0.21834 0.82422 0.2139 0.0
C669 C 0.13499 0.79443 0.24583 0.0
H670 H 0.1694 0.82848 0.17882 0.0
C671 C 0.16332 0.79218 0.26623 0.0
C672 C 0.19373 0.80171 0.2545 0.0
H673 H 0.11189 0.78507 0.2546 0.0
H674 H 0.1613 0.78114 0.29012 0.0
C675 C 0.1953 0.81616 0.22349 0.0
C676 C 0.50476 0.85671 0.45645 0.0
C677 C 0.50777 0.85128 0.42119 0.0
H678 H 0.51002 0.89173 0.5003 0.0
C679 C 0.51348 0.87801 0.40183 0.0
H680 H 0.49987 0.83647 0.4719 0.0
C681 C 0.51938 0.90969 0.41814 0.0
C682 C 0.51952 0.91502 0.45398 0.0
H683 H 0.51554 0.87447 0.37453 0.0
H684 H 0.5257 0.92987 0.40293 0.0
C685 C 0.51051 0.88836 0.47272 0.0
C686 C 0.42577 0.24254 0.68602 0.0
C687 C 0.45353 0.24655 0.70951 0.0
H688 H 0.37449 0.23855 0.6788 0.0
C689 C 0.44991 0.24518 0.74468 0.0
H690 H 0.4276 0.24302 0.65872 0.0
C691 C 0.41903 0.24219 0.75622 0.0
C692 C 0.39169 0.24088 0.73267 0.0
H693 H 0.47091 0.24815 0.76334 0.0
H694 H 0.41676 0.24304 0.78352 0.0
C695 C 0.39527 0.23996 0.69749 0.0
C696 C 0.05033 0.84393 0.56903 0.0
C697 C 0.04475 0.83963 0.60328 0.0
H698 H 0.0565 0.87775 0.53084 0.0
C699 C 0.04541 0.86705 0.6266 0.0
H700 H 0.0502 0.82313 0.5506 0.0
C701 C 0.0487 0.89798 0.61526 0.0
C702 C 0.05185 0.90206 0.58054 0.0
H703 H 0.04149 0.8645 0.65321 0.0
H704 H 0.04736 0.91858 0.6334 0.0
C705 C 0.05407 0.87509 0.55774 0.0
C706 C 0.43748 0.78601 0.85941 0.0
C707 C 0.43964 0.79799 0.89427 0.0
H708 H 0.40621 0.76623 0.81386 0.0
C709 C 0.4113 0.80335 0.90846 0.0
H710 H 0.45886 0.78188 0.84755 0.0
C711 C 0.38128 0.7942 0.88924 0.0
C712 C 0.37894 0.77986 0.85531 0.0
H713 H 0.41203 0.81282 0.93507 0.0
H714 H 0.35974 0.79702 0.9015 0.0
C715 C 0.40735 0.77715 0.84003 0.0
C716 C 0.49538 0.15515 0.02389 0.0
C717 C 0.49712 0.1661 0.05893 0.0
H718 H 0.4939 0.11474 0.98646 0.0
C719 C 0.49347 0.143 0.08299 0.0
H720 H 0.49756 0.17231 0.00464 0.0
C721 C 0.49151 0.10988 0.07253 0.0
C722 C 0.49304 0.09936 0.03786 0.0
H723 H 0.49449 0.15062 0.11015 0.0
H724 H 0.49084 0.09286 0.09193 0.0
C725 C 0.49326 0.1221 0.01344 0.0
C726 C 0.10836 0.26394 0.33934 0.0
C727 C 0.10909 0.26508 0.37532 0.0
H728 H 0.13639 0.26571 0.29612 0.0
C729 C 0.13814 0.26364 0.39488 0.0
H730 H 0.08619 0.26494 0.32367 0.0
C731 C 0.1665 0.26401 0.37925 0.0
C732 C 0.16648 0.26586 0.34373 0.0
H733 H 0.13935 0.26394 0.42257 0.0
H734 H 0.18885 0.26458 0.39534 0.0
C735 C 0.13699 0.26432 0.32358 0.0
C736 C 0.9776 0.04117 0.16658 0.0
C737 C 0.96374 0.00927 0.17243 0.0
H738 H 1.00577 0.07142 0.13409 0.0
C739 C 0.96767 0.98318 0.14924 0.0
H740 H 0.97562 0.06165 0.18456 0.0
C741 C 0.98464 0.98873 0.12059 0.0
C742 C 0.99928 0.02043 0.11507 0.0
H743 H 0.95789 0.95832 0.15353 0.0
H744 H 0.98652 0.96809 0.10279 0.0
C745 C 0.99538 0.04669 0.13818 0.0
C746 C 0.24943 0.64175 0.42215 0.0
C747 C 0.25179 0.66326 0.45195 0.0
H748 H 0.24257 0.63607 0.36725 0.0
C749 C 0.24352 0.69422 0.4496 0.0
H750 H 0.2554 0.61763 0.42338 0.0
C751 C 0.23585 0.70465 0.41765 0.0
C752 C 0.23678 0.6844 0.38758 0.0
H753 H 0.24466 0.71109 0.47231 0.0
H754 H 0.23161 0.72941 0.41652 0.0
C755 C 0.24211 0.65233 0.39009 0.0
C756 C 0.58645 0.96995 0.66437 0.0
C757 C 0.5682 0.97492 0.69189 0.0
H758 H 0.58863 0.96986 0.61031 0.0
C759 C 0.53509 0.97615 0.68476 0.0
H760 H 0.61177 0.96818 0.66881 0.0
C761 C 0.522 0.97787 0.65122 0.0
C762 C 0.54177 0.97793 0.62436 0.0
H763 H 0.52001 0.97908 0.70536 0.0
H764 H 0.49739 0.98206 0.64691 0.0
C765 C 0.57325 0.97133 0.63084 0.0
C766 C 0.28021 0.38186 0.92842 0.0
C767 C 0.28438 0.36139 0.9544 0.0
H768 H 0.27173 0.38549 0.87455 0.0
C769 C 0.28606 0.32852 0.94516 0.0
H770 H 0.27898 0.40731 0.93475 0.0
C771 C 0.28181 0.31592 0.91065 0.0
C772 C 0.27582 0.33597 0.88472 0.0
H773 H 0.28945 0.31217 0.96463 0.0
H774 H 0.28201 0.29023 0.90442 0.0
C775 C 0.27601 0.36928 0.89392 0.0
C776 C 0.9639 1.00237 0.35795 0.0
C777 C 0.93095 0.00257 0.34885 0.0
H778 H 1.00195 0.00641 0.39882 0.0
C779 C 0.91028 0.00365 0.37487 0.0
H780 H 0.98041 1.00141 0.33841 0.0
C781 C 0.92256 0.00639 0.40937 0.0
C782 C 0.95582 0.0082 0.41862 0.0
H783 H 0.88474 0.00357 0.36868 0.0
H784 H 0.90608 0.00835 0.42879 0.0
C785 C 0.97624 0.00519 0.39255 0.0
C786 C 0.32308 0.75422 0.6318 0.0
C787 C 0.31692 0.72001 0.62453 0.0
H788 H 0.32296 0.79474 0.66883 0.0
C789 C 0.31346 0.70055 0.65186 0.0
H790 H 0.32646 0.76993 0.61132 0.0
C791 C 0.31128 0.71482 0.6848 0.0
C792 C 0.3127 0.74877 0.69101 0.0
H793 H 0.3089 0.67418 0.64725 0.0
H794 H 0.30549 0.69888 0.70458 0.0
C795 C 0.32095 0.7685 0.66477 0.0
C796 C 0.65412 0.04027 0.88983 0.0
C797 C 0.63501 0.04328 0.85969 0.0
H798 H 0.65649 0.04091 0.94448 0.0
C799 C 0.60644 0.056 0.8618 0.0
H800 H 0.67639 0.03076 0.88874 0.0
C801 C 0.59507 0.0619 0.89347 0.0
C802 C 0.61201 0.05479 0.92341 0.0
H803 H 0.59165 0.05921 0.83883 0.0
H804 H 0.57175 0.06938 0.89409 0.0
C805 C 0.6426 0.04593 0.92164 0.0
C806 C 0.27195 0.33359 0.1549 0.0
C807 C 0.27647 0.31677 0.12374 0.0
H808 H 0.26475 0.33069 0.208 0.0
C809 C 0.2741 0.28254 0.12225 0.0
H810 H 0.27368 0.35984 0.15713 0.0
C811 C 0.26866 0.26578 0.15116 0.0
C812 C 0.26532 0.28258 0.18267 0.0
H813 H 0.27702 0.26846 0.09868 0.0
H814 H 0.26781 0.23964 0.14891 0.0
C815 C 0.26662 0.31671 0.18406 0.0
C816 C 0.16149 0.89895 0.03238 0.0
C817 C 0.19274 0.91604 0.03013 0.0
H818 H 0.11217 0.90158 0.03829 0.0
C819 C 0.19849 0.95041 0.03596 0.0
H820 H 0.15617 0.87256 0.02844 0.0
C821 C 0.17296 0.96726 0.04198 0.0
C822 C 0.1414 0.94992 0.04199 0.0
H823 H 0.22238 0.96429 0.03452 0.0
H824 H 0.17755 0.99369 0.04462 0.0
C825 C 0.13623 0.91564 0.03811 0.0
C826 C 0.66849 0.57233 0.98999 0.0
C827 C 0.66862 0.60588 0.98782 0.0
H828 H 0.64086 0.52569 0.99794 0.0
C829 C 0.63934 0.61738 0.99066 0.0
H830 H 0.6905 0.56252 0.98805 0.0
C831 C 0.61134 0.59656 0.99696 0.0
C832 C 0.61128 0.56328 4e-05 0.0
H833 H 0.63815 0.64292 0.98924 0.0
H834 H 0.5897 0.60681 -0.00011 0.0
C835 C 0.64004 0.5512 0.99572 0.0
C836 C 0.66408 0.40782 0.28822 0.0
C837 C 0.68354 0.43862 0.2884 0.0
H838 H 0.66079 0.35613 0.28266 0.0
C839 C 0.7161 0.44004 0.28193 0.0
H840 H 0.63896 0.40564 0.29304 0.0
C841 C 0.72884 0.41124 0.27576 0.0
C842 C 0.70931 0.38045 0.27616 0.0
H843 H 0.73179 0.46338 0.28186 0.0
H844 H 0.75399 0.4131 0.27117 0.0
C845 C 0.67675 0.37927 0.28229 0.0
C846 C 0.88614 0.37742 0.47667 0.0
C847 C 0.85842 0.39104 0.48177 0.0
H848 H 0.93781 0.38457 0.48192 0.0
C849 C 0.86229 0.42473 0.4918 0.0
H850 H 0.88418 0.35168 0.46871 0.0
C851 C 0.89322 0.44371 0.49919 0.0
C852 C 0.92083 0.42929 0.49697 0.0
H853 H 0.8415 0.43613 0.49575 0.0
H854 H 0.89545 0.46915 0.5087 0.0
C855 C 0.91697 0.39627 0.48437 0.0
C856 C 0.39628 0.12515 0.27282 0.0
C857 C 0.37978 0.09348 0.27525 0.0
H858 H 0.39267 0.17474 0.26699 0.0
C859 C 0.34577 0.0869 0.26928 0.0
H860 H 0.42243 0.13098 0.27682 0.0
C861 C 0.32859 0.1122 0.2632 0.0
C862 C 0.34534 0.14421 0.26337 0.0
H863 H 0.33244 0.06262 0.27082 0.0
H864 H 0.30241 0.10714 0.26053 0.0
C865 C 0.37924 0.15022 0.26712 0.0
C866 C 0.38487 0.12249 0.51923 0.0
C867 C 0.35451 0.10252 0.51892 0.0
H868 H 0.43616 0.12666 0.52557 0.0
C869 C 0.35357 0.06986 0.52615 0.0
H870 H 0.38672 0.14773 0.51391 0.0
C871 C 0.38239 0.05754 0.53308 0.0
C872 C 0.41274 0.07759 0.53275 0.0
H873 H 0.33059 0.05376 0.52619 0.0
H874 H 0.38089 0.03227 0.53812 0.0
C875 C 0.4134 0.11027 0.52595 0.0
C876 C 0.71678 0.62063 0.31566 0.0
C877 C 0.68441 0.6217 0.32144 0.0
H878 H 0.7624 0.64733 0.30436 0.0
C879 C 0.67436 0.6522 0.3226 0.0
H880 H 0.72545 0.59765 0.3145 0.0
C881 C 0.69525 0.68029 0.31629 0.0
C882 C 0.7271 0.67907 0.30905 0.0
H883 H 0.64981 0.65434 0.32708 0.0
H884 H 0.68614 0.70303 0.31649 0.0
C885 C 0.73799 0.64908 0.30978 0.0
C886 C 0.87401 0.42975 0.8232 0.0
C887 C 0.90778 0.43309 0.82989 0.0
H888 H 0.8291 0.39725 0.80839 0.0
C889 C 0.92154 0.40477 0.83129 0.0
H890 H 0.86255 0.45102 0.82228 0.0
C891 C 0.90236 0.37396 0.82303 0.0
C892 C 0.86901 0.37084 0.81357 0.0
H893 H 0.94741 0.40635 0.83664 0.0
H894 H 0.91391 0.35269 0.82252 0.0
C895 C 0.85479 0.3989 0.81525 0.0
C896 C 0.04114 0.89033 0.16068 0.0
C897 C 0.03961 0.86108 0.13985 0.0
H898 H 0.0452 0.9422 0.16294 0.0
C899 C 0.03956 0.86181 0.10412 0.0
H900 H 0.04105 0.89046 0.18827 0.0
C901 C 0.0413 0.89139 0.08953 0.0
C902 C 0.04363 0.9207 0.11053 0.0
H903 H 0.03815 0.83954 0.08742 0.0
H904 H 0.04191 0.89143 0.06202 0.0
C905 C 0.04338 0.9199 0.14618 0.0
C906 C 0.88278 0.25482 0.88811 0.0
C907 C 0.91078 0.25434 0.87123 0.0
H908 H 0.83218 0.25552 0.88376 0.0
C909 C 0.90777 0.25157 0.83509 0.0
H910 H 0.88395 0.25647 0.91587 0.0
C911 C 0.87766 0.25097 0.81643 0.0
C912 C 0.85008 0.25328 0.83362 0.0
H913 H 0.92881 0.25106 0.82124 0.0
H914 H 0.87626 0.24986 0.78869 0.0
C915 C 0.85293 0.25426 0.86961 0.0
C916 C 0.53111 0.16282 0.64857 0.0
C917 C 0.54573 0.18353 0.62574 0.0
H918 H 0.51171 0.11404 0.65773 0.0
C919 C 0.55435 0.16957 0.59481 0.0
H920 H 0.52442 0.17264 0.67277 0.0
C921 C 0.54706 0.13582 0.5862 0.0
C922 C 0.53107 0.11534 0.60836 0.0
H923 H 0.56582 0.18474 0.57671 0.0
H924 H 0.55293 0.12595 0.56164 0.0
C925 C 0.52391 0.12913 0.63999 0.0
C926 C 0.58675 0.74762 0.30584 0.0
C927 C 0.58781 0.76678 0.33717 0.0
H928 H 0.61284 0.73405 0.26403 0.0
C929 C 0.61629 0.78892 0.34924 0.0
H930 H 0.56508 0.73051 0.29577 0.0
C931 C 0.64331 0.79148 0.33081 0.0
C932 C 0.64274 0.77162 0.30003 0.0
H933 H 0.61781 0.80435 0.37309 0.0
H934 H 0.66501 0.80833 0.34137 0.0
C935 C 0.61404 0.74984 0.28757 0.0
C936 C 0.02547 0.17879 0.44449 0.0
C937 C 0.01468 0.19982 0.46893 0.0
H938 H 0.0333 0.1307 0.43006 0.0
C939 C 1.00195 0.18701 0.49793 0.0
H940 H 0.0353 0.18767 0.42176 0.0
C941 C 1.0007 0.154 0.50266 0.0
C942 C 0.01226 0.13332 0.47852 0.0
H943 H 0.99327 0.2025 0.51718 0.0
H944 H 0.99133 0.14488 0.52549 0.0
C945 C 0.0243 0.146 0.44925 0.0
C946 C 0.62199 0.25741 0.18422 0.0
C947 C 0.61886 0.25193 0.14817 0.0
H948 H 0.65456 0.26684 0.23048 0.0
C949 C 0.64607 0.24688 0.13159 0.0
H950 H 0.60142 0.2612 0.19774 0.0
C951 C 0.67623 0.24996 0.15021 0.0
C952 C 0.67996 0.25813 0.18588 0.0
H953 H 0.64437 0.24186 0.10392 0.0
H954 H 0.69697 0.24751 0.13639 0.0
C955 C 0.65238 0.2605 0.20297 0.0
C956 C 0.55257 0.90029 0.93845 0.0
C957 C 0.54942 0.87423 0.95895 0.0
H958 H 0.5525 0.95109 0.93565 0.0
C959 C 0.54565 0.88027 0.99395 0.0
H960 H 0.55573 0.89639 0.91144 0.0
C961 C 0.54409 0.91171 0.00797 0.0
C962 C 0.54589 0.93757 0.98711 0.0
H963 H 0.54341 0.86062 0.01041 0.0
H964 H 0.54044 0.91551 0.03486 0.0
C965 C 0.55076 0.93164 0.95236 0.0
C966 C 0.91081 0.74921 0.64858 0.0
C967 C 0.93924 0.7468 0.66889 0.0
H968 H 0.86 0.74887 0.64624 0.0
C969 C 0.93797 0.7438 0.70418 0.0
H970 H 0.91094 0.75171 0.62135 0.0
C971 C 0.90857 0.74287 0.71868 0.0
C972 C 0.88011 0.74442 0.69791 0.0
H973 H 0.95959 0.74221 0.72049 0.0
H974 H 0.90786 0.7397 0.74572 0.0
C975 C 0.88162 0.74779 0.66285 0.0
C976 C 0.11351 0.00411 0.91732 0.0
C977 C 0.10075 0.01185 0.88545 0.0
H978 H 0.10541 0.99544 0.96901 0.0
C979 C 0.06824 0.01621 0.88173 0.0
H980 H 0.13829 1.00033 0.92109 0.0
C981 C 0.04911 0.01319 0.90925 0.0
C982 C 0.06194 0.00563 0.94126 0.0
H983 H 0.05752 0.02204 0.85746 0.0
H984 H 0.02442 0.01728 0.90557 0.0
C985 C 0.09442 1.00103 0.94478 0.0
C986 C 0.77874 0.3556 0.61984 0.0
C987 C 0.7862 0.33115 0.59671 0.0
H988 H 0.77699 0.37272 0.6723 0.0
C989 C 0.79936 0.30532 0.60977 0.0
H990 H 0.76875 0.37593 0.6107 0.0
C991 C 0.80421 0.30357 0.64509 0.0
C992 C 0.79602 0.32758 0.66814 0.0
H993 H 0.80566 0.28618 0.59275 0.0
H994 H 0.81381 0.28304 0.65428 0.0
C995 C 0.78361 0.35383 0.65518 0.0
C996 C 0.5078 0.04479 0.39568 0.0
C997 C 0.47461 0.04641 0.39295 0.0
H998 H 0.54916 0.03832 0.42861 0.0
C999 C 0.45846 0.04633 0.42257 0.0
H1000 H 0.52087 0.04505 0.37314 0.0
C1001 C 0.47448 0.04222 0.45389 0.0
C1002 C 0.50714 0.03872 0.45653 0.0
H1003 H 0.43297 0.04764 0.42132 0.0
H1004 H 0.46065 0.03997 0.47574 0.0
C1005 C 0.52407 0.04119 0.42739 0.0
C1006 C 0.7814 0.66328 0.11877 0.0
C1007 C 0.76903 0.6855 0.09863 0.0
H1008 H 0.7955 0.65168 0.16931 0.0
C1009 C 0.76054 0.71353 0.11537 0.0
H1010 H 0.78806 0.64139 0.10687 0.0
C1011 C 0.76473 0.71941 0.15119 0.0
C1012 C 0.77744 0.6974 0.17126 0.0
H1013 H 0.75083 0.73123 0.10083 0.0
H1014 H 0.7584 0.74146 0.16309 0.0
C1015 C 0.7855 0.66913 0.15464 0.0
C1016 C 0.12846 0.01396 0.68439 0.0
C1017 C 0.10557 0.02468 0.70443 0.0
H1018 H 0.14103 1.00199 0.63389 0.0
C1019 C 0.07756 0.03286 0.68763 0.0
H1020 H 0.15038 0.00768 0.69637 0.0
C1021 C 0.07219 0.02964 0.6518 0.0
C1022 C 0.09477 0.01833 0.63182 0.0
H1023 H 0.05939 0.04134 0.70214 0.0
H1024 H 0.05004 0.03544 0.63981 0.0
C1025 C 0.12316 0.01092 0.64851 0.0
C1026 C 0.74455 0.33483 0.38503 0.0
C1027 C 0.74384 0.31915 0.41517 0.0
H1028 H 0.75089 0.33118 0.33175 0.0
C1029 C 0.74482 0.28554 0.41329 0.0
H1030 H 0.74373 0.36063 0.38562 0.0
C1031 C 0.7483 0.26835 0.3821 0.0
C1032 C 0.75123 0.2846 0.35233 0.0
H1033 H 0.74401 0.27273 0.43615 0.0
H1034 H 0.75047 0.24288 0.38177 0.0
C1035 C 0.7484 0.31779 0.35404 0.0
C1036 C 0.48588 0.98793 0.19819 0.0
C1037 C 0.46097 1.00151 0.21205 0.0
H1038 H 0.50738 0.97494 0.15298 0.0
C1039 C 0.43692 0.01064 0.18971 0.0
H1040 H 0.50459 0.98029 0.21464 0.0
C1041 C 0.4385 0.00748 0.15433 0.0
C1042 C 0.46411 0.99511 0.14063 0.0
H1043 H 0.41725 0.02097 0.19951 0.0
H1044 H 0.42013 0.0156 0.13784 0.0
C1045 C 0.48741 0.98472 0.16281 0.0
C1046 C 0.76916 0.71796 0.918 0.0
C1047 C 0.7744 0.68547 0.91538 0.0
H1048 H 0.76746 0.76151 0.89298 0.0
C1049 C 0.78288 0.67238 0.88402 0.0
H1050 H 0.76272 0.72895 0.94179 0.0
C1051 C 0.78604 0.69125 0.8561 0.0
C1052 C 0.78069 0.72376 0.85861 0.0
H1053 H 0.78733 0.64758 0.88109 0.0
H1054 H 0.79228 0.68007 0.83232 0.0
C1055 C 0.77213 0.73679 0.89002 0.0
C1056 C 0.87895 0.10253 0.0155 0.0
C1057 C 0.85531 0.09433 0.03803 0.0
H1058 H 0.92022 0.09027 0.99273 0.0
C1059 C 0.85517 0.0657 0.05444 0.0
H1060 H 0.87957 0.12422 0.00209 0.0
C1061 C 0.87861 0.04618 0.04905 0.0
C1062 C 0.90243 0.05455 0.02672 0.0
H1063 H 0.83715 0.05853 0.07169 0.0
H1064 H 0.87829 0.02468 0.06273 0.0
C1065 C 0.90207 0.08281 0.00975 0.0
C1066 C 0.38914 0.45647 0.05182 0.0
C1067 C 0.38733 0.42238 0.04664 0.0
H1068 H 0.41914 0.50397 0.05337 0.0
C1069 C 0.41601 0.41049 0.04135 0.0
H1070 H 0.36762 0.46659 0.0559 0.0
C1071 C 0.4451 0.43164 0.03974 0.0
C1072 C 0.44687 0.46563 0.04349 0.0
H1073 H 0.41602 0.38451 0.03768 0.0
H1074 H 0.46628 0.42115 0.03497 0.0
C1075 C 0.41866 0.4779 0.05032 0.0
C1076 C 0.38987 0.61688 0.75376 0.0
C1077 C 0.36876 0.58679 0.75153 0.0
H1078 H 0.39571 0.66886 0.76027 0.0
C1079 C 0.33561 0.58695 0.75377 0.0
H1080 H 0.41552 0.61771 0.75237 0.0
C1081 C 0.32415 0.61663 0.75922 0.0
C1082 C 0.34553 0.64672 0.76187 0.0
H1083 H 0.31875 0.56417 0.75264 0.0
H1084 H 0.29865 0.616 0.76144 0.0
C1085 C 0.37842 0.6463 0.75847 0.0
C1086 C 0.1771 0.59745 0.55011 0.0
C1087 C 0.18409 0.63173 0.55514 0.0
H1088 H 0.14007 0.55478 0.54072 0.0
C1089 C 0.15872 0.6488 0.5609 0.0
H1090 H 0.1961 0.58357 0.54576 0.0
C1091 C 0.12679 0.6324 0.55796 0.0
C1092 C 0.11941 0.59853 0.54931 0.0
H1093 H 0.16328 0.67517 0.56557 0.0
H1094 H 0.10768 0.64659 0.56015 0.0
C1095 C 0.14497 0.58094 0.54729 0.0
C1096 C 0.70519 0.92384 0.74523 0.0
C1097 C 0.68942 0.93397 0.77309 0.0
H1098 H 0.73021 0.88761 0.72372 0.0
C1099 C 0.69025 0.91735 0.80278 0.0
H1100 H 0.70495 0.93633 0.72214 0.0
C1101 C 0.70575 0.89038 0.80421 0.0
C1102 C 0.71984 0.87911 0.7756 0.0
H1103 H 0.67852 0.92497 0.82476 0.0
H1104 H 0.70502 0.87721 0.82685 0.0
C1105 C 0.71977 0.8962 0.74624 0.0
C1106 C 0.68233 0.92315 0.53351 0.0
C1107 C 0.71052 0.93483 0.55606 0.0
H1108 H 0.63581 0.93118 0.51298 0.0
C1109 C 0.71259 0.96488 0.57585 0.0
H1110 H 0.67993 0.9003 0.51754 0.0
C1111 C 0.68702 0.98256 0.57338 0.0
C1112 C 0.65898 0.97102 0.5505 0.0
H1113 H 0.73398 0.97477 0.59326 0.0
H1114 H 0.68931 0.00542 0.58931 0.0
C1115 C 0.65708 0.94108 0.53057 0.0
C1116 C 0.37715 0.37282 0.76554 0.0
C1117 C 0.36585 0.4021 0.76057 0.0
H1118 H 0.36594 0.3222 0.77214 0.0
C1119 C 0.33212 0.40094 0.75606 0.0
H1120 H 0.40281 0.37228 0.76872 0.0
C1121 C 0.31048 0.37145 0.75791 0.0
C1122 C 0.3222 0.34264 0.76446 0.0
H1123 H 0.32247 0.42294 0.75224 0.0
H1124 H 0.28472 0.37147 0.75537 0.0
C1125 C 0.35582 0.3438 0.76754 0.0
C1126 C 0.14383 0.62912 0.23828 0.0
C1127 C 0.16052 0.60409 0.24697 0.0
H1128 H 0.14616 0.68022 0.23527 0.0
C1129 C 0.1944 0.61124 0.2535 0.0
H1130 H 0.1178 0.62428 0.2324 0.0
C1131 C 0.21078 0.64352 0.25511 0.0
C1132 C 0.19344 0.66901 0.25022 0.0
H1133 H 0.20796 0.5924 0.26004 0.0
H1134 H 0.23652 0.64872 0.263 0.0
C1135 C 0.16013 0.6612 0.23976 0.0
C1136 C 0.52672 0.68319 0.48571 0.0
C1137 C 0.52542 0.68907 0.45082 0.0
H1138 H 0.5266 0.64772 0.52211 0.0
C1139 C 0.5282 0.66369 0.42616 0.0
H1140 H 0.52521 0.70236 0.50549 0.0
C1141 C 0.52906 0.63241 0.43581 0.0
C1142 C 0.52737 0.62596 0.47027 0.0
H1143 H 0.52765 0.66743 0.39917 0.0
H1144 H 0.52924 0.61287 0.41593 0.0
C1145 C 0.52776 0.65192 0.49536 0.0
C1146 C 0.63472 0.29289 0.74872 0.0
C1147 C 0.63651 0.30473 0.71628 0.0
H1148 H 0.66088 0.28111 0.79392 0.0
C1149 C 0.66701 0.31823 0.70695 0.0
H1150 H 0.61163 0.28255 0.75689 0.0
C1151 C 0.69511 0.31727 0.72805 0.0
C1152 C 0.69353 0.30293 0.75914 0.0
H1153 H 0.66939 0.32806 0.68246 0.0
H1154 H 0.7182 0.32629 0.71905 0.0
C1155 C 0.66298 0.29211 0.77002 0.0
C1156 C 0.01862 0.37664 0.90473 0.0
C1157 C 0.01231 0.35009 0.92424 0.0
H1158 H 0.03202 0.42836 0.90551 0.0
C1159 C 0.00998 0.35584 0.95961 0.0
H1160 H 0.02025 0.37287 0.87737 0.0
C1161 C 0.01667 0.38756 0.97575 0.0
C1162 C 0.02594 0.41395 0.95674 0.0
H1163 H 1.00473 0.33575 0.97519 0.0
H1164 H 0.01649 0.39117 0.00336 0.0
C1165 C 0.02548 0.40837 0.9209 0.0
C1166 C 0.9254 0.74807 0.18609 0.0
C1167 C 0.95316 0.7524 0.20964 0.0
H1168 H 0.87404 0.74295 0.17875 0.0
C1169 C 0.94954 0.75051 0.24474 0.0
H1170 H 0.92725 0.74888 0.15883 0.0
C1171 C 0.91861 0.74666 0.25619 0.0
C1172 C 0.89123 0.74499 0.2326 0.0
H1173 H 0.97055 0.75367 0.26342 0.0
H1174 H 0.91628 0.74712 0.28346 0.0
C1175 C 0.89486 0.74461 0.19747 0.0
C1176 C 0.54804 0.34459 0.06889 0.0
C1177 C 0.54299 0.3399 0.1032 0.0
H1178 H 0.55385 0.37892 0.03116 0.0
C1179 C 0.54417 0.36712 0.12697 0.0
H1180 H 0.54749 0.32396 0.05012 0.0
C1181 C 0.5475 0.39823 0.11609 0.0
C1182 C 0.55016 0.40273 0.08138 0.0
H1183 H 0.54068 0.36428 0.15363 0.0
H1184 H 0.54659 0.41868 0.13463 0.0
C1185 C 0.55182 0.37594 0.05806 0.0
C1186 C 0.9371 0.2854 0.35986 0.0
C1187 C 0.93943 0.29763 0.39466 0.0
H1188 H 0.90562 0.26562 0.31446 0.0
C1189 C 0.91124 0.30351 0.40884 0.0
H1190 H 0.95836 0.28086 0.34801 0.0
C1191 C 0.88116 0.29462 0.38969 0.0
C1192 C 0.87862 0.28 0.35585 0.0
H1193 H 0.91212 0.31323 0.43538 0.0
H1194 H 0.85973 0.29785 0.40195 0.0
C1195 C 0.90691 0.27677 0.34056 0.0
C1196 C 0.99378 0.64304 0.58313 0.0
C1197 C 0.9975 0.66621 0.55917 0.0
H1198 H 0.99091 0.59284 0.59185 0.0
C1199 C 0.9956 0.65537 0.52408 0.0
H1200 H 0.99491 0.65058 0.61032 0.0
C1201 C 0.99329 0.62232 0.51348 0.0
C1202 C 0.99304 0.5995 0.5378 0.0
H1203 H 0.99784 0.6726 0.5049 0.0
H1204 H 0.99386 0.61503 0.48646 0.0
C1205 C 0.99165 0.60994 0.57253 0.0
C1206 C 0.6082 0.76419 0.83891 0.0
C1207 C 0.60906 0.76514 0.87489 0.0
H1208 H 0.63609 0.76651 0.79558 0.0
C1209 C 0.63821 0.76378 0.89429 0.0
H1210 H 0.58595 0.76514 0.82335 0.0
C1211 C 0.66655 0.76448 0.87853 0.0
C1212 C 0.66638 0.7666 0.84303 0.0
H1213 H 0.63953 0.76395 0.92198 0.0
H1214 H 0.68898 0.76516 0.8945 0.0
C1215 C 0.6368 0.76491 0.82301 0.0
C1216 C 0.50388 0.51533 0.6821 0.0
C1217 C 0.46994 0.51187 0.68164 0.0
H1218 H 0.5453 0.5224 0.65377 0.0
C1219 C 0.4519 0.51442 0.65056 0.0
H1220 H 0.51876 0.51386 0.70562 0.0
C1221 C 0.4673 0.51896 0.62054 0.0
C1222 C 0.50121 0.52154 0.62086 0.0
H1223 H 0.42582 0.51179 0.64914 0.0
H1224 H 0.45239 0.51976 0.59688 0.0
C1225 C 0.51927 0.52023 0.65226 0.0
C1226 C 0.75258 0.14194 0.92556 0.0
C1227 C 0.7554 0.163 0.95577 0.0
H1228 H 0.74512 0.13716 0.87067 0.0
C1229 C 0.74772 0.19428 0.95412 0.0
H1230 H 0.75812 0.11761 0.92623 0.0
C1231 C 0.7399 0.20534 0.92251 0.0
C1232 C 0.74012 0.18542 0.89203 0.0
H1233 H 0.74923 0.21086 0.97713 0.0
H1234 H 0.73597 0.23025 0.92194 0.0
C1235 C 0.74516 0.15316 0.89384 0.0
C1236 C 0.03892 0.46404 0.17412 0.0
C1237 C 0.07283 0.47151 0.18102 0.0
H1238 H 0.99785 0.46545 0.13856 0.0
C1239 C 0.09151 0.47843 0.15384 0.0
H1240 H 0.02388 0.45812 0.19452 0.0
C1241 C 0.07658 0.4831 0.12197 0.0
C1242 C 0.04274 0.48037 0.11658 0.0
H1243 H 0.11764 0.48422 0.15821 0.0
H1244 H 0.09182 0.49206 0.10281 0.0
C1245 C 0.02397 0.46846 0.14211 0.0
C1246 C 0.78667 0.83284 0.44427 0.0
C1247 C 0.7852 0.86579 0.45338 0.0
H1248 H 0.7823 0.79435 0.40375 0.0
C1249 C 0.78112 0.88618 0.42732 0.0
H1250 H 0.79002 0.81654 0.46381 0.0
C1251 C 0.77671 0.87343 0.39285 0.0
C1252 C 0.77629 0.84004 0.38381 0.0
H1253 H 0.78003 0.91168 0.43356 0.0
H1254 H 0.77244 0.88955 0.37339 0.0
C1255 C 0.78226 0.82009 0.40984 0.0
C1256 C 0.46122 0.50133 0.86235 0.0
C1257 C 0.4286 0.50278 0.85299 0.0
H1258 H 0.49898 0.50475 0.90335 0.0
C1259 C 0.40799 0.5055 0.87884 0.0
H1260 H 0.47766 0.49905 0.84295 0.0
C1261 C 0.42017 0.50865 0.91341 0.0
C1262 C 0.45323 0.50924 0.92282 0.0
H1263 H 0.3827 0.50644 0.87242 0.0
H1264 H 0.40386 0.51192 0.93271 0.0
C1265 C 0.47345 0.50455 0.89695 0.0
C1266 C 0.8266 0.25081 0.13572 0.0
C1267 C 0.8185 0.2166 0.12895 0.0
H1268 H 0.827 0.2925 0.17145 0.0
C1269 C 0.81204 0.19788 0.15636 0.0
H1270 H 0.83222 0.26592 0.11516 0.0
C1271 C 0.80884 0.21317 0.18856 0.0
C1272 C 0.81231 0.24742 0.19397 0.0
H1273 H 0.8058 0.17153 0.15211 0.0
H1274 H 0.80055 0.19793 0.20812 0.0
C1275 C 0.82345 0.26611 0.16796 0.0
C1276 C 0.0983 0.54525 0.35452 0.0
C1277 C 0.12878 0.5363 0.35292 0.0
H1278 H 0.0626 0.55669 0.38655 0.0
C1279 C 0.14909 0.53712 0.38327 0.0
H1280 H 0.08238 0.54536 0.33139 0.0
C1281 C 0.13766 0.54343 0.41499 0.0
C1282 C 0.10591 0.54925 0.41659 0.0
H1283 H 0.17282 0.53058 0.38262 0.0
H1284 H 0.15295 0.54177 0.43817 0.0
C1285 C 0.087 0.55188 0.38613 0.0
C1286 C 0.77243 0.78594 0.62098 0.0
C1287 C 0.77497 0.82021 0.62252 0.0
H1288 H 0.76669 0.74305 0.64769 0.0
C1289 C 0.77102 0.83704 0.6539 0.0
H1290 H 0.7749 0.77181 0.59729 0.0
C1291 C 0.76616 0.82015 0.68317 0.0
C1292 C 0.76488 0.78601 0.68172 0.0
H1293 H 0.77291 0.86331 0.6562 0.0
H1294 H 0.76472 0.83413 0.70725 0.0
C1295 C 0.76758 0.7692 0.65001 0.0
C1296 C 0.69778 0.44689 0.53828 0.0
C1297 C 0.69235 0.41262 0.53151 0.0
H1298 H 0.67629 0.48965 0.54786 0.0
C1299 C 0.66115 0.39504 0.53295 0.0
H1300 H 0.72163 0.4611 0.5375 0.0
C1301 C 0.63559 0.41124 0.53875 0.0
C1302 C 0.64049 0.44546 0.54358 0.0
H1303 H 0.65611 0.36868 0.52829 0.0
H1304 H 0.61159 0.3969 0.5383 0.0
C1305 C 0.67197 0.46323 0.54443 0.0
C1306 C 0.14259 0.11477 0.48779 0.0
C1307 C 0.17203 0.10327 0.4866 0.0
H1308 H 0.09248 0.10437 0.49517 0.0
C1309 C 0.17178 0.06984 0.48972 0.0
H1310 H 0.14146 0.14022 0.48555 0.0
C1311 C 0.14303 0.04886 0.49485 0.0
C1312 C 0.11407 0.06099 0.49759 0.0
H1313 H 0.19391 0.06004 0.48905 0.0
H1314 H 0.14374 0.02347 0.49791 0.0
C1315 C 0.11427 0.09411 0.49349 0.0
C1316 C 0.21603 0.93916 0.7802 0.0
C1317 C 0.18337 0.93756 0.78635 0.0
H1318 H 0.25422 0.91249 0.76995 0.0
C1319 C 0.16404 0.90668 0.78607 0.0
H1320 H 0.23163 0.96258 0.78022 0.0
C1321 C 0.17693 0.87824 0.78038 0.0
C1322 C 0.2096 0.87961 0.77458 0.0
H1323 H 0.13884 0.90437 0.79065 0.0
H1324 H 0.16107 0.85502 0.78068 0.0
C1325 C 0.22899 0.91048 0.77426 0.0
C1326 C 0.38539 0.87778 0.9741 0.0
C1327 C 0.35789 0.89171 0.97949 0.0
H1328 H 0.43703 0.88444 0.97889 0.0
C1329 C 0.36212 0.92541 0.98954 0.0
H1330 H 0.38314 0.85202 0.96611 0.0
C1331 C 0.39321 0.94412 0.99668 0.0
C1332 C 0.42062 0.92942 0.99418 0.0
H1333 H 0.34152 0.93704 0.9937 0.0
H1334 H 0.39571 0.96958 0.00623 0.0
C1335 C 0.41637 0.89638 0.98155 0.0
C1336 C 0.89693 0.6291 0.77565 0.0
C1337 C 0.88065 0.59733 0.77799 0.0
H1338 H 0.89293 0.67847 0.76912 0.0
C1339 C 0.8467 0.59036 0.77129 0.0
H1340 H 0.92304 0.63523 0.78018 0.0
C1341 C 0.82931 0.61537 0.76451 0.0
C1342 C 0.84579 0.64748 0.76466 0.0
H1343 H 0.83353 0.56599 0.77273 0.0
H1344 H 0.80313 0.61001 0.76127 0.0
C1345 C 0.87969 0.65387 0.76921 0.0
C1346 C 0.8502 0.57219 0.02283 0.0
C1347 C 0.85103 0.60459 0.01479 0.0
H1348 H 0.87766 0.53471 0.03477 0.0
C1349 C 0.88128 0.62406 0.01291 0.0
H1350 H 0.8273 0.55648 0.02449 0.0
C1351 C 0.90982 0.61165 0.01856 0.0
C1352 C 0.90927 0.57931 0.02649 0.0
H1353 H 0.88302 0.64906 0.00679 0.0
H1354 H 0.93249 0.62769 0.01668 0.0
C1355 C 0.87905 0.5597 0.02874 0.0
C1356 C 0.17407 0.15083 0.82111 0.0
C1357 C 0.184 0.12029 0.82024 0.0
H1358 H 0.18627 0.20165 0.81507 0.0
C1359 C 0.21652 0.1191 0.81524 0.0
H1360 H 0.14941 0.15304 0.82503 0.0
C1361 C 0.238 0.14747 0.80973 0.0
C1362 C 0.22724 0.17749 0.8086 0.0
H1363 H 0.22511 0.09608 0.81436 0.0
H1364 H 0.26252 0.14563 0.80483 0.0
C1365 C 0.19525 0.17885 0.81517 0.0
C1366 C 0.37166 0.92652 0.32239 0.0
C1367 C 0.40535 0.92975 0.32985 0.0
H1368 H 0.32686 0.89411 0.30663 0.0
C1369 C 0.41889 0.90138 0.33224 0.0
H1370 H 0.36036 0.94784 0.32073 0.0
C1371 C 0.39969 0.87061 0.32385 0.0
C1372 C 0.36655 0.86759 0.31332 0.0
H1373 H 0.44467 0.90287 0.33828 0.0
H1374 H 0.41114 0.84928 0.32391 0.0
C1375 C 0.35241 0.8957 0.31432 0.0
C1376 C 0.53872 0.35632 0.60408 0.0
C1377 C 0.53819 0.35534 0.63974 0.0
H1378 H 0.5412 0.38625 0.56217 0.0
C1379 C 0.53838 0.38434 0.66053 0.0
H1380 H 0.5383 0.33424 0.58741 0.0
C1381 C 0.54009 0.41392 0.64615 0.0
C1382 C 0.54112 0.41504 0.61062 0.0
H1383 H 0.53779 0.3843 0.68804 0.0
H1384 H 0.54108 0.43606 0.66294 0.0
C1385 C 0.53993 0.38594 0.58958 0.0
C1386 C 0.40699 0.75 0.33146 0.0
C1387 C 0.40951 0.75225 0.36759 0.0
H1388 H 0.37588 0.74813 0.28476 0.0
C1389 C 0.38112 0.75116 0.38405 0.0
H1390 H 0.42836 0.75063 0.31795 0.0
C1391 C 0.35131 0.74985 0.36518 0.0
C1392 C 0.34893 0.74966 0.32925 0.0
H1393 H 0.38195 0.7523 0.41177 0.0
H1394 H 0.33022 0.75005 0.37902 0.0
C1395 C 0.37693 0.74862 0.31244 0.0
C1396 C 0.05065 0.67405 0.09407 0.0
C1397 C 0.04166 0.68845 0.12456 0.0
H1398 H 0.04884 0.63015 0.06128 0.0
C1399 C 0.02565 0.66823 0.14697 0.0
H1400 H 0.06319 0.68884 0.07632 0.0
C1401 C 0.01755 0.63461 0.13839 0.0
C1402 C 0.02524 0.62043 0.10721 0.0
H1403 H 0.01859 0.6784 0.17083 0.0
H1404 H 1.00437 0.61989 0.15577 0.0
C1405 C 0.04251 0.64037 0.08548 0.0
C1406 C 0.08696 0.24474 0.80734 0.0
C1407 C 0.08836 0.26368 0.83886 0.0
H1408 H 0.11262 0.23136 0.76507 0.0
C1409 C 0.11698 0.28568 0.85079 0.0
H1410 H 0.06516 0.22777 0.79735 0.0
C1411 C 0.1438 0.28829 0.83206 0.0
C1412 C 0.14291 0.26863 0.80109 0.0
H1413 H 0.11876 0.30099 0.87476 0.0
H1414 H 0.1656 0.30505 0.84252 0.0
C1415 C 0.11408 0.24699 0.78876 0.0
C1416 C 0.50103 0.68855 -0.00113 0.0
C1417 C 0.51425 0.70082 0.96985 0.0
H1418 H 0.48959 0.64693 0.02698 0.0
C1419 C 0.52512 0.67934 0.94596 0.0
H1420 H 0.49226 0.7044 0.0177 0.0
C1421 C 0.52351 0.64661 0.95127 0.0
C1422 C 0.51095 0.63445 0.98056 0.0
H1423 H 0.53532 0.6878 0.92325 0.0
H1424 H 0.53258 0.63093 0.9325 0.0
C1425 C 0.49935 0.65562 0.00415 0.0
C1426 C 0.14724 0.74627 0.63196 0.0
C1427 C 0.12005 0.75129 0.64861 0.0
H1428 H 0.19817 0.74703 0.63664 0.0
C1429 C 0.12324 0.75671 0.68466 0.0
H1430 H 0.14551 0.7413 0.60428 0.0
C1431 C 0.15367 0.75981 0.70335 0.0
C1432 C 0.18123 0.75752 0.68618 0.0
H1433 H 0.1027 0.76047 0.69823 0.0
H1434 H 0.15591 0.76613 0.73086 0.0
C1435 C 0.17744 0.74939 0.65052 0.0
C1436 C 0.04494 0.37971 0.49463 0.0
C1437 C 0.0487 0.37369 0.45962 0.0
H1438 H 0.03953 0.41497 0.5355 0.0
C1439 C 0.05165 0.39972 0.43908 0.0
H1440 H 0.04286 0.36008 0.51112 0.0
C1441 C 0.04959 0.43099 0.45293 0.0
C1442 C 0.04471 0.43692 0.48767 0.0
H1443 H 0.05482 0.39584 0.41207 0.0
H1444 H 0.05119 0.4504 0.43617 0.0
C1445 C 0.04317 0.41114 0.50861 0.0
C1446 C 0.40945 0.24782 0.14818 0.0
C1447 C 0.43803 0.24579 0.16844 0.0
H1448 H 0.35851 0.24668 0.14596 0.0
C1449 C 0.4369 0.24267 0.20372 0.0
H1450 H 0.40948 0.25039 0.12096 0.0
C1451 C 0.4075 0.24124 0.21828 0.0
C1452 C 0.3789 0.2424 0.19757 0.0
H1453 H 0.45864 0.24137 0.21998 0.0
H1454 H 0.40692 0.238 0.24531 0.0
C1455 C 0.38024 0.24589 0.16251 0.0
C1456 C 0.61472 0.50455 0.41999 0.0
C1457 C 0.60197 0.51303 0.38844 0.0
H1458 H 0.60671 0.49497 0.47152 0.0
C1459 C 0.56958 0.51777 0.38514 0.0
H1460 H 0.63941 0.50041 0.42342 0.0
C1461 C 0.55058 0.51447 0.41276 0.0
C1462 C 0.56339 0.50619 0.44446 0.0
H1463 H 0.55884 0.52414 0.36114 0.0
H1464 H 0.52597 0.51882 0.40935 0.0
C1465 C 0.59574 0.50114 0.44754 0.0
C1466 C 0.30094 0.80743 0.10768 0.0
C1467 C 0.28676 0.8329 0.09519 0.0
H1468 H 0.3164 0.78488 0.15158 0.0
C1469 C 0.27876 0.85664 0.11878 0.0
H1470 H 0.30775 0.78887 0.09031 0.0
C1471 C 0.28394 0.85438 0.15403 0.0
C1472 C 0.29721 0.82835 0.16639 0.0
H1473 H 0.26801 0.87668 0.11007 0.0
H1474 H 0.27677 0.87262 0.17154 0.0
C1475 C 0.30611 0.8052 0.14288 0.0
C1476 C 0.00897 0.55059 0.89891 0.0
C1477 C 0.97521 0.54876 0.89606 0.0
H1478 H 0.05146 0.54633 0.93116 0.0
C1479 C 0.95872 0.54413 0.92516 0.0
H1480 H 0.02229 0.55434 0.87679 0.0
C1481 C 0.97527 0.5391 0.95592 0.0
C1482 C 0.00879 0.53933 0.95859 0.0
H1483 H 0.93273 0.54253 0.92372 0.0
H1484 H 0.96137 0.53323 0.97711 0.0
C1485 C 0.0257 0.54617 0.93004 0.0
C1486 C 0.26207 0.21087 0.61599 0.0
C1487 C 0.27069 0.18279 0.59951 0.0
H1488 H 0.2594 0.23888 0.66348 0.0
C1489 C 0.2826 0.16049 0.6199 0.0
H1490 H 0.25269 0.22862 0.60124 0.0
C1491 C 0.2862 0.16636 0.65577 0.0
C1492 C 0.27809 0.19471 0.67211 0.0
H1493 H 0.28933 0.13855 0.6082 0.0
H1494 H 0.29591 0.14888 0.67065 0.0
C1495 C 0.26577 0.21677 0.65179 0.0
C1496 C 0.62782 0.51459 0.18678 0.0
C1497 C 0.6052 0.52555 0.20704 0.0
H1498 H 0.6399 0.50238 0.13612 0.0
C1499 C 0.57715 0.53387 0.19047 0.0
H1500 H 0.64976 0.5082 0.19858 0.0
C1501 C 0.5715 0.53058 0.15466 0.0
C1502 C 0.5938 0.51906 0.13446 0.0
H1503 H 0.55918 0.54254 0.20515 0.0
H1504 H 0.54933 0.53652 0.14285 0.0
C1505 C 0.62222 0.51148 0.15091 0.0
C1506 C 0.24438 0.78681 0.91258 0.0
C1507 C 0.24323 0.8204 0.9142 0.0
H1508 H 0.25075 0.74409 0.88152 0.0
C1509 C 0.24445 0.83594 0.884 0.0
H1510 H 0.24323 0.7741 0.9355 0.0
C1511 C 0.24892 0.81883 0.85329 0.0
C1512 C 0.25186 0.78566 0.85186 0.0
H1513 H 0.24357 0.86172 0.88437 0.0
H1514 H 0.25176 0.83215 0.831 0.0
C1515 C 0.24848 0.76952 0.88163 0.0
C1516 C 0.98855 0.49364 0.70085 0.0
C1517 C 0.96378 0.50762 0.71457 0.0
H1518 H 0.00968 0.47957 0.65573 0.0
C1519 C 0.93991 0.51683 0.69207 0.0
H1520 H 0.00714 0.48596 0.71741 0.0
C1521 C 0.94135 0.51307 0.65667 0.0
C1522 C 0.96663 0.49997 0.64307 0.0
H1523 H 0.92039 0.5275 0.70176 0.0
H1524 H 0.92302 0.52109 0.64004 0.0
C1525 C 0.98992 0.48981 0.66546 0.0
C1526 C 0.28621 0.17 0.38517 0.0
C1527 C 0.27786 0.18291 0.41666 0.0
H1528 H 0.29458 0.17771 0.3332 0.0
C1529 C 0.27181 0.21513 0.41926 0.0
H1530 H 0.29125 0.14542 0.38224 0.0
C1531 C 0.27383 0.23385 0.39113 0.0
C1532 C 0.28223 0.22099 0.35957 0.0
H1533 H 0.26543 0.22599 0.44314 0.0
H1534 H 0.26853 0.25833 0.39408 0.0
C1535 C 0.28843 0.18876 0.35709 0.0
C1536 C 0.37307 0.60268 0.50476 0.0
C1537 C 0.35659 0.60107 0.53444 0.0
H1538 H 0.41255 0.58955 0.4789 0.0
C1539 C 0.36639 0.58247 0.5602 0.0
H1540 H 0.36578 0.61663 0.48432 0.0
C1541 C 0.3935 0.56753 0.55729 0.0
C1542 C 0.41048 0.5699 0.52803 0.0
H1543 H 0.35409 0.5808 0.58325 0.0
H1544 H 0.40183 0.55489 0.5784 0.0
C1545 C 0.39952 0.58686 0.50137 0.0
C1546 C 0.89142 0.95652 0.55097 0.0
C1547 C 0.88852 0.92239 0.54462 0.0
H1548 H 0.92245 0.00347 0.55301 0.0
C1549 C 0.91643 0.90977 0.53749 0.0
H1550 H 0.87053 0.9672 0.55644 0.0
C1551 C 0.9458 0.93034 0.53536 0.0
C1552 C 0.9486 0.96442 0.54036 0.0
H1553 H 0.91557 0.88372 0.53278 0.0
H1554 H 0.96635 0.91934 0.52923 0.0
C1555 C 0.92118 0.97733 0.54891 0.0
C1556 C 0.88957 0.11765 0.2526 0.0
C1557 C 0.8685 0.08753 0.25013 0.0
H1558 H 0.89532 0.16959 0.25967 0.0
C1559 C 0.83534 0.08754 0.25241 0.0
H1560 H 0.91523 0.11858 0.25114 0.0
C1561 C 0.82382 0.11712 0.25816 0.0
C1562 C 0.84517 0.14725 0.2611 0.0
H1563 H 0.81852 0.06471 0.25105 0.0
H1564 H 0.79832 0.1164 0.26043 0.0
C1565 C 0.87807 0.14699 0.25765 0.0
C1566 C 0.66001 0.14903 0.06313 0.0
C1567 C 0.68512 0.13145 0.05797 0.0
H1568 H 0.60909 0.14755 0.06248 0.0
C1569 C 0.67773 0.09715 0.05403 0.0
H1570 H 0.66486 0.17545 0.06702 0.0
C1571 C 0.64548 0.08104 0.05174 0.0
C1572 C 0.62018 0.09902 0.05319 0.0
H1573 H 0.69651 0.08286 0.05025 0.0
H1574 H 0.6403 0.05477 0.0461 0.0
C1575 C 0.62796 0.13302 0.06074 0.0
C1576 C 0.20812 0.42126 0.24308 0.0
C1577 C 0.19125 0.43159 0.26993 0.0
H1578 H 0.23386 0.3848 0.22344 0.0
C1579 C 0.19115 0.41541 0.29995 0.0
H1580 H 0.20856 0.43339 0.21975 0.0
C1581 C 0.20667 0.38856 0.30263 0.0
C1582 C 0.22173 0.37695 0.27492 0.0
H1583 H 0.17852 0.42318 0.32115 0.0
H1584 H 0.20506 0.37563 0.3254 0.0
C1585 C 0.22272 0.39371 0.24531 0.0
C1586 C 0.17539 0.40241 0.05741 0.0
C1587 C 0.20543 0.42326 0.05936 0.0
H1588 H 0.12399 0.39747 0.05221 0.0
C1589 C 0.20583 0.45698 0.05837 0.0
H1590 H 0.17413 0.37635 0.05793 0.0
C1591 C 0.17668 0.46926 0.05426 0.0
C1592 C 0.1466 0.44812 0.05171 0.0
H1593 H 0.2286 0.47366 0.05936 0.0
H1594 H 0.17769 0.49517 0.0528 0.0
C1595 C 0.14653 0.41464 0.054 0.0
C1596 C 0.87698 0.87419 0.26509 0.0
C1597 C 0.86581 0.90321 0.25849 0.0
H1598 H 0.86557 0.82401 0.27349 0.0
C1599 C 0.83209 0.90197 0.25317 0.0
H1600 H 0.90261 0.87367 0.269 0.0
C1601 C 0.81035 0.87268 0.25561 0.0
C1602 C 0.82192 0.84415 0.26361 0.0
H1603 H 0.82251 0.92375 0.24809 0.0
H1604 H 0.78459 0.87264 0.25229 0.0
C1605 C 0.85554 0.84538 0.2677 0.0
C1606 C 0.69595 0.11394 0.75742 0.0
C1607 C 0.6621 0.10713 0.75058 0.0
H1608 H 0.73828 0.15111 0.76714 0.0
C1609 C 0.6458 0.13211 0.7409 0.0
H1610 H 0.70916 0.09507 0.76475 0.0
C1611 C 0.66243 0.16402 0.74198 0.0
C1612 C 0.69561 0.17164 0.75317 0.0
H1613 H 0.61979 0.12743 0.73478 0.0
H1614 H 0.64872 0.18312 0.7369 0.0
C1615 C 0.71264 0.14606 0.75874 0.0
loop_
_geom_bond_atom_site_label_1
_geom_bond_atom_site_label_2
_geom_bond_distance
_geom_bond_site_symmetry_2
_ccdc_geom_bond_type
Co0 O1 2.216 . S
Co0 O2 2.091 . S
Co0 O4 2.004 1_455 S
Co0 O10 2.021 . S
Co0 O12 2.137 . S
Co0 O13 2.244 . S
O1 Co0 2.216 . S
O1 C8 1.247 . S
O2 Co0 2.091 . S
O2 C8 1.261 . S
C3 O12 1.247 . S
C3 O13 1.272 . S
O4 Co0 2.004 1_655 S
O4 C9 1.259 . S
Co5 O6 2.061 . S
Co5 O11 2.052 1_655 S
Co5 O13 2.135 1_655 S
O6 Co5 2.061 . S
O6 C9 1.235 . S
C7 O10 1.238 . S
C7 O11 1.241 . S
C8 O1 1.247 . S
C8 O2 1.261 . S
C9 O4 1.259 . S
C9 O6 1.235 . S
O10 Co0 2.021 . S
O10 C7 1.238 . S
O11 Co5 2.052 1_455 S
O11 C7 1.241 . S
O12 Co0 2.137 . S
O12 C3 1.247 . S
O13 Co0 2.244 . S
O13 C3 1.272 . S
O13 Co5 2.135 1_455 S
Co14 O15 2.216 1_455 S
Co14 O16 2.091 1_455 S
Co14 O18 2.004 . S
Co14 O24 2.021 . S
Co14 O26 2.137 . S
Co14 O27 2.244 . S
O15 Co14 2.216 1_655 S
O15 C22 1.247 . S
O16 Co14 2.091 1_655 S
O16 C22 1.261 . S
C17 O26 1.247 . S
C17 O27 1.272 . S
O18 Co14 2.004 . S
O18 C23 1.259 . S
Co19 O20 2.061 . S
Co19 O25 2.052 . S
Co19 O27 2.135 . S
O20 Co19 2.061 . S
O20 C23 1.235 . S
C21 O24 1.238 . S
C21 O25 1.241 . S
C22 O15 1.247 . S
C22 O16 1.261 . S
C23 O18 1.259 . S
C23 O20 1.235 . S
O24 Co14 2.021 . S
O24 C21 1.238 . S
O25 Co19 2.052 . S
O25 C21 1.241 . S
O26 Co14 2.137 . S
O26 C17 1.247 . S
O27 Co14 2.244 . S
O27 C17 1.272 . S
O27 Co19 2.135 . S
Co28 O29 2.216 . S
Co28 O30 2.091 . S
Co28 O32 2.004 . S
Co28 O38 2.021 . S
Co28 O40 2.137 . S
Co28 O41 2.244 . S
O29 Co28 2.216 . S
O29 C36 1.247 . S
O30 Co28 2.091 . S
O30 C36 1.261 . S
C31 O40 1.247 . S
C31 O41 1.272 . S
O32 Co28 2.004 . S
O32 C37 1.259 . S
Co33 O34 2.061 . S
Co33 O39 2.052 . S
Co33 O41 2.135 . S
O34 Co33 2.061 . S
O34 C37 1.235 . S
C35 O38 1.238 . S
C35 O39 1.241 . S
C36 O29 1.247 . S
C36 O30 1.261 . S
C37 O32 1.259 . S
C37 O34 1.235 . S
O38 Co28 2.021 . S
O38 C35 1.238 . S
O39 Co33 2.052 . S
O39 C35 1.241 . S
O40 Co28 2.137 . S
O40 C31 1.247 . S
O41 Co28 2.244 . S
O41 C31 1.272 . S
O41 Co33 2.135 . S
Co42 O43 2.216 . S
Co42 O44 2.091 . S
Co42 O46 2.004 . S
Co42 O52 2.021 . S
Co42 O54 2.137 . S
Co42 O55 2.244 . S
O43 Co42 2.216 . S
O43 C50 1.247 . S
O44 Co42 2.091 . S
O44 C50 1.261 . S
C45 O54 1.247 . S
C45 O55 1.272 . S
O46 Co42 2.004 . S
O46 C51 1.259 . S
Co47 O48 2.061 . S
Co47 O53 2.052 . S
Co47 O55 2.135 . S
O48 Co47 2.061 . S
O48 C51 1.235 . S
C49 O52 1.238 . S
C49 O53 1.241 . S
C50 O43 1.247 . S
C50 O44 1.261 . S
C51 O46 1.259 . S
C51 O48 1.235 . S
O52 Co42 2.021 . S
O52 C49 1.238 . S
O53 Co47 2.052 . S
O53 C49 1.241 . S
O54 Co42 2.137 . S
O54 C45 1.247 . S
O55 Co42 2.244 . S
O55 C45 1.272 . S
O55 Co47 2.135 . S
Co56 O57 2.216 1_455 S
Co56 O58 2.091 . S
Co56 O60 2.004 . S
Co56 O66 2.021 . S
Co56 O68 2.137 . S
Co56 O69 2.244 . S
O57 Co56 2.216 1_655 S
O57 C64 1.247 . S
O58 Co56 2.091 . S
O58 C64 1.261 1_455 S
C59 O68 1.247 . S
C59 O69 1.272 . S
O60 Co56 2.004 . S
O60 C65 1.259 . S
Co61 O62 2.061 . S
Co61 O67 2.052 . S
Co61 O69 2.135 . S
O62 Co61 2.061 . S
O62 C65 1.235 . S
C63 O66 1.238 . S
C63 O67 1.241 . S
C64 O57 1.247 . S
C64 O58 1.261 1_655 S
C65 O60 1.259 . S
C65 O62 1.235 . S
O66 Co56 2.021 . S
O66 C63 1.238 . S
O67 Co61 2.052 . S
O67 C63 1.241 . S
O68 Co56 2.137 . S
O68 C59 1.247 . S
O69 Co56 2.244 . S
O69 C59 1.272 . S
O69 Co61 2.135 . S
Co70 O71 2.216 . S
Co70 O72 2.091 . S
Co70 O74 2.004 . S
Co70 O80 2.021 . S
Co70 O82 2.137 . S
Co70 O83 2.244 . S
O71 Co70 2.216 . S
O71 C78 1.247 . S
O72 Co70 2.091 . S
O72 C78 1.261 . S
C73 O82 1.247 . S
C73 O83 1.272 . S
O74 Co70 2.004 . S
O74 C79 1.259 . S
Co75 O76 2.061 . S
Co75 O81 2.052 . S
Co75 O83 2.135 . S
O76 Co75 2.061 . S
O76 C79 1.235 . S
C77 O80 1.238 . S
C77 O81 1.241 . S
C78 O71 1.247 . S
C78 O72 1.261 . S
C79 O74 1.259 . S
C79 O76 1.235 . S
O80 Co70 2.021 . S
O80 C77 1.238 . S
O81 Co75 2.052 . S
O81 C77 1.241 . S
O82 Co70 2.137 . S
O82 C73 1.247 . S
O83 Co70 2.244 . S
O83 C73 1.272 . S
O83 Co75 2.135 . S
Co84 O85 2.216 . S
Co84 O86 2.091 . S
Co84 O88 2.004 . S
Co84 O94 2.021 . S
Co84 O96 2.137 . S
Co84 O97 2.244 . S
O85 Co84 2.216 . S
O85 C92 1.247 . S
O86 Co84 2.091 . S
O86 C92 1.261 . S
C87 O96 1.247 . S
C87 O97 1.272 . S
O88 Co84 2.004 . S
O88 C93 1.259 . S
Co89 O90 2.061 . S
Co89 O95 2.052 . S
Co89 O97 2.135 . S
O90 Co89 2.061 . S
O90 C93 1.235 . S
C91 O94 1.238 . S
C91 O95 1.241 . S
C92 O85 1.247 . S
C92 O86 1.261 . S
C93 O88 1.259 . S
C93 O90 1.235 . S
O94 Co84 2.021 . S
O94 C91 1.238 . S
O95 Co89 2.052 . S
O95 C91 1.241 . S
O96 Co84 2.137 . S
O96 C87 1.247 . S
O97 Co84 2.244 . S
O97 C87 1.272 . S
O97 Co89 2.135 . S
Co98 O99 2.216 . S
Co98 O100 2.091 . S
Co98 O102 2.004 1_455 S
Co98 O108 2.021 . S
Co98 O110 2.137 . S
Co98 O111 2.244 1_455 S
O99 Co98 2.216 . S
O99 C106 1.247 . S
O100 Co98 2.091 . S
O100 C106 1.261 . S
C101 O110 1.247 . S
C101 O111 1.272 1_455 S
O102 Co98 2.004 1_655 S
O102 C107 1.259 . S
Co103 O104 2.061 . S
Co103 O109 2.052 . S
Co103 O111 2.135 . S
O104 Co103 2.061 . S
O104 C107 1.235 . S
C105 O108 1.238 1_655 S
C105 O109 1.241 . S
C106 O99 1.247 . S
C106 O100 1.261 . S
C107 O102 1.259 . S
C107 O104 1.235 . S
O108 Co98 2.021 . S
O108 C105 1.238 1_455 S
O109 Co103 2.052 . S
O109 C105 1.241 . S
O110 Co98 2.137 . S
O110 C101 1.247 . S
O111 Co98 2.244 1_655 S
O111 C101 1.272 1_655 S
O111 Co103 2.135 . S
Co112 O113 2.216 . S
Co112 O114 2.091 . S
Co112 O116 2.004 1_545 S
Co112 O122 2.021 . S
Co112 O124 2.137 . S
Co112 O125 2.244 . S
O113 Co112 2.216 . S
O113 C120 1.247 . S
O114 Co112 2.091 . S
O114 C120 1.261 . S
C115 O124 1.247 . S
C115 O125 1.272 . S
O116 Co112 2.004 1_565 S
O116 C121 1.259 . S
Co117 O118 2.061 . S
Co117 O123 2.052 1_565 S
Co117 O125 2.135 1_565 S
O118 Co117 2.061 . S
O118 C121 1.235 . S
C119 O122 1.238 . S
C119 O123 1.241 . S
C120 O113 1.247 . S
C120 O114 1.261 . S
C121 O116 1.259 . S
C121 O118 1.235 . S
O122 Co112 2.021 . S
O122 C119 1.238 . S
O123 Co117 2.052 1_545 S
O123 C119 1.241 . S
O124 Co112 2.137 . S
O124 C115 1.247 . S
O125 Co112 2.244 . S
O125 C115 1.272 . S
O125 Co117 2.135 1_545 S
Co126 O127 2.216 . S
Co126 O128 2.091 . S
Co126 O130 2.004 . S
Co126 O136 2.021 . S
Co126 O138 2.137 . S
Co126 O139 2.244 . S
O127 Co126 2.216 . S
O127 C134 1.247 . S
O128 Co126 2.091 . S
O128 C134 1.261 . S
C129 O138 1.247 . S
C129 O139 1.272 . S
O130 Co126 2.004 . S
O130 C135 1.259 . S
Co131 O132 2.061 . S
Co131 O137 2.052 . S
Co131 O139 2.135 . S
O132 Co131 2.061 . S
O132 C135 1.235 . S
C133 O136 1.238 . S
C133 O137 1.241 . S
C134 O127 1.247 . S
C134 O128 1.261 . S
C135 O130 1.259 . S
C135 O132 1.235 . S
O136 Co126 2.021 . S
O136 C133 1.238 . S
O137 Co131 2.052 . S
O137 C133 1.241 . S
O138 Co126 2.137 . S
O138 C129 1.247 . S
O139 Co126 2.244 . S
O139 C129 1.272 . S
O139 Co131 2.135 . S
Co140 O141 2.216 1_545 S
Co140 O142 2.091 1_545 S
Co140 O144 2.004 . S
Co140 O150 2.021 . S
Co140 O152 2.137 . S
Co140 O153 2.244 . S
O141 Co140 2.216 1_565 S
O141 C148 1.247 . S
O142 Co140 2.091 1_565 S
O142 C148 1.261 . S
C143 O152 1.247 . S
C143 O153 1.272 . S
O144 Co140 2.004 . S
O144 C149 1.259 . S
Co145 O146 2.061 . S
Co145 O151 2.052 . S
Co145 O153 2.135 . S
O146 Co145 2.061 . S
O146 C149 1.235 . S
C147 O150 1.238 . S
C147 O151 1.241 . S
C148 O141 1.247 . S
C148 O142 1.261 . S
C149 O144 1.259 . S
C149 O146 1.235 . S
O150 Co140 2.021 . S
O150 C147 1.238 . S
O151 Co145 2.052 . S
O151 C147 1.241 . S
O152 Co140 2.137 . S
O152 C143 1.247 . S
O153 Co140 2.244 . S
O153 C143 1.272 . S
O153 Co145 2.135 . S
Co154 O155 2.216 . S
Co154 O156 2.091 . S
Co154 O158 2.004 . S
Co154 O164 2.021 . S
Co154 O166 2.137 1_554 S
Co154 O167 2.244 1_554 S
O155 Co154 2.216 . S
O155 C162 1.247 . S
O156 Co154 2.091 . S
O156 C162 1.261 . S
C157 O166 1.247 . S
C157 O167 1.272 . S
O158 Co154 2.004 . S
O158 C163 1.259 . S
Co159 O160 2.061 . S
Co159 O165 2.052 . S
Co159 O167 2.135 1_554 S
O160 Co159 2.061 . S
O160 C163 1.235 . S
C161 O164 1.238 . S
C161 O165 1.241 . S
C162 O155 1.247 . S
C162 O156 1.261 . S
C163 O158 1.259 . S
C163 O160 1.235 . S
O164 Co154 2.021 . S
O164 C161 1.238 . S
O165 Co159 2.052 . S
O165 C161 1.241 . S
O166 Co154 2.137 1_556 S
O166 C157 1.247 . S
O167 Co154 2.244 1_556 S
O167 C157 1.272 . S
O167 Co159 2.135 1_556 S
Co168 O169 2.216 . S
Co168 O170 2.091 . S
Co168 O172 2.004 . S
Co168 O178 2.021 . S
Co168 O180 2.137 1_554 S
Co168 O181 2.244 . S
O169 Co168 2.216 . S
O169 C176 1.247 . S
O170 Co168 2.091 . S
O170 C176 1.261 . S
C171 O180 1.247 . S
C171 O181 1.272 1_556 S
O172 Co168 2.004 . S
O172 C177 1.259 . S
Co173 O174 2.061 . S
Co173 O179 2.052 . S
Co173 O181 2.135 . S
O174 Co173 2.061 . S
O174 C177 1.235 . S
C175 O178 1.238 . S
C175 O179 1.241 . S
C176 O169 1.247 . S
C176 O170 1.261 . S
C177 O172 1.259 . S
C177 O174 1.235 . S
O178 Co168 2.021 . S
O178 C175 1.238 . S
O179 Co173 2.052 . S
O179 C175 1.241 . S
O180 Co168 2.137 1_556 S
O180 C171 1.247 . S
O181 Co168 2.244 . S
O181 C171 1.272 1_554 S
O181 Co173 2.135 . S
Co182 O183 2.216 . S
Co182 O184 2.091 . S
Co182 O186 2.004 . S
Co182 O192 2.021 . S
Co182 O194 2.137 1_554 S
Co182 O195 2.244 . S
O183 Co182 2.216 . S
O183 C190 1.247 . S
O184 Co182 2.091 . S
O184 C190 1.261 . S
C185 O194 1.247 . S
C185 O195 1.272 1_556 S
O186 Co182 2.004 . S
O186 C191 1.259 . S
Co187 O188 2.061 . S
Co187 O193 2.052 . S
Co187 O195 2.135 . S
O188 Co187 2.061 . S
O188 C191 1.235 . S
C189 O192 1.238 . S
C189 O193 1.241 . S
C190 O183 1.247 . S
C190 O184 1.261 . S
C191 O186 1.259 . S
C191 O188 1.235 . S
O192 Co182 2.021 . S
O192 C189 1.238 . S
O193 Co187 2.052 . S
O193 C189 1.241 . S
O194 Co182 2.137 1_556 S
O194 C185 1.247 . S
O195 Co182 2.244 . S
O195 C185 1.272 1_554 S
O195 Co187 2.135 . S
Co196 O197 2.216 . S
Co196 O198 2.091 . S
Co196 O200 2.004 . S
Co196 O206 2.021 . S
Co196 O208 2.137 . S
Co196 O209 2.244 . S
O197 Co196 2.216 . S
O197 C204 1.247 . S
O198 Co196 2.091 . S
O198 C204 1.261 . S
C199 O208 1.247 . S
C199 O209 1.272 . S
O200 Co196 2.004 . S
O200 C205 1.259 . S
Co201 O202 2.061 . S
Co201 O207 2.052 . S
Co201 O209 2.135 . S
O202 Co201 2.061 . S
O202 C205 1.235 . S
C203 O206 1.238 . S
C203 O207 1.241 . S
C204 O197 1.247 . S
C204 O198 1.261 . S
C205 O200 1.259 . S
C205 O202 1.235 . S
O206 Co196 2.021 . S
O206 C203 1.238 . S
O207 Co201 2.052 . S
O207 C203 1.241 . S
O208 Co196 2.137 . S
O208 C199 1.247 . S
O209 Co196 2.244 . S
O209 C199 1.272 . S
O209 Co201 2.135 . S
Co210 O211 2.216 . S
Co210 O212 2.091 . S
Co210 O214 2.004 . S
Co210 O220 2.021 . S
Co210 O222 2.137 . S
Co210 O223 2.244 . S
O211 Co210 2.216 . S
O211 C218 1.247 . S
O212 Co210 2.091 . S
O212 C218 1.261 . S
C213 O222 1.247 . S
C213 O223 1.272 . S
O214 Co210 2.004 . S
O214 C219 1.259 . S
Co215 O216 2.061 . S
Co215 O221 2.052 . S
Co215 O223 2.135 . S
O216 Co215 2.061 . S
O216 C219 1.235 . S
C217 O220 1.238 . S
C217 O221 1.241 . S
C218 O211 1.247 . S
C218 O212 1.261 . S
C219 O214 1.259 . S
C219 O216 1.235 . S
O220 Co210 2.021 . S
O220 C217 1.238 . S
O221 Co215 2.052 . S
O221 C217 1.241 . S
O222 Co210 2.137 . S
O222 C213 1.247 . S
O223 Co210 2.244 . S
O223 C213 1.272 . S
O223 Co215 2.135 . S
Co224 O225 2.216 . S
Co224 O226 2.091 . S
Co224 O228 2.004 1_545 S
Co224 O234 2.021 . S
Co224 O236 2.137 . S
Co224 O237 2.244 . S
O225 Co224 2.216 . S
O225 C232 1.247 . S
O226 Co224 2.091 . S
O226 C232 1.261 . S
C227 O236 1.247 . S
C227 O237 1.272 . S
O228 Co224 2.004 1_565 S
O228 C233 1.259 . S
Co229 O230 2.061 . S
Co229 O235 2.052 . S
Co229 O237 2.135 1_565 S
O230 Co229 2.061 . S
O230 C233 1.235 . S
C231 O234 1.238 . S
C231 O235 1.241 1_545 S
C232 O225 1.247 . S
C232 O226 1.261 . S
C233 O228 1.259 . S
C233 O230 1.235 . S
O234 Co224 2.021 . S
O234 C231 1.238 . S
O235 Co229 2.052 . S
O235 C231 1.241 1_565 S
O236 Co224 2.137 . S
O236 C227 1.247 . S
O237 Co224 2.244 . S
O237 C227 1.272 . S
O237 Co229 2.135 1_545 S
Co238 O239 2.216 . S
Co238 O240 2.091 . S
Co238 O242 2.004 . S
Co238 O248 2.021 . S
Co238 O250 2.137 . S
Co238 O251 2.244 . S
O239 Co238 2.216 . S
O239 C246 1.247 . S
O240 Co238 2.091 . S
O240 C246 1.261 . S
C241 O250 1.247 . S
C241 O251 1.272 . S
O242 Co238 2.004 . S
O242 C247 1.259 . S
Co243 O244 2.061 . S
Co243 O249 2.052 . S
Co243 O251 2.135 . S
O244 Co243 2.061 . S
O244 C247 1.235 . S
C245 O248 1.238 . S
C245 O249 1.241 . S
C246 O239 1.247 . S
C246 O240 1.261 . S
C247 O242 1.259 . S
C247 O244 1.235 . S
O248 Co238 2.021 . S
O248 C245 1.238 . S
O249 Co243 2.052 . S
O249 C245 1.241 . S
O250 Co238 2.137 . S
O250 C241 1.247 . S
O251 Co238 2.244 . S
O251 C241 1.272 . S
O251 Co243 2.135 . S
Co252 O253 2.216 . S
Co252 O254 2.091 . S
Co252 O256 2.004 . S
Co252 O262 2.021 . S
Co252 O264 2.137 . S
Co252 O265 2.244 . S
O253 Co252 2.216 . S
O253 C260 1.247 . S
O254 Co252 2.091 . S
O254 C260 1.261 . S
C255 O264 1.247 . S
C255 O265 1.272 . S
O256 Co252 2.004 . S
O256 C261 1.259 . S
Co257 O258 2.061 . S
Co257 O263 2.052 . S
Co257 O265 2.135 . S
O258 Co257 2.061 . S
O258 C261 1.235 . S
C259 O262 1.238 . S
C259 O263 1.241 . S
C260 O253 1.247 . S
C260 O254 1.261 . S
C261 O256 1.259 . S
C261 O258 1.235 . S
O262 Co252 2.021 . S
O262 C259 1.238 . S
O263 Co257 2.052 . S
O263 C259 1.241 . S
O264 Co252 2.137 . S
O264 C255 1.247 . S
O265 Co252 2.244 . S
O265 C255 1.272 . S
O265 Co257 2.135 . S
Co266 O267 2.216 . S
Co266 O268 2.091 . S
Co266 O270 2.004 1_565 S
Co266 O276 2.021 . S
Co266 O278 2.137 . S
Co266 O279 2.244 1_565 S
O267 Co266 2.216 . S
O267 C274 1.247 . S
O268 Co266 2.091 . S
O268 C274 1.261 . S
C269 O278 1.233 1_545 S
C269 O279 1.284 . S
O270 Co266 2.004 1_545 S
O270 C275 1.259 . S
Co271 O272 2.061 . S
Co271 O277 2.052 . S
Co271 O279 2.135 . S
O272 Co271 2.061 . S
O272 C275 1.235 . S
C273 O276 1.249 . S
C273 O277 1.226 1_565 S
C274 O267 1.247 . S
C274 O268 1.261 . S
C275 O270 1.259 . S
C275 O272 1.235 . S
O276 Co266 2.021 . S
O276 C273 1.249 . S
O277 Co271 2.052 . S
O277 C273 1.226 1_545 S
O278 Co266 2.137 . S
O278 C269 1.233 1_565 S
O279 Co266 2.244 1_545 S
O279 C269 1.284 . S
O279 Co271 2.135 . S
Co280 O281 2.216 1_556 S
Co280 O282 2.095 . S
Co280 O284 2.004 . S
Co280 O290 2.021 1_556 S
Co280 O292 2.137 . S
Co280 O293 2.244 . S
O281 Co280 2.216 1_554 S
O281 C288 1.247 . S
O282 Co280 2.095 . S
O282 C288 1.264 1_556 S
C283 O292 1.247 . S
C283 O293 1.272 . S
O284 Co280 2.004 . S
O284 C289 1.259 . S
Co285 O286 2.063 1_554 S
Co285 O291 2.064 . S
Co285 O293 2.126 1_554 S
O286 Co285 2.063 1_556 S
O286 C289 1.235 . S
C287 O290 1.238 . S
C287 O291 1.241 . S
C288 O281 1.247 . S
C288 O282 1.264 1_554 S
C289 O284 1.259 . S
C289 O286 1.235 . S
O290 Co280 2.021 1_554 S
O290 C287 1.238 . S
O291 Co285 2.064 . S
O291 C287 1.241 . S
O292 Co280 2.137 . S
O292 C283 1.247 . S
O293 Co280 2.244 . S
O293 C283 1.272 . S
O293 Co285 2.126 1_556 S
Co294 O295 2.216 . S
Co294 O296 2.091 . S
Co294 O298 2.004 . S
Co294 O304 2.021 . S
Co294 O306 2.137 . S
Co294 O307 2.244 . S
O295 Co294 2.216 . S
O295 C302 1.247 . S
O296 Co294 2.091 . S
O296 C302 1.261 . S
C297 O306 1.247 . S
C297 O307 1.272 . S
O298 Co294 2.004 . S
O298 C303 1.259 . S
Co299 O300 2.061 . S
Co299 O305 2.052 . S
Co299 O307 2.135 . S
O300 Co299 2.061 . S
O300 C303 1.235 . S
C301 O304 1.238 . S
C301 O305 1.241 . S
C302 O295 1.247 . S
C302 O296 1.261 . S
C303 O298 1.259 . S
C303 O300 1.235 . S
O304 Co294 2.021 . S
O304 C301 1.238 . S
O305 Co299 2.052 . S
O305 C301 1.241 . S
O306 Co294 2.137 . S
O306 C297 1.247 . S
O307 Co294 2.244 . S
O307 C297 1.272 . S
O307 Co299 2.135 . S
Co308 O309 2.216 . S
Co308 O310 2.091 . S
Co308 O312 2.004 . S
Co308 O318 2.021 . S
Co308 O320 2.137 . S
Co308 O321 2.244 . S
O309 Co308 2.216 . S
O309 C316 1.247 . S
O310 Co308 2.091 . S
O310 C316 1.261 . S
C311 O320 1.247 . S
C311 O321 1.272 . S
O312 Co308 2.004 . S
O312 C317 1.259 . S
Co313 O314 2.061 . S
Co313 O319 2.052 . S
Co313 O321 2.135 . S
O314 Co313 2.061 . S
O314 C317 1.235 . S
C315 O318 1.238 . S
C315 O319 1.241 . S
C316 O309 1.247 . S
C316 O310 1.261 . S
C317 O312 1.259 . S
C317 O314 1.235 . S
O318 Co308 2.021 . S
O318 C315 1.238 . S
O319 Co313 2.052 . S
O319 C315 1.241 . S
O320 Co308 2.137 . S
O320 C311 1.247 . S
O321 Co308 2.244 . S
O321 C311 1.272 . S
O321 Co313 2.135 . S
Co322 O323 2.216 . S
Co322 O324 2.091 . S
Co322 O326 2.004 . S
Co322 O332 2.021 . S
Co322 O334 2.137 . S
Co322 O335 2.244 . S
O323 Co322 2.216 . S
O323 C330 1.247 . S
O324 Co322 2.091 . S
O324 C330 1.261 . S
C325 O334 1.247 . S
C325 O335 1.272 . S
O326 Co322 2.004 . S
O326 C331 1.259 . S
Co327 O328 2.061 . S
Co327 O333 2.052 . S
Co327 O335 2.135 . S
O328 Co327 2.061 . S
O328 C331 1.235 . S
C329 O332 1.238 . S
C329 O333 1.241 . S
C330 O323 1.247 . S
C330 O324 1.261 . S
C331 O326 1.259 . S
C331 O328 1.235 . S
O332 Co322 2.021 . S
O332 C329 1.238 . S
O333 Co327 2.052 . S
O333 C329 1.241 . S
O334 Co322 2.137 . S
O334 C325 1.247 . S
O335 Co322 2.244 . S
O335 C325 1.272 . S
O335 Co327 2.135 . S
Zn336 O342 1.969 . S
Zn336 O343 1.965 1_565 S
Zn336 O347 2.024 . S
Zn336 O352 1.954 1_565 S
Zn337 O344 1.969 1_654 S
Zn337 O350 1.969 1_554 S
Zn337 O351 1.965 . S
Zn337 O353 2.024 1_655 S
C338 O339 1.229 . S
C338 O347 1.058 . S
O339 C338 1.229 . S
C340 O341 1.229 1_454 S
C340 O353 1.058 . S
O341 C340 1.229 1_656 S
O342 Zn336 1.969 . S
O342 C345 1.267 . S
O343 Zn336 1.965 1_545 S
O343 C354 1.260 1_554 S
O344 Zn337 1.969 1_456 S
O344 C354 1.258 . S
C345 O342 1.267 . S
C345 O346 1.228 . S
O346 C345 1.228 . S
O347 Zn336 2.024 . S
O347 C338 1.058 . S
C348 O349 1.228 . S
C348 O350 1.267 1_554 S
O349 C348 1.228 . S
O350 Zn337 1.969 1_556 S
O350 C348 1.267 1_556 S
O351 Zn337 1.965 . S
O351 C355 1.260 1_655 S
O352 Zn336 1.954 1_545 S
O352 C355 1.283 . S
O353 Zn337 2.024 1_455 S
O353 C340 1.058 . S
C354 O343 1.260 1_556 S
C354 O344 1.258 . S
C355 O351 1.260 1_455 S
C355 O352 1.283 . S
Zn356 O362 1.969 . S
Zn356 O363 1.965 . S
Zn356 O367 2.024 . S
Zn356 O372 1.969 . S
Zn357 O364 1.969 . S
Zn357 O370 1.969 . S
Zn357 O371 1.965 . S
Zn357 O373 2.024 . S
C358 O359 1.229 . S
C358 O367 1.058 . S
O359 C358 1.229 . S
C360 O361 1.229 . S
C360 O373 1.058 . S
O361 C360 1.229 . S
O362 Zn356 1.969 . S
O362 C365 1.267 . S
O363 Zn356 1.965 . S
O363 C374 1.260 . S
O364 Zn357 1.969 . S
O364 C374 1.258 . S
C365 O362 1.267 . S
C365 O366 1.228 . S
O366 C365 1.228 . S
O367 Zn356 2.024 . S
O367 C358 1.058 . S
C368 O369 1.228 . S
C368 O370 1.267 . S
O369 C368 1.228 . S
O370 Zn357 1.969 . S
O370 C368 1.267 . S
O371 Zn357 1.965 . S
O371 C375 1.260 . S
O372 Zn356 1.969 . S
O372 C375 1.258 . S
O373 Zn357 2.024 . S
O373 C360 1.058 . S
C374 O363 1.260 . S
C374 O364 1.258 . S
C375 O371 1.260 . S
C375 O372 1.258 . S
Zn376 O382 1.969 . S
Zn376 O383 1.965 . S
Zn376 O387 2.024 . S
Zn376 O392 1.969 . S
Zn377 O384 1.969 . S
Zn377 O390 1.969 . S
Zn377 O391 1.965 1_565 S
Zn377 O393 2.024 . S
C378 O379 1.229 . S
C378 O387 1.058 . S
O379 C378 1.229 . S
C380 O381 1.229 . S
C380 O393 1.058 . S
O381 C380 1.229 . S
O382 Zn376 1.969 . S
O382 C385 1.267 . S
O383 Zn376 1.965 . S
O383 C394 1.260 . S
O384 Zn377 1.969 . S
O384 C394 1.258 1_565 S
C385 O382 1.267 . S
C385 O386 1.228 . S
O386 C385 1.228 . S
O387 Zn376 2.024 . S
O387 C378 1.058 . S
C388 O389 1.228 . S
C388 O390 1.267 . S
O389 C388 1.228 . S
O390 Zn377 1.969 . S
O390 C388 1.267 . S
O391 Zn377 1.965 1_545 S
O391 C395 1.260 . S
O392 Zn376 1.969 . S
O392 C395 1.258 . S
O393 Zn377 2.024 . S
O393 C380 1.058 . S
C394 O383 1.260 . S
C394 O384 1.258 1_545 S
C395 O391 1.260 . S
C395 O392 1.258 . S
Zn396 O402 1.969 . S
Zn396 O403 1.965 . S
Zn396 O407 2.024 . S
Zn396 O412 1.969 . S
Zn397 O404 1.969 . S
Zn397 O410 1.969 . S
Zn397 O411 1.965 . S
Zn397 O413 2.024 . S
C398 O399 1.229 . S
C398 O407 1.058 . S
O399 C398 1.229 . S
C400 O401 1.229 . S
C400 O413 1.058 . S
O401 C400 1.229 . S
O402 Zn396 1.969 . S
O402 C405 1.267 . S
O403 Zn396 1.965 . S
O403 C414 1.260 . S
O404 Zn397 1.969 . S
O404 C414 1.258 . S
C405 O402 1.267 . S
C405 O406 1.228 . S
O406 C405 1.228 . S
O407 Zn396 2.024 . S
O407 C398 1.058 . S
C408 O409 1.228 . S
C408 O410 1.267 . S
O409 C408 1.228 . S
O410 Zn397 1.969 . S
O410 C408 1.267 . S
O411 Zn397 1.965 . S
O411 C415 1.260 . S
O412 Zn396 1.969 . S
O412 C415 1.258 . S
O413 Zn397 2.024 . S
O413 C400 1.058 . S
C414 O403 1.260 . S
C414 O404 1.258 . S
C415 O411 1.260 . S
C415 O412 1.258 . S
Zn416 O422 1.969 . S
Zn416 O423 1.965 1_455 S
Zn416 O427 2.024 1_565 S
Zn416 O432 1.969 1_565 S
Zn417 O424 1.969 1_455 S
Zn417 O430 1.969 1_455 S
Zn417 O431 1.965 . S
Zn417 O433 2.024 . S
C418 O419 1.229 1_545 S
C418 O427 1.058 . S
O419 C418 1.229 1_565 S
C420 O421 1.229 . S
C420 O433 1.058 1_655 S
O421 C420 1.229 . S
O422 Zn416 1.969 . S
O422 C425 1.267 . S
O423 Zn416 1.965 1_655 S
O423 C434 1.260 . S
O424 Zn417 1.969 1_655 S
O424 C434 1.258 1_545 S
C425 O422 1.267 . S
C425 O426 1.228 . S
O426 C425 1.228 . S
O427 Zn416 2.024 1_545 S
O427 C418 1.058 . S
C428 O429 1.228 . S
C428 O430 1.267 1_455 S
O429 C428 1.228 . S
O430 Zn417 1.969 1_655 S
O430 C428 1.267 1_655 S
O431 Zn417 1.965 . S
O431 C435 1.260 . S
O432 Zn416 1.969 1_545 S
O432 C435 1.258 . S
O433 Zn417 2.024 . S
O433 C420 1.058 1_455 S
C434 O423 1.260 . S
C434 O424 1.258 1_565 S
C435 O431 1.260 . S
C435 O432 1.258 . S
Zn436 O442 1.969 . S
Zn436 O443 1.965 . S
Zn436 O447 2.024 . S
Zn436 O452 1.969 . S
Zn437 O444 1.969 . S
Zn437 O450 1.969 . S
Zn437 O451 1.965 . S
Zn437 O453 2.024 . S
C438 O439 1.229 . S
C438 O447 1.058 . S
O439 C438 1.229 . S
C440 O441 1.229 . S
C440 O453 1.058 . S
O441 C440 1.229 . S
O442 Zn436 1.969 . S
O442 C445 1.267 . S
O443 Zn436 1.965 . S
O443 C454 1.260 . S
O444 Zn437 1.969 . S
O444 C454 1.258 . S
C445 O442 1.267 . S
C445 O446 1.228 . S
O446 C445 1.228 . S
O447 Zn436 2.024 . S
O447 C438 1.058 . S
C448 O449 1.228 . S
C448 O450 1.267 . S
O449 C448 1.228 . S
O450 Zn437 1.969 . S
O450 C448 1.267 . S
O451 Zn437 1.965 . S
O451 C455 1.260 . S
O452 Zn436 1.969 . S
O452 C455 1.258 . S
O453 Zn437 2.024 . S
O453 C440 1.058 . S
C454 O443 1.260 . S
C454 O444 1.258 . S
C455 O451 1.260 . S
C455 O452 1.258 . S
Zn456 O462 1.969 . S
Zn456 O463 1.965 1_545 S
Zn456 O467 2.024 1_556 S
Zn456 O472 1.969 1_556 S
Zn457 O464 1.969 . S
Zn457 O470 1.969 . S
Zn457 O471 1.965 1_565 S
Zn457 O473 2.024 . S
C458 O459 1.229 . S
C458 O467 1.058 . S
O459 C458 1.229 . S
C460 O461 1.229 . S
C460 O473 1.058 . S
O461 C460 1.229 . S
O462 Zn456 1.969 . S
O462 C465 1.267 . S
O463 Zn456 1.965 1_565 S
O463 C474 1.260 1_556 S
O464 Zn457 1.969 . S
O464 C474 1.258 . S
C465 O462 1.267 . S
C465 O466 1.228 . S
O466 C465 1.228 . S
O467 Zn456 2.024 1_554 S
O467 C458 1.058 . S
C468 O469 1.234 . S
C468 O470 1.263 1_545 S
O469 C468 1.234 . S
O470 Zn457 1.969 . S
O470 C468 1.263 1_565 S
O471 Zn457 1.965 1_545 S
O471 C475 1.260 . S
O472 Zn456 1.969 1_554 S
O472 C475 1.258 . S
O473 Zn457 2.024 . S
O473 C460 1.058 . S
C474 O463 1.260 1_554 S
C474 O464 1.258 . S
C475 O471 1.260 . S
C475 O472 1.258 . S
Zn476 O482 1.969 . S
Zn476 O483 1.965 . S
Zn476 O487 2.024 . S
Zn476 O492 1.969 . S
Zn477 O484 1.969 . S
Zn477 O490 1.969 . S
Zn477 O491 1.965 . S
Zn477 O493 2.024 . S
C478 O479 1.229 . S
C478 O487 1.058 . S
O479 C478 1.229 . S
C480 O481 1.229 . S
C480 O493 1.058 . S
O481 C480 1.229 . S
O482 Zn476 1.969 . S
O482 C485 1.267 . S
O483 Zn476 1.965 . S
O483 C494 1.260 . S
O484 Zn477 1.969 . S
O484 C494 1.258 . S
C485 O482 1.267 . S
C485 O486 1.228 . S
O486 C485 1.228 . S
O487 Zn476 2.024 . S
O487 C478 1.058 . S
C488 O489 1.228 . S
C488 O490 1.267 . S
O489 C488 1.228 . S
O490 Zn477 1.969 . S
O490 C488 1.267 . S
O491 Zn477 1.965 . S
O491 C495 1.260 . S
O492 Zn476 1.969 . S
O492 C495 1.258 . S
O493 Zn477 2.024 . S
O493 C480 1.058 . S
C494 O483 1.260 . S
C494 O484 1.258 . S
C495 O491 1.260 . S
C495 O492 1.258 . S
Zn496 O502 1.969 . S
Zn496 O503 1.965 . S
Zn496 O507 2.024 . S
Zn496 O512 1.969 . S
Zn497 O504 1.969 1_556 S
Zn497 O510 1.969 1_556 S
Zn497 O511 1.965 1_556 S
Zn497 O513 2.024 . S
C498 O499 1.229 . S
C498 O507 1.058 . S
O499 C498 1.229 . S
C500 O501 1.229 . S
C500 O513 1.058 . S
O501 C500 1.229 . S
O502 Zn496 1.969 . S
O502 C505 1.267 . S
O503 Zn496 1.965 . S
O503 C514 1.260 . S
O504 Zn497 1.969 1_554 S
O504 C514 1.258 . S
C505 O502 1.267 . S
C505 O506 1.228 . S
O506 C505 1.228 . S
O507 Zn496 2.024 . S
O507 C498 1.058 . S
C508 O509 1.228 . S
C508 O510 1.267 1_556 S
O509 C508 1.228 . S
O510 Zn497 1.969 1_554 S
O510 C508 1.267 1_554 S
O511 Zn497 1.965 1_554 S
O511 C515 1.260 . S
O512 Zn496 1.969 . S
O512 C515 1.258 . S
O513 Zn497 2.024 . S
O513 C500 1.058 . S
C514 O503 1.260 . S
C514 O504 1.258 . S
C515 O511 1.260 . S
C515 O512 1.258 . S
Zn516 O522 1.969 . S
Zn516 O523 1.965 . S
Zn516 O527 2.024 . S
Zn516 O532 1.969 . S
Zn517 O524 1.969 . S
Zn517 O530 1.969 . S
Zn517 O531 1.965 . S
Zn517 O533 2.024 . S
C518 O519 1.229 . S
C518 O527 1.058 . S
O519 C518 1.229 . S
C520 O521 1.229 . S
C520 O533 1.058 . S
O521 C520 1.229 . S
O522 Zn516 1.969 . S
O522 C525 1.267 . S
O523 Zn516 1.965 . S
O523 C534 1.260 . S
O524 Zn517 1.969 . S
O524 C534 1.258 . S
C525 O522 1.267 . S
C525 O526 1.228 . S
O526 C525 1.228 . S
O527 Zn516 2.024 . S
O527 C518 1.058 . S
C528 O529 1.228 . S
C528 O530 1.267 . S
O529 C528 1.228 . S
O530 Zn517 1.969 . S
O530 C528 1.267 . S
O531 Zn517 1.965 . S
O531 C535 1.260 . S
O532 Zn516 1.969 . S
O532 C535 1.258 . S
O533 Zn517 2.024 . S
O533 C520 1.058 . S
C534 O523 1.260 . S
C534 O524 1.258 . S
C535 O531 1.260 . S
C535 O532 1.258 . S
Zn536 O542 1.969 . S
Zn536 O543 1.965 . S
Zn536 O547 2.024 . S
Zn536 O552 1.969 . S
Zn537 O544 1.951 1_655 S
Zn537 O550 1.969 . S
Zn537 O551 1.965 1_655 S
Zn537 O553 2.024 . S
C538 O539 1.229 . S
C538 O547 1.058 . S
O539 C538 1.229 . S
C540 O541 1.229 . S
C540 O553 1.058 . S
O541 C540 1.229 . S
O542 Zn536 1.969 . S
O542 C545 1.267 . S
O543 Zn536 1.965 . S
O543 C554 1.260 . S
O544 Zn537 1.951 1_455 S
O544 C554 1.280 . S
C545 O542 1.267 . S
C545 O546 1.228 . S
O546 C545 1.228 . S
O547 Zn536 2.024 . S
O547 C538 1.058 . S
C548 O549 1.228 . S
C548 O550 1.267 . S
O549 C548 1.228 . S
O550 Zn537 1.969 . S
O550 C548 1.267 . S
O551 Zn537 1.965 1_455 S
O551 C555 1.260 . S
O552 Zn536 1.969 . S
O552 C555 1.258 . S
O553 Zn537 2.024 . S
O553 C540 1.058 . S
C554 O543 1.260 . S
C554 O544 1.280 . S
C555 O551 1.260 . S
C555 O552 1.258 . S
Zn556 O562 1.969 . S
Zn556 O563 1.965 . S
Zn556 O567 2.024 . S
Zn556 O572 1.969 . S
Zn557 O564 1.969 . S
Zn557 O570 1.969 . S
Zn557 O571 1.965 . S
Zn557 O573 2.024 . S
C558 O559 1.229 . S
C558 O567 1.058 . S
O559 C558 1.229 . S
C560 O561 1.229 . S
C560 O573 1.058 . S
O561 C560 1.229 . S
O562 Zn556 1.969 . S
O562 C565 1.267 . S
O563 Zn556 1.965 . S
O563 C574 1.260 . S
O564 Zn557 1.969 . S
O564 C574 1.258 . S
C565 O562 1.267 . S
C565 O566 1.228 . S
O566 C565 1.228 . S
O567 Zn556 2.024 . S
O567 C558 1.058 . S
C568 O569 1.228 . S
C568 O570 1.267 . S
O569 C568 1.228 . S
O570 Zn557 1.969 . S
O570 C568 1.267 . S
O571 Zn557 1.965 . S
O571 C575 1.260 . S
O572 Zn556 1.969 . S
O572 C575 1.258 . S
O573 Zn557 2.024 . S
O573 C560 1.058 . S
C574 O563 1.260 . S
C574 O564 1.258 . S
C575 O571 1.260 . S
C575 O572 1.258 . S
Zn576 O582 1.969 . S
Zn576 O583 1.965 . S
Zn576 O587 2.024 . S
Zn576 O592 1.969 . S
Zn577 O584 1.969 . S
Zn577 O590 1.969 . S
Zn577 O591 1.965 . S
Zn577 O593 2.024 . S
C578 O579 1.229 . S
C578 O587 1.058 . S
O579 C578 1.229 . S
C580 O581 1.229 . S
C580 O593 1.058 . S
O581 C580 1.229 . S
O582 Zn576 1.969 . S
O582 C585 1.267 . S
O583 Zn576 1.965 . S
O583 C594 1.260 . S
O584 Zn577 1.969 . S
O584 C594 1.258 . S
C585 O582 1.267 . S
C585 O586 1.228 . S
O586 C585 1.228 . S
O587 Zn576 2.024 . S
O587 C578 1.058 . S
C588 O589 1.228 . S
C588 O590 1.267 . S
O589 C588 1.228 . S
O590 Zn577 1.969 . S
O590 C588 1.267 . S
O591 Zn577 1.965 . S
O591 C595 1.260 . S
O592 Zn576 1.969 . S
O592 C595 1.258 . S
O593 Zn577 2.024 . S
O593 C580 1.058 . S
C594 O583 1.260 . S
C594 O584 1.258 . S
C595 O591 1.260 . S
C595 O592 1.258 . S
Zn596 O602 1.969 . S
Zn596 O603 1.965 . S
Zn596 O607 2.024 . S
Zn596 O612 1.969 . S
Zn597 O604 1.969 . S
Zn597 O610 1.969 . S
Zn597 O611 1.965 . S
Zn597 O613 2.024 . S
C598 O599 1.229 . S
C598 O607 1.058 . S
O599 C598 1.229 . S
C600 O601 1.229 . S
C600 O613 1.058 . S
O601 C600 1.229 . S
O602 Zn596 1.969 . S
O602 C605 1.267 . S
O603 Zn596 1.965 . S
O603 C614 1.260 . S
O604 Zn597 1.969 . S
O604 C614 1.258 . S
C605 O602 1.267 . S
C605 O606 1.228 . S
O606 C605 1.228 . S
O607 Zn596 2.024 . S
O607 C598 1.058 . S
C608 O609 1.228 . S
C608 O610 1.267 . S
O609 C608 1.228 . S
O610 Zn597 1.969 . S
O610 C608 1.267 . S
O611 Zn597 1.965 . S
O611 C615 1.260 . S
O612 Zn596 1.969 . S
O612 C615 1.258 . S
O613 Zn597 2.024 . S
O613 C600 1.058 . S
C614 O603 1.260 . S
C614 O604 1.258 . S
C615 O611 1.260 . S
C615 O612 1.258 . S
Zn616 O622 1.969 . S
Zn616 O623 1.965 . S
Zn616 O627 2.024 . S
Zn616 O632 1.969 . S
Zn617 O624 1.969 . S
Zn617 O630 1.969 . S
Zn617 O631 1.965 . S
Zn617 O633 2.024 . S
C618 O619 1.229 . S
C618 O627 1.058 . S
O619 C618 1.229 . S
C620 O621 1.229 . S
C620 O633 1.058 . S
O621 C620 1.229 . S
O622 Zn616 1.969 . S
O622 C625 1.267 . S
O623 Zn616 1.965 . S
O623 C634 1.260 . S
O624 Zn617 1.969 . S
O624 C634 1.258 . S
C625 O622 1.267 . S
C625 O626 1.228 . S
O626 C625 1.228 . S
O627 Zn616 2.024 . S
O627 C618 1.058 . S
C628 O629 1.228 . S
C628 O630 1.267 . S
O629 C628 1.228 . S
O630 Zn617 1.969 . S
O630 C628 1.267 . S
O631 Zn617 1.965 . S
O631 C635 1.260 . S
O632 Zn616 1.969 . S
O632 C635 1.258 . S
O633 Zn617 2.024 . S
O633 C620 1.058 . S
C634 O623 1.260 . S
C634 O624 1.258 . S
C635 O631 1.260 . S
C635 O632 1.258 . S
Zn636 O642 1.969 . S
Zn636 O643 1.965 . S
Zn636 O647 2.024 1_655 S
Zn636 O652 1.969 1_655 S
Zn637 O644 1.969 1_554 S
Zn637 O650 1.969 . S
Zn637 O651 1.965 . S
Zn637 O653 2.024 . S
C638 O639 1.235 . S
C638 O647 1.058 . S
O639 C638 1.235 . S
C640 O641 1.229 . S
C640 O653 1.058 1_556 S
O641 C640 1.229 . S
O642 Zn636 1.969 . S
O642 C645 1.267 . S
O643 Zn636 1.965 . S
O643 C654 1.260 1_654 S
O644 Zn637 1.969 1_556 S
O644 C654 1.258 . S
C645 O642 1.267 . S
C645 O646 1.228 . S
O646 C645 1.228 . S
O647 Zn636 2.024 1_455 S
O647 C638 1.058 . S
C648 O649 1.228 . S
C648 O650 1.267 . S
O649 C648 1.228 . S
O650 Zn637 1.969 . S
O650 C648 1.267 . S
O651 Zn637 1.965 . S
O651 C655 1.260 . S
O652 Zn636 1.969 1_455 S
O652 C655 1.258 . S
O653 Zn637 2.024 . S
O653 C640 1.058 1_554 S
C654 O643 1.260 1_456 S
C654 O644 1.258 . S
C655 O651 1.260 . S
C655 O652 1.258 . S
C656 C657 1.387 . S
C656 H660 0.950 1_455 S
C656 C665 1.390 . S
C657 C656 1.387 . S
C657 C659 1.387 . S
H658 C665 0.950 . S
C659 C657 1.387 . S
C659 C661 1.390 1_556 S
C659 H663 0.950 . S
H660 C656 0.950 1_655 S
C661 C659 1.390 1_554 S
C661 C662 1.387 1_554 S
C661 H664 0.950 . S
C662 C661 1.387 1_556 S
C662 C665 1.387 . S
H663 C659 0.950 . S
H664 C661 0.950 . S
C665 C656 1.390 . S
C665 H658 0.950 . S
C665 C662 1.387 . S
C666 C667 1.387 . S
C666 H670 0.950 . S
C666 C675 1.390 . S
C667 C666 1.387 . S
C667 C669 1.387 . S
H668 C675 0.950 . S
C669 C667 1.387 . S
C669 C671 1.390 . S
C669 H673 0.950 . S
H670 C666 0.950 . S
C671 C669 1.390 . S
C671 C672 1.387 . S
C671 H674 0.950 . S
C672 C671 1.387 . S
C672 C675 1.387 . S
H673 C669 0.950 . S
H674 C671 0.950 . S
C675 C666 1.390 . S
C675 H668 0.950 . S
C675 C672 1.387 . S
C676 C677 1.387 . S
C676 H680 0.950 . S
C676 C685 1.390 . S
C677 C676 1.387 . S
C677 C679 1.387 . S
H678 C685 0.950 . S
C679 C677 1.387 . S
C679 C681 1.390 . S
C679 H683 0.950 . S
H680 C676 0.950 . S
C681 C679 1.390 . S
C681 C682 1.387 . S
C681 H684 0.950 . S
C682 C681 1.387 . S
C682 C685 1.387 . S
H683 C679 0.950 . S
H684 C681 0.950 . S
C685 C676 1.390 . S
C685 H678 0.950 . S
C685 C682 1.387 . S
C686 C687 1.387 . S
C686 H690 0.950 . S
C686 C695 1.390 . S
C687 C686 1.387 . S
C687 C689 1.387 . S
H688 C695 0.950 . S
C689 C687 1.387 . S
C689 C691 1.390 . S
C689 H693 0.950 . S
H690 C686 0.950 . S
C691 C689 1.390 . S
C691 C692 1.387 . S
C691 H694 0.950 . S
C692 C691 1.387 . S
C692 C695 1.387 . S
H693 C689 0.950 . S
H694 C691 0.950 . S
C695 C686 1.390 . S
C695 H688 0.950 . S
C695 C692 1.387 . S
C696 C697 1.387 1_655 S
C696 H700 0.950 . S
C696 C705 1.390 1_655 S
C697 C696 1.387 1_455 S
C697 C699 1.387 . S
H698 C705 0.950 1_655 S
C699 C697 1.387 . S
C699 C701 1.390 . S
C699 H703 0.950 . S
H700 C696 0.950 . S
C701 C699 1.390 . S
C701 C702 1.387 . S
C701 H704 0.950 . S
C702 C701 1.387 . S
C702 C705 1.387 . S
H703 C699 0.950 . S
H704 C701 0.950 . S
C705 C696 1.390 1_455 S
C705 H698 0.950 1_455 S
C705 C702 1.387 . S
C706 C707 1.387 . S
C706 H710 0.950 . S
C706 C715 1.390 . S
C707 C706 1.387 . S
C707 C709 1.387 . S
H708 C715 0.950 . S
C709 C707 1.387 . S
C709 C711 1.390 . S
C709 H713 0.950 . S
H710 C706 0.950 . S
C711 C709 1.390 . S
C711 C712 1.387 . S
C711 H714 0.950 . S
C712 C711 1.387 . S
C712 C715 1.387 . S
H713 C709 0.950 . S
H714 C711 0.950 . S
C715 C706 1.390 . S
C715 H708 0.950 . S
C715 C712 1.387 . S
C716 C717 1.387 . S
C716 H720 0.950 . S
C716 C725 1.390 . S
C717 C716 1.387 . S
C717 C719 1.387 . S
H718 C725 0.950 . S
C719 C717 1.387 . S
C719 C721 1.390 . S
C719 H723 0.950 . S
H720 C716 0.950 . S
C721 C719 1.390 . S
C721 C722 1.387 . S
C721 H724 0.950 . S
C722 C721 1.387 . S
C722 C725 1.387 . S
H723 C719 0.950 . S
H724 C721 0.950 . S
C725 C716 1.390 . S
C725 H718 0.950 . S
C725 C722 1.387 . S
C726 C727 1.387 . S
C726 H730 0.950 . S
C726 C735 1.390 . S
C727 C726 1.387 . S
C727 C729 1.387 . S
H728 C735 0.950 . S
C729 C727 1.387 . S
C729 C731 1.390 . S
C729 H733 0.950 . S
H730 C726 0.950 . S
C731 C729 1.390 . S
C731 C732 1.387 . S
C731 H734 0.950 . S
C732 C731 1.387 . S
C732 C735 1.387 . S
H733 C729 0.950 . S
H734 C731 0.950 . S
C735 C726 1.390 . S
C735 H728 0.950 . S
C735 C732 1.387 . S
C736 C737 1.387 . S
C736 H740 0.950 . S
C736 C745 1.390 . S
C737 C736 1.387 . S
C737 C739 1.387 1_545 S
H738 C745 0.950 . S
C739 C737 1.387 1_565 S
C739 C741 1.390 . S
C739 H743 0.950 . S
H740 C736 0.950 . S
C741 C739 1.390 . S
C741 C742 1.387 1_565 S
C741 H744 0.947 1_655 S
C742 C741 1.387 1_545 S
C742 C745 1.387 . S
H743 C739 0.950 . S
H744 C741 0.947 1_455 S
C745 C736 1.390 . S
C745 H738 0.950 . S
C745 C742 1.387 . S
C746 C747 1.387 . S
C746 H750 0.950 . S
C746 C755 1.390 . S
C747 C746 1.387 . S
C747 C749 1.387 . S
H748 C755 0.950 . S
C749 C747 1.387 . S
C749 C751 1.390 . S
C749 H753 0.950 . S
H750 C746 0.950 . S
C751 C749 1.390 . S
C751 C752 1.387 . S
C751 H754 0.950 . S
C752 C751 1.387 . S
C752 C755 1.387 . S
H753 C749 0.950 . S
H754 C751 0.950 . S
C755 C746 1.390 . S
C755 H748 0.950 . S
C755 C752 1.387 . S
C756 C757 1.387 1_545 S
C756 H760 0.950 . S
C756 C765 1.390 . S
C757 C756 1.387 1_565 S
C757 C759 1.387 . S
H758 C765 0.950 . S
C759 C757 1.387 . S
C759 C761 1.390 . S
C759 H763 0.950 . S
H760 C756 0.950 . S
C761 C759 1.390 . S
C761 C762 1.412 . S
C761 H764 0.950 . S
C762 C761 1.412 . S
C762 C765 1.370 1_565 S
H763 C759 0.950 . S
H764 C761 0.950 . S
C765 C756 1.390 . S
C765 H758 0.950 . S
C765 C762 1.370 1_545 S
C766 C767 1.387 . S
C766 H770 0.950 . S
C766 C775 1.390 . S
C767 C766 1.387 . S
C767 C769 1.387 . S
H768 C775 0.950 . S
C769 C767 1.387 . S
C769 C771 1.390 . S
C769 H773 0.950 . S
H770 C766 0.950 . S
C771 C769 1.390 . S
C771 C772 1.387 . S
C771 H774 0.950 . S
C772 C771 1.387 . S
C772 C775 1.387 . S
H773 C769 0.950 . S
H774 C771 0.950 . S
C775 C766 1.390 . S
C775 H768 0.950 . S
C775 C772 1.387 . S
C776 C777 1.387 1_565 S
C776 H780 0.950 . S
C776 C785 1.390 . S
C777 C776 1.387 1_545 S
C777 C779 1.387 . S
H778 C785 0.950 . S
C779 C777 1.387 . S
C779 C781 1.390 . S
C779 H783 0.950 . S
H780 C776 0.950 . S
C781 C779 1.390 . S
C781 C782 1.387 . S
C781 H784 0.950 . S
C782 C781 1.387 . S
C782 C785 1.387 1_545 S
H783 C779 0.950 . S
H784 C781 0.950 . S
C785 C776 1.390 . S
C785 H778 0.950 . S
C785 C782 1.387 1_565 S
C786 C787 1.387 . S
C786 H790 0.950 . S
C786 C795 1.390 . S
C787 C786 1.387 . S
C787 C789 1.387 . S
H788 C795 0.950 . S
C789 C787 1.387 . S
C789 C791 1.390 . S
C789 H793 0.950 . S
H790 C786 0.950 . S
C791 C789 1.390 . S
C791 C792 1.387 . S
C791 H794 0.950 . S
C792 C791 1.387 . S
C792 C795 1.387 . S
H793 C789 0.950 . S
H794 C791 0.950 . S
C795 C786 1.390 . S
C795 H788 0.950 . S
C795 C792 1.387 . S
C796 C797 1.387 1_565 S
C796 H800 0.950 . S
C796 C805 1.382 1_565 S
C797 C796 1.387 1_545 S
C797 C799 1.387 . S
H798 C805 0.937 1_565 S
C799 C797 1.387 . S
C799 C801 1.390 . S
C799 H803 0.950 . S
H800 C796 0.950 . S
C801 C799 1.390 . S
C801 C802 1.387 . S
C801 H804 0.950 . S
C802 C801 1.387 . S
C802 C805 1.408 . S
H803 C799 0.950 . S
H804 C801 0.950 . S
C805 C796 1.382 1_545 S
C805 H798 0.937 1_545 S
C805 C802 1.408 . S
C806 C807 1.387 . S
C806 H810 0.950 . S
C806 C815 1.390 . S
C807 C806 1.387 . S
C807 C809 1.387 . S
H808 C815 0.950 . S
C809 C807 1.387 . S
C809 C811 1.390 . S
C809 H813 0.950 . S
H810 C806 0.950 . S
C811 C809 1.390 . S
C811 C812 1.387 . S
C811 H814 0.950 . S
C812 C811 1.387 . S
C812 C815 1.387 . S
H813 C809 0.950 . S
H814 C811 0.950 . S
C815 C806 1.390 . S
C815 H808 0.950 . S
C815 C812 1.387 . S
C816 C817 1.387 . S
C816 H820 0.950 1_554 S
C816 C825 1.390 . S
C817 C816 1.387 . S
C817 C819 1.387 . S
H818 C825 0.950 . S
C819 C817 1.387 . S
C819 C821 1.390 . S
C819 H823 0.950 . S
H820 C816 0.950 1_556 S
C821 C819 1.390 . S
C821 C822 1.387 . S
C821 H824 0.950 . S
C822 C821 1.387 . S
C822 C825 1.387 . S
H823 C819 0.950 . S
H824 C821 0.950 . S
C825 C816 1.390 . S
C825 H818 0.950 . S
C825 C822 1.387 . S
C826 C827 1.387 . S
C826 H830 0.950 . S
C826 C835 1.390 . S
C827 C826 1.387 . S
C827 C829 1.387 1_556 S
H828 C835 0.950 . S
C829 C827 1.387 1_554 S
C829 C831 1.390 . S
C829 H833 0.950 . S
H830 C826 0.950 . S
C831 C829 1.390 . S
C831 C832 1.387 . S
C831 H834 0.950 . S
C832 C831 1.387 . S
C832 C835 1.387 1_554 S
H833 C829 0.950 . S
H834 C831 0.950 . S
C835 C826 1.390 . S
C835 H828 0.950 . S
C835 C832 1.387 1_556 S
C836 C837 1.387 . S
C836 H840 0.950 . S
C836 C845 1.390 . S
C837 C836 1.387 . S
C837 C839 1.387 . S
H838 C845 0.950 . S
C839 C837 1.387 . S
C839 C841 1.390 . S
C839 H843 0.950 . S
H840 C836 0.950 . S
C841 C839 1.390 . S
C841 C842 1.387 . S
C841 H844 0.950 . S
C842 C841 1.387 . S
C842 C845 1.387 . S
H843 C839 0.950 . S
H844 C841 0.950 . S
C845 C836 1.390 . S
C845 H838 0.950 . S
C845 C842 1.387 . S
C846 C847 1.387 . S
C846 H850 0.950 . S
C846 C855 1.390 . S
C847 C846 1.387 . S
C847 C849 1.387 . S
H848 C855 0.950 . S
C849 C847 1.387 . S
C849 C851 1.390 . S
C849 H853 0.950 . S
H850 C846 0.950 . S
C851 C849 1.390 . S
C851 C852 1.387 . S
C851 H854 0.950 . S
C852 C851 1.387 . S
C852 C855 1.387 . S
H853 C849 0.950 . S
H854 C851 0.950 . S
C855 C846 1.390 . S
C855 H848 0.950 . S
C855 C852 1.387 . S
C856 C857 1.387 . S
C856 H860 0.950 . S
C856 C865 1.390 . S
C857 C856 1.387 . S
C857 C859 1.387 . S
H858 C865 0.950 . S
C859 C857 1.387 . S
C859 C861 1.390 . S
C859 H863 0.950 . S
H860 C856 0.950 . S
C861 C859 1.390 . S
C861 C862 1.387 . S
C861 H864 0.950 . S
C862 C861 1.387 . S
C862 C865 1.387 . S
H863 C859 0.950 . S
H864 C861 0.950 . S
C865 C856 1.390 . S
C865 H858 0.950 . S
C865 C862 1.387 . S
C866 C867 1.387 . S
C866 H870 0.950 . S
C866 C875 1.390 . S
C867 C866 1.387 . S
C867 C869 1.387 . S
H868 C875 0.950 . S
C869 C867 1.387 . S
C869 C871 1.390 . S
C869 H873 0.950 . S
H870 C866 0.950 . S
C871 C869 1.390 . S
C871 C872 1.387 . S
C871 H874 0.950 . S
C872 C871 1.387 . S
C872 C875 1.387 . S
H873 C869 0.950 . S
H874 C871 0.950 . S
C875 C866 1.390 . S
C875 H868 0.950 . S
C875 C872 1.387 . S
C876 C877 1.387 . S
C876 H880 0.950 . S
C876 C885 1.390 . S
C877 C876 1.387 . S
C877 C879 1.387 . S
H878 C885 0.950 . S
C879 C877 1.387 . S
C879 C881 1.390 . S
C879 H883 0.950 . S
H880 C876 0.950 . S
C881 C879 1.390 . S
C881 C882 1.387 . S
C881 H884 0.950 . S
C882 C881 1.387 . S
C882 C885 1.387 . S
H883 C879 0.950 . S
H884 C881 0.950 . S
C885 C876 1.390 . S
C885 H878 0.950 . S
C885 C882 1.387 . S
C886 C887 1.387 . S
C886 H890 0.950 . S
C886 C895 1.390 . S
C887 C886 1.387 . S
C887 C889 1.387 . S
H888 C895 0.950 . S
C889 C887 1.387 . S
C889 C891 1.390 . S
C889 H893 0.950 . S
H890 C886 0.950 . S
C891 C889 1.390 . S
C891 C892 1.387 . S
C891 H894 0.950 . S
C892 C891 1.387 . S
C892 C895 1.387 . S
H893 C889 0.950 . S
H894 C891 0.950 . S
C895 C886 1.390 . S
C895 H888 0.950 . S
C895 C892 1.387 . S
C896 C897 1.387 . S
C896 H900 0.950 . S
C896 C905 1.390 . S
C897 C896 1.387 . S
C897 C899 1.387 . S
H898 C905 0.950 . S
C899 C897 1.387 . S
C899 C901 1.390 . S
C899 H903 0.950 . S
H900 C896 0.950 . S
C901 C899 1.390 . S
C901 C902 1.387 . S
C901 H904 0.959 . S
C902 C901 1.387 . S
C902 C905 1.387 . S
H903 C899 0.950 . S
H904 C901 0.959 . S
C905 C896 1.390 . S
C905 H898 0.950 . S
C905 C902 1.387 . S
C906 C907 1.387 . S
C906 H910 0.950 . S
C906 C915 1.390 . S
C907 C906 1.387 . S
C907 C909 1.387 . S
H908 C915 0.950 . S
C909 C907 1.387 . S
C909 C911 1.390 . S
C909 H913 0.950 . S
H910 C906 0.950 . S
C911 C909 1.390 . S
C911 C912 1.387 . S
C911 H914 0.950 . S
C912 C911 1.387 . S
C912 C915 1.387 . S
H913 C909 0.950 . S
H914 C911 0.950 . S
C915 C906 1.390 . S
C915 H908 0.950 . S
C915 C912 1.387 . S
C916 C917 1.387 . S
C916 H920 0.950 . S
C916 C925 1.390 . S
C917 C916 1.387 . S
C917 C919 1.387 . S
H918 C925 0.950 . S
C919 C917 1.387 . S
C919 C921 1.390 . S
C919 H923 0.950 . S
H920 C916 0.950 . S
C921 C919 1.390 . S
C921 C922 1.387 . S
C921 H924 0.950 . S
C922 C921 1.387 . S
C922 C925 1.387 . S
H923 C919 0.950 . S
H924 C921 0.950 . S
C925 C916 1.390 . S
C925 H918 0.950 . S
C925 C922 1.387 . S
C926 C927 1.387 . S
C926 H930 0.950 . S
C926 C935 1.390 . S
C927 C926 1.387 . S
C927 C929 1.387 . S
H928 C935 0.950 . S
C929 C927 1.387 . S
C929 C931 1.390 . S
C929 H933 0.950 . S
H930 C926 0.950 . S
C931 C929 1.390 . S
C931 C932 1.387 . S
C931 H934 0.950 . S
C932 C931 1.387 . S
C932 C935 1.387 . S
H933 C929 0.950 . S
H934 C931 0.950 . S
C935 C926 1.390 . S
C935 H928 0.950 . S
C935 C932 1.387 . S
C936 C937 1.387 . S
C936 H940 0.950 . S
C936 C945 1.390 . S
C937 C936 1.387 . S
C937 C939 1.387 1_455 S
H938 C945 0.950 . S
C939 C937 1.387 1_655 S
C939 C941 1.390 . S
C939 H943 0.950 . S
H940 C936 0.950 . S
C941 C939 1.390 . S
C941 C942 1.387 1_655 S
C941 H944 0.950 . S
C942 C941 1.387 1_455 S
C942 C945 1.387 . S
H943 C939 0.950 . S
H944 C941 0.950 . S
C945 C936 1.390 . S
C945 H938 0.950 . S
C945 C942 1.387 . S
C946 C947 1.387 . S
C946 H950 0.950 . S
C946 C955 1.390 . S
C947 C946 1.387 . S
C947 C949 1.387 . S
H948 C955 0.950 . S
C949 C947 1.387 . S
C949 C951 1.390 . S
C949 H953 0.950 . S
H950 C946 0.950 . S
C951 C949 1.390 . S
C951 C952 1.387 . S
C951 H954 0.950 . S
C952 C951 1.387 . S
C952 C955 1.387 . S
H953 C949 0.950 . S
H954 C951 0.950 . S
C955 C946 1.390 . S
C955 H948 0.950 . S
C955 C952 1.387 . S
C956 C957 1.387 . S
C956 H960 0.950 . S
C956 C965 1.390 . S
C957 C956 1.387 . S
C957 C959 1.387 . S
H958 C965 0.950 . S
C959 C957 1.387 . S
C959 C961 1.390 1_556 S
C959 H963 0.950 . S
H960 C956 0.950 . S
C961 C959 1.390 1_554 S
C961 C962 1.387 1_554 S
C961 H964 0.950 . S
C962 C961 1.387 1_556 S
C962 C965 1.387 . S
H963 C959 0.950 . S
H964 C961 0.950 . S
C965 C956 1.390 . S
C965 H958 0.950 . S
C965 C962 1.387 . S
C966 C967 1.387 . S
C966 H970 0.950 . S
C966 C975 1.390 . S
C967 C966 1.387 . S
C967 C969 1.387 . S
H968 C975 0.950 . S
C969 C967 1.387 . S
C969 C971 1.390 . S
C969 H973 0.950 . S
H970 C966 0.950 . S
C971 C969 1.390 . S
C971 C972 1.387 . S
C971 H974 0.950 . S
C972 C971 1.387 . S
C972 C975 1.387 . S
H973 C969 0.950 . S
H974 C971 0.950 . S
C975 C966 1.390 . S
C975 H968 0.950 . S
C975 C972 1.387 . S
C976 C977 1.387 1_565 S
C976 H980 0.950 . S
C976 C985 1.390 . S
C977 C976 1.387 1_545 S
C977 C979 1.387 . S
H978 C985 0.950 . S
C979 C977 1.387 . S
C979 C981 1.390 . S
C979 H983 0.950 . S
H980 C976 0.950 . S
C981 C979 1.390 . S
C981 C982 1.387 . S
C981 H984 0.950 . S
C982 C981 1.387 . S
C982 C985 1.387 1_545 S
H983 C979 0.950 . S
H984 C981 0.950 . S
C985 C976 1.390 . S
C985 H978 0.950 . S
C985 C982 1.387 1_565 S
C986 C987 1.387 . S
C986 H990 0.950 . S
C986 C995 1.390 . S
C987 C986 1.387 . S
C987 C989 1.387 . S
H988 C995 0.950 . S
C989 C987 1.387 . S
C989 C991 1.390 . S
C989 H993 0.950 . S
H990 C986 0.950 . S
C991 C989 1.390 . S
C991 C992 1.387 . S
C991 H994 0.950 . S
C992 C991 1.387 . S
C992 C995 1.387 . S
H993 C989 0.950 . S
H994 C991 0.950 . S
C995 C986 1.390 . S
C995 H988 0.950 . S
C995 C992 1.387 . S
C996 C997 1.387 . S
C996 H1000 0.950 . S
C996 C1005 1.390 . S
C997 C996 1.387 . S
C997 C999 1.387 . S
H998 C1005 0.950 . S
C999 C997 1.387 . S
C999 C1001 1.390 1_545 S
C999 H1003 0.950 1_545 S
H1000 C996 0.950 . S
C1001 C999 1.390 1_565 S
C1001 C1002 1.387 1_565 S
C1001 H1004 0.950 . S
C1002 C1001 1.387 1_545 S
C1002 C1005 1.387 . S
H1003 C999 0.950 1_565 S
H1004 C1001 0.950 . S
C1005 C996 1.390 . S
C1005 H998 0.950 . S
C1005 C1002 1.387 . S
C1006 C1007 1.387 . S
C1006 H1010 0.950 . S
C1006 C1015 1.390 . S
C1007 C1006 1.387 . S
C1007 C1009 1.387 . S
H1008 C1015 0.950 . S
C1009 C1007 1.387 . S
C1009 C1011 1.390 . S
C1009 H1013 0.950 . S
H1010 C1006 0.950 . S
C1011 C1009 1.390 . S
C1011 C1012 1.387 . S
C1011 H1014 0.950 . S
C1012 C1011 1.387 . S
C1012 C1015 1.387 . S
H1013 C1009 0.950 . S
H1014 C1011 0.950 . S
C1015 C1006 1.390 . S
C1015 H1008 0.950 . S
C1015 C1012 1.387 . S
C1016 C1017 1.387 1_565 S
C1016 H1020 0.950 . S
C1016 C1025 1.390 . S
C1017 C1016 1.387 1_545 S
C1017 C1019 1.387 . S
H1018 C1025 0.950 . S
C1019 C1017 1.387 . S
C1019 C1021 1.390 . S
C1019 H1023 0.950 . S
H1020 C1016 0.950 . S
C1021 C1019 1.390 . S
C1021 C1022 1.387 . S
C1021 H1024 0.950 . S
C1022 C1021 1.387 . S
C1022 C1025 1.387 1_545 S
H1023 C1019 0.950 . S
H1024 C1021 0.950 . S
C1025 C1016 1.390 . S
C1025 H1018 0.950 . S
C1025 C1022 1.387 1_565 S
C1026 C1027 1.387 . S
C1026 H1030 0.950 . S
C1026 C1035 1.390 . S
C1027 C1026 1.387 . S
C1027 C1029 1.387 . S
H1028 C1035 0.950 . S
C1029 C1027 1.387 . S
C1029 C1031 1.390 . S
C1029 H1033 0.950 . S
H1030 C1026 0.950 . S
C1031 C1029 1.390 . S
C1031 C1032 1.387 . S
C1031 H1034 0.950 . S
C1032 C1031 1.387 . S
C1032 C1035 1.387 . S
H1033 C1029 0.950 . S
H1034 C1031 0.950 . S
C1035 C1026 1.390 . S
C1035 H1028 0.950 . S
C1035 C1032 1.387 . S
C1036 C1037 1.387 1_565 S
C1036 H1040 0.950 . S
C1036 C1045 1.390 . S
C1037 C1036 1.387 1_545 S
C1037 C1039 1.387 . S
H1038 C1045 0.950 . S
C1039 C1037 1.387 . S
C1039 C1041 1.390 . S
C1039 H1043 0.950 . S
H1040 C1036 0.950 . S
C1041 C1039 1.390 . S
C1041 C1042 1.414 . S
C1041 H1044 0.950 . S
C1042 C1041 1.414 . S
C1042 C1045 1.370 1_545 S
H1043 C1039 0.950 . S
H1044 C1041 0.950 . S
C1045 C1036 1.390 . S
C1045 H1038 0.950 . S
C1045 C1042 1.370 1_565 S
C1046 C1047 1.387 . S
C1046 H1050 0.950 . S
C1046 C1055 1.390 . S
C1047 C1046 1.387 . S
C1047 C1049 1.387 . S
H1048 C1055 0.950 . S
C1049 C1047 1.387 . S
C1049 C1051 1.390 . S
C1049 H1053 0.950 . S
H1050 C1046 0.950 . S
C1051 C1049 1.390 . S
C1051 C1052 1.387 . S
C1051 H1054 0.950 . S
C1052 C1051 1.387 . S
C1052 C1055 1.387 . S
H1053 C1049 0.950 . S
H1054 C1051 0.950 . S
C1055 C1046 1.390 . S
C1055 H1048 0.950 . S
C1055 C1052 1.387 . S
C1056 C1057 1.387 . S
C1056 H1060 0.950 1_554 S
C1056 C1065 1.390 1_554 S
C1057 C1056 1.387 . S
C1057 C1059 1.387 . S
H1058 C1065 0.950 . S
C1059 C1057 1.387 . S
C1059 C1061 1.390 . S
C1059 H1063 0.950 . S
H1060 C1056 0.950 1_556 S
C1061 C1059 1.390 . S
C1061 C1062 1.387 . S
C1061 H1064 0.950 . S
C1062 C1061 1.387 . S
C1062 C1065 1.387 1_554 S
H1063 C1059 0.950 . S
H1064 C1061 0.950 . S
C1065 C1056 1.390 1_556 S
C1065 H1058 0.950 . S
C1065 C1062 1.387 1_556 S
C1066 C1067 1.387 . S
C1066 H1070 0.950 . S
C1066 C1075 1.390 . S
C1067 C1066 1.387 . S
C1067 C1069 1.387 . S
H1068 C1075 0.950 . S
C1069 C1067 1.387 . S
C1069 C1071 1.390 . S
C1069 H1073 0.950 . S
H1070 C1066 0.950 . S
C1071 C1069 1.390 . S
C1071 C1072 1.387 . S
C1071 H1074 0.950 1_554 S
C1072 C1071 1.387 . S
C1072 C1075 1.387 . S
H1073 C1069 0.950 . S
H1074 C1071 0.950 1_556 S
C1075 C1066 1.390 . S
C1075 H1068 0.950 . S
C1075 C1072 1.387 . S
C1076 C1077 1.387 . S
C1076 H1080 0.950 . S
C1076 C1085 1.390 . S
C1077 C1076 1.387 . S
C1077 C1079 1.387 . S
H1078 C1085 0.950 . S
C1079 C1077 1.387 . S
C1079 C1081 1.390 . S
C1079 H1083 0.950 . S
H1080 C1076 0.950 . S
C1081 C1079 1.390 . S
C1081 C1082 1.387 . S
C1081 H1084 0.950 . S
C1082 C1081 1.387 . S
C1082 C1085 1.387 . S
H1083 C1079 0.950 . S
H1084 C1081 0.950 . S
C1085 C1076 1.390 . S
C1085 H1078 0.950 . S
C1085 C1082 1.387 . S
C1086 C1087 1.387 . S
C1086 H1090 0.950 . S
C1086 C1095 1.390 . S
C1087 C1086 1.387 . S
C1087 C1089 1.387 . S
H1088 C1095 0.950 . S
C1089 C1087 1.387 . S
C1089 C1091 1.390 . S
C1089 H1093 0.950 . S
H1090 C1086 0.950 . S
C1091 C1089 1.390 . S
C1091 C1092 1.387 . S
C1091 H1094 0.950 . S
C1092 C1091 1.387 . S
C1092 C1095 1.387 . S
H1093 C1089 0.950 . S
H1094 C1091 0.950 . S
C1095 C1086 1.390 . S
C1095 H1088 0.950 . S
C1095 C1092 1.387 . S
C1096 C1097 1.387 . S
C1096 H1100 0.950 . S
C1096 C1105 1.390 . S
C1097 C1096 1.387 . S
C1097 C1099 1.387 . S
H1098 C1105 0.950 . S
C1099 C1097 1.387 . S
C1099 C1101 1.390 . S
C1099 H1103 0.950 . S
H1100 C1096 0.950 . S
C1101 C1099 1.390 . S
C1101 C1102 1.387 . S
C1101 H1104 0.950 . S
C1102 C1101 1.387 . S
C1102 C1105 1.387 . S
H1103 C1099 0.950 . S
H1104 C1101 0.950 . S
C1105 C1096 1.390 . S
C1105 H1098 0.950 . S
C1105 C1102 1.387 . S
C1106 C1107 1.387 . S
C1106 H1110 0.950 . S
C1106 C1115 1.390 . S
C1107 C1106 1.387 . S
C1107 C1109 1.387 . S
H1108 C1115 0.950 . S
C1109 C1107 1.387 . S
C1109 C1111 1.390 . S
C1109 H1113 0.950 . S
H1110 C1106 0.950 . S
C1111 C1109 1.390 . S
C1111 C1112 1.387 . S
C1111 H1114 0.950 . S
C1112 C1111 1.387 . S
C1112 C1115 1.387 . S
H1113 C1109 0.950 . S
H1114 C1111 0.950 . S
C1115 C1106 1.390 . S
C1115 H1108 0.950 . S
C1115 C1112 1.387 . S
C1116 C1117 1.387 . S
C1116 H1120 0.950 . S
C1116 C1125 1.390 . S
C1117 C1116 1.387 . S
C1117 C1119 1.387 . S
H1118 C1125 0.950 . S
C1119 C1117 1.387 . S
C1119 C1121 1.390 . S
C1119 H1123 0.950 . S
H1120 C1116 0.950 . S
C1121 C1119 1.390 . S
C1121 C1122 1.387 . S
C1121 H1124 0.950 . S
C1122 C1121 1.387 . S
C1122 C1125 1.387 . S
H1123 C1119 0.950 . S
H1124 C1121 0.950 . S
C1125 C1116 1.390 . S
C1125 H1118 0.950 . S
C1125 C1122 1.387 . S
C1126 C1127 1.387 . S
C1126 H1130 0.950 . S
C1126 C1135 1.390 . S
C1127 C1126 1.387 . S
C1127 C1129 1.387 . S
H1128 C1135 0.950 . S
C1129 C1127 1.387 . S
C1129 C1131 1.390 . S
C1129 H1133 0.950 . S
H1130 C1126 0.950 . S
C1131 C1129 1.390 . S
C1131 C1132 1.387 . S
C1131 H1134 0.950 . S
C1132 C1131 1.387 . S
C1132 C1135 1.387 . S
H1133 C1129 0.950 . S
H1134 C1131 0.950 . S
C1135 C1126 1.390 . S
C1135 H1128 0.950 . S
C1135 C1132 1.387 . S
C1136 C1137 1.387 . S
C1136 H1140 0.950 . S
C1136 C1145 1.390 . S
C1137 C1136 1.387 . S
C1137 C1139 1.387 . S
H1138 C1145 0.950 . S
C1139 C1137 1.387 . S
C1139 C1141 1.390 . S
C1139 H1143 0.950 . S
H1140 C1136 0.950 . S
C1141 C1139 1.390 . S
C1141 C1142 1.387 . S
C1141 H1144 0.950 . S
C1142 C1141 1.387 . S
C1142 C1145 1.387 . S
H1143 C1139 0.950 . S
H1144 C1141 0.950 . S
C1145 C1136 1.390 . S
C1145 H1138 0.950 . S
C1145 C1142 1.387 . S
C1146 C1147 1.387 . S
C1146 H1150 0.950 . S
C1146 C1155 1.390 . S
C1147 C1146 1.387 . S
C1147 C1149 1.387 . S
H1148 C1155 0.950 . S
C1149 C1147 1.387 . S
C1149 C1151 1.390 . S
C1149 H1153 0.950 . S
H1150 C1146 0.950 . S
C1151 C1149 1.390 . S
C1151 C1152 1.387 . S
C1151 H1154 0.950 . S
C1152 C1151 1.387 . S
C1152 C1155 1.387 . S
H1153 C1149 0.950 . S
H1154 C1151 0.950 . S
C1155 C1146 1.390 . S
C1155 H1148 0.950 . S
C1155 C1152 1.387 . S
C1156 C1157 1.387 1_655 S
C1156 H1160 0.950 . S
C1156 C1165 1.390 . S
C1157 C1156 1.387 1_455 S
C1157 C1159 1.387 . S
H1158 C1165 0.950 . S
C1159 C1157 1.387 . S
C1159 C1161 1.390 . S
C1159 H1163 0.950 . S
H1160 C1156 0.950 . S
C1161 C1159 1.390 . S
C1161 C1162 1.387 . S
C1161 H1164 0.950 . S
C1162 C1161 1.387 . S
C1162 C1165 1.387 1_455 S
H1163 C1159 0.950 . S
H1164 C1161 0.950 . S
C1165 C1156 1.390 . S
C1165 H1158 0.950 . S
C1165 C1162 1.387 1_655 S
C1166 C1167 1.387 . S
C1166 H1170 0.950 . S
C1166 C1175 1.390 . S
C1167 C1166 1.387 . S
C1167 C1169 1.387 . S
H1168 C1175 0.950 . S
C1169 C1167 1.387 . S
C1169 C1171 1.390 . S
C1169 H1173 0.950 . S
H1170 C1166 0.950 . S
C1171 C1169 1.390 . S
C1171 C1172 1.387 . S
C1171 H1174 0.950 . S
C1172 C1171 1.387 . S
C1172 C1175 1.387 . S
H1173 C1169 0.950 . S
H1174 C1171 0.950 . S
C1175 C1166 1.390 . S
C1175 H1168 0.950 . S
C1175 C1172 1.387 . S
C1176 C1177 1.387 . S
C1176 H1180 0.950 . S
C1176 C1185 1.390 . S
C1177 C1176 1.387 . S
C1177 C1179 1.387 . S
H1178 C1185 0.950 . S
C1179 C1177 1.387 . S
C1179 C1181 1.390 . S
C1179 H1183 0.950 . S
H1180 C1176 0.950 . S
C1181 C1179 1.390 . S
C1181 C1182 1.387 . S
C1181 H1184 0.950 . S
C1182 C1181 1.387 . S
C1182 C1185 1.387 . S
H1183 C1179 0.950 . S
H1184 C1181 0.950 . S
C1185 C1176 1.390 . S
C1185 H1178 0.950 . S
C1185 C1182 1.387 . S
C1186 C1187 1.387 . S
C1186 H1190 0.950 . S
C1186 C1195 1.390 . S
C1187 C1186 1.387 . S
C1187 C1189 1.387 . S
H1188 C1195 0.950 . S
C1189 C1187 1.387 . S
C1189 C1191 1.390 . S
C1189 H1193 0.950 . S
H1190 C1186 0.950 . S
C1191 C1189 1.390 . S
C1191 C1192 1.387 . S
C1191 H1194 0.950 . S
C1192 C1191 1.387 . S
C1192 C1195 1.387 . S
H1193 C1189 0.950 . S
H1194 C1191 0.950 . S
C1195 C1186 1.390 . S
C1195 H1188 0.950 . S
C1195 C1192 1.387 . S
C1196 C1197 1.387 . S
C1196 H1200 0.950 . S
C1196 C1205 1.390 . S
C1197 C1196 1.387 . S
C1197 C1199 1.387 1_455 S
H1198 C1205 0.950 . S
C1199 C1197 1.387 1_655 S
C1199 C1201 1.401 . S
C1199 H1203 0.950 . S
H1200 C1196 0.950 . S
C1201 C1199 1.401 . S
C1201 C1202 1.374 1_655 S
C1201 H1204 0.954 . S
C1202 C1201 1.374 1_455 S
C1202 C1205 1.387 . S
H1203 C1199 0.950 . S
H1204 C1201 0.954 . S
C1205 C1196 1.390 . S
C1205 H1198 0.950 . S
C1205 C1202 1.387 . S
C1206 C1207 1.387 . S
C1206 H1210 0.950 . S
C1206 C1215 1.390 . S
C1207 C1206 1.387 . S
C1207 C1209 1.387 . S
H1208 C1215 0.950 . S
C1209 C1207 1.387 . S
C1209 C1211 1.390 . S
C1209 H1213 0.950 . S
H1210 C1206 0.950 . S
C1211 C1209 1.390 . S
C1211 C1212 1.387 . S
C1211 H1214 0.950 . S
C1212 C1211 1.387 . S
C1212 C1215 1.387 . S
H1213 C1209 0.950 . S
H1214 C1211 0.950 . S
C1215 C1206 1.390 . S
C1215 H1208 0.950 . S
C1215 C1212 1.387 . S
C1216 C1217 1.387 . S
C1216 H1220 0.950 . S
C1216 C1225 1.390 . S
C1217 C1216 1.387 . S
C1217 C1219 1.387 . S
H1218 C1225 0.950 . S
C1219 C1217 1.387 . S
C1219 C1221 1.390 . S
C1219 H1223 0.950 . S
H1220 C1216 0.950 . S
C1221 C1219 1.390 . S
C1221 C1222 1.387 . S
C1221 H1224 0.950 . S
C1222 C1221 1.387 . S
C1222 C1225 1.387 . S
H1223 C1219 0.950 . S
H1224 C1221 0.950 . S
C1225 C1216 1.390 . S
C1225 H1218 0.950 . S
C1225 C1222 1.387 . S
C1226 C1227 1.387 . S
C1226 H1230 0.950 . S
C1226 C1235 1.390 . S
C1227 C1226 1.387 . S
C1227 C1229 1.387 . S
H1228 C1235 0.950 . S
C1229 C1227 1.387 . S
C1229 C1231 1.390 . S
C1229 H1233 0.950 . S
H1230 C1226 0.950 . S
C1231 C1229 1.390 . S
C1231 C1232 1.387 . S
C1231 H1234 0.950 . S
C1232 C1231 1.387 . S
C1232 C1235 1.387 . S
H1233 C1229 0.950 . S
H1234 C1231 0.950 . S
C1235 C1226 1.390 . S
C1235 H1228 0.950 . S
C1235 C1232 1.387 . S
C1236 C1237 1.387 . S
C1236 H1240 0.950 . S
C1236 C1245 1.390 . S
C1237 C1236 1.387 . S
C1237 C1239 1.387 . S
H1238 C1245 0.950 . S
C1239 C1237 1.387 . S
C1239 C1241 1.390 . S
C1239 H1243 0.950 . S
H1240 C1236 0.950 . S
C1241 C1239 1.390 . S
C1241 C1242 1.387 . S
C1241 H1244 0.950 . S
C1242 C1241 1.387 . S
C1242 C1245 1.387 . S
H1243 C1239 0.950 . S
H1244 C1241 0.950 . S
C1245 C1236 1.390 . S
C1245 H1238 0.950 . S
C1245 C1242 1.387 . S
C1246 C1247 1.387 . S
C1246 H1250 0.950 . S
C1246 C1255 1.390 . S
C1247 C1246 1.387 . S
C1247 C1249 1.387 . S
H1248 C1255 0.950 . S
C1249 C1247 1.387 . S
C1249 C1251 1.390 . S
C1249 H1253 0.950 . S
H1250 C1246 0.950 . S
C1251 C1249 1.390 . S
C1251 C1252 1.387 . S
C1251 H1254 0.950 . S
C1252 C1251 1.387 . S
C1252 C1255 1.387 . S
H1253 C1249 0.950 . S
H1254 C1251 0.950 . S
C1255 C1246 1.390 . S
C1255 H1248 0.950 . S
C1255 C1252 1.387 . S
C1256 C1257 1.387 . S
C1256 H1260 0.950 . S
C1256 C1265 1.390 . S
C1257 C1256 1.387 . S
C1257 C1259 1.387 . S
H1258 C1265 0.950 . S
C1259 C1257 1.387 . S
C1259 C1261 1.390 . S
C1259 H1263 0.950 . S
H1260 C1256 0.950 . S
C1261 C1259 1.390 . S
C1261 C1262 1.387 . S
C1261 H1264 0.950 . S
C1262 C1261 1.387 . S
C1262 C1265 1.387 . S
H1263 C1259 0.950 . S
H1264 C1261 0.950 . S
C1265 C1256 1.390 . S
C1265 H1258 0.950 . S
C1265 C1262 1.387 . S
C1266 C1267 1.387 . S
C1266 H1270 0.950 . S
C1266 C1275 1.390 . S
C1267 C1266 1.387 . S
C1267 C1269 1.387 . S
H1268 C1275 0.950 . S
C1269 C1267 1.387 . S
C1269 C1271 1.390 . S
C1269 H1273 0.950 . S
H1270 C1266 0.950 . S
C1271 C1269 1.390 . S
C1271 C1272 1.387 . S
C1271 H1274 0.950 . S
C1272 C1271 1.387 . S
C1272 C1275 1.387 . S
H1273 C1269 0.950 . S
H1274 C1271 0.950 . S
C1275 C1266 1.390 . S
C1275 H1268 0.950 . S
C1275 C1272 1.387 . S
C1276 C1277 1.387 . S
C1276 H1280 0.950 . S
C1276 C1285 1.390 . S
C1277 C1276 1.387 . S
C1277 C1279 1.387 . S
H1278 C1285 0.950 . S
C1279 C1277 1.387 . S
C1279 C1281 1.390 . S
C1279 H1283 0.950 . S
H1280 C1276 0.950 . S
C1281 C1279 1.390 . S
C1281 C1282 1.387 . S
C1281 H1284 0.950 . S
C1282 C1281 1.387 . S
C1282 C1285 1.387 . S
H1283 C1279 0.950 . S
H1284 C1281 0.950 . S
C1285 C1276 1.390 . S
C1285 H1278 0.950 . S
C1285 C1282 1.387 . S
C1286 C1287 1.387 . S
C1286 H1290 0.950 . S
C1286 C1295 1.390 . S
C1287 C1286 1.387 . S
C1287 C1289 1.387 . S
H1288 C1295 0.950 . S
C1289 C1287 1.387 . S
C1289 C1291 1.390 . S
C1289 H1293 0.950 . S
H1290 C1286 0.950 . S
C1291 C1289 1.390 . S
C1291 C1292 1.387 . S
C1291 H1294 0.950 . S
C1292 C1291 1.387 . S
C1292 C1295 1.387 . S
H1293 C1289 0.950 . S
H1294 C1291 0.950 . S
C1295 C1286 1.390 . S
C1295 H1288 0.950 . S
C1295 C1292 1.387 . S
C1296 C1297 1.387 . S
C1296 H1300 0.950 . S
C1296 C1305 1.390 . S
C1297 C1296 1.387 . S
C1297 C1299 1.387 . S
H1298 C1305 0.950 . S
C1299 C1297 1.387 . S
C1299 C1301 1.390 . S
C1299 H1303 0.950 . S
H1300 C1296 0.950 . S
C1301 C1299 1.390 . S
C1301 C1302 1.387 . S
C1301 H1304 0.950 . S
C1302 C1301 1.387 . S
C1302 C1305 1.387 . S
H1303 C1299 0.950 . S
H1304 C1301 0.950 . S
C1305 C1296 1.390 . S
C1305 H1298 0.950 . S
C1305 C1302 1.387 . S
C1306 C1307 1.387 . S
C1306 H1310 0.950 . S
C1306 C1315 1.390 . S
C1307 C1306 1.387 . S
C1307 C1309 1.387 . S
H1308 C1315 0.950 . S
C1309 C1307 1.387 . S
C1309 C1311 1.390 . S
C1309 H1313 0.950 . S
H1310 C1306 0.950 . S
C1311 C1309 1.390 . S
C1311 C1312 1.387 . S
C1311 H1314 0.950 . S
C1312 C1311 1.387 . S
C1312 C1315 1.387 . S
H1313 C1309 0.950 . S
H1314 C1311 0.950 . S
C1315 C1306 1.390 . S
C1315 H1308 0.950 . S
C1315 C1312 1.387 . S
C1316 C1317 1.387 . S
C1316 H1320 0.950 . S
C1316 C1325 1.390 . S
C1317 C1316 1.387 . S
C1317 C1319 1.387 . S
H1318 C1325 0.950 . S
C1319 C1317 1.387 . S
C1319 C1321 1.390 . S
C1319 H1323 0.950 . S
H1320 C1316 0.950 . S
C1321 C1319 1.390 . S
C1321 C1322 1.387 . S
C1321 H1324 0.950 . S
C1322 C1321 1.387 . S
C1322 C1325 1.387 . S
H1323 C1319 0.950 . S
H1324 C1321 0.950 . S
C1325 C1316 1.390 . S
C1325 H1318 0.950 . S
C1325 C1322 1.387 . S
C1326 C1327 1.387 1_556 S
C1326 H1330 0.950 . S
C1326 C1335 1.390 . S
C1327 C1326 1.387 1_554 S
C1327 C1329 1.387 . S
H1328 C1335 0.950 . S
C1329 C1327 1.387 . S
C1329 C1331 1.390 . S
C1329 H1333 0.950 . S
H1330 C1326 0.950 . S
C1331 C1329 1.390 . S
C1331 C1332 1.387 . S
C1331 H1334 0.950 . S
C1332 C1331 1.387 . S
C1332 C1335 1.387 1_554 S
H1333 C1329 0.950 . S
H1334 C1331 0.950 . S
C1335 C1326 1.390 . S
C1335 H1328 0.950 . S
C1335 C1332 1.387 1_556 S
C1336 C1337 1.387 . S
C1336 H1340 0.950 . S
C1336 C1345 1.390 . S
C1337 C1336 1.387 . S
C1337 C1339 1.387 . S
H1338 C1345 0.950 . S
C1339 C1337 1.387 . S
C1339 C1341 1.390 . S
C1339 H1343 0.950 . S
H1340 C1336 0.950 . S
C1341 C1339 1.390 . S
C1341 C1342 1.387 . S
C1341 H1344 0.950 . S
C1342 C1341 1.387 . S
C1342 C1345 1.387 . S
H1343 C1339 0.950 . S
H1344 C1341 0.950 . S
C1345 C1336 1.390 . S
C1345 H1338 0.950 . S
C1345 C1342 1.387 . S
C1346 C1347 1.387 . S
C1346 H1350 0.950 . S
C1346 C1355 1.390 . S
C1347 C1346 1.387 . S
C1347 C1349 1.387 1_554 S
H1348 C1355 0.950 . S
C1349 C1347 1.387 1_556 S
C1349 C1351 1.390 1_556 S
C1349 H1353 0.950 . S
H1350 C1346 0.950 . S
C1351 C1349 1.390 1_554 S
C1351 C1352 1.387 . S
C1351 H1354 0.950 1_554 S
C1352 C1351 1.387 . S
C1352 C1355 1.387 . S
H1353 C1349 0.950 . S
H1354 C1351 0.950 1_556 S
C1355 C1346 1.390 . S
C1355 H1348 0.950 . S
C1355 C1352 1.387 . S
C1356 C1357 1.387 . S
C1356 H1360 0.950 . S
C1356 C1365 1.390 . S
C1357 C1356 1.387 . S
C1357 C1359 1.387 . S
H1358 C1365 0.950 . S
C1359 C1357 1.387 . S
C1359 C1361 1.390 . S
C1359 H1363 0.950 . S
H1360 C1356 0.950 . S
C1361 C1359 1.390 . S
C1361 C1362 1.387 . S
C1361 H1364 0.950 . S
C1362 C1361 1.387 . S
C1362 C1365 1.387 . S
H1363 C1359 0.950 . S
H1364 C1361 0.950 . S
C1365 C1356 1.390 . S
C1365 H1358 0.950 . S
C1365 C1362 1.387 . S
C1366 C1367 1.387 . S
C1366 H1370 0.950 . S
C1366 C1375 1.390 . S
C1367 C1366 1.387 . S
C1367 C1369 1.387 . S
H1368 C1375 0.950 . S
C1369 C1367 1.387 . S
C1369 C1371 1.390 . S
C1369 H1373 0.950 . S
H1370 C1366 0.950 . S
C1371 C1369 1.390 . S
C1371 C1372 1.387 . S
C1371 H1374 0.950 . S
C1372 C1371 1.387 . S
C1372 C1375 1.387 . S
H1373 C1369 0.950 . S
H1374 C1371 0.950 . S
C1375 C1366 1.390 . S
C1375 H1368 0.950 . S
C1375 C1372 1.387 . S
C1376 C1377 1.387 . S
C1376 H1380 0.950 . S
C1376 C1385 1.390 . S
C1377 C1376 1.387 . S
C1377 C1379 1.387 . S
H1378 C1385 0.950 . S
C1379 C1377 1.387 . S
C1379 C1381 1.390 . S
C1379 H1383 0.950 . S
H1380 C1376 0.950 . S
C1381 C1379 1.390 . S
C1381 C1382 1.387 . S
C1381 H1384 0.950 . S
C1382 C1381 1.387 . S
C1382 C1385 1.387 . S
H1383 C1379 0.950 . S
H1384 C1381 0.950 . S
C1385 C1376 1.390 . S
C1385 H1378 0.950 . S
C1385 C1382 1.387 . S
C1386 C1387 1.387 . S
C1386 H1390 0.950 . S
C1386 C1395 1.390 . S
C1387 C1386 1.387 . S
C1387 C1389 1.387 . S
H1388 C1395 0.950 . S
C1389 C1387 1.387 . S
C1389 C1391 1.390 . S
C1389 H1393 0.950 . S
H1390 C1386 0.950 . S
C1391 C1389 1.390 . S
C1391 C1392 1.387 . S
C1391 H1394 0.950 . S
C1392 C1391 1.387 . S
C1392 C1395 1.387 . S
H1393 C1389 0.950 . S
H1394 C1391 0.950 . S
C1395 C1386 1.390 . S
C1395 H1388 0.950 . S
C1395 C1392 1.387 . S
C1396 C1397 1.387 . S
C1396 H1400 0.950 . S
C1396 C1405 1.390 . S
C1397 C1396 1.387 . S
C1397 C1399 1.387 . S
H1398 C1405 0.950 . S
C1399 C1397 1.387 . S
C1399 C1401 1.390 . S
C1399 H1403 0.950 1_455 S
H1400 C1396 0.950 . S
C1401 C1399 1.390 . S
C1401 C1402 1.387 . S
C1401 H1404 0.950 1_455 S
C1402 C1401 1.387 . S
C1402 C1405 1.387 . S
H1403 C1399 0.950 1_655 S
H1404 C1401 0.950 1_655 S
C1405 C1396 1.390 . S
C1405 H1398 0.950 . S
C1405 C1402 1.387 . S
C1406 C1407 1.387 . S
C1406 H1410 0.950 . S
C1406 C1415 1.390 . S
C1407 C1406 1.387 . S
C1407 C1409 1.387 . S
H1408 C1415 0.950 . S
C1409 C1407 1.387 . S
C1409 C1411 1.390 . S
C1409 H1413 0.950 . S
H1410 C1406 0.950 . S
C1411 C1409 1.390 . S
C1411 C1412 1.387 . S
C1411 H1414 0.950 . S
C1412 C1411 1.387 . S
C1412 C1415 1.387 . S
H1413 C1409 0.950 . S
H1414 C1411 0.950 . S
C1415 C1406 1.390 . S
C1415 H1408 0.950 . S
C1415 C1412 1.387 . S
C1416 C1417 1.387 . S
C1416 H1420 0.950 . S
C1416 C1425 1.390 . S
C1417 C1416 1.387 . S
C1417 C1419 1.387 . S
H1418 C1425 0.950 . S
C1419 C1417 1.387 . S
C1419 C1421 1.390 . S
C1419 H1423 0.950 . S
H1420 C1416 0.950 . S
C1421 C1419 1.390 . S
C1421 C1422 1.387 . S
C1421 H1424 0.950 1_556 S
C1422 C1421 1.387 . S
C1422 C1425 1.387 . S
H1423 C1419 0.950 . S
H1424 C1421 0.950 1_554 S
C1425 C1416 1.390 . S
C1425 H1418 0.950 . S
C1425 C1422 1.387 . S
C1426 C1427 1.387 . S
C1426 H1430 0.950 . S
C1426 C1435 1.390 . S
C1427 C1426 1.387 . S
C1427 C1429 1.387 . S
H1428 C1435 0.950 . S
C1429 C1427 1.387 . S
C1429 C1431 1.390 . S
C1429 H1433 0.950 . S
H1430 C1426 0.950 . S
C1431 C1429 1.390 . S
C1431 C1432 1.387 . S
C1431 H1434 0.950 . S
C1432 C1431 1.387 . S
C1432 C1435 1.387 . S
H1433 C1429 0.950 . S
H1434 C1431 0.950 . S
C1435 C1426 1.390 . S
C1435 H1428 0.950 . S
C1435 C1432 1.387 . S
C1436 C1437 1.387 . S
C1436 H1440 0.950 . S
C1436 C1445 1.390 . S
C1437 C1436 1.387 . S
C1437 C1439 1.387 . S
H1438 C1445 0.950 . S
C1439 C1437 1.387 . S
C1439 C1441 1.390 . S
C1439 H1443 0.950 . S
H1440 C1436 0.950 . S
C1441 C1439 1.390 . S
C1441 C1442 1.387 . S
C1441 H1444 0.950 . S
C1442 C1441 1.387 . S
C1442 C1445 1.387 . S
H1443 C1439 0.950 . S
H1444 C1441 0.950 . S
C1445 C1436 1.390 . S
C1445 H1438 0.950 . S
C1445 C1442 1.387 . S
C1446 C1447 1.387 . S
C1446 H1450 0.950 . S
C1446 C1455 1.390 . S
C1447 C1446 1.387 . S
C1447 C1449 1.387 . S
H1448 C1455 0.950 . S
C1449 C1447 1.387 . S
C1449 C1451 1.390 . S
C1449 H1453 0.950 . S
H1450 C1446 0.950 . S
C1451 C1449 1.390 . S
C1451 C1452 1.387 . S
C1451 H1454 0.950 . S
C1452 C1451 1.387 . S
C1452 C1455 1.387 . S
H1453 C1449 0.950 . S
H1454 C1451 0.950 . S
C1455 C1446 1.390 . S
C1455 H1448 0.950 . S
C1455 C1452 1.387 . S
C1456 C1457 1.387 . S
C1456 H1460 0.950 . S
C1456 C1465 1.390 . S
C1457 C1456 1.387 . S
C1457 C1459 1.387 . S
H1458 C1465 0.950 . S
C1459 C1457 1.387 . S
C1459 C1461 1.390 . S
C1459 H1463 0.950 . S
H1460 C1456 0.950 . S
C1461 C1459 1.390 . S
C1461 C1462 1.387 . S
C1461 H1464 0.950 . S
C1462 C1461 1.387 . S
C1462 C1465 1.387 . S
H1463 C1459 0.950 . S
H1464 C1461 0.950 . S
C1465 C1456 1.390 . S
C1465 H1458 0.950 . S
C1465 C1462 1.387 . S
C1466 C1467 1.387 . S
C1466 H1470 0.950 . S
C1466 C1475 1.390 . S
C1467 C1466 1.387 . S
C1467 C1469 1.387 . S
H1468 C1475 0.950 . S
C1469 C1467 1.387 . S
C1469 C1471 1.390 . S
C1469 H1473 0.950 . S
H1470 C1466 0.950 . S
C1471 C1469 1.390 . S
C1471 C1472 1.387 . S
C1471 H1474 0.950 . S
C1472 C1471 1.387 . S
C1472 C1475 1.387 . S
H1473 C1469 0.950 . S
H1474 C1471 0.950 . S
C1475 C1466 1.390 . S
C1475 H1468 0.950 . S
C1475 C1472 1.387 . S
C1476 C1477 1.387 . S
C1476 H1480 0.950 . S
C1476 C1485 1.390 1_655 S
C1477 C1476 1.387 . S
C1477 C1479 1.387 . S
H1478 C1485 0.950 . S
C1479 C1477 1.387 . S
C1479 C1481 1.390 . S
C1479 H1483 0.950 . S
H1480 C1476 0.950 . S
C1481 C1479 1.390 . S
C1481 C1482 1.387 . S
C1481 H1484 0.950 . S
C1482 C1481 1.387 . S
C1482 C1485 1.387 1_655 S
H1483 C1479 0.950 . S
H1484 C1481 0.950 . S
C1485 C1476 1.390 1_455 S
C1485 H1478 0.950 . S
C1485 C1482 1.387 1_455 S
C1486 C1487 1.387 . S
C1486 H1490 0.950 . S
C1486 C1495 1.390 . S
C1487 C1486 1.387 . S
C1487 C1489 1.387 . S
H1488 C1495 0.950 . S
C1489 C1487 1.387 . S
C1489 C1491 1.390 . S
C1489 H1493 0.950 . S
H1490 C1486 0.950 . S
C1491 C1489 1.390 . S
C1491 C1492 1.387 . S
C1491 H1494 0.950 . S
C1492 C1491 1.387 . S
C1492 C1495 1.387 . S
H1493 C1489 0.950 . S
H1494 C1491 0.950 . S
C1495 C1486 1.390 . S
C1495 H1488 0.950 . S
C1495 C1492 1.387 . S
C1496 C1497 1.387 . S
C1496 H1500 0.950 . S
C1496 C1505 1.390 . S
C1497 C1496 1.387 . S
C1497 C1499 1.387 . S
H1498 C1505 0.950 . S
C1499 C1497 1.387 . S
C1499 C1501 1.390 . S
C1499 H1503 0.950 . S
H1500 C1496 0.950 . S
C1501 C1499 1.390 . S
C1501 C1502 1.387 . S
C1501 H1504 0.950 . S
C1502 C1501 1.387 . S
C1502 C1505 1.387 . S
H1503 C1499 0.950 . S
H1504 C1501 0.950 . S
C1505 C1496 1.390 . S
C1505 H1498 0.950 . S
C1505 C1502 1.387 . S
C1506 C1507 1.387 . S
C1506 H1510 0.950 . S
C1506 C1515 1.390 . S
C1507 C1506 1.387 . S
C1507 C1509 1.387 . S
H1508 C1515 0.950 . S
C1509 C1507 1.387 . S
C1509 C1511 1.390 . S
C1509 H1513 0.950 . S
H1510 C1506 0.950 . S
C1511 C1509 1.390 . S
C1511 C1512 1.387 . S
C1511 H1514 0.950 . S
C1512 C1511 1.387 . S
C1512 C1515 1.387 . S
H1513 C1509 0.950 . S
H1514 C1511 0.950 . S
C1515 C1506 1.390 . S
C1515 H1508 0.950 . S
C1515 C1512 1.387 . S
C1516 C1517 1.387 . S
C1516 H1520 0.950 . S
C1516 C1525 1.390 . S
C1517 C1516 1.387 . S
C1517 C1519 1.387 . S
H1518 C1525 0.950 . S
C1519 C1517 1.387 . S
C1519 C1521 1.390 . S
C1519 H1523 0.950 . S
H1520 C1516 0.950 . S
C1521 C1519 1.390 . S
C1521 C1522 1.387 . S
C1521 H1524 0.950 . S
C1522 C1521 1.387 . S
C1522 C1525 1.387 . S
H1523 C1519 0.950 . S
H1524 C1521 0.950 . S
C1525 C1516 1.390 . S
C1525 H1518 0.950 . S
C1525 C1522 1.387 . S
C1526 C1527 1.387 . S
C1526 H1530 0.950 . S
C1526 C1535 1.390 . S
C1527 C1526 1.387 . S
C1527 C1529 1.387 . S
H1528 C1535 0.950 . S
C1529 C1527 1.387 . S
C1529 C1531 1.390 . S
C1529 H1533 0.950 . S
H1530 C1526 0.950 . S
C1531 C1529 1.390 . S
C1531 C1532 1.387 . S
C1531 H1534 0.950 . S
C1532 C1531 1.387 . S
C1532 C1535 1.387 . S
H1533 C1529 0.950 . S
H1534 C1531 0.950 . S
C1535 C1526 1.390 . S
C1535 H1528 0.950 . S
C1535 C1532 1.387 . S
C1536 C1537 1.387 . S
C1536 H1540 0.950 . S
C1536 C1545 1.390 . S
C1537 C1536 1.387 . S
C1537 C1539 1.387 . S
H1538 C1545 0.950 . S
C1539 C1537 1.387 . S
C1539 C1541 1.390 . S
C1539 H1543 0.950 . S
H1540 C1536 0.950 . S
C1541 C1539 1.390 . S
C1541 C1542 1.387 . S
C1541 H1544 0.950 . S
C1542 C1541 1.387 . S
C1542 C1545 1.387 . S
H1543 C1539 0.950 . S
H1544 C1541 0.950 . S
C1545 C1536 1.390 . S
C1545 H1538 0.950 . S
C1545 C1542 1.387 . S
C1546 C1547 1.387 . S
C1546 H1550 0.950 . S
C1546 C1555 1.390 . S
C1547 C1546 1.387 . S
C1547 C1549 1.387 . S
H1548 C1555 0.950 . S
C1549 C1547 1.387 . S
C1549 C1551 1.390 . S
C1549 H1553 0.950 . S
H1550 C1546 0.950 . S
C1551 C1549 1.390 . S
C1551 C1552 1.387 . S
C1551 H1554 0.950 . S
C1552 C1551 1.387 . S
C1552 C1555 1.387 . S
H1553 C1549 0.950 . S
H1554 C1551 0.950 . S
C1555 C1546 1.390 . S
C1555 H1548 0.950 . S
C1555 C1552 1.387 . S
C1556 C1557 1.387 . S
C1556 H1560 0.950 . S
C1556 C1565 1.390 . S
C1557 C1556 1.387 . S
C1557 C1559 1.387 . S
H1558 C1565 0.950 . S
C1559 C1557 1.387 . S
C1559 C1561 1.390 . S
C1559 H1563 0.950 . S
H1560 C1556 0.950 . S
C1561 C1559 1.390 . S
C1561 C1562 1.387 . S
C1561 H1564 0.950 . S
C1562 C1561 1.387 . S
C1562 C1565 1.387 . S
H1563 C1559 0.950 . S
H1564 C1561 0.950 . S
C1565 C1556 1.390 . S
C1565 H1558 0.950 . S
C1565 C1562 1.387 . S
C1566 C1567 1.387 . S
C1566 H1570 0.950 . S
C1566 C1575 1.390 . S
C1567 C1566 1.387 . S
C1567 C1569 1.387 . S
H1568 C1575 0.950 . S
C1569 C1567 1.387 . S
C1569 C1571 1.390 . S
C1569 H1573 0.950 1_554 S
H1570 C1566 0.950 . S
C1571 C1569 1.390 . S
C1571 C1572 1.387 . S
C1571 H1574 0.950 1_554 S
C1572 C1571 1.387 . S
C1572 C1575 1.387 . S
H1573 C1569 0.950 1_556 S
H1574 C1571 0.950 1_556 S
C1575 C1566 1.390 . S
C1575 H1568 0.950 . S
C1575 C1572 1.387 . S
C1576 C1577 1.387 . S
C1576 H1580 0.950 . S
C1576 C1585 1.390 . S
C1577 C1576 1.387 . S
C1577 C1579 1.387 . S
H1578 C1585 0.950 . S
C1579 C1577 1.387 . S
C1579 C1581 1.390 . S
C1579 H1583 0.950 . S
H1580 C1576 0.950 . S
C1581 C1579 1.390 . S
C1581 C1582 1.387 . S
C1581 H1584 0.950 . S
C1582 C1581 1.387 . S
C1582 C1585 1.387 . S
H1583 C1579 0.950 . S
H1584 C1581 0.950 . S
C1585 C1576 1.390 . S
C1585 H1578 0.950 . S
C1585 C1582 1.387 . S
C1586 C1587 1.387 . S
C1586 H1590 0.950 . S
C1586 C1595 1.390 . S
C1587 C1586 1.387 . S
C1587 C1589 1.387 . S
H1588 C1595 0.950 1_556 S
C1589 C1587 1.387 . S
C1589 C1591 1.390 . S
C1589 H1593 0.950 . S
H1590 C1586 0.950 . S
C1591 C1589 1.390 . S
C1591 C1592 1.387 . S
C1591 H1594 0.950 . S
C1592 C1591 1.387 . S
C1592 C1595 1.387 . S
H1593 C1589 0.950 . S
H1594 C1591 0.950 . S
C1595 C1586 1.390 . S
C1595 H1588 0.950 1_554 S
C1595 C1592 1.387 . S
C1596 C1597 1.387 . S
C1596 H1600 0.950 . S
C1596 C1605 1.390 . S
C1597 C1596 1.387 . S
C1597 C1599 1.387 . S
H1598 C1605 0.950 . S
C1599 C1597 1.387 . S
C1599 C1601 1.390 . S
C1599 H1603 0.950 . S
H1600 C1596 0.950 . S
C1601 C1599 1.390 . S
C1601 C1602 1.387 . S
C1601 H1604 0.950 . S
C1602 C1601 1.387 . S
C1602 C1605 1.387 . S
H1603 C1599 0.950 . S
H1604 C1601 0.950 . S
C1605 C1596 1.390 . S
C1605 H1598 0.950 . S
C1605 C1602 1.387 . S
C1606 C1607 1.387 . S
C1606 H1610 0.950 . S
C1606 C1615 1.390 . S
C1607 C1606 1.387 . S
C1607 C1609 1.387 . S
H1608 C1615 0.950 . S
C1609 C1607 1.387 . S
C1609 C1611 1.390 . S
C1609 H1613 0.950 . S
H1610 C1606 0.950 . S
C1611 C1609 1.390 . S
C1611 C1612 1.387 . S
C1611 H1614 0.950 . S
C1612 C1611 1.387 . S
C1612 C1615 1.387 . S
H1613 C1609 0.950 . S
H1614 C1611 0.950 . S
C1615 C1606 1.390 . S
C1615 H1608 0.950 . S
C1615 C1612 1.387 . S
C657 C105 1.576 1_455 S
C662 C340 1.337 1_556 S
C667 C65 1.587 . S
C672 C375 1.549 . S
C677 C73 1.257 . S
C682 C380 1.126 . S
C692 C405 1.372 . S
C687 C92 1.470 . S
C697 C17 1.513 . S
C702 C425 1.423 . S
C712 C440 1.112 . S
C707 C37 1.256 . S
C722 C475 1.566 . S
C717 C49 1.542 . S
C727 C8 1.568 . S
C732 C480 1.293 . S
C742 C355 1.649 1_655 S
C737 C231 1.705 . S
C747 C241 1.165 . S
C752 C365 1.076 . S
C762 C395 1.438 1_565 S
C757 C273 1.423 . S
C772 C400 1.202 . S
C767 C171 1.324 . S
C777 C227 1.309 . S
C782 C420 1.191 . S
C792 C455 1.453 . S
C787 C245 1.428 . S
C802 C465 1.082 . S
C797 C269 1.178 . S
C812 C495 1.639 . S
C807 C175 1.696 . S
C822 C345 1.384 . S
C817 C162 1.607 . S
C827 C289 1.800 . S
C832 C515 1.779 . S
C842 C525 1.478 . S
C837 C330 1.625 . S
C852 C540 1.083 . S
C847 C317 1.201 . S
C857 C120 1.584 . S
C862 C485 1.357 . S
C867 C134 1.640 . S
C872 C385 1.498 . S
C877 C331 1.766 . S
C882 C575 1.742 . S
C892 C580 1.062 . S
C887 C303 1.188 . S
C902 C338 1.334 . S
C897 C59 1.593 . S
C912 C594 1.576 . S
C907 C107 1.602 . S
C917 C91 1.228 . S
C922 C378 1.149 . S
C927 C78 1.488 . S
C932 C568 1.404 . S
C942 C428 1.461 . S
C937 C7 1.503 . S
C947 C51 1.265 . S
C952 C518 1.132 . S
C962 C474 1.590 1_556 S
C957 C31 1.626 . S
C972 C598 1.296 . S
C967 C22 1.537 . S
C982 C354 1.657 . S
C977 C143 1.760 . S
C992 C588 1.105 . S
C987 C315 1.130 . S
C997 C115 1.507 . S
C1002 C394 1.469 . S
C1007 C287 1.297 . S
C1012 C558 1.222 . S
C1017 C147 1.287 . S
C1022 C418 1.218 . S
C1032 C534 1.471 . S
C1027 C311 1.513 . S
C1037 C119 1.135 . S
C1042 C468 1.110 . S
C1047 C283 1.752 . S
C1052 C614 1.653 . S
C1057 C190 1.573 . S
C1062 C348 1.387 . S
C1067 C177 1.812 . S
C1072 C514 1.805 . S
C1077 C260 1.614 . S
C1082 C448 1.493 . S
C1087 C247 1.214 . S
C1092 C538 1.097 . S
C1102 C608 1.364 . S
C1097 C274 1.552 . S
C1107 C218 1.633 . S
C1112 C388 1.516 . S
C1122 C414 1.768 . S
C1117 C261 1.778 . S
C1132 C358 1.078 . S
C1127 C205 1.200 . S
C1137 C77 1.576 . S
C1142 C620 1.332 . S
C1152 C595 1.548 . S
C1147 C93 1.588 . S
C1157 C101 1.258 . S
C1162 C640 1.130 . S
C1167 C64 1.470 . S
C1172 C565 1.371 . S
C1177 C45 1.512 . S
C1182 C505 1.427 . S
C1192 C520 1.111 . S
C1187 C9 1.255 . S
C1202 C555 1.567 . S
C1197 C21 1.538 . S
C1212 C600 1.295 . S
C1207 C36 1.568 . S
C1222 C635 1.648 . S
C1217 C259 1.705 . S
C1227 C185 1.165 . S
C1232 C585 1.077 . S
C1242 C655 1.452 . S
C1237 C203 1.425 . S
C1252 C560 1.198 . S
C1247 C213 1.323 . S
C1262 C500 1.190 . S
C1257 C255 1.309 . S
C1267 C189 1.429 . S
C1272 C535 1.454 . S
C1282 C545 1.082 . S
C1277 C199 1.171 . S
C1287 C217 1.699 . S
C1292 C615 1.641 . S
C1302 C625 1.384 . S
C1297 C316 1.608 . S
C1307 C135 1.799 . S
C1312 C435 1.782 . S
C1322 C445 1.477 . S
C1317 C148 1.625 . S
C1332 C460 1.084 . S
C1327 C163 1.201 . S
C1342 C605 1.356 . S
C1337 C302 1.584 . S
C1347 C288 1.640 . S
C1352 C645 1.497 . S
C1362 C415 1.743 . S
C1357 C149 1.765 . S
C1372 C360 1.062 . S
C1367 C121 1.188 . S
C1377 C87 1.594 . S
C1382 C618 1.338 . S
C1392 C374 1.576 . S
C1387 C79 1.603 . S
C1397 C63 1.227 . S
C1402 C638 1.148 . S
C1407 C106 1.488 . S
C1412 C408 1.403 . S
C1417 C35 1.501 . S
C1422 C508 1.457 . S
C1432 C438 1.127 . S
C1427 C23 1.265 . S
C1437 C3 1.625 . S
C1442 C554 1.592 . S
C1447 C50 1.537 . S
C1452 C478 1.296 . S
C1462 C634 1.658 . S
C1457 C325 1.761 . S
C1467 C161 1.131 . S
C1472 C368 1.105 . S
C1482 C654 1.470 1_655 S
C1477 C297 1.507 . S
C1487 C133 1.295 . S
C1492 C398 1.224 . S
C1497 C329 1.287 . S
C1502 C498 1.218 . S
C1512 C454 1.473 . S
C1507 C157 1.512 . S
C1517 C301 1.137 . S
C1522 C548 1.111 . S
C1532 C494 1.646 . S
C1527 C129 1.751 . S
C1542 C628 1.386 . S
C1537 C246 1.573 . S
C1552 C434 1.805 . S
C1547 C219 1.812 . S
C1557 C232 1.616 . S
C1562 C528 1.497 . S
C1572 C458 1.096 . S
C1567 C191 1.214 . S
C1577 C204 1.550 . S
C1582 C488 1.364 . S
C1587 C176 1.632 . S
C1592 C648 1.516 . S
C1602 C574 1.768 . S
C1597 C233 1.778 . S
C1612 C578 1.078 . S
C1607 C275 1.198 . S
