# Generated by pormake.
# Topology gar, (4,6)-cn, num edge types: 1
# Building blocks:
#     Node 0, Type 0, BuildingBlock: KUFVIS_clean_sbu_0, # of connection points: 4
#     Node 1, Type 0, BuildingBlock: KUFVIS_clean_sbu_0, # of connection points: 4
#     Node 2, Type 0, BuildingBlock: KUFVIS_clean_sbu_0, # of connection points: 4
#     Node 3, Type 0, BuildingBlock: KUFVIS_clean_sbu_0, # of connection points: 4
#     Node 4, Type 0, BuildingBlock: KUFVIS_clean_sbu_0, # of connection points: 4
#     Node 5, Type 0, BuildingBlock: KUFVIS_clean_sbu_0, # of connection points: 4
#     Node 6, Type 0, BuildingBlock: KUFVIS_clean_sbu_0, # of connection points: 4
#     Node 7, Type 0, BuildingBlock: KUFVIS_clean_sbu_0, # of connection points: 4
#     Node 8, Type 0, BuildingBlock: KUFVIS_clean_sbu_0, # of connection points: 4
#     Node 9, Type 0, BuildingBlock: KUFVIS_clean_sbu_0, # of connection points: 4
#     Node 10, Type 0, BuildingBlock: KUFVIS_clean_sbu_0, # of connection points: 4
#     Node 11, Type 0, BuildingBlock: KUFVIS_clean_sbu_0, # of connection points: 4
#     Node 12, Type 0, BuildingBlock: KUFVIS_clean_sbu_0, # of connection points: 4
#     Node 13, Type 0, BuildingBlock: KUFVIS_clean_sbu_0, # of connection points: 4
#     Node 14, Type 0, BuildingBlock: KUFVIS_clean_sbu_0, # of connection points: 4
#     Node 15, Type 0, BuildingBlock: KUFVIS_clean_sbu_0, # of connection points: 4
#     Node 16, Type 0, BuildingBlock: KUFVIS_clean_sbu_0, # of connection points: 4
#     Node 17, Type 0, BuildingBlock: KUFVIS_clean_sbu_0, # of connection points: 4
#     Node 18, Type 0, BuildingBlock: KUFVIS_clean_sbu_0, # of connection points: 4
#     Node 19, Type 0, BuildingBlock: KUFVIS_clean_sbu_0, # of connection points: 4
#     Node 20, Type 0, BuildingBlock: KUFVIS_clean_sbu_0, # of connection points: 4
#     Node 21, Type 0, BuildingBlock: KUFVIS_clean_sbu_0, # of connection points: 4
#     Node 22, Type 0, BuildingBlock: KUFVIS_clean_sbu_0, # of connection points: 4
#     Node 23, Type 0, BuildingBlock: KUFVIS_clean_sbu_0, # of connection points: 4
#     Node 24, Type 1, BuildingBlock: MIFKUJ_clean_sbu_0, # of connection points: 6
#     Node 25, Type 1, BuildingBlock: MIFKUJ_clean_sbu_0, # of connection points: 6
#     Node 26, Type 1, BuildingBlock: MIFKUJ_clean_sbu_0, # of connection points: 6
#     Node 27, Type 1, BuildingBlock: MIFKUJ_clean_sbu_0, # of connection points: 6
#     Node 28, Type 1, BuildingBlock: MIFKUJ_clean_sbu_0, # of connection points: 6
#     Node 29, Type 1, BuildingBlock: MIFKUJ_clean_sbu_0, # of connection points: 6
#     Node 30, Type 1, BuildingBlock: MIFKUJ_clean_sbu_0, # of connection points: 6
#     Node 31, Type 1, BuildingBlock: MIFKUJ_clean_sbu_0, # of connection points: 6
#     Node 32, Type 1, BuildingBlock: MIFKUJ_clean_sbu_0, # of connection points: 6
#     Node 33, Type 1, BuildingBlock: MIFKUJ_clean_sbu_0, # of connection points: 6
#     Node 34, Type 1, BuildingBlock: MIFKUJ_clean_sbu_0, # of connection points: 6
#     Node 35, Type 1, BuildingBlock: MIFKUJ_clean_sbu_0, # of connection points: 6
#     Node 36, Type 1, BuildingBlock: MIFKUJ_clean_sbu_0, # of connection points: 6
#     Node 37, Type 1, BuildingBlock: MIFKUJ_clean_sbu_0, # of connection points: 6
#     Node 38, Type 1, BuildingBlock: MIFKUJ_clean_sbu_0, # of connection points: 6
#     Node 39, Type 1, BuildingBlock: MIFKUJ_clean_sbu_0, # of connection points: 6
#     Edge 40, Type (0, 1), BuildingBlock: OJICUG_clean_linker_0, # of connection points: 2
#     Edge 41, Type (0, 1), BuildingBlock: OJICUG_clean_linker_0, # of connection points: 2
#     Edge 42, Type (0, 1), BuildingBlock: OJICUG_clean_linker_0, # of connection points: 2
#     Edge 43, Type (0, 1), BuildingBlock: OJICUG_clean_linker_0, # of connection points: 2
#     Edge 44, Type (0, 1), BuildingBlock: OJICUG_clean_linker_0, # of connection points: 2
#     Edge 45, Type (0, 1), BuildingBlock: OJICUG_clean_linker_0, # of connection points: 2
#     Edge 46, Type (0, 1), BuildingBlock: OJICUG_clean_linker_0, # of connection points: 2
#     Edge 47, Type (0, 1), BuildingBlock: OJICUG_clean_linker_0, # of connection points: 2
#     Edge 48, Type (0, 1), BuildingBlock: OJICUG_clean_linker_0, # of connection points: 2
#     Edge 49, Type (0, 1), BuildingBlock: OJICUG_clean_linker_0, # of connection points: 2
#     Edge 50, Type (0, 1), BuildingBlock: OJICUG_clean_linker_0, # of connection points: 2
#     Edge 51, Type (0, 1), BuildingBlock: OJICUG_clean_linker_0, # of connection points: 2
#     Edge 52, Type (0, 1), BuildingBlock: OJICUG_clean_linker_0, # of connection points: 2
#     Edge 53, Type (0, 1), BuildingBlock: OJICUG_clean_linker_0, # of connection points: 2
#     Edge 54, Type (0, 1), BuildingBlock: OJICUG_clean_linker_0, # of connection points: 2
#     Edge 55, Type (0, 1), BuildingBlock: OJICUG_clean_linker_0, # of connection points: 2
#     Edge 56, Type (0, 1), BuildingBlock: OJICUG_clean_linker_0, # of connection points: 2
#     Edge 57, Type (0, 1), BuildingBlock: OJICUG_clean_linker_0, # of connection points: 2
#     Edge 58, Type (0, 1), BuildingBlock: OJICUG_clean_linker_0, # of connection points: 2
#     Edge 59, Type (0, 1), BuildingBlock: OJICUG_clean_linker_0, # of connection points: 2
#     Edge 60, Type (0, 1), BuildingBlock: OJICUG_clean_linker_0, # of connection points: 2
#     Edge 61, Type (0, 1), BuildingBlock: OJICUG_clean_linker_0, # of connection points: 2
#     Edge 62, Type (0, 1), BuildingBlock: OJICUG_clean_linker_0, # of connection points: 2
#     Edge 63, Type (0, 1), BuildingBlock: OJICUG_clean_linker_0, # of connection points: 2
#     Edge 64, Type (0, 1), BuildingBlock: OJICUG_clean_linker_0, # of connection points: 2
#     Edge 65, Type (0, 1), BuildingBlock: OJICUG_clean_linker_0, # of connection points: 2
#     Edge 66, Type (0, 1), BuildingBlock: OJICUG_clean_linker_0, # of connection points: 2
#     Edge 67, Type (0, 1), BuildingBlock: OJICUG_clean_linker_0, # of connection points: 2
#     Edge 68, Type (0, 1), BuildingBlock: OJICUG_clean_linker_0, # of connection points: 2
#     Edge 69, Type (0, 1), BuildingBlock: OJICUG_clean_linker_0, # of connection points: 2
#     Edge 70, Type (0, 1), BuildingBlock: OJICUG_clean_linker_0, # of connection points: 2
#     Edge 71, Type (0, 1), BuildingBlock: OJICUG_clean_linker_0, # of connection points: 2
#     Edge 72, Type (0, 1), BuildingBlock: OJICUG_clean_linker_0, # of connection points: 2
#     Edge 73, Type (0, 1), BuildingBlock: OJICUG_clean_linker_0, # of connection points: 2
#     Edge 74, Type (0, 1), BuildingBlock: OJICUG_clean_linker_0, # of connection points: 2
#     Edge 75, Type (0, 1), BuildingBlock: OJICUG_clean_linker_0, # of connection points: 2
#     Edge 76, Type (0, 1), BuildingBlock: OJICUG_clean_linker_0, # of connection points: 2
#     Edge 77, Type (0, 1), BuildingBlock: OJICUG_clean_linker_0, # of connection points: 2
#     Edge 78, Type (0, 1), BuildingBlock: OJICUG_clean_linker_0, # of connection points: 2
#     Edge 79, Type (0, 1), BuildingBlock: OJICUG_clean_linker_0, # of connection points: 2
#     Edge 80, Type (0, 1), BuildingBlock: OJICUG_clean_linker_0, # of connection points: 2
#     Edge 81, Type (0, 1), BuildingBlock: OJICUG_clean_linker_0, # of connection points: 2
#     Edge 82, Type (0, 1), BuildingBlock: OJICUG_clean_linker_0, # of connection points: 2
#     Edge 83, Type (0, 1), BuildingBlock: OJICUG_clean_linker_0, # of connection points: 2
#     Edge 84, Type (0, 1), BuildingBlock: OJICUG_clean_linker_0, # of connection points: 2
#     Edge 85, Type (0, 1), BuildingBlock: OJICUG_clean_linker_0, # of connection points: 2
#     Edge 86, Type (0, 1), BuildingBlock: OJICUG_clean_linker_0, # of connection points: 2
#     Edge 87, Type (0, 1), BuildingBlock: OJICUG_clean_linker_0, # of connection points: 2
#     Edge 88, Type (0, 1), BuildingBlock: OJICUG_clean_linker_0, # of connection points: 2
#     Edge 89, Type (0, 1), BuildingBlock: OJICUG_clean_linker_0, # of connection points: 2
#     Edge 90, Type (0, 1), BuildingBlock: OJICUG_clean_linker_0, # of connection points: 2
#     Edge 91, Type (0, 1), BuildingBlock: OJICUG_clean_linker_0, # of connection points: 2
#     Edge 92, Type (0, 1), BuildingBlock: OJICUG_clean_linker_0, # of connection points: 2
#     Edge 93, Type (0, 1), BuildingBlock: OJICUG_clean_linker_0, # of connection points: 2
#     Edge 94, Type (0, 1), BuildingBlock: OJICUG_clean_linker_0, # of connection points: 2
#     Edge 95, Type (0, 1), BuildingBlock: OJICUG_clean_linker_0, # of connection points: 2
#     Edge 96, Type (0, 1), BuildingBlock: OJICUG_clean_linker_0, # of connection points: 2
#     Edge 97, Type (0, 1), BuildingBlock: OJICUG_clean_linker_0, # of connection points: 2
#     Edge 98, Type (0, 1), BuildingBlock: OJICUG_clean_linker_0, # of connection points: 2
#     Edge 99, Type (0, 1), BuildingBlock: OJICUG_clean_linker_0, # of connection points: 2
#     Edge 100, Type (0, 1), BuildingBlock: OJICUG_clean_linker_0, # of connection points: 2
#     Edge 101, Type (0, 1), BuildingBlock: OJICUG_clean_linker_0, # of connection points: 2
#     Edge 102, Type (0, 1), BuildingBlock: OJICUG_clean_linker_0, # of connection points: 2
#     Edge 103, Type (0, 1), BuildingBlock: OJICUG_clean_linker_0, # of connection points: 2
#     Edge 104, Type (0, 1), BuildingBlock: OJICUG_clean_linker_0, # of connection points: 2
#     Edge 105, Type (0, 1), BuildingBlock: OJICUG_clean_linker_0, # of connection points: 2
#     Edge 106, Type (0, 1), BuildingBlock: OJICUG_clean_linker_0, # of connection points: 2
#     Edge 107, Type (0, 1), BuildingBlock: OJICUG_clean_linker_0, # of connection points: 2
#     Edge 108, Type (0, 1), BuildingBlock: OJICUG_clean_linker_0, # of connection points: 2
#     Edge 109, Type (0, 1), BuildingBlock: OJICUG_clean_linker_0, # of connection points: 2
#     Edge 110, Type (0, 1), BuildingBlock: OJICUG_clean_linker_0, # of connection points: 2
#     Edge 111, Type (0, 1), BuildingBlock: OJICUG_clean_linker_0, # of connection points: 2
#     Edge 112, Type (0, 1), BuildingBlock: OJICUG_clean_linker_0, # of connection points: 2
#     Edge 113, Type (0, 1), BuildingBlock: OJICUG_clean_linker_0, # of connection points: 2
#     Edge 114, Type (0, 1), BuildingBlock: OJICUG_clean_linker_0, # of connection points: 2
#     Edge 115, Type (0, 1), BuildingBlock: OJICUG_clean_linker_0, # of connection points: 2
#     Edge 116, Type (0, 1), BuildingBlock: OJICUG_clean_linker_0, # of connection points: 2
#     Edge 117, Type (0, 1), BuildingBlock: OJICUG_clean_linker_0, # of connection points: 2
#     Edge 118, Type (0, 1), BuildingBlock: OJICUG_clean_linker_0, # of connection points: 2
#     Edge 119, Type (0, 1), BuildingBlock: OJICUG_clean_linker_0, # of connection points: 2
#     Edge 120, Type (0, 1), BuildingBlock: OJICUG_clean_linker_0, # of connection points: 2
#     Edge 121, Type (0, 1), BuildingBlock: OJICUG_clean_linker_0, # of connection points: 2
#     Edge 122, Type (0, 1), BuildingBlock: OJICUG_clean_linker_0, # of connection points: 2
#     Edge 123, Type (0, 1), BuildingBlock: OJICUG_clean_linker_0, # of connection points: 2
#     Edge 124, Type (0, 1), BuildingBlock: OJICUG_clean_linker_0, # of connection points: 2
#     Edge 125, Type (0, 1), BuildingBlock: OJICUG_clean_linker_0, # of connection points: 2
#     Edge 126, Type (0, 1), BuildingBlock: OJICUG_clean_linker_0, # of connection points: 2
#     Edge 127, Type (0, 1), BuildingBlock: OJICUG_clean_linker_0, # of connection points: 2
#     Edge 128, Type (0, 1), BuildingBlock: OJICUG_clean_linker_0, # of connection points: 2
#     Edge 129, Type (0, 1), BuildingBlock: OJICUG_clean_linker_0, # of connection points: 2
#     Edge 130, Type (0, 1), BuildingBlock: OJICUG_clean_linker_0, # of connection points: 2
#     Edge 131, Type (0, 1), BuildingBlock: OJICUG_clean_linker_0, # of connection points: 2
#     Edge 132, Type (0, 1), BuildingBlock: OJICUG_clean_linker_0, # of connection points: 2
#     Edge 133, Type (0, 1), BuildingBlock: OJICUG_clean_linker_0, # of connection points: 2
#     Edge 134, Type (0, 1), BuildingBlock: OJICUG_clean_linker_0, # of connection points: 2
#     Edge 135, Type (0, 1), BuildingBlock: OJICUG_clean_linker_0, # of connection points: 2
# Relax obj value: 0.103
# Max RMSD: 0.306
# Mean RMSD: 0.130
data_MOF--net-gar--node1-KUFVIS_clean_sbu_0--node2-MIFKUJ_clean_sbu_0--edge1-OJICUG_clean_linker_0
_symmetry_space_group_name_H-M    P1
_symmetry_Int_Tables_number       1
_symmetry_cell_setting            triclinic
loop_
_symmetry_equiv_pos_as_xyz
'x, y, z'
_cell_length_a     41.498508
_cell_length_b     41.624106
_cell_length_c     40.863731
_cell_angle_alpha  94.748526
_cell_angle_beta   94.913206
_cell_angle_gamma 100.02986
loop_
_atom_site_label
_atom_site_type_symbol
_atom_site_fract_x
_atom_site_fract_y
_atom_site_fract_z
_atom_type_partial_charge
Mn0 Mn 0.02484 0.27919 0.42108 0.0
Mn1 Mn 0.02467 0.33216 0.36306 0.0
C2 C 0.97592 0.29014 0.39816 0.0
C3 C 0.02496 0.22784 0.43805 0.0
C4 C 0.04269 0.35282 0.43627 0.0
O5 O 0.07036 0.28211 0.40521 0.0
O6 O 0.06563 0.31348 0.36316 0.0
C7 C 0.02086 0.28663 0.30256 0.0
N8 N 0.00821 0.30956 0.32064 0.0
C9 C 0.96305 0.30658 0.27875 0.0
C10 C 0.97583 0.28325 0.25954 0.0
C11 C 0.00483 0.27319 0.27154 0.0
C12 C 0.98033 0.31946 0.3093 0.0
H13 H 0.0429 0.27848 0.31181 0.0
C14 C 0.08092 0.295 0.37991 0.0
O15 O 0.03615 0.25412 0.45785 0.0
O16 O 0.01478 0.23136 0.40778 0.0
N17 N 0.98556 0.35081 0.36002 0.0
C18 C 0.97493 0.37139 0.38272 0.0
C19 C 0.94534 0.38248 0.37521 0.0
C20 C 0.927 0.37236 0.34446 0.0
C21 C 0.93847 0.35128 0.32145 0.0
C22 C 0.96831 0.34128 0.33017 0.0
H23 H 0.98874 0.37911 0.40649 0.0
O24 O 0.97765 0.27877 0.42678 0.0
O25 O 0.00281 0.29449 0.38374 0.0
O26 O 0.03652 0.32433 0.44549 0.0
O27 O 0.04117 0.35858 0.40599 0.0
C28 C 0.92103 0.33915 0.29053 0.0
C29 C 0.93332 0.31684 0.26919 0.0
H30 H 0.96334 0.27255 0.23575 0.0
H31 H 0.01469 0.25497 0.25699 0.0
H32 H 0.93658 0.39864 0.39315 0.0
H33 H 0.904 0.38068 0.33891 0.0
H34 H 0.89786 0.3464 0.28314 0.0
H35 H 0.9194 0.30726 0.24573 0.0
Mn36 Mn 0.01259 0.74169 0.64589 0.0
Mn37 Mn 0.03594 0.79554 0.71393 0.0
C38 C 0.06598 0.75085 0.66943 0.0
C39 C 0.99233 0.68909 0.62078 0.0
C40 C 0.02365 0.81527 0.64498 0.0
O41 O 0.96926 0.7483 0.66306 0.0
O42 O 0.98813 0.7793 0.71117 0.0
C43 C 0.0229 0.75173 0.76657 0.0
N44 N 0.04416 0.77359 0.75213 0.0
C45 C 0.08768 0.77345 0.79496 0.0
C46 C 0.06623 0.75101 0.81039 0.0
C47 C 0.03374 0.74003 0.79606 0.0
C48 C 0.07549 0.78421 0.7656 0.0
H49 H 0.99786 0.74342 0.75571 0.0
C50 C 0.96483 0.76318 0.69057 0.0
O51 O 0.99037 0.71467 0.6051 0.0
O52 O 0.00373 0.69429 0.65173 0.0
N53 N 0.08194 0.81338 0.7197 0.0
C54 C 0.09977 0.83421 0.70111 0.0
C55 C 0.13305 0.84668 0.7115 0.0
C56 C 0.14737 0.83798 0.74109 0.0
C57 C 0.1284 0.8172 0.76018 0.0
C58 C 0.09543 0.80544 0.74854 0.0
H59 H 0.08877 0.84111 0.67846 0.0
O60 O 0.05889 0.73856 0.63892 0.0
O61 O 0.04168 0.75706 0.68542 0.0
O62 O 0.01876 0.78686 0.62944 0.0
O63 O 0.02869 0.82083 0.67631 0.0
C64 C 0.1411 0.80721 0.78999 0.0
C65 C 0.12076 0.7853 0.80735 0.0
H66 H 0.07449 0.74193 0.83314 0.0
H67 H 0.01705 0.72267 0.8078 0.0
H68 H 0.14763 0.86284 0.69672 0.0
H69 H 0.17303 0.84694 0.74883 0.0
H70 H 0.16659 0.81591 0.79954 0.0
H71 H 0.13089 0.77747 0.83004 0.0
Mn72 Mn 0.5241 0.77945 0.92537 0.0
Mn73 Mn 0.52435 0.83159 0.86668 0.0
C74 C 0.47528 0.79071 0.90217 0.0
C75 C 0.52468 0.72793 0.94139 0.0
C76 C 0.5445 0.8527 0.93966 0.0
O77 O 0.56968 0.78218 0.90951 0.0
O78 O 0.56399 0.8112 0.86574 0.0
C79 C 0.51696 0.78509 0.80643 0.0
N80 N 0.506 0.80908 0.82473 0.0
C81 C 0.46039 0.80797 0.78384 0.0
C82 C 0.47146 0.78359 0.76436 0.0
C83 C 0.49982 0.77204 0.77577 0.0
C84 C 0.47867 0.82029 0.81406 0.0
H85 H 0.53847 0.77581 0.81526 0.0
C86 C 0.57952 0.79349 0.8832 0.0
O87 O 0.53528 0.75387 0.96186 0.0
O88 O 0.51413 0.73191 0.91139 0.0
N89 N 0.48631 0.85194 0.86479 0.0
C90 C 0.47731 0.87347 0.88773 0.0
C91 C 0.44857 0.88622 0.8808 0.0
C92 C 0.42945 0.87682 0.85035 0.0
C93 C 0.43919 0.85466 0.82712 0.0
C94 C 0.46824 0.84299 0.83527 0.0
H95 H 0.49183 0.88076 0.9112 0.0
O96 O 0.47656 0.7792 0.93074 0.0
O97 O 0.50237 0.7949 0.88823 0.0
O98 O 0.53638 0.8247 0.94961 0.0
O99 O 0.54302 0.85768 0.90913 0.0
C100 C 0.42081 0.84314 0.79652 0.0
C101 C 0.43139 0.8198 0.7749 0.0
H102 H 0.45812 0.77321 0.74084 0.0
H103 H 0.50832 0.75298 0.76104 0.0
H104 H 0.4411 0.90316 0.89893 0.0
H105 H 0.4072 0.88654 0.84516 0.0
H106 H 0.39819 0.85165 0.78961 0.0
H107 H 0.41672 0.81068 0.75172 0.0
Mn108 Mn 0.51236 0.236 0.14642 0.0
Mn109 Mn 0.45071 0.2249 0.08491 0.0
C110 C 0.48935 0.18414 0.12278 0.0
C111 C 0.56756 0.24386 0.16558 0.0
C112 C 0.44282 0.24543 0.15633 0.0
O113 O 0.51643 0.28078 0.12918 0.0
O114 O 0.4767 0.2697 0.08597 0.0
C115 C 0.48758 0.22758 0.02606 0.0
N116 N 0.46503 0.2109 0.04376 0.0
C117 C 0.45444 0.16428 0.00285 0.0
C118 C 0.47751 0.181 0.98414 0.0
C119 C 0.49413 0.21278 0.99579 0.0
C120 C 0.4486 0.18045 0.0326 0.0
H121 H 0.50053 0.25194 0.03503 0.0
C122 C 0.50037 0.28884 0.10396 0.0
O123 O 0.54595 0.25214 0.1842 0.0
O124 O 0.55729 0.23218 0.13531 0.0
N125 N 0.42459 0.18186 0.08199 0.0
C126 C 0.40534 0.16809 0.10437 0.0
C127 C 0.38821 0.1357 0.09727 0.0
C128 C 0.39108 0.11783 0.06729 0.0
C129 C 0.41109 0.13253 0.04467 0.0
C130 C 0.42734 0.16497 0.05296 0.0
H131 H 0.4033 0.18163 0.12757 0.0
O132 O 0.50376 0.18833 0.15272 0.0
O133 O 0.48783 0.2105 0.10839 0.0
O134 O 0.47154 0.24323 0.1683 0.0
O135 O 0.43279 0.23915 0.1257 0.0
C136 C 0.41618 0.11599 0.0146 0.0
C137 C 0.43778 0.13186 0.99366 0.0
H138 H 0.48293 0.16952 0.96098 0.0
H139 H 0.51207 0.22577 0.98156 0.0
H140 H 0.37298 0.12447 0.11495 0.0
H141 H 0.37809 0.09275 0.06203 0.0
H142 H 0.40399 0.09088 0.0076 0.0
H143 H 0.44188 0.11869 0.97085 0.0
Mn144 Mn 0.04715 0.78678 0.15771 0.0
Mn145 Mn 0.99175 0.76302 0.09079 0.0
C146 C 0.0344 0.73225 0.13647 0.0
C147 C 0.10007 0.80352 0.18348 0.0
C148 C 0.9734 0.77904 0.15946 0.0
O149 O 0.04408 0.83032 0.13823 0.0
O150 O 0.0105 0.81004 0.09183 0.0
C151 C 0.03573 0.77146 0.0376 0.0
N152 N 0.01277 0.75214 0.05269 0.0
C153 C 0.00929 0.70737 0.01059 0.0
C154 C 0.03278 0.72685 0.99446 0.0
C155 C 0.04621 0.75898 0.00815 0.0
C156 C 1.00007 0.72105 0.04002 0.0
H157 H 0.04587 0.7962 0.04793 0.0
C158 C 0.02877 0.83359 0.11048 0.0
O159 O 0.0747 0.80877 0.19813 0.0
O160 O 0.09479 0.79157 0.15268 0.0
N161 N 0.97162 0.71776 0.08663 0.0
C162 C 0.95028 0.70178 0.10603 0.0
C163 C 0.9352 0.66914 0.09628 0.0
C164 C 0.94179 0.65356 0.06645 0.0
C165 C 0.96362 0.67053 0.04676 0.0
C166 C 0.97807 0.70293 0.05787 0.0
H167 H 0.94472 0.71382 0.12874 0.0
O168 O 0.04683 0.74023 0.16685 0.0
O169 O 0.02998 0.75626 0.11927 0.0
O170 O 0.00221 0.78436 0.1743 0.0
O171 O 0.96704 0.77271 0.1283 0.0
C172 C 0.97161 0.65665 0.01655 0.0
C173 C 0.99468 0.67493 0.99865 0.0
H174 H 0.04077 0.71737 0.97164 0.0
H175 H 0.06442 0.77415 0.9959 0.0
H176 H 0.91834 0.65611 0.11154 0.0
H177 H 0.93 0.62859 0.05897 0.0
H178 H 0.96022 0.632 0.00673 0.0
H179 H 1.00097 0.6638 0.97572 0.0
Mn180 Mn 0.49379 0.74881 0.39251 0.0
Mn181 Mn 0.49309 0.79056 0.32549 0.0
C182 C 0.44377 0.75129 0.36383 0.0
C183 C 0.50224 0.70176 0.41604 0.0
C184 C 0.50628 0.82259 0.39611 0.0
O185 O 0.54132 0.75646 0.38129 0.0
O186 O 0.53455 0.77409 0.33109 0.0
C187 C 0.49158 0.73642 0.27332 0.0
N188 N 0.47849 0.76191 0.28613 0.0
C189 C 0.43761 0.75557 0.23953 0.0
C190 C 0.4507 0.7293 0.2257 0.0
C191 C 0.4777 0.71957 0.24277 0.0
C192 C 0.4522 0.77107 0.27024 0.0
H193 H 0.51249 0.72909 0.2863 0.0
C194 C 0.5519 0.76404 0.35402 0.0
O195 O 0.50708 0.72995 0.43352 0.0
O196 O 0.49165 0.70078 0.38502 0.0
N197 N 0.45443 0.80842 0.31637 0.0
C198 C 0.445 0.83428 0.33316 0.0
C199 C 0.41938 0.84802 0.31897 0.0
C200 C 0.40376 0.83516 0.28763 0.0
C201 C 0.41366 0.80839 0.27088 0.0
C202 C 0.43989 0.79618 0.28597 0.0
H203 H 0.45738 0.8449 0.35687 0.0
O204 O 0.44492 0.74258 0.39366 0.0
O205 O 0.47167 0.75681 0.35128 0.0
O206 O 0.49859 0.79668 0.41032 0.0
O207 O 0.50781 0.82241 0.36496 0.0
C208 C 0.39895 0.79365 0.23962 0.0
C209 C 0.41067 0.76699 0.22413 0.0
H210 H 0.4402 0.7164 0.20205 0.0
H211 H 0.4879 0.69928 0.23231 0.0
H212 H 0.41232 0.86893 0.33197 0.0
H213 H 0.38475 0.84649 0.27638 0.0
H214 H 0.37849 0.80246 0.22736 0.0
H215 H 0.39893 0.75561 0.20029 0.0
Mn216 Mn 0.54341 0.26721 0.65848 0.0
Mn217 Mn 0.48669 0.24142 0.59268 0.0
C218 C 0.53214 0.21286 0.63901 0.0
C219 C 0.59622 0.28759 0.68276 0.0
C220 C 0.46974 0.25637 0.66188 0.0
O221 O 0.53749 0.30925 0.6391 0.0
O222 O 0.50224 0.28948 0.59395 0.0
C223 C 0.52959 0.25383 0.53916 0.0
N224 N 0.50802 0.23282 0.55418 0.0
C225 C 0.5084 0.18871 0.51235 0.0
C226 C 0.5305 0.20992 0.4963 0.0
C227 C 0.54122 0.24259 0.50984 0.0
C228 C 0.4977 0.20131 0.54149 0.0
H229 H 0.5378 0.27897 0.54946 0.0
C230 C 0.52033 0.31309 0.61274 0.0
O231 O 0.57073 0.29135 0.69791 0.0
O232 O 0.59091 0.27428 0.65239 0.0
N233 N 0.469 0.19551 0.58777 0.0
C234 C 0.44825 0.17803 0.60672 0.0
C235 C 0.43608 0.14466 0.59715 0.0
C236 C 0.44485 0.12983 0.56794 0.0
C237 C 0.46519 0.14856 0.54823 0.0
C238 C 0.47673 0.18166 0.55909 0.0
H239 H 0.44137 0.18935 0.62916 0.0
O240 O 0.54562 0.22207 0.66889 0.0
O241 O 0.5262 0.23584 0.62072 0.0
O242 O 0.49889 0.26359 0.67578 0.0
O243 O 0.46216 0.24876 0.631 0.0
C244 C 0.47513 0.13547 0.51867 0.0
C245 C 0.49678 0.1555 0.50074 0.0
H246 H 0.53953 0.20135 0.47368 0.0
H247 H 0.55834 0.25908 0.49766 0.0
H248 H 0.42022 0.13033 0.61239 0.0
H249 H 0.43643 0.10392 0.56119 0.0
H250 H 0.46643 0.10995 0.50977 0.0
H251 H 0.50452 0.14507 0.4782 0.0
Mn252 Mn 0.99466 0.2464 0.89422 0.0
Mn253 Mn 0.98948 0.28931 0.82818 0.0
C254 C 0.94351 0.24574 0.86654 0.0
C255 C 0.00638 0.20036 0.91756 0.0
C256 C 0.00189 0.32001 0.89925 0.0
O257 O 0.04165 0.25723 0.8821 0.0
O258 O 0.03289 0.27642 0.83286 0.0
C259 C 0.99192 0.23808 0.77415 0.0
N260 N 0.97655 0.2613 0.78812 0.0
C261 C 0.93509 0.25335 0.74186 0.0
C262 C 0.95052 0.2294 0.72686 0.0
C263 C 0.97898 0.22164 0.74315 0.0
C264 C 0.94901 0.2687 0.77285 0.0
H265 H 0.01394 0.23227 0.78654 0.0
C266 C 0.05137 0.26663 0.85506 0.0
O267 O 0.01006 0.22848 0.93493 0.0
O268 O 0.99549 0.19886 0.88654 0.0
N269 N 0.94876 0.30377 0.82017 0.0
C270 C 0.9367 0.32699 0.83839 0.0
C271 C 0.90855 0.33777 0.82567 0.0
C272 C 0.89324 0.32479 0.79424 0.0
C273 C 0.90622 0.30115 0.77576 0.0
C274 C 0.9346 0.29161 0.78962 0.0
H275 H 0.94858 0.33747 0.86234 0.0
O276 O 0.94605 0.23697 0.8963 0.0
O277 O 0.97091 0.25339 0.85336 0.0
O278 O 0.99669 0.29352 0.91288 0.0
O279 O 0.00239 0.3208 0.86811 0.0
C280 C 0.89203 0.28651 0.7443 0.0
C281 C 0.90636 0.26247 0.72744 0.0
H282 H 0.94067 0.21675 0.70291 0.0
H283 H 0.99099 0.20316 0.73176 0.0
H284 H 0.89906 0.35627 0.84009 0.0
H285 H 0.87165 0.33317 0.78446 0.0
H286 H 0.86991 0.29328 0.73302 0.0
H287 H 0.89504 0.25109 0.70344 0.0
Mn288 Mn 0.40785 0.01841 0.29527 0.0
Mn289 Mn 0.35485 0.01876 0.35308 0.0
C290 C 0.38077 0.96988 0.31126 0.0
C291 C 0.42112 0.0165 0.2415 0.0
C292 C 0.42896 0.03488 0.36899 0.0
O293 O 0.39608 0.06406 0.29468 0.0
O294 O 0.3593 0.06072 0.33264 0.0
C295 C 0.29396 0.01907 0.30965 0.0
N296 N 0.31104 0.0044 0.33221 0.0
C297 C 0.26639 0.9585 0.32958 0.0
C298 C 0.24828 0.97323 0.3065 0.0
C299 C 0.26213 0.00365 0.29651 0.0
C300 C 0.2979 0.97515 0.34205 0.0
H301 H 0.30459 0.04227 0.30158 0.0
C302 C 0.37471 0.07554 0.31069 0.0
O303 O 0.44306 0.02809 0.26608 0.0
O304 O 0.39091 0.00772 0.24796 0.0
N305 N 0.34811 0.97865 0.37348 0.0
C306 C 0.36923 0.96715 0.39504 0.0
C307 C 0.3592 0.93682 0.40721 0.0
C308 C 0.32762 0.9186 0.39705 0.0
C309 C 0.30625 0.93103 0.375 0.0
C310 C 0.31742 0.96165 0.36409 0.0
H311 H 0.39362 0.98088 0.40279 0.0
O312 O 0.4086 0.97092 0.29873 0.0
O313 O 0.37038 0.9974 0.31471 0.0
O314 O 0.43565 0.03009 0.33946 0.0
O315 O 0.39963 0.03267 0.37706 0.0
C316 C 0.27452 0.91398 0.36299 0.0
C317 C 0.25462 0.92768 0.34026 0.0
H318 H 0.22381 0.9613 0.2961 0.0
H319 H 0.24838 0.01509 0.27856 0.0
H320 H 0.37586 0.92738 0.42419 0.0
H321 H 0.32013 0.89502 0.40617 0.0
H322 H 0.26529 0.89017 0.37084 0.0
H323 H 0.23039 0.91419 0.33097 0.0
Mn324 Mn 0.2607 0.14025 0.51322 0.0
Mn325 Mn 0.2445 0.08164 0.44892 0.0
C326 C 0.20699 0.11364 0.4966 0.0
C327 C 0.27077 0.15789 0.56961 0.0
C328 C 0.26456 0.1545 0.44085 0.0
O329 O 0.30493 0.12465 0.51111 0.0
O330 O 0.29053 0.08453 0.46875 0.0
C331 C 0.24914 0.02195 0.48246 0.0
N332 N 0.23128 0.03921 0.46332 0.0
C333 C 0.1842 0.99551 0.4575 0.0
C334 C 0.20213 0.97726 0.47706 0.0
C335 C 0.23474 0.99055 0.48959 0.0
C336 C 0.19998 0.02651 0.45086 0.0
H337 H 0.27417 0.03208 0.49228 0.0
C338 C 0.31106 0.10076 0.49215 0.0
O339 O 0.27891 0.17754 0.54744 0.0
O340 O 0.25837 0.12762 0.55907 0.0
N341 N 0.20018 0.07641 0.42896 0.0
C342 C 0.18546 0.09815 0.41267 0.0
C343 C 0.1523 0.08921 0.39988 0.0
C344 C 0.13462 0.05806 0.40395 0.0
C345 C 0.15027 0.03611 0.42081 0.0
C346 C 0.18344 0.04628 0.43283 0.0
H347 H 0.19884 0.12222 0.40969 0.0
O348 O 0.21277 0.14324 0.51132 0.0
O349 O 0.23279 0.10156 0.49029 0.0
O350 O 0.26635 0.16459 0.47137 0.0
O351 O 0.25719 0.12408 0.43041 0.0
C352 C 0.13406 0.00481 0.42678 0.0
C353 C 0.15103 0.98449 0.44504 0.0
H354 H 0.19101 0.95316 0.4829 0.0
H355 H 0.2487 0.97666 0.50481 0.0
H356 H 0.14034 0.10635 0.38704 0.0
H357 H 0.10896 0.05136 0.39429 0.0
H358 H 0.1084 0.99629 0.41781 0.0
H359 H 0.13817 0.96066 0.44985 0.0
Mn360 Mn 0.14762 0.02564 0.80175 0.0
Mn361 Mn 0.20919 0.03703 0.86336 0.0
C362 C 0.17639 0.07812 0.81967 0.0
C363 C 0.12826 0.01735 0.74535 0.0
C364 C 0.13654 0.01903 0.87458 0.0
O365 O 0.16173 0.98068 0.80144 0.0
O366 O 0.20568 0.99217 0.84012 0.0
C367 C 0.26726 0.03502 0.8263 0.0
N368 N 0.2509 0.05149 0.84765 0.0
C369 C 0.29429 0.09885 0.85369 0.0
C370 C 0.31161 0.08233 0.83187 0.0
C371 C 0.29804 0.05028 0.81814 0.0
C372 C 0.26391 0.08224 0.86129 0.0
H373 H 0.25688 0.01047 0.81545 0.0
C374 C 0.18735 0.97322 0.81677 0.0
O375 O 0.10895 0.00953 0.76793 0.0
O376 O 0.15892 0.02874 0.75545 0.0
N377 N 0.21523 0.08017 0.88609 0.0
C378 C 0.19415 0.09381 0.90435 0.0
C379 C 0.20336 0.12639 0.91849 0.0
C380 C 0.23407 0.14466 0.9137 0.0
C381 C 0.25533 0.13017 0.89477 0.0
C382 C 0.24495 0.09749 0.8815 0.0
H383 H 0.17035 0.0801 0.90786 0.0
O384 O 0.14648 0.07393 0.80559 0.0
O385 O 0.18761 0.05147 0.82414 0.0
O386 O 0.12507 0.01993 0.84474 0.0
O387 O 0.16745 0.02322 0.8833 0.0
C388 C 0.28601 0.14717 0.88782 0.0
C389 C 0.30552 0.1315 0.86737 0.0
H390 H 0.33518 0.09416 0.82519 0.0
H391 H 0.31119 0.03743 0.80115 0.0
H392 H 0.18671 0.13748 0.93287 0.0
H393 H 0.24092 0.16991 0.92433 0.0
H394 H 0.29462 0.17248 0.89766 0.0
H395 H 0.32884 0.14499 0.8618 0.0
Mn396 Mn 0.26828 0.86641 0.00781 0.0
Mn397 Mn 0.27402 0.92177 0.95199 0.0
C398 C 0.31912 0.88918 0.99321 0.0
C399 C 0.26614 0.85226 0.06112 0.0
C400 C 0.25111 0.84875 0.93383 0.0
O401 O 0.22407 0.88132 0.00716 0.0
O402 O 0.23166 0.92041 0.97191 0.0
C403 C 0.27875 0.98291 0.99615 0.0
N404 N 0.29167 0.96471 0.97315 0.0
C405 C 0.33928 0.00719 0.97374 0.0
C406 C 0.32636 0.02648 0.99726 0.0
C407 C 0.29598 0.01427 0.00852 0.0
C408 C 0.32081 0.9763 0.96199 0.0
H409 H 0.25554 0.97351 0.00508 0.0
C410 C 0.21465 0.90422 0.99198 0.0
O411 O 0.25427 0.8312 0.03596 0.0
O412 O 0.27834 0.88194 0.05539 0.0
N413 N 0.31422 0.92533 0.93169 0.0
C414 C 0.32468 0.90249 0.91135 0.0
C415 C 0.35543 0.91016 0.8992 0.0
C416 C 0.37508 0.94123 0.90799 0.0
C417 C 0.36378 0.96436 0.92891 0.0
C418 C 0.33277 0.95542 0.94005 0.0
H419 H 0.30985 0.87845 0.90472 0.0
O420 O 0.31485 0.86113 0.00545 0.0
O421 O 0.29337 0.90298 0.98979 0.0
O422 O 0.25523 0.84049 0.96291 0.0
O423 O 0.25643 0.87851 0.92712 0.0
C424 C 0.38245 0.99558 0.93988 0.0
C425 C 0.37019 0.01699 0.96223 0.0
H426 H 0.33974 0.05052 0.00715 0.0
H427 H 0.28596 0.02892 0.02684 0.0
H428 H 0.36404 0.89205 0.8833 0.0
H429 H 0.39895 0.94692 0.89885 0.0
H430 H 0.40652 0.00317 0.93172 0.0
H431 H 0.38503 0.04071 0.97084 0.0
Mn432 Mn 0.29495 0.3895 0.07164 0.0
Mn433 Mn 0.3057 0.45611 0.02799 0.0
C434 C 0.34867 0.41706 0.0653 0.0
C435 C 0.28503 0.36166 0.11924 0.0
C436 C 0.28656 0.38643 0.99635 0.0
O437 O 0.24906 0.40333 0.06889 0.0
O438 O 0.26194 0.44918 0.04365 0.0
C439 C 0.30391 0.50841 0.08111 0.0
N440 N 0.31947 0.49568 0.05646 0.0
C441 C 0.36185 0.54374 0.06204 0.0
C442 C 0.34627 0.55748 0.08744 0.0
C443 C 0.31722 0.53969 0.09707 0.0
C444 C 0.34737 0.51254 0.04701 0.0
H445 H 0.28142 0.49489 0.08833 0.0
C446 C 0.24173 0.42929 0.05747 0.0
O447 O 0.27723 0.34749 0.0896 0.0
O448 O 0.29823 0.39267 0.12164 0.0
N449 N 0.34685 0.46636 0.0106 0.0
C450 C 0.35917 0.44899 0.98644 0.0
C451 C 0.38887 0.46258 0.97499 0.0
C452 C 0.40502 0.49402 0.98805 0.0
C453 C 0.39113 0.5121 0.01173 0.0
C454 C 0.36165 0.49714 0.02242 0.0
H455 H 0.34675 0.42477 0.97643 0.0
O456 O 0.34322 0.38696 0.0727 0.0
O457 O 0.32271 0.43073 0.06251 0.0
O458 O 0.28765 0.37239 0.02274 0.0
O459 O 0.29169 0.41736 0.99561 0.0
C460 C 0.40605 0.5437 0.02622 0.0
C461 C 0.39136 0.55955 0.05129 0.0
H462 H 0.35647 0.58159 0.09981 0.0
H463 H 0.30504 0.55011 0.11664 0.0
H464 H 0.39959 0.44869 0.95661 0.0
H465 H 0.42872 0.50332 0.9808 0.0
H466 H 0.42911 0.5558 0.01877 0.0
H467 H 0.40319 0.5837 0.06244 0.0
Mn468 Mn 0.78308 0.16072 0.0492 0.0
Mn469 Mn 0.75678 0.10184 0.98562 0.0
C470 C 0.72725 0.14018 0.0366 0.0
C471 C 0.80069 0.18189 0.10371 0.0
C472 C 0.77616 0.17352 0.97659 0.0
O473 O 0.82503 0.14252 0.04151 0.0
O474 O 0.80422 0.1051 0.99868 0.0
C475 C 0.76701 0.04463 0.02115 0.0
N476 N 0.74693 0.06018 0.00249 0.0
C477 C 0.70305 0.01344 0.99749 0.0
C478 C 0.72326 0.99685 0.01655 0.0
C479 C 0.75531 0.01262 0.02863 0.0
C480 C 0.71586 0.04552 0.99135 0.0
H481 H 0.79181 0.05646 0.03013 0.0
C482 C 0.828 0.11975 0.0195 0.0
O483 O 0.80761 0.19856 0.07909 0.0
O484 O 0.78561 0.15162 0.09664 0.0
N485 N 0.71123 0.09474 0.9697 0.0
C486 C 0.6948 0.11426 0.95194 0.0
C487 C 0.6622 0.10233 0.93861 0.0
C488 C 0.64731 0.07019 0.94279 0.0
C489 C 0.66494 0.05026 0.96038 0.0
C490 C 0.69711 0.06366 0.97362 0.0
H491 H 0.70645 0.13872 0.94799 0.0
O492 O 0.73748 0.16898 0.05244 0.0
O493 O 0.74987 0.12365 0.0287 0.0
O494 O 0.78464 0.18291 0.00688 0.0
O495 O 0.76555 0.14366 0.96549 0.0
C496 C 0.652 0.01754 0.96509 0.0
C497 C 0.67084 0.9993 0.98402 0.0
H498 H 0.71444 0.97202 0.02204 0.0
H499 H 0.77107 1.0 0.04338 0.0
H500 H 0.64869 0.11771 0.92486 0.0
H501 H 0.62235 0.06111 0.93248 0.0
H502 H 0.62777 0.00599 0.95402 0.0
H503 H 0.66042 0.97431 0.98779 0.0
Mn504 Mn 0.13233 0.50937 0.25985 0.0
Mn505 Mn 0.19418 0.53762 0.32084 0.0
C506 C 0.15395 0.56512 0.26934 0.0
C507 C 0.10853 0.48934 0.20644 0.0
C508 C 0.12309 0.51953 0.33304 0.0
O509 O 0.15034 0.46775 0.26911 0.0
O510 O 0.1902 0.49 0.30952 0.0
C511 C 0.24966 0.5259 0.28322 0.0
N512 N 0.23498 0.54657 0.30202 0.0
C513 C 0.28104 0.59062 0.30251 0.0
C514 C 0.29674 0.5698 0.28325 0.0
C515 C 0.2809 0.53733 0.27344 0.0
C516 C 0.2498 0.57793 0.31124 0.0
H517 H 0.23766 0.50087 0.27582 0.0
C518 C 0.17405 0.46552 0.29055 0.0
O519 O 0.09314 0.48403 0.23221 0.0
O520 O 0.13907 0.50432 0.21173 0.0
N521 N 0.20191 0.58333 0.3353 0.0
C522 C 0.18349 0.60012 0.35407 0.0
C523 C 0.19574 0.63296 0.36584 0.0
C524 C 0.22701 0.64791 0.35877 0.0
C525 C 0.24605 0.62985 0.34047 0.0
C526 C 0.23252 0.59722 0.32936 0.0
H527 H 0.15959 0.58861 0.35995 0.0
O528 O 0.1245 0.55474 0.25477 0.0
O529 O 0.17046 0.54272 0.27792 0.0
O530 O 0.11203 0.51005 0.30332 0.0
O531 O 0.15337 0.52999 0.34273 0.0
C532 C 0.27772 0.64298 0.33249 0.0
C533 C 0.29512 0.62347 0.31335 0.0
H534 H 0.3209 0.57849 0.27579 0.0
H535 H 0.29282 0.52112 0.25853 0.0
H536 H 0.18113 0.64673 0.38029 0.0
H537 H 0.23594 0.67332 0.36723 0.0
H538 H 0.28892 0.66805 0.34082 0.0
H539 H 0.31934 0.63396 0.30715 0.0
Mn540 Mn 0.79231 0.89072 0.57008 0.0
Mn541 Mn 0.80457 0.95998 0.53091 0.0
C542 C 0.84639 0.91881 0.56659 0.0
C543 C 0.78017 0.86021 0.61553 0.0
C544 C 0.78396 0.8915 0.49558 0.0
O545 O 0.74647 0.90493 0.56601 0.0
O546 O 0.76169 0.95461 0.54825 0.0
C547 C 0.80789 0.01092 0.58676 0.0
N548 N 0.82132 0.99832 0.56045 0.0
C549 C 0.86532 0.04499 0.56536 0.0
C550 C 0.85199 0.05855 0.59254 0.0
C551 C 0.82324 0.04136 0.60338 0.0
C552 C 0.84906 0.0145 0.54999 0.0
H553 H 0.78556 0.9979 0.59482 0.0
C554 C 0.74031 0.93277 0.5583 0.0
O555 O 0.77361 0.84754 0.58526 0.0
O556 O 0.79323 0.89129 0.61984 0.0
N557 N 0.84515 0.96876 0.51208 0.0
C558 C 0.85546 0.95145 0.4865 0.0
C559 C 0.88421 0.9647 0.47316 0.0
C560 C 0.9016 0.99583 0.48585 0.0
C561 C 0.89015 0.01358 0.51163 0.0
C562 C 0.86139 0.99902 0.52401 0.0
H563 H 0.84194 0.92767 0.4764 0.0
O564 O 0.84076 0.88833 0.57278 0.0
O565 O 0.82049 0.93241 0.56368 0.0
O566 O 0.78745 0.87607 0.52079 0.0
O567 O 0.78747 0.92264 0.49718 0.0
C568 C 0.90656 0.04468 0.52612 0.0
C569 C 0.89422 0.06032 0.55308 0.0
H570 H 0.86369 0.08206 0.60534 0.0
H571 H 0.81282 0.05166 0.62433 0.0
H572 H 0.89293 0.95091 0.45323 0.0
H573 H 0.92401 0.00553 0.4761 0.0
H574 H 0.92897 0.05653 0.51711 0.0
H575 H 0.90731 0.08399 0.56435 0.0
Mn576 Mn 0.89869 0.98686 0.2436 0.0
Mn577 Mn 0.83356 0.97461 0.28946 0.0
C578 C 0.87075 0.93307 0.24897 0.0
C579 C 0.92672 0.99637 0.19595 0.0
C580 C 0.90407 0.99058 0.31943 0.0
O581 O 0.88528 0.03286 0.2476 0.0
O582 O 0.84303 0.01996 0.27786 0.0
C583 C 0.78189 0.98349 0.23803 0.0
N584 N 0.79335 0.96533 0.26111 0.0
C585 C 0.74324 0.92539 0.25266 0.0
C586 C 0.7308 0.9437 0.22886 0.0
C587 C 0.75027 0.97282 0.22144 0.0
C588 C 0.77492 0.93723 0.26829 0.0
H589 H 0.79671 0.00599 0.23243 0.0
C590 C 0.86151 0.04052 0.263 0.0
O591 O 0.94088 0.00404 0.22561 0.0
O592 O 0.89535 0.98424 0.19343 0.0
N593 N 0.82061 0.93224 0.30337 0.0
C594 C 0.83669 0.91717 0.32633 0.0
C595 C 0.82107 0.88739 0.33596 0.0
C596 C 0.78896 0.87392 0.32231 0.0
C597 C 0.77225 0.89053 0.29994 0.0
C598 C 0.78915 0.92007 0.29118 0.0
H599 H 0.86145 0.92744 0.33669 0.0
O600 O 0.90089 0.93863 0.24157 0.0
O601 O 0.85725 0.95898 0.25283 0.0
O602 O 0.91669 0.99355 0.29235 0.0
O603 O 0.87326 0.98337 0.32138 0.0
C604 C 0.74013 0.87827 0.2849 0.0
C605 C 0.72562 0.89569 0.26124 0.0
H606 H 0.70642 0.93556 0.21604 0.0
H607 H 0.74086 0.98707 0.20307 0.0
H608 H 0.83394 0.8745 0.35328 0.0
H609 H 0.77805 0.85007 0.32785 0.0
H610 H 0.72656 0.85523 0.29094 0.0
H611 H 0.70105 0.88588 0.24958 0.0
Mn612 Mn 0.28019 0.65671 0.55217 0.0
Mn613 Mn 0.25294 0.59391 0.49234 0.0
C614 C 0.22424 0.6353 0.54162 0.0
C615 C 0.29982 0.68094 0.60542 0.0
C616 C 0.27223 0.6642 0.4786 0.0
O617 O 0.32218 0.63854 0.54423 0.0
O618 O 0.3002 0.59708 0.50556 0.0
C619 C 0.26195 0.53894 0.5317 0.0
N620 N 0.24233 0.55372 0.51169 0.0
C621 C 0.19813 0.50739 0.50784 0.0
C622 C 0.21782 0.49159 0.52838 0.0
C623 C 0.2498 0.50755 0.54057 0.0
C624 C 0.21134 0.53893 0.50044 0.0
H625 H 0.28675 0.55092 0.54061 0.0
C626 C 0.32455 0.61382 0.5243 0.0
O627 O 0.3053 0.69612 0.57954 0.0
O628 O 0.2847 0.65051 0.60035 0.0
N629 N 0.20756 0.58697 0.47613 0.0
C630 C 0.19181 0.60564 0.45659 0.0
C631 C 0.15953 0.59336 0.44256 0.0
C632 C 0.14426 0.56172 0.44798 0.0
C633 C 0.16123 0.54262 0.46742 0.0
C634 C 0.19312 0.55634 0.48117 0.0
H635 H 0.20381 0.62966 0.45163 0.0
O636 O 0.23453 0.66472 0.55604 0.0
O637 O 0.24686 0.61861 0.5342 0.0
O638 O 0.28006 0.67613 0.5083 0.0
O639 O 0.2625 0.63382 0.46955 0.0
C640 C 0.14794 0.5104 0.47337 0.0
C641 C 0.16612 0.49295 0.49397 0.0
H642 H 0.20868 0.4672 0.53489 0.0
H643 H 0.26518 0.49552 0.55642 0.0
H644 H 0.14661 0.60805 0.42728 0.0
H645 H 0.11956 0.55236 0.43709 0.0
H646 H 0.12397 0.49867 0.46186 0.0
H647 H 0.1554 0.46831 0.49863 0.0
Mn648 Mn 0.40001 0.48749 0.74172 0.0
Mn649 Mn 0.3298 0.47641 0.77927 0.0
C650 C 0.37164 0.43378 0.74556 0.0
C651 C 0.43048 0.49958 0.6962 0.0
C652 C 0.39803 0.49773 0.81552 0.0
O653 O 0.38625 0.53334 0.74578 0.0
O654 O 0.33484 0.5183 0.75985 0.0
C655 C 0.27863 0.47062 0.72297 0.0
N656 N 0.29154 0.45829 0.74993 0.0
C657 C 0.24496 0.41437 0.74663 0.0
C658 C 0.23109 0.42654 0.71879 0.0
C659 C 0.24807 0.45472 0.70683 0.0
C660 C 0.27552 0.43118 0.76156 0.0
H661 H 0.29146 0.49256 0.71409 0.0
C662 C 0.35798 0.53974 0.75184 0.0
O663 O 0.44339 0.5059 0.72647 0.0
O664 O 0.39929 0.48663 0.69198 0.0
N665 N 0.32142 0.43684 0.79993 0.0
C666 C 0.33899 0.42756 0.8261 0.0
C667 C 0.32604 0.39931 0.84043 0.0
C668 C 0.29496 0.38138 0.82811 0.0
C669 C 0.2769 0.39182 0.80174 0.0
C670 C 0.29119 0.42004 0.78833 0.0
H671 H 0.36274 0.44147 0.83591 0.0
O672 O 0.4022 0.43917 0.73934 0.0
O673 O 0.35805 0.45968 0.74784 0.0
O674 O 0.41419 0.49233 0.79124 0.0
O675 O 0.36685 0.4951 0.81276 0.0
C676 C 0.24579 0.37485 0.78757 0.0
C677 C 0.22986 0.38607 0.75999 0.0
H678 H 0.20749 0.41439 0.70633 0.0
H679 H 0.23751 0.46429 0.68539 0.0
H680 H 0.33998 0.39131 0.86084 0.0
H681 H 0.28564 0.35929 0.83865 0.0
H682 H 0.23416 0.3528 0.79721 0.0
H683 H 0.20618 0.37256 0.74905 0.0
Mn684 Mn 0.62845 0.00769 0.75862 0.0
Mn685 Mn 0.69134 0.03715 0.81829 0.0
C686 C 0.64922 0.06347 0.7673 0.0
C687 C 0.60429 0.98744 0.70562 0.0
C688 C 0.62063 0.01877 0.83179 0.0
O689 O 0.64709 0.96656 0.76801 0.0
O690 O 0.68788 0.98932 0.80735 0.0
C691 C 0.74637 0.02581 0.77985 0.0
N692 N 0.73163 0.04647 0.7986 0.0
C693 C 0.77641 0.09134 0.79669 0.0
C694 C 0.79214 0.07052 0.77748 0.0
C695 C 0.77701 0.03763 0.76896 0.0
C696 C 0.74588 0.07819 0.80679 0.0
H697 H 0.73486 1.00049 0.77331 0.0
C698 C 0.67144 0.96462 0.78879 0.0
O699 O 0.58905 0.98193 0.73147 0.0
O700 O 0.63485 0.00239 0.7107 0.0
N701 N 0.69864 0.08304 0.83222 0.0
C702 C 0.68035 0.09981 0.85118 0.0
C703 C 0.69192 0.13308 0.86168 0.0
C704 C 0.72241 0.14858 0.85314 0.0
C705 C 0.74146 0.13055 0.83478 0.0
C706 C 0.72867 0.09741 0.82508 0.0
H707 H 0.65698 0.08799 0.85805 0.0
O708 O 0.61969 0.05255 0.7532 0.0
O709 O 0.66645 0.04154 0.77576 0.0
O710 O 0.60898 0.00872 0.80237 0.0
O711 O 0.65101 0.02942 0.84088 0.0
C712 C 0.77222 0.14427 0.825 0.0
C713 C 0.78967 0.1247 0.80597 0.0
H714 H 0.81578 0.07954 0.76904 0.0
H715 H 0.78896 0.02141 0.75409 0.0
H716 H 0.67725 0.14683 0.87607 0.0
H717 H 0.73057 0.17446 0.86035 0.0
H718 H 0.78255 0.16993 0.83153 0.0
H719 H 0.81319 0.13561 0.79844 0.0
Mn720 Mn 0.7576 0.63894 0.00673 0.0
Mn721 Mn 0.74679 0.57878 0.94412 0.0
C722 C 0.70527 0.60974 0.98849 0.0
C723 C 0.76577 0.65718 0.06317 0.0
C724 C 0.76431 0.6516 0.93438 0.0
O725 O 0.80285 0.62561 0.00696 0.0
O726 O 0.79199 0.58312 0.96684 0.0
C727 C 0.75103 0.52032 0.97982 0.0
N728 N 0.73359 0.53666 0.95922 0.0
C729 C 0.68709 0.49231 0.95285 0.0
C730 C 0.70459 0.47501 0.97393 0.0
C731 C 0.73671 0.48908 0.98744 0.0
C732 C 0.70281 0.52317 0.94575 0.0
H733 H 0.77566 0.53104 0.99044 0.0
C734 C 0.81075 0.601 0.99057 0.0
O735 O 0.7734 0.67698 0.04097 0.0
O736 O 0.7545 0.6267 0.05263 0.0
N737 N 0.70326 0.57206 0.92178 0.0
C738 C 0.68881 0.59292 0.90393 0.0
C739 C 0.65611 0.58312 0.88991 0.0
C740 C 0.63859 0.55203 0.89441 0.0
C741 C 0.65394 0.53099 0.91291 0.0
C742 C 0.68667 0.54199 0.92609 0.0
H743 H 0.702 0.61699 0.90065 0.0
O744 O 0.70908 0.63944 0.00274 0.0
O745 O 0.73221 0.59911 0.98378 0.0
O746 O 0.76355 0.66241 0.96438 0.0
O747 O 0.75954 0.62094 0.92494 0.0
C748 C 0.63779 0.49986 0.91942 0.0
C749 C 0.65438 0.48049 0.9393 0.0
H750 H 0.6935 0.45106 0.98017 0.0
H751 H 0.75034 0.47593 0.00382 0.0
H752 H 0.64436 0.59957 0.87583 0.0
H753 H 0.61326 0.54469 0.88382 0.0
H754 H 0.61246 0.49074 0.90961 0.0
H755 H 0.64157 0.45677 0.94446 0.0
Mn756 Mn 0.90958 0.51757 0.8003 0.0
Mn757 Mn 0.85418 0.51773 0.85584 0.0
C758 C 0.88148 0.46881 0.81548 0.0
C759 C 0.92491 0.51651 0.74704 0.0
C760 C 0.92804 0.5343 0.87454 0.0
O761 O 0.89755 0.56321 0.79896 0.0
O762 O 0.8588 0.55941 0.83492 0.0
C763 C 0.79451 0.51679 0.81012 0.0
N764 N 0.81102 0.50266 0.8336 0.0
C765 C 0.76653 0.45654 0.83042 0.0
C766 C 0.749 0.47072 0.80639 0.0
C767 C 0.76307 0.50097 0.79619 0.0
C768 C 0.7977 0.47353 0.84356 0.0
H769 H 0.8053 0.53988 0.80191 0.0
C770 C 0.87504 0.5743 0.81357 0.0
O771 O 0.94602 0.52759 0.77241 0.0
O772 O 0.89443 0.50723 0.75243 0.0
N773 N 0.84711 0.47786 0.87662 0.0
C774 C 0.86762 0.46694 0.89928 0.0
C775 C 0.85723 0.43693 0.91193 0.0
C776 C 0.82592 0.41843 0.90114 0.0
C777 C 0.80517 0.43025 0.87796 0.0
C778 C 0.81666 0.46057 0.86658 0.0
H779 H 0.89177 0.48093 0.90759 0.0
O780 O 0.9098 0.46984 0.80391 0.0
O781 O 0.87131 0.49645 0.81847 0.0
O782 O 0.93582 0.52922 0.84542 0.0
O783 O 0.89826 0.5324 0.88126 0.0
C784 C 0.77375 0.41287 0.86529 0.0
C785 C 0.75448 0.42597 0.84149 0.0
H786 H 0.72481 0.4585 0.79544 0.0
H787 H 0.74976 0.51199 0.77752 0.0
H788 H 0.87341 0.42797 0.92979 0.0
H789 H 0.81815 0.3951 0.91066 0.0
H790 H 0.7643 0.38927 0.87347 0.0
H791 H 0.73049 0.41224 0.83171 0.0
Mn792 Mn 0.76863 0.36939 0.51307 0.0
Mn793 Mn 0.77628 0.42661 0.45908 0.0
C794 C 0.81995 0.39235 0.49974 0.0
C795 C 0.7663 0.35307 0.56568 0.0
C796 C 0.75306 0.35389 0.43838 0.0
O797 O 0.72526 0.38595 0.5137 0.0
O798 O 0.73349 0.42464 0.47804 0.0
C799 C 0.77911 0.48661 0.50444 0.0
N800 N 0.79305 0.46913 0.48166 0.0
C801 C 0.8402 0.51242 0.48416 0.0
C802 C 0.82624 0.53095 0.50748 0.0
C803 C 0.79558 0.51797 0.51766 0.0
C804 C 0.82243 0.4815 0.47148 0.0
H805 H 0.75564 0.47671 0.51253 0.0
C806 C 0.71659 0.4093 0.49869 0.0
O807 O 0.75392 0.33313 0.53985 0.0
O808 O 0.77896 0.38297 0.5611 0.0
N809 N 0.81725 0.43124 0.44007 0.0
C810 C 0.82858 0.40916 0.41959 0.0
C811 C 0.85971 0.4177 0.40841 0.0
C812 C 0.87882 0.44883 0.41835 0.0
C813 C 0.86662 0.47117 0.4394 0.0
C814 C 0.83531 0.46139 0.44954 0.0
H815 H 0.81414 0.38509 0.41209 0.0
O816 O 0.81498 0.36349 0.5103 0.0
O817 O 0.7945 0.40657 0.4966 0.0
O818 O 0.75525 0.3448 0.46728 0.0
O819 O 0.75963 0.38391 0.43269 0.0
C820 C 0.88465 0.50243 0.45138 0.0
C821 C 0.87143 0.52306 0.4737 0.0
H822 H 0.83902 0.555 0.518 0.0
H823 H 0.78473 0.53204 0.53578 0.0
H824 H 0.86904 0.40025 0.39233 0.0
H825 H 0.90296 0.45519 0.40994 0.0
H826 H 0.90894 0.51065 0.44399 0.0
H827 H 0.88575 0.54683 0.48312 0.0
Mn828 Mn 0.64691 0.52594 0.30219 0.0
Mn829 Mn 0.70822 0.53444 0.36331 0.0
C830 C 0.67809 0.57762 0.31985 0.0
C831 C 0.62796 0.51759 0.24606 0.0
C832 C 0.63517 0.5192 0.37443 0.0
O833 O 0.65786 0.47968 0.30245 0.0
O834 O 0.70295 0.48962 0.33953 0.0
C835 C 0.7657 0.53063 0.32584 0.0
N836 N 0.75019 0.54756 0.34764 0.0
C837 C 0.79495 0.59366 0.35385 0.0
C838 C 0.81148 0.5766 0.33168 0.0
C839 C 0.79677 0.54495 0.31762 0.0
C840 C 0.76422 0.57795 0.3615 0.0
H841 H 0.75439 0.50646 0.31464 0.0
C842 C 0.68318 0.471 0.31701 0.0
O843 O 0.60812 0.51121 0.26852 0.0
O844 O 0.65881 0.5278 0.25618 0.0
N845 N 0.71584 0.57744 0.38654 0.0
C846 C 0.69544 0.59177 0.40509 0.0
C847 C 0.7058 0.6241 0.4196 0.0
C848 C 0.73696 0.64143 0.41484 0.0
C849 C 0.7575 0.62624 0.39558 0.0
C850 C 0.74598 0.59383 0.38199 0.0
H851 H 0.67131 0.57879 0.40857 0.0
O852 O 0.64837 0.57476 0.30563 0.0
O853 O 0.6877 0.55018 0.32443 0.0
O854 O 0.62398 0.52164 0.34488 0.0
O855 O 0.666 0.5218 0.38304 0.0
C856 C 0.78856 0.64231 0.38862 0.0
C857 C 0.80731 0.62601 0.36784 0.0
H858 H 0.83527 0.58772 0.32494 0.0
H859 H 0.80927 0.53172 0.30029 0.0
H860 H 0.68971 0.63574 0.43423 0.0
H861 H 0.7447 0.66651 0.42575 0.0
H862 H 0.79805 0.6674 0.39872 0.0
H863 H 0.83093 0.63881 0.36225 0.0
Zn864 Zn 0.04754 0.98091 0.04021 0.0
Zn865 Zn 0.99685 0.03142 0.01076 0.0
C866 C 0.99653 0.9223 0.02491 0.0
O867 O 0.97002 0.90488 0.008 0.0
C868 C 0.01395 0.08084 0.97459 0.0
O869 O 0.99749 0.05564 0.955 0.0
O870 O 0.08624 0.95698 0.04383 0.0
O871 O 0.063 0.01622 0.01058 0.0
O872 O 0.01822 0.00449 0.97618 0.0
C873 C 0.0923 0.94604 0.01538 0.0
O874 O 0.0716 0.94779 0.98972 0.0
O875 O 0.00846 0.95014 0.0162 0.0
C876 C 0.94581 0.0623 0.02179 0.0
O877 O 0.96958 0.07374 0.04537 0.0
O878 O 0.95002 0.03946 1.00045 0.0
O879 O 0.99493 0.01854 0.05823 0.0
O880 O 0.03182 0.99473 0.08407 0.0
O881 O 0.02007 0.07744 0.00515 0.0
C882 C 0.04961 0.01101 0.98095 0.0
C883 C 0.00578 0.00707 0.08407 0.0
Zn884 Zn 0.25305 0.76185 0.31217 0.0
Zn885 Zn 0.27647 0.78052 0.24831 0.0
C886 C 0.20958 0.70283 0.29537 0.0
O887 O 0.19273 0.72176 0.31146 0.0
C888 C 0.31044 0.84318 0.26993 0.0
O889 O 0.32819 0.83277 0.24765 0.0
O890 O 0.24979 0.75598 0.36042 0.0
O891 O 0.30169 0.78049 0.31254 0.0
O892 O 0.31091 0.75553 0.26598 0.0
C893 C 0.27163 0.73924 0.36859 0.0
O894 O 0.28947 0.72974 0.34596 0.0
O895 O 0.23913 0.71467 0.29081 0.0
C896 C 0.26826 0.81378 0.1928 0.0
O897 O 0.25357 0.82977 0.21433 0.0
O898 O 0.2814 0.78994 0.20141 0.0
O899 O 0.22969 0.75955 0.24694 0.0
O900 O 0.22119 0.7883 0.29154 0.0
O901 O 0.28415 0.82486 0.27545 0.0
C902 C 0.3206 0.76653 0.29577 0.0
C903 C 0.21263 0.77773 0.26137 0.0
Zn904 Zn 0.48422 0.02362 0.54486 0.0
Zn905 Zn 0.55764 0.9977 0.52192 0.0
C906 C 0.50457 0.07729 0.58945 0.0
O907 O 0.48556 0.05664 0.60535 0.0
C908 C 0.54192 0.9471 0.4753 0.0
O909 O 0.56398 0.96922 0.46442 0.0
O910 O 0.43649 0.0327 0.54241 0.0
O911 O 0.49541 0.00962 0.49881 0.0
O912 O 0.54605 0.02757 0.48781 0.0
C913 C 0.42295 0.03612 0.51398 0.0
O914 O 0.43689 0.02735 0.48794 0.0
O915 O 0.50978 0.06831 0.56021 0.0
C916 C 0.60949 0.96481 0.5427 0.0
O917 O 0.58385 0.94491 0.55077 0.0
O918 O 0.60506 0.99069 0.52939 0.0
O919 O 0.54541 0.01589 0.56447 0.0
O920 O 0.49832 0.99419 0.57973 0.0
O921 O 0.53242 0.95322 0.50358 0.0
C922 C 0.51521 0.02691 0.4822 0.0
C923 C 0.5296 0.99762 0.5831 0.0
Zn924 Zn 0.30705 0.24059 0.7675 0.0
Zn925 Zn 0.24526 0.27648 0.80676 0.0
C926 C 0.2844 0.20244 0.70881 0.0
O927 O 0.29481 0.1822 0.72854 0.0
C928 C 0.24706 0.31793 0.86761 0.0
O929 O 0.22131 0.32589 0.85154 0.0
O930 O 0.35247 0.23612 0.75793 0.0
O931 O 0.31382 0.288 0.78839 0.0
O932 O 0.26795 0.30377 0.7725 0.0
C933 C 0.3619 0.25782 0.73889 0.0
O934 O 0.34238 0.27818 0.73083 0.0
O935 O 0.28419 0.23175 0.72059 0.0
C936 C 0.18423 0.2623 0.82729 0.0
O937 O 0.20344 0.25061 0.84871 0.0
O938 O 0.19683 0.27653 0.80375 0.0
O939 O 0.24565 0.22785 0.80698 0.0
O940 O 0.28631 0.20382 0.79267 0.0
O941 O 0.26306 0.29845 0.85305 0.0
C942 C 0.29918 0.30823 0.77424 0.0
C943 C 0.25845 0.20236 0.80373 0.0
Zn944 Zn 0.04208 0.98398 0.54703 0.0
Zn945 Zn 0.00802 0.04385 0.51196 0.0
C946 C 0.08213 0.00484 0.60596 0.0
O947 O 0.10174 0.99386 0.58589 0.0
C948 C 0.97185 0.03313 0.4469 0.0
O949 O 0.96083 0.05914 0.45819 0.0
O950 O 0.04584 0.93804 0.55551 0.0
O951 O 0.99382 0.97713 0.52798 0.0
O952 O 0.97962 0.02287 0.54629 0.0
C953 C 0.0257 0.93003 0.57653 0.0
O954 O 0.00724 0.95085 0.5863 0.0
O955 O 0.05292 0.00634 0.59438 0.0
C956 C 0.01992 0.1011 0.4843 0.0
O957 O 0.03389 0.08058 0.4667 0.0
O958 O 0.00448 0.09113 0.50829 0.0
O959 O 0.05761 0.04968 0.51664 0.0
O960 O 0.07814 0.00454 0.52057 0.0
O961 O 0.9907 0.02003 0.46592 0.0
C962 C 0.9738 0.99169 0.54253 0.0
C963 C 0.08174 0.03475 0.51594 0.0
Zn964 Zn 0.25864 0.79927 0.76012 0.0
Zn965 Zn 0.29679 0.72383 0.79026 0.0
C966 C 0.19241 0.76345 0.74104 0.0
O967 O 0.19623 0.74947 0.7684 0.0
C968 C 0.34809 0.77256 0.82973 0.0
O969 O 0.324 0.7832 0.84343 0.0
O970 O 0.25907 0.8473 0.77805 0.0
O971 O 0.25945 0.77013 0.79666 0.0
O972 O 0.26832 0.73214 0.82758 0.0
C973 C 0.24312 0.86439 0.76043 0.0
O974 O 0.23343 0.85324 0.72949 0.0
O975 O 0.2154 0.78498 0.7335 0.0
C976 C 0.33031 0.67193 0.76854 0.0
O977 O 0.35115 0.69717 0.7611 0.0
O978 O 0.30435 0.67689 0.78141 0.0
O979 O 0.27666 0.73864 0.74838 0.0
O980 O 0.29106 0.7855 0.72852 0.0
O981 O 0.34166 0.75031 0.80559 0.0
C982 C 0.25633 0.7579 0.82378 0.0
C983 C 0.29294 0.75509 0.72852 0.0
Zn984 Zn 0.53116 0.0351 1.00224 0.0
Zn985 Zn 0.50274 0.99664 0.06268 0.0
C986 C 0.5881 0.08656 0.01531 0.0
O987 O 0.56905 0.10136 0.99671 0.0
C988 C 0.45345 0.95196 0.01986 0.0
O989 O 0.47251 0.93139 0.02849 0.0
O990 O 0.53049 0.04124 0.95364 0.0
O991 O 0.52944 0.98598 1.00076 0.0
O992 O 0.53845 0.97238 0.05123 0.0
C993 C 0.55431 0.02831 0.94485 0.0
O994 O 0.57425 0.01952 0.96758 0.0
O995 O 0.57655 0.05821 0.02324 0.0
C996 C 0.46018 0.99488 0.11118 0.0
O997 O 0.44359 0.00587 0.08704 0.0
O998 O 0.48747 0.98628 0.10628 0.0
O999 O 0.51509 0.04504 0.07087 0.0
O1000 O 0.49682 0.05668 0.02208 0.0
O1001 O 0.46246 0.98228 0.02958 0.0
C1002 C 0.54145 0.96819 0.02064 0.0
C1003 C 0.50042 0.0627 0.05323 0.0
Zn1004 Zn 0.28829 0.23715 0.26529 0.0
Zn1005 Zn 0.25824 0.29542 0.30703 0.0
C1006 C 0.33752 0.25801 0.23133 0.0
O1007 O 0.3135 0.2395 0.21168 0.0
C1008 C 0.20415 0.27245 0.33757 0.0
O1009 O 0.22757 0.2832 0.36161 0.0
O1010 O 0.30037 0.19162 0.25676 0.0
O1011 O 0.27005 0.23055 0.30919 0.0
O1012 O 0.28574 0.27579 0.34237 0.0
C1013 C 0.32225 0.19024 0.28043 0.0
O1014 O 0.33197 0.21605 0.30199 0.0
O1015 O 0.33361 0.26393 0.26175 0.0
C1016 C 0.22634 0.34556 0.29586 0.0
O1017 O 0.21618 0.32237 0.27153 0.0
O1018 O 0.24822 0.34107 0.31826 0.0
O1019 O 0.27476 0.30208 0.26174 0.0
O1020 O 0.25923 0.25519 0.23066 0.0
O1021 O 0.21161 0.27094 0.3079 0.0
C1022 C 0.27927 0.24454 0.33808 0.0
C1023 C 0.26667 0.28646 0.23327 0.0
Zn1024 Zn 0.54571 0.47867 0.04762 0.0
Zn1025 Zn 0.50871 0.5405 0.00506 0.0
C1026 C 0.58378 0.50049 0.10665 0.0
O1027 O 0.60441 0.49069 0.08704 0.0
C1028 C 0.46527 0.53719 0.94587 0.0
O1029 O 0.4563 0.56141 0.96339 0.0
O1030 O 0.54995 0.43255 0.05419 0.0
O1031 O 0.49769 0.47269 0.0274 0.0
O1032 O 0.48079 0.51876 0.03956 0.0
C1033 C 0.5278 0.42134 0.07202 0.0
O1034 O 0.50826 0.44046 0.08309 0.0
O1035 O 0.55429 0.50008 0.09477 0.0
C1036 C 0.52326 0.59879 0.98079 0.0
O1037 O 0.53316 0.57735 0.96039 0.0
O1038 O 0.51017 0.58909 0.00617 0.0
O1039 O 0.55685 0.53831 0.00541 0.0
O1040 O 0.58267 0.50009 0.02266 0.0
O1041 O 0.48676 0.52237 0.95892 0.0
C1042 C 0.47712 0.48782 0.04038 0.0
C1043 C 0.58306 0.52677 0.00959 0.0
Zn1044 Zn 0.75627 0.29419 0.26317 0.0
Zn1045 Zn 0.79264 0.22335 0.29281 0.0
C1046 C 0.70345 0.26259 0.21703 0.0
O1047 O 0.72515 0.27304 0.19693 0.0
C1048 C 0.84462 0.26259 0.33668 0.0
O1049 O 0.82281 0.25667 0.35786 0.0
O1050 O 0.7494 0.3427 0.27041 0.0
O1051 O 0.77461 0.28125 0.30591 0.0
O1052 O 0.76204 0.23512 0.32708 0.0
C1053 C 0.72042 0.34926 0.26555 0.0
O1054 O 0.69641 0.32598 0.25203 0.0
O1055 O 0.7118 0.26681 0.248 0.0
C1056 C 0.82635 0.17069 0.2732 0.0
O1057 O 0.84378 0.19502 0.26027 0.0
O1058 O 0.80202 0.17627 0.2887 0.0
O1059 O 0.77288 0.23302 0.24859 0.0
O1060 O 0.78658 0.28068 0.22971 0.0
O1061 O 0.837 0.25185 0.30644 0.0
C1062 C 0.75829 0.26478 0.32575 0.0
C1063 C 0.78849 0.25026 0.22876 0.0
Zn1064 Zn 0.02747 0.53255 0.50093 0.0
Zn1065 Zn 0.00637 0.50199 0.5652 0.0
C1066 C 0.08551 0.58127 0.5158 0.0
O1067 O 0.06659 0.59712 0.49829 0.0
C1068 C 0.95289 0.45686 0.53335 0.0
O1069 O 0.96977 0.43805 0.5492 0.0
O1070 O 0.02896 0.53849 0.45207 0.0
O1071 O 0.0207 0.48272 0.50058 0.0
O1072 O 0.03858 0.47397 0.5508 0.0
C1073 C 0.05083 0.52239 0.44381 0.0
O1074 O 0.06749 0.51045 0.46696 0.0
O1075 O 0.07374 0.55239 0.52213 0.0
C1076 C 0.96758 0.50531 0.61688 0.0
O1077 O 0.95134 0.51762 0.59344 0.0
O1078 O 0.99382 0.49497 0.61088 0.0
O1079 O 0.02145 0.55033 0.5686 0.0
O1080 O 0.99594 0.55829 0.52164 0.0
O1081 O 0.96387 0.4875 0.53546 0.0
C1082 C 0.03576 0.46643 0.51981 0.0
C1083 C 0.00397 0.56676 0.55225 0.0
Zn1084 Zn 0.80758 0.73801 0.26152 0.0
Zn1085 Zn 0.74677 0.77382 0.30964 0.0
C1086 C 0.78274 0.69999 0.20294 0.0
O1087 O 0.79495 0.67987 0.22157 0.0
C1088 C 0.74693 0.81757 0.36791 0.0
O1089 O 0.72294 0.82563 0.34905 0.0
O1090 O 0.85353 0.73819 0.24941 0.0
O1091 O 0.81305 0.78431 0.28463 0.0
O1092 O 0.76769 0.80328 0.27572 0.0
C1093 C 0.85867 0.75988 0.22923 0.0
O1094 O 0.83532 0.7763 0.22137 0.0
O1095 O 0.78209 0.72892 0.21557 0.0
C1096 C 0.68551 0.7577 0.33061 0.0
O1097 O 0.70485 0.74792 0.35337 0.0
O1098 O 0.69804 0.77065 0.30637 0.0
O1099 O 0.75178 0.72607 0.30761 0.0
O1100 O 0.78891 0.70032 0.28733 0.0
O1101 O 0.76242 0.79595 0.35639 0.0
C1102 C 0.79822 0.80549 0.27256 0.0
C1103 C 0.76316 0.69986 0.30228 0.0
Zn1104 Zn 0.74908 0.2584 0.81307 0.0
Zn1105 Zn 0.77932 0.27738 0.75112 0.0
C1106 C 0.70266 0.2013 0.79261 0.0
O1107 O 0.68496 0.22092 0.80638 0.0
C1108 C 0.80937 0.34398 0.76946 0.0
O1109 O 0.82371 0.33765 0.74289 0.0
O1110 O 0.73926 0.25384 0.85967 0.0
O1111 O 0.79857 0.26957 0.81775 0.0
O1112 O 0.81082 0.24991 0.76972 0.0
C1113 C 0.76025 0.26667 0.88373 0.0
O1114 O 0.78336 0.29129 0.87928 0.0
O1115 O 0.73318 0.21195 0.79142 0.0
C1116 C 0.76906 0.30875 0.69505 0.0
O1117 O 0.75269 0.32283 0.71644 0.0
O1118 O 0.78491 0.28679 0.70397 0.0
O1119 O 0.73186 0.25791 0.74715 0.0
O1120 O 0.722 0.28773 0.79033 0.0
O1121 O 0.78874 0.32155 0.77942 0.0
C1122 C 0.81804 0.25672 0.80068 0.0
C1123 C 0.71433 0.27636 0.76032 0.0
Zn1124 Zn 0.78142 0.72958 0.75874 0.0
Zn1125 Zn 0.75136 0.79099 0.80136 0.0
C1126 C 0.83327 0.74917 0.72801 0.0
O1127 O 0.81103 0.72921 0.70755 0.0
C1128 C 0.70048 0.76903 0.8373 0.0
O1129 O 0.72536 0.77967 0.85988 0.0
O1130 O 0.79533 0.68427 0.75387 0.0
O1131 O 0.76014 0.72656 0.80167 0.0
O1132 O 0.78131 0.77105 0.834 0.0
C1133 C 0.81701 0.68449 0.77823 0.0
O1134 O 0.8254 0.71111 0.79891 0.0
O1135 O 0.82621 0.75711 0.75708 0.0
C1136 C 0.72014 0.8423 0.79261 0.0
O1137 O 0.7067 0.81837 0.76995 0.0
O1138 O 0.74389 0.83773 0.81284 0.0
O1139 O 0.76076 0.79379 0.75331 0.0
O1140 O 0.75574 0.74739 0.72123 0.0
O1141 O 0.70577 0.7674 0.80699 0.0
C1142 C 0.77352 0.73986 0.82978 0.0
C1143 C 0.75921 0.77866 0.72468 0.0
Zn1144 Zn 0.55816 0.49922 0.55027 0.0
Zn1145 Zn 0.49729 0.53322 0.51 0.0
C1146 C 0.53716 0.44523 0.57751 0.0
O1147 O 0.55735 0.46614 0.59903 0.0
C1148 C 0.5133 0.58154 0.47147 0.0
O1149 O 0.49778 0.55563 0.45225 0.0
O1150 O 0.60343 0.48594 0.55528 0.0
O1151 O 0.56186 0.52291 0.50872 0.0
O1152 O 0.51668 0.5034 0.47656 0.0
C1153 C 0.60447 0.46594 0.53005 0.0
O1154 O 0.57855 0.45816 0.50822 0.0
O1155 O 0.52992 0.45401 0.54897 0.0
C1156 C 0.44625 0.56381 0.52093 0.0
O1157 O 0.47101 0.57746 0.54269 0.0
O1158 O 0.45011 0.54011 0.50043 0.0
O1159 O 0.49618 0.524 0.55836 0.0
O1160 O 0.54205 0.52339 0.58959 0.0
O1161 O 0.5199 0.57871 0.50204 0.0
C1162 C 0.54801 0.51095 0.48036 0.0
C1163 C 0.51106 0.52264 0.58661 0.0
Zn1164 Zn 0.98388 0.53357 0.05922 0.0
Zn1165 Zn 0.0583 0.49411 0.0255 0.0
C1166 C 0.01999 0.60089 0.07414 0.0
O1167 O 0.03265 0.59532 0.0463 0.0
C1168 C 0.04081 0.44217 0.98075 0.0
O1169 O 0.06309 0.46315 0.96873 0.0
O1170 O 0.9341 0.53025 0.04824 0.0
O1171 O 0.00501 0.5319 0.01561 0.0
O1172 O 0.04525 0.52003 0.98772 0.0
C1173 C 0.92866 0.55645 0.03651 0.0
O1174 O 0.95361 0.57983 0.03426 0.0
O1175 O 0.99984 0.57817 0.08427 0.0
C1176 C 0.11097 0.46205 0.04717 0.0
O1177 O 0.08568 0.44194 0.05563 0.0
O1178 O 0.10599 0.48774 0.0338 0.0
O1179 O 0.04319 0.51529 0.06552 0.0
O1180 O 0.9996 0.50191 0.09034 0.0
O1181 O 0.03285 0.44907 0.00956 0.0
C1182 C 0.01829 0.5308 0.98862 0.0
C1183 C 0.02938 0.49953 0.08723 0.0
C1184 C 0.01801 0.17114 0.96728 0.0
C1185 C 0.01349 0.17112 0.93272 0.0
H1186 H 0.02211 0.14222 0.00809 0.0
C1187 C 0.01434 0.14238 0.91267 0.0
H1188 H 0.01775 0.19313 0.98332 0.0
C1189 C 0.01739 0.11363 0.9268 0.0
C1190 C 0.01932 0.11292 0.96126 0.0
H1191 H 0.01155 0.14178 0.88601 0.0
H1192 H 0.01655 0.09149 0.91058 0.0
C1193 C 0.02083 0.14215 0.9815 0.0
C1194 C 0.13584 0.81178 0.23727 0.0
C1195 C 0.13184 0.80367 0.20282 0.0
H1196 H 0.16463 0.80984 0.28311 0.0
C1197 C 0.15612 0.78991 0.18788 0.0
H1198 H 0.11745 0.82238 0.24951 0.0
C1199 C 0.18246 0.78209 0.20708 0.0
C1200 C 0.18555 0.78837 0.24168 0.0
H1201 H 0.15384 0.78334 0.16146 0.0
H1202 H 0.20003 0.77034 0.19468 0.0
C1203 C 0.16263 0.80433 0.25656 0.0
C1204 C 0.50732 0.8573 0.44978 0.0
C1205 C 0.51388 0.85455 0.41649 0.0
H1206 H 0.51061 0.88904 0.49462 0.0
C1207 C 0.52791 0.8828 0.40264 0.0
H1208 H 0.49621 0.83604 0.46112 0.0
C1209 C 0.53611 0.91286 0.42175 0.0
C1210 C 0.53029 0.91554 0.45513 0.0
H1211 H 0.53315 0.88169 0.3771 0.0
H1212 H 0.54739 0.93401 0.41034 0.0
C1213 C 0.51532 0.88763 0.46892 0.0
C1214 C 0.43238 0.22982 0.69962 0.0
C1215 C 0.44335 0.25702 0.68283 0.0
H1216 H 0.3976 0.20879 0.7313 0.0
C1217 C 0.42952 0.28517 0.68663 0.0
H1218 H 0.44329 0.20804 0.69693 0.0
C1219 C 0.40393 0.28582 0.70634 0.0
C1220 C 0.39187 0.25823 0.72234 0.0
H1221 H 0.43828 0.30647 0.67409 0.0
H1222 H 0.39311 0.3077 0.70845 0.0
C1223 C 0.40664 0.2304 0.71939 0.0
C1224 C 0.01033 0.8701 0.63946 0.0
C1225 C 0.02317 0.84356 0.62612 0.0
H1226 H 1.00081 0.91797 0.63393 0.0
C1227 C 0.03634 0.84495 0.59561 0.0
H1228 H 0.99986 0.86943 0.66286 0.0
C1229 C 0.03744 0.87317 0.57909 0.0
C1230 C 0.02466 0.89978 0.59267 0.0
H1231 H 0.04653 0.82465 0.58506 0.0
H1232 H 0.04815 0.87417 0.55586 0.0
C1233 C 0.0108 0.8978 0.62277 0.0
C1234 C 0.43708 0.76935 0.8527 0.0
C1235 C 0.44357 0.78883 0.88297 0.0
H1236 H 0.40223 0.75002 0.81139 0.0
C1237 C 0.41906 0.80424 0.89523 0.0
H1238 H 0.45554 0.75659 0.84331 0.0
C1239 C 0.38836 0.80055 0.87696 0.0
C1240 C 0.38172 0.78078 0.84661 0.0
H1241 H 0.42365 0.819 0.91884 0.0
H1242 H 0.36959 0.81232 0.8871 0.0
C1243 C 0.40658 0.76562 0.83449 0.0
C1244 C 0.50143 0.15226 0.07303 0.0
C1245 C 0.48757 0.15268 0.10319 0.0
H1246 H 0.51464 0.12303 0.03249 0.0
C1247 C 0.47663 0.1231 0.11619 0.0
H1248 H 0.51185 0.17488 0.06351 0.0
C1249 C 0.47964 0.09345 0.09914 0.0
C1250 C 0.49314 0.09317 0.06875 0.0
H1251 H 0.46675 0.12301 0.13988 0.0
H1252 H 0.47214 0.07082 0.11003 0.0
C1253 C 0.50335 0.12269 0.05544 0.0
C1254 C 0.13227 0.27115 0.38761 0.0
C1255 C 0.11145 0.28667 0.3679 0.0
H1256 H 0.17789 0.25378 0.39287 0.0
C1257 C 0.11958 0.2933 0.33604 0.0
H1258 H 0.12662 0.26534 0.41207 0.0
C1259 C 0.1485 0.28578 0.32471 0.0
C1260 C 0.17007 0.27195 0.34521 0.0
H1261 H 0.10392 0.30484 0.31996 0.0
H1262 H 0.15492 0.29269 0.30078 0.0
C1263 C 0.16141 0.26415 0.37647 0.0
C1264 C 0.93235 0.00276 0.13532 0.0
C1265 C 0.94659 0.9997 0.16709 0.0
H1266 H 0.93992 0.00841 0.08463 0.0
C1267 C 0.98072 0.99977 0.17144 0.0
H1268 H 0.90624 0.00284 0.13104 0.0
C1269 C 0.99998 0.00224 0.14476 0.0
C1270 C 0.98588 0.00568 0.11304 0.0
H1271 H 0.99257 0.99728 0.19553 0.0
H1272 H 0.02596 1.00158 0.14903 0.0
C1273 C 0.9518 0.00615 0.10877 0.0
C1274 C 0.30019 0.68971 0.43398 0.0
C1275 C 0.27393 0.68688 0.45332 0.0
H1276 H 0.32076 0.71017 0.39273 0.0
C1277 C 0.24879 0.70495 0.44767 0.0
H1278 H 0.31989 0.6761 0.43841 0.0
C1279 C 0.24896 0.72437 0.42133 0.0
C1280 C 0.27437 0.72576 0.40064 0.0
H1281 H 0.22841 0.70292 0.46273 0.0
H1282 H 0.22839 0.7366 0.41604 0.0
C1283 C 0.30062 0.70931 0.40805 0.0
C1284 C 0.55117 0.97274 0.66865 0.0
C1285 C 0.58568 0.98285 0.67245 0.0
H1286 H 0.50604 0.96931 0.63736 0.0
C1287 C 0.60137 0.99367 0.64534 0.0
H1288 H 0.53828 0.96426 0.68916 0.0
C1289 C 0.58293 0.99679 0.61599 0.0
C1290 C 0.54826 0.9889 0.61276 0.0
H1291 H 0.62781 1.00166 0.64735 0.0
H1292 H 0.596 0.00709 0.59638 0.0
C1293 C 0.53261 0.97574 0.63904 0.0
C1294 C 0.29999 0.35425 0.94671 0.0
C1295 C 0.27661 0.36611 0.96494 0.0
H1296 H 0.30889 0.32924 0.90112 0.0
C1297 C 0.24362 0.36056 0.9519 0.0
H1298 H 0.32565 0.35866 0.95645 0.0
C1299 C 0.23412 0.34411 0.92053 0.0
C1300 C 0.25745 0.33284 0.9017 0.0
H1301 H 0.22533 0.36962 0.96572 0.0
H1302 H 0.20848 0.34057 0.91083 0.0
C1303 C 0.29042 0.33748 0.91524 0.0
C1304 C 0.92464 0.97731 0.37523 0.0
C1305 C 0.92594 0.99878 0.35037 0.0
H1306 H 0.94036 0.97086 0.4254 0.0
C1307 C 0.94634 0.02968 0.35632 0.0
H1308 H 0.90932 0.95321 0.37103 0.0
C1309 C 0.96303 0.04003 0.38754 0.0
C1310 C 0.96055 0.0192 0.41285 0.0
H1311 H 0.94768 0.0466 0.33749 0.0
H1312 H 0.97681 0.06484 0.39232 0.0
C1313 C 0.94244 0.98726 0.40616 0.0
C1314 C 0.31492 0.73386 0.64208 0.0
C1315 C 0.30554 0.6994 0.63865 0.0
H1316 H 0.31859 0.77876 0.67327 0.0
C1317 C 0.29713 0.6836 0.66649 0.0
H1318 H 0.32169 0.74684 0.62108 0.0
C1319 C 0.29552 0.7019 0.69633 0.0
C1320 C 0.30215 0.73651 0.69913 0.0
H1321 H 0.28991 0.65717 0.66478 0.0
H1322 H 0.28688 0.68877 0.71659 0.0
C1323 C 0.31315 0.75225 0.67201 0.0
C1324 C 0.58473 0.04763 0.86437 0.0
C1325 C 0.5975 0.01918 0.85652 0.0
H1326 H 0.55905 0.07259 0.89899 0.0
C1327 C 0.58947 0.99173 0.87362 0.0
H1328 H 0.59062 0.06889 0.8509 0.0
C1329 C 0.57127 0.99369 0.90047 0.0
C1330 C 0.56121 0.02316 0.91057 0.0
H1331 H 0.59877 0.96947 0.86737 0.0
H1332 H 0.56715 0.97292 0.9148 0.0
C1333 C 0.56626 0.04956 0.8913 0.0
C1334 C 0.28565 0.35804 0.18076 0.0
C1335 C 0.27964 0.34259 0.14843 0.0
H1336 H 0.28594 0.35277 0.23241 0.0
C1337 C 0.26869 0.30827 0.14408 0.0
H1338 H 0.29404 0.38431 0.18515 0.0
C1339 C 0.26417 0.28992 0.17129 0.0
C1340 C 0.27029 0.30538 0.20368 0.0
H1341 H 0.26386 0.29541 0.11952 0.0
H1342 H 0.25609 0.26361 0.16693 0.0
C1343 C 0.28094 0.33977 0.20792 0.0
C1344 C 0.1699 0.90994 0.02877 0.0
C1345 C 0.18263 0.91328 0.99811 0.0
H1346 H 0.13137 0.91835 0.05871 0.0
C1347 C 0.16511 0.92676 0.97347 0.0
H1348 H 0.18305 0.89981 0.04829 0.0
C1349 C 0.13555 0.93669 0.97922 0.0
C1350 C 0.12312 0.93413 0.01001 0.0
H1351 H 0.17423 0.9296 0.94961 0.0
H1352 H 0.12276 0.94702 0.9596 0.0
C1353 C 0.14053 0.9207 0.03482 0.0
C1354 C 0.67431 0.55748 0.00491 0.0
C1355 C 0.67408 0.58675 0.99 0.0
H1356 H 0.64599 0.51504 0.02186 0.0
C1357 C 0.64387 0.59551 0.98054 0.0
H1358 H 0.69738 0.55079 0.01367 0.0
C1359 C 0.61443 0.57537 0.9858 0.0
C1360 C 0.61442 0.54602 1.0008 0.0
H1361 H 0.64302 0.61827 0.9697 0.0
H1362 H 0.59178 0.58353 0.97899 0.0
C1363 C 0.64484 0.53711 0.00985 0.0
C1364 C 0.72286 0.43116 0.31599 0.0
C1365 C 0.69225 0.43912 0.30502 0.0
H1366 H 0.75615 0.39709 0.31189 0.0
C1367 C 0.67175 0.41755 0.28046 0.0
H1368 H 0.73953 0.44718 0.33471 0.0
C1369 C 0.68145 0.38898 0.26734 0.0
C1370 C 0.71206 0.38114 0.27811 0.0
H1371 H 0.6482 0.42279 0.27111 0.0
H1372 H 0.66477 0.37294 0.24862 0.0
C1373 C 0.73268 0.40261 0.30262 0.0
C1374 C 0.87961 0.39575 0.49342 0.0
C1375 C 0.85372 0.41105 0.50252 0.0
H1376 H 0.93193 0.39879 0.49593 0.0
C1377 C 0.86089 0.44265 0.5194 0.0
H1378 H 0.87463 0.37106 0.48113 0.0
C1379 C 0.89338 0.45893 0.5267 0.0
C1380 C 0.91925 0.44307 0.51887 0.0
H1381 H 0.84146 0.45416 0.5284 0.0
H1382 H 0.89826 0.48285 0.54067 0.0
C1383 C 0.91221 0.41158 0.50177 0.0
C1384 C 0.35671 0.12767 0.32728 0.0
C1385 C 0.36445 0.10625 0.30211 0.0
H1386 H 0.33734 0.1707 0.33986 0.0
C1387 C 0.35768 0.11213 0.26898 0.0
H1388 H 0.36122 0.12347 0.35296 0.0
C1389 C 0.3428 0.13884 0.26129 0.0
C1390 C 0.33526 0.16025 0.28671 0.0
H1391 H 0.36279 0.09546 0.2491 0.0
H1392 H 0.3377 0.14301 0.2357 0.0
C1393 C 0.34271 0.15452 0.3197 0.0
C1394 C 0.35753 0.07662 0.47221 0.0
C1395 C 0.34206 0.08822 0.49881 0.0
H1396 H 0.39476 0.0514 0.45614 0.0
C1397 C 0.35326 0.08259 0.53096 0.0
H1398 H 0.34915 0.08017 0.44714 0.0
C1399 C 0.37896 0.06495 0.5362 0.0
C1400 C 0.39443 0.05331 0.50944 0.0
H1401 H 0.3412 0.09054 0.55187 0.0
H1402 H 0.3867 0.06047 0.56114 0.0
C1403 C 0.38347 0.05971 0.47745 0.0
C1404 C 0.6946 0.63862 0.3313 0.0
C1405 C 0.70188 0.60854 0.31923 0.0
H1406 H 0.70863 0.69066 0.3364 0.0
C1407 C 0.73044 0.60846 0.30298 0.0
H1408 H 0.67248 0.63943 0.3434 0.0
C1409 C 0.75138 0.63792 0.29897 0.0
C1410 C 0.74391 0.66825 0.31061 0.0
H1411 H 0.73609 0.58559 0.29247 0.0
H1412 H 0.7727 0.63691 0.28566 0.0
C1413 C 0.71548 0.66804 0.32729 0.0
C1414 C 0.86092 0.411 0.82688 0.0
C1415 C 0.8575 0.43809 0.80954 0.0
H1416 H 0.84411 0.3595 0.82969 0.0
C1417 C 0.83315 0.43469 0.78283 0.0
H1418 H 0.87967 0.41321 0.84747 0.0
C1419 C 0.81466 0.40392 0.77154 0.0
C1420 C 0.81931 0.37647 0.7877 0.0
H1421 H 0.83028 0.45534 0.76904 0.0
H1422 H 0.79836 0.40118 0.7489 0.0
C1423 C 0.84082 0.38051 0.81673 0.0
C1424 C 0.00823 0.88537 0.10495 0.0
C1425 C 0.03135 0.86564 0.09743 0.0
H1426 H 0.97925 0.91973 0.08744 0.0
C1427 C 0.04733 0.86982 0.06875 0.0
H1428 H 0.99481 0.88178 0.12636 0.0
C1429 C 0.03765 0.8905 0.04608 0.0
C1430 C 0.01271 0.90825 0.0523 0.0
H1431 H 0.06463 0.8543 0.06205 0.0
H1432 H 0.04758 0.89029 0.02244 0.0
C1433 C 0.999 0.90665 0.08249 0.0
C1434 C 0.8901 0.26436 0.86572 0.0
C1435 C 0.91102 0.24678 0.84977 0.0
H1436 H 0.84486 0.28193 0.86239 0.0
C1437 C 0.90026 0.2298 0.81852 0.0
H1438 H 0.89766 0.27696 0.89017 0.0
C1439 C 0.86982 0.23258 0.8023 0.0
C1440 C 0.84968 0.25199 0.81747 0.0
H1441 H 0.91568 0.21503 0.80641 0.0
H1442 H 0.86232 0.22001 0.77784 0.0
C1443 C 0.85987 0.26714 0.84969 0.0
C1444 C 0.53944 0.16798 0.59775 0.0
C1445 C 0.52698 0.17818 0.62688 0.0
H1446 H 0.54211 0.12751 0.56277 0.0
C1447 C 0.51136 0.15483 0.64585 0.0
H1448 H 0.55291 0.18575 0.58364 0.0
C1449 C 0.50546 0.12173 0.63429 0.0
C1450 C 0.51555 0.11149 0.60379 0.0
H1451 H 0.50255 0.16232 0.66898 0.0
H1452 H 0.49188 0.10437 0.64872 0.0
C1453 C 0.53363 0.13476 0.58613 0.0
C1454 C 0.60569 0.74702 0.36987 0.0
C1455 C 0.58586 0.76129 0.3479 0.0
H1456 H 0.65279 0.73425 0.38132 0.0
C1457 C 0.59872 0.7731 0.31949 0.0
H1458 H 0.59644 0.73748 0.39181 0.0
C1459 C 0.63085 0.77123 0.31346 0.0
C1460 C 0.65083 0.75748 0.33567 0.0
H1461 H 0.58414 0.78424 0.30195 0.0
H1462 H 0.64015 0.78106 0.29167 0.0
C1463 C 0.63791 0.74507 0.36376 0.0
C1464 C 0.02482 0.19219 0.48415 0.0
C1465 C 0.0228 0.19537 0.45005 0.0
H1466 H 0.02461 0.15924 0.52193 0.0
C1467 C 0.01827 0.16729 0.42759 0.0
H1468 H 0.02806 0.21355 0.50198 0.0
C1469 C 0.01682 0.13657 0.43904 0.0
C1470 C 0.01907 0.13339 0.47306 0.0
H1471 H 0.01647 0.16909 0.40122 0.0
H1472 H 0.01402 0.11525 0.42124 0.0
C1473 C 0.02257 0.16127 0.4956 0.0
C1474 C 0.62649 0.24366 0.15743 0.0
C1475 C 0.60216 0.24653 0.17877 0.0
H1476 H 0.67783 0.24614 0.15297 0.0
C1477 C 0.61106 0.25163 0.21299 0.0
H1478 H 0.62024 0.23944 0.13095 0.0
C1479 C 0.64389 0.25483 0.22564 0.0
C1480 C 0.66846 0.2535 0.20423 0.0
H1481 H 0.59272 0.25347 0.23004 0.0
H1482 H 0.6501 0.2597 0.25208 0.0
C1483 C 0.6594 0.24732 0.17005 0.0
C1484 C 0.53959 0.87919 0.99578 0.0
C1485 C 0.55185 0.88124 0.96473 0.0
H1486 H 0.52732 0.90574 0.03882 0.0
C1487 C 0.56756 0.91166 0.95662 0.0
H1488 H 0.52771 0.85592 0.00298 0.0
C1489 C 0.56773 0.93989 0.97744 0.0
C1490 C 0.55152 0.93837 0.00619 0.0
H1491 H 0.57814 0.9139 0.93339 0.0
H1492 H 0.57887 0.96309 0.97001 0.0
C1493 C 0.53944 0.90766 0.01643 0.0
C1494 C 0.904 0.75083 0.67618 0.0
C1495 C 0.93106 0.7619 0.69973 0.0
H1496 H 0.85183 0.73926 0.66659 0.0
C1497 C 0.92563 0.77184 0.73233 0.0
H1498 H 0.90732 0.74351 0.65081 0.0
C1499 C 0.89371 0.7694 0.74148 0.0
C1500 C 0.86676 0.75709 0.71815 0.0
H1501 H 0.94603 0.78067 0.75109 0.0
H1502 H 0.89023 0.77593 0.76698 0.0
C1503 C 0.87219 0.74861 0.68527 0.0
C1504 C 0.12616 0.01703 0.93447 0.0
C1505 C 0.11347 0.01509 0.90112 0.0
H1506 H 0.11651 0.01743 0.98505 0.0
C1507 C 0.07899 0.0111 0.89409 0.0
H1508 H 0.1524 0.02014 0.94123 0.0
C1509 C 0.05806 0.00942 0.91966 0.0
C1510 C 0.07102 0.01191 0.953 0.0
H1511 H 0.06814 0.00961 0.86883 0.0
H1512 H 0.03177 0.00658 0.91332 0.0
C1513 C 0.10539 0.0156 0.95985 0.0
C1514 C 0.76835 0.36394 0.62668 0.0
C1515 C 0.76735 0.34171 0.59876 0.0
H1516 H 0.76934 0.37055 0.67927 0.0
C1517 C 0.76814 0.30861 0.60271 0.0
H1518 H 0.76787 0.38957 0.62423 0.0
C1519 C 0.76994 0.2979 0.63422 0.0
C1520 C 0.77002 0.32001 0.66203 0.0
H1521 H 0.76774 0.29109 0.58147 0.0
H1522 H 0.77033 0.27227 0.63679 0.0
C1523 C 0.7692 0.35306 0.65806 0.0
C1524 C 0.47469 0.01197 0.39571 0.0
C1525 C 0.45613 0.03719 0.3953 0.0
H1526 H 0.50859 0.98909 0.4241 0.0
C1527 C 0.46205 0.06226 0.42138 0.0
H1528 H 0.47029 0.9922 0.37596 0.0
C1529 C 0.48502 0.0611 0.44829 0.0
C1530 C 0.50144 0.03439 0.44994 0.0
H1531 H 0.44811 0.08197 0.4215 0.0
H1532 H 0.48803 0.07961 0.46903 0.0
C1533 C 0.49687 0.01035 0.42301 0.0
C1534 C 0.76426 0.64591 0.12221 0.0
C1535 C 0.76878 0.66875 0.09882 0.0
H1536 H 0.76469 0.63801 0.17328 0.0
C1537 C 0.77559 0.70241 0.10989 0.0
H1538 H 0.75881 0.61983 0.11457 0.0
C1539 C 0.7784 0.71292 0.14375 0.0
C1540 C 0.77485 0.68991 0.1671 0.0
H1541 H 0.77899 0.72063 0.09244 0.0
H1542 H 0.78459 0.73893 0.15167 0.0
C1543 C 0.76746 0.65635 0.1559 0.0
C1544 C 0.13826 0.01839 0.68587 0.0
C1545 C 0.1159 0.01477 0.70981 0.0
H1546 H 0.14508 0.01844 0.63459 0.0
C1547 C 0.08198 0.00966 0.69943 0.0
H1548 H 0.16452 0.02247 0.69295 0.0
C1549 C 0.07076 0.00792 0.66576 0.0
C1550 C 0.09324 0.01082 0.64183 0.0
H1551 H 0.06412 0.00702 0.7173 0.0
H1552 H 0.04453 0.0033 0.65842 0.0
C1553 C 0.12708 0.01623 0.65236 0.0
C1554 C 0.74023 0.33709 0.37772 0.0
C1555 C 0.74641 0.32833 0.40979 0.0
H1556 H 0.73779 0.32302 0.32607 0.0
C1557 C 0.75017 0.29579 0.41375 0.0
H1558 H 0.73668 0.36169 0.37365 0.0
C1559 C 0.75096 0.27358 0.38618 0.0
C1560 C 0.7479 0.28352 0.35421 0.0
H1561 H 0.7548 0.2881 0.43812 0.0
H1562 H 0.75649 0.24961 0.39006 0.0
C1563 C 0.74082 0.31488 0.35035 0.0
C1564 C 0.40734 0.0057 0.18045 0.0
C1565 C 0.43082 0.01084 0.20806 0.0
H1566 H 0.3984 0.99652 0.12784 0.0
C1567 C 0.46369 0.00897 0.20372 0.0
H1568 H 0.38181 0.0068 0.18321 0.0
C1569 C 0.473 0.00225 0.17226 0.0
C1570 C 0.4497 0.99791 0.14456 0.0
H1571 H 0.48223 0.01243 0.22467 0.0
H1572 H 0.4986 1.00144 0.16957 0.0
C1573 C 0.41679 0.99965 0.14888 0.0
C1574 C 0.76635 0.66308 0.87504 0.0
C1575 C 0.76919 0.6752 0.90853 0.0
H1576 H 0.7654 0.67351 0.82483 0.0
C1577 C 0.77533 0.70959 0.9163 0.0
H1578 H 0.7617 0.63695 0.86772 0.0
C1579 C 0.7779 0.73104 0.89117 0.0
C1580 C 0.77401 0.71858 0.85767 0.0
H1581 H 0.77772 0.71996 0.94177 0.0
H1582 H 0.78203 0.75724 0.89793 0.0
C1583 C 0.7685 0.68428 0.8502 0.0
C1584 C 0.86263 0.08253 0.99393 0.0
C1585 C 0.85932 0.10703 0.01889 0.0
H1586 H 0.89216 0.04904 0.97525 0.0
C1587 C 0.88504 0.11696 0.04418 0.0
H1588 H 0.84335 0.07417 0.97394 0.0
C1589 C 0.91296 0.10232 0.04488 0.0
C1590 C 0.91592 0.07739 0.02032 0.0
H1591 H 0.88336 0.13552 0.06385 0.0
H1592 H 0.93214 0.11044 0.06502 0.0
C1593 C 0.89056 0.06789 0.99466 0.0
C1594 C 0.39527 0.46586 0.07746 0.0
C1595 C 0.38277 0.43425 0.06166 0.0
H1596 H 0.43455 0.50782 0.0829 0.0
C1597 C 0.40338 0.41891 0.0425 0.0
H1598 H 0.38058 0.47775 0.09362 0.0
C1599 C 0.43438 0.43592 0.0366 0.0
C1600 C 0.44574 0.46872 0.0499 0.0
H1601 H 0.3949 0.39421 0.03079 0.0
H1602 H 0.44887 0.42374 0.02046 0.0
C1603 C 0.42627 0.48301 0.07144 0.0
C1604 C 0.37423 0.60082 0.74671 0.0
C1605 C 0.35089 0.57375 0.75271 0.0
H1606 H 0.38601 0.65317 0.74678 0.0
C1607 C 0.32038 0.57953 0.76256 0.0
H1608 H 0.39792 0.59743 0.73921 0.0
C1609 C 0.31378 0.61117 0.76734 0.0
C1610 C 0.33723 0.63825 0.76211 0.0
H1611 H 0.30151 0.55958 0.76753 0.0
H1612 H 0.29029 0.61436 0.77553 0.0
C1613 C 0.36739 0.63275 0.75121 0.0
C1614 C 0.16687 0.64043 0.52294 0.0
C1615 C 0.18872 0.62174 0.53644 0.0
H1616 H 0.11721 0.64216 0.50548 0.0
C1617 C 0.17622 0.59077 0.54602 0.0
H1618 H 0.17594 0.66467 0.51597 0.0
C1619 C 0.1425 0.57778 0.54018 0.0
C1620 C 0.12072 0.59579 0.52499 0.0
H1621 H 0.1926 0.57641 0.55752 0.0
H1622 H 0.13368 0.55336 0.5468 0.0
C1623 C 0.13326 0.62749 0.51698 0.0
C1624 C 0.70964 0.93032 0.81386 0.0
C1625 C 0.68274 0.93278 0.7911 0.0
H1626 H 0.74262 0.90001 0.83237 0.0
C1627 C 0.66787 0.90493 0.76996 0.0
H1628 H 0.72178 0.95124 0.83067 0.0
C1629 C 0.67993 0.87568 0.77101 0.0
C1630 C 0.7072 0.8734 0.79324 0.0
H1631 H 0.64719 0.90579 0.75219 0.0
H1632 H 0.66792 0.85487 0.754 0.0
C1633 C 0.72171 0.90096 0.81493 0.0
C1634 C 0.70188 0.97197 0.54873 0.0
C1635 C 0.70667 0.94099 0.558 0.0
H1636 H 0.66811 0.00343 0.53631 0.0
C1637 C 0.67898 0.91841 0.56395 0.0
H1638 H 0.72238 0.99041 0.54408 0.0
C1639 C 0.64738 0.92635 0.55967 0.0
C1640 C 0.64285 0.95687 0.54905 0.0
H1641 H 0.68161 0.89444 0.5711 0.0
H1642 H 0.62643 0.90827 0.56395 0.0
C1643 C 0.67056 0.97965 0.54412 0.0
C1644 C 0.32333 0.38695 0.73295 0.0
C1645 C 0.35432 0.40016 0.74999 0.0
H1646 H 0.28121 0.34785 0.72756 0.0
C1647 C 0.36866 0.381 0.77173 0.0
H1648 H 0.3123 0.40057 0.71496 0.0
C1649 C 0.35111 0.35077 0.77873 0.0
C1650 C 0.31878 0.33883 0.76403 0.0
H1651 H 0.39288 0.39014 0.78456 0.0
H1652 H 0.36241 0.33738 0.79675 0.0
C1653 C 0.30559 0.35674 0.7401 0.0
C1654 C 0.14914 0.62253 0.28674 0.0
C1655 C 0.16772 0.60048 0.27365 0.0
H1656 H 0.14796 0.67202 0.30418 0.0
C1657 C 0.19884 0.61261 0.26396 0.0
H1658 H 0.12475 0.61377 0.29364 0.0
C1659 C 0.21231 0.64615 0.26984 0.0
C1660 C 0.19462 0.668 0.28525 0.0
H1661 H 0.21307 0.59603 0.25267 0.0
H1662 H 0.23689 0.65473 0.26339 0.0
C1663 C 0.16252 0.65589 0.29273 0.0
C1664 C 0.5088 0.64336 0.41016 0.0
C1665 C 0.50885 0.67205 0.43068 0.0
H1666 H 0.51146 0.59252 0.40716 0.0
C1667 C 0.51472 0.67182 0.4651 0.0
H1668 H 0.50496 0.64292 0.38355 0.0
C1669 C 0.5185 0.64276 0.47877 0.0
C1670 C 0.51657 0.61365 0.45813 0.0
H1671 H 0.51519 0.69375 0.48151 0.0
H1672 H 0.52119 0.64273 0.50537 0.0
C1673 C 0.51275 0.61453 0.42373 0.0
C1674 C 0.63342 0.30228 0.73536 0.0
C1675 C 0.62894 0.29174 0.70136 0.0
H1676 H 0.66416 0.30566 0.78099 0.0
C1677 C 0.65429 0.27966 0.68664 0.0
H1678 H 0.61426 0.31175 0.74739 0.0
C1679 C 0.68233 0.27563 0.70589 0.0
C1680 C 0.68594 0.28407 0.74023 0.0
H1681 H 0.65166 0.27139 0.66054 0.0
H1682 H 0.70076 0.26488 0.69387 0.0
C1683 C 0.66182 0.29859 0.75466 0.0
C1684 C 0.00856 0.3523 0.95506 0.0
C1685 C 0.00845 0.35147 0.92048 0.0
H1686 H 0.01853 0.38209 1.00159 0.0
C1687 C 0.01577 0.38112 0.90626 0.0
H1688 H 0.0027 0.3299 0.96679 0.0
C1689 C 0.02486 0.41065 0.92613 0.0
C1690 C 0.02651 0.41131 0.96062 0.0
H1691 H 0.01544 0.38154 0.87977 0.0
H1692 H 0.03135 0.43301 0.91445 0.0
C1693 C 0.01737 0.38209 0.975 0.0
C1694 C 0.94608 0.76176 0.20874 0.0
C1695 C 0.9455 0.77704 0.17931 0.0
H1696 H 0.91847 0.74351 0.24755 0.0
C1697 C 0.91687 0.78742 0.16727 0.0
H1698 H 0.96792 0.75316 0.21818 0.0
C1699 C 0.889 0.78226 0.18409 0.0
C1700 C 0.88902 0.76597 0.2129 0.0
H1701 H 0.91591 0.79916 0.14459 0.0
H1702 H 0.86714 0.79034 0.17393 0.0
C1703 C 0.91783 0.75593 0.2253 0.0
C1704 C 0.54095 0.3391 0.09705 0.0
C1705 C 0.50824 0.32255 0.09538 0.0
H1706 H 0.57304 0.3838 0.08966 0.0
C1707 C 0.48249 0.33829 0.08495 0.0
H1708 H 0.56112 0.32719 0.10488 0.0
C1709 C 0.48921 0.37041 0.07703 0.0
C1710 C 0.5218 0.38698 0.07854 0.0
H1711 H 0.45708 0.32597 0.08358 0.0
H1712 H 0.46888 0.38232 0.06968 0.0
C1713 C 0.54775 0.37113 0.08813 0.0
C1714 C 0.93636 0.27072 0.34884 0.0
C1715 C 0.94364 0.28852 0.38005 0.0
H1716 H 0.89923 0.24993 0.30968 0.0
C1717 C 0.91865 0.30038 0.39555 0.0
H1718 H 0.9551 0.26021 0.33712 0.0
C1719 C 0.88651 0.29389 0.38025 0.0
C1720 C 0.87904 0.27533 0.34935 0.0
H1721 H 0.92379 0.31366 0.41992 0.0
H1722 H 0.86727 0.30217 0.39318 0.0
C1723 C 0.90441 0.26475 0.33324 0.0
C1724 C 0.98315 0.6514 0.56831 0.0
C1725 C 0.98787 0.65597 0.60304 0.0
H1726 H 0.98452 0.6193 0.52468 0.0
C1727 C 0.99367 0.62957 0.62051 0.0
H1728 H 0.97863 0.67133 0.55415 0.0
C1729 C 0.99736 0.60014 0.60372 0.0
C1730 C 0.99513 0.59632 0.56905 0.0
H1731 H 0.99721 0.63217 0.64724 0.0
H1732 H 0.00323 0.58076 0.61803 0.0
C1733 C 0.98665 0.6217 0.55141 0.0
C1734 C 0.61554 0.78813 0.83783 0.0
C1735 C 0.60942 0.7843 0.87079 0.0
H1736 H 0.64869 0.78498 0.80092 0.0
C1737 C 0.63175 0.77118 0.89119 0.0
H1738 H 0.59866 0.79778 0.82125 0.0
C1739 C 0.66055 0.76392 0.87942 0.0
C1740 C 0.66718 0.76906 0.84691 0.0
H1741 H 0.62757 0.76758 0.91654 0.0
H1742 H 0.67826 0.75545 0.89612 0.0
C1743 C 0.64398 0.78029 0.82592 0.0
C1744 C 0.43656 0.50498 0.63572 0.0
C1745 C 0.45102 0.50632 0.66825 0.0
H1746 H 0.44385 0.50959 0.58498 0.0
C1747 C 0.48569 0.51397 0.67396 0.0
H1748 H 0.41006 0.49925 0.63032 0.0
C1749 C 0.50533 0.51958 0.64782 0.0
C1750 C 0.49084 0.51826 0.61524 0.0
H1751 H 0.49779 0.51516 0.6987 0.0
H1752 H 0.53184 0.52484 0.65314 0.0
C1753 C 0.45612 0.51108 0.60969 0.0
C1754 C 0.76636 0.22895 0.96427 0.0
C1755 C 0.77559 0.19902 0.95379 0.0
H1756 H 0.75364 0.27411 0.94985 0.0
C1757 C 0.78221 0.19309 0.92104 0.0
H1758 H 0.76105 0.23402 0.98948 0.0
C1759 C 0.77879 0.21634 0.89894 0.0
C1760 C 0.76743 0.24509 0.90882 0.0
H1761 H 0.78969 0.17044 0.91247 0.0
H1762 H 0.78407 0.21152 0.87372 0.0
C1763 C 0.76206 0.25182 0.94178 0.0
C1764 C 0.05573 0.47178 0.16974 0.0
C1765 C 0.08984 0.48418 0.1732 0.0
H1766 H 0.00975 0.46661 0.13972 0.0
C1767 C 0.10432 0.49656 0.14598 0.0
H1768 H 0.04375 0.46187 0.1902 0.0
C1769 C 0.08475 0.49922 0.11703 0.0
C1770 C 0.05025 0.48949 0.1146 0.0
H1771 H 0.13044 0.50631 0.14776 0.0
H1772 H 0.09656 0.51109 0.09747 0.0
C1773 C 0.03614 0.47451 0.1408 0.0
C1774 C 0.7816 0.84041 0.45731 0.0
C1775 C 0.77535 0.87251 0.46279 0.0
H1776 H 0.77806 0.79791 0.4226 0.0
C1777 C 0.76065 0.88644 0.43655 0.0
H1778 H 0.79313 0.82909 0.47699 0.0
C1779 C 0.75167 0.86848 0.4058 0.0
C1780 C 0.75772 0.83639 0.40035 0.0
H1781 H 0.75552 0.91108 0.43991 0.0
H1782 H 0.74007 0.87984 0.38618 0.0
C1783 C 0.77318 0.82262 0.42621 0.0
C1784 C 0.40136 0.52493 0.87258 0.0
C1785 C 0.41582 0.50755 0.84869 0.0
H1786 H 0.40572 0.54785 0.92181 0.0
C1787 C 0.44678 0.4994 0.85712 0.0
H1788 H 0.37759 0.53166 0.86686 0.0
C1789 C 0.46281 0.50835 0.889 0.0
C1790 C 0.44837 0.52613 0.91262 0.0
H1791 H 0.4584 0.48582 0.83923 0.0
H1792 H 0.48665 0.50187 0.895 0.0
C1793 C 0.41754 0.5343 0.90407 0.0
C1794 C 0.79454 0.18143 0.16411 0.0
C1795 C 0.80444 0.19872 0.13759 0.0
H1796 H 0.78221 0.18411 0.21375 0.0
C1797 C 0.81338 0.23316 0.14272 0.0
H1798 H 0.78762 0.15496 0.16104 0.0
C1799 C 0.80993 0.25009 0.17293 0.0
C1800 C 0.79773 0.23289 0.19871 0.0
H1801 H 0.82123 0.24729 0.12279 0.0
H1802 H 0.81538 0.27664 0.17552 0.0
C1803 C 0.79137 0.1983 0.19435 0.0
C1804 C 0.09324 0.49072 0.37479 0.0
C1805 C 0.09951 0.51836 0.35758 0.0
H1806 H 0.07101 0.47003 0.41523 0.0
C1807 C 0.0843 0.54532 0.36497 0.0
H1808 H 0.10454 0.46962 0.36902 0.0
C1809 C 0.06472 0.54553 0.39122 0.0
C1810 C 0.06078 0.51889 0.41031 0.0
H1811 H 0.08891 0.56676 0.35153 0.0
H1812 H 0.05527 0.56748 0.39835 0.0
C1813 C 0.07387 0.49092 0.4009 0.0
C1814 C 0.7656 0.80487 0.63728 0.0
C1815 C 0.77383 0.83939 0.64333 0.0
H1816 H 0.75477 0.75857 0.65771 0.0
C1817 C 0.77631 0.85343 0.67605 0.0
H1818 H 0.76353 0.79309 0.61235 0.0
C1819 C 0.77085 0.83362 0.70195 0.0
C1820 C 0.76311 0.79902 0.6961 0.0
H1821 H 0.78251 0.87979 0.68172 0.0
H1822 H 0.7732 0.84563 0.72681 0.0
C1823 C 0.76052 0.78495 0.6633 0.0
C1824 C 0.66668 0.43184 0.48231 0.0
C1825 C 0.68682 0.42162 0.50716 0.0
H1826 H 0.62482 0.45353 0.47032 0.0
C1827 C 0.68035 0.42682 0.54027 0.0
H1828 H 0.67136 0.42845 0.45668 0.0
C1829 C 0.65428 0.44246 0.54832 0.0
C1830 C 0.63396 0.45226 0.52324 0.0
H1831 H 0.69602 0.41969 0.55993 0.0
H1832 H 0.64962 0.44626 0.57391 0.0
C1833 C 0.64026 0.44649 0.49021 0.0
C1834 C 0.17359 0.06143 0.51083 0.0
C1835 C 0.1749 0.09217 0.49844 0.0
H1836 H 0.14329 0.01858 0.52506 0.0
C1837 C 0.14554 0.10367 0.49176 0.0
H1838 H 0.19605 0.05266 0.51774 0.0
C1839 C 0.11547 0.08469 0.49694 0.0
C1840 C 0.11391 0.0536 0.50884 0.0
H1841 H 0.1459 0.12759 0.48301 0.0
H1842 H 0.09349 0.09481 0.4921 0.0
C1843 C 0.1434 0.04205 0.51539 0.0
C1844 C 0.19411 0.9333 0.76959 0.0
C1845 C 0.19985 0.94373 0.80351 0.0
H1846 H 0.2044 0.90173 0.72941 0.0
C1847 C 0.22125 0.92862 0.82325 0.0
H1848 H 0.17855 0.94487 0.75341 0.0
C1849 C 0.23595 0.90331 0.80944 0.0
C1850 C 0.23025 0.89307 0.7754 0.0
H1851 H 0.2267 0.93642 0.84939 0.0
H1852 H 0.25169 0.89177 0.82543 0.0
C1853 C 0.20944 0.90879 0.75571 0.0
C1854 C 0.36111 0.9393 0.0103 0.0
C1855 C 0.35278 0.90766 0.99369 0.0
H1856 H 0.39957 0.97904 0.02991 0.0
C1857 C 0.37778 0.89204 0.9827 0.0
H1858 H 0.3424 0.95119 0.0204 0.0
C1859 C 0.41072 0.90752 0.9891 0.0
C1860 C 0.41908 0.93887 0.00654 0.0
H1861 H 0.37192 0.86735 0.97042 0.0
H1862 H 0.42972 0.89439 0.98175 0.0
C1863 C 0.39389 0.95512 0.01596 0.0
C1864 C 0.85606 0.60817 0.77013 0.0
C1865 C 0.86408 0.60429 0.80361 0.0
H1866 H 0.83361 0.63616 0.73544 0.0
C1867 C 0.85609 0.62646 0.82793 0.0
H1868 H 0.86122 0.5908 0.75092 0.0
C1869 C 0.84059 0.65205 0.81918 0.0
C1870 C 0.83182 0.65575 0.78586 0.0
H1871 H 0.8614 0.62367 0.85387 0.0
H1872 H 0.835 0.66879 0.83874 0.0
C1873 C 0.8397 0.6336 0.76128 0.0
C1874 C 0.85782 0.57212 0.98019 0.0
C1875 C 0.84112 0.58934 1.00226 0.0
H1876 H 0.89852 0.54734 0.97416 0.0
C1877 C 0.85145 0.59194 0.03624 0.0
H1878 H 0.85015 0.56927 0.95393 0.0
C1879 C 0.87824 0.5782 0.04779 0.0
C1880 C 0.89557 0.56212 0.0256 0.0
H1881 H 0.8386 0.6043 0.05396 0.0
H1882 H 0.88644 0.58155 0.07395 0.0
C1883 C 0.88508 0.55908 0.99174 0.0
C1884 C 0.2279 0.11068 0.80331 0.0
C1885 C 0.19884 0.10975 0.81885 0.0
H1886 H 0.27007 0.14038 0.78725 0.0
C1887 C 0.18999 0.13932 0.83021 0.0
H1888 H 0.23466 0.08819 0.79319 0.0
C1889 C 0.21005 0.16926 0.82647 0.0
C1890 C 0.23928 0.1704 0.81096 0.0
H1891 H 0.16739 0.13928 0.84167 0.0
H1892 H 0.20213 0.19149 0.83513 0.0
C1893 C 0.24812 0.14061 0.79977 0.0
C1894 C 0.33057 0.93436 0.28302 0.0
C1895 C 0.35748 0.93873 0.30728 0.0
H1896 H 0.29401 0.89965 0.25199 0.0
C1897 C 0.36452 0.91193 0.32325 0.0
H1898 H 0.32499 0.95482 0.27021 0.0
C1899 C 0.34584 0.8807 0.31381 0.0
C1900 C 0.32123 0.87593 0.28726 0.0
H1901 H 0.38516 0.91501 0.34203 0.0
H1902 H 0.35222 0.85989 0.32543 0.0
C1903 C 0.31275 0.903 0.27276 0.0
C1904 C 0.53125 0.37332 0.62767 0.0
C1905 C 0.52128 0.34673 0.60351 0.0
H1906 H 0.54273 0.42511 0.63844 0.0
C1907 C 0.51277 0.35275 0.57073 0.0
H1908 H 0.53729 0.36954 0.65323 0.0
C1909 C 0.5161 0.38496 0.56205 0.0
C1910 C 0.52768 0.41143 0.58614 0.0
H1911 H 0.50475 0.33262 0.55161 0.0
H1912 H 0.511 0.38905 0.53644 0.0
C1913 C 0.53418 0.40523 0.61914 0.0
C1914 C 0.40078 0.73634 0.31559 0.0
C1915 C 0.41232 0.75443 0.34616 0.0
H1916 H 0.36282 0.72648 0.27494 0.0
C1917 C 0.3932 0.77522 0.36042 0.0
H1918 H 0.41486 0.71939 0.3047 0.0
C1919 C 0.3638 0.77939 0.34359 0.0
C1920 C 0.35255 0.76233 0.31234 0.0
H1921 H 0.40144 0.78892 0.38427 0.0
H1922 H 0.34995 0.79618 0.35513 0.0
C1923 C 0.37114 0.74043 0.29862 0.0
C1924 C 0.04662 0.69264 0.09257 0.0
C1925 C 0.03169 0.69858 0.12141 0.0
H1926 H 0.05455 0.65698 0.05481 0.0
C1927 C 0.01548 0.67216 0.13637 0.0
H1928 H 0.06019 0.71276 0.08131 0.0
C1929 C 0.01226 0.64021 0.12135 0.0
C1930 C 0.02587 0.63424 0.09154 0.0
H1931 H 0.00442 0.67633 0.15905 0.0
H1932 H 0.99862 0.6203 0.13281 0.0
C1933 C 0.04364 0.66073 0.07765 0.0
C1934 C 0.10544 0.24942 0.868 0.0
C1935 C 0.08545 0.26554 0.84814 0.0
H1936 H 0.15221 0.23531 0.87657 0.0
C1937 C 0.09801 0.28003 0.82081 0.0
H1938 H 0.09642 0.23781 0.88904 0.0
C1939 C 0.12996 0.27857 0.81361 0.0
C1940 C 0.14993 0.26256 0.83355 0.0
H1941 H 0.08324 0.2927 0.80498 0.0
H1942 H 0.13907 0.29025 0.79264 0.0
C1943 C 0.13735 0.24787 0.86072 0.0
C1944 C 0.52222 0.68954 0.98512 0.0
C1945 C 0.52457 0.69518 0.9519 0.0
H1946 H 0.51933 0.65403 0.02046 0.0
C1947 C 0.52664 0.66923 0.92861 0.0
H1948 H 0.52044 0.70934 0.00344 0.0
C1949 C 0.52663 0.63804 0.93838 0.0
C1950 C 0.52385 0.63214 0.97148 0.0
H1951 H 0.52864 0.67309 0.90291 0.0
H1952 H 0.52835 0.61845 0.91979 0.0
C1953 C 0.52147 0.65805 0.99482 0.0
C1954 C 0.10207 0.73565 0.71457 0.0
C1955 C 0.09862 0.75164 0.68598 0.0
H1956 H 0.13485 0.72683 0.75468 0.0
C1957 C 0.12646 0.76773 0.6731 0.0
H1958 H 0.08072 0.72214 0.7241 0.0
C1959 C 0.15735 0.77054 0.69048 0.0
C1960 C 0.16069 0.75662 0.72055 0.0
H1961 H 0.12411 0.77945 0.65052 0.0
H1962 H 0.1784 0.78453 0.68094 0.0
C1963 C 0.13297 0.73812 0.73182 0.0
C1964 C 0.06747 0.41016 0.45934 0.0
C1965 C 0.04668 0.38044 0.46209 0.0
H1966 H 0.08298 0.46008 0.47871 0.0
C1967 C 0.02709 0.37791 0.48858 0.0
H1968 H 0.08341 0.4125 0.43968 0.0
C1969 C 0.02593 0.40553 0.51001 0.0
C1970 C 0.04464 0.43593 0.50549 0.0
H1971 H 0.01086 0.35512 0.49132 0.0
H1972 H 0.00883 0.40342 0.52854 0.0
C1973 C 0.06689 0.43747 0.48139 0.0
C1974 C 0.39336 0.26962 0.16601 0.0
C1975 C 0.41961 0.25565 0.17875 0.0
H1976 H 0.34711 0.28307 0.17408 0.0
C1977 C 0.42214 0.25007 0.21232 0.0
H1978 H 0.39117 0.27498 0.1405 0.0
C1979 C 0.39685 0.25507 0.23175 0.0
C1980 C 0.36913 0.26599 0.21777 0.0
H1981 H 0.44234 0.23962 0.22284 0.0
H1982 H 0.39749 0.24742 0.25646 0.0
C1983 C 0.36845 0.27484 0.18538 0.0
C1984 C 0.62442 0.51765 0.43406 0.0
C1985 C 0.61187 0.51494 0.40069 0.0
H1986 H 0.61462 0.51878 0.48446 0.0
C1987 C 0.5773 0.50951 0.39334 0.0
H1988 H 0.65069 0.52187 0.44106 0.0
C1989 C 0.55612 0.50725 0.41875 0.0
C1990 C 0.56901 0.51076 0.45215 0.0
H1991 H 0.56658 0.50731 0.36796 0.0
H1992 H 0.52979 0.50351 0.41227 0.0
C1993 C 0.60348 0.51587 0.45919 0.0
C1994 C 0.26794 0.86582 0.12176 0.0
C1995 C 0.2669 0.84243 0.09479 0.0
H1996 H 0.26881 0.87477 0.17418 0.0
C1997 C 0.26726 0.8096 0.10024 0.0
H1998 H 0.26776 0.89128 0.11813 0.0
C1999 C 0.26871 0.80031 0.1323 0.0
C2000 C 0.26896 0.82359 0.15919 0.0
H2001 H 0.26679 0.79119 0.07976 0.0
H2002 H 0.26885 0.77485 0.13599 0.0
C2003 C 0.26852 0.85638 0.15372 0.0
C2004 C 0.9804 0.52059 0.89994 0.0
C2005 C 0.9546 0.53838 0.90209 0.0
H2006 H 0.02084 0.50422 0.92568 0.0
C2007 C 0.95318 0.55757 0.93162 0.0
H2008 H 0.98215 0.50549 0.87749 0.0
C2009 C 0.97586 0.55733 0.95901 0.0
C2010 C 0.9999 0.53738 0.95779 0.0
H2011 H 0.93413 0.57219 0.93371 0.0
H2012 H 0.97407 0.57209 0.98143 0.0
C2013 C 0.00272 0.51996 0.92753 0.0
C2014 C 0.28027 0.20351 0.61575 0.0
C2015 C 0.27362 0.16974 0.60513 0.0
H2016 H 0.28811 0.24055 0.65697 0.0
C2017 C 0.26847 0.14724 0.62874 0.0
H2018 H 0.28403 0.22148 0.59808 0.0
C2019 C 0.27078 0.15813 0.66226 0.0
C2020 C 0.27788 0.19182 0.67301 0.0
H2021 H 0.26305 0.1211 0.6214 0.0
H2022 H 0.26741 0.14005 0.67987 0.0
C2023 C 0.28219 0.21447 0.64939 0.0
C2024 C 0.63883 0.51799 0.18694 0.0
C2025 C 0.61609 0.5143 0.2105 0.0
H2026 H 0.64636 0.51692 0.13582 0.0
C2027 C 0.58226 0.50803 0.1997 0.0
H2028 H 0.66505 0.52303 0.1944 0.0
C2029 C 0.57147 0.50497 0.16592 0.0
C2030 C 0.59435 0.50776 0.1424 0.0
H2031 H 0.56414 0.50531 0.21731 0.0
H2032 H 0.54531 0.49939 0.1582 0.0
C2033 C 0.6281 0.5146 0.15333 0.0
C2034 C 0.23504 0.82957 0.87399 0.0
C2035 C 0.24399 0.82245 0.90615 0.0
H2036 H 0.23028 0.81367 0.82246 0.0
C2037 C 0.25017 0.79089 0.91099 0.0
H2038 H 0.22941 0.85337 0.86948 0.0
C2039 C 0.25111 0.76831 0.884 0.0
C2040 C 0.24561 0.7768 0.85174 0.0
H2041 H 0.25679 0.78443 0.93549 0.0
H2042 H 0.25862 0.74526 0.88843 0.0
C2043 C 0.23555 0.80681 0.84704 0.0
C2044 C 0.91295 0.51042 0.68568 0.0
C2045 C 0.93562 0.51308 0.7137 0.0
H2046 H 0.90551 0.50601 0.6329 0.0
C2047 C 0.96869 0.51173 0.70969 0.0
H2048 H 0.88731 0.51127 0.68811 0.0
C2049 C 0.97896 0.50795 0.67815 0.0
C2050 C 0.95646 0.50615 0.65014 0.0
H2051 H 0.98662 0.51339 0.73094 0.0
H2052 H 0.00465 0.50734 0.67572 0.0
C2053 C 0.92337 0.50737 0.65416 0.0
C2054 C 0.27004 0.16721 0.38238 0.0
C2055 C 0.27041 0.17873 0.41573 0.0
H2056 H 0.27276 0.17838 0.33275 0.0
C2057 C 0.27547 0.21304 0.424 0.0
H2058 H 0.26648 0.14118 0.37472 0.0
C2059 C 0.27928 0.23498 0.39933 0.0
C2060 C 0.27804 0.22305 0.36587 0.0
H2061 H 0.27595 0.22294 0.44942 0.0
H2062 H 0.28245 0.26108 0.40635 0.0
C2063 C 0.27372 0.18884 0.35806 0.0
C2064 C 0.38352 0.61513 0.54573 0.0
C2065 C 0.35638 0.60233 0.52273 0.0
H2066 H 0.43293 0.61284 0.56326 0.0
C2067 C 0.35927 0.57695 0.49854 0.0
H2068 H 0.38219 0.6345 0.56469 0.0
C2069 C 0.38833 0.56437 0.4977 0.0
C2070 C 0.41524 0.57685 0.52101 0.0
H2071 H 0.33892 0.56646 0.48022 0.0
H2072 H 0.38963 0.54481 0.47893 0.0
C2073 C 0.41258 0.60252 0.54489 0.0
C2074 C 0.90036 0.92225 0.54241 0.0
C2075 C 0.88035 0.93628 0.56334 0.0
H2076 H 0.94502 0.92885 0.51904 0.0
C2077 C 0.89302 0.96716 0.58068 0.0
H2078 H 0.89162 0.89816 0.52935 0.0
C2079 C 0.92366 0.98504 0.57464 0.0
C2080 C 0.94251 0.97213 0.55151 0.0
H2081 H 0.87868 0.97798 0.59804 0.0
H2082 H 0.93215 0.00928 0.58741 0.0
C2083 C 0.93097 0.93997 0.53648 0.0
C2084 C 0.8709 0.10013 0.2497 0.0
C2085 C 0.85338 0.0743 0.26472 0.0
H2086 H 0.87611 0.15077 0.24048 0.0
C2087 C 0.82683 0.08075 0.28224 0.0
H2088 H 0.89136 0.09625 0.23604 0.0
C2089 C 0.81811 0.11172 0.28478 0.0
C2090 C 0.83555 0.13754 0.26995 0.0
H2091 H 0.81245 0.06178 0.29429 0.0
H2092 H 0.79766 0.11539 0.29857 0.0
C2093 C 0.86207 0.13139 0.2523 0.0
C2094 C 0.67972 0.095 0.04041 0.0
C2095 C 0.69173 0.12647 0.03175 0.0
H2096 H 0.63746 0.05752 0.04196 0.0
C2097 C 0.66937 0.14569 0.02031 0.0
H2098 H 0.69651 0.08017 0.05032 0.0
C2099 C 0.63564 0.13293 0.01565 0.0
C2100 C 0.62353 0.10092 0.02309 0.0
H2101 H 0.67808 0.17031 0.01413 0.0
H2102 H 0.61911 0.14804 0.00581 0.0
C2103 C 0.64592 0.08225 0.036 0.0
C2104 C 0.20976 0.43095 0.31869 0.0
C2105 C 0.18541 0.43381 0.29324 0.0
H2106 H 0.24182 0.40106 0.3396 0.0
C2107 C 0.17385 0.40688 0.26976 0.0
H2108 H 0.21922 0.45114 0.33741 0.0
C2109 C 0.18697 0.37823 0.27112 0.0
C2110 C 0.21193 0.37574 0.29601 0.0
H2111 H 0.15524 0.40816 0.24988 0.0
H2112 H 0.17775 0.35813 0.25223 0.0
C2113 C 0.22284 0.40225 0.32005 0.0
C2114 C 0.20319 0.46857 0.04894 0.0
C2115 C 0.20827 0.43774 0.05832 0.0
H2116 H 0.16913 0.50019 0.03794 0.0
C2117 C 0.181 0.41556 0.06589 0.0
H2118 H 0.22345 0.4867 0.04321 0.0
C2119 C 0.14941 0.4237 0.06299 0.0
C2120 C 0.14448 0.45409 0.05233 0.0
H2121 H 0.18388 0.3917 0.07317 0.0
H2122 H 0.12876 0.40585 0.06838 0.0
C2123 C 0.17187 0.47652 0.04585 0.0
C2124 C 0.82108 0.88747 0.23636 0.0
C2125 C 0.85324 0.89894 0.25154 0.0
H2126 H 0.77822 0.84917 0.23126 0.0
C2127 C 0.86867 0.87739 0.26939 0.0
H2128 H 0.80906 0.90294 0.22118 0.0
C2129 C 0.85119 0.84655 0.27494 0.0
C2130 C 0.81783 0.83635 0.26263 0.0
H2131 H 0.89376 0.88507 0.28055 0.0
H2132 H 0.86343 0.83137 0.29027 0.0
C2133 C 0.80347 0.85662 0.24202 0.0
C2134 C 0.69269 0.11156 0.76055 0.0
C2135 C 0.66218 0.09891 0.77117 0.0
H2136 H 0.72975 0.15423 0.75905 0.0
C2137 C 0.64327 0.12052 0.78454 0.0
H2138 H 0.70704 0.09531 0.7489 0.0
C2139 C 0.65599 0.15404 0.79015 0.0
C2140 C 0.68773 0.16661 0.78208 0.0
H2141 H 0.61924 0.11129 0.79204 0.0
H2142 H 0.64142 0.16985 0.80208 0.0
C2143 C 0.70549 0.14522 0.76609 0.0
loop_
_geom_bond_atom_site_label_1
_geom_bond_atom_site_label_2
_geom_bond_distance
_geom_bond_site_symmetry_2
_ccdc_geom_bond_type
Mn0 O5 2.095 . S
Mn0 O15 2.162 . S
Mn0 O16 2.297 . S
Mn0 O24 2.385 1_455 S
Mn0 O25 2.209 . S
Mn0 O26 2.094 . S
Mn1 O6 2.121 . S
Mn1 N8 2.257 . S
Mn1 N17 2.282 1_455 S
Mn1 O25 2.215 . S
Mn1 O27 2.117 . S
C2 O24 1.234 . S
C2 O25 1.283 1_655 S
C3 O15 1.281 . S
C3 O16 1.236 . S
C4 O26 1.240 . S
C4 O27 1.264 . S
O5 Mn0 2.095 . S
O5 C14 1.250 . S
O6 Mn1 2.121 . S
O6 C14 1.258 . S
C7 N8 1.326 . S
C7 C11 1.460 . S
C7 H13 0.929 . S
N8 Mn1 2.257 . S
N8 C7 1.326 . S
N8 C12 1.362 1_455 S
C9 C10 1.258 . S
C9 C12 1.431 . S
C9 C29 1.449 . S
C10 C9 1.258 . S
C10 C11 1.477 1_655 S
C10 H30 0.931 . S
C11 C7 1.460 . S
C11 C10 1.477 1_455 S
C11 H31 0.930 . S
C12 N8 1.362 1_655 S
C12 C9 1.431 . S
C12 C22 1.476 . S
H13 C7 0.929 . S
C14 O5 1.250 . S
C14 O6 1.258 . S
O15 Mn0 2.162 . S
O15 C3 1.281 . S
O16 Mn0 2.297 . S
O16 C3 1.236 . S
N17 Mn1 2.282 1_655 S
N17 C18 1.328 . S
N17 C22 1.318 . S
C18 N17 1.328 . S
C18 C19 1.457 . S
C18 H23 0.929 . S
C19 C18 1.457 . S
C19 C20 1.291 . S
C19 H32 0.931 . S
C20 C19 1.291 . S
C20 C21 1.373 . S
C20 H33 0.929 . S
C21 C20 1.373 . S
C21 C22 1.396 . S
C21 C28 1.403 . S
C22 C12 1.476 . S
C22 N17 1.318 . S
C22 C21 1.396 . S
H23 C18 0.929 . S
O24 Mn0 2.385 1_655 S
O24 C2 1.234 . S
O25 Mn0 2.209 . S
O25 Mn1 2.215 . S
O25 C2 1.283 1_455 S
O26 Mn0 2.094 . S
O26 C4 1.240 . S
O27 Mn1 2.117 . S
O27 C4 1.264 . S
C28 C21 1.403 . S
C28 C29 1.399 . S
C28 H34 0.929 . S
C29 C9 1.449 . S
C29 C28 1.399 . S
C29 H35 0.930 . S
H30 C10 0.931 . S
H31 C11 0.930 . S
H32 C19 0.931 . S
H33 C20 0.929 . S
H34 C28 0.929 . S
H35 C29 0.930 . S
Mn36 O41 2.095 1_455 S
Mn36 O51 2.162 . S
Mn36 O52 2.297 . S
Mn36 O60 2.385 . S
Mn36 O61 2.209 . S
Mn36 O62 2.094 . S
Mn37 O42 2.121 1_455 S
Mn37 N44 2.257 . S
Mn37 N53 2.282 . S
Mn37 O61 2.215 . S
Mn37 O63 2.117 . S
C38 O60 1.234 . S
C38 O61 1.283 . S
C39 O51 1.281 . S
C39 O52 1.236 . S
C40 O62 1.240 . S
C40 O63 1.264 . S
O41 Mn36 2.095 1_655 S
O41 C50 1.250 . S
O42 Mn37 2.121 1_655 S
O42 C50 1.258 . S
C43 N44 1.326 . S
C43 C47 1.460 . S
C43 H49 0.930 1_455 S
N44 Mn37 2.257 . S
N44 C43 1.326 . S
N44 C48 1.362 . S
C45 C46 1.258 . S
C45 C48 1.431 . S
C45 C65 1.449 . S
C46 C45 1.258 . S
C46 C47 1.477 . S
C46 H66 0.931 . S
C47 C43 1.460 . S
C47 C46 1.477 . S
C47 H67 0.930 . S
C48 N44 1.362 . S
C48 C45 1.431 . S
C48 C58 1.476 . S
H49 C43 0.930 1_655 S
C50 O41 1.250 . S
C50 O42 1.258 . S
O51 Mn36 2.162 . S
O51 C39 1.281 . S
O52 Mn36 2.297 . S
O52 C39 1.236 . S
N53 Mn37 2.282 . S
N53 C54 1.328 . S
N53 C58 1.318 . S
C54 N53 1.328 . S
C54 C55 1.457 . S
C54 H59 0.929 . S
C55 C54 1.457 . S
C55 C56 1.291 . S
C55 H68 0.931 . S
C56 C55 1.291 . S
C56 C57 1.373 . S
C56 H69 0.929 . S
C57 C56 1.373 . S
C57 C58 1.396 . S
C57 C64 1.403 . S
C58 C48 1.476 . S
C58 N53 1.318 . S
C58 C57 1.396 . S
H59 C54 0.929 . S
O60 Mn36 2.385 . S
O60 C38 1.234 . S
O61 Mn36 2.209 . S
O61 Mn37 2.215 . S
O61 C38 1.283 . S
O62 Mn36 2.094 . S
O62 C40 1.240 . S
O63 Mn37 2.117 . S
O63 C40 1.264 . S
C64 C57 1.403 . S
C64 C65 1.399 . S
C64 H70 0.929 . S
C65 C45 1.449 . S
C65 C64 1.399 . S
C65 H71 0.930 . S
H66 C46 0.931 . S
H67 C47 0.930 . S
H68 C55 0.931 . S
H69 C56 0.929 . S
H70 C64 0.929 . S
H71 C65 0.930 . S
Mn72 O77 2.095 . S
Mn72 O87 2.162 . S
Mn72 O88 2.297 . S
Mn72 O96 2.385 . S
Mn72 O97 2.209 . S
Mn72 O98 2.094 . S
Mn73 O78 2.121 . S
Mn73 N80 2.257 . S
Mn73 N89 2.282 . S
Mn73 O97 2.215 . S
Mn73 O99 2.117 . S
C74 O96 1.234 . S
C74 O97 1.283 . S
C75 O87 1.281 . S
C75 O88 1.236 . S
C76 O98 1.240 . S
C76 O99 1.264 . S
O77 Mn72 2.095 . S
O77 C86 1.250 . S
O78 Mn73 2.121 . S
O78 C86 1.258 . S
C79 N80 1.326 . S
C79 C83 1.460 . S
C79 H85 0.929 . S
N80 Mn73 2.257 . S
N80 C79 1.326 . S
N80 C84 1.362 . S
C81 C82 1.258 . S
C81 C84 1.431 . S
C81 C101 1.449 . S
C82 C81 1.258 . S
C82 C83 1.477 . S
C82 H102 0.931 . S
C83 C79 1.460 . S
C83 C82 1.477 . S
C83 H103 0.930 . S
C84 N80 1.362 . S
C84 C81 1.431 . S
C84 C94 1.476 . S
H85 C79 0.929 . S
C86 O77 1.250 . S
C86 O78 1.258 . S
O87 Mn72 2.162 . S
O87 C75 1.281 . S
O88 Mn72 2.297 . S
O88 C75 1.236 . S
N89 Mn73 2.282 . S
N89 C90 1.328 . S
N89 C94 1.318 . S
C90 N89 1.328 . S
C90 C91 1.457 . S
C90 H95 0.929 . S
C91 C90 1.457 . S
C91 C92 1.291 . S
C91 H104 0.931 . S
C92 C91 1.291 . S
C92 C93 1.373 . S
C92 H105 0.929 . S
C93 C92 1.373 . S
C93 C94 1.396 . S
C93 C100 1.403 . S
C94 C84 1.476 . S
C94 N89 1.318 . S
C94 C93 1.396 . S
H95 C90 0.929 . S
O96 Mn72 2.385 . S
O96 C74 1.234 . S
O97 Mn72 2.209 . S
O97 Mn73 2.215 . S
O97 C74 1.283 . S
O98 Mn72 2.094 . S
O98 C76 1.240 . S
O99 Mn73 2.117 . S
O99 C76 1.264 . S
C100 C93 1.403 . S
C100 C101 1.399 . S
C100 H106 0.929 . S
C101 C81 1.449 . S
C101 C100 1.399 . S
C101 H107 0.930 . S
H102 C82 0.931 . S
H103 C83 0.930 . S
H104 C91 0.931 . S
H105 C92 0.929 . S
H106 C100 0.929 . S
H107 C101 0.930 . S
Mn108 O113 2.095 . S
Mn108 O123 2.162 . S
Mn108 O124 2.297 . S
Mn108 O132 2.385 . S
Mn108 O133 2.209 . S
Mn108 O134 2.094 . S
Mn109 O114 2.121 . S
Mn109 N116 2.257 . S
Mn109 N125 2.282 . S
Mn109 O133 2.215 . S
Mn109 O135 2.117 . S
C110 O132 1.234 . S
C110 O133 1.283 . S
C111 O123 1.281 . S
C111 O124 1.236 . S
C112 O134 1.240 . S
C112 O135 1.264 . S
O113 Mn108 2.095 . S
O113 C122 1.250 . S
O114 Mn109 2.121 . S
O114 C122 1.258 . S
C115 N116 1.326 . S
C115 C119 1.460 1_554 S
C115 H121 0.929 . S
N116 Mn109 2.257 . S
N116 C115 1.326 . S
N116 C120 1.362 . S
C117 C118 1.258 . S
C117 C120 1.431 1_556 S
C117 C137 1.449 . S
C118 C117 1.258 . S
C118 C119 1.477 . S
C118 H138 0.931 . S
C119 C115 1.460 1_556 S
C119 C118 1.477 . S
C119 H139 0.930 . S
C120 N116 1.362 . S
C120 C117 1.431 1_554 S
C120 C130 1.476 . S
H121 C115 0.929 . S
C122 O113 1.250 . S
C122 O114 1.258 . S
O123 Mn108 2.162 . S
O123 C111 1.281 . S
O124 Mn108 2.297 . S
O124 C111 1.236 . S
N125 Mn109 2.282 . S
N125 C126 1.328 . S
N125 C130 1.318 . S
C126 N125 1.328 . S
C126 C127 1.457 . S
C126 H131 0.929 . S
C127 C126 1.457 . S
C127 C128 1.291 . S
C127 H140 0.931 . S
C128 C127 1.291 . S
C128 C129 1.373 . S
C128 H141 0.929 . S
C129 C128 1.373 . S
C129 C130 1.396 . S
C129 C136 1.403 . S
C130 C120 1.476 . S
C130 N125 1.318 . S
C130 C129 1.396 . S
H131 C126 0.929 . S
O132 Mn108 2.385 . S
O132 C110 1.234 . S
O133 Mn108 2.209 . S
O133 Mn109 2.215 . S
O133 C110 1.283 . S
O134 Mn108 2.094 . S
O134 C112 1.240 . S
O135 Mn109 2.117 . S
O135 C112 1.264 . S
C136 C129 1.403 . S
C136 C137 1.399 1_554 S
C136 H142 0.932 . S
C137 C117 1.449 . S
C137 C136 1.399 1_556 S
C137 H143 0.930 . S
H138 C118 0.931 . S
H139 C119 0.930 . S
H140 C127 0.931 . S
H141 C128 0.929 . S
H142 C136 0.932 . S
H143 C137 0.930 . S
Mn144 O149 2.095 . S
Mn144 O159 2.162 . S
Mn144 O160 2.297 . S
Mn144 O168 2.385 . S
Mn144 O169 2.209 . S
Mn144 O170 2.094 . S
Mn145 O150 2.121 1_655 S
Mn145 N152 2.257 . S
Mn145 N161 2.282 . S
Mn145 O169 2.215 1_655 S
Mn145 O171 2.117 . S
C146 O168 1.234 . S
C146 O169 1.283 . S
C147 O159 1.281 . S
C147 O160 1.236 . S
C148 O170 1.240 1_655 S
C148 O171 1.264 . S
O149 Mn144 2.095 . S
O149 C158 1.250 . S
O150 Mn145 2.121 1_455 S
O150 C158 1.258 . S
C151 N152 1.326 1_455 S
C151 C155 1.460 1_554 S
C151 H157 0.929 . S
N152 Mn145 2.257 . S
N152 C151 1.326 1_655 S
N152 C156 1.362 . S
C153 C154 1.258 1_554 S
C153 C156 1.431 . S
C153 C173 1.449 1_554 S
C154 C153 1.258 1_556 S
C154 C155 1.477 1_655 S
C154 H174 0.931 . S
C155 C151 1.460 1_556 S
C155 C154 1.477 1_455 S
C155 H175 0.930 . S
C156 N152 1.362 . S
C156 C153 1.431 . S
C156 C166 1.476 . S
H157 C151 0.929 . S
C158 O149 1.250 . S
C158 O150 1.258 . S
O159 Mn144 2.162 . S
O159 C147 1.281 . S
O160 Mn144 2.297 . S
O160 C147 1.236 . S
N161 Mn145 2.282 . S
N161 C162 1.328 . S
N161 C166 1.318 . S
C162 N161 1.328 . S
C162 C163 1.457 . S
C162 H167 0.929 . S
C163 C162 1.457 . S
C163 C164 1.291 . S
C163 H176 0.931 . S
C164 C163 1.291 . S
C164 C165 1.373 . S
C164 H177 0.929 . S
C165 C164 1.373 . S
C165 C166 1.396 . S
C165 C172 1.403 . S
C166 C156 1.476 . S
C166 N161 1.318 . S
C166 C165 1.396 . S
H167 C162 0.929 . S
O168 Mn144 2.385 . S
O168 C146 1.234 . S
O169 Mn144 2.209 . S
O169 Mn145 2.215 1_455 S
O169 C146 1.283 . S
O170 Mn144 2.094 . S
O170 C148 1.240 1_455 S
O171 Mn145 2.117 . S
O171 C148 1.264 . S
C172 C165 1.403 . S
C172 C173 1.399 1_554 S
C172 H178 0.929 . S
C173 C153 1.449 1_556 S
C173 C172 1.399 1_556 S
C173 H179 0.930 . S
H174 C154 0.931 . S
H175 C155 0.930 . S
H176 C163 0.931 . S
H177 C164 0.929 . S
H178 C172 0.929 . S
H179 C173 0.930 . S
Mn180 O185 2.095 . S
Mn180 O195 2.162 . S
Mn180 O196 2.297 . S
Mn180 O204 2.385 . S
Mn180 O205 2.209 . S
Mn180 O206 2.094 . S
Mn181 O186 2.121 . S
Mn181 N188 2.257 . S
Mn181 N197 2.282 . S
Mn181 O205 2.215 . S
Mn181 O207 2.117 . S
C182 O204 1.234 . S
C182 O205 1.283 . S
C183 O195 1.281 . S
C183 O196 1.236 . S
C184 O206 1.240 . S
C184 O207 1.264 . S
O185 Mn180 2.095 . S
O185 C194 1.250 . S
O186 Mn181 2.121 . S
O186 C194 1.258 . S
C187 N188 1.326 . S
C187 C191 1.460 . S
C187 H193 0.929 . S
N188 Mn181 2.257 . S
N188 C187 1.326 . S
N188 C192 1.362 . S
C189 C190 1.258 . S
C189 C192 1.431 . S
C189 C209 1.449 . S
C190 C189 1.258 . S
C190 C191 1.477 . S
C190 H210 0.931 . S
C191 C187 1.460 . S
C191 C190 1.477 . S
C191 H211 0.930 . S
C192 N188 1.362 . S
C192 C189 1.431 . S
C192 C202 1.476 . S
H193 C187 0.929 . S
C194 O185 1.250 . S
C194 O186 1.258 . S
O195 Mn180 2.162 . S
O195 C183 1.281 . S
O196 Mn180 2.297 . S
O196 C183 1.236 . S
N197 Mn181 2.282 . S
N197 C198 1.328 . S
N197 C202 1.318 . S
C198 N197 1.328 . S
C198 C199 1.457 . S
C198 H203 0.929 . S
C199 C198 1.457 . S
C199 C200 1.291 . S
C199 H212 0.931 . S
C200 C199 1.291 . S
C200 C201 1.373 . S
C200 H213 0.929 . S
C201 C200 1.373 . S
C201 C202 1.396 . S
C201 C208 1.403 . S
C202 C192 1.476 . S
C202 N197 1.318 . S
C202 C201 1.396 . S
H203 C198 0.929 . S
O204 Mn180 2.385 . S
O204 C182 1.234 . S
O205 Mn180 2.209 . S
O205 Mn181 2.215 . S
O205 C182 1.283 . S
O206 Mn180 2.094 . S
O206 C184 1.240 . S
O207 Mn181 2.117 . S
O207 C184 1.264 . S
C208 C201 1.403 . S
C208 C209 1.399 . S
C208 H214 0.929 . S
C209 C189 1.449 . S
C209 C208 1.399 . S
C209 H215 0.930 . S
H210 C190 0.931 . S
H211 C191 0.930 . S
H212 C199 0.931 . S
H213 C200 0.929 . S
H214 C208 0.929 . S
H215 C209 0.930 . S
Mn216 O221 2.095 . S
Mn216 O231 2.162 . S
Mn216 O232 2.297 . S
Mn216 O240 2.385 . S
Mn216 O241 2.209 . S
Mn216 O242 2.094 . S
Mn217 O222 2.121 . S
Mn217 N224 2.257 . S
Mn217 N233 2.282 . S
Mn217 O241 2.215 . S
Mn217 O243 2.117 . S
C218 O240 1.234 . S
C218 O241 1.283 . S
C219 O231 1.281 . S
C219 O232 1.236 . S
C220 O242 1.240 . S
C220 O243 1.264 . S
O221 Mn216 2.095 . S
O221 C230 1.250 . S
O222 Mn217 2.121 . S
O222 C230 1.258 . S
C223 N224 1.326 . S
C223 C227 1.460 . S
C223 H229 0.929 . S
N224 Mn217 2.257 . S
N224 C223 1.326 . S
N224 C228 1.362 . S
C225 C226 1.258 . S
C225 C228 1.431 . S
C225 C245 1.449 . S
C226 C225 1.258 . S
C226 C227 1.477 . S
C226 H246 0.931 . S
C227 C223 1.460 . S
C227 C226 1.477 . S
C227 H247 0.930 . S
C228 N224 1.362 . S
C228 C225 1.431 . S
C228 C238 1.476 . S
H229 C223 0.929 . S
C230 O221 1.250 . S
C230 O222 1.258 . S
O231 Mn216 2.162 . S
O231 C219 1.281 . S
O232 Mn216 2.297 . S
O232 C219 1.236 . S
N233 Mn217 2.282 . S
N233 C234 1.328 . S
N233 C238 1.318 . S
C234 N233 1.328 . S
C234 C235 1.457 . S
C234 H239 0.929 . S
C235 C234 1.457 . S
C235 C236 1.291 . S
C235 H248 0.931 . S
C236 C235 1.291 . S
C236 C237 1.373 . S
C236 H249 0.929 . S
C237 C236 1.373 . S
C237 C238 1.396 . S
C237 C244 1.403 . S
C238 C228 1.476 . S
C238 N233 1.318 . S
C238 C237 1.396 . S
H239 C234 0.929 . S
O240 Mn216 2.385 . S
O240 C218 1.234 . S
O241 Mn216 2.209 . S
O241 Mn217 2.215 . S
O241 C218 1.283 . S
O242 Mn216 2.094 . S
O242 C220 1.240 . S
O243 Mn217 2.117 . S
O243 C220 1.264 . S
C244 C237 1.403 . S
C244 C245 1.399 . S
C244 H250 0.929 . S
C245 C225 1.449 . S
C245 C244 1.399 . S
C245 H251 0.930 . S
H246 C226 0.931 . S
H247 C227 0.930 . S
H248 C235 0.931 . S
H249 C236 0.929 . S
H250 C244 0.929 . S
H251 C245 0.930 . S
Mn252 O257 2.095 1_655 S
Mn252 O267 2.159 1_655 S
Mn252 O268 2.297 . S
Mn252 O276 2.385 . S
Mn252 O277 2.209 . S
Mn252 O278 2.094 1_655 S
Mn253 O258 2.121 1_655 S
Mn253 N260 2.257 . S
Mn253 N269 2.282 . S
Mn253 O277 2.215 . S
Mn253 O279 2.117 1_655 S
C254 O276 1.234 . S
C254 O277 1.283 . S
C255 O267 1.282 1_655 S
C255 O268 1.236 . S
C256 O278 1.240 . S
C256 O279 1.264 . S
O257 Mn252 2.095 1_455 S
O257 C266 1.250 . S
O258 Mn253 2.121 1_455 S
O258 C266 1.258 . S
C259 N260 1.326 . S
C259 C263 1.460 . S
C259 H265 0.929 1_655 S
N260 Mn253 2.257 . S
N260 C259 1.326 . S
N260 C264 1.362 . S
C261 C262 1.258 . S
C261 C264 1.431 . S
C261 C281 1.449 . S
C262 C261 1.258 . S
C262 C263 1.477 . S
C262 H282 0.931 . S
C263 C259 1.460 . S
C263 C262 1.477 . S
C263 H283 0.930 . S
C264 N260 1.362 . S
C264 C261 1.431 . S
C264 C274 1.476 . S
H265 C259 0.929 1_455 S
C266 O257 1.250 . S
C266 O258 1.258 . S
O267 Mn252 2.159 1_455 S
O267 C255 1.282 1_455 S
O268 Mn252 2.297 . S
O268 C255 1.236 . S
N269 Mn253 2.282 . S
N269 C270 1.328 . S
N269 C274 1.318 . S
C270 N269 1.328 . S
C270 C271 1.457 . S
C270 H275 0.929 . S
C271 C270 1.457 . S
C271 C272 1.291 . S
C271 H284 0.931 . S
C272 C271 1.291 . S
C272 C273 1.373 . S
C272 H285 0.929 . S
C273 C272 1.373 . S
C273 C274 1.396 . S
C273 C280 1.403 . S
C274 C264 1.476 . S
C274 N269 1.318 . S
C274 C273 1.396 . S
H275 C270 0.929 . S
O276 Mn252 2.385 . S
O276 C254 1.234 . S
O277 Mn252 2.209 . S
O277 Mn253 2.215 . S
O277 C254 1.283 . S
O278 Mn252 2.094 1_455 S
O278 C256 1.240 . S
O279 Mn253 2.117 1_455 S
O279 C256 1.264 . S
C280 C273 1.403 . S
C280 C281 1.399 . S
C280 H286 0.929 . S
C281 C261 1.449 . S
C281 C280 1.399 . S
C281 H287 0.930 . S
H282 C262 0.931 . S
H283 C263 0.930 . S
H284 C271 0.931 . S
H285 C272 0.929 . S
H286 C280 0.929 . S
H287 C281 0.930 . S
Mn288 O293 2.095 . S
Mn288 O303 2.162 . S
Mn288 O304 2.297 . S
Mn288 O312 2.385 1_545 S
Mn288 O313 2.209 1_545 S
Mn288 O314 2.094 . S
Mn289 O294 2.121 . S
Mn289 N296 2.257 1_545 S
Mn289 N305 2.282 1_545 S
Mn289 O313 2.215 1_545 S
Mn289 O315 2.117 . S
C290 O312 1.234 . S
C290 O313 1.283 . S
C291 O303 1.281 . S
C291 O304 1.236 . S
C292 O314 1.240 . S
C292 O315 1.264 . S
O293 Mn288 2.095 . S
O293 C302 1.250 . S
O294 Mn289 2.121 . S
O294 C302 1.258 . S
C295 N296 1.326 1_545 S
C295 C299 1.460 1_545 S
C295 H301 0.929 . S
N296 Mn289 2.257 1_565 S
N296 C295 1.326 1_565 S
N296 C300 1.362 . S
C297 C298 1.258 . S
C297 C300 1.431 . S
C297 C317 1.449 . S
C298 C297 1.258 . S
C298 C299 1.477 . S
C298 H318 0.931 . S
C299 C295 1.460 1_565 S
C299 C298 1.477 . S
C299 H319 0.930 1_565 S
C300 N296 1.362 . S
C300 C297 1.431 . S
C300 C310 1.476 . S
H301 C295 0.929 . S
C302 O293 1.250 . S
C302 O294 1.258 . S
O303 Mn288 2.162 . S
O303 C291 1.281 . S
O304 Mn288 2.297 . S
O304 C291 1.236 . S
N305 Mn289 2.282 1_565 S
N305 C306 1.328 . S
N305 C310 1.318 . S
C306 N305 1.328 . S
C306 C307 1.457 . S
C306 H311 0.929 . S
C307 C306 1.457 . S
C307 C308 1.291 . S
C307 H320 0.931 . S
C308 C307 1.291 . S
C308 C309 1.373 . S
C308 H321 0.929 . S
C309 C308 1.373 . S
C309 C310 1.396 . S
C309 C316 1.403 . S
C310 C300 1.476 . S
C310 N305 1.318 . S
C310 C309 1.396 . S
H311 C306 0.929 . S
O312 Mn288 2.385 1_565 S
O312 C290 1.234 . S
O313 Mn288 2.209 1_565 S
O313 Mn289 2.215 1_565 S
O313 C290 1.283 . S
O314 Mn288 2.094 . S
O314 C292 1.240 . S
O315 Mn289 2.117 . S
O315 C292 1.264 . S
C316 C309 1.403 . S
C316 C317 1.399 . S
C316 H322 0.929 . S
C317 C297 1.449 . S
C317 C316 1.399 . S
C317 H323 0.930 . S
H318 C298 0.931 . S
H319 C299 0.930 1_545 S
H320 C307 0.931 . S
H321 C308 0.929 . S
H322 C316 0.929 . S
H323 C317 0.930 . S
Mn324 O329 2.095 . S
Mn324 O339 2.162 . S
Mn324 O340 2.297 . S
Mn324 O348 2.385 . S
Mn324 O349 2.209 . S
Mn324 O350 2.094 . S
Mn325 O330 2.121 . S
Mn325 N332 2.257 . S
Mn325 N341 2.282 . S
Mn325 O349 2.215 . S
Mn325 O351 2.117 . S
C326 O348 1.234 . S
C326 O349 1.283 . S
C327 O339 1.281 . S
C327 O340 1.236 . S
C328 O350 1.240 . S
C328 O351 1.264 . S
O329 Mn324 2.095 . S
O329 C338 1.250 . S
O330 Mn325 2.121 . S
O330 C338 1.258 . S
C331 N332 1.326 . S
C331 C335 1.460 1_545 S
C331 H337 0.929 . S
N332 Mn325 2.257 . S
N332 C331 1.326 . S
N332 C336 1.362 . S
C333 C334 1.258 . S
C333 C336 1.431 1_565 S
C333 C353 1.449 . S
C334 C333 1.258 . S
C334 C335 1.477 . S
C334 H354 0.931 . S
C335 C331 1.460 1_565 S
C335 C334 1.477 . S
C335 H355 0.930 . S
C336 N332 1.362 . S
C336 C333 1.431 1_545 S
C336 C346 1.476 . S
H337 C331 0.929 . S
C338 O329 1.250 . S
C338 O330 1.258 . S
O339 Mn324 2.162 . S
O339 C327 1.281 . S
O340 Mn324 2.297 . S
O340 C327 1.236 . S
N341 Mn325 2.282 . S
N341 C342 1.328 . S
N341 C346 1.318 . S
C342 N341 1.328 . S
C342 C343 1.457 . S
C342 H347 0.929 . S
C343 C342 1.457 . S
C343 C344 1.291 . S
C343 H356 0.931 . S
C344 C343 1.291 . S
C344 C345 1.373 . S
C344 H357 0.929 . S
C345 C344 1.373 . S
C345 C346 1.396 . S
C345 C352 1.403 1_545 S
C346 C336 1.476 . S
C346 N341 1.318 . S
C346 C345 1.396 . S
H347 C342 0.929 . S
O348 Mn324 2.385 . S
O348 C326 1.234 . S
O349 Mn324 2.209 . S
O349 Mn325 2.215 . S
O349 C326 1.283 . S
O350 Mn324 2.094 . S
O350 C328 1.240 . S
O351 Mn325 2.117 . S
O351 C328 1.264 . S
C352 C345 1.403 1_565 S
C352 C353 1.399 . S
C352 H358 0.929 . S
C353 C333 1.449 . S
C353 C352 1.399 . S
C353 H359 0.930 . S
H354 C334 0.931 . S
H355 C335 0.930 . S
H356 C343 0.931 . S
H357 C344 0.929 . S
H358 C352 0.929 . S
H359 C353 0.930 . S
Mn360 O365 2.095 1_545 S
Mn360 O375 2.162 . S
Mn360 O376 2.297 . S
Mn360 O384 2.385 . S
Mn360 O385 2.209 . S
Mn360 O386 2.094 . S
Mn361 O366 2.121 1_545 S
Mn361 N368 2.257 . S
Mn361 N377 2.282 . S
Mn361 O385 2.215 . S
Mn361 O387 2.117 . S
C362 O384 1.234 . S
C362 O385 1.283 . S
C363 O375 1.281 . S
C363 O376 1.236 . S
C364 O386 1.240 . S
C364 O387 1.264 . S
O365 Mn360 2.095 1_565 S
O365 C374 1.250 . S
O366 Mn361 2.121 1_565 S
O366 C374 1.258 . S
C367 N368 1.326 . S
C367 C371 1.460 . S
C367 H373 0.929 . S
N368 Mn361 2.257 . S
N368 C367 1.326 . S
N368 C372 1.362 . S
C369 C370 1.258 . S
C369 C372 1.431 . S
C369 C389 1.449 . S
C370 C369 1.258 . S
C370 C371 1.477 . S
C370 H390 0.931 . S
C371 C367 1.460 . S
C371 C370 1.477 . S
C371 H391 0.930 . S
C372 N368 1.362 . S
C372 C369 1.431 . S
C372 C382 1.476 . S
H373 C367 0.929 . S
C374 O365 1.250 . S
C374 O366 1.258 . S
O375 Mn360 2.162 . S
O375 C363 1.281 . S
O376 Mn360 2.297 . S
O376 C363 1.236 . S
N377 Mn361 2.282 . S
N377 C378 1.328 . S
N377 C382 1.318 . S
C378 N377 1.328 . S
C378 C379 1.457 . S
C378 H383 0.929 . S
C379 C378 1.457 . S
C379 C380 1.291 . S
C379 H392 0.931 . S
C380 C379 1.291 . S
C380 C381 1.373 . S
C380 H393 0.929 . S
C381 C380 1.373 . S
C381 C382 1.396 . S
C381 C388 1.403 . S
C382 C372 1.476 . S
C382 N377 1.318 . S
C382 C381 1.396 . S
H383 C378 0.929 . S
O384 Mn360 2.385 . S
O384 C362 1.234 . S
O385 Mn360 2.209 . S
O385 Mn361 2.215 . S
O385 C362 1.283 . S
O386 Mn360 2.094 . S
O386 C364 1.240 . S
O387 Mn361 2.117 . S
O387 C364 1.264 . S
C388 C381 1.403 . S
C388 C389 1.399 . S
C388 H394 0.929 . S
C389 C369 1.449 . S
C389 C388 1.399 . S
C389 H395 0.930 . S
H390 C370 0.931 . S
H391 C371 0.930 . S
H392 C379 0.931 . S
H393 C380 0.929 . S
H394 C388 0.929 . S
H395 C389 0.930 . S
Mn396 O401 2.095 . S
Mn396 O411 2.162 . S
Mn396 O412 2.297 . S
Mn396 O420 2.385 . S
Mn396 O421 2.209 . S
Mn396 O422 2.094 1_554 S
Mn397 O402 2.121 . S
Mn397 N404 2.257 . S
Mn397 N413 2.282 . S
Mn397 O421 2.215 1_556 S
Mn397 O423 2.117 . S
C398 O420 1.234 . S
C398 O421 1.283 . S
C399 O411 1.281 . S
C399 O412 1.236 . S
C400 O422 1.240 . S
C400 O423 1.264 . S
O401 Mn396 2.095 . S
O401 C410 1.250 . S
O402 Mn397 2.121 . S
O402 C410 1.258 1_556 S
C403 N404 1.326 . S
C403 C407 1.460 1_565 S
C403 H409 0.929 1_556 S
N404 Mn397 2.257 . S
N404 C403 1.326 . S
N404 C408 1.362 . S
C405 C406 1.258 . S
C405 C408 1.431 1_545 S
C405 C425 1.449 . S
C406 C405 1.258 . S
C406 C407 1.477 . S
C406 H426 0.931 . S
C407 C403 1.460 1_545 S
C407 C406 1.477 . S
C407 H427 0.930 1_556 S
C408 N404 1.362 . S
C408 C405 1.431 1_565 S
C408 C418 1.476 . S
H409 C403 0.929 1_554 S
C410 O401 1.250 . S
C410 O402 1.258 1_554 S
O411 Mn396 2.162 . S
O411 C399 1.281 . S
O412 Mn396 2.297 . S
O412 C399 1.236 . S
N413 Mn397 2.282 . S
N413 C414 1.328 . S
N413 C418 1.318 . S
C414 N413 1.328 . S
C414 C415 1.457 . S
C414 H419 0.929 . S
C415 C414 1.457 . S
C415 C416 1.291 . S
C415 H428 0.931 . S
C416 C415 1.291 . S
C416 C417 1.373 . S
C416 H429 0.929 . S
C417 C416 1.373 . S
C417 C418 1.396 . S
C417 C424 1.403 1_565 S
C418 C408 1.476 . S
C418 N413 1.318 . S
C418 C417 1.396 . S
H419 C414 0.929 . S
O420 Mn396 2.385 . S
O420 C398 1.234 . S
O421 Mn396 2.209 . S
O421 Mn397 2.215 1_554 S
O421 C398 1.283 . S
O422 Mn396 2.094 1_556 S
O422 C400 1.240 . S
O423 Mn397 2.117 . S
O423 C400 1.264 . S
C424 C417 1.403 1_545 S
C424 C425 1.399 . S
C424 H430 0.929 . S
C425 C405 1.449 . S
C425 C424 1.399 . S
C425 H431 0.930 . S
H426 C406 0.931 . S
H427 C407 0.930 1_554 S
H428 C415 0.931 . S
H429 C416 0.929 . S
H430 C424 0.929 . S
H431 C425 0.930 . S
Mn432 O437 2.095 . S
Mn432 O447 2.162 . S
Mn432 O448 2.297 . S
Mn432 O456 2.385 . S
Mn432 O457 2.209 . S
Mn432 O458 2.094 . S
Mn433 O438 2.121 . S
Mn433 N440 2.257 . S
Mn433 N449 2.282 1_554 S
Mn433 O457 2.215 . S
Mn433 O459 2.117 1_554 S
C434 O456 1.234 . S
C434 O457 1.283 . S
C435 O447 1.281 . S
C435 O448 1.236 . S
C436 O458 1.240 1_556 S
C436 O459 1.264 . S
O437 Mn432 2.095 . S
O437 C446 1.250 . S
O438 Mn433 2.121 . S
O438 C446 1.258 . S
C439 N440 1.326 . S
C439 C443 1.460 . S
C439 H445 0.929 . S
N440 Mn433 2.257 . S
N440 C439 1.326 . S
N440 C444 1.362 . S
C441 C442 1.258 . S
C441 C444 1.431 . S
C441 C461 1.449 1_554 S
C442 C441 1.258 . S
C442 C443 1.477 . S
C442 H462 0.931 . S
C443 C439 1.460 . S
C443 C442 1.477 . S
C443 H463 0.930 . S
C444 N440 1.362 . S
C444 C441 1.431 . S
C444 C454 1.476 1_554 S
H445 C439 0.929 . S
C446 O437 1.250 . S
C446 O438 1.258 . S
O447 Mn432 2.162 . S
O447 C435 1.281 . S
O448 Mn432 2.297 . S
O448 C435 1.236 . S
N449 Mn433 2.282 1_556 S
N449 C450 1.328 . S
N449 C454 1.318 . S
C450 N449 1.328 . S
C450 C451 1.457 . S
C450 H455 0.929 . S
C451 C450 1.457 . S
C451 C452 1.291 . S
C451 H464 0.931 . S
C452 C451 1.291 . S
C452 C453 1.373 . S
C452 H465 0.929 . S
C453 C452 1.373 . S
C453 C454 1.396 . S
C453 C460 1.403 . S
C454 C444 1.476 1_556 S
C454 N449 1.318 . S
C454 C453 1.396 . S
H455 C450 0.929 . S
O456 Mn432 2.385 . S
O456 C434 1.234 . S
O457 Mn432 2.209 . S
O457 Mn433 2.215 . S
O457 C434 1.283 . S
O458 Mn432 2.094 . S
O458 C436 1.240 1_554 S
O459 Mn433 2.117 1_556 S
O459 C436 1.264 . S
C460 C453 1.403 . S
C460 C461 1.399 . S
C460 H466 0.929 . S
C461 C441 1.449 1_556 S
C461 C460 1.399 . S
C461 H467 0.931 1_556 S
H462 C442 0.931 . S
H463 C443 0.930 . S
H464 C451 0.931 . S
H465 C452 0.929 . S
H466 C460 0.929 . S
H467 C461 0.931 1_554 S
Mn468 O473 2.095 . S
Mn468 O483 2.162 . S
Mn468 O484 2.297 . S
Mn468 O492 2.385 . S
Mn468 O493 2.209 . S
Mn468 O494 2.094 . S
Mn469 O474 2.121 1_556 S
Mn469 N476 2.257 . S
Mn469 N485 2.282 . S
Mn469 O493 2.215 1_556 S
Mn469 O495 2.117 . S
C470 O492 1.234 . S
C470 O493 1.283 . S
C471 O483 1.281 . S
C471 O484 1.236 . S
C472 O494 1.240 1_556 S
C472 O495 1.264 . S
O473 Mn468 2.095 . S
O473 C482 1.250 . S
O474 Mn469 2.121 1_554 S
O474 C482 1.258 . S
C475 N476 1.326 1_554 S
C475 C479 1.461 1_544 S
C475 H481 0.929 . S
N476 Mn469 2.257 . S
N476 C475 1.326 1_556 S
N476 C480 1.362 . S
C477 C478 1.276 . S
C477 C480 1.411 1_565 S
C477 C497 1.450 . S
C478 C477 1.276 . S
C478 C479 1.482 . S
C478 H498 0.931 . S
C479 C475 1.461 1_566 S
C479 C478 1.482 . S
C479 H499 0.924 1_556 S
C480 N476 1.362 . S
C480 C477 1.411 1_545 S
C480 C490 1.476 . S
H481 C475 0.929 . S
C482 O473 1.250 . S
C482 O474 1.258 . S
O483 Mn468 2.162 . S
O483 C471 1.281 . S
O484 Mn468 2.297 . S
O484 C471 1.236 . S
N485 Mn469 2.282 . S
N485 C486 1.328 . S
N485 C490 1.318 . S
C486 N485 1.328 . S
C486 C487 1.457 . S
C486 H491 0.929 . S
C487 C486 1.457 . S
C487 C488 1.291 . S
C487 H500 0.931 . S
C488 C487 1.291 . S
C488 C489 1.373 . S
C488 H501 0.929 . S
C489 C488 1.373 . S
C489 C490 1.396 . S
C489 C496 1.403 . S
C490 C480 1.476 . S
C490 N485 1.318 . S
C490 C489 1.396 . S
H491 C486 0.929 . S
O492 Mn468 2.385 . S
O492 C470 1.234 . S
O493 Mn468 2.209 . S
O493 Mn469 2.215 1_554 S
O493 C470 1.283 . S
O494 Mn468 2.094 . S
O494 C472 1.240 1_554 S
O495 Mn469 2.117 . S
O495 C472 1.264 . S
C496 C489 1.403 . S
C496 C497 1.399 1_545 S
C496 H502 0.929 . S
C497 C477 1.450 . S
C497 C496 1.399 1_565 S
C497 H503 0.930 . S
H498 C478 0.931 . S
H499 C479 0.924 1_554 S
H500 C487 0.931 . S
H501 C488 0.929 . S
H502 C496 0.929 . S
H503 C497 0.930 . S
Mn504 O509 2.095 . S
Mn504 O519 2.162 . S
Mn504 O520 2.297 . S
Mn504 O528 2.385 . S
Mn504 O529 2.209 . S
Mn504 O530 2.094 . S
Mn505 O510 2.121 . S
Mn505 N512 2.257 . S
Mn505 N521 2.282 . S
Mn505 O529 2.215 . S
Mn505 O531 2.117 . S
C506 O528 1.234 . S
C506 O529 1.283 . S
C507 O519 1.281 . S
C507 O520 1.236 . S
C508 O530 1.240 . S
C508 O531 1.264 . S
O509 Mn504 2.095 . S
O509 C518 1.250 . S
O510 Mn505 2.121 . S
O510 C518 1.258 . S
C511 N512 1.326 . S
C511 C515 1.460 . S
C511 H517 0.929 . S
N512 Mn505 2.257 . S
N512 C511 1.326 . S
N512 C516 1.362 . S
C513 C514 1.258 . S
C513 C516 1.431 . S
C513 C533 1.449 . S
C514 C513 1.258 . S
C514 C515 1.477 . S
C514 H534 0.931 . S
C515 C511 1.460 . S
C515 C514 1.477 . S
C515 H535 0.930 . S
C516 N512 1.362 . S
C516 C513 1.431 . S
C516 C526 1.476 . S
H517 C511 0.929 . S
C518 O509 1.250 . S
C518 O510 1.258 . S
O519 Mn504 2.162 . S
O519 C507 1.281 . S
O520 Mn504 2.297 . S
O520 C507 1.236 . S
N521 Mn505 2.282 . S
N521 C522 1.328 . S
N521 C526 1.318 . S
C522 N521 1.328 . S
C522 C523 1.457 . S
C522 H527 0.929 . S
C523 C522 1.457 . S
C523 C524 1.291 . S
C523 H536 0.931 . S
C524 C523 1.291 . S
C524 C525 1.373 . S
C524 H537 0.929 . S
C525 C524 1.373 . S
C525 C526 1.396 . S
C525 C532 1.403 . S
C526 C516 1.476 . S
C526 N521 1.318 . S
C526 C525 1.396 . S
H527 C522 0.929 . S
O528 Mn504 2.385 . S
O528 C506 1.234 . S
O529 Mn504 2.209 . S
O529 Mn505 2.215 . S
O529 C506 1.283 . S
O530 Mn504 2.094 . S
O530 C508 1.240 . S
O531 Mn505 2.117 . S
O531 C508 1.264 . S
C532 C525 1.403 . S
C532 C533 1.399 . S
C532 H538 0.929 . S
C533 C513 1.449 . S
C533 C532 1.399 . S
C533 H539 0.930 . S
H534 C514 0.931 . S
H535 C515 0.930 . S
H536 C523 0.931 . S
H537 C524 0.929 . S
H538 C532 0.929 . S
H539 C533 0.930 . S
Mn540 O545 2.095 . S
Mn540 O555 2.162 . S
Mn540 O556 2.297 . S
Mn540 O564 2.385 . S
Mn540 O565 2.209 . S
Mn540 O566 2.094 . S
Mn541 O546 2.121 . S
Mn541 N548 2.257 . S
Mn541 N557 2.282 . S
Mn541 O565 2.215 . S
Mn541 O567 2.117 . S
C542 O564 1.234 . S
C542 O565 1.283 . S
C543 O555 1.281 . S
C543 O556 1.236 . S
C544 O566 1.240 . S
C544 O567 1.264 . S
O545 Mn540 2.095 . S
O545 C554 1.250 . S
O546 Mn541 2.121 . S
O546 C554 1.258 . S
C547 N548 1.326 1_545 S
C547 C551 1.460 . S
C547 H553 0.929 . S
N548 Mn541 2.257 . S
N548 C547 1.326 1_565 S
N548 C552 1.364 . S
C549 C550 1.258 . S
C549 C552 1.425 1_545 S
C549 C569 1.449 . S
C550 C549 1.258 . S
C550 C551 1.477 . S
C550 H570 0.931 . S
C551 C547 1.460 . S
C551 C550 1.477 . S
C551 H571 0.930 . S
C552 N548 1.364 . S
C552 C549 1.425 1_565 S
C552 C562 1.480 . S
H553 C547 0.929 . S
C554 O545 1.250 . S
C554 O546 1.258 . S
O555 Mn540 2.162 . S
O555 C543 1.281 . S
O556 Mn540 2.297 . S
O556 C543 1.236 . S
N557 Mn541 2.282 . S
N557 C558 1.328 . S
N557 C562 1.318 . S
C558 N557 1.328 . S
C558 C559 1.457 . S
C558 H563 0.929 . S
C559 C558 1.457 . S
C559 C560 1.291 . S
C559 H572 0.931 . S
C560 C559 1.291 . S
C560 C561 1.373 . S
C560 H573 0.929 . S
C561 C560 1.373 . S
C561 C562 1.396 . S
C561 C568 1.403 1_565 S
C562 C552 1.480 . S
C562 N557 1.318 . S
C562 C561 1.396 . S
H563 C558 0.929 . S
O564 Mn540 2.385 . S
O564 C542 1.234 . S
O565 Mn540 2.209 . S
O565 Mn541 2.215 . S
O565 C542 1.283 . S
O566 Mn540 2.094 . S
O566 C544 1.240 . S
O567 Mn541 2.117 . S
O567 C544 1.264 . S
C568 C561 1.403 1_545 S
C568 C569 1.399 . S
C568 H574 0.929 . S
C569 C549 1.449 . S
C569 C568 1.399 . S
C569 H575 0.930 . S
H570 C550 0.931 . S
H571 C551 0.930 . S
H572 C559 0.931 . S
H573 C560 0.929 . S
H574 C568 0.929 . S
H575 C569 0.930 . S
Mn576 O581 2.095 . S
Mn576 O591 2.162 . S
Mn576 O592 2.297 1_545 S
Mn576 O600 2.385 1_545 S
Mn576 O601 2.209 1_545 S
Mn576 O602 2.094 . S
Mn577 O582 2.121 1_565 S
Mn577 N584 2.257 . S
Mn577 N593 2.282 . S
Mn577 O601 2.215 . S
Mn577 O603 2.117 1_565 S
C578 O600 1.234 . S
C578 O601 1.283 . S
C579 O591 1.281 . S
C579 O592 1.236 1_545 S
C580 O602 1.240 . S
C580 O603 1.264 . S
O581 Mn576 2.095 . S
O581 C590 1.250 . S
O582 Mn577 2.121 1_545 S
O582 C590 1.258 . S
C583 N584 1.326 . S
C583 C587 1.460 . S
C583 H589 0.929 1_565 S
N584 Mn577 2.257 . S
N584 C583 1.326 . S
N584 C588 1.362 . S
C585 C586 1.258 . S
C585 C588 1.431 . S
C585 C605 1.449 . S
C586 C585 1.258 . S
C586 C587 1.477 . S
C586 H606 0.931 . S
C587 C583 1.460 . S
C587 C586 1.477 . S
C587 H607 0.930 . S
C588 N584 1.362 . S
C588 C585 1.431 . S
C588 C598 1.476 . S
H589 C583 0.929 1_545 S
C590 O581 1.250 . S
C590 O582 1.258 . S
O591 Mn576 2.162 . S
O591 C579 1.281 . S
O592 Mn576 2.297 1_565 S
O592 C579 1.236 1_565 S
N593 Mn577 2.282 . S
N593 C594 1.328 . S
N593 C598 1.318 . S
C594 N593 1.328 . S
C594 C595 1.457 . S
C594 H599 0.929 . S
C595 C594 1.457 . S
C595 C596 1.291 . S
C595 H608 0.931 . S
C596 C595 1.291 . S
C596 C597 1.373 . S
C596 H609 0.929 . S
C597 C596 1.373 . S
C597 C598 1.396 . S
C597 C604 1.403 . S
C598 C588 1.476 . S
C598 N593 1.318 . S
C598 C597 1.396 . S
H599 C594 0.929 . S
O600 Mn576 2.385 1_565 S
O600 C578 1.234 . S
O601 Mn576 2.209 1_565 S
O601 Mn577 2.215 . S
O601 C578 1.283 . S
O602 Mn576 2.094 . S
O602 C580 1.240 . S
O603 Mn577 2.117 1_545 S
O603 C580 1.264 . S
C604 C597 1.403 . S
C604 C605 1.399 . S
C604 H610 0.929 . S
C605 C585 1.449 . S
C605 C604 1.399 . S
C605 H611 0.930 . S
H606 C586 0.931 . S
H607 C587 0.930 . S
H608 C595 0.931 . S
H609 C596 0.929 . S
H610 C604 0.929 . S
H611 C605 0.930 . S
Mn612 O617 2.095 . S
Mn612 O627 2.162 . S
Mn612 O628 2.297 . S
Mn612 O636 2.385 . S
Mn612 O637 2.209 . S
Mn612 O638 2.094 . S
Mn613 O618 2.121 . S
Mn613 N620 2.257 . S
Mn613 N629 2.282 . S
Mn613 O637 2.215 . S
Mn613 O639 2.117 . S
C614 O636 1.234 . S
C614 O637 1.283 . S
C615 O627 1.281 . S
C615 O628 1.236 . S
C616 O638 1.240 . S
C616 O639 1.264 . S
O617 Mn612 2.095 . S
O617 C626 1.250 . S
O618 Mn613 2.121 . S
O618 C626 1.258 . S
C619 N620 1.326 . S
C619 C623 1.460 . S
C619 H625 0.929 . S
N620 Mn613 2.257 . S
N620 C619 1.326 . S
N620 C624 1.362 . S
C621 C622 1.258 . S
C621 C624 1.431 . S
C621 C641 1.449 . S
C622 C621 1.258 . S
C622 C623 1.477 . S
C622 H642 0.931 . S
C623 C619 1.460 . S
C623 C622 1.477 . S
C623 H643 0.930 . S
C624 N620 1.362 . S
C624 C621 1.431 . S
C624 C634 1.476 . S
H625 C619 0.929 . S
C626 O617 1.250 . S
C626 O618 1.258 . S
O627 Mn612 2.162 . S
O627 C615 1.281 . S
O628 Mn612 2.297 . S
O628 C615 1.236 . S
N629 Mn613 2.282 . S
N629 C630 1.328 . S
N629 C634 1.318 . S
C630 N629 1.328 . S
C630 C631 1.457 . S
C630 H635 0.929 . S
C631 C630 1.457 . S
C631 C632 1.291 . S
C631 H644 0.931 . S
C632 C631 1.291 . S
C632 C633 1.373 . S
C632 H645 0.929 . S
C633 C632 1.373 . S
C633 C634 1.396 . S
C633 C640 1.403 . S
C634 C624 1.476 . S
C634 N629 1.318 . S
C634 C633 1.396 . S
H635 C630 0.929 . S
O636 Mn612 2.385 . S
O636 C614 1.234 . S
O637 Mn612 2.209 . S
O637 Mn613 2.215 . S
O637 C614 1.283 . S
O638 Mn612 2.094 . S
O638 C616 1.240 . S
O639 Mn613 2.117 . S
O639 C616 1.264 . S
C640 C633 1.403 . S
C640 C641 1.399 . S
C640 H646 0.929 . S
C641 C621 1.449 . S
C641 C640 1.399 . S
C641 H647 0.930 . S
H642 C622 0.931 . S
H643 C623 0.930 . S
H644 C631 0.931 . S
H645 C632 0.929 . S
H646 C640 0.929 . S
H647 C641 0.930 . S
Mn648 O653 2.095 . S
Mn648 O663 2.162 . S
Mn648 O664 2.297 . S
Mn648 O672 2.385 . S
Mn648 O673 2.209 . S
Mn648 O674 2.094 . S
Mn649 O654 2.121 . S
Mn649 N656 2.257 . S
Mn649 N665 2.282 . S
Mn649 O673 2.215 . S
Mn649 O675 2.117 . S
C650 O672 1.234 . S
C650 O673 1.283 . S
C651 O663 1.281 . S
C651 O664 1.236 . S
C652 O674 1.240 . S
C652 O675 1.264 . S
O653 Mn648 2.095 . S
O653 C662 1.250 . S
O654 Mn649 2.121 . S
O654 C662 1.258 . S
C655 N656 1.326 . S
C655 C659 1.460 . S
C655 H661 0.929 . S
N656 Mn649 2.257 . S
N656 C655 1.326 . S
N656 C660 1.362 . S
C657 C658 1.258 . S
C657 C660 1.431 . S
C657 C677 1.449 . S
C658 C657 1.258 . S
C658 C659 1.477 . S
C658 H678 0.931 . S
C659 C655 1.460 . S
C659 C658 1.477 . S
C659 H679 0.930 . S
C660 N656 1.362 . S
C660 C657 1.431 . S
C660 C670 1.476 . S
H661 C655 0.929 . S
C662 O653 1.250 . S
C662 O654 1.258 . S
O663 Mn648 2.162 . S
O663 C651 1.281 . S
O664 Mn648 2.297 . S
O664 C651 1.236 . S
N665 Mn649 2.282 . S
N665 C666 1.328 . S
N665 C670 1.318 . S
C666 N665 1.328 . S
C666 C667 1.457 . S
C666 H671 0.929 . S
C667 C666 1.457 . S
C667 C668 1.291 . S
C667 H680 0.931 . S
C668 C667 1.291 . S
C668 C669 1.373 . S
C668 H681 0.929 . S
C669 C668 1.373 . S
C669 C670 1.396 . S
C669 C676 1.403 . S
C670 C660 1.476 . S
C670 N665 1.318 . S
C670 C669 1.396 . S
H671 C666 0.929 . S
O672 Mn648 2.385 . S
O672 C650 1.234 . S
O673 Mn648 2.209 . S
O673 Mn649 2.215 . S
O673 C650 1.283 . S
O674 Mn648 2.094 . S
O674 C652 1.240 . S
O675 Mn649 2.117 . S
O675 C652 1.264 . S
C676 C669 1.403 . S
C676 C677 1.399 . S
C676 H682 0.929 . S
C677 C657 1.449 . S
C677 C676 1.399 . S
C677 H683 0.930 . S
H678 C658 0.931 . S
H679 C659 0.930 . S
H680 C667 0.931 . S
H681 C668 0.929 . S
H682 C676 0.929 . S
H683 C677 0.930 . S
Mn684 O689 2.095 1_545 S
Mn684 O699 2.162 1_545 S
Mn684 O700 2.297 . S
Mn684 O708 2.385 . S
Mn684 O709 2.209 . S
Mn684 O710 2.094 . S
Mn685 O690 2.121 1_545 S
Mn685 N692 2.257 . S
Mn685 N701 2.282 . S
Mn685 O709 2.215 . S
Mn685 O711 2.117 . S
C686 O708 1.234 . S
C686 O709 1.283 . S
C687 O699 1.281 . S
C687 O700 1.236 1_565 S
C688 O710 1.240 . S
C688 O711 1.264 . S
O689 Mn684 2.095 1_565 S
O689 C698 1.250 . S
O690 Mn685 2.121 1_565 S
O690 C698 1.258 . S
C691 N692 1.326 . S
C691 C695 1.460 . S
C691 H697 0.929 1_545 S
N692 Mn685 2.257 . S
N692 C691 1.326 . S
N692 C696 1.362 . S
C693 C694 1.258 . S
C693 C696 1.431 . S
C693 C713 1.449 . S
C694 C693 1.258 . S
C694 C695 1.477 . S
C694 H714 0.931 . S
C695 C691 1.460 . S
C695 C694 1.477 . S
C695 H715 0.930 . S
C696 N692 1.362 . S
C696 C693 1.431 . S
C696 C706 1.476 . S
H697 C691 0.929 1_565 S
C698 O689 1.250 . S
C698 O690 1.258 . S
O699 Mn684 2.162 1_565 S
O699 C687 1.281 . S
O700 Mn684 2.297 . S
O700 C687 1.236 1_545 S
N701 Mn685 2.282 . S
N701 C702 1.328 . S
N701 C706 1.318 . S
C702 N701 1.328 . S
C702 C703 1.457 . S
C702 H707 0.929 . S
C703 C702 1.457 . S
C703 C704 1.291 . S
C703 H716 0.931 . S
C704 C703 1.291 . S
C704 C705 1.373 . S
C704 H717 0.929 . S
C705 C704 1.373 . S
C705 C706 1.396 . S
C705 C712 1.403 . S
C706 C696 1.476 . S
C706 N701 1.318 . S
C706 C705 1.396 . S
H707 C702 0.929 . S
O708 Mn684 2.385 . S
O708 C686 1.234 . S
O709 Mn684 2.209 . S
O709 Mn685 2.215 . S
O709 C686 1.283 . S
O710 Mn684 2.094 . S
O710 C688 1.240 . S
O711 Mn685 2.117 . S
O711 C688 1.264 . S
C712 C705 1.403 . S
C712 C713 1.399 . S
C712 H718 0.929 . S
C713 C693 1.449 . S
C713 C712 1.399 . S
C713 H719 0.930 . S
H714 C694 0.931 . S
H715 C695 0.930 . S
H716 C703 0.931 . S
H717 C704 0.929 . S
H718 C712 0.929 . S
H719 C713 0.930 . S
Mn720 O725 2.095 1_554 S
Mn720 O735 2.162 . S
Mn720 O736 2.297 . S
Mn720 O744 2.385 . S
Mn720 O745 2.209 1_554 S
Mn720 O746 2.094 1_554 S
Mn721 O726 2.121 . S
Mn721 N728 2.257 . S
Mn721 N737 2.282 . S
Mn721 O745 2.215 . S
Mn721 O747 2.117 . S
C722 O744 1.234 1_556 S
C722 O745 1.283 . S
C723 O735 1.281 . S
C723 O736 1.236 . S
C724 O746 1.240 . S
C724 O747 1.264 . S
O725 Mn720 2.095 1_556 S
O725 C734 1.250 . S
O726 Mn721 2.121 . S
O726 C734 1.258 . S
C727 N728 1.326 . S
C727 C731 1.460 . S
C727 H733 0.929 . S
N728 Mn721 2.257 . S
N728 C727 1.326 . S
N728 C732 1.362 . S
C729 C730 1.258 . S
C729 C732 1.431 . S
C729 C749 1.449 . S
C730 C729 1.258 . S
C730 C731 1.477 . S
C730 H750 0.931 . S
C731 C727 1.460 . S
C731 C730 1.477 . S
C731 H751 0.930 . S
C732 N728 1.362 . S
C732 C729 1.431 . S
C732 C742 1.476 . S
H733 C727 0.929 . S
C734 O725 1.250 . S
C734 O726 1.258 . S
O735 Mn720 2.162 . S
O735 C723 1.281 . S
O736 Mn720 2.297 . S
O736 C723 1.236 . S
N737 Mn721 2.282 . S
N737 C738 1.328 . S
N737 C742 1.318 . S
C738 N737 1.328 . S
C738 C739 1.457 . S
C738 H743 0.929 . S
C739 C738 1.457 . S
C739 C740 1.291 . S
C739 H752 0.931 . S
C740 C739 1.291 . S
C740 C741 1.373 . S
C740 H753 0.929 . S
C741 C740 1.373 . S
C741 C742 1.396 . S
C741 C748 1.403 . S
C742 C732 1.476 . S
C742 N737 1.318 . S
C742 C741 1.396 . S
H743 C738 0.929 . S
O744 Mn720 2.385 . S
O744 C722 1.234 1_554 S
O745 Mn720 2.209 1_556 S
O745 Mn721 2.215 . S
O745 C722 1.283 . S
O746 Mn720 2.094 1_556 S
O746 C724 1.240 . S
O747 Mn721 2.117 . S
O747 C724 1.264 . S
C748 C741 1.403 . S
C748 C749 1.399 . S
C748 H754 0.929 . S
C749 C729 1.449 . S
C749 C748 1.399 . S
C749 H755 0.930 . S
H750 C730 0.931 . S
H751 C731 0.930 . S
H752 C739 0.931 . S
H753 C740 0.929 . S
H754 C748 0.929 . S
H755 C749 0.930 . S
Mn756 O761 2.095 . S
Mn756 O771 2.162 . S
Mn756 O772 2.297 . S
Mn756 O780 2.385 . S
Mn756 O781 2.209 . S
Mn756 O782 2.094 . S
Mn757 O762 2.121 . S
Mn757 N764 2.257 . S
Mn757 N773 2.282 . S
Mn757 O781 2.215 . S
Mn757 O783 2.117 . S
C758 O780 1.234 . S
C758 O781 1.283 . S
C759 O771 1.281 . S
C759 O772 1.236 . S
C760 O782 1.240 . S
C760 O783 1.264 . S
O761 Mn756 2.095 . S
O761 C770 1.250 . S
O762 Mn757 2.121 . S
O762 C770 1.258 . S
C763 N764 1.326 . S
C763 C767 1.460 . S
C763 H769 0.929 . S
N764 Mn757 2.257 . S
N764 C763 1.326 . S
N764 C768 1.362 . S
C765 C766 1.258 . S
C765 C768 1.431 . S
C765 C785 1.449 . S
C766 C765 1.258 . S
C766 C767 1.477 . S
C766 H786 0.931 . S
C767 C763 1.460 . S
C767 C766 1.477 . S
C767 H787 0.930 . S
C768 N764 1.362 . S
C768 C765 1.431 . S
C768 C778 1.476 . S
H769 C763 0.929 . S
C770 O761 1.250 . S
C770 O762 1.258 . S
O771 Mn756 2.162 . S
O771 C759 1.281 . S
O772 Mn756 2.297 . S
O772 C759 1.236 . S
N773 Mn757 2.282 . S
N773 C774 1.328 . S
N773 C778 1.318 . S
C774 N773 1.328 . S
C774 C775 1.457 . S
C774 H779 0.929 . S
C775 C774 1.457 . S
C775 C776 1.291 . S
C775 H788 0.931 . S
C776 C775 1.291 . S
C776 C777 1.373 . S
C776 H789 0.929 . S
C777 C776 1.373 . S
C777 C778 1.396 . S
C777 C784 1.403 . S
C778 C768 1.476 . S
C778 N773 1.318 . S
C778 C777 1.396 . S
H779 C774 0.929 . S
O780 Mn756 2.385 . S
O780 C758 1.234 . S
O781 Mn756 2.209 . S
O781 Mn757 2.215 . S
O781 C758 1.283 . S
O782 Mn756 2.094 . S
O782 C760 1.240 . S
O783 Mn757 2.117 . S
O783 C760 1.264 . S
C784 C777 1.403 . S
C784 C785 1.399 . S
C784 H790 0.929 . S
C785 C765 1.449 . S
C785 C784 1.399 . S
C785 H791 0.930 . S
H786 C766 0.931 . S
H787 C767 0.930 . S
H788 C775 0.931 . S
H789 C776 0.929 . S
H790 C784 0.929 . S
H791 C785 0.930 . S
Mn792 O797 2.095 . S
Mn792 O807 2.162 . S
Mn792 O808 2.297 . S
Mn792 O816 2.385 . S
Mn792 O817 2.209 . S
Mn792 O818 2.094 . S
Mn793 O798 2.121 . S
Mn793 N800 2.257 . S
Mn793 N809 2.282 . S
Mn793 O817 2.215 . S
Mn793 O819 2.117 . S
C794 O816 1.234 . S
C794 O817 1.283 . S
C795 O807 1.281 . S
C795 O808 1.236 . S
C796 O818 1.240 . S
C796 O819 1.264 . S
O797 Mn792 2.095 . S
O797 C806 1.250 . S
O798 Mn793 2.121 . S
O798 C806 1.258 . S
C799 N800 1.326 . S
C799 C803 1.460 . S
C799 H805 0.929 . S
N800 Mn793 2.257 . S
N800 C799 1.326 . S
N800 C804 1.362 . S
C801 C802 1.258 . S
C801 C804 1.431 . S
C801 C821 1.449 . S
C802 C801 1.258 . S
C802 C803 1.477 . S
C802 H822 0.931 . S
C803 C799 1.460 . S
C803 C802 1.477 . S
C803 H823 0.930 . S
C804 N800 1.362 . S
C804 C801 1.431 . S
C804 C814 1.476 . S
H805 C799 0.929 . S
C806 O797 1.250 . S
C806 O798 1.258 . S
O807 Mn792 2.162 . S
O807 C795 1.281 . S
O808 Mn792 2.297 . S
O808 C795 1.236 . S
N809 Mn793 2.282 . S
N809 C810 1.328 . S
N809 C814 1.318 . S
C810 N809 1.328 . S
C810 C811 1.457 . S
C810 H815 0.929 . S
C811 C810 1.457 . S
C811 C812 1.291 . S
C811 H824 0.931 . S
C812 C811 1.291 . S
C812 C813 1.373 . S
C812 H825 0.929 . S
C813 C812 1.373 . S
C813 C814 1.396 . S
C813 C820 1.403 . S
C814 C804 1.476 . S
C814 N809 1.318 . S
C814 C813 1.396 . S
H815 C810 0.929 . S
O816 Mn792 2.385 . S
O816 C794 1.234 . S
O817 Mn792 2.209 . S
O817 Mn793 2.215 . S
O817 C794 1.283 . S
O818 Mn792 2.094 . S
O818 C796 1.240 . S
O819 Mn793 2.117 . S
O819 C796 1.264 . S
C820 C813 1.403 . S
C820 C821 1.399 . S
C820 H826 0.929 . S
C821 C801 1.449 . S
C821 C820 1.399 . S
C821 H827 0.930 . S
H822 C802 0.931 . S
H823 C803 0.930 . S
H824 C811 0.931 . S
H825 C812 0.929 . S
H826 C820 0.929 . S
H827 C821 0.930 . S
Mn828 O833 2.095 . S
Mn828 O843 2.162 . S
Mn828 O844 2.297 . S
Mn828 O852 2.385 . S
Mn828 O853 2.209 . S
Mn828 O854 2.094 . S
Mn829 O834 2.121 . S
Mn829 N836 2.257 . S
Mn829 N845 2.282 . S
Mn829 O853 2.215 . S
Mn829 O855 2.117 . S
C830 O852 1.234 . S
C830 O853 1.283 . S
C831 O843 1.281 . S
C831 O844 1.236 . S
C832 O854 1.240 . S
C832 O855 1.264 . S
O833 Mn828 2.095 . S
O833 C842 1.250 . S
O834 Mn829 2.121 . S
O834 C842 1.258 . S
C835 N836 1.326 . S
C835 C839 1.460 . S
C835 H841 0.929 . S
N836 Mn829 2.257 . S
N836 C835 1.326 . S
N836 C840 1.362 . S
C837 C838 1.258 . S
C837 C840 1.431 . S
C837 C857 1.449 . S
C838 C837 1.258 . S
C838 C839 1.477 . S
C838 H858 0.931 . S
C839 C835 1.460 . S
C839 C838 1.477 . S
C839 H859 0.930 . S
C840 N836 1.362 . S
C840 C837 1.431 . S
C840 C850 1.476 . S
H841 C835 0.929 . S
C842 O833 1.250 . S
C842 O834 1.258 . S
O843 Mn828 2.162 . S
O843 C831 1.281 . S
O844 Mn828 2.297 . S
O844 C831 1.236 . S
N845 Mn829 2.282 . S
N845 C846 1.328 . S
N845 C850 1.318 . S
C846 N845 1.328 . S
C846 C847 1.457 . S
C846 H851 0.929 . S
C847 C846 1.457 . S
C847 C848 1.291 . S
C847 H860 0.931 . S
C848 C847 1.291 . S
C848 C849 1.373 . S
C848 H861 0.929 . S
C849 C848 1.373 . S
C849 C850 1.396 . S
C849 C856 1.403 . S
C850 C840 1.476 . S
C850 N845 1.318 . S
C850 C849 1.396 . S
H851 C846 0.929 . S
O852 Mn828 2.385 . S
O852 C830 1.234 . S
O853 Mn828 2.209 . S
O853 Mn829 2.215 . S
O853 C830 1.283 . S
O854 Mn828 2.094 . S
O854 C832 1.240 . S
O855 Mn829 2.117 . S
O855 C832 1.264 . S
C856 C849 1.403 . S
C856 C857 1.399 . S
C856 H862 0.929 . S
C857 C837 1.449 . S
C857 C856 1.399 . S
C857 H863 0.930 . S
H858 C838 0.931 . S
H859 C839 0.930 . S
H860 C847 0.931 . S
H861 C848 0.929 . S
H862 C856 0.929 . S
H863 C857 0.930 . S
Zn864 O870 1.969 . S
Zn864 O871 1.965 . S
Zn864 O875 2.024 . S
Zn864 O880 1.969 . S
Zn865 O872 1.969 1_654 S
Zn865 O878 1.969 1_554 S
Zn865 O879 1.965 . S
Zn865 O881 2.024 1_655 S
C866 O867 1.229 . S
C866 O875 1.058 . S
O867 C866 1.229 . S
C868 O869 1.229 1_454 S
C868 O881 1.058 . S
O869 C868 1.229 1_656 S
O870 Zn864 1.969 . S
O870 C873 1.267 . S
O871 Zn864 1.965 . S
O871 C882 1.260 1_554 S
O872 Zn865 1.969 1_456 S
O872 C882 1.258 1_545 S
C873 O870 1.267 . S
C873 O874 1.228 . S
O874 C873 1.228 . S
O875 Zn864 2.024 . S
O875 C866 1.058 . S
C876 O877 1.228 . S
C876 O878 1.267 1_554 S
O877 C876 1.228 . S
O878 Zn865 1.969 1_556 S
O878 C876 1.267 1_556 S
O879 Zn865 1.965 . S
O879 C883 1.260 1_655 S
O880 Zn864 1.969 . S
O880 C883 1.258 1_565 S
O881 Zn865 2.024 1_455 S
O881 C868 1.058 . S
C882 O871 1.260 1_556 S
C882 O872 1.258 1_565 S
C883 O879 1.260 1_455 S
C883 O880 1.258 1_545 S
Zn884 O890 1.969 . S
Zn884 O891 1.965 . S
Zn884 O895 2.024 . S
Zn884 O900 1.969 . S
Zn885 O892 1.969 . S
Zn885 O898 1.969 . S
Zn885 O899 1.965 . S
Zn885 O901 2.024 . S
C886 O887 1.229 . S
C886 O895 1.058 . S
O887 C886 1.229 . S
C888 O889 1.229 . S
C888 O901 1.058 . S
O889 C888 1.229 . S
O890 Zn884 1.969 . S
O890 C893 1.267 . S
O891 Zn884 1.965 . S
O891 C902 1.260 . S
O892 Zn885 1.969 . S
O892 C902 1.258 . S
C893 O890 1.267 . S
C893 O894 1.228 . S
O894 C893 1.228 . S
O895 Zn884 2.024 . S
O895 C886 1.058 . S
C896 O897 1.228 . S
C896 O898 1.267 . S
O897 C896 1.228 . S
O898 Zn885 1.969 . S
O898 C896 1.267 . S
O899 Zn885 1.965 . S
O899 C903 1.260 . S
O900 Zn884 1.969 . S
O900 C903 1.258 . S
O901 Zn885 2.024 . S
O901 C888 1.058 . S
C902 O891 1.260 . S
C902 O892 1.258 . S
C903 O899 1.260 . S
C903 O900 1.258 . S
Zn904 O910 1.969 . S
Zn904 O911 1.965 . S
Zn904 O915 2.024 . S
Zn904 O920 1.969 . S
Zn905 O912 1.969 1_565 S
Zn905 O918 1.969 . S
Zn905 O919 1.965 1_565 S
Zn905 O921 2.024 . S
C906 O907 1.229 . S
C906 O915 1.058 . S
O907 C906 1.229 . S
C908 O909 1.229 . S
C908 O921 1.058 . S
O909 C908 1.229 . S
O910 Zn904 1.969 . S
O910 C913 1.267 . S
O911 Zn904 1.965 . S
O911 C922 1.260 . S
O912 Zn905 1.969 1_545 S
O912 C922 1.258 . S
C913 O910 1.267 . S
C913 O914 1.228 . S
O914 C913 1.228 . S
O915 Zn904 2.024 . S
O915 C906 1.058 . S
C916 O917 1.228 . S
C916 O918 1.267 . S
O917 C916 1.228 . S
O918 Zn905 1.969 . S
O918 C916 1.267 . S
O919 Zn905 1.965 1_545 S
O919 C923 1.260 . S
O920 Zn904 1.969 . S
O920 C923 1.258 . S
O921 Zn905 2.024 . S
O921 C908 1.058 . S
C922 O911 1.260 . S
C922 O912 1.258 . S
C923 O919 1.260 . S
C923 O920 1.258 . S
Zn924 O930 1.969 . S
Zn924 O931 1.965 . S
Zn924 O935 2.024 . S
Zn924 O940 1.969 . S
Zn925 O932 1.969 . S
Zn925 O938 1.969 . S
Zn925 O939 1.965 . S
Zn925 O941 2.024 . S
C926 O927 1.229 . S
C926 O935 1.058 . S
O927 C926 1.229 . S
C928 O929 1.229 . S
C928 O941 1.058 . S
O929 C928 1.229 . S
O930 Zn924 1.969 . S
O930 C933 1.267 . S
O931 Zn924 1.965 . S
O931 C942 1.260 . S
O932 Zn925 1.969 . S
O932 C942 1.258 . S
C933 O930 1.267 . S
C933 O934 1.228 . S
O934 C933 1.228 . S
O935 Zn924 2.024 . S
O935 C926 1.058 . S
C936 O937 1.228 . S
C936 O938 1.267 . S
O937 C936 1.228 . S
O938 Zn925 1.969 . S
O938 C936 1.267 . S
O939 Zn925 1.965 . S
O939 C943 1.260 . S
O940 Zn924 1.969 . S
O940 C943 1.258 . S
O941 Zn925 2.024 . S
O941 C928 1.058 . S
C942 O931 1.260 . S
C942 O932 1.258 . S
C943 O939 1.260 . S
C943 O940 1.258 . S
Zn944 O950 1.969 . S
Zn944 O951 1.965 1_455 S
Zn944 O955 2.024 1_565 S
Zn944 O960 1.969 1_565 S
Zn945 O952 1.969 1_455 S
Zn945 O958 1.969 1_455 S
Zn945 O959 1.965 . S
Zn945 O961 2.024 . S
C946 O947 1.229 1_545 S
C946 O955 1.058 . S
O947 C946 1.229 1_565 S
C948 O949 1.229 . S
C948 O961 1.058 1_655 S
O949 C948 1.229 . S
O950 Zn944 1.969 . S
O950 C953 1.267 . S
O951 Zn944 1.965 1_655 S
O951 C962 1.260 . S
O952 Zn945 1.969 1_655 S
O952 C962 1.258 1_545 S
C953 O950 1.267 . S
C953 O954 1.228 . S
O954 C953 1.228 . S
O955 Zn944 2.024 1_545 S
O955 C946 1.058 . S
C956 O957 1.228 . S
C956 O958 1.267 1_455 S
O957 C956 1.228 . S
O958 Zn945 1.969 1_655 S
O958 C956 1.267 1_655 S
O959 Zn945 1.965 . S
O959 C963 1.260 . S
O960 Zn944 1.969 1_545 S
O960 C963 1.258 . S
O961 Zn945 2.024 . S
O961 C948 1.058 1_455 S
C962 O951 1.260 . S
C962 O952 1.258 1_565 S
C963 O959 1.260 . S
C963 O960 1.258 . S
Zn964 O970 1.969 . S
Zn964 O971 1.965 . S
Zn964 O975 2.024 . S
Zn964 O980 1.969 . S
Zn965 O972 1.969 . S
Zn965 O978 1.969 . S
Zn965 O979 1.965 . S
Zn965 O981 2.024 . S
C966 O967 1.229 . S
C966 O975 1.058 . S
O967 C966 1.229 . S
C968 O969 1.229 . S
C968 O981 1.058 . S
O969 C968 1.229 . S
O970 Zn964 1.969 . S
O970 C973 1.267 . S
O971 Zn964 1.965 . S
O971 C982 1.260 . S
O972 Zn965 1.969 . S
O972 C982 1.258 . S
C973 O970 1.267 . S
C973 O974 1.228 . S
O974 C973 1.228 . S
O975 Zn964 2.024 . S
O975 C966 1.058 . S
C976 O977 1.228 . S
C976 O978 1.267 . S
O977 C976 1.228 . S
O978 Zn965 1.969 . S
O978 C976 1.267 . S
O979 Zn965 1.965 . S
O979 C983 1.260 . S
O980 Zn964 1.969 . S
O980 C983 1.258 . S
O981 Zn965 2.024 . S
O981 C968 1.058 . S
C982 O971 1.260 . S
C982 O972 1.258 . S
C983 O979 1.260 . S
C983 O980 1.258 . S
Zn984 O990 1.969 . S
Zn984 O991 1.965 1_545 S
Zn984 O995 2.024 1_556 S
Zn984 O1000 1.969 1_556 S
Zn985 O992 1.969 . S
Zn985 O998 1.969 . S
Zn985 O999 1.965 1_565 S
Zn985 O1001 2.015 1_565 S
C986 O987 1.229 . S
C986 O995 1.058 . S
O987 C986 1.229 . S
C988 O989 1.229 . S
C988 O1001 1.032 1_565 S
O989 C988 1.229 . S
O990 Zn984 1.969 . S
O990 C993 1.267 . S
O991 Zn984 1.965 1_565 S
O991 C1002 1.260 1_556 S
O992 Zn985 1.969 . S
O992 C1002 1.258 . S
C993 O990 1.267 . S
C993 O994 1.228 . S
O994 C993 1.228 . S
O995 Zn984 2.024 1_554 S
O995 C986 1.058 . S
C996 O997 1.228 . S
C996 O998 1.267 1_545 S
O997 C996 1.228 . S
O998 Zn985 1.969 . S
O998 C996 1.267 1_565 S
O999 Zn985 1.965 1_545 S
O999 C1003 1.260 . S
O1000 Zn984 1.969 1_554 S
O1000 C1003 1.258 . S
O1001 Zn985 2.015 1_545 S
O1001 C988 1.032 1_545 S
C1002 O991 1.260 1_554 S
C1002 O992 1.258 . S
C1003 O999 1.260 . S
C1003 O1000 1.258 . S
Zn1004 O1010 1.969 . S
Zn1004 O1011 1.965 . S
Zn1004 O1015 2.024 . S
Zn1004 O1020 1.969 . S
Zn1005 O1012 1.969 . S
Zn1005 O1018 1.969 . S
Zn1005 O1019 1.965 . S
Zn1005 O1021 2.024 . S
C1006 O1007 1.229 . S
C1006 O1015 1.058 . S
O1007 C1006 1.229 . S
C1008 O1009 1.229 . S
C1008 O1021 1.058 . S
O1009 C1008 1.229 . S
O1010 Zn1004 1.969 . S
O1010 C1013 1.267 . S
O1011 Zn1004 1.965 . S
O1011 C1022 1.260 . S
O1012 Zn1005 1.969 . S
O1012 C1022 1.258 . S
C1013 O1010 1.267 . S
C1013 O1014 1.228 . S
O1014 C1013 1.228 . S
O1015 Zn1004 2.024 . S
O1015 C1006 1.058 . S
C1016 O1017 1.228 . S
C1016 O1018 1.267 . S
O1017 C1016 1.228 . S
O1018 Zn1005 1.969 . S
O1018 C1016 1.267 . S
O1019 Zn1005 1.965 . S
O1019 C1023 1.260 . S
O1020 Zn1004 1.969 . S
O1020 C1023 1.258 . S
O1021 Zn1005 2.024 . S
O1021 C1008 1.058 . S
C1022 O1011 1.260 . S
C1022 O1012 1.258 . S
C1023 O1019 1.260 . S
C1023 O1020 1.258 . S
Zn1024 O1030 1.969 . S
Zn1024 O1031 1.965 . S
Zn1024 O1035 2.024 . S
Zn1024 O1040 1.969 . S
Zn1025 O1032 1.969 1_556 S
Zn1025 O1038 1.964 1_556 S
Zn1025 O1039 1.965 1_556 S
Zn1025 O1041 2.024 . S
C1026 O1027 1.229 . S
C1026 O1035 1.058 . S
O1027 C1026 1.229 . S
C1028 O1029 1.229 . S
C1028 O1041 1.058 . S
O1029 C1028 1.229 . S
O1030 Zn1024 1.969 . S
O1030 C1033 1.267 . S
O1031 Zn1024 1.965 . S
O1031 C1042 1.260 . S
O1032 Zn1025 1.969 1_554 S
O1032 C1042 1.258 . S
C1033 O1030 1.267 . S
C1033 O1034 1.228 . S
O1034 C1033 1.228 . S
O1035 Zn1024 2.024 . S
O1035 C1026 1.058 . S
C1036 O1037 1.228 . S
C1036 O1038 1.246 1_556 S
O1037 C1036 1.228 . S
O1038 Zn1025 1.964 1_554 S
O1038 C1036 1.246 1_554 S
O1039 Zn1025 1.965 1_554 S
O1039 C1043 1.260 . S
O1040 Zn1024 1.969 . S
O1040 C1043 1.258 . S
O1041 Zn1025 2.024 . S
O1041 C1028 1.058 . S
C1042 O1031 1.260 . S
C1042 O1032 1.258 . S
C1043 O1039 1.260 . S
C1043 O1040 1.258 . S
Zn1044 O1050 1.969 . S
Zn1044 O1051 1.965 . S
Zn1044 O1055 2.024 . S
Zn1044 O1060 1.969 . S
Zn1045 O1052 1.969 . S
Zn1045 O1058 1.969 . S
Zn1045 O1059 1.965 . S
Zn1045 O1061 2.024 . S
C1046 O1047 1.229 . S
C1046 O1055 1.058 . S
O1047 C1046 1.229 . S
C1048 O1049 1.229 . S
C1048 O1061 1.058 . S
O1049 C1048 1.229 . S
O1050 Zn1044 1.969 . S
O1050 C1053 1.267 . S
O1051 Zn1044 1.965 . S
O1051 C1062 1.260 . S
O1052 Zn1045 1.969 . S
O1052 C1062 1.258 . S
C1053 O1050 1.267 . S
C1053 O1054 1.228 . S
O1054 C1053 1.228 . S
O1055 Zn1044 2.024 . S
O1055 C1046 1.058 . S
C1056 O1057 1.228 . S
C1056 O1058 1.267 . S
O1057 C1056 1.228 . S
O1058 Zn1045 1.969 . S
O1058 C1056 1.267 . S
O1059 Zn1045 1.965 . S
O1059 C1063 1.260 . S
O1060 Zn1044 1.969 . S
O1060 C1063 1.258 . S
O1061 Zn1045 2.024 . S
O1061 C1048 1.058 . S
C1062 O1051 1.260 . S
C1062 O1052 1.258 . S
C1063 O1059 1.260 . S
C1063 O1060 1.258 . S
Zn1064 O1070 1.969 . S
Zn1064 O1071 1.965 . S
Zn1064 O1075 2.024 . S
Zn1064 O1080 1.969 . S
Zn1065 O1072 1.969 1_655 S
Zn1065 O1078 1.969 . S
Zn1065 O1079 1.965 1_655 S
Zn1065 O1081 2.024 . S
C1066 O1067 1.229 . S
C1066 O1075 1.058 . S
O1067 C1066 1.229 . S
C1068 O1069 1.229 . S
C1068 O1081 1.058 . S
O1069 C1068 1.229 . S
O1070 Zn1064 1.969 . S
O1070 C1073 1.267 . S
O1071 Zn1064 1.965 . S
O1071 C1082 1.260 . S
O1072 Zn1065 1.969 1_455 S
O1072 C1082 1.258 . S
C1073 O1070 1.267 . S
C1073 O1074 1.228 . S
O1074 C1073 1.228 . S
O1075 Zn1064 2.024 . S
O1075 C1066 1.058 . S
C1076 O1077 1.228 . S
C1076 O1078 1.267 . S
O1077 C1076 1.228 . S
O1078 Zn1065 1.969 . S
O1078 C1076 1.267 . S
O1079 Zn1065 1.965 1_455 S
O1079 C1083 1.260 . S
O1080 Zn1064 1.969 . S
O1080 C1083 1.258 . S
O1081 Zn1065 2.024 . S
O1081 C1068 1.058 . S
C1082 O1071 1.260 . S
C1082 O1072 1.258 . S
C1083 O1079 1.260 . S
C1083 O1080 1.258 . S
Zn1084 O1090 1.969 . S
Zn1084 O1091 1.965 . S
Zn1084 O1095 2.024 . S
Zn1084 O1100 1.969 . S
Zn1085 O1092 1.969 . S
Zn1085 O1098 1.969 . S
Zn1085 O1099 1.965 . S
Zn1085 O1101 2.024 . S
C1086 O1087 1.229 . S
C1086 O1095 1.058 . S
O1087 C1086 1.229 . S
C1088 O1089 1.229 . S
C1088 O1101 1.058 . S
O1089 C1088 1.229 . S
O1090 Zn1084 1.969 . S
O1090 C1093 1.267 . S
O1091 Zn1084 1.965 . S
O1091 C1102 1.260 . S
O1092 Zn1085 1.969 . S
O1092 C1102 1.258 . S
C1093 O1090 1.267 . S
C1093 O1094 1.228 . S
O1094 C1093 1.228 . S
O1095 Zn1084 2.024 . S
O1095 C1086 1.058 . S
C1096 O1097 1.228 . S
C1096 O1098 1.267 . S
O1097 C1096 1.228 . S
O1098 Zn1085 1.969 . S
O1098 C1096 1.267 . S
O1099 Zn1085 1.965 . S
O1099 C1103 1.260 . S
O1100 Zn1084 1.969 . S
O1100 C1103 1.258 . S
O1101 Zn1085 2.024 . S
O1101 C1088 1.058 . S
C1102 O1091 1.260 . S
C1102 O1092 1.258 . S
C1103 O1099 1.260 . S
C1103 O1100 1.258 . S
Zn1104 O1110 1.969 . S
Zn1104 O1111 1.965 . S
Zn1104 O1115 2.024 . S
Zn1104 O1120 1.969 . S
Zn1105 O1112 1.969 . S
Zn1105 O1118 1.969 . S
Zn1105 O1119 1.965 . S
Zn1105 O1121 2.024 . S
C1106 O1107 1.229 . S
C1106 O1115 1.058 . S
O1107 C1106 1.229 . S
C1108 O1109 1.229 . S
C1108 O1121 1.058 . S
O1109 C1108 1.229 . S
O1110 Zn1104 1.969 . S
O1110 C1113 1.267 . S
O1111 Zn1104 1.965 . S
O1111 C1122 1.260 . S
O1112 Zn1105 1.969 . S
O1112 C1122 1.258 . S
C1113 O1110 1.267 . S
C1113 O1114 1.228 . S
O1114 C1113 1.228 . S
O1115 Zn1104 2.024 . S
O1115 C1106 1.058 . S
C1116 O1117 1.228 . S
C1116 O1118 1.267 . S
O1117 C1116 1.228 . S
O1118 Zn1105 1.969 . S
O1118 C1116 1.267 . S
O1119 Zn1105 1.965 . S
O1119 C1123 1.260 . S
O1120 Zn1104 1.969 . S
O1120 C1123 1.258 . S
O1121 Zn1105 2.024 . S
O1121 C1108 1.058 . S
C1122 O1111 1.260 . S
C1122 O1112 1.258 . S
C1123 O1119 1.260 . S
C1123 O1120 1.258 . S
Zn1124 O1130 1.969 . S
Zn1124 O1131 1.965 . S
Zn1124 O1135 2.024 . S
Zn1124 O1140 1.969 . S
Zn1125 O1132 1.969 . S
Zn1125 O1138 1.969 . S
Zn1125 O1139 1.965 . S
Zn1125 O1141 2.024 . S
C1126 O1127 1.229 . S
C1126 O1135 1.058 . S
O1127 C1126 1.229 . S
C1128 O1129 1.229 . S
C1128 O1141 1.058 . S
O1129 C1128 1.229 . S
O1130 Zn1124 1.969 . S
O1130 C1133 1.267 . S
O1131 Zn1124 1.965 . S
O1131 C1142 1.260 . S
O1132 Zn1125 1.969 . S
O1132 C1142 1.258 . S
C1133 O1130 1.267 . S
C1133 O1134 1.228 . S
O1134 C1133 1.228 . S
O1135 Zn1124 2.024 . S
O1135 C1126 1.058 . S
C1136 O1137 1.228 . S
C1136 O1138 1.267 . S
O1137 C1136 1.228 . S
O1138 Zn1125 1.969 . S
O1138 C1136 1.267 . S
O1139 Zn1125 1.965 . S
O1139 C1143 1.260 . S
O1140 Zn1124 1.969 . S
O1140 C1143 1.258 . S
O1141 Zn1125 2.024 . S
O1141 C1128 1.058 . S
C1142 O1131 1.260 . S
C1142 O1132 1.258 . S
C1143 O1139 1.260 . S
C1143 O1140 1.258 . S
Zn1144 O1150 1.969 . S
Zn1144 O1151 1.965 . S
Zn1144 O1155 2.024 . S
Zn1144 O1160 1.969 . S
Zn1145 O1152 1.969 . S
Zn1145 O1158 1.969 . S
Zn1145 O1159 1.965 . S
Zn1145 O1161 2.024 . S
C1146 O1147 1.229 . S
C1146 O1155 1.058 . S
O1147 C1146 1.229 . S
C1148 O1149 1.229 . S
C1148 O1161 1.058 . S
O1149 C1148 1.229 . S
O1150 Zn1144 1.969 . S
O1150 C1153 1.267 . S
O1151 Zn1144 1.965 . S
O1151 C1162 1.260 . S
O1152 Zn1145 1.969 . S
O1152 C1162 1.258 . S
C1153 O1150 1.267 . S
C1153 O1154 1.228 . S
O1154 C1153 1.228 . S
O1155 Zn1144 2.024 . S
O1155 C1146 1.058 . S
C1156 O1157 1.228 . S
C1156 O1158 1.267 . S
O1157 C1156 1.228 . S
O1158 Zn1145 1.969 . S
O1158 C1156 1.267 . S
O1159 Zn1145 1.965 . S
O1159 C1163 1.260 . S
O1160 Zn1144 1.969 . S
O1160 C1163 1.258 . S
O1161 Zn1145 2.024 . S
O1161 C1148 1.058 . S
C1162 O1151 1.260 . S
C1162 O1152 1.258 . S
C1163 O1159 1.260 . S
C1163 O1160 1.258 . S
Zn1164 O1170 1.969 . S
Zn1164 O1171 1.965 . S
Zn1164 O1175 2.024 1_655 S
Zn1164 O1180 1.969 1_655 S
Zn1165 O1172 1.969 1_554 S
Zn1165 O1178 1.973 . S
Zn1165 O1179 1.965 . S
Zn1165 O1181 2.024 . S
C1166 O1167 1.229 . S
C1166 O1175 1.058 . S
O1167 C1166 1.229 . S
C1168 O1169 1.229 . S
C1168 O1181 1.058 1_556 S
O1169 C1168 1.229 . S
O1170 Zn1164 1.969 . S
O1170 C1173 1.267 . S
O1171 Zn1164 1.965 . S
O1171 C1182 1.260 1_654 S
O1172 Zn1165 1.969 1_556 S
O1172 C1182 1.258 . S
C1173 O1170 1.267 . S
C1173 O1174 1.228 . S
O1174 C1173 1.228 . S
O1175 Zn1164 2.024 1_455 S
O1175 C1166 1.058 . S
C1176 O1177 1.228 . S
C1176 O1178 1.273 . S
O1177 C1176 1.228 . S
O1178 Zn1165 1.973 . S
O1178 C1176 1.273 . S
O1179 Zn1165 1.965 . S
O1179 C1183 1.260 . S
O1180 Zn1164 1.969 1_455 S
O1180 C1183 1.258 . S
O1181 Zn1165 2.024 . S
O1181 C1168 1.058 1_554 S
C1182 O1171 1.260 1_456 S
C1182 O1172 1.258 . S
C1183 O1179 1.260 . S
C1183 O1180 1.258 . S
C1184 C1185 1.387 . S
C1184 H1188 0.950 . S
C1184 C1193 1.396 . S
C1185 C1184 1.387 . S
C1185 C1187 1.387 1_655 S
H1186 C1193 0.943 1_554 S
C1187 C1185 1.387 1_455 S
C1187 C1189 1.390 . S
C1187 H1191 0.950 . S
H1188 C1184 0.950 . S
C1189 C1187 1.390 . S
C1189 C1190 1.387 . S
C1189 H1192 0.950 . S
C1190 C1189 1.387 . S
C1190 C1193 1.389 1_455 S
H1191 C1187 0.950 . S
H1192 C1189 0.950 . S
C1193 C1184 1.396 . S
C1193 H1186 0.943 1_556 S
C1193 C1190 1.389 1_655 S
C1194 C1195 1.387 . S
C1194 H1198 0.950 . S
C1194 C1203 1.390 . S
C1195 C1194 1.387 . S
C1195 C1197 1.387 . S
H1196 C1203 0.950 . S
C1197 C1195 1.387 . S
C1197 C1199 1.390 . S
C1197 H1201 0.950 . S
H1198 C1194 0.950 . S
C1199 C1197 1.390 . S
C1199 C1200 1.387 . S
C1199 H1202 0.950 . S
C1200 C1199 1.387 . S
C1200 C1203 1.387 . S
H1201 C1197 0.950 . S
H1202 C1199 0.950 . S
C1203 C1194 1.390 . S
C1203 H1196 0.950 . S
C1203 C1200 1.387 . S
C1204 C1205 1.387 . S
C1204 H1208 0.950 . S
C1204 C1213 1.390 . S
C1205 C1204 1.387 . S
C1205 C1207 1.387 . S
H1206 C1213 0.950 . S
C1207 C1205 1.387 . S
C1207 C1209 1.390 . S
C1207 H1211 0.950 . S
H1208 C1204 0.950 . S
C1209 C1207 1.390 . S
C1209 C1210 1.387 . S
C1209 H1212 0.950 . S
C1210 C1209 1.387 . S
C1210 C1213 1.387 . S
H1211 C1207 0.950 . S
H1212 C1209 0.950 . S
C1213 C1204 1.390 . S
C1213 H1206 0.950 . S
C1213 C1210 1.387 . S
C1214 C1215 1.387 . S
C1214 H1218 0.950 . S
C1214 C1223 1.390 . S
C1215 C1214 1.387 . S
C1215 C1217 1.387 . S
H1216 C1223 0.950 . S
C1217 C1215 1.387 . S
C1217 C1219 1.390 . S
C1217 H1221 0.950 . S
H1218 C1214 0.950 . S
C1219 C1217 1.390 . S
C1219 C1220 1.387 . S
C1219 H1222 0.950 . S
C1220 C1219 1.387 . S
C1220 C1223 1.387 . S
H1221 C1217 0.950 . S
H1222 C1219 0.950 . S
C1223 C1214 1.390 . S
C1223 H1216 0.950 . S
C1223 C1220 1.387 . S
C1224 C1225 1.387 1_655 S
C1224 H1228 0.950 . S
C1224 C1233 1.390 1_655 S
C1225 C1224 1.387 1_455 S
C1225 C1227 1.387 . S
H1226 C1233 0.950 1_655 S
C1227 C1225 1.387 . S
C1227 C1229 1.390 . S
C1227 H1231 0.950 . S
H1228 C1224 0.950 . S
C1229 C1227 1.390 . S
C1229 C1230 1.387 . S
C1229 H1232 0.950 . S
C1230 C1229 1.387 . S
C1230 C1233 1.387 . S
H1231 C1227 0.950 . S
H1232 C1229 0.950 . S
C1233 C1224 1.390 1_455 S
C1233 H1226 0.950 1_455 S
C1233 C1230 1.387 . S
C1234 C1235 1.387 . S
C1234 H1238 0.950 . S
C1234 C1243 1.390 . S
C1235 C1234 1.387 . S
C1235 C1237 1.387 . S
H1236 C1243 0.950 . S
C1237 C1235 1.387 . S
C1237 C1239 1.390 . S
C1237 H1241 0.950 . S
H1238 C1234 0.950 . S
C1239 C1237 1.390 . S
C1239 C1240 1.387 . S
C1239 H1242 0.950 . S
C1240 C1239 1.387 . S
C1240 C1243 1.387 . S
H1241 C1237 0.950 . S
H1242 C1239 0.950 . S
C1243 C1234 1.390 . S
C1243 H1236 0.950 . S
C1243 C1240 1.387 . S
C1244 C1245 1.387 . S
C1244 H1248 0.950 . S
C1244 C1253 1.390 . S
C1245 C1244 1.387 . S
C1245 C1247 1.387 . S
H1246 C1253 0.950 . S
C1247 C1245 1.387 . S
C1247 C1249 1.390 . S
C1247 H1251 0.950 . S
H1248 C1244 0.950 . S
C1249 C1247 1.390 . S
C1249 C1250 1.387 . S
C1249 H1252 0.950 . S
C1250 C1249 1.387 . S
C1250 C1253 1.387 . S
H1251 C1247 0.950 . S
H1252 C1249 0.950 . S
C1253 C1244 1.390 . S
C1253 H1246 0.950 . S
C1253 C1250 1.387 . S
C1254 C1255 1.387 . S
C1254 H1258 0.950 . S
C1254 C1263 1.390 . S
C1255 C1254 1.387 . S
C1255 C1257 1.387 . S
H1256 C1263 0.950 . S
C1257 C1255 1.387 . S
C1257 C1259 1.390 . S
C1257 H1261 0.950 . S
H1258 C1254 0.950 . S
C1259 C1257 1.390 . S
C1259 C1260 1.387 . S
C1259 H1262 0.950 . S
C1260 C1259 1.387 . S
C1260 C1263 1.387 . S
H1261 C1257 0.950 . S
H1262 C1259 0.950 . S
C1263 C1254 1.390 . S
C1263 H1256 0.950 . S
C1263 C1260 1.387 . S
C1264 C1265 1.387 1_565 S
C1264 H1268 0.950 . S
C1264 C1273 1.390 . S
C1265 C1264 1.387 1_545 S
C1265 C1267 1.387 . S
H1266 C1273 0.950 . S
C1267 C1265 1.387 . S
C1267 C1269 1.390 . S
C1267 H1271 0.950 . S
H1268 C1264 0.950 . S
C1269 C1267 1.390 . S
C1269 C1270 1.387 . S
C1269 H1272 0.950 . S
C1270 C1269 1.387 . S
C1270 C1273 1.387 1_545 S
H1271 C1267 0.950 . S
H1272 C1269 0.950 . S
C1273 C1264 1.390 . S
C1273 H1266 0.950 . S
C1273 C1270 1.387 1_565 S
C1274 C1275 1.387 . S
C1274 H1278 0.950 . S
C1274 C1283 1.390 . S
C1275 C1274 1.387 . S
C1275 C1277 1.387 . S
H1276 C1283 0.950 . S
C1277 C1275 1.387 . S
C1277 C1279 1.390 . S
C1277 H1281 0.950 . S
H1278 C1274 0.950 . S
C1279 C1277 1.390 . S
C1279 C1280 1.387 . S
C1279 H1282 0.950 . S
C1280 C1279 1.387 . S
C1280 C1283 1.387 . S
H1281 C1277 0.950 . S
H1282 C1279 0.950 . S
C1283 C1274 1.390 . S
C1283 H1276 0.950 . S
C1283 C1280 1.387 . S
C1284 C1285 1.387 . S
C1284 H1288 0.950 . S
C1284 C1293 1.390 . S
C1285 C1284 1.387 . S
C1285 C1287 1.387 1_565 S
H1286 C1293 0.950 . S
C1287 C1285 1.387 1_545 S
C1287 C1289 1.390 . S
C1287 H1291 0.950 . S
H1288 C1284 0.950 . S
C1289 C1287 1.390 . S
C1289 C1290 1.387 . S
C1289 H1292 0.950 . S
C1290 C1289 1.387 . S
C1290 C1293 1.387 1_545 S
H1291 C1287 0.950 . S
H1292 C1289 0.950 . S
C1293 C1284 1.390 . S
C1293 H1286 0.950 . S
C1293 C1290 1.387 1_565 S
C1294 C1295 1.387 . S
C1294 H1298 0.950 . S
C1294 C1303 1.390 . S
C1295 C1294 1.387 . S
C1295 C1297 1.387 . S
H1296 C1303 0.950 . S
C1297 C1295 1.387 . S
C1297 C1299 1.390 . S
C1297 H1301 0.950 . S
H1298 C1294 0.950 . S
C1299 C1297 1.390 . S
C1299 C1300 1.387 . S
C1299 H1302 0.950 . S
C1300 C1299 1.387 . S
C1300 C1303 1.387 . S
H1301 C1297 0.950 . S
H1302 C1299 0.950 . S
C1303 C1294 1.390 . S
C1303 H1296 0.950 . S
C1303 C1300 1.387 . S
C1304 C1305 1.387 1_565 S
C1304 H1308 0.950 . S
C1304 C1313 1.390 . S
C1305 C1304 1.387 1_545 S
C1305 C1307 1.387 . S
H1306 C1313 0.950 . S
C1307 C1305 1.387 . S
C1307 C1309 1.390 . S
C1307 H1311 0.950 . S
H1308 C1304 0.950 . S
C1309 C1307 1.390 . S
C1309 C1310 1.387 . S
C1309 H1312 0.950 . S
C1310 C1309 1.387 . S
C1310 C1313 1.387 1_545 S
H1311 C1307 0.950 . S
H1312 C1309 0.950 . S
C1313 C1304 1.390 . S
C1313 H1306 0.950 . S
C1313 C1310 1.387 1_565 S
C1314 C1315 1.387 . S
C1314 H1318 0.950 . S
C1314 C1323 1.390 . S
C1315 C1314 1.387 . S
C1315 C1317 1.387 . S
H1316 C1323 0.950 . S
C1317 C1315 1.387 . S
C1317 C1319 1.390 . S
C1317 H1321 0.950 . S
H1318 C1314 0.950 . S
C1319 C1317 1.390 . S
C1319 C1320 1.387 . S
C1319 H1322 0.950 . S
C1320 C1319 1.387 . S
C1320 C1323 1.387 . S
H1321 C1317 0.950 . S
H1322 C1319 0.950 . S
C1323 C1314 1.390 . S
C1323 H1316 0.950 . S
C1323 C1320 1.387 . S
C1324 C1325 1.387 . S
C1324 H1328 0.950 . S
C1324 C1333 1.390 . S
C1325 C1324 1.387 . S
C1325 C1327 1.387 1_545 S
H1326 C1333 0.950 . S
C1327 C1325 1.387 1_565 S
C1327 C1329 1.390 . S
C1327 H1331 0.950 . S
H1328 C1324 0.950 . S
C1329 C1327 1.390 . S
C1329 C1330 1.387 1_565 S
C1329 H1332 0.950 . S
C1330 C1329 1.387 1_545 S
C1330 C1333 1.387 . S
H1331 C1327 0.950 . S
H1332 C1329 0.950 . S
C1333 C1324 1.390 . S
C1333 H1326 0.950 . S
C1333 C1330 1.387 . S
C1334 C1335 1.387 . S
C1334 H1338 0.950 . S
C1334 C1343 1.390 . S
C1335 C1334 1.387 . S
C1335 C1337 1.387 . S
H1336 C1343 0.950 . S
C1337 C1335 1.387 . S
C1337 C1339 1.390 . S
C1337 H1341 0.950 . S
H1338 C1334 0.950 . S
C1339 C1337 1.390 . S
C1339 C1340 1.387 . S
C1339 H1342 0.950 . S
C1340 C1339 1.387 . S
C1340 C1343 1.387 . S
H1341 C1337 0.950 . S
H1342 C1339 0.950 . S
C1343 C1334 1.390 . S
C1343 H1336 0.950 . S
C1343 C1340 1.387 . S
C1344 C1345 1.387 . S
C1344 H1348 0.950 . S
C1344 C1353 1.390 . S
C1345 C1344 1.387 . S
C1345 C1347 1.387 . S
H1346 C1353 0.950 . S
C1347 C1345 1.387 . S
C1347 C1349 1.390 . S
C1347 H1351 0.950 1_554 S
H1348 C1344 0.950 . S
C1349 C1347 1.390 . S
C1349 C1350 1.387 . S
C1349 H1352 0.950 . S
C1350 C1349 1.387 . S
C1350 C1353 1.387 . S
H1351 C1347 0.950 1_556 S
H1352 C1349 0.950 . S
C1353 C1344 1.390 . S
C1353 H1346 0.950 . S
C1353 C1350 1.387 . S
C1354 C1355 1.387 1_554 S
C1354 H1358 0.950 . S
C1354 C1363 1.390 . S
C1355 C1354 1.387 1_556 S
C1355 C1357 1.387 . S
H1356 C1363 0.950 . S
C1357 C1355 1.387 . S
C1357 C1359 1.390 . S
C1357 H1361 0.950 . S
H1358 C1354 0.950 . S
C1359 C1357 1.390 . S
C1359 C1360 1.387 1_556 S
C1359 H1362 0.950 . S
C1360 C1359 1.387 1_554 S
C1360 C1363 1.387 . S
H1361 C1357 0.950 . S
H1362 C1359 0.950 . S
C1363 C1354 1.390 . S
C1363 H1356 0.950 . S
C1363 C1360 1.387 . S
C1364 C1365 1.387 . S
C1364 H1368 0.950 . S
C1364 C1373 1.390 . S
C1365 C1364 1.387 . S
C1365 C1367 1.387 . S
H1366 C1373 0.950 . S
C1367 C1365 1.387 . S
C1367 C1369 1.390 . S
C1367 H1371 0.950 . S
H1368 C1364 0.950 . S
C1369 C1367 1.390 . S
C1369 C1370 1.387 . S
C1369 H1372 0.950 . S
C1370 C1369 1.387 . S
C1370 C1373 1.387 . S
H1371 C1367 0.950 . S
H1372 C1369 0.950 . S
C1373 C1364 1.390 . S
C1373 H1366 0.950 . S
C1373 C1370 1.387 . S
C1374 C1375 1.387 . S
C1374 H1378 0.950 . S
C1374 C1383 1.390 . S
C1375 C1374 1.387 . S
C1375 C1377 1.387 . S
H1376 C1383 0.950 . S
C1377 C1375 1.387 . S
C1377 C1379 1.390 . S
C1377 H1381 0.950 . S
H1378 C1374 0.950 . S
C1379 C1377 1.390 . S
C1379 C1380 1.387 . S
C1379 H1382 0.950 . S
C1380 C1379 1.387 . S
C1380 C1383 1.387 . S
H1381 C1377 0.950 . S
H1382 C1379 0.950 . S
C1383 C1374 1.390 . S
C1383 H1376 0.950 . S
C1383 C1380 1.387 . S
C1384 C1385 1.387 . S
C1384 H1388 0.950 . S
C1384 C1393 1.390 . S
C1385 C1384 1.387 . S
C1385 C1387 1.387 . S
H1386 C1393 0.950 . S
C1387 C1385 1.387 . S
C1387 C1389 1.390 . S
C1387 H1391 0.950 . S
H1388 C1384 0.950 . S
C1389 C1387 1.390 . S
C1389 C1390 1.387 . S
C1389 H1392 0.950 . S
C1390 C1389 1.387 . S
C1390 C1393 1.387 . S
H1391 C1387 0.950 . S
H1392 C1389 0.950 . S
C1393 C1384 1.390 . S
C1393 H1386 0.950 . S
C1393 C1390 1.387 . S
C1394 C1395 1.387 . S
C1394 H1398 0.950 . S
C1394 C1403 1.390 . S
C1395 C1394 1.387 . S
C1395 C1397 1.387 . S
H1396 C1403 0.950 . S
C1397 C1395 1.387 . S
C1397 C1399 1.390 . S
C1397 H1401 0.950 . S
H1398 C1394 0.950 . S
C1399 C1397 1.390 . S
C1399 C1400 1.387 . S
C1399 H1402 0.950 . S
C1400 C1399 1.387 . S
C1400 C1403 1.387 . S
H1401 C1397 0.950 . S
H1402 C1399 0.950 . S
C1403 C1394 1.390 . S
C1403 H1396 0.950 . S
C1403 C1400 1.387 . S
C1404 C1405 1.387 . S
C1404 H1408 0.950 . S
C1404 C1413 1.390 . S
C1405 C1404 1.387 . S
C1405 C1407 1.387 . S
H1406 C1413 0.950 . S
C1407 C1405 1.387 . S
C1407 C1409 1.390 . S
C1407 H1411 0.950 . S
H1408 C1404 0.950 . S
C1409 C1407 1.390 . S
C1409 C1410 1.387 . S
C1409 H1412 0.950 . S
C1410 C1409 1.387 . S
C1410 C1413 1.387 . S
H1411 C1407 0.950 . S
H1412 C1409 0.950 . S
C1413 C1404 1.390 . S
C1413 H1406 0.950 . S
C1413 C1410 1.387 . S
C1414 C1415 1.387 . S
C1414 H1418 0.950 . S
C1414 C1423 1.390 . S
C1415 C1414 1.387 . S
C1415 C1417 1.387 . S
H1416 C1423 0.950 . S
C1417 C1415 1.387 . S
C1417 C1419 1.390 . S
C1417 H1421 0.950 . S
H1418 C1414 0.950 . S
C1419 C1417 1.390 . S
C1419 C1420 1.387 . S
C1419 H1422 0.950 . S
C1420 C1419 1.387 . S
C1420 C1423 1.387 . S
H1421 C1417 0.950 . S
H1422 C1419 0.950 . S
C1423 C1414 1.390 . S
C1423 H1416 0.950 . S
C1423 C1420 1.387 . S
C1424 C1425 1.387 . S
C1424 H1428 0.950 . S
C1424 C1433 1.390 . S
C1425 C1424 1.387 . S
C1425 C1427 1.387 . S
H1426 C1433 0.950 . S
C1427 C1425 1.387 . S
C1427 C1429 1.390 . S
C1427 H1431 0.950 . S
H1428 C1424 0.950 . S
C1429 C1427 1.390 . S
C1429 C1430 1.387 . S
C1429 H1432 0.950 . S
C1430 C1429 1.387 . S
C1430 C1433 1.387 . S
H1431 C1427 0.950 . S
H1432 C1429 0.950 . S
C1433 C1424 1.390 . S
C1433 H1426 0.950 . S
C1433 C1430 1.387 . S
C1434 C1435 1.387 . S
C1434 H1438 0.950 . S
C1434 C1443 1.390 . S
C1435 C1434 1.387 . S
C1435 C1437 1.387 . S
H1436 C1443 0.950 . S
C1437 C1435 1.387 . S
C1437 C1439 1.390 . S
C1437 H1441 0.950 . S
H1438 C1434 0.950 . S
C1439 C1437 1.390 . S
C1439 C1440 1.387 . S
C1439 H1442 0.950 . S
C1440 C1439 1.387 . S
C1440 C1443 1.387 . S
H1441 C1437 0.950 . S
H1442 C1439 0.950 . S
C1443 C1434 1.390 . S
C1443 H1436 0.950 . S
C1443 C1440 1.387 . S
C1444 C1445 1.387 . S
C1444 H1448 0.950 . S
C1444 C1453 1.390 . S
C1445 C1444 1.387 . S
C1445 C1447 1.387 . S
H1446 C1453 0.950 . S
C1447 C1445 1.387 . S
C1447 C1449 1.390 . S
C1447 H1451 0.950 . S
H1448 C1444 0.950 . S
C1449 C1447 1.390 . S
C1449 C1450 1.387 . S
C1449 H1452 0.950 . S
C1450 C1449 1.387 . S
C1450 C1453 1.387 . S
H1451 C1447 0.950 . S
H1452 C1449 0.950 . S
C1453 C1444 1.390 . S
C1453 H1446 0.950 . S
C1453 C1450 1.387 . S
C1454 C1455 1.387 . S
C1454 H1458 0.950 . S
C1454 C1463 1.390 . S
C1455 C1454 1.387 . S
C1455 C1457 1.387 . S
H1456 C1463 0.950 . S
C1457 C1455 1.387 . S
C1457 C1459 1.390 . S
C1457 H1461 0.950 . S
H1458 C1454 0.950 . S
C1459 C1457 1.390 . S
C1459 C1460 1.387 . S
C1459 H1462 0.950 . S
C1460 C1459 1.387 . S
C1460 C1463 1.387 . S
H1461 C1457 0.950 . S
H1462 C1459 0.950 . S
C1463 C1454 1.390 . S
C1463 H1456 0.950 . S
C1463 C1460 1.387 . S
C1464 C1465 1.387 . S
C1464 H1468 0.950 . S
C1464 C1473 1.390 . S
C1465 C1464 1.387 . S
C1465 C1467 1.387 1_455 S
H1466 C1473 0.950 . S
C1467 C1465 1.387 1_655 S
C1467 C1469 1.390 . S
C1467 H1471 0.950 . S
H1468 C1464 0.950 . S
C1469 C1467 1.390 . S
C1469 C1470 1.387 1_655 S
C1469 H1472 0.950 . S
C1470 C1469 1.387 1_455 S
C1470 C1473 1.387 . S
H1471 C1467 0.950 . S
H1472 C1469 0.950 . S
C1473 C1464 1.390 . S
C1473 H1466 0.950 . S
C1473 C1470 1.387 . S
C1474 C1475 1.387 . S
C1474 H1478 0.950 . S
C1474 C1483 1.390 . S
C1475 C1474 1.387 . S
C1475 C1477 1.387 . S
H1476 C1483 0.950 . S
C1477 C1475 1.387 . S
C1477 C1479 1.390 . S
C1477 H1481 0.950 . S
H1478 C1474 0.950 . S
C1479 C1477 1.390 . S
C1479 C1480 1.387 . S
C1479 H1482 0.950 . S
C1480 C1479 1.387 . S
C1480 C1483 1.387 . S
H1481 C1477 0.950 . S
H1482 C1479 0.950 . S
C1483 C1474 1.390 . S
C1483 H1476 0.950 . S
C1483 C1480 1.387 . S
C1484 C1485 1.387 . S
C1484 H1488 0.950 . S
C1484 C1493 1.375 1_556 S
C1485 C1484 1.387 . S
C1485 C1487 1.387 . S
H1486 C1493 0.974 . S
C1487 C1485 1.387 . S
C1487 C1489 1.390 . S
C1487 H1491 0.950 . S
H1488 C1484 0.950 . S
C1489 C1487 1.390 . S
C1489 C1490 1.387 . S
C1489 H1492 0.950 . S
C1490 C1489 1.387 . S
C1490 C1493 1.379 1_556 S
H1491 C1487 0.950 . S
H1492 C1489 0.950 . S
C1493 C1484 1.375 1_554 S
C1493 H1486 0.974 . S
C1493 C1490 1.379 1_554 S
C1494 C1495 1.387 . S
C1494 H1498 0.950 . S
C1494 C1503 1.390 . S
C1495 C1494 1.387 . S
C1495 C1497 1.387 . S
H1496 C1503 0.950 . S
C1497 C1495 1.387 . S
C1497 C1499 1.390 . S
C1497 H1501 0.950 . S
H1498 C1494 0.950 . S
C1499 C1497 1.390 . S
C1499 C1500 1.387 . S
C1499 H1502 0.950 . S
C1500 C1499 1.387 . S
C1500 C1503 1.387 . S
H1501 C1497 0.950 . S
H1502 C1499 0.950 . S
C1503 C1494 1.390 . S
C1503 H1496 0.950 . S
C1503 C1500 1.387 . S
C1504 C1505 1.387 . S
C1504 H1508 0.950 . S
C1504 C1513 1.390 . S
C1505 C1504 1.387 . S
C1505 C1507 1.387 1_545 S
H1506 C1513 0.950 . S
C1507 C1505 1.387 1_565 S
C1507 C1509 1.390 . S
C1507 H1511 0.950 . S
H1508 C1504 0.950 . S
C1509 C1507 1.390 . S
C1509 C1510 1.387 . S
C1509 H1512 0.950 . S
C1510 C1509 1.387 . S
C1510 C1513 1.387 1_565 S
H1511 C1507 0.950 . S
H1512 C1509 0.950 . S
C1513 C1504 1.390 . S
C1513 H1506 0.950 . S
C1513 C1510 1.387 1_545 S
C1514 C1515 1.387 . S
C1514 H1518 0.950 . S
C1514 C1523 1.390 . S
C1515 C1514 1.387 . S
C1515 C1517 1.387 . S
H1516 C1523 0.950 . S
C1517 C1515 1.387 . S
C1517 C1519 1.390 . S
C1517 H1521 0.950 . S
H1518 C1514 0.950 . S
C1519 C1517 1.390 . S
C1519 C1520 1.387 . S
C1519 H1522 0.950 . S
C1520 C1519 1.387 . S
C1520 C1523 1.387 . S
H1521 C1517 0.950 . S
H1522 C1519 0.950 . S
C1523 C1514 1.390 . S
C1523 H1516 0.950 . S
C1523 C1520 1.387 . S
C1524 C1525 1.387 . S
C1524 H1528 0.950 1_545 S
C1524 C1533 1.390 . S
C1525 C1524 1.387 . S
C1525 C1527 1.387 . S
H1526 C1533 0.950 1_565 S
C1527 C1525 1.387 . S
C1527 C1529 1.390 . S
C1527 H1531 0.950 . S
H1528 C1524 0.950 1_565 S
C1529 C1527 1.390 . S
C1529 C1530 1.387 . S
C1529 H1532 0.950 . S
C1530 C1529 1.387 . S
C1530 C1533 1.387 . S
H1531 C1527 0.950 . S
H1532 C1529 0.950 . S
C1533 C1524 1.390 . S
C1533 H1526 0.950 1_545 S
C1533 C1530 1.387 . S
C1534 C1535 1.387 . S
C1534 H1538 0.950 . S
C1534 C1543 1.390 . S
C1535 C1534 1.387 . S
C1535 C1537 1.387 . S
H1536 C1543 0.950 . S
C1537 C1535 1.387 . S
C1537 C1539 1.390 . S
C1537 H1541 0.950 . S
H1538 C1534 0.950 . S
C1539 C1537 1.390 . S
C1539 C1540 1.387 . S
C1539 H1542 0.950 . S
C1540 C1539 1.387 . S
C1540 C1543 1.387 . S
H1541 C1537 0.950 . S
H1542 C1539 0.950 . S
C1543 C1534 1.390 . S
C1543 H1536 0.950 . S
C1543 C1540 1.387 . S
C1544 C1545 1.387 1_565 S
C1544 H1548 0.950 . S
C1544 C1553 1.390 . S
C1545 C1544 1.387 1_545 S
C1545 C1547 1.387 . S
H1546 C1553 0.950 . S
C1547 C1545 1.387 . S
C1547 C1549 1.390 . S
C1547 H1551 0.950 . S
H1548 C1544 0.950 . S
C1549 C1547 1.390 . S
C1549 C1550 1.387 . S
C1549 H1552 0.950 . S
C1550 C1549 1.387 . S
C1550 C1553 1.387 1_545 S
H1551 C1547 0.950 . S
H1552 C1549 0.950 . S
C1553 C1544 1.390 . S
C1553 H1546 0.950 . S
C1553 C1550 1.387 1_565 S
C1554 C1555 1.387 . S
C1554 H1558 0.950 . S
C1554 C1563 1.390 . S
C1555 C1554 1.387 . S
C1555 C1557 1.387 . S
H1556 C1563 0.950 . S
C1557 C1555 1.387 . S
C1557 C1559 1.390 . S
C1557 H1561 0.950 . S
H1558 C1554 0.950 . S
C1559 C1557 1.390 . S
C1559 C1560 1.387 . S
C1559 H1562 0.950 . S
C1560 C1559 1.387 . S
C1560 C1563 1.387 . S
H1561 C1557 0.950 . S
H1562 C1559 0.950 . S
C1563 C1554 1.390 . S
C1563 H1556 0.950 . S
C1563 C1560 1.387 . S
C1564 C1565 1.387 . S
C1564 H1568 0.951 . S
C1564 C1573 1.390 1_545 S
C1565 C1564 1.387 . S
C1565 C1567 1.387 . S
H1566 C1573 0.950 . S
C1567 C1565 1.387 . S
C1567 C1569 1.390 . S
C1567 H1571 0.950 . S
H1568 C1564 0.951 . S
C1569 C1567 1.390 . S
C1569 C1570 1.387 . S
C1569 H1572 0.950 . S
C1570 C1569 1.387 . S
C1570 C1573 1.387 1_545 S
H1571 C1567 0.950 . S
H1572 C1569 0.950 . S
C1573 C1564 1.390 1_565 S
C1573 H1566 0.950 . S
C1573 C1570 1.387 1_565 S
C1574 C1575 1.387 . S
C1574 H1578 0.950 . S
C1574 C1583 1.390 . S
C1575 C1574 1.387 . S
C1575 C1577 1.387 . S
H1576 C1583 0.950 . S
C1577 C1575 1.387 . S
C1577 C1579 1.390 . S
C1577 H1581 0.950 . S
H1578 C1574 0.950 . S
C1579 C1577 1.390 . S
C1579 C1580 1.387 . S
C1579 H1582 0.950 . S
C1580 C1579 1.387 . S
C1580 C1583 1.387 . S
H1581 C1577 0.950 . S
H1582 C1579 0.950 . S
C1583 C1574 1.390 . S
C1583 H1576 0.950 . S
C1583 C1580 1.387 . S
C1584 C1585 1.387 1_556 S
C1584 H1588 0.950 . S
C1584 C1593 1.390 . S
C1585 C1584 1.387 1_554 S
C1585 C1587 1.387 . S
H1586 C1593 0.950 . S
C1587 C1585 1.387 . S
C1587 C1589 1.390 . S
C1587 H1591 0.950 . S
H1588 C1584 0.950 . S
C1589 C1587 1.390 . S
C1589 C1590 1.387 . S
C1589 H1592 0.950 . S
C1590 C1589 1.387 . S
C1590 C1593 1.387 1_554 S
H1591 C1587 0.950 . S
H1592 C1589 0.950 . S
C1593 C1584 1.390 . S
C1593 H1586 0.950 . S
C1593 C1590 1.387 1_556 S
C1594 C1595 1.387 . S
C1594 H1598 0.950 . S
C1594 C1603 1.390 . S
C1595 C1594 1.387 . S
C1595 C1597 1.387 . S
H1596 C1603 0.950 . S
C1597 C1595 1.387 . S
C1597 C1599 1.390 . S
C1597 H1601 0.950 . S
H1598 C1594 0.950 . S
C1599 C1597 1.390 . S
C1599 C1600 1.387 . S
C1599 H1602 0.982 . S
C1600 C1599 1.387 . S
C1600 C1603 1.387 . S
H1601 C1597 0.950 . S
H1602 C1599 0.982 . S
C1603 C1594 1.390 . S
C1603 H1596 0.950 . S
C1603 C1600 1.387 . S
C1604 C1605 1.387 . S
C1604 H1608 0.950 . S
C1604 C1613 1.390 . S
C1605 C1604 1.387 . S
C1605 C1607 1.387 . S
H1606 C1613 0.950 . S
C1607 C1605 1.387 . S
C1607 C1609 1.390 . S
C1607 H1611 0.950 . S
H1608 C1604 0.950 . S
C1609 C1607 1.390 . S
C1609 C1610 1.387 . S
C1609 H1612 0.950 . S
C1610 C1609 1.387 . S
C1610 C1613 1.387 . S
H1611 C1607 0.950 . S
H1612 C1609 0.950 . S
C1613 C1604 1.390 . S
C1613 H1606 0.950 . S
C1613 C1610 1.387 . S
C1614 C1615 1.387 . S
C1614 H1618 0.950 . S
C1614 C1623 1.390 . S
C1615 C1614 1.387 . S
C1615 C1617 1.387 . S
H1616 C1623 0.950 . S
C1617 C1615 1.387 . S
C1617 C1619 1.390 . S
C1617 H1621 0.950 . S
H1618 C1614 0.950 . S
C1619 C1617 1.390 . S
C1619 C1620 1.387 . S
C1619 H1622 0.950 . S
C1620 C1619 1.387 . S
C1620 C1623 1.387 . S
H1621 C1617 0.950 . S
H1622 C1619 0.950 . S
C1623 C1614 1.390 . S
C1623 H1616 0.950 . S
C1623 C1620 1.387 . S
C1624 C1625 1.387 . S
C1624 H1628 0.950 . S
C1624 C1633 1.390 . S
C1625 C1624 1.387 . S
C1625 C1627 1.387 . S
H1626 C1633 0.950 . S
C1627 C1625 1.387 . S
C1627 C1629 1.390 . S
C1627 H1631 0.950 . S
H1628 C1624 0.950 . S
C1629 C1627 1.390 . S
C1629 C1630 1.387 . S
C1629 H1632 0.950 . S
C1630 C1629 1.387 . S
C1630 C1633 1.387 . S
H1631 C1627 0.950 . S
H1632 C1629 0.950 . S
C1633 C1624 1.390 . S
C1633 H1626 0.950 . S
C1633 C1630 1.387 . S
C1634 C1635 1.387 . S
C1634 H1638 0.950 . S
C1634 C1643 1.390 . S
C1635 C1634 1.387 . S
C1635 C1637 1.387 . S
H1636 C1643 0.950 . S
C1637 C1635 1.387 . S
C1637 C1639 1.390 . S
C1637 H1641 0.950 . S
H1638 C1634 0.950 . S
C1639 C1637 1.390 . S
C1639 C1640 1.387 . S
C1639 H1642 0.950 . S
C1640 C1639 1.387 . S
C1640 C1643 1.387 . S
H1641 C1637 0.950 . S
H1642 C1639 0.950 . S
C1643 C1634 1.390 . S
C1643 H1636 0.950 . S
C1643 C1640 1.387 . S
C1644 C1645 1.387 . S
C1644 H1648 0.950 . S
C1644 C1653 1.390 . S
C1645 C1644 1.387 . S
C1645 C1647 1.387 . S
H1646 C1653 0.950 . S
C1647 C1645 1.387 . S
C1647 C1649 1.390 . S
C1647 H1651 0.950 . S
H1648 C1644 0.950 . S
C1649 C1647 1.390 . S
C1649 C1650 1.387 . S
C1649 H1652 0.950 . S
C1650 C1649 1.387 . S
C1650 C1653 1.387 . S
H1651 C1647 0.950 . S
H1652 C1649 0.950 . S
C1653 C1644 1.390 . S
C1653 H1646 0.950 . S
C1653 C1650 1.387 . S
C1654 C1655 1.387 . S
C1654 H1658 0.950 . S
C1654 C1663 1.390 . S
C1655 C1654 1.387 . S
C1655 C1657 1.387 . S
H1656 C1663 0.950 . S
C1657 C1655 1.387 . S
C1657 C1659 1.390 . S
C1657 H1661 0.950 . S
H1658 C1654 0.950 . S
C1659 C1657 1.390 . S
C1659 C1660 1.387 . S
C1659 H1662 0.950 . S
C1660 C1659 1.387 . S
C1660 C1663 1.387 . S
H1661 C1657 0.950 . S
H1662 C1659 0.950 . S
C1663 C1654 1.390 . S
C1663 H1656 0.950 . S
C1663 C1660 1.387 . S
C1664 C1665 1.387 . S
C1664 H1668 0.950 . S
C1664 C1673 1.390 . S
C1665 C1664 1.387 . S
C1665 C1667 1.387 . S
H1666 C1673 0.950 . S
C1667 C1665 1.387 . S
C1667 C1669 1.390 . S
C1667 H1671 0.950 . S
H1668 C1664 0.950 . S
C1669 C1667 1.390 . S
C1669 C1670 1.387 . S
C1669 H1672 0.950 . S
C1670 C1669 1.387 . S
C1670 C1673 1.387 . S
H1671 C1667 0.950 . S
H1672 C1669 0.950 . S
C1673 C1664 1.390 . S
C1673 H1666 0.950 . S
C1673 C1670 1.387 . S
C1674 C1675 1.387 . S
C1674 H1678 0.950 . S
C1674 C1683 1.390 . S
C1675 C1674 1.387 . S
C1675 C1677 1.387 . S
H1676 C1683 0.950 . S
C1677 C1675 1.387 . S
C1677 C1679 1.390 . S
C1677 H1681 0.950 . S
H1678 C1674 0.950 . S
C1679 C1677 1.390 . S
C1679 C1680 1.387 . S
C1679 H1682 0.950 . S
C1680 C1679 1.387 . S
C1680 C1683 1.387 . S
H1681 C1677 0.950 . S
H1682 C1679 0.950 . S
C1683 C1674 1.390 . S
C1683 H1676 0.950 . S
C1683 C1680 1.387 . S
C1684 C1685 1.387 . S
C1684 H1688 0.950 . S
C1684 C1693 1.390 . S
C1685 C1684 1.387 . S
C1685 C1687 1.387 1_455 S
H1686 C1693 0.950 1_554 S
C1687 C1685 1.387 1_655 S
C1687 C1689 1.390 . S
C1687 H1691 0.950 . S
H1688 C1684 0.950 . S
C1689 C1687 1.390 . S
C1689 C1690 1.387 1_655 S
C1689 H1692 0.950 . S
C1690 C1689 1.387 1_455 S
C1690 C1693 1.387 . S
H1691 C1687 0.950 . S
H1692 C1689 0.950 . S
C1693 C1684 1.390 . S
C1693 H1686 0.950 1_556 S
C1693 C1690 1.387 . S
C1694 C1695 1.387 . S
C1694 H1698 0.950 . S
C1694 C1703 1.390 . S
C1695 C1694 1.387 . S
C1695 C1697 1.387 . S
H1696 C1703 0.950 . S
C1697 C1695 1.387 . S
C1697 C1699 1.390 . S
C1697 H1701 0.950 . S
H1698 C1694 0.950 . S
C1699 C1697 1.390 . S
C1699 C1700 1.387 . S
C1699 H1702 0.950 . S
C1700 C1699 1.387 . S
C1700 C1703 1.387 . S
H1701 C1697 0.950 . S
H1702 C1699 0.950 . S
C1703 C1694 1.390 . S
C1703 H1696 0.950 . S
C1703 C1700 1.387 . S
C1704 C1705 1.387 . S
C1704 H1708 0.950 . S
C1704 C1713 1.390 . S
C1705 C1704 1.387 . S
C1705 C1707 1.387 . S
H1706 C1713 0.950 . S
C1707 C1705 1.387 . S
C1707 C1709 1.390 . S
C1707 H1711 0.950 . S
H1708 C1704 0.950 . S
C1709 C1707 1.390 . S
C1709 C1710 1.387 . S
C1709 H1712 0.950 . S
C1710 C1709 1.387 . S
C1710 C1713 1.387 . S
H1711 C1707 0.950 . S
H1712 C1709 0.950 . S
C1713 C1704 1.390 . S
C1713 H1706 0.950 . S
C1713 C1710 1.387 . S
C1714 C1715 1.387 . S
C1714 H1718 0.950 . S
C1714 C1723 1.390 . S
C1715 C1714 1.387 . S
C1715 C1717 1.387 . S
H1716 C1723 0.950 . S
C1717 C1715 1.387 . S
C1717 C1719 1.390 . S
C1717 H1721 0.950 . S
H1718 C1714 0.950 . S
C1719 C1717 1.390 . S
C1719 C1720 1.387 . S
C1719 H1722 0.950 . S
C1720 C1719 1.387 . S
C1720 C1723 1.387 . S
H1721 C1717 0.950 . S
H1722 C1719 0.950 . S
C1723 C1714 1.390 . S
C1723 H1716 0.950 . S
C1723 C1720 1.387 . S
C1724 C1725 1.387 1_655 S
C1724 H1728 0.950 . S
C1724 C1733 1.390 . S
C1725 C1724 1.387 1_455 S
C1725 C1727 1.387 . S
H1726 C1733 0.950 . S
C1727 C1725 1.387 . S
C1727 C1729 1.390 . S
C1727 H1731 0.950 . S
H1728 C1724 0.950 . S
C1729 C1727 1.390 . S
C1729 C1730 1.387 . S
C1729 H1732 0.950 . S
C1730 C1729 1.387 . S
C1730 C1733 1.387 1_455 S
H1731 C1727 0.950 . S
H1732 C1729 0.950 . S
C1733 C1724 1.390 . S
C1733 H1726 0.950 . S
C1733 C1730 1.387 1_655 S
C1734 C1735 1.387 . S
C1734 H1738 0.950 . S
C1734 C1743 1.390 . S
C1735 C1734 1.387 . S
C1735 C1737 1.387 . S
H1736 C1743 0.950 . S
C1737 C1735 1.387 . S
C1737 C1739 1.390 . S
C1737 H1741 0.950 . S
H1738 C1734 0.950 . S
C1739 C1737 1.390 . S
C1739 C1740 1.387 . S
C1739 H1742 0.950 . S
C1740 C1739 1.387 . S
C1740 C1743 1.387 . S
H1741 C1737 0.950 . S
H1742 C1739 0.950 . S
C1743 C1734 1.390 . S
C1743 H1736 0.950 . S
C1743 C1740 1.387 . S
C1744 C1745 1.387 . S
C1744 H1748 0.950 . S
C1744 C1753 1.390 . S
C1745 C1744 1.387 . S
C1745 C1747 1.387 . S
H1746 C1753 0.950 . S
C1747 C1745 1.387 . S
C1747 C1749 1.390 . S
C1747 H1751 0.950 . S
H1748 C1744 0.950 . S
C1749 C1747 1.390 . S
C1749 C1750 1.387 . S
C1749 H1752 0.950 . S
C1750 C1749 1.387 . S
C1750 C1753 1.387 . S
H1751 C1747 0.950 . S
H1752 C1749 0.950 . S
C1753 C1744 1.390 . S
C1753 H1746 0.950 . S
C1753 C1750 1.387 . S
C1754 C1755 1.387 . S
C1754 H1758 0.950 . S
C1754 C1763 1.390 . S
C1755 C1754 1.387 . S
C1755 C1757 1.387 . S
H1756 C1763 0.950 . S
C1757 C1755 1.387 . S
C1757 C1759 1.390 . S
C1757 H1761 0.950 . S
H1758 C1754 0.950 . S
C1759 C1757 1.390 . S
C1759 C1760 1.387 . S
C1759 H1762 0.950 . S
C1760 C1759 1.387 . S
C1760 C1763 1.387 . S
H1761 C1757 0.950 . S
H1762 C1759 0.950 . S
C1763 C1754 1.390 . S
C1763 H1756 0.950 . S
C1763 C1760 1.387 . S
C1764 C1765 1.387 . S
C1764 H1768 0.950 . S
C1764 C1773 1.390 . S
C1765 C1764 1.387 . S
C1765 C1767 1.387 . S
H1766 C1773 0.950 . S
C1767 C1765 1.387 . S
C1767 C1769 1.390 . S
C1767 H1771 0.950 . S
H1768 C1764 0.950 . S
C1769 C1767 1.390 . S
C1769 C1770 1.387 . S
C1769 H1772 0.950 . S
C1770 C1769 1.387 . S
C1770 C1773 1.387 . S
H1771 C1767 0.950 . S
H1772 C1769 0.950 . S
C1773 C1764 1.390 . S
C1773 H1766 0.950 . S
C1773 C1770 1.387 . S
C1774 C1775 1.387 . S
C1774 H1778 0.950 . S
C1774 C1783 1.390 . S
C1775 C1774 1.387 . S
C1775 C1777 1.387 . S
H1776 C1783 0.950 . S
C1777 C1775 1.387 . S
C1777 C1779 1.390 . S
C1777 H1781 0.950 . S
H1778 C1774 0.950 . S
C1779 C1777 1.390 . S
C1779 C1780 1.387 . S
C1779 H1782 0.950 . S
C1780 C1779 1.387 . S
C1780 C1783 1.387 . S
H1781 C1777 0.950 . S
H1782 C1779 0.950 . S
C1783 C1774 1.390 . S
C1783 H1776 0.950 . S
C1783 C1780 1.387 . S
C1784 C1785 1.387 . S
C1784 H1788 0.950 . S
C1784 C1793 1.390 . S
C1785 C1784 1.387 . S
C1785 C1787 1.387 . S
H1786 C1793 0.950 . S
C1787 C1785 1.387 . S
C1787 C1789 1.390 . S
C1787 H1791 0.950 . S
H1788 C1784 0.950 . S
C1789 C1787 1.390 . S
C1789 C1790 1.387 . S
C1789 H1792 0.950 . S
C1790 C1789 1.387 . S
C1790 C1793 1.387 . S
H1791 C1787 0.950 . S
H1792 C1789 0.950 . S
C1793 C1784 1.390 . S
C1793 H1786 0.950 . S
C1793 C1790 1.387 . S
C1794 C1795 1.387 . S
C1794 H1798 0.950 . S
C1794 C1803 1.390 . S
C1795 C1794 1.387 . S
C1795 C1797 1.387 . S
H1796 C1803 0.950 . S
C1797 C1795 1.387 . S
C1797 C1799 1.390 . S
C1797 H1801 0.950 . S
H1798 C1794 0.950 . S
C1799 C1797 1.390 . S
C1799 C1800 1.387 . S
C1799 H1802 0.950 . S
C1800 C1799 1.387 . S
C1800 C1803 1.387 . S
H1801 C1797 0.950 . S
H1802 C1799 0.950 . S
C1803 C1794 1.390 . S
C1803 H1796 0.950 . S
C1803 C1800 1.387 . S
C1804 C1805 1.387 . S
C1804 H1808 0.950 . S
C1804 C1813 1.390 . S
C1805 C1804 1.387 . S
C1805 C1807 1.387 . S
H1806 C1813 0.950 . S
C1807 C1805 1.387 . S
C1807 C1809 1.390 . S
C1807 H1811 0.950 . S
H1808 C1804 0.950 . S
C1809 C1807 1.390 . S
C1809 C1810 1.387 . S
C1809 H1812 0.950 . S
C1810 C1809 1.387 . S
C1810 C1813 1.387 . S
H1811 C1807 0.950 . S
H1812 C1809 0.950 . S
C1813 C1804 1.390 . S
C1813 H1806 0.950 . S
C1813 C1810 1.387 . S
C1814 C1815 1.387 . S
C1814 H1818 0.950 . S
C1814 C1823 1.390 . S
C1815 C1814 1.387 . S
C1815 C1817 1.387 . S
H1816 C1823 0.950 . S
C1817 C1815 1.387 . S
C1817 C1819 1.390 . S
C1817 H1821 0.950 . S
H1818 C1814 0.950 . S
C1819 C1817 1.390 . S
C1819 C1820 1.387 . S
C1819 H1822 0.950 . S
C1820 C1819 1.387 . S
C1820 C1823 1.387 . S
H1821 C1817 0.950 . S
H1822 C1819 0.950 . S
C1823 C1814 1.390 . S
C1823 H1816 0.950 . S
C1823 C1820 1.387 . S
C1824 C1825 1.387 . S
C1824 H1828 0.950 . S
C1824 C1833 1.390 . S
C1825 C1824 1.387 . S
C1825 C1827 1.387 . S
H1826 C1833 0.950 . S
C1827 C1825 1.387 . S
C1827 C1829 1.390 . S
C1827 H1831 0.950 . S
H1828 C1824 0.950 . S
C1829 C1827 1.390 . S
C1829 C1830 1.387 . S
C1829 H1832 0.950 . S
C1830 C1829 1.387 . S
C1830 C1833 1.387 . S
H1831 C1827 0.950 . S
H1832 C1829 0.950 . S
C1833 C1824 1.390 . S
C1833 H1826 0.950 . S
C1833 C1830 1.387 . S
C1834 C1835 1.387 . S
C1834 H1838 0.950 . S
C1834 C1843 1.390 . S
C1835 C1834 1.387 . S
C1835 C1837 1.387 . S
H1836 C1843 0.950 . S
C1837 C1835 1.387 . S
C1837 C1839 1.390 . S
C1837 H1841 0.950 . S
H1838 C1834 0.950 . S
C1839 C1837 1.390 . S
C1839 C1840 1.387 . S
C1839 H1842 0.950 . S
C1840 C1839 1.387 . S
C1840 C1843 1.387 . S
H1841 C1837 0.950 . S
H1842 C1839 0.950 . S
C1843 C1834 1.390 . S
C1843 H1836 0.950 . S
C1843 C1840 1.387 . S
C1844 C1845 1.387 . S
C1844 H1848 0.950 . S
C1844 C1853 1.390 . S
C1845 C1844 1.387 . S
C1845 C1847 1.387 . S
H1846 C1853 0.950 . S
C1847 C1845 1.387 . S
C1847 C1849 1.390 . S
C1847 H1851 0.950 . S
H1848 C1844 0.950 . S
C1849 C1847 1.390 . S
C1849 C1850 1.387 . S
C1849 H1852 0.950 . S
C1850 C1849 1.387 . S
C1850 C1853 1.387 . S
H1851 C1847 0.950 . S
H1852 C1849 0.950 . S
C1853 C1844 1.390 . S
C1853 H1846 0.950 . S
C1853 C1850 1.387 . S
C1854 C1855 1.387 . S
C1854 H1858 0.950 . S
C1854 C1863 1.390 . S
C1855 C1854 1.387 . S
C1855 C1857 1.387 1_554 S
H1856 C1863 0.950 . S
C1857 C1855 1.387 1_556 S
C1857 C1859 1.390 . S
C1857 H1861 0.950 . S
H1858 C1854 0.950 . S
C1859 C1857 1.390 . S
C1859 C1860 1.387 1_556 S
C1859 H1862 0.950 . S
C1860 C1859 1.387 1_554 S
C1860 C1863 1.387 . S
H1861 C1857 0.950 . S
H1862 C1859 0.950 . S
C1863 C1854 1.390 . S
C1863 H1856 0.950 . S
C1863 C1860 1.387 . S
C1864 C1865 1.387 . S
C1864 H1868 0.950 . S
C1864 C1873 1.390 . S
C1865 C1864 1.387 . S
C1865 C1867 1.387 . S
H1866 C1873 0.950 . S
C1867 C1865 1.387 . S
C1867 C1869 1.390 . S
C1867 H1871 0.950 . S
H1868 C1864 0.950 . S
C1869 C1867 1.390 . S
C1869 C1870 1.387 . S
C1869 H1872 0.950 . S
C1870 C1869 1.387 . S
C1870 C1873 1.387 . S
H1871 C1867 0.950 . S
H1872 C1869 0.950 . S
C1873 C1864 1.390 . S
C1873 H1866 0.950 . S
C1873 C1870 1.387 . S
C1874 C1875 1.387 1_556 S
C1874 H1878 0.950 . S
C1874 C1883 1.390 1_556 S
C1875 C1874 1.387 1_554 S
C1875 C1877 1.387 . S
H1876 C1883 0.950 1_556 S
C1877 C1875 1.387 . S
C1877 C1879 1.390 . S
C1877 H1881 0.950 . S
H1878 C1874 0.950 . S
C1879 C1877 1.390 . S
C1879 C1880 1.387 . S
C1879 H1882 0.950 . S
C1880 C1879 1.387 . S
C1880 C1883 1.387 . S
H1881 C1877 0.950 . S
H1882 C1879 0.950 . S
C1883 C1874 1.390 1_554 S
C1883 H1876 0.950 1_554 S
C1883 C1880 1.387 . S
C1884 C1885 1.387 . S
C1884 H1888 0.950 . S
C1884 C1893 1.390 . S
C1885 C1884 1.387 . S
C1885 C1887 1.387 . S
H1886 C1893 0.950 . S
C1887 C1885 1.387 . S
C1887 C1889 1.390 . S
C1887 H1891 0.950 . S
H1888 C1884 0.950 . S
C1889 C1887 1.390 . S
C1889 C1890 1.387 . S
C1889 H1892 0.950 . S
C1890 C1889 1.387 . S
C1890 C1893 1.387 . S
H1891 C1887 0.950 . S
H1892 C1889 0.950 . S
C1893 C1884 1.390 . S
C1893 H1886 0.950 . S
C1893 C1890 1.387 . S
C1894 C1895 1.387 . S
C1894 H1898 0.950 . S
C1894 C1903 1.390 . S
C1895 C1894 1.387 . S
C1895 C1897 1.387 . S
H1896 C1903 0.950 . S
C1897 C1895 1.387 . S
C1897 C1899 1.390 . S
C1897 H1901 0.950 . S
H1898 C1894 0.950 . S
C1899 C1897 1.390 . S
C1899 C1900 1.387 . S
C1899 H1902 0.950 . S
C1900 C1899 1.387 . S
C1900 C1903 1.387 . S
H1901 C1897 0.950 . S
H1902 C1899 0.950 . S
C1903 C1894 1.390 . S
C1903 H1896 0.950 . S
C1903 C1900 1.387 . S
C1904 C1905 1.387 . S
C1904 H1908 0.950 . S
C1904 C1913 1.390 . S
C1905 C1904 1.387 . S
C1905 C1907 1.387 . S
H1906 C1913 0.950 . S
C1907 C1905 1.387 . S
C1907 C1909 1.390 . S
C1907 H1911 0.950 . S
H1908 C1904 0.950 . S
C1909 C1907 1.390 . S
C1909 C1910 1.387 . S
C1909 H1912 0.950 . S
C1910 C1909 1.387 . S
C1910 C1913 1.387 . S
H1911 C1907 0.950 . S
H1912 C1909 0.950 . S
C1913 C1904 1.390 . S
C1913 H1906 0.950 . S
C1913 C1910 1.387 . S
C1914 C1915 1.387 . S
C1914 H1918 0.950 . S
C1914 C1923 1.390 . S
C1915 C1914 1.387 . S
C1915 C1917 1.387 . S
H1916 C1923 0.950 . S
C1917 C1915 1.387 . S
C1917 C1919 1.390 . S
C1917 H1921 0.950 . S
H1918 C1914 0.950 . S
C1919 C1917 1.390 . S
C1919 C1920 1.387 . S
C1919 H1922 0.950 . S
C1920 C1919 1.387 . S
C1920 C1923 1.387 . S
H1921 C1917 0.950 . S
H1922 C1919 0.950 . S
C1923 C1914 1.390 . S
C1923 H1916 0.950 . S
C1923 C1920 1.387 . S
C1924 C1925 1.387 . S
C1924 H1928 0.950 . S
C1924 C1933 1.390 . S
C1925 C1924 1.387 . S
C1925 C1927 1.387 . S
H1926 C1933 0.950 . S
C1927 C1925 1.387 . S
C1927 C1929 1.390 . S
C1927 H1931 0.950 1_455 S
H1928 C1924 0.950 . S
C1929 C1927 1.390 . S
C1929 C1930 1.387 . S
C1929 H1932 0.950 1_455 S
C1930 C1929 1.387 . S
C1930 C1933 1.387 . S
H1931 C1927 0.950 1_655 S
H1932 C1929 0.950 1_655 S
C1933 C1924 1.390 . S
C1933 H1926 0.950 . S
C1933 C1930 1.387 . S
C1934 C1935 1.387 . S
C1934 H1938 0.950 . S
C1934 C1943 1.390 . S
C1935 C1934 1.387 . S
C1935 C1937 1.387 . S
H1936 C1943 0.950 . S
C1937 C1935 1.387 . S
C1937 C1939 1.390 . S
C1937 H1941 0.950 . S
H1938 C1934 0.950 . S
C1939 C1937 1.390 . S
C1939 C1940 1.387 . S
C1939 H1942 0.950 . S
C1940 C1939 1.387 . S
C1940 C1943 1.387 . S
H1941 C1937 0.950 . S
H1942 C1939 0.950 . S
C1943 C1934 1.390 . S
C1943 H1936 0.950 . S
C1943 C1940 1.387 . S
C1944 C1945 1.387 . S
C1944 H1948 0.950 . S
C1944 C1953 1.390 . S
C1945 C1944 1.387 . S
C1945 C1947 1.387 . S
H1946 C1953 0.950 . S
C1947 C1945 1.387 . S
C1947 C1949 1.390 . S
C1947 H1951 0.950 . S
H1948 C1944 0.950 . S
C1949 C1947 1.390 . S
C1949 C1950 1.387 . S
C1949 H1952 0.950 . S
C1950 C1949 1.387 . S
C1950 C1953 1.387 . S
H1951 C1947 0.950 . S
H1952 C1949 0.950 . S
C1953 C1944 1.390 . S
C1953 H1946 0.950 . S
C1953 C1950 1.387 . S
C1954 C1955 1.387 . S
C1954 H1958 0.950 . S
C1954 C1963 1.390 . S
C1955 C1954 1.387 . S
C1955 C1957 1.387 . S
H1956 C1963 0.950 . S
C1957 C1955 1.387 . S
C1957 C1959 1.390 . S
C1957 H1961 0.950 . S
H1958 C1954 0.950 . S
C1959 C1957 1.390 . S
C1959 C1960 1.387 . S
C1959 H1962 0.950 . S
C1960 C1959 1.387 . S
C1960 C1963 1.387 . S
H1961 C1957 0.950 . S
H1962 C1959 0.950 . S
C1963 C1954 1.390 . S
C1963 H1956 0.950 . S
C1963 C1960 1.387 . S
C1964 C1965 1.387 . S
C1964 H1968 0.950 . S
C1964 C1973 1.390 . S
C1965 C1964 1.387 . S
C1965 C1967 1.387 . S
H1966 C1973 0.950 . S
C1967 C1965 1.387 . S
C1967 C1969 1.390 . S
C1967 H1971 0.950 1_455 S
H1968 C1964 0.950 . S
C1969 C1967 1.390 . S
C1969 C1970 1.387 . S
C1969 H1972 0.950 1_455 S
C1970 C1969 1.387 . S
C1970 C1973 1.387 . S
H1971 C1967 0.950 1_655 S
H1972 C1969 0.950 1_655 S
C1973 C1964 1.390 . S
C1973 H1966 0.950 . S
C1973 C1970 1.387 . S
C1974 C1975 1.387 . S
C1974 H1978 0.950 . S
C1974 C1983 1.390 . S
C1975 C1974 1.387 . S
C1975 C1977 1.387 . S
H1976 C1983 0.950 . S
C1977 C1975 1.387 . S
C1977 C1979 1.390 . S
C1977 H1981 0.950 . S
H1978 C1974 0.950 . S
C1979 C1977 1.390 . S
C1979 C1980 1.387 . S
C1979 H1982 0.950 . S
C1980 C1979 1.387 . S
C1980 C1983 1.387 . S
H1981 C1977 0.950 . S
H1982 C1979 0.950 . S
C1983 C1974 1.390 . S
C1983 H1976 0.950 . S
C1983 C1980 1.387 . S
C1984 C1985 1.387 . S
C1984 H1988 0.950 . S
C1984 C1993 1.390 . S
C1985 C1984 1.387 . S
C1985 C1987 1.387 . S
H1986 C1993 0.950 . S
C1987 C1985 1.387 . S
C1987 C1989 1.390 . S
C1987 H1991 0.950 . S
H1988 C1984 0.950 . S
C1989 C1987 1.390 . S
C1989 C1990 1.387 . S
C1989 H1992 0.950 . S
C1990 C1989 1.387 . S
C1990 C1993 1.387 . S
H1991 C1987 0.950 . S
H1992 C1989 0.950 . S
C1993 C1984 1.390 . S
C1993 H1986 0.950 . S
C1993 C1990 1.387 . S
C1994 C1995 1.387 . S
C1994 H1998 0.950 . S
C1994 C2003 1.390 . S
C1995 C1994 1.387 . S
C1995 C1997 1.387 . S
H1996 C2003 0.950 . S
C1997 C1995 1.387 . S
C1997 C1999 1.390 . S
C1997 H2001 0.950 . S
H1998 C1994 0.950 . S
C1999 C1997 1.390 . S
C1999 C2000 1.387 . S
C1999 H2002 0.950 . S
C2000 C1999 1.387 . S
C2000 C2003 1.387 . S
H2001 C1997 0.950 . S
H2002 C1999 0.950 . S
C2003 C1994 1.390 . S
C2003 H1996 0.950 . S
C2003 C2000 1.387 . S
C2004 C2005 1.387 . S
C2004 H2008 0.950 . S
C2004 C2013 1.390 . S
C2005 C2004 1.387 . S
C2005 C2007 1.387 . S
H2006 C2013 0.950 . S
C2007 C2005 1.387 . S
C2007 C2009 1.390 . S
C2007 H2011 0.950 . S
H2008 C2004 0.950 . S
C2009 C2007 1.390 . S
C2009 C2010 1.387 . S
C2009 H2012 0.950 1_655 S
C2010 C2009 1.387 . S
C2010 C2013 1.387 . S
H2011 C2007 0.950 . S
H2012 C2009 0.950 1_455 S
C2013 C2004 1.390 . S
C2013 H2006 0.950 . S
C2013 C2010 1.387 . S
C2014 C2015 1.387 . S
C2014 H2018 0.950 . S
C2014 C2023 1.390 . S
C2015 C2014 1.387 . S
C2015 C2017 1.387 . S
H2016 C2023 0.950 . S
C2017 C2015 1.387 . S
C2017 C2019 1.390 . S
C2017 H2021 0.950 . S
H2018 C2014 0.950 . S
C2019 C2017 1.390 . S
C2019 C2020 1.387 . S
C2019 H2022 0.950 . S
C2020 C2019 1.387 . S
C2020 C2023 1.387 . S
H2021 C2017 0.950 . S
H2022 C2019 0.950 . S
C2023 C2014 1.390 . S
C2023 H2016 0.950 . S
C2023 C2020 1.387 . S
C2024 C2025 1.387 . S
C2024 H2028 0.950 . S
C2024 C2033 1.390 . S
C2025 C2024 1.387 . S
C2025 C2027 1.387 . S
H2026 C2033 0.950 . S
C2027 C2025 1.387 . S
C2027 C2029 1.390 . S
C2027 H2031 0.950 . S
H2028 C2024 0.950 . S
C2029 C2027 1.390 . S
C2029 C2030 1.387 . S
C2029 H2032 0.950 . S
C2030 C2029 1.387 . S
C2030 C2033 1.387 . S
H2031 C2027 0.950 . S
H2032 C2029 0.950 . S
C2033 C2024 1.390 . S
C2033 H2026 0.950 . S
C2033 C2030 1.387 . S
C2034 C2035 1.387 . S
C2034 H2038 0.950 . S
C2034 C2043 1.390 . S
C2035 C2034 1.387 . S
C2035 C2037 1.387 . S
H2036 C2043 0.950 . S
C2037 C2035 1.387 . S
C2037 C2039 1.390 . S
C2037 H2041 0.950 . S
H2038 C2034 0.950 . S
C2039 C2037 1.390 . S
C2039 C2040 1.387 . S
C2039 H2042 0.950 . S
C2040 C2039 1.387 . S
C2040 C2043 1.387 . S
H2041 C2037 0.950 . S
H2042 C2039 0.950 . S
C2043 C2034 1.390 . S
C2043 H2036 0.950 . S
C2043 C2040 1.387 . S
C2044 C2045 1.387 . S
C2044 H2048 0.950 . S
C2044 C2053 1.390 . S
C2045 C2044 1.387 . S
C2045 C2047 1.387 . S
H2046 C2053 0.950 . S
C2047 C2045 1.387 . S
C2047 C2049 1.390 . S
C2047 H2051 0.950 . S
H2048 C2044 0.950 . S
C2049 C2047 1.390 . S
C2049 C2050 1.387 . S
C2049 H2052 0.950 . S
C2050 C2049 1.387 . S
C2050 C2053 1.387 . S
H2051 C2047 0.950 . S
H2052 C2049 0.950 . S
C2053 C2044 1.390 . S
C2053 H2046 0.950 . S
C2053 C2050 1.387 . S
C2054 C2055 1.387 . S
C2054 H2058 0.950 . S
C2054 C2063 1.390 . S
C2055 C2054 1.387 . S
C2055 C2057 1.387 . S
H2056 C2063 0.950 . S
C2057 C2055 1.387 . S
C2057 C2059 1.390 . S
C2057 H2061 0.950 . S
H2058 C2054 0.950 . S
C2059 C2057 1.390 . S
C2059 C2060 1.387 . S
C2059 H2062 0.950 . S
C2060 C2059 1.387 . S
C2060 C2063 1.387 . S
H2061 C2057 0.950 . S
H2062 C2059 0.950 . S
C2063 C2054 1.390 . S
C2063 H2056 0.950 . S
C2063 C2060 1.387 . S
C2064 C2065 1.387 . S
C2064 H2068 0.950 . S
C2064 C2073 1.390 . S
C2065 C2064 1.387 . S
C2065 C2067 1.387 . S
H2066 C2073 0.950 . S
C2067 C2065 1.387 . S
C2067 C2069 1.390 . S
C2067 H2071 0.950 . S
H2068 C2064 0.950 . S
C2069 C2067 1.390 . S
C2069 C2070 1.387 . S
C2069 H2072 0.950 . S
C2070 C2069 1.387 . S
C2070 C2073 1.387 . S
H2071 C2067 0.950 . S
H2072 C2069 0.950 . S
C2073 C2064 1.390 . S
C2073 H2066 0.950 . S
C2073 C2070 1.387 . S
C2074 C2075 1.387 . S
C2074 H2078 0.950 . S
C2074 C2083 1.390 . S
C2075 C2074 1.387 . S
C2075 C2077 1.387 . S
H2076 C2083 0.950 . S
C2077 C2075 1.387 . S
C2077 C2079 1.390 . S
C2077 H2081 0.950 . S
H2078 C2074 0.950 . S
C2079 C2077 1.390 . S
C2079 C2080 1.387 . S
C2079 H2082 0.950 . S
C2080 C2079 1.387 . S
C2080 C2083 1.387 . S
H2081 C2077 0.950 . S
H2082 C2079 0.950 . S
C2083 C2074 1.390 . S
C2083 H2076 0.950 . S
C2083 C2080 1.387 . S
C2084 C2085 1.387 . S
C2084 H2088 0.950 . S
C2084 C2093 1.390 . S
C2085 C2084 1.387 . S
C2085 C2087 1.387 . S
H2086 C2093 0.950 . S
C2087 C2085 1.387 . S
C2087 C2089 1.390 . S
C2087 H2091 0.950 . S
H2088 C2084 0.950 . S
C2089 C2087 1.390 . S
C2089 C2090 1.387 . S
C2089 H2092 0.950 . S
C2090 C2089 1.387 . S
C2090 C2093 1.387 . S
H2091 C2087 0.950 . S
H2092 C2089 0.950 . S
C2093 C2084 1.390 . S
C2093 H2086 0.950 . S
C2093 C2090 1.387 . S
C2094 C2095 1.387 . S
C2094 H2098 0.950 1_554 S
C2094 C2103 1.390 . S
C2095 C2094 1.387 . S
C2095 C2097 1.387 . S
H2096 C2103 0.950 1_556 S
C2097 C2095 1.387 . S
C2097 C2099 1.390 . S
C2097 H2101 0.950 . S
H2098 C2094 0.950 1_556 S
C2099 C2097 1.390 . S
C2099 C2100 1.387 . S
C2099 H2102 0.950 . S
C2100 C2099 1.387 . S
C2100 C2103 1.387 . S
H2101 C2097 0.950 . S
H2102 C2099 0.950 . S
C2103 C2094 1.390 . S
C2103 H2096 0.950 1_554 S
C2103 C2100 1.387 . S
C2104 C2105 1.387 . S
C2104 H2108 0.950 . S
C2104 C2113 1.390 . S
C2105 C2104 1.387 . S
C2105 C2107 1.387 . S
H2106 C2113 0.950 . S
C2107 C2105 1.387 . S
C2107 C2109 1.390 . S
C2107 H2111 0.950 . S
H2108 C2104 0.950 . S
C2109 C2107 1.390 . S
C2109 C2110 1.387 . S
C2109 H2112 0.950 . S
C2110 C2109 1.387 . S
C2110 C2113 1.387 . S
H2111 C2107 0.950 . S
H2112 C2109 0.950 . S
C2113 C2104 1.390 . S
C2113 H2106 0.950 . S
C2113 C2110 1.387 . S
C2114 C2115 1.387 . S
C2114 H2118 0.950 . S
C2114 C2123 1.390 . S
C2115 C2114 1.387 . S
C2115 C2117 1.387 . S
H2116 C2123 0.950 . S
C2117 C2115 1.387 . S
C2117 C2119 1.390 . S
C2117 H2121 0.950 . S
H2118 C2114 0.950 . S
C2119 C2117 1.390 . S
C2119 C2120 1.387 . S
C2119 H2122 0.950 . S
C2120 C2119 1.387 . S
C2120 C2123 1.387 . S
H2121 C2117 0.950 . S
H2122 C2119 0.950 . S
C2123 C2114 1.390 . S
C2123 H2116 0.950 . S
C2123 C2120 1.387 . S
C2124 C2125 1.387 . S
C2124 H2128 0.950 . S
C2124 C2133 1.390 . S
C2125 C2124 1.387 . S
C2125 C2127 1.387 . S
H2126 C2133 0.950 . S
C2127 C2125 1.387 . S
C2127 C2129 1.390 . S
C2127 H2131 0.950 . S
H2128 C2124 0.950 . S
C2129 C2127 1.390 . S
C2129 C2130 1.387 . S
C2129 H2132 0.950 . S
C2130 C2129 1.387 . S
C2130 C2133 1.387 . S
H2131 C2127 0.950 . S
H2132 C2129 0.950 . S
C2133 C2124 1.390 . S
C2133 H2126 0.950 . S
C2133 C2130 1.387 . S
C2134 C2135 1.387 . S
C2134 H2138 0.950 . S
C2134 C2143 1.390 . S
C2135 C2134 1.387 . S
C2135 C2137 1.387 . S
H2136 C2143 0.950 . S
C2137 C2135 1.387 . S
C2137 C2139 1.390 . S
C2137 H2141 0.950 . S
H2138 C2134 0.950 . S
C2139 C2137 1.390 . S
C2139 C2140 1.387 . S
C2139 H2142 0.950 . S
C2140 C2139 1.387 . S
C2140 C2143 1.387 . S
H2141 C2137 0.950 . S
H2142 C2139 0.950 . S
C2143 C2134 1.390 . S
C2143 H2136 0.950 . S
C2143 C2140 1.387 . S
C1185 C255 1.499 . S
C1190 C868 1.270 1_556 S
C1195 C147 1.523 . S
C1200 C903 1.497 . S
C1205 C184 1.195 . S
C1210 C908 1.081 . S
C1220 C933 1.365 . S
C1215 C220 1.440 . S
C1225 C40 1.410 . S
C1230 C953 1.318 . S
C1240 C968 1.135 . S
C1235 C74 1.260 . S
C1250 C1003 1.538 . S
C1245 C110 1.567 . S
C1255 C14 1.494 . S
C1260 C1008 1.250 . S
C1270 C883 1.639 1_655 S
C1265 C579 1.724 . S
C1275 C616 1.162 . S
C1280 C893 1.099 . S
C1290 C923 1.478 . S
C1285 C687 1.511 . S
C1300 C928 1.209 . S
C1295 C436 1.320 . S
C1305 C580 1.297 . S
C1310 C948 1.191 . S
C1320 C983 1.460 . S
C1315 C615 1.495 . S
C1330 C993 1.107 . S
C1325 C688 1.182 . S
C1340 C1023 1.620 . S
C1335 C435 1.718 . S
C1350 C873 1.363 . S
C1345 C410 1.529 . S
C1355 C722 1.818 . S
C1360 C1043 1.805 . S
C1370 C1053 1.529 . S
C1365 C842 1.665 . S
C1380 C1068 1.098 . S
C1375 C794 1.198 . S
C1385 C302 1.603 . S
C1390 C1013 1.389 . S
C1395 C338 1.629 . S
C1400 C913 1.510 . S
C1405 C830 1.842 . S
C1410 C1103 1.841 . S
C1420 C1108 1.123 . S
C1415 C758 1.205 . S
C1430 C866 1.265 . S
C1425 C158 1.414 . S
C1440 C1122 1.498 . S
C1435 C254 1.533 . S
C1445 C218 1.225 . S
C1450 C906 1.092 . S
C1455 C194 1.373 . S
C1460 C1096 1.349 . S
C1470 C956 1.315 . S
C1465 C3 1.405 . S
C1475 C111 1.161 . S
C1480 C1046 1.047 . S
C1490 C1002 1.503 1_556 S
C1485 C76 1.529 . S
C1500 C1126 1.287 . S
C1495 C50 1.423 . S
C1510 C882 1.611 . S
C1505 C364 1.747 . S
C1520 C1116 1.080 . S
C1515 C795 1.171 . S
C1525 C292 1.462 . S
C1530 C922 1.428 . S
C1535 C723 1.282 . S
C1540 C1086 1.156 . S
C1545 C363 1.291 . S
C1550 C946 1.167 . S
C1560 C1062 1.454 . S
C1555 C796 1.483 . S
C1565 C291 1.159 . S
C1570 C996 1.079 . S
C1575 C724 1.750 . S
C1580 C1142 1.627 . S
C1585 C482 1.453 . S
C1590 C876 1.366 . S
C1595 C434 1.798 . S
C1600 C1042 1.799 . S
C1605 C662 1.509 . S
C1610 C976 1.510 . S
C1615 C614 1.196 . S
C1620 C1066 1.094 . S
C1630 C1136 1.376 . S
C1625 C698 1.444 . S
C1635 C554 1.508 . S
C1640 C916 1.494 . S
C1650 C942 1.789 . S
C1645 C650 1.795 . S
C1660 C886 1.098 . S
C1655 C506 1.217 . S
C1665 C183 1.502 . S
C1670 C1148 1.275 . S
C1680 C1123 1.495 . S
C1675 C219 1.522 . S
C1685 C256 1.193 . S
C1690 C1168 1.073 . S
C1695 C148 1.439 . S
C1700 C1093 1.363 . S
C1705 C122 1.455 . S
C1710 C1033 1.393 . S
C1720 C1048 1.086 . S
C1715 C2 1.208 . S
C1730 C1083 1.438 . S
C1725 C39 1.467 . S
C1740 C1128 1.292 . S
C1735 C86 1.524 . S
C1750 C1163 1.652 . S
C1745 C651 1.737 . S
C1755 C472 1.163 . S
C1760 C1113 1.102 . S
C1770 C1183 1.466 . S
C1765 C507 1.500 . S
C1780 C1088 1.205 . S
C1775 C544 1.321 . S
C1790 C1028 1.187 . S
C1785 C652 1.301 . S
C1795 C471 1.475 . S
C1800 C1063 1.437 . S
C1810 C1073 1.093 . S
C1805 C508 1.164 . S
C1815 C543 1.724 . S
C1820 C1143 1.635 . S
C1830 C1153 1.374 . S
C1825 C806 1.549 . S
C1835 C326 1.797 . S
C1840 C963 1.789 . S
C1850 C973 1.517 . S
C1845 C374 1.646 . S
C1860 C988 1.108 . S
C1855 C398 1.225 . S
C1870 C1133 1.380 . S
C1865 C770 1.573 . S
C1875 C734 1.622 1_554 S
C1880 C1173 1.502 . S
C1890 C943 1.832 . S
C1885 C362 1.832 . S
C1900 C888 1.134 . S
C1895 C290 1.223 . S
C1905 C230 1.412 . S
C1910 C1146 1.263 . S
C1920 C902 1.501 . S
C1915 C182 1.535 . S
C1925 C146 1.220 . S
C1930 C1166 1.085 . S
C1935 C266 1.373 . S
C1940 C936 1.344 . S
C1945 C75 1.452 . S
C1950 C1036 1.357 . S
C1960 C966 1.119 . S
C1955 C38 1.248 . S
C1965 C4 1.461 . S
C1970 C1082 1.433 . S
C1975 C112 1.540 . S
C1980 C1006 1.253 . S
C1990 C1162 1.616 . S
C1985 C832 1.747 . S
C1995 C399 1.180 . S
C2000 C896 1.083 . S
C2010 C1182 1.421 1_655 S
C2005 C760 1.457 . S
C2015 C327 1.280 . S
C2020 C926 1.161 . S
C2025 C831 1.309 . S
C2030 C1026 1.187 . S
C2040 C982 1.443 . S
C2035 C400 1.482 . S
C2045 C759 1.179 . S
C2050 C1076 1.090 . S
C2060 C1022 1.629 . S
C2055 C328 1.742 . S
C2070 C1156 1.383 . S
C2065 C626 1.465 . S
C2080 C962 1.796 . S
C2075 C542 1.799 . S
C2085 C590 1.487 . S
C2090 C1056 1.493 . S
C2100 C986 1.100 . S
C2095 C470 1.190 . S
C2105 C518 1.416 . S
C2110 C1016 1.359 . S
C2115 C446 1.499 . S
C2120 C1176 1.485 . S
C2130 C1102 1.797 . S
C2125 C578 1.806 . S
C2140 C1106 1.081 . S
C2135 C686 1.199 . S
