# Generated by pormake.
# Topology ocu, (6,8)-cn, num edge types: 1
# Building blocks:
#     Node 0, Type 0, BuildingBlock: CUWYAW_clean_sbu_0, # of connection points: 6
#     Node 1, Type 0, BuildingBlock: CUWYAW_clean_sbu_0, # of connection points: 6
#     Node 2, Type 0, BuildingBlock: CUWYAW_clean_sbu_0, # of connection points: 6
#     Node 3, Type 0, BuildingBlock: CUWYAW_clean_sbu_0, # of connection points: 6
#     Node 4, Type 0, BuildingBlock: CUWYAW_clean_sbu_0, # of connection points: 6
#     Node 5, Type 0, BuildingBlock: CUWYAW_clean_sbu_0, # of connection points: 6
#     Node 6, Type 0, BuildingBlock: CUWYAW_clean_sbu_0, # of connection points: 6
#     Node 7, Type 0, BuildingBlock: CUWYAW_clean_sbu_0, # of connection points: 6
#     Node 8, Type 1, BuildingBlock: TAGTUT_clean_sbu_1, # of connection points: 8
#     Node 9, Type 1, BuildingBlock: TAGTUT_clean_sbu_1, # of connection points: 8
#     Node 10, Type 1, BuildingBlock: TAGTUT_clean_sbu_1, # of connection points: 8
#     Node 11, Type 1, BuildingBlock: TAGTUT_clean_sbu_1, # of connection points: 8
#     Node 12, Type 1, BuildingBlock: TAGTUT_clean_sbu_1, # of connection points: 8
#     Node 13, Type 1, BuildingBlock: TAGTUT_clean_sbu_1, # of connection points: 8
#     Edge 14, Type (0, 1), BuildingBlock: TEMPAE_clean_linker_10, # of connection points: 2
#     Edge 15, Type (0, 1), BuildingBlock: TEMPAE_clean_linker_10, # of connection points: 2
#     Edge 16, Type (0, 1), BuildingBlock: TEMPAE_clean_linker_10, # of connection points: 2
#     Edge 17, Type (0, 1), BuildingBlock: TEMPAE_clean_linker_10, # of connection points: 2
#     Edge 18, Type (0, 1), BuildingBlock: TEMPAE_clean_linker_10, # of connection points: 2
#     Edge 19, Type (0, 1), BuildingBlock: TEMPAE_clean_linker_10, # of connection points: 2
#     Edge 20, Type (0, 1), BuildingBlock: TEMPAE_clean_linker_10, # of connection points: 2
#     Edge 21, Type (0, 1), BuildingBlock: TEMPAE_clean_linker_10, # of connection points: 2
#     Edge 22, Type (0, 1), BuildingBlock: TEMPAE_clean_linker_10, # of connection points: 2
#     Edge 23, Type (0, 1), BuildingBlock: TEMPAE_clean_linker_10, # of connection points: 2
#     Edge 24, Type (0, 1), BuildingBlock: TEMPAE_clean_linker_10, # of connection points: 2
#     Edge 25, Type (0, 1), BuildingBlock: TEMPAE_clean_linker_10, # of connection points: 2
#     Edge 26, Type (0, 1), BuildingBlock: TEMPAE_clean_linker_10, # of connection points: 2
#     Edge 27, Type (0, 1), BuildingBlock: TEMPAE_clean_linker_10, # of connection points: 2
#     Edge 28, Type (0, 1), BuildingBlock: TEMPAE_clean_linker_10, # of connection points: 2
#     Edge 29, Type (0, 1), BuildingBlock: TEMPAE_clean_linker_10, # of connection points: 2
#     Edge 30, Type (0, 1), BuildingBlock: TEMPAE_clean_linker_10, # of connection points: 2
#     Edge 31, Type (0, 1), BuildingBlock: TEMPAE_clean_linker_10, # of connection points: 2
#     Edge 32, Type (0, 1), BuildingBlock: TEMPAE_clean_linker_10, # of connection points: 2
#     Edge 33, Type (0, 1), BuildingBlock: TEMPAE_clean_linker_10, # of connection points: 2
#     Edge 34, Type (0, 1), BuildingBlock: TEMPAE_clean_linker_10, # of connection points: 2
#     Edge 35, Type (0, 1), BuildingBlock: TEMPAE_clean_linker_10, # of connection points: 2
#     Edge 36, Type (0, 1), BuildingBlock: TEMPAE_clean_linker_10, # of connection points: 2
#     Edge 37, Type (0, 1), BuildingBlock: TEMPAE_clean_linker_10, # of connection points: 2
#     Edge 38, Type (0, 1), BuildingBlock: TEMPAE_clean_linker_10, # of connection points: 2
#     Edge 39, Type (0, 1), BuildingBlock: TEMPAE_clean_linker_10, # of connection points: 2
#     Edge 40, Type (0, 1), BuildingBlock: TEMPAE_clean_linker_10, # of connection points: 2
#     Edge 41, Type (0, 1), BuildingBlock: TEMPAE_clean_linker_10, # of connection points: 2
#     Edge 42, Type (0, 1), BuildingBlock: TEMPAE_clean_linker_10, # of connection points: 2
#     Edge 43, Type (0, 1), BuildingBlock: TEMPAE_clean_linker_10, # of connection points: 2
#     Edge 44, Type (0, 1), BuildingBlock: TEMPAE_clean_linker_10, # of connection points: 2
#     Edge 45, Type (0, 1), BuildingBlock: TEMPAE_clean_linker_10, # of connection points: 2
#     Edge 46, Type (0, 1), BuildingBlock: TEMPAE_clean_linker_10, # of connection points: 2
#     Edge 47, Type (0, 1), BuildingBlock: TEMPAE_clean_linker_10, # of connection points: 2
#     Edge 48, Type (0, 1), BuildingBlock: TEMPAE_clean_linker_10, # of connection points: 2
#     Edge 49, Type (0, 1), BuildingBlock: TEMPAE_clean_linker_10, # of connection points: 2
#     Edge 50, Type (0, 1), BuildingBlock: TEMPAE_clean_linker_10, # of connection points: 2
#     Edge 51, Type (0, 1), BuildingBlock: TEMPAE_clean_linker_10, # of connection points: 2
#     Edge 52, Type (0, 1), BuildingBlock: TEMPAE_clean_linker_10, # of connection points: 2
#     Edge 53, Type (0, 1), BuildingBlock: TEMPAE_clean_linker_10, # of connection points: 2
#     Edge 54, Type (0, 1), BuildingBlock: TEMPAE_clean_linker_10, # of connection points: 2
#     Edge 55, Type (0, 1), BuildingBlock: TEMPAE_clean_linker_10, # of connection points: 2
#     Edge 56, Type (0, 1), BuildingBlock: TEMPAE_clean_linker_10, # of connection points: 2
#     Edge 57, Type (0, 1), BuildingBlock: TEMPAE_clean_linker_10, # of connection points: 2
#     Edge 58, Type (0, 1), BuildingBlock: TEMPAE_clean_linker_10, # of connection points: 2
#     Edge 59, Type (0, 1), BuildingBlock: TEMPAE_clean_linker_10, # of connection points: 2
#     Edge 60, Type (0, 1), BuildingBlock: TEMPAE_clean_linker_10, # of connection points: 2
#     Edge 61, Type (0, 1), BuildingBlock: TEMPAE_clean_linker_10, # of connection points: 2
# Relax obj value: 0.147
# Max RMSD: 0.222
# Mean RMSD: 0.130
data_MOF--net-ocu--node1-CUWYAW_clean_sbu_0--node2-TAGTUT_clean_sbu_1--edge1-TEMPAE_clean_linker_10
_symmetry_space_group_name_H-M    P1
_symmetry_Int_Tables_number       1
_symmetry_cell_setting            triclinic
loop_
_symmetry_equiv_pos_as_xyz
'x, y, z'
_cell_length_a     42.323923
_cell_length_b     40.409392
_cell_length_c     40.800892
_cell_angle_alpha  84.790651
_cell_angle_beta   102.80285
_cell_angle_gamma 109.96749
loop_
_atom_site_label
_atom_site_type_symbol
_atom_site_fract_x
_atom_site_fract_y
_atom_site_fract_z
_atom_type_partial_charge
C0 C 0.3265 0.35588 0.34661 0.0
Eu1 Eu 0.30061 0.30369 0.30433 0.0
C2 C 0.31701 0.36877 0.37407 0.0
C3 C 0.33249 0.40424 0.38287 0.0
C4 C 0.32213 0.41767 0.40742 0.0
C5 C 0.29623 0.39569 0.42355 0.0
C6 C 0.28148 0.35985 0.41533 0.0
C7 C 0.2917 0.34649 0.39061 0.0
C8 C 0.33497 0.31582 0.25067 0.0
C9 C 0.23412 0.31541 0.25347 0.0
C10 C 0.23983 0.20143 0.22329 0.0
Eu11 Eu 0.26624 0.25417 0.26488 0.0
C12 C 0.25191 0.18246 0.20271 0.0
C13 C 0.22858 0.16153 0.17648 0.0
C14 C 0.24003 0.14415 0.15595 0.0
C15 C 0.27492 0.14743 0.16167 0.0
C16 C 0.29812 0.16822 0.18825 0.0
C17 C 0.2867 0.18571 0.20856 0.0
C18 C 0.23214 0.24289 0.31863 0.0
C19 C 0.33197 0.24205 0.31552 0.0
O20 O 0.33254 0.3262 0.35199 0.0
O21 O 0.30809 0.35761 0.31683 0.0
O22 O 0.34866 0.31669 0.28223 0.0
O23 O 0.30248 0.30575 0.24816 0.0
O24 O 0.25217 0.32089 0.28463 0.0
O25 O 0.23832 0.29129 0.23697 0.0
O26 O 0.24309 0.23392 0.21422 0.0
O27 O 0.24897 0.19789 0.25566 0.0
O28 O 0.21838 0.24296 0.28706 0.0
O29 O 0.26457 0.25228 0.32099 0.0
O30 O 0.3151 0.23793 0.28394 0.0
O31 O 0.32633 0.26477 0.33266 0.0
H32 H 0.35207 0.4217 0.37023 0.0
H33 H 0.33392 0.44534 0.41339 0.0
H34 H 0.26107 0.34249 0.42703 0.0
H35 H 0.27934 0.31904 0.38387 0.0
H36 H 0.20162 0.15892 0.1717 0.0
H37 H 0.22171 0.12823 0.13563 0.0
H38 H 0.32526 0.1717 0.19279 0.0
H39 H 0.30508 0.20207 0.22854 0.0
C40 C 0.79887 0.25923 0.21399 0.0
Eu41 Eu 0.78484 0.26954 0.27024 0.0
C42 C 0.78251 0.25101 0.17862 0.0
C43 C 0.78537 0.22198 0.16453 0.0
C44 C 0.78479 0.22217 0.13013 0.0
C45 C 0.78494 0.2531 0.11122 0.0
C46 C 0.7707 0.27553 0.12296 0.0
C47 C 0.77097 0.27548 0.1572 0.0
C48 C 0.72945 0.21555 0.28361 0.0
C49 C 0.73017 0.31227 0.25635 0.0
C50 C 0.75224 0.29075 0.38192 0.0
Eu51 Eu 0.76608 0.28466 0.32396 0.0
C52 C 0.77097 0.28771 0.41626 0.0
C53 C 0.75247 0.27363 0.44164 0.0
C54 C 0.76619 0.25565 0.4688 0.0
C55 C 0.79682 0.24928 0.46853 0.0
C56 C 0.81911 0.27193 0.449 0.0
C57 C 0.8057 0.29019 0.42183 0.0
C58 C 0.81974 0.33949 0.3089 0.0
C59 C 0.82475 0.24577 0.33611 0.0
O60 O 0.80378 0.29055 0.22463 0.0
O61 O 0.79 0.23429 0.23601 0.0
O62 O 0.75912 0.21308 0.28426 0.0
O63 O 0.7327 0.24778 0.28313 0.0
O64 O 0.75522 0.30687 0.24547 0.0
O65 O 0.72514 0.30045 0.2866 0.0
O66 O 0.73968 0.2615 0.36502 0.0
O67 O 0.76735 0.31748 0.36415 0.0
O68 O 0.79045 0.34154 0.31086 0.0
O69 O 0.81757 0.3075 0.31005 0.0
O70 O 0.79874 0.24874 0.34747 0.0
O71 O 0.82904 0.25902 0.30624 0.0
H72 H 0.79259 0.2017 0.18048 0.0
H73 H 0.7927 0.20261 0.1208 0.0
H74 H 0.76705 0.29804 0.10812 0.0
H75 H 0.76651 0.29706 0.16719 0.0
H76 H 0.72597 0.27238 0.4383 0.0
H77 H 0.74929 0.24021 0.4851 0.0
H78 H 0.84386 0.26922 0.4498 0.0
H79 H 0.82088 0.30193 0.40297 0.0
C80 C 0.84334 0.74203 0.36866 0.0
Eu81 Eu 0.79857 0.75756 0.32245 0.0
C82 C 0.86148 0.71806 0.36431 0.0
C83 C 0.84285 0.68364 0.35287 0.0
C84 C 0.85934 0.66327 0.34234 0.0
C85 C 0.89461 0.67708 0.34253 0.0
C86 C 0.91328 0.71138 0.35405 0.0
C87 C 0.89687 0.73164 0.36501 0.0
C88 C 0.74104 0.71431 0.28545 0.0
C89 C 0.8202 0.74066 0.25114 0.0
C90 C 0.7288 0.80444 0.20937 0.0
Eu91 Eu 0.77356 0.78912 0.2558 0.0
C92 C 0.71114 0.8291 0.2129 0.0
C93 C 0.73021 0.86331 0.22467 0.0
C94 C 0.71379 0.88471 0.23347 0.0
C95 C 0.67817 0.87212 0.2312 0.0
C96 C 0.6591 0.8379 0.21976 0.0
C97 C 0.67547 0.81658 0.21053 0.0
C98 C 0.83116 0.83259 0.29287 0.0
C99 C 0.75209 0.8062 0.32713 0.0
O100 O 0.85105 0.77112 0.35053 0.0
O101 O 0.81023 0.72777 0.368 0.0
O102 O 0.74673 0.71382 0.3182 0.0
O103 O 0.76648 0.73556 0.27531 0.0
O104 O 0.82377 0.73853 0.28473 0.0
O105 O 0.80068 0.75852 0.23338 0.0
O106 O 0.72088 0.77593 0.22825 0.0
O107 O 0.7619 0.81814 0.20976 0.0
O108 O 0.82514 0.83318 0.2601 0.0
O109 O 0.80573 0.81116 0.30289 0.0
O110 O 0.74836 0.80816 0.29351 0.0
O111 O 0.77168 0.78839 0.34488 0.0
H112 H 0.81536 0.67265 0.35116 0.0
H113 H 0.84454 0.6367 0.334 0.0
H114 H 0.94075 0.72219 0.35545 0.0
H115 H 0.91163 0.75831 0.37312 0.0
H116 H 0.75789 0.87341 0.22776 0.0
H117 H 0.72886 0.91121 0.24186 0.0
H118 H 0.63142 0.82806 0.21697 0.0
H119 H 0.6604 0.79004 0.20225 0.0
C120 C 0.22513 0.83552 0.26529 0.0
Eu121 Eu 0.26293 0.79536 0.27328 0.0
C122 C 0.21602 0.85317 0.28958 0.0
C123 C 0.20876 0.88445 0.28044 0.0
C124 C 0.20516 0.90421 0.30486 0.0
C125 C 0.20898 0.89289 0.33869 0.0
C126 C 0.21563 0.86114 0.34751 0.0
C127 C 0.21933 0.84157 0.32318 0.0
C128 C 0.25902 0.74702 0.22908 0.0
C129 C 0.24008 0.73063 0.32809 0.0
C130 C 0.34484 0.71191 0.3046 0.0
Eu131 Eu 0.30842 0.75331 0.2982 0.0
C132 C 0.35004 0.69197 0.27938 0.0
C133 C 0.35918 0.66178 0.28884 0.0
C134 C 0.36004 0.64036 0.26427 0.0
C135 C 0.35167 0.64892 0.22996 0.0
C136 C 0.34253 0.67932 0.22075 0.0
C137 C 0.34151 0.70052 0.24525 0.0
C138 C 0.31296 0.80212 0.34223 0.0
C139 C 0.33185 0.81912 0.24439 0.0
O140 O 0.25779 0.8472 0.26477 0.0
O141 O 0.21232 0.8011 0.26502 0.0
O142 O 0.25553 0.77733 0.22033 0.0
O143 O 0.26085 0.74236 0.26015 0.0
O144 O 0.23897 0.76233 0.317 0.0
O145 O 0.26225 0.71857 0.31918 0.0
O146 O 0.31327 0.70149 0.30886 0.0
O147 O 0.35808 0.74623 0.30257 0.0
O148 O 0.31728 0.77218 0.35124 0.0
O149 O 0.31068 0.80633 0.31111 0.0
O150 O 0.33303 0.78732 0.25515 0.0
O151 O 0.30924 0.83072 0.253 0.0
H152 H 0.20689 0.89407 0.25465 0.0
H153 H 0.20017 0.92867 0.29745 0.0
H154 H 0.21799 0.85138 0.37325 0.0
H155 H 0.22562 0.81783 0.3308 0.0
H156 H 0.36497 0.65443 0.31513 0.0
H157 H 0.3669 0.61695 0.2721 0.0
H158 H 0.33655 0.68702 0.19459 0.0
H159 H 0.33357 0.72333 0.23752 0.0
C160 C 0.36994 0.86114 0.80157 0.0
Eu161 Eu 0.31243 0.80861 0.78882 0.0
C162 C 0.39819 0.88226 0.7853 0.0
C163 C 0.39204 0.8992 0.75419 0.0
C164 C 0.41904 0.91618 0.73782 0.0
C165 C 0.45247 0.91618 0.75215 0.0
C166 C 0.4588 0.90031 0.78381 0.0
C167 C 0.43184 0.88371 0.8004 0.0
C168 C 0.29089 0.75891 0.74151 0.0
C169 C 0.23871 0.81551 0.75231 0.0
C170 C 0.19145 0.69299 0.78819 0.0
Eu171 Eu 0.24856 0.74555 0.79843 0.0
C172 C 0.15572 0.68745 0.78939 0.0
C173 C 0.1344 0.6533 0.7948 0.0
C174 C 0.10397 0.64796 0.80554 0.0
C175 C 0.09431 0.67681 0.81102 0.0
C176 C 0.11396 0.71079 0.80178 0.0
C177 C 0.14469 0.71611 0.79134 0.0
C178 C 0.2715 0.79573 0.8458 0.0
C179 C 0.32132 0.7393 0.83434 0.0
O180 O 0.33996 0.86521 0.79104 0.0
O181 O 0.36762 0.82822 0.80737 0.0
O182 O 0.30638 0.79196 0.73503 0.0
O183 O 0.29089 0.75414 0.77223 0.0
O184 O 0.27238 0.83186 0.75955 0.0
O185 O 0.22458 0.78298 0.76372 0.0
O186 O 0.21267 0.69951 0.81738 0.0
O187 O 0.20375 0.71325 0.76385 0.0
O188 O 0.25735 0.76261 0.85279 0.0
O189 O 0.27026 0.79993 0.81493 0.0
O190 O 0.28972 0.72083 0.81962 0.0
O191 O 0.33284 0.77415 0.83066 0.0
H192 H 0.36631 0.89837 0.74197 0.0
H193 H 0.41345 0.9278 0.71315 0.0
H194 H 0.48438 0.90004 0.79527 0.0
H195 H 0.43706 0.87092 0.82454 0.0
H196 H 0.14268 0.63094 0.79349 0.0
H197 H 0.08997 0.62141 0.81265 0.0
H198 H 0.10699 0.73351 0.80501 0.0
H199 H 0.16095 0.74275 0.78717 0.0
C200 C 0.32006 0.26526 0.70069 0.0
Eu201 Eu 0.29691 0.27616 0.75203 0.0
C202 C 0.33526 0.24206 0.68734 0.0
C203 C 0.36385 0.23369 0.70606 0.0
C204 C 0.38001 0.21525 0.6914 0.0
C205 C 0.36819 0.20471 0.65752 0.0
C206 C 0.33888 0.21225 0.63931 0.0
C207 C 0.32282 0.23069 0.65394 0.0
C208 C 0.32368 0.32985 0.79556 0.0
C209 C 0.32298 0.23293 0.81944 0.0
C210 C 0.24325 0.2801 0.87017 0.0
Eu211 Eu 0.26537 0.26779 0.81869 0.0
C212 C 0.22458 0.30093 0.88154 0.0
C213 C 0.20193 0.28494 0.90327 0.0
C214 C 0.18601 0.30427 0.91683 0.0
C215 C 0.19225 0.3404 0.90916 0.0
C216 C 0.21438 0.35624 0.88662 0.0
C217 C 0.2304 0.3368 0.87307 0.0
C218 C 0.24075 0.21264 0.77758 0.0
C219 C 0.23936 0.31125 0.75114 0.0
O220 O 0.28752 0.25292 0.70252 0.0
O221 O 0.33898 0.28582 0.72578 0.0
O222 O 0.32225 0.33473 0.76335 0.0
O223 O 0.31372 0.29762 0.80278 0.0
O224 O 0.3179 0.2376 0.78629 0.0
O225 O 0.30846 0.24572 0.83874 0.0
O226 O 0.27391 0.29694 0.86421 0.0
O227 O 0.22564 0.25458 0.849 0.0
O228 O 0.24048 0.20912 0.80954 0.0
O229 O 0.24923 0.24454 0.76853 0.0
O230 O 0.24291 0.3049 0.78399 0.0
O231 O 0.25505 0.29986 0.73203 0.0
H232 H 0.37434 0.24218 0.7318 0.0
H233 H 0.40255 0.21034 0.7064 0.0
H234 H 0.32833 0.2041 0.61349 0.0
H235 H 0.30092 0.23673 0.63878 0.0
H236 H 0.19691 0.25739 0.91029 0.0
H237 H 0.16871 0.29075 0.93342 0.0
H238 H 0.2201 0.38395 0.88013 0.0
H239 H 0.24779 0.35 0.85645 0.0
C240 C 0.7216 0.34944 0.76318 0.0
Eu241 Eu 0.7557 0.30573 0.76891 0.0
C242 C 0.72347 0.37566 0.78681 0.0
C243 C 0.69397 0.38331 0.78809 0.0
C244 C 0.69461 0.40511 0.81305 0.0
C245 C 0.7249 0.41985 0.83712 0.0
C246 C 0.75475 0.41286 0.83507 0.0
C247 C 0.75397 0.39078 0.81027 0.0
C248 C 0.74608 0.2556 0.72296 0.0
C249 C 0.72685 0.24137 0.82199 0.0
C250 C 0.83358 0.22165 0.80445 0.0
Eu251 Eu 0.79598 0.26236 0.79499 0.0
C252 C 0.84549 0.20662 0.78025 0.0
C253 C 0.85412 0.17595 0.78821 0.0
C254 C 0.86069 0.15907 0.76329 0.0
C255 C 0.85823 0.17256 0.73009 0.0
C256 C 0.84997 0.20356 0.72258 0.0
C257 C 0.84393 0.22046 0.74744 0.0
C258 C 0.80287 0.31248 0.83963 0.0
C259 C 0.82561 0.32646 0.74329 0.0
O260 O 0.74877 0.3556 0.75046 0.0
O261 O 0.70964 0.3167 0.77294 0.0
O262 O 0.744 0.28664 0.71551 0.0
O263 O 0.74909 0.25065 0.75438 0.0
O264 O 0.72779 0.2735 0.81063 0.0
O265 O 0.74907 0.22829 0.81492 0.0
O266 O 0.80037 0.20999 0.80172 0.0
O267 O 0.84644 0.25584 0.80757 0.0
O268 O 0.80119 0.28038 0.84781 0.0
O269 O 0.8028 0.31739 0.80867 0.0
O270 O 0.82261 0.29349 0.75261 0.0
O271 O 0.80481 0.34042 0.75212 0.0
H272 H 0.67012 0.37144 0.77051 0.0
H273 H 0.67088 0.4091 0.81429 0.0
H274 H 0.77855 0.42386 0.85298 0.0
H275 H 0.777 0.38482 0.80995 0.0
H276 H 0.85504 0.16469 0.81339 0.0
H277 H 0.86756 0.13551 0.76997 0.0
H278 H 0.84716 0.21432 0.69721 0.0
H279 H 0.83659 0.24355 0.7405 0.0
C280 C 0.79989 0.86159 0.84019 0.0
Eu281 Eu 0.79484 0.80815 0.80495 0.0
C282 C 0.78541 0.86947 0.86713 0.0
C283 C 0.80526 0.89724 0.88903 0.0
C284 C 0.79056 0.90834 0.91167 0.0
C285 C 0.7556 0.89206 0.91252 0.0
C286 C 0.73614 0.86327 0.89152 0.0
C287 C 0.75093 0.85196 0.86915 0.0
C288 C 0.83937 0.82141 0.75966 0.0
C289 C 0.74036 0.8083 0.73713 0.0
C290 C 0.77041 0.69865 0.73253 0.0
Eu291 Eu 0.77475 0.75161 0.76803 0.0
C292 C 0.78585 0.69171 0.70589 0.0
C293 C 0.76646 0.66501 0.68271 0.0
C294 C 0.78193 0.65492 0.66011 0.0
C295 C 0.81718 0.67114 0.66061 0.0
C296 C 0.83621 0.69887 0.68295 0.0
C297 C 0.82067 0.7092 0.70524 0.0
C298 C 0.7304 0.7381 0.8135 0.0
C299 C 0.82846 0.7511 0.83626 0.0
O300 O 0.82067 0.84329 0.84803 0.0
O301 O 0.77865 0.85221 0.81159 0.0
O302 O 0.84815 0.82863 0.79131 0.0
O303 O 0.80705 0.80592 0.75318 0.0
O304 O 0.74694 0.81478 0.76943 0.0
O305 O 0.75387 0.78652 0.72817 0.0
O306 O 0.74962 0.71693 0.72453 0.0
O307 O 0.79097 0.70751 0.76155 0.0
O308 O 0.72155 0.73061 0.7819 0.0
O309 O 0.76268 0.75382 0.81979 0.0
O310 O 0.82244 0.74491 0.80394 0.0
O311 O 0.81475 0.77281 0.845 0.0
H312 H 0.83186 0.91117 0.88778 0.0
H313 H 0.80614 0.93065 0.92745 0.0
H314 H 0.70927 0.8499 0.89197 0.0
H315 H 0.7351 0.83032 0.85265 0.0
H316 H 0.7396 0.65112 0.68286 0.0
H317 H 0.76668 0.63341 0.64327 0.0
H318 H 0.86332 0.71215 0.68357 0.0
H319 H 0.83615 0.73008 0.72272 0.0
C320 C 0.95001 0.08283 0.56764 0.0
C321 C 0.97307 0.10539 0.47206 0.0
C322 C 0.98035 0.9649 0.48916 0.0
Mg323 Mg 1.01893 0.10343 0.54389 0.0
O324 O 1.00532 0.05468 0.54287 0.0
Mg325 Mg 0.95856 0.02731 0.51727 0.0
Mg326 Mg 0.0352 0.02782 0.53665 0.0
O327 O 0.06509 1.00082 0.53023 0.0
Mg328 Mg 0.05073 0.95186 0.5313 0.0
Mg329 Mg 0.11111 0.02777 0.55752 0.0
C330 C 0.09074 0.0913 0.5823 0.0
C331 C 0.09647 0.08043 0.49251 0.0
O332 O 0.93616 0.05769 0.54644 0.0
O333 O 0.98176 0.10191 0.57221 0.0
O334 O 0.95899 0.07182 0.47507 0.0
O335 O 0.99878 0.12265 0.49424 0.0
O336 O 0.07254 0.1116 0.57164 0.0
O337 O 0.07962 0.05829 0.57604 0.0
C338 C 0.97483 0.97519 0.58191 0.0
O339 O 1.00687 0.98516 0.57916 0.0
O340 O 0.95397 0.98697 0.56075 0.0
O341 O 0.13407 0.99631 0.53084 0.0
O342 O 0.09023 0.94918 0.50773 0.0
O343 O 0.10839 0.98378 0.60096 0.0
C344 C 0.12184 0.96883 0.51247 0.0
O345 O 0.06684 0.93384 0.58228 0.0
O346 O 0.99849 0.94466 0.50048 0.0
C347 C 0.09246 0.95067 0.6047 0.0
O348 O 0.9904 0.99757 0.4968 0.0
O349 O 0.06433 0.07074 0.49495 0.0
O350 O 0.11704 0.06801 0.51349 0.0
C351 C 0.42017 0.08658 0.03404 0.0
C352 C 0.46894 0.1012 0.95207 0.0
C353 C 0.4729 0.96747 0.9821 0.0
Mg354 Mg 0.49678 0.10776 0.02799 0.0
O355 O 0.48571 0.05881 0.03155 0.0
Mg356 Mg 0.44391 0.02769 1.0012 0.0
Mg357 Mg 0.51983 0.03621 0.02846 0.0
O358 O 0.55399 0.01324 0.02562 0.0
Mg359 Mg 0.54067 0.96451 0.03295 0.0
Mg360 Mg 0.59358 0.04302 0.05947 0.0
C361 C 0.56438 0.10335 0.07856 0.0
C362 C 0.5834 0.09035 0.99035 0.0
O363 O 0.41331 0.05726 0.01962 0.0
O364 O 0.45055 0.1091 0.04055 0.0
O365 O 0.45142 0.0692 0.95789 0.0
O366 O 0.49179 0.12031 0.97515 0.0
O367 O 0.54519 0.12199 0.06587 0.0
O368 O 0.55791 0.07202 0.06877 0.0
C369 C 0.45887 0.98015 0.06901 0.0
O370 O 0.49138 0.99424 0.06899 0.0
O371 O 0.43691 0.98844 0.0458 0.0
O372 O 0.62503 1.00964 0.04554 0.0
O373 O 0.58685 0.9573 0.02683 0.0
O374 O 0.57782 1.00565 0.10366 0.0
C375 C 0.61765 0.97882 0.03352 0.0
O376 O 0.53637 0.95613 0.0843 0.0
O377 O 0.493 0.95008 0.99561 0.0
C378 C 0.55509 0.97627 0.10849 0.0
O379 O 0.47978 1.00011 0.98835 0.0
O380 O 0.55036 0.07823 0.98897 0.0
O381 O 0.60392 0.08071 0.01438 0.0
C382 C 0.92331 0.60038 0.12343 0.0
C383 C 0.93768 0.60776 0.02018 0.0
C384 C 0.9345 0.46347 0.03444 0.0
Mg385 Mg 0.98621 0.60632 0.09023 0.0
O386 O 0.97115 0.5567 0.09073 0.0
Mg387 Mg 0.92163 0.53275 0.07103 0.0
Mg388 Mg 0.99569 0.52794 0.07342 0.0
O389 O 1.02216 0.4991 0.05832 0.0
Mg390 Mg 1.01122 0.45012 0.06208 0.0
Mg391 Mg 0.07198 0.52618 0.07495 0.0
C392 C 0.06013 0.59074 0.11221 0.0
C393 C 0.03748 0.57543 0.01855 0.0
O394 O 0.90685 0.5709 0.10726 0.0
O395 O 0.95493 0.61687 0.12206 0.0
O396 O 0.91958 0.57631 0.02752 0.0
O397 O 0.96638 0.62365 0.03951 0.0
O398 O 0.04117 0.61066 0.10845 0.0
O399 O 0.04817 0.55795 0.10452 0.0
C400 C 0.94891 0.4756 0.12181 0.0
O401 O 0.97853 0.48803 0.11391 0.0
O402 O 0.92549 0.48995 0.11151 0.0
O403 O 0.08699 0.49209 0.03984 0.0
O404 O 0.04065 0.44387 0.02684 0.0
O405 O 0.08383 0.48462 0.11844 0.0
C406 C 0.07132 0.46274 0.02414 0.0
O407 O 0.04085 0.43365 0.11003 0.0
O408 O 0.9562 0.44631 0.04221 0.0
C409 C 0.07095 0.45167 0.12593 0.0
O410 O 0.94339 0.49697 0.04059 0.0
O411 O 1.01027 0.56656 0.03065 0.0
O412 O 0.06227 0.56374 0.03117 0.0
C413 C 0.44034 0.57852 0.0566 0.0
C414 C 0.47506 0.60503 0.96819 0.0
C415 C 0.48674 0.46701 0.98264 0.0
Mg416 Mg 0.51394 0.60127 0.0423 0.0
O417 O 0.50244 0.55294 0.03945 0.0
Mg418 Mg 0.45787 0.52504 0.01049 0.0
Mg419 Mg 0.53514 0.52868 0.03456 0.0
O420 O 0.56798 0.50432 0.0298 0.0
Mg421 Mg 0.55678 0.45587 0.02812 0.0
Mg422 Mg 0.61243 0.53248 0.05865 0.0
C423 C 0.58449 0.59085 0.08626 0.0
C424 C 0.59728 0.58401 0.99285 0.0
O425 O 0.43048 0.55233 0.03681 0.0
O426 O 0.47152 0.59915 0.06379 0.0
O427 O 0.46059 0.5713 0.96921 0.0
O428 O 0.4992 0.62125 0.99215 0.0
O429 O 0.56521 0.61004 0.0755 0.0
O430 O 0.57678 0.55924 0.0764 0.0
C431 C 0.47265 0.4728 0.07566 0.0
O432 O 0.50526 0.48437 0.07482 0.0
O433 O 0.45181 0.48362 0.0534 0.0
O434 O 0.64024 0.50484 0.03261 0.0
O435 O 0.59922 0.45756 1.00671 0.0
O436 O 0.60921 0.48711 0.10055 0.0
C437 C 0.63037 0.47838 0.01309 0.0
O438 O 0.57012 0.43671 0.07943 0.0
O439 O 0.50638 0.44823 0.99368 0.0
C440 C 0.59402 0.45367 0.10322 0.0
O441 O 0.49352 0.4983 0.9928 0.0
O442 O 0.56477 0.57274 0.99399 0.0
O443 O 0.61817 0.57336 0.01525 0.0
C444 C 0.95736 0.58626 0.54059 0.0
C445 C 1.02087 0.58618 0.4672 0.0
C446 C 1.00345 0.45613 0.49786 0.0
Mg447 Mg 0.03394 0.5968 0.54284 0.0
O448 O 1.0183 0.54797 0.54954 0.0
Mg449 Mg 0.97852 0.52004 0.51474 0.0
Mg450 Mg 0.05066 0.5224 0.54746 0.0
O451 O 0.08307 0.49748 0.54483 0.0
Mg452 Mg 0.0702 0.44848 0.54715 0.0
Mg453 Mg 0.12634 0.52707 0.57453 0.0
C454 C 0.09984 0.58947 0.59472 0.0
C455 C 0.1132 0.57569 0.50696 0.0
O456 O 0.949 0.55568 0.52776 0.0
O457 O 0.98863 0.60646 0.54849 0.0
O458 O 0.99728 0.55718 0.47128 0.0
O459 O 0.03943 0.60579 0.4918 0.0
O460 O 0.08091 0.60802 0.58098 0.0
O461 O 0.09201 0.55675 0.58816 0.0
C462 C 0.98395 0.47168 0.58374 0.0
O463 O 1.01718 0.4818 0.58627 0.0
O464 O 0.9651 0.48268 0.5591 0.0
O465 O 0.15462 0.4952 0.55473 0.0
O466 O 0.11459 0.44535 0.53236 0.0
O467 O 0.11815 0.48506 0.61761 0.0
C468 C 0.14572 0.46618 0.53902 0.0
O469 O 0.07651 0.43487 0.59975 0.0
O470 O 1.02108 0.43602 0.51067 0.0
C471 C 0.10008 0.4531 0.62291 0.0
O472 O 1.01198 0.48802 0.507 0.0
O473 O 0.08067 0.56284 0.5071 0.0
O474 O 0.13466 0.5667 0.53019 0.0
C475 C 0.49842 0.09642 0.53821 0.0
C476 C 0.49818 0.10665 0.43702 0.0
C477 C 0.50966 0.96417 0.45519 0.0
Mg478 Mg 0.55941 0.10972 0.50088 0.0
O479 O 0.5474 0.06071 0.50109 0.0
Mg480 Mg 0.49748 0.03229 0.48781 0.0
Mg481 Mg 0.57368 0.02983 0.48996 0.0
O482 O 0.60036 0.99761 0.47875 0.0
Mg483 Mg 0.58366 0.94781 0.48021 0.0
Mg484 Mg 0.65188 0.02113 0.49891 0.0
C485 C 0.63618 0.09558 0.52926 0.0
C486 C 0.60922 0.0492 0.43877 0.0
O487 O 0.48284 0.06756 0.52178 0.0
O488 O 0.52946 0.11503 0.53651 0.0
O489 O 0.48577 0.07329 0.44351 0.0
O490 O 0.52798 0.12511 0.45344 0.0
O491 O 0.61491 0.11334 0.52243 0.0
O492 O 0.62756 0.06292 0.52029 0.0
C493 C 0.53347 0.98801 0.54761 0.0
O494 O 0.56142 0.99781 0.53684 0.0
O495 O 0.50754 0.99697 0.53287 0.0
O496 O 0.66627 0.97746 0.46936 0.0
O497 O 0.61643 0.93451 0.45144 0.0
O498 O 0.64638 0.97916 0.54437 0.0
C499 C 0.64896 0.94853 0.45263 0.0
O500 O 0.60037 0.93126 0.53214 0.0
O501 O 0.52898 0.94451 0.46025 0.0
C502 C 0.62791 0.94818 0.55241 0.0
O503 O 0.52113 0.99729 0.46154 0.0
O504 O 0.58643 0.06172 0.44226 0.0
O505 O 0.60745 0.01937 0.45378 0.0
C506 C 0.1775 0.19815 0.33433 0.0
C507 C 0.2116 0.22093 0.34474 0.0
C508 C 0.15775 0.17632 0.35724 0.0
C509 C 0.17129 0.17714 0.39251 0.0
C510 C 0.20549 0.2007 0.40336 0.0
C511 C 0.22511 0.22165 0.37969 0.0
C512 C 0.12231 0.15151 0.34336 0.0
C513 C 0.22156 0.20383 0.44028 0.0
C514 C 0.10732 0.13719 0.45437 0.0
C515 C 0.11184 0.10444 0.46434 0.0
C516 C 0.12638 0.16097 0.43168 0.0
C517 C 0.15048 0.15216 0.41742 0.0
C518 C 0.15421 0.11867 0.42678 0.0
C519 C 0.13565 0.09602 0.45002 0.0
C520 C 0.12145 0.19624 0.42372 0.0
C521 C 0.17818 0.10654 0.41229 0.0
H522 H 0.16621 0.19669 0.30771 0.0
H523 H 0.25109 0.23889 0.3887 0.0
H524 H 0.12111 0.12396 0.35027 0.0
H525 H 0.10303 0.15694 0.35458 0.0
H526 H 0.11505 0.15369 0.31557 0.0
H527 H 0.24677 0.22525 0.44533 0.0
H528 H 0.20417 0.20896 0.45443 0.0
H529 H 0.22536 0.17866 0.45008 0.0
H530 H 0.08989 0.14496 0.46536 0.0
H531 H 0.14 0.07118 0.45722 0.0
H532 H 0.113 0.19933 0.39621 0.0
H533 H 0.14629 0.21756 0.43155 0.0
H534 H 0.10224 0.1997 0.43654 0.0
H535 H 0.17173 0.10783 0.38442 0.0
H536 H 0.17701 0.07919 0.4203 0.0
H537 H 0.20497 0.12427 0.42035 0.0
C538 C 0.85355 0.2223 0.39041 0.0
C539 C 0.84819 0.22641 0.35532 0.0
C540 C 0.87438 0.20278 0.40816 0.0
C541 C 0.89151 0.18762 0.39064 0.0
C542 C 0.88719 0.19281 0.35526 0.0
C543 C 0.86565 0.21183 0.33817 0.0
C544 C 0.87766 0.19801 0.44572 0.0
C545 C 0.90521 0.17805 0.33527 0.0
C546 C 0.96858 0.16225 0.442 0.0
C547 C 0.95423 0.12561 0.44677 0.0
C548 C 0.94891 0.18246 0.42324 0.0
C549 C 0.91353 0.1661 0.40914 0.0
C550 C 0.89913 0.12904 0.41311 0.0
C551 C 0.91952 0.1094 0.43143 0.0
C552 C 0.96586 0.22164 0.41931 0.0
C553 C 0.86162 0.11018 0.39909 0.0
H554 H 0.84198 0.235 0.40408 0.0
H555 H 0.86221 0.21496 0.31109 0.0
H556 H 0.86622 0.16969 0.45194 0.0
H557 H 0.9051 0.20648 0.45848 0.0
H558 H 0.86458 0.21309 0.456 0.0
H559 H 0.90047 0.1855 0.3082 0.0
H560 H 0.93329 0.1876 0.34546 0.0
H561 H 0.89635 0.14891 0.33759 0.0
H562 H 0.99513 0.17544 0.45374 0.0
H563 H 0.90762 0.08133 0.43507 0.0
H564 H 0.95416 0.2359 0.43239 0.0
H565 H 0.96157 0.22951 0.39235 0.0
H566 H 0.99393 0.23018 0.42972 0.0
H567 H 0.84559 0.12034 0.4109 0.0
H568 H 0.8543 0.08126 0.40352 0.0
H569 H 0.85551 0.11541 0.37166 0.0
C570 C 0.88769 0.87342 0.32071 0.0
C571 C 0.85198 0.86359 0.31314 0.0
C572 C 0.90671 0.89608 0.34754 0.0
C573 C 0.88922 0.90827 0.36719 0.0
C574 C 0.85336 0.90081 0.35752 0.0
C575 C 0.83523 0.8788 0.3303 0.0
C576 C 0.94513 0.9044 0.35667 0.0
C577 C 0.83358 0.91287 0.37784 0.0
C578 C 0.93323 0.91539 0.45866 0.0
C579 C 0.95076 0.95162 0.4614 0.0
C580 C 0.91133 0.90122 0.42854 0.0
C581 C 0.90759 0.92385 0.40041 0.0
C582 C 0.92323 0.96071 0.40377 0.0
C583 C 0.94444 0.97425 0.43448 0.0
C584 C 0.89393 0.8618 0.42626 0.0
C585 C 0.91983 0.98562 0.37434 0.0
H586 H 0.90045 0.8615 0.30736 0.0
H587 H 0.80748 0.87144 0.32394 0.0
H588 H 0.95818 0.93275 0.36238 0.0
H589 H 0.95178 0.88912 0.37959 0.0
H590 H 0.95524 0.89766 0.33619 0.0
H591 H 0.80722 0.91035 0.3637 0.0
H592 H 0.83138 0.89643 0.40108 0.0
H593 H 0.8471 0.94061 0.38555 0.0
H594 H 0.93794 0.89796 0.47958 0.0
H595 H 0.95819 1.00231 0.43645 0.0
H596 H 0.90526 0.8509 0.40957 0.0
H597 H 0.86617 0.85542 0.41512 0.0
H598 H 0.89673 0.84841 0.45122 0.0
H599 H 0.9355 0.98348 0.35664 0.0
H600 H 0.92878 0.01342 0.38237 0.0
H601 H 0.89284 0.97864 0.36037 0.0
C602 C 0.1774 0.9262 0.35892 0.0
C603 C 0.2049 0.9132 0.36482 0.0
C604 C 0.16991 0.94045 0.38506 0.0
C605 C 0.19032 0.94137 0.41777 0.0
C606 C 0.2197 0.93087 0.42328 0.0
C607 C 0.22672 0.91695 0.39661 0.0
C608 C 0.13857 0.95188 0.3782 0.0
C609 C 0.24219 0.93183 0.45777 0.0
C610 C 0.16955 0.98901 0.48132 0.0
C611 C 0.14402 0.96132 0.49326 0.0
C612 C 0.18644 0.9828 0.45782 0.0
C613 C 0.17771 0.9481 0.44661 0.0
C614 C 0.1538 0.91977 0.46056 0.0
C615 C 0.13703 0.9268 0.4836 0.0
C616 C 0.21168 0.01361 0.44332 0.0
C617 C 0.14426 0.88228 0.44957 0.0
H618 H 0.16047 0.92332 0.33439 0.0
H619 H 0.24855 0.9077 0.40096 0.0
H620 H 0.11819 0.93253 0.38979 0.0
H621 H 0.14469 0.97779 0.38962 0.0
H622 H 0.12819 0.95382 0.35086 0.0
H623 H 0.26692 0.92844 0.45673 0.0
H624 H 0.24765 0.95701 0.47026 0.0
H625 H 0.22856 0.91026 0.47365 0.0
H626 H 0.1748 0.01579 0.48868 0.0
H627 H 0.11752 0.9054 0.49318 0.0
H628 H 0.1995 0.01957 0.41751 0.0
H629 H 0.23473 1.00725 0.44148 0.0
H630 H 0.21991 0.03763 0.45859 0.0
H631 H 0.13019 0.87965 0.42302 0.0
H632 H 0.12776 0.86307 0.4652 0.0
H633 H 0.16769 0.87528 0.45095 0.0
C634 C 0.22698 0.8595 0.70699 0.0
C635 C 0.21592 0.83497 0.73226 0.0
C636 C 0.20582 0.87795 0.68786 0.0
C637 C 0.17304 0.8731 0.69481 0.0
C638 C 0.16212 0.84894 0.7209 0.0
C639 C 0.18326 0.82979 0.73873 0.0
C640 C 0.21836 0.9022 0.65965 0.0
C641 C 0.12815 0.84355 0.73029 0.0
C642 C 0.1334 0.94555 0.65973 0.0
C643 C 0.10917 0.92971 0.63113 0.0
C644 C 0.15313 0.92707 0.68145 0.0
C645 C 0.14982 0.89219 0.67392 0.0
C646 C 0.12505 0.87597 0.64537 0.0
C647 C 0.10483 0.89453 0.62488 0.0
C648 C 0.17812 0.94527 0.71211 0.0
C649 C 0.12108 0.83949 0.6353 0.0
H650 H 0.25202 0.8637 0.70159 0.0
H651 H 0.1745 0.81128 0.75841 0.0
H652 H 0.19966 0.89399 0.63564 0.0
H653 H 0.22029 0.92947 0.6644 0.0
H654 H 0.24384 0.90233 0.6566 0.0
H655 H 0.12422 0.82566 0.75246 0.0
H656 H 0.12666 0.86927 0.73596 0.0
H657 H 0.10681 0.8323 0.70886 0.0
H658 H 0.13739 0.97269 0.66489 0.0
H659 H 0.08686 0.88194 0.60264 0.0
H660 H 0.20479 0.95087 0.70885 0.0
H661 H 0.17474 0.92789 0.73465 0.0
H662 H 0.17492 0.9705 0.71675 0.0
H663 H 0.14562 0.83937 0.6299 0.0
H664 H 0.10046 0.83024 0.61271 0.0
H665 H 0.11517 0.8204 0.65622 0.0
C666 C 0.24627 0.18066 0.73159 0.0
C667 C 0.22669 0.18394 0.75377 0.0
C668 C 0.23067 0.16006 0.7029 0.0
C669 C 0.19476 0.14289 0.69661 0.0
C670 C 0.17573 0.14293 0.72117 0.0
C671 C 0.1921 0.16356 0.74972 0.0
C672 C 0.25206 0.1595 0.67802 0.0
C673 C 0.13742 0.12432 0.71565 0.0
C674 C 0.13774 0.14179 0.61187 0.0
C675 C 0.12385 0.1056 0.60587 0.0
C676 C 0.1637 0.1548 0.63995 0.0
C677 C 0.17588 0.13092 0.66242 0.0
C678 C 0.16495 0.09497 0.65431 0.0
C679 C 0.13894 0.08266 0.62599 0.0
C680 C 0.17554 0.19363 0.6473 0.0
C681 C 0.17811 0.06888 0.67707 0.0
H682 H 0.27345 0.19549 0.73585 0.0
H683 H 0.17727 0.16609 0.76731 0.0
H684 H 0.24274 0.1336 0.66568 0.0
H685 H 0.25017 0.17977 0.65813 0.0
H686 H 0.27955 0.16547 0.6903 0.0
H687 H 0.12733 0.12348 0.73875 0.0
H688 H 0.12422 0.13829 0.69553 0.0
H689 H 0.13079 0.09698 0.70733 0.0
H690 H 0.12678 0.15975 0.59593 0.0
H691 H 0.12875 0.05465 0.62126 0.0
H692 H 0.20396 0.20439 0.65401 0.0
H693 H 0.16552 0.19747 0.66911 0.0
H694 H 0.16646 0.20905 0.62557 0.0
H695 H 0.20555 0.08088 0.6891 0.0
H696 H 0.17504 0.04525 0.66309 0.0
H697 H 0.16321 0.06007 0.69732 0.0
C698 C 0.88253 0.17516 0.67927 0.0
C699 C 0.86456 0.15488 0.70324 0.0
C700 C 0.88996 0.15922 0.65435 0.0
C701 C 0.87993 0.12209 0.65391 0.0
C702 C 0.86057 0.10133 0.67708 0.0
C703 C 0.85294 0.11803 0.70148 0.0
C704 C 0.91051 0.18228 0.62986 0.0
C705 C 0.84961 0.06164 0.67729 0.0
C706 C 0.89579 0.08758 0.57808 0.0
C707 C 0.9297 0.08842 0.59 0.0
C708 C 0.87807 0.09663 0.59922 0.0
C709 C 0.89472 0.10589 0.63287 0.0
C710 C 0.92807 0.10417 0.64547 0.0
C711 C 0.94528 0.0958 0.62373 0.0
C712 C 0.84261 0.0985 0.585 0.0
C713 C 0.94649 0.1133 0.68138 0.0
H714 H 0.89196 0.20363 0.68065 0.0
H715 H 0.83833 0.10225 0.71947 0.0
H716 H 0.93692 0.18089 0.63592 0.0
H717 H 0.89883 0.17289 0.60381 0.0
H718 H 0.9123 0.21028 0.63076 0.0
H719 H 0.83055 0.04933 0.69344 0.0
H720 H 0.83842 0.05147 0.65144 0.0
H721 H 0.87241 0.05324 0.68692 0.0
H722 H 0.88383 0.0816 0.55195 0.0
H723 H 0.9713 0.09562 0.63299 0.0
H724 H 0.84413 0.1265 0.58112 0.0
H725 H 0.82524 0.08657 0.60279 0.0
H726 H 0.83116 0.08502 0.56051 0.0
H727 H 0.95298 0.14191 0.68506 0.0
H728 H 0.97062 0.10678 0.68807 0.0
H729 H 0.92969 0.09904 0.69907 0.0
C730 C 0.85034 0.83572 0.69897 0.0
C731 C 0.86128 0.84154 0.73391 0.0
C732 C 0.87036 0.8554 0.67516 0.0
C733 C 0.90248 0.88256 0.68568 0.0
C734 C 0.91366 0.88827 0.72097 0.0
C735 C 0.89344 0.86787 0.74422 0.0
C736 C 0.85677 0.84728 0.63836 0.0
C737 C 0.94688 0.91685 0.73433 0.0
C738 C 0.96801 0.92222 0.62517 0.0
C739 C 0.95983 0.95218 0.61083 0.0
C740 C 0.94985 0.89948 0.6491 0.0
C741 C 0.92287 0.90656 0.66002 0.0
C742 C 0.91545 0.93733 0.64626 0.0
C743 C 0.93337 0.95901 0.62215 0.0
C744 C 0.95902 0.86715 0.66213 0.0
C745 C 0.88806 0.94751 0.65685 0.0
H746 H 0.82585 0.81569 0.69008 0.0
H747 H 0.90272 0.8732 0.77081 0.0
H748 H 0.85066 0.87011 0.62481 0.0
H749 H 0.87664 0.84281 0.62727 0.0
H750 H 0.83324 0.82372 0.63403 0.0
H751 H 0.95303 0.91751 0.76223 0.0
H752 H 0.96836 0.913 0.72555 0.0
H753 H 0.94523 0.94285 0.72444 0.0
H754 H 0.98779 0.91577 0.61687 0.0
H755 H 0.92636 0.98182 0.61187 0.0
H756 H 0.9363 0.84327 0.65516 0.0
H757 H 0.96626 0.86749 0.68997 0.0
H758 H 0.98055 0.86509 0.652 0.0
H759 H 0.86277 0.92672 0.64958 0.0
H760 H 0.88614 0.9729 0.64528 0.0
H761 H 0.89357 0.94974 0.68459 0.0
C762 C 0.31157 0.11371 0.15267 0.0
C763 C 0.28781 0.13088 0.13912 0.0
C764 C 0.32833 0.1029 0.13194 0.0
C765 C 0.32104 0.10949 0.09689 0.0
C766 C 0.29525 0.12449 0.0828 0.0
C767 C 0.27888 0.1351 0.10419 0.0
C768 C 0.35553 0.08668 0.14785 0.0
C769 C 0.28665 0.1316 0.04549 0.0
C770 C 0.39843 0.12679 0.05845 0.0
C771 C 0.39252 0.09369 0.04569 0.0
C772 C 0.37435 0.13276 0.0736 0.0
C773 C 0.34363 0.10493 0.076 0.0
C774 C 0.3365 0.07211 0.06137 0.0
C775 C 0.3611 0.06684 0.04632 0.0
C776 C 0.3827 0.16829 0.08872 0.0
C777 C 0.30384 0.04199 0.06325 0.0
H778 H 0.31798 0.10992 0.17967 0.0
H779 H 0.26054 0.14848 0.09371 0.0
H780 H 0.35161 0.06238 0.13458 0.0
H781 H 0.38121 0.10541 0.14563 0.0
H782 H 0.35556 0.08008 0.17488 0.0
H783 H 0.26242 0.13788 0.03805 0.0
H784 H 0.30773 0.15428 0.03829 0.0
H785 H 0.28424 0.10859 0.03104 0.0
H786 H 0.42241 0.14784 0.05761 0.0
H787 H 0.35624 0.04121 0.03632 0.0
H788 H 0.38641 0.16553 0.1165 0.0
H789 H 0.3611 0.17868 0.07986 0.0
H790 H 0.40635 0.1879 0.08232 0.0
H791 H 0.30495 0.03155 0.08944 0.0
H792 H 0.2999 0.02013 0.04649 0.0
H793 H 0.28127 0.05113 0.05639 0.0
C794 C 0.84722 0.2701 0.11307 0.0
C795 C 0.81502 0.2713 0.0953 0.0
C796 C 0.87562 0.30095 0.11843 0.0
C797 C 0.87238 0.33262 0.10273 0.0
C798 C 0.8426 0.33145 0.07789 0.0
C799 C 0.81435 0.30029 0.07391 0.0
C800 C 0.90742 0.29984 0.14359 0.0
C801 C 0.83809 0.3637 0.05849 0.0
C802 C 0.90617 0.42254 0.14165 0.0
C803 C 0.93687 0.4376 0.13014 0.0
C804 C 0.88662 0.38701 0.13573 0.0
C805 C 0.89695 0.36703 0.11585 0.0
C806 C 0.9296 0.38111 0.10726 0.0
C807 C 0.94988 0.41571 0.11614 0.0
C808 C 0.85371 0.3718 0.14871 0.0
C809 C 0.9428 0.36109 0.08702 0.0
H810 H 0.84907 0.24685 0.12769 0.0
H811 H 0.79012 0.30072 0.05833 0.0
H812 H 0.92005 0.32427 0.15839 0.0
H813 H 0.90151 0.27719 0.16146 0.0
H814 H 0.92601 0.29654 0.12989 0.0
H815 H 0.82926 0.35775 0.03128 0.0
H816 H 0.81759 0.37053 0.0663 0.0
H817 H 0.86178 0.38694 0.06216 0.0
H818 H 0.89626 0.43906 0.15312 0.0
H819 H 0.97411 0.42678 0.10803 0.0
H820 H 0.84895 0.34368 0.15624 0.0
H821 H 0.83181 0.37345 0.12864 0.0
H822 H 0.85431 0.3866 0.17062 0.0
H823 H 0.96042 0.34936 0.10443 0.0
H824 H 0.95794 0.37909 0.06961 0.0
H825 H 0.92199 0.33977 0.07205 0.0
C826 C 0.66507 0.9265 0.2141 0.0
C827 C 0.6601 0.89646 0.23464 0.0
C828 C 0.64133 0.94432 0.20774 0.0
C829 C 0.6124 0.93216 0.22344 0.0
C830 C 0.61126 0.90608 0.24922 0.0
C831 C 0.63451 0.88745 0.25368 0.0
C832 C 0.64532 0.97282 0.18071 0.0
C833 C 0.58427 0.89578 0.27038 0.0
C834 C 0.568 0.98599 0.17037 0.0
C835 C 0.55423 0.96296 0.14314 0.0
C836 C 0.57994 0.97354 0.2023 0.0
C837 C 0.58043 0.93863 0.20545 0.0
C838 C 0.55874 0.91404 0.1805 0.0
C839 C 0.54558 0.92668 0.14934 0.0
C840 C 0.59681 0.99895 0.23083 0.0
C841 C 0.55446 0.87532 0.18419 0.0
H842 H 0.6854 0.9337 0.19995 0.0
H843 H 0.63163 0.8649 0.27072 0.0
H844 H 0.6242 0.96411 0.15848 0.0
H845 H 0.64461 0.99735 0.1901 0.0
H846 H 0.66994 0.97935 0.17215 0.0
H847 H 0.5971 0.89905 0.29732 0.0
H848 H 0.56697 0.91183 0.26453 0.0
H849 H 0.56887 0.86746 0.26706 0.0
H850 H 0.57243 0.01394 0.16619 0.0
H851 H 0.53275 0.90852 0.12878 0.0
H852 H 0.60472 0.98565 0.25471 0.0
H853 H 0.57858 0.01187 0.23457 0.0
H854 H 0.61955 0.02008 0.2245 0.0
H855 H 0.57928 0.87139 0.18465 0.0
H856 H 0.53504 0.85975 0.16325 0.0
H857 H 0.54621 0.86476 0.20806 0.0
C858 C 0.24207 0.68333 0.21795 0.0
C859 C 0.24812 0.71796 0.20558 0.0
C860 C 0.21954 0.65517 0.19783 0.0
C861 C 0.20299 0.66251 0.16531 0.0
C862 C 0.21536 0.69629 0.15061 0.0
C863 C 0.2378 0.72404 0.17121 0.0
C864 C 0.20893 0.61881 0.21339 0.0
C865 C 0.20019 0.70442 0.11503 0.0
C866 C 0.12205 0.59741 0.11625 0.0
C867 C 0.09684 0.60677 0.12663 0.0
C868 C 0.15707 0.61434 0.12931 0.0
C869 C 0.16669 0.64119 0.15311 0.0
C870 C 0.14109 0.64979 0.16441 0.0
C871 C 0.10658 0.63256 0.15088 0.0
C872 C 0.18328 0.60428 0.11645 0.0
C873 C 0.14991 0.67785 0.19028 0.0
H874 H 0.2516 0.67849 0.24425 0.0
H875 H 0.24399 0.75079 0.16125 0.0
H876 H 0.1862 0.61503 0.22446 0.0
H877 H 0.20178 0.59828 0.19425 0.0
H878 H 0.22984 0.61524 0.23377 0.0
H879 H 0.21751 0.72872 0.10507 0.0
H880 H 0.19506 0.6822 0.09832 0.0
H881 H 0.17542 0.70849 0.11447 0.0
H882 H 0.11467 0.57786 0.09713 0.0
H883 H 0.08703 0.63941 0.15926 0.0
H884 H 0.20807 0.60993 0.13476 0.0
H885 H 0.18816 0.61946 0.09297 0.0
H886 H 0.17349 0.57587 0.11027 0.0
H887 H 0.16623 0.6717 0.21364 0.0
H888 H 0.12673 0.68028 0.19692 0.0
H889 H 0.16449 0.70379 0.1805 0.0
C890 C 0.30356 0.85839 0.85755 0.0
C891 C 0.29263 0.82366 0.86975 0.0
C892 C 0.32949 0.88482 0.87714 0.0
C893 C 0.34445 0.87626 0.90988 0.0
C894 C 0.33125 0.84194 0.92347 0.0
C895 C 0.30539 0.81581 0.90307 0.0
C896 C 0.34296 0.92094 0.86158 0.0
C897 C 0.34631 0.83211 0.95854 0.0
C898 C 0.4395 0.92257 0.9392 0.0
C899 C 0.43997 0.94757 0.96105 0.0
C900 C 0.40849 0.89963 0.92204 0.0
C901 C 0.37718 0.90132 0.92744 0.0
C902 C 0.37743 0.92696 0.94901 0.0
C903 C 0.40899 0.95009 0.96542 0.0
C904 C 0.4093 0.87325 0.8985 0.0
C905 C 0.34449 0.92917 0.95559 0.0
H906 H 0.2932 0.86453 0.83185 0.0
H907 H 0.29675 0.78895 0.91249 0.0
H908 H 0.34718 0.94184 0.87947 0.0
H909 H 0.36808 0.92431 0.85525 0.0
H910 H 0.32521 0.9248 0.83818 0.0
H911 H 0.32972 0.80655 0.96724 0.0
H912 H 0.37182 0.82993 0.95892 0.0
H913 H 0.35016 0.85279 0.97656 0.0
H914 H 0.46356 0.92067 0.93591 0.0
H915 H 0.40929 0.96888 0.9828 0.0
H916 H 0.39447 0.87643 0.87308 0.0
H917 H 0.39702 0.84608 0.90746 0.0
H918 H 0.43585 0.87618 0.89637 0.0
H919 H 0.32707 0.93174 0.93154 0.0
H920 H 0.34908 0.95175 0.97172 0.0
H921 H 0.33101 0.90452 0.96819 0.0
C922 C 0.17239 0.35474 0.95876 0.0
C923 C 0.17612 0.36122 0.9251 0.0
C924 C 0.15649 0.37308 0.97394 0.0
C925 C 0.14379 0.39887 0.95527 0.0
C926 C 0.14796 0.40604 0.92148 0.0
C927 C 0.16401 0.38727 0.90689 0.0
C928 C 0.15293 0.36449 0.01002 0.0
C929 C 0.13486 0.43315 0.90046 0.0
C930 C 0.072 0.41768 0.98537 0.0
C931 C 0.08967 0.44856 1.0041 0.0
C932 C 0.08907 0.40194 0.96879 0.0
C933 C 0.12499 0.41712 0.9708 0.0
C934 C 0.1429 0.44878 0.98891 0.0
C935 C 0.12513 0.46408 1.00522 0.0
C936 C 0.06867 0.36839 0.94978 0.0
C937 C 0.18112 0.46602 0.99184 0.0
H938 H 0.18215 0.33533 0.97351 0.0
H939 H 0.16633 0.3925 0.88085 0.0
H940 H 0.16494 0.38869 0.02523 0.0
H941 H 0.12535 0.35426 0.01138 0.0
H942 H 0.16499 0.34457 0.02151 0.0
H943 H 0.14137 0.43692 0.87516 0.0
H944 H 0.10654 0.42493 0.89735 0.0
H945 H 0.14581 0.45882 0.91337 0.0
H946 H 0.04466 0.40528 0.98405 0.0
H947 H 0.13927 0.48777 0.0196 0.0
H948 H 0.07768 0.34657 0.96177 0.0
H949 H 0.07277 0.37143 0.9236 0.0
H950 H 0.0407 0.3608 0.94908 0.0
H951 H 0.19465 0.44824 1.00582 0.0
H952 H 0.19107 0.49152 1.00506 0.0
H953 H 0.18752 0.47065 0.96651 0.0
C954 C 0.6829 0.23527 0.85866 0.0
C955 C 0.702 0.22017 0.84419 0.0
C956 C 0.66106 0.21574 0.88078 0.0
C957 C 0.65744 0.17973 0.88878 0.0
C958 C 0.67604 0.16421 0.87355 0.0
C959 C 0.69794 0.1844 0.85191 0.0
C960 C 0.64248 0.23405 0.89636 0.0
C961 C 0.67333 0.12614 0.88064 0.0
C962 C 0.63481 0.13692 0.97294 0.0
C963 C 0.59994 0.11582 0.9642 0.0
C964 C 0.65303 0.15835 0.94918 0.0
C965 C 0.63667 0.15904 0.91488 0.0
C966 C 0.60116 0.13858 0.90585 0.0
C967 C 0.58327 0.11756 0.93044 0.0
C968 C 0.69038 0.17973 0.96083 0.0
C969 C 0.58227 0.13794 0.86984 0.0
H970 H 0.68558 0.26275 0.85331 0.0
H971 H 0.71215 0.17196 0.84108 0.0
H972 H 0.61461 0.21894 0.89177 0.0
H973 H 0.65203 0.23517 0.92399 0.0
H974 H 0.64611 0.2613 0.88634 0.0
H975 H 0.68724 0.11703 0.8652 0.0
H976 H 0.68412 0.12256 0.90757 0.0
H977 H 0.64598 0.10913 0.87564 0.0
H978 H 0.64833 0.13641 0.99877 0.0
H979 H 0.55657 0.10148 0.92292 0.0
H980 H 0.69495 0.20771 0.95297 0.0
H981 H 0.70658 0.16992 0.94894 0.0
H982 H 0.69892 0.17843 0.98856 0.0
H983 H 0.58545 0.16518 0.86009 0.0
H984 H 0.55442 0.12294 0.86694 0.0
H985 H 0.59339 0.12569 0.85407 0.0
C986 C 0.84631 0.73199 0.89665 0.0
C987 C 0.84687 0.73116 0.86236 0.0
C988 C 0.86148 0.71178 0.92127 0.0
C989 C 0.87826 0.69013 0.91193 0.0
C990 C 0.87941 0.6896 0.87741 0.0
C991 C 0.86361 0.70975 0.85321 0.0
C992 C 0.85909 0.71328 0.95743 0.0
C993 C 0.89725 0.66752 0.86597 0.0
C994 C 0.94261 0.66217 0.98211 0.0
C995 C 0.92349 0.62759 0.99046 0.0
C996 C 0.92868 0.68223 0.95628 0.0
C997 C 0.89431 0.66803 0.93822 0.0
C998 C 0.87501 0.63299 0.94618 0.0
C999 C 0.88975 0.61331 0.97182 0.0
C1000 C 0.95075 0.719 0.9486 0.0
C1001 C 0.83829 0.61646 0.92813 0.0
H1002 H 0.83334 0.74802 0.9043 0.0
H1003 H 0.86431 0.70861 0.82695 0.0
H1004 H 0.8456 0.68654 0.96654 0.0
H1005 H 0.88521 0.72236 0.97346 0.0
H1006 H 0.8452 0.73119 0.96083 0.0
H1007 H 0.89688 0.67054 0.83856 0.0
H1008 H 0.92435 0.67496 0.87977 0.0
H1009 H 0.88468 0.63933 0.87182 0.0
H1010 H 0.96864 0.67382 0.99599 0.0
H1011 H 0.87436 0.58688 0.97785 0.0
H1012 H 0.93931 0.73837 0.95393 0.0
H1013 H 0.95179 0.72172 0.92152 0.0
H1014 H 0.97739 0.72579 0.96359 0.0
H1015 H 0.82252 0.63194 0.93267 0.0
H1016 H 0.82683 0.58879 0.93647 0.0
H1017 H 0.83686 0.61692 0.90063 0.0
C1018 C 0.19703 0.33502 0.20167 0.0
C1019 C 0.20959 0.33572 0.23682 0.0
C1020 C 0.17474 0.35397 0.18528 0.0
C1021 C 0.16329 0.3742 0.20398 0.0
C1022 C 0.17555 0.3747 0.23956 0.0
C1023 C 0.1985 0.35608 0.25527 0.0
C1024 C 0.16371 0.3526 0.14751 0.0
C1025 C 0.16418 0.39488 0.26129 0.0
C1026 C 0.12992 0.449 0.15787 0.0
C1027 C 0.09385 0.43291 0.14935 0.0
C1028 C 0.15231 0.43068 0.17559 0.0
C1029 C 0.1391 0.39491 0.18626 0.0
C1030 C 0.10264 0.37882 0.17868 0.0
C1031 C 0.08085 0.39754 0.16027 0.0
C1032 C 0.19055 0.44953 0.18189 0.0
C1033 C 0.08645 0.3413 0.18965 0.0
H1034 H 0.2051 0.31988 0.18659 0.0
H1035 H 0.20749 0.3572 0.2823 0.0
H1036 H 0.13534 0.34123 0.14028 0.0
H1037 H 0.17128 0.37966 0.13661 0.0
H1038 H 0.17518 0.33661 0.13619 0.0
H1039 H 0.17456 0.39188 0.28847 0.0
H1040 H 0.17272 0.42327 0.25434 0.0
H1041 H 0.13572 0.38567 0.25694 0.0
H1042 H 0.14105 0.4759 0.14953 0.0
H1043 H 0.05338 0.38411 0.15403 0.0
H1044 H 0.20278 0.43578 0.16885 0.0
H1045 H 0.20176 0.44894 0.20913 0.0
H1046 H 0.19716 0.47739 0.17297 0.0
H1047 H 0.09384 0.32335 0.17615 0.0
H1048 H 0.05799 0.33319 0.18463 0.0
H1049 H 0.09604 0.33793 0.21693 0.0
C1050 C 0.04225 0.63964 0.83303 0.0
C1051 C 0.06916 0.67175 0.83299 0.0
C1052 C 0.02836 0.62789 0.86182 0.0
C1053 C 0.04108 0.64932 0.89056 0.0
C1054 C 0.06267 0.68447 0.88797 0.0
C1055 C 0.07697 0.69524 0.85931 0.0
C1056 C 1.00391 0.59075 0.86306 0.0
C1057 C 0.07454 0.709 0.91729 0.0
C1058 C 1.01264 0.6104 0.97207 0.0
C1059 C 0.03923 0.59718 0.98731 0.0
C1060 C 1.01279 0.62795 0.94068 0.0
C1061 C 0.04019 0.63237 0.92434 0.0
C1062 C 0.06738 0.61971 0.93998 0.0
C1063 C 0.06666 0.60258 0.97127 0.0
C1064 C 0.98375 0.64183 0.92549 0.0
C1065 C 0.09704 0.62344 0.92332 0.0
H1066 H 0.03473 0.62203 0.81205 0.0
H1067 H 0.09706 0.72054 0.85952 0.0
H1068 H 1.01826 0.57359 0.87691 0.0
H1069 H 0.98355 0.58957 0.87665 0.0
H1070 H 0.99166 0.58004 0.83748 0.0
H1071 H 0.08437 0.73697 0.90909 0.0
H1072 H 0.05327 0.7055 0.93045 0.0
H1073 H 0.09558 0.70286 0.93554 0.0
H1074 H 0.9914 0.60656 0.98432 0.0
H1075 H 0.08732 0.59253 0.98273 0.0
H1076 H 0.979 0.64311 0.89764 0.0
H1077 H 0.99043 0.6689 0.9346 0.0
H1078 H 0.95957 0.62529 0.93327 0.0
H1079 H 0.08728 0.6112 0.89819 0.0
H1080 H 0.11537 0.61094 0.93836 0.0
H1081 H 0.1113 0.65171 0.91962 0.0
C1082 C 0.35016 0.20331 0.86902 0.0
C1083 C 0.34669 0.21331 0.83497 0.0
C1084 C 0.37274 0.1849 0.88368 0.0
C1085 C 0.39263 0.1766 0.86392 0.0
C1086 C 0.38943 0.18683 0.82961 0.0
C1087 C 0.36641 0.20486 0.81554 0.0
C1088 C 0.3752 0.17416 0.92035 0.0
C1089 C 0.41037 0.17883 0.80778 0.0
C1090 C 0.46915 0.15584 0.91762 0.0
C1091 C 0.45537 0.11912 0.92148 0.0
C1092 C 0.44998 0.17486 0.89675 0.0
C1093 C 0.41629 0.15674 0.87937 0.0
C1094 C 0.4039 0.11948 0.88012 0.0
C1095 C 0.42373 0.1011 0.90089 0.0
C1096 C 0.4646 0.21455 0.89582 0.0
C1097 C 0.36828 0.09904 0.86168 0.0
H1098 H 0.33506 0.20964 0.88422 0.0
H1099 H 0.36415 0.21259 0.78922 0.0
H1100 H 0.36855 0.14514 0.92303 0.0
H1101 H 0.40194 0.18604 0.93438 0.0
H1102 H 0.35786 0.18239 0.93218 0.0
H1103 H 0.40516 0.189 0.78161 0.0
H1104 H 0.43814 0.19066 0.81864 0.0
H1105 H 0.4047 0.14998 0.807 0.0
H1106 H 0.49376 0.17011 0.93295 0.0
H1107 H 0.41289 0.07272 0.9032 0.0
H1108 H 0.45211 0.2255 0.9113 0.0
H1109 H 0.45934 0.22491 0.8698 0.0
H1110 H 0.49275 0.22423 0.90583 0.0
H1111 H 0.34905 0.10221 0.87461 0.0
H1112 H 0.36439 0.07049 0.86082 0.0
H1113 H 0.36319 0.10925 0.83558 0.0
C1114 C 0.79448 0.33977 0.88836 0.0
C1115 C 0.81438 0.34076 0.86479 0.0
C1116 C 0.80688 0.36371 0.91509 0.0
C1117 C 0.84078 0.38819 0.9194 0.0
C1118 C 0.8603 0.39015 0.89463 0.0
C1119 C 0.84661 0.36687 0.86734 0.0
C1120 C 0.78401 0.36119 0.93945 0.0
C1121 C 0.89672 0.41506 0.89824 0.0
C1122 C 0.88577 0.46182 0.98434 0.0
C1123 C 0.90241 0.4444 0.01013 0.0
C1124 C 0.86315 0.4434 0.95566 0.0
C1125 C 0.85807 0.4071 0.95214 0.0
C1126 C 0.87267 0.38909 0.97937 0.0
C1127 C 0.89381 0.40769 1.00797 0.0
C1128 C 0.84635 0.46348 0.92852 0.0
C1129 C 0.86824 0.35052 0.97748 0.0
H1130 H 0.76933 0.31981 0.88626 0.0
H1131 H 0.86205 0.36762 0.84915 0.0
H1132 H 0.78462 0.33889 0.95728 0.0
H1133 H 0.79203 0.38559 0.95402 0.0
H1134 H 0.75697 0.35566 0.92584 0.0
H1135 H 0.90836 0.41374 0.87672 0.0
H1136 H 0.89742 0.44249 0.90019 0.0
H1137 H 0.91276 0.40862 0.92172 0.0
H1138 H 0.89198 0.49009 0.98542 0.0
H1139 H 0.90587 0.3936 0.02787 0.0
H1140 H 0.82218 0.44596 0.91346 0.0
H1141 H 0.8642 0.47651 0.91142 0.0
H1142 H 0.84063 0.4844 0.93958 0.0
H1143 H 0.84069 0.33451 0.97427 0.0
H1144 H 0.88241 0.34077 1.0004 0.0
H1145 H 0.87747 0.34603 0.95539 0.0
C1146 C 0.70787 0.91226 0.91958 0.0
C1147 C 0.73889 0.90634 0.93365 0.0
C1148 C 0.69164 0.92598 0.93877 0.0
C1149 C 0.70651 0.93363 0.97309 0.0
C1150 C 0.73797 0.92793 0.98744 0.0
C1151 C 0.75394 0.9146 0.96747 0.0
C1152 C 0.65834 0.93203 0.9223 0.0
C1153 C 0.75438 0.93525 0.02401 0.0
C1154 C 0.67179 0.99311 0.01156 0.0
C1155 C 0.64467 0.96824 0.02406 0.0
C1156 C 0.69338 0.98236 0.99629 0.0
C1157 C 0.68799 0.94595 0.994 0.0
C1158 C 0.66222 0.92096 1.00881 0.0
C1159 C 0.64073 0.93238 0.02337 0.0
C1160 C 0.72037 1.00984 0.98059 0.0
C1161 C 0.65595 0.88195 1.00754 0.0
H1162 H 0.69645 0.90651 0.89331 0.0
H1163 H 0.77787 0.90996 0.97846 0.0
H1164 H 0.63733 0.91491 0.9345 0.0
H1165 H 0.6605 0.95972 0.92562 0.0
H1166 H 0.65106 0.92638 0.89499 0.0
H1167 H 0.7795 0.93074 0.03104 0.0
H1168 H 0.75828 0.96286 0.0297 0.0
H1169 H 0.73705 0.91799 0.04002 0.0
H1170 H 0.67481 0.02083 0.0118 0.0
H1171 H 0.61997 0.91303 0.03324 0.0
H1172 H 0.71257 1.00815 0.9528 0.0
H1173 H 0.7453 1.00504 0.98794 0.0
H1174 H 0.72406 0.03694 0.98789 0.0
H1175 H 0.64498 0.87288 0.98129 0.0
H1176 H 0.63788 0.86634 0.02368 0.0
H1177 H 0.68045 0.87636 0.01567 0.0
C1178 C 0.83785 0.72602 0.19879 0.0
C1179 C 0.83503 0.7193 0.23283 0.0
C1180 C 0.85073 0.70588 0.18125 0.0
C1181 C 0.86071 0.67705 0.19725 0.0
C1182 C 0.85718 0.66965 0.23137 0.0
C1183 C 0.84497 0.69073 0.24855 0.0
C1184 C 0.85393 0.71579 0.14533 0.0
C1185 C 0.86614 0.63899 0.24985 0.0
C1186 C 0.87048 0.60717 0.14208 0.0
C1187 C 0.90624 0.61785 0.1435 0.0
C1188 C 0.85546 0.6256 0.15932 0.0
C1189 C 0.87619 0.65595 0.17897 0.0
C1190 C 0.91224 0.66635 0.18088 0.0
C1191 C 0.92647 0.64764 0.16345 0.0
C1192 C 0.81707 0.61264 0.15622 0.0
C1193 C 0.93615 0.69781 0.20134 0.0
H1194 H 0.83027 0.74753 0.18571 0.0
H1195 H 0.84255 0.68426 0.27439 0.0
H1196 H 0.88112 0.72273 0.14314 0.0
H1197 H 0.83873 0.693 0.12884 0.0
H1198 H 0.84499 0.73843 0.13599 0.0
H1199 H 0.85955 0.63449 0.2751 0.0
H1200 H 0.85231 0.61461 0.23516 0.0
H1201 H 0.894 0.64374 0.25268 0.0
H1202 H 0.85397 0.58462 0.127 0.0
H1203 H 0.95404 0.65682 0.16542 0.0
H1204 H 0.80636 0.63312 0.1436 0.0
H1205 H 0.81065 0.60784 0.18155 0.0
H1206 H 0.80434 0.588 0.14166 0.0
H1207 H 0.92911 0.72156 0.19206 0.0
H1208 H 0.96346 0.70315 0.2003 0.0
H1209 H 0.93354 0.69345 0.228 0.0
C1210 C 0.3565 0.87732 0.21406 0.0
C1211 C 0.35486 0.842 0.22116 0.0
C1212 C 0.37622 0.89901 0.19132 0.0
C1213 C 0.39506 0.88559 0.1743 0.0
C1214 C 0.39405 0.85011 0.18174 0.0
C1215 C 0.37431 0.82901 0.20496 0.0
C1216 C 0.37627 0.93641 0.18501 0.0
C1217 C 0.41316 0.83403 0.16442 0.0
C1218 C 0.41067 0.93069 0.08869 0.0
C1219 C 0.44485 0.95389 0.09592 0.0
C1220 C 0.39496 0.90792 0.11337 0.0
C1221 C 0.41331 0.90784 0.14704 0.0
C1222 C 0.44817 0.93057 0.15449 0.0
C1223 C 0.46339 0.95309 0.12907 0.0
C1224 C 0.35812 0.88438 0.10337 0.0
C1225 C 0.46928 0.93177 0.18964 0.0
H1226 H 0.34202 0.88822 0.22621 0.0
H1227 H 0.37352 0.80196 0.20981 0.0
H1228 H 0.40304 0.95491 0.18883 0.0
H1229 H 0.3638 0.93961 0.15854 0.0
H1230 H 0.36251 0.94395 0.20175 0.0
H1231 H 0.41168 0.80704 0.17406 0.0
H1232 H 0.4023 0.83277 0.13701 0.0
H1233 H 0.44056 0.85074 0.16783 0.0
H1234 H 0.39572 0.93054 0.06339 0.0
H1235 H 0.48942 0.97108 0.13552 0.0
H1236 H 0.34178 0.89229 0.11679 0.0
H1237 H 0.3558 0.85668 0.11079 0.0
H1238 H 0.34794 0.88557 0.0759 0.0
H1239 H 0.45671 0.93938 0.20749 0.0
H1240 H 0.49578 0.95069 0.19171 0.0
H1241 H 0.47078 0.90525 0.19748 0.0
C1242 C 0.70321 0.16138 0.24924 0.0
C1243 C 0.69934 0.19047 0.26227 0.0
C1244 C 0.68029 0.14407 0.22075 0.0
C1245 C 0.65204 0.15521 0.20574 0.0
C1246 C 0.64586 0.1819 0.22105 0.0
C1247 C 0.66981 0.1995 0.24899 0.0
C1248 C 0.68811 0.11605 0.20505 0.0
C1249 C 0.61521 0.19352 0.2066 0.0
C1250 C 0.61717 0.1462 0.11146 0.0
C1251 C 0.58922 0.11506 0.11009 0.0
C1252 C 0.63857 0.15894 0.14246 0.0
C1253 C 0.63064 0.14091 0.17268 0.0
C1254 C 0.60226 0.10946 0.17122 0.0
C1255 C 0.58229 0.09655 0.13984 0.0
C1256 C 0.66943 0.19185 0.14292 0.0
C1257 C 0.59217 0.09024 0.20279 0.0
H1258 H 0.72582 0.15398 0.25951 0.0
H1259 H 0.66653 0.22179 0.25904 0.0
H1260 H 0.66502 0.09228 0.19952 0.0
H1261 H 0.69583 0.12622 0.1808 0.0
H1262 H 0.70918 0.10819 0.22145 0.0
H1263 H 0.61119 0.21045 0.22418 0.0
H1264 H 0.6191 0.20869 0.18291 0.0
H1265 H 0.59158 0.17035 0.20045 0.0
H1266 H 0.6222 0.16051 0.08833 0.0
H1267 H 0.56015 0.07276 0.1386 0.0
H1268 H 0.69295 0.18682 0.15726 0.0
H1269 H 0.66623 0.21316 0.15582 0.0
H1270 H 0.67336 0.20128 0.11722 0.0
H1271 H 0.61376 0.08273 0.21837 0.0
H1272 H 0.56933 0.06613 0.19727 0.0
H1273 H 0.58633 0.10791 0.2181 0.0
C1274 C 0.71938 0.72484 0.8742 0.0
C1275 C 0.70901 0.71761 0.83949 0.0
C1276 C 0.69984 0.70501 0.89831 0.0
C1277 C 0.66893 0.67616 0.88836 0.0
C1278 C 0.6584 0.66888 0.85332 0.0
C1279 C 0.678 0.68955 0.82972 0.0
C1280 C 0.71259 0.71491 0.93478 0.0
C1281 C 0.6266 0.63836 0.84062 0.0
C1282 C 0.6408 0.60173 0.95459 0.0
C1283 C 0.61275 0.60709 0.96421 0.0
C1284 C 0.6584 0.62319 0.93016 0.0
C1285 C 0.64906 0.65235 0.91446 0.0
C1286 C 0.62062 0.65801 0.92381 0.0
C1287 C 0.60275 0.63538 0.94796 0.0
C1288 C 0.68735 0.61442 0.92121 0.0
C1289 C 0.60947 0.68869 0.90878 0.0
H1290 H 0.74298 0.7462 0.88266 0.0
H1291 H 0.66923 0.68306 0.80333 0.0
H1292 H 0.69174 0.71829 0.94508 0.0
H1293 H 0.72022 0.69341 0.9495 0.0
H1294 H 0.73499 0.73959 0.93851 0.0
H1295 H 0.62103 0.63626 0.81283 0.0
H1296 H 0.6298 0.61342 0.85206 0.0
H1297 H 0.60409 0.64115 0.84828 0.0
H1298 H 0.64918 0.58015 0.96631 0.0
H1299 H 0.58164 0.64062 0.95486 0.0
H1300 H 0.71177 0.63649 0.9281 0.0
H1301 H 0.6825 0.61092 0.89367 0.0
H1302 H 0.69067 0.59006 0.93417 0.0
H1303 H 0.63122 0.71363 0.91464 0.0
H1304 H 0.58738 0.69014 0.91837 0.0
H1305 H 0.60218 0.68664 0.88102 0.0
C1306 C 0.33364 0.69118 0.87384 0.0
C1307 C 0.34513 0.7204 0.85286 0.0
C1308 C 0.35577 0.67284 0.89101 0.0
C1309 C 0.38999 0.68269 0.88598 0.0
C1310 C 0.40135 0.71162 0.86399 0.0
C1311 C 0.37916 0.7305 0.8484 0.0
C1312 C 0.34265 0.64331 0.91512 0.0
C1313 C 0.4369 0.7224 0.85656 0.0
C1314 C 0.45792 0.65929 0.95434 0.0
C1315 C 0.45732 0.62673 0.94391 0.0
C1316 C 0.43642 0.67752 0.93584 0.0
C1317 C 0.4143 0.66396 0.90503 0.0
C1318 C 0.41481 0.63205 0.89334 0.0
C1319 C 0.43557 0.61346 0.9132 0.0
C1320 C 0.43612 0.71049 0.95033 0.0
C1321 C 0.39286 0.61708 0.86011 0.0
H1322 H 0.30743 0.68312 0.87746 0.0
H1323 H 0.38816 0.75264 0.83181 0.0
H1324 H 0.3432 0.61825 0.90666 0.0
H1325 H 0.3596 0.64869 0.94041 0.0
H1326 H 0.316 0.63974 0.91738 0.0
H1327 H 0.44098 0.74346 0.8369 0.0
H1328 H 0.45645 0.73206 0.87971 0.0
H1329 H 0.44132 0.6993 0.84809 0.0
H1330 H 0.47383 0.6697 0.97829 0.0
H1331 H 0.43444 0.58829 0.90486 0.0
H1332 H 0.41 0.70663 0.9544 0.0
H1333 H 0.44241 0.73296 0.93245 0.0
H1334 H 0.45465 0.71763 0.97462 0.0
H1335 H 0.36545 0.60701 0.86202 0.0
H1336 H 0.39962 0.59514 0.85229 0.0
H1337 H 0.39569 0.63792 0.84023 0.0
C1338 C 0.34432 0.34627 0.85512 0.0
C1339 C 0.33985 0.357 0.82133 0.0
C1340 C 0.36244 0.37038 0.88058 0.0
C1341 C 0.37838 0.40591 0.87186 0.0
C1342 C 0.3724 0.4175 0.83792 0.0
C1343 C 0.35283 0.39275 0.81286 0.0
C1344 C 0.36763 0.35689 0.91648 0.0
C1345 C 0.3891 0.45521 0.82776 0.0
C1346 C 0.42811 0.46113 0.94844 0.0
C1347 C 0.45902 0.45407 0.95337 0.0
C1348 C 0.40185 0.44769 0.92042 0.0
C1349 C 0.40729 0.42753 0.89689 0.0
C1350 C 0.43948 0.42267 0.90072 0.0
C1351 C 0.46474 0.43562 0.92912 0.0
C1352 C 0.36779 0.45322 0.91714 0.0
C1353 C 0.44664 0.40185 0.87592 0.0
H1354 H 0.3354 0.31857 0.86176 0.0
H1355 H 0.34931 0.40106 0.78667 0.0
H1356 H 0.39367 0.35462 0.92406 0.0
H1357 H 0.36566 0.37535 0.93384 0.0
H1358 H 0.34853 0.33055 0.91958 0.0
H1359 H 0.37568 0.46179 0.80271 0.0
H1360 H 0.38955 0.47367 0.84652 0.0
H1361 H 0.41609 0.45934 0.82642 0.0
H1362 H 0.42399 0.47591 0.96702 0.0
H1363 H 0.48913 0.43119 0.93241 0.0
H1364 H 0.34928 0.42901 0.92577 0.0
H1365 H 0.35699 0.45827 0.89057 0.0
H1366 H 0.37009 0.4755 0.93262 0.0
H1367 H 0.43159 0.37354 0.87815 0.0
H1368 H 0.47424 0.40445 0.88032 0.0
H1369 H 0.43872 0.41065 0.84979 0.0
C1370 C 0.70318 0.46075 0.86123 0.0
C1371 C 0.72408 0.43955 0.86583 0.0
C1372 C 0.69572 0.47275 0.88881 0.0
C1373 C 0.71015 0.46397 0.92177 0.0
C1374 C 0.73474 0.44656 0.92655 0.0
C1375 C 0.74106 0.43409 0.89851 0.0
C1376 C 0.66965 0.49166 0.88253 0.0
C1377 C 0.75209 0.43801 0.96114 0.0
C1378 C 0.68459 0.50078 0.9904 0.0
C1379 C 0.6547 0.47318 0.99467 0.0
C1380 C 0.70449 0.49757 0.96824 0.0
C1381 C 0.69397 0.46621 0.94989 0.0
C1382 C 0.66525 0.43749 0.95597 0.0
C1383 C 0.64607 0.44131 0.97832 0.0
C1384 C 0.73573 0.52822 0.96331 0.0
C1385 C 0.65352 0.40327 0.93742 0.0
H1386 H 0.69099 0.46627 0.83603 0.0
H1387 H 0.75748 0.41799 0.90253 0.0
H1388 H 0.64521 0.47365 0.88874 0.0
H1389 H 0.67858 0.5149 0.89887 0.0
H1390 H 0.66432 0.5005 0.8559 0.0
H1391 H 0.77882 0.43956 0.96123 0.0
H1392 H 0.75278 0.45601 0.98046 0.0
H1393 H 0.738 0.41063 0.96826 0.0
H1394 H 0.69156 0.52546 1.00311 0.0
H1395 H 0.6234 0.41963 0.98196 0.0
H1396 H 0.72978 0.5417 0.93898 0.0
H1397 H 0.75738 0.51895 0.96243 0.0
H1398 H 0.74408 0.54776 0.98363 0.0
H1399 H 0.64592 0.40808 0.91005 0.0
H1400 H 0.63136 0.38313 0.94592 0.0
H1401 H 0.67487 0.39241 0.94112 0.0
C1402 C 0.71298 0.34448 0.20256 0.0
C1403 C 0.70839 0.33226 0.23515 0.0
C1404 C 0.69325 0.36402 0.1828 0.0
C1405 C 0.66808 0.37192 0.19566 0.0
C1406 C 0.66325 0.35951 0.22848 0.0
C1407 C 0.68326 0.33994 0.24766 0.0
C1408 C 0.69944 0.37634 0.14802 0.0
C1409 C 0.63693 0.36706 0.24349 0.0
C1410 C 0.63991 0.44974 0.1541 0.0
C1411 C 0.60949 0.43297 0.13104 0.0
C1412 C 0.65857 0.43033 0.17578 0.0
C1413 C 0.64688 0.39296 0.17472 0.0
C1414 C 0.6154 0.37583 0.15267 0.0
C1415 C 0.59723 0.39585 0.13131 0.0
C1416 C 0.69167 0.45001 0.19893 0.0
C1417 C 0.60154 0.3362 0.15055 0.0
H1418 H 0.73216 0.33886 0.1924 0.0
H1419 H 0.67931 0.33085 0.27272 0.0
H1420 H 0.67534 0.36577 0.12913 0.0
H1421 H 0.70727 0.40549 0.14624 0.0
H1422 H 0.71965 0.36796 0.14144 0.0
H1423 H 0.63609 0.35563 0.26922 0.0
H1424 H 0.6428 0.39592 0.24461 0.0
H1425 H 0.61107 0.35621 0.22731 0.0
H1426 H 0.65005 0.47825 0.15432 0.0
H1427 H 0.57399 0.38224 0.11373 0.0
H1428 H 0.71355 0.4459 0.19114 0.0
H1429 H 0.69154 0.43969 0.22506 0.0
H1430 H 0.6961 0.47875 0.19876 0.0
H1431 H 0.61935 0.32678 0.14072 0.0
H1432 H 0.57573 0.32664 0.13391 0.0
H1433 H 0.59987 0.32418 0.17593 0.0
C1434 C 0.68307 0.67344 0.26065 0.0
C1435 C 0.71869 0.68427 0.26453 0.0
C1436 C 0.66192 0.65191 0.23367 0.0
C1437 C 0.67713 0.64189 0.21022 0.0
C1438 C 0.7131 0.65006 0.21615 0.0
C1439 C 0.7334 0.67087 0.24352 0.0
C1440 C 0.6235 0.64255 0.2286 0.0
C1441 C 0.73048 0.64021 0.19177 0.0
C1442 C 0.62065 0.57976 0.14014 0.0
C1443 C 0.61297 0.60366 0.11511 0.0
C1444 C 0.64193 0.59168 0.17128 0.0
C1445 C 0.65625 0.6283 0.17703 0.0
C1446 C 0.65043 0.65251 0.15098 0.0
C1447 C 0.62851 0.63985 0.12041 0.0
C1448 C 0.64731 0.56511 0.19854 0.0
C1449 C 0.66637 0.69185 0.15579 0.0
H1450 H 0.67185 0.68381 0.27704 0.0
H1451 H 0.76109 0.67875 0.2471 0.0
H1452 H 0.61453 0.65909 0.20793 0.0
H1453 H 0.61044 0.61461 0.22125 0.0
H1454 H 0.61562 0.64691 0.25163 0.0
H1455 H 0.75799 0.64403 0.20255 0.0
H1456 H 0.71737 0.61242 0.18406 0.0
H1457 H 0.72899 0.65696 0.16874 0.0
H1458 H 0.60828 0.5517 0.13625 0.0
H1459 H 0.62265 0.65829 0.101 0.0
H1460 H 0.63259 0.56502 0.21794 0.0
H1461 H 0.67474 0.5722 0.21117 0.0
H1462 H 0.6386 0.53805 0.1886 0.0
H1463 H 0.65616 0.69998 0.17537 0.0
H1464 H 0.66106 0.70695 0.13229 0.0
H1465 H 0.69459 0.69914 0.16458 0.0
C1466 C 0.33083 0.62189 0.17299 0.0
C1467 C 0.35458 0.62778 0.20371 0.0
C1468 C 0.33692 0.60787 0.14575 0.0
C1469 C 0.36736 0.5995 0.14958 0.0
C1470 C 0.38972 0.60228 0.18142 0.0
C1471 C 0.38313 0.61657 0.2081 0.0
C1472 C 0.31226 0.60488 0.11232 0.0
C1473 C 0.4223 0.59318 0.18661 0.0
C1474 C 0.3916 0.55477 0.08634 0.0
C1475 C 0.41576 0.58375 0.07418 0.0
C1476 C 0.37332 0.55949 0.10931 0.0
C1477 C 0.37929 0.59393 0.11975 0.0
C1478 C 0.40126 0.62336 0.10499 0.0
C1479 C 0.41948 0.61785 0.08255 0.0
C1480 C 0.34984 0.5276 0.12437 0.0
C1481 C 0.4078 0.66059 0.11499 0.0
H1482 H 0.30821 0.6297 0.16977 0.0
H1483 H 0.40164 0.62112 0.23171 0.0
H1484 H 0.3226 0.62796 0.0962 0.0
H1485 H 0.30916 0.58088 0.099 0.0
H1486 H 0.28662 0.60435 0.11528 0.0
H1487 H 0.43437 0.59235 0.21365 0.0
H1488 H 0.41705 0.56729 0.17556 0.0
H1489 H 0.44102 0.61325 0.17368 0.0
H1490 H 0.3888 0.52835 0.07982 0.0
H1491 H 0.43787 0.64022 0.07269 0.0
H1492 H 0.32532 0.5316 0.12499 0.0
H1493 H 0.36215 0.52359 0.15072 0.0
H1494 H 0.34416 0.50332 0.11021 0.0
H1495 H 0.38322 0.66507 0.11428 0.0
H1496 H 0.42233 0.68048 0.09832 0.0
H1497 H 0.42285 0.6649 0.14115 0.0
C1498 C 0.34206 0.3362 0.18938 0.0
C1499 C 0.35558 0.33709 0.22433 0.0
C1500 C 0.36193 0.35642 0.16559 0.0
C1501 C 0.39645 0.37931 0.17629 0.0
C1502 C 0.41 0.38033 0.21156 0.0
C1503 C 0.38995 0.35928 0.2346 0.0
C1504 C 0.34579 0.35323 0.12869 0.0
C1505 C 0.44576 0.40457 0.22528 0.0
C1506 C 0.46071 0.41655 0.11438 0.0
C1507 C 0.45709 0.44961 0.10409 0.0
C1508 C 0.44125 0.39353 0.13722 0.0
C1509 C 0.41766 0.40345 0.15126 0.0
C1510 C 0.41488 0.43726 0.14158 0.0
C1511 C 0.43377 0.45912 0.11817 0.0
C1512 C 0.44521 0.35789 0.14558 0.0
C1513 C 0.39147 0.45055 0.15573 0.0
H1514 H 0.31586 0.31942 0.18048 0.0
H1515 H 0.40129 0.36085 0.26121 0.0
H1516 H 0.3427 0.37865 0.11871 0.0
H1517 H 0.3628 0.34729 0.11461 0.0
H1518 H 0.32023 0.33234 0.12376 0.0
H1519 H 0.45298 0.40263 0.25309 0.0
H1520 H 0.4647 0.39834 0.2142 0.0
H1521 H 0.44759 0.43223 0.21809 0.0
H1522 H 0.47772 0.40796 0.10355 0.0
H1523 H 0.43005 0.48418 0.1106 0.0
H1524 H 0.42003 0.33701 0.13788 0.0
H1525 H 0.45355 0.35498 0.17312 0.0
H1526 H 0.46412 0.35357 0.13291 0.0
H1527 H 0.36434 0.43478 0.14581 0.0
H1528 H 0.395 0.47868 0.1491 0.0
H1529 H 0.39621 0.4475 0.18352 0.0
C1530 C 0.821 0.6518 0.6051 0.0
C1531 C 0.8346 0.65782 0.63949 0.0
C1532 C 0.83766 0.63936 0.58515 0.0
C1533 C 0.86828 0.63221 0.60011 0.0
C1534 C 0.88168 0.63764 0.63498 0.0
C1535 C 0.86484 0.65059 0.65414 0.0
C1536 C 0.82287 0.63445 0.548 0.0
C1537 C 0.91397 0.62989 0.6521 0.0
C1538 C 0.90224 0.57296 0.56044 0.0
C1539 C 0.93076 0.59767 0.54991 0.0
C1540 C 0.88058 0.58381 0.57547 0.0
C1541 C 0.88726 0.62022 0.57946 0.0
C1542 C 0.91456 0.64524 0.56664 0.0
C1543 C 0.93615 0.63367 0.55235 0.0
C1544 C 0.85201 0.55626 0.58912 0.0
C1545 C 0.92221 0.6843 0.56971 0.0
H1546 H 0.79768 0.65746 0.59369 0.0
H1547 H 0.87513 0.65466 0.68082 0.0
H1548 H 0.84161 0.65198 0.53346 0.0
H1549 H 0.81811 0.607 0.54105 0.0
H1550 H 0.79845 0.64034 0.54036 0.0
H1551 H 0.92016 0.63404 0.67965 0.0
H1552 H 0.91113 0.60225 0.64762 0.0
H1553 H 0.936 0.64715 0.64133 0.0
H1554 H 0.89809 0.5451 0.55887 0.0
H1555 H 0.958 0.65291 0.54401 0.0
H1556 H 0.82768 0.56219 0.58112 0.0
H1557 H 0.8585 0.55651 0.61701 0.0
H1558 H 0.84775 0.52937 0.5808 0.0
H1559 H 0.8984 0.69116 0.56115 0.0
H1560 H 0.94148 0.70019 0.55488 0.0
H1561 H 0.93228 0.69181 0.59647 0.0
C1562 C 0.48386 0.96155 0.71482 0.0
C1563 C 0.47936 0.92926 0.73202 0.0
C1564 C 0.50211 0.97012 0.68883 0.0
C1565 C 0.51575 0.94553 0.67981 0.0
C1566 C 0.51476 0.91484 0.69974 0.0
C1567 C 0.49645 0.90699 0.72577 0.0
C1568 C 0.50338 1.00365 0.66867 0.0
C1569 C 0.52966 0.88842 0.69135 0.0
C1570 C 0.50036 0.94642 0.58576 0.0
C1571 C 0.53192 0.96943 0.5801 0.0
C1572 C 0.49585 0.93542 0.61835 0.0
C1573 C 0.5235 0.94841 0.64583 0.0
C1574 C 0.55639 0.96879 0.63997 0.0
C1575 C 0.5603 0.97894 0.6069 0.0
C1576 C 0.46054 0.91274 0.62344 0.0
C1577 C 0.58658 0.98279 0.66851 0.0
H1578 H 0.47111 0.979 0.72018 0.0
H1579 H 0.49306 0.88201 0.73922 0.0
H1580 H 0.52937 0.01708 0.66331 0.0
H1581 H 0.48502 0.99718 0.64422 0.0
H1582 H 0.49643 0.0222 0.68191 0.0
H1583 H 0.53457 0.87126 0.71338 0.0
H1584 H 0.51118 0.87141 0.67083 0.0
H1585 H 0.55396 0.9017 0.68245 0.0
H1586 H 0.47863 0.93868 0.56483 0.0
H1587 H 0.5848 0.99673 0.60242 0.0
H1588 H 0.44872 0.92886 0.63406 0.0
H1589 H 0.46224 0.89091 0.64153 0.0
H1590 H 0.44326 0.90133 0.59953 0.0
H1591 H 0.58564 1.00743 0.67761 0.0
H1592 H 0.61132 0.989 0.66024 0.0
H1593 H 0.58594 0.96378 0.68995 0.0
C1594 C 0.21359 0.34256 0.7019 0.0
C1595 C 0.21658 0.332 0.73582 0.0
C1596 C 0.19228 0.36248 0.68761 0.0
C1597 C 0.17331 0.37192 0.70762 0.0
C1598 C 0.17603 0.36117 0.74179 0.0
C1599 C 0.19763 0.34146 0.75546 0.0
C1600 C 0.19022 0.37363 0.65106 0.0
C1601 C 0.15614 0.37048 0.76393 0.0
C1602 C 0.146 0.45044 0.67264 0.0
C1603 C 0.11356 0.43391 0.65258 0.0
C1604 C 0.16499 0.43063 0.69243 0.0
C1605 C 0.15101 0.39341 0.69264 0.0
C1606 C 0.1168 0.37682 0.67561 0.0
C1607 C 0.09845 0.39726 0.65582 0.0
C1608 C 0.20121 0.44946 0.71058 0.0
C1609 C 0.10057 0.33725 0.67587 0.0
H1610 H 0.22807 0.33549 0.68652 0.0
H1611 H 0.19954 0.33342 0.7817 0.0
H1612 H 0.16328 0.3632 0.63705 0.0
H1613 H 0.1984 0.40277 0.64879 0.0
H1614 H 0.20658 0.36422 0.63893 0.0
H1615 H 0.1611 0.3601 0.79004 0.0
H1616 H 0.16303 0.39949 0.76482 0.0
H1617 H 0.12821 0.35974 0.75326 0.0
H1618 H 0.15794 0.47873 0.67073 0.0
H1619 H 0.07327 0.38412 0.64084 0.0
H1620 H 0.2196 0.44507 0.69726 0.0
H1621 H 0.20604 0.43885 0.73655 0.0
H1622 H 0.2066 0.47828 0.71174 0.0
H1623 H 0.11235 0.32569 0.66017 0.0
H1624 H 0.07244 0.32881 0.66578 0.0
H1625 H 0.10529 0.32631 0.70172 0.0
C1626 C 0.75278 0.20557 0.69529 0.0
C1627 C 0.73346 0.2271 0.69756 0.0
C1628 C 0.74291 0.18142 0.6688 0.0
C1629 C 0.71215 0.17772 0.64447 0.0
C1630 C 0.69178 0.19836 0.64781 0.0
C1631 C 0.70308 0.22325 0.67364 0.0
C1632 C 0.76663 0.16146 0.66642 0.0
C1633 C 0.65788 0.19428 0.62396 0.0
C1634 C 0.68751 0.14568 0.55412 0.0
C1635 C 0.66582 0.1109 0.55715 0.0
C1636 C 0.70605 0.16635 0.58267 0.0
C1637 C 0.70088 0.15302 0.61518 0.0
C1638 C 0.68077 0.11715 0.61853 0.0
C1639 C 0.66412 0.09641 0.58959 0.0
C1640 C 0.72935 0.20333 0.57775 0.0
C1641 C 0.6742 0.10156 0.65239 0.0
H1642 H 0.77638 0.20857 0.71348 0.0
H1643 H 0.68792 0.2397 0.67526 0.0
H1644 H 0.77895 0.1546 0.69187 0.0
H1645 H 0.75341 0.137 0.65178 0.0
H1646 H 0.78734 0.17863 0.65385 0.0
H1647 H 0.64331 0.20915 0.63216 0.0
H1648 H 0.66236 0.20392 0.59851 0.0
H1649 H 0.64178 0.16606 0.6219 0.0
H1650 H 0.68838 0.15747 0.52926 0.0
H1651 H 0.64659 0.06997 0.59225 0.0
H1652 H 0.75329 0.20952 0.59736 0.0
H1653 H 0.7163 0.22234 0.58004 0.0
H1654 H 0.73623 0.20716 0.55258 0.0
H1655 H 0.69883 0.10592 0.67072 0.0
H1656 H 0.65973 0.07285 0.65121 0.0
H1657 H 0.65922 0.11496 0.66201 0.0
C1658 C 0.8483 0.39472 0.34115 0.0
C1659 C 0.8512 0.36635 0.32596 0.0
C1660 C 0.87445 0.41334 0.36696 0.0
C1661 C 0.90469 0.4043 0.37666 0.0
C1662 C 0.90964 0.37907 0.35821 0.0
C1663 C 0.88251 0.35987 0.33333 0.0
C1664 C 0.86852 0.44056 0.38565 0.0
C1665 C 0.94274 0.37085 0.36617 0.0
C1666 C 0.97766 0.46456 0.43865 0.0
C1667 C 0.97609 0.44405 0.46818 0.0
C1668 C 0.95515 0.45178 0.40837 0.0
C1669 C 0.92935 0.41842 0.40816 0.0
C1670 C 0.92671 0.3983 0.43844 0.0
C1671 C 0.95082 0.411 0.46799 0.0
C1672 C 0.95964 0.47423 0.37699 0.0
C1673 C 0.89842 0.3634 0.43962 0.0
H1674 H 0.82437 0.40035 0.33508 0.0
H1675 H 0.88505 0.33837 0.32122 0.0
H1676 H 0.86935 0.43246 0.41248 0.0
H1677 H 0.88918 0.46622 0.38478 0.0
H1678 H 0.84342 0.44434 0.37502 0.0
H1679 H 0.94468 0.3552 0.34612 0.0
H1680 H 0.96508 0.39558 0.36944 0.0
H1681 H 0.9443 0.35556 0.39012 0.0
H1682 H 0.99766 0.48999 0.43887 0.0
H1683 H 0.94984 0.39528 0.49098 0.0
H1684 H 0.94807 0.45889 0.35357 0.0
H1685 H 0.98733 0.48806 0.37727 0.0
H1686 H 0.9475 0.49469 0.37648 0.0
H1687 H 0.87305 0.36648 0.42891 0.0
H1688 H 0.89834 0.35255 0.46563 0.0
H1689 H 0.90147 0.34395 0.42413 0.0
C1690 C 0.72509 0.85455 0.32901 0.0
C1691 C 0.73732 0.82762 0.34544 0.0
C1692 C 0.71284 0.87566 0.34611 0.0
C1693 C 0.71163 0.86995 0.38092 0.0
C1694 C 0.72396 0.84282 0.39762 0.0
C1695 C 0.73675 0.8226 0.38009 0.0
C1696 C 0.7012 0.90443 0.32675 0.0
C1697 C 0.72343 0.83482 0.43435 0.0
C1698 C 0.70152 0.94143 0.43379 0.0
C1699 C 0.66604 0.92954 0.43415 0.0
C1700 C 0.71654 0.92282 0.41678 0.0
C1701 C 0.69613 0.89097 0.39926 0.0
C1702 C 0.66039 0.8791 0.39943 0.0
C1703 C 0.64612 0.89812 0.41648 0.0
C1704 C 0.75457 0.9374 0.41756 0.0
C1705 C 0.63685 0.84586 0.38145 0.0
H1706 H 0.72557 0.85964 0.30259 0.0
H1707 H 0.74613 0.80241 0.39372 0.0
H1708 H 0.67316 0.89781 0.32469 0.0
H1709 H 0.71397 0.92966 0.3403 0.0
H1710 H 0.70687 0.90838 0.30113 0.0
H1711 H 0.73408 0.81344 0.44419 0.0
H1712 H 0.7385 0.8588 0.4493 0.0
H1713 H 0.69667 0.82691 0.43818 0.0
H1714 H 0.71776 0.9654 0.44692 0.0
H1715 H 0.61879 0.88796 0.41595 0.0
H1716 H 0.75922 0.94164 0.39154 0.0
H1717 H 0.76699 0.91812 0.42999 0.0
H1718 H 0.76706 0.96268 0.43112 0.0
H1719 H 0.63745 0.84881 0.35427 0.0
H1720 H 0.60986 0.83932 0.38425 0.0
H1721 H 0.64585 0.82343 0.39135 0.0
C1722 C 0.21665 0.67363 0.36075 0.0
C1723 C 0.21755 0.70852 0.35208 0.0
C1724 C 0.19723 0.65275 0.38409 0.0
C1725 C 0.17795 0.66657 0.40015 0.0
C1726 C 0.17818 0.70155 0.3911 0.0
C1727 C 0.19767 0.72186 0.36736 0.0
C1728 C 0.19764 0.61565 0.39182 0.0
C1729 C 0.15817 0.71783 0.407 0.0
C1730 C 0.10941 0.60058 0.4462 0.0
C1731 C 0.12761 0.60104 0.47964 0.0
C1732 C 0.12485 0.62198 0.42034 0.0
C1733 C 0.15956 0.64512 0.42768 0.0
C1734 C 0.17759 0.64628 0.46162 0.0
C1735 C 0.16172 0.62438 0.48671 0.0
C1736 C 0.10381 0.61946 0.38505 0.0
C1737 C 0.21424 0.67033 0.4715 0.0
H1738 H 0.23143 0.66244 0.34932 0.0
H1739 H 0.19778 0.74856 0.36124 0.0
H1740 H 0.20947 0.61324 0.41867 0.0
H1741 H 0.17095 0.5969 0.38765 0.0
H1742 H 0.21216 0.60781 0.37611 0.0
H1743 H 0.16029 0.74491 0.39723 0.0
H1744 H 0.13068 0.70128 0.40222 0.0
H1745 H 0.16761 0.71883 0.43465 0.0
H1746 H 0.08348 0.58238 0.43991 0.0
H1747 H 0.17641 0.62539 0.51222 0.0
H1748 H 0.11934 0.61975 0.36633 0.0
H1749 H 0.0948 0.64252 0.37964 0.0
H1750 H 0.08094 0.59522 0.38166 0.0
H1751 H 0.23095 0.66217 0.45879 0.0
H1752 H 0.22421 0.67005 0.49907 0.0
H1753 H 0.21622 0.69776 0.46316 0.0
C1754 C 0.36905 0.22133 0.3667 0.0
C1755 C 0.3568 0.22189 0.33156 0.0
C1756 C 0.39172 0.20248 0.38227 0.0
C1757 C 0.40382 0.18365 0.36272 0.0
C1758 C 0.3918 0.1844 0.32716 0.0
C1759 C 0.36853 0.20291 0.31227 0.0
C1760 C 0.4025 0.20246 0.42007 0.0
C1761 C 0.4038 0.16574 0.30457 0.0
C1762 C 0.48717 0.16123 0.40462 0.0
C1763 C 0.47479 0.12537 0.41432 0.0
C1764 C 0.46489 0.17988 0.38722 0.0
C1765 C 0.42852 0.16317 0.37947 0.0
C1766 C 0.41592 0.12691 0.38887 0.0
C1767 C 0.4388 0.10871 0.40561 0.0
C1768 C 0.48045 0.21798 0.37756 0.0
C1769 C 0.3778 0.10737 0.38227 0.0
H1770 H 0.36049 0.23542 0.38237 0.0
H1771 H 0.35978 0.20278 0.28522 0.0
H1772 H 0.39536 0.17499 0.43002 0.0
H1773 H 0.43081 0.21427 0.42755 0.0
H1774 H 0.39049 0.21736 0.43207 0.0
H1775 H 0.39322 0.16933 0.27754 0.0
H1776 H 0.43226 0.17574 0.30884 0.0
H1777 H 0.39598 0.13715 0.31075 0.0
H1778 H 0.51454 0.17511 0.41107 0.0
H1779 H 0.42811 0.08141 0.41307 0.0
H1780 H 0.47249 0.23482 0.39183 0.0
H1781 H 0.47088 0.22224 0.35045 0.0
H1782 H 0.50894 0.22672 0.38266 0.0
H1783 H 0.36517 0.11994 0.39606 0.0
H1784 H 0.37169 0.07921 0.39015 0.0
H1785 H 0.36658 0.10887 0.35513 0.0
C1786 C 0.72 0.82587 0.67671 0.0
C1787 C 0.72109 0.82771 0.71126 0.0
C1788 C 0.70394 0.84556 0.65227 0.0
C1789 C 0.68797 0.86777 0.66209 0.0
C1790 C 0.68848 0.86928 0.6969 0.0
C1791 C 0.70507 0.84959 0.72087 0.0
C1792 C 0.70459 0.84299 0.61578 0.0
C1793 C 0.67169 0.89204 0.70894 0.0
C1794 C 0.67579 0.94363 0.60118 0.0
C1795 C 0.64166 0.92944 0.58337 0.0
C1796 C 0.69078 0.92432 0.627 0.0
C1797 C 0.67141 0.88971 0.63603 0.0
C1798 C 0.63655 0.87577 0.6191 0.0
C1799 C 0.62229 0.89552 0.5931 0.0
C1800 C 0.72795 0.94064 0.64389 0.0
C1801 C 0.61443 0.83942 0.62784 0.0
H1802 H 0.73235 0.80943 0.66867 0.0
H1803 H 0.70562 0.85151 0.74733 0.0
H1804 H 0.678 0.83405 0.60072 0.0
H1805 H 0.71801 0.86936 0.60587 0.0
H1806 H 0.71771 0.82449 0.61197 0.0
H1807 H 0.67304 0.88952 0.73652 0.0
H1808 H 0.68437 0.92005 0.70256 0.0
H1809 H 0.64433 0.88482 0.69597 0.0
H1810 H 0.69141 0.96955 0.59411 0.0
H1811 H 0.596 0.8839 0.57982 0.0
H1812 H 0.74313 0.92493 0.63849 0.0
H1813 H 0.73048 0.94032 0.67155 0.0
H1814 H 0.73924 0.96823 0.63528 0.0
H1815 H 0.62468 0.81951 0.62143 0.0
H1816 H 0.5873 0.83314 0.61426 0.0
H1817 H 0.61509 0.83702 0.65528 0.0
C1818 C 0.7843 0.19017 0.49705 0.0
C1819 C 0.79306 0.21151 0.46922 0.0
C1820 C 0.76241 0.15511 0.49231 0.0
C1821 C 0.7486 0.14243 0.45912 0.0
C1822 C 0.76334 0.16126 0.4324 0.0
C1823 C 0.78527 0.19579 0.43776 0.0
C1824 C 0.75127 0.13292 0.52212 0.0
C1825 C 0.75064 0.14824 0.39675 0.0
C1826 C 0.67075 0.06038 0.43881 0.0
C1827 C 0.64393 0.07381 0.43734 0.0
C1828 C 0.70516 0.08202 0.44651 0.0
C1829 C 0.71272 0.11834 0.45081 0.0
C1830 C 0.6856 0.1326 0.44625 0.0
C1831 C 0.65152 0.11008 0.43987 0.0
C1832 C 0.73305 0.06553 0.45218 0.0
C1833 C 0.69243 0.17154 0.44934 0.0
H1834 H 0.79098 0.20195 0.52156 0.0
H1835 H 0.79069 0.212 0.41579 0.0
H1836 H 0.72304 0.11988 0.51732 0.0
H1837 H 0.76291 0.1117 0.52636 0.0
H1838 H 0.75951 0.14852 0.54542 0.0
H1839 H 0.7703 0.16073 0.38125 0.0
H1840 H 0.74371 0.11925 0.39589 0.0
H1841 H 0.72735 0.15526 0.38527 0.0
H1842 H 0.66482 0.03247 0.43578 0.0
H1843 H 0.63096 0.12075 0.43838 0.0
H1844 H 0.74173 0.06221 0.47964 0.0
H1845 H 0.75572 0.08248 0.44219 0.0
H1846 H 0.72369 0.03919 0.44056 0.0
H1847 H 0.70619 0.18001 0.47523 0.0
H1848 H 0.66845 0.17833 0.44383 0.0
H1849 H 0.70895 0.18685 0.43179 0.0
C1850 C 0.93932 0.66575 0.31823 0.0
C1851 C 0.91321 0.65403 0.33676 0.0
C1852 C 0.96455 0.64957 0.3228 0.0
C1853 C 0.96454 0.62314 0.34805 0.0
C1854 C 0.93455 0.60716 0.36177 0.0
C1855 C 0.90909 0.62281 0.35555 0.0
C1856 C 0.99278 0.66342 0.30315 0.0
C1857 C 0.93136 0.57745 0.38757 0.0
C1858 C 1.01396 0.57738 0.40576 0.0
C1859 C 1.02262 0.60002 0.43289 0.0
C1860 C 1.0033 0.58894 0.373 0.0
C1861 C 0.9976 0.62159 0.36881 0.0
C1862 C 1.01403 0.64687 0.39454 0.0
C1863 C 0.02678 0.63565 0.42655 0.0
C1864 C 0.99357 0.56481 0.34373 0.0
C1865 C 1.01275 0.68392 0.39031 0.0
H1866 H 0.94139 0.68894 0.30209 0.0
H1867 H 0.88824 0.61319 0.36907 0.0
H1868 H 1.00592 0.69206 0.30735 0.0
H1869 H 1.01192 0.64949 0.30962 0.0
H1870 H 0.98128 0.66031 0.27589 0.0
H1871 H 0.90511 0.56653 0.393 0.0
H1872 H 0.93724 0.55552 0.37882 0.0
H1873 H 0.94949 0.58721 0.41151 0.0
H1874 H 1.01316 0.5503 0.41032 0.0
H1875 H 0.0354 0.65369 0.44732 0.0
H1876 H 0.9978 0.58033 0.32025 0.0
H1877 H 0.96601 0.54875 0.33997 0.0
H1878 H 1.00883 0.54669 0.34819 0.0
H1879 H 0.02947 0.70083 0.41172 0.0
H1880 H 0.98605 0.68345 0.38853 0.0
H1881 H 1.02126 0.69617 0.36697 0.0
C1882 C 0.3284 0.86582 0.3523 0.0
C1883 C 0.3234 0.83152 0.36526 0.0
C1884 C 0.35033 0.89464 0.3719 0.0
C1885 C 0.36732 0.8883 0.40455 0.0
C1886 C 0.35588 0.85468 0.41984 0.0
C1887 C 0.3341 0.82624 0.39972 0.0
C1888 C 0.35998 0.93074 0.35569 0.0
C1889 C 0.37149 0.84754 0.45558 0.0
C1890 C 0.46368 0.92052 0.41802 0.0
C1891 C 0.47303 0.94723 0.44122 0.0
C1892 C 0.4293 0.90219 0.40517 0.0
C1893 C 0.40342 0.91046 0.4163 0.0
C1894 C 0.41263 0.93796 0.43934 0.0
C1895 C 0.44757 0.95639 0.45132 0.0
C1896 C 0.42094 0.8734 0.38018 0.0
C1897 C 0.386 0.94811 0.4514 0.0
H1898 H 0.31857 0.87 0.32592 0.0
H1899 H 0.32871 0.7997 0.41015 0.0
H1900 H 0.36549 0.95139 0.37429 0.0
H1901 H 0.38354 0.93547 0.34569 0.0
H1902 H 0.33925 0.93314 0.33448 0.0
H1903 H 0.35429 0.82363 0.46619 0.0
H1904 H 0.39613 0.84319 0.45611 0.0
H1905 H 0.37696 0.87029 0.47176 0.0
H1906 H 0.48347 0.91386 0.40988 0.0
H1907 H 0.45481 0.97699 0.46941 0.0
H1908 H 0.40395 0.87833 0.35674 0.0
H1909 H 0.40727 0.84757 0.39084 0.0
H1910 H 0.44427 0.87147 0.37343 0.0
H1911 H 0.37834 0.96771 0.43351 0.0
H1912 H 0.39644 0.96042 0.47651 0.0
H1913 H 0.3626 0.92518 0.45278 0.0
C1914 C 0.27273 0.44054 0.43647 0.0
C1915 C 0.28224 0.4106 0.4465 0.0
C1916 C 0.25464 0.45207 0.45524 0.0
C1917 C 0.24615 0.43329 0.48484 0.0
C1918 C 0.25781 0.40454 0.49634 0.0
C1919 C 0.27554 0.39333 0.47683 0.0
C1920 C 0.24233 0.48262 0.44196 0.0
C1921 C 0.24968 0.38427 0.52809 0.0
C1922 C 0.20707 0.47431 0.53849 0.0
C1923 C 0.17191 0.45685 0.52683 0.0
C1924 C 0.2318 0.46621 0.52586 0.0
C1925 C 0.22096 0.4405 0.50072 0.0
C1926 C 0.18555 0.42247 0.48925 0.0
C1927 C 0.16151 0.4307 0.5026 0.0
C1928 C 0.26941 0.4855 0.53895 0.0
C1929 C 0.17295 0.3951 0.46217 0.0
H1930 H 0.27765 0.45374 0.41286 0.0
H1931 H 0.2833 0.37042 0.48477 0.0
H1932 H 0.21408 0.47274 0.43278 0.0
H1933 H 0.24786 0.50155 0.46221 0.0
H1934 H 0.25443 0.49685 0.42091 0.0
H1935 H 0.26504 0.36643 0.5363 0.0
H1936 H 0.25455 0.40254 0.54876 0.0
H1937 H 0.22207 0.36813 0.52367 0.0
H1938 H 0.21529 0.49435 0.55741 0.0
H1939 H 0.13441 0.41714 0.49333 0.0
H1940 H 0.28093 0.50183 0.5185 0.0
H1941 H 0.2833 0.4664 0.5474 0.0
H1942 H 0.27364 0.50288 0.56022 0.0
H1943 H 0.1814 0.40727 0.43871 0.0
H1944 H 0.14453 0.3831 0.45649 0.0
H1945 H 0.18421 0.37382 0.46996 0.0
C1946 C 0.38975 0.19461 0.6071 0.0
C1947 C 0.3868 0.18706 0.6409 0.0
C1948 C 0.40739 0.17885 0.5912 0.0
C1949 C 0.42287 0.15474 0.60928 0.0
C1950 C 0.41995 0.14684 0.64333 0.0
C1951 C 0.40209 0.16298 0.65863 0.0
C1952 C 0.40977 0.18836 0.55497 0.0
C1953 C 0.43582 0.12132 0.66373 0.0
C1954 C 0.44436 0.09262 0.55806 0.0
C1955 C 0.47947 0.10988 0.55827 0.0
C1956 C 0.42587 0.10647 0.57491 0.0
C1957 C 0.44263 0.13849 0.59267 0.0
C1958 C 0.47819 0.15562 0.59357 0.0
C1959 C 0.49602 0.14125 0.57648 0.0
C1960 C 0.3881 0.08713 0.57312 0.0
C1961 C 0.49739 0.18965 0.61214 0.0
H1962 H 0.37879 0.21353 0.59304 0.0
H1963 H 0.39982 0.15637 0.68454 0.0
H1964 H 0.43708 0.20072 0.55301 0.0
H1965 H 0.39912 0.16424 0.53962 0.0
H1966 H 0.39574 0.20684 0.54404 0.0
H1967 H 0.43107 0.11756 0.68974 0.0
H1968 H 0.42532 0.09537 0.65133 0.0
H1969 H 0.46395 0.13098 0.66504 0.0
H1970 H 0.43103 0.06849 0.54416 0.0
H1971 H 0.52305 0.15503 0.57706 0.0
H1972 H 0.373 0.10388 0.56001 0.0
H1973 H 0.3827 0.0816 0.59882 0.0
H1974 H 0.37904 0.06186 0.55962 0.0
H1975 H 0.4864 0.21033 0.6007 0.0
H1976 H 0.5252 0.19909 0.61166 0.0
H1977 H 0.49444 0.18616 0.63871 0.0
C1978 C 0.87134 0.3314 0.70934 0.0
C1979 C 0.85174 0.34731 0.72214 0.0
C1980 C 0.89509 0.35026 0.68878 0.0
C1981 C 0.90019 0.38647 0.68054 0.0
C1982 C 0.88094 0.40282 0.69392 0.0
C1983 C 0.85716 0.38327 0.71419 0.0
C1984 C 0.91425 0.33103 0.67521 0.0
C1985 C 0.88506 0.44113 0.68635 0.0
C1986 C 0.97928 0.44541 0.64352 0.0
C1987 C 0.96501 0.44703 0.609 0.0
C1988 C 0.95896 0.42564 0.66694 0.0
C1989 C 0.92333 0.40641 0.65597 0.0
C1990 C 0.90935 0.40703 0.62101 0.0
C1991 C 0.92997 0.42715 0.59842 0.0
C1992 C 0.97542 0.42621 0.70372 0.0
C1993 C 0.87205 0.38694 0.60732 0.0
H1994 H 0.86778 0.3038 0.71497 0.0
H1995 H 0.8426 0.3963 0.72373 0.0
H1996 H 0.90682 0.33044 0.64737 0.0
H1997 H 0.94229 0.34516 0.68184 0.0
H1998 H 0.90894 0.30353 0.68502 0.0
H1999 H 0.87023 0.45084 0.70022 0.0
H2000 H 0.91255 0.45745 0.69301 0.0
H2001 H 0.87623 0.44496 0.65901 0.0
H2002 H 1.00601 0.46066 0.65247 0.0
H2003 H 0.91823 0.42763 0.57199 0.0
H2004 H 0.97097 0.39894 0.71383 0.0
H2005 H 0.96341 0.4391 0.71792 0.0
H2006 H 1.0035 0.44056 0.70835 0.0
H2007 H 0.86602 0.35883 0.61524 0.0
H2008 H 0.86529 0.38842 0.57945 0.0
H2009 H 0.85548 0.39764 0.61772 0.0
C2010 C 0.26212 0.73861 0.68304 0.0
C2011 C 0.27246 0.73081 0.71696 0.0
C2012 C 0.23849 0.71219 0.66137 0.0
C2013 C 0.22521 0.67752 0.67421 0.0
C2014 C 0.23823 0.66904 0.70767 0.0
C2015 C 0.26172 0.69586 0.72867 0.0
C2016 C 0.22529 0.72211 0.62571 0.0
C2017 C 0.22493 0.63246 0.72235 0.0
C2018 C 0.13107 0.63157 0.6402 0.0
C2019 C 0.13188 0.60782 0.61779 0.0
C2020 C 0.16133 0.65377 0.65916 0.0
C2021 C 0.19329 0.65245 0.65526 0.0
C2022 C 0.1943 0.62765 0.63344 0.0
C2023 C 0.16335 0.60534 0.61495 0.0
C2024 C 0.159 0.67897 0.68303 0.0
C2025 C 0.22794 0.62562 0.62871 0.0
H2026 H 0.27063 0.76564 0.674 0.0
H2027 H 0.27018 0.68972 0.75487 0.0
H2028 H 0.22325 0.70186 0.608 0.0
H2029 H 0.19918 0.72355 0.62357 0.0
H2030 H 0.24208 0.74806 0.61798 0.0
H2031 H 0.2423 0.62856 0.74602 0.0
H2032 H 0.19937 0.62826 0.72803 0.0
H2033 H 0.22174 0.61212 0.70423 0.0
H2034 H 0.10657 0.63323 0.6424 0.0
H2035 H 0.1639 0.58731 0.59718 0.0
H2036 H 0.17389 0.70645 0.67705 0.0
H2037 H 0.17027 0.67283 0.70911 0.0
H2038 H 0.13211 0.67743 0.68212 0.0
H2039 H 0.24162 0.65002 0.61591 0.0
H2040 H 0.22425 0.6027 0.61341 0.0
H2041 H 0.24473 0.62379 0.65341 0.0
loop_
_geom_bond_atom_site_label_1
_geom_bond_atom_site_label_2
_geom_bond_distance
_geom_bond_site_symmetry_2
_ccdc_geom_bond_type
C0 Eu1 2.835 . S
C0 C2 1.500 . S
C0 O20 1.257 . S
C0 O21 1.260 . S
Eu1 C0 2.835 . S
Eu1 O20 2.473 . S
Eu1 O21 2.480 . S
Eu1 O22 2.430 . S
Eu1 O23 2.670 . S
Eu1 O24 2.394 . S
Eu1 O29 2.355 . S
Eu1 O31 2.374 . S
C2 C0 1.500 . S
C2 C3 1.377 . S
C2 C7 1.377 . S
C3 C2 1.377 . S
C3 C4 1.395 . S
C3 H32 0.931 . S
C4 C3 1.395 . S
C4 C5 1.383 . S
C4 H33 0.931 . S
C5 C4 1.383 . S
C5 C6 1.394 . S
C6 C5 1.394 . S
C6 C7 1.378 . S
C6 H34 0.931 . S
C7 C2 1.377 . S
C7 C6 1.378 . S
C7 H35 0.931 . S
C8 O22 1.259 . S
C8 O23 1.270 . S
C9 O24 1.251 . S
C9 O25 1.251 . S
C10 Eu11 2.835 . S
C10 C12 1.500 . S
C10 O26 1.257 . S
C10 O27 1.260 . S
Eu11 C10 2.835 . S
Eu11 O23 2.355 . S
Eu11 O25 2.374 . S
Eu11 O26 2.473 . S
Eu11 O27 2.480 . S
Eu11 O28 2.430 . S
Eu11 O29 2.670 . S
Eu11 O30 2.394 . S
C12 C10 1.500 . S
C12 C13 1.377 . S
C12 C17 1.377 . S
C13 C12 1.377 . S
C13 C14 1.395 . S
C13 H36 0.931 . S
C14 C13 1.395 . S
C14 C15 1.383 . S
C14 H37 0.931 . S
C15 C14 1.383 . S
C15 C16 1.394 . S
C16 C15 1.394 . S
C16 C17 1.378 . S
C16 H38 0.931 . S
C17 C12 1.377 . S
C17 C16 1.378 . S
C17 H39 0.931 . S
C18 O28 1.259 . S
C18 O29 1.270 . S
C19 O30 1.251 . S
C19 O31 1.251 . S
O20 C0 1.257 . S
O20 Eu1 2.473 . S
O21 C0 1.260 . S
O21 Eu1 2.480 . S
O22 Eu1 2.430 . S
O22 C8 1.259 . S
O23 Eu1 2.670 . S
O23 C8 1.270 . S
O23 Eu11 2.355 . S
O24 Eu1 2.394 . S
O24 C9 1.251 . S
O25 C9 1.251 . S
O25 Eu11 2.374 . S
O26 C10 1.257 . S
O26 Eu11 2.473 . S
O27 C10 1.260 . S
O27 Eu11 2.480 . S
O28 Eu11 2.430 . S
O28 C18 1.259 . S
O29 Eu1 2.355 . S
O29 Eu11 2.670 . S
O29 C18 1.270 . S
O30 Eu11 2.394 . S
O30 C19 1.251 . S
O31 Eu1 2.374 . S
O31 C19 1.251 . S
H32 C3 0.931 . S
H33 C4 0.931 . S
H34 C6 0.931 . S
H35 C7 0.931 . S
H36 C13 0.931 . S
H37 C14 0.931 . S
H38 C16 0.931 . S
H39 C17 0.931 . S
C40 Eu41 2.835 . S
C40 C42 1.500 . S
C40 O60 1.257 . S
C40 O61 1.260 . S
Eu41 C40 2.835 . S
Eu41 O60 2.473 . S
Eu41 O61 2.480 . S
Eu41 O62 2.430 . S
Eu41 O63 2.670 . S
Eu41 O64 2.394 . S
Eu41 O69 2.355 . S
Eu41 O71 2.374 . S
C42 C40 1.500 . S
C42 C43 1.377 . S
C42 C47 1.377 . S
C43 C42 1.377 . S
C43 C44 1.395 . S
C43 H72 0.931 . S
C44 C43 1.395 . S
C44 C45 1.383 . S
C44 H73 0.931 . S
C45 C44 1.383 . S
C45 C46 1.394 . S
C46 C45 1.394 . S
C46 C47 1.378 . S
C46 H74 0.931 . S
C47 C42 1.377 . S
C47 C46 1.378 . S
C47 H75 0.931 . S
C48 O62 1.259 . S
C48 O63 1.270 . S
C49 O64 1.251 . S
C49 O65 1.251 . S
C50 Eu51 2.835 . S
C50 C52 1.500 . S
C50 O66 1.257 . S
C50 O67 1.260 . S
Eu51 C50 2.835 . S
Eu51 O63 2.355 . S
Eu51 O65 2.374 . S
Eu51 O66 2.473 . S
Eu51 O67 2.480 . S
Eu51 O68 2.430 . S
Eu51 O69 2.670 . S
Eu51 O70 2.394 . S
C52 C50 1.500 . S
C52 C53 1.377 . S
C52 C57 1.377 . S
C53 C52 1.377 . S
C53 C54 1.395 . S
C53 H76 0.931 . S
C54 C53 1.395 . S
C54 C55 1.383 . S
C54 H77 0.931 . S
C55 C54 1.383 . S
C55 C56 1.394 . S
C56 C55 1.394 . S
C56 C57 1.378 . S
C56 H78 0.931 . S
C57 C52 1.377 . S
C57 C56 1.378 . S
C57 H79 0.931 . S
C58 O68 1.259 . S
C58 O69 1.270 . S
C59 O70 1.251 . S
C59 O71 1.251 . S
O60 C40 1.257 . S
O60 Eu41 2.473 . S
O61 C40 1.260 . S
O61 Eu41 2.480 . S
O62 Eu41 2.430 . S
O62 C48 1.259 . S
O63 Eu41 2.670 . S
O63 C48 1.270 . S
O63 Eu51 2.355 . S
O64 Eu41 2.394 . S
O64 C49 1.251 . S
O65 C49 1.251 . S
O65 Eu51 2.374 . S
O66 C50 1.257 . S
O66 Eu51 2.473 . S
O67 C50 1.260 . S
O67 Eu51 2.480 . S
O68 Eu51 2.430 . S
O68 C58 1.259 . S
O69 Eu41 2.355 . S
O69 Eu51 2.670 . S
O69 C58 1.270 . S
O70 Eu51 2.394 . S
O70 C59 1.251 . S
O71 Eu41 2.374 . S
O71 C59 1.251 . S
H72 C43 0.931 . S
H73 C44 0.931 . S
H74 C46 0.931 . S
H75 C47 0.931 . S
H76 C53 0.931 . S
H77 C54 0.931 . S
H78 C56 0.931 . S
H79 C57 0.931 . S
C80 Eu81 2.835 . S
C80 C82 1.500 . S
C80 O100 1.257 . S
C80 O101 1.260 . S
Eu81 C80 2.835 . S
Eu81 O100 2.473 . S
Eu81 O101 2.480 . S
Eu81 O102 2.430 . S
Eu81 O103 2.670 . S
Eu81 O104 2.394 . S
Eu81 O109 2.355 . S
Eu81 O111 2.374 . S
C82 C80 1.500 . S
C82 C83 1.377 . S
C82 C87 1.377 . S
C83 C82 1.377 . S
C83 C84 1.395 . S
C83 H112 0.931 . S
C84 C83 1.395 . S
C84 C85 1.383 . S
C84 H113 0.931 . S
C85 C84 1.383 . S
C85 C86 1.394 . S
C86 C85 1.394 . S
C86 C87 1.378 . S
C86 H114 0.931 . S
C87 C82 1.377 . S
C87 C86 1.378 . S
C87 H115 0.931 . S
C88 O102 1.259 . S
C88 O103 1.270 . S
C89 O104 1.251 . S
C89 O105 1.251 . S
C90 Eu91 2.835 . S
C90 C92 1.500 . S
C90 O106 1.257 . S
C90 O107 1.260 . S
Eu91 C90 2.835 . S
Eu91 O103 2.355 . S
Eu91 O105 2.374 . S
Eu91 O106 2.473 . S
Eu91 O107 2.480 . S
Eu91 O108 2.430 . S
Eu91 O109 2.670 . S
Eu91 O110 2.394 . S
C92 C90 1.500 . S
C92 C93 1.377 . S
C92 C97 1.377 . S
C93 C92 1.377 . S
C93 C94 1.395 . S
C93 H116 0.931 . S
C94 C93 1.395 . S
C94 C95 1.383 . S
C94 H117 0.931 . S
C95 C94 1.383 . S
C95 C96 1.394 . S
C96 C95 1.394 . S
C96 C97 1.378 . S
C96 H118 0.931 . S
C97 C92 1.377 . S
C97 C96 1.378 . S
C97 H119 0.931 . S
C98 O108 1.259 . S
C98 O109 1.270 . S
C99 O110 1.251 . S
C99 O111 1.251 . S
O100 C80 1.257 . S
O100 Eu81 2.473 . S
O101 C80 1.260 . S
O101 Eu81 2.480 . S
O102 Eu81 2.430 . S
O102 C88 1.259 . S
O103 Eu81 2.670 . S
O103 C88 1.270 . S
O103 Eu91 2.355 . S
O104 Eu81 2.394 . S
O104 C89 1.251 . S
O105 C89 1.251 . S
O105 Eu91 2.374 . S
O106 C90 1.257 . S
O106 Eu91 2.473 . S
O107 C90 1.260 . S
O107 Eu91 2.480 . S
O108 Eu91 2.430 . S
O108 C98 1.259 . S
O109 Eu81 2.355 . S
O109 Eu91 2.670 . S
O109 C98 1.270 . S
O110 Eu91 2.394 . S
O110 C99 1.251 . S
O111 Eu81 2.374 . S
O111 C99 1.251 . S
H112 C83 0.931 . S
H113 C84 0.931 . S
H114 C86 0.931 . S
H115 C87 0.931 . S
H116 C93 0.931 . S
H117 C94 0.931 . S
H118 C96 0.931 . S
H119 C97 0.931 . S
C120 Eu121 2.835 . S
C120 C122 1.500 . S
C120 O140 1.257 . S
C120 O141 1.260 . S
Eu121 C120 2.835 . S
Eu121 O140 2.473 . S
Eu121 O141 2.480 . S
Eu121 O142 2.430 . S
Eu121 O143 2.670 . S
Eu121 O144 2.394 . S
Eu121 O149 2.355 . S
Eu121 O151 2.374 . S
C122 C120 1.500 . S
C122 C123 1.377 . S
C122 C127 1.377 . S
C123 C122 1.377 . S
C123 C124 1.395 . S
C123 H152 0.931 . S
C124 C123 1.395 . S
C124 C125 1.383 . S
C124 H153 0.931 . S
C125 C124 1.383 . S
C125 C126 1.394 . S
C126 C125 1.394 . S
C126 C127 1.378 . S
C126 H154 0.931 . S
C127 C122 1.377 . S
C127 C126 1.378 . S
C127 H155 0.931 . S
C128 O142 1.259 . S
C128 O143 1.270 . S
C129 O144 1.251 . S
C129 O145 1.251 . S
C130 Eu131 2.835 . S
C130 C132 1.500 . S
C130 O146 1.257 . S
C130 O147 1.260 . S
Eu131 C130 2.835 . S
Eu131 O143 2.355 . S
Eu131 O145 2.374 . S
Eu131 O146 2.473 . S
Eu131 O147 2.480 . S
Eu131 O148 2.430 . S
Eu131 O149 2.670 . S
Eu131 O150 2.394 . S
C132 C130 1.500 . S
C132 C133 1.377 . S
C132 C137 1.377 . S
C133 C132 1.377 . S
C133 C134 1.395 . S
C133 H156 0.931 . S
C134 C133 1.395 . S
C134 C135 1.383 . S
C134 H157 0.931 . S
C135 C134 1.383 . S
C135 C136 1.394 . S
C136 C135 1.394 . S
C136 C137 1.378 . S
C136 H158 0.931 . S
C137 C132 1.377 . S
C137 C136 1.378 . S
C137 H159 0.931 . S
C138 O148 1.259 . S
C138 O149 1.270 . S
C139 O150 1.251 . S
C139 O151 1.251 . S
O140 C120 1.257 . S
O140 Eu121 2.473 . S
O141 C120 1.260 . S
O141 Eu121 2.480 . S
O142 Eu121 2.430 . S
O142 C128 1.259 . S
O143 Eu121 2.670 . S
O143 C128 1.270 . S
O143 Eu131 2.355 . S
O144 Eu121 2.394 . S
O144 C129 1.251 . S
O145 C129 1.251 . S
O145 Eu131 2.374 . S
O146 C130 1.257 . S
O146 Eu131 2.473 . S
O147 C130 1.260 . S
O147 Eu131 2.480 . S
O148 Eu131 2.430 . S
O148 C138 1.259 . S
O149 Eu121 2.355 . S
O149 Eu131 2.670 . S
O149 C138 1.270 . S
O150 Eu131 2.394 . S
O150 C139 1.251 . S
O151 Eu121 2.374 . S
O151 C139 1.251 . S
H152 C123 0.931 . S
H153 C124 0.931 . S
H154 C126 0.931 . S
H155 C127 0.931 . S
H156 C133 0.931 . S
H157 C134 0.931 . S
H158 C136 0.931 . S
H159 C137 0.931 . S
C160 Eu161 2.835 . S
C160 C162 1.500 . S
C160 O180 1.257 . S
C160 O181 1.260 . S
Eu161 C160 2.835 . S
Eu161 O180 2.473 . S
Eu161 O181 2.480 . S
Eu161 O182 2.430 . S
Eu161 O183 2.670 . S
Eu161 O184 2.394 . S
Eu161 O189 2.355 . S
Eu161 O191 2.374 . S
C162 C160 1.500 . S
C162 C163 1.377 . S
C162 C167 1.377 . S
C163 C162 1.377 . S
C163 C164 1.395 . S
C163 H192 0.931 . S
C164 C163 1.395 . S
C164 C165 1.383 . S
C164 H193 0.931 . S
C165 C164 1.383 . S
C165 C166 1.394 . S
C166 C165 1.394 . S
C166 C167 1.378 . S
C166 H194 0.931 . S
C167 C162 1.377 . S
C167 C166 1.378 . S
C167 H195 0.931 . S
C168 O182 1.259 . S
C168 O183 1.270 . S
C169 O184 1.251 . S
C169 O185 1.251 . S
C170 Eu171 2.835 . S
C170 C172 1.500 . S
C170 O186 1.257 . S
C170 O187 1.260 . S
Eu171 C170 2.835 . S
Eu171 O183 2.355 . S
Eu171 O185 2.374 . S
Eu171 O186 2.473 . S
Eu171 O187 2.480 . S
Eu171 O188 2.430 . S
Eu171 O189 2.670 . S
Eu171 O190 2.394 . S
C172 C170 1.500 . S
C172 C173 1.377 . S
C172 C177 1.377 . S
C173 C172 1.377 . S
C173 C174 1.395 . S
C173 H196 0.931 . S
C174 C173 1.395 . S
C174 C175 1.383 . S
C174 H197 0.931 . S
C175 C174 1.383 . S
C175 C176 1.394 . S
C176 C175 1.394 . S
C176 C177 1.378 . S
C176 H198 0.931 . S
C177 C172 1.377 . S
C177 C176 1.378 . S
C177 H199 0.931 . S
C178 O188 1.259 . S
C178 O189 1.270 . S
C179 O190 1.251 . S
C179 O191 1.251 . S
O180 C160 1.257 . S
O180 Eu161 2.473 . S
O181 C160 1.260 . S
O181 Eu161 2.480 . S
O182 Eu161 2.430 . S
O182 C168 1.259 . S
O183 Eu161 2.670 . S
O183 C168 1.270 . S
O183 Eu171 2.355 . S
O184 Eu161 2.394 . S
O184 C169 1.251 . S
O185 C169 1.251 . S
O185 Eu171 2.374 . S
O186 C170 1.257 . S
O186 Eu171 2.473 . S
O187 C170 1.260 . S
O187 Eu171 2.480 . S
O188 Eu171 2.430 . S
O188 C178 1.259 . S
O189 Eu161 2.355 . S
O189 Eu171 2.670 . S
O189 C178 1.270 . S
O190 Eu171 2.394 . S
O190 C179 1.251 . S
O191 Eu161 2.374 . S
O191 C179 1.251 . S
H192 C163 0.931 . S
H193 C164 0.931 . S
H194 C166 0.931 . S
H195 C167 0.931 . S
H196 C173 0.931 . S
H197 C174 0.931 . S
H198 C176 0.931 . S
H199 C177 0.931 . S
C200 Eu201 2.835 . S
C200 C202 1.500 . S
C200 O220 1.257 . S
C200 O221 1.260 . S
Eu201 C200 2.835 . S
Eu201 O220 2.473 . S
Eu201 O221 2.480 . S
Eu201 O222 2.430 . S
Eu201 O223 2.670 . S
Eu201 O224 2.394 . S
Eu201 O229 2.355 . S
Eu201 O231 2.374 . S
C202 C200 1.500 . S
C202 C203 1.377 . S
C202 C207 1.377 . S
C203 C202 1.377 . S
C203 C204 1.395 . S
C203 H232 0.931 . S
C204 C203 1.395 . S
C204 C205 1.383 . S
C204 H233 0.931 . S
C205 C204 1.383 . S
C205 C206 1.394 . S
C206 C205 1.394 . S
C206 C207 1.378 . S
C206 H234 0.931 . S
C207 C202 1.377 . S
C207 C206 1.378 . S
C207 H235 0.931 . S
C208 O222 1.259 . S
C208 O223 1.270 . S
C209 O224 1.251 . S
C209 O225 1.251 . S
C210 Eu211 2.835 . S
C210 C212 1.500 . S
C210 O226 1.257 . S
C210 O227 1.260 . S
Eu211 C210 2.835 . S
Eu211 O223 2.355 . S
Eu211 O225 2.374 . S
Eu211 O226 2.473 . S
Eu211 O227 2.480 . S
Eu211 O228 2.430 . S
Eu211 O229 2.670 . S
Eu211 O230 2.394 . S
C212 C210 1.500 . S
C212 C213 1.377 . S
C212 C217 1.377 . S
C213 C212 1.377 . S
C213 C214 1.395 . S
C213 H236 0.931 . S
C214 C213 1.395 . S
C214 C215 1.383 . S
C214 H237 0.931 . S
C215 C214 1.383 . S
C215 C216 1.394 . S
C216 C215 1.394 . S
C216 C217 1.378 . S
C216 H238 0.931 . S
C217 C212 1.377 . S
C217 C216 1.378 . S
C217 H239 0.931 . S
C218 O228 1.259 . S
C218 O229 1.270 . S
C219 O230 1.251 . S
C219 O231 1.251 . S
O220 C200 1.257 . S
O220 Eu201 2.473 . S
O221 C200 1.260 . S
O221 Eu201 2.480 . S
O222 Eu201 2.430 . S
O222 C208 1.259 . S
O223 Eu201 2.670 . S
O223 C208 1.270 . S
O223 Eu211 2.355 . S
O224 Eu201 2.394 . S
O224 C209 1.251 . S
O225 C209 1.251 . S
O225 Eu211 2.374 . S
O226 C210 1.257 . S
O226 Eu211 2.473 . S
O227 C210 1.260 . S
O227 Eu211 2.480 . S
O228 Eu211 2.430 . S
O228 C218 1.259 . S
O229 Eu201 2.355 . S
O229 Eu211 2.670 . S
O229 C218 1.270 . S
O230 Eu211 2.394 . S
O230 C219 1.251 . S
O231 Eu201 2.374 . S
O231 C219 1.251 . S
H232 C203 0.931 . S
H233 C204 0.931 . S
H234 C206 0.931 . S
H235 C207 0.931 . S
H236 C213 0.931 . S
H237 C214 0.931 . S
H238 C216 0.931 . S
H239 C217 0.931 . S
C240 Eu241 2.835 . S
C240 C242 1.500 . S
C240 O260 1.257 . S
C240 O261 1.260 . S
Eu241 C240 2.835 . S
Eu241 O260 2.473 . S
Eu241 O261 2.480 . S
Eu241 O262 2.430 . S
Eu241 O263 2.670 . S
Eu241 O264 2.394 . S
Eu241 O269 2.355 . S
Eu241 O271 2.374 . S
C242 C240 1.500 . S
C242 C243 1.377 . S
C242 C247 1.377 . S
C243 C242 1.377 . S
C243 C244 1.395 . S
C243 H272 0.931 . S
C244 C243 1.395 . S
C244 C245 1.383 . S
C244 H273 0.931 . S
C245 C244 1.383 . S
C245 C246 1.394 . S
C246 C245 1.394 . S
C246 C247 1.378 . S
C246 H274 0.931 . S
C247 C242 1.377 . S
C247 C246 1.378 . S
C247 H275 0.931 . S
C248 O262 1.259 . S
C248 O263 1.270 . S
C249 O264 1.251 . S
C249 O265 1.251 . S
C250 Eu251 2.835 . S
C250 C252 1.500 . S
C250 O266 1.257 . S
C250 O267 1.260 . S
Eu251 C250 2.835 . S
Eu251 O263 2.355 . S
Eu251 O265 2.374 . S
Eu251 O266 2.473 . S
Eu251 O267 2.480 . S
Eu251 O268 2.430 . S
Eu251 O269 2.670 . S
Eu251 O270 2.394 . S
C252 C250 1.500 . S
C252 C253 1.377 . S
C252 C257 1.377 . S
C253 C252 1.377 . S
C253 C254 1.395 . S
C253 H276 0.931 . S
C254 C253 1.395 . S
C254 C255 1.383 . S
C254 H277 0.931 . S
C255 C254 1.383 . S
C255 C256 1.394 . S
C256 C255 1.394 . S
C256 C257 1.378 . S
C256 H278 0.931 . S
C257 C252 1.377 . S
C257 C256 1.378 . S
C257 H279 0.931 . S
C258 O268 1.259 . S
C258 O269 1.270 . S
C259 O270 1.251 . S
C259 O271 1.251 . S
O260 C240 1.257 . S
O260 Eu241 2.473 . S
O261 C240 1.260 . S
O261 Eu241 2.480 . S
O262 Eu241 2.430 . S
O262 C248 1.259 . S
O263 Eu241 2.670 . S
O263 C248 1.270 . S
O263 Eu251 2.355 . S
O264 Eu241 2.394 . S
O264 C249 1.251 . S
O265 C249 1.251 . S
O265 Eu251 2.374 . S
O266 C250 1.257 . S
O266 Eu251 2.473 . S
O267 C250 1.260 . S
O267 Eu251 2.480 . S
O268 Eu251 2.430 . S
O268 C258 1.259 . S
O269 Eu241 2.355 . S
O269 Eu251 2.670 . S
O269 C258 1.270 . S
O270 Eu251 2.394 . S
O270 C259 1.251 . S
O271 Eu241 2.374 . S
O271 C259 1.251 . S
H272 C243 0.931 . S
H273 C244 0.931 . S
H274 C246 0.931 . S
H275 C247 0.931 . S
H276 C253 0.931 . S
H277 C254 0.931 . S
H278 C256 0.931 . S
H279 C257 0.931 . S
C280 Eu281 2.835 . S
C280 C282 1.500 . S
C280 O300 1.257 . S
C280 O301 1.260 . S
Eu281 C280 2.835 . S
Eu281 O300 2.473 . S
Eu281 O301 2.480 . S
Eu281 O302 2.430 . S
Eu281 O303 2.670 . S
Eu281 O304 2.394 . S
Eu281 O309 2.355 . S
Eu281 O311 2.374 . S
C282 C280 1.500 . S
C282 C283 1.377 . S
C282 C287 1.377 . S
C283 C282 1.377 . S
C283 C284 1.395 . S
C283 H312 0.931 . S
C284 C283 1.395 . S
C284 C285 1.383 . S
C284 H313 0.931 . S
C285 C284 1.383 . S
C285 C286 1.394 . S
C286 C285 1.394 . S
C286 C287 1.378 . S
C286 H314 0.931 . S
C287 C282 1.377 . S
C287 C286 1.378 . S
C287 H315 0.931 . S
C288 O302 1.259 . S
C288 O303 1.270 . S
C289 O304 1.251 . S
C289 O305 1.251 . S
C290 Eu291 2.835 . S
C290 C292 1.500 . S
C290 O306 1.257 . S
C290 O307 1.260 . S
Eu291 C290 2.835 . S
Eu291 O303 2.355 . S
Eu291 O305 2.374 . S
Eu291 O306 2.473 . S
Eu291 O307 2.480 . S
Eu291 O308 2.430 . S
Eu291 O309 2.670 . S
Eu291 O310 2.394 . S
C292 C290 1.500 . S
C292 C293 1.377 . S
C292 C297 1.377 . S
C293 C292 1.377 . S
C293 C294 1.395 . S
C293 H316 0.931 . S
C294 C293 1.395 . S
C294 C295 1.383 . S
C294 H317 0.931 . S
C295 C294 1.383 . S
C295 C296 1.394 . S
C296 C295 1.394 . S
C296 C297 1.378 . S
C296 H318 0.931 . S
C297 C292 1.377 . S
C297 C296 1.378 . S
C297 H319 0.931 . S
C298 O308 1.259 . S
C298 O309 1.270 . S
C299 O310 1.251 . S
C299 O311 1.251 . S
O300 C280 1.257 . S
O300 Eu281 2.473 . S
O301 C280 1.260 . S
O301 Eu281 2.480 . S
O302 Eu281 2.430 . S
O302 C288 1.259 . S
O303 Eu281 2.670 . S
O303 C288 1.270 . S
O303 Eu291 2.355 . S
O304 Eu281 2.394 . S
O304 C289 1.251 . S
O305 C289 1.251 . S
O305 Eu291 2.374 . S
O306 C290 1.257 . S
O306 Eu291 2.473 . S
O307 C290 1.260 . S
O307 Eu291 2.480 . S
O308 Eu291 2.430 . S
O308 C298 1.259 . S
O309 Eu281 2.355 . S
O309 Eu291 2.670 . S
O309 C298 1.270 . S
O310 Eu291 2.394 . S
O310 C299 1.251 . S
O311 Eu281 2.374 . S
O311 C299 1.251 . S
H312 C283 0.931 . S
H313 C284 0.931 . S
H314 C286 0.931 . S
H315 C287 0.931 . S
H316 C293 0.931 . S
H317 C294 0.931 . S
H318 C296 0.931 . S
H319 C297 0.931 . S
C320 O332 1.241 . S
C320 O333 1.280 . S
C321 O334 1.277 . S
C321 O335 1.245 . S
C322 O346 1.247 . S
C322 O348 1.289 . S
Mg323 O324 1.926 1_455 S
Mg323 O333 1.984 1_455 S
Mg323 O335 1.988 1_455 S
Mg323 O336 2.061 . S
O324 Mg323 1.926 1_655 S
O324 Mg325 1.986 . S
O324 Mg326 1.917 1_655 S
Mg325 O324 1.986 . S
Mg325 O332 2.042 . S
Mg325 O334 2.041 . S
Mg325 O340 2.038 1_545 S
Mg325 O348 2.238 1_545 S
Mg326 O324 1.917 1_455 S
Mg326 O327 1.917 1_545 S
Mg326 O337 2.106 . S
Mg326 O339 2.079 1_445 S
Mg326 O348 2.106 1_445 S
Mg326 O349 2.079 . S
O327 Mg326 1.917 1_565 S
O327 Mg328 1.926 . S
O327 Mg329 1.986 1_565 S
Mg328 O327 1.926 . S
Mg328 O342 1.984 . S
Mg328 O345 1.988 . S
Mg328 O346 2.061 1_455 S
Mg329 O327 1.986 1_545 S
Mg329 O337 2.238 . S
Mg329 O341 2.042 1_545 S
Mg329 O343 2.041 1_545 S
Mg329 O350 2.038 . S
C330 O336 1.247 . S
C330 O337 1.289 . S
C331 O349 1.245 . S
C331 O350 1.274 . S
O332 C320 1.241 . S
O332 Mg325 2.042 . S
O333 C320 1.280 . S
O333 Mg323 1.984 1_655 S
O334 C321 1.277 . S
O334 Mg325 2.041 . S
O335 C321 1.245 . S
O335 Mg323 1.988 1_655 S
O336 Mg323 2.061 . S
O336 C330 1.247 . S
O337 Mg326 2.106 . S
O337 Mg329 2.238 . S
O337 C330 1.289 . S
C338 O339 1.245 . S
C338 O340 1.274 . S
O339 Mg326 2.079 1_665 S
O339 C338 1.245 . S
O340 Mg325 2.038 1_565 S
O340 C338 1.274 . S
O341 Mg329 2.042 1_565 S
O341 C344 1.241 . S
O342 Mg328 1.984 . S
O342 C344 1.280 . S
O343 Mg329 2.041 1_565 S
O343 C347 1.277 . S
C344 O341 1.241 . S
C344 O342 1.280 . S
O345 Mg328 1.988 . S
O345 C347 1.245 . S
O346 C322 1.247 . S
O346 Mg328 2.061 1_655 S
C347 O343 1.277 . S
C347 O345 1.245 . S
O348 C322 1.289 . S
O348 Mg325 2.238 1_565 S
O348 Mg326 2.106 1_665 S
O349 Mg326 2.079 . S
O349 C331 1.245 . S
O350 Mg329 2.038 . S
O350 C331 1.274 . S
C351 O363 1.241 . S
C351 O364 1.280 . S
C352 O365 1.277 . S
C352 O366 1.245 . S
C353 O377 1.247 . S
C353 O379 1.289 1_565 S
Mg354 O355 1.926 . S
Mg354 O364 1.984 . S
Mg354 O366 1.988 1_554 S
Mg354 O367 2.061 . S
O355 Mg354 1.926 . S
O355 Mg356 1.986 1_554 S
O355 Mg357 1.919 . S
Mg356 O355 1.986 1_556 S
Mg356 O363 2.042 1_556 S
Mg356 O365 2.041 . S
Mg356 O371 2.038 1_546 S
Mg356 O379 2.238 . S
Mg357 O355 1.919 . S
Mg357 O358 1.914 1_554 S
Mg357 O368 2.110 . S
Mg357 O370 2.075 1_545 S
Mg357 O379 2.103 1_554 S
Mg357 O380 2.073 1_554 S
O358 Mg357 1.914 1_556 S
O358 Mg359 1.926 1_545 S
O358 Mg360 1.986 1_556 S
Mg359 O358 1.926 1_565 S
Mg359 O373 1.984 . S
Mg359 O376 1.988 1_556 S
Mg359 O377 2.061 . S
Mg360 O358 1.986 1_554 S
Mg360 O368 2.238 . S
Mg360 O372 2.042 1_554 S
Mg360 O374 2.041 1_545 S
Mg360 O381 2.038 1_554 S
C361 O367 1.247 . S
C361 O368 1.289 . S
C362 O380 1.245 . S
C362 O381 1.274 . S
O363 C351 1.241 . S
O363 Mg356 2.042 1_554 S
O364 C351 1.280 . S
O364 Mg354 1.984 . S
O365 C352 1.277 . S
O365 Mg356 2.041 . S
O366 C352 1.245 . S
O366 Mg354 1.988 1_556 S
O367 Mg354 2.061 . S
O367 C361 1.247 . S
O368 Mg357 2.110 . S
O368 Mg360 2.238 . S
O368 C361 1.289 . S
C369 O370 1.243 . S
C369 O371 1.274 . S
O370 Mg357 2.075 1_565 S
O370 C369 1.243 . S
O371 Mg356 2.038 1_564 S
O371 C369 1.274 . S
O372 Mg360 2.042 1_556 S
O372 C375 1.241 1_545 S
O373 Mg359 1.984 . S
O373 C375 1.280 . S
O374 Mg360 2.041 1_565 S
O374 C378 1.277 . S
C375 O372 1.241 1_565 S
C375 O373 1.280 . S
O376 Mg359 1.988 1_554 S
O376 C378 1.245 . S
O377 C353 1.247 . S
O377 Mg359 2.061 . S
C378 O374 1.277 . S
C378 O376 1.245 . S
O379 C353 1.289 1_545 S
O379 Mg356 2.238 . S
O379 Mg357 2.103 1_556 S
O380 Mg357 2.073 1_556 S
O380 C362 1.245 . S
O381 Mg360 2.038 1_556 S
O381 C362 1.274 . S
C382 O394 1.241 . S
C382 O395 1.280 . S
C383 O396 1.274 1_556 S
C383 O397 1.245 1_556 S
C384 O408 1.247 1_556 S
C384 O410 1.289 1_556 S
Mg385 O386 1.926 . S
Mg385 O395 1.984 . S
Mg385 O397 1.988 . S
Mg385 O398 2.061 1_655 S
O386 Mg385 1.926 . S
O386 Mg387 1.986 . S
O386 Mg388 1.917 1_655 S
Mg387 O386 1.986 . S
Mg387 O394 2.042 . S
Mg387 O396 2.047 . S
Mg387 O402 2.038 . S
Mg387 O410 2.238 . S
Mg388 O386 1.917 1_455 S
Mg388 O389 1.917 . S
Mg388 O399 2.106 . S
Mg388 O401 2.079 1_455 S
Mg388 O410 2.106 1_455 S
Mg388 O411 2.079 . S
O389 Mg388 1.917 . S
O389 Mg390 1.926 . S
O389 Mg391 1.986 . S
Mg390 O389 1.926 . S
Mg390 O404 1.984 . S
Mg390 O407 1.988 . S
Mg390 O408 2.061 1_455 S
Mg391 O389 1.986 . S
Mg391 O399 2.238 . S
Mg391 O403 2.042 . S
Mg391 O405 2.041 . S
Mg391 O412 2.038 . S
C392 O398 1.247 . S
C392 O399 1.289 . S
C393 O411 1.245 . S
C393 O412 1.274 . S
O394 C382 1.241 . S
O394 Mg387 2.042 . S
O395 C382 1.280 . S
O395 Mg385 1.984 . S
O396 C383 1.274 1_554 S
O396 Mg387 2.047 . S
O397 C383 1.245 1_554 S
O397 Mg385 1.988 . S
O398 Mg385 2.061 1_455 S
O398 C392 1.247 . S
O399 Mg388 2.106 . S
O399 Mg391 2.238 . S
O399 C392 1.289 . S
C400 O401 1.245 . S
C400 O402 1.274 . S
O401 Mg388 2.079 1_655 S
O401 C400 1.245 . S
O402 Mg387 2.038 . S
O402 C400 1.274 . S
O403 Mg391 2.042 . S
O403 C406 1.241 . S
O404 Mg390 1.984 . S
O404 C406 1.280 . S
O405 Mg391 2.041 . S
O405 C409 1.277 . S
C406 O403 1.241 . S
C406 O404 1.280 . S
O407 Mg390 1.988 . S
O407 C409 1.245 . S
O408 C384 1.247 1_554 S
O408 Mg390 2.061 1_655 S
C409 O405 1.277 . S
C409 O407 1.245 . S
O410 C384 1.289 1_554 S
O410 Mg387 2.238 . S
O410 Mg388 2.106 1_655 S
O411 Mg388 2.079 . S
O411 C393 1.245 . S
O412 Mg391 2.038 . S
O412 C393 1.274 . S
C413 O425 1.241 . S
C413 O426 1.280 . S
C414 O427 1.277 . S
C414 O428 1.245 . S
C415 O439 1.247 . S
C415 O441 1.289 . S
Mg416 O417 1.926 . S
Mg416 O426 1.984 . S
Mg416 O428 1.988 1_554 S
Mg416 O429 2.061 . S
O417 Mg416 1.926 . S
O417 Mg418 1.986 . S
O417 Mg419 1.917 . S
Mg418 O417 1.986 . S
Mg418 O425 2.042 . S
Mg418 O427 2.041 1_554 S
Mg418 O433 2.038 . S
Mg418 O441 2.238 1_554 S
Mg419 O417 1.917 . S
Mg419 O420 1.917 . S
Mg419 O430 2.106 . S
Mg419 O432 2.079 . S
Mg419 O441 2.106 1_554 S
Mg419 O442 2.079 1_554 S
O420 Mg419 1.917 . S
O420 Mg421 1.926 . S
O420 Mg422 1.986 . S
Mg421 O420 1.926 . S
Mg421 O435 1.984 1_554 S
Mg421 O438 1.988 . S
Mg421 O439 2.061 1_554 S
Mg422 O420 1.986 . S
Mg422 O430 2.238 . S
Mg422 O434 2.042 . S
Mg422 O436 2.041 . S
Mg422 O443 2.045 . S
C423 O429 1.247 . S
C423 O430 1.289 . S
C424 O442 1.245 . S
C424 O443 1.272 1_556 S
O425 C413 1.241 . S
O425 Mg418 2.042 . S
O426 C413 1.280 . S
O426 Mg416 1.984 . S
O427 C414 1.277 . S
O427 Mg418 2.041 1_556 S
O428 C414 1.245 . S
O428 Mg416 1.988 1_556 S
O429 Mg416 2.061 . S
O429 C423 1.247 . S
O430 Mg419 2.106 . S
O430 Mg422 2.238 . S
O430 C423 1.289 . S
C431 O432 1.245 . S
C431 O433 1.274 . S
O432 Mg419 2.079 . S
O432 C431 1.245 . S
O433 Mg418 2.038 . S
O433 C431 1.274 . S
O434 Mg422 2.042 . S
O434 C437 1.241 1_554 S
O435 Mg421 1.984 1_556 S
O435 C437 1.280 . S
O436 Mg422 2.041 . S
O436 C440 1.277 . S
C437 O434 1.241 1_556 S
C437 O435 1.280 . S
O438 Mg421 1.988 . S
O438 C440 1.245 . S
O439 C415 1.247 . S
O439 Mg421 2.061 1_556 S
C440 O436 1.277 . S
C440 O438 1.245 . S
O441 C415 1.289 . S
O441 Mg418 2.238 1_556 S
O441 Mg419 2.106 1_556 S
O442 Mg419 2.079 1_556 S
O442 C424 1.245 . S
O443 Mg422 2.045 . S
O443 C424 1.272 1_554 S
C444 O456 1.241 . S
C444 O457 1.280 . S
C445 O458 1.277 . S
C445 O459 1.245 1_655 S
C446 O470 1.247 . S
C446 O472 1.289 . S
Mg447 O448 1.926 . S
Mg447 O457 1.984 1_455 S
Mg447 O459 1.988 . S
Mg447 O460 2.061 . S
O448 Mg447 1.926 . S
O448 Mg449 1.986 1_455 S
O448 Mg450 1.917 . S
Mg449 O448 1.986 1_655 S
Mg449 O456 2.042 . S
Mg449 O458 2.041 . S
Mg449 O464 2.038 . S
Mg449 O472 2.238 . S
Mg450 O448 1.917 . S
Mg450 O451 1.917 . S
Mg450 O461 2.106 . S
Mg450 O463 2.079 . S
Mg450 O472 2.106 1_455 S
Mg450 O473 2.079 . S
O451 Mg450 1.917 . S
O451 Mg452 1.926 . S
O451 Mg453 1.986 . S
Mg452 O451 1.926 . S
Mg452 O466 1.984 . S
Mg452 O469 1.988 . S
Mg452 O470 2.061 1_455 S
Mg453 O451 1.986 . S
Mg453 O461 2.238 . S
Mg453 O465 2.042 . S
Mg453 O467 2.041 . S
Mg453 O474 2.038 . S
C454 O460 1.247 . S
C454 O461 1.289 . S
C455 O473 1.245 . S
C455 O474 1.274 . S
O456 C444 1.241 . S
O456 Mg449 2.042 . S
O457 C444 1.280 . S
O457 Mg447 1.984 1_655 S
O458 C445 1.277 . S
O458 Mg449 2.041 . S
O459 C445 1.245 1_455 S
O459 Mg447 1.988 . S
O460 Mg447 2.061 . S
O460 C454 1.247 . S
O461 Mg450 2.106 . S
O461 Mg453 2.238 . S
O461 C454 1.289 . S
C462 O463 1.245 1_655 S
C462 O464 1.274 . S
O463 Mg450 2.079 . S
O463 C462 1.245 1_455 S
O464 Mg449 2.038 . S
O464 C462 1.274 . S
O465 Mg453 2.042 . S
O465 C468 1.241 . S
O466 Mg452 1.984 . S
O466 C468 1.280 . S
O467 Mg453 2.041 . S
O467 C471 1.277 . S
C468 O465 1.241 . S
C468 O466 1.280 . S
O469 Mg452 1.988 . S
O469 C471 1.245 . S
O470 C446 1.247 . S
O470 Mg452 2.061 1_655 S
C471 O467 1.277 . S
C471 O469 1.245 . S
O472 C446 1.289 . S
O472 Mg449 2.238 . S
O472 Mg450 2.106 1_655 S
O473 Mg450 2.079 . S
O473 C455 1.245 . S
O474 Mg453 2.038 . S
O474 C455 1.274 . S
C475 O487 1.241 . S
C475 O488 1.280 . S
C476 O489 1.277 . S
C476 O490 1.245 . S
C477 O501 1.247 . S
C477 O503 1.289 . S
Mg478 O479 1.926 . S
Mg478 O488 1.984 . S
Mg478 O490 1.988 . S
Mg478 O491 2.061 . S
O479 Mg478 1.926 . S
O479 Mg480 1.987 . S
O479 Mg481 1.917 . S
Mg480 O479 1.987 . S
Mg480 O487 2.046 . S
Mg480 O489 2.044 . S
Mg480 O495 2.035 1_545 S
Mg480 O503 2.234 1_545 S
Mg481 O479 1.917 . S
Mg481 O482 1.917 1_545 S
Mg481 O492 2.106 . S
Mg481 O494 2.079 1_545 S
Mg481 O503 2.106 1_545 S
Mg481 O504 2.079 . S
O482 Mg481 1.917 1_565 S
O482 Mg483 1.926 . S
O482 Mg484 1.986 . S
Mg483 O482 1.926 . S
Mg483 O497 1.984 . S
Mg483 O500 1.988 . S
Mg483 O501 2.061 . S
Mg484 O482 1.986 . S
Mg484 O492 2.240 1_565 S
Mg484 O496 2.040 . S
Mg484 O498 2.039 . S
Mg484 O505 2.041 1_565 S
C485 O491 1.247 . S
C485 O492 1.289 . S
C486 O504 1.245 . S
C486 O505 1.274 . S
O487 C475 1.241 . S
O487 Mg480 2.046 . S
O488 C475 1.280 . S
O488 Mg478 1.984 . S
O489 C476 1.277 . S
O489 Mg480 2.044 . S
O490 C476 1.245 . S
O490 Mg478 1.988 . S
O491 Mg478 2.061 . S
O491 C485 1.247 . S
O492 Mg481 2.106 . S
O492 Mg484 2.240 1_545 S
O492 C485 1.289 . S
C493 O494 1.245 . S
C493 O495 1.274 . S
O494 Mg481 2.079 1_565 S
O494 C493 1.245 . S
O495 Mg480 2.035 1_565 S
O495 C493 1.274 . S
O496 Mg484 2.040 . S
O496 C499 1.241 . S
O497 Mg483 1.984 . S
O497 C499 1.280 . S
O498 Mg484 2.039 . S
O498 C502 1.277 . S
C499 O496 1.241 . S
C499 O497 1.280 . S
O500 Mg483 1.988 . S
O500 C502 1.245 . S
O501 C477 1.247 . S
O501 Mg483 2.061 . S
C502 O498 1.277 . S
C502 O500 1.245 . S
O503 C477 1.289 . S
O503 Mg480 2.234 1_565 S
O503 Mg481 2.106 1_565 S
O504 Mg481 2.079 . S
O504 C486 1.245 . S
O505 Mg484 2.041 1_545 S
O505 C486 1.274 . S
C506 C507 1.391 . S
C506 C508 1.394 . S
C506 H522 0.931 . S
C507 C506 1.391 . S
C507 C511 1.376 . S
C508 C506 1.394 . S
C508 C509 1.369 . S
C508 C512 1.531 . S
C509 C508 1.369 . S
C509 C510 1.410 . S
C509 C517 1.503 . S
C510 C509 1.410 . S
C510 C511 1.392 . S
C510 C513 1.511 . S
C511 C507 1.376 . S
C511 C510 1.392 . S
C511 H523 0.929 . S
C512 C508 1.531 . S
C512 H524 0.960 . S
C512 H525 0.962 . S
C512 H526 0.960 . S
C513 C510 1.511 . S
C513 H527 0.961 . S
C513 H528 0.961 . S
C513 H529 0.961 . S
C514 C515 1.370 . S
C514 C516 1.363 . S
C514 H530 0.931 . S
C515 C514 1.370 . S
C515 C519 1.408 . S
C516 C514 1.363 . S
C516 C517 1.370 . S
C516 C520 1.524 . S
C517 C509 1.503 . S
C517 C516 1.370 . S
C517 C518 1.403 . S
C518 C517 1.403 . S
C518 C519 1.404 . S
C518 C521 1.539 . S
C519 C515 1.408 . S
C519 C518 1.404 . S
C519 H531 0.930 . S
C520 C516 1.524 . S
C520 H532 0.956 . S
C520 H533 0.961 . S
C520 H534 0.961 . S
C521 C518 1.539 . S
C521 H535 0.958 . S
C521 H536 0.961 . S
C521 H537 0.960 . S
H522 C506 0.931 . S
H523 C511 0.929 . S
H524 C512 0.960 . S
H525 C512 0.962 . S
H526 C512 0.960 . S
H527 C513 0.961 . S
H528 C513 0.961 . S
H529 C513 0.961 . S
H530 C514 0.931 . S
H531 C519 0.930 . S
H532 C520 0.956 . S
H533 C520 0.961 . S
H534 C520 0.961 . S
H535 C521 0.958 . S
H536 C521 0.961 . S
H537 C521 0.960 . S
C538 C539 1.391 . S
C538 C540 1.394 . S
C538 H554 0.931 . S
C539 C538 1.391 . S
C539 C543 1.376 . S
C540 C538 1.394 . S
C540 C541 1.369 . S
C540 C544 1.531 . S
C541 C540 1.369 . S
C541 C542 1.410 . S
C541 C549 1.503 . S
C542 C541 1.410 . S
C542 C543 1.392 . S
C542 C545 1.511 . S
C543 C539 1.376 . S
C543 C542 1.392 . S
C543 H555 0.929 . S
C544 C540 1.531 . S
C544 H556 0.960 . S
C544 H557 0.962 . S
C544 H558 0.960 . S
C545 C542 1.511 . S
C545 H559 0.961 . S
C545 H560 0.961 . S
C545 H561 0.961 . S
C546 C547 1.370 . S
C546 C548 1.363 . S
C546 H562 0.931 . S
C547 C546 1.370 . S
C547 C551 1.408 . S
C548 C546 1.363 . S
C548 C549 1.370 . S
C548 C552 1.524 . S
C549 C541 1.503 . S
C549 C548 1.370 . S
C549 C550 1.403 . S
C550 C549 1.403 . S
C550 C551 1.404 . S
C550 C553 1.539 . S
C551 C547 1.408 . S
C551 C550 1.404 . S
C551 H563 0.930 . S
C552 C548 1.524 . S
C552 H564 0.956 . S
C552 H565 0.961 . S
C552 H566 0.961 . S
C553 C550 1.539 . S
C553 H567 0.958 . S
C553 H568 0.961 . S
C553 H569 0.960 . S
H554 C538 0.931 . S
H555 C543 0.929 . S
H556 C544 0.960 . S
H557 C544 0.962 . S
H558 C544 0.960 . S
H559 C545 0.961 . S
H560 C545 0.961 . S
H561 C545 0.961 . S
H562 C546 0.931 . S
H563 C551 0.930 . S
H564 C552 0.956 . S
H565 C552 0.961 . S
H566 C552 0.961 . S
H567 C553 0.958 . S
H568 C553 0.961 . S
H569 C553 0.960 . S
C570 C571 1.391 . S
C570 C572 1.394 . S
C570 H586 0.931 . S
C571 C570 1.391 . S
C571 C575 1.376 . S
C572 C570 1.394 . S
C572 C573 1.369 . S
C572 C576 1.531 . S
C573 C572 1.369 . S
C573 C574 1.410 . S
C573 C581 1.503 . S
C574 C573 1.410 . S
C574 C575 1.392 . S
C574 C577 1.511 . S
C575 C571 1.376 . S
C575 C574 1.392 . S
C575 H587 0.929 . S
C576 C572 1.531 . S
C576 H588 0.960 . S
C576 H589 0.962 . S
C576 H590 0.960 . S
C577 C574 1.511 . S
C577 H591 0.961 . S
C577 H592 0.961 . S
C577 H593 0.961 . S
C578 C579 1.370 . S
C578 C580 1.363 . S
C578 H594 0.931 . S
C579 C578 1.370 . S
C579 C583 1.408 . S
C580 C578 1.363 . S
C580 C581 1.370 . S
C580 C584 1.524 . S
C581 C573 1.503 . S
C581 C580 1.370 . S
C581 C582 1.403 . S
C582 C581 1.403 . S
C582 C583 1.404 . S
C582 C585 1.539 . S
C583 C579 1.408 . S
C583 C582 1.404 . S
C583 H595 0.930 . S
C584 C580 1.524 . S
C584 H596 0.956 . S
C584 H597 0.961 . S
C584 H598 0.961 . S
C585 C582 1.539 . S
C585 H599 0.958 . S
C585 H600 0.961 . S
C585 H601 0.960 . S
H586 C570 0.931 . S
H587 C575 0.929 . S
H588 C576 0.960 . S
H589 C576 0.962 . S
H590 C576 0.960 . S
H591 C577 0.961 . S
H592 C577 0.961 . S
H593 C577 0.961 . S
H594 C578 0.931 . S
H595 C583 0.930 . S
H596 C584 0.956 . S
H597 C584 0.961 . S
H598 C584 0.961 . S
H599 C585 0.958 . S
H600 C585 0.961 . S
H601 C585 0.960 . S
C602 C603 1.391 . S
C602 C604 1.394 . S
C602 H618 0.931 . S
C603 C602 1.391 . S
C603 C607 1.376 . S
C604 C602 1.394 . S
C604 C605 1.369 . S
C604 C608 1.531 . S
C605 C604 1.369 . S
C605 C606 1.410 . S
C605 C613 1.503 . S
C606 C605 1.410 . S
C606 C607 1.392 . S
C606 C609 1.511 . S
C607 C603 1.376 . S
C607 C606 1.392 . S
C607 H619 0.929 . S
C608 C604 1.531 . S
C608 H620 0.960 . S
C608 H621 0.962 . S
C608 H622 0.960 . S
C609 C606 1.511 . S
C609 H623 0.961 . S
C609 H624 0.961 . S
C609 H625 0.961 . S
C610 C611 1.370 . S
C610 C612 1.363 . S
C610 H626 0.931 . S
C611 C610 1.370 . S
C611 C615 1.408 . S
C612 C610 1.363 . S
C612 C613 1.370 . S
C612 C616 1.524 . S
C613 C605 1.503 . S
C613 C612 1.370 . S
C613 C614 1.403 . S
C614 C613 1.403 . S
C614 C615 1.404 . S
C614 C617 1.539 . S
C615 C611 1.408 . S
C615 C614 1.404 . S
C615 H627 0.930 . S
C616 C612 1.524 . S
C616 H628 0.956 . S
C616 H629 0.961 . S
C616 H630 0.961 . S
C617 C614 1.539 . S
C617 H631 0.958 . S
C617 H632 0.961 . S
C617 H633 0.960 . S
H618 C602 0.931 . S
H619 C607 0.929 . S
H620 C608 0.960 . S
H621 C608 0.962 . S
H622 C608 0.960 . S
H623 C609 0.961 . S
H624 C609 0.961 . S
H625 C609 0.961 . S
H626 C610 0.931 . S
H627 C615 0.930 . S
H628 C616 0.956 . S
H629 C616 0.961 . S
H630 C616 0.961 . S
H631 C617 0.958 . S
H632 C617 0.961 . S
H633 C617 0.960 . S
C634 C635 1.391 . S
C634 C636 1.394 . S
C634 H650 0.931 . S
C635 C634 1.391 . S
C635 C639 1.376 . S
C636 C634 1.394 . S
C636 C637 1.369 . S
C636 C640 1.531 . S
C637 C636 1.369 . S
C637 C638 1.410 . S
C637 C645 1.503 . S
C638 C637 1.410 . S
C638 C639 1.392 . S
C638 C641 1.511 . S
C639 C635 1.376 . S
C639 C638 1.392 . S
C639 H651 0.929 . S
C640 C636 1.531 . S
C640 H652 0.960 . S
C640 H653 0.962 . S
C640 H654 0.960 . S
C641 C638 1.511 . S
C641 H655 0.961 . S
C641 H656 0.961 . S
C641 H657 0.961 . S
C642 C643 1.370 . S
C642 C644 1.363 . S
C642 H658 0.931 . S
C643 C642 1.370 . S
C643 C647 1.408 . S
C644 C642 1.363 . S
C644 C645 1.370 . S
C644 C648 1.524 . S
C645 C637 1.503 . S
C645 C644 1.370 . S
C645 C646 1.403 . S
C646 C645 1.403 . S
C646 C647 1.404 . S
C646 C649 1.539 . S
C647 C643 1.408 . S
C647 C646 1.404 . S
C647 H659 0.930 . S
C648 C644 1.524 . S
C648 H660 0.956 . S
C648 H661 0.961 . S
C648 H662 0.961 . S
C649 C646 1.539 . S
C649 H663 0.958 . S
C649 H664 0.961 . S
C649 H665 0.960 . S
H650 C634 0.931 . S
H651 C639 0.929 . S
H652 C640 0.960 . S
H653 C640 0.962 . S
H654 C640 0.960 . S
H655 C641 0.961 . S
H656 C641 0.961 . S
H657 C641 0.961 . S
H658 C642 0.931 . S
H659 C647 0.930 . S
H660 C648 0.956 . S
H661 C648 0.961 . S
H662 C648 0.961 . S
H663 C649 0.958 . S
H664 C649 0.961 . S
H665 C649 0.960 . S
C666 C667 1.391 . S
C666 C668 1.394 . S
C666 H682 0.931 . S
C667 C666 1.391 . S
C667 C671 1.376 . S
C668 C666 1.394 . S
C668 C669 1.369 . S
C668 C672 1.531 . S
C669 C668 1.369 . S
C669 C670 1.410 . S
C669 C677 1.503 . S
C670 C669 1.410 . S
C670 C671 1.392 . S
C670 C673 1.511 . S
C671 C667 1.376 . S
C671 C670 1.392 . S
C671 H683 0.929 . S
C672 C668 1.531 . S
C672 H684 0.960 . S
C672 H685 0.962 . S
C672 H686 0.960 . S
C673 C670 1.511 . S
C673 H687 0.961 . S
C673 H688 0.961 . S
C673 H689 0.961 . S
C674 C675 1.370 . S
C674 C676 1.363 . S
C674 H690 0.931 . S
C675 C674 1.370 . S
C675 C679 1.408 . S
C676 C674 1.363 . S
C676 C677 1.370 . S
C676 C680 1.524 . S
C677 C669 1.503 . S
C677 C676 1.370 . S
C677 C678 1.403 . S
C678 C677 1.403 . S
C678 C679 1.404 . S
C678 C681 1.539 . S
C679 C675 1.408 . S
C679 C678 1.404 . S
C679 H691 0.930 . S
C680 C676 1.524 . S
C680 H692 0.956 . S
C680 H693 0.961 . S
C680 H694 0.961 . S
C681 C678 1.539 . S
C681 H695 0.958 . S
C681 H696 0.961 . S
C681 H697 0.960 . S
H682 C666 0.931 . S
H683 C671 0.929 . S
H684 C672 0.960 . S
H685 C672 0.962 . S
H686 C672 0.960 . S
H687 C673 0.961 . S
H688 C673 0.961 . S
H689 C673 0.961 . S
H690 C674 0.931 . S
H691 C679 0.930 . S
H692 C680 0.956 . S
H693 C680 0.961 . S
H694 C680 0.961 . S
H695 C681 0.958 . S
H696 C681 0.961 . S
H697 C681 0.960 . S
C698 C699 1.391 . S
C698 C700 1.394 . S
C698 H714 0.931 . S
C699 C698 1.391 . S
C699 C703 1.376 . S
C700 C698 1.394 . S
C700 C701 1.369 . S
C700 C704 1.531 . S
C701 C700 1.369 . S
C701 C702 1.410 . S
C701 C709 1.503 . S
C702 C701 1.410 . S
C702 C703 1.392 . S
C702 C705 1.511 . S
C703 C699 1.376 . S
C703 C702 1.392 . S
C703 H715 0.929 . S
C704 C700 1.531 . S
C704 H716 0.960 . S
C704 H717 0.962 . S
C704 H718 0.960 . S
C705 C702 1.511 . S
C705 H719 0.961 . S
C705 H720 0.961 . S
C705 H721 0.961 . S
C706 C707 1.370 . S
C706 C708 1.363 . S
C706 H722 0.931 . S
C707 C706 1.370 . S
C707 C711 1.408 . S
C708 C706 1.363 . S
C708 C709 1.370 . S
C708 C712 1.524 . S
C709 C701 1.503 . S
C709 C708 1.370 . S
C709 C710 1.403 . S
C710 C709 1.403 . S
C710 C711 1.404 . S
C710 C713 1.539 . S
C711 C707 1.408 . S
C711 C710 1.404 . S
C711 H723 0.930 . S
C712 C708 1.524 . S
C712 H724 0.956 . S
C712 H725 0.961 . S
C712 H726 0.961 . S
C713 C710 1.539 . S
C713 H727 0.958 . S
C713 H728 0.961 1_655 S
C713 H729 0.960 . S
H714 C698 0.931 . S
H715 C703 0.929 . S
H716 C704 0.960 . S
H717 C704 0.962 . S
H718 C704 0.960 . S
H719 C705 0.961 . S
H720 C705 0.961 . S
H721 C705 0.961 . S
H722 C706 0.931 . S
H723 C711 0.930 . S
H724 C712 0.956 . S
H725 C712 0.961 . S
H726 C712 0.961 . S
H727 C713 0.958 . S
H728 C713 0.961 1_455 S
H729 C713 0.960 . S
C730 C731 1.391 . S
C730 C732 1.394 . S
C730 H746 0.931 . S
C731 C730 1.391 . S
C731 C735 1.376 . S
C732 C730 1.394 . S
C732 C733 1.369 . S
C732 C736 1.531 . S
C733 C732 1.369 . S
C733 C734 1.410 . S
C733 C741 1.503 . S
C734 C733 1.410 . S
C734 C735 1.392 . S
C734 C737 1.511 . S
C735 C731 1.376 . S
C735 C734 1.392 . S
C735 H747 0.929 . S
C736 C732 1.531 . S
C736 H748 0.960 . S
C736 H749 0.962 . S
C736 H750 0.960 . S
C737 C734 1.511 . S
C737 H751 0.961 . S
C737 H752 0.961 . S
C737 H753 0.961 . S
C738 C739 1.370 . S
C738 C740 1.363 . S
C738 H754 0.931 . S
C739 C738 1.370 . S
C739 C743 1.408 . S
C740 C738 1.363 . S
C740 C741 1.370 . S
C740 C744 1.524 . S
C741 C733 1.503 . S
C741 C740 1.370 . S
C741 C742 1.403 . S
C742 C741 1.403 . S
C742 C743 1.404 . S
C742 C745 1.539 . S
C743 C739 1.408 . S
C743 C742 1.404 . S
C743 H755 0.930 . S
C744 C740 1.524 . S
C744 H756 0.956 . S
C744 H757 0.961 . S
C744 H758 0.961 . S
C745 C742 1.539 . S
C745 H759 0.958 . S
C745 H760 0.961 . S
C745 H761 0.960 . S
H746 C730 0.931 . S
H747 C735 0.929 . S
H748 C736 0.960 . S
H749 C736 0.962 . S
H750 C736 0.960 . S
H751 C737 0.961 . S
H752 C737 0.961 . S
H753 C737 0.961 . S
H754 C738 0.931 . S
H755 C743 0.930 . S
H756 C744 0.956 . S
H757 C744 0.961 . S
H758 C744 0.961 . S
H759 C745 0.958 . S
H760 C745 0.961 . S
H761 C745 0.960 . S
C762 C763 1.391 . S
C762 C764 1.394 . S
C762 H778 0.931 . S
C763 C762 1.391 . S
C763 C767 1.376 . S
C764 C762 1.394 . S
C764 C765 1.369 . S
C764 C768 1.531 . S
C765 C764 1.369 . S
C765 C766 1.410 . S
C765 C773 1.503 . S
C766 C765 1.410 . S
C766 C767 1.392 . S
C766 C769 1.511 . S
C767 C763 1.376 . S
C767 C766 1.392 . S
C767 H779 0.929 . S
C768 C764 1.531 . S
C768 H780 0.960 . S
C768 H781 0.962 . S
C768 H782 0.960 . S
C769 C766 1.511 . S
C769 H783 0.961 . S
C769 H784 0.961 . S
C769 H785 0.961 . S
C770 C771 1.370 . S
C770 C772 1.363 . S
C770 H786 0.931 . S
C771 C770 1.370 . S
C771 C775 1.408 . S
C772 C770 1.363 . S
C772 C773 1.370 . S
C772 C776 1.524 . S
C773 C765 1.503 . S
C773 C772 1.370 . S
C773 C774 1.403 . S
C774 C773 1.403 . S
C774 C775 1.404 . S
C774 C777 1.539 . S
C775 C771 1.408 . S
C775 C774 1.404 . S
C775 H787 0.930 . S
C776 C772 1.524 . S
C776 H788 0.956 . S
C776 H789 0.961 . S
C776 H790 0.961 . S
C777 C774 1.539 . S
C777 H791 0.958 . S
C777 H792 0.961 . S
C777 H793 0.960 . S
H778 C762 0.931 . S
H779 C767 0.929 . S
H780 C768 0.960 . S
H781 C768 0.962 . S
H782 C768 0.960 . S
H783 C769 0.961 . S
H784 C769 0.961 . S
H785 C769 0.961 . S
H786 C770 0.931 . S
H787 C775 0.930 . S
H788 C776 0.956 . S
H789 C776 0.961 . S
H790 C776 0.961 . S
H791 C777 0.958 . S
H792 C777 0.961 . S
H793 C777 0.960 . S
C794 C795 1.391 . S
C794 C796 1.394 . S
C794 H810 0.931 . S
C795 C794 1.391 . S
C795 C799 1.376 . S
C796 C794 1.394 . S
C796 C797 1.369 . S
C796 C800 1.531 . S
C797 C796 1.369 . S
C797 C798 1.410 . S
C797 C805 1.503 . S
C798 C797 1.410 . S
C798 C799 1.392 . S
C798 C801 1.511 . S
C799 C795 1.376 . S
C799 C798 1.392 . S
C799 H811 0.929 . S
C800 C796 1.531 . S
C800 H812 0.960 . S
C800 H813 0.962 . S
C800 H814 0.960 . S
C801 C798 1.511 . S
C801 H815 0.961 . S
C801 H816 0.961 . S
C801 H817 0.961 . S
C802 C803 1.370 . S
C802 C804 1.363 . S
C802 H818 0.931 . S
C803 C802 1.370 . S
C803 C807 1.408 . S
C804 C802 1.363 . S
C804 C805 1.370 . S
C804 C808 1.524 . S
C805 C797 1.503 . S
C805 C804 1.370 . S
C805 C806 1.403 . S
C806 C805 1.403 . S
C806 C807 1.404 . S
C806 C809 1.539 . S
C807 C803 1.408 . S
C807 C806 1.404 . S
C807 H819 0.930 . S
C808 C804 1.524 . S
C808 H820 0.956 . S
C808 H821 0.961 . S
C808 H822 0.961 . S
C809 C806 1.539 . S
C809 H823 0.958 . S
C809 H824 0.961 . S
C809 H825 0.960 . S
H810 C794 0.931 . S
H811 C799 0.929 . S
H812 C800 0.960 . S
H813 C800 0.962 . S
H814 C800 0.960 . S
H815 C801 0.961 . S
H816 C801 0.961 . S
H817 C801 0.961 . S
H818 C802 0.931 . S
H819 C807 0.930 . S
H820 C808 0.956 . S
H821 C808 0.961 . S
H822 C808 0.961 . S
H823 C809 0.958 . S
H824 C809 0.961 . S
H825 C809 0.960 . S
C826 C827 1.391 . S
C826 C828 1.394 . S
C826 H842 0.931 . S
C827 C826 1.391 . S
C827 C831 1.376 . S
C828 C826 1.394 . S
C828 C829 1.369 . S
C828 C832 1.531 . S
C829 C828 1.369 . S
C829 C830 1.410 . S
C829 C837 1.503 . S
C830 C829 1.410 . S
C830 C831 1.392 . S
C830 C833 1.511 . S
C831 C827 1.376 . S
C831 C830 1.392 . S
C831 H843 0.929 . S
C832 C828 1.531 . S
C832 H844 0.960 . S
C832 H845 0.962 . S
C832 H846 0.960 . S
C833 C830 1.511 . S
C833 H847 0.961 . S
C833 H848 0.961 . S
C833 H849 0.961 . S
C834 C835 1.370 . S
C834 C836 1.363 . S
C834 H850 0.931 1_565 S
C835 C834 1.370 . S
C835 C839 1.408 . S
C836 C834 1.363 . S
C836 C837 1.370 . S
C836 C840 1.524 . S
C837 C829 1.503 . S
C837 C836 1.370 . S
C837 C838 1.403 . S
C838 C837 1.403 . S
C838 C839 1.404 . S
C838 C841 1.539 . S
C839 C835 1.408 . S
C839 C838 1.404 . S
C839 H851 0.930 . S
C840 C836 1.524 . S
C840 H852 0.956 . S
C840 H853 0.961 . S
C840 H854 0.961 1_565 S
C841 C838 1.539 . S
C841 H855 0.958 . S
C841 H856 0.961 . S
C841 H857 0.960 . S
H842 C826 0.931 . S
H843 C831 0.929 . S
H844 C832 0.960 . S
H845 C832 0.962 . S
H846 C832 0.960 . S
H847 C833 0.961 . S
H848 C833 0.961 . S
H849 C833 0.961 . S
H850 C834 0.931 1_545 S
H851 C839 0.930 . S
H852 C840 0.956 . S
H853 C840 0.961 . S
H854 C840 0.961 1_545 S
H855 C841 0.958 . S
H856 C841 0.961 . S
H857 C841 0.960 . S
C858 C859 1.391 . S
C858 C860 1.394 . S
C858 H874 0.931 . S
C859 C858 1.391 . S
C859 C863 1.376 . S
C860 C858 1.394 . S
C860 C861 1.369 . S
C860 C864 1.531 . S
C861 C860 1.369 . S
C861 C862 1.410 . S
C861 C869 1.503 . S
C862 C861 1.410 . S
C862 C863 1.392 . S
C862 C865 1.511 . S
C863 C859 1.376 . S
C863 C862 1.392 . S
C863 H875 0.929 . S
C864 C860 1.531 . S
C864 H876 0.960 . S
C864 H877 0.962 . S
C864 H878 0.960 . S
C865 C862 1.511 . S
C865 H879 0.961 . S
C865 H880 0.961 . S
C865 H881 0.961 . S
C866 C867 1.370 . S
C866 C868 1.363 . S
C866 H882 0.931 . S
C867 C866 1.370 . S
C867 C871 1.408 . S
C868 C866 1.363 . S
C868 C869 1.370 . S
C868 C872 1.524 . S
C869 C861 1.503 . S
C869 C868 1.370 . S
C869 C870 1.403 . S
C870 C869 1.403 . S
C870 C871 1.404 . S
C870 C873 1.539 . S
C871 C867 1.408 . S
C871 C870 1.404 . S
C871 H883 0.930 . S
C872 C868 1.524 . S
C872 H884 0.956 . S
C872 H885 0.961 . S
C872 H886 0.961 . S
C873 C870 1.539 . S
C873 H887 0.958 . S
C873 H888 0.961 . S
C873 H889 0.960 . S
H874 C858 0.931 . S
H875 C863 0.929 . S
H876 C864 0.960 . S
H877 C864 0.962 . S
H878 C864 0.960 . S
H879 C865 0.961 . S
H880 C865 0.961 . S
H881 C865 0.961 . S
H882 C866 0.931 . S
H883 C871 0.930 . S
H884 C872 0.956 . S
H885 C872 0.961 . S
H886 C872 0.961 . S
H887 C873 0.958 . S
H888 C873 0.961 . S
H889 C873 0.960 . S
C890 C891 1.391 . S
C890 C892 1.394 . S
C890 H906 0.931 . S
C891 C890 1.391 . S
C891 C895 1.376 . S
C892 C890 1.394 . S
C892 C893 1.369 . S
C892 C896 1.531 . S
C893 C892 1.369 . S
C893 C894 1.410 . S
C893 C901 1.503 . S
C894 C893 1.410 . S
C894 C895 1.392 . S
C894 C897 1.511 . S
C895 C891 1.376 . S
C895 C894 1.392 . S
C895 H907 0.929 . S
C896 C892 1.531 . S
C896 H908 0.960 . S
C896 H909 0.962 . S
C896 H910 0.960 . S
C897 C894 1.511 . S
C897 H911 0.961 . S
C897 H912 0.961 . S
C897 H913 0.961 . S
C898 C899 1.370 . S
C898 C900 1.363 . S
C898 H914 0.931 . S
C899 C898 1.370 . S
C899 C903 1.408 . S
C900 C898 1.363 . S
C900 C901 1.370 . S
C900 C904 1.524 . S
C901 C893 1.503 . S
C901 C900 1.370 . S
C901 C902 1.403 . S
C902 C901 1.403 . S
C902 C903 1.404 . S
C902 C905 1.539 . S
C903 C899 1.408 . S
C903 C902 1.404 . S
C903 H915 0.930 . S
C904 C900 1.524 . S
C904 H916 0.956 . S
C904 H917 0.961 . S
C904 H918 0.961 . S
C905 C902 1.539 . S
C905 H919 0.958 . S
C905 H920 0.961 . S
C905 H921 0.960 . S
H906 C890 0.931 . S
H907 C895 0.929 . S
H908 C896 0.960 . S
H909 C896 0.962 . S
H910 C896 0.960 . S
H911 C897 0.961 . S
H912 C897 0.961 . S
H913 C897 0.961 . S
H914 C898 0.931 . S
H915 C903 0.930 . S
H916 C904 0.956 . S
H917 C904 0.961 . S
H918 C904 0.961 . S
H919 C905 0.958 . S
H920 C905 0.961 . S
H921 C905 0.960 . S
C922 C923 1.391 . S
C922 C924 1.394 . S
C922 H938 0.931 . S
C923 C922 1.391 . S
C923 C927 1.376 . S
C924 C922 1.394 . S
C924 C925 1.369 . S
C924 C928 1.531 . S
C925 C924 1.369 . S
C925 C926 1.410 . S
C925 C933 1.503 . S
C926 C925 1.410 . S
C926 C927 1.392 . S
C926 C929 1.511 . S
C927 C923 1.376 . S
C927 C926 1.392 . S
C927 H939 0.929 . S
C928 C924 1.531 . S
C928 H940 0.960 . S
C928 H941 0.962 . S
C928 H942 0.960 . S
C929 C926 1.511 . S
C929 H943 0.961 . S
C929 H944 0.961 . S
C929 H945 0.961 . S
C930 C931 1.370 . S
C930 C932 1.363 . S
C930 H946 0.931 . S
C931 C930 1.370 . S
C931 C935 1.408 . S
C932 C930 1.363 . S
C932 C933 1.370 . S
C932 C936 1.524 . S
C933 C925 1.503 . S
C933 C932 1.370 . S
C933 C934 1.403 . S
C934 C933 1.403 . S
C934 C935 1.404 . S
C934 C937 1.539 . S
C935 C931 1.408 . S
C935 C934 1.404 . S
C935 H947 0.930 1_556 S
C936 C932 1.524 . S
C936 H948 0.956 . S
C936 H949 0.961 . S
C936 H950 0.961 . S
C937 C934 1.539 . S
C937 H951 0.958 1_556 S
C937 H952 0.961 1_556 S
C937 H953 0.960 . S
H938 C922 0.931 . S
H939 C927 0.929 . S
H940 C928 0.960 . S
H941 C928 0.962 . S
H942 C928 0.960 . S
H943 C929 0.961 . S
H944 C929 0.961 . S
H945 C929 0.961 . S
H946 C930 0.931 . S
H947 C935 0.930 1_554 S
H948 C936 0.956 . S
H949 C936 0.961 . S
H950 C936 0.961 . S
H951 C937 0.958 1_554 S
H952 C937 0.961 1_554 S
H953 C937 0.960 . S
C954 C955 1.391 . S
C954 C956 1.394 . S
C954 H970 0.931 . S
C955 C954 1.391 . S
C955 C959 1.376 . S
C956 C954 1.394 . S
C956 C957 1.369 . S
C956 C960 1.531 . S
C957 C956 1.369 . S
C957 C958 1.410 . S
C957 C965 1.503 . S
C958 C957 1.410 . S
C958 C959 1.392 . S
C958 C961 1.511 . S
C959 C955 1.376 . S
C959 C958 1.392 . S
C959 H971 0.929 . S
C960 C956 1.531 . S
C960 H972 0.960 . S
C960 H973 0.962 . S
C960 H974 0.960 . S
C961 C958 1.511 . S
C961 H975 0.961 . S
C961 H976 0.961 . S
C961 H977 0.961 . S
C962 C963 1.370 . S
C962 C964 1.363 . S
C962 H978 0.931 . S
C963 C962 1.370 . S
C963 C967 1.408 . S
C964 C962 1.363 . S
C964 C965 1.370 . S
C964 C968 1.524 . S
C965 C957 1.503 . S
C965 C964 1.370 . S
C965 C966 1.403 . S
C966 C965 1.403 . S
C966 C967 1.404 . S
C966 C969 1.539 . S
C967 C963 1.408 . S
C967 C966 1.404 . S
C967 H979 0.930 . S
C968 C964 1.524 . S
C968 H980 0.956 . S
C968 H981 0.961 . S
C968 H982 0.961 . S
C969 C966 1.539 . S
C969 H983 0.958 . S
C969 H984 0.961 . S
C969 H985 0.960 . S
H970 C954 0.931 . S
H971 C959 0.929 . S
H972 C960 0.960 . S
H973 C960 0.962 . S
H974 C960 0.960 . S
H975 C961 0.961 . S
H976 C961 0.961 . S
H977 C961 0.961 . S
H978 C962 0.931 . S
H979 C967 0.930 . S
H980 C968 0.956 . S
H981 C968 0.961 . S
H982 C968 0.961 . S
H983 C969 0.958 . S
H984 C969 0.961 . S
H985 C969 0.960 . S
C986 C987 1.391 . S
C986 C988 1.394 . S
C986 H1002 0.931 . S
C987 C986 1.391 . S
C987 C991 1.376 . S
C988 C986 1.394 . S
C988 C989 1.369 . S
C988 C992 1.531 . S
C989 C988 1.369 . S
C989 C990 1.410 . S
C989 C997 1.503 . S
C990 C989 1.410 . S
C990 C991 1.392 . S
C990 C993 1.511 . S
C991 C987 1.376 . S
C991 C990 1.392 . S
C991 H1003 0.929 . S
C992 C988 1.531 . S
C992 H1004 0.960 . S
C992 H1005 0.962 . S
C992 H1006 0.960 . S
C993 C990 1.511 . S
C993 H1007 0.961 . S
C993 H1008 0.961 . S
C993 H1009 0.961 . S
C994 C995 1.370 . S
C994 C996 1.363 . S
C994 H1010 0.931 . S
C995 C994 1.370 . S
C995 C999 1.408 . S
C996 C994 1.363 . S
C996 C997 1.370 . S
C996 C1000 1.524 . S
C997 C989 1.503 . S
C997 C996 1.370 . S
C997 C998 1.403 . S
C998 C997 1.403 . S
C998 C999 1.404 . S
C998 C1001 1.539 . S
C999 C995 1.408 . S
C999 C998 1.404 . S
C999 H1011 0.930 . S
C1000 C996 1.524 . S
C1000 H1012 0.956 . S
C1000 H1013 0.961 . S
C1000 H1014 0.961 . S
C1001 C998 1.539 . S
C1001 H1015 0.958 . S
C1001 H1016 0.961 . S
C1001 H1017 0.960 . S
H1002 C986 0.931 . S
H1003 C991 0.929 . S
H1004 C992 0.960 . S
H1005 C992 0.962 . S
H1006 C992 0.960 . S
H1007 C993 0.961 . S
H1008 C993 0.961 . S
H1009 C993 0.961 . S
H1010 C994 0.931 . S
H1011 C999 0.930 . S
H1012 C1000 0.956 . S
H1013 C1000 0.961 . S
H1014 C1000 0.961 . S
H1015 C1001 0.958 . S
H1016 C1001 0.961 . S
H1017 C1001 0.960 . S
C1018 C1019 1.391 . S
C1018 C1020 1.394 . S
C1018 H1034 0.931 . S
C1019 C1018 1.391 . S
C1019 C1023 1.376 . S
C1020 C1018 1.394 . S
C1020 C1021 1.369 . S
C1020 C1024 1.531 . S
C1021 C1020 1.369 . S
C1021 C1022 1.410 . S
C1021 C1029 1.503 . S
C1022 C1021 1.410 . S
C1022 C1023 1.392 . S
C1022 C1025 1.511 . S
C1023 C1019 1.376 . S
C1023 C1022 1.392 . S
C1023 H1035 0.929 . S
C1024 C1020 1.531 . S
C1024 H1036 0.960 . S
C1024 H1037 0.962 . S
C1024 H1038 0.960 . S
C1025 C1022 1.511 . S
C1025 H1039 0.961 . S
C1025 H1040 0.961 . S
C1025 H1041 0.961 . S
C1026 C1027 1.370 . S
C1026 C1028 1.363 . S
C1026 H1042 0.931 . S
C1027 C1026 1.370 . S
C1027 C1031 1.408 . S
C1028 C1026 1.363 . S
C1028 C1029 1.370 . S
C1028 C1032 1.524 . S
C1029 C1021 1.503 . S
C1029 C1028 1.370 . S
C1029 C1030 1.403 . S
C1030 C1029 1.403 . S
C1030 C1031 1.404 . S
C1030 C1033 1.539 . S
C1031 C1027 1.408 . S
C1031 C1030 1.404 . S
C1031 H1043 0.930 . S
C1032 C1028 1.524 . S
C1032 H1044 0.956 . S
C1032 H1045 0.961 . S
C1032 H1046 0.961 . S
C1033 C1030 1.539 . S
C1033 H1047 0.958 . S
C1033 H1048 0.961 . S
C1033 H1049 0.960 . S
H1034 C1018 0.931 . S
H1035 C1023 0.929 . S
H1036 C1024 0.960 . S
H1037 C1024 0.962 . S
H1038 C1024 0.960 . S
H1039 C1025 0.961 . S
H1040 C1025 0.961 . S
H1041 C1025 0.961 . S
H1042 C1026 0.931 . S
H1043 C1031 0.930 . S
H1044 C1032 0.956 . S
H1045 C1032 0.961 . S
H1046 C1032 0.961 . S
H1047 C1033 0.958 . S
H1048 C1033 0.961 . S
H1049 C1033 0.960 . S
C1050 C1051 1.391 . S
C1050 C1052 1.394 . S
C1050 H1066 0.931 . S
C1051 C1050 1.391 . S
C1051 C1055 1.376 . S
C1052 C1050 1.394 . S
C1052 C1053 1.369 . S
C1052 C1056 1.531 1_556 S
C1053 C1052 1.369 . S
C1053 C1054 1.410 . S
C1053 C1061 1.503 . S
C1054 C1053 1.410 . S
C1054 C1055 1.392 . S
C1054 C1057 1.511 . S
C1055 C1051 1.376 . S
C1055 C1054 1.392 . S
C1055 H1067 0.929 . S
C1056 C1052 1.531 1_554 S
C1056 H1068 0.960 . S
C1056 H1069 0.962 . S
C1056 H1070 0.960 . S
C1057 C1054 1.511 . S
C1057 H1071 0.961 . S
C1057 H1072 0.961 . S
C1057 H1073 0.961 . S
C1058 C1059 1.370 . S
C1058 C1060 1.363 . S
C1058 H1074 0.931 . S
C1059 C1058 1.370 . S
C1059 C1063 1.408 . S
C1060 C1058 1.363 . S
C1060 C1061 1.370 . S
C1060 C1064 1.524 . S
C1061 C1053 1.503 . S
C1061 C1060 1.370 . S
C1061 C1062 1.403 . S
C1062 C1061 1.403 . S
C1062 C1063 1.404 . S
C1062 C1065 1.539 . S
C1063 C1059 1.408 . S
C1063 C1062 1.404 . S
C1063 H1075 0.930 . S
C1064 C1060 1.524 . S
C1064 H1076 0.956 . S
C1064 H1077 0.961 . S
C1064 H1078 0.961 . S
C1065 C1062 1.539 . S
C1065 H1079 0.958 . S
C1065 H1080 0.961 . S
C1065 H1081 0.960 . S
H1066 C1050 0.931 . S
H1067 C1055 0.929 . S
H1068 C1056 0.960 . S
H1069 C1056 0.962 . S
H1070 C1056 0.960 . S
H1071 C1057 0.961 . S
H1072 C1057 0.961 . S
H1073 C1057 0.961 . S
H1074 C1058 0.931 . S
H1075 C1063 0.930 . S
H1076 C1064 0.956 . S
H1077 C1064 0.961 . S
H1078 C1064 0.961 . S
H1079 C1065 0.958 . S
H1080 C1065 0.961 . S
H1081 C1065 0.960 . S
C1082 C1083 1.391 . S
C1082 C1084 1.394 . S
C1082 H1098 0.931 . S
C1083 C1082 1.391 . S
C1083 C1087 1.376 . S
C1084 C1082 1.394 . S
C1084 C1085 1.369 . S
C1084 C1088 1.531 . S
C1085 C1084 1.369 . S
C1085 C1086 1.410 . S
C1085 C1093 1.503 . S
C1086 C1085 1.410 . S
C1086 C1087 1.392 . S
C1086 C1089 1.511 . S
C1087 C1083 1.376 . S
C1087 C1086 1.392 . S
C1087 H1099 0.929 . S
C1088 C1084 1.531 . S
C1088 H1100 0.960 . S
C1088 H1101 0.962 . S
C1088 H1102 0.960 . S
C1089 C1086 1.511 . S
C1089 H1103 0.961 . S
C1089 H1104 0.961 . S
C1089 H1105 0.961 . S
C1090 C1091 1.370 . S
C1090 C1092 1.363 . S
C1090 H1106 0.931 . S
C1091 C1090 1.370 . S
C1091 C1095 1.408 . S
C1092 C1090 1.363 . S
C1092 C1093 1.370 . S
C1092 C1096 1.524 . S
C1093 C1085 1.503 . S
C1093 C1092 1.370 . S
C1093 C1094 1.403 . S
C1094 C1093 1.403 . S
C1094 C1095 1.404 . S
C1094 C1097 1.539 . S
C1095 C1091 1.408 . S
C1095 C1094 1.404 . S
C1095 H1107 0.930 . S
C1096 C1092 1.524 . S
C1096 H1108 0.956 . S
C1096 H1109 0.961 . S
C1096 H1110 0.961 . S
C1097 C1094 1.539 . S
C1097 H1111 0.958 . S
C1097 H1112 0.961 . S
C1097 H1113 0.960 . S
H1098 C1082 0.931 . S
H1099 C1087 0.929 . S
H1100 C1088 0.960 . S
H1101 C1088 0.962 . S
H1102 C1088 0.960 . S
H1103 C1089 0.961 . S
H1104 C1089 0.961 . S
H1105 C1089 0.961 . S
H1106 C1090 0.931 . S
H1107 C1095 0.930 . S
H1108 C1096 0.956 . S
H1109 C1096 0.961 . S
H1110 C1096 0.961 . S
H1111 C1097 0.958 . S
H1112 C1097 0.961 . S
H1113 C1097 0.960 . S
C1114 C1115 1.391 . S
C1114 C1116 1.394 . S
C1114 H1130 0.931 . S
C1115 C1114 1.391 . S
C1115 C1119 1.376 . S
C1116 C1114 1.394 . S
C1116 C1117 1.369 . S
C1116 C1120 1.531 . S
C1117 C1116 1.369 . S
C1117 C1118 1.410 . S
C1117 C1125 1.503 . S
C1118 C1117 1.410 . S
C1118 C1119 1.392 . S
C1118 C1121 1.511 . S
C1119 C1115 1.376 . S
C1119 C1118 1.392 . S
C1119 H1131 0.929 . S
C1120 C1116 1.531 . S
C1120 H1132 0.960 . S
C1120 H1133 0.962 . S
C1120 H1134 0.960 . S
C1121 C1118 1.511 . S
C1121 H1135 0.961 . S
C1121 H1136 0.961 . S
C1121 H1137 0.961 . S
C1122 C1123 1.370 . S
C1122 C1124 1.363 . S
C1122 H1138 0.931 . S
C1123 C1122 1.370 . S
C1123 C1127 1.408 . S
C1124 C1122 1.363 . S
C1124 C1125 1.370 . S
C1124 C1128 1.524 . S
C1125 C1117 1.503 . S
C1125 C1124 1.370 . S
C1125 C1126 1.403 . S
C1126 C1125 1.403 . S
C1126 C1127 1.404 . S
C1126 C1129 1.539 . S
C1127 C1123 1.408 . S
C1127 C1126 1.404 . S
C1127 H1139 0.930 . S
C1128 C1124 1.524 . S
C1128 H1140 0.956 . S
C1128 H1141 0.961 . S
C1128 H1142 0.961 . S
C1129 C1126 1.539 . S
C1129 H1143 0.958 . S
C1129 H1144 0.961 . S
C1129 H1145 0.960 . S
H1130 C1114 0.931 . S
H1131 C1119 0.929 . S
H1132 C1120 0.960 . S
H1133 C1120 0.962 . S
H1134 C1120 0.960 . S
H1135 C1121 0.961 . S
H1136 C1121 0.961 . S
H1137 C1121 0.961 . S
H1138 C1122 0.931 . S
H1139 C1127 0.930 . S
H1140 C1128 0.956 . S
H1141 C1128 0.961 . S
H1142 C1128 0.961 . S
H1143 C1129 0.958 . S
H1144 C1129 0.961 . S
H1145 C1129 0.960 . S
C1146 C1147 1.391 . S
C1146 C1148 1.394 . S
C1146 H1162 0.931 . S
C1147 C1146 1.391 . S
C1147 C1151 1.376 . S
C1148 C1146 1.394 . S
C1148 C1149 1.369 . S
C1148 C1152 1.531 . S
C1149 C1148 1.369 . S
C1149 C1150 1.410 . S
C1149 C1157 1.503 . S
C1150 C1149 1.410 . S
C1150 C1151 1.392 . S
C1150 C1153 1.511 . S
C1151 C1147 1.376 . S
C1151 C1150 1.392 . S
C1151 H1163 0.929 . S
C1152 C1148 1.531 . S
C1152 H1164 0.960 . S
C1152 H1165 0.962 . S
C1152 H1166 0.960 . S
C1153 C1150 1.511 . S
C1153 H1167 0.961 . S
C1153 H1168 0.961 . S
C1153 H1169 0.961 . S
C1154 C1155 1.370 . S
C1154 C1156 1.363 . S
C1154 H1170 0.931 1_565 S
C1155 C1154 1.370 . S
C1155 C1159 1.408 . S
C1156 C1154 1.363 . S
C1156 C1157 1.370 . S
C1156 C1160 1.524 . S
C1157 C1149 1.503 . S
C1157 C1156 1.370 . S
C1157 C1158 1.403 . S
C1158 C1157 1.403 . S
C1158 C1159 1.404 . S
C1158 C1161 1.539 . S
C1159 C1155 1.408 . S
C1159 C1158 1.404 . S
C1159 H1171 0.930 . S
C1160 C1156 1.524 . S
C1160 H1172 0.956 . S
C1160 H1173 0.961 1_565 S
C1160 H1174 0.961 1_565 S
C1161 C1158 1.539 . S
C1161 H1175 0.958 . S
C1161 H1176 0.961 . S
C1161 H1177 0.960 . S
H1162 C1146 0.931 . S
H1163 C1151 0.929 . S
H1164 C1152 0.960 . S
H1165 C1152 0.962 . S
H1166 C1152 0.960 . S
H1167 C1153 0.961 . S
H1168 C1153 0.961 . S
H1169 C1153 0.961 . S
H1170 C1154 0.931 1_545 S
H1171 C1159 0.930 . S
H1172 C1160 0.956 . S
H1173 C1160 0.961 1_545 S
H1174 C1160 0.961 1_545 S
H1175 C1161 0.958 . S
H1176 C1161 0.961 . S
H1177 C1161 0.960 . S
C1178 C1179 1.391 . S
C1178 C1180 1.394 . S
C1178 H1194 0.931 . S
C1179 C1178 1.391 . S
C1179 C1183 1.376 . S
C1180 C1178 1.394 . S
C1180 C1181 1.369 . S
C1180 C1184 1.531 . S
C1181 C1180 1.369 . S
C1181 C1182 1.410 . S
C1181 C1189 1.503 . S
C1182 C1181 1.410 . S
C1182 C1183 1.392 . S
C1182 C1185 1.511 . S
C1183 C1179 1.376 . S
C1183 C1182 1.392 . S
C1183 H1195 0.929 . S
C1184 C1180 1.531 . S
C1184 H1196 0.960 . S
C1184 H1197 0.962 . S
C1184 H1198 0.960 . S
C1185 C1182 1.511 . S
C1185 H1199 0.961 . S
C1185 H1200 0.961 . S
C1185 H1201 0.961 . S
C1186 C1187 1.370 . S
C1186 C1188 1.363 . S
C1186 H1202 0.931 . S
C1187 C1186 1.370 . S
C1187 C1191 1.408 . S
C1188 C1186 1.363 . S
C1188 C1189 1.370 . S
C1188 C1192 1.524 . S
C1189 C1181 1.503 . S
C1189 C1188 1.370 . S
C1189 C1190 1.403 . S
C1190 C1189 1.403 . S
C1190 C1191 1.404 . S
C1190 C1193 1.539 . S
C1191 C1187 1.408 . S
C1191 C1190 1.404 . S
C1191 H1203 0.930 . S
C1192 C1188 1.524 . S
C1192 H1204 0.956 . S
C1192 H1205 0.961 . S
C1192 H1206 0.961 . S
C1193 C1190 1.539 . S
C1193 H1207 0.958 . S
C1193 H1208 0.961 . S
C1193 H1209 0.960 . S
H1194 C1178 0.931 . S
H1195 C1183 0.929 . S
H1196 C1184 0.960 . S
H1197 C1184 0.962 . S
H1198 C1184 0.960 . S
H1199 C1185 0.961 . S
H1200 C1185 0.961 . S
H1201 C1185 0.961 . S
H1202 C1186 0.931 . S
H1203 C1191 0.930 . S
H1204 C1192 0.956 . S
H1205 C1192 0.961 . S
H1206 C1192 0.961 . S
H1207 C1193 0.958 . S
H1208 C1193 0.961 . S
H1209 C1193 0.960 . S
C1210 C1211 1.391 . S
C1210 C1212 1.394 . S
C1210 H1226 0.931 . S
C1211 C1210 1.391 . S
C1211 C1215 1.376 . S
C1212 C1210 1.394 . S
C1212 C1213 1.369 . S
C1212 C1216 1.531 . S
C1213 C1212 1.369 . S
C1213 C1214 1.410 . S
C1213 C1221 1.503 . S
C1214 C1213 1.410 . S
C1214 C1215 1.392 . S
C1214 C1217 1.511 . S
C1215 C1211 1.376 . S
C1215 C1214 1.392 . S
C1215 H1227 0.929 . S
C1216 C1212 1.531 . S
C1216 H1228 0.960 . S
C1216 H1229 0.962 . S
C1216 H1230 0.960 . S
C1217 C1214 1.511 . S
C1217 H1231 0.961 . S
C1217 H1232 0.961 . S
C1217 H1233 0.961 . S
C1218 C1219 1.370 . S
C1218 C1220 1.363 . S
C1218 H1234 0.931 . S
C1219 C1218 1.370 . S
C1219 C1223 1.408 . S
C1220 C1218 1.363 . S
C1220 C1221 1.370 . S
C1220 C1224 1.524 . S
C1221 C1213 1.503 . S
C1221 C1220 1.370 . S
C1221 C1222 1.403 . S
C1222 C1221 1.403 . S
C1222 C1223 1.404 . S
C1222 C1225 1.539 . S
C1223 C1219 1.408 . S
C1223 C1222 1.404 . S
C1223 H1235 0.930 . S
C1224 C1220 1.524 . S
C1224 H1236 0.956 . S
C1224 H1237 0.961 . S
C1224 H1238 0.961 . S
C1225 C1222 1.539 . S
C1225 H1239 0.958 . S
C1225 H1240 0.961 . S
C1225 H1241 0.960 . S
H1226 C1210 0.931 . S
H1227 C1215 0.929 . S
H1228 C1216 0.960 . S
H1229 C1216 0.962 . S
H1230 C1216 0.960 . S
H1231 C1217 0.961 . S
H1232 C1217 0.961 . S
H1233 C1217 0.961 . S
H1234 C1218 0.931 . S
H1235 C1223 0.930 . S
H1236 C1224 0.956 . S
H1237 C1224 0.961 . S
H1238 C1224 0.961 . S
H1239 C1225 0.958 . S
H1240 C1225 0.961 . S
H1241 C1225 0.960 . S
C1242 C1243 1.391 . S
C1242 C1244 1.394 . S
C1242 H1258 0.931 . S
C1243 C1242 1.391 . S
C1243 C1247 1.376 . S
C1244 C1242 1.394 . S
C1244 C1245 1.369 . S
C1244 C1248 1.531 . S
C1245 C1244 1.369 . S
C1245 C1246 1.410 . S
C1245 C1253 1.503 . S
C1246 C1245 1.410 . S
C1246 C1247 1.392 . S
C1246 C1249 1.511 . S
C1247 C1243 1.376 . S
C1247 C1246 1.392 . S
C1247 H1259 0.929 . S
C1248 C1244 1.531 . S
C1248 H1260 0.960 . S
C1248 H1261 0.962 . S
C1248 H1262 0.960 . S
C1249 C1246 1.511 . S
C1249 H1263 0.961 . S
C1249 H1264 0.961 . S
C1249 H1265 0.961 . S
C1250 C1251 1.370 . S
C1250 C1252 1.363 . S
C1250 H1266 0.931 . S
C1251 C1250 1.370 . S
C1251 C1255 1.408 . S
C1252 C1250 1.363 . S
C1252 C1253 1.370 . S
C1252 C1256 1.524 . S
C1253 C1245 1.503 . S
C1253 C1252 1.370 . S
C1253 C1254 1.403 . S
C1254 C1253 1.403 . S
C1254 C1255 1.404 . S
C1254 C1257 1.539 . S
C1255 C1251 1.408 . S
C1255 C1254 1.404 . S
C1255 H1267 0.930 . S
C1256 C1252 1.524 . S
C1256 H1268 0.956 . S
C1256 H1269 0.961 . S
C1256 H1270 0.961 . S
C1257 C1254 1.539 . S
C1257 H1271 0.958 . S
C1257 H1272 0.961 . S
C1257 H1273 0.960 . S
H1258 C1242 0.931 . S
H1259 C1247 0.929 . S
H1260 C1248 0.960 . S
H1261 C1248 0.962 . S
H1262 C1248 0.960 . S
H1263 C1249 0.961 . S
H1264 C1249 0.961 . S
H1265 C1249 0.961 . S
H1266 C1250 0.931 . S
H1267 C1255 0.930 . S
H1268 C1256 0.956 . S
H1269 C1256 0.961 . S
H1270 C1256 0.961 . S
H1271 C1257 0.958 . S
H1272 C1257 0.961 . S
H1273 C1257 0.960 . S
C1274 C1275 1.391 . S
C1274 C1276 1.394 . S
C1274 H1290 0.931 . S
C1275 C1274 1.391 . S
C1275 C1279 1.376 . S
C1276 C1274 1.394 . S
C1276 C1277 1.369 . S
C1276 C1280 1.531 . S
C1277 C1276 1.369 . S
C1277 C1278 1.410 . S
C1277 C1285 1.503 . S
C1278 C1277 1.410 . S
C1278 C1279 1.392 . S
C1278 C1281 1.511 . S
C1279 C1275 1.376 . S
C1279 C1278 1.392 . S
C1279 H1291 0.929 . S
C1280 C1276 1.531 . S
C1280 H1292 0.960 . S
C1280 H1293 0.962 . S
C1280 H1294 0.960 . S
C1281 C1278 1.511 . S
C1281 H1295 0.961 . S
C1281 H1296 0.961 . S
C1281 H1297 0.961 . S
C1282 C1283 1.370 . S
C1282 C1284 1.363 . S
C1282 H1298 0.931 . S
C1283 C1282 1.370 . S
C1283 C1287 1.408 . S
C1284 C1282 1.363 . S
C1284 C1285 1.370 . S
C1284 C1288 1.524 . S
C1285 C1277 1.503 . S
C1285 C1284 1.370 . S
C1285 C1286 1.403 . S
C1286 C1285 1.403 . S
C1286 C1287 1.404 . S
C1286 C1289 1.539 . S
C1287 C1283 1.408 . S
C1287 C1286 1.404 . S
C1287 H1299 0.930 . S
C1288 C1284 1.524 . S
C1288 H1300 0.956 . S
C1288 H1301 0.961 . S
C1288 H1302 0.961 . S
C1289 C1286 1.539 . S
C1289 H1303 0.958 . S
C1289 H1304 0.961 . S
C1289 H1305 0.960 . S
H1290 C1274 0.931 . S
H1291 C1279 0.929 . S
H1292 C1280 0.960 . S
H1293 C1280 0.962 . S
H1294 C1280 0.960 . S
H1295 C1281 0.961 . S
H1296 C1281 0.961 . S
H1297 C1281 0.961 . S
H1298 C1282 0.931 . S
H1299 C1287 0.930 . S
H1300 C1288 0.956 . S
H1301 C1288 0.961 . S
H1302 C1288 0.961 . S
H1303 C1289 0.958 . S
H1304 C1289 0.961 . S
H1305 C1289 0.960 . S
C1306 C1307 1.391 . S
C1306 C1308 1.394 . S
C1306 H1322 0.931 . S
C1307 C1306 1.391 . S
C1307 C1311 1.376 . S
C1308 C1306 1.394 . S
C1308 C1309 1.369 . S
C1308 C1312 1.531 . S
C1309 C1308 1.369 . S
C1309 C1310 1.410 . S
C1309 C1317 1.503 . S
C1310 C1309 1.410 . S
C1310 C1311 1.392 . S
C1310 C1313 1.511 . S
C1311 C1307 1.376 . S
C1311 C1310 1.392 . S
C1311 H1323 0.929 . S
C1312 C1308 1.531 . S
C1312 H1324 0.960 . S
C1312 H1325 0.962 . S
C1312 H1326 0.960 . S
C1313 C1310 1.511 . S
C1313 H1327 0.961 . S
C1313 H1328 0.961 . S
C1313 H1329 0.961 . S
C1314 C1315 1.370 . S
C1314 C1316 1.363 . S
C1314 H1330 0.931 . S
C1315 C1314 1.370 . S
C1315 C1319 1.408 . S
C1316 C1314 1.363 . S
C1316 C1317 1.370 . S
C1316 C1320 1.524 . S
C1317 C1309 1.503 . S
C1317 C1316 1.370 . S
C1317 C1318 1.403 . S
C1318 C1317 1.403 . S
C1318 C1319 1.404 . S
C1318 C1321 1.539 . S
C1319 C1315 1.408 . S
C1319 C1318 1.404 . S
C1319 H1331 0.930 . S
C1320 C1316 1.524 . S
C1320 H1332 0.956 . S
C1320 H1333 0.961 . S
C1320 H1334 0.961 . S
C1321 C1318 1.539 . S
C1321 H1335 0.958 . S
C1321 H1336 0.961 . S
C1321 H1337 0.960 . S
H1322 C1306 0.931 . S
H1323 C1311 0.929 . S
H1324 C1312 0.960 . S
H1325 C1312 0.962 . S
H1326 C1312 0.960 . S
H1327 C1313 0.961 . S
H1328 C1313 0.961 . S
H1329 C1313 0.961 . S
H1330 C1314 0.931 . S
H1331 C1319 0.930 . S
H1332 C1320 0.956 . S
H1333 C1320 0.961 . S
H1334 C1320 0.961 . S
H1335 C1321 0.958 . S
H1336 C1321 0.961 . S
H1337 C1321 0.960 . S
C1338 C1339 1.391 . S
C1338 C1340 1.394 . S
C1338 H1354 0.931 . S
C1339 C1338 1.391 . S
C1339 C1343 1.376 . S
C1340 C1338 1.394 . S
C1340 C1341 1.369 . S
C1340 C1344 1.531 . S
C1341 C1340 1.369 . S
C1341 C1342 1.410 . S
C1341 C1349 1.503 . S
C1342 C1341 1.410 . S
C1342 C1343 1.392 . S
C1342 C1345 1.511 . S
C1343 C1339 1.376 . S
C1343 C1342 1.392 . S
C1343 H1355 0.929 . S
C1344 C1340 1.531 . S
C1344 H1356 0.960 . S
C1344 H1357 0.962 . S
C1344 H1358 0.960 . S
C1345 C1342 1.511 . S
C1345 H1359 0.961 . S
C1345 H1360 0.961 . S
C1345 H1361 0.961 . S
C1346 C1347 1.370 . S
C1346 C1348 1.363 . S
C1346 H1362 0.931 . S
C1347 C1346 1.370 . S
C1347 C1351 1.408 . S
C1348 C1346 1.363 . S
C1348 C1349 1.370 . S
C1348 C1352 1.524 . S
C1349 C1341 1.503 . S
C1349 C1348 1.370 . S
C1349 C1350 1.403 . S
C1350 C1349 1.403 . S
C1350 C1351 1.404 . S
C1350 C1353 1.539 . S
C1351 C1347 1.408 . S
C1351 C1350 1.404 . S
C1351 H1363 0.930 . S
C1352 C1348 1.524 . S
C1352 H1364 0.956 . S
C1352 H1365 0.961 . S
C1352 H1366 0.961 . S
C1353 C1350 1.539 . S
C1353 H1367 0.958 . S
C1353 H1368 0.961 . S
C1353 H1369 0.960 . S
H1354 C1338 0.931 . S
H1355 C1343 0.929 . S
H1356 C1344 0.960 . S
H1357 C1344 0.962 . S
H1358 C1344 0.960 . S
H1359 C1345 0.961 . S
H1360 C1345 0.961 . S
H1361 C1345 0.961 . S
H1362 C1346 0.931 . S
H1363 C1351 0.930 . S
H1364 C1352 0.956 . S
H1365 C1352 0.961 . S
H1366 C1352 0.961 . S
H1367 C1353 0.958 . S
H1368 C1353 0.961 . S
H1369 C1353 0.960 . S
C1370 C1371 1.391 . S
C1370 C1372 1.394 . S
C1370 H1386 0.931 . S
C1371 C1370 1.391 . S
C1371 C1375 1.376 . S
C1372 C1370 1.394 . S
C1372 C1373 1.369 . S
C1372 C1376 1.531 . S
C1373 C1372 1.369 . S
C1373 C1374 1.410 . S
C1373 C1381 1.503 . S
C1374 C1373 1.410 . S
C1374 C1375 1.392 . S
C1374 C1377 1.511 . S
C1375 C1371 1.376 . S
C1375 C1374 1.392 . S
C1375 H1387 0.929 . S
C1376 C1372 1.531 . S
C1376 H1388 0.960 . S
C1376 H1389 0.962 . S
C1376 H1390 0.960 . S
C1377 C1374 1.511 . S
C1377 H1391 0.961 . S
C1377 H1392 0.961 . S
C1377 H1393 0.961 . S
C1378 C1379 1.370 . S
C1378 C1380 1.363 . S
C1378 H1394 0.931 . S
C1379 C1378 1.370 . S
C1379 C1383 1.408 . S
C1380 C1378 1.363 . S
C1380 C1381 1.370 . S
C1380 C1384 1.524 . S
C1381 C1373 1.503 . S
C1381 C1380 1.370 . S
C1381 C1382 1.403 . S
C1382 C1381 1.403 . S
C1382 C1383 1.404 . S
C1382 C1385 1.539 . S
C1383 C1379 1.408 . S
C1383 C1382 1.404 . S
C1383 H1395 0.930 . S
C1384 C1380 1.524 . S
C1384 H1396 0.956 . S
C1384 H1397 0.961 . S
C1384 H1398 0.961 . S
C1385 C1382 1.539 . S
C1385 H1399 0.958 . S
C1385 H1400 0.961 . S
C1385 H1401 0.960 . S
H1386 C1370 0.931 . S
H1387 C1375 0.929 . S
H1388 C1376 0.960 . S
H1389 C1376 0.962 . S
H1390 C1376 0.960 . S
H1391 C1377 0.961 . S
H1392 C1377 0.961 . S
H1393 C1377 0.961 . S
H1394 C1378 0.931 . S
H1395 C1383 0.930 . S
H1396 C1384 0.956 . S
H1397 C1384 0.961 . S
H1398 C1384 0.961 . S
H1399 C1385 0.958 . S
H1400 C1385 0.961 . S
H1401 C1385 0.960 . S
C1402 C1403 1.391 . S
C1402 C1404 1.394 . S
C1402 H1418 0.931 . S
C1403 C1402 1.391 . S
C1403 C1407 1.376 . S
C1404 C1402 1.394 . S
C1404 C1405 1.369 . S
C1404 C1408 1.531 . S
C1405 C1404 1.369 . S
C1405 C1406 1.410 . S
C1405 C1413 1.503 . S
C1406 C1405 1.410 . S
C1406 C1407 1.392 . S
C1406 C1409 1.511 . S
C1407 C1403 1.376 . S
C1407 C1406 1.392 . S
C1407 H1419 0.929 . S
C1408 C1404 1.531 . S
C1408 H1420 0.960 . S
C1408 H1421 0.962 . S
C1408 H1422 0.960 . S
C1409 C1406 1.511 . S
C1409 H1423 0.961 . S
C1409 H1424 0.961 . S
C1409 H1425 0.961 . S
C1410 C1411 1.370 . S
C1410 C1412 1.363 . S
C1410 H1426 0.931 . S
C1411 C1410 1.370 . S
C1411 C1415 1.408 . S
C1412 C1410 1.363 . S
C1412 C1413 1.370 . S
C1412 C1416 1.524 . S
C1413 C1405 1.503 . S
C1413 C1412 1.370 . S
C1413 C1414 1.403 . S
C1414 C1413 1.403 . S
C1414 C1415 1.404 . S
C1414 C1417 1.539 . S
C1415 C1411 1.408 . S
C1415 C1414 1.404 . S
C1415 H1427 0.930 . S
C1416 C1412 1.524 . S
C1416 H1428 0.956 . S
C1416 H1429 0.961 . S
C1416 H1430 0.961 . S
C1417 C1414 1.539 . S
C1417 H1431 0.958 . S
C1417 H1432 0.961 . S
C1417 H1433 0.960 . S
H1418 C1402 0.931 . S
H1419 C1407 0.929 . S
H1420 C1408 0.960 . S
H1421 C1408 0.962 . S
H1422 C1408 0.960 . S
H1423 C1409 0.961 . S
H1424 C1409 0.961 . S
H1425 C1409 0.961 . S
H1426 C1410 0.931 . S
H1427 C1415 0.930 . S
H1428 C1416 0.956 . S
H1429 C1416 0.961 . S
H1430 C1416 0.961 . S
H1431 C1417 0.958 . S
H1432 C1417 0.961 . S
H1433 C1417 0.960 . S
C1434 C1435 1.391 . S
C1434 C1436 1.394 . S
C1434 H1450 0.931 . S
C1435 C1434 1.391 . S
C1435 C1439 1.376 . S
C1436 C1434 1.394 . S
C1436 C1437 1.369 . S
C1436 C1440 1.531 . S
C1437 C1436 1.369 . S
C1437 C1438 1.410 . S
C1437 C1445 1.503 . S
C1438 C1437 1.410 . S
C1438 C1439 1.392 . S
C1438 C1441 1.511 . S
C1439 C1435 1.376 . S
C1439 C1438 1.392 . S
C1439 H1451 0.929 . S
C1440 C1436 1.531 . S
C1440 H1452 0.960 . S
C1440 H1453 0.962 . S
C1440 H1454 0.960 . S
C1441 C1438 1.511 . S
C1441 H1455 0.961 . S
C1441 H1456 0.961 . S
C1441 H1457 0.961 . S
C1442 C1443 1.370 . S
C1442 C1444 1.363 . S
C1442 H1458 0.931 . S
C1443 C1442 1.370 . S
C1443 C1447 1.408 . S
C1444 C1442 1.363 . S
C1444 C1445 1.370 . S
C1444 C1448 1.524 . S
C1445 C1437 1.503 . S
C1445 C1444 1.370 . S
C1445 C1446 1.403 . S
C1446 C1445 1.403 . S
C1446 C1447 1.404 . S
C1446 C1449 1.539 . S
C1447 C1443 1.408 . S
C1447 C1446 1.404 . S
C1447 H1459 0.930 . S
C1448 C1444 1.524 . S
C1448 H1460 0.956 . S
C1448 H1461 0.961 . S
C1448 H1462 0.961 . S
C1449 C1446 1.539 . S
C1449 H1463 0.958 . S
C1449 H1464 0.961 . S
C1449 H1465 0.960 . S
H1450 C1434 0.931 . S
H1451 C1439 0.929 . S
H1452 C1440 0.960 . S
H1453 C1440 0.962 . S
H1454 C1440 0.960 . S
H1455 C1441 0.961 . S
H1456 C1441 0.961 . S
H1457 C1441 0.961 . S
H1458 C1442 0.931 . S
H1459 C1447 0.930 . S
H1460 C1448 0.956 . S
H1461 C1448 0.961 . S
H1462 C1448 0.961 . S
H1463 C1449 0.958 . S
H1464 C1449 0.961 . S
H1465 C1449 0.960 . S
C1466 C1467 1.391 . S
C1466 C1468 1.394 . S
C1466 H1482 0.931 . S
C1467 C1466 1.391 . S
C1467 C1471 1.376 . S
C1468 C1466 1.394 . S
C1468 C1469 1.369 . S
C1468 C1472 1.531 . S
C1469 C1468 1.369 . S
C1469 C1470 1.410 . S
C1469 C1477 1.503 . S
C1470 C1469 1.410 . S
C1470 C1471 1.392 . S
C1470 C1473 1.511 . S
C1471 C1467 1.376 . S
C1471 C1470 1.392 . S
C1471 H1483 0.929 . S
C1472 C1468 1.531 . S
C1472 H1484 0.960 . S
C1472 H1485 0.962 . S
C1472 H1486 0.960 . S
C1473 C1470 1.511 . S
C1473 H1487 0.961 . S
C1473 H1488 0.961 . S
C1473 H1489 0.961 . S
C1474 C1475 1.370 . S
C1474 C1476 1.363 . S
C1474 H1490 0.931 . S
C1475 C1474 1.370 . S
C1475 C1479 1.408 . S
C1476 C1474 1.363 . S
C1476 C1477 1.370 . S
C1476 C1480 1.524 . S
C1477 C1469 1.503 . S
C1477 C1476 1.370 . S
C1477 C1478 1.403 . S
C1478 C1477 1.403 . S
C1478 C1479 1.404 . S
C1478 C1481 1.539 . S
C1479 C1475 1.408 . S
C1479 C1478 1.404 . S
C1479 H1491 0.930 . S
C1480 C1476 1.524 . S
C1480 H1492 0.956 . S
C1480 H1493 0.961 . S
C1480 H1494 0.961 . S
C1481 C1478 1.539 . S
C1481 H1495 0.958 . S
C1481 H1496 0.961 . S
C1481 H1497 0.960 . S
H1482 C1466 0.931 . S
H1483 C1471 0.929 . S
H1484 C1472 0.960 . S
H1485 C1472 0.962 . S
H1486 C1472 0.960 . S
H1487 C1473 0.961 . S
H1488 C1473 0.961 . S
H1489 C1473 0.961 . S
H1490 C1474 0.931 . S
H1491 C1479 0.930 . S
H1492 C1480 0.956 . S
H1493 C1480 0.961 . S
H1494 C1480 0.961 . S
H1495 C1481 0.958 . S
H1496 C1481 0.961 . S
H1497 C1481 0.960 . S
C1498 C1499 1.391 . S
C1498 C1500 1.394 . S
C1498 H1514 0.931 . S
C1499 C1498 1.391 . S
C1499 C1503 1.376 . S
C1500 C1498 1.394 . S
C1500 C1501 1.369 . S
C1500 C1504 1.531 . S
C1501 C1500 1.369 . S
C1501 C1502 1.410 . S
C1501 C1509 1.503 . S
C1502 C1501 1.410 . S
C1502 C1503 1.392 . S
C1502 C1505 1.511 . S
C1503 C1499 1.376 . S
C1503 C1502 1.392 . S
C1503 H1515 0.929 . S
C1504 C1500 1.531 . S
C1504 H1516 0.960 . S
C1504 H1517 0.962 . S
C1504 H1518 0.960 . S
C1505 C1502 1.511 . S
C1505 H1519 0.961 . S
C1505 H1520 0.961 . S
C1505 H1521 0.961 . S
C1506 C1507 1.370 . S
C1506 C1508 1.363 . S
C1506 H1522 0.931 . S
C1507 C1506 1.370 . S
C1507 C1511 1.408 . S
C1508 C1506 1.363 . S
C1508 C1509 1.370 . S
C1508 C1512 1.524 . S
C1509 C1501 1.503 . S
C1509 C1508 1.370 . S
C1509 C1510 1.403 . S
C1510 C1509 1.403 . S
C1510 C1511 1.404 . S
C1510 C1513 1.539 . S
C1511 C1507 1.408 . S
C1511 C1510 1.404 . S
C1511 H1523 0.930 . S
C1512 C1508 1.524 . S
C1512 H1524 0.956 . S
C1512 H1525 0.961 . S
C1512 H1526 0.961 . S
C1513 C1510 1.539 . S
C1513 H1527 0.958 . S
C1513 H1528 0.961 . S
C1513 H1529 0.960 . S
H1514 C1498 0.931 . S
H1515 C1503 0.929 . S
H1516 C1504 0.960 . S
H1517 C1504 0.962 . S
H1518 C1504 0.960 . S
H1519 C1505 0.961 . S
H1520 C1505 0.961 . S
H1521 C1505 0.961 . S
H1522 C1506 0.931 . S
H1523 C1511 0.930 . S
H1524 C1512 0.956 . S
H1525 C1512 0.961 . S
H1526 C1512 0.961 . S
H1527 C1513 0.958 . S
H1528 C1513 0.961 . S
H1529 C1513 0.960 . S
C1530 C1531 1.391 . S
C1530 C1532 1.394 . S
C1530 H1546 0.931 . S
C1531 C1530 1.391 . S
C1531 C1535 1.376 . S
C1532 C1530 1.394 . S
C1532 C1533 1.369 . S
C1532 C1536 1.531 . S
C1533 C1532 1.369 . S
C1533 C1534 1.410 . S
C1533 C1541 1.503 . S
C1534 C1533 1.410 . S
C1534 C1535 1.392 . S
C1534 C1537 1.511 . S
C1535 C1531 1.376 . S
C1535 C1534 1.392 . S
C1535 H1547 0.929 . S
C1536 C1532 1.531 . S
C1536 H1548 0.960 . S
C1536 H1549 0.962 . S
C1536 H1550 0.960 . S
C1537 C1534 1.511 . S
C1537 H1551 0.961 . S
C1537 H1552 0.961 . S
C1537 H1553 0.961 . S
C1538 C1539 1.370 . S
C1538 C1540 1.363 . S
C1538 H1554 0.931 . S
C1539 C1538 1.370 . S
C1539 C1543 1.408 . S
C1540 C1538 1.363 . S
C1540 C1541 1.370 . S
C1540 C1544 1.524 . S
C1541 C1533 1.503 . S
C1541 C1540 1.370 . S
C1541 C1542 1.403 . S
C1542 C1541 1.403 . S
C1542 C1543 1.404 . S
C1542 C1545 1.539 . S
C1543 C1539 1.408 . S
C1543 C1542 1.404 . S
C1543 H1555 0.930 . S
C1544 C1540 1.524 . S
C1544 H1556 0.956 . S
C1544 H1557 0.961 . S
C1544 H1558 0.961 . S
C1545 C1542 1.539 . S
C1545 H1559 0.958 . S
C1545 H1560 0.961 . S
C1545 H1561 0.960 . S
H1546 C1530 0.931 . S
H1547 C1535 0.929 . S
H1548 C1536 0.960 . S
H1549 C1536 0.962 . S
H1550 C1536 0.960 . S
H1551 C1537 0.961 . S
H1552 C1537 0.961 . S
H1553 C1537 0.961 . S
H1554 C1538 0.931 . S
H1555 C1543 0.930 . S
H1556 C1544 0.956 . S
H1557 C1544 0.961 . S
H1558 C1544 0.961 . S
H1559 C1545 0.958 . S
H1560 C1545 0.961 . S
H1561 C1545 0.960 . S
C1562 C1563 1.391 . S
C1562 C1564 1.394 . S
C1562 H1578 0.931 . S
C1563 C1562 1.391 . S
C1563 C1567 1.376 . S
C1564 C1562 1.394 . S
C1564 C1565 1.369 . S
C1564 C1568 1.531 . S
C1565 C1564 1.369 . S
C1565 C1566 1.410 . S
C1565 C1573 1.503 . S
C1566 C1565 1.410 . S
C1566 C1567 1.392 . S
C1566 C1569 1.511 . S
C1567 C1563 1.376 . S
C1567 C1566 1.392 . S
C1567 H1579 0.929 . S
C1568 C1564 1.531 . S
C1568 H1580 0.960 . S
C1568 H1581 0.962 . S
C1568 H1582 0.960 . S
C1569 C1566 1.511 . S
C1569 H1583 0.961 . S
C1569 H1584 0.961 . S
C1569 H1585 0.961 . S
C1570 C1571 1.370 . S
C1570 C1572 1.363 . S
C1570 H1586 0.931 . S
C1571 C1570 1.370 . S
C1571 C1575 1.408 . S
C1572 C1570 1.363 . S
C1572 C1573 1.370 . S
C1572 C1576 1.524 . S
C1573 C1565 1.503 . S
C1573 C1572 1.370 . S
C1573 C1574 1.403 . S
C1574 C1573 1.403 . S
C1574 C1575 1.404 . S
C1574 C1577 1.539 . S
C1575 C1571 1.408 . S
C1575 C1574 1.404 . S
C1575 H1587 0.930 1_565 S
C1576 C1572 1.524 . S
C1576 H1588 0.956 . S
C1576 H1589 0.961 . S
C1576 H1590 0.961 . S
C1577 C1574 1.539 . S
C1577 H1591 0.958 1_565 S
C1577 H1592 0.961 1_565 S
C1577 H1593 0.960 . S
H1578 C1562 0.931 . S
H1579 C1567 0.929 . S
H1580 C1568 0.960 . S
H1581 C1568 0.962 . S
H1582 C1568 0.960 . S
H1583 C1569 0.961 . S
H1584 C1569 0.961 . S
H1585 C1569 0.961 . S
H1586 C1570 0.931 . S
H1587 C1575 0.930 1_545 S
H1588 C1576 0.956 . S
H1589 C1576 0.961 . S
H1590 C1576 0.961 . S
H1591 C1577 0.958 1_545 S
H1592 C1577 0.961 1_545 S
H1593 C1577 0.960 . S
C1594 C1595 1.391 . S
C1594 C1596 1.394 . S
C1594 H1610 0.931 . S
C1595 C1594 1.391 . S
C1595 C1599 1.376 . S
C1596 C1594 1.394 . S
C1596 C1597 1.369 . S
C1596 C1600 1.531 . S
C1597 C1596 1.369 . S
C1597 C1598 1.410 . S
C1597 C1605 1.503 . S
C1598 C1597 1.410 . S
C1598 C1599 1.392 . S
C1598 C1601 1.511 . S
C1599 C1595 1.376 . S
C1599 C1598 1.392 . S
C1599 H1611 0.929 . S
C1600 C1596 1.531 . S
C1600 H1612 0.960 . S
C1600 H1613 0.962 . S
C1600 H1614 0.960 . S
C1601 C1598 1.511 . S
C1601 H1615 0.961 . S
C1601 H1616 0.961 . S
C1601 H1617 0.961 . S
C1602 C1603 1.370 . S
C1602 C1604 1.363 . S
C1602 H1618 0.931 . S
C1603 C1602 1.370 . S
C1603 C1607 1.408 . S
C1604 C1602 1.363 . S
C1604 C1605 1.370 . S
C1604 C1608 1.524 . S
C1605 C1597 1.503 . S
C1605 C1604 1.370 . S
C1605 C1606 1.403 . S
C1606 C1605 1.403 . S
C1606 C1607 1.404 . S
C1606 C1609 1.539 . S
C1607 C1603 1.408 . S
C1607 C1606 1.404 . S
C1607 H1619 0.930 . S
C1608 C1604 1.524 . S
C1608 H1620 0.956 . S
C1608 H1621 0.961 . S
C1608 H1622 0.961 . S
C1609 C1606 1.539 . S
C1609 H1623 0.958 . S
C1609 H1624 0.961 . S
C1609 H1625 0.960 . S
H1610 C1594 0.931 . S
H1611 C1599 0.929 . S
H1612 C1600 0.960 . S
H1613 C1600 0.962 . S
H1614 C1600 0.960 . S
H1615 C1601 0.961 . S
H1616 C1601 0.961 . S
H1617 C1601 0.961 . S
H1618 C1602 0.931 . S
H1619 C1607 0.930 . S
H1620 C1608 0.956 . S
H1621 C1608 0.961 . S
H1622 C1608 0.961 . S
H1623 C1609 0.958 . S
H1624 C1609 0.961 . S
H1625 C1609 0.960 . S
C1626 C1627 1.391 . S
C1626 C1628 1.394 . S
C1626 H1642 0.931 . S
C1627 C1626 1.391 . S
C1627 C1631 1.376 . S
C1628 C1626 1.394 . S
C1628 C1629 1.369 . S
C1628 C1632 1.531 . S
C1629 C1628 1.369 . S
C1629 C1630 1.410 . S
C1629 C1637 1.503 . S
C1630 C1629 1.410 . S
C1630 C1631 1.392 . S
C1630 C1633 1.511 . S
C1631 C1627 1.376 . S
C1631 C1630 1.392 . S
C1631 H1643 0.929 . S
C1632 C1628 1.531 . S
C1632 H1644 0.960 . S
C1632 H1645 0.962 . S
C1632 H1646 0.960 . S
C1633 C1630 1.511 . S
C1633 H1647 0.961 . S
C1633 H1648 0.961 . S
C1633 H1649 0.961 . S
C1634 C1635 1.370 . S
C1634 C1636 1.363 . S
C1634 H1650 0.931 . S
C1635 C1634 1.370 . S
C1635 C1639 1.408 . S
C1636 C1634 1.363 . S
C1636 C1637 1.370 . S
C1636 C1640 1.524 . S
C1637 C1629 1.503 . S
C1637 C1636 1.370 . S
C1637 C1638 1.403 . S
C1638 C1637 1.403 . S
C1638 C1639 1.404 . S
C1638 C1641 1.539 . S
C1639 C1635 1.408 . S
C1639 C1638 1.404 . S
C1639 H1651 0.930 . S
C1640 C1636 1.524 . S
C1640 H1652 0.956 . S
C1640 H1653 0.961 . S
C1640 H1654 0.961 . S
C1641 C1638 1.539 . S
C1641 H1655 0.958 . S
C1641 H1656 0.961 . S
C1641 H1657 0.960 . S
H1642 C1626 0.931 . S
H1643 C1631 0.929 . S
H1644 C1632 0.960 . S
H1645 C1632 0.962 . S
H1646 C1632 0.960 . S
H1647 C1633 0.961 . S
H1648 C1633 0.961 . S
H1649 C1633 0.961 . S
H1650 C1634 0.931 . S
H1651 C1639 0.930 . S
H1652 C1640 0.956 . S
H1653 C1640 0.961 . S
H1654 C1640 0.961 . S
H1655 C1641 0.958 . S
H1656 C1641 0.961 . S
H1657 C1641 0.960 . S
C1658 C1659 1.391 . S
C1658 C1660 1.394 . S
C1658 H1674 0.931 . S
C1659 C1658 1.391 . S
C1659 C1663 1.376 . S
C1660 C1658 1.394 . S
C1660 C1661 1.369 . S
C1660 C1664 1.531 . S
C1661 C1660 1.369 . S
C1661 C1662 1.410 . S
C1661 C1669 1.503 . S
C1662 C1661 1.410 . S
C1662 C1663 1.392 . S
C1662 C1665 1.511 . S
C1663 C1659 1.376 . S
C1663 C1662 1.392 . S
C1663 H1675 0.929 . S
C1664 C1660 1.531 . S
C1664 H1676 0.960 . S
C1664 H1677 0.962 . S
C1664 H1678 0.960 . S
C1665 C1662 1.511 . S
C1665 H1679 0.961 . S
C1665 H1680 0.961 . S
C1665 H1681 0.961 . S
C1666 C1667 1.370 . S
C1666 C1668 1.363 . S
C1666 H1682 0.931 . S
C1667 C1666 1.370 . S
C1667 C1671 1.408 . S
C1668 C1666 1.363 . S
C1668 C1669 1.370 . S
C1668 C1672 1.524 . S
C1669 C1661 1.503 . S
C1669 C1668 1.370 . S
C1669 C1670 1.403 . S
C1670 C1669 1.403 . S
C1670 C1671 1.404 . S
C1670 C1673 1.539 . S
C1671 C1667 1.408 . S
C1671 C1670 1.404 . S
C1671 H1683 0.930 . S
C1672 C1668 1.524 . S
C1672 H1684 0.956 . S
C1672 H1685 0.961 . S
C1672 H1686 0.961 . S
C1673 C1670 1.539 . S
C1673 H1687 0.958 . S
C1673 H1688 0.961 . S
C1673 H1689 0.960 . S
H1674 C1658 0.931 . S
H1675 C1663 0.929 . S
H1676 C1664 0.960 . S
H1677 C1664 0.962 . S
H1678 C1664 0.960 . S
H1679 C1665 0.961 . S
H1680 C1665 0.961 . S
H1681 C1665 0.961 . S
H1682 C1666 0.931 . S
H1683 C1671 0.930 . S
H1684 C1672 0.956 . S
H1685 C1672 0.961 . S
H1686 C1672 0.961 . S
H1687 C1673 0.958 . S
H1688 C1673 0.961 . S
H1689 C1673 0.960 . S
C1690 C1691 1.391 . S
C1690 C1692 1.394 . S
C1690 H1706 0.931 . S
C1691 C1690 1.391 . S
C1691 C1695 1.376 . S
C1692 C1690 1.394 . S
C1692 C1693 1.369 . S
C1692 C1696 1.531 . S
C1693 C1692 1.369 . S
C1693 C1694 1.410 . S
C1693 C1701 1.503 . S
C1694 C1693 1.410 . S
C1694 C1695 1.392 . S
C1694 C1697 1.511 . S
C1695 C1691 1.376 . S
C1695 C1694 1.392 . S
C1695 H1707 0.929 . S
C1696 C1692 1.531 . S
C1696 H1708 0.960 . S
C1696 H1709 0.962 . S
C1696 H1710 0.960 . S
C1697 C1694 1.511 . S
C1697 H1711 0.961 . S
C1697 H1712 0.961 . S
C1697 H1713 0.961 . S
C1698 C1699 1.370 . S
C1698 C1700 1.363 . S
C1698 H1714 0.931 . S
C1699 C1698 1.370 . S
C1699 C1703 1.408 . S
C1700 C1698 1.363 . S
C1700 C1701 1.370 . S
C1700 C1704 1.524 . S
C1701 C1693 1.503 . S
C1701 C1700 1.370 . S
C1701 C1702 1.403 . S
C1702 C1701 1.403 . S
C1702 C1703 1.404 . S
C1702 C1705 1.539 . S
C1703 C1699 1.408 . S
C1703 C1702 1.404 . S
C1703 H1715 0.930 . S
C1704 C1700 1.524 . S
C1704 H1716 0.956 . S
C1704 H1717 0.961 . S
C1704 H1718 0.961 . S
C1705 C1702 1.539 . S
C1705 H1719 0.958 . S
C1705 H1720 0.961 . S
C1705 H1721 0.960 . S
H1706 C1690 0.931 . S
H1707 C1695 0.929 . S
H1708 C1696 0.960 . S
H1709 C1696 0.962 . S
H1710 C1696 0.960 . S
H1711 C1697 0.961 . S
H1712 C1697 0.961 . S
H1713 C1697 0.961 . S
H1714 C1698 0.931 . S
H1715 C1703 0.930 . S
H1716 C1704 0.956 . S
H1717 C1704 0.961 . S
H1718 C1704 0.961 . S
H1719 C1705 0.958 . S
H1720 C1705 0.961 . S
H1721 C1705 0.960 . S
C1722 C1723 1.391 . S
C1722 C1724 1.394 . S
C1722 H1738 0.931 . S
C1723 C1722 1.391 . S
C1723 C1727 1.376 . S
C1724 C1722 1.394 . S
C1724 C1725 1.369 . S
C1724 C1728 1.531 . S
C1725 C1724 1.369 . S
C1725 C1726 1.410 . S
C1725 C1733 1.503 . S
C1726 C1725 1.410 . S
C1726 C1727 1.392 . S
C1726 C1729 1.511 . S
C1727 C1723 1.376 . S
C1727 C1726 1.392 . S
C1727 H1739 0.929 . S
C1728 C1724 1.531 . S
C1728 H1740 0.960 . S
C1728 H1741 0.962 . S
C1728 H1742 0.960 . S
C1729 C1726 1.511 . S
C1729 H1743 0.961 . S
C1729 H1744 0.961 . S
C1729 H1745 0.961 . S
C1730 C1731 1.370 . S
C1730 C1732 1.363 . S
C1730 H1746 0.931 . S
C1731 C1730 1.370 . S
C1731 C1735 1.408 . S
C1732 C1730 1.363 . S
C1732 C1733 1.370 . S
C1732 C1736 1.524 . S
C1733 C1725 1.503 . S
C1733 C1732 1.370 . S
C1733 C1734 1.403 . S
C1734 C1733 1.403 . S
C1734 C1735 1.404 . S
C1734 C1737 1.539 . S
C1735 C1731 1.408 . S
C1735 C1734 1.404 . S
C1735 H1747 0.930 . S
C1736 C1732 1.524 . S
C1736 H1748 0.956 . S
C1736 H1749 0.961 . S
C1736 H1750 0.961 . S
C1737 C1734 1.539 . S
C1737 H1751 0.958 . S
C1737 H1752 0.961 . S
C1737 H1753 0.960 . S
H1738 C1722 0.931 . S
H1739 C1727 0.929 . S
H1740 C1728 0.960 . S
H1741 C1728 0.962 . S
H1742 C1728 0.960 . S
H1743 C1729 0.961 . S
H1744 C1729 0.961 . S
H1745 C1729 0.961 . S
H1746 C1730 0.931 . S
H1747 C1735 0.930 . S
H1748 C1736 0.956 . S
H1749 C1736 0.961 . S
H1750 C1736 0.961 . S
H1751 C1737 0.958 . S
H1752 C1737 0.961 . S
H1753 C1737 0.960 . S
C1754 C1755 1.391 . S
C1754 C1756 1.394 . S
C1754 H1770 0.931 . S
C1755 C1754 1.391 . S
C1755 C1759 1.376 . S
C1756 C1754 1.394 . S
C1756 C1757 1.369 . S
C1756 C1760 1.531 . S
C1757 C1756 1.369 . S
C1757 C1758 1.410 . S
C1757 C1765 1.503 . S
C1758 C1757 1.410 . S
C1758 C1759 1.392 . S
C1758 C1761 1.511 . S
C1759 C1755 1.376 . S
C1759 C1758 1.392 . S
C1759 H1771 0.929 . S
C1760 C1756 1.531 . S
C1760 H1772 0.960 . S
C1760 H1773 0.962 . S
C1760 H1774 0.960 . S
C1761 C1758 1.511 . S
C1761 H1775 0.961 . S
C1761 H1776 0.961 . S
C1761 H1777 0.961 . S
C1762 C1763 1.370 . S
C1762 C1764 1.363 . S
C1762 H1778 0.931 . S
C1763 C1762 1.370 . S
C1763 C1767 1.408 . S
C1764 C1762 1.363 . S
C1764 C1765 1.370 . S
C1764 C1768 1.524 . S
C1765 C1757 1.503 . S
C1765 C1764 1.370 . S
C1765 C1766 1.403 . S
C1766 C1765 1.403 . S
C1766 C1767 1.404 . S
C1766 C1769 1.539 . S
C1767 C1763 1.408 . S
C1767 C1766 1.404 . S
C1767 H1779 0.930 . S
C1768 C1764 1.524 . S
C1768 H1780 0.956 . S
C1768 H1781 0.961 . S
C1768 H1782 0.961 . S
C1769 C1766 1.539 . S
C1769 H1783 0.958 . S
C1769 H1784 0.961 . S
C1769 H1785 0.960 . S
H1770 C1754 0.931 . S
H1771 C1759 0.929 . S
H1772 C1760 0.960 . S
H1773 C1760 0.962 . S
H1774 C1760 0.960 . S
H1775 C1761 0.961 . S
H1776 C1761 0.961 . S
H1777 C1761 0.961 . S
H1778 C1762 0.931 . S
H1779 C1767 0.930 . S
H1780 C1768 0.956 . S
H1781 C1768 0.961 . S
H1782 C1768 0.961 . S
H1783 C1769 0.958 . S
H1784 C1769 0.961 . S
H1785 C1769 0.960 . S
C1786 C1787 1.391 . S
C1786 C1788 1.394 . S
C1786 H1802 0.931 . S
C1787 C1786 1.391 . S
C1787 C1791 1.376 . S
C1788 C1786 1.394 . S
C1788 C1789 1.369 . S
C1788 C1792 1.531 . S
C1789 C1788 1.369 . S
C1789 C1790 1.410 . S
C1789 C1797 1.503 . S
C1790 C1789 1.410 . S
C1790 C1791 1.392 . S
C1790 C1793 1.511 . S
C1791 C1787 1.376 . S
C1791 C1790 1.392 . S
C1791 H1803 0.929 . S
C1792 C1788 1.531 . S
C1792 H1804 0.960 . S
C1792 H1805 0.962 . S
C1792 H1806 0.960 . S
C1793 C1790 1.511 . S
C1793 H1807 0.961 . S
C1793 H1808 0.961 . S
C1793 H1809 0.961 . S
C1794 C1795 1.370 . S
C1794 C1796 1.363 . S
C1794 H1810 0.931 . S
C1795 C1794 1.370 . S
C1795 C1799 1.408 . S
C1796 C1794 1.363 . S
C1796 C1797 1.370 . S
C1796 C1800 1.524 . S
C1797 C1789 1.503 . S
C1797 C1796 1.370 . S
C1797 C1798 1.403 . S
C1798 C1797 1.403 . S
C1798 C1799 1.404 . S
C1798 C1801 1.539 . S
C1799 C1795 1.408 . S
C1799 C1798 1.404 . S
C1799 H1811 0.930 . S
C1800 C1796 1.524 . S
C1800 H1812 0.956 . S
C1800 H1813 0.961 . S
C1800 H1814 0.961 . S
C1801 C1798 1.539 . S
C1801 H1815 0.958 . S
C1801 H1816 0.961 . S
C1801 H1817 0.960 . S
H1802 C1786 0.931 . S
H1803 C1791 0.929 . S
H1804 C1792 0.960 . S
H1805 C1792 0.962 . S
H1806 C1792 0.960 . S
H1807 C1793 0.961 . S
H1808 C1793 0.961 . S
H1809 C1793 0.961 . S
H1810 C1794 0.931 . S
H1811 C1799 0.930 . S
H1812 C1800 0.956 . S
H1813 C1800 0.961 . S
H1814 C1800 0.961 . S
H1815 C1801 0.958 . S
H1816 C1801 0.961 . S
H1817 C1801 0.960 . S
C1818 C1819 1.391 . S
C1818 C1820 1.394 . S
C1818 H1834 0.931 . S
C1819 C1818 1.391 . S
C1819 C1823 1.376 . S
C1820 C1818 1.394 . S
C1820 C1821 1.369 . S
C1820 C1824 1.531 . S
C1821 C1820 1.369 . S
C1821 C1822 1.410 . S
C1821 C1829 1.503 . S
C1822 C1821 1.410 . S
C1822 C1823 1.392 . S
C1822 C1825 1.511 . S
C1823 C1819 1.376 . S
C1823 C1822 1.392 . S
C1823 H1835 0.929 . S
C1824 C1820 1.531 . S
C1824 H1836 0.960 . S
C1824 H1837 0.962 . S
C1824 H1838 0.960 . S
C1825 C1822 1.511 . S
C1825 H1839 0.961 . S
C1825 H1840 0.961 . S
C1825 H1841 0.961 . S
C1826 C1827 1.370 . S
C1826 C1828 1.363 . S
C1826 H1842 0.931 1_545 S
C1827 C1826 1.370 . S
C1827 C1831 1.408 . S
C1828 C1826 1.363 . S
C1828 C1829 1.370 . S
C1828 C1832 1.524 . S
C1829 C1821 1.503 . S
C1829 C1828 1.370 . S
C1829 C1830 1.403 . S
C1830 C1829 1.403 . S
C1830 C1831 1.404 . S
C1830 C1833 1.539 . S
C1831 C1827 1.408 . S
C1831 C1830 1.404 . S
C1831 H1843 0.930 . S
C1832 C1828 1.524 . S
C1832 H1844 0.956 . S
C1832 H1845 0.961 . S
C1832 H1846 0.960 1_545 S
C1833 C1830 1.539 . S
C1833 H1847 0.958 . S
C1833 H1848 0.961 . S
C1833 H1849 0.960 . S
H1834 C1818 0.931 . S
H1835 C1823 0.929 . S
H1836 C1824 0.960 . S
H1837 C1824 0.962 . S
H1838 C1824 0.960 . S
H1839 C1825 0.961 . S
H1840 C1825 0.961 . S
H1841 C1825 0.961 . S
H1842 C1826 0.931 1_565 S
H1843 C1831 0.930 . S
H1844 C1832 0.956 . S
H1845 C1832 0.961 . S
H1846 C1832 0.960 1_565 S
H1847 C1833 0.958 . S
H1848 C1833 0.961 . S
H1849 C1833 0.960 . S
C1850 C1851 1.391 . S
C1850 C1852 1.394 . S
C1850 H1866 0.931 . S
C1851 C1850 1.391 . S
C1851 C1855 1.376 . S
C1852 C1850 1.394 . S
C1852 C1853 1.369 . S
C1852 C1856 1.531 . S
C1853 C1852 1.369 . S
C1853 C1854 1.410 . S
C1853 C1861 1.503 . S
C1854 C1853 1.410 . S
C1854 C1855 1.392 . S
C1854 C1857 1.511 . S
C1855 C1851 1.376 . S
C1855 C1854 1.392 . S
C1855 H1867 0.929 . S
C1856 C1852 1.531 . S
C1856 H1868 0.960 . S
C1856 H1869 0.962 . S
C1856 H1870 0.960 . S
C1857 C1854 1.511 . S
C1857 H1871 0.961 . S
C1857 H1872 0.961 . S
C1857 H1873 0.961 . S
C1858 C1859 1.370 . S
C1858 C1860 1.363 . S
C1858 H1874 0.931 . S
C1859 C1858 1.370 . S
C1859 C1863 1.408 . S
C1860 C1858 1.363 . S
C1860 C1861 1.370 . S
C1860 C1864 1.524 . S
C1861 C1853 1.503 . S
C1861 C1860 1.370 . S
C1861 C1862 1.403 . S
C1862 C1861 1.403 . S
C1862 C1863 1.404 . S
C1862 C1865 1.539 . S
C1863 C1859 1.408 . S
C1863 C1862 1.404 . S
C1863 H1875 0.930 . S
C1864 C1860 1.524 . S
C1864 H1876 0.956 . S
C1864 H1877 0.961 . S
C1864 H1878 0.961 . S
C1865 C1862 1.539 . S
C1865 H1879 0.958 . S
C1865 H1880 0.961 . S
C1865 H1881 0.960 . S
H1866 C1850 0.931 . S
H1867 C1855 0.929 . S
H1868 C1856 0.960 . S
H1869 C1856 0.962 . S
H1870 C1856 0.960 . S
H1871 C1857 0.961 . S
H1872 C1857 0.961 . S
H1873 C1857 0.961 . S
H1874 C1858 0.931 . S
H1875 C1863 0.930 . S
H1876 C1864 0.956 . S
H1877 C1864 0.961 . S
H1878 C1864 0.961 . S
H1879 C1865 0.958 . S
H1880 C1865 0.961 . S
H1881 C1865 0.960 . S
C1882 C1883 1.391 . S
C1882 C1884 1.394 . S
C1882 H1898 0.931 . S
C1883 C1882 1.391 . S
C1883 C1887 1.376 . S
C1884 C1882 1.394 . S
C1884 C1885 1.369 . S
C1884 C1888 1.531 . S
C1885 C1884 1.369 . S
C1885 C1886 1.410 . S
C1885 C1893 1.503 . S
C1886 C1885 1.410 . S
C1886 C1887 1.392 . S
C1886 C1889 1.511 . S
C1887 C1883 1.376 . S
C1887 C1886 1.392 . S
C1887 H1899 0.929 . S
C1888 C1884 1.531 . S
C1888 H1900 0.960 . S
C1888 H1901 0.962 . S
C1888 H1902 0.960 . S
C1889 C1886 1.511 . S
C1889 H1903 0.961 . S
C1889 H1904 0.961 . S
C1889 H1905 0.961 . S
C1890 C1891 1.370 . S
C1890 C1892 1.363 . S
C1890 H1906 0.931 . S
C1891 C1890 1.370 . S
C1891 C1895 1.408 . S
C1892 C1890 1.363 . S
C1892 C1893 1.370 . S
C1892 C1896 1.524 . S
C1893 C1885 1.503 . S
C1893 C1892 1.370 . S
C1893 C1894 1.403 . S
C1894 C1893 1.403 . S
C1894 C1895 1.404 . S
C1894 C1897 1.539 . S
C1895 C1891 1.408 . S
C1895 C1894 1.404 . S
C1895 H1907 0.930 . S
C1896 C1892 1.524 . S
C1896 H1908 0.956 . S
C1896 H1909 0.961 . S
C1896 H1910 0.961 . S
C1897 C1894 1.539 . S
C1897 H1911 0.958 . S
C1897 H1912 0.961 . S
C1897 H1913 0.960 . S
H1898 C1882 0.931 . S
H1899 C1887 0.929 . S
H1900 C1888 0.960 . S
H1901 C1888 0.962 . S
H1902 C1888 0.960 . S
H1903 C1889 0.961 . S
H1904 C1889 0.961 . S
H1905 C1889 0.961 . S
H1906 C1890 0.931 . S
H1907 C1895 0.930 . S
H1908 C1896 0.956 . S
H1909 C1896 0.961 . S
H1910 C1896 0.961 . S
H1911 C1897 0.958 . S
H1912 C1897 0.961 . S
H1913 C1897 0.960 . S
C1914 C1915 1.391 . S
C1914 C1916 1.394 . S
C1914 H1930 0.931 . S
C1915 C1914 1.391 . S
C1915 C1919 1.376 . S
C1916 C1914 1.394 . S
C1916 C1917 1.369 . S
C1916 C1920 1.531 . S
C1917 C1916 1.369 . S
C1917 C1918 1.410 . S
C1917 C1925 1.503 . S
C1918 C1917 1.410 . S
C1918 C1919 1.392 . S
C1918 C1921 1.511 . S
C1919 C1915 1.376 . S
C1919 C1918 1.392 . S
C1919 H1931 0.929 . S
C1920 C1916 1.531 . S
C1920 H1932 0.960 . S
C1920 H1933 0.962 . S
C1920 H1934 0.960 . S
C1921 C1918 1.511 . S
C1921 H1935 0.961 . S
C1921 H1936 0.961 . S
C1921 H1937 0.961 . S
C1922 C1923 1.370 . S
C1922 C1924 1.363 . S
C1922 H1938 0.931 . S
C1923 C1922 1.370 . S
C1923 C1927 1.408 . S
C1924 C1922 1.363 . S
C1924 C1925 1.370 . S
C1924 C1928 1.524 . S
C1925 C1917 1.503 . S
C1925 C1924 1.370 . S
C1925 C1926 1.403 . S
C1926 C1925 1.403 . S
C1926 C1927 1.404 . S
C1926 C1929 1.539 . S
C1927 C1923 1.408 . S
C1927 C1926 1.404 . S
C1927 H1939 0.930 . S
C1928 C1924 1.524 . S
C1928 H1940 0.956 . S
C1928 H1941 0.961 . S
C1928 H1942 0.961 . S
C1929 C1926 1.539 . S
C1929 H1943 0.958 . S
C1929 H1944 0.961 . S
C1929 H1945 0.960 . S
H1930 C1914 0.931 . S
H1931 C1919 0.929 . S
H1932 C1920 0.960 . S
H1933 C1920 0.962 . S
H1934 C1920 0.960 . S
H1935 C1921 0.961 . S
H1936 C1921 0.961 . S
H1937 C1921 0.961 . S
H1938 C1922 0.931 . S
H1939 C1927 0.930 . S
H1940 C1928 0.956 . S
H1941 C1928 0.961 . S
H1942 C1928 0.961 . S
H1943 C1929 0.958 . S
H1944 C1929 0.961 . S
H1945 C1929 0.960 . S
C1946 C1947 1.391 . S
C1946 C1948 1.394 . S
C1946 H1962 0.931 . S
C1947 C1946 1.391 . S
C1947 C1951 1.376 . S
C1948 C1946 1.394 . S
C1948 C1949 1.369 . S
C1948 C1952 1.531 . S
C1949 C1948 1.369 . S
C1949 C1950 1.410 . S
C1949 C1957 1.503 . S
C1950 C1949 1.410 . S
C1950 C1951 1.392 . S
C1950 C1953 1.511 . S
C1951 C1947 1.376 . S
C1951 C1950 1.392 . S
C1951 H1963 0.929 . S
C1952 C1948 1.531 . S
C1952 H1964 0.960 . S
C1952 H1965 0.962 . S
C1952 H1966 0.960 . S
C1953 C1950 1.511 . S
C1953 H1967 0.961 . S
C1953 H1968 0.961 . S
C1953 H1969 0.961 . S
C1954 C1955 1.370 . S
C1954 C1956 1.363 . S
C1954 H1970 0.931 . S
C1955 C1954 1.370 . S
C1955 C1959 1.408 . S
C1956 C1954 1.363 . S
C1956 C1957 1.370 . S
C1956 C1960 1.524 . S
C1957 C1949 1.503 . S
C1957 C1956 1.370 . S
C1957 C1958 1.403 . S
C1958 C1957 1.403 . S
C1958 C1959 1.404 . S
C1958 C1961 1.539 . S
C1959 C1955 1.408 . S
C1959 C1958 1.404 . S
C1959 H1971 0.930 . S
C1960 C1956 1.524 . S
C1960 H1972 0.956 . S
C1960 H1973 0.961 . S
C1960 H1974 0.961 . S
C1961 C1958 1.539 . S
C1961 H1975 0.958 . S
C1961 H1976 0.961 . S
C1961 H1977 0.960 . S
H1962 C1946 0.931 . S
H1963 C1951 0.929 . S
H1964 C1952 0.960 . S
H1965 C1952 0.962 . S
H1966 C1952 0.960 . S
H1967 C1953 0.961 . S
H1968 C1953 0.961 . S
H1969 C1953 0.961 . S
H1970 C1954 0.931 . S
H1971 C1959 0.930 . S
H1972 C1960 0.956 . S
H1973 C1960 0.961 . S
H1974 C1960 0.961 . S
H1975 C1961 0.958 . S
H1976 C1961 0.961 . S
H1977 C1961 0.960 . S
C1978 C1979 1.391 . S
C1978 C1980 1.394 . S
C1978 H1994 0.931 . S
C1979 C1978 1.391 . S
C1979 C1983 1.376 . S
C1980 C1978 1.394 . S
C1980 C1981 1.369 . S
C1980 C1984 1.531 . S
C1981 C1980 1.369 . S
C1981 C1982 1.410 . S
C1981 C1989 1.503 . S
C1982 C1981 1.410 . S
C1982 C1983 1.392 . S
C1982 C1985 1.511 . S
C1983 C1979 1.376 . S
C1983 C1982 1.392 . S
C1983 H1995 0.929 . S
C1984 C1980 1.531 . S
C1984 H1996 0.960 . S
C1984 H1997 0.962 . S
C1984 H1998 0.960 . S
C1985 C1982 1.511 . S
C1985 H1999 0.961 . S
C1985 H2000 0.961 . S
C1985 H2001 0.961 . S
C1986 C1987 1.370 . S
C1986 C1988 1.363 . S
C1986 H2002 0.931 . S
C1987 C1986 1.370 . S
C1987 C1991 1.408 . S
C1988 C1986 1.363 . S
C1988 C1989 1.370 . S
C1988 C1992 1.524 . S
C1989 C1981 1.503 . S
C1989 C1988 1.370 . S
C1989 C1990 1.403 . S
C1990 C1989 1.403 . S
C1990 C1991 1.404 . S
C1990 C1993 1.539 . S
C1991 C1987 1.408 . S
C1991 C1990 1.404 . S
C1991 H2003 0.930 . S
C1992 C1988 1.524 . S
C1992 H2004 0.956 . S
C1992 H2005 0.961 . S
C1992 H2006 0.961 . S
C1993 C1990 1.539 . S
C1993 H2007 0.958 . S
C1993 H2008 0.961 . S
C1993 H2009 0.960 . S
H1994 C1978 0.931 . S
H1995 C1983 0.929 . S
H1996 C1984 0.960 . S
H1997 C1984 0.962 . S
H1998 C1984 0.960 . S
H1999 C1985 0.961 . S
H2000 C1985 0.961 . S
H2001 C1985 0.961 . S
H2002 C1986 0.931 . S
H2003 C1991 0.930 . S
H2004 C1992 0.956 . S
H2005 C1992 0.961 . S
H2006 C1992 0.961 . S
H2007 C1993 0.958 . S
H2008 C1993 0.961 . S
H2009 C1993 0.960 . S
C2010 C2011 1.391 . S
C2010 C2012 1.394 . S
C2010 H2026 0.931 . S
C2011 C2010 1.391 . S
C2011 C2015 1.376 . S
C2012 C2010 1.394 . S
C2012 C2013 1.369 . S
C2012 C2016 1.531 . S
C2013 C2012 1.369 . S
C2013 C2014 1.410 . S
C2013 C2021 1.503 . S
C2014 C2013 1.410 . S
C2014 C2015 1.392 . S
C2014 C2017 1.511 . S
C2015 C2011 1.376 . S
C2015 C2014 1.392 . S
C2015 H2027 0.929 . S
C2016 C2012 1.531 . S
C2016 H2028 0.960 . S
C2016 H2029 0.962 . S
C2016 H2030 0.960 . S
C2017 C2014 1.511 . S
C2017 H2031 0.961 . S
C2017 H2032 0.961 . S
C2017 H2033 0.961 . S
C2018 C2019 1.370 . S
C2018 C2020 1.363 . S
C2018 H2034 0.931 . S
C2019 C2018 1.370 . S
C2019 C2023 1.408 . S
C2020 C2018 1.363 . S
C2020 C2021 1.370 . S
C2020 C2024 1.524 . S
C2021 C2013 1.503 . S
C2021 C2020 1.370 . S
C2021 C2022 1.403 . S
C2022 C2021 1.403 . S
C2022 C2023 1.404 . S
C2022 C2025 1.539 . S
C2023 C2019 1.408 . S
C2023 C2022 1.404 . S
C2023 H2035 0.930 . S
C2024 C2020 1.524 . S
C2024 H2036 0.956 . S
C2024 H2037 0.961 . S
C2024 H2038 0.961 . S
C2025 C2022 1.539 . S
C2025 H2039 0.958 . S
C2025 H2040 0.961 . S
C2025 H2041 0.960 . S
H2026 C2010 0.931 . S
H2027 C2015 0.929 . S
H2028 C2016 0.960 . S
H2029 C2016 0.962 . S
H2030 C2016 0.960 . S
H2031 C2017 0.961 . S
H2032 C2017 0.961 . S
H2033 C2017 0.961 . S
H2034 C2018 0.931 . S
H2035 C2023 0.930 . S
H2036 C2024 0.956 . S
H2037 C2024 0.961 . S
H2038 C2024 0.961 . S
H2039 C2025 0.958 . S
H2040 C2025 0.961 . S
H2041 C2025 0.960 . S
C515 C331 2.609 . S
C507 C18 2.681 . S
C547 C321 2.400 . S
C539 C59 2.412 . S
C579 C322 0.969 . S
C571 C98 0.932 . S
C603 C125 0.893 . S
C611 C344 0.841 . S
C635 C169 2.381 . S
C643 C347 2.331 . S
C675 C330 0.987 . S
C667 C218 0.968 . S
C699 C255 1.074 . S
C707 C320 1.031 . S
C731 C288 2.689 . S
C739 C338 2.619 . S
C771 C351 0.976 . S
C763 C15 1.003 . S
C795 C45 0.711 . S
C803 C400 0.972 . S
C835 C378 0.431 . S
C827 C95 0.258 . S
C867 C392 0.661 . S
C859 C128 0.634 . S
C891 C178 0.694 . S
C899 C353 0.671 . S
C931 C406 1.564 1_556 S
C923 C215 1.585 . S
C955 C249 2.325 . S
C963 C362 2.244 . S
C987 C299 2.171 . S
C995 C383 2.206 . S
C1019 C9 2.663 . S
C1027 C409 2.599 . S
C1051 C175 0.282 . S
C1059 C393 0.655 1_556 S
C1091 C352 1.634 . S
C1083 C209 1.672 . S
C1123 C384 1.287 . S
C1115 C258 1.365 . S
C1147 C285 1.239 . S
C1155 C375 1.239 . S
C1179 C89 3.133 . S
C1187 C382 3.128 . S
C1219 C369 2.736 . S
C1211 C139 2.742 . S
C1243 C48 1.351 . S
C1251 C361 1.348 . S
C1275 C298 2.689 . S
C1283 C424 2.628 . S
C1307 C179 2.377 . S
C1315 C414 2.350 . S
C1347 C415 0.957 . S
C1339 C208 0.996 . S
C1379 C437 1.044 . S
C1371 C245 1.077 . S
C1403 C49 2.395 . S
C1411 C440 2.399 . S
C1443 C423 0.928 . S
C1435 C88 0.997 . S
C1467 C135 0.891 . S
C1475 C413 0.841 . S
C1499 C8 2.677 . S
C1507 C431 2.608 . S
C1531 C295 1.233 . S
C1539 C444 1.248 . S
C1571 C493 0.634 . S
C1563 C165 0.424 . S
C1595 C219 1.641 . S
C1603 C471 1.610 . S
C1627 C248 1.370 . S
C1635 C485 1.298 . S
C1667 C446 1.325 . S
C1659 C58 1.315 . S
C1691 C99 3.139 . S
C1699 C499 3.139 . S
C1731 C455 2.737 . S
C1723 C129 2.761 . S
C1763 C476 2.589 . S
C1755 C19 2.631 . S
C1795 C502 2.199 . S
C1787 C289 2.193 . S
C1819 C55 0.662 . S
C1827 C486 1.006 . S
C1851 C85 0.261 . S
C1859 C445 0.390 . S
C1891 C477 0.722 . S
C1883 C138 0.699 . S
C1915 C5 0.924 . S
C1923 C468 0.979 . S
C1947 C205 1.610 . S
C1955 C475 1.555 . S
C1987 C462 2.240 . S
C1979 C259 2.348 . S
C2019 C454 0.688 . S
C2011 C168 0.657 . S
