# Generated by pormake.
# Topology myd, (4,6)-cn, num edge types: 1
# Building blocks:
#     Node 0, Type 0, BuildingBlock: KOZSID_clean_sbu_0, # of connection points: 4
#     Node 1, Type 0, BuildingBlock: KOZSID_clean_sbu_0, # of connection points: 4
#     Node 2, Type 0, BuildingBlock: KOZSID_clean_sbu_0, # of connection points: 4
#     Node 3, Type 0, BuildingBlock: KOZSID_clean_sbu_0, # of connection points: 4
#     Node 4, Type 0, BuildingBlock: KOZSID_clean_sbu_0, # of connection points: 4
#     Node 5, Type 0, BuildingBlock: KOZSID_clean_sbu_0, # of connection points: 4
#     Node 6, Type 0, BuildingBlock: KOZSID_clean_sbu_0, # of connection points: 4
#     Node 7, Type 0, BuildingBlock: KOZSID_clean_sbu_0, # of connection points: 4
#     Node 8, Type 0, BuildingBlock: KOZSID_clean_sbu_0, # of connection points: 4
#     Node 9, Type 0, BuildingBlock: KOZSID_clean_sbu_0, # of connection points: 4
#     Node 10, Type 0, BuildingBlock: KOZSID_clean_sbu_0, # of connection points: 4
#     Node 11, Type 0, BuildingBlock: KOZSID_clean_sbu_0, # of connection points: 4
#     Node 12, Type 1, BuildingBlock: MIDCAF_clean_sbu_0, # of connection points: 6
#     Node 13, Type 1, BuildingBlock: MIDCAF_clean_sbu_0, # of connection points: 6
#     Node 14, Type 1, BuildingBlock: MIDCAF_clean_sbu_0, # of connection points: 6
#     Node 15, Type 1, BuildingBlock: MIDCAF_clean_sbu_0, # of connection points: 6
#     Node 16, Type 1, BuildingBlock: MIDCAF_clean_sbu_0, # of connection points: 6
#     Node 17, Type 1, BuildingBlock: MIDCAF_clean_sbu_0, # of connection points: 6
#     Node 18, Type 1, BuildingBlock: MIDCAF_clean_sbu_0, # of connection points: 6
#     Node 19, Type 1, BuildingBlock: MIDCAF_clean_sbu_0, # of connection points: 6
#     Edge 20, Type (0, 1), BuildingBlock: AJUNOK_clean_linker_0, # of connection points: 2
#     Edge 21, Type (0, 1), BuildingBlock: AJUNOK_clean_linker_0, # of connection points: 2
#     Edge 22, Type (0, 1), BuildingBlock: AJUNOK_clean_linker_0, # of connection points: 2
#     Edge 23, Type (0, 1), BuildingBlock: AJUNOK_clean_linker_0, # of connection points: 2
#     Edge 24, Type (0, 1), BuildingBlock: AJUNOK_clean_linker_0, # of connection points: 2
#     Edge 25, Type (0, 1), BuildingBlock: AJUNOK_clean_linker_0, # of connection points: 2
#     Edge 26, Type (0, 1), BuildingBlock: AJUNOK_clean_linker_0, # of connection points: 2
#     Edge 27, Type (0, 1), BuildingBlock: AJUNOK_clean_linker_0, # of connection points: 2
#     Edge 28, Type (0, 1), BuildingBlock: AJUNOK_clean_linker_0, # of connection points: 2
#     Edge 29, Type (0, 1), BuildingBlock: AJUNOK_clean_linker_0, # of connection points: 2
#     Edge 30, Type (0, 1), BuildingBlock: AJUNOK_clean_linker_0, # of connection points: 2
#     Edge 31, Type (0, 1), BuildingBlock: AJUNOK_clean_linker_0, # of connection points: 2
#     Edge 32, Type (0, 1), BuildingBlock: AJUNOK_clean_linker_0, # of connection points: 2
#     Edge 33, Type (0, 1), BuildingBlock: AJUNOK_clean_linker_0, # of connection points: 2
#     Edge 34, Type (0, 1), BuildingBlock: AJUNOK_clean_linker_0, # of connection points: 2
#     Edge 35, Type (0, 1), BuildingBlock: AJUNOK_clean_linker_0, # of connection points: 2
#     Edge 36, Type (0, 1), BuildingBlock: AJUNOK_clean_linker_0, # of connection points: 2
#     Edge 37, Type (0, 1), BuildingBlock: AJUNOK_clean_linker_0, # of connection points: 2
#     Edge 38, Type (0, 1), BuildingBlock: AJUNOK_clean_linker_0, # of connection points: 2
#     Edge 39, Type (0, 1), BuildingBlock: AJUNOK_clean_linker_0, # of connection points: 2
#     Edge 40, Type (0, 1), BuildingBlock: AJUNOK_clean_linker_0, # of connection points: 2
#     Edge 41, Type (0, 1), BuildingBlock: AJUNOK_clean_linker_0, # of connection points: 2
#     Edge 42, Type (0, 1), BuildingBlock: AJUNOK_clean_linker_0, # of connection points: 2
#     Edge 43, Type (0, 1), BuildingBlock: AJUNOK_clean_linker_0, # of connection points: 2
#     Edge 44, Type (0, 1), BuildingBlock: AJUNOK_clean_linker_0, # of connection points: 2
#     Edge 45, Type (0, 1), BuildingBlock: AJUNOK_clean_linker_0, # of connection points: 2
#     Edge 46, Type (0, 1), BuildingBlock: AJUNOK_clean_linker_0, # of connection points: 2
#     Edge 47, Type (0, 1), BuildingBlock: AJUNOK_clean_linker_0, # of connection points: 2
#     Edge 48, Type (0, 1), BuildingBlock: AJUNOK_clean_linker_0, # of connection points: 2
#     Edge 49, Type (0, 1), BuildingBlock: AJUNOK_clean_linker_0, # of connection points: 2
#     Edge 50, Type (0, 1), BuildingBlock: AJUNOK_clean_linker_0, # of connection points: 2
#     Edge 51, Type (0, 1), BuildingBlock: AJUNOK_clean_linker_0, # of connection points: 2
#     Edge 52, Type (0, 1), BuildingBlock: AJUNOK_clean_linker_0, # of connection points: 2
#     Edge 53, Type (0, 1), BuildingBlock: AJUNOK_clean_linker_0, # of connection points: 2
#     Edge 54, Type (0, 1), BuildingBlock: AJUNOK_clean_linker_0, # of connection points: 2
#     Edge 55, Type (0, 1), BuildingBlock: AJUNOK_clean_linker_0, # of connection points: 2
#     Edge 56, Type (0, 1), BuildingBlock: AJUNOK_clean_linker_0, # of connection points: 2
#     Edge 57, Type (0, 1), BuildingBlock: AJUNOK_clean_linker_0, # of connection points: 2
#     Edge 58, Type (0, 1), BuildingBlock: AJUNOK_clean_linker_0, # of connection points: 2
#     Edge 59, Type (0, 1), BuildingBlock: AJUNOK_clean_linker_0, # of connection points: 2
#     Edge 60, Type (0, 1), BuildingBlock: AJUNOK_clean_linker_0, # of connection points: 2
#     Edge 61, Type (0, 1), BuildingBlock: AJUNOK_clean_linker_0, # of connection points: 2
#     Edge 62, Type (0, 1), BuildingBlock: AJUNOK_clean_linker_0, # of connection points: 2
#     Edge 63, Type (0, 1), BuildingBlock: AJUNOK_clean_linker_0, # of connection points: 2
#     Edge 64, Type (0, 1), BuildingBlock: AJUNOK_clean_linker_0, # of connection points: 2
#     Edge 65, Type (0, 1), BuildingBlock: AJUNOK_clean_linker_0, # of connection points: 2
#     Edge 66, Type (0, 1), BuildingBlock: AJUNOK_clean_linker_0, # of connection points: 2
#     Edge 67, Type (0, 1), BuildingBlock: AJUNOK_clean_linker_0, # of connection points: 2
# Relax obj value: 0.150
# Max RMSD: 0.128
# Mean RMSD: 0.103
data_MOF--net-myd--node1-KOZSID_clean_sbu_0--node2-MIDCAF_clean_sbu_0--edge1-AJUNOK_clean_linker_0
_symmetry_space_group_name_H-M    P1
_symmetry_Int_Tables_number       1
_symmetry_cell_setting            triclinic
loop_
_symmetry_equiv_pos_as_xyz
'x, y, z'
_cell_length_a     38.296409
_cell_length_b     38.286026
_cell_length_c     38.177219
_cell_angle_alpha  92.242582
_cell_angle_beta   90.708165
_cell_angle_gamma 92.953987
loop_
_atom_site_label
_atom_site_type_symbol
_atom_site_fract_x
_atom_site_fract_y
_atom_site_fract_z
_atom_type_partial_charge
C0 C 0.96983 0.31131 0.33596 0.0
C1 C 0.93609 0.3188 0.34544 0.0
C2 C 0.91422 0.29395 0.32886 0.0
C3 C 0.93573 0.27279 0.31021 0.0
N4 N 0.97009 0.28204 0.31449 0.0
Co5 Co 0.00982 0.26048 0.28907 0.0
N6 N 0.97718 0.22868 0.25939 0.0
C7 C 0.94229 0.22376 0.26358 0.0
C8 C 0.92639 0.20172 0.23837 0.0
C9 C 0.95261 0.19221 0.21663 0.0
C10 C 0.98326 0.20881 0.23003 0.0
N11 N 0.04935 0.24092 0.26204 0.0
C12 C 0.04882 0.22049 0.2321 0.0
C13 C 0.08247 0.21471 0.22086 0.0
C14 C 0.10489 0.23287 0.24393 0.0
C15 C 0.08381 0.24861 0.26793 0.0
N16 N 0.04221 0.29162 0.31962 0.0
C17 C 0.07745 0.29087 0.32099 0.0
C18 C 0.09291 0.31617 0.34335 0.0
C19 C 0.06601 0.33442 0.35669 0.0
C20 C 0.03542 0.31917 0.34174 0.0
N21 N 0.01235 0.22228 0.32374 0.0
C22 C 0.01479 0.16157 0.36425 0.0
C23 C 0.04501 0.1768 0.35007 0.0
C24 C 0.0433 0.20697 0.33057 0.0
C25 C 0.98347 0.17803 0.35888 0.0
C26 C 0.98289 0.20812 0.33905 0.0
N27 N 0.0079 0.29706 0.25417 0.0
C28 C 0.03791 0.33894 0.21778 0.0
C29 C 0.00844 0.33997 0.19595 0.0
C30 C 0.97804 0.32075 0.2053 0.0
C31 C 0.97812 0.3003 0.23471 0.0
C32 C 0.03721 0.31718 0.24636 0.0
H33 H 0.95415 0.28634 0.24068 0.0
H34 H 0.06091 0.31638 0.26132 0.0
H35 H 0.06758 0.21699 0.32117 0.0
H36 H 0.9581 0.21904 0.33621 0.0
C37 C 0.92454 0.24523 0.287 0.0
C38 C 1.00074 0.3328 0.34802 0.0
C39 C 0.01723 0.20635 0.21323 0.0
C40 C 0.09529 0.27112 0.29601 0.0
H41 H 0.9281 0.34032 0.3622 0.0
H42 H 0.88593 0.29216 0.32948 0.0
H43 H 0.8987 0.19516 0.23486 0.0
H44 H 0.94921 0.17594 0.19291 0.0
H45 H 0.09004 0.19928 0.19811 0.0
H46 H 0.13315 0.23484 0.24297 0.0
H47 H 0.1206 0.32217 0.34765 0.0
H48 H 0.06875 0.35723 0.37435 0.0
H49 H 0.07008 0.1656 0.35419 0.0
H50 H 0.95922 0.16736 0.36939 0.0
H51 H 0.06157 0.35457 0.21285 0.0
H52 H 0.95432 0.32069 0.18957 0.0
C53 C 0.97462 0.71105 0.15529 0.0
C54 C 0.94353 0.70184 0.1373 0.0
C55 C 0.92032 0.72652 0.14673 0.0
C56 C 0.93842 0.74936 0.16982 0.0
N57 N 0.97149 0.74047 0.17556 0.0
Co58 Co 0.00654 0.76657 0.20632 0.0
N59 N 0.96955 0.79013 0.23257 0.0
C60 C 0.93649 0.79359 0.22141 0.0
C61 C 0.91642 0.80953 0.24625 0.0
C62 C 0.93831 0.81662 0.27463 0.0
C63 C 0.97081 0.80496 0.26529 0.0
N64 N 0.04124 0.79275 0.2371 0.0
C65 C 0.03677 0.80792 0.26924 0.0
C66 C 0.06809 0.82363 0.28203 0.0
C67 C 0.09279 0.8177 0.25685 0.0
C68 C 0.07526 0.79889 0.23004 0.0
N69 N 0.04313 0.74282 0.17969 0.0
C70 C 0.07702 0.75381 0.17841 0.0
C71 C 0.09621 0.73163 0.15807 0.0
C72 C 0.07278 0.70537 0.14575 0.0
C73 C 0.04042 0.71299 0.15919 0.0
N74 N 0.00943 0.80523 0.17384 0.0
C75 C 0.02669 0.86159 0.13087 0.0
C76 C 0.02523 0.82679 0.11739 0.0
C77 C 0.01587 0.79917 0.13904 0.0
C78 C 0.01811 0.86734 0.16611 0.0
C79 C 0.00974 0.83903 0.18704 0.0
N80 N 1.00537 0.72901 0.23963 0.0
C81 C 0.03807 0.69839 0.28192 0.0
C82 C 0.00735 0.68879 0.29911 0.0
C83 C 0.97528 0.69764 0.28453 0.0
C84 C 0.97483 0.71744 0.25443 0.0
C85 C 0.03651 0.71828 0.25227 0.0
H86 H 0.95003 0.72506 0.24428 0.0
H87 H 0.06093 0.72697 0.24114 0.0
H88 H 0.01533 0.77276 0.12796 0.0
H89 H 1.00482 0.84458 0.21437 0.0
C90 C 0.92365 0.77504 0.19123 0.0
C91 C 0.00722 0.69303 0.15036 0.0
C92 C 1.00282 0.80963 0.2869 0.0
C93 C 0.09048 0.78085 0.20169 0.0
H94 H 0.93822 0.67976 0.11911 0.0
H95 H 0.89311 0.72688 0.13881 0.0
H96 H 0.88868 0.81359 0.24477 0.0
H97 H 0.93086 0.8286 0.29935 0.0
H98 H 0.07258 0.83779 0.30691 0.0
H99 H 0.12048 0.82488 0.25866 0.0
H100 H 0.12413 0.73342 0.1539 0.0
H101 H 0.07881 0.68324 0.1288 0.0
H102 H 0.03224 0.82066 0.09056 0.0
H103 H 0.01819 0.89363 0.17771 0.0
H104 H 0.06337 0.69239 0.29245 0.0
H105 H 0.95085 0.6902 0.2969 0.0
C106 C 0.34397 0.96314 0.3054 0.0
C107 C 0.3571 0.93077 0.31154 0.0
C108 C 0.34806 0.90937 0.28288 0.0
C109 C 0.32999 0.92975 0.26087 0.0
N110 N 0.32702 0.9626 0.27397 0.0
Co111 Co 0.30298 1.00031 0.25074 0.0
N112 N 0.2762 0.96605 0.21912 0.0
C113 C 0.28416 0.93268 0.21205 0.0
C114 C 0.26002 0.91484 0.19027 0.0
C115 C 0.23556 0.93854 0.183 0.0
C116 C 0.24641 0.96978 0.20052 0.0
N117 N 0.27887 0.03788 0.22774 0.0
C118 C 0.24921 0.03585 0.20788 0.0
C119 C 0.2419 0.06863 0.19618 0.0
C120 C 0.26799 0.09169 0.2093 0.0
C121 C 0.28984 0.07183 0.22813 0.0
N122 N 0.33025 0.0341 0.28238 0.0
C123 C 0.33601 0.06843 0.27707 0.0
C124 C 0.35578 0.08533 0.3035 0.0
C125 C 0.36299 0.05994 0.32665 0.0
C126 C 0.34724 0.0288 0.31302 0.0
N127 N 0.3401 1.00412 0.21541 0.0
C128 C 0.39107 0.01978 0.16505 0.0
C129 C 0.40078 0.0131 0.19965 0.0
C130 C 0.37486 1.00559 0.22454 0.0
C131 C 0.35561 0.01703 0.15594 0.0
C132 C 0.33074 0.00874 0.18119 0.0
N133 N 0.26517 0.99792 0.28491 0.0
C134 C 0.22192 0.02908 0.31721 0.0
C135 C 0.20155 0.99809 0.32059 0.0
C136 C 0.21484 0.96663 0.30773 0.0
C137 C 0.24688 0.96706 0.29034 0.0
C138 C 0.25357 0.02842 0.29942 0.0
H139 H 0.25601 0.94268 0.27976 0.0
H140 H 0.2676 0.05305 0.29568 0.0
H141 H 0.38284 1.00174 0.25128 0.0
H142 H 0.30369 0.00709 0.17299 0.0
C143 C 0.31024 0.91748 0.23143 0.0
C144 C 0.35048 0.99439 0.32858 0.0
C145 C 0.22946 1.00301 0.19706 0.0
C146 C 0.31725 0.0845 0.25078 0.0
H147 H 0.37181 0.92345 0.33426 0.0
H148 H 0.35282 0.88185 0.27924 0.0
H149 H 0.25934 0.88744 0.182 0.0
H150 H 0.21247 0.93338 0.16662 0.0
H151 H 0.22025 0.07512 0.17959 0.0
H152 H 0.27012 0.11971 0.20632 0.0
H153 H 0.36284 0.11304 0.30643 0.0
H154 H 0.37805 0.06392 0.35077 0.0
H155 H 0.42809 0.01441 0.20753 0.0
H156 H 0.3471 0.02121 0.12932 0.0
H157 H 0.21269 0.05395 0.32666 0.0
H158 H 0.20017 0.94195 0.3104 0.0
C159 C 0.68181 0.47207 0.21706 0.0
C160 C 0.66413 0.44114 0.20534 0.0
C161 C 0.67389 0.41568 0.22722 0.0
C162 C 0.69691 0.43234 0.25101 0.0
N163 N 0.70228 0.46668 0.24536 0.0
Co164 Co 0.73343 0.50014 0.2735 0.0
N165 N 0.75987 0.46173 0.29263 0.0
C166 C 0.74893 0.42778 0.2929 0.0
C167 C 0.7737 0.40712 0.30635 0.0
C168 C 0.80181 0.42956 0.31524 0.0
C169 C 0.79243 0.46285 0.30701 0.0
N170 N 0.76424 0.53337 0.30188 0.0
C171 C 0.79589 0.52856 0.31655 0.0
C172 C 0.80828 0.55867 0.33513 0.0
C173 C 0.78338 0.58301 0.33159 0.0
C174 C 0.75716 0.56646 0.31124 0.0
N175 N 0.7071 0.53821 0.25373 0.0
C176 C 0.70617 0.57101 0.26755 0.0
C177 C 0.68569 0.59165 0.24803 0.0
C178 C 0.6729 0.57036 0.22042 0.0
C179 C 0.68627 0.53776 0.22462 0.0
N180 N 0.70115 0.49789 0.31354 0.0
C181 C 0.66028 0.50745 0.37423 0.0
C182 C 0.64638 0.51175 0.34038 0.0
C183 C 0.6669 0.50611 0.31049 0.0
C184 C 0.69425 0.49551 0.37627 0.0
C185 C 0.71435 0.49199 0.34616 0.0
N186 N 0.76658 0.5036 0.23493 0.0
C187 C 0.81052 0.53928 0.20628 0.0
C188 C 0.82629 0.50935 0.19354 0.0
C189 C 0.8098 0.47652 0.19932 0.0
C190 C 0.77973 0.47423 0.21978 0.0
C191 C 0.78074 0.53585 0.2269 0.0
H192 H 0.76833 0.44865 0.22507 0.0
H193 H 0.77057 0.55938 0.2382 0.0
H194 H 0.65542 0.50983 0.28503 0.0
H195 H 0.74117 0.48564 0.34979 0.0
C196 C 0.71873 0.41573 0.27414 0.0
C197 C 0.67681 0.50632 0.2022 0.0
C198 C 0.81369 0.49531 0.31491 0.0
C199 C 0.72922 0.58251 0.29513 0.0
H200 H 0.64609 0.43737 0.18331 0.0
H201 H 0.66633 0.38804 0.22499 0.0
H202 H 0.77227 0.37891 0.30781 0.0
H203 H 0.82632 0.42207 0.32629 0.0
H204 H 0.83269 0.56263 0.34968 0.0
H205 H 0.78498 0.60995 0.34144 0.0
H206 H 0.68154 0.6192 0.25254 0.0
H207 H 0.65557 0.57787 0.19973 0.0
H208 H 0.62012 0.5203 0.33684 0.0
H209 H 0.70585 0.48916 0.40103 0.0
H210 H 0.82228 0.5651 0.20212 0.0
H211 H 0.82078 0.45274 0.1891 0.0
C212 C 0.33585 0.36261 0.97716 0.0
C213 C 0.34897 0.37817 0.94746 0.0
C214 C 0.32738 0.36667 0.92003 0.0
C215 C 0.30236 0.34485 0.93443 0.0
N216 N 0.30695 0.3418 0.96919 0.0
Co217 Co 0.27635 0.31357 1.00005 0.0
N218 N 0.25653 0.28478 0.95944 0.0
C219 C 0.25759 0.29342 0.92563 0.0
C220 C 0.24147 0.26834 0.90338 0.0
C221 C 0.22929 0.24244 0.9246 0.0
C222 C 0.23874 0.25328 0.95867 0.0
N223 N 0.24526 0.2858 0.03062 0.0
C224 C 0.22784 0.25453 0.02383 0.0
C225 C 0.20872 0.24443 0.05275 0.0
C226 C 0.2142 0.27061 0.07818 0.0
C227 C 0.23636 0.29516 0.06353 0.0
N228 N 0.29689 0.34231 0.04034 0.0
C229 C 0.28292 0.3455 0.07238 0.0
C230 C 0.30321 0.36702 0.09499 0.0
C231 C 0.33155 0.37816 0.07583 0.0
C232 C 0.32691 0.36289 0.04243 0.0
N233 N 0.23888 0.3467 0.99526 0.0
C234 C 0.18209 0.39098 1.00029 0.0
C235 C 0.21674 0.40386 0.00713 0.0
C236 C 0.24467 0.38163 1.00354 0.0
C237 C 0.1771 0.35561 0.98949 0.0
C238 C 0.20544 0.33403 0.98769 0.0
N239 N 0.31264 0.27981 1.00601 0.0
C240 C 0.3399 0.23912 0.04319 0.0
C241 C 0.35685 0.22442 0.01446 0.0
C242 C 0.35245 0.23903 0.98161 0.0
C243 C 0.3301 0.26657 0.97789 0.0
C244 C 0.31834 0.26699 0.0385 0.0
H245 H 0.32608 0.27647 0.95214 0.0
H246 H 0.30539 0.27741 0.06116 0.0
H247 H 0.27082 0.39246 0.009 0.0
H248 H 0.19981 0.30666 0.98139 0.0
C249 C 0.27837 0.32235 0.91555 0.0
C250 C 0.35004 0.37008 0.01268 0.0
C251 C 0.22746 0.23496 0.98981 0.0
C252 C 0.25407 0.3237 0.08144 0.0
H253 H 0.37164 0.39608 0.9458 0.0
H254 H 0.33042 0.37245 0.89268 0.0
H255 H 0.23968 0.26835 0.87507 0.0
H256 H 0.21468 0.21859 0.91608 0.0
H257 H 0.19253 0.22067 0.05527 0.0
H258 H 0.20433 0.27095 0.10463 0.0
H259 H 0.29867 0.3729 0.12247 0.0
H260 H 0.35301 0.3956 0.08533 0.0
H261 H 0.22249 0.43059 0.01645 0.0
H262 H 0.15126 0.34419 0.98305 0.0
H263 H 0.34308 0.22899 0.06907 0.0
H264 H 0.36528 0.22841 0.95872 0.0
C265 C 0.20983 0.66139 0.45969 0.0
C266 C 0.20204 0.64343 0.42802 0.0
C267 C 0.22791 0.65311 0.40527 0.0
C268 C 0.25004 0.67628 0.42422 0.0
N269 N 0.23961 0.68178 0.45744 0.0
Co270 Co 0.26405 0.71288 0.4935 0.0
N271 N 0.28936 0.73956 0.45732 0.0
C272 C 0.2942 0.7286 0.42391 0.0
C273 C 0.31135 0.75354 0.40466 0.0
C274 C 0.3178 0.78179 0.4275 0.0
C275 C 0.30448 0.77232 0.45964 0.0
N276 N 0.28872 0.74379 0.52927 0.0
C277 C 0.30474 0.7758 0.52579 0.0
C278 C 0.3193 0.78837 0.55759 0.0
C279 C 0.31176 0.7632 0.58158 0.0
C280 C 0.29318 0.73663 0.56318 0.0
N281 N 0.23814 0.68613 0.52918 0.0
C282 C 0.24726 0.68511 0.56326 0.0
C283 C 0.22383 0.66484 0.58173 0.0
C284 C 0.19869 0.65231 0.55764 0.0
C285 C 0.20821 0.66554 0.5256 0.0
N286 N 0.30282 0.68086 0.49625 0.0
C287 C 0.35941 0.64141 0.51741 0.0
C288 C 0.32474 0.62706 0.51669 0.0
C289 C 0.29709 0.64679 0.5052 0.0
C290 C 0.36494 0.67485 0.50402 0.0
C291 C 0.33659 0.69429 0.49462 0.0
N292 N 0.22656 0.74578 0.49264 0.0
C293 C 0.19389 0.7876 0.52571 0.0
C294 C 0.18545 0.80416 0.49508 0.0
C295 C 0.1961 0.78958 0.46286 0.0
C296 C 0.21627 0.76002 0.46216 0.0
C297 C 0.21435 0.75856 0.52393 0.0
H298 H 0.22507 0.74981 0.43723 0.0
H299 H 0.22205 0.74788 0.54831 0.0
H300 H 0.27088 0.63503 0.50541 0.0
H301 H 0.34225 0.72093 0.48763 0.0
C302 C 0.27627 0.6982 0.41017 0.0
C303 C 0.18979 0.65669 0.49187 0.0
C304 C 0.30814 0.79371 0.49238 0.0
C305 C 0.27392 0.70839 0.57754 0.0
H306 H 0.18002 0.62524 0.42198 0.0
H307 H 0.22945 0.6454 0.37777 0.0
H308 H 0.31682 0.75214 0.37691 0.0
H309 H 0.33061 0.80647 0.42099 0.0
H310 H 0.33375 0.81309 0.56288 0.0
H311 H 0.31776 0.76487 0.60939 0.0
H312 H 0.22406 0.66086 0.60964 0.0
H313 H 0.17603 0.63547 0.56309 0.0
H314 H 0.31861 0.60115 0.52598 0.0
H315 H 0.39099 0.6866 0.5013 0.0
H316 H 0.18633 0.79812 0.5511 0.0
H317 H 0.1896 0.80146 0.43849 0.0
C318 C 0.79663 0.83654 0.45636 0.0
C319 C 0.79525 0.85499 0.42579 0.0
C320 C 0.76793 0.83999 0.40577 0.0
C321 C 0.75298 0.81444 0.42585 0.0
N322 N 0.76913 0.8127 0.45712 0.0
Co323 Co 0.74979 0.78671 0.49689 0.0
N324 N 0.72246 0.75329 0.46523 0.0
C325 C 0.71344 0.75896 0.43184 0.0
C326 C 0.6952 0.73068 0.416 0.0
C327 C 0.69228 0.70605 0.44123 0.0
C328 C 0.70858 0.7209 0.47136 0.0
N329 N 0.73065 0.76117 0.53674 0.0
C330 C 0.71549 0.72851 0.53738 0.0
C331 C 0.70362 0.72186 0.5709 0.0
C332 C 0.71162 0.75156 0.59147 0.0
C333 C 0.72779 0.77471 0.56955 0.0
N334 N 0.77669 0.82066 0.52825 0.0
C335 C 0.7667 0.83 0.56076 0.0
C336 C 0.78381 0.86028 0.57346 0.0
C337 C 0.80603 0.87026 0.54724 0.0
C338 C 0.80272 0.84443 0.52053 0.0
N339 N 0.7093 0.81681 0.499 0.0
C340 C 0.65122 0.85859 0.5095 0.0
C341 C 0.64785 0.82204 0.51073 0.0
C342 C 0.67677 0.80183 0.50501 0.0
C343 C 0.68438 0.8736 0.50144 0.0
C344 C 0.71302 0.85238 0.49662 0.0
N345 N 0.78892 0.75576 0.4956 0.0
C346 C 0.82521 0.718 0.52761 0.0
C347 C 0.83003 0.69746 0.49711 0.0
C348 C 0.8165 0.70852 0.46535 0.0
C349 C 0.79645 0.73805 0.46508 0.0
C350 C 0.80452 0.74708 0.5263 0.0
H351 H 0.7851 0.74521 0.44052 0.0
H352 H 0.7992 0.76117 0.55053 0.0
H353 H 0.67275 0.77388 0.50637 0.0
H354 H 0.73824 0.86482 0.49139 0.0
C355 C 0.72688 0.78888 0.41526 0.0
C356 C 0.82093 0.84498 0.48632 0.0
C357 C 0.70804 0.70529 0.50606 0.0
C358 C 0.74346 0.80787 0.57903 0.0
H359 H 0.81167 0.87748 0.41895 0.0
H360 H 0.76006 0.84688 0.37971 0.0
H361 H 0.68608 0.72779 0.38904 0.0
H362 H 0.67933 0.68035 0.43781 0.0
H363 H 0.68961 0.69851 0.57941 0.0
H364 H 0.70645 0.7556 0.6191 0.0
H365 H 0.78033 0.87375 0.59853 0.0
H366 H 0.82176 0.89456 0.54745 0.0
H367 H 0.62307 0.8089 0.51675 0.0
H368 H 0.68835 0.90153 0.49866 0.0
H369 H 0.83568 0.71053 0.55256 0.0
H370 H 0.82045 0.69376 0.44106 0.0
C371 C 0.47489 0.82957 0.85306 0.0
C372 C 0.44283 0.83937 0.86562 0.0
C373 C 0.41867 0.81375 0.85455 0.0
C374 C 0.43721 0.78979 0.83595 0.0
N375 N 0.47188 0.79825 0.83477 0.0
Co376 Co 0.50783 0.7712 0.80889 0.0
N377 N 0.4713 0.73637 0.7885 0.0
C378 C 0.43696 0.73435 0.79635 0.0
C379 C 0.41795 0.70893 0.77703 0.0
C380 C 0.44144 0.69415 0.75512 0.0
C381 C 0.47359 0.71139 0.76248 0.0
N382 N 0.5435 0.74502 0.78209 0.0
C383 C 0.539 0.71938 0.75658 0.0
C384 C 0.57082 0.70946 0.7435 0.0
C385 C 0.59619 0.73031 0.76055 0.0
C386 C 0.57854 0.75159 0.78312 0.0
N387 N 0.54419 0.80604 0.8296 0.0
C388 C 0.57922 0.80508 0.82574 0.0
C389 C 0.59761 0.83304 0.84181 0.0
C390 C 0.57292 0.85323 0.85663 0.0
C391 C 0.54064 0.83638 0.84884 0.0
N392 N 0.51399 0.74021 0.84966 0.0
C393 C 0.52269 0.68534 0.89628 0.0
C394 C 0.55135 0.70201 0.88078 0.0
C395 C 0.54653 0.72951 0.85845 0.0
C396 C 0.48977 0.69837 0.89039 0.0
C397 C 0.48603 0.72567 0.86717 0.0
N398 N 0.5024 0.80049 0.7677 0.0
C399 C 0.52937 0.82829 0.71828 0.0
C400 C 0.49721 0.82832 0.70078 0.0
C401 C 0.46726 0.81666 0.71853 0.0
C402 C 0.47039 0.80319 0.75195 0.0
C403 C 0.53134 0.81454 0.75153 0.0
H404 H 0.44684 0.79406 0.76426 0.0
H405 H 0.55678 0.81435 0.76307 0.0
H406 H 0.56971 0.74101 0.84811 0.0
H407 H 0.46021 0.73393 0.8633 0.0
C408 C 0.42262 0.75995 0.818 0.0
C409 C 0.5074 0.85079 0.85964 0.0
C410 C 0.50517 0.70484 0.74279 0.0
C411 C 0.59369 0.77964 0.8037 0.0
H412 H 0.43742 0.86276 0.88101 0.0
H413 H 0.39079 0.81299 0.85899 0.0
H414 H 0.38999 0.70316 0.77743 0.0
H415 H 0.43525 0.6739 0.73514 0.0
H416 H 0.57517 0.68984 0.72305 0.0
H417 H 0.62406 0.73072 0.7561 0.0
H418 H 0.62558 0.83877 0.84165 0.0
H419 H 0.57806 0.87798 0.8709 0.0
H420 H 0.57749 0.69356 0.88557 0.0
H421 H 0.46685 0.68674 0.90265 0.0
H422 H 0.55315 0.83774 0.70589 0.0
H423 H 0.44156 0.81764 0.70656 0.0
C424 C 0.56708 0.32093 0.68946 0.0
C425 C 0.59832 0.3315 0.67403 0.0
C426 C 0.62199 0.30719 0.68186 0.0
C427 C 0.60402 0.28319 0.70157 0.0
N428 N 0.57054 0.29096 0.7067 0.0
Co429 Co 0.53575 0.2634 0.7338 0.0
N430 N 0.57299 0.23959 0.75871 0.0
C431 C 0.6063 0.23741 0.74836 0.0
C432 C 0.62638 0.22022 0.77149 0.0
C433 C 0.60424 0.21083 0.79786 0.0
C434 C 0.57168 0.22262 0.78915 0.0
N435 N 0.50114 0.23597 0.76095 0.0
C436 C 0.50563 0.21883 0.79097 0.0
C437 C 0.47434 0.20238 0.80084 0.0
C438 C 0.44966 0.20961 0.77599 0.0
C439 C 0.46716 0.22994 0.75228 0.0
N440 N 0.49899 0.28741 0.70845 0.0
C441 C 0.46525 0.27602 0.70506 0.0
C442 C 0.44589 0.29808 0.68602 0.0
C443 C 0.46902 0.32478 0.6768 0.0
C444 C 0.50136 0.31756 0.69073 0.0
N445 N 0.53335 0.22536 0.69733 0.0
C446 C 0.51338 0.16984 0.64954 0.0
C447 C 0.51786 0.20432 0.63838 0.0
C448 C 0.52778 0.23175 0.66271 0.0
C449 C 0.52167 0.16358 0.6844 0.0
C450 C 0.53193 0.19143 0.70761 0.0
N451 N 0.53637 0.30003 0.77108 0.0
C452 C 0.50319 0.32793 0.81641 0.0
C453 C 0.53382 0.33794 0.83522 0.0
C454 C 0.56603 0.33061 0.82 0.0
C455 C 0.56675 0.3118 0.78774 0.0
C456 C 0.50506 0.30951 0.78438 0.0
H457 H 0.59169 0.30514 0.77722 0.0
H458 H 0.48076 0.30077 0.77171 0.0
H459 H 0.52942 0.25823 0.6539 0.0
H460 H 0.53685 0.18544 0.73449 0.0
C461 C 0.61905 0.25734 0.72087 0.0
C462 C 0.53417 0.33847 0.68504 0.0
C463 C 0.53961 0.2153 0.80881 0.0
C464 C 0.452 0.24848 0.72532 0.0
H465 H 0.60343 0.35432 0.65865 0.0
H466 H 0.64942 0.30782 0.67527 0.0
H467 H 0.65416 0.21641 0.77022 0.0
H468 H 0.61131 0.19689 0.8208 0.0
H469 H 0.4699 0.18658 0.82342 0.0
H470 H 0.42207 0.20193 0.77593 0.0
H471 H 0.41802 0.29589 0.68071 0.0
H472 H 0.46281 0.34696 0.66158 0.0
H473 H 0.51243 0.21021 0.6114 0.0
H474 H 0.51974 0.13726 0.6939 0.0
H475 H 0.47772 0.33244 0.82718 0.0
H476 H 0.59044 0.3384 0.83342 0.0
C477 C 0.85368 0.46093 0.8118 0.0
C478 C 0.86926 0.42945 0.81625 0.0
C479 C 0.85817 0.40748 0.78858 0.0
C480 C 0.83647 0.42669 0.76887 0.0
N481 N 0.83316 0.45924 0.78252 0.0
Co482 Co 0.80442 0.49543 0.76272 0.0
N483 N 0.77637 0.45998 0.73357 0.0
C484 C 0.78577 0.42744 0.72467 0.0
C485 C 0.76023 0.40839 0.7056 0.0
C486 C 0.7333 0.4304 0.70224 0.0
C487 C 0.74412 0.46195 0.71918 0.0
N488 N 0.77532 0.53141 0.74367 0.0
C489 C 0.74313 0.52756 0.72856 0.0
C490 C 0.73202 0.55969 0.71847 0.0
C491 C 0.75828 0.58425 0.7279 0.0
C492 C 0.78399 0.56585 0.74303 0.0
N493 N 0.83351 0.53071 0.79083 0.0
C494 C 0.83675 0.56515 0.78494 0.0
C495 C 0.85888 0.58312 0.80875 0.0
C496 C 0.87027 0.55835 0.83075 0.0
C497 C 0.85439 0.52653 0.81911 0.0
N498 N 0.83663 0.5009 0.72329 0.0
C499 C 0.88066 0.51255 0.66605 0.0
C500 C 0.84433 0.5109 0.66178 0.0
C501 C 0.82293 0.50486 0.69044 0.0
C502 C 0.89465 0.50745 0.69955 0.0
C503 C 0.87217 0.50195 0.72791 0.0
N504 N 0.77109 0.4908 0.8013 0.0
C505 C 0.73436 0.51871 0.84385 0.0
C506 C 0.71063 0.48932 0.84343 0.0
C507 C 0.71976 0.46009 0.82238 0.0
C508 C 0.75099 0.46063 0.80389 0.0
C509 C 0.76332 0.51945 0.82178 0.0
H510 H 0.75729 0.43706 0.78944 0.0
H511 H 0.77838 0.5438 0.8204 0.0
H512 H 0.79511 0.50363 0.68587 0.0
H513 H 0.88349 0.49882 0.75358 0.0
C514 C 0.81455 0.41357 0.74121 0.0
C515 C 0.8609 0.49264 0.83416 0.0
C516 C 0.72407 0.49362 0.72077 0.0
C517 C 0.81356 0.58011 0.76172 0.0
H518 H 0.88695 0.42313 0.83713 0.0
H519 H 0.86419 0.38037 0.78414 0.0
H520 H 0.7602 0.38109 0.6971 0.0
H521 H 0.70843 0.42358 0.68939 0.0
H522 H 0.70769 0.56482 0.70539 0.0
H523 H 0.75808 0.61226 0.72509 0.0
H524 H 0.86475 0.61108 0.81094 0.0
H525 H 0.88807 0.56317 0.85285 0.0
H526 H 0.83242 0.51384 0.63623 0.0
H527 H 0.92267 0.50823 0.70387 0.0
H528 H 0.73038 0.5419 0.86008 0.0
H529 H 0.70284 0.43705 0.81801 0.0
C530 C 0.18872 0.0637 0.80853 0.0
C531 C 0.17739 0.09695 0.81631 0.0
C532 C 0.18844 0.11762 0.78968 0.0
C533 C 0.20594 0.096 0.76723 0.0
N534 N 0.20666 0.06303 0.77814 0.0
Co535 Co 0.22948 0.02377 0.75375 0.0
N536 N 0.25913 0.05644 0.72627 0.0
C537 C 0.25335 0.09029 0.72125 0.0
C538 C 0.27913 0.10673 0.70231 0.0
C539 C 0.30238 0.08157 0.69468 0.0
C540 C 0.2892 0.05094 0.70913 0.0
N541 N 0.25215 0.98465 0.72935 0.0
C542 C 0.28223 0.9849 0.71099 0.0
C543 C 0.288 0.95158 0.69731 0.0
C544 C 0.26047 0.93002 0.70755 0.0
C545 C 0.23936 0.95125 0.72677 0.0
N546 N 0.1996 0.99167 0.78157 0.0
C547 C 0.19217 0.95755 0.77357 0.0
C548 C 0.17078 0.94201 0.79779 0.0
C549 C 0.16433 0.9681 0.82233 0.0
C550 C 0.18223 0.99821 0.81176 0.0
N551 N 0.19372 0.0216 0.71606 0.0
C552 C 0.14452 1.00602 0.66142 0.0
C553 C 0.13387 0.01083 0.69637 0.0
C554 C 0.15879 0.01904 0.72318 0.0
C555 C 0.18022 0.01044 0.65454 0.0
C556 C 0.20418 0.01816 0.68195 0.0
N557 N 0.2659 0.02428 0.79017 0.0
C558 C 0.30639 0.99049 0.82171 0.0
C559 C 0.32864 0.02019 0.8276 0.0
C560 C 0.31759 0.05254 0.81684 0.0
C561 C 0.28583 0.0541 0.79857 0.0
C562 C 0.27517 0.9931 0.80302 0.0
H563 H 0.2784 0.07902 0.78946 0.0
H564 H 0.25976 0.96928 0.79699 0.0
H565 H 0.14992 0.02205 0.74981 0.0
H566 H 0.23145 0.02002 0.67542 0.0
C567 C 0.22744 0.10704 0.74002 0.0
C568 C 0.18026 0.03304 0.82938 0.0
C569 C 0.304 0.01658 0.70352 0.0
C570 C 0.21074 0.94023 0.74711 0.0
H571 H 0.16275 0.10544 0.83888 0.0
H572 H 0.18552 0.14546 0.78783 0.0
H573 H 0.28159 0.13408 0.6961 0.0
H574 H 0.32613 0.08535 0.67993 0.0
H575 H 0.30961 0.94376 0.68131 0.0
H576 H 0.25689 0.90205 0.70244 0.0
H577 H 0.16206 0.9147 0.79838 0.0
H578 H 0.14825 0.96534 0.84528 0.0
H579 H 0.10661 0.00735 0.70323 0.0
H580 H 0.18977 0.00769 0.62803 0.0
H581 H 0.31393 0.96508 0.82971 0.0
H582 H 0.33388 0.07627 0.82163 0.0
C583 C 0.72793 0.18532 0.95933 0.0
C584 C 0.72085 0.16851 0.92695 0.0
C585 C 0.74648 0.18012 0.90478 0.0
C586 C 0.76773 0.20325 0.92478 0.0
N587 N 0.75701 0.20692 0.95807 0.0
Co588 Co 0.78002 0.2375 0.99551 0.0
N589 N 0.80485 0.26644 0.96071 0.0
C590 C 0.81033 0.25688 0.92699 0.0
C591 C 0.82678 0.28304 0.90879 0.0
C592 C 0.83219 0.31056 0.93262 0.0
C593 C 0.81912 0.29945 0.96436 0.0
N594 N 0.80262 0.26829 0.03277 0.0
C595 C 0.81751 0.30103 0.0307 0.0
C596 C 0.8306 0.31314 0.06329 0.0
C597 C 0.82344 0.28696 0.08624 0.0
C598 C 0.80655 0.26028 0.06652 0.0
N599 N 0.75543 0.20781 0.02974 0.0
C600 C 0.76449 0.20567 0.06371 0.0
C601 C 0.74202 0.18343 0.08113 0.0
C602 C 0.71754 0.17083 0.05646 0.0
C603 C 0.72647 0.18603 0.02518 0.0
N604 N 0.82016 0.20753 0.99698 0.0
C605 C 0.87879 0.16799 0.00879 0.0
C606 C 0.88235 0.20422 1.00552 0.0
C607 C 0.85304 0.2233 0.99952 0.0
C608 C 0.84512 0.15168 1.0049 0.0
C609 C 0.81613 0.17193 0.99892 0.0
N610 N 0.74114 0.26868 0.99556 0.0
C611 C 0.7067 0.30762 0.03024 0.0
C612 C 0.70277 0.32901 1.00171 0.0
C613 C 0.71545 0.31721 0.96907 0.0
C614 C 0.73347 0.28642 0.96639 0.0
C615 C 0.72647 0.27813 0.02683 0.0
H616 H 0.74346 0.27846 0.94117 0.0
H617 H 0.73161 0.26443 0.05023 0.0
H618 H 0.85711 0.25122 0.99805 0.0
H619 H 0.79043 0.15897 0.99658 0.0
C620 C 0.79339 0.22656 0.91191 0.0
C621 C 0.70823 0.17817 0.99124 0.0
C622 C 0.82239 0.31974 0.99785 0.0
C623 C 0.78916 0.2302 0.07934 0.0
H624 H 0.69951 0.14975 0.92011 0.0
H625 H 0.74843 0.17363 0.87705 0.0
H626 H 0.83241 0.28287 0.88107 0.0
H627 H 0.84417 0.33589 0.92703 0.0
H628 H 0.84418 0.3381 0.06974 0.0
H629 H 0.82889 0.28784 0.11416 0.0
H630 H 0.74223 0.17837 0.10882 0.0
H631 H 0.69557 0.15275 0.06104 0.0
H632 H 0.9077 0.21804 0.00829 0.0
H633 H 0.84119 0.12357 0.00627 0.0
H634 H 0.69555 0.31393 0.05545 0.0
H635 H 0.7129 0.33223 0.94585 0.0
Zn636 Zn 0.11825 0.10412 0.07597 0.0
Zn637 Zn 0.03993 0.03279 0.9964 0.0
Zn638 Zn 0.08089 0.06648 0.03973 0.0
C639 C 0.09686 0.04964 0.95601 0.0
C640 C 0.05657 0.98617 0.04931 0.0
O641 O 0.05046 0.10641 0.07103 0.0
O642 O 0.09204 0.14592 0.08697 0.0
C643 C 0.15102 0.1105 0.01638 0.0
O644 O 0.10506 0.0666 0.98522 0.0
O645 O 0.06851 0.03137 0.95363 0.0
O646 O 0.03603 0.98999 0.0238 0.0
O647 O 0.07834 0.01171 0.05906 0.0
O648 O 0.16034 0.11227 0.04813 0.0
O649 O 0.12132 0.09491 0.00742 0.0
O650 O 0.10544 0.03289 0.07893 0.0
O651 O 0.12435 0.0751 0.11641 0.0
C652 C 0.12021 0.04295 0.10847 0.0
O653 O 0.02872 0.09025 0.04267 0.0
O654 O 1.00019 0.06371 0.99761 0.0
C655 C 0.06024 0.13582 0.08705 0.0
C656 C 1.00142 0.08639 0.02248 0.0
Zn657 Zn 0.01151 0.52588 0.99649 0.0
Zn658 Zn 0.94768 0.45029 0.0709 0.0
Zn659 Zn 0.97813 0.48648 0.03773 0.0
C660 C 0.95246 0.50151 0.11404 0.0
C661 C 0.90222 0.44912 0.02478 0.0
O662 O 0.03165 0.46556 0.03465 0.0
O663 O 0.05511 0.49952 0.99498 0.0
C664 C 0.99486 0.56855 0.05573 0.0
O665 O 0.95493 0.51482 0.08357 0.0
O666 O 0.96376 0.47152 0.11734 0.0
O667 O 0.89828 0.45615 0.05698 0.0
O668 O 0.93194 0.45764 0.01081 0.0
O669 O 0.01172 0.56929 0.02749 0.0
O670 O 0.97849 0.53982 0.06392 0.0
O671 O 0.94876 0.48161 0.98619 0.0
O672 O 0.97863 0.52008 0.95525 0.0
C673 C 0.95302 0.49815 0.95761 0.0
O674 O 0.00998 0.44561 0.06229 0.0
O675 O 0.96822 0.40605 0.05202 0.0
C676 C 0.0576 0.47423 0.01499 0.0
C677 C 0.99765 0.414 0.06598 0.0
Zn678 Zn 0.99401 0.98699 0.49453 0.0
Zn679 Zn 0.06888 0.92307 0.42576 0.0
Zn680 Zn 0.03421 0.95387 0.45947 0.0
C681 C 0.10837 0.92698 0.47866 0.0
C682 C 0.01944 0.87849 0.4225 0.0
O683 O 0.03535 0.00744 0.43673 0.0
O684 O 0.99035 0.028 0.4645 0.0
C685 C 0.05036 0.97674 0.53982 0.0
O686 O 0.07728 0.93143 0.49021 0.0
O687 O 0.11506 0.93582 0.44793 0.0
O688 O 0.05071 0.87409 0.43117 0.0
O689 O 0.0065 0.90823 0.43068 0.0
O690 O 0.02384 0.99473 0.53715 0.0
O691 O 0.05805 0.9562 0.51377 0.0
O692 O 0.98139 0.92331 0.4557 0.0
O693 O 0.95418 0.95201 0.4973 0.0
C694 C 0.95465 0.92623 0.47571 0.0
O695 O 0.0613 0.98545 0.41827 0.0
O696 O 0.06138 0.94234 0.37893 0.0
C697 C 0.01408 0.03211 0.44212 0.0
C698 C 0.0695 0.97391 0.38734 0.0
Zn699 Zn 0.94484 0.57231 0.42709 0.0
Zn700 Zn 0.01857 0.50627 0.49359 0.0
Zn701 Zn 0.97998 0.54239 0.45904 0.0
C702 C 0.9955 0.46081 0.43804 0.0
C703 C 0.06143 0.56537 0.47694 0.0
O704 O 0.93698 0.56785 0.48923 0.0
O705 O 0.89801 0.56117 0.44667 0.0
C706 C 0.94575 0.52193 0.38414 0.0
O707 O 0.97749 0.48776 0.43241 0.0
O708 O 0.01737 0.46252 0.46318 0.0
O709 O 0.06152 0.53828 0.49483 0.0
O710 O 0.03359 0.57121 0.45906 0.0
O711 O 0.95303 0.55374 0.37891 0.0
O712 O 0.95326 0.51038 0.41459 0.0
O713 O 0.00812 0.58646 0.4332 0.0
O714 O 0.96412 0.62049 0.43805 0.0
C715 C 0.99469 0.61602 0.42757 0.0
O716 O 0.95655 0.54386 0.51283 0.0
O717 O 0.98961 0.50561 0.5367 0.0
C718 C 0.90573 0.57222 0.47748 0.0
C719 C 0.96425 0.52537 0.53914 0.0
Zn720 Zn 0.41541 0.93143 0.57141 0.0
Zn721 Zn 0.49208 0.99973 0.50125 0.0
Zn722 Zn 0.45044 0.96598 0.53934 0.0
C723 C 0.43336 0.98192 0.4578 0.0
C724 C 0.47576 0.04618 0.55828 0.0
O725 O 0.47836 0.92276 0.56443 0.0
O726 O 0.43392 0.88436 0.56512 0.0
C727 C 0.37565 0.92923 0.51903 0.0
O728 O 0.42434 0.96543 0.48545 0.0
O729 O 0.46227 0.99942 0.45804 0.0
O730 O 0.49508 0.04299 0.53187 0.0
O731 O 0.45429 0.02039 0.56562 0.0
O732 O 0.36845 0.93631 0.55054 0.0
O733 O 0.40641 0.93864 0.50807 0.0
O734 O 0.4267 0.99635 0.58345 0.0
O735 O 0.423 0.95269 0.61903 0.0
C736 C 0.41862 0.98439 0.61365 0.0
O737 O 0.5021 0.94044 0.54028 0.0
O738 O 0.53334 0.96996 0.50201 0.0
C739 C 0.46577 0.89193 0.57177 0.0
C740 C 0.53057 0.94537 0.52303 0.0
Zn741 Zn 0.52198 0.5043 0.54564 0.0
Zn742 Zn 0.5948 0.58556 0.61923 0.0
Zn743 Zn 0.5586 0.54775 0.58339 0.0
C744 C 0.59857 0.52906 0.65495 0.0
C745 C 0.63039 0.58963 0.56124 0.0
O746 O 0.50552 0.57123 0.58007 0.0
O747 O 0.48038 0.53287 0.54192 0.0
C748 C 0.53883 0.46535 0.60249 0.0
O749 O 0.58434 0.5181 0.62536 0.0
O750 O 0.59996 0.56127 0.66301 0.0
O751 O 0.63813 0.59242 0.59337 0.0
O752 O 0.60089 0.57409 0.55132 0.0
O753 O 0.51928 0.46291 0.57554 0.0
O754 O 0.5572 0.49429 0.60919 0.0
O755 O 0.58383 0.5455 0.52942 0.0
O756 O 0.55205 0.50198 0.50356 0.0
C757 C 0.57759 0.52413 0.50265 0.0
O758 O 0.52653 0.58957 0.60998 0.0
O759 O 0.56945 0.62813 0.6244 0.0
C760 C 0.47926 0.56125 0.55979 0.0
C761 C 0.53729 0.61973 0.6238 0.0
Zn762 Zn 0.52111 0.52129 0.04094 0.0
Zn763 Zn 0.58913 0.45047 0.96204 0.0
Zn764 Zn 0.55835 0.4853 1.00008 0.0
C765 C 0.63406 0.46195 0.00762 0.0
C766 C 0.54311 0.40807 0.97217 0.0
O767 O 0.5567 0.53637 0.97367 0.0
O768 O 0.52153 0.56299 0.01001 0.0
C769 C 0.58152 0.50445 0.0803 0.0
O770 O 0.60546 0.46391 0.02486 0.0
O771 O 0.63475 0.47611 0.97835 0.0
O772 O 0.57368 0.40534 0.9839 0.0
O773 O 0.52917 0.43779 0.97741 0.0
O774 O 0.55423 0.52165 0.08265 0.0
O775 O 0.5878 0.48779 0.05125 0.0
O776 O 0.50567 0.45596 1.00157 0.0
O777 O 0.47796 0.48848 0.03992 0.0
C778 C 0.47819 0.46141 0.01982 0.0
O779 O 0.58118 0.51125 0.95303 0.0
O780 O 0.55939 0.46711 0.92163 0.0
C781 C 0.53902 0.56312 0.98206 0.0
C782 C 0.57952 0.4941 0.92325 0.0
Zn783 Zn 0.53986 0.02604 1.00212 0.0
Zn784 Zn 0.46524 0.09681 0.93852 0.0
Zn785 Zn 0.50071 0.06334 0.96827 0.0
C786 C 0.52008 0.13615 0.93207 0.0
C787 C 0.45952 0.04227 0.89739 0.0
O788 O 0.47965 0.06426 0.02326 0.0
O789 O 0.51093 0.02348 0.04526 0.0
C790 C 0.58279 0.08345 0.9821 0.0
O791 O 0.53072 0.10578 0.9397 0.0
O792 O 0.48951 0.14354 0.94021 0.0
O793 O 0.46496 0.07414 0.89131 0.0
O794 O 0.47022 0.03121 0.92698 0.0
O795 O 0.58278 0.058 1.0022 0.0
O796 O 0.55468 0.08901 0.96465 0.0
O797 O 0.49505 0.00814 0.94291 0.0
O798 O 0.53751 0.98331 0.9704 0.0
C799 C 0.51361 0.98129 0.94719 0.0
O800 O 0.46302 0.092 1.00261 0.0
O801 O 0.42035 0.09341 0.96402 0.0
C802 C 0.48619 0.04392 0.04846 0.0
C803 C 0.43191 0.10089 0.99456 0.0
C804 C 0.03316 0.0996 0.37204 0.0
C805 C 0.01605 0.12918 0.38495 0.0
C806 C 0.03331 0.06849 0.39076 0.0
C807 C 0.01639 0.06573 0.42318 0.0
H808 H 0.04586 0.10022 0.34687 0.0
H809 H 0.046 0.04627 0.37929 0.0
S810 S 0.97193 0.13742 0.47057 0.0
N811 N 0.9847 0.15467 0.43362 0.0
N812 N 0.98477 0.09692 0.46867 0.0
C813 C 1.0004 0.09573 0.43688 0.0
C814 C 1.00025 0.12717 0.41784 0.0
C815 C 0.98728 0.39697 0.35753 0.0
C816 C 0.99678 0.36506 0.37133 0.0
C817 C 0.9851 0.42767 0.37923 0.0
C818 C 0.99248 0.42761 0.41554 0.0
H819 H 0.98225 0.39836 0.32966 0.0
H820 H 0.97896 0.45181 0.36724 0.0
S821 S 0.01439 0.3495 0.46486 0.0
N822 N 0.01044 0.33464 0.42376 0.0
N823 N 0.00676 0.39154 0.46435 0.0
C824 C 1.00049 0.39529 0.42961 0.0
C825 C 1.0025 0.36429 0.40762 0.0
C826 C 0.05841 0.92035 0.12227 0.0
C827 C 0.03671 0.8919 0.10862 0.0
C828 C 0.06617 0.95014 0.10263 0.0
C829 C 0.0527 0.95276 0.06843 0.0
H830 H 0.06918 0.91983 0.14858 0.0
H831 H 0.08186 0.97167 0.11486 0.0
S832 S 0.99588 0.88485 0.01975 0.0
N833 N 1.00236 0.86836 0.05839 0.0
N834 N 0.01811 0.92293 0.02105 0.0
C835 C 0.0321 0.92381 0.05401 0.0
C836 C 0.02388 0.89382 0.07414 0.0
C837 C 0.99433 0.62829 0.13873 0.0
C838 C 0.00618 0.661 0.12658 0.0
C839 C 0.98978 0.59859 0.11573 0.0
C840 C 0.99662 0.60061 0.07962 0.0
H841 H 0.98836 0.62572 0.1662 0.0
H842 H 0.98137 0.57386 0.12647 0.0
S843 S 0.02468 0.68162 0.0345 0.0
N844 N 0.02217 0.69441 0.07613 0.0
N845 N 0.01389 0.63928 0.03287 0.0
C846 C 0.00767 0.63365 0.06723 0.0
C847 C 0.01232 0.66364 0.09065 0.0
C848 C 0.43824 1.00172 0.12434 0.0
C849 C 0.4174 0.02804 0.13772 0.0
C850 C 0.46057 0.00767 0.09601 0.0
C851 C 0.46314 0.04024 0.0797 0.0
H852 H 0.43651 0.97597 0.1352 0.0
H853 H 0.47533 0.98605 0.08624 0.0
S854 S 0.41764 0.11933 0.10872 0.0
N855 N 0.40265 0.08874 0.13482 0.0
N856 N 0.44531 0.10027 0.08213 0.0
C857 C 0.44337 0.06724 0.09386 0.0
C858 C 0.42038 0.06105 0.12268 0.0
C859 C 0.6652 0.50423 0.1367 0.0
C860 C 0.6527 0.50802 0.17111 0.0
C861 C 0.64218 0.50286 0.10739 0.0
C862 C 0.60577 0.50457 0.11143 0.0
H863 H 0.69295 0.50221 0.13244 0.0
H864 H 0.653 0.50111 0.08137 0.0
S865 S 0.56003 0.51316 0.19644 0.0
N866 N 0.60178 0.51278 0.20764 0.0
N867 N 0.55859 0.50979 0.15318 0.0
C868 C 0.59314 0.50828 0.1459 0.0
C869 C 0.61653 0.50995 0.17553 0.0
C870 C 0.40705 0.99647 0.36285 0.0
C871 C 0.37053 0.99107 0.36221 0.0
C872 C 0.42674 0.99228 0.39357 0.0
C873 C 0.41093 0.98233 0.42522 0.0
H874 H 0.42055 1.00397 0.3393 0.0
H875 H 0.4548 0.99718 0.39242 0.0
S876 S 0.3156 0.9644 0.43681 0.0
N877 N 0.31907 0.97433 0.39521 0.0
N878 N 0.3558 0.96725 0.45327 0.0
C879 C 0.37428 0.97633 0.42465 0.0
C880 C 0.3542 0.9805 0.39313 0.0
C881 C 0.60316 0.50737 0.40725 0.0
C882 C 0.63959 0.51476 0.407 0.0
C883 C 0.58359 0.51193 0.43792 0.0
C884 C 0.59931 0.52386 0.47016 0.0
H885 H 0.58954 0.49689 0.38383 0.0
H886 H 0.55576 0.50526 0.43643 0.0
S887 S 0.69379 0.547 0.48436 0.0
N888 N 0.69022 0.53686 0.44206 0.0
N889 N 0.65395 0.54162 0.49998 0.0
C890 C 0.63559 0.53154 0.47039 0.0
C891 C 0.65551 0.52788 0.43888 0.0
C892 C 0.119 0.39876 0.01727 0.0
C893 C 0.15109 0.41341 1.00513 0.0
C894 C 0.08915 0.41855 0.02067 0.0
C895 C 0.09014 0.45423 0.01355 0.0
H896 H 0.1166 0.37153 0.02395 0.0
H897 H 0.06469 0.40549 0.02761 0.0
S898 S 0.16664 0.50564 0.97969 0.0
N899 N 0.1808 0.46602 0.98382 0.0
N900 N 0.12582 0.50356 0.9931 0.0
C901 C 0.12198 0.46945 1.00167 0.0
C902 C 0.15213 0.4491 0.99707 0.0
C903 C 0.15528 0.59955 0.49851 0.0
C904 C 0.15608 0.6348 0.48962 0.0
C905 C 0.12486 0.57764 0.49345 0.0
C906 C 0.09368 0.58973 0.47897 0.0
H907 H 0.17857 0.58864 0.509 0.0
H908 H 0.12599 0.55075 0.50101 0.0
S909 S 0.08277 0.68036 0.45068 0.0
N910 N 0.12373 0.68093 0.46486 0.0
N911 N 0.06637 0.64019 0.45602 0.0
C912 C 0.09442 0.62506 0.46969 0.0
C913 C 0.12559 0.64738 0.4748 0.0
C914 C 0.87863 0.87225 0.51222 0.0
C915 C 0.85901 0.85922 0.48249 0.0
C916 C 0.90966 0.89294 0.50938 0.0
C917 C 0.92482 0.89943 0.47678 0.0
H918 H 0.8705 0.86686 0.53842 0.0
H919 H 0.92192 0.90416 0.53327 0.0
S920 S 0.8969 0.8544 0.39275 0.0
N921 N 0.86642 0.84206 0.42061 0.0
N922 N 0.92448 0.88153 0.41524 0.0
C923 C 0.90968 0.88116 0.44734 0.0
C924 C 0.87728 0.86045 0.45021 0.0
C925 C 0.3893 0.58496 0.52702 0.0
C926 C 0.38942 0.62165 0.53152 0.0
C927 C 0.41757 0.56601 0.53819 0.0
C928 C 0.44792 0.58257 0.55409 0.0
H929 H 0.36767 0.57055 0.51366 0.0
H930 H 0.41593 0.53792 0.53319 0.0
S931 S 0.46119 0.67795 0.57418 0.0
N932 N 0.42176 0.67356 0.55623 0.0
N933 N 0.47583 0.63815 0.57433 0.0
C934 C 0.4482 0.61911 0.55963 0.0
C935 C 0.41892 0.6385 0.54897 0.0
C936 C 0.52029 0.65514 0.95364 0.0
C937 C 0.52739 0.65411 0.91765 0.0
C938 C 0.52519 0.62594 0.97411 0.0
C939 C 0.53707 0.59424 0.95946 0.0
H940 H 0.51112 0.67879 0.96612 0.0
H941 H 0.51933 0.62827 1.00176 0.0
S942 S 0.55651 0.57766 0.86532 0.0
N943 N 0.54578 0.6189 0.86771 0.0
N944 N 0.55358 0.56371 0.90562 0.0
C945 C 0.54379 0.59295 0.92323 0.0
C946 C 0.53927 0.6229 0.90252 0.0
C947 C 0.49546 0.91537 0.86939 0.0
C948 C 0.50718 0.88392 0.88236 0.0
C949 C 0.49609 0.94663 0.8906 0.0
C950 C 0.50858 0.94761 0.92558 0.0
H951 H 0.48627 0.9159 0.84248 0.0
H952 H 0.48787 0.97034 0.87915 0.0
S953 S 0.53866 0.87107 0.97278 0.0
N954 N 0.52898 0.85511 0.93286 0.0
N955 N 0.5304 0.91297 0.9726 0.0
C956 C 0.51911 0.91578 0.93897 0.0
C957 C 0.51835 0.88424 0.91746 0.0
C958 C 0.53006 0.36988 0.6285 0.0
C959 C 0.53449 0.37158 0.6651 0.0
C960 C 0.53247 0.40026 0.60889 0.0
C961 C 0.53969 0.43388 0.62483 0.0
H962 H 0.5249 0.34476 0.61487 0.0
H963 H 0.5286 0.3973 0.58075 0.0
S964 S 0.55239 0.45229 0.72048 0.0
N965 N 0.54635 0.40925 0.71681 0.0
N966 N 0.54988 0.46651 0.68024 0.0
C967 C 0.5442 0.43583 0.66158 0.0
C968 C 0.54185 0.40469 0.68156 0.0
C969 C 0.51838 0.1332 0.59396 0.0
C970 C 0.50076 0.14015 0.62523 0.0
C971 C 0.50913 0.10347 0.57244 0.0
C972 C 0.48159 0.07919 0.58091 0.0
H973 H 0.54034 0.15022 0.58664 0.0
H974 H 0.52458 0.0992 0.54925 0.0
S975 S 0.42375 0.08889 0.65764 0.0
N976 N 0.45234 0.12258 0.6622 0.0
N977 N 0.43449 0.0672 0.62142 0.0
C978 C 0.46258 0.08705 0.61129 0.0
C979 C 0.47228 0.11729 0.63347 0.0
C980 C 0.92823 0.49391 0.62594 0.0
C981 C 0.90339 0.51819 0.63513 0.0
C982 C 0.94765 0.49692 0.59515 0.0
C983 C 0.94337 0.52455 0.57214 0.0
H984 H 0.93196 0.47173 0.64215 0.0
H985 H 0.9658 0.47686 0.58912 0.0
S986 S 0.88447 0.59754 0.58709 0.0
N987 N 0.87711 0.57218 0.62048 0.0
N988 N 0.91432 0.57848 0.56321 0.0
C989 C 0.91949 0.54977 0.58191 0.0
C990 C 0.89937 0.54647 0.61317 0.0
C991 C 0.12644 0.97164 0.60548 0.0
C992 C 0.11899 0.99692 0.63194 0.0
C993 C 0.1039 0.96437 0.57632 0.0
C994 C 0.07285 0.98208 0.57229 0.0
H995 H 0.15012 0.95743 0.60717 0.0
H996 H 0.11122 0.94518 0.5566 0.0
S997 S 0.04118 0.05073 0.63441 0.0
N998 N 0.07839 0.03974 0.65196 0.0
N999 N 0.03569 0.02582 0.59834 0.0
C1000 C 0.06479 0.0069 0.59913 0.0
C1001 C 0.08783 0.01436 0.62858 0.0
C1002 C 0.92021 0.49401 0.86301 0.0
C1003 C 0.88368 0.4913 0.86607 0.0
C1004 C 0.94221 0.49486 0.89278 0.0
C1005 C 0.92863 0.49272 0.92687 0.0
H1006 H 0.93181 0.49618 0.83739 0.0
H1007 H 0.9702 0.49775 0.88909 0.0
S1008 S 0.83439 0.48573 0.94865 0.0
N1009 N 0.83465 0.48631 0.9054 0.0
N1010 N 0.87585 0.48838 0.96151 0.0
C1011 C 0.89202 0.48941 0.93013 0.0
C1012 C 0.86961 0.48864 0.89969 0.0
C1013 C 0.12385 0.0426 0.86051 0.0
C1014 C 0.15993 0.03775 0.86242 0.0
C1015 C 0.10427 0.04819 0.89094 0.0
C1016 C 0.1199 0.04954 0.92468 0.0
H1017 H 0.11065 0.04189 0.8352 0.0
H1018 H 0.07638 0.05094 0.88804 0.0
S1019 S 0.21352 0.03686 0.94376 0.0
N1020 N 0.21059 0.03404 0.90051 0.0
N1021 N 0.17383 0.04435 0.95786 0.0
C1022 C 0.15612 0.04504 0.92689 0.0
C1023 C 0.17606 0.03911 0.89575 0.0
C1024 C 0.58649 0.86835 0.50321 0.0
C1025 C 0.62002 0.88032 0.51594 0.0
C1026 C 0.55701 0.88847 0.50788 0.0
C1027 C 0.55978 0.92155 0.5252 0.0
H1028 H 0.58306 0.84369 0.4884 0.0
H1029 H 0.53219 0.87879 0.49637 0.0
S1030 S 0.63987 0.96409 0.56655 0.0
N1031 N 0.65285 0.92661 0.54973 0.0
N1032 N 0.59782 0.96486 0.55665 0.0
C1033 C 0.59261 0.93355 0.53888 0.0
C1034 C 0.62258 0.91289 0.53472 0.0
C1035 C 0.64354 0.16609 0.97884 0.0
C1036 C 0.67624 0.15389 0.98854 0.0
C1037 C 0.61349 0.14312 0.97523 0.0
C1038 C 0.61515 0.10709 0.98109 0.0
H1039 H 0.64114 0.19363 0.97437 0.0
H1040 H 0.5887 0.15388 0.96893 0.0
S1041 S 0.69585 0.06176 1.0026 0.0
N1042 N 0.70919 0.10332 1.00066 0.0
N1043 N 0.65338 0.06025 0.99427 0.0
C1044 C 0.6482 0.09461 0.98944 0.0
C1045 C 0.67854 0.11792 0.99301 0.0
C1046 C 0.38245 0.42838 0.02496 0.0
C1047 C 0.38331 0.39229 0.01704 0.0
C1048 C 0.41321 0.4502 0.02561 0.0
C1049 C 0.44618 0.437 0.01796 0.0
H1050 H 0.3577 0.43994 0.03006 0.0
H1051 H 0.41101 0.47786 0.03172 0.0
S1052 S 0.46219 0.3436 0.99707 0.0
N1053 N 0.41941 0.34401 1.00187 0.0
N1054 N 0.47725 0.38451 1.00408 0.0
C1055 C 0.44721 0.40072 0.0104 0.0
C1056 C 0.41581 0.37856 0.00965 0.0
C1057 C 0.94093 0.15513 0.99543 0.0
C1058 C 0.91062 0.14793 0.01502 0.0
C1059 C 0.97121 0.13665 1.00004 0.0
C1060 C 0.97264 0.11048 0.02467 0.0
H1061 H 0.94094 0.17449 0.97548 0.0
H1062 H 0.99327 0.14193 0.98318 0.0
S1063 S 0.90177 0.08262 0.08416 0.0
N1064 N 0.88487 0.11371 0.06147 0.0
N1065 N 0.9419 0.07868 0.0696 0.0
C1066 C 0.94311 0.10352 0.04515 0.0
C1067 C 0.91208 0.12228 0.04043 0.0
C1068 C 0.03285 0.20734 0.1495 0.0
C1069 C 0.02036 0.18829 0.17793 0.0
C1070 C 0.04185 0.19029 0.11784 0.0
C1071 C 0.03812 0.15358 0.11316 0.0
H1072 H 0.03769 0.23544 0.15253 0.0
H1073 H 0.05418 0.20572 0.09778 0.0
S1074 S 1.00421 0.092 0.17875 0.0
N1075 N 1.00327 0.13092 0.19888 0.0
N1076 N 0.01878 0.09907 0.13897 0.0
C1077 C 0.02308 0.13455 0.14044 0.0
C1078 C 0.01469 0.15183 0.17299 0.0
C1079 C 0.97846 0.37818 0.15481 0.0
C1080 C 0.00862 0.361 0.16382 0.0
C1081 C 0.97588 0.39499 0.12326 0.0
C1082 C 1.00389 0.39717 0.09972 0.0
H1083 H 0.95615 0.37816 0.17197 0.0
H1084 H 0.95118 0.40605 0.11711 0.0
S1085 S 0.08918 0.35717 0.11064 0.0
N1086 N 0.06726 0.34652 0.14599 0.0
N1087 N 0.0631 0.38103 0.08781 0.0
C1088 C 0.0348 0.38135 0.10876 0.0
C1089 C 0.03707 0.36281 0.14059 0.0
C1090 C 0.98974 0.85833 0.32984 0.0
C1091 C 1.00132 0.82444 0.32342 0.0
C1092 C 0.99125 0.87408 0.3636 0.0
C1093 C 1.00539 0.85692 0.39204 0.0
H1094 H 0.98091 0.87339 0.3083 0.0
H1095 H 0.9842 0.90106 0.36671 0.0
S1096 S 0.03762 0.76711 0.38908 0.0
N1097 N 0.02531 0.77337 0.34827 0.0
N1098 N 0.02931 0.80332 0.41176 0.0
C1099 C 0.01552 0.82235 0.38617 0.0
C1100 C 0.01351 0.80616 0.35182 0.0
C1101 C 0.99152 0.68641 0.36217 0.0
C1102 C 0.00904 0.67197 0.33342 0.0
C1103 C 0.99099 0.67029 0.39443 0.0
C1104 C 0.00722 0.63851 0.39903 0.0
H1105 H 0.97738 0.70998 0.35949 0.0
H1106 H 0.97557 0.68155 0.4152 0.0
S1107 S 0.05998 0.59214 0.3328 0.0
N1108 N 0.04604 0.62614 0.31238 0.0
N1109 N 0.04443 0.59524 0.37289 0.0
C1110 C 0.02708 0.62521 0.37123 0.0
C1111 C 0.02792 0.64194 0.33838 0.0
C1112 C 0.16645 0.0154 0.18834 0.0
C1113 C 0.1979 1.00452 0.17409 0.0
C1114 C 0.13835 0.0231 0.16648 0.0
C1115 C 0.14068 0.01984 0.12971 0.0
H1116 H 0.16441 0.02009 0.2164 0.0
H1117 H 0.11581 0.0346 0.17827 0.0
S1118 S 0.21675 0.99034 0.07973 0.0
N1119 N 0.22935 0.98945 0.12121 0.0
N1120 N 0.1761 1.00283 0.08028 0.0
C1121 C 0.17097 1.00629 0.11538 0.0
C1122 C 0.19983 0.99913 0.13754 0.0
C1123 C 0.86618 0.53259 0.1468 0.0
C1124 C 0.86093 0.51221 0.17639 0.0
C1125 C 0.89788 0.53251 0.12847 0.0
C1126 C 0.92558 0.51248 0.13949 0.0
H1127 H 0.84497 0.54706 0.13661 0.0
H1128 H 0.89965 0.54611 0.10415 0.0
S1129 S 0.92712 0.46056 0.21975 0.0
N1130 N 0.88738 0.47526 0.21843 0.0
N1131 N 0.9473 0.47649 0.18543 0.0
C1132 C 0.9217 0.49509 0.17125 0.0
C1133 C 0.88924 0.4944 0.1892 0.0
C1134 C 0.13742 0.98158 0.31765 0.0
C1135 C 0.16596 0.99854 0.33594 0.0
C1136 C 0.10441 0.97793 0.33297 0.0
C1137 C 0.09858 0.99069 0.36745 0.0
H1138 H 0.14097 0.96983 0.29174 0.0
H1139 H 0.08398 0.96254 0.31867 0.0
S1140 S 0.16368 0.04124 0.42474 0.0
N1141 N 0.18541 0.03165 0.38883 0.0
N1142 N 0.12345 0.02455 0.41783 0.0
C1143 C 0.12612 0.01046 0.38482 0.0
C1144 C 0.15982 0.01427 0.36909 0.0
C1145 C 0.85739 0.48003 0.36102 0.0
C1146 C 0.85031 0.49448 0.3285 0.0
C1147 C 0.89067 0.48455 0.377 0.0
C1148 C 0.91778 0.50447 0.36139 0.0
H1149 H 0.83648 0.46712 0.37529 0.0
H1150 H 0.89399 0.47542 0.40328 0.0
S1151 S 0.91322 0.54481 0.27466 0.0
N1152 N 0.8736 0.52682 0.27998 0.0
N1153 N 0.93611 0.53546 0.30971 0.0
C1154 C 0.91165 0.51655 0.32753 0.0
C1155 C 0.87784 0.51187 0.31135 0.0
C1156 C 0.17084 0.19918 0.985 0.0
C1157 C 0.20759 0.20064 0.98576 0.0
C1158 C 0.15165 0.16734 0.98883 0.0
C1159 C 0.1687 0.13623 0.99411 0.0
H1160 H 0.15701 0.22312 0.98407 0.0
H1161 H 0.12358 0.1679 0.99187 0.0
S1162 S 0.26392 0.12536 0.98908 0.0
N1163 N 0.25996 0.16774 0.98477 0.0
N1164 N 0.22394 0.1081 0.99386 0.0
C1165 C 0.20519 0.13698 0.99098 0.0
C1166 C 0.22467 0.16923 0.9864 0.0
C1167 C 0.18254 0.86705 0.48091 0.0
C1168 C 0.16749 0.83763 0.49693 0.0
C1169 C 0.16499 0.89817 0.47963 0.0
C1170 C 0.1312 0.90087 0.49349 0.0
H1171 H 0.20763 0.86563 0.46827 0.0
H1172 H 0.17683 0.91935 0.46511 0.0
S1173 S 0.08239 0.83244 0.5422 0.0
N1174 N 0.11886 0.81418 0.53056 0.0
N1175 N 0.08523 0.87239 0.5273 0.0
C1176 C 0.11716 0.87255 0.51218 0.0
C1177 C 0.13535 0.84091 0.51387 0.0
C1178 C 0.8829 0.66304 0.50885 0.0
C1179 C 0.84764 0.66377 0.49832 0.0
C1180 C 0.90103 0.63204 0.50543 0.0
C1181 C 0.88431 0.60051 0.49206 0.0
H1182 H 0.89709 0.687 0.5178 0.0
H1183 H 0.92887 0.63338 0.51109 0.0
S1184 S 0.79075 0.58779 0.46582 0.0
N1185 N 0.79575 0.62979 0.47739 0.0
N1186 N 0.8294 0.57151 0.47178 0.0
C1187 C 0.84833 0.60052 0.48407 0.0
C1188 C 0.83011 0.63212 0.48699 0.0
C1189 C 0.35739 0.83797 0.4818 0.0
C1190 C 0.32279 0.83056 0.49229 0.0
C1191 C 0.37309 0.87187 0.48595 0.0
C1192 C 0.35506 0.89938 0.50172 0.0
H1193 H 0.37306 0.81701 0.47206 0.0
H1194 H 0.40055 0.87565 0.47988 0.0
S1195 S 0.26277 0.89405 0.53043 0.0
N1196 N 0.26997 0.85387 0.51596 0.0
N1197 N 0.29961 0.91743 0.5248 0.0
C1198 C 0.31969 0.89267 0.51017 0.0
C1199 C 0.30364 0.85825 0.50551 0.0
C1200 C 0.49628 0.64742 0.70798 0.0
C1201 C 0.50356 0.68388 0.7088 0.0
C1202 C 0.50191 0.62658 0.6775 0.0
C1203 C 0.51582 0.64146 0.64718 0.0
H1204 H 0.48853 0.63466 0.7317 0.0
H1205 H 0.49906 0.59838 0.67902 0.0
S1206 S 0.53521 0.73614 0.63497 0.0
N1207 N 0.52097 0.73436 0.67555 0.0
N1208 N 0.53378 0.69527 0.61923 0.0
C1209 C 0.52062 0.67817 0.64708 0.0
C1210 C 0.51406 0.69934 0.67768 0.0
C1211 C 0.51125 0.87343 0.65624 0.0
C1212 C 0.49489 0.84106 0.66453 0.0
C1213 C 0.50543 0.88812 0.62366 0.0
C1214 C 0.48297 0.87097 0.59826 0.0
H1215 H 0.52684 0.88858 0.67586 0.0
H1216 H 0.5161 0.91442 0.61971 0.0
S1217 S 0.44067 0.78191 0.60408 0.0
N1218 N 0.46044 0.7896 0.64249 0.0
N1219 N 0.44939 0.81711 0.5814 0.0
C1220 C 0.46962 0.8369 0.60489 0.0
C1221 C 0.47542 0.82208 0.63806 0.0
C1222 C 0.55249 0.34102 0.8984 0.0
C1223 C 0.53201 0.35378 0.87141 0.0
C1224 C 0.55273 0.35634 0.93233 0.0
C1225 C 0.53273 0.38537 0.94076 0.0
H1226 H 0.56911 0.31942 0.89309 0.0
H1227 H 0.57052 0.34666 0.95154 0.0
S1228 S 0.47096 0.42578 0.88059 0.0
N1229 N 0.48866 0.39509 0.8561 0.0
N1230 N 0.48846 0.42336 0.92008 0.0
C1231 C 0.50988 0.39649 0.91474 0.0
C1232 C 0.50984 0.381 0.88 0.0
C1233 C 0.53341 0.21251 0.874 0.0
C1234 C 0.54128 0.19588 0.84187 0.0
C1235 C 0.53104 0.19362 0.9048 0.0
C1236 C 0.5366 0.15745 0.90458 0.0
H1237 H 0.52751 0.23991 0.875 0.0
H1238 H 0.52228 0.20684 0.92846 0.0
S1239 S 0.55993 0.10246 0.82709 0.0
N1240 N 0.55617 0.14182 0.81167 0.0
N1241 N 0.5524 0.10646 0.86953 0.0
C1242 C 0.54683 0.14119 0.87294 0.0
C1243 C 0.54874 0.16031 0.84152 0.0
C1244 C 0.68112 0.48487 0.67056 0.0
C1245 C 0.68777 0.49321 0.70633 0.0
C1246 C 0.64891 0.49139 0.65488 0.0
C1247 C 0.62291 0.50784 0.67415 0.0
H1248 H 0.70177 0.47565 0.65401 0.0
H1249 H 0.64606 0.48731 0.62672 0.0
S1250 S 0.62607 0.53084 0.76947 0.0
N1251 N 0.66435 0.51442 0.76144 0.0
N1252 N 0.60456 0.52889 0.73157 0.0
C1253 C 0.62832 0.51382 0.71046 0.0
C1254 C 0.6607 0.50622 0.72658 0.0
C1255 C 0.36668 1.00253 0.69501 0.0
C1256 C 0.33521 0.01346 0.68094 0.0
C1257 C 0.39532 0.9964 0.67336 0.0
C1258 C 0.39359 1.00153 0.63702 0.0
H1259 H 0.36867 0.99743 0.72267 0.0
H1260 H 0.41837 0.98586 0.6848 0.0
S1261 S 0.31686 0.0303 0.58772 0.0
N1262 N 0.30379 0.02924 0.62874 0.0
N1263 N 0.35786 0.01887 0.58827 0.0
C1264 C 0.36269 0.01399 0.62303 0.0
C1265 C 0.33338 0.01953 0.64492 0.0
C1266 C 0.66235 0.52218 0.87422 0.0
C1267 C 0.67666 0.48994 0.86367 0.0
C1268 C 0.63125 0.52368 0.89347 0.0
C1269 C 0.61136 0.49319 0.90095 0.0
H1270 H 0.6749 0.54691 0.8677 0.0
H1271 H 0.6226 0.54902 0.90219 0.0
S1272 S 0.63522 0.40166 0.87986 0.0
N1273 N 0.66828 0.42632 0.866 0.0
N1274 N 0.60727 0.42946 0.89521 0.0
C1275 C 0.62425 0.46079 0.88943 0.0
C1276 C 0.65728 0.45911 0.87253 0.0
C1277 C 0.39333 0.03101 0.82537 0.0
C1278 C 0.36406 0.0174 0.8431 0.0
C1279 C 0.42645 0.03372 0.84147 0.0
C1280 C 0.43142 0.02348 0.87615 0.0
H1281 H 0.39027 0.04129 0.79952 0.0
H1282 H 0.4476 0.04717 0.82796 0.0
S1283 S 0.36416 0.98069 0.9315 0.0
N1284 N 0.34289 0.98893 0.89508 0.0
N1285 N 0.40517 0.99455 0.9257 0.0
C1286 C 0.40313 1.00627 0.89264 0.0
C1287 C 0.36932 1.00334 0.87611 0.0
C1288 C 0.65455 0.66412 0.50364 0.0
C1289 C 0.69051 0.67019 0.5112 0.0
C1290 C 0.63573 0.63479 0.51617 0.0
C1291 C 0.65202 0.61133 0.53772 0.0
H1292 H 0.6403 0.68346 0.49022 0.0
H1293 H 0.60766 0.63253 0.51194 0.0
S1294 S 0.74629 0.61363 0.56185 0.0
N1295 N 0.74231 0.64835 0.53805 0.0
N1296 N 0.70676 0.59435 0.56329 0.0
C1297 C 0.68838 0.61595 0.54348 0.0
C1298 C 0.70764 0.64514 0.52986 0.0
C1299 C 0.66567 0.37421 0.97714 0.0
C1300 C 0.6854 0.3631 1.00544 0.0
C1301 C 0.65049 0.40645 0.97846 0.0
C1302 C 0.65248 0.4288 0.00864 0.0
H1303 H 0.66153 0.35787 0.95351 0.0
H1304 H 0.63616 0.41351 0.95557 0.0
S1305 S 0.70133 0.41332 0.09029 0.0
N1306 N 0.70775 0.37854 0.06464 0.0
N1307 N 0.67583 0.43797 0.06769 0.0
C1308 C 0.67143 0.41815 0.03758 0.0
C1309 C 0.68848 0.38559 0.0359 0.0
C1310 C 0.41328 0.19503 0.00703 0.0
C1311 C 0.37844 0.19351 0.01817 0.0
C1312 C 0.43246 0.16482 1.00467 0.0
C1313 C 0.4171 0.13175 0.01194 0.0
H1314 H 0.4253 0.21951 0.99869 0.0
H1315 H 0.45853 0.167 0.99413 0.0
S1316 S 0.32954 0.11466 0.04922 0.0
N1317 N 0.33165 0.15723 0.04301 0.0
N1318 N 0.36691 0.09991 0.03529 0.0
C1319 C 0.38329 0.13023 0.02557 0.0
C1320 C 0.36419 0.16128 0.02954 0.0
C1321 C 0.87534 0.35945 0.98838 0.0
C1322 C 0.84038 0.35522 0.99902 0.0
C1323 C 0.894 0.39184 0.99253 0.0
C1324 C 0.87881 0.42084 0.00878 0.0
H1325 H 0.88885 0.33716 0.97813 0.0
H1326 H 0.92145 0.39321 0.98589 0.0
S1327 S 0.78723 0.42398 0.03879 0.0
N1328 N 0.79036 0.38327 0.02358 0.0
N1329 N 0.826 0.44386 0.03331 0.0
C1330 C 0.84337 0.41733 0.01807 0.0
C1331 C 0.82411 0.38453 0.01298 0.0
loop_
_geom_bond_atom_site_label_1
_geom_bond_atom_site_label_2
_geom_bond_distance
_geom_bond_site_symmetry_2
_ccdc_geom_bond_type
C0 C1 1.443 . S
C0 N4 1.376 . S
C0 C38 1.389 . S
C1 C0 1.443 . S
C1 C2 1.340 . S
C1 H41 0.951 . S
C2 C1 1.340 . S
C2 C3 1.439 . S
C2 H42 0.950 . S
C3 C2 1.439 . S
C3 N4 1.374 . S
C3 C37 1.395 . S
N4 C0 1.376 . S
N4 C3 1.374 . S
N4 Co5 2.008 1_655 S
Co5 N4 2.008 1_455 S
Co5 N6 1.995 1_455 S
Co5 N11 2.008 . S
Co5 N16 1.995 . S
Co5 N21 2.282 . S
Co5 N27 2.282 . S
N6 Co5 1.995 1_655 S
N6 C7 1.376 . S
N6 C10 1.383 1_655 S
C7 N6 1.376 . S
C7 C8 1.446 . S
C7 C37 1.391 . S
C8 C7 1.446 . S
C8 C9 1.339 . S
C8 H43 0.949 . S
C9 C8 1.339 . S
C9 C10 1.439 1_655 S
C9 H44 0.950 . S
C10 N6 1.383 1_455 S
C10 C9 1.439 1_455 S
C10 C39 1.392 . S
N11 Co5 2.008 . S
N11 C12 1.376 . S
N11 C15 1.374 . S
C12 N11 1.376 . S
C12 C13 1.443 . S
C12 C39 1.389 . S
C13 C12 1.443 . S
C13 C14 1.340 . S
C13 H45 0.951 . S
C14 C13 1.340 . S
C14 C15 1.439 . S
C14 H46 0.950 . S
C15 N11 1.374 . S
C15 C14 1.439 . S
C15 C40 1.395 . S
N16 Co5 1.995 . S
N16 C17 1.376 . S
N16 C20 1.383 . S
C17 N16 1.376 . S
C17 C18 1.446 . S
C17 C40 1.391 . S
C18 C17 1.446 . S
C18 C19 1.339 . S
C18 H47 0.949 . S
C19 C18 1.339 . S
C19 C20 1.439 . S
C19 H48 0.950 . S
C20 N16 1.383 . S
C20 C19 1.439 . S
C20 C38 1.392 1_455 S
N21 Co5 2.282 . S
N21 C24 1.332 . S
N21 C26 1.332 1_455 S
C22 C23 1.386 . S
C22 C25 1.388 . S
C23 C22 1.386 . S
C23 C24 1.382 . S
C23 H49 0.950 . S
C24 N21 1.332 . S
C24 C23 1.382 . S
C24 H35 0.952 . S
C25 C22 1.388 . S
C25 C26 1.382 1_455 S
C25 H50 0.950 1_455 S
C26 N21 1.332 1_655 S
C26 C25 1.382 1_655 S
C26 H36 0.948 . S
N27 Co5 2.282 . S
N27 C31 1.332 1_455 S
N27 C32 1.332 . S
C28 C29 1.388 1_455 S
C28 C32 1.382 . S
C28 H51 0.950 . S
C29 C28 1.388 1_655 S
C29 C30 1.386 . S
C30 C29 1.386 . S
C30 C31 1.382 . S
C30 H52 0.950 . S
C31 N27 1.332 1_655 S
C31 C30 1.382 . S
C31 H33 0.952 . S
C32 N27 1.332 . S
C32 C28 1.382 . S
C32 H34 0.948 . S
H33 C31 0.952 . S
H34 C32 0.948 . S
H35 C24 0.952 . S
H36 C26 0.948 . S
C37 C3 1.395 . S
C37 C7 1.391 . S
C38 C0 1.389 . S
C38 C20 1.392 1_655 S
C39 C10 1.392 . S
C39 C12 1.389 . S
C40 C15 1.395 . S
C40 C17 1.391 . S
H41 C1 0.951 . S
H42 C2 0.950 . S
H43 C8 0.949 . S
H44 C9 0.950 . S
H45 C13 0.951 . S
H46 C14 0.950 . S
H47 C18 0.949 . S
H48 C19 0.950 . S
H49 C23 0.950 . S
H50 C25 0.950 1_655 S
H51 C28 0.950 . S
H52 C30 0.950 . S
C53 C54 1.443 . S
C53 N57 1.376 . S
C53 C91 1.389 . S
C54 C53 1.443 . S
C54 C55 1.340 . S
C54 H94 0.951 . S
C55 C54 1.340 . S
C55 C56 1.439 . S
C55 H95 0.950 . S
C56 C55 1.439 . S
C56 N57 1.374 . S
C56 C90 1.395 . S
N57 C53 1.376 . S
N57 C56 1.374 . S
N57 Co58 2.008 1_655 S
Co58 N57 2.008 1_455 S
Co58 N59 1.995 1_455 S
Co58 N64 2.008 . S
Co58 N69 1.995 . S
Co58 N74 2.282 . S
Co58 N80 2.282 1_455 S
N59 Co58 1.995 1_655 S
N59 C60 1.376 . S
N59 C63 1.383 . S
C60 N59 1.376 . S
C60 C61 1.446 . S
C60 C90 1.391 . S
C61 C60 1.446 . S
C61 C62 1.339 . S
C61 H96 0.949 . S
C62 C61 1.339 . S
C62 C63 1.439 . S
C62 H97 0.950 . S
C63 N59 1.383 . S
C63 C62 1.439 . S
C63 C92 1.392 1_655 S
N64 Co58 2.008 . S
N64 C65 1.376 . S
N64 C68 1.374 . S
C65 N64 1.376 . S
C65 C66 1.443 . S
C65 C92 1.389 . S
C66 C65 1.443 . S
C66 C67 1.340 . S
C66 H98 0.951 . S
C67 C66 1.340 . S
C67 C68 1.439 . S
C67 H99 0.950 . S
C68 N64 1.374 . S
C68 C67 1.439 . S
C68 C93 1.395 . S
N69 Co58 1.995 . S
N69 C70 1.376 . S
N69 C73 1.383 . S
C70 N69 1.376 . S
C70 C71 1.446 . S
C70 C93 1.391 . S
C71 C70 1.446 . S
C71 C72 1.339 . S
C71 H100 0.949 . S
C72 C71 1.339 . S
C72 C73 1.439 . S
C72 H101 0.950 . S
C73 N69 1.383 . S
C73 C72 1.439 . S
C73 C91 1.392 1_455 S
N74 Co58 2.282 . S
N74 C77 1.332 . S
N74 C79 1.332 1_455 S
C75 C76 1.386 . S
C75 C78 1.384 1_455 S
C76 C75 1.386 . S
C76 C77 1.382 . S
C76 H102 0.950 . S
C77 N74 1.332 . S
C77 C76 1.382 . S
C77 H88 0.952 . S
C78 C75 1.384 1_655 S
C78 C79 1.383 . S
C78 H103 0.954 . S
C79 N74 1.332 1_655 S
C79 C78 1.383 . S
C79 H89 0.948 . S
N80 Co58 2.282 1_655 S
N80 C84 1.332 . S
N80 C85 1.332 1_655 S
C81 C82 1.388 1_455 S
C81 C85 1.382 . S
C81 H104 0.950 . S
C82 C81 1.388 1_655 S
C82 C83 1.386 . S
C83 C82 1.386 . S
C83 C84 1.382 . S
C83 H105 0.950 . S
C84 N80 1.332 . S
C84 C83 1.382 . S
C84 H86 0.952 . S
C85 N80 1.332 1_455 S
C85 C81 1.382 . S
C85 H87 0.948 . S
H86 C84 0.952 . S
H87 C85 0.948 . S
H88 C77 0.952 . S
H89 C79 0.948 . S
C90 C56 1.395 . S
C90 C60 1.391 . S
C91 C53 1.389 . S
C91 C73 1.392 1_655 S
C92 C63 1.392 1_455 S
C92 C65 1.389 . S
C93 C68 1.395 . S
C93 C70 1.391 . S
H94 C54 0.951 . S
H95 C55 0.950 . S
H96 C61 0.949 . S
H97 C62 0.950 . S
H98 C66 0.951 . S
H99 C67 0.950 . S
H100 C71 0.949 . S
H101 C72 0.950 . S
H102 C76 0.950 . S
H103 C78 0.954 . S
H104 C81 0.950 . S
H105 C83 0.950 . S
C106 C107 1.443 . S
C106 N110 1.376 . S
C106 C144 1.389 . S
C107 C106 1.443 . S
C107 C108 1.340 . S
C107 H147 0.951 . S
C108 C107 1.340 . S
C108 C109 1.439 . S
C108 H148 0.950 . S
C109 C108 1.439 . S
C109 N110 1.374 . S
C109 C143 1.395 . S
N110 C106 1.376 . S
N110 C109 1.374 . S
N110 Co111 2.008 1_565 S
Co111 N110 2.008 1_545 S
Co111 N112 1.995 1_545 S
Co111 N117 2.008 . S
Co111 N122 1.995 . S
Co111 N127 2.282 . S
Co111 N133 2.282 . S
N112 Co111 1.995 1_565 S
N112 C113 1.376 . S
N112 C116 1.383 . S
C113 N112 1.376 . S
C113 C114 1.446 . S
C113 C143 1.391 . S
C114 C113 1.446 . S
C114 C115 1.339 . S
C114 H149 0.949 . S
C115 C114 1.339 . S
C115 C116 1.439 . S
C115 H150 0.950 . S
C116 N112 1.383 . S
C116 C115 1.439 . S
C116 C145 1.392 1_565 S
N117 Co111 2.008 . S
N117 C118 1.376 . S
N117 C121 1.374 . S
C118 N117 1.376 . S
C118 C119 1.443 . S
C118 C145 1.389 . S
C119 C118 1.443 . S
C119 C120 1.340 . S
C119 H151 0.951 . S
C120 C119 1.340 . S
C120 C121 1.439 . S
C120 H152 0.950 . S
C121 N117 1.374 . S
C121 C120 1.439 . S
C121 C146 1.395 . S
N122 Co111 1.995 . S
N122 C123 1.376 . S
N122 C126 1.383 . S
C123 N122 1.376 . S
C123 C124 1.446 . S
C123 C146 1.391 . S
C124 C123 1.446 . S
C124 C125 1.339 . S
C124 H153 0.949 . S
C125 C124 1.339 . S
C125 C126 1.439 . S
C125 H154 0.950 . S
C126 N122 1.383 . S
C126 C125 1.439 . S
C126 C144 1.392 1_545 S
N127 Co111 2.282 . S
N127 C130 1.332 . S
N127 C132 1.332 1_545 S
C128 C129 1.386 . S
C128 C131 1.388 . S
C129 C128 1.386 . S
C129 C130 1.382 . S
C129 H155 0.950 . S
C130 N127 1.332 . S
C130 C129 1.382 . S
C130 H141 0.952 . S
C131 C128 1.388 . S
C131 C132 1.382 1_545 S
C131 H156 0.950 1_545 S
C132 N127 1.332 1_565 S
C132 C131 1.382 1_565 S
C132 H142 0.948 . S
N133 Co111 2.282 . S
N133 C137 1.332 1_545 S
N133 C138 1.332 . S
C134 C135 1.388 1_545 S
C134 C138 1.382 . S
C134 H157 0.950 . S
C135 C134 1.388 1_565 S
C135 C136 1.386 . S
C136 C135 1.386 . S
C136 C137 1.382 . S
C136 H158 0.950 . S
C137 N133 1.332 1_565 S
C137 C136 1.382 . S
C137 H139 0.952 . S
C138 N133 1.332 . S
C138 C134 1.382 . S
C138 H140 0.948 . S
H139 C137 0.952 . S
H140 C138 0.948 . S
H141 C130 0.952 . S
H142 C132 0.948 . S
C143 C109 1.395 . S
C143 C113 1.391 . S
C144 C106 1.389 . S
C144 C126 1.392 1_565 S
C145 C116 1.392 1_545 S
C145 C118 1.389 . S
C146 C121 1.395 . S
C146 C123 1.391 . S
H147 C107 0.951 . S
H148 C108 0.950 . S
H149 C114 0.949 . S
H150 C115 0.950 . S
H151 C119 0.951 . S
H152 C120 0.950 . S
H153 C124 0.949 . S
H154 C125 0.950 . S
H155 C129 0.950 . S
H156 C131 0.950 1_565 S
H157 C134 0.950 . S
H158 C136 0.950 . S
C159 C160 1.443 . S
C159 N163 1.376 . S
C159 C197 1.389 . S
C160 C159 1.443 . S
C160 C161 1.340 . S
C160 H200 0.951 . S
C161 C160 1.340 . S
C161 C162 1.439 . S
C161 H201 0.950 . S
C162 C161 1.439 . S
C162 N163 1.374 . S
C162 C196 1.395 . S
N163 C159 1.376 . S
N163 C162 1.374 . S
N163 Co164 2.008 . S
Co164 N163 2.008 . S
Co164 N165 1.995 . S
Co164 N170 2.008 . S
Co164 N175 1.995 . S
Co164 N180 2.282 . S
Co164 N186 2.282 . S
N165 Co164 1.995 . S
N165 C166 1.376 . S
N165 C169 1.383 . S
C166 N165 1.376 . S
C166 C167 1.446 . S
C166 C196 1.391 . S
C167 C166 1.446 . S
C167 C168 1.339 . S
C167 H202 0.949 . S
C168 C167 1.339 . S
C168 C169 1.439 . S
C168 H203 0.950 . S
C169 N165 1.383 . S
C169 C168 1.439 . S
C169 C198 1.392 . S
N170 Co164 2.008 . S
N170 C171 1.376 . S
N170 C174 1.374 . S
C171 N170 1.376 . S
C171 C172 1.443 . S
C171 C198 1.389 . S
C172 C171 1.443 . S
C172 C173 1.340 . S
C172 H204 0.951 . S
C173 C172 1.340 . S
C173 C174 1.439 . S
C173 H205 0.950 . S
C174 N170 1.374 . S
C174 C173 1.439 . S
C174 C199 1.395 . S
N175 Co164 1.995 . S
N175 C176 1.376 . S
N175 C179 1.383 . S
C176 N175 1.376 . S
C176 C177 1.446 . S
C176 C199 1.391 . S
C177 C176 1.446 . S
C177 C178 1.339 . S
C177 H206 0.949 . S
C178 C177 1.339 . S
C178 C179 1.439 . S
C178 H207 0.950 . S
C179 N175 1.383 . S
C179 C178 1.439 . S
C179 C197 1.392 . S
N180 Co164 2.282 . S
N180 C183 1.332 . S
N180 C185 1.332 . S
C181 C182 1.386 . S
C181 C184 1.388 . S
C182 C181 1.386 . S
C182 C183 1.382 . S
C182 H208 0.950 . S
C183 N180 1.332 . S
C183 C182 1.382 . S
C183 H194 0.952 . S
C184 C181 1.388 . S
C184 C185 1.382 . S
C184 H209 0.950 . S
C185 N180 1.332 . S
C185 C184 1.382 . S
C185 H195 0.948 . S
N186 Co164 2.282 . S
N186 C190 1.332 . S
N186 C191 1.332 . S
C187 C188 1.388 . S
C187 C191 1.382 . S
C187 H210 0.950 . S
C188 C187 1.388 . S
C188 C189 1.386 . S
C189 C188 1.386 . S
C189 C190 1.382 . S
C189 H211 0.950 . S
C190 N186 1.332 . S
C190 C189 1.382 . S
C190 H192 0.952 . S
C191 N186 1.332 . S
C191 C187 1.382 . S
C191 H193 0.948 . S
H192 C190 0.952 . S
H193 C191 0.948 . S
H194 C183 0.952 . S
H195 C185 0.948 . S
C196 C162 1.395 . S
C196 C166 1.391 . S
C197 C159 1.389 . S
C197 C179 1.392 . S
C198 C169 1.392 . S
C198 C171 1.389 . S
C199 C174 1.395 . S
C199 C176 1.391 . S
H200 C160 0.951 . S
H201 C161 0.950 . S
H202 C167 0.949 . S
H203 C168 0.950 . S
H204 C172 0.951 . S
H205 C173 0.950 . S
H206 C177 0.949 . S
H207 C178 0.950 . S
H208 C182 0.950 . S
H209 C184 0.950 . S
H210 C187 0.950 . S
H211 C189 0.950 . S
C212 C213 1.443 . S
C212 N216 1.376 . S
C212 C250 1.389 . S
C213 C212 1.443 . S
C213 C214 1.340 . S
C213 H253 0.951 . S
C214 C213 1.340 . S
C214 C215 1.439 . S
C214 H254 0.950 . S
C215 C214 1.439 . S
C215 N216 1.374 . S
C215 C249 1.395 . S
N216 C212 1.376 . S
N216 C215 1.374 . S
N216 Co217 2.008 1_556 S
Co217 N216 2.008 1_554 S
Co217 N218 1.995 1_554 S
Co217 N223 2.008 . S
Co217 N228 1.995 . S
Co217 N233 2.282 . S
Co217 N239 2.282 1_554 S
N218 Co217 1.995 1_556 S
N218 C219 1.376 . S
N218 C222 1.383 . S
C219 N218 1.376 . S
C219 C220 1.446 . S
C219 C249 1.391 . S
C220 C219 1.446 . S
C220 C221 1.339 . S
C220 H255 0.949 . S
C221 C220 1.339 . S
C221 C222 1.439 . S
C221 H256 0.950 . S
C222 N218 1.383 . S
C222 C221 1.439 . S
C222 C251 1.392 1_556 S
N223 Co217 2.008 . S
N223 C224 1.376 . S
N223 C227 1.374 . S
C224 N223 1.376 . S
C224 C225 1.443 . S
C224 C251 1.389 . S
C225 C224 1.443 . S
C225 C226 1.340 . S
C225 H257 0.951 . S
C226 C225 1.340 . S
C226 C227 1.439 . S
C226 H258 0.950 . S
C227 N223 1.374 . S
C227 C226 1.439 . S
C227 C252 1.395 . S
N228 Co217 1.995 . S
N228 C229 1.376 . S
N228 C232 1.383 . S
C229 N228 1.376 . S
C229 C230 1.446 . S
C229 C252 1.391 . S
C230 C229 1.446 . S
C230 C231 1.339 . S
C230 H259 0.949 . S
C231 C230 1.339 . S
C231 C232 1.439 . S
C231 H260 0.950 . S
C232 N228 1.383 . S
C232 C231 1.439 . S
C232 C250 1.392 1_554 S
N233 Co217 2.282 . S
N233 C236 1.332 . S
N233 C238 1.332 1_554 S
C234 C235 1.386 . S
C234 C237 1.388 1_554 S
C235 C234 1.386 . S
C235 C236 1.382 . S
C235 H261 0.950 . S
C236 N233 1.332 . S
C236 C235 1.382 . S
C236 H247 0.952 . S
C237 C234 1.388 1_556 S
C237 C238 1.382 . S
C237 H262 0.950 . S
C238 N233 1.332 1_556 S
C238 C237 1.382 . S
C238 H248 0.948 . S
N239 Co217 2.282 1_556 S
N239 C243 1.332 . S
N239 C244 1.332 1_556 S
C240 C241 1.388 1_554 S
C240 C244 1.382 . S
C240 H263 0.950 . S
C241 C240 1.388 1_556 S
C241 C242 1.386 . S
C242 C241 1.386 . S
C242 C243 1.382 . S
C242 H264 0.950 . S
C243 N239 1.332 . S
C243 C242 1.382 . S
C243 H245 0.952 . S
C244 N239 1.332 1_554 S
C244 C240 1.382 . S
C244 H246 0.948 . S
H245 C243 0.952 . S
H246 C244 0.948 . S
H247 C236 0.952 . S
H248 C238 0.948 . S
C249 C215 1.395 . S
C249 C219 1.391 . S
C250 C212 1.389 . S
C250 C232 1.392 1_556 S
C251 C222 1.392 1_554 S
C251 C224 1.389 . S
C252 C227 1.395 . S
C252 C229 1.391 . S
H253 C213 0.951 . S
H254 C214 0.950 . S
H255 C220 0.949 . S
H256 C221 0.950 . S
H257 C225 0.951 . S
H258 C226 0.950 . S
H259 C230 0.949 . S
H260 C231 0.950 . S
H261 C235 0.950 . S
H262 C237 0.950 . S
H263 C240 0.950 . S
H264 C242 0.950 . S
C265 C266 1.443 . S
C265 N269 1.376 . S
C265 C303 1.389 . S
C266 C265 1.443 . S
C266 C267 1.340 . S
C266 H306 0.951 . S
C267 C266 1.340 . S
C267 C268 1.439 . S
C267 H307 0.950 . S
C268 C267 1.439 . S
C268 N269 1.374 . S
C268 C302 1.395 . S
N269 C265 1.376 . S
N269 C268 1.374 . S
N269 Co270 2.008 . S
Co270 N269 2.008 . S
Co270 N271 1.995 . S
Co270 N276 2.008 . S
Co270 N281 1.995 . S
Co270 N286 2.282 . S
Co270 N292 2.282 . S
N271 Co270 1.995 . S
N271 C272 1.376 . S
N271 C275 1.383 . S
C272 N271 1.376 . S
C272 C273 1.446 . S
C272 C302 1.391 . S
C273 C272 1.446 . S
C273 C274 1.339 . S
C273 H308 0.949 . S
C274 C273 1.339 . S
C274 C275 1.439 . S
C274 H309 0.950 . S
C275 N271 1.383 . S
C275 C274 1.439 . S
C275 C304 1.392 . S
N276 Co270 2.008 . S
N276 C277 1.376 . S
N276 C280 1.374 . S
C277 N276 1.376 . S
C277 C278 1.443 . S
C277 C304 1.389 . S
C278 C277 1.443 . S
C278 C279 1.340 . S
C278 H310 0.951 . S
C279 C278 1.340 . S
C279 C280 1.439 . S
C279 H311 0.950 . S
C280 N276 1.374 . S
C280 C279 1.439 . S
C280 C305 1.395 . S
N281 Co270 1.995 . S
N281 C282 1.376 . S
N281 C285 1.383 . S
C282 N281 1.376 . S
C282 C283 1.446 . S
C282 C305 1.391 . S
C283 C282 1.446 . S
C283 C284 1.339 . S
C283 H312 0.949 . S
C284 C283 1.339 . S
C284 C285 1.439 . S
C284 H313 0.950 . S
C285 N281 1.383 . S
C285 C284 1.439 . S
C285 C303 1.392 . S
N286 Co270 2.282 . S
N286 C289 1.332 . S
N286 C291 1.332 . S
C287 C288 1.386 . S
C287 C290 1.388 . S
C288 C287 1.386 . S
C288 C289 1.382 . S
C288 H314 0.950 . S
C289 N286 1.332 . S
C289 C288 1.382 . S
C289 H300 0.952 . S
C290 C287 1.388 . S
C290 C291 1.382 . S
C290 H315 0.950 . S
C291 N286 1.332 . S
C291 C290 1.382 . S
C291 H301 0.948 . S
N292 Co270 2.282 . S
N292 C296 1.332 . S
N292 C297 1.332 . S
C293 C294 1.388 . S
C293 C297 1.382 . S
C293 H316 0.950 . S
C294 C293 1.388 . S
C294 C295 1.386 . S
C295 C294 1.386 . S
C295 C296 1.382 . S
C295 H317 0.950 . S
C296 N292 1.332 . S
C296 C295 1.382 . S
C296 H298 0.952 . S
C297 N292 1.332 . S
C297 C293 1.382 . S
C297 H299 0.948 . S
H298 C296 0.952 . S
H299 C297 0.948 . S
H300 C289 0.952 . S
H301 C291 0.948 . S
C302 C268 1.395 . S
C302 C272 1.391 . S
C303 C265 1.389 . S
C303 C285 1.392 . S
C304 C275 1.392 . S
C304 C277 1.389 . S
C305 C280 1.395 . S
C305 C282 1.391 . S
H306 C266 0.951 . S
H307 C267 0.950 . S
H308 C273 0.949 . S
H309 C274 0.950 . S
H310 C278 0.951 . S
H311 C279 0.950 . S
H312 C283 0.949 . S
H313 C284 0.950 . S
H314 C288 0.950 . S
H315 C290 0.950 . S
H316 C293 0.950 . S
H317 C295 0.950 . S
C318 C319 1.443 . S
C318 N322 1.376 . S
C318 C356 1.389 . S
C319 C318 1.443 . S
C319 C320 1.340 . S
C319 H359 0.951 . S
C320 C319 1.340 . S
C320 C321 1.439 . S
C320 H360 0.950 . S
C321 C320 1.439 . S
C321 N322 1.374 . S
C321 C355 1.395 . S
N322 C318 1.376 . S
N322 C321 1.374 . S
N322 Co323 2.008 . S
Co323 N322 2.008 . S
Co323 N324 1.995 . S
Co323 N329 2.008 . S
Co323 N334 1.995 . S
Co323 N339 2.282 . S
Co323 N345 2.282 . S
N324 Co323 1.995 . S
N324 C325 1.376 . S
N324 C328 1.383 . S
C325 N324 1.376 . S
C325 C326 1.446 . S
C325 C355 1.391 . S
C326 C325 1.446 . S
C326 C327 1.339 . S
C326 H361 0.949 . S
C327 C326 1.339 . S
C327 C328 1.439 . S
C327 H362 0.950 . S
C328 N324 1.383 . S
C328 C327 1.439 . S
C328 C357 1.392 . S
N329 Co323 2.008 . S
N329 C330 1.376 . S
N329 C333 1.374 . S
C330 N329 1.376 . S
C330 C331 1.443 . S
C330 C357 1.389 . S
C331 C330 1.443 . S
C331 C332 1.340 . S
C331 H363 0.951 . S
C332 C331 1.340 . S
C332 C333 1.439 . S
C332 H364 0.950 . S
C333 N329 1.374 . S
C333 C332 1.439 . S
C333 C358 1.395 . S
N334 Co323 1.995 . S
N334 C335 1.376 . S
N334 C338 1.383 . S
C335 N334 1.376 . S
C335 C336 1.446 . S
C335 C358 1.391 . S
C336 C335 1.446 . S
C336 C337 1.339 . S
C336 H365 0.949 . S
C337 C336 1.339 . S
C337 C338 1.439 . S
C337 H366 0.950 . S
C338 N334 1.383 . S
C338 C337 1.439 . S
C338 C356 1.392 . S
N339 Co323 2.282 . S
N339 C342 1.332 . S
N339 C344 1.332 . S
C340 C341 1.386 . S
C340 C343 1.388 . S
C341 C340 1.386 . S
C341 C342 1.382 . S
C341 H367 0.950 . S
C342 N339 1.332 . S
C342 C341 1.382 . S
C342 H353 0.952 . S
C343 C340 1.388 . S
C343 C344 1.382 . S
C343 H368 0.950 . S
C344 N339 1.332 . S
C344 C343 1.382 . S
C344 H354 0.948 . S
N345 Co323 2.282 . S
N345 C349 1.332 . S
N345 C350 1.332 . S
C346 C347 1.388 . S
C346 C350 1.382 . S
C346 H369 0.950 . S
C347 C346 1.388 . S
C347 C348 1.386 . S
C348 C347 1.386 . S
C348 C349 1.382 . S
C348 H370 0.950 . S
C349 N345 1.332 . S
C349 C348 1.382 . S
C349 H351 0.952 . S
C350 N345 1.332 . S
C350 C346 1.382 . S
C350 H352 0.948 . S
H351 C349 0.952 . S
H352 C350 0.948 . S
H353 C342 0.952 . S
H354 C344 0.948 . S
C355 C321 1.395 . S
C355 C325 1.391 . S
C356 C318 1.389 . S
C356 C338 1.392 . S
C357 C328 1.392 . S
C357 C330 1.389 . S
C358 C333 1.395 . S
C358 C335 1.391 . S
H359 C319 0.951 . S
H360 C320 0.950 . S
H361 C326 0.949 . S
H362 C327 0.950 . S
H363 C331 0.951 . S
H364 C332 0.950 . S
H365 C336 0.949 . S
H366 C337 0.950 . S
H367 C341 0.950 . S
H368 C343 0.950 . S
H369 C346 0.950 . S
H370 C348 0.950 . S
C371 C372 1.443 . S
C371 N375 1.376 . S
C371 C409 1.389 . S
C372 C371 1.443 . S
C372 C373 1.340 . S
C372 H412 0.951 . S
C373 C372 1.340 . S
C373 C374 1.439 . S
C373 H413 0.950 . S
C374 C373 1.439 . S
C374 N375 1.374 . S
C374 C408 1.395 . S
N375 C371 1.376 . S
N375 C374 1.374 . S
N375 Co376 2.008 . S
Co376 N375 2.008 . S
Co376 N377 1.995 . S
Co376 N382 2.008 . S
Co376 N387 1.995 . S
Co376 N392 2.282 . S
Co376 N398 2.282 . S
N377 Co376 1.995 . S
N377 C378 1.376 . S
N377 C381 1.383 . S
C378 N377 1.376 . S
C378 C379 1.446 . S
C378 C408 1.391 . S
C379 C378 1.446 . S
C379 C380 1.339 . S
C379 H414 0.949 . S
C380 C379 1.339 . S
C380 C381 1.439 . S
C380 H415 0.950 . S
C381 N377 1.383 . S
C381 C380 1.439 . S
C381 C410 1.392 . S
N382 Co376 2.008 . S
N382 C383 1.376 . S
N382 C386 1.374 . S
C383 N382 1.376 . S
C383 C384 1.443 . S
C383 C410 1.389 . S
C384 C383 1.443 . S
C384 C385 1.340 . S
C384 H416 0.951 . S
C385 C384 1.340 . S
C385 C386 1.439 . S
C385 H417 0.950 . S
C386 N382 1.374 . S
C386 C385 1.439 . S
C386 C411 1.395 . S
N387 Co376 1.995 . S
N387 C388 1.376 . S
N387 C391 1.383 . S
C388 N387 1.376 . S
C388 C389 1.446 . S
C388 C411 1.391 . S
C389 C388 1.446 . S
C389 C390 1.339 . S
C389 H418 0.949 . S
C390 C389 1.339 . S
C390 C391 1.439 . S
C390 H419 0.950 . S
C391 N387 1.383 . S
C391 C390 1.439 . S
C391 C409 1.392 . S
N392 Co376 2.282 . S
N392 C395 1.332 . S
N392 C397 1.332 . S
C393 C394 1.386 . S
C393 C396 1.388 . S
C394 C393 1.386 . S
C394 C395 1.382 . S
C394 H420 0.950 . S
C395 N392 1.332 . S
C395 C394 1.382 . S
C395 H406 0.952 . S
C396 C393 1.388 . S
C396 C397 1.382 . S
C396 H421 0.950 . S
C397 N392 1.332 . S
C397 C396 1.382 . S
C397 H407 0.948 . S
N398 Co376 2.282 . S
N398 C402 1.332 . S
N398 C403 1.332 . S
C399 C400 1.388 . S
C399 C403 1.382 . S
C399 H422 0.950 . S
C400 C399 1.388 . S
C400 C401 1.386 . S
C401 C400 1.386 . S
C401 C402 1.382 . S
C401 H423 0.950 . S
C402 N398 1.332 . S
C402 C401 1.382 . S
C402 H404 0.952 . S
C403 N398 1.332 . S
C403 C399 1.382 . S
C403 H405 0.948 . S
H404 C402 0.952 . S
H405 C403 0.948 . S
H406 C395 0.952 . S
H407 C397 0.948 . S
C408 C374 1.395 . S
C408 C378 1.391 . S
C409 C371 1.389 . S
C409 C391 1.392 . S
C410 C381 1.392 . S
C410 C383 1.389 . S
C411 C386 1.395 . S
C411 C388 1.391 . S
H412 C372 0.951 . S
H413 C373 0.950 . S
H414 C379 0.949 . S
H415 C380 0.950 . S
H416 C384 0.951 . S
H417 C385 0.950 . S
H418 C389 0.949 . S
H419 C390 0.950 . S
H420 C394 0.950 . S
H421 C396 0.950 . S
H422 C399 0.950 . S
H423 C401 0.950 . S
C424 C425 1.443 . S
C424 N428 1.376 . S
C424 C462 1.389 . S
C425 C424 1.443 . S
C425 C426 1.340 . S
C425 H465 0.951 . S
C426 C425 1.340 . S
C426 C427 1.439 . S
C426 H466 0.950 . S
C427 C426 1.439 . S
C427 N428 1.374 . S
C427 C461 1.395 . S
N428 C424 1.376 . S
N428 C427 1.374 . S
N428 Co429 2.008 . S
Co429 N428 2.008 . S
Co429 N430 1.995 . S
Co429 N435 2.008 . S
Co429 N440 1.995 . S
Co429 N445 2.282 . S
Co429 N451 2.282 . S
N430 Co429 1.995 . S
N430 C431 1.376 . S
N430 C434 1.383 . S
C431 N430 1.376 . S
C431 C432 1.446 . S
C431 C461 1.391 . S
C432 C431 1.446 . S
C432 C433 1.339 . S
C432 H467 0.949 . S
C433 C432 1.339 . S
C433 C434 1.439 . S
C433 H468 0.950 . S
C434 N430 1.383 . S
C434 C433 1.439 . S
C434 C463 1.392 . S
N435 Co429 2.008 . S
N435 C436 1.376 . S
N435 C439 1.374 . S
C436 N435 1.376 . S
C436 C437 1.443 . S
C436 C463 1.389 . S
C437 C436 1.443 . S
C437 C438 1.340 . S
C437 H469 0.951 . S
C438 C437 1.340 . S
C438 C439 1.439 . S
C438 H470 0.950 . S
C439 N435 1.374 . S
C439 C438 1.439 . S
C439 C464 1.395 . S
N440 Co429 1.995 . S
N440 C441 1.376 . S
N440 C444 1.383 . S
C441 N440 1.376 . S
C441 C442 1.446 . S
C441 C464 1.391 . S
C442 C441 1.446 . S
C442 C443 1.339 . S
C442 H471 0.949 . S
C443 C442 1.339 . S
C443 C444 1.439 . S
C443 H472 0.950 . S
C444 N440 1.383 . S
C444 C443 1.439 . S
C444 C462 1.392 . S
N445 Co429 2.282 . S
N445 C448 1.332 . S
N445 C450 1.332 . S
C446 C447 1.386 . S
C446 C449 1.388 . S
C447 C446 1.386 . S
C447 C448 1.382 . S
C447 H473 0.950 . S
C448 N445 1.332 . S
C448 C447 1.382 . S
C448 H459 0.952 . S
C449 C446 1.388 . S
C449 C450 1.382 . S
C449 H474 0.950 . S
C450 N445 1.332 . S
C450 C449 1.382 . S
C450 H460 0.948 . S
N451 Co429 2.282 . S
N451 C455 1.332 . S
N451 C456 1.332 . S
C452 C453 1.388 . S
C452 C456 1.382 . S
C452 H475 0.950 . S
C453 C452 1.388 . S
C453 C454 1.386 . S
C454 C453 1.386 . S
C454 C455 1.382 . S
C454 H476 0.950 . S
C455 N451 1.332 . S
C455 C454 1.382 . S
C455 H457 0.952 . S
C456 N451 1.332 . S
C456 C452 1.382 . S
C456 H458 0.948 . S
H457 C455 0.952 . S
H458 C456 0.948 . S
H459 C448 0.952 . S
H460 C450 0.948 . S
C461 C427 1.395 . S
C461 C431 1.391 . S
C462 C424 1.389 . S
C462 C444 1.392 . S
C463 C434 1.392 . S
C463 C436 1.389 . S
C464 C439 1.395 . S
C464 C441 1.391 . S
H465 C425 0.951 . S
H466 C426 0.950 . S
H467 C432 0.949 . S
H468 C433 0.950 . S
H469 C437 0.951 . S
H470 C438 0.950 . S
H471 C442 0.949 . S
H472 C443 0.950 . S
H473 C447 0.950 . S
H474 C449 0.950 . S
H475 C452 0.950 . S
H476 C454 0.950 . S
C477 C478 1.443 . S
C477 N481 1.376 . S
C477 C515 1.389 . S
C478 C477 1.443 . S
C478 C479 1.340 . S
C478 H518 0.951 . S
C479 C478 1.340 . S
C479 C480 1.439 . S
C479 H519 0.950 . S
C480 C479 1.439 . S
C480 N481 1.374 . S
C480 C514 1.395 . S
N481 C477 1.376 . S
N481 C480 1.374 . S
N481 Co482 2.008 . S
Co482 N481 2.008 . S
Co482 N483 1.995 . S
Co482 N488 2.008 . S
Co482 N493 1.995 . S
Co482 N498 2.282 . S
Co482 N504 2.282 . S
N483 Co482 1.995 . S
N483 C484 1.376 . S
N483 C487 1.383 . S
C484 N483 1.376 . S
C484 C485 1.446 . S
C484 C514 1.391 . S
C485 C484 1.446 . S
C485 C486 1.339 . S
C485 H520 0.949 . S
C486 C485 1.339 . S
C486 C487 1.439 . S
C486 H521 0.950 . S
C487 N483 1.383 . S
C487 C486 1.439 . S
C487 C516 1.392 . S
N488 Co482 2.008 . S
N488 C489 1.376 . S
N488 C492 1.374 . S
C489 N488 1.376 . S
C489 C490 1.443 . S
C489 C516 1.389 . S
C490 C489 1.443 . S
C490 C491 1.340 . S
C490 H522 0.951 . S
C491 C490 1.340 . S
C491 C492 1.439 . S
C491 H523 0.950 . S
C492 N488 1.374 . S
C492 C491 1.439 . S
C492 C517 1.395 . S
N493 Co482 1.995 . S
N493 C494 1.376 . S
N493 C497 1.383 . S
C494 N493 1.376 . S
C494 C495 1.446 . S
C494 C517 1.391 . S
C495 C494 1.446 . S
C495 C496 1.339 . S
C495 H524 0.949 . S
C496 C495 1.339 . S
C496 C497 1.439 . S
C496 H525 0.950 . S
C497 N493 1.383 . S
C497 C496 1.439 . S
C497 C515 1.392 . S
N498 Co482 2.282 . S
N498 C501 1.332 . S
N498 C503 1.332 . S
C499 C500 1.386 . S
C499 C502 1.388 . S
C500 C499 1.386 . S
C500 C501 1.382 . S
C500 H526 0.950 . S
C501 N498 1.332 . S
C501 C500 1.382 . S
C501 H512 0.952 . S
C502 C499 1.388 . S
C502 C503 1.382 . S
C502 H527 0.950 . S
C503 N498 1.332 . S
C503 C502 1.382 . S
C503 H513 0.948 . S
N504 Co482 2.282 . S
N504 C508 1.332 . S
N504 C509 1.332 . S
C505 C506 1.388 . S
C505 C509 1.382 . S
C505 H528 0.950 . S
C506 C505 1.388 . S
C506 C507 1.386 . S
C507 C506 1.386 . S
C507 C508 1.382 . S
C507 H529 0.950 . S
C508 N504 1.332 . S
C508 C507 1.382 . S
C508 H510 0.952 . S
C509 N504 1.332 . S
C509 C505 1.382 . S
C509 H511 0.948 . S
H510 C508 0.952 . S
H511 C509 0.948 . S
H512 C501 0.952 . S
H513 C503 0.948 . S
C514 C480 1.395 . S
C514 C484 1.391 . S
C515 C477 1.389 . S
C515 C497 1.392 . S
C516 C487 1.392 . S
C516 C489 1.389 . S
C517 C492 1.395 . S
C517 C494 1.391 . S
H518 C478 0.951 . S
H519 C479 0.950 . S
H520 C485 0.949 . S
H521 C486 0.950 . S
H522 C490 0.951 . S
H523 C491 0.950 . S
H524 C495 0.949 . S
H525 C496 0.950 . S
H526 C500 0.950 . S
H527 C502 0.950 . S
H528 C505 0.950 . S
H529 C507 0.950 . S
C530 C531 1.443 . S
C530 N534 1.376 . S
C530 C568 1.389 . S
C531 C530 1.443 . S
C531 C532 1.340 . S
C531 H571 0.951 . S
C532 C531 1.340 . S
C532 C533 1.439 . S
C532 H572 0.950 . S
C533 C532 1.439 . S
C533 N534 1.374 . S
C533 C567 1.395 . S
N534 C530 1.376 . S
N534 C533 1.374 . S
N534 Co535 2.008 . S
Co535 N534 2.008 . S
Co535 N536 1.995 . S
Co535 N541 2.008 1_545 S
Co535 N546 1.995 1_545 S
Co535 N551 2.282 1_545 S
Co535 N557 2.282 . S
N536 Co535 1.995 . S
N536 C537 1.376 . S
N536 C540 1.383 . S
C537 N536 1.376 . S
C537 C538 1.446 . S
C537 C567 1.391 . S
C538 C537 1.446 . S
C538 C539 1.339 . S
C538 H573 0.949 . S
C539 C538 1.339 . S
C539 C540 1.439 . S
C539 H574 0.950 . S
C540 N536 1.383 . S
C540 C539 1.439 . S
C540 C569 1.392 1_545 S
N541 Co535 2.008 1_565 S
N541 C542 1.376 . S
N541 C545 1.374 . S
C542 N541 1.376 . S
C542 C543 1.443 . S
C542 C569 1.389 . S
C543 C542 1.443 . S
C543 C544 1.340 . S
C543 H575 0.951 . S
C544 C543 1.340 . S
C544 C545 1.439 . S
C544 H576 0.950 . S
C545 N541 1.374 . S
C545 C544 1.439 . S
C545 C570 1.395 . S
N546 Co535 1.995 1_565 S
N546 C547 1.376 . S
N546 C550 1.383 . S
C547 N546 1.376 . S
C547 C548 1.446 . S
C547 C570 1.391 . S
C548 C547 1.446 . S
C548 C549 1.339 . S
C548 H577 0.949 . S
C549 C548 1.339 . S
C549 C550 1.439 . S
C549 H578 0.950 . S
C550 N546 1.383 . S
C550 C549 1.439 . S
C550 C568 1.392 1_565 S
N551 Co535 2.282 1_565 S
N551 C554 1.332 . S
N551 C556 1.332 1_565 S
C552 C553 1.386 . S
C552 C555 1.388 1_565 S
C553 C552 1.386 . S
C553 C554 1.382 . S
C553 H579 0.950 . S
C554 N551 1.332 . S
C554 C553 1.382 . S
C554 H565 0.952 . S
C555 C552 1.388 1_545 S
C555 C556 1.382 . S
C555 H580 0.950 . S
C556 N551 1.332 1_545 S
C556 C555 1.382 . S
C556 H566 0.948 . S
N557 Co535 2.282 . S
N557 C561 1.332 . S
N557 C562 1.332 1_545 S
C558 C559 1.388 1_565 S
C558 C562 1.382 . S
C558 H581 0.950 . S
C559 C558 1.388 1_545 S
C559 C560 1.386 . S
C560 C559 1.386 . S
C560 C561 1.382 . S
C560 H582 0.950 . S
C561 N557 1.332 . S
C561 C560 1.382 . S
C561 H563 0.952 . S
C562 N557 1.332 1_565 S
C562 C558 1.382 . S
C562 H564 0.948 . S
H563 C561 0.952 . S
H564 C562 0.948 . S
H565 C554 0.952 . S
H566 C556 0.948 . S
C567 C533 1.395 . S
C567 C537 1.391 . S
C568 C530 1.389 . S
C568 C550 1.392 1_545 S
C569 C540 1.392 1_565 S
C569 C542 1.389 . S
C570 C545 1.395 . S
C570 C547 1.391 . S
H571 C531 0.951 . S
H572 C532 0.950 . S
H573 C538 0.949 . S
H574 C539 0.950 . S
H575 C543 0.951 . S
H576 C544 0.950 . S
H577 C548 0.949 . S
H578 C549 0.950 . S
H579 C553 0.950 . S
H580 C555 0.950 . S
H581 C558 0.950 . S
H582 C560 0.950 . S
C583 C584 1.443 . S
C583 N587 1.376 . S
C583 C621 1.389 . S
C584 C583 1.443 . S
C584 C585 1.340 . S
C584 H624 0.951 . S
C585 C584 1.340 . S
C585 C586 1.439 . S
C585 H625 0.950 . S
C586 C585 1.439 . S
C586 N587 1.374 . S
C586 C620 1.395 . S
N587 C583 1.376 . S
N587 C586 1.374 . S
N587 Co588 2.008 1_556 S
Co588 N587 2.008 1_554 S
Co588 N589 1.995 1_554 S
Co588 N594 2.008 . S
Co588 N599 1.995 . S
Co588 N604 2.282 . S
Co588 N610 2.282 1_554 S
N589 Co588 1.995 1_556 S
N589 C590 1.376 . S
N589 C593 1.383 . S
C590 N589 1.376 . S
C590 C591 1.446 . S
C590 C620 1.391 . S
C591 C590 1.446 . S
C591 C592 1.339 . S
C591 H626 0.949 . S
C592 C591 1.339 . S
C592 C593 1.439 . S
C592 H627 0.950 . S
C593 N589 1.383 . S
C593 C592 1.439 . S
C593 C622 1.392 1_556 S
N594 Co588 2.008 . S
N594 C595 1.376 . S
N594 C598 1.374 . S
C595 N594 1.376 . S
C595 C596 1.443 . S
C595 C622 1.389 . S
C596 C595 1.443 . S
C596 C597 1.340 . S
C596 H628 0.951 . S
C597 C596 1.340 . S
C597 C598 1.439 . S
C597 H629 0.950 . S
C598 N594 1.374 . S
C598 C597 1.439 . S
C598 C623 1.395 . S
N599 Co588 1.995 . S
N599 C600 1.376 . S
N599 C603 1.383 . S
C600 N599 1.376 . S
C600 C601 1.446 . S
C600 C623 1.391 . S
C601 C600 1.446 . S
C601 C602 1.339 . S
C601 H630 0.949 . S
C602 C601 1.339 . S
C602 C603 1.439 . S
C602 H631 0.950 . S
C603 N599 1.383 . S
C603 C602 1.439 . S
C603 C621 1.392 1_554 S
N604 Co588 2.282 . S
N604 C607 1.332 . S
N604 C609 1.332 1_554 S
C605 C606 1.386 . S
C605 C608 1.388 1_554 S
C606 C605 1.386 . S
C606 C607 1.382 . S
C606 H632 0.950 . S
C607 N604 1.332 . S
C607 C606 1.382 . S
C607 H618 0.952 . S
C608 C605 1.388 1_556 S
C608 C609 1.382 . S
C608 H633 0.950 . S
C609 N604 1.332 1_556 S
C609 C608 1.382 . S
C609 H619 0.948 . S
N610 Co588 2.282 1_556 S
N610 C614 1.332 . S
N610 C615 1.332 1_556 S
C611 C612 1.388 1_554 S
C611 C615 1.382 . S
C611 H634 0.950 . S
C612 C611 1.388 1_556 S
C612 C613 1.386 . S
C613 C612 1.386 . S
C613 C614 1.382 . S
C613 H635 0.950 . S
C614 N610 1.332 . S
C614 C613 1.382 . S
C614 H616 0.952 . S
C615 N610 1.332 1_554 S
C615 C611 1.382 . S
C615 H617 0.948 . S
H616 C614 0.952 . S
H617 C615 0.948 . S
H618 C607 0.952 . S
H619 C609 0.948 . S
C620 C586 1.395 . S
C620 C590 1.391 . S
C621 C583 1.389 . S
C621 C603 1.392 1_556 S
C622 C593 1.392 1_554 S
C622 C595 1.389 . S
C623 C598 1.395 . S
C623 C600 1.391 . S
H624 C584 0.951 . S
H625 C585 0.950 . S
H626 C591 0.949 . S
H627 C592 0.950 . S
H628 C596 0.951 . S
H629 C597 0.950 . S
H630 C601 0.949 . S
H631 C602 0.950 . S
H632 C606 0.950 . S
H633 C608 0.950 . S
H634 C611 0.950 . S
H635 C613 0.950 . S
Zn636 O642 1.920 . S
Zn636 O648 1.898 . S
Zn636 O651 1.905 . S
Zn637 O645 1.905 . S
Zn637 O646 1.898 1_546 S
Zn637 O654 1.920 1_556 S
Zn638 O641 2.080 . S
Zn638 O644 2.114 . S
Zn638 O647 2.120 . S
Zn638 O649 2.120 . S
Zn638 O650 2.114 . S
Zn638 O653 2.080 . S
C639 O644 1.166 1_556 S
C639 O645 1.182 . S
C640 O646 1.167 . S
C640 O647 1.299 1_565 S
O641 Zn638 2.080 . S
O641 C655 1.305 . S
O642 Zn636 1.920 . S
O642 C655 1.234 . S
C643 O648 1.167 . S
C643 O649 1.299 . S
O644 Zn638 2.114 . S
O644 C639 1.166 1_554 S
O645 Zn637 1.905 . S
O645 C639 1.182 . S
O646 Zn637 1.898 1_564 S
O646 C640 1.167 . S
O647 Zn638 2.120 . S
O647 C640 1.299 1_545 S
O648 Zn636 1.898 . S
O648 C643 1.167 . S
O649 Zn638 2.120 . S
O649 C643 1.299 . S
O650 Zn638 2.114 . S
O650 C652 1.166 . S
O651 Zn636 1.905 . S
O651 C652 1.182 . S
C652 O650 1.166 . S
C652 O651 1.182 . S
O653 Zn638 2.080 . S
O653 C656 1.305 . S
O654 Zn637 1.920 1_554 S
O654 C656 1.234 . S
C655 O641 1.305 . S
C655 O642 1.234 . S
C656 O653 1.305 . S
C656 O654 1.234 . S
Zn657 O663 1.920 1_556 S
Zn657 O669 1.898 1_456 S
Zn657 O672 1.905 1_455 S
Zn658 O666 1.905 . S
Zn658 O667 1.898 . S
Zn658 O675 1.920 . S
Zn659 O662 2.080 . S
Zn659 O665 2.114 . S
Zn659 O668 2.120 . S
Zn659 O670 2.120 . S
Zn659 O671 2.114 1_554 S
Zn659 O674 2.080 . S
C660 O665 1.166 . S
C660 O666 1.182 . S
C661 O667 1.167 . S
C661 O668 1.299 . S
O662 Zn659 2.080 . S
O662 C676 1.305 1_655 S
O663 Zn657 1.920 1_554 S
O663 C676 1.234 . S
C664 O669 1.167 . S
C664 O670 1.299 . S
O665 Zn659 2.114 . S
O665 C660 1.166 . S
O666 Zn658 1.905 . S
O666 C660 1.182 . S
O667 Zn658 1.898 . S
O667 C661 1.167 . S
O668 Zn659 2.120 . S
O668 C661 1.299 . S
O669 Zn657 1.898 1_654 S
O669 C664 1.167 . S
O670 Zn659 2.120 . S
O670 C664 1.299 . S
O671 Zn659 2.114 1_556 S
O671 C673 1.166 . S
O672 Zn657 1.905 1_655 S
O672 C673 1.182 . S
C673 O671 1.166 . S
C673 O672 1.182 . S
O674 Zn659 2.080 . S
O674 C677 1.305 . S
O675 Zn658 1.920 . S
O675 C677 1.234 . S
C676 O662 1.305 1_455 S
C676 O663 1.234 . S
C677 O674 1.305 . S
C677 O675 1.234 . S
Zn678 O684 1.920 1_665 S
Zn678 O690 1.898 1_655 S
Zn678 O693 1.905 . S
Zn679 O687 1.905 . S
Zn679 O688 1.898 . S
Zn679 O696 1.920 . S
Zn680 O683 2.080 . S
Zn680 O686 2.114 . S
Zn680 O689 2.120 . S
Zn680 O691 2.120 . S
Zn680 O692 2.114 1_455 S
Zn680 O695 2.080 . S
C681 O686 1.166 . S
C681 O687 1.182 . S
C682 O688 1.167 . S
C682 O689 1.299 . S
O683 Zn680 2.080 . S
O683 C697 1.305 1_565 S
O684 Zn678 1.920 1_445 S
O684 C697 1.234 . S
C685 O690 1.167 . S
C685 O691 1.299 . S
O686 Zn680 2.114 . S
O686 C681 1.166 . S
O687 Zn679 1.905 . S
O687 C681 1.182 . S
O688 Zn679 1.898 . S
O688 C682 1.167 . S
O689 Zn680 2.120 . S
O689 C682 1.299 . S
O690 Zn678 1.898 1_455 S
O690 C685 1.167 . S
O691 Zn680 2.120 . S
O691 C685 1.299 . S
O692 Zn680 2.114 1_655 S
O692 C694 1.166 . S
O693 Zn678 1.905 . S
O693 C694 1.182 . S
C694 O692 1.166 . S
C694 O693 1.182 . S
O695 Zn680 2.080 . S
O695 C698 1.305 . S
O696 Zn679 1.920 . S
O696 C698 1.234 . S
C697 O683 1.305 1_545 S
C697 O684 1.234 . S
C698 O695 1.305 . S
C698 O696 1.234 . S
Zn699 O705 1.920 . S
Zn699 O711 1.898 . S
Zn699 O714 1.905 . S
Zn700 O708 1.905 1_455 S
Zn700 O709 1.898 . S
Zn700 O717 1.920 1_455 S
Zn701 O704 2.080 . S
Zn701 O707 2.114 . S
Zn701 O710 2.120 1_655 S
Zn701 O712 2.120 . S
Zn701 O713 2.114 . S
Zn701 O716 2.080 . S
C702 O707 1.166 . S
C702 O708 1.182 . S
C703 O709 1.167 . S
C703 O710 1.299 . S
O704 Zn701 2.080 . S
O704 C718 1.305 . S
O705 Zn699 1.920 . S
O705 C718 1.234 . S
C706 O711 1.167 . S
C706 O712 1.299 . S
O707 Zn701 2.114 . S
O707 C702 1.166 . S
O708 Zn700 1.905 1_655 S
O708 C702 1.182 . S
O709 Zn700 1.898 . S
O709 C703 1.167 . S
O710 Zn701 2.120 1_455 S
O710 C703 1.299 . S
O711 Zn699 1.898 . S
O711 C706 1.167 . S
O712 Zn701 2.120 . S
O712 C706 1.299 . S
O713 Zn701 2.114 . S
O713 C715 1.166 . S
O714 Zn699 1.905 . S
O714 C715 1.182 . S
C715 O713 1.166 . S
C715 O714 1.182 . S
O716 Zn701 2.080 . S
O716 C719 1.305 . S
O717 Zn700 1.920 1_655 S
O717 C719 1.234 . S
C718 O704 1.305 . S
C718 O705 1.234 . S
C719 O716 1.305 . S
C719 O717 1.234 . S
Zn720 O726 1.920 . S
Zn720 O732 1.898 . S
Zn720 O735 1.905 . S
Zn721 O729 1.905 . S
Zn721 O730 1.898 1_565 S
Zn721 O738 1.920 . S
Zn722 O725 2.080 . S
Zn722 O728 2.114 . S
Zn722 O731 2.120 . S
Zn722 O733 2.120 . S
Zn722 O734 2.114 . S
Zn722 O737 2.080 . S
C723 O728 1.166 . S
C723 O729 1.182 . S
C724 O730 1.167 . S
C724 O731 1.299 1_545 S
O725 Zn722 2.080 . S
O725 C739 1.305 . S
O726 Zn720 1.920 . S
O726 C739 1.234 . S
C727 O732 1.167 . S
C727 O733 1.299 . S
O728 Zn722 2.114 . S
O728 C723 1.166 . S
O729 Zn721 1.905 . S
O729 C723 1.182 . S
O730 Zn721 1.898 1_545 S
O730 C724 1.167 . S
O731 Zn722 2.120 . S
O731 C724 1.299 1_565 S
O732 Zn720 1.898 . S
O732 C727 1.167 . S
O733 Zn722 2.120 . S
O733 C727 1.299 . S
O734 Zn722 2.114 . S
O734 C736 1.166 . S
O735 Zn720 1.905 . S
O735 C736 1.182 . S
C736 O734 1.166 . S
C736 O735 1.182 . S
O737 Zn722 2.080 . S
O737 C740 1.305 . S
O738 Zn721 1.920 . S
O738 C740 1.234 . S
C739 O725 1.305 . S
C739 O726 1.234 . S
C740 O737 1.305 . S
C740 O738 1.234 . S
Zn741 O747 1.920 . S
Zn741 O753 1.898 . S
Zn741 O756 1.905 . S
Zn742 O750 1.905 . S
Zn742 O751 1.898 . S
Zn742 O759 1.920 . S
Zn743 O746 2.080 . S
Zn743 O749 2.114 . S
Zn743 O752 2.120 . S
Zn743 O754 2.120 . S
Zn743 O755 2.114 . S
Zn743 O758 2.080 . S
C744 O749 1.166 . S
C744 O750 1.182 . S
C745 O751 1.167 . S
C745 O752 1.299 . S
O746 Zn743 2.080 . S
O746 C760 1.305 . S
O747 Zn741 1.920 . S
O747 C760 1.234 . S
C748 O753 1.167 . S
C748 O754 1.299 . S
O749 Zn743 2.114 . S
O749 C744 1.166 . S
O750 Zn742 1.905 . S
O750 C744 1.182 . S
O751 Zn742 1.898 . S
O751 C745 1.167 . S
O752 Zn743 2.120 . S
O752 C745 1.299 . S
O753 Zn741 1.898 . S
O753 C748 1.167 . S
O754 Zn743 2.120 . S
O754 C748 1.299 . S
O755 Zn743 2.114 . S
O755 C757 1.166 . S
O756 Zn741 1.905 . S
O756 C757 1.182 . S
C757 O755 1.166 . S
C757 O756 1.182 . S
O758 Zn743 2.080 . S
O758 C761 1.305 . S
O759 Zn742 1.920 . S
O759 C761 1.234 . S
C760 O746 1.305 . S
C760 O747 1.234 . S
C761 O758 1.305 . S
C761 O759 1.234 . S
Zn762 O768 1.920 1_554 S
Zn762 O774 1.898 . S
Zn762 O777 1.905 . S
Zn763 O771 1.905 . S
Zn763 O772 1.898 . S
Zn763 O780 1.920 . S
Zn764 O767 2.080 . S
Zn764 O770 2.114 . S
Zn764 O773 2.120 . S
Zn764 O775 2.120 1_556 S
Zn764 O776 2.114 . S
Zn764 O779 2.080 . S
C765 O770 1.166 . S
C765 O771 1.182 . S
C766 O772 1.167 . S
C766 O773 1.299 . S
O767 Zn764 2.080 . S
O767 C781 1.305 . S
O768 Zn762 1.920 1_556 S
O768 C781 1.234 . S
C769 O774 1.167 . S
C769 O775 1.299 . S
O770 Zn764 2.114 . S
O770 C765 1.166 . S
O771 Zn763 1.905 . S
O771 C765 1.182 . S
O772 Zn763 1.898 . S
O772 C766 1.167 . S
O773 Zn764 2.120 . S
O773 C766 1.299 . S
O774 Zn762 1.898 . S
O774 C769 1.167 . S
O775 Zn764 2.120 1_554 S
O775 C769 1.299 . S
O776 Zn764 2.114 . S
O776 C778 1.166 1_556 S
O777 Zn762 1.905 . S
O777 C778 1.182 . S
C778 O776 1.166 1_554 S
C778 O777 1.182 . S
O779 Zn764 2.080 . S
O779 C782 1.305 . S
O780 Zn763 1.920 . S
O780 C782 1.234 . S
C781 O767 1.305 . S
C781 O768 1.234 . S
C782 O779 1.305 . S
C782 O780 1.234 . S
Zn783 O789 1.920 1_556 S
Zn783 O795 1.898 . S
Zn783 O798 1.905 1_545 S
Zn784 O792 1.905 . S
Zn784 O793 1.898 . S
Zn784 O801 1.920 . S
Zn785 O788 2.080 . S
Zn785 O791 2.114 . S
Zn785 O794 2.120 . S
Zn785 O796 2.120 . S
Zn785 O797 2.114 . S
Zn785 O800 2.080 . S
C786 O791 1.166 . S
C786 O792 1.182 . S
C787 O793 1.167 . S
C787 O794 1.299 . S
O788 Zn785 2.080 . S
O788 C802 1.305 1_556 S
O789 Zn783 1.920 1_554 S
O789 C802 1.234 . S
C790 O795 1.167 . S
C790 O796 1.299 . S
O791 Zn785 2.114 . S
O791 C786 1.166 . S
O792 Zn784 1.905 . S
O792 C786 1.182 . S
O793 Zn784 1.898 . S
O793 C787 1.167 . S
O794 Zn785 2.120 . S
O794 C787 1.299 . S
O795 Zn783 1.898 . S
O795 C790 1.167 . S
O796 Zn785 2.120 . S
O796 C790 1.299 . S
O797 Zn785 2.114 . S
O797 C799 1.166 1_545 S
O798 Zn783 1.905 1_565 S
O798 C799 1.182 . S
C799 O797 1.166 1_565 S
C799 O798 1.182 . S
O800 Zn785 2.080 . S
O800 C803 1.305 . S
O801 Zn784 1.920 . S
O801 C803 1.234 . S
C802 O788 1.305 1_554 S
C802 O789 1.234 . S
C803 O800 1.305 . S
C803 O801 1.234 . S
C804 C805 1.369 . S
C804 C806 1.419 . S
C804 H808 0.930 . S
C805 C804 1.369 . S
C805 C814 1.429 . S
C806 C804 1.419 . S
C806 C807 1.363 . S
C806 H809 0.929 . S
C807 C806 1.363 . S
C807 C813 1.445 . S
H808 C804 0.930 . S
H809 C806 0.929 . S
S810 N811 1.613 . S
S810 N812 1.610 . S
N811 S810 1.613 . S
N811 C814 1.350 1_655 S
N812 S810 1.610 . S
N812 C813 1.332 1_655 S
C813 C807 1.445 . S
C813 N812 1.332 1_455 S
C813 C814 1.436 . S
C814 C805 1.429 . S
C814 N811 1.350 1_455 S
C814 C813 1.436 . S
C815 C816 1.369 . S
C815 C817 1.419 . S
C815 H819 0.930 . S
C816 C815 1.369 . S
C816 C825 1.429 1_655 S
C817 C815 1.419 . S
C817 C818 1.363 . S
C817 H820 0.929 . S
C818 C817 1.363 . S
C818 C824 1.428 1_655 S
H819 C815 0.930 . S
H820 C817 0.929 . S
S821 N822 1.613 . S
S821 N823 1.610 . S
N822 S821 1.613 . S
N822 C825 1.350 . S
N823 S821 1.610 . S
N823 C824 1.351 . S
C824 C818 1.428 1_455 S
C824 N823 1.351 . S
C824 C825 1.434 . S
C825 C816 1.429 1_455 S
C825 N822 1.350 . S
C825 C824 1.434 . S
C826 C827 1.369 . S
C826 C828 1.419 . S
C826 H830 0.930 1_455 S
C827 C826 1.369 . S
C827 C836 1.429 . S
C828 C826 1.419 . S
C828 C829 1.363 . S
C828 H831 0.929 . S
C829 C828 1.363 . S
C829 C835 1.428 . S
H830 C826 0.930 1_655 S
H831 C828 0.929 . S
S832 N833 1.613 . S
S832 N834 1.610 . S
N833 S832 1.613 . S
N833 C836 1.350 . S
N834 S832 1.610 . S
N834 C835 1.351 . S
C835 C829 1.428 . S
C835 N834 1.351 . S
C835 C836 1.434 . S
C836 C827 1.429 . S
C836 N833 1.350 . S
C836 C835 1.434 . S
C837 C838 1.369 . S
C837 C839 1.419 . S
C837 H841 0.930 . S
C838 C837 1.369 . S
C838 C847 1.429 1_655 S
C839 C837 1.419 . S
C839 C840 1.363 . S
C839 H842 0.929 . S
C840 C839 1.363 . S
C840 C846 1.428 1_655 S
H841 C837 0.930 . S
H842 C839 0.929 . S
S843 N844 1.613 . S
S843 N845 1.610 . S
N844 S843 1.613 . S
N844 C847 1.350 . S
N845 S843 1.610 . S
N845 C846 1.351 . S
C846 C840 1.428 1_455 S
C846 N845 1.351 . S
C846 C847 1.434 . S
C847 C838 1.429 1_455 S
C847 N844 1.350 . S
C847 C846 1.434 . S
C848 C849 1.369 . S
C848 C850 1.419 . S
C848 H852 0.930 1_545 S
C849 C848 1.369 . S
C849 C858 1.429 . S
C850 C848 1.419 . S
C850 C851 1.363 . S
C850 H853 0.929 1_545 S
C851 C850 1.363 . S
C851 C857 1.428 . S
H852 C848 0.930 1_565 S
H853 C850 0.929 1_565 S
S854 N855 1.613 . S
S854 N856 1.610 . S
N855 S854 1.613 . S
N855 C858 1.350 . S
N856 S854 1.610 . S
N856 C857 1.351 . S
C857 C851 1.428 . S
C857 N856 1.351 . S
C857 C858 1.434 . S
C858 C849 1.429 . S
C858 N855 1.350 . S
C858 C857 1.434 . S
C859 C860 1.369 . S
C859 C861 1.419 . S
C859 H863 0.930 . S
C860 C859 1.369 . S
C860 C869 1.429 . S
C861 C859 1.419 . S
C861 C862 1.363 . S
C861 H864 0.929 . S
C862 C861 1.363 . S
C862 C868 1.428 . S
H863 C859 0.930 . S
H864 C861 0.929 . S
S865 N866 1.613 . S
S865 N867 1.610 . S
N866 S865 1.613 . S
N866 C869 1.350 . S
N867 S865 1.610 . S
N867 C868 1.351 . S
C868 C862 1.428 . S
C868 N867 1.351 . S
C868 C869 1.434 . S
C869 C860 1.429 . S
C869 N866 1.350 . S
C869 C868 1.434 . S
C870 C871 1.369 . S
C870 C872 1.419 . S
C870 H874 0.930 . S
C871 C870 1.369 . S
C871 C880 1.429 1_565 S
C872 C870 1.419 . S
C872 C873 1.363 . S
C872 H875 0.929 . S
C873 C872 1.363 . S
C873 C879 1.428 . S
H874 C870 0.930 . S
H875 C872 0.929 . S
S876 N877 1.613 . S
S876 N878 1.610 . S
N877 S876 1.613 . S
N877 C880 1.350 . S
N878 S876 1.610 . S
N878 C879 1.351 1_545 S
C879 C873 1.428 . S
C879 N878 1.351 1_565 S
C879 C880 1.434 1_565 S
C880 C871 1.429 1_545 S
C880 N877 1.350 . S
C880 C879 1.434 1_545 S
C881 C882 1.369 . S
C881 C883 1.419 . S
C881 H885 0.930 . S
C882 C881 1.369 . S
C882 C891 1.429 . S
C883 C881 1.419 . S
C883 C884 1.363 . S
C883 H886 0.929 . S
C884 C883 1.363 . S
C884 C890 1.428 . S
H885 C881 0.930 . S
H886 C883 0.929 . S
S887 N888 1.613 . S
S887 N889 1.610 . S
N888 S887 1.613 . S
N888 C891 1.350 . S
N889 S887 1.610 . S
N889 C890 1.351 . S
C890 C884 1.428 . S
C890 N889 1.351 . S
C890 C891 1.434 . S
C891 C882 1.429 . S
C891 N888 1.350 . S
C891 C890 1.434 . S
C892 C893 1.369 . S
C892 C894 1.419 . S
C892 H896 0.930 . S
C893 C892 1.369 . S
C893 C902 1.429 . S
C894 C892 1.419 . S
C894 C895 1.363 . S
C894 H897 0.929 . S
C895 C894 1.363 . S
C895 C901 1.428 . S
H896 C892 0.930 . S
H897 C894 0.929 . S
S898 N899 1.613 . S
S898 N900 1.610 . S
N899 S898 1.613 . S
N899 C902 1.350 . S
N900 S898 1.610 . S
N900 C901 1.351 . S
C901 C895 1.428 . S
C901 N900 1.351 . S
C901 C902 1.434 . S
C902 C893 1.429 . S
C902 N899 1.350 . S
C902 C901 1.434 . S
C903 C904 1.369 . S
C903 C905 1.419 . S
C903 H907 0.930 . S
C904 C903 1.369 . S
C904 C913 1.429 . S
C905 C903 1.419 . S
C905 C906 1.363 . S
C905 H908 0.929 . S
C906 C905 1.363 . S
C906 C912 1.428 . S
H907 C903 0.930 . S
H908 C905 0.929 . S
S909 N910 1.613 . S
S909 N911 1.610 . S
N910 S909 1.613 . S
N910 C913 1.350 . S
N911 S909 1.610 . S
N911 C912 1.351 . S
C912 C906 1.428 . S
C912 N911 1.351 . S
C912 C913 1.434 . S
C913 C904 1.429 . S
C913 N910 1.350 . S
C913 C912 1.434 . S
C914 C915 1.369 . S
C914 C916 1.419 . S
C914 H918 0.930 . S
C915 C914 1.369 . S
C915 C924 1.429 . S
C916 C914 1.419 . S
C916 C917 1.363 . S
C916 H919 0.929 . S
C917 C916 1.363 . S
C917 C923 1.428 . S
H918 C914 0.930 . S
H919 C916 0.929 . S
S920 N921 1.613 . S
S920 N922 1.610 . S
N921 S920 1.613 . S
N921 C924 1.350 . S
N922 S920 1.610 . S
N922 C923 1.351 . S
C923 C917 1.428 . S
C923 N922 1.351 . S
C923 C924 1.434 . S
C924 C915 1.429 . S
C924 N921 1.350 . S
C924 C923 1.434 . S
C925 C926 1.369 . S
C925 C927 1.419 . S
C925 H929 0.930 . S
C926 C925 1.369 . S
C926 C935 1.429 . S
C927 C925 1.419 . S
C927 C928 1.363 . S
C927 H930 0.929 . S
C928 C927 1.363 . S
C928 C934 1.428 . S
H929 C925 0.930 . S
H930 C927 0.929 . S
S931 N932 1.613 . S
S931 N933 1.610 . S
N932 S931 1.613 . S
N932 C935 1.350 . S
N933 S931 1.610 . S
N933 C934 1.351 . S
C934 C928 1.428 . S
C934 N933 1.351 . S
C934 C935 1.434 . S
C935 C926 1.429 . S
C935 N932 1.350 . S
C935 C934 1.434 . S
C936 C937 1.369 . S
C936 C938 1.419 . S
C936 H940 0.930 . S
C937 C936 1.369 . S
C937 C946 1.429 . S
C938 C936 1.419 . S
C938 C939 1.363 . S
C938 H941 0.929 . S
C939 C938 1.363 . S
C939 C945 1.428 . S
H940 C936 0.930 . S
H941 C938 0.929 . S
S942 N943 1.613 . S
S942 N944 1.610 . S
N943 S942 1.613 . S
N943 C946 1.350 . S
N944 S942 1.610 . S
N944 C945 1.351 . S
C945 C939 1.428 . S
C945 N944 1.351 . S
C945 C946 1.434 . S
C946 C937 1.429 . S
C946 N943 1.350 . S
C946 C945 1.434 . S
C947 C948 1.369 . S
C947 C949 1.419 . S
C947 H951 0.930 . S
C948 C947 1.369 . S
C948 C957 1.429 . S
C949 C947 1.419 . S
C949 C950 1.363 . S
C949 H952 0.929 . S
C950 C949 1.363 . S
C950 C956 1.428 . S
H951 C947 0.930 . S
H952 C949 0.929 . S
S953 N954 1.613 . S
S953 N955 1.610 . S
N954 S953 1.613 . S
N954 C957 1.350 . S
N955 S953 1.610 . S
N955 C956 1.351 . S
C956 C950 1.428 . S
C956 N955 1.351 . S
C956 C957 1.434 . S
C957 C948 1.429 . S
C957 N954 1.350 . S
C957 C956 1.434 . S
C958 C959 1.369 . S
C958 C960 1.419 . S
C958 H962 0.930 . S
C959 C958 1.369 . S
C959 C968 1.429 . S
C960 C958 1.419 . S
C960 C961 1.363 . S
C960 H963 0.929 . S
C961 C960 1.363 . S
C961 C967 1.428 . S
H962 C958 0.930 . S
H963 C960 0.929 . S
S964 N965 1.613 . S
S964 N966 1.610 . S
N965 S964 1.613 . S
N965 C968 1.350 . S
N966 S964 1.610 . S
N966 C967 1.351 . S
C967 C961 1.428 . S
C967 N966 1.351 . S
C967 C968 1.434 . S
C968 C959 1.429 . S
C968 N965 1.350 . S
C968 C967 1.434 . S
C969 C970 1.369 . S
C969 C971 1.419 . S
C969 H973 0.930 . S
C970 C969 1.369 . S
C970 C979 1.429 . S
C971 C969 1.419 . S
C971 C972 1.363 . S
C971 H974 0.929 . S
C972 C971 1.363 . S
C972 C978 1.428 . S
H973 C969 0.930 . S
H974 C971 0.929 . S
S975 N976 1.613 . S
S975 N977 1.610 . S
N976 S975 1.613 . S
N976 C979 1.350 . S
N977 S975 1.610 . S
N977 C978 1.351 . S
C978 C972 1.428 . S
C978 N977 1.351 . S
C978 C979 1.434 . S
C979 C970 1.429 . S
C979 N976 1.350 . S
C979 C978 1.434 . S
C980 C981 1.369 . S
C980 C982 1.419 . S
C980 H984 0.930 . S
C981 C980 1.369 . S
C981 C990 1.429 . S
C982 C980 1.419 . S
C982 C983 1.363 . S
C982 H985 0.929 . S
C983 C982 1.363 . S
C983 C989 1.428 . S
H984 C980 0.930 . S
H985 C982 0.929 . S
S986 N987 1.613 . S
S986 N988 1.610 . S
N987 S986 1.613 . S
N987 C990 1.350 . S
N988 S986 1.610 . S
N988 C989 1.351 . S
C989 C983 1.428 . S
C989 N988 1.351 . S
C989 C990 1.434 . S
C990 C981 1.429 . S
C990 N987 1.350 . S
C990 C989 1.434 . S
C991 C992 1.369 . S
C991 C993 1.419 . S
C991 H995 0.930 . S
C992 C991 1.369 . S
C992 C1001 1.429 . S
C993 C991 1.419 . S
C993 C994 1.363 . S
C993 H996 0.929 . S
C994 C993 1.363 . S
C994 C1000 1.428 . S
H995 C991 0.930 . S
H996 C993 0.929 . S
S997 N998 1.613 . S
S997 N999 1.610 . S
N998 S997 1.613 . S
N998 C1001 1.350 1_545 S
N999 S997 1.610 . S
N999 C1000 1.351 1_545 S
C1000 C994 1.428 . S
C1000 N999 1.351 1_565 S
C1000 C1001 1.434 . S
C1001 C992 1.429 . S
C1001 N998 1.350 1_565 S
C1001 C1000 1.434 . S
C1002 C1003 1.369 . S
C1002 C1004 1.419 . S
C1002 H1006 0.930 . S
C1003 C1002 1.369 . S
C1003 C1012 1.429 . S
C1004 C1002 1.419 . S
C1004 C1005 1.363 . S
C1004 H1007 0.929 . S
C1005 C1004 1.363 . S
C1005 C1011 1.428 . S
H1006 C1002 0.930 . S
H1007 C1004 0.929 . S
S1008 N1009 1.613 . S
S1008 N1010 1.610 . S
N1009 S1008 1.613 . S
N1009 C1012 1.350 . S
N1010 S1008 1.610 . S
N1010 C1011 1.351 . S
C1011 C1005 1.428 . S
C1011 N1010 1.351 . S
C1011 C1012 1.434 . S
C1012 C1003 1.429 . S
C1012 N1009 1.350 . S
C1012 C1011 1.434 . S
C1013 C1014 1.369 . S
C1013 C1015 1.419 . S
C1013 H1017 0.930 . S
C1014 C1013 1.369 . S
C1014 C1023 1.453 . S
C1015 C1013 1.419 . S
C1015 C1016 1.363 . S
C1015 H1018 0.929 . S
C1016 C1015 1.363 . S
C1016 C1022 1.428 . S
H1017 C1013 0.930 . S
H1018 C1015 0.929 . S
S1019 N1020 1.613 . S
S1019 N1021 1.610 . S
N1020 S1019 1.613 . S
N1020 C1023 1.319 1_565 S
N1021 S1019 1.610 . S
N1021 C1022 1.351 1_565 S
C1022 C1016 1.428 . S
C1022 N1021 1.351 1_545 S
C1022 C1023 1.440 . S
C1023 C1014 1.453 . S
C1023 N1020 1.319 1_545 S
C1023 C1022 1.440 . S
C1024 C1025 1.369 . S
C1024 C1026 1.419 . S
C1024 H1028 0.930 . S
C1025 C1024 1.369 . S
C1025 C1034 1.429 . S
C1026 C1024 1.419 . S
C1026 C1027 1.363 . S
C1026 H1029 0.929 . S
C1027 C1026 1.363 . S
C1027 C1033 1.428 . S
H1028 C1024 0.930 . S
H1029 C1026 0.929 . S
S1030 N1031 1.613 . S
S1030 N1032 1.610 . S
N1031 S1030 1.613 . S
N1031 C1034 1.350 . S
N1032 S1030 1.610 . S
N1032 C1033 1.351 . S
C1033 C1027 1.428 . S
C1033 N1032 1.351 . S
C1033 C1034 1.434 . S
C1034 C1025 1.429 . S
C1034 N1031 1.350 . S
C1034 C1033 1.434 . S
C1035 C1036 1.369 . S
C1035 C1037 1.419 . S
C1035 H1039 0.930 1_556 S
C1036 C1035 1.369 . S
C1036 C1045 1.429 . S
C1037 C1035 1.419 . S
C1037 C1038 1.363 . S
C1037 H1040 0.929 1_556 S
C1038 C1037 1.363 . S
C1038 C1044 1.428 . S
H1039 C1035 0.930 1_554 S
H1040 C1037 0.929 1_554 S
S1041 N1042 1.613 . S
S1041 N1043 1.610 . S
N1042 S1041 1.613 . S
N1042 C1045 1.350 . S
N1043 S1041 1.610 . S
N1043 C1044 1.351 . S
C1044 C1038 1.428 . S
C1044 N1043 1.351 . S
C1044 C1045 1.434 . S
C1045 C1036 1.429 . S
C1045 N1042 1.350 . S
C1045 C1044 1.434 . S
C1046 C1047 1.369 . S
C1046 C1048 1.419 . S
C1046 H1050 0.930 . S
C1047 C1046 1.369 . S
C1047 C1056 1.429 1_556 S
C1048 C1046 1.419 . S
C1048 C1049 1.363 . S
C1048 H1051 0.929 . S
C1049 C1048 1.363 . S
C1049 C1055 1.428 1_556 S
H1050 C1046 0.930 . S
H1051 C1048 0.929 . S
S1052 N1053 1.613 . S
S1052 N1054 1.610 . S
N1053 S1052 1.613 . S
N1053 C1056 1.350 . S
N1054 S1052 1.610 . S
N1054 C1055 1.351 . S
C1055 C1049 1.428 1_554 S
C1055 N1054 1.351 . S
C1055 C1056 1.434 . S
C1056 C1047 1.429 1_554 S
C1056 N1053 1.350 . S
C1056 C1055 1.434 . S
C1057 C1058 1.369 . S
C1057 C1059 1.419 . S
C1057 H1061 0.930 . S
C1058 C1057 1.369 . S
C1058 C1067 1.429 1_554 S
C1059 C1057 1.419 . S
C1059 C1060 1.363 . S
C1059 H1062 0.929 . S
C1060 C1059 1.363 . S
C1060 C1066 1.428 1_554 S
H1061 C1057 0.930 . S
H1062 C1059 0.929 . S
S1063 N1064 1.613 . S
S1063 N1065 1.610 . S
N1064 S1063 1.613 . S
N1064 C1067 1.350 . S
N1065 S1063 1.610 . S
N1065 C1066 1.351 . S
C1066 C1060 1.428 1_556 S
C1066 N1065 1.351 . S
C1066 C1067 1.434 . S
C1067 C1058 1.429 1_556 S
C1067 N1064 1.350 . S
C1067 C1066 1.434 . S
C1068 C1069 1.369 . S
C1068 C1070 1.419 . S
C1068 H1072 0.930 . S
C1069 C1068 1.369 . S
C1069 C1078 1.429 . S
C1070 C1068 1.419 . S
C1070 C1071 1.363 . S
C1070 H1073 0.929 . S
C1071 C1070 1.363 . S
C1071 C1077 1.428 . S
H1072 C1068 0.930 . S
H1073 C1070 0.929 . S
S1074 N1075 1.613 . S
S1074 N1076 1.610 . S
N1075 S1074 1.613 . S
N1075 C1078 1.350 1_655 S
N1076 S1074 1.610 . S
N1076 C1077 1.351 1_655 S
C1077 C1071 1.428 . S
C1077 N1076 1.351 1_455 S
C1077 C1078 1.434 . S
C1078 C1069 1.429 . S
C1078 N1075 1.350 1_455 S
C1078 C1077 1.434 . S
C1079 C1080 1.369 . S
C1079 C1081 1.419 . S
C1079 H1083 0.930 . S
C1080 C1079 1.369 . S
C1080 C1089 1.429 1_655 S
C1081 C1079 1.419 . S
C1081 C1082 1.363 . S
C1081 H1084 0.929 . S
C1082 C1081 1.363 . S
C1082 C1088 1.428 1_655 S
H1083 C1079 0.930 . S
H1084 C1081 0.929 . S
S1085 N1086 1.613 . S
S1085 N1087 1.610 . S
N1086 S1085 1.613 . S
N1086 C1089 1.350 . S
N1087 S1085 1.610 . S
N1087 C1088 1.351 . S
C1088 C1082 1.428 1_455 S
C1088 N1087 1.351 . S
C1088 C1089 1.434 . S
C1089 C1080 1.429 1_455 S
C1089 N1086 1.350 . S
C1089 C1088 1.434 . S
C1090 C1091 1.361 1_655 S
C1090 C1092 1.421 . S
C1090 H1094 0.937 . S
C1091 C1090 1.361 1_455 S
C1091 C1100 1.429 . S
C1092 C1090 1.421 . S
C1092 C1093 1.363 1_655 S
C1092 H1095 0.929 . S
C1093 C1092 1.363 1_455 S
C1093 C1099 1.428 . S
H1094 C1090 0.937 . S
H1095 C1092 0.929 . S
S1096 N1097 1.613 . S
S1096 N1098 1.610 . S
N1097 S1096 1.613 . S
N1097 C1100 1.350 . S
N1098 S1096 1.610 . S
N1098 C1099 1.351 . S
C1099 C1093 1.428 . S
C1099 N1098 1.351 . S
C1099 C1100 1.434 . S
C1100 C1091 1.429 . S
C1100 N1097 1.350 . S
C1100 C1099 1.434 . S
C1101 C1102 1.369 . S
C1101 C1103 1.419 . S
C1101 H1105 0.930 . S
C1102 C1101 1.369 . S
C1102 C1111 1.429 . S
C1103 C1101 1.419 . S
C1103 C1104 1.363 . S
C1103 H1106 0.929 . S
C1104 C1103 1.363 . S
C1104 C1110 1.428 . S
H1105 C1101 0.930 . S
H1106 C1103 0.929 . S
S1107 N1108 1.616 . S
S1107 N1109 1.611 . S
N1108 S1107 1.616 . S
N1108 C1111 1.350 . S
N1109 S1107 1.611 . S
N1109 C1110 1.351 . S
C1110 C1104 1.428 . S
C1110 N1109 1.351 . S
C1110 C1111 1.434 . S
C1111 C1102 1.429 . S
C1111 N1108 1.350 . S
C1111 C1110 1.434 . S
C1112 C1113 1.369 . S
C1112 C1114 1.419 . S
C1112 H1116 0.930 1_545 S
C1113 C1112 1.369 . S
C1113 C1122 1.429 . S
C1114 C1112 1.419 . S
C1114 C1115 1.363 . S
C1114 H1117 0.929 1_545 S
C1115 C1114 1.363 . S
C1115 C1121 1.428 . S
H1116 C1112 0.930 1_565 S
H1117 C1114 0.929 1_565 S
S1118 N1119 1.613 . S
S1118 N1120 1.610 . S
N1119 S1118 1.613 . S
N1119 C1122 1.350 . S
N1120 S1118 1.610 . S
N1120 C1121 1.351 . S
C1121 C1115 1.428 . S
C1121 N1120 1.351 . S
C1121 C1122 1.434 . S
C1122 C1113 1.429 . S
C1122 N1119 1.350 . S
C1122 C1121 1.434 . S
C1123 C1124 1.369 . S
C1123 C1125 1.419 . S
C1123 H1127 0.930 . S
C1124 C1123 1.369 . S
C1124 C1133 1.429 . S
C1125 C1123 1.419 . S
C1125 C1126 1.363 . S
C1125 H1128 0.929 . S
C1126 C1125 1.363 . S
C1126 C1132 1.428 . S
H1127 C1123 0.930 . S
H1128 C1125 0.929 . S
S1129 N1130 1.613 . S
S1129 N1131 1.610 . S
N1130 S1129 1.613 . S
N1130 C1133 1.350 . S
N1131 S1129 1.610 . S
N1131 C1132 1.351 . S
C1132 C1126 1.428 . S
C1132 N1131 1.351 . S
C1132 C1133 1.434 . S
C1133 C1124 1.429 . S
C1133 N1130 1.350 . S
C1133 C1132 1.434 . S
C1134 C1135 1.369 . S
C1134 C1136 1.419 . S
C1134 H1138 0.930 1_565 S
C1135 C1134 1.369 . S
C1135 C1144 1.429 . S
C1136 C1134 1.419 . S
C1136 C1137 1.363 . S
C1136 H1139 0.929 1_565 S
C1137 C1136 1.363 . S
C1137 C1143 1.428 . S
H1138 C1134 0.930 1_545 S
H1139 C1136 0.929 1_545 S
S1140 N1141 1.613 . S
S1140 N1142 1.610 . S
N1141 S1140 1.613 . S
N1141 C1144 1.350 . S
N1142 S1140 1.610 . S
N1142 C1143 1.351 . S
C1143 C1137 1.428 . S
C1143 N1142 1.351 . S
C1143 C1144 1.434 . S
C1144 C1135 1.429 . S
C1144 N1141 1.350 . S
C1144 C1143 1.434 . S
C1145 C1146 1.369 . S
C1145 C1147 1.419 . S
C1145 H1149 0.930 . S
C1146 C1145 1.369 . S
C1146 C1155 1.429 . S
C1147 C1145 1.419 . S
C1147 C1148 1.363 . S
C1147 H1150 0.929 . S
C1148 C1147 1.363 . S
C1148 C1154 1.428 . S
H1149 C1145 0.930 . S
H1150 C1147 0.929 . S
S1151 N1152 1.613 . S
S1151 N1153 1.610 . S
N1152 S1151 1.613 . S
N1152 C1155 1.350 . S
N1153 S1151 1.610 . S
N1153 C1154 1.351 . S
C1154 C1148 1.428 . S
C1154 N1153 1.351 . S
C1154 C1155 1.434 . S
C1155 C1146 1.429 . S
C1155 N1152 1.350 . S
C1155 C1154 1.434 . S
C1156 C1157 1.369 . S
C1156 C1158 1.419 . S
C1156 H1160 0.930 . S
C1157 C1156 1.369 . S
C1157 C1166 1.429 1_554 S
C1158 C1156 1.419 . S
C1158 C1159 1.363 . S
C1158 H1161 0.929 . S
C1159 C1158 1.363 . S
C1159 C1165 1.428 1_554 S
H1160 C1156 0.930 . S
H1161 C1158 0.929 . S
S1162 N1163 1.613 . S
S1162 N1164 1.610 . S
N1163 S1162 1.613 . S
N1163 C1166 1.350 . S
N1164 S1162 1.610 . S
N1164 C1165 1.351 . S
C1165 C1159 1.428 1_556 S
C1165 N1164 1.351 . S
C1165 C1166 1.434 . S
C1166 C1157 1.429 1_556 S
C1166 N1163 1.350 . S
C1166 C1165 1.434 . S
C1167 C1168 1.369 . S
C1167 C1169 1.419 . S
C1167 H1171 0.930 . S
C1168 C1167 1.369 . S
C1168 C1177 1.429 . S
C1169 C1167 1.419 . S
C1169 C1170 1.363 . S
C1169 H1172 0.929 . S
C1170 C1169 1.363 . S
C1170 C1176 1.428 . S
H1171 C1167 0.930 . S
H1172 C1169 0.929 . S
S1173 N1174 1.613 . S
S1173 N1175 1.610 . S
N1174 S1173 1.613 . S
N1174 C1177 1.350 . S
N1175 S1173 1.610 . S
N1175 C1176 1.351 . S
C1176 C1170 1.428 . S
C1176 N1175 1.351 . S
C1176 C1177 1.434 . S
C1177 C1168 1.429 . S
C1177 N1174 1.350 . S
C1177 C1176 1.434 . S
C1178 C1179 1.369 . S
C1178 C1180 1.419 . S
C1178 H1182 0.930 . S
C1179 C1178 1.369 . S
C1179 C1188 1.429 . S
C1180 C1178 1.419 . S
C1180 C1181 1.363 . S
C1180 H1183 0.929 . S
C1181 C1180 1.363 . S
C1181 C1187 1.428 . S
H1182 C1178 0.930 . S
H1183 C1180 0.929 . S
S1184 N1185 1.613 . S
S1184 N1186 1.610 . S
N1185 S1184 1.613 . S
N1185 C1188 1.350 . S
N1186 S1184 1.610 . S
N1186 C1187 1.351 . S
C1187 C1181 1.428 . S
C1187 N1186 1.351 . S
C1187 C1188 1.434 . S
C1188 C1179 1.429 . S
C1188 N1185 1.350 . S
C1188 C1187 1.434 . S
C1189 C1190 1.369 . S
C1189 C1191 1.419 . S
C1189 H1193 0.930 . S
C1190 C1189 1.369 . S
C1190 C1199 1.429 . S
C1191 C1189 1.419 . S
C1191 C1192 1.363 . S
C1191 H1194 0.929 . S
C1192 C1191 1.363 . S
C1192 C1198 1.428 . S
H1193 C1189 0.930 . S
H1194 C1191 0.929 . S
S1195 N1196 1.613 . S
S1195 N1197 1.610 . S
N1196 S1195 1.613 . S
N1196 C1199 1.350 . S
N1197 S1195 1.610 . S
N1197 C1198 1.351 . S
C1198 C1192 1.428 . S
C1198 N1197 1.351 . S
C1198 C1199 1.434 . S
C1199 C1190 1.429 . S
C1199 N1196 1.350 . S
C1199 C1198 1.434 . S
C1200 C1201 1.369 . S
C1200 C1202 1.419 . S
C1200 H1204 0.930 . S
C1201 C1200 1.369 . S
C1201 C1210 1.429 . S
C1202 C1200 1.419 . S
C1202 C1203 1.363 . S
C1202 H1205 0.929 . S
C1203 C1202 1.363 . S
C1203 C1209 1.428 . S
H1204 C1200 0.930 . S
H1205 C1202 0.929 . S
S1206 N1207 1.613 . S
S1206 N1208 1.610 . S
N1207 S1206 1.613 . S
N1207 C1210 1.350 . S
N1208 S1206 1.610 . S
N1208 C1209 1.351 . S
C1209 C1203 1.428 . S
C1209 N1208 1.351 . S
C1209 C1210 1.434 . S
C1210 C1201 1.429 . S
C1210 N1207 1.350 . S
C1210 C1209 1.434 . S
C1211 C1212 1.369 . S
C1211 C1213 1.419 . S
C1211 H1215 0.930 . S
C1212 C1211 1.369 . S
C1212 C1221 1.429 . S
C1213 C1211 1.419 . S
C1213 C1214 1.363 . S
C1213 H1216 0.929 . S
C1214 C1213 1.363 . S
C1214 C1220 1.428 . S
H1215 C1211 0.930 . S
H1216 C1213 0.929 . S
S1217 N1218 1.613 . S
S1217 N1219 1.610 . S
N1218 S1217 1.613 . S
N1218 C1221 1.350 . S
N1219 S1217 1.610 . S
N1219 C1220 1.351 . S
C1220 C1214 1.428 . S
C1220 N1219 1.351 . S
C1220 C1221 1.434 . S
C1221 C1212 1.429 . S
C1221 N1218 1.350 . S
C1221 C1220 1.434 . S
C1222 C1223 1.369 . S
C1222 C1224 1.419 . S
C1222 H1226 0.930 . S
C1223 C1222 1.369 . S
C1223 C1232 1.429 . S
C1224 C1222 1.419 . S
C1224 C1225 1.363 . S
C1224 H1227 0.929 . S
C1225 C1224 1.363 . S
C1225 C1231 1.428 . S
H1226 C1222 0.930 . S
H1227 C1224 0.929 . S
S1228 N1229 1.613 . S
S1228 N1230 1.610 . S
N1229 S1228 1.613 . S
N1229 C1232 1.350 . S
N1230 S1228 1.610 . S
N1230 C1231 1.351 . S
C1231 C1225 1.428 . S
C1231 N1230 1.351 . S
C1231 C1232 1.434 . S
C1232 C1223 1.429 . S
C1232 N1229 1.350 . S
C1232 C1231 1.434 . S
C1233 C1234 1.369 . S
C1233 C1235 1.419 . S
C1233 H1237 0.930 . S
C1234 C1233 1.369 . S
C1234 C1243 1.429 . S
C1235 C1233 1.419 . S
C1235 C1236 1.363 . S
C1235 H1238 0.929 . S
C1236 C1235 1.363 . S
C1236 C1242 1.428 . S
H1237 C1233 0.930 . S
H1238 C1235 0.929 . S
S1239 N1240 1.613 . S
S1239 N1241 1.610 . S
N1240 S1239 1.613 . S
N1240 C1243 1.350 . S
N1241 S1239 1.610 . S
N1241 C1242 1.351 . S
C1242 C1236 1.428 . S
C1242 N1241 1.351 . S
C1242 C1243 1.434 . S
C1243 C1234 1.429 . S
C1243 N1240 1.350 . S
C1243 C1242 1.434 . S
C1244 C1245 1.369 . S
C1244 C1246 1.419 . S
C1244 H1248 0.930 . S
C1245 C1244 1.369 . S
C1245 C1254 1.429 . S
C1246 C1244 1.419 . S
C1246 C1247 1.363 . S
C1246 H1249 0.929 . S
C1247 C1246 1.363 . S
C1247 C1253 1.428 . S
H1248 C1244 0.930 . S
H1249 C1246 0.929 . S
S1250 N1251 1.613 . S
S1250 N1252 1.610 . S
N1251 S1250 1.613 . S
N1251 C1254 1.350 . S
N1252 S1250 1.610 . S
N1252 C1253 1.351 . S
C1253 C1247 1.428 . S
C1253 N1252 1.351 . S
C1253 C1254 1.434 . S
C1254 C1245 1.429 . S
C1254 N1251 1.350 . S
C1254 C1253 1.434 . S
C1255 C1256 1.369 . S
C1255 C1257 1.419 . S
C1255 H1259 0.930 1_565 S
C1256 C1255 1.369 . S
C1256 C1265 1.429 . S
C1257 C1255 1.419 . S
C1257 C1258 1.363 . S
C1257 H1260 0.929 1_565 S
C1258 C1257 1.363 . S
C1258 C1264 1.428 . S
H1259 C1255 0.930 1_545 S
H1260 C1257 0.929 1_545 S
S1261 N1262 1.613 . S
S1261 N1263 1.610 . S
N1262 S1261 1.613 . S
N1262 C1265 1.350 . S
N1263 S1261 1.610 . S
N1263 C1264 1.351 . S
C1264 C1258 1.428 . S
C1264 N1263 1.351 . S
C1264 C1265 1.434 . S
C1265 C1256 1.429 . S
C1265 N1262 1.350 . S
C1265 C1264 1.434 . S
C1266 C1267 1.369 . S
C1266 C1268 1.419 . S
C1266 H1270 0.930 . S
C1267 C1266 1.369 . S
C1267 C1276 1.429 . S
C1268 C1266 1.419 . S
C1268 C1269 1.363 . S
C1268 H1271 0.929 . S
C1269 C1268 1.363 . S
C1269 C1275 1.428 . S
H1270 C1266 0.930 . S
H1271 C1268 0.929 . S
S1272 N1273 1.613 . S
S1272 N1274 1.610 . S
N1273 S1272 1.613 . S
N1273 C1276 1.350 . S
N1274 S1272 1.610 . S
N1274 C1275 1.351 . S
C1275 C1269 1.428 . S
C1275 N1274 1.351 . S
C1275 C1276 1.434 . S
C1276 C1267 1.429 . S
C1276 N1273 1.350 . S
C1276 C1275 1.434 . S
C1277 C1278 1.369 . S
C1277 C1279 1.419 . S
C1277 H1281 0.930 . S
C1278 C1277 1.369 . S
C1278 C1287 1.429 . S
C1279 C1277 1.419 . S
C1279 C1280 1.363 . S
C1279 H1282 0.929 . S
C1280 C1279 1.363 . S
C1280 C1286 1.428 . S
H1281 C1277 0.930 . S
H1282 C1279 0.929 . S
S1283 N1284 1.613 . S
S1283 N1285 1.610 . S
N1284 S1283 1.613 . S
N1284 C1287 1.350 . S
N1285 S1283 1.610 . S
N1285 C1286 1.351 . S
C1286 C1280 1.428 . S
C1286 N1285 1.351 . S
C1286 C1287 1.434 . S
C1287 C1278 1.429 . S
C1287 N1284 1.350 . S
C1287 C1286 1.434 . S
C1288 C1289 1.369 . S
C1288 C1290 1.419 . S
C1288 H1292 0.930 . S
C1289 C1288 1.369 . S
C1289 C1298 1.429 . S
C1290 C1288 1.419 . S
C1290 C1291 1.363 . S
C1290 H1293 0.929 . S
C1291 C1290 1.363 . S
C1291 C1297 1.428 . S
H1292 C1288 0.930 . S
H1293 C1290 0.929 . S
S1294 N1295 1.613 . S
S1294 N1296 1.610 . S
N1295 S1294 1.613 . S
N1295 C1298 1.350 . S
N1296 S1294 1.610 . S
N1296 C1297 1.351 . S
C1297 C1291 1.428 . S
C1297 N1296 1.351 . S
C1297 C1298 1.434 . S
C1298 C1289 1.429 . S
C1298 N1295 1.350 . S
C1298 C1297 1.434 . S
C1299 C1300 1.369 . S
C1299 C1301 1.419 . S
C1299 H1303 0.930 . S
C1300 C1299 1.369 . S
C1300 C1309 1.429 1_556 S
C1301 C1299 1.419 . S
C1301 C1302 1.372 . S
C1301 H1304 0.929 . S
C1302 C1301 1.372 . S
C1302 C1308 1.421 1_556 S
H1303 C1299 0.930 . S
H1304 C1301 0.929 . S
S1305 N1306 1.613 . S
S1305 N1307 1.610 . S
N1306 S1305 1.613 . S
N1306 C1309 1.350 . S
N1307 S1305 1.610 . S
N1307 C1308 1.351 . S
C1308 C1302 1.421 1_554 S
C1308 N1307 1.351 . S
C1308 C1309 1.434 . S
C1309 C1300 1.429 1_554 S
C1309 N1306 1.350 . S
C1309 C1308 1.434 . S
C1310 C1311 1.369 . S
C1310 C1312 1.419 . S
C1310 H1314 0.930 . S
C1311 C1310 1.369 . S
C1311 C1320 1.429 . S
C1312 C1310 1.419 . S
C1312 C1313 1.363 . S
C1312 H1315 0.929 . S
C1313 C1312 1.363 . S
C1313 C1319 1.428 . S
H1314 C1310 0.930 . S
H1315 C1312 0.929 . S
S1316 N1317 1.613 1_554 S
S1316 N1318 1.610 1_554 S
N1317 S1316 1.613 1_556 S
N1317 C1320 1.350 . S
N1318 S1316 1.610 1_556 S
N1318 C1319 1.351 . S
C1319 C1313 1.428 . S
C1319 N1318 1.351 . S
C1319 C1320 1.434 . S
C1320 C1311 1.429 . S
C1320 N1317 1.350 . S
C1320 C1319 1.434 . S
C1321 C1322 1.369 . S
C1321 C1323 1.418 1_554 S
C1321 H1325 0.930 1_554 S
C1322 C1321 1.369 . S
C1322 C1331 1.429 . S
C1323 C1321 1.418 1_556 S
C1323 C1324 1.362 1_556 S
C1323 H1326 0.931 . S
C1324 C1323 1.362 1_554 S
C1324 C1330 1.428 . S
H1325 C1321 0.930 1_556 S
H1326 C1323 0.931 . S
S1327 N1328 1.613 . S
S1327 N1329 1.610 . S
N1328 S1327 1.613 . S
N1328 C1331 1.350 . S
N1329 S1327 1.610 . S
N1329 C1330 1.351 . S
C1330 C1324 1.428 . S
C1330 N1329 1.351 . S
C1330 C1331 1.434 . S
C1331 C1322 1.429 . S
C1331 N1328 1.350 . S
C1331 C1330 1.434 . S
C805 C22 1.668 . S
C807 C697 1.619 . S
C818 C702 1.703 . S
C816 C38 1.778 . S
C829 C640 1.573 . S
C827 C75 1.679 . S
C838 C91 1.700 . S
C840 C664 1.616 . S
C849 C128 1.684 . S
C851 C802 1.637 . S
C860 C197 1.669 . S
C862 C769 1.612 . S
C873 C723 1.712 . S
C871 C144 1.825 . S
C882 C181 1.656 . S
C884 C757 1.575 . S
C895 C676 1.671 . S
C893 C234 1.719 . S
C906 C703 1.652 . S
C904 C303 1.734 . S
C915 C356 1.725 . S
C917 C694 1.640 . S
C926 C287 1.738 . S
C928 C760 1.634 . S
C939 C781 1.589 . S
C937 C393 1.619 . S
C950 C799 1.759 . S
C948 C409 1.829 . S
C959 C462 1.885 . S
C961 C748 1.768 . S
C972 C724 1.461 . S
C970 C446 1.544 . S
C981 C499 1.664 . S
C983 C719 1.615 . S
C992 C552 1.578 . S
C994 C685 1.509 . S
C1005 C673 1.605 . S
C1003 C515 1.682 . S
C1014 C568 1.955 . S
C1016 C639 1.836 . S
C1027 C740 1.728 . S
C1025 C340 1.787 . S
C1038 C790 1.564 . S
C1036 C621 1.647 . S
C1047 C250 1.660 . S
C1049 C778 1.612 1_556 S
C1058 C605 1.662 . S
C1060 C656 1.571 1_655 S
C1071 C655 1.363 . S
C1069 C39 1.512 . S
C1080 C29 1.253 . S
C1082 C677 1.118 . S
C1093 C682 1.258 . S
C1091 C92 1.537 . S
C1104 C715 1.141 . S
C1102 C82 1.337 . S
C1113 C145 1.521 . S
C1115 C652 1.333 . S
C1124 C188 1.289 . S
C1126 C660 1.103 . S
C1137 C698 1.187 . S
C1135 C135 1.326 . S
C1146 C198 1.522 . S
C1148 C706 1.265 . S
C1157 C251 1.462 . S
C1159 C643 1.273 . S
C1170 C681 1.142 . S
C1168 C294 1.295 . S
C1179 C347 1.312 . S
C1181 C718 1.177 . S
C1190 C304 1.561 . S
C1192 C727 1.325 . S
C1203 C761 1.319 . S
C1201 C410 1.493 . S
C1212 C400 1.266 . S
C1214 C739 1.175 . S
C1223 C453 1.280 . S
C1225 C766 1.068 . S
C1234 C463 1.643 . S
C1236 C786 1.357 . S
C1245 C516 1.539 . S
C1247 C744 1.356 . S
C1258 C736 1.346 . S
C1256 C569 1.566 . S
C1267 C506 1.252 . S
C1269 C782 1.077 . S
C1280 C787 1.130 . S
C1278 C559 1.316 . S
C1291 C745 1.301 . S
C1289 C357 1.448 . S
C1302 C765 1.137 . S
C1300 C612 1.346 . S
C1313 C803 1.122 . S
C1311 C241 1.246 . S
C1322 C622 1.505 . S
C1324 C661 1.239 . S
