# Generated by pormake.
# Topology ocu, (6,8)-cn, num edge types: 1
# Building blocks:
#     Node 0, Type 0, BuildingBlock: KUMBUR_clean_sbu_1, # of connection points: 6
#     Node 1, Type 0, BuildingBlock: KUMBUR_clean_sbu_1, # of connection points: 6
#     Node 2, Type 0, BuildingBlock: KUMBUR_clean_sbu_1, # of connection points: 6
#     Node 3, Type 0, BuildingBlock: KUMBUR_clean_sbu_1, # of connection points: 6
#     Node 4, Type 0, BuildingBlock: KUMBUR_clean_sbu_1, # of connection points: 6
#     Node 5, Type 0, BuildingBlock: KUMBUR_clean_sbu_1, # of connection points: 6
#     Node 6, Type 0, BuildingBlock: KUMBUR_clean_sbu_1, # of connection points: 6
#     Node 7, Type 0, BuildingBlock: KUMBUR_clean_sbu_1, # of connection points: 6
#     Node 8, Type 1, BuildingBlock: VETTIZ_charged_sbu_0, # of connection points: 8
#     Node 9, Type 1, BuildingBlock: VETTIZ_charged_sbu_0, # of connection points: 8
#     Node 10, Type 1, BuildingBlock: VETTIZ_charged_sbu_0, # of connection points: 8
#     Node 11, Type 1, BuildingBlock: VETTIZ_charged_sbu_0, # of connection points: 8
#     Node 12, Type 1, BuildingBlock: VETTIZ_charged_sbu_0, # of connection points: 8
#     Node 13, Type 1, BuildingBlock: VETTIZ_charged_sbu_0, # of connection points: 8
#     Edge 14, Type (0, 1), BuildingBlock: OJICUG_clean_linker_0, # of connection points: 2
#     Edge 15, Type (0, 1), BuildingBlock: OJICUG_clean_linker_0, # of connection points: 2
#     Edge 16, Type (0, 1), BuildingBlock: OJICUG_clean_linker_0, # of connection points: 2
#     Edge 17, Type (0, 1), BuildingBlock: OJICUG_clean_linker_0, # of connection points: 2
#     Edge 18, Type (0, 1), BuildingBlock: OJICUG_clean_linker_0, # of connection points: 2
#     Edge 19, Type (0, 1), BuildingBlock: OJICUG_clean_linker_0, # of connection points: 2
#     Edge 20, Type (0, 1), BuildingBlock: OJICUG_clean_linker_0, # of connection points: 2
#     Edge 21, Type (0, 1), BuildingBlock: OJICUG_clean_linker_0, # of connection points: 2
#     Edge 22, Type (0, 1), BuildingBlock: OJICUG_clean_linker_0, # of connection points: 2
#     Edge 23, Type (0, 1), BuildingBlock: OJICUG_clean_linker_0, # of connection points: 2
#     Edge 24, Type (0, 1), BuildingBlock: OJICUG_clean_linker_0, # of connection points: 2
#     Edge 25, Type (0, 1), BuildingBlock: OJICUG_clean_linker_0, # of connection points: 2
#     Edge 26, Type (0, 1), BuildingBlock: OJICUG_clean_linker_0, # of connection points: 2
#     Edge 27, Type (0, 1), BuildingBlock: OJICUG_clean_linker_0, # of connection points: 2
#     Edge 28, Type (0, 1), BuildingBlock: OJICUG_clean_linker_0, # of connection points: 2
#     Edge 29, Type (0, 1), BuildingBlock: OJICUG_clean_linker_0, # of connection points: 2
#     Edge 30, Type (0, 1), BuildingBlock: OJICUG_clean_linker_0, # of connection points: 2
#     Edge 31, Type (0, 1), BuildingBlock: OJICUG_clean_linker_0, # of connection points: 2
#     Edge 32, Type (0, 1), BuildingBlock: OJICUG_clean_linker_0, # of connection points: 2
#     Edge 33, Type (0, 1), BuildingBlock: OJICUG_clean_linker_0, # of connection points: 2
#     Edge 34, Type (0, 1), BuildingBlock: OJICUG_clean_linker_0, # of connection points: 2
#     Edge 35, Type (0, 1), BuildingBlock: OJICUG_clean_linker_0, # of connection points: 2
#     Edge 36, Type (0, 1), BuildingBlock: OJICUG_clean_linker_0, # of connection points: 2
#     Edge 37, Type (0, 1), BuildingBlock: OJICUG_clean_linker_0, # of connection points: 2
#     Edge 38, Type (0, 1), BuildingBlock: OJICUG_clean_linker_0, # of connection points: 2
#     Edge 39, Type (0, 1), BuildingBlock: OJICUG_clean_linker_0, # of connection points: 2
#     Edge 40, Type (0, 1), BuildingBlock: OJICUG_clean_linker_0, # of connection points: 2
#     Edge 41, Type (0, 1), BuildingBlock: OJICUG_clean_linker_0, # of connection points: 2
#     Edge 42, Type (0, 1), BuildingBlock: OJICUG_clean_linker_0, # of connection points: 2
#     Edge 43, Type (0, 1), BuildingBlock: OJICUG_clean_linker_0, # of connection points: 2
#     Edge 44, Type (0, 1), BuildingBlock: OJICUG_clean_linker_0, # of connection points: 2
#     Edge 45, Type (0, 1), BuildingBlock: OJICUG_clean_linker_0, # of connection points: 2
#     Edge 46, Type (0, 1), BuildingBlock: OJICUG_clean_linker_0, # of connection points: 2
#     Edge 47, Type (0, 1), BuildingBlock: OJICUG_clean_linker_0, # of connection points: 2
#     Edge 48, Type (0, 1), BuildingBlock: OJICUG_clean_linker_0, # of connection points: 2
#     Edge 49, Type (0, 1), BuildingBlock: OJICUG_clean_linker_0, # of connection points: 2
#     Edge 50, Type (0, 1), BuildingBlock: OJICUG_clean_linker_0, # of connection points: 2
#     Edge 51, Type (0, 1), BuildingBlock: OJICUG_clean_linker_0, # of connection points: 2
#     Edge 52, Type (0, 1), BuildingBlock: OJICUG_clean_linker_0, # of connection points: 2
#     Edge 53, Type (0, 1), BuildingBlock: OJICUG_clean_linker_0, # of connection points: 2
#     Edge 54, Type (0, 1), BuildingBlock: OJICUG_clean_linker_0, # of connection points: 2
#     Edge 55, Type (0, 1), BuildingBlock: OJICUG_clean_linker_0, # of connection points: 2
#     Edge 56, Type (0, 1), BuildingBlock: OJICUG_clean_linker_0, # of connection points: 2
#     Edge 57, Type (0, 1), BuildingBlock: OJICUG_clean_linker_0, # of connection points: 2
#     Edge 58, Type (0, 1), BuildingBlock: OJICUG_clean_linker_0, # of connection points: 2
#     Edge 59, Type (0, 1), BuildingBlock: OJICUG_clean_linker_0, # of connection points: 2
#     Edge 60, Type (0, 1), BuildingBlock: OJICUG_clean_linker_0, # of connection points: 2
#     Edge 61, Type (0, 1), BuildingBlock: OJICUG_clean_linker_0, # of connection points: 2
# Relax obj value: 0.101
# Max RMSD: 0.135
# Mean RMSD: 0.107
data_MOF--net-ocu--node1-KUMBUR_clean_sbu_1--node2-VETTIZ_charged_sbu_0--edge1-OJICUG_clean_linker_0
_symmetry_space_group_name_H-M    P1
_symmetry_Int_Tables_number       1
_symmetry_cell_setting            triclinic
loop_
_symmetry_equiv_pos_as_xyz
'x, y, z'
_cell_length_a     29.515703
_cell_length_b     30.704113
_cell_length_c     31.654088
_cell_angle_alpha  103.46194
_cell_angle_beta   77.154405
_cell_angle_gamma 108.1199
loop_
_atom_site_label
_atom_site_type_symbol
_atom_site_fract_x
_atom_site_fract_y
_atom_site_fract_z
_atom_type_partial_charge
Tb0 Tb 0.25009 0.26332 0.24909 0.0
C1 C 0.38348 0.40018 0.38258 0.0
N2 N 0.39694 0.37348 0.34395 0.0
C3 C 0.46741 0.43577 0.32757 0.0
C4 C 0.4108 0.44644 0.39463 0.0
C5 C 0.43974 0.38972 0.31767 0.0
C6 C 0.45242 0.46456 0.36585 0.0
C7 C 0.33252 0.40434 0.45422 0.0
C8 C 0.3445 0.37971 0.41182 0.0
C9 C 0.35813 0.45118 0.46563 0.0
C10 C 0.39699 0.47229 0.43577 0.0
Tb11 Tb 0.34707 0.29986 0.33086 0.0
N12 N 0.31995 0.33458 0.39938 0.0
C13 C 0.29666 0.38048 0.4844 0.0
C14 C 0.28748 0.31022 0.42945 0.0
C15 C 0.27498 0.33292 0.47231 0.0
H16 H 0.45309 0.36684 0.28954 0.0
H17 H 0.24851 0.31378 0.49587 0.0
H18 H 0.14915 0.18746 0.28869 0.0
H19 H 0.36155 0.25991 0.08938 0.0
H20 H 0.27109 0.27348 0.42015 0.0
H21 H 0.28675 0.398 0.51754 0.0
H22 H 0.3333 0.29564 0.16534 0.0
H23 H 0.50076 0.4487 0.30615 0.0
H24 H 0.34913 0.47096 0.4979 0.0
H25 H 0.41728 0.50803 0.44548 0.0
H26 H 0.10538 0.10554 0.26618 0.0
H27 H 0.47436 0.5 0.37383 0.0
H28 H 0.32283 0.17735 0.06097 0.0
N29 N 0.20358 0.1888 0.23157 0.0
C30 C 0.21807 0.16555 0.19122 0.0
C31 C 0.13726 0.12189 0.24493 0.0
C32 C 0.19305 0.11912 0.17636 0.0
C33 C 0.16274 0.1682 0.25789 0.0
C34 C 0.15272 0.09707 0.20417 0.0
N35 N 0.2808 0.23357 0.17983 0.0
C36 C 0.31679 0.25955 0.15328 0.0
C37 C 0.27209 0.16708 0.12116 0.0
C38 C 0.25728 0.189 0.16406 0.0
C39 C 0.31049 0.19284 0.09428 0.0
C40 C 0.33256 0.23944 0.11025 0.0
H41 H 0.13265 0.06133 0.19408 0.0
H42 H 0.18988 0.0608 0.12212 0.0
H43 H 0.25882 0.10292 0.07365 0.0
O44 O 0.24567 0.31619 0.21959 0.0
O45 O 0.30776 0.22592 0.23246 0.0
O46 O 0.37612 0.26967 0.26371 0.0
O47 O 0.18343 0.25895 0.2326 0.0
O48 O 0.3016 0.33237 0.26041 0.0
O49 O 0.37368 0.32684 0.26884 0.0
O50 O 0.3495 0.24664 0.3611 0.0
O51 O 0.28639 0.33413 0.35075 0.0
O52 O 0.22005 0.29212 0.31569 0.0
O53 O 0.41042 0.30651 0.35443 0.0
O54 O 0.29526 0.23062 0.32253 0.0
O55 O 0.22432 0.23616 0.31028 0.0
C56 C 0.35421 0.23493 0.23519 0.0
C57 C 0.18691 0.29543 0.17329 0.0
C58 C 0.1608 0.33381 0.12747 0.0
C59 C 0.15063 0.29177 0.09763 0.0
C60 C 0.17861 0.25424 0.14202 0.0
C61 C 0.16063 0.25257 0.10429 0.0
C62 C 0.17911 0.33558 0.16534 0.0
C63 C 0.34862 0.34261 0.24945 0.0
C64 C 0.2006 0.29666 0.21554 0.0
C65 C 0.20853 0.09655 0.13406 0.0
C66 C 0.2478 0.12054 0.10644 0.0
C67 C 0.24049 0.32507 0.34615 0.0
C68 C 0.4263 0.23517 0.35004 0.0
C69 C 0.45629 0.17402 0.36139 0.0
C70 C 0.48521 0.17488 0.31952 0.0
C71 C 0.45573 0.23585 0.30863 0.0
C72 C 0.4267 0.20439 0.37638 0.0
C73 C 0.48505 0.20577 0.29351 0.0
C74 C 0.24824 0.22171 0.332 0.0
C75 C 0.39443 0.26579 0.36585 0.0
H76 H 0.13457 0.28936 0.06936 0.0
H77 H 0.18466 0.22308 0.1473 0.0
H78 H 0.15341 0.22052 0.08064 0.0
H79 H 0.18563 0.36759 0.18924 0.0
H80 H 0.50886 0.15236 0.30717 0.0
H81 H 0.45609 0.25966 0.28808 0.0
H82 H 0.4037 0.20388 0.40826 0.0
H83 H 0.50788 0.20652 0.26162 0.0
Tb84 Tb 0.76763 0.32263 0.29461 0.0
C85 C 0.92801 0.23075 0.19878 0.0
N86 N 0.88025 0.20818 0.20601 0.0
C87 C 0.88449 0.17123 0.13017 0.0
C88 C 0.95587 0.22522 0.15656 0.0
C89 C 0.85839 0.1779 0.1727 0.0
C90 C 0.93336 0.19529 0.12196 0.0
C91 C 0.99841 0.28251 0.22852 0.0
C92 C 0.94851 0.25994 0.23401 0.0
C93 C 1.0264 0.2778 0.18644 0.0
C94 C 1.00509 0.24955 0.15042 0.0
Tb95 Tb 0.83937 0.22603 0.27506 0.0
N96 N 0.92016 0.26361 0.27417 0.0
C97 C 1.01903 0.30738 0.26578 0.0
C98 C 0.94149 0.28252 0.31093 0.0
C99 C 0.99063 0.30629 0.30733 0.0
H100 H 0.82073 0.15933 0.17881 0.0
H101 H 1.00676 0.32274 0.33665 0.0
H102 H 0.82016 0.41868 0.35879 0.0
H103 H 0.58841 0.20377 0.31196 0.0
H104 H 0.92129 0.27861 0.34329 0.0
H105 H 0.05723 0.32527 0.26302 0.0
H106 H 0.66888 0.23588 0.27284 0.0
H107 H 0.86685 0.14769 0.10374 0.0
H108 H 0.06475 0.29496 0.18167 0.0
H109 H 1.02719 0.24602 0.1182 0.0
H110 H 0.80025 0.46171 0.43354 0.0
H111 H 0.95344 0.19021 0.08894 0.0
H112 H 0.5616 0.24158 0.38755 0.0
N113 N 0.75213 0.3676 0.36142 0.0
C114 C 0.70758 0.35274 0.38513 0.0
C115 C 0.77393 0.431 0.42037 0.0
C116 C 0.69463 0.3762 0.42785 0.0
C117 C 0.78524 0.40635 0.3782 0.0
C118 C 0.72852 0.41575 0.4454 0.0
N119 N 0.68988 0.29067 0.32584 0.0
C120 C 0.6586 0.25275 0.30569 0.0
C121 C 0.62887 0.29614 0.39026 0.0
C122 C 0.67512 0.31323 0.3666 0.0
C123 C 0.59742 0.25605 0.37042 0.0
C124 C 0.61233 0.23455 0.32783 0.0
H125 H 0.71998 0.43478 0.47817 0.0
H126 H 0.63804 0.37657 0.48475 0.0
H127 H 0.58052 0.3065 0.45185 0.0
O128 O 0.74582 0.3326 0.23963 0.0
O129 O 0.75226 0.28037 0.34565 0.0
O130 O 0.76344 0.21303 0.30317 0.0
O131 O 0.76031 0.38861 0.2944 0.0
O132 O 0.75175 0.26488 0.23848 0.0
O133 O 0.77331 0.19966 0.24436 0.0
O134 O 0.84839 0.19665 0.32602 0.0
O135 O 0.85279 0.26754 0.22213 0.0
O136 O 0.84282 0.3364 0.26323 0.0
O137 O 0.8393 0.15509 0.26142 0.0
O138 O 0.84466 0.28134 0.33519 0.0
O139 O 0.8394 0.34608 0.31367 0.0
C140 C 0.74655 0.23577 0.34037 0.0
C141 C 0.69659 0.38309 0.25788 0.0
C142 C 0.64359 0.39881 0.21779 0.0
C143 C 0.60749 0.39626 0.25527 0.0
C144 C 0.66056 0.3817 0.29527 0.0
C145 C 0.61603 0.38763 0.29373 0.0
C146 C 0.68778 0.39124 0.21918 0.0
C147 C 0.75069 0.22031 0.22646 0.0
C148 C 0.74277 0.3744 0.25785 0.0
C149 C 0.64859 0.35919 0.45172 0.0
C150 C 0.61581 0.31927 0.43298 0.0
C151 C 0.85927 0.31258 0.22623 0.0
C152 C 0.84737 0.11465 0.31666 0.0
C153 C 0.85813 0.07778 0.37407 0.0
C154 C 0.85143 0.03523 0.34418 0.0
C155 C 0.84035 0.07141 0.2883 0.0
C156 C 0.85559 0.1175 0.35978 0.0
C157 C 0.84224 0.03213 0.30205 0.0
C158 C 0.85349 0.32702 0.33995 0.0
C159 C 0.84442 0.15591 0.30131 0.0
H160 H 0.57336 0.40266 0.25544 0.0
H161 H 0.66676 0.37638 0.32569 0.0
H162 H 0.5884 0.38643 0.3227 0.0
H163 H 0.71562 0.39211 0.19027 0.0
H164 H 0.8545 1.00422 0.35267 0.0
H165 H 0.83328 0.06784 0.25533 0.0
H166 H 0.85978 0.15059 0.38203 0.0
H167 H 0.83713 0.99907 0.27966 0.0
Tb168 Tb 0.78422 0.73168 0.32633 0.0
C169 C 0.91873 0.87098 0.20101 0.0
N170 N 0.89127 0.87995 0.24089 0.0
C171 C 0.95296 0.94969 0.26096 0.0
C172 C 0.9649 0.90088 0.1898 0.0
C173 C 0.90695 0.91963 0.2702 0.0
C174 C 0.98229 0.94007 0.22076 0.0
C175 C 0.9257 0.82368 0.12798 0.0
C176 C 0.89965 0.83257 0.17056 0.0
C177 C 0.97202 0.85307 0.11687 0.0
C178 C 0.99168 0.89136 0.14778 0.0
Tb179 Tb 0.81719 0.82777 0.25078 0.0
N180 N 0.85541 0.80383 0.18287 0.0
C181 C 0.90424 0.78563 0.09786 0.0
C182 C 0.83333 0.76798 0.15323 0.0
C183 C 0.85769 0.75793 0.11044 0.0
H184 H 0.88361 0.92913 0.30015 0.0
H185 H 0.84044 0.72909 0.0871 0.0
H186 H 0.71854 0.6296 0.27843 0.0
H187 H 0.76128 0.82819 0.49078 0.0
H188 H 0.79702 0.74729 0.16265 0.0
H189 H 0.92299 0.77773 0.0647 0.0
H190 H 0.80577 0.80834 0.41618 0.0
H191 H 0.96537 0.98075 0.2845 0.0
H192 H 0.99281 0.84668 0.08437 0.0
H193 H 1.02728 0.91392 0.13859 0.0
H194 H 0.63646 0.57773 0.29373 0.0
H195 H 1.01769 0.9638 0.21347 0.0
H196 H 0.67666 0.78176 0.51029 0.0
N197 N 0.71009 0.6792 0.33684 0.0
C198 C 0.68204 0.68861 0.37614 0.0
C199 C 0.64858 0.60914 0.31698 0.0
C200 C 0.63562 0.65897 0.38721 0.0
C201 C 0.69472 0.6392 0.30789 0.0
C202 C 0.61866 0.6193 0.35665 0.0
N203 N 0.74633 0.75416 0.39475 0.0
C204 C 0.76883 0.78907 0.42479 0.0
C205 C 0.67459 0.73641 0.44832 0.0
C206 C 0.70105 0.72689 0.40633 0.0
C207 C 0.69636 0.77386 0.47828 0.0
C208 C 0.74389 0.79999 0.467 0.0
H209 H 0.58317 0.59566 0.36388 0.0
H210 H 0.57251 0.64695 0.43795 0.0
H211 H 0.60685 0.71483 0.49167 0.0
O212 O 0.83799 0.7303 0.35926 0.0
O213 O 0.73654 0.77986 0.34374 0.0
O214 O 0.77856 0.84828 0.31689 0.0
O215 O 0.78585 0.6671 0.33609 0.0
O216 O 0.85152 0.78754 0.32288 0.0
O217 O 0.83809 0.85404 0.3159 0.0
O218 O 0.76506 0.82828 0.21514 0.0
O219 O 0.86505 0.77913 0.23387 0.0
O220 O 0.81962 0.71127 0.25921 0.0
O221 O 0.82024 0.89068 0.23348 0.0
O222 O 0.74837 0.77315 0.25217 0.0
O223 O 0.76335 0.70801 0.26234 0.0
C224 C 0.74286 0.82443 0.34324 0.0
C225 C 0.81792 0.66829 0.39767 0.0
C226 C 0.8532 0.63412 0.43912 0.0
C227 C 0.81076 0.6284 0.4704 0.0
C228 C 0.77591 0.6633 0.42938 0.0
C229 C 0.77252 0.64361 0.46584 0.0
C230 C 0.85658 0.65422 0.40288 0.0
C231 C 0.85576 0.83194 0.33614 0.0
C232 C 0.82195 0.68547 0.35751 0.0
C233 C 0.6083 0.6692 0.42879 0.0
C234 C 0.62783 0.70782 0.45936 0.0
C235 C 0.8581 0.73457 0.23524 0.0
C236 C 0.74574 0.89957 0.22785 0.0
C237 C 0.69283 0.93429 0.20561 0.0
C238 C 0.68022 0.95369 0.24996 0.0
C239 C 0.73311 0.9195 0.27181 0.0
C240 C 0.72535 0.90673 0.19493 0.0
C241 C 0.70026 0.94623 0.2828 0.0
C242 C 0.74201 0.72811 0.24376 0.0
C243 C 0.78159 0.87288 0.21539 0.0
H244 H 0.80713 0.61181 0.49811 0.0
H245 H 0.7455 0.67347 0.42559 0.0
H246 H 0.74002 0.63946 0.49018 0.0
H247 H 0.88923 0.6587 0.37853 0.0
H248 H 0.65594 0.97571 0.25915 0.0
H249 H 0.74923 0.91498 0.29738 0.0
H250 H 0.73526 0.89123 0.16097 0.0
H251 H 0.69094 0.96185 0.31676 0.0
Tb252 Tb 0.25493 0.81684 0.28998 0.0
C253 C 0.31722 0.69736 0.37291 0.0
N254 N 0.34515 0.73397 0.35346 0.0
C255 C 0.38423 0.76638 0.41716 0.0
C256 C 0.31953 0.6952 0.41636 0.0
C257 C 0.3808 0.76646 0.37382 0.0
C258 C 0.35266 0.73113 0.43893 0.0
C259 C 0.26061 0.62057 0.36585 0.0
C260 C 0.28873 0.66041 0.348 0.0
C261 C 0.26085 0.61913 0.40982 0.0
C262 C 0.29029 0.65639 0.43504 0.0
Tb263 Tb 0.33539 0.73123 0.28285 0.0
N264 N 0.28938 0.66329 0.30578 0.0
C265 C 0.23365 0.58326 0.33876 0.0
C266 C 0.26478 0.62624 0.27861 0.0
C267 C 0.23613 0.58597 0.29481 0.0
H268 H 0.40791 0.79147 0.35619 0.0
H269 H 0.21608 0.55702 0.27337 0.0
H270 H 0.28275 0.8537 0.19246 0.0
H271 H 0.20546 0.91293 0.4499 0.0
H272 H 0.26674 0.62764 0.24449 0.0
H273 H 0.21146 0.55205 0.35123 0.0
H274 H 0.20016 0.84296 0.3915 0.0
H275 H 0.41196 0.79287 0.43332 0.0
H276 H 0.23923 0.58899 0.4243 0.0
H277 H 0.2912 0.65429 0.46852 0.0
H278 H 0.32487 0.9275 0.16555 0.0
H279 H 0.3558 0.73074 0.47229 0.0
H280 H 0.25568 0.98998 0.43299 0.0
N281 N 0.2872 0.88358 0.25988 0.0
C282 C 0.29465 0.92397 0.28928 0.0
C283 C 0.31754 0.92694 0.20051 0.0
C284 C 0.31723 0.9673 0.2757 0.0
C285 C 0.29447 0.88497 0.2159 0.0
C286 C 0.33027 0.96819 0.23055 0.0
N287 N 0.24809 0.88004 0.34277 0.0
C288 C 0.22221 0.87645 0.38391 0.0
C289 C 0.27791 0.96301 0.36443 0.0
C290 C 0.27441 0.92205 0.3326 0.0
C291 C 0.25382 0.95938 0.40744 0.0
C292 C 0.22524 0.91595 0.41705 0.0
H293 H 0.34755 1.00074 0.21862 0.0
H294 H 0.34133 0.04192 0.29783 0.0
H295 H 0.30752 0.03806 0.37586 0.0
O296 O 0.19908 0.83357 0.27291 0.0
O297 O 0.30663 0.80667 0.22969 0.0
O298 O 0.36971 0.79275 0.25034 0.0
O299 O 0.18585 0.76876 0.29562 0.0
O300 O 0.30153 0.836 0.3415 0.0
O301 O 0.36486 0.80623 0.3048 0.0
O302 O 0.36488 0.68936 0.22857 0.0
O303 O 0.25813 0.71954 0.30874 0.0
O304 O 0.24618 0.78701 0.34841 0.0
O305 O 0.40042 0.7175 0.28536 0.0
O306 O 0.29486 0.70593 0.2272 0.0
O307 O 0.24323 0.75309 0.24112 0.0
C308 C 0.35218 0.80773 0.22343 0.0
C309 C 0.11716 0.7902 0.28794 0.0
C310 C 0.0643 0.83836 0.30134 0.0
C311 C 1.0293 0.80744 0.32679 0.0
C312 C 0.08393 0.75959 0.31427 0.0
C313 C 1.0384 0.76678 0.33151 0.0
C314 C 0.10185 0.82239 0.27401 0.0
C315 C 0.34686 0.83535 0.33644 0.0
C316 C 0.16862 0.79319 0.27793 0.0
C317 C 0.32335 1.0083 0.30746 0.0
C318 C 0.3039 1.00612 0.35187 0.0
C319 C 0.24165 0.743 0.34593 0.0
C320 C 0.44557 0.7312 0.21594 0.0
C321 C 0.47368 0.74968 0.14201 0.0
C322 C 0.50183 0.79355 0.15936 0.0
C323 C 0.47332 0.77552 0.2332 0.0
C324 C 0.44711 0.71868 0.1708 0.0
C325 C 0.50179 0.80621 0.20486 0.0
C326 C 0.25695 0.71584 0.22023 0.0
C327 C 0.40583 0.70236 0.24321 0.0
H328 H 0.99852 0.81739 0.34751 0.0
H329 H 0.09374 0.73203 0.32301 0.0
H330 H 1.01263 0.74405 0.35259 0.0
H331 H 0.12702 0.84457 0.25194 0.0
H332 H 0.52439 0.81737 0.13777 0.0
H333 H 0.47165 0.78714 0.26841 0.0
H334 H 0.42611 0.68406 0.15852 0.0
H335 H 0.52309 0.84026 0.21826 0.0
Tb336 Tb 0.25539 0.83009 0.79459 0.0
C337 C 0.38181 0.69936 0.68245 0.0
N338 N 0.33929 0.68505 0.70925 0.0
C339 C 0.31497 0.61716 0.65507 0.0
C340 C 0.39239 0.67327 0.64044 0.0
C341 C 0.30599 0.64437 0.69641 0.0
C342 C 0.35824 0.63179 0.62685 0.0
C343 C 0.45931 0.75667 0.6705 0.0
C344 C 0.41477 0.74059 0.69719 0.0
C345 C 0.46988 0.73103 0.62839 0.0
C346 C 0.4365 0.68947 0.61339 0.0
Tb347 Tb 0.32733 0.73438 0.774 0.0
N348 N 0.40257 0.76532 0.73755 0.0
C349 C 0.49175 0.79808 0.6869 0.0
C350 C 0.43471 0.80488 0.7543 0.0
C351 C 0.47956 0.82203 0.72915 0.0
H352 H 0.27278 0.6325 0.71831 0.0
H353 H 0.50448 0.85398 0.74219 0.0
H354 H 0.3058 0.93769 0.84278 0.0
H355 H 0.07909 0.7114 0.8259 0.0
H356 H 0.42548 0.82421 0.78629 0.0
H357 H 0.52632 0.8117 0.66734 0.0
H358 H 0.15845 0.73919 0.78306 0.0
H359 H 0.28853 0.58496 0.64503 0.0
H360 H 0.50378 0.74302 0.6072 0.0
H361 H 0.44518 0.67007 0.58084 0.0
H362 H 0.28466 0.99253 0.90983 0.0
H363 H 0.365 0.61073 0.59476 0.0
H364 H 0.05171 0.75996 0.89553 0.0
N365 N 0.23976 0.88506 0.85357 0.0
C366 C 0.19592 0.87262 0.87907 0.0
C367 C 0.25943 0.95887 0.90161 0.0
C368 C 0.18233 0.9027 0.91749 0.0
C369 C 0.27137 0.92776 0.86386 0.0
C370 C 0.21488 0.94615 0.92875 0.0
N371 N 0.17877 0.80168 0.82886 0.0
C372 C 0.14784 0.76062 0.81335 0.0
C373 C 0.11821 0.81569 0.89139 0.0
C374 C 0.1642 0.82977 0.86611 0.0
C375 C 0.08725 0.77235 0.8769 0.0
C376 C 0.10224 0.74489 0.83761 0.0
H377 H 0.20581 0.97027 0.95805 0.0
H378 H 0.12569 0.91109 0.97297 0.0
H379 H 0.06964 0.83489 0.9502 0.0
O380 O 0.23903 0.83193 0.73345 0.0
O381 O 0.23716 0.78615 0.84614 0.0
O382 O 0.25312 0.7183 0.80699 0.0
O383 O 0.23912 0.88954 0.78675 0.0
O384 O 0.24065 0.7708 0.73927 0.0
O385 O 0.25494 0.70731 0.7559 0.0
O386 O 0.3498 0.72864 0.83041 0.0
O387 O 0.33797 0.77694 0.724 0.0
O388 O 0.33096 0.84635 0.76594 0.0
O389 O 0.34106 0.67159 0.77581 0.0
O390 O 0.34481 0.79265 0.82909 0.0
O391 O 0.32276 0.85748 0.82322 0.0
C392 C 0.23486 0.74202 0.84315 0.0
C393 C 0.2618 0.90719 0.71499 0.0
C394 C 0.26256 0.94604 0.6551 0.0
C395 C 0.3107 0.97145 0.6584 0.0
C396 C 0.3098 0.93305 0.71757 0.0
C397 C 0.33406 0.96485 0.68933 0.0
C398 C 0.23837 0.91373 0.6837 0.0
C399 C 0.2369 0.7258 0.73203 0.0
C400 C 0.23534 0.87441 0.74555 0.0
C401 C 0.13672 0.88858 0.94316 0.0
C402 C 0.10477 0.84519 0.93017 0.0
C403 C 0.3464 0.82202 0.72901 0.0
C404 C 0.40338 0.68271 0.81599 0.0
C405 C 0.4536 0.66393 0.85684 0.0
C406 C 0.49332 0.67495 0.82334 0.0
C407 C 0.44323 0.69306 0.78272 0.0
C408 C 0.40881 0.66864 0.85311 0.0
C409 C 0.48806 0.68959 0.78662 0.0
C410 C 0.34449 0.8367 0.84191 0.0
C411 C 0.35631 0.68775 0.81338 0.0
H412 H 0.33052 0.99604 0.63668 0.0
H413 H 0.32831 0.92897 0.74173 0.0
H414 H 0.37113 0.98462 0.69151 0.0
H415 H 0.20101 0.89424 0.68225 0.0
H416 H 0.52808 0.67091 0.82479 0.0
H417 H 0.43982 0.70353 0.75368 0.0
H418 H 0.378 0.66122 0.87898 0.0
H419 H 0.51864 0.69757 0.76077 0.0
Tb420 Tb 0.27704 0.22874 0.81505 0.0
C421 C 0.4175 0.35645 0.68506 0.0
N422 N 0.39156 0.36828 0.72519 0.0
C423 C 0.45804 0.43432 0.74301 0.0
C424 C 0.46528 0.38282 0.67284 0.0
C425 C 0.4105 0.40772 0.7534 0.0
C426 C 0.48575 0.42157 0.70278 0.0
C427 C 0.42002 0.30752 0.61256 0.0
C428 C 0.39513 0.31915 0.65512 0.0
C429 C 0.46797 0.33319 0.60066 0.0
C430 C 0.49055 0.3706 0.63073 0.0
Tb431 Tb 0.31385 0.32265 0.73568 0.0
N432 N 0.34888 0.29425 0.6679 0.0
C433 C 0.39568 0.27082 0.58306 0.0
C434 C 0.32426 0.25997 0.63878 0.0
C435 C 0.34749 0.24725 0.59611 0.0
H436 H 0.38854 0.42012 0.78299 0.0
H437 H 0.32803 0.21971 0.57313 0.0
H438 H 0.21108 0.12646 0.76718 0.0
H439 H 0.25306 0.32975 0.97746 0.0
H440 H 0.28671 0.24296 0.64819 0.0
H441 H 0.41347 0.26099 0.54991 0.0
H442 H 0.29706 0.30971 0.9027 0.0
H443 H 0.47288 0.46532 0.7656 0.0
H444 H 0.48775 0.32473 0.56808 0.0
H445 H 0.52731 0.39045 0.62079 0.0
H446 H 0.12909 0.07499 0.78301 0.0
H447 H 0.52235 0.44274 0.69458 0.0
H448 H 0.16996 0.28247 0.99927 0.0
N449 N 0.20293 0.17659 0.82552 0.0
C450 C 0.17511 0.1863 0.86499 0.0
C451 C 0.14137 0.10646 0.80615 0.0
C452 C 0.12888 0.15657 0.8764 0.0
C453 C 0.1875 0.13635 0.79681 0.0
C454 C 0.11173 0.11679 0.84596 0.0
N455 N 0.23839 0.25356 0.88246 0.0
C456 C 0.26052 0.28962 0.91192 0.0
C457 C 0.16764 0.23502 0.93712 0.0
C458 C 0.19396 0.22526 0.89488 0.0
C459 C 0.18901 0.27361 0.9667 0.0
C460 C 0.23586 0.30065 0.9543 0.0
H461 H 0.07627 0.09318 0.85337 0.0
H462 H 0.06621 0.14444 0.9275 0.0
H463 H 0.10036 0.21286 0.98084 0.0
O464 O 0.32981 0.23045 0.85102 0.0
O465 O 0.23074 0.27834 0.8308 0.0
O466 O 0.27282 0.34495 0.80048 0.0
O467 O 0.27514 0.16711 0.83444 0.0
O468 O 0.34501 0.28412 0.81108 0.0
O469 O 0.33177 0.34965 0.80073 0.0
O470 O 0.26174 0.33213 0.7049 0.0
O471 O 0.35862 0.27251 0.72224 0.0
O472 O 0.31359 0.20499 0.74913 0.0
O473 O 0.32913 0.38414 0.71149 0.0
O474 O 0.24507 0.2687 0.73768 0.0
O475 O 0.25496 0.20211 0.75035 0.0
C476 C 0.23659 0.32221 0.82755 0.0
C477 C 0.34991 0.16001 0.842 0.0
C478 C 0.40062 0.12448 0.86659 0.0
C479 C 0.4177 0.10847 0.82228 0.0
C480 C 0.36722 0.14355 0.79815 0.0
C481 C 0.40103 0.11798 0.78837 0.0
C482 C 0.36667 0.1505 0.87616 0.0
C483 C 0.34934 0.32876 0.82212 0.0
C484 C 0.31363 0.18622 0.85267 0.0
C485 C 0.10183 0.16687 0.91812 0.0
C486 C 0.12128 0.20584 0.94851 0.0
C487 C 0.35044 0.22784 0.72308 0.0
C488 C 0.26288 0.41139 0.71714 0.0
C489 C 0.21236 0.45537 0.70638 0.0
C490 C 0.22064 0.48516 0.74666 0.0
C491 C 0.27142 0.44171 0.75709 0.0
C492 C 0.23355 0.41843 0.69174 0.0
C493 C 0.25005 0.47824 0.77188 0.0
C494 C 0.2377 0.22352 0.7289 0.0
C495 C 0.28705 0.37441 0.70047 0.0
H496 H 0.4432 0.08773 0.81382 0.0
H497 H 0.35421 0.15012 0.77163 0.0
H498 H 0.414 0.1051 0.7544 0.0
H499 H 0.35332 0.1634 0.91008 0.0
H500 H 0.20456 0.51394 0.75845 0.0
H501 H 0.29531 0.43761 0.77644 0.0
H502 H 0.22699 0.39506 0.66089 0.0
H503 H 0.25661 0.50141 0.80272 0.0
Tb504 Tb 0.74947 0.31903 0.78863 0.0
C505 C 0.79037 0.13091 0.78443 0.0
N506 N 0.7967 0.17113 0.81426 0.0
C507 C 0.76327 0.12711 0.87299 0.0
C508 C 0.7665 0.08746 0.79746 0.0
C509 C 0.7875 0.16923 0.85824 0.0
C510 C 0.75138 0.08618 0.84242 0.0
C511 C 0.80938 0.09203 0.70945 0.0
C512 C 0.81275 0.13292 0.74139 0.0
C513 C 0.7822 0.04896 0.72148 0.0
C514 C 0.76111 0.04663 0.76551 0.0
Tb515 Tb 0.83196 0.23765 0.78424 0.0
N516 N 0.84036 0.17482 0.73156 0.0
C517 C 0.83459 0.0956 0.66678 0.0
C518 C 0.86778 0.17816 0.69095 0.0
C519 C 0.8645 0.13878 0.65768 0.0
H520 H 0.79875 0.20016 0.8822 0.0
H521 H 0.88529 0.14164 0.62516 0.0
H522 H 0.67858 0.25855 0.7138 0.0
H523 H 0.86838 0.49355 0.80125 0.0
H524 H 0.89103 0.2114 0.68375 0.0
H525 H 0.83269 0.06506 0.64115 0.0
H526 H 0.81775 0.42188 0.82881 0.0
H527 H 0.75443 0.12617 0.9079 0.0
H528 H 0.77886 1.01712 0.69737 0.0
H529 H 0.74224 1.01297 0.77476 0.0
H530 H 0.67526 0.25878 0.63685 0.0
H531 H 0.73313 0.05351 0.8539 0.0
H532 H 0.87288 0.50025 0.72386 0.0
N533 N 0.73957 0.31772 0.71843 0.0
C534 C 0.76703 0.35518 0.69991 0.0
C535 C 0.7021 0.28561 0.65381 0.0
C536 C 0.76534 0.35795 0.6565 0.0
C537 C 0.70505 0.28473 0.69709 0.0
C538 C 0.73315 0.32186 0.63303 0.0
N539 N 0.79486 0.38797 0.76735 0.0
C540 C 0.81954 0.42438 0.79499 0.0
C541 C 0.82344 0.4321 0.70829 0.0
C542 C 0.79512 0.39195 0.72547 0.0
C543 C 0.85052 0.4688 0.73583 0.0
C544 C 0.84814 0.46509 0.77951 0.0
H545 H 0.73054 0.32269 0.59964 0.0
H546 H 0.79418 0.39981 0.60508 0.0
H547 H 0.84544 0.46464 0.65039 0.0
O548 O 0.71989 0.36154 0.84226 0.0
O549 O 0.82526 0.33286 0.75788 0.0
O550 O 0.84151 0.2645 0.72369 0.0
O551 O 0.68291 0.32994 0.78665 0.0
O552 O 0.78916 0.34031 0.84539 0.0
O553 O 0.85438 0.31092 0.81487 0.0
O554 O 0.88225 0.21896 0.80887 0.0
O555 O 0.78039 0.24999 0.84423 0.0
O556 O 0.71653 0.25643 0.81934 0.0
O557 O 0.9033 0.28035 0.77948 0.0
O558 O 0.78679 0.21523 0.73095 0.0
O559 O 0.72206 0.24419 0.76497 0.0
C560 C 0.84397 0.30763 0.72321 0.0
C561 C 0.63997 0.31811 0.85714 0.0
C562 C 0.61476 0.30159 0.93186 0.0
C563 C 0.58655 0.25718 0.91589 0.0
C564 C 0.6122 0.27325 0.84124 0.0
C565 C 0.58516 0.24325 0.87067 0.0
C566 C 0.63987 0.33184 0.90203 0.0
C567 C 0.83337 0.33844 0.84553 0.0
C568 C 0.67832 0.34661 0.82851 0.0
C569 C 0.79457 0.39726 0.63856 0.0
C570 C 0.8236 0.43426 0.66441 0.0
C571 C 0.73409 0.24471 0.84831 0.0
C572 C 0.96658 0.25628 0.79392 0.0
C573 C 1.01717 0.20536 0.77737 0.0
C574 C 0.05558 0.23948 0.75834 0.0
C575 C 1.00362 0.29036 0.77412 0.0
C576 C 0.97781 0.21927 0.80367 0.0
C577 C 0.04924 0.2829 0.75858 0.0
C578 C 0.74173 0.21596 0.73363 0.0
C579 C 0.91605 0.25688 0.80188 0.0
H580 H 0.56506 0.23389 0.93835 0.0
H581 H 0.61276 0.26072 0.80624 0.0
H582 H 0.56385 0.20878 0.85831 0.0
H583 H 0.66078 0.36684 0.91327 0.0
H584 H 0.08775 0.23102 0.73875 0.0
H585 H 0.99683 0.32139 0.76917 0.0
H586 H 0.9499 0.19436 0.82131 0.0
H587 H 0.07782 0.3085 0.74249 0.0
Tb588 Tb 0.74226 0.7587 0.74665 0.0
C589 C 0.86851 0.89426 0.88249 0.0
N590 N 0.88394 0.87061 0.84257 0.0
C591 C 0.95 0.93763 0.82907 0.0
C592 C 0.89305 0.94098 0.8969 0.0
C593 C 0.92509 0.89109 0.81647 0.0
C594 C 0.93373 0.96281 0.86927 0.0
C595 C 0.81276 0.89398 0.95182 0.0
C596 C 0.82857 0.87116 0.90966 0.0
C597 C 0.83692 0.94067 0.96606 0.0
C598 C 0.87677 0.96414 0.93862 0.0
Tb599 Tb 0.83901 0.79525 0.82749 0.0
N600 N 0.80489 0.8264 0.89442 0.0
C601 C 0.7733 0.86903 0.97847 0.0
C602 C 0.76774 0.80122 0.92073 0.0
C603 C 0.75099 0.82236 0.96299 0.0
H604 H 0.93968 0.87153 0.78636 0.0
H605 H 0.72109 0.8026 0.98369 0.0
H606 H 0.63999 0.68457 0.78456 0.0
H607 H 0.83575 0.76155 0.58052 0.0
H608 H 0.75106 0.76502 0.909 0.0
H609 H 0.76019 0.88529 1.01122 0.0
H610 H 0.8113 0.79498 0.65817 0.0
H611 H 0.98219 0.95384 0.80806 0.0
H612 H 0.82521 0.9589 0.99835 0.0
H613 H 0.89517 1.00007 0.95022 0.0
H614 H 0.59621 0.60209 0.76331 0.0
H615 H 0.95346 0.99874 0.8791 0.0
H616 H 0.80324 0.6776 0.55394 0.0
N617 N 0.69544 0.68429 0.72872 0.0
C618 C 0.70941 0.66091 0.68833 0.0
C619 C 0.62851 0.61795 0.7422 0.0
C620 C 0.68438 0.61444 0.67372 0.0
C621 C 0.65403 0.66436 0.75469 0.0
C622 C 0.64427 0.59255 0.70185 0.0
N623 N 0.76807 0.73038 0.67525 0.0
C624 C 0.79812 0.75829 0.64689 0.0
C625 C 0.75896 0.66419 0.61637 0.0
C626 C 0.7464 0.68509 0.66019 0.0
C627 C 0.79259 0.69195 0.58783 0.0
C628 C 0.81122 0.73949 0.60281 0.0
H629 H 0.62403 0.55683 0.69194 0.0
H630 H 0.68041 0.55632 0.6192 0.0
H631 H 0.74545 0.60011 0.56876 0.0
O632 O 0.73321 0.81831 0.73174 0.0
O633 O 0.80469 0.72675 0.72161 0.0
O634 O 0.86635 0.75638 0.76476 0.0
O635 O 0.67708 0.75364 0.72708 0.0
O636 O 0.79757 0.82614 0.75092 0.0
O637 O 0.86748 0.81893 0.76427 0.0
O638 O 0.84285 0.75005 0.86684 0.0
O639 O 0.78299 0.834 0.83862 0.0
O640 O 0.71403 0.78272 0.81561 0.0
O641 O 0.9047 0.80552 0.84863 0.0
O642 O 0.79054 0.72454 0.81719 0.0
O643 O 0.71821 0.72886 0.80701 0.0
C644 C 0.84766 0.7291 0.73026 0.0
C645 C 0.68437 0.80374 0.6784 0.0
C646 C 0.66691 0.853 0.63781 0.0
C647 C 0.67055 0.81963 0.59964 0.0
C648 C 0.68808 0.77065 0.63978 0.0
C649 C 0.68145 0.77877 0.60043 0.0
C650 C 0.67381 0.8449 0.67735 0.0
C651 C 0.8445 0.83328 0.7414 0.0
C652 C 0.69127 0.79626 0.72018 0.0
C653 C 0.69887 0.59219 0.63093 0.0
C654 C 0.73596 0.61711 0.60219 0.0
C655 C 0.7355 0.82133 0.84005 0.0
C656 C 0.91968 0.73666 0.85648 0.0
C657 C 0.94726 0.67731 0.87639 0.0
C658 C 0.97997 0.67743 0.83638 0.0
C659 C 0.95306 0.73596 0.81731 0.0
C660 C 0.91666 0.70714 0.88582 0.0
C661 C 0.98272 0.70635 0.80733 0.0
C662 C 0.74332 0.71176 0.82501 0.0
C663 C 0.88886 0.76889 0.86734 0.0
H664 H 0.66299 0.82524 0.56992 0.0
H665 H 0.69526 0.73833 0.64004 0.0
H666 H 0.68379 0.75289 0.57088 0.0
H667 H 0.67067 0.87038 0.70722 0.0
H668 H 1.00481 0.65613 0.82753 0.0
H669 H 0.95619 0.75821 0.79419 0.0
H670 H 0.89036 0.70759 0.91571 0.0
H671 H 1.00848 0.70618 0.77706 0.0
Fe672 Fe 1.04467 0.12974 0.54732 0.0
O673 O 1.03971 0.06315 0.52207 0.0
Fe674 Fe 0.10092 0.0415 0.52168 0.0
Fe675 Fe 0.98827 1.01098 0.54698 0.0
O676 O 1.04519 0.0656 0.52317 0.0
O677 O 0.04953 0.98945 0.54685 0.0
O678 O 1.04399 0.98714 0.54617 0.0
Fe679 Fe 1.044 0.92281 0.52181 0.0
C680 C 0.99672 0.08458 0.62665 0.0
O681 O 0.98467 0.11338 0.51909 0.0
O682 O 0.93678 0.04464 0.54096 0.0
O683 O 0.08757 0.93621 0.46287 0.0
O684 O 0.09099 1.00894 0.45995 0.0
O685 O 0.14662 0.0987 0.49168 0.0
O686 O 0.09426 0.14112 0.4918 0.0
O687 O 0.97747 0.97519 0.48522 0.0
O688 O 0.98402 0.90744 0.49243 0.0
C689 C 0.13411 0.12907 0.47691 0.0
O690 O 0.10557 0.93889 0.54793 0.0
O691 O 0.1527 1.00762 0.52542 0.0
O692 O 0.99942 0.11593 0.60531 0.0
O693 O 0.99773 0.04391 0.60858 0.0
C694 C 0.94478 0.08041 0.52146 0.0
C695 C 0.96826 0.93128 0.47426 0.0
C696 C 0.95615 0.92425 0.59365 0.0
O697 O 0.94289 0.95369 0.57799 0.0
O698 O 0.99593 0.91211 0.57837 0.0
C699 C 0.09165 0.96817 0.4417 0.0
O700 O 0.11254 0.07714 0.58346 0.0
O701 O 0.10318 0.14468 0.57833 0.0
C702 C 0.14593 0.97098 0.54308 0.0
C703 C 0.12029 0.12094 0.59539 0.0
Fe704 Fe 0.54034 0.97376 1.02906 0.0
O705 O 0.58352 0.03076 1.00583 0.0
Fe706 Fe 0.43344 1.00714 0.07273 0.0
Fe707 Fe 0.65466 0.04803 1.00108 0.0
O708 O 0.50378 1.01893 0.06587 0.0
O709 O 0.50461 1.02459 0.06829 0.0
O710 O 0.58435 0.03638 1.00823 0.0
Fe711 Fe 0.54788 0.08155 0.04501 0.0
C712 C 0.62419 0.98882 0.07366 0.0
O713 O 0.58754 0.93443 0.98574 0.0
O714 O 0.64689 0.99021 0.95158 0.0
O715 O 0.50852 0.06838 0.99545 0.0
O716 O 0.4336 0.05165 1.03235 0.0
O717 O 0.4263 0.95344 1.01936 0.0
O718 O 0.49932 0.95698 0.97894 0.0
O719 O 0.65357 0.09679 0.96609 0.0
O720 O 0.59846 0.13405 1.0117 0.0
C721 C 0.45328 0.94469 0.98284 0.0
O722 O 0.50078 0.12095 0.08822 0.0
O723 O 0.44064 0.06535 0.12201 0.0
O724 O 0.57981 0.98703 0.07857 0.0
O725 O 0.6544 1.00312 0.04087 0.0
C726 C 0.62565 0.94715 0.9559 0.0
C727 C 0.63276 0.13035 0.97786 0.0
C728 C 0.63504 0.1102 0.09127 0.0
O729 O 0.66223 0.10136 0.05492 0.0
O730 O 0.58901 0.09821 0.09505 0.0
C731 C 0.46414 0.06638 0.9999 0.0
O732 O 0.43447 0.95846 0.10798 0.0
O733 O 0.48971 0.92127 0.0624 0.0
C734 C 0.46238 0.10838 0.11782 0.0
C735 C 0.45518 0.92479 0.0961 0.0
Fe736 Fe 0.05263 0.58169 0.04165 0.0
O737 O 1.00697 0.52566 0.06463 0.0
Fe738 Fe 0.15453 0.54039 0.99555 0.0
Fe739 Fe 0.93621 0.51349 0.07068 0.0
O740 O 0.08507 0.53359 1.00423 0.0
O741 O 0.08361 0.52748 1.00129 0.0
O742 O 1.00567 0.51949 0.06192 0.0
Fe743 Fe 1.03777 0.47123 1.02393 0.0
C744 C 0.9713 0.6125 0.1169 0.0
O745 O 1.01292 0.57093 0.99266 0.0
O746 O 0.9393 0.56138 1.03203 0.0
O747 O 0.08224 0.42897 0.97858 0.0
O748 O 0.14215 0.48461 0.94526 0.0
O749 O 0.15604 0.59102 0.96243 0.0
O750 O 0.10499 0.63272 1.00795 0.0
O751 O 0.92416 0.46105 1.01764 0.0
O752 O 0.995 0.45815 0.97532 0.0
C753 C 0.13761 0.62618 0.97338 0.0
O754 O 0.07782 0.4809 0.07227 0.0
O755 O 0.15159 0.49238 1.03338 0.0
O756 O 1.00868 0.6243 0.08607 0.0
O757 O 0.94891 0.56963 0.12057 0.0
C758 C 0.96992 0.57375 0.99868 0.0
C759 C 0.94894 0.4499 0.98064 0.0
C760 C 0.95251 0.42721 0.09295 0.0
O761 O 0.93453 0.46274 0.10408 0.0
O762 O 0.9849 0.42037 0.0581 0.0
C763 C 0.12028 0.4415 0.94835 0.0
O764 O 0.16608 0.59228 0.04913 0.0
O765 O 0.09496 0.59559 0.09071 0.0
C766 C 0.1205 0.47695 0.0652 0.0
C767 C 0.14095 0.60365 0.08586 0.0
Fe768 Fe 0.54847 0.51926 0.98502 0.0
O769 O 0.59 0.55601 1.0303 0.0
Fe770 Fe 0.43272 0.4974 0.04325 0.0
Fe771 Fe 0.65745 0.55464 1.02699 0.0
O772 O 0.5 0.49759 0.03589 0.0
O773 O 0.50012 0.49542 0.03985 0.0
O774 O 0.59011 0.55391 0.03415 0.0
Fe775 Fe 0.54172 0.53242 0.0851 0.0
C776 C 0.61239 0.4591 0.98437 0.0
O777 O 0.60516 0.54741 0.93678 0.0
O778 O 0.66805 0.5886 0.97503 0.0
O779 O 0.5183 0.58766 0.08736 0.0
O780 O 0.43963 0.5593 0.08706 0.0
O781 O 0.44454 0.53539 0.99426 0.0
O782 O 0.52221 0.5744 0.98783 0.0
O783 O 0.65747 0.61038 0.0772 0.0
O784 O 0.59107 0.57656 0.12533 0.0
C785 C 0.47935 0.56911 0.98235 0.0
O786 O 0.48511 0.50447 0.13348 0.0
O787 O 0.42208 0.4632 0.09542 0.0
O788 O 0.57208 0.46395 0.98242 0.0
O789 O 0.65072 0.49276 0.9833 0.0
C790 C 0.64629 0.57871 0.94125 0.0
C791 C 0.63056 0.60888 0.11567 0.0
C792 C 0.61141 0.48321 0.08804 0.0
O793 O 0.64582 0.5171 0.076 0.0
O794 O 0.56831 0.47754 0.08287 0.0
C795 C 0.47802 0.59287 0.08599 0.0
O796 O 0.43218 0.44184 0.9926 0.0
O797 O 0.49883 0.47567 0.94466 0.0
C798 C 0.44406 0.47299 0.12914 0.0
C799 C 0.45877 0.44382 0.954 0.0
Fe800 Fe 1.04081 0.47268 0.53224 0.0
O801 O 1.00928 0.52071 0.57144 0.0
Fe802 Fe 0.08673 0.52344 0.43826 0.0
Fe803 Fe 0.9982 0.52973 0.63615 0.0
O804 O 0.07828 0.52655 0.50195 0.0
O805 O 0.07986 0.53264 0.50338 0.0
O806 O 1.01129 0.52649 0.57309 0.0
Fe807 Fe 0.04768 0.58008 0.54282 0.0
C808 C 0.95965 0.42795 0.60449 0.0
O809 O 0.09271 0.48979 0.57221 0.0
O810 O 1.04332 0.4917 0.6368 0.0
O811 O 0.09099 0.62923 0.5013 0.0
O812 O 0.13655 0.58622 0.45011 0.0
O813 O 0.12916 0.48112 0.43741 0.0
O814 O 0.08279 0.43099 0.48484 0.0
O815 O 0.0545 0.58918 0.64737 0.0
O816 O 0.10044 0.6026 0.58251 0.0
C817 C 0.11819 0.44251 0.45231 0.0
O818 O 0.99517 0.55866 0.50548 0.0
O819 O 1.03886 0.56112 0.43895 0.0
O820 O 0.99562 0.42371 0.57241 0.0
O821 O 0.94861 0.46674 0.62218 0.0
C822 C 0.08309 0.48761 0.61314 0.0
C823 C 0.09431 0.60784 0.62444 0.0
C824 C 0.96876 0.61115 0.62055 0.0
O825 O 0.95663 0.57255 0.6355 0.0
O826 O 1.00525 0.62223 0.58891 0.0
C827 C 0.12586 0.62494 0.46802 0.0
O828 O 1.03207 0.46329 0.42789 0.0
O829 O 0.98719 0.4517 0.49301 0.0
C830 C 1.00151 0.56588 0.46673 0.0
C831 C 0.99253 0.44534 0.45113 0.0
Fe832 Fe 0.53861 0.97151 0.52698 0.0
O833 O 0.50997 1.02173 0.56594 0.0
Fe834 Fe 0.59274 1.02117 0.43502 0.0
Fe835 Fe 0.49941 0.03007 0.63086 0.0
O836 O 0.57873 1.02462 0.49794 0.0
O837 O 0.58101 0.0307 0.49983 0.0
O838 O 0.51203 0.02799 0.56769 0.0
Fe839 Fe 0.55336 0.08152 0.53914 0.0
C840 C 0.45712 0.93023 0.59959 0.0
O841 O 0.58988 0.98713 0.5664 0.0
O842 O 0.5429 0.98908 0.63184 0.0
O843 O 0.60114 0.12919 0.49923 0.0
O844 O 0.6441 0.08187 0.45092 0.0
O845 O 0.63158 0.9771 0.43736 0.0
O846 O 0.57896 0.92682 0.48136 0.0
O847 O 0.55623 0.08812 0.64349 0.0
O848 O 0.60577 0.09743 0.58006 0.0
C849 C 0.61792 0.9383 0.45207 0.0
O850 O 0.50278 0.0697 0.49909 0.0
O851 O 0.54898 0.06077 0.43296 0.0
O852 O 0.49185 0.92367 0.56717 0.0
O853 O 0.44761 0.96978 0.61526 0.0
C854 C 0.5807 0.98176 0.60627 0.0
C855 C 0.59818 0.10343 0.6222 0.0
C856 C 0.47479 0.11388 0.61516 0.0
O857 O 0.46117 0.07495 0.62971 0.0
O858 O 0.51359 0.12579 0.58578 0.0
C859 C 0.63497 0.12169 0.46614 0.0
O860 O 0.53585 0.9627 0.42258 0.0
O861 O 0.48626 0.95397 0.4862 0.0
C862 C 0.5118 0.07033 0.45789 0.0
C863 C 0.49381 0.94772 0.44409 0.0
C864 C 0.24023 0.17031 0.38726 0.0
C865 C 0.2204 0.19562 0.36783 0.0
H866 H 0.2287 0.12887 0.43716 0.0
C867 C 0.17279 0.19766 0.38404 0.0
H868 H 0.27681 0.1678 0.37525 0.0
C869 C 0.14579 0.17591 0.41893 0.0
C870 C 0.16521 0.15113 0.43927 0.0
H871 H 0.1562 0.21696 0.37034 0.0
H872 H 0.10922 0.17884 0.42989 0.0
C873 C 0.21272 0.148 0.42266 0.0
C874 C 0.85701 0.04159 0.43955 0.0
C875 C 0.87118 0.08077 0.41835 0.0
H876 H 0.86791 1.01054 0.48963 0.0
C877 C 0.90173 0.12189 0.43811 0.0
H878 H 0.83199 1.0096 0.42674 0.0
C879 C 0.9206 0.12272 0.47514 0.0
C880 C 0.91101 0.08213 0.4932 0.0
H881 H 0.914 0.15295 0.42351 0.0
H882 H 0.94602 0.15476 0.48743 0.0
C883 C 0.87689 0.04219 0.47634 0.0
C884 C 0.8875 0.90525 0.38826 0.0
C885 C 0.8853 0.85829 0.37069 0.0
H886 H 0.91635 0.96557 0.43423 0.0
C887 C 0.91033 0.8359 0.38761 0.0
H888 H 0.86796 0.92338 0.37651 0.0
C889 C 0.9366 0.85956 0.42148 0.0
C890 C 0.93911 0.90652 0.43901 0.0
H891 H 0.90994 0.79997 0.37469 0.0
H892 H 0.95558 0.84103 0.43344 0.0
C893 C 0.91461 0.92929 0.42179 0.0
C894 C 0.12421 0.90976 0.33036 0.0
C895 C 0.07682 0.88867 0.32035 0.0
H896 H 0.16564 0.95196 0.37985 0.0
C897 C 1.04042 0.91029 0.34165 0.0
H898 H 0.15444 0.89615 0.31388 0.0
C899 C 0.04881 0.94515 0.37842 0.0
C900 C 0.09215 0.9558 0.39469 0.0
H901 H 1.00429 0.89649 0.33352 0.0
H902 H 1.01971 0.95931 0.39706 0.0
C903 C 0.13132 0.9421 0.36841 0.0
C904 C 0.20773 0.91447 0.59834 0.0
C905 C 0.23773 0.95295 0.62185 0.0
H906 H 0.15735 0.89001 0.55345 0.0
C907 C 0.24296 0.99775 0.61376 0.0
H908 H 0.20367 0.87945 0.60281 0.0
C909 C 0.21644 1.00394 0.58481 0.0
C910 C 0.18414 0.96547 0.56353 0.0
H911 H 0.26583 0.02824 0.63133 0.0
H912 H 0.21904 0.03888 0.58119 0.0
C913 C 0.18159 0.92061 0.56952 0.0
C914 C 0.2035 0.14874 0.67964 0.0
C915 C 0.20608 0.19593 0.69637 0.0
H916 H 0.17374 0.08759 0.63485 0.0
C917 C 0.17982 0.21765 0.68013 0.0
H918 H 0.22404 0.13124 0.69091 0.0
C919 C 0.15211 0.19309 0.64754 0.0
C920 C 0.14969 0.14603 0.63039 0.0
H921 H 0.18082 0.25389 0.69233 0.0
H922 H 0.13251 0.21124 0.63586 0.0
C923 C 0.17522 0.12388 0.64713 0.0
C924 C 1.04395 0.13728 0.73057 0.0
C925 C 1.00632 0.1569 0.75295 0.0
H926 H 0.06809 0.0937 0.67211 0.0
C927 C 0.96004 0.13712 0.74012 0.0
H928 H 0.07924 0.14999 0.74057 0.0
C929 C 0.95529 0.10817 0.69993 0.0
C930 C 0.99561 0.0968 0.67367 0.0
H931 H 0.9289 0.14929 0.75682 0.0
H932 H 0.92164 0.09858 0.68751 0.0
C933 C 1.03805 0.10622 0.69106 0.0
C934 C 0.91998 0.85739 0.68847 0.0
C935 C 0.87283 0.86012 0.70589 0.0
H936 H 0.98224 0.87474 0.64058 0.0
C937 C 0.85286 0.88597 0.68704 0.0
H938 H 0.93661 0.8378 0.70178 0.0
C939 C 0.8793 0.90738 0.65075 0.0
C940 C 0.92616 0.90321 0.63257 0.0
H941 H 0.81649 0.88887 0.69976 0.0
H942 H 0.86287 0.92648 0.63667 0.0
C943 C 0.94606 0.87843 0.65264 0.0
C944 C 0.35962 0.15955 0.18361 0.0
C945 C 0.38322 0.20434 0.20377 0.0
H946 H 0.36558 0.09547 0.14139 0.0
C947 C 0.43431 0.21863 0.19381 0.0
H948 H 0.32063 0.14678 0.19023 0.0
C949 C 0.46068 0.18874 0.16505 0.0
C950 C 0.43671 0.1434 0.14605 0.0
H951 H 0.454 0.25301 0.2082 0.0
H952 H 0.49974 0.20067 0.15867 0.0
C953 C 0.38573 0.12976 0.15562 0.0
C954 C 0.90092 0.31847 0.14692 0.0
C955 C 0.88937 0.33931 0.19117 0.0
H956 H 0.93082 0.32984 0.08018 0.0
C957 C 0.90447 0.38806 0.20228 0.0
H958 H 0.89007 0.28098 0.13729 0.0
C959 C 0.92735 0.41539 0.17024 0.0
C960 C 0.93615 0.39529 0.12564 0.0
H961 H 0.89738 0.4057 0.23592 0.0
H962 H 0.93681 0.4529 0.18045 0.0
C963 C 0.92433 0.34636 0.11427 0.0
C964 C 0.62591 0.94596 0.17624 0.0
C965 C 0.67423 0.94505 0.17047 0.0
H966 H 0.57227 0.96064 0.15038 0.0
C967 C 0.70541 0.95679 0.13175 0.0
H968 H 0.6008 0.93632 0.20537 0.0
C969 C 0.68905 0.97055 0.10016 0.0
C970 C 0.64111 0.97285 0.10653 0.0
H971 H 0.74293 0.95673 0.12642 0.0
H972 H 0.71425 0.97993 0.071 0.0
C973 C 0.60953 0.9597 0.14463 0.0
C974 C 0.24342 0.65169 0.15366 0.0
C975 C 0.22661 0.68458 0.18706 0.0
H976 H 0.22944 0.60035 0.09587 0.0
C977 C 0.1795 0.68804 0.18869 0.0
H978 H 0.27909 0.64766 0.15146 0.0
C979 C 0.15067 0.66061 0.1572 0.0
C980 C 0.16829 0.62917 0.12276 0.0
H981 H 0.16462 0.71229 0.21429 0.0
H982 H 0.11529 0.66517 0.15903 0.0
C983 C 0.21479 0.62461 0.12178 0.0
C984 C 0.3597 0.90182 0.90664 0.0
C985 C 0.37437 0.86543 0.87647 0.0
H986 H 0.37293 0.95518 0.9632 0.0
C987 C 0.41667 0.85581 0.88108 0.0
H988 H 0.3265 0.90888 0.90578 0.0
C989 C 0.444 0.88282 0.91413 0.0
C990 C 0.42863 0.91891 0.9444 0.0
H991 H 0.42862 0.82722 0.8594 0.0
H992 H 0.47603 0.87433 0.91705 0.0
C993 C 0.38616 0.92799 0.94013 0.0
C994 C 0.216 0.39811 0.85997 0.0
C995 C 0.20393 0.34993 0.85862 0.0
H996 H 0.19986 0.4625 0.88587 0.0
C997 C 0.16151 0.3305 0.88705 0.0
H998 H 0.2485 0.41536 0.84024 0.0
C999 C 0.13305 0.35883 0.91601 0.0
C1000 C 0.14559 0.40731 0.91658 0.0
H1001 H 0.15023 0.29348 0.88703 0.0
H1002 H 0.1017 0.34284 0.938 0.0
C1003 C 0.18751 0.4257 0.88732 0.0
C1004 C 0.71646 0.23134 0.92614 0.0
C1005 C 0.70179 0.22175 0.88476 0.0
H1006 H 0.70537 0.21004 0.98857 0.0
C1007 C 0.6598 0.1858 0.87711 0.0
H1008 H 0.74901 0.25855 0.93277 0.0
C1009 C 0.63468 0.15828 0.90925 0.0
C1010 C 0.65074 0.16653 0.94977 0.0
H1011 H 0.64816 0.17707 0.84532 0.0
H1012 H 0.60446 0.12874 0.90135 0.0
C1013 C 0.69133 0.20389 0.95823 0.0
C1014 C 0.96369 0.60712 0.89301 0.0
C1015 C 0.94705 0.64741 0.90815 0.0
H1016 H 0.98493 0.55326 0.90966 0.0
C1017 C 0.93326 0.65998 0.95402 0.0
H1018 H 0.97281 0.59439 0.85827 0.0
C1019 C 0.93776 0.63423 0.98347 0.0
C1020 C 0.95741 0.59616 0.96792 0.0
H1021 H 0.92082 0.69076 0.96765 0.0
H1022 H 0.9284 0.64566 1.01854 0.0
C1023 C 0.9699 0.58267 0.92247 0.0
C1024 C 0.18853 0.4124 0.10562 0.0
C1025 C 0.15063 0.37491 0.11899 0.0
H1026 H 0.20875 0.4746 0.07784 0.0
C1027 C 0.10287 0.37421 0.1192 0.0
H1028 H 0.22569 0.41336 0.10493 0.0
C1029 C 0.09306 0.40948 0.10481 0.0
C1030 C 0.13099 0.44552 0.08859 0.0
H1031 H 0.07314 0.34539 0.12884 0.0
H1032 H 0.05583 0.40679 0.10381 0.0
C1033 C 0.17882 0.44725 0.09009 0.0
C1034 C 0.18818 0.66609 0.86509 0.0
C1035 C 0.20273 0.71479 0.87685 0.0
H1036 H 0.15539 0.60093 0.88603 0.0
C1037 C 0.18898 0.73524 0.92074 0.0
H1038 H 0.19673 0.6488 0.83156 0.0
C1039 C 0.16467 0.70697 0.9528 0.0
C1040 C 0.15399 0.65816 0.94102 0.0
H1041 H 0.19903 0.77274 0.93062 0.0
H1042 H 0.15677 0.72312 0.98683 0.0
C1043 C 0.16421 0.63839 0.89652 0.0
C1044 C 0.46605 0.11463 0.89934 0.0
C1045 C 0.41722 0.11256 0.90239 0.0
H1046 H 0.51899 0.10166 0.92744 0.0
C1047 C 0.3841 0.09684 0.93875 0.0
H1048 H 0.49261 0.12738 0.87216 0.0
C1049 C 0.39926 0.08209 0.97059 0.0
C1050 C 0.4479 0.08286 0.96681 0.0
H1051 H 0.34618 0.09462 0.94195 0.0
H1052 H 0.37269 0.06956 0.99784 0.0
C1053 C 0.48118 0.09996 0.93112 0.0
C1054 C 0.84433 0.39843 0.9153 0.0
C1055 C 0.8635 0.37002 0.87878 0.0
H1056 H 0.85635 0.44622 0.97545 0.0
C1057 C 0.91245 0.37055 0.87469 0.0
H1058 H 0.80717 0.39931 0.91957 0.0
C1059 C 0.94081 0.39732 0.90673 0.0
C1060 C 0.92114 0.42447 0.94396 0.0
H1061 H 0.92918 0.3498 0.84686 0.0
H1062 H 0.97768 0.39571 0.90288 0.0
C1063 C 0.87273 0.42524 0.94741 0.0
C1064 C 0.65519 0.83615 0.88265 0.0
C1065 C 0.70594 0.85194 0.87043 0.0
H1066 H 0.58967 0.85276 0.91957 0.0
C1067 C 0.72884 0.89815 0.88764 0.0
H1068 H 0.63607 0.80074 0.87026 0.0
C1069 C 0.70241 0.92768 0.9154 0.0
C1070 C 0.65173 0.9125 0.92753 0.0
H1071 H 0.76752 0.91208 0.87912 0.0
H1072 H 0.72216 0.96296 0.92751 0.0
C1073 C 0.62847 0.8659 0.91118 0.0
C1074 C 0.88095 0.65941 0.2084 0.0
C1075 C 0.89095 0.70656 0.2055 0.0
H1076 H 0.89798 0.59499 0.18538 0.0
C1077 C 0.93122 0.72442 0.1744 0.0
H1078 H 0.85102 0.64362 0.23178 0.0
C1079 C 0.95892 0.69524 0.146 0.0
C1080 C 0.94769 0.64762 0.1487 0.0
H1081 H 0.94114 0.7607 0.17167 0.0
H1082 H 0.9884 0.70976 0.12162 0.0
C1083 C 0.9086 0.631 0.18118 0.0
C1084 C 0.42853 0.86422 0.19373 0.0
C1085 C 0.38444 0.83102 0.18708 0.0
H1086 H 0.48635 0.91963 0.16923 0.0
C1087 C 0.36779 0.82492 0.14716 0.0
H1088 H 0.44167 0.87049 0.22453 0.0
C1089 C 0.39312 0.85312 0.11574 0.0
C1090 C 0.43605 0.88767 0.12321 0.0
H1091 H 0.33368 0.7999 0.14126 0.0
H1092 H 0.3777 0.84971 0.0867 0.0
C1093 C 0.45409 0.89233 0.16208 0.0
C1094 C 0.716 0.14357 0.17821 0.0
C1095 C 0.71836 0.19101 0.19375 0.0
H1096 H 0.68814 0.08117 0.13347 0.0
C1097 C 0.68925 0.21021 0.1776 0.0
H1098 H 0.73673 0.12693 0.19029 0.0
C1099 C 0.65979 0.18322 0.14626 0.0
C1100 C 0.65929 0.13656 0.12962 0.0
H1101 H 0.68946 0.24638 0.18881 0.0
H1102 H 0.6389 0.19936 0.13372 0.0
C1103 C 0.68757 0.11701 0.14601 0.0
C1104 C 0.74401 0.65315 0.86827 0.0
C1105 C 0.71769 0.67509 0.85223 0.0
H1106 H 0.7419 0.60541 0.90885 0.0
C1107 C 0.66694 0.66252 0.86367 0.0
H1108 H 0.78303 0.66186 0.8604 0.0
C1109 C 0.6432 0.62859 0.89008 0.0
C1110 C 0.66984 0.60777 0.90694 0.0
H1111 H 0.64546 0.6798 0.85347 0.0
H1112 H 0.60429 0.62046 0.89919 0.0
C1113 C 0.72042 0.62041 0.89574 0.0
C1114 C 0.42077 0.60696 0.90838 0.0
C1115 C 0.45802 0.64428 0.89378 0.0
H1116 H 0.39801 0.55461 0.94832 0.0
C1117 C 0.5005 0.66017 0.91257 0.0
H1118 H 0.38775 0.59346 0.89439 0.0
C1119 C 0.50671 0.63732 0.94332 0.0
C1120 C 0.47054 0.59822 0.95573 0.0
H1121 H 0.52941 0.68955 0.90271 0.0
H1122 H 0.54034 0.64936 0.9563 0.0
C1123 C 0.42682 0.58442 0.93922 0.0
C1124 C 0.37875 0.40452 0.86956 0.0
C1125 C 0.37987 0.358 0.85452 0.0
H1126 H 0.40497 0.46853 0.91207 0.0
C1127 C 0.40946 0.34025 0.87125 0.0
H1128 H 0.35536 0.41893 0.85826 0.0
C1129 C 0.43701 0.36868 0.90305 0.0
C1130 C 0.43558 0.41497 0.91748 0.0
H1131 H 0.41089 0.30451 0.86026 0.0
H1132 H 0.45869 0.35451 0.91682 0.0
C1133 C 0.40691 0.43293 0.90037 0.0
C1134 C 0.5663 0.333 0.9941 0.0
C1135 C 0.61023 0.32186 0.97928 0.0
H1136 H 0.53282 0.38671 0.99981 0.0
C1137 C 0.65163 0.35602 0.9926 0.0
H1138 H 0.53253 0.30641 0.9904 0.0
C1139 C 0.65322 0.40299 0.99662 0.0
C1140 C 0.61148 0.41365 0.99284 0.0
H1141 H 0.68554 0.34725 0.98716 0.0
H1142 H 0.68743 0.42947 0.9975 0.0
C1143 C 0.56685 0.37915 0.99762 0.0
C1144 C 0.6749 0.44701 0.15884 0.0
C1145 C 0.637 0.41391 0.17901 0.0
H1146 H 0.69674 0.49411 0.11375 0.0
C1147 C 0.5921 0.39886 0.16433 0.0
H1148 H 0.70985 0.45962 0.16948 0.0
C1149 C 0.58439 0.41901 0.1322 0.0
C1150 C 0.62125 0.45486 0.1148 0.0
H1151 H 0.56256 0.37258 0.17864 0.0
H1152 H 0.54912 0.40788 0.12233 0.0
C1153 C 0.6672 0.46707 0.12696 0.0
C1154 C 0.71361 0.65201 0.19696 0.0
C1155 C 0.71063 0.69797 0.21252 0.0
H1156 H 0.6882 0.5873 0.15528 0.0
C1157 C 0.67858 0.71404 0.19733 0.0
H1158 H 0.73934 0.63903 0.20646 0.0
C1159 C 0.65023 0.68434 0.1666 0.0
C1160 C 0.6535 0.63858 0.15186 0.0
H1161 H 0.67599 0.74943 0.2086 0.0
H1162 H 0.62673 0.69719 0.15372 0.0
C1163 C 0.68468 0.62237 0.16746 0.0
C1164 C 0.52383 0.71995 0.08007 0.0
C1165 C 0.47961 0.7306 0.09432 0.0
H1166 H 0.5575 0.66626 0.0737 0.0
C1167 C 0.43886 0.69664 0.07952 0.0
H1168 H 0.5573 0.74658 0.08493 0.0
C1169 C 0.43748 0.6496 0.07454 0.0
C1170 C 0.479 0.63883 0.07871 0.0
H1171 H 0.40491 0.70523 0.08452 0.0
H1172 H 0.4035 0.62298 0.07248 0.0
C1173 C 0.5235 0.6737 0.07548 0.0
C1174 C 0.42475 0.39194 0.20976 0.0
C1175 C 0.37399 0.37846 0.22093 0.0
H1176 H 0.4869 0.43443 0.17401 0.0
C1177 C 0.3473 0.39908 0.20368 0.0
H1178 H 0.44669 0.37627 0.22134 0.0
C1179 C 0.37029 0.43062 0.17489 0.0
C1180 C 0.42082 0.44405 0.16383 0.0
H1181 H 0.30842 0.39058 0.21175 0.0
H1182 H 0.34838 0.44439 0.16099 0.0
C1183 C 0.44793 0.42513 0.18231 0.0
C1184 C 0.88736 0.69501 0.6538 0.0
C1185 C 0.87845 0.69961 0.70014 0.0
H1186 H 0.92364 0.66501 0.59183 0.0
C1187 C 0.90197 0.67727 0.71892 0.0
H1188 H 0.87112 0.71257 0.63812 0.0
C1189 C 0.93236 0.65066 0.69273 0.0
C1190 C 0.94111 0.6454 0.64642 0.0
H1191 H 0.89596 0.67953 0.75426 0.0
H1192 H 0.94876 0.63345 0.70899 0.0
C1193 C 0.91847 0.66844 0.62722 0.0
C1194 C 0.41012 0.8903 0.70707 0.0
C1195 C 0.3802 0.8459 0.69481 0.0
H1196 H 0.45961 0.95075 0.68567 0.0
C1197 C 0.38218 0.82538 0.64997 0.0
H1198 H 0.41043 0.90618 0.74142 0.0
C1199 C 0.41035 0.85124 0.61751 0.0
C1200 C 0.43696 0.89723 0.63018 0.0
H1201 H 0.35999 0.79049 0.64007 0.0
H1202 H 0.40898 0.83652 0.58308 0.0
C1203 C 0.43854 0.91551 0.67509 0.0
C1204 C 0.13467 0.46736 0.70279 0.0
C1205 C 0.17966 0.46178 0.68095 0.0
H1206 H 0.06937 0.4797 0.6987 0.0
C1207 C 0.19286 0.46288 0.6356 0.0
H1208 H 0.12335 0.4656 0.7375 0.0
C1209 C 0.16165 0.47108 0.61274 0.0
C1210 C 0.11696 0.47785 0.63513 0.0
H1211 H 0.22756 0.45838 0.61817 0.0
H1212 H 0.17256 0.47246 0.57796 0.0
C1213 C 0.10373 0.47527 0.68026 0.0
C1214 C 0.65989 0.16485 0.72214 0.0
C1215 C 0.70871 0.1814 0.70418 0.0
H1216 H 0.58812 0.12884 0.71129 0.0
C1217 C 0.72217 0.17062 0.65814 0.0
H1218 H 0.64794 0.17272 0.75731 0.0
C1219 C 0.68696 0.1453 0.63084 0.0
C1220 C 0.63768 0.12999 0.64914 0.0
H1221 H 0.75936 0.1836 0.64315 0.0
H1222 H 0.69819 0.13833 0.59554 0.0
C1223 C 0.62525 0.13976 0.69534 0.0
C1224 C 0.91362 0.40228 0.36266 0.0
C1225 C 0.88532 0.35832 0.37167 0.0
H1226 H 0.96906 0.46385 0.38085 0.0
C1227 C 0.88934 0.34466 0.40993 0.0
H1228 H 0.9115 0.41408 0.33364 0.0
C1229 C 0.9223 0.3738 0.43761 0.0
C1230 C 0.95222 0.41673 0.42704 0.0
H1231 H 0.86771 0.31111 0.41794 0.0
H1232 H 0.92589 0.3619 0.46602 0.0
C1233 C 0.94677 0.43084 0.38972 0.0
C1234 C 0.72762 0.89998 0.38555 0.0
C1235 C 0.71105 0.85119 0.3761 0.0
H1236 H 0.71264 0.96435 0.41686 0.0
C1237 C 0.66427 0.83003 0.39719 0.0
H1238 H 0.76365 0.91799 0.37145 0.0
C1239 C 0.63412 0.85738 0.42445 0.0
C1240 C 0.65016 0.9065 0.43124 0.0
H1241 H 0.65023 0.7925 0.39127 0.0
H1242 H 0.59772 0.84016 0.43834 0.0
C1243 C 0.69802 0.92685 0.41226 0.0
C1244 C 0.20528 0.73407 0.42456 0.0
C1245 C 0.20601 0.71776 0.37901 0.0
H1246 H 0.17869 0.71722 0.48979 0.0
C1247 C 0.17448 0.67481 0.3647 0.0
H1248 H 0.22927 0.76736 0.43626 0.0
C1249 C 0.14538 0.6471 0.39486 0.0
C1250 C 0.1473 0.66124 0.4402 0.0
H1251 H 0.1737 0.6617 0.3299 0.0
H1252 H 0.12329 0.61299 0.38235 0.0
C1253 C 0.17624 0.70571 0.45514 0.0
C1254 C 0.46161 0.15891 0.43475 0.0
C1255 C 0.45903 0.14279 0.38964 0.0
H1256 H 0.47934 0.14733 0.4927 0.0
C1257 C 0.46409 0.09808 0.37058 0.0
H1258 H 0.4579 0.19323 0.45044 0.0
C1259 C 0.4767 0.07221 0.39462 0.0
C1260 C 0.48367 0.09015 0.4384 0.0
H1261 H 0.4609 0.08409 0.33632 0.0
H1262 H 0.48407 0.03942 0.37811 0.0
C1263 C 0.47364 0.13258 0.45907 0.0
C1264 C 0.67276 0.91829 0.60084 0.0
C1265 C 0.65193 0.89399 0.63603 0.0
H1266 H 0.66685 0.9659 0.56412 0.0
C1267 C 0.612 0.90446 0.66541 0.0
H1268 H 0.70391 0.91104 0.57798 0.0
C1269 C 0.59071 0.93589 0.65756 0.0
C1270 C 0.60912 0.95727 0.62017 0.0
H1271 H 0.59513 0.88588 0.69256 0.0
H1272 H 0.55798 0.94091 0.67912 0.0
C1273 C 0.65154 0.94965 0.59295 0.0
C1274 C 0.70423 0.23017 0.41792 0.0
C1275 C 0.71255 0.20973 0.37316 0.0
H1276 H 0.67244 0.21794 0.48391 0.0
C1277 C 0.68926 0.16299 0.3596 0.0
H1278 H 0.72116 0.26668 0.42881 0.0
C1279 C 0.6612 0.13609 0.39036 0.0
C1280 C 0.65655 0.15488 0.43563 0.0
H1281 H 0.69362 0.14669 0.32523 0.0
H1282 H 0.64476 0.09962 0.37862 0.0
C1283 C 0.67632 0.20264 0.44929 0.0
C1284 C 0.90879 0.63083 0.48553 0.0
C1285 C 0.89396 0.61924 0.4444 0.0
H1286 H 0.95543 0.62337 0.5241 0.0
C1287 C 0.91772 0.59299 0.40891 0.0
H1288 H 0.89195 0.65213 0.51298 0.0
C1289 C 0.95449 0.57666 0.41524 0.0
C1290 C 0.96728 0.58633 0.45712 0.0
H1291 H 0.9068 0.58385 0.37679 0.0
H1292 H 0.97141 0.55515 0.38811 0.0
C1293 C 0.94509 0.61448 0.4918 0.0
C1294 C 0.42998 0.88495 0.3457 0.0
C1295 C 0.38127 0.8697 0.36465 0.0
H1296 H 0.50245 0.92024 0.35512 0.0
C1297 C 0.36877 0.88188 0.41062 0.0
H1298 H 0.4411 0.87602 0.31051 0.0
C1299 C 0.40477 0.90718 0.43699 0.0
C1300 C 0.45389 0.92118 0.41779 0.0
H1301 H 0.33167 0.87001 0.42634 0.0
H1302 H 0.39424 0.91521 0.47231 0.0
C1303 C 0.46545 0.91019 0.37162 0.0
C1304 C 0.19617 0.38488 0.3565 0.0
C1305 C 0.20972 0.3546 0.37507 0.0
H1306 H 0.15681 0.43494 0.36566 0.0
C1307 C 0.19015 0.35057 0.41943 0.0
H1308 H 0.20923 0.38778 0.32217 0.0
C1309 C 0.1594 0.37786 0.44503 0.0
C1310 C 0.1473 0.40951 0.42658 0.0
H1311 H 0.19763 0.32564 0.43406 0.0
H1312 H 0.14577 0.37468 0.4792 0.0
C1313 C 0.16583 0.41189 0.3817 0.0
C1314 C 0.42898 0.22172 0.67039 0.0
C1315 C 0.38211 0.2006 0.69123 0.0
H1316 H 0.49538 0.21158 0.62924 0.0
C1317 C 0.36537 0.15187 0.68212 0.0
H1318 H 0.44324 0.25921 0.67643 0.0
C1319 C 0.39488 0.12498 0.65542 0.0
C1320 C 0.44266 0.14541 0.63629 0.0
H1321 H 0.32939 0.13402 0.69649 0.0
H1322 H 0.38027 0.08749 0.65087 0.0
C1323 C 0.45895 0.19442 0.64313 0.0
C1324 C 0.88229 0.31691 0.64526 0.0
C1325 C 0.88079 0.3325 0.69089 0.0
H1326 H 0.90927 0.33544 0.58074 0.0
C1327 C 0.91108 0.37585 0.70627 0.0
H1328 H 0.85911 0.28343 0.63287 0.0
C1329 C 0.93931 0.40486 0.67705 0.0
C1330 C 0.93792 0.39139 0.63168 0.0
H1331 H 0.91106 0.38843 0.74124 0.0
H1332 H 0.96033 0.43921 0.6903 0.0
C1333 C 0.91081 0.34645 0.61558 0.0
C1334 C 0.19541 0.70977 0.66625 0.0
C1335 C 0.20359 0.69437 0.70177 0.0
H1336 H 0.15527 0.69391 0.61292 0.0
C1337 C 0.1779 0.64922 0.70938 0.0
H1338 H 0.21485 0.74431 0.65943 0.0
C1339 C 0.14332 0.62096 0.68344 0.0
C1340 C 0.13438 0.63665 0.64855 0.0
H1341 H 0.18315 0.63627 0.73647 0.0
H1342 H 0.12304 0.58687 0.69099 0.0
C1343 C 0.16158 0.68091 0.63949 0.0
loop_
_geom_bond_atom_site_label_1
_geom_bond_atom_site_label_2
_geom_bond_distance
_geom_bond_site_symmetry_2
_ccdc_geom_bond_type
Tb0 N29 2.617 . S
Tb0 N35 2.572 . S
Tb0 O44 2.465 . S
Tb0 O45 2.387 . S
Tb0 O47 2.428 . S
Tb0 O48 2.308 . S
Tb0 O52 2.349 . S
Tb0 O55 2.393 . S
Tb0 C64 2.802 . S
C1 N2 1.379 . S
C1 C4 1.416 . S
C1 C8 1.424 . S
N2 C1 1.379 . S
N2 C5 1.334 . S
N2 Tb11 2.617 . S
C3 C5 1.390 . S
C3 C6 1.339 . S
C3 H23 0.930 . S
C4 C1 1.416 . S
C4 C6 1.416 . S
C4 C10 1.448 . S
C5 N2 1.334 . S
C5 C3 1.390 . S
C5 H16 0.930 . S
C6 C3 1.339 . S
C6 C4 1.416 . S
C6 H27 0.930 . S
C7 C8 1.413 . S
C7 C9 1.427 . S
C7 C13 1.416 . S
C8 C1 1.424 . S
C8 C7 1.413 . S
C8 N12 1.361 . S
C9 C7 1.427 . S
C9 C10 1.328 . S
C9 H24 0.929 . S
C10 C4 1.448 . S
C10 C9 1.328 . S
C10 H25 0.930 . S
Tb11 N2 2.617 . S
Tb11 N12 2.572 . S
Tb11 O46 2.349 . S
Tb11 O49 2.393 . S
Tb11 O50 2.465 . S
Tb11 O51 2.387 . S
Tb11 O53 2.428 . S
Tb11 O54 2.308 . S
Tb11 C75 2.802 . S
N12 C8 1.361 . S
N12 Tb11 2.572 . S
N12 C14 1.340 . S
C13 C7 1.416 . S
C13 C15 1.332 . S
C13 H21 0.931 . S
C14 N12 1.340 . S
C14 C15 1.407 . S
C14 H20 0.930 . S
C15 C13 1.332 . S
C15 C14 1.407 . S
C15 H17 0.929 . S
H16 C5 0.930 . S
H17 C15 0.929 . S
H18 C33 0.930 . S
H19 C40 0.929 . S
H20 C14 0.930 . S
H21 C13 0.931 . S
H22 C36 0.930 . S
H23 C3 0.930 . S
H24 C9 0.929 . S
H25 C10 0.930 . S
H26 C31 0.930 . S
H27 C6 0.930 . S
H28 C39 0.931 . S
N29 Tb0 2.617 . S
N29 C30 1.379 . S
N29 C33 1.334 . S
C30 N29 1.379 . S
C30 C32 1.416 . S
C30 C38 1.424 . S
C31 H26 0.930 . S
C31 C33 1.390 . S
C31 C34 1.339 . S
C32 C30 1.416 . S
C32 C34 1.416 . S
C32 C65 1.448 . S
C33 H18 0.930 . S
C33 N29 1.334 . S
C33 C31 1.390 . S
C34 C31 1.339 . S
C34 C32 1.416 . S
C34 H41 0.930 . S
N35 Tb0 2.572 . S
N35 C36 1.340 . S
N35 C38 1.361 . S
C36 H22 0.930 . S
C36 N35 1.340 . S
C36 C40 1.407 . S
C37 C38 1.413 . S
C37 C39 1.416 . S
C37 C66 1.427 . S
C38 C30 1.424 . S
C38 N35 1.361 . S
C38 C37 1.413 . S
C39 H28 0.931 . S
C39 C37 1.416 . S
C39 C40 1.332 . S
C40 H19 0.929 . S
C40 C36 1.407 . S
C40 C39 1.332 . S
H41 C34 0.930 . S
H42 C65 0.930 . S
H43 C66 0.929 . S
O44 Tb0 2.465 . S
O44 C64 1.264 . S
O45 Tb0 2.387 . S
O45 C56 1.264 . S
O46 Tb11 2.349 . S
O46 C56 1.243 . S
O47 Tb0 2.428 . S
O47 C64 1.256 . S
O48 Tb0 2.308 . S
O48 C63 1.266 . S
O49 Tb11 2.393 . S
O49 C63 1.248 . S
O50 Tb11 2.465 . S
O50 C75 1.264 . S
O51 Tb11 2.387 . S
O51 C67 1.264 . S
O52 Tb0 2.349 . S
O52 C67 1.243 . S
O53 Tb11 2.428 . S
O53 C75 1.256 . S
O54 Tb11 2.308 . S
O54 C74 1.266 . S
O55 Tb0 2.393 . S
O55 C74 1.248 . S
C56 O45 1.264 . S
C56 O46 1.243 . S
C57 C60 1.399 . S
C57 C62 1.383 . S
C57 C64 1.496 . S
C58 C59 1.399 . S
C58 C62 1.389 . S
C59 C58 1.399 . S
C59 C61 1.380 . S
C59 H76 0.929 . S
C60 C57 1.399 . S
C60 C61 1.392 . S
C60 H77 0.929 . S
C61 C59 1.380 . S
C61 C60 1.392 . S
C61 H78 0.929 . S
C62 C57 1.383 . S
C62 C58 1.389 . S
C62 H79 0.931 . S
C63 O48 1.266 . S
C63 O49 1.248 . S
C64 Tb0 2.802 . S
C64 O44 1.264 . S
C64 O47 1.256 . S
C64 C57 1.496 . S
C65 C32 1.448 . S
C65 H42 0.930 . S
C65 C66 1.328 . S
C66 C37 1.427 . S
C66 H43 0.929 . S
C66 C65 1.328 . S
C67 O51 1.264 . S
C67 O52 1.243 . S
C68 C71 1.399 . S
C68 C72 1.383 . S
C68 C75 1.496 . S
C69 C70 1.399 . S
C69 C72 1.389 . S
C70 C69 1.399 . S
C70 C73 1.380 . S
C70 H80 0.929 . S
C71 C68 1.399 . S
C71 C73 1.392 . S
C71 H81 0.929 . S
C72 C68 1.383 . S
C72 C69 1.389 . S
C72 H82 0.931 . S
C73 C70 1.380 . S
C73 C71 1.392 . S
C73 H83 0.929 . S
C74 O54 1.266 . S
C74 O55 1.248 . S
C75 Tb11 2.802 . S
C75 O50 1.264 . S
C75 O53 1.256 . S
C75 C68 1.496 . S
H76 C59 0.929 . S
H77 C60 0.929 . S
H78 C61 0.929 . S
H79 C62 0.931 . S
H80 C70 0.929 . S
H81 C71 0.929 . S
H82 C72 0.931 . S
H83 C73 0.929 . S
Tb84 N113 2.617 . S
Tb84 N119 2.572 . S
Tb84 O128 2.465 . S
Tb84 O129 2.387 . S
Tb84 O131 2.428 . S
Tb84 O132 2.308 . S
Tb84 O136 2.349 . S
Tb84 O139 2.393 . S
Tb84 C148 2.802 . S
C85 N86 1.379 . S
C85 C88 1.416 . S
C85 C92 1.424 . S
N86 C85 1.379 . S
N86 C89 1.334 . S
N86 Tb95 2.617 . S
C87 C89 1.390 . S
C87 C90 1.339 . S
C87 H107 0.930 . S
C88 C85 1.416 . S
C88 C90 1.416 . S
C88 C94 1.448 . S
C89 N86 1.334 . S
C89 C87 1.390 . S
C89 H100 0.930 . S
C90 C87 1.339 . S
C90 C88 1.416 . S
C90 H111 0.930 . S
C91 C92 1.413 . S
C91 C93 1.427 . S
C91 C97 1.416 . S
C92 C85 1.424 . S
C92 C91 1.413 . S
C92 N96 1.361 . S
C93 C91 1.427 . S
C93 C94 1.328 . S
C93 H108 0.929 . S
C94 C88 1.448 . S
C94 C93 1.328 . S
C94 H109 0.930 . S
Tb95 N86 2.617 . S
Tb95 N96 2.572 . S
Tb95 O130 2.349 . S
Tb95 O133 2.393 . S
Tb95 O134 2.465 . S
Tb95 O135 2.387 . S
Tb95 O137 2.428 . S
Tb95 O138 2.308 . S
Tb95 C159 2.802 . S
N96 C92 1.361 . S
N96 Tb95 2.572 . S
N96 C98 1.340 . S
C97 C91 1.416 . S
C97 C99 1.332 . S
C97 H105 0.931 . S
C98 N96 1.340 . S
C98 C99 1.407 . S
C98 H104 0.930 . S
C99 C97 1.332 . S
C99 C98 1.407 . S
C99 H101 0.929 . S
H100 C89 0.930 . S
H101 C99 0.929 . S
H102 C117 0.930 . S
H103 C124 0.929 . S
H104 C98 0.930 . S
H105 C97 0.931 . S
H106 C120 0.930 . S
H107 C87 0.930 . S
H108 C93 0.929 . S
H109 C94 0.930 . S
H110 C115 0.930 . S
H111 C90 0.930 . S
H112 C123 0.931 . S
N113 Tb84 2.617 . S
N113 C114 1.379 . S
N113 C117 1.334 . S
C114 N113 1.379 . S
C114 C116 1.416 . S
C114 C122 1.424 . S
C115 H110 0.930 . S
C115 C117 1.390 . S
C115 C118 1.339 . S
C116 C114 1.416 . S
C116 C118 1.416 . S
C116 C149 1.448 . S
C117 H102 0.930 . S
C117 N113 1.334 . S
C117 C115 1.390 . S
C118 C115 1.339 . S
C118 C116 1.416 . S
C118 H125 0.930 . S
N119 Tb84 2.572 . S
N119 C120 1.340 . S
N119 C122 1.361 . S
C120 H106 0.930 . S
C120 N119 1.340 . S
C120 C124 1.407 . S
C121 C122 1.413 . S
C121 C123 1.416 . S
C121 C150 1.427 . S
C122 C114 1.424 . S
C122 N119 1.361 . S
C122 C121 1.413 . S
C123 H112 0.931 . S
C123 C121 1.416 . S
C123 C124 1.332 . S
C124 H103 0.929 . S
C124 C120 1.407 . S
C124 C123 1.332 . S
H125 C118 0.930 . S
H126 C149 0.930 . S
H127 C150 0.929 . S
O128 Tb84 2.465 . S
O128 C148 1.264 . S
O129 Tb84 2.387 . S
O129 C140 1.264 . S
O130 Tb95 2.349 . S
O130 C140 1.243 . S
O131 Tb84 2.428 . S
O131 C148 1.256 . S
O132 Tb84 2.308 . S
O132 C147 1.266 . S
O133 Tb95 2.393 . S
O133 C147 1.248 . S
O134 Tb95 2.465 . S
O134 C159 1.264 . S
O135 Tb95 2.387 . S
O135 C151 1.264 . S
O136 Tb84 2.349 . S
O136 C151 1.243 . S
O137 Tb95 2.428 . S
O137 C159 1.256 . S
O138 Tb95 2.308 . S
O138 C158 1.266 . S
O139 Tb84 2.393 . S
O139 C158 1.248 . S
C140 O129 1.264 . S
C140 O130 1.243 . S
C141 C144 1.399 . S
C141 C146 1.383 . S
C141 C148 1.496 . S
C142 C143 1.399 . S
C142 C146 1.389 . S
C143 C142 1.399 . S
C143 C145 1.380 . S
C143 H160 0.929 . S
C144 C141 1.399 . S
C144 C145 1.392 . S
C144 H161 0.929 . S
C145 C143 1.380 . S
C145 C144 1.392 . S
C145 H162 0.929 . S
C146 C141 1.383 . S
C146 C142 1.389 . S
C146 H163 0.931 . S
C147 O132 1.266 . S
C147 O133 1.248 . S
C148 Tb84 2.802 . S
C148 O128 1.264 . S
C148 O131 1.256 . S
C148 C141 1.496 . S
C149 C116 1.448 . S
C149 H126 0.930 . S
C149 C150 1.328 . S
C150 C121 1.427 . S
C150 H127 0.929 . S
C150 C149 1.328 . S
C151 O135 1.264 . S
C151 O136 1.243 . S
C152 C155 1.399 . S
C152 C156 1.383 . S
C152 C159 1.496 . S
C153 C154 1.399 . S
C153 C156 1.389 . S
C154 C153 1.399 . S
C154 C157 1.380 . S
C154 H164 0.929 . S
C155 C152 1.399 . S
C155 C157 1.392 . S
C155 H165 0.929 . S
C156 C152 1.383 . S
C156 C153 1.389 . S
C156 H166 0.931 . S
C157 C154 1.380 . S
C157 C155 1.392 . S
C157 H167 0.929 . S
C158 O138 1.266 . S
C158 O139 1.248 . S
C159 Tb95 2.802 . S
C159 O134 1.264 . S
C159 O137 1.256 . S
C159 C152 1.496 . S
H160 C143 0.929 . S
H161 C144 0.929 . S
H162 C145 0.929 . S
H163 C146 0.931 . S
H164 C154 0.929 . S
H165 C155 0.929 . S
H166 C156 0.931 . S
H167 C157 0.929 . S
Tb168 N197 2.617 . S
Tb168 N203 2.572 . S
Tb168 O212 2.465 . S
Tb168 O213 2.387 . S
Tb168 O215 2.428 . S
Tb168 O216 2.308 . S
Tb168 O220 2.349 . S
Tb168 O223 2.393 . S
Tb168 C232 2.802 . S
C169 N170 1.379 . S
C169 C172 1.416 . S
C169 C176 1.424 . S
N170 C169 1.379 . S
N170 C173 1.334 . S
N170 Tb179 2.617 . S
C171 C173 1.390 . S
C171 C174 1.339 . S
C171 H191 0.930 . S
C172 C169 1.416 . S
C172 C174 1.416 . S
C172 C178 1.448 . S
C173 N170 1.334 . S
C173 C171 1.390 . S
C173 H184 0.930 . S
C174 C171 1.339 . S
C174 C172 1.416 . S
C174 H195 0.930 . S
C175 C176 1.413 . S
C175 C177 1.427 . S
C175 C181 1.416 . S
C176 C169 1.424 . S
C176 C175 1.413 . S
C176 N180 1.361 . S
C177 C175 1.427 . S
C177 C178 1.328 . S
C177 H192 0.929 . S
C178 C172 1.448 . S
C178 C177 1.328 . S
C178 H193 0.930 . S
Tb179 N170 2.617 . S
Tb179 N180 2.572 . S
Tb179 O214 2.349 . S
Tb179 O217 2.393 . S
Tb179 O218 2.465 . S
Tb179 O219 2.387 . S
Tb179 O221 2.428 . S
Tb179 O222 2.308 . S
Tb179 C243 2.802 . S
N180 C176 1.361 . S
N180 Tb179 2.572 . S
N180 C182 1.340 . S
C181 C175 1.416 . S
C181 C183 1.332 . S
C181 H189 0.931 . S
C182 N180 1.340 . S
C182 C183 1.407 . S
C182 H188 0.930 . S
C183 C181 1.332 . S
C183 C182 1.407 . S
C183 H185 0.929 . S
H184 C173 0.930 . S
H185 C183 0.929 . S
H186 C201 0.930 . S
H187 C208 0.929 . S
H188 C182 0.930 . S
H189 C181 0.931 . S
H190 C204 0.930 . S
H191 C171 0.930 . S
H192 C177 0.929 . S
H193 C178 0.930 . S
H194 C199 0.930 . S
H195 C174 0.930 . S
H196 C207 0.931 . S
N197 Tb168 2.617 . S
N197 C198 1.379 . S
N197 C201 1.334 . S
C198 N197 1.379 . S
C198 C200 1.416 . S
C198 C206 1.424 . S
C199 H194 0.930 . S
C199 C201 1.390 . S
C199 C202 1.339 . S
C200 C198 1.416 . S
C200 C202 1.416 . S
C200 C233 1.448 . S
C201 H186 0.930 . S
C201 N197 1.334 . S
C201 C199 1.390 . S
C202 C199 1.339 . S
C202 C200 1.416 . S
C202 H209 0.930 . S
N203 Tb168 2.572 . S
N203 C204 1.340 . S
N203 C206 1.361 . S
C204 H190 0.930 . S
C204 N203 1.340 . S
C204 C208 1.407 . S
C205 C206 1.413 . S
C205 C207 1.416 . S
C205 C234 1.427 . S
C206 C198 1.424 . S
C206 N203 1.361 . S
C206 C205 1.413 . S
C207 H196 0.931 . S
C207 C205 1.416 . S
C207 C208 1.332 . S
C208 H187 0.929 . S
C208 C204 1.407 . S
C208 C207 1.332 . S
H209 C202 0.930 . S
H210 C233 0.930 . S
H211 C234 0.929 . S
O212 Tb168 2.465 . S
O212 C232 1.264 . S
O213 Tb168 2.387 . S
O213 C224 1.264 . S
O214 Tb179 2.349 . S
O214 C224 1.243 . S
O215 Tb168 2.428 . S
O215 C232 1.256 . S
O216 Tb168 2.308 . S
O216 C231 1.266 . S
O217 Tb179 2.393 . S
O217 C231 1.248 . S
O218 Tb179 2.465 . S
O218 C243 1.264 . S
O219 Tb179 2.387 . S
O219 C235 1.264 . S
O220 Tb168 2.349 . S
O220 C235 1.243 . S
O221 Tb179 2.428 . S
O221 C243 1.256 . S
O222 Tb179 2.308 . S
O222 C242 1.266 . S
O223 Tb168 2.393 . S
O223 C242 1.248 . S
C224 O213 1.264 . S
C224 O214 1.243 . S
C225 C228 1.399 . S
C225 C230 1.383 . S
C225 C232 1.496 . S
C226 C227 1.399 . S
C226 C230 1.389 . S
C227 C226 1.399 . S
C227 C229 1.380 . S
C227 H244 0.929 . S
C228 C225 1.399 . S
C228 C229 1.392 . S
C228 H245 0.929 . S
C229 C227 1.380 . S
C229 C228 1.392 . S
C229 H246 0.929 . S
C230 C225 1.383 . S
C230 C226 1.389 . S
C230 H247 0.931 . S
C231 O216 1.266 . S
C231 O217 1.248 . S
C232 Tb168 2.802 . S
C232 O212 1.264 . S
C232 O215 1.256 . S
C232 C225 1.496 . S
C233 C200 1.448 . S
C233 H210 0.930 . S
C233 C234 1.328 . S
C234 C205 1.427 . S
C234 H211 0.929 . S
C234 C233 1.328 . S
C235 O219 1.264 . S
C235 O220 1.243 . S
C236 C239 1.399 . S
C236 C240 1.383 . S
C236 C243 1.496 . S
C237 C238 1.399 . S
C237 C240 1.389 . S
C238 C237 1.399 . S
C238 C241 1.380 . S
C238 H248 0.929 . S
C239 C236 1.399 . S
C239 C241 1.392 . S
C239 H249 0.929 . S
C240 C236 1.383 . S
C240 C237 1.389 . S
C240 H250 0.931 . S
C241 C238 1.380 . S
C241 C239 1.392 . S
C241 H251 0.929 . S
C242 O222 1.266 . S
C242 O223 1.248 . S
C243 Tb179 2.802 . S
C243 O218 1.264 . S
C243 O221 1.256 . S
C243 C236 1.496 . S
H244 C227 0.929 . S
H245 C228 0.929 . S
H246 C229 0.929 . S
H247 C230 0.931 . S
H248 C238 0.929 . S
H249 C239 0.929 . S
H250 C240 0.931 . S
H251 C241 0.929 . S
Tb252 N281 2.617 . S
Tb252 N287 2.572 . S
Tb252 O296 2.465 . S
Tb252 O297 2.387 . S
Tb252 O299 2.428 . S
Tb252 O300 2.308 . S
Tb252 O304 2.349 . S
Tb252 O307 2.393 . S
Tb252 C316 2.802 . S
C253 N254 1.379 . S
C253 C256 1.416 . S
C253 C260 1.424 . S
N254 C253 1.379 . S
N254 C257 1.334 . S
N254 Tb263 2.617 . S
C255 C257 1.390 . S
C255 C258 1.339 . S
C255 H275 0.930 . S
C256 C253 1.416 . S
C256 C258 1.416 . S
C256 C262 1.448 . S
C257 N254 1.334 . S
C257 C255 1.390 . S
C257 H268 0.930 . S
C258 C255 1.339 . S
C258 C256 1.416 . S
C258 H279 0.930 . S
C259 C260 1.413 . S
C259 C261 1.427 . S
C259 C265 1.416 . S
C260 C253 1.424 . S
C260 C259 1.413 . S
C260 N264 1.361 . S
C261 C259 1.427 . S
C261 C262 1.328 . S
C261 H276 0.929 . S
C262 C256 1.448 . S
C262 C261 1.328 . S
C262 H277 0.930 . S
Tb263 N254 2.617 . S
Tb263 N264 2.572 . S
Tb263 O298 2.349 . S
Tb263 O301 2.393 . S
Tb263 O302 2.465 . S
Tb263 O303 2.387 . S
Tb263 O305 2.428 . S
Tb263 O306 2.308 . S
Tb263 C327 2.802 . S
N264 C260 1.361 . S
N264 Tb263 2.572 . S
N264 C266 1.340 . S
C265 C259 1.416 . S
C265 C267 1.332 . S
C265 H273 0.931 . S
C266 N264 1.340 . S
C266 C267 1.407 . S
C266 H272 0.930 . S
C267 C265 1.332 . S
C267 C266 1.407 . S
C267 H269 0.929 . S
H268 C257 0.930 . S
H269 C267 0.929 . S
H270 C285 0.930 . S
H271 C292 0.929 . S
H272 C266 0.930 . S
H273 C265 0.931 . S
H274 C288 0.930 . S
H275 C255 0.930 . S
H276 C261 0.929 . S
H277 C262 0.930 . S
H278 C283 0.930 . S
H279 C258 0.930 . S
H280 C291 0.931 . S
N281 Tb252 2.617 . S
N281 C282 1.379 . S
N281 C285 1.334 . S
C282 N281 1.379 . S
C282 C284 1.416 . S
C282 C290 1.424 . S
C283 H278 0.930 . S
C283 C285 1.390 . S
C283 C286 1.339 . S
C284 C282 1.416 . S
C284 C286 1.416 . S
C284 C317 1.448 . S
C285 H270 0.930 . S
C285 N281 1.334 . S
C285 C283 1.390 . S
C286 C283 1.339 . S
C286 C284 1.416 . S
C286 H293 0.930 . S
N287 Tb252 2.572 . S
N287 C288 1.340 . S
N287 C290 1.361 . S
C288 H274 0.930 . S
C288 N287 1.340 . S
C288 C292 1.407 . S
C289 C290 1.413 . S
C289 C291 1.416 . S
C289 C318 1.427 . S
C290 C282 1.424 . S
C290 N287 1.361 . S
C290 C289 1.413 . S
C291 H280 0.931 . S
C291 C289 1.416 . S
C291 C292 1.332 . S
C292 H271 0.929 . S
C292 C288 1.407 . S
C292 C291 1.332 . S
H293 C286 0.930 . S
H294 C317 0.930 . S
H295 C318 0.929 . S
O296 Tb252 2.465 . S
O296 C316 1.264 . S
O297 Tb252 2.387 . S
O297 C308 1.264 . S
O298 Tb263 2.349 . S
O298 C308 1.243 . S
O299 Tb252 2.428 . S
O299 C316 1.256 . S
O300 Tb252 2.308 . S
O300 C315 1.266 . S
O301 Tb263 2.393 . S
O301 C315 1.248 . S
O302 Tb263 2.465 . S
O302 C327 1.264 . S
O303 Tb263 2.387 . S
O303 C319 1.264 . S
O304 Tb252 2.349 . S
O304 C319 1.243 . S
O305 Tb263 2.428 . S
O305 C327 1.256 . S
O306 Tb263 2.308 . S
O306 C326 1.266 . S
O307 Tb252 2.393 . S
O307 C326 1.248 . S
C308 O297 1.264 . S
C308 O298 1.243 . S
C309 C312 1.399 . S
C309 C314 1.383 . S
C309 C316 1.496 . S
C310 C311 1.399 . S
C310 C314 1.389 . S
C311 C310 1.399 . S
C311 C313 1.380 . S
C311 H328 0.929 . S
C312 C309 1.399 . S
C312 C313 1.392 . S
C312 H329 0.929 . S
C313 C311 1.380 . S
C313 C312 1.392 . S
C313 H330 0.929 . S
C314 C309 1.383 . S
C314 C310 1.389 . S
C314 H331 0.931 . S
C315 O300 1.266 . S
C315 O301 1.248 . S
C316 Tb252 2.802 . S
C316 O296 1.264 . S
C316 O299 1.256 . S
C316 C309 1.496 . S
C317 C284 1.448 . S
C317 H294 0.930 . S
C317 C318 1.328 . S
C318 C289 1.427 . S
C318 H295 0.929 . S
C318 C317 1.328 . S
C319 O303 1.264 . S
C319 O304 1.243 . S
C320 C323 1.399 . S
C320 C324 1.383 . S
C320 C327 1.496 . S
C321 C322 1.399 . S
C321 C324 1.389 . S
C322 C321 1.399 . S
C322 C325 1.380 . S
C322 H332 0.929 . S
C323 C320 1.399 . S
C323 C325 1.392 . S
C323 H333 0.929 . S
C324 C320 1.383 . S
C324 C321 1.389 . S
C324 H334 0.931 . S
C325 C322 1.380 . S
C325 C323 1.392 . S
C325 H335 0.929 . S
C326 O306 1.266 . S
C326 O307 1.248 . S
C327 Tb263 2.802 . S
C327 O302 1.264 . S
C327 O305 1.256 . S
C327 C320 1.496 . S
H328 C311 0.929 . S
H329 C312 0.929 . S
H330 C313 0.929 . S
H331 C314 0.931 . S
H332 C322 0.929 . S
H333 C323 0.929 . S
H334 C324 0.931 . S
H335 C325 0.929 . S
Tb336 N365 2.617 . S
Tb336 N371 2.572 . S
Tb336 O380 2.465 . S
Tb336 O381 2.387 . S
Tb336 O383 2.428 . S
Tb336 O384 2.308 . S
Tb336 O388 2.349 . S
Tb336 O391 2.393 . S
Tb336 C400 2.802 . S
C337 N338 1.379 . S
C337 C340 1.416 . S
C337 C344 1.424 . S
N338 C337 1.379 . S
N338 C341 1.334 . S
N338 Tb347 2.617 . S
C339 C341 1.390 . S
C339 C342 1.339 . S
C339 H359 0.930 . S
C340 C337 1.416 . S
C340 C342 1.416 . S
C340 C346 1.448 . S
C341 N338 1.334 . S
C341 C339 1.390 . S
C341 H352 0.930 . S
C342 C339 1.339 . S
C342 C340 1.416 . S
C342 H363 0.930 . S
C343 C344 1.413 . S
C343 C345 1.427 . S
C343 C349 1.416 . S
C344 C337 1.424 . S
C344 C343 1.413 . S
C344 N348 1.361 . S
C345 C343 1.427 . S
C345 C346 1.328 . S
C345 H360 0.929 . S
C346 C340 1.448 . S
C346 C345 1.328 . S
C346 H361 0.930 . S
Tb347 N338 2.617 . S
Tb347 N348 2.572 . S
Tb347 O382 2.349 . S
Tb347 O385 2.393 . S
Tb347 O386 2.465 . S
Tb347 O387 2.387 . S
Tb347 O389 2.428 . S
Tb347 O390 2.308 . S
Tb347 C411 2.802 . S
N348 C344 1.361 . S
N348 Tb347 2.572 . S
N348 C350 1.340 . S
C349 C343 1.416 . S
C349 C351 1.332 . S
C349 H357 0.931 . S
C350 N348 1.340 . S
C350 C351 1.407 . S
C350 H356 0.930 . S
C351 C349 1.332 . S
C351 C350 1.407 . S
C351 H353 0.929 . S
H352 C341 0.930 . S
H353 C351 0.929 . S
H354 C369 0.930 . S
H355 C376 0.929 . S
H356 C350 0.930 . S
H357 C349 0.931 . S
H358 C372 0.930 . S
H359 C339 0.930 . S
H360 C345 0.929 . S
H361 C346 0.930 . S
H362 C367 0.930 . S
H363 C342 0.930 . S
H364 C375 0.931 . S
N365 Tb336 2.617 . S
N365 C366 1.379 . S
N365 C369 1.334 . S
C366 N365 1.379 . S
C366 C368 1.416 . S
C366 C374 1.424 . S
C367 H362 0.930 . S
C367 C369 1.390 . S
C367 C370 1.339 . S
C368 C366 1.416 . S
C368 C370 1.416 . S
C368 C401 1.448 . S
C369 H354 0.930 . S
C369 N365 1.334 . S
C369 C367 1.390 . S
C370 C367 1.339 . S
C370 C368 1.416 . S
C370 H377 0.930 . S
N371 Tb336 2.572 . S
N371 C372 1.340 . S
N371 C374 1.361 . S
C372 H358 0.930 . S
C372 N371 1.340 . S
C372 C376 1.407 . S
C373 C374 1.413 . S
C373 C375 1.416 . S
C373 C402 1.427 . S
C374 C366 1.424 . S
C374 N371 1.361 . S
C374 C373 1.413 . S
C375 H364 0.931 . S
C375 C373 1.416 . S
C375 C376 1.332 . S
C376 H355 0.929 . S
C376 C372 1.407 . S
C376 C375 1.332 . S
H377 C370 0.930 . S
H378 C401 0.930 . S
H379 C402 0.929 . S
O380 Tb336 2.465 . S
O380 C400 1.264 . S
O381 Tb336 2.387 . S
O381 C392 1.264 . S
O382 Tb347 2.349 . S
O382 C392 1.243 . S
O383 Tb336 2.428 . S
O383 C400 1.256 . S
O384 Tb336 2.308 . S
O384 C399 1.266 . S
O385 Tb347 2.393 . S
O385 C399 1.248 . S
O386 Tb347 2.465 . S
O386 C411 1.264 . S
O387 Tb347 2.387 . S
O387 C403 1.264 . S
O388 Tb336 2.349 . S
O388 C403 1.243 . S
O389 Tb347 2.428 . S
O389 C411 1.256 . S
O390 Tb347 2.308 . S
O390 C410 1.266 . S
O391 Tb336 2.393 . S
O391 C410 1.248 . S
C392 O381 1.264 . S
C392 O382 1.243 . S
C393 C396 1.399 . S
C393 C398 1.383 . S
C393 C400 1.496 . S
C394 C395 1.399 . S
C394 C398 1.389 . S
C395 C394 1.399 . S
C395 C397 1.380 . S
C395 H412 0.929 . S
C396 C393 1.399 . S
C396 C397 1.392 . S
C396 H413 0.929 . S
C397 C395 1.380 . S
C397 C396 1.392 . S
C397 H414 0.929 . S
C398 C393 1.383 . S
C398 C394 1.389 . S
C398 H415 0.931 . S
C399 O384 1.266 . S
C399 O385 1.248 . S
C400 Tb336 2.802 . S
C400 O380 1.264 . S
C400 O383 1.256 . S
C400 C393 1.496 . S
C401 C368 1.448 . S
C401 H378 0.930 . S
C401 C402 1.328 . S
C402 C373 1.427 . S
C402 H379 0.929 . S
C402 C401 1.328 . S
C403 O387 1.264 . S
C403 O388 1.243 . S
C404 C407 1.399 . S
C404 C408 1.383 . S
C404 C411 1.496 . S
C405 C406 1.399 . S
C405 C408 1.389 . S
C406 C405 1.399 . S
C406 C409 1.380 . S
C406 H416 0.929 . S
C407 C404 1.399 . S
C407 C409 1.392 . S
C407 H417 0.929 . S
C408 C404 1.383 . S
C408 C405 1.389 . S
C408 H418 0.931 . S
C409 C406 1.380 . S
C409 C407 1.392 . S
C409 H419 0.929 . S
C410 O390 1.266 . S
C410 O391 1.248 . S
C411 Tb347 2.802 . S
C411 O386 1.264 . S
C411 O389 1.256 . S
C411 C404 1.496 . S
H412 C395 0.929 . S
H413 C396 0.929 . S
H414 C397 0.929 . S
H415 C398 0.931 . S
H416 C406 0.929 . S
H417 C407 0.929 . S
H418 C408 0.931 . S
H419 C409 0.929 . S
Tb420 N449 2.617 . S
Tb420 N455 2.572 . S
Tb420 O464 2.465 . S
Tb420 O465 2.387 . S
Tb420 O467 2.428 . S
Tb420 O468 2.308 . S
Tb420 O472 2.349 . S
Tb420 O475 2.393 . S
Tb420 C484 2.802 . S
C421 N422 1.379 . S
C421 C424 1.416 . S
C421 C428 1.424 . S
N422 C421 1.379 . S
N422 C425 1.334 . S
N422 Tb431 2.617 . S
C423 C425 1.390 . S
C423 C426 1.339 . S
C423 H443 0.930 . S
C424 C421 1.416 . S
C424 C426 1.416 . S
C424 C430 1.448 . S
C425 N422 1.334 . S
C425 C423 1.390 . S
C425 H436 0.930 . S
C426 C423 1.339 . S
C426 C424 1.416 . S
C426 H447 0.930 . S
C427 C428 1.413 . S
C427 C429 1.427 . S
C427 C433 1.416 . S
C428 C421 1.424 . S
C428 C427 1.413 . S
C428 N432 1.361 . S
C429 C427 1.427 . S
C429 C430 1.328 . S
C429 H444 0.929 . S
C430 C424 1.448 . S
C430 C429 1.328 . S
C430 H445 0.930 . S
Tb431 N422 2.617 . S
Tb431 N432 2.572 . S
Tb431 O466 2.349 . S
Tb431 O469 2.393 . S
Tb431 O470 2.465 . S
Tb431 O471 2.387 . S
Tb431 O473 2.428 . S
Tb431 O474 2.308 . S
Tb431 C495 2.802 . S
N432 C428 1.361 . S
N432 Tb431 2.572 . S
N432 C434 1.340 . S
C433 C427 1.416 . S
C433 C435 1.332 . S
C433 H441 0.931 . S
C434 N432 1.340 . S
C434 C435 1.407 . S
C434 H440 0.930 . S
C435 C433 1.332 . S
C435 C434 1.407 . S
C435 H437 0.929 . S
H436 C425 0.930 . S
H437 C435 0.929 . S
H438 C453 0.930 . S
H439 C460 0.929 . S
H440 C434 0.930 . S
H441 C433 0.931 . S
H442 C456 0.930 . S
H443 C423 0.930 . S
H444 C429 0.929 . S
H445 C430 0.930 . S
H446 C451 0.930 . S
H447 C426 0.930 . S
H448 C459 0.931 . S
N449 Tb420 2.617 . S
N449 C450 1.379 . S
N449 C453 1.334 . S
C450 N449 1.379 . S
C450 C452 1.416 . S
C450 C458 1.424 . S
C451 H446 0.930 . S
C451 C453 1.390 . S
C451 C454 1.339 . S
C452 C450 1.416 . S
C452 C454 1.416 . S
C452 C485 1.448 . S
C453 H438 0.930 . S
C453 N449 1.334 . S
C453 C451 1.390 . S
C454 C451 1.339 . S
C454 C452 1.416 . S
C454 H461 0.930 . S
N455 Tb420 2.572 . S
N455 C456 1.340 . S
N455 C458 1.361 . S
C456 H442 0.930 . S
C456 N455 1.340 . S
C456 C460 1.407 . S
C457 C458 1.413 . S
C457 C459 1.416 . S
C457 C486 1.427 . S
C458 C450 1.424 . S
C458 N455 1.361 . S
C458 C457 1.413 . S
C459 H448 0.931 . S
C459 C457 1.416 . S
C459 C460 1.332 . S
C460 H439 0.929 . S
C460 C456 1.407 . S
C460 C459 1.332 . S
H461 C454 0.930 . S
H462 C485 0.930 . S
H463 C486 0.929 . S
O464 Tb420 2.465 . S
O464 C484 1.264 . S
O465 Tb420 2.387 . S
O465 C476 1.264 . S
O466 Tb431 2.349 . S
O466 C476 1.243 . S
O467 Tb420 2.428 . S
O467 C484 1.256 . S
O468 Tb420 2.308 . S
O468 C483 1.266 . S
O469 Tb431 2.393 . S
O469 C483 1.248 . S
O470 Tb431 2.465 . S
O470 C495 1.264 . S
O471 Tb431 2.387 . S
O471 C487 1.264 . S
O472 Tb420 2.349 . S
O472 C487 1.243 . S
O473 Tb431 2.428 . S
O473 C495 1.256 . S
O474 Tb431 2.308 . S
O474 C494 1.266 . S
O475 Tb420 2.393 . S
O475 C494 1.248 . S
C476 O465 1.264 . S
C476 O466 1.243 . S
C477 C480 1.399 . S
C477 C482 1.383 . S
C477 C484 1.496 . S
C478 C479 1.399 . S
C478 C482 1.389 . S
C479 C478 1.399 . S
C479 C481 1.380 . S
C479 H496 0.929 . S
C480 C477 1.399 . S
C480 C481 1.392 . S
C480 H497 0.929 . S
C481 C479 1.380 . S
C481 C480 1.392 . S
C481 H498 0.929 . S
C482 C477 1.383 . S
C482 C478 1.389 . S
C482 H499 0.931 . S
C483 O468 1.266 . S
C483 O469 1.248 . S
C484 Tb420 2.802 . S
C484 O464 1.264 . S
C484 O467 1.256 . S
C484 C477 1.496 . S
C485 C452 1.448 . S
C485 H462 0.930 . S
C485 C486 1.328 . S
C486 C457 1.427 . S
C486 H463 0.929 . S
C486 C485 1.328 . S
C487 O471 1.264 . S
C487 O472 1.243 . S
C488 C491 1.399 . S
C488 C492 1.383 . S
C488 C495 1.496 . S
C489 C490 1.399 . S
C489 C492 1.389 . S
C490 C489 1.399 . S
C490 C493 1.380 . S
C490 H500 0.929 . S
C491 C488 1.399 . S
C491 C493 1.392 . S
C491 H501 0.929 . S
C492 C488 1.383 . S
C492 C489 1.389 . S
C492 H502 0.931 . S
C493 C490 1.380 . S
C493 C491 1.392 . S
C493 H503 0.929 . S
C494 O474 1.266 . S
C494 O475 1.248 . S
C495 Tb431 2.802 . S
C495 O470 1.264 . S
C495 O473 1.256 . S
C495 C488 1.496 . S
H496 C479 0.929 . S
H497 C480 0.929 . S
H498 C481 0.929 . S
H499 C482 0.931 . S
H500 C490 0.929 . S
H501 C491 0.929 . S
H502 C492 0.931 . S
H503 C493 0.929 . S
Tb504 N533 2.617 . S
Tb504 N539 2.572 . S
Tb504 O548 2.465 . S
Tb504 O549 2.387 . S
Tb504 O551 2.428 . S
Tb504 O552 2.308 . S
Tb504 O556 2.349 . S
Tb504 O559 2.393 . S
Tb504 C568 2.802 . S
C505 N506 1.379 . S
C505 C508 1.416 . S
C505 C512 1.424 . S
N506 C505 1.379 . S
N506 C509 1.334 . S
N506 Tb515 2.617 . S
C507 C509 1.390 . S
C507 C510 1.339 . S
C507 H527 0.930 . S
C508 C505 1.416 . S
C508 C510 1.416 . S
C508 C514 1.448 . S
C509 N506 1.334 . S
C509 C507 1.390 . S
C509 H520 0.930 . S
C510 C507 1.339 . S
C510 C508 1.416 . S
C510 H531 0.930 . S
C511 C512 1.413 . S
C511 C513 1.427 . S
C511 C517 1.416 . S
C512 C505 1.424 . S
C512 C511 1.413 . S
C512 N516 1.361 . S
C513 C511 1.427 . S
C513 C514 1.328 . S
C513 H528 0.929 . S
C514 C508 1.448 . S
C514 C513 1.328 . S
C514 H529 0.930 . S
Tb515 N506 2.617 . S
Tb515 N516 2.572 . S
Tb515 O550 2.349 . S
Tb515 O553 2.393 . S
Tb515 O554 2.465 . S
Tb515 O555 2.387 . S
Tb515 O557 2.428 . S
Tb515 O558 2.308 . S
Tb515 C579 2.802 . S
N516 C512 1.361 . S
N516 Tb515 2.572 . S
N516 C518 1.340 . S
C517 C511 1.416 . S
C517 C519 1.332 . S
C517 H525 0.931 . S
C518 N516 1.340 . S
C518 C519 1.407 . S
C518 H524 0.930 . S
C519 C517 1.332 . S
C519 C518 1.407 . S
C519 H521 0.929 . S
H520 C509 0.930 . S
H521 C519 0.929 . S
H522 C537 0.930 . S
H523 C544 0.929 . S
H524 C518 0.930 . S
H525 C517 0.931 . S
H526 C540 0.930 . S
H527 C507 0.930 . S
H528 C513 0.929 . S
H529 C514 0.930 . S
H530 C535 0.930 . S
H531 C510 0.930 . S
H532 C543 0.931 . S
N533 Tb504 2.617 . S
N533 C534 1.379 . S
N533 C537 1.334 . S
C534 N533 1.379 . S
C534 C536 1.416 . S
C534 C542 1.424 . S
C535 H530 0.930 . S
C535 C537 1.390 . S
C535 C538 1.339 . S
C536 C534 1.416 . S
C536 C538 1.416 . S
C536 C569 1.448 . S
C537 H522 0.930 . S
C537 N533 1.334 . S
C537 C535 1.390 . S
C538 C535 1.339 . S
C538 C536 1.416 . S
C538 H545 0.930 . S
N539 Tb504 2.572 . S
N539 C540 1.340 . S
N539 C542 1.361 . S
C540 H526 0.930 . S
C540 N539 1.340 . S
C540 C544 1.407 . S
C541 C542 1.413 . S
C541 C543 1.416 . S
C541 C570 1.427 . S
C542 C534 1.424 . S
C542 N539 1.361 . S
C542 C541 1.413 . S
C543 H532 0.931 . S
C543 C541 1.416 . S
C543 C544 1.332 . S
C544 H523 0.929 . S
C544 C540 1.407 . S
C544 C543 1.332 . S
H545 C538 0.930 . S
H546 C569 0.930 . S
H547 C570 0.929 . S
O548 Tb504 2.465 . S
O548 C568 1.264 . S
O549 Tb504 2.387 . S
O549 C560 1.264 . S
O550 Tb515 2.349 . S
O550 C560 1.243 . S
O551 Tb504 2.428 . S
O551 C568 1.256 . S
O552 Tb504 2.308 . S
O552 C567 1.266 . S
O553 Tb515 2.393 . S
O553 C567 1.248 . S
O554 Tb515 2.465 . S
O554 C579 1.264 . S
O555 Tb515 2.387 . S
O555 C571 1.264 . S
O556 Tb504 2.349 . S
O556 C571 1.243 . S
O557 Tb515 2.428 . S
O557 C579 1.256 . S
O558 Tb515 2.308 . S
O558 C578 1.266 . S
O559 Tb504 2.393 . S
O559 C578 1.248 . S
C560 O549 1.264 . S
C560 O550 1.243 . S
C561 C564 1.399 . S
C561 C566 1.383 . S
C561 C568 1.496 . S
C562 C563 1.399 . S
C562 C566 1.389 . S
C563 C562 1.399 . S
C563 C565 1.380 . S
C563 H580 0.929 . S
C564 C561 1.399 . S
C564 C565 1.392 . S
C564 H581 0.929 . S
C565 C563 1.380 . S
C565 C564 1.392 . S
C565 H582 0.929 . S
C566 C561 1.383 . S
C566 C562 1.389 . S
C566 H583 0.931 . S
C567 O552 1.266 . S
C567 O553 1.248 . S
C568 Tb504 2.802 . S
C568 O548 1.264 . S
C568 O551 1.256 . S
C568 C561 1.496 . S
C569 C536 1.448 . S
C569 H546 0.930 . S
C569 C570 1.328 . S
C570 C541 1.427 . S
C570 H547 0.929 . S
C570 C569 1.328 . S
C571 O555 1.264 . S
C571 O556 1.243 . S
C572 C575 1.399 . S
C572 C576 1.383 . S
C572 C579 1.496 . S
C573 C574 1.399 . S
C573 C576 1.389 . S
C574 C573 1.399 . S
C574 C577 1.380 . S
C574 H584 0.929 . S
C575 C572 1.399 . S
C575 C577 1.392 . S
C575 H585 0.929 . S
C576 C572 1.383 . S
C576 C573 1.389 . S
C576 H586 0.931 . S
C577 C574 1.380 . S
C577 C575 1.392 . S
C577 H587 0.929 . S
C578 O558 1.266 . S
C578 O559 1.248 . S
C579 Tb515 2.802 . S
C579 O554 1.264 . S
C579 O557 1.256 . S
C579 C572 1.496 . S
H580 C563 0.929 . S
H581 C564 0.929 . S
H582 C565 0.929 . S
H583 C566 0.931 . S
H584 C574 0.929 . S
H585 C575 0.929 . S
H586 C576 0.931 . S
H587 C577 0.929 . S
Tb588 N617 2.617 . S
Tb588 N623 2.572 . S
Tb588 O632 2.465 . S
Tb588 O633 2.387 . S
Tb588 O635 2.428 . S
Tb588 O636 2.308 . S
Tb588 O640 2.349 . S
Tb588 O643 2.393 . S
Tb588 C652 2.802 . S
C589 N590 1.379 . S
C589 C592 1.416 . S
C589 C596 1.424 . S
N590 C589 1.379 . S
N590 C593 1.334 . S
N590 Tb599 2.617 . S
C591 C593 1.390 . S
C591 C594 1.339 . S
C591 H611 0.930 . S
C592 C589 1.416 . S
C592 C594 1.416 . S
C592 C598 1.448 . S
C593 N590 1.334 . S
C593 C591 1.390 . S
C593 H604 0.930 . S
C594 C591 1.339 . S
C594 C592 1.416 . S
C594 H615 0.930 . S
C595 C596 1.413 . S
C595 C597 1.427 . S
C595 C601 1.416 . S
C596 C589 1.424 . S
C596 C595 1.413 . S
C596 N600 1.361 . S
C597 C595 1.427 . S
C597 C598 1.328 . S
C597 H612 0.929 . S
C598 C592 1.448 . S
C598 C597 1.328 . S
C598 H613 0.930 . S
Tb599 N590 2.617 . S
Tb599 N600 2.572 . S
Tb599 O634 2.349 . S
Tb599 O637 2.393 . S
Tb599 O638 2.465 . S
Tb599 O639 2.387 . S
Tb599 O641 2.428 . S
Tb599 O642 2.308 . S
Tb599 C663 2.802 . S
N600 C596 1.361 . S
N600 Tb599 2.572 . S
N600 C602 1.340 . S
C601 C595 1.416 . S
C601 C603 1.332 . S
C601 H609 0.931 . S
C602 N600 1.340 . S
C602 C603 1.407 . S
C602 H608 0.930 . S
C603 C601 1.332 . S
C603 C602 1.407 . S
C603 H605 0.929 . S
H604 C593 0.930 . S
H605 C603 0.929 . S
H606 C621 0.930 . S
H607 C628 0.929 . S
H608 C602 0.930 . S
H609 C601 0.931 . S
H610 C624 0.930 . S
H611 C591 0.930 . S
H612 C597 0.929 . S
H613 C598 0.930 . S
H614 C619 0.930 . S
H615 C594 0.930 . S
H616 C627 0.931 . S
N617 Tb588 2.617 . S
N617 C618 1.379 . S
N617 C621 1.334 . S
C618 N617 1.379 . S
C618 C620 1.416 . S
C618 C626 1.424 . S
C619 H614 0.930 . S
C619 C621 1.390 . S
C619 C622 1.339 . S
C620 C618 1.416 . S
C620 C622 1.416 . S
C620 C653 1.448 . S
C621 H606 0.930 . S
C621 N617 1.334 . S
C621 C619 1.390 . S
C622 C619 1.339 . S
C622 C620 1.416 . S
C622 H629 0.930 . S
N623 Tb588 2.572 . S
N623 C624 1.340 . S
N623 C626 1.361 . S
C624 H610 0.930 . S
C624 N623 1.340 . S
C624 C628 1.407 . S
C625 C626 1.413 . S
C625 C627 1.416 . S
C625 C654 1.427 . S
C626 C618 1.424 . S
C626 N623 1.361 . S
C626 C625 1.413 . S
C627 H616 0.931 . S
C627 C625 1.416 . S
C627 C628 1.332 . S
C628 H607 0.929 . S
C628 C624 1.407 . S
C628 C627 1.332 . S
H629 C622 0.930 . S
H630 C653 0.930 . S
H631 C654 0.929 . S
O632 Tb588 2.465 . S
O632 C652 1.264 . S
O633 Tb588 2.387 . S
O633 C644 1.264 . S
O634 Tb599 2.349 . S
O634 C644 1.243 . S
O635 Tb588 2.428 . S
O635 C652 1.256 . S
O636 Tb588 2.308 . S
O636 C651 1.266 . S
O637 Tb599 2.393 . S
O637 C651 1.248 . S
O638 Tb599 2.465 . S
O638 C663 1.264 . S
O639 Tb599 2.387 . S
O639 C655 1.264 . S
O640 Tb588 2.349 . S
O640 C655 1.243 . S
O641 Tb599 2.428 . S
O641 C663 1.256 . S
O642 Tb599 2.308 . S
O642 C662 1.266 . S
O643 Tb588 2.393 . S
O643 C662 1.248 . S
C644 O633 1.264 . S
C644 O634 1.243 . S
C645 C648 1.399 . S
C645 C650 1.383 . S
C645 C652 1.496 . S
C646 C647 1.399 . S
C646 C650 1.389 . S
C647 C646 1.399 . S
C647 C649 1.380 . S
C647 H664 0.929 . S
C648 C645 1.399 . S
C648 C649 1.392 . S
C648 H665 0.929 . S
C649 C647 1.380 . S
C649 C648 1.392 . S
C649 H666 0.929 . S
C650 C645 1.383 . S
C650 C646 1.389 . S
C650 H667 0.931 . S
C651 O636 1.266 . S
C651 O637 1.248 . S
C652 Tb588 2.802 . S
C652 O632 1.264 . S
C652 O635 1.256 . S
C652 C645 1.496 . S
C653 C620 1.448 . S
C653 H630 0.930 . S
C653 C654 1.328 . S
C654 C625 1.427 . S
C654 H631 0.929 . S
C654 C653 1.328 . S
C655 O639 1.264 . S
C655 O640 1.243 . S
C656 C659 1.399 . S
C656 C660 1.383 . S
C656 C663 1.496 . S
C657 C658 1.399 . S
C657 C660 1.389 . S
C658 C657 1.399 . S
C658 C661 1.380 . S
C658 H668 0.929 . S
C659 C656 1.399 . S
C659 C661 1.392 . S
C659 H669 0.929 . S
C660 C656 1.383 . S
C660 C657 1.389 . S
C660 H670 0.931 . S
C661 C658 1.380 . S
C661 C659 1.392 . S
C661 H671 0.929 . S
C662 O642 1.266 . S
C662 O643 1.248 . S
C663 Tb599 2.802 . S
C663 O638 1.264 . S
C663 O641 1.256 . S
C663 C656 1.496 . S
H664 C647 0.929 . S
H665 C648 0.929 . S
H666 C649 0.929 . S
H667 C650 0.931 . S
H668 C658 0.929 . S
H669 C659 0.929 . S
H670 C660 0.931 . S
H671 C661 0.929 . S
Fe672 O673 1.886 1_455 S
Fe672 O676 1.715 . S
Fe672 O681 2.077 1_455 S
Fe672 O686 1.935 . S
Fe672 O692 2.077 1_455 S
Fe672 O701 1.935 . S
O673 Fe672 1.886 1_655 S
O673 Fe675 1.715 1_545 S
Fe674 O676 1.886 . S
Fe674 O677 1.715 1_545 S
Fe674 O684 1.935 1_545 S
Fe674 O685 2.077 . S
Fe674 O691 1.935 1_545 S
Fe674 O700 2.077 . S
Fe675 O673 1.715 1_565 S
Fe675 O678 1.886 . S
Fe675 O682 1.935 1_565 S
Fe675 O687 2.077 . S
Fe675 O693 1.935 1_565 S
Fe675 O697 2.077 . S
O676 Fe672 1.715 . S
O676 Fe674 1.886 . S
O677 Fe674 1.715 1_565 S
O677 Fe679 1.886 1_455 S
O678 Fe675 1.886 . S
O678 Fe679 1.715 . S
Fe679 O677 1.886 1_655 S
Fe679 O678 1.715 . S
Fe679 O683 2.077 1_655 S
Fe679 O688 1.935 . S
Fe679 O690 2.077 1_655 S
Fe679 O698 1.935 . S
C680 O692 1.381 . S
C680 O693 1.421 . S
O681 Fe672 2.077 1_655 S
O681 C694 1.381 . S
O682 Fe675 1.935 1_545 S
O682 C694 1.421 . S
O683 Fe679 2.077 1_455 S
O683 C699 1.381 . S
O684 Fe674 1.935 1_565 S
O684 C699 1.421 . S
O685 Fe674 2.077 . S
O685 C689 1.381 . S
O686 Fe672 1.935 . S
O686 C689 1.421 . S
O687 Fe675 2.077 . S
O687 C695 1.381 . S
O688 Fe679 1.935 . S
O688 C695 1.421 . S
C689 O685 1.381 . S
C689 O686 1.421 . S
O690 Fe679 2.077 1_455 S
O690 C702 1.381 . S
O691 Fe674 1.935 1_565 S
O691 C702 1.421 . S
O692 Fe672 2.077 1_655 S
O692 C680 1.381 . S
O693 Fe675 1.935 1_545 S
O693 C680 1.421 . S
C694 O681 1.381 . S
C694 O682 1.421 . S
C695 O687 1.381 . S
C695 O688 1.421 . S
C696 O697 1.381 . S
C696 O698 1.421 . S
O697 Fe675 2.077 . S
O697 C696 1.381 . S
O698 Fe679 1.935 . S
O698 C696 1.421 . S
C699 O683 1.381 . S
C699 O684 1.421 . S
O700 Fe674 2.077 . S
O700 C703 1.381 . S
O701 Fe672 1.935 . S
O701 C703 1.421 . S
C702 O690 1.381 . S
C702 O691 1.421 . S
C703 O700 1.381 . S
C703 O701 1.421 . S
Fe704 O705 1.886 . S
Fe704 O708 1.714 . S
Fe704 O713 2.077 . S
Fe704 O718 1.935 . S
Fe704 O724 2.077 1_556 S
Fe704 O733 1.935 1_556 S
O705 Fe704 1.886 . S
O705 Fe707 1.715 1_565 S
Fe706 O708 1.887 1_554 S
Fe706 O709 1.715 1_565 S
Fe706 O716 1.935 1_564 S
Fe706 O717 2.077 1_554 S
Fe706 O723 1.935 1_565 S
Fe706 O732 2.077 . S
Fe707 O705 1.715 1_545 S
Fe707 O710 1.888 1_556 S
Fe707 O714 1.935 1_545 S
Fe707 O719 2.077 . S
Fe707 O725 1.935 1_546 S
Fe707 O729 2.077 1_556 S
O708 Fe704 1.714 . S
O708 Fe706 1.887 1_556 S
O709 Fe706 1.715 1_545 S
O709 Fe711 1.886 . S
O710 Fe707 1.888 1_554 S
O710 Fe711 1.713 . S
Fe711 O709 1.886 . S
Fe711 O710 1.713 . S
Fe711 O715 2.077 1_554 S
Fe711 O720 1.935 1_554 S
Fe711 O722 2.077 . S
Fe711 O730 1.935 . S
C712 O724 1.381 . S
C712 O725 1.421 . S
O713 Fe704 2.077 . S
O713 C726 1.381 . S
O714 Fe707 1.935 1_565 S
O714 C726 1.421 . S
O715 Fe711 2.077 1_556 S
O715 C731 1.381 . S
O716 Fe706 1.935 1_546 S
O716 C731 1.421 . S
O717 Fe706 2.077 1_556 S
O717 C721 1.381 . S
O718 Fe704 1.935 . S
O718 C721 1.421 . S
O719 Fe707 2.077 . S
O719 C727 1.381 . S
O720 Fe711 1.935 1_556 S
O720 C727 1.421 . S
C721 O717 1.381 . S
C721 O718 1.421 . S
O722 Fe711 2.077 . S
O722 C734 1.381 . S
O723 Fe706 1.935 1_545 S
O723 C734 1.421 . S
O724 Fe704 2.077 1_554 S
O724 C712 1.381 . S
O725 Fe707 1.935 1_564 S
O725 C712 1.421 . S
C726 O713 1.381 . S
C726 O714 1.421 . S
C727 O719 1.381 . S
C727 O720 1.421 . S
C728 O729 1.381 . S
C728 O730 1.421 . S
O729 Fe707 2.077 1_554 S
O729 C728 1.381 . S
O730 Fe711 1.935 . S
O730 C728 1.421 . S
C731 O715 1.381 . S
C731 O716 1.421 . S
O732 Fe706 2.077 . S
O732 C735 1.381 . S
O733 Fe704 1.935 1_554 S
O733 C735 1.421 . S
C734 O722 1.381 . S
C734 O723 1.421 . S
C735 O732 1.381 . S
C735 O733 1.421 . S
Fe736 O737 1.886 1_455 S
Fe736 O740 1.714 . S
Fe736 O745 2.077 1_454 S
Fe736 O750 1.935 1_554 S
Fe736 O756 2.077 1_455 S
Fe736 O765 1.935 . S
O737 Fe736 1.886 1_655 S
O737 Fe739 1.715 . S
Fe738 O740 1.887 1_556 S
Fe738 O741 1.715 . S
Fe738 O748 1.935 . S
Fe738 O749 2.077 . S
Fe738 O755 1.935 1_556 S
Fe738 O764 2.077 1_556 S
Fe739 O737 1.715 . S
Fe739 O742 1.887 1_554 S
Fe739 O746 1.935 1_554 S
Fe739 O751 2.077 1_554 S
Fe739 O757 1.935 . S
Fe739 O761 2.077 . S
O740 Fe736 1.714 . S
O740 Fe738 1.887 1_554 S
O741 Fe738 1.715 . S
O741 Fe743 1.886 1_455 S
O742 Fe739 1.887 1_556 S
O742 Fe743 1.714 . S
Fe743 O741 1.886 1_655 S
Fe743 O742 1.714 . S
Fe743 O747 2.077 1_655 S
Fe743 O752 1.935 . S
Fe743 O754 2.077 1_656 S
Fe743 O762 1.935 1_556 S
C744 O756 1.381 . S
C744 O757 1.421 . S
O745 Fe736 2.077 1_656 S
O745 C758 1.381 . S
O746 Fe739 1.935 1_556 S
O746 C758 1.421 . S
O747 Fe743 2.077 1_455 S
O747 C763 1.381 . S
O748 Fe738 1.935 . S
O748 C763 1.421 . S
O749 Fe738 2.077 . S
O749 C753 1.381 . S
O750 Fe736 1.935 1_556 S
O750 C753 1.421 . S
O751 Fe739 2.077 1_556 S
O751 C759 1.381 . S
O752 Fe743 1.935 . S
O752 C759 1.421 . S
C753 O749 1.381 . S
C753 O750 1.421 . S
O754 Fe743 2.077 1_454 S
O754 C766 1.381 . S
O755 Fe738 1.935 1_554 S
O755 C766 1.421 . S
O756 Fe736 2.077 1_655 S
O756 C744 1.381 . S
O757 Fe739 1.935 . S
O757 C744 1.421 . S
C758 O745 1.381 . S
C758 O746 1.421 . S
C759 O751 1.381 . S
C759 O752 1.421 . S
C760 O761 1.381 . S
C760 O762 1.421 . S
O761 Fe739 2.077 . S
O761 C760 1.381 . S
O762 Fe743 1.935 1_554 S
O762 C760 1.421 . S
C763 O747 1.381 . S
C763 O748 1.421 . S
O764 Fe738 2.077 1_554 S
O764 C767 1.381 . S
O765 Fe736 1.935 . S
O765 C767 1.421 . S
C766 O754 1.381 . S
C766 O755 1.421 . S
C767 O764 1.381 . S
C767 O765 1.421 . S
Fe768 O769 1.886 . S
Fe768 O772 1.715 . S
Fe768 O777 2.077 . S
Fe768 O782 1.935 . S
Fe768 O788 2.077 . S
Fe768 O797 1.935 . S
O769 Fe768 1.886 . S
O769 Fe771 1.715 . S
Fe770 O772 1.886 1_554 S
Fe770 O773 1.715 . S
Fe770 O780 1.935 . S
Fe770 O781 2.077 1_554 S
Fe770 O787 1.935 . S
Fe770 O796 2.077 1_554 S
Fe771 O769 1.715 . S
Fe771 O774 1.886 1_556 S
Fe771 O778 1.935 . S
Fe771 O783 2.077 1_556 S
Fe771 O789 1.935 . S
Fe771 O793 2.077 1_556 S
O772 Fe768 1.715 . S
O772 Fe770 1.886 1_556 S
O773 Fe770 1.715 . S
O773 Fe775 1.886 . S
O774 Fe771 1.886 1_554 S
O774 Fe775 1.715 . S
Fe775 O773 1.886 . S
Fe775 O774 1.715 . S
Fe775 O779 2.077 . S
Fe775 O784 1.935 . S
Fe775 O786 2.077 . S
Fe775 O794 1.935 . S
C776 O788 1.381 . S
C776 O789 1.421 . S
O777 Fe768 2.077 . S
O777 C790 1.381 . S
O778 Fe771 1.935 . S
O778 C790 1.421 . S
O779 Fe775 2.077 . S
O779 C795 1.381 . S
O780 Fe770 1.935 . S
O780 C795 1.421 . S
O781 Fe770 2.077 1_556 S
O781 C785 1.381 . S
O782 Fe768 1.935 . S
O782 C785 1.421 . S
O783 Fe771 2.077 1_554 S
O783 C791 1.381 . S
O784 Fe775 1.935 . S
O784 C791 1.421 . S
C785 O781 1.381 . S
C785 O782 1.421 . S
O786 Fe775 2.077 . S
O786 C798 1.381 . S
O787 Fe770 1.935 . S
O787 C798 1.421 . S
O788 Fe768 2.077 . S
O788 C776 1.381 . S
O789 Fe771 1.935 . S
O789 C776 1.421 . S
C790 O777 1.381 . S
C790 O778 1.421 . S
C791 O783 1.381 . S
C791 O784 1.421 . S
C792 O793 1.381 . S
C792 O794 1.421 . S
O793 Fe771 2.077 1_554 S
O793 C792 1.381 . S
O794 Fe775 1.935 . S
O794 C792 1.421 . S
C795 O779 1.381 . S
C795 O780 1.421 . S
O796 Fe770 2.077 1_556 S
O796 C799 1.381 . S
O797 Fe768 1.935 . S
O797 C799 1.421 . S
C798 O786 1.381 . S
C798 O787 1.421 . S
C799 O796 1.381 . S
C799 O797 1.421 . S
Fe800 O801 1.886 . S
Fe800 O804 1.715 . S
Fe800 O809 2.077 1_655 S
Fe800 O814 1.935 1_655 S
Fe800 O820 2.077 . S
Fe800 O829 1.935 . S
O801 Fe800 1.886 . S
O801 Fe803 1.715 . S
Fe802 O804 1.886 1_455 S
Fe802 O805 1.715 . S
Fe802 O812 1.935 . S
Fe802 O813 2.077 . S
Fe802 O819 1.935 1_455 S
Fe802 O828 2.077 1_455 S
Fe803 O801 1.715 . S
Fe803 O806 1.886 1_655 S
Fe803 O810 1.935 1_655 S
Fe803 O815 2.077 1_655 S
Fe803 O821 1.935 . S
Fe803 O825 2.077 . S
O804 Fe800 1.715 . S
O804 Fe802 1.886 1_655 S
O805 Fe802 1.715 . S
O805 Fe807 1.886 . S
O806 Fe803 1.886 1_455 S
O806 Fe807 1.715 . S
Fe807 O805 1.886 . S
Fe807 O806 1.715 . S
Fe807 O811 2.077 . S
Fe807 O816 1.935 . S
Fe807 O818 2.077 1_455 S
Fe807 O826 1.935 1_455 S
C808 O820 1.381 . S
C808 O821 1.421 . S
O809 Fe800 2.077 1_455 S
O809 C822 1.381 . S
O810 Fe803 1.935 1_455 S
O810 C822 1.421 . S
O811 Fe807 2.077 . S
O811 C827 1.381 . S
O812 Fe802 1.935 . S
O812 C827 1.421 . S
O813 Fe802 2.077 . S
O813 C817 1.381 . S
O814 Fe800 1.935 1_455 S
O814 C817 1.421 . S
O815 Fe803 2.077 1_455 S
O815 C823 1.381 . S
O816 Fe807 1.935 . S
O816 C823 1.421 . S
C817 O813 1.381 . S
C817 O814 1.421 . S
O818 Fe807 2.077 1_655 S
O818 C830 1.381 . S
O819 Fe802 1.935 1_655 S
O819 C830 1.421 . S
O820 Fe800 2.077 . S
O820 C808 1.381 . S
O821 Fe803 1.935 . S
O821 C808 1.421 . S
C822 O809 1.381 . S
C822 O810 1.421 . S
C823 O815 1.381 . S
C823 O816 1.421 . S
C824 O825 1.381 . S
C824 O826 1.421 . S
O825 Fe803 2.077 . S
O825 C824 1.381 . S
O826 Fe807 1.935 1_655 S
O826 C824 1.421 . S
C827 O811 1.381 . S
C827 O812 1.421 . S
O828 Fe802 2.077 1_655 S
O828 C831 1.381 . S
O829 Fe800 1.935 . S
O829 C831 1.421 . S
C830 O818 1.381 . S
C830 O819 1.421 . S
C831 O828 1.381 . S
C831 O829 1.421 . S
Fe832 O833 1.886 . S
Fe832 O836 1.715 . S
Fe832 O841 2.077 . S
Fe832 O846 1.935 . S
Fe832 O852 2.077 . S
Fe832 O861 1.935 . S
O833 Fe832 1.886 . S
O833 Fe835 1.715 1_565 S
Fe834 O836 1.886 . S
Fe834 O837 1.715 1_565 S
Fe834 O844 1.935 1_565 S
Fe834 O845 2.077 . S
Fe834 O851 1.935 1_565 S
Fe834 O860 2.077 . S
Fe835 O833 1.715 1_545 S
Fe835 O838 1.886 . S
Fe835 O842 1.935 1_545 S
Fe835 O847 2.077 . S
Fe835 O853 1.935 1_545 S
Fe835 O857 2.077 . S
O836 Fe832 1.715 . S
O836 Fe834 1.886 . S
O837 Fe834 1.715 1_545 S
O837 Fe839 1.886 . S
O838 Fe835 1.886 . S
O838 Fe839 1.715 . S
Fe839 O837 1.886 . S
Fe839 O838 1.715 . S
Fe839 O843 2.077 . S
Fe839 O848 1.935 . S
Fe839 O850 2.077 . S
Fe839 O858 1.935 . S
C840 O852 1.381 . S
C840 O853 1.421 . S
O841 Fe832 2.077 . S
O841 C854 1.381 . S
O842 Fe835 1.935 1_565 S
O842 C854 1.421 . S
O843 Fe839 2.077 . S
O843 C859 1.381 . S
O844 Fe834 1.935 1_545 S
O844 C859 1.421 . S
O845 Fe834 2.077 . S
O845 C849 1.381 . S
O846 Fe832 1.935 . S
O846 C849 1.421 . S
O847 Fe835 2.077 . S
O847 C855 1.381 . S
O848 Fe839 1.935 . S
O848 C855 1.421 . S
C849 O845 1.381 . S
C849 O846 1.421 . S
O850 Fe839 2.077 . S
O850 C862 1.381 . S
O851 Fe834 1.935 1_545 S
O851 C862 1.421 . S
O852 Fe832 2.077 . S
O852 C840 1.381 . S
O853 Fe835 1.935 1_565 S
O853 C840 1.421 . S
C854 O841 1.381 . S
C854 O842 1.421 . S
C855 O847 1.381 . S
C855 O848 1.421 . S
C856 O857 1.381 . S
C856 O858 1.421 . S
O857 Fe835 2.077 . S
O857 C856 1.381 . S
O858 Fe839 1.935 . S
O858 C856 1.421 . S
C859 O843 1.381 . S
C859 O844 1.421 . S
O860 Fe834 2.077 . S
O860 C863 1.381 . S
O861 Fe832 1.935 . S
O861 C863 1.421 . S
C862 O850 1.381 . S
C862 O851 1.421 . S
C863 O860 1.381 . S
C863 O861 1.421 . S
C864 C865 1.387 . S
C864 H868 0.950 . S
C864 C873 1.390 . S
C865 C864 1.387 . S
C865 C867 1.387 . S
H866 C873 0.950 . S
C867 C865 1.387 . S
C867 C869 1.390 . S
C867 H871 0.950 . S
H868 C864 0.950 . S
C869 C867 1.390 . S
C869 C870 1.387 . S
C869 H872 0.950 . S
C870 C869 1.387 . S
C870 C873 1.387 . S
H871 C867 0.950 . S
H872 C869 0.950 . S
C873 C864 1.390 . S
C873 H866 0.950 . S
C873 C870 1.387 . S
C874 C875 1.387 . S
C874 H878 0.950 . S
C874 C883 1.390 . S
C875 C874 1.387 . S
C875 C877 1.387 . S
H876 C883 0.950 . S
C877 C875 1.387 . S
C877 C879 1.390 . S
C877 H881 0.950 . S
H878 C874 0.950 . S
C879 C877 1.390 . S
C879 C880 1.387 . S
C879 H882 0.950 . S
C880 C879 1.387 . S
C880 C883 1.387 . S
H881 C877 0.950 . S
H882 C879 0.950 . S
C883 C874 1.390 . S
C883 H876 0.950 . S
C883 C880 1.387 . S
C884 C885 1.387 . S
C884 H888 0.950 . S
C884 C893 1.390 . S
C885 C884 1.387 . S
C885 C887 1.387 . S
H886 C893 0.950 . S
C887 C885 1.387 . S
C887 C889 1.390 . S
C887 H891 0.950 . S
H888 C884 0.950 . S
C889 C887 1.390 . S
C889 C890 1.387 . S
C889 H892 0.950 . S
C890 C889 1.387 . S
C890 C893 1.387 . S
H891 C887 0.950 . S
H892 C889 0.950 . S
C893 C884 1.390 . S
C893 H886 0.950 . S
C893 C890 1.387 . S
C894 C895 1.387 . S
C894 H898 0.950 . S
C894 C903 1.390 . S
C895 C894 1.387 . S
C895 C897 1.387 . S
H896 C903 0.950 . S
C897 C895 1.387 . S
C897 C899 1.390 . S
C897 H901 0.950 . S
H898 C894 0.950 . S
C899 C897 1.390 . S
C899 C900 1.387 . S
C899 H902 0.950 . S
C900 C899 1.387 . S
C900 C903 1.387 . S
H901 C897 0.950 . S
H902 C899 0.950 . S
C903 C894 1.390 . S
C903 H896 0.950 . S
C903 C900 1.387 . S
C904 C905 1.387 . S
C904 H908 0.950 . S
C904 C913 1.390 . S
C905 C904 1.387 . S
C905 C907 1.387 . S
H906 C913 0.950 . S
C907 C905 1.387 . S
C907 C909 1.390 . S
C907 H911 0.950 . S
H908 C904 0.950 . S
C909 C907 1.390 . S
C909 C910 1.387 . S
C909 H912 0.950 . S
C910 C909 1.387 . S
C910 C913 1.387 . S
H911 C907 0.950 . S
H912 C909 0.950 . S
C913 C904 1.390 . S
C913 H906 0.950 . S
C913 C910 1.387 . S
C914 C915 1.387 . S
C914 H918 0.950 . S
C914 C923 1.390 . S
C915 C914 1.387 . S
C915 C917 1.387 . S
H916 C923 0.950 . S
C917 C915 1.387 . S
C917 C919 1.390 . S
C917 H921 0.950 . S
H918 C914 0.950 . S
C919 C917 1.390 . S
C919 C920 1.387 . S
C919 H922 0.950 . S
C920 C919 1.387 . S
C920 C923 1.387 . S
H921 C917 0.950 . S
H922 C919 0.950 . S
C923 C914 1.390 . S
C923 H916 0.950 . S
C923 C920 1.387 . S
C924 C925 1.387 . S
C924 H928 0.950 . S
C924 C933 1.390 . S
C925 C924 1.387 . S
C925 C927 1.387 . S
H926 C933 0.950 . S
C927 C925 1.387 . S
C927 C929 1.390 . S
C927 H931 0.950 . S
H928 C924 0.950 . S
C929 C927 1.390 . S
C929 C930 1.387 . S
C929 H932 0.950 . S
C930 C929 1.387 . S
C930 C933 1.387 . S
H931 C927 0.950 . S
H932 C929 0.950 . S
C933 C924 1.390 . S
C933 H926 0.950 . S
C933 C930 1.387 . S
C934 C935 1.387 . S
C934 H938 0.950 . S
C934 C943 1.390 . S
C935 C934 1.387 . S
C935 C937 1.387 . S
H936 C943 0.950 . S
C937 C935 1.387 . S
C937 C939 1.390 . S
C937 H941 0.950 . S
H938 C934 0.950 . S
C939 C937 1.390 . S
C939 C940 1.387 . S
C939 H942 0.950 . S
C940 C939 1.387 . S
C940 C943 1.387 . S
H941 C937 0.950 . S
H942 C939 0.950 . S
C943 C934 1.390 . S
C943 H936 0.950 . S
C943 C940 1.387 . S
C944 C945 1.387 . S
C944 H948 0.950 . S
C944 C953 1.390 . S
C945 C944 1.387 . S
C945 C947 1.387 . S
H946 C953 0.950 . S
C947 C945 1.387 . S
C947 C949 1.390 . S
C947 H951 0.950 . S
H948 C944 0.950 . S
C949 C947 1.390 . S
C949 C950 1.387 . S
C949 H952 0.950 . S
C950 C949 1.387 . S
C950 C953 1.387 . S
H951 C947 0.950 . S
H952 C949 0.950 . S
C953 C944 1.390 . S
C953 H946 0.950 . S
C953 C950 1.387 . S
C954 C955 1.387 . S
C954 H958 0.950 . S
C954 C963 1.390 . S
C955 C954 1.387 . S
C955 C957 1.387 . S
H956 C963 0.950 . S
C957 C955 1.387 . S
C957 C959 1.390 . S
C957 H961 0.950 . S
H958 C954 0.950 . S
C959 C957 1.390 . S
C959 C960 1.387 . S
C959 H962 0.950 . S
C960 C959 1.387 . S
C960 C963 1.387 . S
H961 C957 0.950 . S
H962 C959 0.950 . S
C963 C954 1.390 . S
C963 H956 0.950 . S
C963 C960 1.387 . S
C964 C965 1.387 . S
C964 H968 0.950 . S
C964 C973 1.390 . S
C965 C964 1.387 . S
C965 C967 1.387 . S
H966 C973 0.950 . S
C967 C965 1.387 . S
C967 C969 1.390 . S
C967 H971 0.950 . S
H968 C964 0.950 . S
C969 C967 1.390 . S
C969 C970 1.387 . S
C969 H972 0.950 . S
C970 C969 1.387 . S
C970 C973 1.387 . S
H971 C967 0.950 . S
H972 C969 0.950 . S
C973 C964 1.390 . S
C973 H966 0.950 . S
C973 C970 1.387 . S
C974 C975 1.387 . S
C974 H978 0.950 . S
C974 C983 1.390 . S
C975 C974 1.387 . S
C975 C977 1.387 . S
H976 C983 0.950 . S
C977 C975 1.387 . S
C977 C979 1.390 . S
C977 H981 0.950 . S
H978 C974 0.950 . S
C979 C977 1.390 . S
C979 C980 1.387 . S
C979 H982 0.950 . S
C980 C979 1.387 . S
C980 C983 1.387 . S
H981 C977 0.950 . S
H982 C979 0.950 . S
C983 C974 1.390 . S
C983 H976 0.950 . S
C983 C980 1.387 . S
C984 C985 1.387 . S
C984 H988 0.950 . S
C984 C993 1.390 . S
C985 C984 1.387 . S
C985 C987 1.387 . S
H986 C993 0.950 . S
C987 C985 1.387 . S
C987 C989 1.390 . S
C987 H991 0.950 . S
H988 C984 0.950 . S
C989 C987 1.390 . S
C989 C990 1.387 . S
C989 H992 0.950 . S
C990 C989 1.387 . S
C990 C993 1.387 . S
H991 C987 0.950 . S
H992 C989 0.950 . S
C993 C984 1.390 . S
C993 H986 0.950 . S
C993 C990 1.387 . S
C994 C995 1.387 . S
C994 H998 0.950 . S
C994 C1003 1.390 . S
C995 C994 1.387 . S
C995 C997 1.387 . S
H996 C1003 0.950 . S
C997 C995 1.387 . S
C997 C999 1.390 . S
C997 H1001 0.950 . S
H998 C994 0.950 . S
C999 C997 1.390 . S
C999 C1000 1.387 . S
C999 H1002 0.950 . S
C1000 C999 1.387 . S
C1000 C1003 1.387 . S
H1001 C997 0.950 . S
H1002 C999 0.950 . S
C1003 C994 1.390 . S
C1003 H996 0.950 . S
C1003 C1000 1.387 . S
C1004 C1005 1.387 . S
C1004 H1008 0.950 . S
C1004 C1013 1.390 . S
C1005 C1004 1.387 . S
C1005 C1007 1.387 . S
H1006 C1013 0.950 . S
C1007 C1005 1.387 . S
C1007 C1009 1.390 . S
C1007 H1011 0.950 . S
H1008 C1004 0.950 . S
C1009 C1007 1.390 . S
C1009 C1010 1.387 . S
C1009 H1012 0.950 . S
C1010 C1009 1.387 . S
C1010 C1013 1.387 . S
H1011 C1007 0.950 . S
H1012 C1009 0.950 . S
C1013 C1004 1.390 . S
C1013 H1006 0.950 . S
C1013 C1010 1.387 . S
C1014 C1015 1.387 . S
C1014 H1018 0.950 . S
C1014 C1023 1.390 . S
C1015 C1014 1.387 . S
C1015 C1017 1.387 . S
H1016 C1023 0.950 . S
C1017 C1015 1.387 . S
C1017 C1019 1.390 . S
C1017 H1021 0.950 . S
H1018 C1014 0.950 . S
C1019 C1017 1.390 . S
C1019 C1020 1.387 . S
C1019 H1022 0.950 . S
C1020 C1019 1.387 . S
C1020 C1023 1.387 . S
H1021 C1017 0.950 . S
H1022 C1019 0.950 . S
C1023 C1014 1.390 . S
C1023 H1016 0.950 . S
C1023 C1020 1.387 . S
C1024 C1025 1.387 . S
C1024 H1028 0.950 . S
C1024 C1033 1.390 . S
C1025 C1024 1.387 . S
C1025 C1027 1.387 . S
H1026 C1033 0.950 . S
C1027 C1025 1.387 . S
C1027 C1029 1.390 . S
C1027 H1031 0.950 . S
H1028 C1024 0.950 . S
C1029 C1027 1.390 . S
C1029 C1030 1.387 . S
C1029 H1032 0.950 . S
C1030 C1029 1.387 . S
C1030 C1033 1.387 . S
H1031 C1027 0.950 . S
H1032 C1029 0.950 . S
C1033 C1024 1.390 . S
C1033 H1026 0.950 . S
C1033 C1030 1.387 . S
C1034 C1035 1.387 . S
C1034 H1038 0.950 . S
C1034 C1043 1.390 . S
C1035 C1034 1.387 . S
C1035 C1037 1.387 . S
H1036 C1043 0.950 . S
C1037 C1035 1.387 . S
C1037 C1039 1.390 . S
C1037 H1041 0.950 . S
H1038 C1034 0.950 . S
C1039 C1037 1.390 . S
C1039 C1040 1.387 . S
C1039 H1042 0.950 . S
C1040 C1039 1.387 . S
C1040 C1043 1.387 . S
H1041 C1037 0.950 . S
H1042 C1039 0.950 . S
C1043 C1034 1.390 . S
C1043 H1036 0.950 . S
C1043 C1040 1.387 . S
C1044 C1045 1.387 . S
C1044 H1048 0.950 . S
C1044 C1053 1.390 . S
C1045 C1044 1.387 . S
C1045 C1047 1.387 . S
H1046 C1053 0.950 . S
C1047 C1045 1.387 . S
C1047 C1049 1.390 . S
C1047 H1051 0.950 . S
H1048 C1044 0.950 . S
C1049 C1047 1.390 . S
C1049 C1050 1.387 . S
C1049 H1052 0.950 . S
C1050 C1049 1.387 . S
C1050 C1053 1.387 . S
H1051 C1047 0.950 . S
H1052 C1049 0.950 . S
C1053 C1044 1.390 . S
C1053 H1046 0.950 . S
C1053 C1050 1.387 . S
C1054 C1055 1.387 . S
C1054 H1058 0.950 . S
C1054 C1063 1.390 . S
C1055 C1054 1.387 . S
C1055 C1057 1.387 . S
H1056 C1063 0.950 . S
C1057 C1055 1.387 . S
C1057 C1059 1.390 . S
C1057 H1061 0.950 . S
H1058 C1054 0.950 . S
C1059 C1057 1.390 . S
C1059 C1060 1.387 . S
C1059 H1062 0.950 . S
C1060 C1059 1.387 . S
C1060 C1063 1.387 . S
H1061 C1057 0.950 . S
H1062 C1059 0.950 . S
C1063 C1054 1.390 . S
C1063 H1056 0.950 . S
C1063 C1060 1.387 . S
C1064 C1065 1.387 . S
C1064 H1068 0.950 . S
C1064 C1073 1.390 . S
C1065 C1064 1.387 . S
C1065 C1067 1.387 . S
H1066 C1073 0.950 . S
C1067 C1065 1.387 . S
C1067 C1069 1.390 . S
C1067 H1071 0.950 . S
H1068 C1064 0.950 . S
C1069 C1067 1.390 . S
C1069 C1070 1.387 . S
C1069 H1072 0.950 . S
C1070 C1069 1.387 . S
C1070 C1073 1.387 . S
H1071 C1067 0.950 . S
H1072 C1069 0.950 . S
C1073 C1064 1.390 . S
C1073 H1066 0.950 . S
C1073 C1070 1.387 . S
C1074 C1075 1.387 . S
C1074 H1078 0.950 . S
C1074 C1083 1.390 . S
C1075 C1074 1.387 . S
C1075 C1077 1.387 . S
H1076 C1083 0.950 . S
C1077 C1075 1.387 . S
C1077 C1079 1.390 . S
C1077 H1081 0.950 . S
H1078 C1074 0.950 . S
C1079 C1077 1.390 . S
C1079 C1080 1.387 . S
C1079 H1082 0.950 . S
C1080 C1079 1.387 . S
C1080 C1083 1.387 . S
H1081 C1077 0.950 . S
H1082 C1079 0.950 . S
C1083 C1074 1.390 . S
C1083 H1076 0.950 . S
C1083 C1080 1.387 . S
C1084 C1085 1.387 . S
C1084 H1088 0.950 . S
C1084 C1093 1.390 . S
C1085 C1084 1.387 . S
C1085 C1087 1.387 . S
H1086 C1093 0.950 . S
C1087 C1085 1.387 . S
C1087 C1089 1.390 . S
C1087 H1091 0.950 . S
H1088 C1084 0.950 . S
C1089 C1087 1.390 . S
C1089 C1090 1.387 . S
C1089 H1092 0.950 . S
C1090 C1089 1.387 . S
C1090 C1093 1.387 . S
H1091 C1087 0.950 . S
H1092 C1089 0.950 . S
C1093 C1084 1.390 . S
C1093 H1086 0.950 . S
C1093 C1090 1.387 . S
C1094 C1095 1.387 . S
C1094 H1098 0.950 . S
C1094 C1103 1.390 . S
C1095 C1094 1.387 . S
C1095 C1097 1.387 . S
H1096 C1103 0.950 . S
C1097 C1095 1.387 . S
C1097 C1099 1.390 . S
C1097 H1101 0.950 . S
H1098 C1094 0.950 . S
C1099 C1097 1.390 . S
C1099 C1100 1.387 . S
C1099 H1102 0.950 . S
C1100 C1099 1.387 . S
C1100 C1103 1.387 . S
H1101 C1097 0.950 . S
H1102 C1099 0.950 . S
C1103 C1094 1.390 . S
C1103 H1096 0.950 . S
C1103 C1100 1.387 . S
C1104 C1105 1.387 . S
C1104 H1108 0.950 . S
C1104 C1113 1.390 . S
C1105 C1104 1.387 . S
C1105 C1107 1.387 . S
H1106 C1113 0.950 . S
C1107 C1105 1.387 . S
C1107 C1109 1.390 . S
C1107 H1111 0.950 . S
H1108 C1104 0.950 . S
C1109 C1107 1.390 . S
C1109 C1110 1.387 . S
C1109 H1112 0.950 . S
C1110 C1109 1.387 . S
C1110 C1113 1.387 . S
H1111 C1107 0.950 . S
H1112 C1109 0.950 . S
C1113 C1104 1.390 . S
C1113 H1106 0.950 . S
C1113 C1110 1.387 . S
C1114 C1115 1.387 . S
C1114 H1118 0.950 . S
C1114 C1123 1.390 . S
C1115 C1114 1.387 . S
C1115 C1117 1.387 . S
H1116 C1123 0.950 . S
C1117 C1115 1.387 . S
C1117 C1119 1.390 . S
C1117 H1121 0.950 . S
H1118 C1114 0.950 . S
C1119 C1117 1.390 . S
C1119 C1120 1.387 . S
C1119 H1122 0.950 . S
C1120 C1119 1.387 . S
C1120 C1123 1.387 . S
H1121 C1117 0.950 . S
H1122 C1119 0.950 . S
C1123 C1114 1.390 . S
C1123 H1116 0.950 . S
C1123 C1120 1.387 . S
C1124 C1125 1.387 . S
C1124 H1128 0.950 . S
C1124 C1133 1.390 . S
C1125 C1124 1.387 . S
C1125 C1127 1.387 . S
H1126 C1133 0.950 . S
C1127 C1125 1.387 . S
C1127 C1129 1.390 . S
C1127 H1131 0.950 . S
H1128 C1124 0.950 . S
C1129 C1127 1.390 . S
C1129 C1130 1.387 . S
C1129 H1132 0.950 . S
C1130 C1129 1.387 . S
C1130 C1133 1.387 . S
H1131 C1127 0.950 . S
H1132 C1129 0.950 . S
C1133 C1124 1.390 . S
C1133 H1126 0.950 . S
C1133 C1130 1.387 . S
C1134 C1135 1.387 . S
C1134 H1138 0.950 . S
C1134 C1143 1.390 . S
C1135 C1134 1.387 . S
C1135 C1137 1.387 . S
H1136 C1143 0.950 . S
C1137 C1135 1.387 . S
C1137 C1139 1.390 . S
C1137 H1141 0.950 . S
H1138 C1134 0.950 . S
C1139 C1137 1.390 . S
C1139 C1140 1.387 . S
C1139 H1142 0.950 . S
C1140 C1139 1.387 . S
C1140 C1143 1.387 . S
H1141 C1137 0.950 . S
H1142 C1139 0.950 . S
C1143 C1134 1.390 . S
C1143 H1136 0.950 . S
C1143 C1140 1.387 . S
C1144 C1145 1.387 . S
C1144 H1148 0.950 . S
C1144 C1153 1.390 . S
C1145 C1144 1.387 . S
C1145 C1147 1.387 . S
H1146 C1153 0.950 . S
C1147 C1145 1.387 . S
C1147 C1149 1.390 . S
C1147 H1151 0.950 . S
H1148 C1144 0.950 . S
C1149 C1147 1.390 . S
C1149 C1150 1.387 . S
C1149 H1152 0.950 . S
C1150 C1149 1.387 . S
C1150 C1153 1.387 . S
H1151 C1147 0.950 . S
H1152 C1149 0.950 . S
C1153 C1144 1.390 . S
C1153 H1146 0.950 . S
C1153 C1150 1.387 . S
C1154 C1155 1.387 . S
C1154 H1158 0.950 . S
C1154 C1163 1.390 . S
C1155 C1154 1.387 . S
C1155 C1157 1.387 . S
H1156 C1163 0.950 . S
C1157 C1155 1.387 . S
C1157 C1159 1.390 . S
C1157 H1161 0.950 . S
H1158 C1154 0.950 . S
C1159 C1157 1.390 . S
C1159 C1160 1.387 . S
C1159 H1162 0.950 . S
C1160 C1159 1.387 . S
C1160 C1163 1.387 . S
H1161 C1157 0.950 . S
H1162 C1159 0.950 . S
C1163 C1154 1.390 . S
C1163 H1156 0.950 . S
C1163 C1160 1.387 . S
C1164 C1165 1.387 . S
C1164 H1168 0.950 . S
C1164 C1173 1.390 . S
C1165 C1164 1.387 . S
C1165 C1167 1.387 . S
H1166 C1173 0.950 . S
C1167 C1165 1.387 . S
C1167 C1169 1.390 . S
C1167 H1171 0.950 . S
H1168 C1164 0.950 . S
C1169 C1167 1.390 . S
C1169 C1170 1.387 . S
C1169 H1172 0.950 . S
C1170 C1169 1.387 . S
C1170 C1173 1.387 . S
H1171 C1167 0.950 . S
H1172 C1169 0.950 . S
C1173 C1164 1.390 . S
C1173 H1166 0.950 . S
C1173 C1170 1.387 . S
C1174 C1175 1.387 . S
C1174 H1178 0.950 . S
C1174 C1183 1.390 . S
C1175 C1174 1.387 . S
C1175 C1177 1.387 . S
H1176 C1183 0.950 . S
C1177 C1175 1.387 . S
C1177 C1179 1.390 . S
C1177 H1181 0.950 . S
H1178 C1174 0.950 . S
C1179 C1177 1.390 . S
C1179 C1180 1.387 . S
C1179 H1182 0.950 . S
C1180 C1179 1.387 . S
C1180 C1183 1.387 . S
H1181 C1177 0.950 . S
H1182 C1179 0.950 . S
C1183 C1174 1.390 . S
C1183 H1176 0.950 . S
C1183 C1180 1.387 . S
C1184 C1185 1.387 . S
C1184 H1188 0.950 . S
C1184 C1193 1.390 . S
C1185 C1184 1.387 . S
C1185 C1187 1.387 . S
H1186 C1193 0.950 . S
C1187 C1185 1.387 . S
C1187 C1189 1.390 . S
C1187 H1191 0.950 . S
H1188 C1184 0.950 . S
C1189 C1187 1.390 . S
C1189 C1190 1.387 . S
C1189 H1192 0.950 . S
C1190 C1189 1.387 . S
C1190 C1193 1.387 . S
H1191 C1187 0.950 . S
H1192 C1189 0.950 . S
C1193 C1184 1.390 . S
C1193 H1186 0.950 . S
C1193 C1190 1.387 . S
C1194 C1195 1.387 . S
C1194 H1198 0.950 . S
C1194 C1203 1.390 . S
C1195 C1194 1.387 . S
C1195 C1197 1.387 . S
H1196 C1203 0.950 . S
C1197 C1195 1.387 . S
C1197 C1199 1.390 . S
C1197 H1201 0.950 . S
H1198 C1194 0.950 . S
C1199 C1197 1.390 . S
C1199 C1200 1.387 . S
C1199 H1202 0.950 . S
C1200 C1199 1.387 . S
C1200 C1203 1.387 . S
H1201 C1197 0.950 . S
H1202 C1199 0.950 . S
C1203 C1194 1.390 . S
C1203 H1196 0.950 . S
C1203 C1200 1.387 . S
C1204 C1205 1.387 . S
C1204 H1208 0.950 . S
C1204 C1213 1.390 . S
C1205 C1204 1.387 . S
C1205 C1207 1.387 . S
H1206 C1213 0.950 . S
C1207 C1205 1.387 . S
C1207 C1209 1.390 . S
C1207 H1211 0.950 . S
H1208 C1204 0.950 . S
C1209 C1207 1.390 . S
C1209 C1210 1.387 . S
C1209 H1212 0.950 . S
C1210 C1209 1.387 . S
C1210 C1213 1.387 . S
H1211 C1207 0.950 . S
H1212 C1209 0.950 . S
C1213 C1204 1.390 . S
C1213 H1206 0.950 . S
C1213 C1210 1.387 . S
C1214 C1215 1.387 . S
C1214 H1218 0.950 . S
C1214 C1223 1.390 . S
C1215 C1214 1.387 . S
C1215 C1217 1.387 . S
H1216 C1223 0.950 . S
C1217 C1215 1.387 . S
C1217 C1219 1.390 . S
C1217 H1221 0.950 . S
H1218 C1214 0.950 . S
C1219 C1217 1.390 . S
C1219 C1220 1.387 . S
C1219 H1222 0.950 . S
C1220 C1219 1.387 . S
C1220 C1223 1.387 . S
H1221 C1217 0.950 . S
H1222 C1219 0.950 . S
C1223 C1214 1.390 . S
C1223 H1216 0.950 . S
C1223 C1220 1.387 . S
C1224 C1225 1.387 . S
C1224 H1228 0.950 . S
C1224 C1233 1.390 . S
C1225 C1224 1.387 . S
C1225 C1227 1.387 . S
H1226 C1233 0.950 . S
C1227 C1225 1.387 . S
C1227 C1229 1.390 . S
C1227 H1231 0.950 . S
H1228 C1224 0.950 . S
C1229 C1227 1.390 . S
C1229 C1230 1.387 . S
C1229 H1232 0.950 . S
C1230 C1229 1.387 . S
C1230 C1233 1.387 . S
H1231 C1227 0.950 . S
H1232 C1229 0.950 . S
C1233 C1224 1.390 . S
C1233 H1226 0.950 . S
C1233 C1230 1.387 . S
C1234 C1235 1.387 . S
C1234 H1238 0.950 . S
C1234 C1243 1.390 . S
C1235 C1234 1.387 . S
C1235 C1237 1.387 . S
H1236 C1243 0.950 . S
C1237 C1235 1.387 . S
C1237 C1239 1.390 . S
C1237 H1241 0.950 . S
H1238 C1234 0.950 . S
C1239 C1237 1.390 . S
C1239 C1240 1.387 . S
C1239 H1242 0.950 . S
C1240 C1239 1.387 . S
C1240 C1243 1.387 . S
H1241 C1237 0.950 . S
H1242 C1239 0.950 . S
C1243 C1234 1.390 . S
C1243 H1236 0.950 . S
C1243 C1240 1.387 . S
C1244 C1245 1.387 . S
C1244 H1248 0.950 . S
C1244 C1253 1.390 . S
C1245 C1244 1.387 . S
C1245 C1247 1.387 . S
H1246 C1253 0.950 . S
C1247 C1245 1.387 . S
C1247 C1249 1.390 . S
C1247 H1251 0.950 . S
H1248 C1244 0.950 . S
C1249 C1247 1.390 . S
C1249 C1250 1.387 . S
C1249 H1252 0.950 . S
C1250 C1249 1.387 . S
C1250 C1253 1.387 . S
H1251 C1247 0.950 . S
H1252 C1249 0.950 . S
C1253 C1244 1.390 . S
C1253 H1246 0.950 . S
C1253 C1250 1.387 . S
C1254 C1255 1.387 . S
C1254 H1258 0.950 . S
C1254 C1263 1.390 . S
C1255 C1254 1.387 . S
C1255 C1257 1.387 . S
H1256 C1263 0.950 . S
C1257 C1255 1.387 . S
C1257 C1259 1.390 . S
C1257 H1261 0.950 . S
H1258 C1254 0.950 . S
C1259 C1257 1.390 . S
C1259 C1260 1.387 . S
C1259 H1262 0.950 . S
C1260 C1259 1.387 . S
C1260 C1263 1.387 . S
H1261 C1257 0.950 . S
H1262 C1259 0.950 . S
C1263 C1254 1.390 . S
C1263 H1256 0.950 . S
C1263 C1260 1.387 . S
C1264 C1265 1.387 . S
C1264 H1268 0.950 . S
C1264 C1273 1.390 . S
C1265 C1264 1.387 . S
C1265 C1267 1.387 . S
H1266 C1273 0.950 . S
C1267 C1265 1.387 . S
C1267 C1269 1.390 . S
C1267 H1271 0.950 . S
H1268 C1264 0.950 . S
C1269 C1267 1.390 . S
C1269 C1270 1.387 . S
C1269 H1272 0.950 . S
C1270 C1269 1.387 . S
C1270 C1273 1.387 . S
H1271 C1267 0.950 . S
H1272 C1269 0.950 . S
C1273 C1264 1.390 . S
C1273 H1266 0.950 . S
C1273 C1270 1.387 . S
C1274 C1275 1.387 . S
C1274 H1278 0.950 . S
C1274 C1283 1.390 . S
C1275 C1274 1.387 . S
C1275 C1277 1.387 . S
H1276 C1283 0.950 . S
C1277 C1275 1.387 . S
C1277 C1279 1.390 . S
C1277 H1281 0.950 . S
H1278 C1274 0.950 . S
C1279 C1277 1.390 . S
C1279 C1280 1.387 . S
C1279 H1282 0.950 . S
C1280 C1279 1.387 . S
C1280 C1283 1.387 . S
H1281 C1277 0.950 . S
H1282 C1279 0.950 . S
C1283 C1274 1.390 . S
C1283 H1276 0.950 . S
C1283 C1280 1.387 . S
C1284 C1285 1.387 . S
C1284 H1288 0.950 . S
C1284 C1293 1.390 . S
C1285 C1284 1.387 . S
C1285 C1287 1.387 . S
H1286 C1293 0.950 . S
C1287 C1285 1.387 . S
C1287 C1289 1.390 . S
C1287 H1291 0.950 . S
H1288 C1284 0.950 . S
C1289 C1287 1.390 . S
C1289 C1290 1.387 . S
C1289 H1292 0.950 . S
C1290 C1289 1.387 . S
C1290 C1293 1.387 . S
H1291 C1287 0.950 . S
H1292 C1289 0.950 . S
C1293 C1284 1.390 . S
C1293 H1286 0.950 . S
C1293 C1290 1.387 . S
C1294 C1295 1.387 . S
C1294 H1298 0.950 . S
C1294 C1303 1.390 . S
C1295 C1294 1.387 . S
C1295 C1297 1.387 . S
H1296 C1303 0.950 . S
C1297 C1295 1.387 . S
C1297 C1299 1.390 . S
C1297 H1301 0.950 . S
H1298 C1294 0.950 . S
C1299 C1297 1.390 . S
C1299 C1300 1.387 . S
C1299 H1302 0.950 . S
C1300 C1299 1.387 . S
C1300 C1303 1.387 . S
H1301 C1297 0.950 . S
H1302 C1299 0.950 . S
C1303 C1294 1.390 . S
C1303 H1296 0.950 . S
C1303 C1300 1.387 . S
C1304 C1305 1.387 . S
C1304 H1308 0.950 . S
C1304 C1313 1.390 . S
C1305 C1304 1.387 . S
C1305 C1307 1.387 . S
H1306 C1313 0.950 . S
C1307 C1305 1.387 . S
C1307 C1309 1.390 . S
C1307 H1311 0.950 . S
H1308 C1304 0.950 . S
C1309 C1307 1.390 . S
C1309 C1310 1.387 . S
C1309 H1312 0.950 . S
C1310 C1309 1.387 . S
C1310 C1313 1.387 . S
H1311 C1307 0.950 . S
H1312 C1309 0.950 . S
C1313 C1304 1.390 . S
C1313 H1306 0.950 . S
C1313 C1310 1.387 . S
C1314 C1315 1.387 . S
C1314 H1318 0.950 . S
C1314 C1323 1.390 . S
C1315 C1314 1.387 . S
C1315 C1317 1.387 . S
H1316 C1323 0.950 . S
C1317 C1315 1.387 . S
C1317 C1319 1.390 . S
C1317 H1321 0.950 . S
H1318 C1314 0.950 . S
C1319 C1317 1.390 . S
C1319 C1320 1.387 . S
C1319 H1322 0.950 . S
C1320 C1319 1.387 . S
C1320 C1323 1.387 . S
H1321 C1317 0.950 . S
H1322 C1319 0.950 . S
C1323 C1314 1.390 . S
C1323 H1316 0.950 . S
C1323 C1320 1.387 . S
C1324 C1325 1.387 . S
C1324 H1328 0.950 . S
C1324 C1333 1.390 . S
C1325 C1324 1.387 . S
C1325 C1327 1.387 . S
H1326 C1333 0.950 . S
C1327 C1325 1.387 . S
C1327 C1329 1.390 . S
C1327 H1331 0.950 . S
H1328 C1324 0.950 . S
C1329 C1327 1.390 . S
C1329 C1330 1.387 . S
C1329 H1332 0.950 . S
C1330 C1329 1.387 . S
C1330 C1333 1.387 . S
H1331 C1327 0.950 . S
H1332 C1329 0.950 . S
C1333 C1324 1.390 . S
C1333 H1326 0.950 . S
C1333 C1330 1.387 . S
C1334 C1335 1.387 . S
C1334 H1338 0.950 . S
C1334 C1343 1.390 . S
C1335 C1334 1.387 . S
C1335 C1337 1.387 . S
H1336 C1343 0.950 . S
C1337 C1335 1.387 . S
C1337 C1339 1.390 . S
C1337 H1341 0.950 . S
H1338 C1334 0.950 . S
C1339 C1337 1.390 . S
C1339 C1340 1.387 . S
C1339 H1342 0.950 . S
C1340 C1339 1.387 . S
C1340 C1343 1.387 . S
H1341 C1337 0.950 . S
H1342 C1339 0.950 . S
C1343 C1334 1.390 . S
C1343 H1336 0.950 . S
C1343 C1340 1.387 . S
C870 C689 1.747 . S
C865 C74 1.713 . S
C880 C694 1.206 . S
C875 C153 1.145 . S
C890 C695 1.702 . S
C885 C231 1.665 . S
C895 C310 0.956 . S
C900 C699 0.877 . S
C905 C394 1.143 . S
C910 C702 1.206 . S
C920 C703 1.703 . S
C915 C494 1.663 . S
C925 C573 0.955 . S
C930 C680 0.876 . S
C935 C651 1.715 . S
C940 C696 1.746 . S
C950 C734 2.374 . S
C945 C56 2.482 . S
C955 C151 1.644 . S
C960 C760 1.617 . S
C970 C712 1.195 . S
C965 C237 1.183 . S
C980 C767 1.643 . S
C975 C326 1.615 . S
C985 C410 1.649 . S
C990 C721 1.643 . S
C1000 C763 2.373 . S
C995 C476 2.471 . S
C1005 C571 1.666 . S
C1010 C727 1.641 . S
C1015 C657 1.184 . S
C1020 C758 1.203 . S
C1025 C58 1.182 . S
C1030 C766 1.200 . S
C1035 C392 1.643 . S
C1040 C753 1.620 . S
C1050 C731 1.199 . S
C1045 C478 1.182 . S
C1060 C759 1.644 . S
C1055 C567 1.619 . S
C1065 C655 2.482 . S
C1070 C726 2.375 . S
C1075 C235 2.472 . S
C1080 C744 2.372 . S
C1090 C735 1.640 . S
C1085 C308 1.666 . S
C1095 C147 1.650 . S
C1100 C728 1.643 . S
C1105 C662 1.686 . S
C1110 C790 1.652 . S
C1115 C405 1.123 . S
C1120 C785 1.178 . S
C1130 C799 1.570 . S
C1125 C483 1.643 . S
C1140 C776 0.597 . S
C1135 C562 0.959 . S
C1145 C142 1.120 . S
C1150 C792 1.178 . S
C1160 C791 1.569 . S
C1155 C242 1.640 . S
C1165 C321 0.962 . S
C1170 C795 0.602 . S
C1175 C63 1.688 . S
C1180 C798 1.653 . S
C1185 C644 2.492 . S
C1190 C824 2.459 . S
C1200 C840 1.543 . S
C1195 C403 1.643 . S
C1205 C489 1.191 . S
C1210 C822 1.250 . S
C1215 C578 1.624 . S
C1220 C855 1.636 . S
C1230 C831 1.607 . S
C1225 C158 1.633 . S
C1235 C224 2.499 . S
C1240 C849 2.424 . S
C1250 C827 1.539 . S
C1245 C319 1.644 . S
C1260 C862 1.226 . S
C1255 C69 1.194 . S
C1270 C854 1.222 . S
C1265 C646 1.199 . S
C1275 C140 1.642 . S
C1280 C859 1.544 . S
C1285 C226 1.192 . S
C1290 C830 1.252 . S
C1300 C863 1.638 . S
C1295 C315 1.622 . S
C1305 C67 2.492 . S
C1310 C817 2.458 . S
C1315 C487 2.499 . S
C1320 C856 2.423 . S
C1330 C808 1.543 . S
C1325 C560 1.646 . S
C1340 C823 1.607 . S
C1335 C399 1.633 . S
