# Generated by pormake.
# Topology eea, (3,6)-cn, num edge types: 1
# Building blocks:
#     Node 0, Type 0, BuildingBlock: OLANEW_clean_sbu_2, # of connection points: 3
#     Node 1, Type 0, BuildingBlock: OLANEW_clean_sbu_2, # of connection points: 3
#     Node 2, Type 0, BuildingBlock: OLANEW_clean_sbu_2, # of connection points: 3
#     Node 3, Type 0, BuildingBlock: OLANEW_clean_sbu_2, # of connection points: 3
#     Node 4, Type 0, BuildingBlock: OLANEW_clean_sbu_2, # of connection points: 3
#     Node 5, Type 0, BuildingBlock: OLANEW_clean_sbu_2, # of connection points: 3
#     Node 6, Type 0, BuildingBlock: OLANEW_clean_sbu_2, # of connection points: 3
#     Node 7, Type 0, BuildingBlock: OLANEW_clean_sbu_2, # of connection points: 3
#     Node 8, Type 0, BuildingBlock: OLANEW_clean_sbu_2, # of connection points: 3
#     Node 9, Type 0, BuildingBlock: OLANEW_clean_sbu_2, # of connection points: 3
#     Node 10, Type 0, BuildingBlock: OLANEW_clean_sbu_2, # of connection points: 3
#     Node 11, Type 0, BuildingBlock: OLANEW_clean_sbu_2, # of connection points: 3
#     Node 12, Type 0, BuildingBlock: OLANEW_clean_sbu_2, # of connection points: 3
#     Node 13, Type 0, BuildingBlock: OLANEW_clean_sbu_2, # of connection points: 3
#     Node 14, Type 0, BuildingBlock: OLANEW_clean_sbu_2, # of connection points: 3
#     Node 15, Type 0, BuildingBlock: OLANEW_clean_sbu_2, # of connection points: 3
#     Node 16, Type 0, BuildingBlock: OLANEW_clean_sbu_2, # of connection points: 3
#     Node 17, Type 0, BuildingBlock: OLANEW_clean_sbu_2, # of connection points: 3
#     Node 18, Type 1, BuildingBlock: CUWYAW_clean_sbu_0, # of connection points: 6
#     Node 19, Type 1, BuildingBlock: CUWYAW_clean_sbu_0, # of connection points: 6
#     Node 20, Type 1, BuildingBlock: CUWYAW_clean_sbu_0, # of connection points: 6
#     Node 21, Type 1, BuildingBlock: CUWYAW_clean_sbu_0, # of connection points: 6
#     Node 22, Type 1, BuildingBlock: CUWYAW_clean_sbu_0, # of connection points: 6
#     Node 23, Type 1, BuildingBlock: CUWYAW_clean_sbu_0, # of connection points: 6
#     Node 24, Type 1, BuildingBlock: CUWYAW_clean_sbu_0, # of connection points: 6
#     Node 25, Type 1, BuildingBlock: CUWYAW_clean_sbu_0, # of connection points: 6
#     Node 26, Type 1, BuildingBlock: CUWYAW_clean_sbu_0, # of connection points: 6
#     Edge 27, Type (0, 1), BuildingBlock: MIFKUJ_clean_linker_0, # of connection points: 2
#     Edge 28, Type (0, 1), BuildingBlock: MIFKUJ_clean_linker_0, # of connection points: 2
#     Edge 29, Type (0, 1), BuildingBlock: MIFKUJ_clean_linker_0, # of connection points: 2
#     Edge 30, Type (0, 1), BuildingBlock: MIFKUJ_clean_linker_0, # of connection points: 2
#     Edge 31, Type (0, 1), BuildingBlock: MIFKUJ_clean_linker_0, # of connection points: 2
#     Edge 32, Type (0, 1), BuildingBlock: MIFKUJ_clean_linker_0, # of connection points: 2
#     Edge 33, Type (0, 1), BuildingBlock: MIFKUJ_clean_linker_0, # of connection points: 2
#     Edge 34, Type (0, 1), BuildingBlock: MIFKUJ_clean_linker_0, # of connection points: 2
#     Edge 35, Type (0, 1), BuildingBlock: MIFKUJ_clean_linker_0, # of connection points: 2
#     Edge 36, Type (0, 1), BuildingBlock: MIFKUJ_clean_linker_0, # of connection points: 2
#     Edge 37, Type (0, 1), BuildingBlock: MIFKUJ_clean_linker_0, # of connection points: 2
#     Edge 38, Type (0, 1), BuildingBlock: MIFKUJ_clean_linker_0, # of connection points: 2
#     Edge 39, Type (0, 1), BuildingBlock: MIFKUJ_clean_linker_0, # of connection points: 2
#     Edge 40, Type (0, 1), BuildingBlock: MIFKUJ_clean_linker_0, # of connection points: 2
#     Edge 41, Type (0, 1), BuildingBlock: MIFKUJ_clean_linker_0, # of connection points: 2
#     Edge 42, Type (0, 1), BuildingBlock: MIFKUJ_clean_linker_0, # of connection points: 2
#     Edge 43, Type (0, 1), BuildingBlock: MIFKUJ_clean_linker_0, # of connection points: 2
#     Edge 44, Type (0, 1), BuildingBlock: MIFKUJ_clean_linker_0, # of connection points: 2
#     Edge 45, Type (0, 1), BuildingBlock: MIFKUJ_clean_linker_0, # of connection points: 2
#     Edge 46, Type (0, 1), BuildingBlock: MIFKUJ_clean_linker_0, # of connection points: 2
#     Edge 47, Type (0, 1), BuildingBlock: MIFKUJ_clean_linker_0, # of connection points: 2
#     Edge 48, Type (0, 1), BuildingBlock: MIFKUJ_clean_linker_0, # of connection points: 2
#     Edge 49, Type (0, 1), BuildingBlock: MIFKUJ_clean_linker_0, # of connection points: 2
#     Edge 50, Type (0, 1), BuildingBlock: MIFKUJ_clean_linker_0, # of connection points: 2
#     Edge 51, Type (0, 1), BuildingBlock: MIFKUJ_clean_linker_0, # of connection points: 2
#     Edge 52, Type (0, 1), BuildingBlock: MIFKUJ_clean_linker_0, # of connection points: 2
#     Edge 53, Type (0, 1), BuildingBlock: MIFKUJ_clean_linker_0, # of connection points: 2
#     Edge 54, Type (0, 1), BuildingBlock: MIFKUJ_clean_linker_0, # of connection points: 2
#     Edge 55, Type (0, 1), BuildingBlock: MIFKUJ_clean_linker_0, # of connection points: 2
#     Edge 56, Type (0, 1), BuildingBlock: MIFKUJ_clean_linker_0, # of connection points: 2
#     Edge 57, Type (0, 1), BuildingBlock: MIFKUJ_clean_linker_0, # of connection points: 2
#     Edge 58, Type (0, 1), BuildingBlock: MIFKUJ_clean_linker_0, # of connection points: 2
#     Edge 59, Type (0, 1), BuildingBlock: MIFKUJ_clean_linker_0, # of connection points: 2
#     Edge 60, Type (0, 1), BuildingBlock: MIFKUJ_clean_linker_0, # of connection points: 2
#     Edge 61, Type (0, 1), BuildingBlock: MIFKUJ_clean_linker_0, # of connection points: 2
#     Edge 62, Type (0, 1), BuildingBlock: MIFKUJ_clean_linker_0, # of connection points: 2
#     Edge 63, Type (0, 1), BuildingBlock: MIFKUJ_clean_linker_0, # of connection points: 2
#     Edge 64, Type (0, 1), BuildingBlock: MIFKUJ_clean_linker_0, # of connection points: 2
#     Edge 65, Type (0, 1), BuildingBlock: MIFKUJ_clean_linker_0, # of connection points: 2
#     Edge 66, Type (0, 1), BuildingBlock: MIFKUJ_clean_linker_0, # of connection points: 2
#     Edge 67, Type (0, 1), BuildingBlock: MIFKUJ_clean_linker_0, # of connection points: 2
#     Edge 68, Type (0, 1), BuildingBlock: MIFKUJ_clean_linker_0, # of connection points: 2
#     Edge 69, Type (0, 1), BuildingBlock: MIFKUJ_clean_linker_0, # of connection points: 2
#     Edge 70, Type (0, 1), BuildingBlock: MIFKUJ_clean_linker_0, # of connection points: 2
#     Edge 71, Type (0, 1), BuildingBlock: MIFKUJ_clean_linker_0, # of connection points: 2
#     Edge 72, Type (0, 1), BuildingBlock: MIFKUJ_clean_linker_0, # of connection points: 2
#     Edge 73, Type (0, 1), BuildingBlock: MIFKUJ_clean_linker_0, # of connection points: 2
#     Edge 74, Type (0, 1), BuildingBlock: MIFKUJ_clean_linker_0, # of connection points: 2
#     Edge 75, Type (0, 1), BuildingBlock: MIFKUJ_clean_linker_0, # of connection points: 2
#     Edge 76, Type (0, 1), BuildingBlock: MIFKUJ_clean_linker_0, # of connection points: 2
#     Edge 77, Type (0, 1), BuildingBlock: MIFKUJ_clean_linker_0, # of connection points: 2
#     Edge 78, Type (0, 1), BuildingBlock: MIFKUJ_clean_linker_0, # of connection points: 2
#     Edge 79, Type (0, 1), BuildingBlock: MIFKUJ_clean_linker_0, # of connection points: 2
#     Edge 80, Type (0, 1), BuildingBlock: MIFKUJ_clean_linker_0, # of connection points: 2
# Relax obj value: 0.026
# Max RMSD: 0.179
# Mean RMSD: 0.117
data_MOF--net-eea--node1-OLANEW_clean_sbu_2--node2-CUWYAW_clean_sbu_0--edge1-MIFKUJ_clean_linker_0
_symmetry_space_group_name_H-M    P1
_symmetry_Int_Tables_number       1
_symmetry_cell_setting            triclinic
loop_
_symmetry_equiv_pos_as_xyz
'x, y, z'
_cell_length_a     77.415133
_cell_length_b     75.49983
_cell_length_c     88.069765
_cell_angle_alpha  96.833372
_cell_angle_beta   93.502233
_cell_angle_gamma 120.6214
loop_
_atom_site_label
_atom_site_type_symbol
_atom_site_fract_x
_atom_site_fract_y
_atom_site_fract_z
_atom_type_partial_charge
O0 O 0.25169 0.13668 0.43224 0.0
Cd1 Cd 0.24054 0.12767 0.40435 0.0
O2 O 0.28172 0.1414 0.42943 0.0
Cd3 Cd 0.27181 0.12599 0.40533 0.0
O4 O 0.25642 0.09682 0.38868 0.0
C5 C 0.23963 0.08228 0.39162 0.0
O6 O 0.23225 0.08601 0.40382 0.0
C7 C 0.26952 0.14224 0.43811 0.0
C8 C 0.23183 0.15577 0.39331 0.0
O9 O 0.21781 0.13885 0.39697 0.0
O10 O 0.24999 0.15945 0.39493 0.0
O11 O 0.90426 0.19395 0.42878 0.0
Cd12 Cd 0.91038 0.20006 0.40264 0.0
O13 O 0.89017 0.16063 0.4196 0.0
Cd14 Cd 0.8719 0.12713 0.42005 0.0
O15 O 0.8513 0.0933 0.41523 0.0
C16 C 0.83283 0.0861 0.4101 0.0
O17 O 0.82678 0.09926 0.40848 0.0
C18 C 0.89545 0.17519 0.43103 0.0
C19 C 0.9502 0.21234 0.39923 0.0
O20 O 0.94523 0.22589 0.40307 0.0
O21 O 0.93626 0.19294 0.39693 0.0
O22 O 0.90877 0.76853 0.44244 0.0
Cd23 Cd 0.91407 0.78273 0.41848 0.0
O24 O 0.87653 0.74587 0.43379 0.0
Cd25 Cd 0.87459 0.76027 0.41422 0.0
O26 O 0.8574 0.77239 0.40361 0.0
C27 C 0.8517 0.78182 0.41305 0.0
O28 O 0.85737 0.78441 0.42792 0.0
C29 C 0.89181 0.753 0.44411 0.0
C30 C 0.95115 0.79131 0.40949 0.0
O31 O 0.94934 0.80582 0.4169 0.0
O32 O 0.93546 0.7728 0.40633 0.0
O33 O 0.14352 0.24919 0.5741 0.0
Cd34 Cd 0.13919 0.23402 0.5977 0.0
O35 O 0.11264 0.24298 0.57367 0.0
Cd36 Cd 0.0847 0.24276 0.56721 0.0
O37 O 0.05533 0.23869 0.57142 0.0
C38 C 0.04143 0.22073 0.57336 0.0
O39 O 0.04495 0.20536 0.5719 0.0
C40 C 0.12886 0.24993 0.56755 0.0
C41 C 0.16932 0.22593 0.60693 0.0
O42 O 0.1537 0.21249 0.5972 0.0
O43 O 0.17087 0.24335 0.61212 0.0
O44 O 0.71283 0.81856 0.60135 0.0
Cd45 Cd 0.71554 0.81581 0.6286 0.0
O46 O 0.7336 0.85226 0.60848 0.0
Cd47 Cd 0.7496 0.88495 0.60549 0.0
O48 O 0.76429 0.91871 0.60721 0.0
C49 C 0.75346 0.92676 0.60569 0.0
O50 O 0.73366 0.9144 0.60261 0.0
C51 C 0.72275 0.83662 0.59778 0.0
C52 C 0.7396 0.7995 0.63573 0.0
O53 O 0.72045 0.78754 0.63145 0.0
O54 O 0.74743 0.81925 0.6366 0.0
O55 O 0.09137 0.87299 0.5631 0.0
Cd56 Cd 0.08686 0.88424 0.58906 0.0
O57 O 0.11258 0.86384 0.57139 0.0
Cd58 Cd 0.11674 0.87983 0.59486 0.0
O59 O 0.13414 0.90842 0.61205 0.0
C60 C 0.15329 0.91673 0.61366 0.0
O61 O 0.16091 0.90716 0.60569 0.0
C62 C 0.10207 0.86495 0.56028 0.0
C63 C 0.05489 0.85207 0.60057 0.0
O64 O 0.05184 0.86313 0.59206 0.0
O65 O 0.07308 0.85611 0.60358 0.0
O66 O 0.91976 0.4803 0.76749 0.0
Cd67 Cd 0.90885 0.47078 0.73959 0.0
O68 O 0.9493 0.48368 0.76476 0.0
Cd69 Cd 0.93927 0.46651 0.74105 0.0
O70 O 0.92848 0.437 0.72544 0.0
C71 C 0.90961 0.42419 0.72123 0.0
O72 O 0.89669 0.42954 0.72549 0.0
C73 C 0.9375 0.48559 0.77334 0.0
C74 C 0.90033 0.49885 0.72817 0.0
O75 O 0.88627 0.48209 0.732 0.0
O76 O 0.91843 0.50235 0.72975 0.0
O77 O 0.56349 0.51453 0.75572 0.0
Cd78 Cd 0.57159 0.51456 0.7294 0.0
O79 O 0.54513 0.48072 0.7481 0.0
Cd80 Cd 0.52298 0.44811 0.74907 0.0
O81 O 0.50153 0.41447 0.74335 0.0
C82 C 0.49126 0.40713 0.72994 0.0
O83 O 0.49369 0.42008 0.72038 0.0
C84 C 0.55158 0.4965 0.75874 0.0
C85 C 0.61302 0.53612 0.72776 0.0
O86 O 0.60274 0.54501 0.72668 0.0
O87 O 0.60376 0.51709 0.72986 0.0
O88 O 0.56482 0.05426 0.7683 0.0
Cd89 Cd 0.57021 0.04644 0.74195 0.0
O90 O 0.53961 0.05761 0.75977 0.0
Cd91 Cd 0.51508 0.06399 0.76149 0.0
O92 O 0.49064 0.07013 0.75716 0.0
C93 C 0.49109 0.08605 0.7643 0.0
O94 O 0.50644 0.09903 0.77506 0.0
C95 C 0.5506 0.05744 0.77103 0.0
C96 C 0.61015 0.07093 0.73658 0.0
O97 O 0.59696 0.07582 0.73316 0.0
O98 O 0.60454 0.05464 0.74276 0.0
O99 O 0.82377 0.60675 0.91429 0.0
Cd100 Cd 0.82107 0.59473 0.93905 0.0
O101 O 0.79222 0.59842 0.91334 0.0
Cd102 Cd 0.76291 0.5949 0.90607 0.0
O103 O 0.73176 0.58596 0.90883 0.0
C104 C 0.72305 0.572 0.9171 0.0
O105 O 0.73297 0.56386 0.92281 0.0
C106 C 0.8084 0.60568 0.90717 0.0
C107 C 0.84637 0.57931 0.94462 0.0
O108 O 0.82823 0.56726 0.93756 0.0
O109 O 0.85255 0.59867 0.94896 0.0
O110 O 0.36618 0.1432 0.937 0.0
Cd111 Cd 0.36913 0.14489 0.96496 0.0
O112 O 0.38873 0.1766 0.94276 0.0
Cd113 Cd 0.4076 0.20886 0.93913 0.0
O114 O 0.42524 0.24283 0.9414 0.0
C115 C 0.41608 0.25255 0.93947 0.0
O116 O 0.3963 0.24175 0.93554 0.0
C117 C 0.37744 0.16043 0.93255 0.0
C118 C 0.39543 0.13236 0.97487 0.0
O119 O 0.37619 0.1196 0.97263 0.0
O120 O 0.40223 0.15108 0.97252 0.0
O121 O 0.76474 0.19196 0.90006 0.0
Cd122 Cd 0.75913 0.20409 0.92531 0.0
O123 O 0.7952 0.19928 0.90913 0.0
Cd124 Cd 0.79632 0.21489 0.932 0.0
O125 O 0.81208 0.24311 0.94964 0.0
C126 C 0.83132 0.25293 0.95089 0.0
O127 O 0.83984 0.245 0.94227 0.0
C128 C 0.7809 0.19206 0.89794 0.0
C129 C 0.72436 0.17432 0.9359 0.0
O130 O 0.72357 0.18636 0.92714 0.0
O131 O 0.74156 0.17614 0.93948 0.0
O132 O 0.58848 0.8183 0.09445 0.0
Cd133 Cd 0.57838 0.812 0.06654 0.0
O134 O 0.60772 0.80489 0.09125 0.0
Cd135 Cd 0.59707 0.79173 0.06675 0.0
O136 O 0.58496 0.76313 0.0498 0.0
C137 C 0.59542 0.7545 0.04924 0.0
O138 O 0.61321 0.764 0.05789 0.0
C139 C 0.60116 0.81402 0.1001 0.0
C140 C 0.56673 0.83904 0.05745 0.0
O141 O 0.55356 0.82097 0.0601 0.0
O142 O 0.58542 0.84437 0.0592 0.0
O143 O 0.22324 0.85392 0.08792 0.0
Cd144 Cd 0.23101 0.8564 0.06159 0.0
O145 O 0.21475 0.82145 0.08154 0.0
Cd146 Cd 0.20358 0.78834 0.08153 0.0
O147 O 0.18617 0.75427 0.0765 0.0
C148 C 0.16777 0.74468 0.07881 0.0
O149 O 0.16014 0.75557 0.08473 0.0
C150 C 0.2163 0.83597 0.0916 0.0
C151 C 0.27224 0.87487 0.05981 0.0
O152 O 0.26377 0.88571 0.06051 0.0
O153 O 0.26123 0.85529 0.06014 0.0
O154 O 0.26047 0.44732 0.12253 0.0
Cd155 Cd 0.27809 0.46929 0.10381 0.0
O156 O 0.23351 0.44732 0.11356 0.0
Cd157 Cd 0.202 0.43956 0.11072 0.0
O158 O 0.1737 0.43755 0.10268 0.0
C159 C 0.16983 0.45097 0.10892 0.0
O160 O 0.18263 0.46529 0.12059 0.0
C161 C 0.2421 0.44187 0.12316 0.0
C162 C 0.30817 0.46341 0.09294 0.0
O163 O 0.31182 0.47571 0.10565 0.0
O164 O 0.29017 0.4536 0.08547 0.0
O165 O 0.46853 0.90586 0.23855 0.0
Cd166 Cd 0.46262 0.89201 0.26267 0.0
O167 O 0.4423 0.90921 0.2403 0.0
Cd168 Cd 0.41727 0.91424 0.23511 0.0
O169 O 0.38906 0.91174 0.24079 0.0
C170 C 0.37326 0.8936 0.2391 0.0
O171 O 0.37426 0.87741 0.23312 0.0
C172 C 0.45659 0.91107 0.23291 0.0
C173 C 0.49325 0.88587 0.27403 0.0
O174 O 0.47833 0.87181 0.26402 0.0
O175 O 0.49375 0.90291 0.27863 0.0
O176 O 0.05452 0.48506 0.26584 0.0
Cd177 Cd 0.05788 0.48099 0.29273 0.0
O178 O 0.0702 0.51855 0.27486 0.0
Cd179 Cd 0.08478 0.55187 0.27394 0.0
O180 O 0.09918 0.58579 0.27825 0.0
C181 C 0.08866 0.59404 0.27604 0.0
O182 O 0.06926 0.58186 0.27067 0.0
C183 C 0.06151 0.5036 0.26341 0.0
C184 C 0.07956 0.46168 0.29834 0.0
O185 O 0.06024 0.45098 0.29463 0.0
O186 O 0.08868 0.48157 0.29923 0.0
O187 O 0.42693 0.52999 0.23168 0.0
Cd188 Cd 0.42172 0.54092 0.25746 0.0
O189 O 0.45801 0.5383 0.23988 0.0
Cd190 Cd 0.46065 0.5546 0.26292 0.0
O191 O 0.47926 0.5832 0.27999 0.0
C192 C 0.49823 0.59236 0.27951 0.0
O193 O 0.50491 0.5837 0.26954 0.0
C194 C 0.44318 0.53061 0.22906 0.0
C195 C 0.38869 0.50892 0.26824 0.0
O196 O 0.3864 0.52064 0.25996 0.0
O197 O 0.40659 0.51221 0.27134 0.0
C198 C 0.53361 0.01112 0.05001 0.0
Eu199 Eu 0.51889 0.0113 0.02265 0.0
C200 C 0.52545 0.00332 0.06402 0.0
C201 C 0.50557 0.99758 0.06621 0.0
C202 C 0.49793 0.9898 0.0795 0.0
C203 C 0.51003 0.98752 0.09075 0.0
C204 C 0.52994 0.99331 0.08845 0.0
C205 C 0.53756 0.00113 0.0752 0.0
C206 C 0.50553 0.03629 0.01484 0.0
C207 C 0.46962 0.97801 0.01598 0.0
C208 C 0.4802 0.99715 0.96229 0.0
Eu209 Eu 0.49586 0.99872 0.98982 0.0
C210 C 0.48701 0.00655 0.94851 0.0
C211 C 0.47604 0.99524 0.93397 0.0
C212 C 0.48223 0.00374 0.92067 0.0
C213 C 0.49953 0.0238 0.92166 0.0
C214 C 0.51056 0.03507 0.93631 0.0
C215 C 0.50433 0.02651 0.94963 0.0
C216 C 0.50808 0.97311 0.99823 0.0
C217 C 0.54457 0.03327 0.99667 0.0
O218 O 0.52911 0.99681 0.03798 0.0
O219 O 0.5321 0.02668 0.04648 0.0
O220 O 0.52255 0.04332 0.02368 0.0
O221 O 0.49611 0.0167 0.01144 0.0
O222 O 0.48699 0.98507 0.02496 0.0
O223 O 0.46902 0.98335 0.0023 0.0
O224 O 0.48157 0.00966 0.97455 0.0
O225 O 0.48576 0.98416 0.96552 0.0
O226 O 0.49083 0.96641 0.98986 0.0
O227 O 0.51827 0.99278 0.00114 0.0
O228 O 0.52697 0.02632 0.9881 0.0
O229 O 0.54567 0.02715 0.00996 0.0
H230 H 0.49594 0.99902 0.05762 0.0
H231 H 0.48248 0.98527 0.08086 0.0
H232 H 0.53974 0.99201 0.09698 0.0
H233 H 0.55293 0.00545 0.07366 0.0
H234 H 0.4627 0.97975 0.9329 0.0
H235 H 0.47362 0.99441 0.90959 0.0
H236 H 0.5238 0.05063 0.93754 0.0
H237 H 0.51293 0.03552 0.96079 0.0
C238 C 0.00077 0.52765 0.06139 0.0
Eu239 Eu 0.99482 0.50664 0.03396 0.0
C240 C 0.00651 0.52632 0.07723 0.0
C241 C 0.00154 0.50704 0.08133 0.0
C242 C 0.0073 0.50605 0.0964 0.0
C243 C 0.01835 0.52436 0.10761 0.0
C244 C 0.02354 0.54367 0.10331 0.0
C245 C 0.01763 0.54461 0.08826 0.0
C246 C 0.96612 0.46606 0.0233 0.0
C247 C 0.02214 0.48473 0.03357 0.0
C248 C 0.99538 0.4687 0.97556 0.0
Eu249 Eu 0.00044 0.48804 0.00341 0.0
C250 C 0.99221 0.47315 0.96015 0.0
C251 C 0.003 0.49365 0.95707 0.0
C252 C 0.9994 0.4978 0.94256 0.0
C253 C 0.98477 0.48162 0.93096 0.0
C254 C 0.97384 0.46117 0.93412 0.0
C255 C 0.9776 0.45697 0.94859 0.0
C256 C 0.02889 0.52875 0.01412 0.0
C257 C 0.97257 0.50923 0.00375 0.0
O258 O 0.01487 0.53272 0.05244 0.0
O259 O 0.98287 0.51263 0.0544 0.0
O260 O 0.96232 0.47924 0.03084 0.0
O261 O 0.98481 0.47438 0.02277 0.0
O262 O 0.01877 0.49885 0.04083 0.0
O263 O 0.01357 0.47529 0.01923 0.0
O264 O 0.9805 0.46393 0.98372 0.0
O265 O 0.01323 0.48148 0.98375 0.0
O266 O 0.03291 0.51571 0.00668 0.0
O267 O 0.01019 0.52016 0.01451 0.0
O268 O 0.97599 0.49514 0.99655 0.0
O269 O 0.98117 0.51884 0.01805 0.0
H270 H 0.99315 0.49275 0.0729 0.0
H271 H 0.00283 0.49089 0.09931 0.0
H272 H 0.03237 0.55812 0.11152 0.0
H273 H 0.02183 0.55965 0.08521 0.0
H274 H 0.0141 0.50649 0.96589 0.0
H275 H 0.00785 0.51373 0.94047 0.0
H276 H 0.96257 0.44839 0.92533 0.0
H277 H 0.96901 0.44111 0.9508 0.0
C278 C 0.47261 0.47752 0.95516 0.0
Eu279 Eu 0.49205 0.4951 0.983 0.0
C280 C 0.47841 0.47748 0.93953 0.0
C281 C 0.46829 0.48123 0.92777 0.0
C282 C 0.47415 0.4822 0.91305 0.0
C283 C 0.49019 0.4793 0.90981 0.0
C284 C 0.50018 0.4753 0.92157 0.0
C285 C 0.49439 0.47447 0.93631 0.0
C286 C 0.50571 0.53478 0.99664 0.0
C287 C 0.5411 0.51522 0.98216 0.0
C288 C 0.53926 0.5267 0.04093 0.0
Eu289 Eu 0.52121 0.50998 0.01277 0.0
C290 C 0.53124 0.52714 0.05568 0.0
C291 C 0.53488 0.51779 0.06731 0.0
C292 C 0.52591 0.51637 0.08076 0.0
C293 C 0.51322 0.52446 0.08294 0.0
C294 C 0.50988 0.53417 0.07138 0.0
C295 C 0.51871 0.53542 0.05787 0.0
C296 C 0.50775 0.47058 0.99869 0.0
C297 C 0.47261 0.49024 0.01394 0.0
O298 O 0.47794 0.46821 0.96437 0.0
O299 O 0.47535 0.49522 0.96216 0.0
O300 O 0.48736 0.52208 0.9896 0.0
O301 O 0.51616 0.52635 0.9955 0.0
O302 O 0.5223 0.50318 0.97481 0.0
O303 O 0.54489 0.52227 0.99716 0.0
O304 O 0.53693 0.53726 0.03107 0.0
O305 O 0.53541 0.50836 0.0343 0.0
O306 O 0.52618 0.48324 0.00563 0.0
O307 O 0.49724 0.47887 0.00019 0.0
O308 O 0.49142 0.50284 0.02095 0.0
O309 O 0.46859 0.48271 0.99899 0.0
H310 H 0.45594 0.48361 0.93001 0.0
H311 H 0.46606 0.48511 0.90416 0.0
H312 H 0.51274 0.47324 0.91945 0.0
H313 H 0.50259 0.47171 0.94522 0.0
H314 H 0.54432 0.51113 0.06583 0.0
H315 H 0.52859 0.50851 0.08929 0.0
H316 H 0.50048 0.54088 0.07274 0.0
H317 H 0.51546 0.54261 0.04908 0.0
C318 C 0.20687 0.33215 0.38138 0.0
Eu319 Eu 0.1918 0.33133 0.35388 0.0
C320 C 0.1983 0.3263 0.3957 0.0
C321 C 0.17888 0.32259 0.39743 0.0
C322 C 0.17075 0.31685 0.41103 0.0
C323 C 0.18192 0.31474 0.42316 0.0
C324 C 0.20132 0.31831 0.42125 0.0
C325 C 0.20941 0.32404 0.40764 0.0
C326 C 0.17726 0.35533 0.34611 0.0
C327 C 0.14255 0.29721 0.34844 0.0
C328 C 0.15085 0.31554 0.29427 0.0
Eu329 Eu 0.16735 0.31744 0.32155 0.0
C330 C 0.15748 0.32631 0.28105 0.0
C331 C 0.178 0.33706 0.27905 0.0
C332 C 0.18403 0.34698 0.26628 0.0
C333 C 0.16962 0.34634 0.25532 0.0
C334 C 0.14911 0.3358 0.25753 0.0
C335 C 0.14311 0.32587 0.2703 0.0
C336 C 0.18034 0.29244 0.32986 0.0
C337 C 0.2158 0.35285 0.32732 0.0
O338 O 0.20086 0.31666 0.36991 0.0
O339 O 0.20721 0.34828 0.37701 0.0
O340 O 0.19478 0.36302 0.35438 0.0
O341 O 0.16813 0.33576 0.34317 0.0
O342 O 0.1603 0.30537 0.35719 0.0
O343 O 0.14111 0.30149 0.33448 0.0
O344 O 0.15086 0.32678 0.30678 0.0
O345 O 0.15803 0.30372 0.29715 0.0
O346 O 0.16283 0.28544 0.32178 0.0
O347 O 0.1905 0.31213 0.33246 0.0
O348 O 0.19776 0.34571 0.31942 0.0
O349 O 0.21781 0.34665 0.34038 0.0
H350 H 0.17003 0.3242 0.38829 0.0
H351 H 0.15586 0.31438 0.41213 0.0
H352 H 0.21018 0.31645 0.43022 0.0
H353 H 0.22434 0.32664 0.40643 0.0
H354 H 0.18933 0.33768 0.28731 0.0
H355 H 0.19997 0.35523 0.26502 0.0
H356 H 0.13764 0.33487 0.24922 0.0
H357 H 0.12722 0.3177 0.27172 0.0
C358 C 0.6771 0.86321 0.39397 0.0
Eu359 Eu 0.66963 0.84375 0.36568 0.0
C360 C 0.68318 0.86079 0.40937 0.0
C361 C 0.67767 0.841 0.41271 0.0
C362 C 0.68282 0.83887 0.4276 0.0
C363 C 0.69371 0.85652 0.43936 0.0
C364 C 0.69967 0.87635 0.43583 0.0
C365 C 0.69444 0.87844 0.42097 0.0
C366 C 0.64196 0.80286 0.35508 0.0
C367 C 0.69961 0.82525 0.36094 0.0
C368 C 0.66685 0.80906 0.30518 0.0
Eu369 Eu 0.67308 0.82766 0.33358 0.0
C370 C 0.66012 0.81088 0.28983 0.0
C371 C 0.65792 0.82779 0.28768 0.0
C372 C 0.65238 0.82977 0.27284 0.0
C373 C 0.64894 0.81485 0.25995 0.0
C374 C 0.6507 0.79768 0.26231 0.0
C375 C 0.65628 0.79576 0.27711 0.0
C376 C 0.70023 0.86865 0.34454 0.0
C377 C 0.6429 0.84569 0.338 0.0
O378 O 0.69073 0.86871 0.38457 0.0
O379 O 0.65893 0.8487 0.3871 0.0
O380 O 0.6382 0.81511 0.36393 0.0
O381 O 0.66036 0.81218 0.35324 0.0
O382 O 0.6956 0.83784 0.36974 0.0
O383 O 0.68993 0.81623 0.34682 0.0
O384 O 0.6532 0.80239 0.31453 0.0
O385 O 0.68447 0.82471 0.31205 0.0
O386 O 0.70486 0.85651 0.33654 0.0
O387 O 0.68174 0.85901 0.34583 0.0
O388 O 0.64677 0.83282 0.32945 0.0
O389 O 0.6527 0.85502 0.35209 0.0
H390 H 0.66921 0.82718 0.40385 0.0
H391 H 0.67828 0.82342 0.42991 0.0
H392 H 0.70792 0.89022 0.44466 0.0
H393 H 0.699 0.89386 0.41864 0.0
H394 H 0.66079 0.83959 0.29744 0.0
H395 H 0.65127 0.84323 0.27142 0.0
H396 H 0.64775 0.78569 0.25269 0.0
H397 H 0.65777 0.78254 0.27862 0.0
C398 C 0.13116 0.80671 0.2857 0.0
Eu399 Eu 0.14981 0.82979 0.31261 0.0
C400 C 0.1355 0.8072 0.26958 0.0
C401 C 0.13143 0.8191 0.26048 0.0
C402 C 0.13633 0.82022 0.24549 0.0
C403 C 0.14527 0.80935 0.23923 0.0
C404 C 0.14882 0.79699 0.24816 0.0
C405 C 0.14393 0.79587 0.26316 0.0
C406 C 0.16241 0.87069 0.32075 0.0
C407 C 0.19914 0.85177 0.31358 0.0
C408 C 0.19461 0.87226 0.37093 0.0
Eu409 Eu 0.17793 0.8512 0.34321 0.0
C410 C 0.18663 0.86921 0.38573 0.0
C411 C 0.17035 0.8496 0.38737 0.0
C412 C 0.16193 0.84688 0.40111 0.0
C413 C 0.16944 0.86382 0.41333 0.0
C414 C 0.1857 0.88345 0.41166 0.0
C415 C 0.19429 0.88611 0.39795 0.0
C416 C 0.16499 0.81023 0.33463 0.0
C417 C 0.12892 0.83047 0.34218 0.0
O418 O 0.14215 0.80294 0.29517 0.0
O419 O 0.12816 0.82127 0.29214 0.0
O420 O 0.14467 0.85686 0.31321 0.0
O421 O 0.17309 0.86273 0.32253 0.0
O422 O 0.18078 0.8371 0.30651 0.0
O423 O 0.20188 0.86239 0.32749 0.0
O424 O 0.18559 0.87769 0.36108 0.0
O425 O 0.19766 0.85773 0.36447 0.0
O426 O 0.18307 0.824 0.34163 0.0
O427 O 0.15446 0.8184 0.33336 0.0
O428 O 0.14732 0.84495 0.34912 0.0
O429 O 0.12607 0.81946 0.32846 0.0
H430 H 0.12465 0.82776 0.26498 0.0
H431 H 0.13309 0.82959 0.23879 0.0
H432 H 0.15584 0.78856 0.2437 0.0
H433 H 0.14704 0.78637 0.26981 0.0
H434 H 0.16399 0.83643 0.37795 0.0
H435 H 0.14927 0.83166 0.40207 0.0
H436 H 0.19176 0.89672 0.42096 0.0
H437 H 0.20669 0.90139 0.39681 0.0
C438 C 0.87569 0.67872 0.71651 0.0
Eu439 Eu 0.86019 0.67615 0.68869 0.0
C440 C 0.86789 0.67299 0.73114 0.0
C441 C 0.87777 0.68743 0.74488 0.0
C442 C 0.87051 0.68252 0.75887 0.0
C443 C 0.85325 0.66297 0.75941 0.0
C444 C 0.8433 0.64855 0.74556 0.0
C445 C 0.85051 0.65353 0.73155 0.0
C446 C 0.84617 0.70009 0.67962 0.0
C447 C 0.81084 0.64325 0.68369 0.0
C448 C 0.81994 0.6577 0.62862 0.0
Eu449 Eu 0.83592 0.66091 0.65643 0.0
C450 C 0.82769 0.66525 0.61448 0.0
C451 C 0.84778 0.67185 0.61237 0.0
C452 C 0.85494 0.67897 0.5988 0.0
C453 C 0.84212 0.67964 0.58716 0.0
C454 C 0.82209 0.67332 0.5895 0.0
C455 C 0.81496 0.66617 0.60304 0.0
C456 C 0.84851 0.63614 0.66598 0.0
C457 C 0.88458 0.69579 0.66162 0.0
O458 O 0.87088 0.66336 0.70521 0.0
O459 O 0.87458 0.69397 0.71186 0.0
O460 O 0.86368 0.70788 0.68795 0.0
O461 O 0.83679 0.6805 0.6773 0.0
O462 O 0.82851 0.65053 0.69233 0.0
O463 O 0.80973 0.64764 0.66974 0.0
O464 O 0.82297 0.67207 0.64014 0.0
O465 O 0.82349 0.64373 0.63296 0.0
O466 O 0.83096 0.62901 0.65793 0.0
O467 O 0.85891 0.65582 0.66798 0.0
O468 O 0.86663 0.68782 0.6533 0.0
O469 O 0.88645 0.69101 0.67533 0.0
H470 H 0.89108 0.7026 0.74479 0.0
H471 H 0.87833 0.69416 0.76924 0.0
H472 H 0.83012 0.63327 0.74555 0.0
H473 H 0.84251 0.64214 0.72108 0.0
H474 H 0.85788 0.67137 0.62116 0.0
H475 H 0.87039 0.6836 0.59733 0.0
H476 H 0.81196 0.67406 0.58091 0.0
H477 H 0.79948 0.66136 0.60459 0.0
C478 C 0.33662 0.18562 0.729 0.0
Eu479 Eu 0.32884 0.16548 0.70096 0.0
C480 C 0.34282 0.18262 0.74409 0.0
C481 C 0.33918 0.16294 0.74628 0.0
C482 C 0.34474 0.16007 0.76076 0.0
C483 C 0.35426 0.1769 0.7732 0.0
C484 C 0.35839 0.19671 0.77083 0.0
C485 C 0.35265 0.19952 0.75638 0.0
C486 C 0.29874 0.12535 0.69063 0.0
C487 C 0.3548 0.14222 0.69874 0.0
C488 C 0.32322 0.12521 0.64177 0.0
Eu489 Eu 0.33161 0.14591 0.66965 0.0
C490 C 0.31949 0.12928 0.62634 0.0
C491 C 0.33091 0.14939 0.62268 0.0
C492 C 0.32717 0.15312 0.60804 0.0
C493 C 0.31178 0.13688 0.59685 0.0
C494 C 0.30012 0.11686 0.60064 0.0
C495 C 0.30398 0.11309 0.61527 0.0
C496 C 0.36186 0.18589 0.67984 0.0
C497 C 0.30623 0.17005 0.672 0.0
O498 O 0.35007 0.19089 0.71947 0.0
O499 O 0.31831 0.17134 0.72225 0.0
O500 O 0.29586 0.13916 0.69829 0.0
O501 O 0.31721 0.13294 0.68958 0.0
O502 O 0.35257 0.15695 0.70639 0.0
O503 O 0.34503 0.13258 0.68468 0.0
O504 O 0.30937 0.12212 0.65069 0.0
O505 O 0.34171 0.13716 0.64914 0.0
O506 O 0.36433 0.17244 0.67121 0.0
O507 O 0.34347 0.17846 0.68108 0.0
O508 O 0.30858 0.15548 0.66418 0.0
O509 O 0.31551 0.17911 0.68625 0.0
H510 H 0.33187 0.14976 0.73683 0.0
H511 H 0.34158 0.1447 0.76225 0.0
H512 H 0.36556 0.2099 0.78026 0.0
H513 H 0.35571 0.21484 0.75483 0.0
H514 H 0.34272 0.16225 0.63114 0.0
H515 H 0.3362 0.16876 0.60551 0.0
H516 H 0.28825 0.10402 0.59221 0.0
H517 H 0.29488 0.09753 0.61793 0.0
C518 C 0.80155 0.15166 0.618 0.0
Eu519 Eu 0.82031 0.16902 0.64601 0.0
C520 C 0.80752 0.14754 0.60312 0.0
C521 C 0.79818 0.14893 0.58957 0.0
C522 C 0.80501 0.14712 0.5755 0.0
C523 C 0.82132 0.14389 0.57477 0.0
C524 C 0.8302 0.14176 0.58829 0.0
C525 C 0.82338 0.14363 0.60238 0.0
C526 C 0.83318 0.20826 0.66022 0.0
C527 C 0.86901 0.18836 0.64647 0.0
C528 C 0.86581 0.19999 0.70489 0.0
Eu529 Eu 0.84794 0.18322 0.67658 0.0
C530 C 0.85868 0.19654 0.71996 0.0
C531 C 0.83986 0.17894 0.72098 0.0
C532 C 0.83248 0.1762 0.73513 0.0
C533 C 0.84395 0.19089 0.74857 0.0
C534 C 0.863 0.20832 0.74755 0.0
C535 C 0.87025 0.21117 0.73332 0.0
C536 C 0.835 0.14397 0.66241 0.0
C537 C 0.79861 0.16294 0.67593 0.0
O538 O 0.80227 0.1411 0.62852 0.0
O539 O 0.80888 0.17137 0.62358 0.0
O540 O 0.8151 0.19561 0.65269 0.0
O541 O 0.84387 0.20008 0.65929 0.0
O542 O 0.85048 0.1753 0.63902 0.0
O543 O 0.8721 0.19656 0.66122 0.0
O544 O 0.85809 0.2081 0.69643 0.0
O545 O 0.86631 0.18453 0.69691 0.0
O546 O 0.85298 0.15639 0.67017 0.0
O547 O 0.82447 0.15229 0.66335 0.0
O548 O 0.81698 0.17333 0.68405 0.0
O549 O 0.79562 0.15771 0.66077 0.0
H550 H 0.78593 0.15195 0.58994 0.0
H551 H 0.79777 0.14862 0.56522 0.0
H552 H 0.84293 0.1395 0.5881 0.0
H553 H 0.83087 0.14259 0.61275 0.0
H554 H 0.83085 0.16736 0.71079 0.0
H555 H 0.81787 0.16251 0.7356 0.0
H556 H 0.87209 0.21997 0.7577 0.0
H557 H 0.88478 0.22488 0.73272 0.0
H558 H 0.29634 0.85842 0.06321 0.0
H559 H 0.33168 0.87371 0.05846 0.0
H560 H 0.33204 0.92784 0.04708 0.0
H561 H 0.29701 0.91302 0.05212 0.0
H562 H 0.3428 0.89383 0.02486 0.0
H563 H 0.35789 0.94728 0.07184 0.0
H564 H 0.35627 0.95544 0.0995 0.0
H565 H 0.38433 0.92118 0.11068 0.0
H566 H 0.38578 0.91255 0.08301 0.0
H567 H 0.43257 0.9705 0.00486 0.0
H568 H 0.40061 0.95015 0.01445 0.0
H569 H 0.43033 0.93547 0.04958 0.0
H570 H 0.46287 0.95675 0.04034 0.0
H571 H 0.40503 0.94386 0.0617 0.0
H572 H 0.39875 0.89835 0.01706 0.0
H573 H 0.40045 0.88737 0.98996 0.0
H574 H 0.35568 0.90127 0.9745 0.0
H575 H 0.35391 0.91262 0.0015 0.0
C576 C 0.30405 0.8737 0.0599 0.0
C577 C 0.29391 0.88453 0.05803 0.0
C578 C 0.3242 0.8824 0.05725 0.0
C579 C 0.3344 0.90194 0.05261 0.0
C580 C 0.32443 0.91286 0.05089 0.0
C581 C 0.30442 0.90435 0.05374 0.0
C582 C 0.35485 0.91028 0.04821 0.0
C583 C 0.35646 0.90483 0.03283 0.0
C584 C 0.37255 0.92382 0.05885 0.0
C585 C 0.37164 0.92901 0.07539 0.0
C586 C 0.36345 0.94126 0.08018 0.0
C587 C 0.36263 0.94603 0.09586 0.0
C588 C 0.37011 0.93876 0.10684 0.0
C589 C 0.37848 0.92675 0.10216 0.0
C590 C 0.3793 0.92192 0.08649 0.0
C591 C 0.43237 0.96284 0.01456 0.0
C592 C 0.45023 0.96505 0.02174 0.0
C593 C 0.414 0.95109 0.02 0.0
C594 C 0.41291 0.9408 0.03249 0.0
C595 C 0.43076 0.94312 0.03983 0.0
C596 C 0.44932 0.95522 0.03452 0.0
C597 C 0.39311 0.92824 0.03802 0.0
C598 C 0.39152 0.93268 0.05365 0.0
C599 C 0.3754 0.9134 0.02762 0.0
C600 C 0.37628 0.90644 0.01133 0.0
C601 C 0.38935 0.89918 0.00788 0.0
C602 C 0.39032 0.89288 0.99253 0.0
C603 C 0.3782 0.89365 0.98052 0.0
C604 C 0.36505 0.90068 0.98382 0.0
C605 C 0.36404 0.90701 0.99915 0.0
H606 H 0.37898 0.88877 0.96864 0.0
H607 H 0.36949 0.94248 0.11897 0.0
H608 H 0.14156 0.42498 0.08391 0.0
H609 H 0.11405 0.42787 0.07179 0.0
H610 H 0.13063 0.48129 0.10657 0.0
H611 H 0.15803 0.47838 0.11888 0.0
H612 H 0.08963 0.45539 0.09992 0.0
H613 H 0.1462 0.48796 0.0716 0.0
H614 H 0.17276 0.48942 0.05675 0.0
H615 H 0.12729 0.43872 0.02233 0.0
H616 H 0.10046 0.43678 0.03709 0.0
H617 H 0.04516 0.50331 0.06199 0.0
H618 H 0.06779 0.49469 0.07527 0.0
H619 H 0.05135 0.44448 0.03751 0.0
H620 H 0.02905 0.45334 0.02395 0.0
H621 H 0.09079 0.46639 0.04547 0.0
H622 H 0.03379 0.43578 0.07285 0.0
H623 H 0.00741 0.43472 0.08774 0.0
H624 H 0.05333 0.48145 0.124 0.0
H625 H 0.07998 0.48316 0.10919 0.0
C626 C 0.13926 0.43723 0.08907 0.0
C627 C 0.15212 0.45157 0.10229 0.0
C628 C 0.12355 0.43889 0.0821 0.0
C629 C 0.12048 0.45498 0.08815 0.0
C630 C 0.13277 0.46879 0.10169 0.0
C631 C 0.14847 0.46714 0.10868 0.0
C632 C 0.10506 0.458 0.08003 0.0
C633 C 0.08995 0.45798 0.08806 0.0
C634 C 0.10524 0.46089 0.06444 0.0
C635 C 0.12135 0.46208 0.05553 0.0
C636 C 0.14188 0.47701 0.06093 0.0
C637 C 0.15698 0.47795 0.05251 0.0
C638 C 0.15172 0.46413 0.03863 0.0
C639 C 0.13134 0.44939 0.0331 0.0
C640 C 0.11618 0.44837 0.04148 0.0
C641 C 0.04626 0.49036 0.05652 0.0
C642 C 0.03531 0.47903 0.04188 0.0
C643 C 0.05913 0.48537 0.06419 0.0
C644 C 0.06109 0.46876 0.05749 0.0
C645 C 0.05006 0.45734 0.04292 0.0
C646 C 0.0373 0.46242 0.03518 0.0
C647 C 0.0753 0.46389 0.06536 0.0
C648 C 0.09027 0.46361 0.05729 0.0
C649 C 0.07495 0.46072 0.0809 0.0
C650 C 0.0589 0.45973 0.08983 0.0
C651 C 0.03827 0.44598 0.08394 0.0
C652 C 0.02326 0.44525 0.09237 0.0
C653 C 0.02868 0.45805 0.10679 0.0
C654 C 0.04913 0.47158 0.11282 0.0
C655 C 0.0642 0.47244 0.1044 0.0
H656 H 0.01705 0.45745 0.11331 0.0
H657 H 0.16343 0.46488 0.03213 0.0
H658 H 0.61357 0.73155 0.04656 0.0
H659 H 0.59796 0.69474 0.03526 0.0
H660 H 0.54204 0.69178 0.02124 0.0
H661 H 0.55749 0.72862 0.03273 0.0
H662 H 0.5357 0.66107 0.0366 0.0
H663 H 0.5713 0.68866 0.99464 0.0
H664 H 0.60072 0.71055 0.98198 0.0
H665 H 0.63093 0.68032 0.99789 0.0
H666 H 0.60181 0.65847 0.01086 0.0
H667 H 0.48632 0.55639 0.99594 0.0
H668 H 0.50122 0.59414 0.0032 0.0
H669 H 0.55951 0.60175 0.0166 0.0
H670 H 0.54478 0.56409 0.00893 0.0
H671 H 0.5637 0.63032 0.00015 0.0
H672 H 0.52924 0.60431 0.04328 0.0
H673 H 0.50059 0.58339 0.0569 0.0
H674 H 0.46879 0.61125 0.03937 0.0
H675 H 0.49714 0.63208 0.02539 0.0
C676 C 0.59804 0.72319 0.04087 0.0
C677 C 0.58674 0.73301 0.04063 0.0
C678 C 0.58916 0.70213 0.03434 0.0
C679 C 0.56886 0.69051 0.02733 0.0
C680 C 0.55774 0.70046 0.02659 0.0
C681 C 0.56661 0.72153 0.03313 0.0
C682 C 0.55879 0.66764 0.02195 0.0
C683 C 0.54159 0.65434 0.02838 0.0
C684 C 0.56685 0.65888 0.0116 0.0
C685 C 0.58443 0.67206 0.00385 0.0
C686 C 0.58429 0.68681 0.99557 0.0
C687 C 0.6009 0.69919 0.98831 0.0
C688 C 0.6177 0.69687 0.98916 0.0
C689 C 0.61791 0.68213 0.99725 0.0
C690 C 0.60135 0.66973 0.00455 0.0
C691 C 0.50228 0.56612 0.00052 0.0
C692 C 0.51439 0.55734 0.00192 0.0
C693 C 0.51077 0.58768 0.00472 0.0
C694 C 0.53146 0.60079 0.01058 0.0
C695 C 0.54352 0.59197 0.01209 0.0
C696 C 0.53507 0.57044 0.0078 0.0
C697 C 0.54066 0.62375 0.01487 0.0
C698 C 0.55772 0.63706 0.00826 0.0
C699 C 0.53252 0.63255 0.0251 0.0
C700 C 0.51523 0.6196 0.03316 0.0
C701 C 0.51604 0.6058 0.04218 0.0
C702 C 0.49986 0.59399 0.05001 0.0
C703 C 0.48287 0.59601 0.04902 0.0
C704 C 0.48196 0.60972 0.04013 0.0
C705 C 0.49808 0.62151 0.03224 0.0
H706 H 0.47041 0.58703 0.05519 0.0
H707 H 0.63054 0.70646 0.98352 0.0
H708 H 0.81879 0.27534 0.96891 0.0
H709 H 0.83996 0.31079 0.98381 0.0
H710 H 0.89347 0.313 0.97005 0.0
H711 H 0.87255 0.27761 0.95541 0.0
H712 H 0.90012 0.32999 0.99985 0.0
H713 H 0.87138 0.33557 0.95162 0.0
H714 H 0.84353 0.32796 0.93174 0.0
H715 H 0.81943 0.35236 0.96521 0.0
H716 H 0.84702 0.35987 0.98534 0.0
H717 H 0.97282 0.43715 0.00801 0.0
H718 H 0.94806 0.40031 0.99806 0.0
H719 H 0.9007 0.40784 0.01516 0.0
H720 H 0.92548 0.44498 0.02492 0.0
H721 H 0.88855 0.38544 0.98633 0.0
H722 H 0.91992 0.3834 0.03398 0.0
H723 H 0.94857 0.39179 0.05336 0.0
H724 H 0.96823 0.36114 0.0208 0.0
H725 H 0.93987 0.35283 0.00114 0.0
C726 C 0.83508 0.28331 0.96918 0.0
C727 C 0.84397 0.2737 0.96088 0.0
C728 C 0.84714 0.30359 0.97765 0.0
C729 C 0.86828 0.31465 0.97787 0.0
C730 C 0.8772 0.30479 0.97003 0.0
C731 C 0.86519 0.28456 0.96161 0.0
C732 C 0.88117 0.33673 0.98576 0.0
C733 C 0.89766 0.34214 0.99684 0.0
C734 C 0.87766 0.35251 0.98212 0.0
C735 C 0.86111 0.34805 0.97002 0.0
C736 C 0.86005 0.33916 0.95477 0.0
C737 C 0.84433 0.33489 0.94345 0.0
C738 C 0.82968 0.33961 0.94722 0.0
C739 C 0.83076 0.34867 0.96231 0.0
C740 C 0.84644 0.35294 0.97368 0.0
C741 C 0.95714 0.43096 0.00967 0.0
C742 C 0.95105 0.44385 0.0173 0.0
C743 C 0.94302 0.40988 0.00405 0.0
C744 C 0.92259 0.40123 0.0061 0.0
C745 C 0.91641 0.41417 0.01353 0.0
C746 C 0.93056 0.43533 0.01912 0.0
C747 C 0.90771 0.37875 0.00021 0.0
C748 C 0.89085 0.37327 0.98952 0.0
C749 C 0.91091 0.36291 0.00418 0.0
C750 C 0.92783 0.36761 0.01605 0.0
C751 C 0.93042 0.37855 0.03092 0.0
C752 C 0.9466 0.38329 0.04196 0.0
C753 C 0.96023 0.37704 0.0383 0.0
C754 C 0.95767 0.36598 0.02361 0.0
C755 C 0.94152 0.36123 0.01252 0.0
H756 H 0.97277 0.38074 0.04686 0.0
H757 H 0.81753 0.3363 0.93844 0.0
H758 H 0.70108 0.543 0.93472 0.0
H759 H 0.66802 0.53343 0.94215 0.0
H760 H 0.66521 0.57666 0.91566 0.0
H761 H 0.69862 0.58661 0.90832 0.0
H762 H 0.65444 0.58074 0.94338 0.0
H763 H 0.63548 0.52412 0.90274 0.0
H764 H 0.63708 0.4953 0.88789 0.0
H765 H 0.62314 0.46307 0.92657 0.0
H766 H 0.62174 0.49184 0.94173 0.0
H767 H 0.53985 0.50482 0.951 0.0
H768 H 0.56857 0.51499 0.93656 0.0
H769 H 0.61003 0.5491 0.97879 0.0
H770 H 0.58155 0.53928 0.99325 0.0
H771 H 0.59834 0.50694 0.93841 0.0
H772 H 0.65173 0.59185 0.9719 0.0
H773 H 0.64892 0.62077 0.98514 0.0
H774 H 0.59162 0.59684 0.95721 0.0
H775 H 0.59422 0.56796 0.94364 0.0
C776 C 0.69342 0.55041 0.93036 0.0
C777 C 0.70251 0.56557 0.92091 0.0
C778 C 0.67444 0.54482 0.93457 0.0
C779 C 0.66401 0.55413 0.92931 0.0
C780 C 0.67297 0.56923 0.91981 0.0
C781 C 0.69202 0.57485 0.9156 0.0
C782 C 0.64417 0.54863 0.93434 0.0
C783 C 0.64212 0.56462 0.9422 0.0
C784 C 0.6279 0.52764 0.9325 0.0
C785 C 0.62863 0.51022 0.9234 0.0
C786 C 0.63289 0.51096 0.90811 0.0
C787 C 0.63374 0.49461 0.89963 0.0
C788 C 0.63024 0.47738 0.90629 0.0
C789 C 0.62585 0.47643 0.92143 0.0
C790 C 0.62499 0.49274 0.92996 0.0
C791 C 0.55507 0.51454 0.95721 0.0
C792 C 0.55837 0.52127 0.97329 0.0
C793 C 0.57147 0.52031 0.94894 0.0
C794 C 0.59144 0.53302 0.95656 0.0
C795 C 0.59476 0.53961 0.97261 0.0
C796 C 0.57841 0.53388 0.98088 0.0
C797 C 0.60894 0.53898 0.94792 0.0
C798 C 0.61055 0.52308 0.93941 0.0
C799 C 0.62464 0.56008 0.94891 0.0
C800 C 0.62312 0.57764 0.95683 0.0
C801 C 0.63859 0.59282 0.96852 0.0
C802 C 0.63702 0.6092 0.9761 0.0
C803 C 0.62008 0.61061 0.97205 0.0
C804 C 0.6047 0.59569 0.96037 0.0
C805 C 0.60621 0.5793 0.95275 0.0
H806 H 0.61888 0.62328 0.97794 0.0
H807 H 0.63091 0.46474 0.8997 0.0
H808 H 0.38691 0.09926 0.98917 0.0
H809 H 0.40992 0.0875 0.9967 0.0
H810 H 0.45817 0.1378 0.97872 0.0
H811 H 0.43542 0.15005 0.97153 0.0
H812 H 0.44845 0.09334 0.96828 0.0
H813 H 0.46542 0.14559 0.01313 0.0
H814 H 0.45744 0.16278 0.03479 0.0
H815 H 0.42929 0.10602 0.05351 0.0
H816 H 0.43685 0.08839 0.03182 0.0
H817 H 0.52319 0.07876 0.02159 0.0
H818 H 0.50834 0.09932 0.01475 0.0
H819 H 0.45399 0.04271 0.99198 0.0
H820 H 0.46849 0.02218 0.99896 0.0
H821 H 0.4719 0.09574 0.02264 0.0
H822 H 0.43682 0.05384 0.95979 0.0
H823 H 0.4433 0.03569 0.93776 0.0
H824 H 0.50701 0.07117 0.95478 0.0
H825 H 0.50096 0.08973 0.97682 0.0
C826 C 0.40245 0.10788 0.9869 0.0
C827 C 0.4094 0.12556 0.97977 0.0
C828 C 0.41555 0.10119 0.99124 0.0
C829 C 0.43568 0.11185 0.98827 0.0
C830 C 0.44267 0.12946 0.98112 0.0
C831 C 0.42969 0.13643 0.97707 0.0
C832 C 0.44913 0.10406 0.99219 0.0
C833 C 0.45374 0.09398 0.98014 0.0
C834 C 0.456 0.10503 0.00767 0.0
C835 C 0.45155 0.11563 0.02078 0.0
C836 C 0.45737 0.13672 0.02179 0.0
C837 C 0.45296 0.14656 0.03409 0.0
C838 C 0.44282 0.13549 0.0455 0.0
C839 C 0.43713 0.11457 0.04466 0.0
C840 C 0.44149 0.10466 0.03237 0.0
C841 C 0.5081 0.07077 0.01509 0.0
C842 C 0.49705 0.04893 0.01066 0.0
C843 C 0.49966 0.08249 0.01122 0.0
C844 C 0.4802 0.07252 0.0027 0.0
C845 C 0.46917 0.05071 0.99833 0.0
C846 C 0.47749 0.03902 0.00231 0.0
C847 C 0.47097 0.08467 0.99872 0.0
C848 C 0.46696 0.0954 0.01075 0.0
C849 C 0.4645 0.08414 0.9832 0.0
C850 C 0.4684 0.07311 0.97 0.0
C851 C 0.45222 0.05783 0.95881 0.0
C852 C 0.45582 0.04745 0.94633 0.0
C853 C 0.47554 0.05227 0.94488 0.0
C854 C 0.49173 0.06742 0.95594 0.0
C855 C 0.48822 0.07786 0.96845 0.0
H856 H 0.47825 0.0443 0.93514 0.0
H857 H 0.43942 0.14313 0.05502 0.0
H858 H 0.68535 0.16458 0.92847 0.0
H859 H 0.65534 0.14044 0.93915 0.0
H860 H 0.69187 0.12592 0.96805 0.0
H861 H 0.7219 0.14969 0.95712 0.0
H862 H 0.6571 0.09137 0.95621 0.0
H863 H 0.67638 0.15927 0.9827 0.0
H864 H 0.68559 0.19603 0.9852 0.0
H865 H 0.62759 0.17668 0.96037 0.0
H866 H 0.61812 0.1398 0.95753 0.0
H867 H 0.58354 0.04448 0.00691 0.0
H868 H 0.61451 0.06829 0.99689 0.0
H869 H 0.57929 0.07918 0.96357 0.0
H870 H 0.54835 0.0555 0.97348 0.0
H871 H 0.61396 0.11573 0.97861 0.0
H872 H 0.59531 0.04761 0.95194 0.0
H873 H 0.5863 0.01098 0.95018 0.0
H874 H 0.64372 0.0312 0.97648 0.0
H875 H 0.65295 0.06797 0.97858 0.0
C876 C 0.68701 0.15621 0.93706 0.0
C877 C 0.70604 0.15914 0.942 0.0
C878 C 0.66984 0.14248 0.94323 0.0
C879 C 0.67139 0.13162 0.95461 0.0
C880 C 0.6903 0.13418 0.95932 0.0
C881 C 0.70747 0.14781 0.95308 0.0
C882 C 0.65329 0.11767 0.96162 0.0
C883 C 0.64786 0.0968 0.96131 0.0
C884 C 0.641 0.12462 0.96808 0.0
C885 C 0.64662 0.14678 0.96978 0.0
C886 C 0.66565 0.16286 0.97767 0.0
C887 C 0.67091 0.18372 0.97916 0.0
C888 C 0.6572 0.18869 0.97291 0.0
C889 C 0.63819 0.17281 0.96519 0.0
C890 C 0.63287 0.15192 0.96364 0.0
C891 C 0.5824 0.05199 0.99748 0.0
C892 C 0.56345 0.048 0.99095 0.0
C893 C 0.60009 0.06551 0.99174 0.0
C894 C 0.59916 0.07537 0.97942 0.0
C895 C 0.58033 0.0717 0.97307 0.0
C896 C 0.56264 0.05806 0.97871 0.0
C897 C 0.61778 0.0895 0.97309 0.0
C898 C 0.62329 0.11038 0.97355 0.0
C899 C 0.6302 0.0826 0.96689 0.0
C900 C 0.62473 0.06052 0.96556 0.0
C901 C 0.60594 0.04424 0.95746 0.0
C902 C 0.60081 0.02345 0.95638 0.0
C903 C 0.61441 0.01876 0.96325 0.0
C904 C 0.63319 0.03486 0.97118 0.0
C905 C 0.63839 0.05567 0.97231 0.0
H906 H 0.61041 0.00266 0.9624 0.0
H907 H 0.6613 0.20485 0.97409 0.0
H908 H 0.83768 0.53914 0.93688 0.0
H909 H 0.85902 0.52524 0.94365 0.0
H910 H 0.90617 0.58668 0.96689 0.0
H911 H 0.88507 0.60077 0.95999 0.0
H912 H 0.92179 0.56683 0.95035 0.0
H913 H 0.87407 0.55066 0.98712 0.0
H914 H 0.84 0.5355 0.99498 0.0
H915 H 0.82432 0.47447 0.9726 0.0
H916 H 0.85824 0.48933 0.96443 0.0
H917 H 0.97358 0.54606 0.00907 0.0
H918 H 0.95205 0.55567 0.99517 0.0
H919 H 0.9206 0.49513 0.96582 0.0
H920 H 0.94251 0.48556 0.97938 0.0
H921 H 0.89603 0.51104 0.9824 0.0
H922 H 0.94455 0.52659 0.94738 0.0
H923 H 0.97874 0.54157 0.93981 0.0
H924 H 0.9929 0.60327 0.95893 0.0
H925 H 0.95886 0.5886 0.96684 0.0
C926 C 0.85264 0.54973 0.94335 0.0
C927 C 0.85962 0.57104 0.948 0.0
C928 C 0.8648 0.54175 0.94723 0.0
C929 C 0.88409 0.55488 0.95593 0.0
C930 C 0.89133 0.57627 0.96017 0.0
C931 C 0.87921 0.58427 0.95627 0.0
C932 C 0.89644 0.54629 0.96119 0.0
C933 C 0.91618 0.55471 0.95742 0.0
C934 C 0.88895 0.53007 0.97007 0.0
C935 C 0.86859 0.52113 0.97502 0.0
C936 C 0.8633 0.53403 0.98377 0.0
C937 C 0.84403 0.52549 0.9883 0.0
C938 C 0.82998 0.50405 0.98425 0.0
C939 C 0.8352 0.49109 0.9757 0.0
C940 C 0.85445 0.49955 0.97113 0.0
C941 C 0.96212 0.53481 0.99963 0.0
C942 C 0.95966 0.51504 0.99533 0.0
C943 C 0.94993 0.54036 0.99167 0.0
C944 C 0.93486 0.52611 0.97947 0.0
C945 C 0.93224 0.50632 0.97518 0.0
C946 C 0.94475 0.50092 0.98292 0.0
C947 C 0.92136 0.53181 0.97174 0.0
C948 C 0.90147 0.52291 0.97511 0.0
C949 C 0.9287 0.54754 0.9625 0.0
C950 C 0.94923 0.55647 0.95787 0.0
C951 C 0.95503 0.54333 0.95014 0.0
C952 C 0.97437 0.55177 0.94575 0.0
C953 C 0.98801 0.57335 0.94893 0.0
C954 C 0.98232 0.58655 0.95649 0.0
C955 C 0.963 0.57818 0.96092 0.0
H956 H 0.00296 0.57986 0.9455 0.0
H957 H 0.81507 0.49747 0.98777 0.0
H958 H 0.40068 0.27792 0.93811 0.0
H959 H 0.41863 0.31582 0.94591 0.0
H960 H 0.4747 0.31753 0.95631 0.0
H961 H 0.45679 0.27952 0.94876 0.0
H962 H 0.46936 0.33928 0.97949 0.0
H963 H 0.46631 0.33646 0.92499 0.0
H964 H 0.45042 0.32499 0.89776 0.0
H965 H 0.41239 0.34973 0.90755 0.0
H966 H 0.42784 0.3611 0.93492 0.0
H967 H 0.52857 0.45061 0.99446 0.0
H968 H 0.515 0.41423 0.98235 0.0
H969 H 0.45541 0.40536 0.97364 0.0
H970 H 0.46886 0.44162 0.98581 0.0
H971 H 0.4651 0.38804 0.94852 0.0
H972 H 0.46653 0.38811 0.00339 0.0
H973 H 0.48257 0.39957 0.0306 0.0
H974 H 0.52421 0.3799 0.01966 0.0
H975 H 0.50858 0.36859 0.99233 0.0
C976 C 0.41687 0.28636 0.94189 0.0
C977 C 0.42728 0.27568 0.94287 0.0
C978 C 0.42714 0.30806 0.94627 0.0
C979 C 0.44805 0.31955 0.95158 0.0
C980 C 0.45857 0.30898 0.95224 0.0
C981 C 0.4483 0.28726 0.94789 0.0
C982 C 0.45862 0.34237 0.95738 0.0
C983 C 0.46876 0.35 0.97259 0.0
C984 C 0.45748 0.3563 0.94851 0.0
C985 C 0.44812 0.34947 0.93205 0.0
C986 C 0.45444 0.33931 0.92138 0.0
C987 C 0.44553 0.33285 0.9059 0.0
C988 C 0.43038 0.33658 0.90093 0.0
C989 C 0.42412 0.34683 0.91142 0.0
C990 C 0.43296 0.3533 0.92691 0.0
C991 C 0.51259 0.44089 0.98993 0.0
C992 C 0.49975 0.44888 0.99107 0.0
C993 C 0.50487 0.42015 0.98302 0.0
C994 C 0.48418 0.4071 0.97718 0.0
C995 C 0.47143 0.4152 0.97804 0.0
C996 C 0.47912 0.43589 0.98501 0.0
C997 C 0.47564 0.38479 0.97061 0.0
C998 C 0.46586 0.3773 0.9553 0.0
C999 C 0.47715 0.37097 0.97936 0.0
C1000 C 0.48654 0.37773 0.99579 0.0
C1001 C 0.47922 0.3864 0.00676 0.0
C1002 C 0.48822 0.39284 0.02221 0.0
C1003 C 0.50444 0.39053 0.02685 0.0
C1004 C 0.51167 0.38172 0.01605 0.0
C1005 C 0.50274 0.37528 0.00058 0.0
H1006 H 0.51138 0.39552 0.03881 0.0
H1007 H 0.4235 0.33158 0.88895 0.0
H1008 H 0.12753 0.71977 0.08101 0.0
H1009 H 0.10545 0.68241 0.07112 0.0
H1010 H 0.15621 0.68026 0.05551 0.0
H1011 H 0.17838 0.71774 0.06517 0.0
H1012 H 0.12423 0.66089 0.03337 0.0
H1013 H 0.13603 0.65893 0.08682 0.0
H1014 H 0.13773 0.66828 0.11489 0.0
H1015 H 0.07385 0.64506 0.10911 0.0
H1016 H 0.07181 0.63584 0.08096 0.0
H1017 H 0.06991 0.54931 0.01466 0.0
H1018 H 0.09484 0.58563 0.02651 0.0
H1019 H 0.04666 0.59367 0.04101 0.0
H1020 H 0.02173 0.55749 0.02913 0.0
H1021 H 0.07886 0.60937 0.06423 0.0
H1022 H 0.0677 0.61333 0.01068 0.0
H1023 H 0.066 0.6039 0.98261 0.0
H1024 H 0.129 0.62329 0.9888 0.0
H1025 H 0.131 0.63257 0.01695 0.0
C1026 C 0.13406 0.71134 0.0756 0.0
C1027 C 0.15472 0.72175 0.07386 0.0
C1028 C 0.12142 0.68994 0.07001 0.0
C1029 C 0.12921 0.6785 0.06268 0.0
C1030 C 0.14988 0.68879 0.06113 0.0
C1031 C 0.16254 0.7102 0.0667 0.0
C1032 C 0.11556 0.65603 0.056 0.0
C1033 C 0.11458 0.64956 0.04019 0.0
C1034 C 0.10265 0.64133 0.06482 0.0
C1035 C 0.10381 0.64687 0.08175 0.0
C1036 C 0.12238 0.65598 0.09151 0.0
C1037 C 0.12339 0.66123 0.10745 0.0
C1038 C 0.10592 0.65731 0.11378 0.0
C1039 C 0.08738 0.6481 0.10419 0.0
C1040 C 0.08628 0.64285 0.08824 0.0
C1041 C 0.06468 0.55887 0.02034 0.0
C1042 C 0.04394 0.55064 0.02101 0.0
C1043 C 0.0789 0.57958 0.02709 0.0
C1044 C 0.07257 0.59234 0.03458 0.0
C1045 C 0.05185 0.58406 0.03532 0.0
C1046 C 0.03764 0.56343 0.0285 0.0
C1047 C 0.08748 0.61436 0.04162 0.0
C1048 C 0.08866 0.62072 0.05747 0.0
C1049 C 0.1006 0.62896 0.03285 0.0
C1050 C 0.09944 0.62342 0.01593 0.0
C1051 C 0.08114 0.61541 0.00607 0.0
C1052 C 0.08013 0.61012 0.99014 0.0
C1053 C 0.09737 0.61293 0.98393 0.0
C1054 C 0.11566 0.62109 0.99363 0.0
C1055 C 0.11674 0.62637 0.00957 0.0
H1056 H 0.09656 0.60884 0.97159 0.0
H1057 H 0.10674 0.66138 0.12612 0.0
H1058 H 0.30794 0.44677 0.06361 0.0
H1059 H 0.33625 0.44724 0.05253 0.0
H1060 H 0.37361 0.47576 0.09706 0.0
H1061 H 0.34553 0.47605 0.10805 0.0
H1062 H 0.39343 0.49608 0.07719 0.0
H1063 H 0.35686 0.42363 0.07889 0.0
H1064 H 0.32734 0.38764 0.07509 0.0
H1065 H 0.32223 0.3853 0.02598 0.0
H1066 H 0.35155 0.42138 0.02948 0.0
H1067 H 0.47531 0.49536 0.04541 0.0
H1068 H 0.44795 0.48664 0.061 0.0
H1069 H 0.40475 0.46328 0.01949 0.0
H1070 H 0.43201 0.47142 0.00377 0.0
H1071 H 0.3896 0.43851 0.04065 0.0
H1072 H 0.42771 0.51334 0.04085 0.0
H1073 H 0.45827 0.5486 0.04645 0.0
H1074 H 0.46091 0.54605 0.09493 0.0
H1075 H 0.43097 0.51026 0.08955 0.0
C1076 C 0.3221 0.45284 0.07109 0.0
C1077 C 0.32454 0.46146 0.08668 0.0
C1078 C 0.33826 0.45296 0.06477 0.0
C1079 C 0.35708 0.46128 0.07398 0.0
C1080 C 0.35928 0.46921 0.0897 0.0
C1081 C 0.3432 0.46937 0.09598 0.0
C1082 C 0.37489 0.46353 0.06688 0.0
C1083 C 0.39271 0.48333 0.06947 0.0
C1084 C 0.37396 0.44701 0.05665 0.0
C1085 C 0.35632 0.42528 0.05446 0.0
C1086 C 0.34935 0.4155 0.06728 0.0
C1087 C 0.33267 0.39507 0.06518 0.0
C1088 C 0.32289 0.38421 0.05031 0.0
C1089 C 0.32981 0.39374 0.03749 0.0
C1090 C 0.34648 0.41417 0.03953 0.0
C1091 C 0.45998 0.48831 0.03956 0.0
C1092 C 0.45586 0.4843 0.02332 0.0
C1093 C 0.44435 0.48332 0.04852 0.0
C1094 C 0.42433 0.47462 0.04142 0.0
C1095 C 0.42009 0.47003 0.02521 0.0
C1096 C 0.4357 0.47477 0.01624 0.0
C1097 C 0.40789 0.47112 0.05077 0.0
C1098 C 0.39035 0.45111 0.04857 0.0
C1099 C 0.40923 0.48738 0.06162 0.0
C1100 C 0.42728 0.50893 0.06476 0.0
C1101 C 0.43498 0.52014 0.05269 0.0
C1102 C 0.45223 0.54024 0.05583 0.0
C1103 C 0.46158 0.54954 0.07105 0.0
C1104 C 0.4537 0.53877 0.08315 0.0
C1105 C 0.43669 0.51852 0.08004 0.0
H1106 H 0.47489 0.56511 0.07352 0.0
H1107 H 0.30998 0.3684 0.04871 0.0
H1108 H 0.59102 0.8804 0.05572 0.0
H1109 H 0.58079 0.90343 0.04637 0.0
H1110 H 0.51839 0.85269 0.03778 0.0
H1111 H 0.52845 0.82958 0.04725 0.0
H1112 H 0.53137 0.87409 0.01284 0.0
H1113 H 0.53222 0.88945 0.06751 0.0
H1114 H 0.54699 0.8998 0.09499 0.0
H1115 H 0.59428 0.95894 0.08628 0.0
H1116 H 0.57996 0.94883 0.05868 0.0
H1117 H 0.48476 0.93127 0.99779 0.0
H1118 H 0.49482 0.90878 0.0083 0.0
H1119 H 0.55559 0.96178 0.02266 0.0
H1120 H 0.5454 0.98442 0.01245 0.0
H1121 H 0.54365 0.93922 0.04479 0.0
H1122 H 0.54387 0.9245 0.99047 0.0
H1123 H 0.52999 0.91473 0.9628 0.0
H1124 H 0.48218 0.85516 0.97043 0.0
H1125 H 0.49563 0.86469 0.99819 0.0
C1126 C 0.57511 0.87416 0.05191 0.0
C1127 C 0.56053 0.85317 0.05222 0.0
C1128 C 0.56929 0.88736 0.04662 0.0
C1129 C 0.54883 0.87977 0.04145 0.0
C1130 C 0.53425 0.85883 0.04173 0.0
C1131 C 0.54002 0.84569 0.04719 0.0
C1132 C 0.54271 0.89352 0.03534 0.0
C1133 C 0.53378 0.88819 0.01987 0.0
C1134 C 0.54644 0.91221 0.04441 0.0
C1135 C 0.55515 0.91828 0.06099 0.0
C1136 C 0.54589 0.90458 0.07142 0.0
C1137 C 0.55415 0.91042 0.08703 0.0
C1138 C 0.57159 0.92999 0.09237 0.0
C1139 C 0.58079 0.94378 0.08212 0.0
C1140 C 0.5726 0.938 0.0665 0.0
C1141 C 0.50028 0.93809 0.00314 0.0
C1142 C 0.51433 0.95954 0.00428 0.0
C1143 C 0.50603 0.92522 0.0091 0.0
C1144 C 0.52605 0.93352 0.01609 0.0
C1145 C 0.54008 0.95502 0.0173 0.0
C1146 C 0.53427 0.96792 0.01144 0.0
C1147 C 0.53226 0.91981 0.02225 0.0
C1148 C 0.54123 0.92515 0.03773 0.0
C1149 C 0.52875 0.90121 0.01314 0.0
C1150 C 0.52065 0.8954 0.99644 0.0
C1151 C 0.53031 0.90938 0.98627 0.0
C1152 C 0.52253 0.90387 0.97057 0.0
C1153 C 0.50518 0.88436 0.96487 0.0
C1154 C 0.4956 0.87028 0.97486 0.0
C1155 C 0.50331 0.87572 0.99058 0.0
H1156 H 0.49919 0.88012 0.95271 0.0
H1157 H 0.57796 0.93449 0.10447 0.0
H1158 H 0.98191 0.25201 0.39996 0.0
H1159 H 0.01602 0.26265 0.39437 0.0
H1160 H 0.00063 0.19847 0.38857 0.0
H1161 H 0.96624 0.1876 0.39378 0.0
H1162 H 0.04728 0.26064 0.40635 0.0
H1163 H 0.02319 0.18997 0.35892 0.0
H1164 H 0.99296 0.16292 0.34078 0.0
H1165 H 0.97051 0.20449 0.34047 0.0
H1166 H 0.0007 0.23183 0.35845 0.0
H1167 H 0.13818 0.28141 0.37546 0.0
H1168 H 0.10681 0.2626 0.38671 0.0
H1169 H 0.07335 0.26681 0.34767 0.0
H1170 H 0.10419 0.28474 0.33619 0.0
H1171 H 0.0522 0.23043 0.35478 0.0
H1172 H 0.09193 0.30153 0.38365 0.0
H1173 H 0.12166 0.33134 0.40055 0.0
H1174 H 0.11207 0.29419 0.43603 0.0
H1175 H 0.08261 0.26397 0.41918 0.0
C1176 C 0.98581 0.24016 0.39761 0.0
C1177 C 0.9713 0.21893 0.3971 0.0
C1178 C 0.00536 0.24629 0.39452 0.0
C1179 C 0.01081 0.23133 0.39089 0.0
C1180 C 0.99666 0.21023 0.39112 0.0
C1181 C 0.97702 0.20406 0.39409 0.0
C1182 C 0.03072 0.23778 0.38571 0.0
C1183 C 0.04842 0.25392 0.39514 0.0
C1184 C 0.03218 0.22906 0.37107 0.0
C1185 C 0.01405 0.2128 0.36017 0.0
C1186 C 0.0118 0.19332 0.35495 0.0
C1187 C 0.99468 0.17795 0.3447 0.0
C1188 C 0.97978 0.18196 0.33953 0.0
C1189 C 0.98201 0.20138 0.34454 0.0
C1190 C 0.99911 0.2168 0.35477 0.0
C1191 C 0.12407 0.27809 0.36922 0.0
C1192 C 0.12369 0.28462 0.35495 0.0
C1193 C 0.10618 0.26742 0.37569 0.0
C1194 C 0.08774 0.26349 0.36811 0.0
C1195 C 0.08735 0.26956 0.35371 0.0
C1196 C 0.10507 0.27991 0.34717 0.0
C1197 C 0.06879 0.25381 0.37518 0.0
C1198 C 0.05121 0.2369 0.36614 0.0
C1199 C 0.06743 0.26224 0.39 0.0
C1200 C 0.08523 0.2804 0.40007 0.0
C1201 C 0.09629 0.29965 0.39499 0.0
C1202 C 0.1131 0.31661 0.40456 0.0
C1203 C 0.11881 0.31462 0.41933 0.0
C1204 C 0.10771 0.29567 0.42456 0.0
C1205 C 0.09098 0.2786 0.41499 0.0
H1206 H 0.13181 0.32777 0.42673 0.0
H1207 H 0.96654 0.17003 0.3316 0.0
H1208 H 0.83757 0.80282 0.43044 0.0
H1209 H 0.81258 0.81145 0.42192 0.0
H1210 H 0.80854 0.78387 0.37505 0.0
H1211 H 0.83384 0.77543 0.38345 0.0
H1212 H 0.80895 0.81979 0.37595 0.0
H1213 H 0.77257 0.75736 0.39747 0.0
H1214 H 0.76523 0.73495 0.41729 0.0
H1215 H 0.75809 0.77833 0.44842 0.0
H1216 H 0.76569 0.80117 0.42885 0.0
H1217 H 0.71494 0.80439 0.34499 0.0
H1218 H 0.74163 0.79863 0.35449 0.0
H1219 H 0.74665 0.83099 0.39985 0.0
H1220 H 0.71984 0.83687 0.39044 0.0
H1221 H 0.74618 0.79384 0.40032 0.0
H1222 H 0.78146 0.85563 0.378 0.0
H1223 H 0.7879 0.87713 0.35764 0.0
H1224 H 0.79629 0.83392 0.32745 0.0
H1225 H 0.78958 0.81197 0.34756 0.0
C1226 C 0.83148 0.79868 0.41829 0.0
C1227 C 0.83761 0.78831 0.40763 0.0
C1228 C 0.81711 0.80355 0.41346 0.0
C1229 C 0.80843 0.79799 0.3979 0.0
C1230 C 0.81499 0.78823 0.38713 0.0
C1231 C 0.82943 0.7834 0.39195 0.0
C1232 C 0.7923 0.80206 0.39291 0.0
C1233 C 0.79512 0.8139 0.38115 0.0
C1234 C 0.77444 0.79477 0.39995 0.0
C1235 C 0.76992 0.78109 0.41175 0.0
C1236 C 0.76962 0.76222 0.40859 0.0
C1237 C 0.76538 0.74942 0.41977 0.0
C1238 C 0.76126 0.75524 0.43413 0.0
C1239 C 0.76133 0.77386 0.43731 0.0
C1240 C 0.76559 0.78673 0.42618 0.0
C1241 C 0.72163 0.81025 0.35702 0.0
C1242 C 0.71528 0.82115 0.36696 0.0
C1243 C 0.73696 0.80701 0.3624 0.0
C1244 C 0.74626 0.8146 0.37782 0.0
C1245 C 0.7397 0.82509 0.38789 0.0
C1246 C 0.72441 0.82847 0.38248 0.0
C1247 C 0.76283 0.81148 0.38335 0.0
C1248 C 0.76006 0.7998 0.39519 0.0
C1249 C 0.78068 0.81882 0.37634 0.0
C1250 C 0.78484 0.83205 0.36424 0.0
C1251 C 0.78451 0.85061 0.36698 0.0
C1252 C 0.78824 0.8629 0.35549 0.0
C1253 C 0.79246 0.85687 0.34125 0.0
C1254 C 0.793 0.83856 0.33848 0.0
C1255 C 0.78926 0.8262 0.34993 0.0
H1256 H 0.79534 0.8664 0.33236 0.0
H1257 H 0.75797 0.74531 0.44276 0.0
H1258 H 0.25368 0.0674 0.36866 0.0
H1259 H 0.23794 0.03141 0.3551 0.0
H1260 H 0.18672 0.01304 0.37995 0.0
H1261 H 0.20256 0.04887 0.39381 0.0
H1262 H 0.19866 0.98648 0.3806 0.0
H1263 H 0.18319 0.01651 0.34121 0.0
H1264 H 0.19004 0.0419 0.32377 0.0
H1265 H 0.22984 0.02583 0.30253 0.0
H1266 H 0.22344 0.00053 0.31999 0.0
H1267 H 0.14205 0.8906 0.31579 0.0
H1268 H 0.15287 0.92693 0.32615 0.0
H1269 H 0.20862 0.93645 0.34891 0.0
H1270 H 0.19825 0.90047 0.33816 0.0
H1271 H 0.1901 0.96618 0.32369 0.0
H1272 H 0.21205 0.96132 0.38669 0.0
H1273 H 0.20135 0.93497 0.4038 0.0
H1274 H 0.14207 0.89929 0.37709 0.0
H1275 H 0.15223 0.9256 0.36007 0.0
C1276 C 0.23897 0.05575 0.37112 0.0
C1277 C 0.2294 0.06099 0.38235 0.0
C1278 C 0.22995 0.03518 0.36332 0.0
C1279 C 0.21108 0.01952 0.36644 0.0
C1280 C 0.20131 0.02483 0.37739 0.0
C1281 C 0.21037 0.04535 0.38527 0.0
C1282 C 0.20197 0.99745 0.35881 0.0
C1283 C 0.19677 0.98209 0.36816 0.0
C1284 C 0.19909 0.99157 0.34255 0.0
C1285 C 0.20296 0.00675 0.332 0.0
C1286 C 0.19352 0.0185 0.3329 0.0
C1287 C 0.1973 0.03286 0.323 0.0
C1288 C 0.2104 0.03551 0.31207 0.0
C1289 C 0.21971 0.02377 0.311 0.0
C1290 C 0.21599 0.0094 0.32089 0.0
C1291 C 0.15669 0.90053 0.32288 0.0
C1292 C 0.16924 0.89272 0.32633 0.0
C1293 C 0.16285 0.92123 0.32874 0.0
C1294 C 0.18144 0.93422 0.33835 0.0
C1295 C 0.19415 0.92656 0.34158 0.0
C1296 C 0.18818 0.90602 0.33549 0.0
C1297 C 0.18736 0.95558 0.34553 0.0
C1298 C 0.19199 0.9707 0.33612 0.0
C1299 C 0.18924 0.96117 0.3617 0.0
C1300 C 0.18301 0.94534 0.37199 0.0
C1301 C 0.19672 0.94789 0.3845 0.0
C1302 C 0.19073 0.93297 0.39419 0.0
C1303 C 0.17105 0.91547 0.39151 0.0
C1304 C 0.15732 0.91283 0.37913 0.0
C1305 C 0.16319 0.92773 0.36945 0.0
H1306 H 0.16638 0.904 0.39906 0.0
H1307 H 0.2133 0.04663 0.30441 0.0
H1308 H 0.48963 0.61613 0.3001 0.0
H1309 H 0.51342 0.65122 0.31476 0.0
H1310 H 0.56286 0.65052 0.2952 0.0
H1311 H 0.53934 0.61547 0.28074 0.0
H1312 H 0.57371 0.6669 0.32532 0.0
H1313 H 0.5412 0.67596 0.28101 0.0
H1314 H 0.51222 0.6706 0.26349 0.0
H1315 H 0.49391 0.69614 0.30092 0.0
H1316 H 0.52264 0.70139 0.31872 0.0
H1317 H 0.64816 0.77505 0.33725 0.0
H1318 H 0.62302 0.73861 0.32608 0.0
H1319 H 0.57687 0.74441 0.34719 0.0
H1320 H 0.6019 0.78099 0.35814 0.0
H1321 H 0.56329 0.72508 0.31783 0.0
H1322 H 0.59726 0.71796 0.36186 0.0
H1323 H 0.62673 0.72387 0.37907 0.0
H1324 H 0.6427 0.69509 0.34202 0.0
H1325 H 0.61347 0.68926 0.32452 0.0
C1326 C 0.50559 0.62339 0.29901 0.0
C1327 C 0.51256 0.61304 0.28917 0.0
C1328 C 0.51916 0.64348 0.30734 0.0
C1329 C 0.5399 0.65361 0.30592 0.0
C1330 C 0.54694 0.64304 0.29647 0.0
C1331 C 0.53342 0.623 0.28816 0.0
C1332 C 0.55428 0.67541 0.31391 0.0
C1333 C 0.57152 0.67965 0.32359 0.0
C1334 C 0.55121 0.692 0.31192 0.0
C1335 C 0.53392 0.68883 0.30123 0.0
C1336 C 0.53089 0.68026 0.28553 0.0
C1337 C 0.51453 0.67727 0.27555 0.0
C1338 C 0.50119 0.68296 0.2811 0.0
C1339 C 0.50423 0.6917 0.29665 0.0
C1340 C 0.52055 0.69469 0.30669 0.0
C1341 C 0.63266 0.76851 0.33953 0.0
C1342 C 0.62696 0.78078 0.34859 0.0
C1343 C 0.61833 0.74768 0.33321 0.0
C1344 C 0.5981 0.73869 0.33596 0.0
C1345 C 0.59239 0.75099 0.34495 0.0
C1346 C 0.60671 0.77185 0.35124 0.0
C1347 C 0.58281 0.7166 0.32916 0.0
C1348 C 0.5654 0.71231 0.31969 0.0
C1349 C 0.58575 0.69999 0.33132 0.0
C1350 C 0.60326 0.70333 0.34185 0.0
C1351 C 0.60714 0.71302 0.35735 0.0
C1352 C 0.62379 0.71634 0.36716 0.0
C1353 C 0.63661 0.70991 0.36163 0.0
C1354 C 0.63277 0.70008 0.34629 0.0
C1355 C 0.61614 0.69675 0.33642 0.0
H1356 H 0.64949 0.71249 0.36924 0.0
H1357 H 0.48854 0.68064 0.27335 0.0
H1358 H 0.33675 0.85711 0.23631 0.0
H1359 H 0.3069 0.85132 0.24801 0.0
H1360 H 0.33756 0.91694 0.26734 0.0
H1361 H 0.36764 0.9229 0.25574 0.0
H1362 H 0.31979 0.89117 0.28879 0.0
H1363 H 0.29843 0.89755 0.23752 0.0
H1364 H 0.2928 0.8888 0.20904 0.0
H1365 H 0.25335 0.82389 0.21127 0.0
H1366 H 0.25869 0.8323 0.23976 0.0
H1367 H 0.23582 0.88838 0.31812 0.0
H1368 H 0.26477 0.89669 0.30435 0.0
H1369 H 0.23155 0.83452 0.2772 0.0
H1370 H 0.20219 0.82658 0.29038 0.0
H1371 H 0.25108 0.85938 0.25929 0.0
H1372 H 0.27041 0.85096 0.3093 0.0
H1373 H 0.27646 0.85704 0.33778 0.0
H1374 H 0.32062 0.92174 0.33852 0.0
H1375 H 0.31464 0.9161 0.31004 0.0
C1376 C 0.33711 0.87038 0.24292 0.0
C1377 C 0.3546 0.89048 0.2451 0.0
C1378 C 0.31998 0.86704 0.24955 0.0
C1379 C 0.31996 0.88372 0.25846 0.0
C1380 C 0.33727 0.90386 0.26049 0.0
C1381 C 0.3544 0.90724 0.2538 0.0
C1382 C 0.30217 0.87993 0.26619 0.0
C1383 C 0.3048 0.88457 0.28236 0.0
C1384 C 0.28254 0.87057 0.25782 0.0
C1385 C 0.27899 0.86554 0.24073 0.0
C1386 C 0.28859 0.88141 0.23191 0.0
C1387 C 0.28543 0.87652 0.21578 0.0
C1388 C 0.27276 0.85579 0.20835 0.0
C1389 C 0.2632 0.83992 0.21704 0.0
C1390 C 0.26619 0.84476 0.23317 0.0
C1391 C 0.23472 0.87649 0.30923 0.0
C1392 C 0.21679 0.85678 0.30541 0.0
C1393 C 0.25132 0.88121 0.30139 0.0
C1394 C 0.2506 0.8661 0.28991 0.0
C1395 C 0.23257 0.84647 0.286 0.0
C1396 C 0.21581 0.84191 0.29359 0.0
C1397 C 0.26859 0.87069 0.28205 0.0
C1398 C 0.26602 0.86613 0.26582 0.0
C1399 C 0.28827 0.87971 0.29042 0.0
C1400 C 0.29192 0.88315 0.30755 0.0
C1401 C 0.2813 0.86652 0.31555 0.0
C1402 C 0.28473 0.86988 0.33168 0.0
C1403 C 0.29887 0.88978 0.33995 0.0
C1404 C 0.30965 0.90635 0.3321 0.0
C1405 C 0.30626 0.90307 0.31596 0.0
H1406 H 0.30151 0.89235 0.35245 0.0
H1407 H 0.27031 0.85204 0.19587 0.0
H1408 H 0.06412 0.42037 0.29941 0.0
H1409 H 0.08258 0.40381 0.30706 0.0
H1410 H 0.13899 0.46304 0.31328 0.0
H1411 H 0.12063 0.4798 0.30556 0.0
H1412 H 0.14173 0.42959 0.29864 0.0
H1413 H 0.11826 0.44698 0.34405 0.0
H1414 H 0.09295 0.44781 0.35932 0.0
H1415 H 0.05867 0.38073 0.35241 0.0
H1416 H 0.08364 0.37949 0.33691 0.0
H1417 H 0.19685 0.39724 0.34553 0.0
H1418 H 0.18175 0.41678 0.33678 0.0
H1419 H 0.12293 0.35998 0.32713 0.0
H1420 H 0.1379 0.34045 0.33561 0.0
H1421 H 0.12329 0.39428 0.34424 0.0
H1422 H 0.14541 0.37631 0.29842 0.0
H1423 H 0.17019 0.37457 0.28306 0.0
H1424 H 0.20638 0.44157 0.29032 0.0
H1425 H 0.18198 0.44375 0.30605 0.0
C1426 C 0.08047 0.42988 0.30229 0.0
C1427 C 0.0909 0.45144 0.30199 0.0
C1428 C 0.09098 0.42039 0.30669 0.0
C1429 C 0.11211 0.43227 0.3109 0.0
C1430 C 0.12268 0.45363 0.31009 0.0
C1431 C 0.11215 0.46318 0.30574 0.0
C1432 C 0.12295 0.42245 0.31677 0.0
C1433 C 0.13795 0.42216 0.30875 0.0
C1434 C 0.11773 0.41245 0.32981 0.0
C1435 C 0.10273 0.41315 0.3392 0.0
C1436 C 0.10525 0.4324 0.34568 0.0
C1437 C 0.09097 0.43294 0.3544 0.0
C1438 C 0.07418 0.41433 0.3568 0.0
C1439 C 0.07167 0.39514 0.35053 0.0
C1440 C 0.08589 0.3945 0.34179 0.0
C1441 C 0.18071 0.38901 0.34156 0.0
C1442 C 0.16851 0.36741 0.34123 0.0
C1443 C 0.17214 0.40012 0.33653 0.0
C1444 C 0.15126 0.38976 0.3313 0.0
C1445 C 0.13907 0.36823 0.33115 0.0
C1446 C 0.14764 0.35711 0.33595 0.0
C1447 C 0.14192 0.40126 0.32605 0.0
C1448 C 0.1272 0.40187 0.33421 0.0
C1449 C 0.14735 0.41143 0.31312 0.0
C1450 C 0.16199 0.4102 0.30359 0.0
C1451 C 0.15875 0.39069 0.29688 0.0
C1452 C 0.17271 0.38961 0.28807 0.0
C1453 C 0.18987 0.40793 0.28573 0.0
C1454 C 0.19309 0.42739 0.29217 0.0
C1455 C 0.1792 0.42856 0.30104 0.0
H1456 H 0.20064 0.40704 0.27889 0.0
H1457 H 0.06315 0.41479 0.36355 0.0
H1458 H 0.34861 0.49587 0.26146 0.0
H1459 H 0.31989 0.46906 0.27176 0.0
H1460 H 0.3604 0.45787 0.29912 0.0
H1461 H 0.38919 0.48435 0.28855 0.0
H1462 H 0.32739 0.42194 0.28671 0.0
H1463 H 0.34066 0.48659 0.3153 0.0
H1464 H 0.34636 0.52216 0.31911 0.0
H1465 H 0.28701 0.49853 0.29474 0.0
H1466 H 0.28105 0.46284 0.29059 0.0
H1467 H 0.25569 0.36648 0.33677 0.0
H1468 H 0.28556 0.39262 0.32687 0.0
H1469 H 0.24693 0.40078 0.29471 0.0
H1470 H 0.21709 0.37476 0.30445 0.0
H1471 H 0.27963 0.43838 0.31055 0.0
H1472 H 0.26702 0.37359 0.28178 0.0
H1473 H 0.26152 0.33812 0.27875 0.0
H1474 H 0.32018 0.36243 0.30464 0.0
H1475 H 0.32591 0.39804 0.30802 0.0
C1476 C 0.35143 0.48769 0.26965 0.0
C1477 C 0.37121 0.49233 0.27424 0.0
C1478 C 0.33499 0.47242 0.27559 0.0
C1479 C 0.338 0.46167 0.28643 0.0
C1480 C 0.35769 0.46599 0.29082 0.0
C1481 C 0.37415 0.48117 0.28479 0.0
C1482 C 0.32059 0.44594 0.29316 0.0
C1483 C 0.31714 0.42565 0.29213 0.0
C1484 C 0.30698 0.45062 0.30003 0.0
C1485 C 0.3105 0.47207 0.3025 0.0
C1486 C 0.32889 0.489 0.31064 0.0
C1487 C 0.33215 0.50918 0.31289 0.0
C1488 C 0.31708 0.51261 0.30714 0.0
C1489 C 0.29868 0.49585 0.29916 0.0
C1490 C 0.29535 0.47564 0.29688 0.0
C1491 C 0.25356 0.37382 0.32758 0.0
C1492 C 0.234 0.36846 0.32137 0.0
C1493 C 0.27063 0.38869 0.32191 0.0
C1494 C 0.26844 0.39855 0.31001 0.0
C1495 C 0.24896 0.39335 0.30389 0.0
C1496 C 0.2319 0.37838 0.30944 0.0
C1497 C 0.28642 0.41444 0.30398 0.0
C1498 C 0.28996 0.43475 0.30517 0.0
C1499 C 0.30017 0.40981 0.29737 0.0
C1500 C 0.2968 0.38844 0.29529 0.0
C1501 C 0.27868 0.37135 0.28694 0.0
C1502 C 0.27553 0.35123 0.28514 0.0
C1503 C 0.29047 0.34801 0.29154 0.0
C1504 C 0.30861 0.36494 0.29972 0.0
C1505 C 0.31182 0.3851 0.30156 0.0
H1506 H 0.288 0.33242 0.29013 0.0
H1507 H 0.31963 0.52824 0.30889 0.0
H1508 H 0.52271 0.90907 0.29889 0.0
H1509 H 0.54852 0.90268 0.30956 0.0
H1510 H 0.52619 0.8488 0.27369 0.0
H1511 H 0.4999 0.8547 0.26329 0.0
H1512 H 0.53298 0.83942 0.29984 0.0
H1513 H 0.57126 0.89648 0.27356 0.0
H1514 H 0.58425 0.93143 0.26673 0.0
H1515 H 0.61183 0.95999 0.31372 0.0
H1516 H 0.59877 0.9252 0.32087 0.0
H1517 H 0.61779 0.82718 0.31044 0.0
H1518 H 0.59287 0.83463 0.29955 0.0
H1519 H 0.60925 0.88217 0.33934 0.0
H1520 H 0.63428 0.87486 0.35038 0.0
H1521 H 0.60588 0.89485 0.31128 0.0
H1522 H 0.56714 0.83653 0.33693 0.0
H1523 H 0.55501 0.8012 0.34268 0.0
H1524 H 0.52899 0.77457 0.29519 0.0
H1525 H 0.54123 0.80979 0.28911 0.0
C1526 C 0.52335 0.89591 0.29324 0.0
C1527 C 0.50929 0.88241 0.28023 0.0
C1528 C 0.53819 0.89233 0.29931 0.0
C1529 C 0.53951 0.87542 0.29231 0.0
C1530 C 0.52549 0.86194 0.27929 0.0
C1531 C 0.51049 0.86536 0.27334 0.0
C1532 C 0.55518 0.87145 0.29875 0.0
C1533 C 0.54894 0.85149 0.30212 0.0
C1534 C 0.57601 0.88727 0.30204 0.0
C1535 C 0.58386 0.90822 0.29778 0.0
C1536 C 0.57996 0.91021 0.28246 0.0
C1537 C 0.58736 0.92999 0.27853 0.0
C1538 C 0.59881 0.94792 0.28979 0.0
C1539 C 0.60293 0.9461 0.30501 0.0
C1540 C 0.59555 0.92635 0.309 0.0
C1541 C 0.61613 0.83924 0.3169 0.0
C1542 C 0.62795 0.85036 0.33133 0.0
C1543 C 0.60184 0.84343 0.31066 0.0
C1544 C 0.59912 0.85882 0.31871 0.0
C1545 C 0.61113 0.87021 0.33298 0.0
C1546 C 0.62535 0.86594 0.33928 0.0
C1547 C 0.5836 0.8629 0.31228 0.0
C1548 C 0.58989 0.88285 0.30895 0.0
C1549 C 0.56286 0.84702 0.30886 0.0
C1550 C 0.55527 0.82581 0.31254 0.0
C1551 C 0.55896 0.82315 0.32769 0.0
C1552 C 0.55205 0.80314 0.33101 0.0
C1553 C 0.54129 0.78565 0.3193 0.0
C1554 C 0.53735 0.78813 0.30425 0.0
C1555 C 0.54426 0.80811 0.30086 0.0
H1556 H 0.53596 0.77017 0.32189 0.0
H1557 H 0.60453 0.96322 0.28672 0.0
H1558 H 0.07009 0.61643 0.27392 0.0
H1559 H 0.08471 0.65379 0.28278 0.0
H1560 H 0.1425 0.66079 0.29698 0.0
H1561 H 0.12793 0.62336 0.28834 0.0
H1562 H 0.13248 0.67975 0.31922 0.0
H1563 H 0.13511 0.67894 0.2651 0.0
H1564 H 0.12197 0.66759 0.23728 0.0
H1565 H 0.07943 0.68738 0.24369 0.0
H1566 H 0.09212 0.69859 0.2716 0.0
H1567 H 0.18689 0.79118 0.33466 0.0
H1568 H 0.1752 0.75482 0.32382 0.0
H1569 H 0.11557 0.74357 0.30974 0.0
H1570 H 0.12722 0.7799 0.32047 0.0
H1571 H 0.12823 0.72734 0.28695 0.0
H1572 H 0.12468 0.72654 0.34128 0.0
H1573 H 0.13801 0.73801 0.36907 0.0
H1574 H 0.18267 0.72131 0.36205 0.0
H1575 H 0.16977 0.71 0.33417 0.0
C1576 C 0.08595 0.62592 0.27881 0.0
C1577 C 0.09783 0.61689 0.28044 0.0
C1578 C 0.09431 0.64731 0.28381 0.0
C1579 C 0.11474 0.66012 0.29044 0.0
C1580 C 0.1267 0.6512 0.2919 0.0
C1581 C 0.11836 0.62981 0.28691 0.0
C1582 C 0.12335 0.68261 0.29648 0.0
C1583 C 0.13186 0.69024 0.31209 0.0
C1584 C 0.12214 0.69618 0.28726 0.0
C1585 C 0.11444 0.68942 0.27048 0.0
C1586 C 0.12283 0.68071 0.26061 0.0
C1587 C 0.11549 0.67433 0.24481 0.0
C1588 C 0.09984 0.67671 0.23873 0.0
C1589 C 0.09154 0.68552 0.24842 0.0
C1590 C 0.09881 0.69191 0.26423 0.0
C1591 C 0.17128 0.78091 0.3293 0.0
C1592 C 0.15793 0.78828 0.32842 0.0
C1593 C 0.16462 0.76017 0.32313 0.0
C1594 C 0.14447 0.74647 0.31607 0.0
C1595 C 0.13117 0.75389 0.31512 0.0
C1596 C 0.13782 0.7746 0.32129 0.0
C1597 C 0.1372 0.72438 0.30969 0.0
C1598 C 0.12894 0.71685 0.29403 0.0
C1599 C 0.13866 0.71089 0.31885 0.0
C1600 C 0.1464 0.71763 0.33561 0.0
C1601 C 0.13745 0.72547 0.34564 0.0
C1602 C 0.14491 0.73192 0.36141 0.0
C1603 C 0.16122 0.73044 0.36732 0.0
C1604 C 0.17006 0.72247 0.35746 0.0
C1605 C 0.16267 0.71603 0.34168 0.0
H1606 H 0.16697 0.73544 0.37953 0.0
H1607 H 0.09418 0.67177 0.2265 0.0
H1608 H 0.84013 0.05454 0.41231 0.0
H1609 H 0.81753 0.01731 0.40196 0.0
H1610 H 0.77132 0.02906 0.3854 0.0
H1611 H 0.79363 0.0662 0.39599 0.0
H1612 H 0.75492 0.99445 0.39739 0.0
H1613 H 0.80167 0.02281 0.36111 0.0
H1614 H 0.83536 0.0418 0.35271 0.0
H1615 H 0.84945 0.99791 0.36761 0.0
H1616 H 0.81593 0.9788 0.37628 0.0
H1617 H 0.69184 0.89942 0.34592 0.0
H1618 H 0.71457 0.93645 0.35676 0.0
H1619 H 0.76222 0.92462 0.36905 0.0
H1620 H 0.73989 0.88786 0.35688 0.0
H1621 H 0.77818 0.95939 0.35999 0.0
H1622 H 0.72798 0.92918 0.39445 0.0
H1623 H 0.69292 0.91054 0.40045 0.0
H1624 H 0.68428 0.95896 0.38797 0.0
H1625 H 0.71893 0.97752 0.38123 0.0
C1626 C 0.8251 0.04918 0.40656 0.0
C1627 C 0.81874 0.06337 0.40486 0.0
C1628 C 0.81224 0.0279 0.40059 0.0
C1629 C 0.79286 0.02045 0.39266 0.0
C1630 C 0.78623 0.03447 0.39142 0.0
C1631 C 0.79904 0.05572 0.39746 0.0
C1632 C 0.77961 0.99813 0.38536 0.0
C1633 C 0.75992 0.98678 0.38913 0.0
C1634 C 0.78624 0.98809 0.37473 0.0
C1635 C 0.80638 0.99952 0.36949 0.0
C1636 C 0.81202 0.01731 0.3627 0.0
C1637 C 0.83107 0.02807 0.35788 0.0
C1638 C 0.84456 0.0211 0.35967 0.0
C1639 C 0.839 0.00331 0.36625 0.0
C1640 C 0.81998 0.9925 0.37112 0.0
C1641 C 0.70725 0.90485 0.35084 0.0
C1642 C 0.71421 0.89095 0.35067 0.0
C1643 C 0.72018 0.92596 0.35718 0.0
C1644 C 0.73997 0.93332 0.36424 0.0
C1645 C 0.747 0.91938 0.36379 0.0
C1646 C 0.73428 0.8984 0.35688 0.0
C1647 C 0.75337 0.95548 0.37205 0.0
C1648 C 0.77314 0.96688 0.36837 0.0
C1649 C 0.74669 0.96561 0.38266 0.0
C1650 C 0.72606 0.95469 0.38724 0.0
C1651 C 0.7186 0.93584 0.39293 0.0
C1652 C 0.69879 0.92526 0.39645 0.0
C1653 C 0.68645 0.93359 0.39468 0.0
C1654 C 0.69386 0.95252 0.38935 0.0
C1655 C 0.71356 0.96304 0.38562 0.0
H1656 H 0.67113 0.92536 0.39743 0.0
H1657 H 0.8593 0.02946 0.35592 0.0
H1658 H 0.98294 0.82907 0.40584 0.0
H1659 H 0.01432 0.83605 0.39589 0.0
H1660 H 0.99499 0.77092 0.39215 0.0
H1661 H 0.96332 0.76368 0.40169 0.0
H1662 H 0.03906 0.80366 0.40606 0.0
H1663 H 0.98742 0.78085 0.36153 0.0
H1664 H 0.96071 0.78259 0.34624 0.0
H1665 H 0.00318 0.84668 0.34356 0.0
H1666 H 0.03007 0.84539 0.35905 0.0
H1667 H 0.08899 0.8008 0.33238 0.0
H1668 H 0.05989 0.79445 0.3454 0.0
H1669 H 0.09967 0.84478 0.38276 0.0
H1670 H 0.12892 0.85103 0.36998 0.0
H1671 H 0.04548 0.8194 0.35283 0.0
H1672 H 0.07864 0.83337 0.41628 0.0
H1673 H 0.10571 0.8321 0.43145 0.0
H1674 H 0.10045 0.7848 0.3959 0.0
H1675 H 0.0731 0.78552 0.38061 0.0
C1676 C 0.98545 0.81627 0.40302 0.0
C1677 C 0.97064 0.79581 0.40445 0.0
C1678 C 0.00337 0.82029 0.39737 0.0
C1679 C 0.00691 0.80399 0.39335 0.0
C1680 C 0.99251 0.7837 0.39528 0.0
C1681 C 0.97441 0.77958 0.40063 0.0
C1682 C 0.02496 0.80785 0.38609 0.0
C1683 C 0.04056 0.80715 0.39444 0.0
C1684 C 0.02678 0.81234 0.37095 0.0
C1685 C 0.01067 0.8131 0.36159 0.0
C1686 C 0.991 0.79537 0.35781 0.0
C1687 C 0.97585 0.79626 0.34908 0.0
C1688 C 0.98023 0.81476 0.34397 0.0
C1689 C 0.9998 0.83238 0.34755 0.0
C1690 C 0.015 0.83158 0.35629 0.0
C1691 C 0.09159 0.81047 0.3434 0.0
C1692 C 0.11129 0.82639 0.35014 0.0
C1693 C 0.07492 0.80686 0.3508 0.0
C1694 C 0.07761 0.81903 0.3651 0.0
C1695 C 0.09726 0.83499 0.37185 0.0
C1696 C 0.11396 0.83858 0.36448 0.0
C1697 C 0.05973 0.81515 0.37273 0.0
C1698 C 0.04413 0.81596 0.36447 0.0
C1699 C 0.05798 0.81077 0.38795 0.0
C1700 C 0.07394 0.80965 0.39725 0.0
C1701 C 0.08317 0.82261 0.41174 0.0
C1702 C 0.09859 0.822 0.42036 0.0
C1703 C 0.10485 0.80843 0.41463 0.0
C1704 C 0.09563 0.79535 0.4003 0.0
C1705 C 0.08017 0.79585 0.39166 0.0
H1706 H 0.1168 0.808 0.4213 0.0
H1707 H 0.96848 0.81541 0.33721 0.0
H1708 H 0.25851 0.19592 0.38974 0.0
H1709 H 0.25065 0.22003 0.37923 0.0
H1710 H 0.18691 0.17304 0.37234 0.0
H1711 H 0.19458 0.1489 0.38298 0.0
H1712 H 0.20104 0.1924 0.34634 0.0
H1713 H 0.20367 0.2113 0.40108 0.0
H1714 H 0.21933 0.22241 0.42837 0.0
H1715 H 0.26861 0.27884 0.41765 0.0
H1716 H 0.25338 0.26791 0.39023 0.0
H1717 H 0.15689 0.25094 0.33031 0.0
H1718 H 0.16687 0.22866 0.34119 0.0
H1719 H 0.22806 0.28133 0.35429 0.0
H1720 H 0.2179 0.30387 0.34378 0.0
H1721 H 0.21696 0.25986 0.37685 0.0
H1722 H 0.21505 0.24239 0.32266 0.0
H1723 H 0.20056 0.23188 0.29511 0.0
H1724 H 0.15197 0.17368 0.30409 0.0
H1725 H 0.16602 0.18395 0.33175 0.0
C1726 C 0.24281 0.19073 0.38603 0.0
C1727 C 0.22715 0.17051 0.3872 0.0
C1728 C 0.23836 0.20455 0.38007 0.0
C1729 C 0.21821 0.19831 0.37507 0.0
C1730 C 0.20256 0.17812 0.37615 0.0
C1731 C 0.20697 0.16439 0.38228 0.0
C1732 C 0.21342 0.21271 0.36847 0.0
C1733 C 0.20429 0.20705 0.35304 0.0
C1734 C 0.21831 0.2321 0.37709 0.0
C1735 C 0.2275 0.23867 0.39357 0.0
C1736 C 0.21795 0.22598 0.40451 0.0
C1737 C 0.22673 0.23227 0.42001 0.0
C1738 C 0.24499 0.25129 0.42473 0.0
C1739 C 0.25449 0.26409 0.41397 0.0
C1740 C 0.24578 0.25786 0.39845 0.0
C1741 C 0.17249 0.25774 0.33545 0.0
C1742 C 0.18667 0.27906 0.33614 0.0
C1743 C 0.1782 0.24498 0.34161 0.0
C1744 C 0.19831 0.25322 0.34832 0.0
C1745 C 0.21249 0.27461 0.34912 0.0
C1746 C 0.2067 0.28744 0.34308 0.0
C1747 C 0.20438 0.23951 0.35469 0.0
C1748 C 0.21378 0.24528 0.37008 0.0
C1749 C 0.19996 0.22031 0.34596 0.0
C1750 C 0.1915 0.21403 0.32931 0.0
C1751 C 0.20119 0.22741 0.31879 0.0
C1752 C 0.19307 0.22149 0.30314 0.0
C1753 C 0.17533 0.20215 0.29786 0.0
C1754 C 0.1657 0.18866 0.3082 0.0
C1755 C 0.17375 0.19452 0.32386 0.0
H1756 H 0.16907 0.19759 0.28574 0.0
H1757 H 0.25176 0.25614 0.43674 0.0
H1758 H 0.64103 0.5257 0.73571 0.0
H1759 H 0.67641 0.54287 0.73079 0.0
H1760 H 0.66903 0.58806 0.71021 0.0
H1761 H 0.63393 0.57139 0.71538 0.0
H1762 H 0.684 0.56317 0.69181 0.0
H1763 H 0.69476 0.60583 0.7417 0.0
H1764 H 0.69298 0.6109 0.76961 0.0
H1765 H 0.72853 0.58319 0.77768 0.0
H1766 H 0.73025 0.57765 0.74976 0.0
H1767 H 0.77532 0.64069 0.67537 0.0
H1768 H 0.74335 0.62093 0.68514 0.0
H1769 H 0.7707 0.59886 0.71603 0.0
H1770 H 0.80336 0.6196 0.70666 0.0
H1771 H 0.74609 0.60702 0.7302 0.0
H1772 H 0.73887 0.5669 0.68207 0.0
H1773 H 0.74078 0.55969 0.65437 0.0
H1774 H 0.6984 0.57841 0.64292 0.0
H1775 H 0.69646 0.58603 0.67056 0.0
C1776 C 0.64704 0.53944 0.7303 0.0
C1777 C 0.63471 0.54718 0.72589 0.0
C1778 C 0.66722 0.54923 0.72755 0.0
C1779 C 0.67521 0.56667 0.72016 0.0
C1780 C 0.66306 0.57461 0.71596 0.0
C1781 C 0.64305 0.56509 0.71895 0.0
C1782 C 0.69582 0.57597 0.71583 0.0
C1783 C 0.69761 0.57288 0.70015 0.0
C1784 C 0.71347 0.58774 0.72686 0.0
C1785 C 0.71238 0.59106 0.74362 0.0
C1786 C 0.70199 0.60059 0.7494 0.0
C1787 C 0.70104 0.6036 0.76523 0.0
C1788 C 0.71056 0.5973 0.77541 0.0
C1789 C 0.72111 0.58802 0.76978 0.0
C1790 C 0.72208 0.58494 0.75396 0.0
C1791 C 0.77458 0.63159 0.68421 0.0
C1792 C 0.79175 0.6314 0.69009 0.0
C1793 C 0.75623 0.62022 0.68976 0.0
C1794 C 0.75441 0.60787 0.70099 0.0
C1795 C 0.77169 0.6081 0.70724 0.0
C1796 C 0.79029 0.61989 0.70187 0.0
C1797 C 0.73434 0.5949 0.70602 0.0
C1798 C 0.73257 0.59711 0.72182 0.0
C1799 C 0.71664 0.58187 0.69511 0.0
C1800 C 0.71761 0.57714 0.67842 0.0
C1801 C 0.73004 0.56959 0.67366 0.0
C1802 C 0.73112 0.56542 0.65796 0.0
C1803 C 0.71974 0.56861 0.64689 0.0
C1804 C 0.70721 0.57594 0.6515 0.0
C1805 C 0.70609 0.58016 0.66719 0.0
H1806 H 0.7206 0.56538 0.63475 0.0
H1807 H 0.70983 0.59966 0.78766 0.0
H1808 H 0.45722 0.06216 0.74281 0.0
H1809 H 0.43299 0.07129 0.73333 0.0
H1810 H 0.46513 0.12981 0.76524 0.0
H1811 H 0.48933 0.12063 0.77502 0.0
H1812 H 0.42414 0.11256 0.76303 0.0
H1813 H 0.47336 0.12846 0.72817 0.0
H1814 H 0.49381 0.12121 0.71095 0.0
H1815 H 0.43949 0.07256 0.68189 0.0
H1816 H 0.41871 0.07932 0.69907 0.0
H1817 H 0.38319 0.16355 0.72441 0.0
H1818 H 0.40546 0.15376 0.73675 0.0
H1819 H 0.37808 0.09693 0.70309 0.0
H1820 H 0.35631 0.10704 0.69033 0.0
H1821 H 0.41708 0.11402 0.70688 0.0
H1822 H 0.36768 0.09889 0.74187 0.0
H1823 H 0.34779 0.10732 0.75893 0.0
H1824 H 0.40263 0.15544 0.7877 0.0
H1825 H 0.4229 0.14751 0.77069 0.0
C1826 C 0.45907 0.0769 0.74794 0.0
C1827 C 0.47537 0.09078 0.75956 0.0
C1828 C 0.44521 0.08211 0.74247 0.0
C1829 C 0.44746 0.1014 0.74839 0.0
C1830 C 0.46316 0.11489 0.76047 0.0
C1831 C 0.47702 0.10964 0.766 0.0
C1832 C 0.43404 0.10785 0.74139 0.0
C1833 C 0.42272 0.11309 0.75078 0.0
C1834 C 0.43201 0.1083 0.72538 0.0
C1835 C 0.44448 0.10426 0.71499 0.0
C1836 C 0.46578 0.11611 0.71818 0.0
C1837 C 0.47743 0.1121 0.70841 0.0
C1838 C 0.46795 0.0964 0.69536 0.0
C1839 C 0.44681 0.0847 0.69202 0.0
C1840 C 0.43509 0.08862 0.70176 0.0
C1841 C 0.38187 0.14892 0.71966 0.0
C1842 C 0.36798 0.13605 0.70639 0.0
C1843 C 0.39453 0.14328 0.72679 0.0
C1844 C 0.39325 0.12442 0.72103 0.0
C1845 C 0.37935 0.11154 0.70778 0.0
C1846 C 0.36689 0.11733 0.7005 0.0
C1847 C 0.40683 0.11839 0.72843 0.0
C1848 C 0.41833 0.11337 0.71912 0.0
C1849 C 0.40901 0.11821 0.74451 0.0
C1850 C 0.39682 0.1227 0.75493 0.0
C1851 C 0.37551 0.11134 0.75179 0.0
C1852 C 0.36417 0.11602 0.76145 0.0
C1853 C 0.37395 0.13191 0.77438 0.0
C1854 C 0.39509 0.14313 0.77768 0.0
C1855 C 0.40651 0.13853 0.76805 0.0
H1856 H 0.36515 0.13549 0.78185 0.0
H1857 H 0.477 0.09332 0.68781 0.0
H1858 H 0.87065 0.39384 0.70907 0.0
H1859 H 0.858 0.35746 0.69794 0.0
H1860 H 0.91889 0.36925 0.70445 0.0
H1861 H 0.93173 0.4058 0.71524 0.0
H1862 H 0.89922 0.34438 0.67769 0.0
H1863 H 0.88537 0.34583 0.72996 0.0
H1864 H 0.87182 0.35418 0.75253 0.0
H1865 H 0.81148 0.31756 0.72757 0.0
H1866 H 0.82472 0.30922 0.70476 0.0
H1867 H 0.87211 0.2382 0.67255 0.0
H1868 H 0.88535 0.27519 0.68246 0.0
H1869 H 0.82539 0.26502 0.67256 0.0
H1870 H 0.81206 0.22802 0.66271 0.0
H1871 H 0.84485 0.28896 0.70107 0.0
H1872 H 0.85957 0.28738 0.64873 0.0
H1873 H 0.87383 0.27869 0.62678 0.0
H1874 H 0.93354 0.31531 0.65279 0.0
H1875 H 0.91959 0.32397 0.67499 0.0
C1876 C 0.88139 0.38876 0.70801 0.0
C1877 C 0.90218 0.40269 0.71316 0.0
C1878 C 0.87411 0.36791 0.70171 0.0
C1879 C 0.88744 0.3605 0.70065 0.0
C1880 C 0.90831 0.37458 0.70521 0.0
C1881 C 0.91562 0.39548 0.7114 0.0
C1882 C 0.87957 0.33798 0.69521 0.0
C1883 C 0.8875 0.33228 0.68293 0.0
C1884 C 0.86408 0.32214 0.70189 0.0
C1885 C 0.85606 0.32707 0.7156 0.0
C1886 C 0.86923 0.33969 0.72924 0.0
C1887 C 0.8616 0.3444 0.74208 0.0
C1888 C 0.84081 0.33646 0.74147 0.0
C1889 C 0.82759 0.32373 0.72802 0.0
C1890 C 0.83514 0.31899 0.71514 0.0
C1891 C 0.86176 0.24386 0.67254 0.0
C1892 C 0.84109 0.23032 0.66679 0.0
C1893 C 0.86935 0.26499 0.67815 0.0
C1894 C 0.85639 0.27289 0.67807 0.0
C1895 C 0.83565 0.25925 0.67268 0.0
C1896 C 0.82807 0.23815 0.66703 0.0
C1897 C 0.86443 0.2954 0.68353 0.0
C1898 C 0.85655 0.30108 0.69583 0.0
C1899 C 0.88007 0.3112 0.67695 0.0
C1900 C 0.88851 0.30616 0.66357 0.0
C1901 C 0.87572 0.29345 0.64981 0.0
C1902 C 0.88375 0.28855 0.63732 0.0
C1903 C 0.90457 0.2964 0.6384 0.0
C1904 C 0.91741 0.30922 0.65197 0.0
C1905 C 0.90945 0.31414 0.66451 0.0
H1906 H 0.91075 0.29258 0.62872 0.0
H1907 H 0.83493 0.34012 0.75142 0.0
H1908 H 0.19446 0.93726 0.62044 0.0
H1909 H 0.21731 0.97228 0.6352 0.0
H1910 H 0.16619 0.97848 0.64367 0.0
H1911 H 0.14309 0.94334 0.62876 0.0
H1912 H 0.19671 0.01313 0.63413 0.0
H1913 H 0.1908 0.97093 0.6724 0.0
H1914 H 0.1913 0.94234 0.68294 0.0
H1915 H 0.25393 0.96885 0.67713 0.0
H1916 H 0.25374 0.99746 0.66635 0.0
H1917 H 0.25775 0.10762 0.68901 0.0
H1918 H 0.23137 0.07167 0.67736 0.0
H1919 H 0.2775 0.05853 0.66566 0.0
H1920 H 0.30384 0.09433 0.67723 0.0
H1921 H 0.2475 0.02725 0.67834 0.0
H1922 H 0.25345 0.06782 0.63885 0.0
H1923 H 0.25396 0.09673 0.62808 0.0
H1924 H 0.19221 0.07336 0.63543 0.0
H1925 H 0.19149 0.04457 0.6466 0.0
C1926 C 0.18801 0.94597 0.62552 0.0
C1927 C 0.16693 0.93748 0.62344 0.0
C1928 C 0.20111 0.96599 0.634 0.0
C1929 C 0.19344 0.97792 0.64063 0.0
C1930 C 0.17241 0.9695 0.63865 0.0
C1931 C 0.15924 0.9494 0.6302 0.0
C1932 C 0.20754 0.99938 0.64929 0.0
C1933 C 0.20755 0.01621 0.64399 0.0
C1934 C 0.22201 0.0034 0.66191 0.0
C1935 C 0.2222 0.98626 0.66845 0.0
C1936 C 0.20464 0.97058 0.67326 0.0
C1937 C 0.20488 0.95439 0.67929 0.0
C1938 C 0.22263 0.95375 0.68067 0.0
C1939 C 0.24019 0.96935 0.67604 0.0
C1940 C 0.24003 0.98558 0.66999 0.0
C1941 C 0.26221 0.097 0.684 0.0
C1942 C 0.28278 0.10369 0.684 0.0
C1943 C 0.24717 0.07653 0.67733 0.0
C1944 C 0.25252 0.06249 0.67061 0.0
C1945 C 0.27308 0.06911 0.67082 0.0
C1946 C 0.28808 0.08957 0.67738 0.0
C1947 C 0.23675 0.04096 0.66311 0.0
C1948 C 0.23647 0.02414 0.6686 0.0
C1949 C 0.22216 0.03698 0.6506 0.0
C1950 C 0.22249 0.05417 0.64374 0.0
C1951 C 0.24004 0.06896 0.63832 0.0
C1952 C 0.24037 0.08533 0.63214 0.0
C1953 C 0.22316 0.08695 0.63114 0.0
C1954 C 0.20556 0.07215 0.63627 0.0
C1955 C 0.20518 0.0558 0.64254 0.0
H1956 H 0.22344 0.09962 0.62633 0.0
H1957 H 0.22278 0.9412 0.68534 0.0
H1958 H 0.00915 0.1843 0.57854 0.0
H1959 H 0.97887 0.17933 0.58911 0.0
H1960 H 0.00017 0.24472 0.5909 0.0
H1961 H 0.03045 0.24979 0.58011 0.0
H1962 H 0.97659 0.1956 0.6165 0.0
H1963 H 0.96138 0.25178 0.58755 0.0
H1964 H 0.96343 0.26417 0.56263 0.0
H1965 H 0.95597 0.20693 0.53926 0.0
H1966 H 0.95388 0.19424 0.56403 0.0
H1967 H 0.90952 0.2127 0.65789 0.0
H1968 H 0.9382 0.21942 0.64414 0.0
H1969 H 0.89697 0.18229 0.60231 0.0
H1970 H 0.86826 0.17572 0.61588 0.0
H1971 H 0.92974 0.21656 0.59607 0.0
H1972 H 0.91653 0.16145 0.62443 0.0
H1973 H 0.91131 0.14494 0.64762 0.0
H1974 H 0.97127 0.19295 0.66921 0.0
H1975 H 0.97673 0.20992 0.64622 0.0
C1976 C 0.00732 0.19761 0.58101 0.0
C1977 C 0.02229 0.21747 0.57852 0.0
C1978 C 0.99 0.19474 0.58709 0.0
C1979 C 0.98719 0.21162 0.59078 0.0
C1980 C 0.00185 0.23139 0.58796 0.0
C1981 C 0.01921 0.23428 0.58185 0.0
C1982 C 0.96951 0.20871 0.59839 0.0
C1983 C 0.96637 0.20021 0.61202 0.0
C1984 C 0.95601 0.21448 0.5925 0.0
C1985 C 0.95766 0.22217 0.57764 0.0
C1986 C 0.96025 0.24189 0.57709 0.0
C1987 C 0.96144 0.24897 0.563 0.0
C1988 C 0.95991 0.23638 0.54938 0.0
C1989 C 0.95725 0.21671 0.54982 0.0
C1990 C 0.95615 0.2096 0.56389 0.0
C1991 C 0.90654 0.20607 0.64575 0.0
C1992 C 0.88655 0.19349 0.63805 0.0
C1993 C 0.92296 0.20991 0.6379 0.0
C1994 C 0.91972 0.20115 0.62224 0.0
C1995 C 0.89984 0.18919 0.6144 0.0
C1996 C 0.88342 0.18535 0.62222 0.0
C1997 C 0.93695 0.20359 0.61421 0.0
C1998 C 0.94003 0.21205 0.60056 0.0
C1999 C 0.95014 0.19731 0.61988 0.0
C2000 C 0.94696 0.18706 0.63367 0.0
C2001 C 0.92855 0.16856 0.63417 0.0
C2002 C 0.92555 0.15911 0.64727 0.0
C2003 C 0.94093 0.16792 0.6599 0.0
C2004 C 0.95936 0.18616 0.65943 0.0
C2005 C 0.96242 0.19569 0.64636 0.0
H2006 H 0.93858 0.16058 0.67003 0.0
H2007 H 0.96071 0.24183 0.53847 0.0
H2008 H 0.72721 0.75847 0.63511 0.0
H2009 H 0.74768 0.74403 0.64277 0.0
H2010 H 0.80086 0.80606 0.65339 0.0
H2011 H 0.7805 0.82069 0.64556 0.0
H2012 H 0.80879 0.77751 0.63807 0.0
H2013 H 0.77756 0.78322 0.6822 0.0
H2014 H 0.74929 0.77838 0.69625 0.0
H2015 H 0.72061 0.71175 0.684 0.0
H2016 H 0.74858 0.71619 0.66969 0.0
H2017 H 0.8645 0.7425 0.68163 0.0
H2018 H 0.84852 0.76183 0.67423 0.0
H2019 H 0.79145 0.70368 0.66005 0.0
H2020 H 0.80722 0.68443 0.66731 0.0
H2021 H 0.78798 0.73344 0.67882 0.0
H2022 H 0.81776 0.72751 0.6335 0.0
H2023 H 0.84586 0.73179 0.61943 0.0
H2024 H 0.87715 0.79835 0.63393 0.0
H2025 H 0.84935 0.79442 0.6483 0.0
C2026 C 0.74327 0.76907 0.63902 0.0
C2027 C 0.7522 0.79075 0.63983 0.0
C2028 C 0.75494 0.76079 0.64343 0.0
C2029 C 0.77573 0.77401 0.64885 0.0
C2030 C 0.78483 0.79561 0.64928 0.0
C2031 C 0.77315 0.80393 0.64486 0.0
C2032 C 0.78773 0.7652 0.65438 0.0
C2033 C 0.80447 0.76817 0.64716 0.0
C2034 C 0.7819 0.75278 0.66609 0.0
C2035 C 0.7651 0.75005 0.67477 0.0
C2036 C 0.76515 0.76753 0.68241 0.0
C2037 C 0.74919 0.76487 0.69044 0.0
C2038 C 0.73314 0.74477 0.69099 0.0
C2039 C 0.73304 0.72731 0.68355 0.0
C2040 C 0.74896 0.72989 0.67549 0.0
C2041 C 0.84857 0.73392 0.6769 0.0
C2042 C 0.83708 0.71202 0.67504 0.0
C2043 C 0.8395 0.74493 0.67265 0.0
C2044 C 0.81882 0.73414 0.66659 0.0
C2045 C 0.8074 0.71228 0.66475 0.0
C2046 C 0.81646 0.70131 0.66885 0.0
C2047 C 0.80879 0.74544 0.66233 0.0
C2048 C 0.79243 0.74296 0.66983 0.0
C2049 C 0.81496 0.75825 0.65088 0.0
C2050 C 0.83159 0.76066 0.64213 0.0
C2051 C 0.83072 0.74305 0.6338 0.0
C2052 C 0.84657 0.74541 0.62575 0.0
C2053 C 0.86331 0.76533 0.62583 0.0
C2054 C 0.86419 0.78293 0.63391 0.0
C2055 C 0.84839 0.78064 0.642 0.0
H2056 H 0.87558 0.76713 0.61959 0.0
H2057 H 0.7208 0.74274 0.69721 0.0
H2058 H 0.01433 0.83619 0.59298 0.0
H2059 H 0.9864 0.80923 0.6038 0.0
H2060 H 0.02903 0.80351 0.63359 0.0
H2061 H 0.05706 0.83009 0.62244 0.0
H2062 H 0.99766 0.76622 0.62249 0.0
H2063 H 0.00602 0.83046 0.64717 0.0
H2064 H 0.00925 0.86489 0.64889 0.0
H2065 H 0.94975 0.83616 0.62315 0.0
H2066 H 0.94627 0.80158 0.62108 0.0
H2067 H 0.92465 0.71194 0.67269 0.0
H2068 H 0.95448 0.73793 0.66263 0.0
H2069 H 0.91551 0.74006 0.62669 0.0
H2070 H 0.88574 0.71413 0.63651 0.0
H2071 H 0.94605 0.77958 0.64246 0.0
H2072 H 0.93877 0.71519 0.61756 0.0
H2073 H 0.9359 0.68104 0.61694 0.0
H2074 H 0.99417 0.71085 0.64483 0.0
H2075 H 0.99727 0.74517 0.6458 0.0
C2076 C 0.01778 0.82919 0.60182 0.0
C2077 C 0.03794 0.83538 0.60692 0.0
C2078 C 0.00179 0.81383 0.60806 0.0
C2079 C 0.0056 0.80459 0.61973 0.0
C2080 C 0.02569 0.81045 0.62464 0.0
C2081 C 0.04171 0.82568 0.61828 0.0
C2082 C 0.9886 0.78883 0.62679 0.0
C2083 C 0.98657 0.76929 0.62707 0.0
C2084 C 0.97393 0.79267 0.63263 0.0
C2085 C 0.97597 0.81345 0.63385 0.0
C2086 C 0.99369 0.8315 0.64177 0.0
C2087 C 0.99555 0.85104 0.64283 0.0
C2088 C 0.97974 0.85272 0.6361 0.0
C2089 C 0.962 0.83484 0.62834 0.0
C2090 C 0.96007 0.81527 0.62723 0.0
C2091 C 0.92244 0.71787 0.66261 0.0
C2092 C 0.9028 0.71094 0.65542 0.0
C2093 C 0.93949 0.73268 0.65686 0.0
C2094 C 0.93717 0.74087 0.6439 0.0
C2095 C 0.91762 0.73395 0.63671 0.0
C2096 C 0.90061 0.71904 0.64233 0.0
C2097 C 0.95506 0.75702 0.63796 0.0
C2098 C 0.95725 0.77662 0.63794 0.0
C2099 C 0.96995 0.75331 0.63253 0.0
C2100 C 0.96815 0.73271 0.63189 0.0
C2101 C 0.95089 0.71444 0.62367 0.0
C2102 C 0.94924 0.69506 0.62323 0.0
C2103 C 0.96481 0.69377 0.63088 0.0
C2104 C 0.9821 0.71187 0.63894 0.0
C2105 C 0.98382 0.73129 0.63943 0.0
H2106 H 0.96351 0.67875 0.63052 0.0
H2107 H 0.98121 0.86786 0.63694 0.0
H2108 H 0.20123 0.24879 0.63023 0.0
H2109 H 0.22555 0.23995 0.64011 0.0
H2110 H 0.19698 0.18374 0.60575 0.0
H2111 H 0.17225 0.19221 0.59608 0.0
H2112 H 0.20347 0.17507 0.6325 0.0
H2113 H 0.24401 0.22748 0.60333 0.0
H2114 H 0.25971 0.26179 0.59501 0.0
H2115 H 0.29128 0.2921 0.64089 0.0
H2116 H 0.27554 0.25799 0.64956 0.0
H2117 H 0.28022 0.15114 0.64486 0.0
H2118 H 0.25822 0.16149 0.63278 0.0
H2119 H 0.28108 0.21417 0.66977 0.0
H2120 H 0.30323 0.20402 0.68193 0.0
H2121 H 0.27795 0.22445 0.64103 0.0
H2122 H 0.23653 0.17125 0.66989 0.0
H2123 H 0.22136 0.13653 0.67751 0.0
H2124 H 0.19164 0.10727 0.63105 0.0
H2125 H 0.20699 0.1418 0.62307 0.0
C2126 C 0.2002 0.23462 0.62469 0.0
C2127 C 0.18479 0.22121 0.61236 0.0
C2128 C 0.21419 0.22963 0.63031 0.0
C2129 C 0.21327 0.21128 0.62357 0.0
C2130 C 0.19801 0.19798 0.61115 0.0
C2131 C 0.18391 0.20287 0.60561 0.0
C2132 C 0.22768 0.20554 0.62985 0.0
C2133 C 0.21977 0.18577 0.63412 0.0
C2134 C 0.24896 0.21963 0.63229 0.0
C2135 C 0.25843 0.24018 0.62713 0.0
C2136 C 0.25416 0.24147 0.61168 0.0
C2137 C 0.26309 0.26089 0.60689 0.0
C2138 C 0.27644 0.27912 0.61742 0.0
C2139 C 0.28092 0.27797 0.63275 0.0
C2140 C 0.27201 0.2586 0.63761 0.0
C2141 C 0.28066 0.16499 0.65041 0.0
C2142 C 0.29336 0.17666 0.66443 0.0
C2143 C 0.26803 0.17084 0.6435 0.0
C2144 C 0.26787 0.18847 0.65047 0.0
C2145 C 0.28094 0.20048 0.66424 0.0
C2146 C 0.29349 0.19458 0.67121 0.0
C2147 C 0.25369 0.19406 0.64362 0.0
C2148 C 0.26165 0.21378 0.63931 0.0
C2149 C 0.23246 0.17989 0.64103 0.0
C2150 C 0.22308 0.15911 0.64585 0.0
C2151 C 0.2269 0.1574 0.66126 0.0
C2152 C 0.21827 0.13776 0.66565 0.0
C2153 C 0.2056 0.1197 0.65477 0.0
C2154 C 0.20149 0.12126 0.63947 0.0
C2155 C 0.21016 0.14087 0.63501 0.0
H2156 H 0.19892 0.10451 0.65819 0.0
H2157 H 0.28334 0.29413 0.61369 0.0
H2158 H 0.7346 0.94896 0.60422 0.0
H2159 H 0.7498 0.98668 0.61157 0.0
H2160 H 0.80875 0.99432 0.62127 0.0
H2161 H 0.79364 0.95658 0.61415 0.0
H2162 H 0.80133 0.0143 0.64467 0.0
H2163 H 0.79657 0.01015 0.58985 0.0
H2164 H 0.77964 0.99699 0.56288 0.0
H2165 H 0.73876 0.01795 0.57311 0.0
H2166 H 0.75523 0.03093 0.60022 0.0
H2167 H 0.85656 0.12488 0.65823 0.0
H2168 H 0.84373 0.08862 0.64638 0.0
H2169 H 0.78348 0.0781 0.63759 0.0
H2170 H 0.79627 0.11439 0.6494 0.0
H2171 H 0.79267 0.06008 0.61296 0.0
H2172 H 0.79595 0.06208 0.6679 0.0
H2173 H 0.81241 0.07487 0.69501 0.0
H2174 H 0.85582 0.05756 0.68443 0.0
H2175 H 0.83978 0.04493 0.65719 0.0
C2176 C 0.75083 0.95867 0.60777 0.0
C2177 C 0.76289 0.94974 0.6087 0.0
C2178 C 0.75952 0.98026 0.6119 0.0
C2179 C 0.78043 0.99333 0.61691 0.0
C2180 C 0.79257 0.98451 0.61746 0.0
C2181 C 0.78391 0.96294 0.61335 0.0
C2182 C 0.78943 0.01601 0.62249 0.0
C2183 C 0.79975 0.02438 0.63763 0.0
C2184 C 0.7869 0.02903 0.61344 0.0
C2185 C 0.77702 0.02135 0.59712 0.0
C2186 C 0.78386 0.01181 0.58639 0.0
C2187 C 0.77436 0.0044 0.57107 0.0
C2188 C 0.75811 0.00659 0.56629 0.0
C2189 C 0.75134 0.01624 0.57683 0.0
C2190 C 0.76077 0.02364 0.59217 0.0
C2191 C 0.8406 0.11484 0.65372 0.0
C2192 C 0.82737 0.12236 0.65477 0.0
C2193 C 0.83329 0.09415 0.64696 0.0
C2194 C 0.81262 0.08062 0.64124 0.0
C2195 C 0.79949 0.08829 0.64191 0.0
C2196 C 0.8068 0.10899 0.64868 0.0
C2197 C 0.80455 0.05828 0.6351 0.0
C2198 C 0.79437 0.04998 0.61992 0.0
C2199 C 0.80717 0.04526 0.6441 0.0
C2200 C 0.81679 0.05277 0.66048 0.0
C2201 C 0.8091 0.06116 0.67133 0.0
C2202 C 0.81834 0.06835 0.68672 0.0
C2203 C 0.83519 0.06708 0.69143 0.0
C2204 C 0.84279 0.05856 0.68076 0.0
C2205 C 0.83363 0.05137 0.66535 0.0
H2206 H 0.84232 0.07265 0.70335 0.0
H2207 H 0.75077 0.00085 0.55443 0.0
H2208 H 0.48343 0.376 0.74651 0.0
H2209 H 0.46167 0.33829 0.73766 0.0
H2210 H 0.44631 0.3489 0.6931 0.0
H2211 H 0.46782 0.38663 0.7019 0.0
H2212 H 0.41323 0.31864 0.703 0.0
H2213 H 0.48092 0.33467 0.69797 0.0
H2214 H 0.51721 0.3494 0.70685 0.0
H2215 H 0.5018 0.30977 0.74112 0.0
H2216 H 0.4654 0.29499 0.73257 0.0
H2217 H 0.37092 0.21573 0.6623 0.0
H2218 H 0.39398 0.25362 0.67044 0.0
H2219 H 0.40919 0.24364 0.71536 0.0
H2220 H 0.38644 0.20574 0.70704 0.0
H2221 H 0.44241 0.27357 0.70502 0.0
H2222 H 0.37459 0.25735 0.70989 0.0
H2223 H 0.33834 0.2417 0.7003 0.0
H2224 H 0.35391 0.28141 0.66608 0.0
H2225 H 0.3903 0.29703 0.67528 0.0
C2226 C 0.47536 0.37033 0.73485 0.0
C2227 C 0.47745 0.38432 0.72488 0.0
C2228 C 0.46299 0.34877 0.72979 0.0
C2229 C 0.45259 0.3408 0.71465 0.0
C2230 C 0.45424 0.35473 0.70481 0.0
C2231 C 0.46659 0.37629 0.70986 0.0
C2232 C 0.44025 0.31793 0.709 0.0
C2233 C 0.41966 0.30882 0.70327 0.0
C2234 C 0.44857 0.30507 0.70961 0.0
C2235 C 0.47044 0.31388 0.71473 0.0
C2236 C 0.48527 0.32921 0.70748 0.0
C2237 C 0.50586 0.33755 0.71244 0.0
C2238 C 0.51181 0.33057 0.72457 0.0
C2239 C 0.49717 0.31518 0.73174 0.0
C2240 C 0.47656 0.30681 0.72683 0.0
C2241 C 0.37949 0.22174 0.6738 0.0
C2242 C 0.3771 0.20814 0.68411 0.0
C2243 C 0.39251 0.24328 0.67847 0.0
C2244 C 0.40306 0.25143 0.69358 0.0
C2245 C 0.40116 0.23767 0.70368 0.0
C2246 C 0.38818 0.21612 0.69897 0.0
C2247 C 0.41542 0.27431 0.69905 0.0
C2248 C 0.43599 0.2834 0.70476 0.0
C2249 C 0.40708 0.28714 0.69842 0.0
C2250 C 0.38519 0.27823 0.69318 0.0
C2251 C 0.37029 0.26267 0.70027 0.0
C2252 C 0.34972 0.2538 0.6949 0.0
C2253 C 0.34382 0.26052 0.68256 0.0
C2254 C 0.3585 0.2762 0.67562 0.0
C2255 C 0.37911 0.28508 0.68091 0.0
H2256 H 0.32788 0.25359 0.6784 0.0
H2257 H 0.52775 0.33704 0.72839 0.0
H2258 H 0.64388 0.07123 0.74829 0.0
H2259 H 0.67773 0.08947 0.74038 0.0
H2260 H 0.65703 0.1156 0.70802 0.0
H2261 H 0.62336 0.09791 0.71611 0.0
H2262 H 0.67608 0.09114 0.69638 0.0
H2263 H 0.6856 0.1472 0.73583 0.0
H2264 H 0.68642 0.16286 0.76227 0.0
H2265 H 0.73183 0.15065 0.77921 0.0
H2266 H 0.73097 0.13445 0.7529 0.0
H2267 H 0.76192 0.15628 0.66481 0.0
H2268 H 0.73147 0.14284 0.67733 0.0
H2269 H 0.76404 0.13984 0.71756 0.0
H2270 H 0.79487 0.15429 0.70529 0.0
H2271 H 0.73952 0.15116 0.72667 0.0
H2272 H 0.73152 0.09564 0.68951 0.0
H2273 H 0.73136 0.07783 0.6641 0.0
H2274 H 0.68389 0.08529 0.64424 0.0
H2275 H 0.68397 0.10343 0.66949 0.0
C2276 C 0.64663 0.08108 0.73963 0.0
C2277 C 0.63097 0.08311 0.73278 0.0
C2278 C 0.66595 0.09151 0.73518 0.0
C2279 C 0.66978 0.10384 0.72366 0.0
C2280 C 0.65431 0.10617 0.71698 0.0
C2281 C 0.63512 0.0961 0.72163 0.0
C2282 C 0.68946 0.11311 0.71771 0.0
C2283 C 0.68994 0.10443 0.70289 0.0
C2284 C 0.7076 0.12978 0.72658 0.0
C2285 C 0.70799 0.13932 0.74242 0.0
C2286 C 0.69555 0.14756 0.74522 0.0
C2287 C 0.69606 0.15658 0.76018 0.0
C2288 C 0.7091 0.15764 0.77242 0.0
C2289 C 0.72168 0.14971 0.76972 0.0
C2290 C 0.72118 0.14061 0.75479 0.0
C2291 C 0.76262 0.15287 0.67636 0.0
C2292 C 0.7807 0.15612 0.68402 0.0
C2293 C 0.74518 0.14509 0.68349 0.0
C2294 C 0.74527 0.13975 0.69823 0.0
C2295 C 0.76354 0.14371 0.70614 0.0
C2296 C 0.78115 0.15195 0.69912 0.0
C2297 C 0.72614 0.12953 0.70509 0.0
C2298 C 0.72573 0.13785 0.72011 0.0
C2299 C 0.70809 0.1121 0.69658 0.0
C2300 C 0.70788 0.10106 0.68137 0.0
C2301 C 0.72114 0.09361 0.6797 0.0
C2302 C 0.72105 0.08344 0.66533 0.0
C2303 C 0.70765 0.08047 0.65256 0.0
C2304 C 0.69427 0.08762 0.65414 0.0
C2305 C 0.69432 0.09783 0.66849 0.0
H2306 H 0.70761 0.07259 0.64144 0.0
H2307 H 0.70951 0.16467 0.78399 0.0
H2308 H 0.92723 0.5384 0.72349 0.0
H2309 H 0.91954 0.5627 0.71314 0.0
H2310 H 0.85556 0.51708 0.70842 0.0
H2311 H 0.86309 0.49274 0.71886 0.0
H2312 H 0.86785 0.53529 0.682 0.0
H2313 H 0.87543 0.55669 0.73709 0.0
H2314 H 0.89337 0.56848 0.76375 0.0
H2315 H 0.94201 0.62313 0.75045 0.0
H2316 H 0.92447 0.61151 0.72364 0.0
H2317 H 0.82476 0.59514 0.66783 0.0
H2318 H 0.83489 0.5729 0.67857 0.0
H2319 H 0.89678 0.62479 0.68918 0.0
H2320 H 0.88647 0.64736 0.6789 0.0
H2321 H 0.88751 0.60425 0.71216 0.0
H2322 H 0.88074 0.58444 0.65765 0.0
H2323 H 0.86407 0.57323 0.63062 0.0
H2324 H 0.81604 0.51643 0.64194 0.0
H2325 H 0.83228 0.52743 0.6691 0.0
C2326 C 0.91152 0.53355 0.72027 0.0
C2327 C 0.89576 0.51365 0.72201 0.0
C2328 C 0.90716 0.54748 0.71441 0.0
C2329 C 0.88698 0.5417 0.71009 0.0
C2330 C 0.87123 0.52181 0.7117 0.0
C2331 C 0.87557 0.50797 0.71771 0.0
C2332 C 0.88224 0.55628 0.70371 0.0
C2333 C 0.87193 0.55028 0.68863 0.0
C2334 C 0.88821 0.5761 0.71221 0.0
C2335 C 0.89874 0.58311 0.72832 0.0
C2336 C 0.89004 0.57113 0.73982 0.0
C2337 C 0.90011 0.5778 0.75496 0.0
C2338 C 0.91885 0.59651 0.75878 0.0
C2339 C 0.92751 0.60862 0.74747 0.0
C2340 C 0.91751 0.60201 0.7323 0.0
C2341 C 0.84054 0.60179 0.67242 0.0
C2342 C 0.85488 0.62289 0.67244 0.0
C2343 C 0.84634 0.58904 0.67849 0.0
C2344 C 0.86669 0.59703 0.68439 0.0
C2345 C 0.88101 0.61824 0.68462 0.0
C2346 C 0.87514 0.6311 0.67871 0.0
C2347 C 0.87287 0.58321 0.69043 0.0
C2348 C 0.88349 0.58933 0.70545 0.0
C2349 C 0.86742 0.56358 0.68179 0.0
C2350 C 0.85765 0.55685 0.66544 0.0
C2351 C 0.86655 0.56962 0.6544 0.0
C2352 C 0.85719 0.5633 0.63905 0.0
C2353 C 0.83898 0.54415 0.63457 0.0
C2354 C 0.83013 0.53126 0.64543 0.0
C2355 C 0.83942 0.53753 0.6608 0.0
H2356 H 0.83176 0.53928 0.62269 0.0
H2357 H 0.92662 0.60166 0.77052 0.0
H2358 H 0.44454 0.93618 0.2215 0.0
H2359 H 0.45124 0.94963 0.19718 0.0
H2360 H 0.48228 0.91678 0.18642 0.0
H2361 H 0.47573 0.90342 0.21061 0.0
H2362 H 0.50426 0.95592 0.18232 0.0
H2363 H 0.43413 0.90016 0.16827 0.0
H2364 H 0.39772 0.88119 0.17076 0.0
H2365 H 0.39491 0.93526 0.1645 0.0
H2366 H 0.43139 0.95466 0.1622 0.0
H2367 H 0.5144 0.95899 0.10419 0.0
H2368 H 0.50319 0.94681 0.12824 0.0
H2369 H 0.47632 0.98474 0.13334 0.0
H2370 H 0.48751 0.99702 0.10918 0.0
H2371 H 0.45205 0.94645 0.1412 0.0
H2372 H 0.52151 0.00158 0.15391 0.0
H2373 H 0.55783 0.02065 0.15118 0.0
H2374 H 0.56189 0.96811 0.16012 0.0
H2375 H 0.5255 0.9486 0.16269 0.0
C2376 C 0.4524 0.93148 0.21381 0.0
C2377 C 0.45941 0.91855 0.21793 0.0
C2378 C 0.45631 0.93926 0.19993 0.0
C2379 C 0.46717 0.93411 0.18991 0.0
C2380 C 0.47394 0.92102 0.19397 0.0
C2381 C 0.47015 0.91338 0.20781 0.0
C2382 C 0.47232 0.94289 0.17546 0.0
C2383 C 0.49279 0.95364 0.17328 0.0
C2384 C 0.45747 0.9406 0.16387 0.0
C2385 C 0.43554 0.92894 0.16526 0.0
C2386 C 0.42579 0.90806 0.16757 0.0
C2387 C 0.40513 0.89722 0.16892 0.0
C2388 C 0.39402 0.90704 0.16785 0.0
C2389 C 0.40354 0.92769 0.16537 0.0
C2390 C 0.42421 0.93861 0.16404 0.0
C2391 C 0.50616 0.9648 0.11045 0.0
C2392 C 0.50207 0.97917 0.10488 0.0
C2393 C 0.49972 0.95779 0.12417 0.0
C2394 C 0.48923 0.96515 0.13273 0.0
C2395 C 0.48445 0.97891 0.12695 0.0
C2396 C 0.49083 0.98588 0.11314 0.0
C2397 C 0.48388 0.95889 0.14793 0.0
C2398 C 0.46348 0.94879 0.1503 0.0
C2399 C 0.49878 0.9618 0.15975 0.0
C2400 C 0.52074 0.97357 0.15838 0.0
C2401 C 0.53011 0.99404 0.1552 0.0
C2402 C 0.55072 0.00494 0.15369 0.0
C2403 C 0.56215 0.99558 0.15545 0.0
C2404 C 0.55301 0.97533 0.15876 0.0
C2405 C 0.5324 0.96436 0.16026 0.0
H2406 H 0.5781 0.00404 0.15427 0.0
H2407 H 0.37803 0.89861 0.16889 0.0
H2408 H 0.061 0.48116 0.23664 0.0
H2409 H 0.05547 0.4862 0.21022 0.0
H2410 H 0.05073 0.53911 0.22794 0.0
H2411 H 0.05574 0.53382 0.25433 0.0
H2412 H 0.01994 0.51186 0.20487 0.0
H2413 H 0.09268 0.54672 0.2133 0.0
H2414 H 0.12556 0.54988 0.22038 0.0
H2415 H 0.11001 0.49905 0.18379 0.0
H2416 H 0.0769 0.49539 0.17662 0.0
H2417 H 0.01916 0.54735 0.13452 0.0
H2418 H 0.02843 0.54528 0.16091 0.0
H2419 H 0.03896 0.49613 0.14379 0.0
H2420 H 0.03098 0.49906 0.11727 0.0
H2421 H 0.06742 0.52202 0.16675 0.0
H2422 H 0.99486 0.48585 0.15862 0.0
H2423 H 0.96137 0.48128 0.15137 0.0
H2424 H 0.97565 0.53253 0.18715 0.0
H2425 H 0.00935 0.53758 0.19449 0.0
C2426 C 0.05895 0.49397 0.23489 0.0
C2427 C 0.05928 0.50741 0.24755 0.0
C2428 C 0.05589 0.49689 0.21981 0.0
C2429 C 0.05298 0.51321 0.21714 0.0
C2430 C 0.05317 0.52657 0.22977 0.0
C2431 C 0.05633 0.52372 0.24485 0.0
C2432 C 0.04883 0.51578 0.20115 0.0
C2433 C 0.03046 0.51441 0.19659 0.0
C2434 C 0.06229 0.51844 0.19025 0.0
C2435 C 0.08222 0.52066 0.19452 0.0
C2436 C 0.09619 0.5361 0.20684 0.0
C2437 C 0.11489 0.538 0.21086 0.0
C2438 C 0.11985 0.52464 0.20257 0.0
C2439 C 0.10614 0.50937 0.19022 0.0
C2440 C 0.08741 0.50739 0.18616 0.0
C2441 C 0.02376 0.53632 0.13632 0.0
C2442 C 0.02421 0.52328 0.12373 0.0
C2443 C 0.02881 0.53497 0.15145 0.0
C2444 C 0.03405 0.52029 0.15435 0.0
C2445 C 0.03488 0.50751 0.14183 0.0
C2446 C 0.03006 0.50902 0.12668 0.0
C2447 C 0.03852 0.51816 0.17044 0.0
C2448 C 0.05692 0.51954 0.17502 0.0
C2449 C 0.02499 0.51528 0.18134 0.0
C2450 C 0.0047 0.51222 0.177 0.0
C2451 C 0.99091 0.49624 0.16487 0.0
C2452 C 0.97189 0.49355 0.16075 0.0
C2453 C 0.96641 0.50664 0.16877 0.0
C2454 C 0.97993 0.52242 0.18094 0.0
C2455 C 0.99898 0.52519 0.18509 0.0
H2456 H 0.95167 0.50453 0.16556 0.0
H2457 H 0.13433 0.52614 0.20569 0.0
H2458 H 0.47302 0.52413 0.22043 0.0
H2459 H 0.48083 0.51968 0.19437 0.0
H2460 H 0.42781 0.51921 0.17557 0.0
H2461 H 0.41961 0.52331 0.20173 0.0
H2462 H 0.435 0.49216 0.1566 0.0
H2463 H 0.47153 0.56363 0.18118 0.0
H2464 H 0.493 0.59357 0.20212 0.0
H2465 H 0.54179 0.58226 0.19882 0.0
H2466 H 0.52049 0.55203 0.17801 0.0
H2467 H 0.47512 0.51711 0.08577 0.0
H2468 H 0.46012 0.51654 0.10945 0.0
H2469 H 0.51356 0.5254 0.13589 0.0
H2470 H 0.52936 0.52801 0.11254 0.0
H2471 H 0.50329 0.54931 0.15003 0.0
H2472 H 0.46426 0.47546 0.12572 0.0
H2473 H 0.44251 0.44731 0.10368 0.0
H2474 H 0.39801 0.46513 0.1052 0.0
H2475 H 0.41955 0.49347 0.12721 0.0
C2476 C 0.46279 0.52272 0.21076 0.0
C2477 C 0.44585 0.52439 0.21318 0.0
C2478 C 0.4673 0.5202 0.19586 0.0
C2479 C 0.45515 0.51957 0.18306 0.0
C2480 C 0.43744 0.51976 0.1853 0.0
C2481 C 0.43281 0.52214 0.20026 0.0
C2482 C 0.46211 0.52069 0.16768 0.0
C2483 C 0.44985 0.50473 0.15509 0.0
C2484 C 0.48142 0.53718 0.16568 0.0
C2485 C 0.49435 0.55545 0.17813 0.0
C2486 C 0.48679 0.56743 0.185 0.0
C2487 C 0.49893 0.58447 0.19683 0.0
C2488 C 0.51873 0.58978 0.20182 0.0
C2489 C 0.52644 0.5781 0.19496 0.0
C2490 C 0.51434 0.56103 0.18313 0.0
C2491 C 0.48382 0.51933 0.09667 0.0
C2492 C 0.50354 0.52283 0.09723 0.0
C2493 C 0.47504 0.51857 0.11018 0.0
C2494 C 0.48553 0.52059 0.12448 0.0
C2495 C 0.5051 0.52375 0.12501 0.0
C2496 C 0.51405 0.525 0.11159 0.0
C2497 C 0.47666 0.52024 0.13904 0.0
C2498 C 0.48848 0.53661 0.15149 0.0
C2499 C 0.4569 0.50424 0.14079 0.0
C2500 C 0.44355 0.48661 0.12806 0.0
C2501 C 0.44982 0.47334 0.12136 0.0
C2502 C 0.43754 0.45738 0.10887 0.0
C2503 C 0.4189 0.45447 0.10303 0.0
C2504 C 0.41244 0.46742 0.10975 0.0
C2505 C 0.42465 0.48338 0.12226 0.0
H2506 H 0.40946 0.44218 0.09331 0.0
H2507 H 0.52811 0.60298 0.21099 0.0
H2508 H 0.97595 0.50603 0.78898 0.0
H2509 H 0.98585 0.51139 0.81679 0.0
H2510 H 0.92317 0.48378 0.82369 0.0
H2511 H 0.91325 0.4791 0.79593 0.0
H2512 H 0.94682 0.51391 0.84752 0.0
H2513 H 0.94561 0.45435 0.81961 0.0
H2514 H 0.95468 0.43586 0.79969 0.0
H2515 H 0.01753 0.47512 0.81893 0.0
H2516 H 0.00885 0.49403 0.83886 0.0
H2517 H 0.94831 0.46894 0.91424 0.0
H2518 H 0.94222 0.47523 0.88833 0.0
H2519 H 0.00667 0.51039 0.88704 0.0
H2520 H 0.01286 0.50416 0.91295 0.0
H2521 H 0.98408 0.47917 0.86102 0.0
H2522 H 0.98394 0.5365 0.89073 0.0
H2523 H 0.97355 0.55284 0.91119 0.0
H2524 H 0.91172 0.51551 0.88918 0.0
H2525 H 0.92173 0.49879 0.86863 0.0
C2526 C 0.96432 0.50146 0.79645 0.0
C2527 C 0.94379 0.49187 0.79025 0.0
C2528 C 0.96998 0.50448 0.81234 0.0
C2529 C 0.95519 0.49748 0.82228 0.0
C2530 C 0.93484 0.4892 0.81624 0.0
C2531 C 0.92919 0.48649 0.80036 0.0
C2532 C 0.96067 0.49701 0.83863 0.0
C2533 C 0.95486 0.50622 0.85046 0.0
C2534 C 0.97137 0.48716 0.84252 0.0
C2535 C 0.97661 0.47574 0.83061 0.0
C2536 C 0.96138 0.45912 0.81953 0.0
C2537 C 0.96644 0.44856 0.80824 0.0
C2538 C 0.98667 0.45436 0.80802 0.0
C2539 C 0.00187 0.47068 0.81911 0.0
C2540 C 0.99689 0.48132 0.8304 0.0
C2541 C 0.96116 0.47804 0.90843 0.0
C2542 C 0.98105 0.48602 0.91555 0.0
C2543 C 0.95767 0.48176 0.89371 0.0
C2544 C 0.97401 0.49338 0.88585 0.0
C2545 C 0.99389 0.50146 0.89297 0.0
C2546 C 0.99739 0.49796 0.90776 0.0
C2547 C 0.97027 0.49607 0.86985 0.0
C2548 C 0.97629 0.48713 0.85808 0.0
C2549 C 0.9596 0.50593 0.86606 0.0
C2550 C 0.95357 0.51627 0.8782 0.0
C2551 C 0.96811 0.53168 0.89029 0.0
C2552 C 0.96229 0.54102 0.90191 0.0
C2553 C 0.94197 0.53515 0.90153 0.0
C2554 C 0.92745 0.52002 0.88947 0.0
C2555 C 0.9332 0.51064 0.87781 0.0
H2556 H 0.93749 0.54236 0.91056 0.0
H2557 H 0.99057 0.44616 0.79928 0.0
H2558 H 0.54676 0.52388 0.77826 0.0
H2559 H 0.53659 0.52046 0.80401 0.0
H2560 H 0.53271 0.46097 0.80014 0.0
H2561 H 0.54273 0.46429 0.77434 0.0
H2562 H 0.50127 0.45851 0.81203 0.0
H2563 H 0.57301 0.50565 0.82232 0.0
H2564 H 0.60585 0.53675 0.82033 0.0
H2565 H 0.58512 0.57667 0.83901 0.0
H2566 H 0.55203 0.54579 0.84092 0.0
H2567 H 0.49879 0.45304 0.89237 0.0
H2568 H 0.50953 0.45559 0.86671 0.0
H2569 H 0.50693 0.5113 0.86657 0.0
H2570 H 0.49637 0.50895 0.89227 0.0
H2571 H 0.54214 0.51504 0.85703 0.0
H2572 H 0.46986 0.46675 0.8462 0.0
H2573 H 0.43766 0.4351 0.84856 0.0
H2574 H 0.46064 0.39664 0.83134 0.0
H2575 H 0.49311 0.4281 0.82909 0.0
C2576 C 0.5437 0.51006 0.78291 0.0
C2577 C 0.5452 0.49418 0.7742 0.0
C2578 C 0.53798 0.50816 0.79764 0.0
C2579 C 0.53407 0.49054 0.80408 0.0
C2580 C 0.53553 0.47464 0.79538 0.0
C2581 C 0.54109 0.47646 0.78058 0.0
C2582 C 0.52836 0.48868 0.81986 0.0
C2583 C 0.51038 0.47074 0.8219 0.0
C2584 C 0.54007 0.50477 0.83273 0.0
C2585 C 0.55997 0.52339 0.83162 0.0
C2586 C 0.57539 0.52106 0.82589 0.0
C2587 C 0.59406 0.53865 0.8248 0.0
C2588 C 0.59755 0.55867 0.8295 0.0
C2589 C 0.58239 0.56115 0.83535 0.0
C2590 C 0.56368 0.54361 0.83646 0.0
C2591 C 0.50061 0.46588 0.88689 0.0
C2592 C 0.49667 0.48076 0.89428 0.0
C2593 C 0.50662 0.46725 0.87221 0.0
C2594 C 0.50887 0.48355 0.86472 0.0
C2595 C 0.50523 0.49858 0.87216 0.0
C2596 C 0.49906 0.49713 0.88677 0.0
C2597 C 0.51504 0.48498 0.84911 0.0
C2598 C 0.53311 0.50282 0.84713 0.0
C2599 C 0.50353 0.46872 0.83634 0.0
C2600 C 0.48399 0.44979 0.83763 0.0
C2601 C 0.46811 0.45156 0.84304 0.0
C2602 C 0.4498 0.43365 0.84433 0.0
C2603 C 0.44713 0.41388 0.84014 0.0
C2604 C 0.46274 0.41197 0.8346 0.0
C2605 C 0.4811 0.42983 0.83331 0.0
H2606 H 0.43294 0.40003 0.84115 0.0
H2607 H 0.61202 0.57228 0.82865 0.0
H2608 H 0.51402 0.04423 0.78124 0.0
H2609 H 0.50734 0.04466 0.80797 0.0
H2610 H 0.57143 0.07533 0.82388 0.0
H2611 H 0.57818 0.07493 0.79709 0.0
H2612 H 0.55037 0.04188 0.83671 0.0
H2613 H 0.54524 0.10102 0.82911 0.0
H2614 H 0.53266 0.11964 0.81521 0.0
H2615 H 0.47168 0.07546 0.82148 0.0
H2616 H 0.48385 0.05637 0.83522 0.0
H2617 H 0.53835 0.04732 0.91511 0.0
H2618 H 0.54885 0.05929 0.89088 0.0
H2619 H 0.48622 0.03137 0.87137 0.0
H2620 H 0.47564 0.02045 0.89586 0.0
H2621 H 0.50868 0.06671 0.86115 0.0
H2622 H 0.51212 0.00555 0.86543 0.0
H2623 H 0.52293 0.98446 0.8778 0.0
H2624 H 0.58528 0.03025 0.87639 0.0
H2625 H 0.57483 0.05175 0.86417 0.0
C2626 C 0.52674 0.05178 0.79042 0.0
C2627 C 0.54666 0.05995 0.78709 0.0
C2628 C 0.5229 0.05189 0.80572 0.0
C2629 C 0.53891 0.06026 0.81795 0.0
C2630 C 0.55886 0.06887 0.81463 0.0
C2631 C 0.56269 0.06866 0.79934 0.0
C2632 C 0.53471 0.05836 0.83407 0.0
C2633 C 0.54163 0.04773 0.84218 0.0
C2634 C 0.52275 0.06539 0.841 0.0
C2635 C 0.51545 0.07718 0.83312 0.0
C2636 C 0.52913 0.09521 0.82747 0.0
C2637 C 0.52208 0.10586 0.81962 0.0
C2638 C 0.50138 0.09871 0.81743 0.0
C2639 C 0.48771 0.08097 0.82317 0.0
C2640 C 0.49468 0.07025 0.83102 0.0
C2641 C 0.52681 0.04413 0.90581 0.0
C2642 C 0.50611 0.03261 0.90738 0.0
C2643 C 0.53284 0.05082 0.89189 0.0
C2644 C 0.51831 0.04583 0.87919 0.0
C2645 C 0.49771 0.03528 0.88097 0.0
C2646 C 0.49167 0.02879 0.89493 0.0
C2647 C 0.5244 0.05027 0.86377 0.0
C2648 C 0.51772 0.06121 0.85577 0.0
C2649 C 0.5364 0.04332 0.8568 0.0
C2650 C 0.5427 0.03036 0.86405 0.0
C2651 C 0.52814 0.01119 0.86785 0.0
C2652 C 0.5342 0.99915 0.87482 0.0
C2653 C 0.55478 0.00605 0.87792 0.0
C2654 C 0.56934 0.02496 0.87401 0.0
C2655 C 0.56336 0.03707 0.86705 0.0
H2656 H 0.55945 0.99671 0.88332 0.0
H2657 H 0.49595 0.10694 0.81131 0.0
H2658 H 0.09919 0.23949 0.54351 0.0
H2659 H 0.10387 0.25174 0.51864 0.0
H2660 H 0.16815 0.29164 0.53397 0.0
H2661 H 0.16358 0.27954 0.55878 0.0
H2662 H 0.15167 0.31092 0.51774 0.0
H2663 H 0.15106 0.24564 0.51271 0.0
H2664 H 0.13567 0.2082 0.51397 0.0
H2665 H 0.08476 0.19335 0.48124 0.0
H2666 H 0.09976 0.23077 0.47994 0.0
H2667 H 0.202 0.33025 0.45271 0.0
H2668 H 0.18867 0.31997 0.47661 0.0
H2669 H 0.12931 0.27656 0.45088 0.0
H2670 H 0.1428 0.28612 0.42675 0.0
H2671 H 0.1377 0.25867 0.47147 0.0
H2672 H 0.13996 0.32275 0.47324 0.0
H2673 H 0.15449 0.35998 0.4717 0.0
H2674 H 0.20023 0.37725 0.51005 0.0
H2675 H 0.18617 0.34009 0.51169 0.0
C2676 C 0.11423 0.25124 0.54171 0.0
C2677 C 0.13101 0.25865 0.55312 0.0
C2678 C 0.1169 0.2581 0.52746 0.0
C2679 C 0.13638 0.27254 0.52445 0.0
C2680 C 0.153 0.28054 0.53606 0.0
C2681 C 0.15037 0.27353 0.5502 0.0
C2682 C 0.13985 0.27843 0.50895 0.0
C2683 C 0.14869 0.29955 0.50761 0.0
C2684 C 0.13534 0.26347 0.49566 0.0
C2685 C 0.1264 0.241 0.49638 0.0
C2686 C 0.13651 0.2344 0.50588 0.0
C2687 C 0.12787 0.21319 0.50658 0.0
C2688 C 0.10922 0.19841 0.49773 0.0
C2689 C 0.09919 0.20482 0.48811 0.0
C2690 C 0.10775 0.22602 0.48739 0.0
C2691 C 0.18613 0.31841 0.45209 0.0
C2692 C 0.1735 0.30898 0.43778 0.0
C2693 C 0.17845 0.31275 0.46581 0.0
C2694 C 0.15788 0.29773 0.46561 0.0
C2695 C 0.14519 0.28829 0.45135 0.0
C2696 C 0.1529 0.29389 0.43758 0.0
C2697 C 0.15001 0.29132 0.48026 0.0
C2698 C 0.14036 0.27008 0.48147 0.0
C2699 C 0.15358 0.30617 0.4934 0.0
C2700 C 0.16207 0.32859 0.49252 0.0
C2701 C 0.1532 0.33447 0.48128 0.0
C2702 C 0.16134 0.35557 0.4804 0.0
C2703 C 0.17829 0.37097 0.49075 0.0
C2704 C 0.1871 0.3653 0.50204 0.0
C2705 C 0.17904 0.34421 0.50296 0.0
H2706 H 0.18457 0.3873 0.49005 0.0
H2707 H 0.10256 0.18199 0.49828 0.0
H2708 H 0.75175 0.8653 0.58301 0.0
H2709 H 0.74838 0.86945 0.55606 0.0
H2710 H 0.68665 0.81723 0.54867 0.0
H2711 H 0.68995 0.81311 0.57564 0.0
H2712 H 0.70652 0.81444 0.52572 0.0
H2713 H 0.69781 0.8683 0.55278 0.0
H2714 H 0.70761 0.89938 0.57222 0.0
H2715 H 0.76179 0.93522 0.55236 0.0
H2716 H 0.7524 0.90428 0.53288 0.0
H2717 H 0.6684 0.8274 0.4557 0.0
H2718 H 0.67532 0.82447 0.48242 0.0
H2719 H 0.73608 0.87765 0.48608 0.0
H2720 H 0.72919 0.88072 0.45932 0.0
H2721 H 0.71908 0.88093 0.51084 0.0
H2722 H 0.72732 0.82799 0.48307 0.0
H2723 H 0.71792 0.79712 0.46356 0.0
H2724 H 0.66548 0.75975 0.48476 0.0
H2725 H 0.67443 0.79047 0.50429 0.0
C2726 C 0.73732 0.85504 0.57574 0.0
C2727 C 0.72093 0.83924 0.58152 0.0
C2728 C 0.73546 0.85731 0.56031 0.0
C2729 C 0.71715 0.84386 0.55042 0.0
C2730 C 0.70089 0.82783 0.55612 0.0
C2731 C 0.70278 0.82551 0.57151 0.0
C2732 C 0.71495 0.8462 0.53404 0.0
C2733 C 0.70903 0.82891 0.52247 0.0
C2734 C 0.71888 0.86528 0.52979 0.0
C2735 C 0.7245 0.88392 0.54147 0.0
C2736 C 0.71189 0.88277 0.55263 0.0
C2737 C 0.71735 0.90037 0.56364 0.0
C2738 C 0.73534 0.91925 0.56355 0.0
C2739 C 0.74787 0.92058 0.55243 0.0
C2740 C 0.74247 0.90303 0.54138 0.0
C2741 C 0.68333 0.83829 0.46212 0.0
C2742 C 0.69828 0.85424 0.45538 0.0
C2743 C 0.68726 0.83662 0.4774 0.0
C2744 C 0.7063 0.85071 0.48621 0.0
C2745 C 0.72128 0.86663 0.47951 0.0
C2746 C 0.71732 0.86837 0.46423 0.0
C2747 C 0.71034 0.84907 0.50252 0.0
C2748 C 0.71666 0.86649 0.51408 0.0
C2749 C 0.70685 0.83013 0.50677 0.0
C2750 C 0.70147 0.81159 0.49507 0.0
C2751 C 0.71371 0.81323 0.48351 0.0
C2752 C 0.70847 0.79575 0.47246 0.0
C2753 C 0.69109 0.7765 0.4729 0.0
C2754 C 0.67893 0.77468 0.48442 0.0
C2755 C 0.6841 0.79211 0.4955 0.0
H2756 H 0.68706 0.76299 0.46433 0.0
H2757 H 0.73954 0.93286 0.57208 0.0
H2758 H 0.09184 0.87613 0.53442 0.0
H2759 H 0.09981 0.87091 0.50856 0.0
H2760 H 0.12441 0.8348 0.52353 0.0
H2761 H 0.11728 0.84082 0.54968 0.0
H2762 H 0.14967 0.86118 0.50898 0.0
H2763 H 0.07889 0.81301 0.49707 0.0
H2764 H 0.04232 0.79957 0.49606 0.0
H2765 H 0.04784 0.84579 0.46938 0.0
H2766 H 0.08452 0.85973 0.47042 0.0
H2767 H 0.16292 0.83456 0.43126 0.0
H2768 H 0.14824 0.83037 0.45547 0.0
H2769 H 0.14007 0.88217 0.45179 0.0
H2770 H 0.15503 0.88662 0.42769 0.0
H2771 H 0.10513 0.84388 0.45979 0.0
H2772 H 0.17761 0.89303 0.47462 0.0
H2773 H 0.21359 0.90391 0.47508 0.0
H2774 H 0.20306 0.85121 0.49581 0.0
H2775 H 0.16692 0.83984 0.49525 0.0
C2776 C 0.0986 0.86674 0.53216 0.0
C2777 C 0.104 0.85895 0.54413 0.0
C2778 C 0.10307 0.86366 0.51729 0.0
C2779 C 0.11257 0.85228 0.51397 0.0
C2780 C 0.11714 0.84369 0.52577 0.0
C2781 C 0.113 0.84708 0.54072 0.0
C2782 C 0.11937 0.85103 0.49863 0.0
C2783 C 0.13972 0.85693 0.49825 0.0
C2784 C 0.10659 0.84579 0.48454 0.0
C2785 C 0.08453 0.83754 0.48394 0.0
C2786 C 0.07236 0.82044 0.4911 0.0
C2787 C 0.05159 0.8127 0.4905 0.0
C2788 C 0.04277 0.82185 0.4827 0.0
C2789 C 0.0547 0.83873 0.47544 0.0
C2790 C 0.07548 0.84655 0.47602 0.0
C2791 C 0.15792 0.84498 0.43562 0.0
C2792 C 0.1602 0.861 0.42773 0.0
C2793 C 0.14957 0.84258 0.44941 0.0
C2794 C 0.14314 0.85599 0.45538 0.0
C2795 C 0.14495 0.87168 0.44732 0.0
C2796 C 0.15359 0.87429 0.43367 0.0
C2797 C 0.13525 0.8542 0.47035 0.0
C2798 C 0.11481 0.84779 0.4706 0.0
C2799 C 0.14779 0.85855 0.48431 0.0
C2800 C 0.16953 0.86545 0.48472 0.0
C2801 C 0.18292 0.88365 0.47913 0.0
C2802 C 0.20335 0.88993 0.47944 0.0
C2803 C 0.21059 0.87822 0.48543 0.0
C2804 C 0.19742 0.86024 0.49116 0.0
C2805 C 0.17697 0.85388 0.49085 0.0
H2806 H 0.22641 0.88311 0.48566 0.0
H2807 H 0.02669 0.81583 0.48224 0.0
H2808 H 0.58793 0.83008 0.12314 0.0
H2809 H 0.59569 0.83313 0.15108 0.0
H2810 H 0.63584 0.8102 0.14318 0.0
H2811 H 0.62818 0.80701 0.11542 0.0
H2812 H 0.60862 0.78878 0.16184 0.0
H2813 H 0.65439 0.86092 0.15776 0.0
H2814 H 0.66353 0.89507 0.15088 0.0
H2815 H 0.6238 0.89985 0.18082 0.0
H2816 H 0.61422 0.86557 0.18773 0.0
H2817 H 0.66337 0.80761 0.2339 0.0
H2818 H 0.65413 0.80985 0.20754 0.0
H2819 H 0.6146 0.83041 0.22348 0.0
H2820 H 0.62354 0.82788 0.25002 0.0
H2821 H 0.63776 0.85287 0.20155 0.0
H2822 H 0.59356 0.78187 0.20686 0.0
H2823 H 0.58454 0.74785 0.21394 0.0
H2824 H 0.62079 0.74077 0.18156 0.0
H2825 H 0.63029 0.77491 0.17445 0.0
C2826 C 0.59861 0.82595 0.12737 0.0
C2827 C 0.60732 0.81816 0.11702 0.0
C2828 C 0.60305 0.82774 0.14334 0.0
C2829 C 0.6163 0.82184 0.14919 0.0
C2830 C 0.62549 0.81473 0.1389 0.0
C2831 C 0.62111 0.81297 0.12301 0.0
C2832 C 0.61983 0.8218 0.16592 0.0
C2833 C 0.61517 0.80285 0.17049 0.0
C2834 C 0.62767 0.83999 0.17727 0.0
C2835 C 0.6334 0.86057 0.17311 0.0
C2836 C 0.64746 0.86916 0.16276 0.0
C2837 C 0.65275 0.88856 0.15888 0.0
C2838 C 0.6442 0.89959 0.16537 0.0
C2839 C 0.63038 0.89127 0.17578 0.0
C2840 C 0.62502 0.87186 0.17969 0.0
C2841 C 0.65258 0.81245 0.23182 0.0
C2842 C 0.64397 0.81728 0.24405 0.0
C2843 C 0.64741 0.81384 0.21676 0.0
C2844 C 0.63349 0.82004 0.21355 0.0
C2845 C 0.62536 0.82557 0.22574 0.0
C2846 C 0.6305 0.82414 0.24088 0.0
C2847 C 0.62708 0.81998 0.19733 0.0
C2848 C 0.63106 0.83881 0.19288 0.0
C2849 C 0.61854 0.80166 0.18604 0.0
C2850 C 0.61276 0.78104 0.19021 0.0
C2851 C 0.59974 0.77313 0.20133 0.0
C2852 C 0.59452 0.75382 0.20534 0.0
C2853 C 0.60212 0.74218 0.19823 0.0
C2854 C 0.61492 0.74981 0.18707 0.0
C2855 C 0.62021 0.76914 0.18303 0.0
H2856 H 0.59806 0.72722 0.20134 0.0
H2857 H 0.64832 0.91461 0.16235 0.0
H2858 H 0.19302 0.79865 0.10198 0.0
H2859 H 0.1824 0.79374 0.12722 0.0
H2860 H 0.21232 0.86055 0.14138 0.0
H2861 H 0.2244 0.86563 0.1164 0.0
H2862 H 0.21752 0.8446 0.16448 0.0
H2863 H 0.15973 0.82834 0.12897 0.0
H2864 H 0.13473 0.81044 0.10532 0.0
H2865 H 0.11496 0.75106 0.11908 0.0
H2866 H 0.14 0.7686 0.14275 0.0
H2867 H 0.16394 0.84489 0.22667 0.0
H2868 H 0.17547 0.84862 0.20139 0.0
H2869 H 0.15276 0.7825 0.19139 0.0
H2870 H 0.14063 0.77853 0.21653 0.0
H2871 H 0.14416 0.79752 0.16655 0.0
H2872 H 0.20098 0.8165 0.20433 0.0
H2873 H 0.22345 0.83669 0.22883 0.0
H2874 H 0.24489 0.89366 0.21088 0.0
H2875 H 0.22175 0.87393 0.18652 0.0
C2876 C 0.19798 0.81235 0.11049 0.0
C2877 C 0.20993 0.83254 0.10709 0.0
C2878 C 0.19151 0.8095 0.12494 0.0
C2879 C 0.19626 0.82676 0.13616 0.0
C2880 C 0.20844 0.84696 0.13292 0.0
C2881 C 0.21522 0.84982 0.11857 0.0
C2882 C 0.18803 0.82376 0.15107 0.0
C2883 C 0.20145 0.83447 0.16492 0.0
C2884 C 0.16709 0.81034 0.15169 0.0
C2885 C 0.15187 0.79977 0.13755 0.0
C2886 C 0.15013 0.81145 0.1269 0.0
C2887 C 0.13594 0.80137 0.11351 0.0
C2888 C 0.1233 0.77962 0.11068 0.0
C2889 C 0.12477 0.76791 0.12128 0.0
C2890 C 0.13894 0.77791 0.1347 0.0
C2891 C 0.16111 0.83108 0.219 0.0
C2892 C 0.15145 0.81142 0.22362 0.0
C2893 C 0.16784 0.83327 0.20462 0.0
C2894 C 0.16519 0.81588 0.19464 0.0
C2895 C 0.15502 0.79612 0.19899 0.0
C2896 C 0.14828 0.79392 0.21338 0.0
C2897 C 0.17361 0.81841 0.17986 0.0
C2898 C 0.16023 0.80758 0.16608 0.0
C2899 C 0.19453 0.83197 0.17933 0.0
C2900 C 0.20938 0.84372 0.19363 0.0
C2901 C 0.21033 0.83335 0.20563 0.0
C2902 C 0.22311 0.84473 0.21954 0.0
C2903 C 0.23551 0.86646 0.22144 0.0
C2904 C 0.2352 0.87684 0.20941 0.0
C2905 C 0.22217 0.86557 0.19557 0.0
H2906 H 0.24542 0.87523 0.23221 0.0
H2907 H 0.11234 0.77184 0.10029 0.0
H2908 H 0.21186 0.44248 0.13745 0.0
H2909 H 0.19631 0.42457 0.15862 0.0
H2910 H 0.23402 0.39781 0.15811 0.0
H2911 H 0.2491 0.41509 0.13655 0.0
H2912 H 0.19569 0.36956 0.16225 0.0
H2913 H 0.2469 0.44113 0.18383 0.0
H2914 H 0.26344 0.47944 0.18663 0.0
H2915 H 0.20913 0.4757 0.1993 0.0
H2916 H 0.19218 0.43732 0.19637 0.0
H2917 H 0.19622 0.345 0.23691 0.0
H2918 H 0.20586 0.36038 0.21367 0.0
H2919 H 0.16641 0.38475 0.21877 0.0
H2920 H 0.15712 0.36989 0.24235 0.0
H2921 H 0.20249 0.41344 0.21155 0.0
H2922 H 0.15208 0.34203 0.19199 0.0
H2923 H 0.13565 0.30377 0.18936 0.0
H2924 H 0.18811 0.30698 0.17294 0.0
H2925 H 0.20498 0.34532 0.17568 0.0
C2926 C 0.21635 0.43224 0.14147 0.0
C2927 C 0.23144 0.42989 0.13513 0.0
C2928 C 0.20768 0.42227 0.15376 0.0
C2929 C 0.21413 0.41 0.16003 0.0
C2930 C 0.2288 0.40718 0.15343 0.0
C2931 C 0.23746 0.41713 0.14117 0.0
C2932 C 0.20634 0.40081 0.17388 0.0
C2933 C 0.19731 0.37916 0.17307 0.0
C2934 C 0.208 0.41329 0.18788 0.0
C2935 C 0.21821 0.43635 0.18971 0.0
C2936 C 0.23844 0.44847 0.18709 0.0
C2937 C 0.24789 0.47019 0.18872 0.0
C2938 C 0.23732 0.47999 0.19309 0.0
C2939 C 0.21729 0.46809 0.19589 0.0
C2940 C 0.20775 0.44635 0.19425 0.0
C2941 C 0.18975 0.35381 0.23319 0.0
C2942 C 0.17585 0.35617 0.24143 0.0
C2943 C 0.19511 0.3624 0.21981 0.0
C2944 C 0.1866 0.37342 0.21435 0.0
C2945 C 0.17303 0.37617 0.22272 0.0
C2946 C 0.16765 0.36756 0.23612 0.0
C2947 C 0.19207 0.38221 0.19999 0.0
C2948 C 0.20067 0.40379 0.2007 0.0
C2949 C 0.18999 0.36965 0.1859 0.0
C2950 C 0.17986 0.34658 0.18416 0.0
C2951 C 0.16018 0.3346 0.18793 0.0
C2952 C 0.15077 0.31289 0.1864 0.0
C2953 C 0.16085 0.30295 0.18102 0.0
C2954 C 0.18033 0.3147 0.17712 0.0
C2955 C 0.18981 0.33642 0.17864 0.0
H2956 H 0.15354 0.28615 0.17984 0.0
H2957 H 0.24467 0.49681 0.19435 0.0
H2958 H 0.77775 0.5937 0.88336 0.0
H2959 H 0.78119 0.60466 0.85811 0.0
H2960 H 0.84597 0.64383 0.87138 0.0
H2961 H 0.84256 0.63356 0.89675 0.0
H2962 H 0.83199 0.66335 0.85584 0.0
H2963 H 0.82395 0.59478 0.84957 0.0
H2964 H 0.80622 0.55719 0.85093 0.0
H2965 H 0.75488 0.5464 0.8207 0.0
H2966 H 0.77223 0.584 0.81932 0.0
H2967 H 0.87598 0.67259 0.78753 0.0
H2968 H 0.86408 0.66398 0.81214 0.0
H2969 H 0.80207 0.63192 0.79002 0.0
H2970 H 0.81384 0.64095 0.7653 0.0
H2971 H 0.80933 0.609 0.8091 0.0
H2972 H 0.82016 0.67744 0.81254 0.0
H2973 H 0.83882 0.71494 0.81094 0.0
H2974 H 0.8856 0.72613 0.84635 0.0
H2975 H 0.86738 0.68862 0.84801 0.0
C2976 C 0.79264 0.60508 0.88108 0.0
C2977 C 0.80985 0.61295 0.89215 0.0
C2978 C 0.79462 0.61112 0.86654 0.0
C2979 C 0.81387 0.62496 0.86281 0.0
C2980 C 0.83097 0.63319 0.874 0.0
C2981 C 0.82899 0.6272 0.88848 0.0
C2982 C 0.81655 0.63031 0.8471 0.0
C2983 C 0.8271 0.65148 0.84563 0.0
C2984 C 0.80968 0.61479 0.8337 0.0
C2985 C 0.79927 0.59221 0.8345 0.0
C2986 C 0.80881 0.58441 0.84332 0.0
C2987 C 0.79885 0.5631 0.84407 0.0
C2988 C 0.7794 0.54943 0.83595 0.0
C2989 C 0.76992 0.55702 0.82701 0.0
C2990 C 0.77981 0.57832 0.82624 0.0
C2991 C 0.8598 0.664 0.78788 0.0
C2992 C 0.84588 0.65759 0.77441 0.0
C2993 C 0.85302 0.65903 0.80198 0.0
C2994 C 0.8322 0.64752 0.80293 0.0
C2995 C 0.81822 0.64085 0.78952 0.0
C2996 C 0.82499 0.64594 0.77539 0.0
C2997 C 0.82524 0.64205 0.81794 0.0
C2998 C 0.81389 0.62087 0.81927 0.0
C2999 C 0.83146 0.65756 0.83122 0.0
C3000 C 0.84246 0.68017 0.83032 0.0
C3001 C 0.83451 0.68786 0.81991 0.0
C3002 C 0.84499 0.70913 0.819 0.0
C3003 C 0.8634 0.7229 0.82852 0.0
C3004 C 0.87134 0.71544 0.83899 0.0
C3005 C 0.86093 0.69418 0.83992 0.0
H3006 H 0.8715 0.73936 0.82781 0.0
H3007 H 0.77171 0.53294 0.83654 0.0
H3008 H 0.34576 0.13556 0.90966 0.0
H3009 H 0.34437 0.1375 0.88211 0.0
H3010 H 0.40634 0.18923 0.89019 0.0
H3011 H 0.40793 0.18708 0.91767 0.0
H3012 H 0.38183 0.197 0.87242 0.0
H3013 H 0.39508 0.14162 0.873 0.0
H3014 H 0.38948 0.10819 0.87908 0.0
H3015 H 0.33021 0.07549 0.85239 0.0
H3016 H 0.33534 0.10877 0.84632 0.0
H3017 H 0.38964 0.20056 0.79318 0.0
H3018 H 0.39628 0.19677 0.8198 0.0
H3019 H 0.336 0.14246 0.81506 0.0
H3020 H 0.32948 0.14597 0.78839 0.0
H3021 H 0.36211 0.13658 0.83117 0.0
H3022 H 0.34735 0.19144 0.83228 0.0
H3023 H 0.35197 0.22459 0.82639 0.0
H3024 H 0.41292 0.25791 0.85022 0.0
H3025 H 0.40875 0.22489 0.85607 0.0
C3026 C 0.35911 0.14731 0.90555 0.0
C3027 C 0.37679 0.16154 0.9159 0.0
C3028 C 0.35832 0.14835 0.88981 0.0
C3029 C 0.37528 0.16349 0.8841 0.0
C3030 C 0.39303 0.17756 0.89438 0.0
C3031 C 0.39383 0.17649 0.91012 0.0
C3032 C 0.37427 0.16503 0.86748 0.0
C3033 C 0.37787 0.1839 0.8634 0.0
C3034 C 0.36864 0.14778 0.85573 0.0
C3035 C 0.36553 0.12773 0.85932 0.0
C3036 C 0.38079 0.12732 0.86853 0.0
C3037 C 0.37771 0.1084 0.87195 0.0
C3038 C 0.35948 0.08974 0.86615 0.0
C3039 C 0.34431 0.08996 0.85688 0.0
C3040 C 0.34731 0.10885 0.85344 0.0
C3041 C 0.37788 0.18776 0.79783 0.0
C3042 C 0.35899 0.17367 0.78881 0.0
C3043 C 0.38167 0.18561 0.81301 0.0
C3044 C 0.36649 0.16956 0.81952 0.0
C3045 C 0.34791 0.15498 0.8103 0.0
C3046 C 0.3442 0.157 0.79508 0.0
C3047 C 0.36952 0.1685 0.83611 0.0
C3048 C 0.36626 0.14973 0.8402 0.0
C3049 C 0.37532 0.1858 0.8479 0.0
C3050 C 0.37781 0.20567 0.84446 0.0
C3051 C 0.36179 0.20582 0.83616 0.0
C3052 C 0.36432 0.22459 0.83284 0.0
C3053 C 0.38275 0.24334 0.83789 0.0
C3054 C 0.39867 0.24337 0.8463 0.0
C3055 C 0.39623 0.22464 0.84962 0.0
H3056 H 0.38467 0.25785 0.83531 0.0
H3057 H 0.35713 0.0751 0.86882 0.0
H3058 H 0.81263 0.18848 0.88987 0.0
H3059 H 0.8209 0.18418 0.86393 0.0
H3060 H 0.76531 0.17812 0.84438 0.0
H3061 H 0.75674 0.18218 0.87038 0.0
H3062 H 0.7749 0.15191 0.82676 0.0
H3063 H 0.80741 0.22447 0.84964 0.0
H3064 H 0.82832 0.25537 0.87 0.0
H3065 H 0.8795 0.2482 0.86588 0.0
H3066 H 0.8588 0.21705 0.84564 0.0
H3067 H 0.80602 0.18086 0.75438 0.0
H3068 H 0.79326 0.17751 0.77927 0.0
H3069 H 0.85101 0.19102 0.80138 0.0
H3070 H 0.86395 0.1949 0.77658 0.0
H3071 H 0.83922 0.21278 0.81759 0.0
H3072 H 0.80676 0.14055 0.79379 0.0
H3073 H 0.78566 0.10988 0.77329 0.0
H3074 H 0.73426 0.11626 0.77884 0.0
H3075 H 0.75515 0.14716 0.79924 0.0
C3076 C 0.80196 0.18588 0.88007 0.0
C3077 C 0.78414 0.18597 0.88222 0.0
C3078 C 0.80674 0.18346 0.86524 0.0
C3079 C 0.79391 0.18125 0.85225 0.0
C3080 C 0.77546 0.1799 0.85426 0.0
C3081 C 0.77061 0.18227 0.86914 0.0
C3082 C 0.80063 0.18214 0.8368 0.0
C3083 C 0.78885 0.16527 0.82467 0.0
C3084 C 0.81897 0.19948 0.83416 0.0
C3085 C 0.8315 0.21832 0.84623 0.0
C3086 C 0.82308 0.22939 0.85316 0.0
C3087 C 0.8349 0.24696 0.86467 0.0
C3088 C 0.85521 0.25371 0.86926 0.0
C3089 C 0.86376 0.24293 0.86233 0.0
C3090 C 0.85199 0.22533 0.85083 0.0
C3091 C 0.81591 0.18292 0.76454 0.0
C3092 C 0.83598 0.18816 0.76356 0.0
C3093 C 0.80859 0.18093 0.77876 0.0
C3094 C 0.82107 0.18373 0.79221 0.0
C3095 C 0.84108 0.18879 0.79119 0.0
C3096 C 0.84848 0.19105 0.77702 0.0
C3097 C 0.8137 0.18237 0.80748 0.0
C3098 C 0.82532 0.19929 0.81962 0.0
C3099 C 0.79522 0.16506 0.81006 0.0
C3100 C 0.78259 0.14632 0.79792 0.0
C3101 C 0.791 0.13551 0.79056 0.0
C3102 C 0.77907 0.11807 0.77897 0.0
C3103 C 0.75866 0.11118 0.77472 0.0
C3104 C 0.7501 0.12165 0.78211 0.0
C3105 C 0.76197 0.13912 0.7937 0.0
H3106 H 0.74945 0.09769 0.76574 0.0
H3107 H 0.86433 0.26732 0.87817 0.0
H3108 H 0.24494 0.13655 0.46039 0.0
H3109 H 0.25394 0.14053 0.48814 0.0
H3110 H 0.31646 0.16434 0.48207 0.0
H3111 H 0.30744 0.15977 0.45422 0.0
H3112 H 0.30491 0.13493 0.49827 0.0
H3113 H 0.30007 0.19561 0.50096 0.0
H3114 H 0.28468 0.21638 0.49596 0.0
H3115 H 0.23485 0.17846 0.51934 0.0
H3116 H 0.2498 0.15726 0.52429 0.0
H3117 H 0.34007 0.15812 0.57851 0.0
H3118 H 0.33419 0.16344 0.55227 0.0
H3119 H 0.26969 0.12961 0.55347 0.0
H3120 H 0.27548 0.12437 0.57982 0.0
H3121 H 0.28401 0.16654 0.54035 0.0
H3122 H 0.28869 0.10474 0.53582 0.0
H3123 H 0.30499 0.08483 0.54097 0.0
H3124 H 0.35672 0.12684 0.521 0.0
H3125 H 0.34083 0.14719 0.51594 0.0
C3126 C 0.26068 0.143 0.46498 0.0
C3127 C 0.27546 0.1477 0.45508 0.0
C3128 C 0.26583 0.14537 0.48089 0.0
C3129 C 0.28591 0.15284 0.48724 0.0
C3130 C 0.30085 0.15847 0.47744 0.0
C3131 C 0.29568 0.15589 0.46152 0.0
C3132 C 0.29096 0.15293 0.50381 0.0
C3133 C 0.30069 0.14224 0.50746 0.0
C3134 C 0.28504 0.16201 0.51583 0.0
C3135 C 0.27598 0.17472 0.51288 0.0
C3136 C 0.28575 0.19158 0.50493 0.0
C3137 C 0.27712 0.20346 0.50212 0.0
C3138 C 0.25877 0.19871 0.5073 0.0
C3139 C 0.24905 0.18211 0.51532 0.0
C3140 C 0.25761 0.17017 0.51815 0.0
C3141 C 0.32465 0.15203 0.57326 0.0
C3142 C 0.30821 0.14074 0.58117 0.0
C3143 C 0.32132 0.15501 0.55826 0.0
C3144 C 0.30151 0.14682 0.55093 0.0
C3145 C 0.28509 0.13606 0.55895 0.0
C3146 C 0.2884 0.13292 0.57392 0.0
C3147 C 0.29789 0.14859 0.53464 0.0
C3148 C 0.28838 0.1595 0.53108 0.0
C3149 C 0.30415 0.13989 0.52268 0.0
C3150 C 0.31367 0.12761 0.52566 0.0
C3151 C 0.30362 0.10984 0.53265 0.0
C3152 C 0.31277 0.09845 0.53553 0.0
C3153 C 0.3319 0.1046 0.53136 0.0
C3154 C 0.34191 0.12212 0.52425 0.0
C3155 C 0.33284 0.13357 0.52137 0.0
H3156 H 0.33896 0.09577 0.53359 0.0
H3157 H 0.25212 0.20793 0.50512 0.0
H3158 H 0.89346 0.14326 0.44431 0.0
H3159 H 0.88408 0.13518 0.46976 0.0
H3160 H 0.87853 0.18939 0.47858 0.0
H3161 H 0.88765 0.19737 0.45313 0.0
H3162 H 0.89787 0.18551 0.5037 0.0
H3163 H 0.83708 0.14062 0.46594 0.0
H3164 H 0.81806 0.11372 0.44267 0.0
H3165 H 0.82735 0.07003 0.46343 0.0
H3166 H 0.8467 0.09679 0.48675 0.0
H3167 H 0.82979 0.17171 0.5553 0.0
H3168 H 0.84534 0.17367 0.53181 0.0
H3169 H 0.84851 0.11949 0.53786 0.0
H3170 H 0.83267 0.11729 0.5615 0.0
H3171 H 0.83435 0.11937 0.50677 0.0
H3172 H 0.89002 0.16249 0.5464 0.0
H3173 H 0.90756 0.18901 0.57001 0.0
H3174 H 0.90836 0.2357 0.54609 0.0
H3175 H 0.89038 0.20935 0.5224 0.0
C3176 C 0.88986 0.1532 0.45156 0.0
C3177 C 0.89062 0.17055 0.44656 0.0
C3178 C 0.88477 0.14873 0.46616 0.0
C3179 C 0.88036 0.16154 0.47596 0.0
C3180 C 0.88186 0.1793 0.47119 0.0
C3181 C 0.88699 0.18379 0.45663 0.0
C3182 C 0.87332 0.15616 0.49093 0.0
C3183 C 0.884 0.17106 0.50439 0.0
C3184 C 0.85558 0.13698 0.49187 0.0
C3185 C 0.84352 0.12076 0.47801 0.0
C3186 C 0.83516 0.12531 0.46551 0.0
C3187 C 0.82431 0.11009 0.45231 0.0
C3188 C 0.82155 0.0902 0.45155 0.0
C3189 C 0.82954 0.08546 0.46402 0.0
C3190 C 0.84044 0.10064 0.47723 0.0
C3191 C 0.83354 0.16003 0.55155 0.0
C3192 C 0.82997 0.1443 0.56019 0.0
C3193 C 0.84256 0.16127 0.5382 0.0
C3194 C 0.84821 0.14684 0.53323 0.0
C3195 C 0.84428 0.13079 0.54159 0.0
C3196 C 0.83536 0.12963 0.55508 0.0
C3197 C 0.85852 0.14905 0.51938 0.0
C3198 C 0.84849 0.13359 0.50616 0.0
C3199 C 0.87692 0.16766 0.51866 0.0
C3200 C 0.88866 0.18386 0.53264 0.0
C3201 C 0.89384 0.17839 0.54618 0.0
C3202 C 0.90382 0.19338 0.5596 0.0
C3203 C 0.9089 0.21398 0.55958 0.0
C3204 C 0.90429 0.2197 0.5461 0.0
C3205 C 0.89422 0.20474 0.53266 0.0
H3206 H 0.91645 0.22553 0.57001 0.0
H3207 H 0.81317 0.07844 0.44133 0.0
H3208 H 0.9195 0.7668 0.47027 0.0
H3209 H 0.91361 0.75383 0.49478 0.0
H3210 H 0.8525 0.70584 0.47479 0.0
H3211 H 0.85814 0.71876 0.4504 0.0
H3212 H 0.8531 0.72704 0.50156 0.0
H3213 H 0.88868 0.69402 0.48277 0.0
H3214 H 0.91704 0.69262 0.47265 0.0
H3215 H 0.95723 0.73356 0.51364 0.0
H3216 H 0.92914 0.73543 0.52392 0.0
H3217 H 0.82159 0.66293 0.55785 0.0
H3218 H 0.83276 0.67563 0.53396 0.0
H3219 H 0.89048 0.72463 0.55926 0.0
H3220 H 0.87926 0.71226 0.58337 0.0
H3221 H 0.89361 0.70503 0.53094 0.0
H3222 H 0.85764 0.73726 0.54987 0.0
H3223 H 0.82904 0.73807 0.56004 0.0
H3224 H 0.78945 0.69833 0.51848 0.0
H3225 H 0.81778 0.69701 0.50816 0.0
C3226 C 0.90492 0.75333 0.47104 0.0
C3227 C 0.88926 0.74393 0.45841 0.0
C3228 C 0.90158 0.74588 0.48504 0.0
C3229 C 0.8826 0.72887 0.4866 0.0
C3230 C 0.86722 0.71905 0.47385 0.0
C3231 C 0.87052 0.72647 0.45991 0.0
C3232 C 0.87816 0.72206 0.50173 0.0
C3233 C 0.86183 0.72198 0.50787 0.0
C3234 C 0.88995 0.71612 0.51021 0.0
C3235 C 0.90686 0.71506 0.50403 0.0
C3236 C 0.90361 0.70288 0.48956 0.0
C3237 C 0.91962 0.70197 0.48381 0.0
C3238 C 0.93894 0.71305 0.49247 0.0
C3239 C 0.94226 0.72502 0.50693 0.0
C3240 C 0.9263 0.726 0.51273 0.0
C3241 C 0.83662 0.67649 0.55838 0.0
C3242 C 0.84943 0.68674 0.57255 0.0
C3243 C 0.84302 0.68364 0.5447 0.0
C3244 C 0.86235 0.70118 0.5449 0.0
C3245 C 0.8755 0.71105 0.5589 0.0
C3246 C 0.86907 0.70394 0.57264 0.0
C3247 C 0.86834 0.70965 0.53052 0.0
C3248 C 0.88498 0.71015 0.52459 0.0
C3249 C 0.85684 0.71599 0.52219 0.0
C3250 C 0.8398 0.71689 0.5283 0.0
C3251 C 0.84281 0.72856 0.54295 0.0
C3252 C 0.82665 0.72913 0.54874 0.0
C3253 C 0.80743 0.71822 0.53993 0.0
C3254 C 0.80435 0.70676 0.5253 0.0
C3255 C 0.82045 0.7061 0.51947 0.0
H3256 H 0.79494 0.71869 0.54442 0.0
H3257 H 0.95132 0.71231 0.48801 0.0
loop_
_geom_bond_atom_site_label_1
_geom_bond_atom_site_label_2
_geom_bond_distance
_geom_bond_site_symmetry_2
_ccdc_geom_bond_type
O0 Cd1 2.300 . S
O0 C7 1.275 . S
Cd1 O0 2.300 . S
Cd1 O9 2.381 . S
Cd1 O10 2.378 . S
O2 Cd3 2.385 . S
O2 C7 1.255 . S
Cd3 O2 2.385 . S
Cd3 O4 2.317 . S
O4 Cd3 2.317 . S
O4 C5 1.232 . S
C5 O4 1.232 . S
C5 O6 1.218 . S
O6 C5 1.218 . S
C7 O0 1.275 . S
C7 O2 1.255 . S
C8 O9 1.258 . S
C8 O10 1.256 . S
O9 Cd1 2.381 . S
O9 C8 1.258 . S
O10 Cd1 2.378 . S
O10 C8 1.256 . S
O11 Cd12 2.300 . S
O11 C18 1.275 . S
Cd12 O11 2.300 . S
Cd12 O20 2.381 . S
Cd12 O21 2.378 . S
O13 Cd14 2.385 . S
O13 C18 1.255 . S
Cd14 O13 2.385 . S
Cd14 O15 2.317 . S
O15 Cd14 2.317 . S
O15 C16 1.232 . S
C16 O15 1.232 . S
C16 O17 1.218 . S
O17 C16 1.218 . S
C18 O11 1.275 . S
C18 O13 1.255 . S
C19 O20 1.258 . S
C19 O21 1.256 . S
O20 Cd12 2.381 . S
O20 C19 1.258 . S
O21 Cd12 2.378 . S
O21 C19 1.256 . S
O22 Cd23 2.300 . S
O22 C29 1.275 . S
Cd23 O22 2.300 . S
Cd23 O31 2.381 . S
Cd23 O32 2.378 . S
O24 Cd25 2.385 . S
O24 C29 1.255 . S
Cd25 O24 2.385 . S
Cd25 O26 2.317 . S
O26 Cd25 2.317 . S
O26 C27 1.232 . S
C27 O26 1.232 . S
C27 O28 1.218 . S
O28 C27 1.218 . S
C29 O22 1.275 . S
C29 O24 1.255 . S
C30 O31 1.258 . S
C30 O32 1.256 . S
O31 Cd23 2.381 . S
O31 C30 1.258 . S
O32 Cd23 2.378 . S
O32 C30 1.256 . S
O33 Cd34 2.300 . S
O33 C40 1.275 . S
Cd34 O33 2.300 . S
Cd34 O42 2.381 . S
Cd34 O43 2.378 . S
O35 Cd36 2.385 . S
O35 C40 1.255 . S
Cd36 O35 2.385 . S
Cd36 O37 2.317 . S
O37 Cd36 2.317 . S
O37 C38 1.232 . S
C38 O37 1.232 . S
C38 O39 1.218 . S
O39 C38 1.218 . S
C40 O33 1.275 . S
C40 O35 1.255 . S
C41 O42 1.258 . S
C41 O43 1.256 . S
O42 Cd34 2.381 . S
O42 C41 1.258 . S
O43 Cd34 2.378 . S
O43 C41 1.256 . S
O44 Cd45 2.300 . S
O44 C51 1.275 . S
Cd45 O44 2.300 . S
Cd45 O53 2.381 . S
Cd45 O54 2.378 . S
O46 Cd47 2.385 . S
O46 C51 1.255 . S
Cd47 O46 2.385 . S
Cd47 O48 2.317 . S
O48 Cd47 2.317 . S
O48 C49 1.232 . S
C49 O48 1.232 . S
C49 O50 1.218 . S
O50 C49 1.218 . S
C51 O44 1.275 . S
C51 O46 1.255 . S
C52 O53 1.258 . S
C52 O54 1.256 . S
O53 Cd45 2.381 . S
O53 C52 1.258 . S
O54 Cd45 2.378 . S
O54 C52 1.256 . S
O55 Cd56 2.300 . S
O55 C62 1.275 . S
Cd56 O55 2.300 . S
Cd56 O64 2.381 . S
Cd56 O65 2.378 . S
O57 Cd58 2.385 . S
O57 C62 1.255 . S
Cd58 O57 2.385 . S
Cd58 O59 2.317 . S
O59 Cd58 2.317 . S
O59 C60 1.232 . S
C60 O59 1.232 . S
C60 O61 1.218 . S
O61 C60 1.218 . S
C62 O55 1.275 . S
C62 O57 1.255 . S
C63 O64 1.258 . S
C63 O65 1.256 . S
O64 Cd56 2.381 . S
O64 C63 1.258 . S
O65 Cd56 2.378 . S
O65 C63 1.256 . S
O66 Cd67 2.300 . S
O66 C73 1.275 . S
Cd67 O66 2.300 . S
Cd67 O75 2.381 . S
Cd67 O76 2.378 . S
O68 Cd69 2.385 . S
O68 C73 1.255 . S
Cd69 O68 2.385 . S
Cd69 O70 2.317 . S
O70 Cd69 2.317 . S
O70 C71 1.232 . S
C71 O70 1.232 . S
C71 O72 1.218 . S
O72 C71 1.218 . S
C73 O66 1.275 . S
C73 O68 1.255 . S
C74 O75 1.258 . S
C74 O76 1.256 . S
O75 Cd67 2.381 . S
O75 C74 1.258 . S
O76 Cd67 2.378 . S
O76 C74 1.256 . S
O77 Cd78 2.300 . S
O77 C84 1.275 . S
Cd78 O77 2.300 . S
Cd78 O86 2.381 . S
Cd78 O87 2.378 . S
O79 Cd80 2.385 . S
O79 C84 1.255 . S
Cd80 O79 2.385 . S
Cd80 O81 2.317 . S
O81 Cd80 2.317 . S
O81 C82 1.232 . S
C82 O81 1.232 . S
C82 O83 1.218 . S
O83 C82 1.218 . S
C84 O77 1.275 . S
C84 O79 1.255 . S
C85 O86 1.258 . S
C85 O87 1.256 . S
O86 Cd78 2.381 . S
O86 C85 1.258 . S
O87 Cd78 2.378 . S
O87 C85 1.256 . S
O88 Cd89 2.300 . S
O88 C95 1.275 . S
Cd89 O88 2.300 . S
Cd89 O97 2.381 . S
Cd89 O98 2.378 . S
O90 Cd91 2.385 . S
O90 C95 1.255 . S
Cd91 O90 2.385 . S
Cd91 O92 2.317 . S
O92 Cd91 2.317 . S
O92 C93 1.232 . S
C93 O92 1.232 . S
C93 O94 1.218 . S
O94 C93 1.218 . S
C95 O88 1.275 . S
C95 O90 1.255 . S
C96 O97 1.258 . S
C96 O98 1.256 . S
O97 Cd89 2.381 . S
O97 C96 1.258 . S
O98 Cd89 2.378 . S
O98 C96 1.256 . S
O99 Cd100 2.300 . S
O99 C106 1.275 . S
Cd100 O99 2.300 . S
Cd100 O108 2.381 . S
Cd100 O109 2.378 . S
O101 Cd102 2.385 . S
O101 C106 1.255 . S
Cd102 O101 2.385 . S
Cd102 O103 2.317 . S
O103 Cd102 2.317 . S
O103 C104 1.232 . S
C104 O103 1.232 . S
C104 O105 1.218 . S
O105 C104 1.218 . S
C106 O99 1.275 . S
C106 O101 1.255 . S
C107 O108 1.258 . S
C107 O109 1.256 . S
O108 Cd100 2.381 . S
O108 C107 1.258 . S
O109 Cd100 2.378 . S
O109 C107 1.256 . S
O110 Cd111 2.300 . S
O110 C117 1.275 . S
Cd111 O110 2.300 . S
Cd111 O119 2.381 . S
Cd111 O120 2.378 . S
O112 Cd113 2.385 . S
O112 C117 1.255 . S
Cd113 O112 2.385 . S
Cd113 O114 2.317 . S
O114 Cd113 2.317 . S
O114 C115 1.232 . S
C115 O114 1.232 . S
C115 O116 1.218 . S
O116 C115 1.218 . S
C117 O110 1.275 . S
C117 O112 1.255 . S
C118 O119 1.258 . S
C118 O120 1.256 . S
O119 Cd111 2.381 . S
O119 C118 1.258 . S
O120 Cd111 2.378 . S
O120 C118 1.256 . S
O121 Cd122 2.300 . S
O121 C128 1.275 . S
Cd122 O121 2.300 . S
Cd122 O130 2.381 . S
Cd122 O131 2.378 . S
O123 Cd124 2.385 . S
O123 C128 1.255 . S
Cd124 O123 2.385 . S
Cd124 O125 2.317 . S
O125 Cd124 2.317 . S
O125 C126 1.232 . S
C126 O125 1.232 . S
C126 O127 1.218 . S
O127 C126 1.218 . S
C128 O121 1.275 . S
C128 O123 1.255 . S
C129 O130 1.258 . S
C129 O131 1.256 . S
O130 Cd122 2.381 . S
O130 C129 1.258 . S
O131 Cd122 2.378 . S
O131 C129 1.256 . S
O132 Cd133 2.300 . S
O132 C139 1.275 . S
Cd133 O132 2.300 . S
Cd133 O141 2.381 . S
Cd133 O142 2.378 . S
O134 Cd135 2.385 . S
O134 C139 1.255 . S
Cd135 O134 2.385 . S
Cd135 O136 2.317 . S
O136 Cd135 2.317 . S
O136 C137 1.232 . S
C137 O136 1.232 . S
C137 O138 1.218 . S
O138 C137 1.218 . S
C139 O132 1.275 . S
C139 O134 1.255 . S
C140 O141 1.258 . S
C140 O142 1.256 . S
O141 Cd133 2.381 . S
O141 C140 1.258 . S
O142 Cd133 2.378 . S
O142 C140 1.256 . S
O143 Cd144 2.300 . S
O143 C150 1.275 . S
Cd144 O143 2.300 . S
Cd144 O152 2.381 . S
Cd144 O153 2.378 . S
O145 Cd146 2.385 . S
O145 C150 1.255 . S
Cd146 O145 2.385 . S
Cd146 O147 2.317 . S
O147 Cd146 2.317 . S
O147 C148 1.232 . S
C148 O147 1.232 . S
C148 O149 1.218 . S
O149 C148 1.218 . S
C150 O143 1.275 . S
C150 O145 1.255 . S
C151 O152 1.258 . S
C151 O153 1.256 . S
O152 Cd144 2.381 . S
O152 C151 1.258 . S
O153 Cd144 2.378 . S
O153 C151 1.256 . S
O154 Cd155 2.300 . S
O154 C161 1.275 . S
Cd155 O154 2.300 . S
Cd155 O163 2.381 . S
Cd155 O164 2.378 . S
O156 Cd157 2.385 . S
O156 C161 1.255 . S
Cd157 O156 2.385 . S
Cd157 O158 2.317 . S
O158 Cd157 2.317 . S
O158 C159 1.232 . S
C159 O158 1.232 . S
C159 O160 1.218 . S
O160 C159 1.218 . S
C161 O154 1.275 . S
C161 O156 1.255 . S
C162 O163 1.258 . S
C162 O164 1.256 . S
O163 Cd155 2.381 . S
O163 C162 1.258 . S
O164 Cd155 2.378 . S
O164 C162 1.256 . S
O165 Cd166 2.300 . S
O165 C172 1.275 . S
Cd166 O165 2.300 . S
Cd166 O174 2.381 . S
Cd166 O175 2.378 . S
O167 Cd168 2.385 . S
O167 C172 1.255 . S
Cd168 O167 2.385 . S
Cd168 O169 2.317 . S
O169 Cd168 2.317 . S
O169 C170 1.232 . S
C170 O169 1.232 . S
C170 O171 1.218 . S
O171 C170 1.218 . S
C172 O165 1.275 . S
C172 O167 1.255 . S
C173 O174 1.258 . S
C173 O175 1.256 . S
O174 Cd166 2.381 . S
O174 C173 1.258 . S
O175 Cd166 2.378 . S
O175 C173 1.256 . S
O176 Cd177 2.300 . S
O176 C183 1.275 . S
Cd177 O176 2.300 . S
Cd177 O185 2.381 . S
Cd177 O186 2.378 . S
O178 Cd179 2.385 . S
O178 C183 1.255 . S
Cd179 O178 2.385 . S
Cd179 O180 2.317 . S
O180 Cd179 2.317 . S
O180 C181 1.232 . S
C181 O180 1.232 . S
C181 O182 1.218 . S
O182 C181 1.218 . S
C183 O176 1.275 . S
C183 O178 1.255 . S
C184 O185 1.258 . S
C184 O186 1.256 . S
O185 Cd177 2.381 . S
O185 C184 1.258 . S
O186 Cd177 2.378 . S
O186 C184 1.256 . S
O187 Cd188 2.300 . S
O187 C194 1.275 . S
Cd188 O187 2.300 . S
Cd188 O196 2.381 . S
Cd188 O197 2.378 . S
O189 Cd190 2.385 . S
O189 C194 1.255 . S
Cd190 O189 2.385 . S
Cd190 O191 2.317 . S
O191 Cd190 2.317 . S
O191 C192 1.232 . S
C192 O191 1.232 . S
C192 O193 1.218 . S
O193 C192 1.218 . S
C194 O187 1.275 . S
C194 O189 1.255 . S
C195 O196 1.258 . S
C195 O197 1.256 . S
O196 Cd188 2.381 . S
O196 C195 1.258 . S
O197 Cd188 2.378 . S
O197 C195 1.256 . S
C198 Eu199 2.835 . S
C198 C200 1.500 1_545 S
C198 O218 1.257 1_545 S
C198 O219 1.260 . S
Eu199 C198 2.835 . S
Eu199 O218 2.473 1_545 S
Eu199 O219 2.480 . S
Eu199 O220 2.430 . S
Eu199 O221 2.673 . S
Eu199 O222 2.394 1_545 S
Eu199 O227 2.355 1_545 S
Eu199 O229 2.374 . S
C200 C198 1.500 1_565 S
C200 C201 1.377 1_565 S
C200 C205 1.377 . S
C201 C200 1.377 1_545 S
C201 C202 1.395 . S
C201 H230 0.931 . S
C202 C201 1.395 . S
C202 C203 1.383 1_545 S
C202 H231 0.931 . S
C203 C202 1.383 1_565 S
C203 C204 1.394 . S
C204 C203 1.394 . S
C204 C205 1.378 . S
C204 H232 0.931 . S
C205 C200 1.377 . S
C205 C204 1.378 . S
C205 H233 0.931 . S
C206 O220 1.259 . S
C206 O221 1.271 . S
C207 O222 1.251 . S
C207 O223 1.251 1_554 S
C208 Eu209 2.835 1_545 S
C208 C210 1.500 . S
C208 O224 1.257 . S
C208 O225 1.260 1_545 S
Eu209 C208 2.835 1_565 S
Eu209 O221 2.354 1_566 S
Eu209 O223 2.374 . S
Eu209 O224 2.473 1_565 S
Eu209 O225 2.480 . S
Eu209 O226 2.430 . S
Eu209 O227 2.670 1_556 S
Eu209 O228 2.394 1_565 S
C210 C208 1.500 . S
C210 C211 1.377 1_545 S
C210 C215 1.377 . S
C211 C210 1.377 1_565 S
C211 C212 1.382 1_565 S
C211 H234 0.931 . S
C212 C211 1.382 1_545 S
C212 C213 1.441 . S
C212 H235 0.889 1_545 S
C213 C212 1.441 . S
C213 C214 1.394 . S
C214 C213 1.394 . S
C214 C215 1.378 . S
C214 H236 0.931 . S
C215 C210 1.377 . S
C215 C214 1.378 . S
C215 H237 0.931 . S
C216 O226 1.259 1_554 S
C216 O227 1.270 . S
C217 O228 1.251 . S
C217 O229 1.251 1_556 S
O218 C198 1.257 1_565 S
O218 Eu199 2.473 1_565 S
O219 C198 1.260 . S
O219 Eu199 2.480 . S
O220 Eu199 2.430 . S
O220 C206 1.259 . S
O221 Eu199 2.673 . S
O221 C206 1.271 . S
O221 Eu209 2.354 1_544 S
O222 Eu199 2.394 1_565 S
O222 C207 1.251 . S
O223 C207 1.251 1_556 S
O223 Eu209 2.374 . S
O224 C208 1.257 . S
O224 Eu209 2.473 1_545 S
O225 C208 1.260 1_565 S
O225 Eu209 2.480 . S
O226 Eu209 2.430 . S
O226 C216 1.259 1_556 S
O227 Eu199 2.355 1_565 S
O227 Eu209 2.670 1_554 S
O227 C216 1.270 . S
O228 Eu209 2.394 1_545 S
O228 C217 1.251 . S
O229 Eu199 2.374 . S
O229 C217 1.251 1_554 S
H230 C201 0.931 . S
H231 C202 0.931 . S
H232 C204 0.931 . S
H233 C205 0.931 . S
H234 C211 0.931 . S
H235 C212 0.889 1_565 S
H236 C214 0.931 . S
H237 C215 0.931 . S
C238 Eu239 2.835 1_455 S
C238 C240 1.500 . S
C238 O258 1.257 . S
C238 O259 1.260 1_455 S
Eu239 C238 2.835 1_655 S
Eu239 O258 2.473 1_655 S
Eu239 O259 2.480 . S
Eu239 O260 2.430 . S
Eu239 O261 2.670 . S
Eu239 O262 2.394 1_655 S
Eu239 O267 2.355 1_655 S
Eu239 O269 2.374 . S
C240 C238 1.500 . S
C240 C241 1.377 . S
C240 C245 1.377 . S
C241 C240 1.377 . S
C241 C242 1.395 . S
C241 H270 0.931 1_455 S
C242 C241 1.395 . S
C242 C243 1.383 . S
C242 H271 0.931 . S
C243 C242 1.383 . S
C243 C244 1.394 . S
C244 C243 1.394 . S
C244 C245 1.378 . S
C244 H272 0.931 . S
C245 C240 1.377 . S
C245 C244 1.378 . S
C245 H273 0.931 . S
C246 O260 1.259 . S
C246 O261 1.270 . S
C247 O262 1.251 . S
C247 O263 1.251 . S
C248 Eu249 2.835 1_655 S
C248 C250 1.500 . S
C248 O264 1.257 . S
C248 O265 1.260 1_655 S
Eu249 C248 2.835 1_455 S
Eu249 O261 2.355 1_456 S
Eu249 O263 2.374 1_556 S
Eu249 O264 2.473 1_455 S
Eu249 O265 2.480 . S
Eu249 O266 2.445 . S
Eu249 O267 2.670 1_556 S
Eu249 O268 2.394 1_455 S
C250 C248 1.500 . S
C250 C251 1.377 . S
C250 C255 1.377 . S
C251 C250 1.377 . S
C251 C252 1.395 . S
C251 H274 0.931 1_655 S
C252 C251 1.395 . S
C252 C253 1.383 . S
C252 H275 0.931 . S
C253 C252 1.383 . S
C253 C254 1.394 . S
C254 C253 1.394 . S
C254 C255 1.378 . S
C254 H276 0.931 . S
C255 C250 1.377 . S
C255 C254 1.378 . S
C255 H277 0.931 . S
C256 O266 1.187 1_554 S
C256 O267 1.270 . S
C257 O268 1.260 . S
C257 O269 1.235 1_556 S
O258 C238 1.257 . S
O258 Eu239 2.473 1_455 S
O259 C238 1.260 1_655 S
O259 Eu239 2.480 . S
O260 Eu239 2.430 . S
O260 C246 1.259 . S
O261 Eu239 2.670 . S
O261 C246 1.270 . S
O261 Eu249 2.355 1_654 S
O262 Eu239 2.394 1_455 S
O262 C247 1.251 . S
O263 C247 1.251 . S
O263 Eu249 2.374 1_554 S
O264 C248 1.257 . S
O264 Eu249 2.473 1_655 S
O265 C248 1.260 1_455 S
O265 Eu249 2.480 . S
O266 Eu249 2.445 . S
O266 C256 1.187 1_556 S
O267 Eu239 2.355 1_455 S
O267 Eu249 2.670 1_554 S
O267 C256 1.270 . S
O268 Eu249 2.394 1_655 S
O268 C257 1.260 . S
O269 Eu239 2.374 . S
O269 C257 1.235 1_554 S
H270 C241 0.931 1_655 S
H271 C242 0.931 . S
H272 C244 0.931 . S
H273 C245 0.931 . S
H274 C251 0.931 1_455 S
H275 C252 0.931 . S
H276 C254 0.931 . S
H277 C255 0.931 . S
C278 Eu279 2.835 . S
C278 C280 1.500 . S
C278 O298 1.257 . S
C278 O299 1.260 . S
Eu279 C278 2.835 . S
Eu279 O298 2.473 . S
Eu279 O299 2.480 . S
Eu279 O300 2.430 . S
Eu279 O301 2.670 1_556 S
Eu279 O302 2.394 . S
Eu279 O307 2.355 . S
Eu279 O309 2.374 . S
C280 C278 1.500 . S
C280 C281 1.377 . S
C280 C285 1.377 . S
C281 C280 1.377 . S
C281 C282 1.395 . S
C281 H310 0.931 . S
C282 C281 1.395 . S
C282 C283 1.383 . S
C282 H311 0.931 . S
C283 C282 1.383 . S
C283 C284 1.394 . S
C284 C283 1.394 . S
C284 C285 1.378 . S
C284 H312 0.931 . S
C285 C280 1.377 . S
C285 C284 1.378 . S
C285 H313 0.931 . S
C286 O300 1.259 1_554 S
C286 O301 1.270 . S
C287 O302 1.251 . S
C287 O303 1.251 1_556 S
C288 Eu289 2.835 . S
C288 C290 1.500 . S
C288 O304 1.257 . S
C288 O305 1.260 . S
Eu289 C288 2.835 . S
Eu289 O301 2.355 . S
Eu289 O303 2.374 . S
Eu289 O304 2.473 . S
Eu289 O305 2.480 . S
Eu289 O306 2.430 . S
Eu289 O307 2.670 1_554 S
Eu289 O308 2.394 . S
C290 C288 1.500 . S
C290 C291 1.377 . S
C290 C295 1.377 . S
C291 C290 1.377 . S
C291 C292 1.395 . S
C291 H314 0.931 . S
C292 C291 1.395 . S
C292 C293 1.383 . S
C292 H315 0.931 . S
C293 C292 1.383 . S
C293 C294 1.394 . S
C294 C293 1.394 . S
C294 C295 1.378 . S
C294 H316 0.931 . S
C295 C290 1.377 . S
C295 C294 1.378 . S
C295 H317 0.931 . S
C296 O306 1.259 . S
C296 O307 1.270 1_554 S
C297 O308 1.251 . S
C297 O309 1.251 1_554 S
O298 C278 1.257 . S
O298 Eu279 2.473 . S
O299 C278 1.260 . S
O299 Eu279 2.480 . S
O300 Eu279 2.430 . S
O300 C286 1.259 1_556 S
O301 Eu279 2.670 1_554 S
O301 C286 1.270 . S
O301 Eu289 2.355 . S
O302 Eu279 2.394 . S
O302 C287 1.251 . S
O303 C287 1.251 1_554 S
O303 Eu289 2.374 . S
O304 C288 1.257 . S
O304 Eu289 2.473 . S
O305 C288 1.260 . S
O305 Eu289 2.480 . S
O306 Eu289 2.430 . S
O306 C296 1.259 . S
O307 Eu279 2.355 . S
O307 Eu289 2.670 1_556 S
O307 C296 1.270 1_556 S
O308 Eu289 2.394 . S
O308 C297 1.251 . S
O309 Eu279 2.374 . S
O309 C297 1.251 1_556 S
H310 C281 0.931 . S
H311 C282 0.931 . S
H312 C284 0.931 . S
H313 C285 0.931 . S
H314 C291 0.931 . S
H315 C292 0.931 . S
H316 C294 0.931 . S
H317 C295 0.931 . S
C318 Eu319 2.835 . S
C318 C320 1.500 . S
C318 O338 1.257 . S
C318 O339 1.260 . S
Eu319 C318 2.835 . S
Eu319 O338 2.473 . S
Eu319 O339 2.480 . S
Eu319 O340 2.430 . S
Eu319 O341 2.670 . S
Eu319 O342 2.394 . S
Eu319 O347 2.355 . S
Eu319 O349 2.374 . S
C320 C318 1.500 . S
C320 C321 1.377 . S
C320 C325 1.377 . S
C321 C320 1.377 . S
C321 C322 1.395 . S
C321 H350 0.931 . S
C322 C321 1.395 . S
C322 C323 1.383 . S
C322 H351 0.931 . S
C323 C322 1.383 . S
C323 C324 1.394 . S
C324 C323 1.394 . S
C324 C325 1.378 . S
C324 H352 0.931 . S
C325 C320 1.377 . S
C325 C324 1.378 . S
C325 H353 0.931 . S
C326 O340 1.259 . S
C326 O341 1.270 . S
C327 O342 1.251 . S
C327 O343 1.251 . S
C328 Eu329 2.835 . S
C328 C330 1.500 . S
C328 O344 1.257 . S
C328 O345 1.260 . S
Eu329 C328 2.835 . S
Eu329 O341 2.355 . S
Eu329 O343 2.374 . S
Eu329 O344 2.473 . S
Eu329 O345 2.480 . S
Eu329 O346 2.430 . S
Eu329 O347 2.670 . S
Eu329 O348 2.394 . S
C330 C328 1.500 . S
C330 C331 1.377 . S
C330 C335 1.377 . S
C331 C330 1.377 . S
C331 C332 1.395 . S
C331 H354 0.931 . S
C332 C331 1.395 . S
C332 C333 1.383 . S
C332 H355 0.931 . S
C333 C332 1.383 . S
C333 C334 1.394 . S
C334 C333 1.394 . S
C334 C335 1.378 . S
C334 H356 0.931 . S
C335 C330 1.377 . S
C335 C334 1.378 . S
C335 H357 0.931 . S
C336 O346 1.259 . S
C336 O347 1.270 . S
C337 O348 1.251 . S
C337 O349 1.251 . S
O338 C318 1.257 . S
O338 Eu319 2.473 . S
O339 C318 1.260 . S
O339 Eu319 2.480 . S
O340 Eu319 2.430 . S
O340 C326 1.259 . S
O341 Eu319 2.670 . S
O341 C326 1.270 . S
O341 Eu329 2.355 . S
O342 Eu319 2.394 . S
O342 C327 1.251 . S
O343 C327 1.251 . S
O343 Eu329 2.374 . S
O344 C328 1.257 . S
O344 Eu329 2.473 . S
O345 C328 1.260 . S
O345 Eu329 2.480 . S
O346 Eu329 2.430 . S
O346 C336 1.259 . S
O347 Eu319 2.355 . S
O347 Eu329 2.670 . S
O347 C336 1.270 . S
O348 Eu329 2.394 . S
O348 C337 1.251 . S
O349 Eu319 2.374 . S
O349 C337 1.251 . S
H350 C321 0.931 . S
H351 C322 0.931 . S
H352 C324 0.931 . S
H353 C325 0.931 . S
H354 C331 0.931 . S
H355 C332 0.931 . S
H356 C334 0.931 . S
H357 C335 0.931 . S
C358 Eu359 2.835 . S
C358 C360 1.500 . S
C358 O378 1.257 . S
C358 O379 1.260 . S
Eu359 C358 2.835 . S
Eu359 O378 2.473 . S
Eu359 O379 2.480 . S
Eu359 O380 2.430 . S
Eu359 O381 2.670 . S
Eu359 O382 2.394 . S
Eu359 O387 2.355 . S
Eu359 O389 2.374 . S
C360 C358 1.500 . S
C360 C361 1.377 . S
C360 C365 1.377 . S
C361 C360 1.377 . S
C361 C362 1.395 . S
C361 H390 0.931 . S
C362 C361 1.395 . S
C362 C363 1.383 . S
C362 H391 0.931 . S
C363 C362 1.383 . S
C363 C364 1.394 . S
C364 C363 1.394 . S
C364 C365 1.378 . S
C364 H392 0.931 . S
C365 C360 1.377 . S
C365 C364 1.378 . S
C365 H393 0.931 . S
C366 O380 1.259 . S
C366 O381 1.270 . S
C367 O382 1.251 . S
C367 O383 1.251 . S
C368 Eu369 2.835 . S
C368 C370 1.500 . S
C368 O384 1.257 . S
C368 O385 1.260 . S
Eu369 C368 2.835 . S
Eu369 O381 2.355 . S
Eu369 O383 2.374 . S
Eu369 O384 2.473 . S
Eu369 O385 2.480 . S
Eu369 O386 2.430 . S
Eu369 O387 2.670 . S
Eu369 O388 2.394 . S
C370 C368 1.500 . S
C370 C371 1.377 . S
C370 C375 1.377 . S
C371 C370 1.377 . S
C371 C372 1.395 . S
C371 H394 0.931 . S
C372 C371 1.395 . S
C372 C373 1.383 . S
C372 H395 0.931 . S
C373 C372 1.383 . S
C373 C374 1.394 . S
C374 C373 1.394 . S
C374 C375 1.378 . S
C374 H396 0.931 . S
C375 C370 1.377 . S
C375 C374 1.378 . S
C375 H397 0.931 . S
C376 O386 1.259 . S
C376 O387 1.270 . S
C377 O388 1.251 . S
C377 O389 1.251 . S
O378 C358 1.257 . S
O378 Eu359 2.473 . S
O379 C358 1.260 . S
O379 Eu359 2.480 . S
O380 Eu359 2.430 . S
O380 C366 1.259 . S
O381 Eu359 2.670 . S
O381 C366 1.270 . S
O381 Eu369 2.355 . S
O382 Eu359 2.394 . S
O382 C367 1.251 . S
O383 C367 1.251 . S
O383 Eu369 2.374 . S
O384 C368 1.257 . S
O384 Eu369 2.473 . S
O385 C368 1.260 . S
O385 Eu369 2.480 . S
O386 Eu369 2.430 . S
O386 C376 1.259 . S
O387 Eu359 2.355 . S
O387 Eu369 2.670 . S
O387 C376 1.270 . S
O388 Eu369 2.394 . S
O388 C377 1.251 . S
O389 Eu359 2.374 . S
O389 C377 1.251 . S
H390 C361 0.931 . S
H391 C362 0.931 . S
H392 C364 0.931 . S
H393 C365 0.931 . S
H394 C371 0.931 . S
H395 C372 0.931 . S
H396 C374 0.931 . S
H397 C375 0.931 . S
C398 Eu399 2.835 . S
C398 C400 1.500 . S
C398 O418 1.257 . S
C398 O419 1.260 . S
Eu399 C398 2.835 . S
Eu399 O418 2.473 . S
Eu399 O419 2.480 . S
Eu399 O420 2.430 . S
Eu399 O421 2.670 . S
Eu399 O422 2.394 . S
Eu399 O427 2.355 . S
Eu399 O429 2.374 . S
C400 C398 1.500 . S
C400 C401 1.377 . S
C400 C405 1.377 . S
C401 C400 1.377 . S
C401 C402 1.395 . S
C401 H430 0.931 . S
C402 C401 1.395 . S
C402 C403 1.383 . S
C402 H431 0.931 . S
C403 C402 1.383 . S
C403 C404 1.394 . S
C404 C403 1.394 . S
C404 C405 1.378 . S
C404 H432 0.931 . S
C405 C400 1.377 . S
C405 C404 1.378 . S
C405 H433 0.931 . S
C406 O420 1.259 . S
C406 O421 1.270 . S
C407 O422 1.251 . S
C407 O423 1.251 . S
C408 Eu409 2.835 . S
C408 C410 1.500 . S
C408 O424 1.257 . S
C408 O425 1.260 . S
Eu409 C408 2.835 . S
Eu409 O421 2.355 . S
Eu409 O423 2.374 . S
Eu409 O424 2.473 . S
Eu409 O425 2.480 . S
Eu409 O426 2.430 . S
Eu409 O427 2.670 . S
Eu409 O428 2.394 . S
C410 C408 1.500 . S
C410 C411 1.377 . S
C410 C415 1.377 . S
C411 C410 1.377 . S
C411 C412 1.395 . S
C411 H434 0.931 . S
C412 C411 1.395 . S
C412 C413 1.383 . S
C412 H435 0.931 . S
C413 C412 1.383 . S
C413 C414 1.394 . S
C414 C413 1.394 . S
C414 C415 1.378 . S
C414 H436 0.931 . S
C415 C410 1.377 . S
C415 C414 1.378 . S
C415 H437 0.931 . S
C416 O426 1.259 . S
C416 O427 1.270 . S
C417 O428 1.251 . S
C417 O429 1.251 . S
O418 C398 1.257 . S
O418 Eu399 2.473 . S
O419 C398 1.260 . S
O419 Eu399 2.480 . S
O420 Eu399 2.430 . S
O420 C406 1.259 . S
O421 Eu399 2.670 . S
O421 C406 1.270 . S
O421 Eu409 2.355 . S
O422 Eu399 2.394 . S
O422 C407 1.251 . S
O423 C407 1.251 . S
O423 Eu409 2.374 . S
O424 C408 1.257 . S
O424 Eu409 2.473 . S
O425 C408 1.260 . S
O425 Eu409 2.480 . S
O426 Eu409 2.430 . S
O426 C416 1.259 . S
O427 Eu399 2.355 . S
O427 Eu409 2.670 . S
O427 C416 1.270 . S
O428 Eu409 2.394 . S
O428 C417 1.251 . S
O429 Eu399 2.374 . S
O429 C417 1.251 . S
H430 C401 0.931 . S
H431 C402 0.931 . S
H432 C404 0.931 . S
H433 C405 0.931 . S
H434 C411 0.931 . S
H435 C412 0.931 . S
H436 C414 0.931 . S
H437 C415 0.931 . S
C438 Eu439 2.835 . S
C438 C440 1.500 . S
C438 O458 1.257 . S
C438 O459 1.260 . S
Eu439 C438 2.835 . S
Eu439 O458 2.473 . S
Eu439 O459 2.480 . S
Eu439 O460 2.430 . S
Eu439 O461 2.670 . S
Eu439 O462 2.394 . S
Eu439 O467 2.355 . S
Eu439 O469 2.374 . S
C440 C438 1.500 . S
C440 C441 1.377 . S
C440 C445 1.377 . S
C441 C440 1.377 . S
C441 C442 1.395 . S
C441 H470 0.931 . S
C442 C441 1.395 . S
C442 C443 1.383 . S
C442 H471 0.931 . S
C443 C442 1.383 . S
C443 C444 1.394 . S
C444 C443 1.394 . S
C444 C445 1.378 . S
C444 H472 0.931 . S
C445 C440 1.377 . S
C445 C444 1.378 . S
C445 H473 0.931 . S
C446 O460 1.259 . S
C446 O461 1.270 . S
C447 O462 1.251 . S
C447 O463 1.251 . S
C448 Eu449 2.835 . S
C448 C450 1.500 . S
C448 O464 1.257 . S
C448 O465 1.260 . S
Eu449 C448 2.835 . S
Eu449 O461 2.355 . S
Eu449 O463 2.374 . S
Eu449 O464 2.473 . S
Eu449 O465 2.480 . S
Eu449 O466 2.430 . S
Eu449 O467 2.670 . S
Eu449 O468 2.394 . S
C450 C448 1.500 . S
C450 C451 1.377 . S
C450 C455 1.377 . S
C451 C450 1.377 . S
C451 C452 1.395 . S
C451 H474 0.931 . S
C452 C451 1.395 . S
C452 C453 1.383 . S
C452 H475 0.931 . S
C453 C452 1.383 . S
C453 C454 1.394 . S
C454 C453 1.394 . S
C454 C455 1.378 . S
C454 H476 0.931 . S
C455 C450 1.377 . S
C455 C454 1.378 . S
C455 H477 0.931 . S
C456 O466 1.259 . S
C456 O467 1.270 . S
C457 O468 1.251 . S
C457 O469 1.251 . S
O458 C438 1.257 . S
O458 Eu439 2.473 . S
O459 C438 1.260 . S
O459 Eu439 2.480 . S
O460 Eu439 2.430 . S
O460 C446 1.259 . S
O461 Eu439 2.670 . S
O461 C446 1.270 . S
O461 Eu449 2.355 . S
O462 Eu439 2.394 . S
O462 C447 1.251 . S
O463 C447 1.251 . S
O463 Eu449 2.374 . S
O464 C448 1.257 . S
O464 Eu449 2.473 . S
O465 C448 1.260 . S
O465 Eu449 2.480 . S
O466 Eu449 2.430 . S
O466 C456 1.259 . S
O467 Eu439 2.355 . S
O467 Eu449 2.670 . S
O467 C456 1.270 . S
O468 Eu449 2.394 . S
O468 C457 1.251 . S
O469 Eu439 2.374 . S
O469 C457 1.251 . S
H470 C441 0.931 . S
H471 C442 0.931 . S
H472 C444 0.931 . S
H473 C445 0.931 . S
H474 C451 0.931 . S
H475 C452 0.931 . S
H476 C454 0.931 . S
H477 C455 0.931 . S
C478 Eu479 2.835 . S
C478 C480 1.500 . S
C478 O498 1.257 . S
C478 O499 1.260 . S
Eu479 C478 2.835 . S
Eu479 O498 2.473 . S
Eu479 O499 2.480 . S
Eu479 O500 2.430 . S
Eu479 O501 2.670 . S
Eu479 O502 2.394 . S
Eu479 O507 2.355 . S
Eu479 O509 2.374 . S
C480 C478 1.500 . S
C480 C481 1.377 . S
C480 C485 1.377 . S
C481 C480 1.377 . S
C481 C482 1.395 . S
C481 H510 0.931 . S
C482 C481 1.395 . S
C482 C483 1.383 . S
C482 H511 0.931 . S
C483 C482 1.383 . S
C483 C484 1.394 . S
C484 C483 1.394 . S
C484 C485 1.378 . S
C484 H512 0.931 . S
C485 C480 1.377 . S
C485 C484 1.378 . S
C485 H513 0.931 . S
C486 O500 1.259 . S
C486 O501 1.270 . S
C487 O502 1.251 . S
C487 O503 1.251 . S
C488 Eu489 2.835 . S
C488 C490 1.500 . S
C488 O504 1.257 . S
C488 O505 1.260 . S
Eu489 C488 2.835 . S
Eu489 O501 2.355 . S
Eu489 O503 2.374 . S
Eu489 O504 2.473 . S
Eu489 O505 2.480 . S
Eu489 O506 2.430 . S
Eu489 O507 2.670 . S
Eu489 O508 2.394 . S
C490 C488 1.500 . S
C490 C491 1.377 . S
C490 C495 1.377 . S
C491 C490 1.377 . S
C491 C492 1.395 . S
C491 H514 0.931 . S
C492 C491 1.395 . S
C492 C493 1.383 . S
C492 H515 0.931 . S
C493 C492 1.383 . S
C493 C494 1.394 . S
C494 C493 1.394 . S
C494 C495 1.378 . S
C494 H516 0.931 . S
C495 C490 1.377 . S
C495 C494 1.378 . S
C495 H517 0.931 . S
C496 O506 1.259 . S
C496 O507 1.270 . S
C497 O508 1.251 . S
C497 O509 1.251 . S
O498 C478 1.257 . S
O498 Eu479 2.473 . S
O499 C478 1.260 . S
O499 Eu479 2.480 . S
O500 Eu479 2.430 . S
O500 C486 1.259 . S
O501 Eu479 2.670 . S
O501 C486 1.270 . S
O501 Eu489 2.355 . S
O502 Eu479 2.394 . S
O502 C487 1.251 . S
O503 C487 1.251 . S
O503 Eu489 2.374 . S
O504 C488 1.257 . S
O504 Eu489 2.473 . S
O505 C488 1.260 . S
O505 Eu489 2.480 . S
O506 Eu489 2.430 . S
O506 C496 1.259 . S
O507 Eu479 2.355 . S
O507 Eu489 2.670 . S
O507 C496 1.270 . S
O508 Eu489 2.394 . S
O508 C497 1.251 . S
O509 Eu479 2.374 . S
O509 C497 1.251 . S
H510 C481 0.931 . S
H511 C482 0.931 . S
H512 C484 0.931 . S
H513 C485 0.931 . S
H514 C491 0.931 . S
H515 C492 0.931 . S
H516 C494 0.931 . S
H517 C495 0.931 . S
C518 Eu519 2.835 . S
C518 C520 1.500 . S
C518 O538 1.257 . S
C518 O539 1.260 . S
Eu519 C518 2.835 . S
Eu519 O538 2.473 . S
Eu519 O539 2.480 . S
Eu519 O540 2.430 . S
Eu519 O541 2.670 . S
Eu519 O542 2.394 . S
Eu519 O547 2.355 . S
Eu519 O549 2.374 . S
C520 C518 1.500 . S
C520 C521 1.377 . S
C520 C525 1.377 . S
C521 C520 1.377 . S
C521 C522 1.395 . S
C521 H550 0.931 . S
C522 C521 1.395 . S
C522 C523 1.383 . S
C522 H551 0.931 . S
C523 C522 1.383 . S
C523 C524 1.394 . S
C524 C523 1.394 . S
C524 C525 1.378 . S
C524 H552 0.931 . S
C525 C520 1.377 . S
C525 C524 1.378 . S
C525 H553 0.931 . S
C526 O540 1.259 . S
C526 O541 1.270 . S
C527 O542 1.251 . S
C527 O543 1.251 . S
C528 Eu529 2.835 . S
C528 C530 1.500 . S
C528 O544 1.257 . S
C528 O545 1.260 . S
Eu529 C528 2.835 . S
Eu529 O541 2.355 . S
Eu529 O543 2.374 . S
Eu529 O544 2.473 . S
Eu529 O545 2.480 . S
Eu529 O546 2.430 . S
Eu529 O547 2.670 . S
Eu529 O548 2.394 . S
C530 C528 1.500 . S
C530 C531 1.377 . S
C530 C535 1.377 . S
C531 C530 1.377 . S
C531 C532 1.395 . S
C531 H554 0.931 . S
C532 C531 1.395 . S
C532 C533 1.383 . S
C532 H555 0.931 . S
C533 C532 1.383 . S
C533 C534 1.394 . S
C534 C533 1.394 . S
C534 C535 1.378 . S
C534 H556 0.931 . S
C535 C530 1.377 . S
C535 C534 1.378 . S
C535 H557 0.931 . S
C536 O546 1.259 . S
C536 O547 1.270 . S
C537 O548 1.251 . S
C537 O549 1.251 . S
O538 C518 1.257 . S
O538 Eu519 2.473 . S
O539 C518 1.260 . S
O539 Eu519 2.480 . S
O540 Eu519 2.430 . S
O540 C526 1.259 . S
O541 Eu519 2.670 . S
O541 C526 1.270 . S
O541 Eu529 2.355 . S
O542 Eu519 2.394 . S
O542 C527 1.251 . S
O543 C527 1.251 . S
O543 Eu529 2.374 . S
O544 C528 1.257 . S
O544 Eu529 2.473 . S
O545 C528 1.260 . S
O545 Eu529 2.480 . S
O546 Eu529 2.430 . S
O546 C536 1.259 . S
O547 Eu519 2.355 . S
O547 Eu529 2.670 . S
O547 C536 1.270 . S
O548 Eu529 2.394 . S
O548 C537 1.251 . S
O549 Eu519 2.374 . S
O549 C537 1.251 . S
H550 C521 0.931 . S
H551 C522 0.931 . S
H552 C524 0.931 . S
H553 C525 0.931 . S
H554 C531 0.931 . S
H555 C532 0.931 . S
H556 C534 0.931 . S
H557 C535 0.931 . S
H558 C576 0.951 . S
H559 C578 0.951 . S
H560 C580 0.950 . S
H561 C581 0.950 . S
H562 C583 0.950 . S
H563 C586 0.950 . S
H564 C587 0.950 . S
H565 C589 0.950 . S
H566 C590 0.950 . S
H567 C591 0.951 . S
H568 C593 0.951 . S
H569 C595 0.950 . S
H570 C596 0.950 . S
H571 C598 0.950 . S
H572 C601 0.950 . S
H573 C602 0.950 . S
H574 C604 0.950 . S
H575 C605 0.950 . S
C576 H558 0.951 . S
C576 C577 1.366 . S
C576 C578 1.388 . S
C577 C576 1.366 . S
C577 C581 1.385 . S
C578 H559 0.951 . S
C578 C576 1.388 . S
C578 C579 1.366 . S
C579 C578 1.366 . S
C579 C580 1.414 . S
C579 C582 1.499 . S
C580 H560 0.950 . S
C580 C579 1.414 . S
C580 C581 1.374 . S
C581 H561 0.950 . S
C581 C577 1.385 . S
C581 C580 1.374 . S
C582 C579 1.499 . S
C582 C583 1.373 . S
C582 C584 1.389 . S
C583 H562 0.950 . S
C583 C582 1.373 . S
C583 C599 1.377 . S
C584 C582 1.389 . S
C584 C585 1.524 . S
C584 C598 1.377 . S
C585 C584 1.524 . S
C585 C586 1.397 . S
C585 C590 1.363 . S
C586 H563 0.950 . S
C586 C585 1.397 . S
C586 C587 1.334 . S
C587 H564 0.950 . S
C587 C586 1.334 . S
C587 C588 1.287 . S
C588 C587 1.287 . S
C588 C589 1.524 . S
C588 H607 0.913 . S
C589 H565 0.950 . S
C589 C588 1.524 . S
C589 C590 1.415 . S
C590 H566 0.950 . S
C590 C585 1.363 . S
C590 C589 1.415 . S
C591 H567 0.951 . S
C591 C592 1.366 . S
C591 C593 1.388 . S
C592 C591 1.366 . S
C592 C596 1.385 . S
C593 H568 0.951 . S
C593 C591 1.388 . S
C593 C594 1.366 . S
C594 C593 1.366 . S
C594 C595 1.414 . S
C594 C597 1.499 . S
C595 H569 0.950 . S
C595 C594 1.414 . S
C595 C596 1.374 . S
C596 H570 0.950 . S
C596 C592 1.385 . S
C596 C595 1.374 . S
C597 C594 1.499 . S
C597 C598 1.373 . S
C597 C599 1.389 . S
C598 H571 0.950 . S
C598 C584 1.377 . S
C598 C597 1.373 . S
C599 C583 1.377 . S
C599 C597 1.389 . S
C599 C600 1.524 1_554 S
C600 C599 1.524 1_556 S
C600 C601 1.397 . S
C600 C605 1.363 . S
C601 H572 0.950 . S
C601 C600 1.397 . S
C601 C602 1.334 . S
C602 H573 0.950 . S
C602 C601 1.334 . S
C602 C603 1.287 . S
C603 C602 1.287 . S
C603 C604 1.524 . S
C603 H606 0.999 . S
C604 H574 0.950 . S
C604 C603 1.524 . S
C604 C605 1.415 . S
C605 H575 0.950 . S
C605 C600 1.363 . S
C605 C604 1.415 . S
H606 C603 0.999 . S
H607 C588 0.913 . S
H608 C626 0.951 . S
H609 C628 0.951 . S
H610 C630 0.950 . S
H611 C631 0.950 . S
H612 C633 0.950 . S
H613 C636 0.950 . S
H614 C637 0.950 . S
H615 C639 0.950 . S
H616 C640 0.950 . S
H617 C641 0.951 . S
H618 C643 0.951 . S
H619 C645 0.950 . S
H620 C646 0.950 . S
H621 C648 0.950 . S
H622 C651 0.950 . S
H623 C652 0.950 . S
H624 C654 0.950 . S
H625 C655 0.950 . S
C626 H608 0.951 . S
C626 C627 1.366 . S
C626 C628 1.388 . S
C627 C626 1.366 . S
C627 C631 1.385 . S
C628 H609 0.951 . S
C628 C626 1.388 . S
C628 C629 1.366 . S
C629 C628 1.366 . S
C629 C630 1.414 . S
C629 C632 1.499 . S
C630 H610 0.950 . S
C630 C629 1.414 . S
C630 C631 1.374 . S
C631 H611 0.950 . S
C631 C627 1.385 . S
C631 C630 1.374 . S
C632 C629 1.499 . S
C632 C633 1.373 . S
C632 C634 1.389 . S
C633 H612 0.950 . S
C633 C632 1.373 . S
C633 C649 1.377 . S
C634 C632 1.389 . S
C634 C635 1.524 . S
C634 C648 1.377 . S
C635 C634 1.524 . S
C635 C636 1.397 . S
C635 C640 1.363 . S
C636 H613 0.950 . S
C636 C635 1.397 . S
C636 C637 1.334 . S
C637 H614 0.950 . S
C637 C636 1.334 . S
C637 C638 1.287 . S
C638 C637 1.287 . S
C638 C639 1.524 . S
C638 H657 0.913 . S
C639 H615 0.950 . S
C639 C638 1.524 . S
C639 C640 1.415 . S
C640 H616 0.950 . S
C640 C635 1.363 . S
C640 C639 1.415 . S
C641 H617 0.951 . S
C641 C642 1.366 . S
C641 C643 1.388 . S
C642 C641 1.366 . S
C642 C646 1.385 . S
C643 H618 0.951 . S
C643 C641 1.388 . S
C643 C644 1.366 . S
C644 C643 1.366 . S
C644 C645 1.414 . S
C644 C647 1.499 . S
C645 H619 0.950 . S
C645 C644 1.414 . S
C645 C646 1.374 . S
C646 H620 0.950 . S
C646 C642 1.385 . S
C646 C645 1.374 . S
C647 C644 1.499 . S
C647 C648 1.373 . S
C647 C649 1.389 . S
C648 H621 0.950 . S
C648 C634 1.377 . S
C648 C647 1.373 . S
C649 C633 1.377 . S
C649 C647 1.389 . S
C649 C650 1.524 . S
C650 C649 1.524 . S
C650 C651 1.397 . S
C650 C655 1.363 . S
C651 H622 0.950 . S
C651 C650 1.397 . S
C651 C652 1.334 . S
C652 H623 0.950 . S
C652 C651 1.334 . S
C652 C653 1.287 . S
C653 C652 1.287 . S
C653 C654 1.524 . S
C653 H656 0.999 . S
C654 H624 0.950 . S
C654 C653 1.524 . S
C654 C655 1.415 . S
C655 H625 0.950 . S
C655 C650 1.363 . S
C655 C654 1.415 . S
H656 C653 0.999 . S
H657 C638 0.913 . S
H658 C676 0.951 . S
H659 C678 0.951 . S
H660 C680 0.950 . S
H661 C681 0.950 . S
H662 C683 0.950 . S
H663 C686 0.950 . S
H664 C687 0.950 . S
H665 C689 0.950 . S
H666 C690 0.950 . S
H667 C691 0.951 1_556 S
H668 C693 0.951 1_556 S
H669 C695 0.950 . S
H670 C696 0.950 . S
H671 C698 0.950 . S
H672 C701 0.950 . S
H673 C702 0.950 . S
H674 C704 0.950 . S
H675 C705 0.950 . S
C676 H658 0.951 . S
C676 C677 1.366 . S
C676 C678 1.388 . S
C677 C676 1.366 . S
C677 C681 1.385 . S
C678 H659 0.951 . S
C678 C676 1.388 . S
C678 C679 1.366 . S
C679 C678 1.366 . S
C679 C680 1.414 . S
C679 C682 1.499 . S
C680 H660 0.950 . S
C680 C679 1.414 . S
C680 C681 1.374 . S
C681 H661 0.950 . S
C681 C677 1.385 . S
C681 C680 1.374 . S
C682 C679 1.499 . S
C682 C683 1.373 . S
C682 C684 1.389 . S
C683 H662 0.950 . S
C683 C682 1.373 . S
C683 C699 1.377 . S
C684 C682 1.389 . S
C684 C685 1.524 . S
C684 C698 1.377 . S
C685 C684 1.524 . S
C685 C686 1.397 . S
C685 C690 1.363 . S
C686 H663 0.950 . S
C686 C685 1.397 . S
C686 C687 1.334 . S
C687 H664 0.950 . S
C687 C686 1.334 . S
C687 C688 1.287 . S
C688 C687 1.287 . S
C688 C689 1.524 . S
C688 H707 0.913 . S
C689 H665 0.950 . S
C689 C688 1.524 . S
C689 C690 1.415 . S
C690 H666 0.950 . S
C690 C685 1.363 . S
C690 C689 1.415 . S
C691 H667 0.951 1_554 S
C691 C692 1.366 . S
C691 C693 1.388 . S
C692 C691 1.366 . S
C692 C696 1.385 . S
C693 H668 0.951 1_554 S
C693 C691 1.388 . S
C693 C694 1.366 . S
C694 C693 1.366 . S
C694 C695 1.414 . S
C694 C697 1.499 . S
C695 H669 0.950 . S
C695 C694 1.414 . S
C695 C696 1.374 . S
C696 H670 0.950 . S
C696 C692 1.385 . S
C696 C695 1.374 . S
C697 C694 1.499 . S
C697 C698 1.373 . S
C697 C699 1.389 . S
C698 H671 0.950 . S
C698 C684 1.377 . S
C698 C697 1.373 . S
C699 C683 1.377 . S
C699 C697 1.389 . S
C699 C700 1.524 . S
C700 C699 1.524 . S
C700 C701 1.397 . S
C700 C705 1.363 . S
C701 H672 0.950 . S
C701 C700 1.397 . S
C701 C702 1.334 . S
C702 H673 0.950 . S
C702 C701 1.334 . S
C702 C703 1.287 . S
C703 C702 1.287 . S
C703 C704 1.524 . S
C703 H706 0.999 . S
C704 H674 0.950 . S
C704 C703 1.524 . S
C704 C705 1.415 . S
C705 H675 0.950 . S
C705 C700 1.363 . S
C705 C704 1.415 . S
H706 C703 0.999 . S
H707 C688 0.913 . S
H708 C726 0.951 . S
H709 C728 0.951 . S
H710 C730 0.950 . S
H711 C731 0.950 . S
H712 C733 0.950 . S
H713 C736 0.950 . S
H714 C737 0.950 . S
H715 C739 0.950 . S
H716 C740 0.950 . S
H717 C741 0.951 . S
H718 C743 0.951 . S
H719 C745 0.953 . S
H720 C746 0.950 . S
H721 C748 0.950 . S
H722 C751 0.950 . S
H723 C752 0.950 . S
H724 C754 0.950 . S
H725 C755 0.950 . S
C726 H708 0.951 . S
C726 C727 1.366 . S
C726 C728 1.388 . S
C727 C726 1.366 . S
C727 C731 1.385 . S
C728 H709 0.951 . S
C728 C726 1.388 . S
C728 C729 1.366 . S
C729 C728 1.366 . S
C729 C730 1.414 . S
C729 C732 1.499 . S
C730 H710 0.950 . S
C730 C729 1.414 . S
C730 C731 1.374 . S
C731 H711 0.950 . S
C731 C727 1.385 . S
C731 C730 1.374 . S
C732 C729 1.499 . S
C732 C733 1.373 . S
C732 C734 1.389 . S
C733 H712 0.950 . S
C733 C732 1.373 . S
C733 C749 1.377 . S
C734 C732 1.389 . S
C734 C735 1.524 . S
C734 C748 1.377 . S
C735 C734 1.524 . S
C735 C736 1.397 . S
C735 C740 1.363 . S
C736 H713 0.950 . S
C736 C735 1.397 . S
C736 C737 1.334 . S
C737 H714 0.950 . S
C737 C736 1.334 . S
C737 C738 1.287 . S
C738 C737 1.287 . S
C738 C739 1.524 . S
C738 H757 0.913 . S
C739 H715 0.950 . S
C739 C738 1.524 . S
C739 C740 1.415 . S
C740 H716 0.950 . S
C740 C735 1.363 . S
C740 C739 1.415 . S
C741 H717 0.951 . S
C741 C742 1.366 . S
C741 C743 1.388 . S
C742 C741 1.366 . S
C742 C746 1.385 1_556 S
C743 H718 0.951 . S
C743 C741 1.388 . S
C743 C744 1.366 . S
C744 C743 1.366 . S
C744 C745 1.414 . S
C744 C747 1.499 . S
C745 H719 0.953 . S
C745 C744 1.414 . S
C745 C746 1.374 1_556 S
C746 H720 0.950 . S
C746 C742 1.385 1_554 S
C746 C745 1.374 1_554 S
C747 C744 1.499 . S
C747 C748 1.373 . S
C747 C749 1.389 . S
C748 H721 0.950 . S
C748 C734 1.377 . S
C748 C747 1.373 . S
C749 C733 1.377 . S
C749 C747 1.389 . S
C749 C750 1.524 1_556 S
C750 C749 1.524 1_554 S
C750 C751 1.397 . S
C750 C755 1.363 1_554 S
C751 H722 0.950 . S
C751 C750 1.397 . S
C751 C752 1.334 . S
C752 H723 0.950 . S
C752 C751 1.334 . S
C752 C753 1.287 . S
C753 C752 1.287 . S
C753 C754 1.524 . S
C753 H756 0.999 . S
C754 H724 0.950 . S
C754 C753 1.524 . S
C754 C755 1.415 1_554 S
C755 H725 0.950 . S
C755 C750 1.363 1_556 S
C755 C754 1.415 1_556 S
H756 C753 0.999 . S
H757 C738 0.913 . S
H758 C776 0.951 . S
H759 C778 0.951 . S
H760 C780 0.950 . S
H761 C781 0.950 . S
H762 C783 0.950 . S
H763 C786 0.950 . S
H764 C787 0.950 . S
H765 C789 0.950 . S
H766 C790 0.950 . S
H767 C791 0.951 . S
H768 C793 0.951 . S
H769 C795 0.950 . S
H770 C796 0.950 . S
H771 C798 0.950 . S
H772 C801 0.950 . S
H773 C802 0.950 . S
H774 C804 0.950 . S
H775 C805 0.950 . S
C776 H758 0.951 . S
C776 C777 1.366 . S
C776 C778 1.388 . S
C777 C776 1.366 . S
C777 C781 1.385 . S
C778 H759 0.951 . S
C778 C776 1.388 . S
C778 C779 1.366 . S
C779 C778 1.366 . S
C779 C780 1.414 . S
C779 C782 1.499 . S
C780 H760 0.950 . S
C780 C779 1.414 . S
C780 C781 1.374 . S
C781 H761 0.950 . S
C781 C777 1.385 . S
C781 C780 1.374 . S
C782 C779 1.499 . S
C782 C783 1.373 . S
C782 C784 1.389 . S
C783 H762 0.950 . S
C783 C782 1.373 . S
C783 C799 1.377 . S
C784 C782 1.389 . S
C784 C785 1.524 . S
C784 C798 1.377 . S
C785 C784 1.524 . S
C785 C786 1.397 . S
C785 C790 1.363 . S
C786 H763 0.950 . S
C786 C785 1.397 . S
C786 C787 1.334 . S
C787 H764 0.950 . S
C787 C786 1.334 . S
C787 C788 1.287 . S
C788 C787 1.287 . S
C788 C789 1.524 . S
C788 H807 0.913 . S
C789 H765 0.950 . S
C789 C788 1.524 . S
C789 C790 1.415 . S
C790 H766 0.950 . S
C790 C785 1.363 . S
C790 C789 1.415 . S
C791 H767 0.951 . S
C791 C792 1.366 . S
C791 C793 1.388 . S
C792 C791 1.366 . S
C792 C796 1.385 . S
C793 H768 0.951 . S
C793 C791 1.388 . S
C793 C794 1.366 . S
C794 C793 1.366 . S
C794 C795 1.414 . S
C794 C797 1.499 . S
C795 H769 0.950 . S
C795 C794 1.414 . S
C795 C796 1.374 . S
C796 H770 0.950 . S
C796 C792 1.385 . S
C796 C795 1.374 . S
C797 C794 1.499 . S
C797 C798 1.373 . S
C797 C799 1.389 . S
C798 H771 0.950 . S
C798 C784 1.377 . S
C798 C797 1.373 . S
C799 C783 1.377 . S
C799 C797 1.389 . S
C799 C800 1.524 . S
C800 C799 1.524 . S
C800 C801 1.397 1_556 S
C800 C805 1.363 . S
C801 H772 0.950 . S
C801 C800 1.397 1_554 S
C801 C802 1.334 . S
C802 H773 0.950 . S
C802 C801 1.334 . S
C802 C803 1.287 . S
C803 C802 1.287 . S
C803 C804 1.524 1_554 S
C803 H806 0.999 . S
C804 H774 0.950 . S
C804 C803 1.524 1_556 S
C804 C805 1.415 . S
C805 H775 0.950 . S
C805 C800 1.363 . S
C805 C804 1.415 . S
H806 C803 0.999 . S
H807 C788 0.913 . S
H808 C826 0.951 . S
H809 C828 0.951 1_554 S
H810 C830 0.950 . S
H811 C831 0.950 . S
H812 C833 0.950 . S
H813 C836 0.950 . S
H814 C837 0.950 . S
H815 C839 0.950 . S
H816 C840 0.950 . S
H817 C841 0.951 . S
H818 C843 0.951 . S
H819 C845 0.950 . S
H820 C846 0.950 . S
H821 C848 0.950 . S
H822 C851 0.950 . S
H823 C852 0.950 . S
H824 C854 0.950 . S
H825 C855 0.950 . S
C826 H808 0.951 . S
C826 C827 1.366 . S
C826 C828 1.388 . S
C827 C826 1.366 . S
C827 C831 1.385 . S
C828 H809 0.951 1_556 S
C828 C826 1.388 . S
C828 C829 1.366 . S
C829 C828 1.366 . S
C829 C830 1.414 . S
C829 C832 1.499 . S
C830 H810 0.950 . S
C830 C829 1.414 . S
C830 C831 1.374 . S
C831 H811 0.950 . S
C831 C827 1.385 . S
C831 C830 1.374 . S
C832 C829 1.499 . S
C832 C833 1.373 . S
C832 C834 1.389 1_556 S
C833 H812 0.950 . S
C833 C832 1.373 . S
C833 C849 1.377 . S
C834 C832 1.389 1_554 S
C834 C835 1.524 . S
C834 C848 1.377 . S
C835 C834 1.524 . S
C835 C836 1.397 . S
C835 C840 1.363 . S
C836 H813 0.950 . S
C836 C835 1.397 . S
C836 C837 1.334 . S
C837 H814 0.950 . S
C837 C836 1.334 . S
C837 C838 1.287 . S
C838 C837 1.287 . S
C838 C839 1.524 . S
C838 H857 0.913 . S
C839 H815 0.950 . S
C839 C838 1.524 . S
C839 C840 1.415 . S
C840 H816 0.950 . S
C840 C835 1.363 . S
C840 C839 1.415 . S
C841 H817 0.951 . S
C841 C842 1.366 1_556 S
C841 C843 1.388 . S
C842 C841 1.366 1_554 S
C842 C846 1.385 . S
C843 H818 0.951 . S
C843 C841 1.388 . S
C843 C844 1.366 . S
C844 C843 1.366 . S
C844 C845 1.414 1_556 S
C844 C847 1.499 . S
C845 H819 0.950 . S
C845 C844 1.414 1_554 S
C845 C846 1.374 . S
C846 H820 0.950 . S
C846 C842 1.385 . S
C846 C845 1.374 . S
C847 C844 1.499 . S
C847 C848 1.373 1_556 S
C847 C849 1.389 . S
C848 H821 0.950 . S
C848 C834 1.377 . S
C848 C847 1.373 1_554 S
C849 C833 1.377 . S
C849 C847 1.389 . S
C849 C850 1.524 . S
C850 C849 1.524 . S
C850 C851 1.397 . S
C850 C855 1.363 . S
C851 H822 0.950 . S
C851 C850 1.397 . S
C851 C852 1.334 . S
C852 H823 0.950 . S
C852 C851 1.334 . S
C852 C853 1.287 . S
C853 C852 1.287 . S
C853 C854 1.524 . S
C853 H856 0.999 . S
C854 H824 0.950 . S
C854 C853 1.524 . S
C854 C855 1.415 . S
C855 H825 0.950 . S
C855 C850 1.363 . S
C855 C854 1.415 . S
H856 C853 0.999 . S
H857 C838 0.913 . S
H858 C876 0.951 . S
H859 C878 0.951 . S
H860 C880 0.950 . S
H861 C881 0.950 . S
H862 C883 0.950 . S
H863 C886 0.950 . S
H864 C887 0.945 1_554 S
H865 C889 0.950 . S
H866 C890 0.950 . S
H867 C891 0.951 . S
H868 C893 0.951 1_554 S
H869 C895 0.950 . S
H870 C896 0.950 . S
H871 C898 0.950 . S
H872 C901 0.950 . S
H873 C902 0.950 . S
H874 C904 0.950 . S
H875 C905 0.950 . S
C876 H858 0.951 . S
C876 C877 1.366 . S
C876 C878 1.388 . S
C877 C876 1.366 . S
C877 C881 1.385 . S
C878 H859 0.951 . S
C878 C876 1.388 . S
C878 C879 1.366 . S
C879 C878 1.366 . S
C879 C880 1.414 . S
C879 C882 1.499 . S
C880 H860 0.950 . S
C880 C879 1.414 . S
C880 C881 1.374 . S
C881 H861 0.950 . S
C881 C877 1.385 . S
C881 C880 1.374 . S
C882 C879 1.499 . S
C882 C883 1.373 . S
C882 C884 1.389 . S
C883 H862 0.950 . S
C883 C882 1.373 . S
C883 C899 1.377 . S
C884 C882 1.389 . S
C884 C885 1.524 . S
C884 C898 1.377 . S
C885 C884 1.524 . S
C885 C886 1.397 . S
C885 C890 1.363 . S
C886 H863 0.950 . S
C886 C885 1.397 . S
C886 C887 1.334 . S
C887 H864 0.945 1_556 S
C887 C886 1.334 . S
C887 C888 1.287 . S
C888 C887 1.287 . S
C888 C889 1.524 . S
C888 H907 0.913 . S
C889 H865 0.950 . S
C889 C888 1.524 . S
C889 C890 1.415 . S
C890 H866 0.950 . S
C890 C885 1.363 . S
C890 C889 1.415 . S
C891 H867 0.951 . S
C891 C892 1.366 1_554 S
C891 C893 1.388 1_554 S
C892 C891 1.366 1_556 S
C892 C896 1.385 . S
C893 H868 0.951 1_556 S
C893 C891 1.388 1_556 S
C893 C894 1.366 . S
C894 C893 1.366 . S
C894 C895 1.414 . S
C894 C897 1.499 . S
C895 H869 0.950 . S
C895 C894 1.414 . S
C895 C896 1.374 . S
C896 H870 0.950 . S
C896 C892 1.385 . S
C896 C895 1.374 . S
C897 C894 1.499 . S
C897 C898 1.373 . S
C897 C899 1.389 . S
C898 H871 0.950 . S
C898 C884 1.377 . S
C898 C897 1.373 . S
C899 C883 1.377 . S
C899 C897 1.389 . S
C899 C900 1.524 . S
C900 C899 1.524 . S
C900 C901 1.397 . S
C900 C905 1.363 . S
C901 H872 0.950 . S
C901 C900 1.397 . S
C901 C902 1.334 . S
C902 H873 0.950 . S
C902 C901 1.334 . S
C902 C903 1.287 . S
C903 C902 1.287 . S
C903 C904 1.524 . S
C903 H906 0.999 1_545 S
C904 H874 0.950 . S
C904 C903 1.524 . S
C904 C905 1.415 . S
C905 H875 0.950 . S
C905 C900 1.363 . S
C905 C904 1.415 . S
H906 C903 0.999 1_565 S
H907 C888 0.913 . S
H908 C926 0.951 . S
H909 C928 0.951 . S
H910 C930 0.950 . S
H911 C931 0.950 . S
H912 C933 0.950 . S
H913 C936 0.955 . S
H914 C937 0.950 . S
H915 C939 0.950 . S
H916 C940 0.950 . S
H917 C941 0.951 1_554 S
H918 C943 0.951 . S
H919 C945 0.950 . S
H920 C946 0.950 . S
H921 C948 0.950 . S
H922 C951 0.950 . S
H923 C952 0.950 . S
H924 C954 0.950 . S
H925 C955 0.950 . S
C926 H908 0.951 . S
C926 C927 1.366 . S
C926 C928 1.388 . S
C927 C926 1.366 . S
C927 C931 1.385 . S
C928 H909 0.951 . S
C928 C926 1.388 . S
C928 C929 1.366 . S
C929 C928 1.366 . S
C929 C930 1.414 . S
C929 C932 1.499 . S
C930 H910 0.950 . S
C930 C929 1.414 . S
C930 C931 1.374 . S
C931 H911 0.950 . S
C931 C927 1.385 . S
C931 C930 1.374 . S
C932 C929 1.499 . S
C932 C933 1.373 . S
C932 C934 1.389 . S
C933 H912 0.950 . S
C933 C932 1.373 . S
C933 C949 1.377 . S
C934 C932 1.389 . S
C934 C935 1.524 . S
C934 C948 1.377 . S
C935 C934 1.524 . S
C935 C936 1.397 . S
C935 C940 1.363 . S
C936 H913 0.955 . S
C936 C935 1.397 . S
C936 C937 1.334 1_556 S
C937 H914 0.950 . S
C937 C936 1.334 1_554 S
C937 C938 1.286 1_554 S
C938 C937 1.286 1_556 S
C938 C939 1.556 . S
C938 H957 0.887 1_556 S
C939 H915 0.950 . S
C939 C938 1.556 . S
C939 C940 1.415 . S
C940 H916 0.950 . S
C940 C935 1.363 . S
C940 C939 1.415 . S
C941 H917 0.951 1_556 S
C941 C942 1.366 . S
C941 C943 1.388 . S
C942 C941 1.366 . S
C942 C946 1.385 . S
C943 H918 0.951 . S
C943 C941 1.388 . S
C943 C944 1.366 . S
C944 C943 1.366 . S
C944 C945 1.414 . S
C944 C947 1.499 . S
C945 H919 0.950 . S
C945 C944 1.414 . S
C945 C946 1.374 . S
C946 H920 0.950 . S
C946 C942 1.385 . S
C946 C945 1.374 . S
C947 C944 1.499 . S
C947 C948 1.373 . S
C947 C949 1.389 . S
C948 H921 0.950 . S
C948 C934 1.377 . S
C948 C947 1.373 . S
C949 C933 1.377 . S
C949 C947 1.389 . S
C949 C950 1.524 . S
C950 C949 1.524 . S
C950 C951 1.397 . S
C950 C955 1.363 . S
C951 H922 0.950 . S
C951 C950 1.397 . S
C951 C952 1.334 . S
C952 H923 0.950 . S
C952 C951 1.334 . S
C952 C953 1.287 . S
C953 C952 1.287 . S
C953 C954 1.524 . S
C953 H956 0.999 . S
C954 H924 0.950 . S
C954 C953 1.524 . S
C954 C955 1.415 . S
C955 H925 0.950 . S
C955 C950 1.363 . S
C955 C954 1.415 . S
H956 C953 0.999 . S
H957 C938 0.887 1_554 S
H958 C976 0.951 . S
H959 C978 0.951 . S
H960 C980 0.950 . S
H961 C981 0.950 . S
H962 C983 0.966 . S
H963 C986 0.950 . S
H964 C987 0.950 . S
H965 C989 0.950 . S
H966 C990 0.950 . S
H967 C991 0.951 . S
H968 C993 0.951 . S
H969 C995 0.950 . S
H970 C996 0.950 . S
H971 C998 0.950 . S
H972 C1001 0.950 . S
H973 C1002 0.950 . S
H974 C1004 0.950 . S
H975 C1005 0.950 . S
C976 H958 0.951 . S
C976 C977 1.366 . S
C976 C978 1.388 . S
C977 C976 1.366 . S
C977 C981 1.385 . S
C978 H959 0.951 . S
C978 C976 1.388 . S
C978 C979 1.366 . S
C979 C978 1.366 . S
C979 C980 1.414 . S
C979 C982 1.499 . S
C980 H960 0.950 . S
C980 C979 1.414 . S
C980 C981 1.374 . S
C981 H961 0.950 . S
C981 C977 1.385 . S
C981 C980 1.374 . S
C982 C979 1.499 . S
C982 C983 1.358 1_556 S
C982 C984 1.389 . S
C983 H962 0.966 . S
C983 C982 1.358 1_554 S
C983 C999 1.376 . S
C984 C982 1.389 . S
C984 C985 1.524 . S
C984 C998 1.377 . S
C985 C984 1.524 . S
C985 C986 1.397 . S
C985 C990 1.363 . S
C986 H963 0.950 . S
C986 C985 1.397 . S
C986 C987 1.334 . S
C987 H964 0.950 . S
C987 C986 1.334 . S
C987 C988 1.287 . S
C988 C987 1.287 . S
C988 C989 1.524 . S
C988 H1007 0.913 . S
C989 H965 0.950 . S
C989 C988 1.524 . S
C989 C990 1.415 . S
C990 H966 0.950 . S
C990 C985 1.363 . S
C990 C989 1.415 . S
C991 H967 0.951 . S
C991 C992 1.366 1_554 S
C991 C993 1.388 . S
C992 C991 1.366 1_556 S
C992 C996 1.385 . S
C993 H968 0.951 . S
C993 C991 1.388 . S
C993 C994 1.366 1_554 S
C994 C993 1.366 1_556 S
C994 C995 1.414 . S
C994 C997 1.499 . S
C995 H969 0.950 . S
C995 C994 1.414 . S
C995 C996 1.374 . S
C996 H970 0.950 . S
C996 C992 1.385 . S
C996 C995 1.374 . S
C997 C994 1.499 . S
C997 C998 1.373 . S
C997 C999 1.389 1_556 S
C998 H971 0.950 . S
C998 C984 1.377 . S
C998 C997 1.373 . S
C999 C983 1.376 . S
C999 C997 1.389 1_554 S
C999 C1000 1.524 . S
C1000 C999 1.524 . S
C1000 C1001 1.397 . S
C1000 C1005 1.363 . S
C1001 H972 0.950 . S
C1001 C1000 1.397 . S
C1001 C1002 1.334 . S
C1002 H973 0.950 . S
C1002 C1001 1.334 . S
C1002 C1003 1.287 . S
C1003 C1002 1.287 . S
C1003 C1004 1.524 . S
C1003 H1006 0.999 . S
C1004 H974 0.950 . S
C1004 C1003 1.524 . S
C1004 C1005 1.415 . S
C1005 H975 0.950 . S
C1005 C1000 1.363 . S
C1005 C1004 1.415 . S
H1006 C1003 0.999 . S
H1007 C988 0.913 . S
H1008 C1026 0.951 . S
H1009 C1028 0.951 . S
H1010 C1030 0.950 . S
H1011 C1031 0.950 . S
H1012 C1033 0.950 . S
H1013 C1036 0.950 . S
H1014 C1037 0.950 . S
H1015 C1039 0.950 . S
H1016 C1040 0.950 . S
H1017 C1041 0.951 . S
H1018 C1043 0.951 . S
H1019 C1045 0.950 . S
H1020 C1046 0.950 . S
H1021 C1048 0.950 . S
H1022 C1051 0.950 1_554 S
H1023 C1052 0.950 . S
H1024 C1054 0.950 . S
H1025 C1055 0.950 . S
C1026 H1008 0.951 . S
C1026 C1027 1.366 . S
C1026 C1028 1.388 . S
C1027 C1026 1.366 . S
C1027 C1031 1.385 . S
C1028 H1009 0.951 . S
C1028 C1026 1.388 . S
C1028 C1029 1.366 . S
C1029 C1028 1.366 . S
C1029 C1030 1.414 . S
C1029 C1032 1.499 . S
C1030 H1010 0.950 . S
C1030 C1029 1.414 . S
C1030 C1031 1.374 . S
C1031 H1011 0.950 . S
C1031 C1027 1.385 . S
C1031 C1030 1.374 . S
C1032 C1029 1.499 . S
C1032 C1033 1.373 . S
C1032 C1034 1.389 . S
C1033 H1012 0.950 . S
C1033 C1032 1.373 . S
C1033 C1049 1.377 . S
C1034 C1032 1.389 . S
C1034 C1035 1.524 . S
C1034 C1048 1.377 . S
C1035 C1034 1.524 . S
C1035 C1036 1.397 . S
C1035 C1040 1.363 . S
C1036 H1013 0.950 . S
C1036 C1035 1.397 . S
C1036 C1037 1.334 . S
C1037 H1014 0.950 . S
C1037 C1036 1.334 . S
C1037 C1038 1.287 . S
C1038 C1037 1.287 . S
C1038 C1039 1.524 . S
C1038 H1057 0.913 . S
C1039 H1015 0.950 . S
C1039 C1038 1.524 . S
C1039 C1040 1.415 . S
C1040 H1016 0.950 . S
C1040 C1035 1.363 . S
C1040 C1039 1.415 . S
C1041 H1017 0.951 . S
C1041 C1042 1.366 . S
C1041 C1043 1.388 . S
C1042 C1041 1.366 . S
C1042 C1046 1.385 . S
C1043 H1018 0.951 . S
C1043 C1041 1.388 . S
C1043 C1044 1.366 . S
C1044 C1043 1.366 . S
C1044 C1045 1.414 . S
C1044 C1047 1.499 . S
C1045 H1019 0.950 . S
C1045 C1044 1.414 . S
C1045 C1046 1.374 . S
C1046 H1020 0.950 . S
C1046 C1042 1.385 . S
C1046 C1045 1.374 . S
C1047 C1044 1.499 . S
C1047 C1048 1.373 . S
C1047 C1049 1.389 . S
C1048 H1021 0.950 . S
C1048 C1034 1.377 . S
C1048 C1047 1.373 . S
C1049 C1033 1.377 . S
C1049 C1047 1.389 . S
C1049 C1050 1.553 . S
C1050 C1049 1.553 . S
C1050 C1051 1.396 1_554 S
C1050 C1055 1.337 1_554 S
C1051 H1022 0.950 1_556 S
C1051 C1050 1.396 1_556 S
C1051 C1052 1.334 . S
C1052 H1023 0.950 . S
C1052 C1051 1.334 . S
C1052 C1053 1.287 . S
C1053 C1052 1.287 . S
C1053 C1054 1.524 . S
C1053 H1056 0.999 . S
C1054 H1024 0.950 . S
C1054 C1053 1.524 . S
C1054 C1055 1.415 . S
C1055 H1025 0.950 . S
C1055 C1050 1.337 1_556 S
C1055 C1054 1.415 . S
H1056 C1053 0.999 . S
H1057 C1038 0.913 . S
H1058 C1076 0.951 . S
H1059 C1078 0.951 . S
H1060 C1080 0.950 . S
H1061 C1081 0.950 . S
H1062 C1083 0.950 . S
H1063 C1086 0.950 . S
H1064 C1087 0.950 . S
H1065 C1089 0.950 . S
H1066 C1090 0.950 . S
H1067 C1091 0.951 . S
H1068 C1093 0.951 . S
H1069 C1095 0.950 . S
H1070 C1096 0.946 . S
H1071 C1098 0.950 . S
H1072 C1101 0.950 . S
H1073 C1102 0.950 . S
H1074 C1104 0.950 . S
H1075 C1105 0.950 . S
C1076 H1058 0.951 . S
C1076 C1077 1.366 . S
C1076 C1078 1.388 . S
C1077 C1076 1.366 . S
C1077 C1081 1.385 . S
C1078 H1059 0.951 . S
C1078 C1076 1.388 . S
C1078 C1079 1.366 . S
C1079 C1078 1.366 . S
C1079 C1080 1.414 . S
C1079 C1082 1.499 . S
C1080 H1060 0.950 . S
C1080 C1079 1.414 . S
C1080 C1081 1.374 . S
C1081 H1061 0.950 . S
C1081 C1077 1.385 . S
C1081 C1080 1.374 . S
C1082 C1079 1.499 . S
C1082 C1083 1.373 . S
C1082 C1084 1.389 . S
C1083 H1062 0.950 . S
C1083 C1082 1.373 . S
C1083 C1099 1.377 . S
C1084 C1082 1.389 . S
C1084 C1085 1.524 . S
C1084 C1098 1.377 . S
C1085 C1084 1.524 . S
C1085 C1086 1.397 . S
C1085 C1090 1.363 1_554 S
C1086 H1063 0.950 . S
C1086 C1085 1.397 . S
C1086 C1087 1.334 . S
C1087 H1064 0.950 . S
C1087 C1086 1.334 . S
C1087 C1088 1.287 1_554 S
C1088 C1087 1.287 1_556 S
C1088 C1089 1.524 . S
C1088 H1107 0.913 . S
C1089 H1065 0.950 . S
C1089 C1088 1.524 . S
C1089 C1090 1.415 . S
C1090 H1066 0.950 . S
C1090 C1085 1.363 1_556 S
C1090 C1089 1.415 . S
C1091 H1067 0.951 . S
C1091 C1092 1.366 . S
C1091 C1093 1.388 . S
C1092 C1091 1.366 . S
C1092 C1096 1.385 . S
C1093 H1068 0.951 . S
C1093 C1091 1.388 . S
C1093 C1094 1.366 . S
C1094 C1093 1.366 . S
C1094 C1095 1.414 . S
C1094 C1097 1.499 . S
C1095 H1069 0.950 . S
C1095 C1094 1.414 . S
C1095 C1096 1.374 . S
C1096 H1070 0.946 . S
C1096 C1092 1.385 . S
C1096 C1095 1.374 . S
C1097 C1094 1.499 . S
C1097 C1098 1.373 . S
C1097 C1099 1.389 . S
C1098 H1071 0.950 . S
C1098 C1084 1.377 . S
C1098 C1097 1.373 . S
C1099 C1083 1.377 . S
C1099 C1097 1.389 . S
C1099 C1100 1.524 . S
C1100 C1099 1.524 . S
C1100 C1101 1.397 . S
C1100 C1105 1.363 . S
C1101 H1072 0.950 . S
C1101 C1100 1.397 . S
C1101 C1102 1.334 . S
C1102 H1073 0.950 . S
C1102 C1101 1.334 . S
C1102 C1103 1.287 . S
C1103 C1102 1.287 . S
C1103 C1104 1.524 . S
C1103 H1106 0.999 . S
C1104 H1074 0.950 . S
C1104 C1103 1.524 . S
C1104 C1105 1.415 . S
C1105 H1075 0.950 . S
C1105 C1100 1.363 . S
C1105 C1104 1.415 . S
H1106 C1103 0.999 . S
H1107 C1088 0.913 . S
H1108 C1126 0.951 . S
H1109 C1128 0.951 . S
H1110 C1130 0.950 . S
H1111 C1131 0.950 . S
H1112 C1133 1.001 . S
H1113 C1136 0.950 . S
H1114 C1137 0.950 . S
H1115 C1139 0.950 . S
H1116 C1140 0.950 . S
H1117 C1141 0.951 1_556 S
H1118 C1143 0.951 . S
H1119 C1145 0.950 . S
H1120 C1146 0.950 . S
H1121 C1148 0.950 . S
H1122 C1151 0.950 . S
H1123 C1152 0.950 . S
H1124 C1154 0.950 . S
H1125 C1155 0.950 . S
C1126 H1108 0.951 . S
C1126 C1127 1.366 . S
C1126 C1128 1.388 . S
C1127 C1126 1.366 . S
C1127 C1131 1.385 . S
C1128 H1109 0.951 . S
C1128 C1126 1.388 . S
C1128 C1129 1.366 . S
C1129 C1128 1.366 . S
C1129 C1130 1.414 . S
C1129 C1132 1.499 . S
C1130 H1110 0.950 . S
C1130 C1129 1.414 . S
C1130 C1131 1.374 . S
C1131 H1111 0.950 . S
C1131 C1127 1.385 . S
C1131 C1130 1.374 . S
C1132 C1129 1.499 . S
C1132 C1133 1.373 . S
C1132 C1134 1.389 . S
C1133 H1112 1.001 . S
C1133 C1132 1.373 . S
C1133 C1149 1.377 . S
C1134 C1132 1.389 . S
C1134 C1135 1.524 . S
C1134 C1148 1.377 . S
C1135 C1134 1.524 . S
C1135 C1136 1.397 . S
C1135 C1140 1.363 . S
C1136 H1113 0.950 . S
C1136 C1135 1.397 . S
C1136 C1137 1.334 . S
C1137 H1114 0.950 . S
C1137 C1136 1.334 . S
C1137 C1138 1.287 . S
C1138 C1137 1.287 . S
C1138 C1139 1.524 . S
C1138 H1157 0.913 . S
C1139 H1115 0.950 . S
C1139 C1138 1.524 . S
C1139 C1140 1.415 . S
C1140 H1116 0.950 . S
C1140 C1135 1.363 . S
C1140 C1139 1.415 . S
C1141 H1117 0.951 1_554 S
C1141 C1142 1.366 . S
C1141 C1143 1.388 . S
C1142 C1141 1.366 . S
C1142 C1146 1.385 . S
C1143 H1118 0.951 . S
C1143 C1141 1.388 . S
C1143 C1144 1.366 . S
C1144 C1143 1.366 . S
C1144 C1145 1.414 . S
C1144 C1147 1.499 . S
C1145 H1119 0.950 . S
C1145 C1144 1.414 . S
C1145 C1146 1.374 . S
C1146 H1120 0.950 . S
C1146 C1142 1.385 . S
C1146 C1145 1.374 . S
C1147 C1144 1.499 . S
C1147 C1148 1.373 . S
C1147 C1149 1.389 . S
C1148 H1121 0.950 . S
C1148 C1134 1.377 . S
C1148 C1147 1.373 . S
C1149 C1133 1.377 . S
C1149 C1147 1.389 . S
C1149 C1150 1.524 1_554 S
C1150 C1149 1.524 1_556 S
C1150 C1151 1.397 . S
C1150 C1155 1.363 . S
C1151 H1122 0.950 . S
C1151 C1150 1.397 . S
C1151 C1152 1.334 . S
C1152 H1123 0.950 . S
C1152 C1151 1.334 . S
C1152 C1153 1.287 . S
C1153 C1152 1.287 . S
C1153 C1154 1.524 . S
C1153 H1156 0.999 . S
C1154 H1124 0.950 . S
C1154 C1153 1.524 . S
C1154 C1155 1.415 . S
C1155 H1125 0.950 . S
C1155 C1150 1.363 . S
C1155 C1154 1.415 . S
H1156 C1153 0.999 . S
H1157 C1138 0.913 . S
H1158 C1176 0.951 . S
H1159 C1178 0.951 . S
H1160 C1180 0.950 . S
H1161 C1181 0.950 . S
H1162 C1183 0.950 . S
H1163 C1186 0.950 . S
H1164 C1187 0.950 . S
H1165 C1189 0.950 . S
H1166 C1190 0.950 1_455 S
H1167 C1191 0.951 . S
H1168 C1193 0.951 . S
H1169 C1195 0.950 . S
H1170 C1196 0.950 . S
H1171 C1198 0.950 . S
H1172 C1201 0.950 . S
H1173 C1202 0.950 . S
H1174 C1204 0.950 . S
H1175 C1205 0.950 . S
C1176 H1158 0.951 . S
C1176 C1177 1.366 . S
C1176 C1178 1.388 . S
C1177 C1176 1.366 . S
C1177 C1181 1.385 . S
C1178 H1159 0.951 . S
C1178 C1176 1.388 . S
C1178 C1179 1.366 . S
C1179 C1178 1.366 . S
C1179 C1180 1.414 . S
C1179 C1182 1.499 1_655 S
C1180 H1160 0.950 . S
C1180 C1179 1.414 . S
C1180 C1181 1.374 . S
C1181 H1161 0.950 . S
C1181 C1177 1.385 . S
C1181 C1180 1.374 . S
C1182 C1179 1.499 1_455 S
C1182 C1183 1.373 . S
C1182 C1184 1.389 . S
C1183 H1162 0.950 . S
C1183 C1182 1.373 . S
C1183 C1199 1.377 . S
C1184 C1182 1.389 . S
C1184 C1185 1.524 1_455 S
C1184 C1198 1.377 . S
C1185 C1184 1.524 1_655 S
C1185 C1186 1.397 . S
C1185 C1190 1.363 . S
C1186 H1163 0.950 . S
C1186 C1185 1.397 . S
C1186 C1187 1.334 . S
C1187 H1164 0.950 . S
C1187 C1186 1.334 . S
C1187 C1188 1.287 . S
C1188 C1187 1.287 . S
C1188 C1189 1.524 . S
C1188 H1207 0.913 . S
C1189 H1165 0.950 . S
C1189 C1188 1.524 . S
C1189 C1190 1.415 . S
C1190 H1166 0.950 1_655 S
C1190 C1185 1.363 . S
C1190 C1189 1.415 . S
C1191 H1167 0.951 . S
C1191 C1192 1.366 . S
C1191 C1193 1.388 . S
C1192 C1191 1.366 . S
C1192 C1196 1.385 . S
C1193 H1168 0.951 . S
C1193 C1191 1.388 . S
C1193 C1194 1.366 . S
C1194 C1193 1.366 . S
C1194 C1195 1.414 . S
C1194 C1197 1.499 . S
C1195 H1169 0.950 . S
C1195 C1194 1.414 . S
C1195 C1196 1.374 . S
C1196 H1170 0.950 . S
C1196 C1192 1.385 . S
C1196 C1195 1.374 . S
C1197 C1194 1.499 . S
C1197 C1198 1.373 . S
C1197 C1199 1.389 . S
C1198 H1171 0.950 . S
C1198 C1184 1.377 . S
C1198 C1197 1.373 . S
C1199 C1183 1.377 . S
C1199 C1197 1.389 . S
C1199 C1200 1.524 . S
C1200 C1199 1.524 . S
C1200 C1201 1.397 . S
C1200 C1205 1.363 . S
C1201 H1172 0.950 . S
C1201 C1200 1.397 . S
C1201 C1202 1.334 . S
C1202 H1173 0.950 . S
C1202 C1201 1.334 . S
C1202 C1203 1.287 . S
C1203 C1202 1.287 . S
C1203 C1204 1.524 . S
C1203 H1206 0.999 . S
C1204 H1174 0.950 . S
C1204 C1203 1.524 . S
C1204 C1205 1.415 . S
C1205 H1175 0.950 . S
C1205 C1200 1.363 . S
C1205 C1204 1.415 . S
H1206 C1203 0.999 . S
H1207 C1188 0.913 . S
H1208 C1226 0.951 . S
H1209 C1228 0.951 . S
H1210 C1230 0.950 . S
H1211 C1231 0.950 . S
H1212 C1233 0.950 . S
H1213 C1236 0.950 . S
H1214 C1237 0.950 . S
H1215 C1239 0.950 . S
H1216 C1240 0.950 . S
H1217 C1241 0.951 . S
H1218 C1243 0.951 . S
H1219 C1245 0.950 . S
H1220 C1246 0.950 . S
H1221 C1248 0.950 . S
H1222 C1251 0.950 . S
H1223 C1252 0.950 . S
H1224 C1254 0.950 . S
H1225 C1255 0.950 . S
C1226 H1208 0.951 . S
C1226 C1227 1.366 . S
C1226 C1228 1.388 . S
C1227 C1226 1.366 . S
C1227 C1231 1.385 . S
C1228 H1209 0.951 . S
C1228 C1226 1.388 . S
C1228 C1229 1.366 . S
C1229 C1228 1.366 . S
C1229 C1230 1.414 . S
C1229 C1232 1.499 . S
C1230 H1210 0.950 . S
C1230 C1229 1.414 . S
C1230 C1231 1.374 . S
C1231 H1211 0.950 . S
C1231 C1227 1.385 . S
C1231 C1230 1.374 . S
C1232 C1229 1.499 . S
C1232 C1233 1.373 . S
C1232 C1234 1.389 . S
C1233 H1212 0.950 . S
C1233 C1232 1.373 . S
C1233 C1249 1.377 . S
C1234 C1232 1.389 . S
C1234 C1235 1.524 . S
C1234 C1248 1.377 . S
C1235 C1234 1.524 . S
C1235 C1236 1.397 . S
C1235 C1240 1.363 . S
C1236 H1213 0.950 . S
C1236 C1235 1.397 . S
C1236 C1237 1.334 . S
C1237 H1214 0.950 . S
C1237 C1236 1.334 . S
C1237 C1238 1.287 . S
C1238 C1237 1.287 . S
C1238 C1239 1.524 . S
C1238 H1257 0.913 . S
C1239 H1215 0.950 . S
C1239 C1238 1.524 . S
C1239 C1240 1.415 . S
C1240 H1216 0.950 . S
C1240 C1235 1.363 . S
C1240 C1239 1.415 . S
C1241 H1217 0.951 . S
C1241 C1242 1.366 . S
C1241 C1243 1.388 . S
C1242 C1241 1.366 . S
C1242 C1246 1.385 . S
C1243 H1218 0.951 . S
C1243 C1241 1.388 . S
C1243 C1244 1.366 . S
C1244 C1243 1.366 . S
C1244 C1245 1.414 . S
C1244 C1247 1.499 . S
C1245 H1219 0.950 . S
C1245 C1244 1.414 . S
C1245 C1246 1.374 . S
C1246 H1220 0.950 . S
C1246 C1242 1.385 . S
C1246 C1245 1.374 . S
C1247 C1244 1.499 . S
C1247 C1248 1.373 . S
C1247 C1249 1.389 . S
C1248 H1221 0.950 . S
C1248 C1234 1.377 . S
C1248 C1247 1.373 . S
C1249 C1233 1.377 . S
C1249 C1247 1.389 . S
C1249 C1250 1.524 . S
C1250 C1249 1.524 . S
C1250 C1251 1.397 . S
C1250 C1255 1.363 . S
C1251 H1222 0.950 . S
C1251 C1250 1.397 . S
C1251 C1252 1.334 . S
C1252 H1223 0.950 . S
C1252 C1251 1.334 . S
C1252 C1253 1.287 . S
C1253 C1252 1.287 . S
C1253 C1254 1.524 . S
C1253 H1256 0.999 . S
C1254 H1224 0.950 . S
C1254 C1253 1.524 . S
C1254 C1255 1.415 . S
C1255 H1225 0.950 . S
C1255 C1250 1.363 . S
C1255 C1254 1.415 . S
H1256 C1253 0.999 . S
H1257 C1238 0.913 . S
H1258 C1276 0.951 . S
H1259 C1278 0.951 . S
H1260 C1280 0.950 . S
H1261 C1281 0.950 . S
H1262 C1283 0.953 . S
H1263 C1286 0.950 . S
H1264 C1287 0.950 . S
H1265 C1289 0.950 . S
H1266 C1290 0.950 1_565 S
H1267 C1291 0.951 . S
H1268 C1293 0.951 . S
H1269 C1295 0.950 . S
H1270 C1296 0.950 . S
H1271 C1298 0.950 . S
H1272 C1301 0.950 . S
H1273 C1302 0.950 . S
H1274 C1304 0.950 . S
H1275 C1305 0.950 . S
C1276 H1258 0.951 . S
C1276 C1277 1.366 . S
C1276 C1278 1.388 . S
C1277 C1276 1.366 . S
C1277 C1281 1.385 . S
C1278 H1259 0.951 . S
C1278 C1276 1.388 . S
C1278 C1279 1.366 . S
C1279 C1278 1.366 . S
C1279 C1280 1.414 . S
C1279 C1282 1.499 . S
C1280 H1260 0.950 . S
C1280 C1279 1.414 . S
C1280 C1281 1.374 . S
C1281 H1261 0.950 . S
C1281 C1277 1.385 . S
C1281 C1280 1.374 . S
C1282 C1279 1.499 . S
C1282 C1283 1.378 . S
C1282 C1284 1.389 1_545 S
C1283 H1262 0.953 . S
C1283 C1282 1.378 . S
C1283 C1299 1.369 1_545 S
C1284 C1282 1.389 1_565 S
C1284 C1285 1.524 1_565 S
C1284 C1298 1.377 . S
C1285 C1284 1.524 1_545 S
C1285 C1286 1.397 . S
C1285 C1290 1.363 . S
C1286 H1263 0.950 . S
C1286 C1285 1.397 . S
C1286 C1287 1.334 . S
C1287 H1264 0.950 . S
C1287 C1286 1.334 . S
C1287 C1288 1.287 . S
C1288 C1287 1.287 . S
C1288 C1289 1.524 . S
C1288 H1307 0.913 . S
C1289 H1265 0.950 . S
C1289 C1288 1.524 . S
C1289 C1290 1.415 . S
C1290 H1266 0.950 1_545 S
C1290 C1285 1.363 . S
C1290 C1289 1.415 . S
C1291 H1267 0.951 . S
C1291 C1292 1.366 . S
C1291 C1293 1.388 . S
C1292 C1291 1.366 . S
C1292 C1296 1.385 . S
C1293 H1268 0.951 . S
C1293 C1291 1.388 . S
C1293 C1294 1.366 . S
C1294 C1293 1.366 . S
C1294 C1295 1.414 . S
C1294 C1297 1.499 . S
C1295 H1269 0.950 . S
C1295 C1294 1.414 . S
C1295 C1296 1.374 . S
C1296 H1270 0.950 . S
C1296 C1292 1.385 . S
C1296 C1295 1.374 . S
C1297 C1294 1.499 . S
C1297 C1298 1.373 . S
C1297 C1299 1.389 . S
C1298 H1271 0.950 . S
C1298 C1284 1.377 . S
C1298 C1297 1.373 . S
C1299 C1283 1.369 1_565 S
C1299 C1297 1.389 . S
C1299 C1300 1.524 . S
C1300 C1299 1.524 . S
C1300 C1301 1.397 . S
C1300 C1305 1.363 . S
C1301 H1272 0.950 . S
C1301 C1300 1.397 . S
C1301 C1302 1.334 . S
C1302 H1273 0.950 . S
C1302 C1301 1.334 . S
C1302 C1303 1.287 . S
C1303 C1302 1.287 . S
C1303 C1304 1.524 . S
C1303 H1306 0.999 . S
C1304 H1274 0.950 . S
C1304 C1303 1.524 . S
C1304 C1305 1.415 . S
C1305 H1275 0.950 . S
C1305 C1300 1.363 . S
C1305 C1304 1.415 . S
H1306 C1303 0.999 . S
H1307 C1288 0.913 . S
H1308 C1326 0.951 . S
H1309 C1328 0.951 . S
H1310 C1330 0.950 . S
H1311 C1331 0.950 . S
H1312 C1333 0.950 . S
H1313 C1336 0.950 . S
H1314 C1337 0.950 . S
H1315 C1339 0.950 . S
H1316 C1340 0.950 . S
H1317 C1341 0.951 . S
H1318 C1343 0.951 . S
H1319 C1345 0.950 . S
H1320 C1346 0.950 . S
H1321 C1348 0.950 . S
H1322 C1351 0.950 . S
H1323 C1352 0.950 . S
H1324 C1354 0.950 . S
H1325 C1355 0.950 . S
C1326 H1308 0.951 . S
C1326 C1327 1.366 . S
C1326 C1328 1.388 . S
C1327 C1326 1.366 . S
C1327 C1331 1.385 . S
C1328 H1309 0.951 . S
C1328 C1326 1.388 . S
C1328 C1329 1.366 . S
C1329 C1328 1.366 . S
C1329 C1330 1.414 . S
C1329 C1332 1.499 . S
C1330 H1310 0.950 . S
C1330 C1329 1.414 . S
C1330 C1331 1.374 . S
C1331 H1311 0.950 . S
C1331 C1327 1.385 . S
C1331 C1330 1.374 . S
C1332 C1329 1.499 . S
C1332 C1333 1.373 . S
C1332 C1334 1.389 . S
C1333 H1312 0.950 . S
C1333 C1332 1.373 . S
C1333 C1349 1.377 . S
C1334 C1332 1.389 . S
C1334 C1335 1.524 . S
C1334 C1348 1.377 . S
C1335 C1334 1.524 . S
C1335 C1336 1.397 . S
C1335 C1340 1.363 . S
C1336 H1313 0.950 . S
C1336 C1335 1.397 . S
C1336 C1337 1.334 . S
C1337 H1314 0.950 . S
C1337 C1336 1.334 . S
C1337 C1338 1.287 . S
C1338 C1337 1.287 . S
C1338 C1339 1.524 . S
C1338 H1357 0.913 . S
C1339 H1315 0.950 . S
C1339 C1338 1.524 . S
C1339 C1340 1.415 . S
C1340 H1316 0.950 . S
C1340 C1335 1.363 . S
C1340 C1339 1.415 . S
C1341 H1317 0.951 . S
C1341 C1342 1.366 . S
C1341 C1343 1.388 . S
C1342 C1341 1.366 . S
C1342 C1346 1.385 . S
C1343 H1318 0.951 . S
C1343 C1341 1.388 . S
C1343 C1344 1.366 . S
C1344 C1343 1.366 . S
C1344 C1345 1.414 . S
C1344 C1347 1.499 . S
C1345 H1319 0.950 . S
C1345 C1344 1.414 . S
C1345 C1346 1.374 . S
C1346 H1320 0.950 . S
C1346 C1342 1.385 . S
C1346 C1345 1.374 . S
C1347 C1344 1.499 . S
C1347 C1348 1.373 . S
C1347 C1349 1.389 . S
C1348 H1321 0.950 . S
C1348 C1334 1.377 . S
C1348 C1347 1.373 . S
C1349 C1333 1.377 . S
C1349 C1347 1.389 . S
C1349 C1350 1.524 . S
C1350 C1349 1.524 . S
C1350 C1351 1.397 . S
C1350 C1355 1.363 . S
C1351 H1322 0.950 . S
C1351 C1350 1.397 . S
C1351 C1352 1.334 . S
C1352 H1323 0.950 . S
C1352 C1351 1.334 . S
C1352 C1353 1.287 . S
C1353 C1352 1.287 . S
C1353 C1354 1.524 . S
C1353 H1356 0.999 . S
C1354 H1324 0.950 . S
C1354 C1353 1.524 . S
C1354 C1355 1.415 . S
C1355 H1325 0.950 . S
C1355 C1350 1.363 . S
C1355 C1354 1.415 . S
H1356 C1353 0.999 . S
H1357 C1338 0.913 . S
H1358 C1376 0.951 . S
H1359 C1378 0.951 . S
H1360 C1380 0.950 . S
H1361 C1381 0.950 . S
H1362 C1383 0.950 . S
H1363 C1386 0.950 . S
H1364 C1387 0.950 . S
H1365 C1389 0.950 . S
H1366 C1390 0.950 . S
H1367 C1391 0.951 . S
H1368 C1393 0.951 . S
H1369 C1395 0.950 . S
H1370 C1396 0.950 . S
H1371 C1398 0.950 . S
H1372 C1401 0.950 . S
H1373 C1402 0.950 . S
H1374 C1404 0.950 . S
H1375 C1405 0.950 . S
C1376 H1358 0.951 . S
C1376 C1377 1.366 . S
C1376 C1378 1.388 . S
C1377 C1376 1.366 . S
C1377 C1381 1.385 . S
C1378 H1359 0.951 . S
C1378 C1376 1.388 . S
C1378 C1379 1.366 . S
C1379 C1378 1.366 . S
C1379 C1380 1.414 . S
C1379 C1382 1.499 . S
C1380 H1360 0.950 . S
C1380 C1379 1.414 . S
C1380 C1381 1.374 . S
C1381 H1361 0.950 . S
C1381 C1377 1.385 . S
C1381 C1380 1.374 . S
C1382 C1379 1.499 . S
C1382 C1383 1.373 . S
C1382 C1384 1.389 . S
C1383 H1362 0.950 . S
C1383 C1382 1.373 . S
C1383 C1399 1.377 . S
C1384 C1382 1.389 . S
C1384 C1385 1.524 . S
C1384 C1398 1.377 . S
C1385 C1384 1.524 . S
C1385 C1386 1.397 . S
C1385 C1390 1.363 . S
C1386 H1363 0.950 . S
C1386 C1385 1.397 . S
C1386 C1387 1.334 . S
C1387 H1364 0.950 . S
C1387 C1386 1.334 . S
C1387 C1388 1.287 . S
C1388 C1387 1.287 . S
C1388 C1389 1.524 . S
C1388 H1407 0.913 . S
C1389 H1365 0.950 . S
C1389 C1388 1.524 . S
C1389 C1390 1.415 . S
C1390 H1366 0.950 . S
C1390 C1385 1.363 . S
C1390 C1389 1.415 . S
C1391 H1367 0.951 . S
C1391 C1392 1.366 . S
C1391 C1393 1.388 . S
C1392 C1391 1.366 . S
C1392 C1396 1.385 . S
C1393 H1368 0.951 . S
C1393 C1391 1.388 . S
C1393 C1394 1.366 . S
C1394 C1393 1.366 . S
C1394 C1395 1.414 . S
C1394 C1397 1.499 . S
C1395 H1369 0.950 . S
C1395 C1394 1.414 . S
C1395 C1396 1.374 . S
C1396 H1370 0.950 . S
C1396 C1392 1.385 . S
C1396 C1395 1.374 . S
C1397 C1394 1.499 . S
C1397 C1398 1.373 . S
C1397 C1399 1.389 . S
C1398 H1371 0.950 . S
C1398 C1384 1.377 . S
C1398 C1397 1.373 . S
C1399 C1383 1.377 . S
C1399 C1397 1.389 . S
C1399 C1400 1.524 . S
C1400 C1399 1.524 . S
C1400 C1401 1.397 . S
C1400 C1405 1.363 . S
C1401 H1372 0.950 . S
C1401 C1400 1.397 . S
C1401 C1402 1.334 . S
C1402 H1373 0.950 . S
C1402 C1401 1.334 . S
C1402 C1403 1.287 . S
C1403 C1402 1.287 . S
C1403 C1404 1.524 . S
C1403 H1406 0.999 . S
C1404 H1374 0.950 . S
C1404 C1403 1.524 . S
C1404 C1405 1.415 . S
C1405 H1375 0.950 . S
C1405 C1400 1.363 . S
C1405 C1404 1.415 . S
H1406 C1403 0.999 . S
H1407 C1388 0.913 . S
H1408 C1426 0.951 . S
H1409 C1428 0.951 . S
H1410 C1430 0.950 . S
H1411 C1431 0.950 . S
H1412 C1433 0.950 . S
H1413 C1436 0.950 . S
H1414 C1437 0.950 . S
H1415 C1439 0.950 . S
H1416 C1440 0.950 . S
H1417 C1441 0.951 . S
H1418 C1443 0.951 . S
H1419 C1445 0.950 . S
H1420 C1446 0.950 . S
H1421 C1448 0.950 . S
H1422 C1451 0.950 . S
H1423 C1452 0.950 . S
H1424 C1454 0.950 . S
H1425 C1455 0.950 . S
C1426 H1408 0.951 . S
C1426 C1427 1.366 . S
C1426 C1428 1.388 . S
C1427 C1426 1.366 . S
C1427 C1431 1.385 . S
C1428 H1409 0.951 . S
C1428 C1426 1.388 . S
C1428 C1429 1.366 . S
C1429 C1428 1.366 . S
C1429 C1430 1.414 . S
C1429 C1432 1.499 . S
C1430 H1410 0.950 . S
C1430 C1429 1.414 . S
C1430 C1431 1.374 . S
C1431 H1411 0.950 . S
C1431 C1427 1.385 . S
C1431 C1430 1.374 . S
C1432 C1429 1.499 . S
C1432 C1433 1.373 . S
C1432 C1434 1.389 . S
C1433 H1412 0.950 . S
C1433 C1432 1.373 . S
C1433 C1449 1.377 . S
C1434 C1432 1.389 . S
C1434 C1435 1.524 . S
C1434 C1448 1.377 . S
C1435 C1434 1.524 . S
C1435 C1436 1.397 . S
C1435 C1440 1.363 . S
C1436 H1413 0.950 . S
C1436 C1435 1.397 . S
C1436 C1437 1.334 . S
C1437 H1414 0.950 . S
C1437 C1436 1.334 . S
C1437 C1438 1.287 . S
C1438 C1437 1.287 . S
C1438 C1439 1.524 . S
C1438 H1457 0.913 . S
C1439 H1415 0.950 . S
C1439 C1438 1.524 . S
C1439 C1440 1.415 . S
C1440 H1416 0.950 . S
C1440 C1435 1.363 . S
C1440 C1439 1.415 . S
C1441 H1417 0.951 . S
C1441 C1442 1.366 . S
C1441 C1443 1.388 . S
C1442 C1441 1.366 . S
C1442 C1446 1.385 . S
C1443 H1418 0.951 . S
C1443 C1441 1.388 . S
C1443 C1444 1.366 . S
C1444 C1443 1.366 . S
C1444 C1445 1.414 . S
C1444 C1447 1.499 . S
C1445 H1419 0.950 . S
C1445 C1444 1.414 . S
C1445 C1446 1.374 . S
C1446 H1420 0.950 . S
C1446 C1442 1.385 . S
C1446 C1445 1.374 . S
C1447 C1444 1.499 . S
C1447 C1448 1.373 . S
C1447 C1449 1.389 . S
C1448 H1421 0.950 . S
C1448 C1434 1.377 . S
C1448 C1447 1.373 . S
C1449 C1433 1.377 . S
C1449 C1447 1.389 . S
C1449 C1450 1.524 . S
C1450 C1449 1.524 . S
C1450 C1451 1.397 . S
C1450 C1455 1.363 . S
C1451 H1422 0.950 . S
C1451 C1450 1.397 . S
C1451 C1452 1.334 . S
C1452 H1423 0.950 . S
C1452 C1451 1.334 . S
C1452 C1453 1.287 . S
C1453 C1452 1.287 . S
C1453 C1454 1.524 . S
C1453 H1456 0.999 . S
C1454 H1424 0.950 . S
C1454 C1453 1.524 . S
C1454 C1455 1.415 . S
C1455 H1425 0.950 . S
C1455 C1450 1.363 . S
C1455 C1454 1.415 . S
H1456 C1453 0.999 . S
H1457 C1438 0.913 . S
H1458 C1476 0.951 . S
H1459 C1478 0.951 . S
H1460 C1480 0.950 . S
H1461 C1481 0.950 . S
H1462 C1483 0.950 . S
H1463 C1486 0.950 . S
H1464 C1487 0.950 . S
H1465 C1489 0.950 . S
H1466 C1490 0.950 . S
H1467 C1491 0.951 . S
H1468 C1493 0.951 . S
H1469 C1495 0.950 . S
H1470 C1496 0.950 . S
H1471 C1498 0.950 . S
H1472 C1501 0.950 . S
H1473 C1502 0.950 . S
H1474 C1504 0.950 . S
H1475 C1505 0.950 . S
C1476 H1458 0.951 . S
C1476 C1477 1.366 . S
C1476 C1478 1.388 . S
C1477 C1476 1.366 . S
C1477 C1481 1.385 . S
C1478 H1459 0.951 . S
C1478 C1476 1.388 . S
C1478 C1479 1.366 . S
C1479 C1478 1.366 . S
C1479 C1480 1.414 . S
C1479 C1482 1.499 . S
C1480 H1460 0.950 . S
C1480 C1479 1.414 . S
C1480 C1481 1.374 . S
C1481 H1461 0.950 . S
C1481 C1477 1.385 . S
C1481 C1480 1.374 . S
C1482 C1479 1.499 . S
C1482 C1483 1.373 . S
C1482 C1484 1.389 . S
C1483 H1462 0.950 . S
C1483 C1482 1.373 . S
C1483 C1499 1.377 . S
C1484 C1482 1.389 . S
C1484 C1485 1.524 . S
C1484 C1498 1.377 . S
C1485 C1484 1.524 . S
C1485 C1486 1.397 . S
C1485 C1490 1.363 . S
C1486 H1463 0.950 . S
C1486 C1485 1.397 . S
C1486 C1487 1.334 . S
C1487 H1464 0.950 . S
C1487 C1486 1.334 . S
C1487 C1488 1.287 . S
C1488 C1487 1.287 . S
C1488 C1489 1.524 . S
C1488 H1507 0.913 . S
C1489 H1465 0.950 . S
C1489 C1488 1.524 . S
C1489 C1490 1.415 . S
C1490 H1466 0.950 . S
C1490 C1485 1.363 . S
C1490 C1489 1.415 . S
C1491 H1467 0.951 . S
C1491 C1492 1.366 . S
C1491 C1493 1.388 . S
C1492 C1491 1.366 . S
C1492 C1496 1.385 . S
C1493 H1468 0.951 . S
C1493 C1491 1.388 . S
C1493 C1494 1.366 . S
C1494 C1493 1.366 . S
C1494 C1495 1.414 . S
C1494 C1497 1.499 . S
C1495 H1469 0.950 . S
C1495 C1494 1.414 . S
C1495 C1496 1.374 . S
C1496 H1470 0.950 . S
C1496 C1492 1.385 . S
C1496 C1495 1.374 . S
C1497 C1494 1.499 . S
C1497 C1498 1.373 . S
C1497 C1499 1.389 . S
C1498 H1471 0.950 . S
C1498 C1484 1.377 . S
C1498 C1497 1.373 . S
C1499 C1483 1.377 . S
C1499 C1497 1.389 . S
C1499 C1500 1.524 . S
C1500 C1499 1.524 . S
C1500 C1501 1.397 . S
C1500 C1505 1.363 . S
C1501 H1472 0.950 . S
C1501 C1500 1.397 . S
C1501 C1502 1.334 . S
C1502 H1473 0.950 . S
C1502 C1501 1.334 . S
C1502 C1503 1.287 . S
C1503 C1502 1.287 . S
C1503 C1504 1.524 . S
C1503 H1506 0.999 . S
C1504 H1474 0.950 . S
C1504 C1503 1.524 . S
C1504 C1505 1.415 . S
C1505 H1475 0.950 . S
C1505 C1500 1.363 . S
C1505 C1504 1.415 . S
H1506 C1503 0.999 . S
H1507 C1488 0.913 . S
H1508 C1526 0.951 . S
H1509 C1528 0.951 . S
H1510 C1530 0.950 . S
H1511 C1531 0.950 . S
H1512 C1533 0.950 . S
H1513 C1536 0.950 . S
H1514 C1537 0.950 . S
H1515 C1539 0.950 . S
H1516 C1540 0.950 . S
H1517 C1541 0.951 . S
H1518 C1543 0.951 . S
H1519 C1545 0.950 . S
H1520 C1546 0.950 . S
H1521 C1548 0.950 . S
H1522 C1551 0.950 . S
H1523 C1552 0.950 . S
H1524 C1554 0.950 . S
H1525 C1555 0.950 . S
C1526 H1508 0.951 . S
C1526 C1527 1.366 . S
C1526 C1528 1.388 . S
C1527 C1526 1.366 . S
C1527 C1531 1.385 . S
C1528 H1509 0.951 . S
C1528 C1526 1.388 . S
C1528 C1529 1.366 . S
C1529 C1528 1.366 . S
C1529 C1530 1.414 . S
C1529 C1532 1.499 . S
C1530 H1510 0.950 . S
C1530 C1529 1.414 . S
C1530 C1531 1.374 . S
C1531 H1511 0.950 . S
C1531 C1527 1.385 . S
C1531 C1530 1.374 . S
C1532 C1529 1.499 . S
C1532 C1533 1.373 . S
C1532 C1534 1.389 . S
C1533 H1512 0.950 . S
C1533 C1532 1.373 . S
C1533 C1549 1.377 . S
C1534 C1532 1.389 . S
C1534 C1535 1.524 . S
C1534 C1548 1.377 . S
C1535 C1534 1.524 . S
C1535 C1536 1.397 . S
C1535 C1540 1.363 . S
C1536 H1513 0.950 . S
C1536 C1535 1.397 . S
C1536 C1537 1.334 . S
C1537 H1514 0.950 . S
C1537 C1536 1.334 . S
C1537 C1538 1.287 . S
C1538 C1537 1.287 . S
C1538 C1539 1.524 . S
C1538 H1557 0.913 . S
C1539 H1515 0.950 . S
C1539 C1538 1.524 . S
C1539 C1540 1.415 . S
C1540 H1516 0.950 . S
C1540 C1535 1.363 . S
C1540 C1539 1.415 . S
C1541 H1517 0.951 . S
C1541 C1542 1.366 . S
C1541 C1543 1.388 . S
C1542 C1541 1.366 . S
C1542 C1546 1.385 . S
C1543 H1518 0.951 . S
C1543 C1541 1.388 . S
C1543 C1544 1.366 . S
C1544 C1543 1.366 . S
C1544 C1545 1.414 . S
C1544 C1547 1.499 . S
C1545 H1519 0.950 . S
C1545 C1544 1.414 . S
C1545 C1546 1.374 . S
C1546 H1520 0.950 . S
C1546 C1542 1.385 . S
C1546 C1545 1.374 . S
C1547 C1544 1.499 . S
C1547 C1548 1.373 . S
C1547 C1549 1.389 . S
C1548 H1521 0.950 . S
C1548 C1534 1.377 . S
C1548 C1547 1.373 . S
C1549 C1533 1.377 . S
C1549 C1547 1.389 . S
C1549 C1550 1.524 . S
C1550 C1549 1.524 . S
C1550 C1551 1.397 . S
C1550 C1555 1.363 . S
C1551 H1522 0.950 . S
C1551 C1550 1.397 . S
C1551 C1552 1.334 . S
C1552 H1523 0.950 . S
C1552 C1551 1.334 . S
C1552 C1553 1.287 . S
C1553 C1552 1.287 . S
C1553 C1554 1.524 . S
C1553 H1556 0.999 . S
C1554 H1524 0.950 . S
C1554 C1553 1.524 . S
C1554 C1555 1.415 . S
C1555 H1525 0.950 . S
C1555 C1550 1.363 . S
C1555 C1554 1.415 . S
H1556 C1553 0.999 . S
H1557 C1538 0.913 . S
H1558 C1576 0.951 . S
H1559 C1578 0.951 . S
H1560 C1580 0.950 . S
H1561 C1581 0.950 . S
H1562 C1583 0.950 . S
H1563 C1586 0.950 . S
H1564 C1587 0.950 . S
H1565 C1589 0.950 . S
H1566 C1590 0.950 . S
H1567 C1591 0.951 . S
H1568 C1593 0.951 . S
H1569 C1595 0.950 . S
H1570 C1596 0.950 . S
H1571 C1598 0.950 . S
H1572 C1601 0.950 . S
H1573 C1602 0.950 . S
H1574 C1604 0.950 . S
H1575 C1605 0.950 . S
C1576 H1558 0.951 . S
C1576 C1577 1.366 . S
C1576 C1578 1.388 . S
C1577 C1576 1.366 . S
C1577 C1581 1.385 . S
C1578 H1559 0.951 . S
C1578 C1576 1.388 . S
C1578 C1579 1.366 . S
C1579 C1578 1.366 . S
C1579 C1580 1.414 . S
C1579 C1582 1.499 . S
C1580 H1560 0.950 . S
C1580 C1579 1.414 . S
C1580 C1581 1.374 . S
C1581 H1561 0.950 . S
C1581 C1577 1.385 . S
C1581 C1580 1.374 . S
C1582 C1579 1.499 . S
C1582 C1583 1.373 . S
C1582 C1584 1.389 . S
C1583 H1562 0.950 . S
C1583 C1582 1.373 . S
C1583 C1599 1.377 . S
C1584 C1582 1.389 . S
C1584 C1585 1.524 . S
C1584 C1598 1.377 . S
C1585 C1584 1.524 . S
C1585 C1586 1.397 . S
C1585 C1590 1.363 . S
C1586 H1563 0.950 . S
C1586 C1585 1.397 . S
C1586 C1587 1.334 . S
C1587 H1564 0.950 . S
C1587 C1586 1.334 . S
C1587 C1588 1.287 . S
C1588 C1587 1.287 . S
C1588 C1589 1.524 . S
C1588 H1607 0.913 . S
C1589 H1565 0.950 . S
C1589 C1588 1.524 . S
C1589 C1590 1.415 . S
C1590 H1566 0.950 . S
C1590 C1585 1.363 . S
C1590 C1589 1.415 . S
C1591 H1567 0.951 . S
C1591 C1592 1.366 . S
C1591 C1593 1.388 . S
C1592 C1591 1.366 . S
C1592 C1596 1.385 . S
C1593 H1568 0.951 . S
C1593 C1591 1.388 . S
C1593 C1594 1.366 . S
C1594 C1593 1.366 . S
C1594 C1595 1.414 . S
C1594 C1597 1.499 . S
C1595 H1569 0.950 . S
C1595 C1594 1.414 . S
C1595 C1596 1.374 . S
C1596 H1570 0.950 . S
C1596 C1592 1.385 . S
C1596 C1595 1.374 . S
C1597 C1594 1.499 . S
C1597 C1598 1.373 . S
C1597 C1599 1.389 . S
C1598 H1571 0.950 . S
C1598 C1584 1.377 . S
C1598 C1597 1.373 . S
C1599 C1583 1.377 . S
C1599 C1597 1.389 . S
C1599 C1600 1.524 . S
C1600 C1599 1.524 . S
C1600 C1601 1.397 . S
C1600 C1605 1.363 . S
C1601 H1572 0.950 . S
C1601 C1600 1.397 . S
C1601 C1602 1.334 . S
C1602 H1573 0.950 . S
C1602 C1601 1.334 . S
C1602 C1603 1.287 . S
C1603 C1602 1.287 . S
C1603 C1604 1.524 . S
C1603 H1606 0.999 . S
C1604 H1574 0.950 . S
C1604 C1603 1.524 . S
C1604 C1605 1.415 . S
C1605 H1575 0.950 . S
C1605 C1600 1.363 . S
C1605 C1604 1.415 . S
H1606 C1603 0.999 . S
H1607 C1588 0.913 . S
H1608 C1626 0.951 . S
H1609 C1628 0.951 . S
H1610 C1630 0.950 . S
H1611 C1631 0.950 . S
H1612 C1633 0.950 1_545 S
H1613 C1636 0.950 . S
H1614 C1637 0.950 . S
H1615 C1639 0.950 . S
H1616 C1640 0.950 . S
H1617 C1641 0.951 . S
H1618 C1643 0.951 . S
H1619 C1645 0.950 . S
H1620 C1646 0.950 . S
H1621 C1648 0.950 . S
H1622 C1651 0.950 . S
H1623 C1652 0.950 . S
H1624 C1654 0.950 . S
H1625 C1655 0.950 . S
C1626 H1608 0.951 . S
C1626 C1627 1.366 . S
C1626 C1628 1.388 . S
C1627 C1626 1.366 . S
C1627 C1631 1.385 . S
C1628 H1609 0.951 . S
C1628 C1626 1.388 . S
C1628 C1629 1.366 . S
C1629 C1628 1.366 . S
C1629 C1630 1.414 . S
C1629 C1632 1.497 . S
C1630 H1610 0.950 . S
C1630 C1629 1.414 . S
C1630 C1631 1.374 . S
C1631 H1611 0.950 . S
C1631 C1627 1.385 . S
C1631 C1630 1.374 . S
C1632 C1629 1.497 . S
C1632 C1633 1.373 1_545 S
C1632 C1634 1.391 1_545 S
C1633 H1612 0.950 1_565 S
C1633 C1632 1.373 1_565 S
C1633 C1649 1.377 . S
C1634 C1632 1.391 1_565 S
C1634 C1635 1.524 . S
C1634 C1648 1.377 . S
C1635 C1634 1.524 . S
C1635 C1636 1.397 1_565 S
C1635 C1640 1.363 . S
C1636 H1613 0.950 . S
C1636 C1635 1.397 1_545 S
C1636 C1637 1.334 . S
C1637 H1614 0.950 . S
C1637 C1636 1.334 . S
C1637 C1638 1.287 . S
C1638 C1637 1.287 . S
C1638 C1639 1.524 1_545 S
C1638 H1657 0.913 . S
C1639 H1615 0.950 . S
C1639 C1638 1.524 1_565 S
C1639 C1640 1.415 . S
C1640 H1616 0.950 . S
C1640 C1635 1.363 . S
C1640 C1639 1.415 . S
C1641 H1617 0.951 . S
C1641 C1642 1.366 . S
C1641 C1643 1.388 . S
C1642 C1641 1.366 . S
C1642 C1646 1.385 . S
C1643 H1618 0.951 . S
C1643 C1641 1.388 . S
C1643 C1644 1.366 . S
C1644 C1643 1.366 . S
C1644 C1645 1.414 . S
C1644 C1647 1.499 . S
C1645 H1619 0.950 . S
C1645 C1644 1.414 . S
C1645 C1646 1.374 . S
C1646 H1620 0.950 . S
C1646 C1642 1.385 . S
C1646 C1645 1.374 . S
C1647 C1644 1.499 . S
C1647 C1648 1.373 . S
C1647 C1649 1.389 . S
C1648 H1621 0.950 . S
C1648 C1634 1.377 . S
C1648 C1647 1.373 . S
C1649 C1633 1.377 . S
C1649 C1647 1.389 . S
C1649 C1650 1.524 . S
C1650 C1649 1.524 . S
C1650 C1651 1.397 . S
C1650 C1655 1.363 . S
C1651 H1622 0.950 . S
C1651 C1650 1.397 . S
C1651 C1652 1.334 . S
C1652 H1623 0.950 . S
C1652 C1651 1.334 . S
C1652 C1653 1.287 . S
C1653 C1652 1.287 . S
C1653 C1654 1.524 . S
C1653 H1656 0.999 . S
C1654 H1624 0.950 . S
C1654 C1653 1.524 . S
C1654 C1655 1.415 . S
C1655 H1625 0.950 . S
C1655 C1650 1.363 . S
C1655 C1654 1.415 . S
H1656 C1653 0.999 . S
H1657 C1638 0.913 . S
H1658 C1676 0.951 . S
H1659 C1678 0.951 . S
H1660 C1680 0.950 . S
H1661 C1681 0.950 . S
H1662 C1683 0.950 . S
H1663 C1686 0.950 . S
H1664 C1687 0.950 . S
H1665 C1689 0.950 . S
H1666 C1690 0.950 . S
H1667 C1691 0.951 . S
H1668 C1693 0.951 . S
H1669 C1695 0.950 . S
H1670 C1696 0.950 . S
H1671 C1698 0.950 . S
H1672 C1701 0.950 . S
H1673 C1702 0.950 . S
H1674 C1704 0.950 . S
H1675 C1705 0.950 . S
C1676 H1658 0.951 . S
C1676 C1677 1.366 . S
C1676 C1678 1.388 . S
C1677 C1676 1.366 . S
C1677 C1681 1.385 . S
C1678 H1659 0.951 . S
C1678 C1676 1.388 . S
C1678 C1679 1.366 . S
C1679 C1678 1.366 . S
C1679 C1680 1.414 . S
C1679 C1682 1.499 1_655 S
C1680 H1660 0.950 . S
C1680 C1679 1.414 . S
C1680 C1681 1.374 . S
C1681 H1661 0.950 . S
C1681 C1677 1.385 . S
C1681 C1680 1.374 . S
C1682 C1679 1.499 1_455 S
C1682 C1683 1.373 . S
C1682 C1684 1.389 . S
C1683 H1662 0.950 . S
C1683 C1682 1.373 . S
C1683 C1699 1.377 . S
C1684 C1682 1.389 . S
C1684 C1685 1.524 . S
C1684 C1698 1.377 . S
C1685 C1684 1.524 . S
C1685 C1686 1.397 1_455 S
C1685 C1690 1.363 . S
C1686 H1663 0.950 . S
C1686 C1685 1.397 1_655 S
C1686 C1687 1.334 . S
C1687 H1664 0.950 . S
C1687 C1686 1.334 . S
C1687 C1688 1.287 . S
C1688 C1687 1.287 . S
C1688 C1689 1.524 . S
C1688 H1707 0.913 . S
C1689 H1665 0.950 . S
C1689 C1688 1.524 . S
C1689 C1690 1.415 1_655 S
C1690 H1666 0.950 . S
C1690 C1685 1.363 . S
C1690 C1689 1.415 1_455 S
C1691 H1667 0.951 . S
C1691 C1692 1.366 . S
C1691 C1693 1.388 . S
C1692 C1691 1.366 . S
C1692 C1696 1.385 . S
C1693 H1668 0.951 . S
C1693 C1691 1.388 . S
C1693 C1694 1.366 . S
C1694 C1693 1.366 . S
C1694 C1695 1.414 . S
C1694 C1697 1.499 . S
C1695 H1669 0.950 . S
C1695 C1694 1.414 . S
C1695 C1696 1.374 . S
C1696 H1670 0.950 . S
C1696 C1692 1.385 . S
C1696 C1695 1.374 . S
C1697 C1694 1.499 . S
C1697 C1698 1.373 . S
C1697 C1699 1.389 . S
C1698 H1671 0.950 . S
C1698 C1684 1.377 . S
C1698 C1697 1.373 . S
C1699 C1683 1.377 . S
C1699 C1697 1.389 . S
C1699 C1700 1.524 . S
C1700 C1699 1.524 . S
C1700 C1701 1.397 . S
C1700 C1705 1.363 . S
C1701 H1672 0.950 . S
C1701 C1700 1.397 . S
C1701 C1702 1.334 . S
C1702 H1673 0.950 . S
C1702 C1701 1.334 . S
C1702 C1703 1.287 . S
C1703 C1702 1.287 . S
C1703 C1704 1.524 . S
C1703 H1706 0.999 . S
C1704 H1674 0.950 . S
C1704 C1703 1.524 . S
C1704 C1705 1.415 . S
C1705 H1675 0.950 . S
C1705 C1700 1.363 . S
C1705 C1704 1.415 . S
H1706 C1703 0.999 . S
H1707 C1688 0.913 . S
H1708 C1726 0.951 . S
H1709 C1728 0.951 . S
H1710 C1730 0.950 . S
H1711 C1731 0.950 . S
H1712 C1733 0.950 . S
H1713 C1736 0.950 . S
H1714 C1737 0.950 . S
H1715 C1739 0.950 . S
H1716 C1740 0.950 . S
H1717 C1741 0.951 . S
H1718 C1743 0.951 . S
H1719 C1745 0.950 . S
H1720 C1746 0.950 . S
H1721 C1748 0.950 . S
H1722 C1751 0.950 . S
H1723 C1752 0.950 . S
H1724 C1754 0.950 . S
H1725 C1755 0.950 . S
C1726 H1708 0.951 . S
C1726 C1727 1.366 . S
C1726 C1728 1.388 . S
C1727 C1726 1.366 . S
C1727 C1731 1.385 . S
C1728 H1709 0.951 . S
C1728 C1726 1.388 . S
C1728 C1729 1.366 . S
C1729 C1728 1.366 . S
C1729 C1730 1.414 . S
C1729 C1732 1.499 . S
C1730 H1710 0.950 . S
C1730 C1729 1.414 . S
C1730 C1731 1.374 . S
C1731 H1711 0.950 . S
C1731 C1727 1.385 . S
C1731 C1730 1.374 . S
C1732 C1729 1.499 . S
C1732 C1733 1.373 . S
C1732 C1734 1.389 . S
C1733 H1712 0.950 . S
C1733 C1732 1.373 . S
C1733 C1749 1.377 . S
C1734 C1732 1.389 . S
C1734 C1735 1.524 . S
C1734 C1748 1.377 . S
C1735 C1734 1.524 . S
C1735 C1736 1.397 . S
C1735 C1740 1.363 . S
C1736 H1713 0.950 . S
C1736 C1735 1.397 . S
C1736 C1737 1.334 . S
C1737 H1714 0.950 . S
C1737 C1736 1.334 . S
C1737 C1738 1.287 . S
C1738 C1737 1.287 . S
C1738 C1739 1.524 . S
C1738 H1757 0.913 . S
C1739 H1715 0.950 . S
C1739 C1738 1.524 . S
C1739 C1740 1.415 . S
C1740 H1716 0.950 . S
C1740 C1735 1.363 . S
C1740 C1739 1.415 . S
C1741 H1717 0.951 . S
C1741 C1742 1.366 . S
C1741 C1743 1.388 . S
C1742 C1741 1.366 . S
C1742 C1746 1.385 . S
C1743 H1718 0.951 . S
C1743 C1741 1.388 . S
C1743 C1744 1.366 . S
C1744 C1743 1.366 . S
C1744 C1745 1.414 . S
C1744 C1747 1.499 . S
C1745 H1719 0.950 . S
C1745 C1744 1.414 . S
C1745 C1746 1.374 . S
C1746 H1720 0.950 . S
C1746 C1742 1.385 . S
C1746 C1745 1.374 . S
C1747 C1744 1.499 . S
C1747 C1748 1.373 . S
C1747 C1749 1.389 . S
C1748 H1721 0.950 . S
C1748 C1734 1.377 . S
C1748 C1747 1.373 . S
C1749 C1733 1.377 . S
C1749 C1747 1.389 . S
C1749 C1750 1.524 . S
C1750 C1749 1.524 . S
C1750 C1751 1.397 . S
C1750 C1755 1.363 . S
C1751 H1722 0.950 . S
C1751 C1750 1.397 . S
C1751 C1752 1.334 . S
C1752 H1723 0.950 . S
C1752 C1751 1.334 . S
C1752 C1753 1.287 . S
C1753 C1752 1.287 . S
C1753 C1754 1.524 . S
C1753 H1756 0.999 . S
C1754 H1724 0.950 . S
C1754 C1753 1.524 . S
C1754 C1755 1.415 . S
C1755 H1725 0.950 . S
C1755 C1750 1.363 . S
C1755 C1754 1.415 . S
H1756 C1753 0.999 . S
H1757 C1738 0.913 . S
H1758 C1776 0.951 . S
H1759 C1778 0.951 . S
H1760 C1780 0.950 . S
H1761 C1781 0.950 . S
H1762 C1783 0.950 . S
H1763 C1786 0.950 . S
H1764 C1787 0.950 . S
H1765 C1789 0.950 . S
H1766 C1790 0.950 . S
H1767 C1791 0.951 . S
H1768 C1793 0.951 . S
H1769 C1795 0.950 . S
H1770 C1796 0.950 . S
H1771 C1798 0.950 . S
H1772 C1801 0.950 . S
H1773 C1802 0.950 . S
H1774 C1804 0.950 . S
H1775 C1805 0.950 . S
C1776 H1758 0.951 . S
C1776 C1777 1.366 . S
C1776 C1778 1.388 . S
C1777 C1776 1.366 . S
C1777 C1781 1.385 . S
C1778 H1759 0.951 . S
C1778 C1776 1.388 . S
C1778 C1779 1.366 . S
C1779 C1778 1.366 . S
C1779 C1780 1.414 . S
C1779 C1782 1.499 . S
C1780 H1760 0.950 . S
C1780 C1779 1.414 . S
C1780 C1781 1.374 . S
C1781 H1761 0.950 . S
C1781 C1777 1.385 . S
C1781 C1780 1.374 . S
C1782 C1779 1.499 . S
C1782 C1783 1.373 . S
C1782 C1784 1.389 . S
C1783 H1762 0.950 . S
C1783 C1782 1.373 . S
C1783 C1799 1.377 . S
C1784 C1782 1.389 . S
C1784 C1785 1.524 . S
C1784 C1798 1.377 . S
C1785 C1784 1.524 . S
C1785 C1786 1.397 . S
C1785 C1790 1.363 . S
C1786 H1763 0.950 . S
C1786 C1785 1.397 . S
C1786 C1787 1.334 . S
C1787 H1764 0.950 . S
C1787 C1786 1.334 . S
C1787 C1788 1.287 . S
C1788 C1787 1.287 . S
C1788 C1789 1.524 . S
C1788 H1807 0.913 . S
C1789 H1765 0.950 . S
C1789 C1788 1.524 . S
C1789 C1790 1.415 . S
C1790 H1766 0.950 . S
C1790 C1785 1.363 . S
C1790 C1789 1.415 . S
C1791 H1767 0.951 . S
C1791 C1792 1.366 . S
C1791 C1793 1.388 . S
C1792 C1791 1.366 . S
C1792 C1796 1.385 . S
C1793 H1768 0.951 . S
C1793 C1791 1.388 . S
C1793 C1794 1.366 . S
C1794 C1793 1.366 . S
C1794 C1795 1.414 . S
C1794 C1797 1.499 . S
C1795 H1769 0.950 . S
C1795 C1794 1.414 . S
C1795 C1796 1.374 . S
C1796 H1770 0.950 . S
C1796 C1792 1.385 . S
C1796 C1795 1.374 . S
C1797 C1794 1.499 . S
C1797 C1798 1.373 . S
C1797 C1799 1.389 . S
C1798 H1771 0.950 . S
C1798 C1784 1.377 . S
C1798 C1797 1.373 . S
C1799 C1783 1.377 . S
C1799 C1797 1.389 . S
C1799 C1800 1.524 . S
C1800 C1799 1.524 . S
C1800 C1801 1.397 . S
C1800 C1805 1.363 . S
C1801 H1772 0.950 . S
C1801 C1800 1.397 . S
C1801 C1802 1.334 . S
C1802 H1773 0.950 . S
C1802 C1801 1.334 . S
C1802 C1803 1.287 . S
C1803 C1802 1.287 . S
C1803 C1804 1.524 . S
C1803 H1806 0.999 . S
C1804 H1774 0.950 . S
C1804 C1803 1.524 . S
C1804 C1805 1.415 . S
C1805 H1775 0.950 . S
C1805 C1800 1.363 . S
C1805 C1804 1.415 . S
H1806 C1803 0.999 . S
H1807 C1788 0.913 . S
H1808 C1826 0.951 . S
H1809 C1828 0.951 . S
H1810 C1830 0.950 . S
H1811 C1831 0.950 . S
H1812 C1833 0.950 . S
H1813 C1836 0.950 . S
H1814 C1837 0.950 . S
H1815 C1839 0.950 . S
H1816 C1840 0.950 . S
H1817 C1841 0.951 . S
H1818 C1843 0.951 . S
H1819 C1845 0.950 . S
H1820 C1846 0.950 . S
H1821 C1848 0.950 . S
H1822 C1851 0.950 . S
H1823 C1852 0.950 . S
H1824 C1854 0.950 . S
H1825 C1855 0.950 . S
C1826 H1808 0.951 . S
C1826 C1827 1.366 . S
C1826 C1828 1.388 . S
C1827 C1826 1.366 . S
C1827 C1831 1.385 . S
C1828 H1809 0.951 . S
C1828 C1826 1.388 . S
C1828 C1829 1.366 . S
C1829 C1828 1.366 . S
C1829 C1830 1.414 . S
C1829 C1832 1.499 . S
C1830 H1810 0.950 . S
C1830 C1829 1.414 . S
C1830 C1831 1.374 . S
C1831 H1811 0.950 . S
C1831 C1827 1.385 . S
C1831 C1830 1.374 . S
C1832 C1829 1.499 . S
C1832 C1833 1.373 . S
C1832 C1834 1.389 . S
C1833 H1812 0.950 . S
C1833 C1832 1.373 . S
C1833 C1849 1.377 . S
C1834 C1832 1.389 . S
C1834 C1835 1.524 . S
C1834 C1848 1.377 . S
C1835 C1834 1.524 . S
C1835 C1836 1.397 . S
C1835 C1840 1.363 . S
C1836 H1813 0.950 . S
C1836 C1835 1.397 . S
C1836 C1837 1.334 . S
C1837 H1814 0.950 . S
C1837 C1836 1.334 . S
C1837 C1838 1.287 . S
C1838 C1837 1.287 . S
C1838 C1839 1.524 . S
C1838 H1857 0.913 . S
C1839 H1815 0.950 . S
C1839 C1838 1.524 . S
C1839 C1840 1.415 . S
C1840 H1816 0.950 . S
C1840 C1835 1.363 . S
C1840 C1839 1.415 . S
C1841 H1817 0.951 . S
C1841 C1842 1.366 . S
C1841 C1843 1.388 . S
C1842 C1841 1.366 . S
C1842 C1846 1.385 . S
C1843 H1818 0.951 . S
C1843 C1841 1.388 . S
C1843 C1844 1.366 . S
C1844 C1843 1.366 . S
C1844 C1845 1.414 . S
C1844 C1847 1.499 . S
C1845 H1819 0.950 . S
C1845 C1844 1.414 . S
C1845 C1846 1.374 . S
C1846 H1820 0.950 . S
C1846 C1842 1.385 . S
C1846 C1845 1.374 . S
C1847 C1844 1.499 . S
C1847 C1848 1.373 . S
C1847 C1849 1.389 . S
C1848 H1821 0.950 . S
C1848 C1834 1.377 . S
C1848 C1847 1.373 . S
C1849 C1833 1.377 . S
C1849 C1847 1.389 . S
C1849 C1850 1.524 . S
C1850 C1849 1.524 . S
C1850 C1851 1.397 . S
C1850 C1855 1.363 . S
C1851 H1822 0.950 . S
C1851 C1850 1.397 . S
C1851 C1852 1.334 . S
C1852 H1823 0.950 . S
C1852 C1851 1.334 . S
C1852 C1853 1.287 . S
C1853 C1852 1.287 . S
C1853 C1854 1.524 . S
C1853 H1856 0.999 . S
C1854 H1824 0.950 . S
C1854 C1853 1.524 . S
C1854 C1855 1.415 . S
C1855 H1825 0.950 . S
C1855 C1850 1.363 . S
C1855 C1854 1.415 . S
H1856 C1853 0.999 . S
H1857 C1838 0.913 . S
H1858 C1876 0.951 . S
H1859 C1878 0.951 . S
H1860 C1880 0.950 . S
H1861 C1881 0.950 . S
H1862 C1883 0.950 . S
H1863 C1886 0.950 . S
H1864 C1887 0.950 . S
H1865 C1889 0.950 . S
H1866 C1890 0.950 . S
H1867 C1891 0.951 . S
H1868 C1893 0.951 . S
H1869 C1895 0.950 . S
H1870 C1896 0.950 . S
H1871 C1898 0.950 . S
H1872 C1901 0.950 . S
H1873 C1902 0.950 . S
H1874 C1904 0.950 . S
H1875 C1905 0.950 . S
C1876 H1858 0.951 . S
C1876 C1877 1.366 . S
C1876 C1878 1.388 . S
C1877 C1876 1.366 . S
C1877 C1881 1.385 . S
C1878 H1859 0.951 . S
C1878 C1876 1.388 . S
C1878 C1879 1.366 . S
C1879 C1878 1.366 . S
C1879 C1880 1.414 . S
C1879 C1882 1.499 . S
C1880 H1860 0.950 . S
C1880 C1879 1.414 . S
C1880 C1881 1.374 . S
C1881 H1861 0.950 . S
C1881 C1877 1.385 . S
C1881 C1880 1.374 . S
C1882 C1879 1.499 . S
C1882 C1883 1.373 . S
C1882 C1884 1.389 . S
C1883 H1862 0.950 . S
C1883 C1882 1.373 . S
C1883 C1899 1.377 . S
C1884 C1882 1.389 . S
C1884 C1885 1.524 . S
C1884 C1898 1.377 . S
C1885 C1884 1.524 . S
C1885 C1886 1.397 . S
C1885 C1890 1.363 . S
C1886 H1863 0.950 . S
C1886 C1885 1.397 . S
C1886 C1887 1.334 . S
C1887 H1864 0.950 . S
C1887 C1886 1.334 . S
C1887 C1888 1.287 . S
C1888 C1887 1.287 . S
C1888 C1889 1.524 . S
C1888 H1907 0.913 . S
C1889 H1865 0.950 . S
C1889 C1888 1.524 . S
C1889 C1890 1.415 . S
C1890 H1866 0.950 . S
C1890 C1885 1.363 . S
C1890 C1889 1.415 . S
C1891 H1867 0.951 . S
C1891 C1892 1.366 . S
C1891 C1893 1.388 . S
C1892 C1891 1.366 . S
C1892 C1896 1.385 . S
C1893 H1868 0.951 . S
C1893 C1891 1.388 . S
C1893 C1894 1.366 . S
C1894 C1893 1.366 . S
C1894 C1895 1.414 . S
C1894 C1897 1.499 . S
C1895 H1869 0.950 . S
C1895 C1894 1.414 . S
C1895 C1896 1.374 . S
C1896 H1870 0.950 . S
C1896 C1892 1.385 . S
C1896 C1895 1.374 . S
C1897 C1894 1.499 . S
C1897 C1898 1.373 . S
C1897 C1899 1.389 . S
C1898 H1871 0.950 . S
C1898 C1884 1.377 . S
C1898 C1897 1.373 . S
C1899 C1883 1.377 . S
C1899 C1897 1.389 . S
C1899 C1900 1.524 . S
C1900 C1899 1.524 . S
C1900 C1901 1.397 . S
C1900 C1905 1.363 . S
C1901 H1872 0.950 . S
C1901 C1900 1.397 . S
C1901 C1902 1.334 . S
C1902 H1873 0.950 . S
C1902 C1901 1.334 . S
C1902 C1903 1.287 . S
C1903 C1902 1.287 . S
C1903 C1904 1.524 . S
C1903 H1906 0.999 . S
C1904 H1874 0.950 . S
C1904 C1903 1.524 . S
C1904 C1905 1.415 . S
C1905 H1875 0.950 . S
C1905 C1900 1.363 . S
C1905 C1904 1.415 . S
H1906 C1903 0.999 . S
H1907 C1888 0.913 . S
H1908 C1926 0.951 . S
H1909 C1928 0.951 . S
H1910 C1930 0.950 . S
H1911 C1931 0.950 . S
H1912 C1933 0.950 . S
H1913 C1936 0.950 . S
H1914 C1937 0.950 . S
H1915 C1939 0.950 . S
H1916 C1940 0.926 1_545 S
H1917 C1941 0.951 . S
H1918 C1943 0.951 . S
H1919 C1945 0.950 . S
H1920 C1946 0.950 . S
H1921 C1948 0.950 . S
H1922 C1951 0.950 . S
H1923 C1952 0.950 . S
H1924 C1954 0.950 . S
H1925 C1955 0.950 . S
C1926 H1908 0.951 . S
C1926 C1927 1.366 . S
C1926 C1928 1.388 . S
C1927 C1926 1.366 . S
C1927 C1931 1.385 . S
C1928 H1909 0.951 . S
C1928 C1926 1.388 . S
C1928 C1929 1.366 . S
C1929 C1928 1.366 . S
C1929 C1930 1.414 . S
C1929 C1932 1.499 . S
C1930 H1910 0.950 . S
C1930 C1929 1.414 . S
C1930 C1931 1.374 . S
C1931 H1911 0.950 . S
C1931 C1927 1.385 . S
C1931 C1930 1.374 . S
C1932 C1929 1.499 . S
C1932 C1933 1.373 1_565 S
C1932 C1934 1.389 1_565 S
C1933 H1912 0.950 . S
C1933 C1932 1.373 1_545 S
C1933 C1949 1.377 . S
C1934 C1932 1.389 1_545 S
C1934 C1935 1.524 1_545 S
C1934 C1948 1.377 . S
C1935 C1934 1.524 1_565 S
C1935 C1936 1.397 . S
C1935 C1940 1.363 . S
C1936 H1913 0.950 . S
C1936 C1935 1.397 . S
C1936 C1937 1.334 . S
C1937 H1914 0.950 . S
C1937 C1936 1.334 . S
C1937 C1938 1.287 . S
C1938 C1937 1.287 . S
C1938 C1939 1.524 . S
C1938 H1957 0.913 . S
C1939 H1915 0.950 . S
C1939 C1938 1.524 . S
C1939 C1940 1.415 . S
C1940 H1916 0.926 1_565 S
C1940 C1935 1.363 . S
C1940 C1939 1.415 . S
C1941 H1917 0.951 . S
C1941 C1942 1.366 . S
C1941 C1943 1.388 . S
C1942 C1941 1.366 . S
C1942 C1946 1.385 . S
C1943 H1918 0.951 . S
C1943 C1941 1.388 . S
C1943 C1944 1.366 . S
C1944 C1943 1.366 . S
C1944 C1945 1.414 . S
C1944 C1947 1.499 . S
C1945 H1919 0.950 . S
C1945 C1944 1.414 . S
C1945 C1946 1.374 . S
C1946 H1920 0.950 . S
C1946 C1942 1.385 . S
C1946 C1945 1.374 . S
C1947 C1944 1.499 . S
C1947 C1948 1.373 . S
C1947 C1949 1.389 . S
C1948 H1921 0.950 . S
C1948 C1934 1.377 . S
C1948 C1947 1.373 . S
C1949 C1933 1.377 . S
C1949 C1947 1.389 . S
C1949 C1950 1.524 . S
C1950 C1949 1.524 . S
C1950 C1951 1.397 . S
C1950 C1955 1.363 . S
C1951 H1922 0.950 . S
C1951 C1950 1.397 . S
C1951 C1952 1.334 . S
C1952 H1923 0.950 . S
C1952 C1951 1.334 . S
C1952 C1953 1.287 . S
C1953 C1952 1.287 . S
C1953 C1954 1.524 . S
C1953 H1956 0.999 . S
C1954 H1924 0.950 . S
C1954 C1953 1.524 . S
C1954 C1955 1.415 . S
C1955 H1925 0.950 . S
C1955 C1950 1.363 . S
C1955 C1954 1.415 . S
H1956 C1953 0.999 . S
H1957 C1938 0.913 . S
H1958 C1976 0.951 . S
H1959 C1978 0.951 . S
H1960 C1980 0.950 . S
H1961 C1981 0.950 . S
H1962 C1983 0.950 1_455 S
H1963 C1986 0.940 1_455 S
H1964 C1987 0.950 . S
H1965 C1989 0.950 . S
H1966 C1990 0.950 . S
H1967 C1991 0.951 . S
H1968 C1993 0.951 . S
H1969 C1995 0.950 . S
H1970 C1996 0.950 . S
H1971 C1998 0.950 . S
H1972 C2001 0.950 . S
H1973 C2002 0.950 . S
H1974 C2004 0.950 . S
H1975 C2005 0.950 . S
C1976 H1958 0.951 . S
C1976 C1977 1.366 . S
C1976 C1978 1.388 . S
C1977 C1976 1.366 . S
C1977 C1981 1.385 . S
C1978 H1959 0.951 . S
C1978 C1976 1.388 . S
C1978 C1979 1.366 . S
C1979 C1978 1.366 . S
C1979 C1980 1.414 . S
C1979 C1982 1.499 1_455 S
C1980 H1960 0.950 . S
C1980 C1979 1.414 . S
C1980 C1981 1.374 . S
C1981 H1961 0.950 . S
C1981 C1977 1.385 . S
C1981 C1980 1.374 . S
C1982 C1979 1.499 1_655 S
C1982 C1983 1.373 . S
C1982 C1984 1.389 . S
C1983 H1962 0.950 1_655 S
C1983 C1982 1.373 . S
C1983 C1999 1.377 . S
C1984 C1982 1.389 . S
C1984 C1985 1.524 . S
C1984 C1998 1.377 . S
C1985 C1984 1.524 . S
C1985 C1986 1.407 . S
C1985 C1990 1.363 . S
C1986 H1963 0.940 1_655 S
C1986 C1985 1.407 . S
C1986 C1987 1.334 1_655 S
C1987 H1964 0.950 . S
C1987 C1986 1.334 1_455 S
C1987 C1988 1.287 1_455 S
C1988 C1987 1.287 1_655 S
C1988 C1989 1.524 . S
C1988 H2007 0.913 . S
C1989 H1965 0.950 . S
C1989 C1988 1.524 . S
C1989 C1990 1.415 . S
C1990 H1966 0.950 . S
C1990 C1985 1.363 . S
C1990 C1989 1.415 . S
C1991 H1967 0.951 . S
C1991 C1992 1.366 . S
C1991 C1993 1.388 . S
C1992 C1991 1.366 . S
C1992 C1996 1.385 . S
C1993 H1968 0.951 . S
C1993 C1991 1.388 . S
C1993 C1994 1.366 . S
C1994 C1993 1.366 . S
C1994 C1995 1.414 . S
C1994 C1997 1.499 . S
C1995 H1969 0.950 . S
C1995 C1994 1.414 . S
C1995 C1996 1.374 . S
C1996 H1970 0.950 . S
C1996 C1992 1.385 . S
C1996 C1995 1.374 . S
C1997 C1994 1.499 . S
C1997 C1998 1.373 . S
C1997 C1999 1.389 . S
C1998 H1971 0.950 . S
C1998 C1984 1.377 . S
C1998 C1997 1.373 . S
C1999 C1983 1.377 . S
C1999 C1997 1.389 . S
C1999 C2000 1.524 . S
C2000 C1999 1.524 . S
C2000 C2001 1.397 . S
C2000 C2005 1.363 . S
C2001 H1972 0.950 . S
C2001 C2000 1.397 . S
C2001 C2002 1.334 . S
C2002 H1973 0.950 . S
C2002 C2001 1.334 . S
C2002 C2003 1.287 . S
C2003 C2002 1.287 . S
C2003 C2004 1.524 . S
C2003 H2006 0.999 . S
C2004 H1974 0.950 . S
C2004 C2003 1.524 . S
C2004 C2005 1.415 . S
C2005 H1975 0.950 . S
C2005 C2000 1.363 . S
C2005 C2004 1.415 . S
H2006 C2003 0.999 . S
H2007 C1988 0.913 . S
H2008 C2026 0.951 . S
H2009 C2028 0.951 . S
H2010 C2030 0.950 . S
H2011 C2031 0.950 . S
H2012 C2033 0.950 . S
H2013 C2036 0.950 . S
H2014 C2037 0.950 . S
H2015 C2039 0.950 . S
H2016 C2040 0.950 . S
H2017 C2041 0.951 . S
H2018 C2043 0.951 . S
H2019 C2045 0.950 . S
H2020 C2046 0.950 . S
H2021 C2048 0.950 . S
H2022 C2051 0.950 . S
H2023 C2052 0.950 . S
H2024 C2054 0.950 . S
H2025 C2055 0.950 . S
C2026 H2008 0.951 . S
C2026 C2027 1.366 . S
C2026 C2028 1.388 . S
C2027 C2026 1.366 . S
C2027 C2031 1.385 . S
C2028 H2009 0.951 . S
C2028 C2026 1.388 . S
C2028 C2029 1.366 . S
C2029 C2028 1.366 . S
C2029 C2030 1.414 . S
C2029 C2032 1.499 . S
C2030 H2010 0.950 . S
C2030 C2029 1.414 . S
C2030 C2031 1.374 . S
C2031 H2011 0.950 . S
C2031 C2027 1.385 . S
C2031 C2030 1.374 . S
C2032 C2029 1.499 . S
C2032 C2033 1.373 . S
C2032 C2034 1.389 . S
C2033 H2012 0.950 . S
C2033 C2032 1.373 . S
C2033 C2049 1.377 . S
C2034 C2032 1.389 . S
C2034 C2035 1.524 . S
C2034 C2048 1.377 . S
C2035 C2034 1.524 . S
C2035 C2036 1.397 . S
C2035 C2040 1.363 . S
C2036 H2013 0.950 . S
C2036 C2035 1.397 . S
C2036 C2037 1.334 . S
C2037 H2014 0.950 . S
C2037 C2036 1.334 . S
C2037 C2038 1.287 . S
C2038 C2037 1.287 . S
C2038 C2039 1.524 . S
C2038 H2057 0.913 . S
C2039 H2015 0.950 . S
C2039 C2038 1.524 . S
C2039 C2040 1.415 . S
C2040 H2016 0.950 . S
C2040 C2035 1.363 . S
C2040 C2039 1.415 . S
C2041 H2017 0.951 . S
C2041 C2042 1.366 . S
C2041 C2043 1.388 . S
C2042 C2041 1.366 . S
C2042 C2046 1.385 . S
C2043 H2018 0.951 . S
C2043 C2041 1.388 . S
C2043 C2044 1.366 . S
C2044 C2043 1.366 . S
C2044 C2045 1.414 . S
C2044 C2047 1.499 . S
C2045 H2019 0.950 . S
C2045 C2044 1.414 . S
C2045 C2046 1.374 . S
C2046 H2020 0.950 . S
C2046 C2042 1.385 . S
C2046 C2045 1.374 . S
C2047 C2044 1.499 . S
C2047 C2048 1.373 . S
C2047 C2049 1.389 . S
C2048 H2021 0.950 . S
C2048 C2034 1.377 . S
C2048 C2047 1.373 . S
C2049 C2033 1.377 . S
C2049 C2047 1.389 . S
C2049 C2050 1.524 . S
C2050 C2049 1.524 . S
C2050 C2051 1.397 . S
C2050 C2055 1.363 . S
C2051 H2022 0.950 . S
C2051 C2050 1.397 . S
C2051 C2052 1.334 . S
C2052 H2023 0.950 . S
C2052 C2051 1.334 . S
C2052 C2053 1.287 . S
C2053 C2052 1.287 . S
C2053 C2054 1.524 . S
C2053 H2056 0.999 . S
C2054 H2024 0.950 . S
C2054 C2053 1.524 . S
C2054 C2055 1.415 . S
C2055 H2025 0.950 . S
C2055 C2050 1.363 . S
C2055 C2054 1.415 . S
H2056 C2053 0.999 . S
H2057 C2038 0.913 . S
H2058 C2076 0.951 . S
H2059 C2078 0.919 1_655 S
H2060 C2080 0.950 . S
H2061 C2081 0.950 . S
H2062 C2083 0.950 . S
H2063 C2086 0.986 . S
H2064 C2087 0.950 1_455 S
H2065 C2089 0.950 . S
H2066 C2090 0.950 . S
H2067 C2091 0.951 . S
H2068 C2093 0.951 . S
H2069 C2095 0.950 . S
H2070 C2096 0.950 . S
H2071 C2098 0.950 . S
H2072 C2101 0.950 . S
H2073 C2102 0.950 . S
H2074 C2104 0.950 . S
H2075 C2105 0.950 . S
C2076 H2058 0.951 . S
C2076 C2077 1.366 . S
C2076 C2078 1.388 . S
C2077 C2076 1.366 . S
C2077 C2081 1.385 . S
C2078 H2059 0.919 1_455 S
C2078 C2076 1.388 . S
C2078 C2079 1.366 . S
C2079 C2078 1.366 . S
C2079 C2080 1.414 . S
C2079 C2082 1.499 1_455 S
C2080 H2060 0.950 . S
C2080 C2079 1.414 . S
C2080 C2081 1.374 . S
C2081 H2061 0.950 . S
C2081 C2077 1.385 . S
C2081 C2080 1.374 . S
C2082 C2079 1.499 1_655 S
C2082 C2083 1.373 . S
C2082 C2084 1.389 . S
C2083 H2062 0.950 . S
C2083 C2082 1.373 . S
C2083 C2099 1.377 . S
C2084 C2082 1.389 . S
C2084 C2085 1.524 . S
C2084 C2098 1.377 . S
C2085 C2084 1.524 . S
C2085 C2086 1.397 . S
C2085 C2090 1.363 . S
C2086 H2063 0.986 . S
C2086 C2085 1.397 . S
C2086 C2087 1.334 . S
C2087 H2064 0.950 1_655 S
C2087 C2086 1.334 . S
C2087 C2088 1.287 . S
C2088 C2087 1.287 . S
C2088 C2089 1.524 . S
C2088 H2107 0.913 . S
C2089 H2065 0.950 . S
C2089 C2088 1.524 . S
C2089 C2090 1.415 . S
C2090 H2066 0.950 . S
C2090 C2085 1.363 . S
C2090 C2089 1.415 . S
C2091 H2067 0.951 . S
C2091 C2092 1.366 . S
C2091 C2093 1.388 . S
C2092 C2091 1.366 . S
C2092 C2096 1.385 . S
C2093 H2068 0.951 . S
C2093 C2091 1.388 . S
C2093 C2094 1.366 . S
C2094 C2093 1.366 . S
C2094 C2095 1.414 . S
C2094 C2097 1.499 . S
C2095 H2069 0.950 . S
C2095 C2094 1.414 . S
C2095 C2096 1.374 . S
C2096 H2070 0.950 . S
C2096 C2092 1.385 . S
C2096 C2095 1.374 . S
C2097 C2094 1.499 . S
C2097 C2098 1.373 . S
C2097 C2099 1.389 . S
C2098 H2071 0.950 . S
C2098 C2084 1.377 . S
C2098 C2097 1.373 . S
C2099 C2083 1.377 . S
C2099 C2097 1.389 . S
C2099 C2100 1.524 . S
C2100 C2099 1.524 . S
C2100 C2101 1.397 . S
C2100 C2105 1.363 . S
C2101 H2072 0.950 . S
C2101 C2100 1.397 . S
C2101 C2102 1.334 . S
C2102 H2073 0.950 . S
C2102 C2101 1.334 . S
C2102 C2103 1.287 . S
C2103 C2102 1.287 . S
C2103 C2104 1.524 . S
C2103 H2106 0.999 . S
C2104 H2074 0.950 . S
C2104 C2103 1.524 . S
C2104 C2105 1.415 . S
C2105 H2075 0.950 . S
C2105 C2100 1.363 . S
C2105 C2104 1.415 . S
H2106 C2103 0.999 . S
H2107 C2088 0.913 . S
H2108 C2126 0.951 . S
H2109 C2128 0.951 . S
H2110 C2130 0.950 . S
H2111 C2131 0.950 . S
H2112 C2133 0.950 . S
H2113 C2136 0.950 . S
H2114 C2137 0.950 . S
H2115 C2139 0.950 . S
H2116 C2140 0.950 . S
H2117 C2141 0.951 . S
H2118 C2143 0.951 . S
H2119 C2145 0.950 . S
H2120 C2146 0.950 . S
H2121 C2148 0.950 . S
H2122 C2151 0.950 . S
H2123 C2152 0.950 . S
H2124 C2154 0.950 . S
H2125 C2155 0.950 . S
C2126 H2108 0.951 . S
C2126 C2127 1.366 . S
C2126 C2128 1.388 . S
C2127 C2126 1.366 . S
C2127 C2131 1.385 . S
C2128 H2109 0.951 . S
C2128 C2126 1.388 . S
C2128 C2129 1.366 . S
C2129 C2128 1.366 . S
C2129 C2130 1.414 . S
C2129 C2132 1.499 . S
C2130 H2110 0.950 . S
C2130 C2129 1.414 . S
C2130 C2131 1.374 . S
C2131 H2111 0.950 . S
C2131 C2127 1.385 . S
C2131 C2130 1.374 . S
C2132 C2129 1.499 . S
C2132 C2133 1.373 . S
C2132 C2134 1.389 . S
C2133 H2112 0.950 . S
C2133 C2132 1.373 . S
C2133 C2149 1.377 . S
C2134 C2132 1.389 . S
C2134 C2135 1.524 . S
C2134 C2148 1.377 . S
C2135 C2134 1.524 . S
C2135 C2136 1.397 . S
C2135 C2140 1.363 . S
C2136 H2113 0.950 . S
C2136 C2135 1.397 . S
C2136 C2137 1.334 . S
C2137 H2114 0.950 . S
C2137 C2136 1.334 . S
C2137 C2138 1.287 . S
C2138 C2137 1.287 . S
C2138 C2139 1.524 . S
C2138 H2157 0.913 . S
C2139 H2115 0.950 . S
C2139 C2138 1.524 . S
C2139 C2140 1.415 . S
C2140 H2116 0.950 . S
C2140 C2135 1.363 . S
C2140 C2139 1.415 . S
C2141 H2117 0.951 . S
C2141 C2142 1.366 . S
C2141 C2143 1.388 . S
C2142 C2141 1.366 . S
C2142 C2146 1.385 . S
C2143 H2118 0.951 . S
C2143 C2141 1.388 . S
C2143 C2144 1.366 . S
C2144 C2143 1.366 . S
C2144 C2145 1.414 . S
C2144 C2147 1.499 . S
C2145 H2119 0.950 . S
C2145 C2144 1.414 . S
C2145 C2146 1.374 . S
C2146 H2120 0.950 . S
C2146 C2142 1.385 . S
C2146 C2145 1.374 . S
C2147 C2144 1.499 . S
C2147 C2148 1.373 . S
C2147 C2149 1.389 . S
C2148 H2121 0.950 . S
C2148 C2134 1.377 . S
C2148 C2147 1.373 . S
C2149 C2133 1.377 . S
C2149 C2147 1.389 . S
C2149 C2150 1.524 . S
C2150 C2149 1.524 . S
C2150 C2151 1.397 . S
C2150 C2155 1.363 . S
C2151 H2122 0.950 . S
C2151 C2150 1.397 . S
C2151 C2152 1.334 . S
C2152 H2123 0.950 . S
C2152 C2151 1.334 . S
C2152 C2153 1.287 . S
C2153 C2152 1.287 . S
C2153 C2154 1.524 . S
C2153 H2156 0.999 . S
C2154 H2124 0.950 . S
C2154 C2153 1.524 . S
C2154 C2155 1.415 . S
C2155 H2125 0.950 . S
C2155 C2150 1.363 . S
C2155 C2154 1.415 . S
H2156 C2153 0.999 . S
H2157 C2138 0.913 . S
H2158 C2176 0.951 . S
H2159 C2178 0.951 . S
H2160 C2180 0.950 . S
H2161 C2181 0.950 . S
H2162 C2183 0.950 . S
H2163 C2186 0.950 . S
H2164 C2187 0.950 . S
H2165 C2189 0.950 . S
H2166 C2190 0.957 . S
H2167 C2191 0.951 . S
H2168 C2193 0.951 . S
H2169 C2195 0.950 . S
H2170 C2196 0.950 . S
H2171 C2198 0.950 . S
H2172 C2201 0.950 . S
H2173 C2202 0.950 . S
H2174 C2204 0.950 . S
H2175 C2205 0.950 . S
C2176 H2158 0.951 . S
C2176 C2177 1.366 . S
C2176 C2178 1.388 . S
C2177 C2176 1.366 . S
C2177 C2181 1.385 . S
C2178 H2159 0.951 . S
C2178 C2176 1.388 . S
C2178 C2179 1.366 . S
C2179 C2178 1.366 . S
C2179 C2180 1.414 . S
C2179 C2182 1.479 1_565 S
C2180 H2160 0.950 . S
C2180 C2179 1.414 . S
C2180 C2181 1.374 . S
C2181 H2161 0.950 . S
C2181 C2177 1.385 . S
C2181 C2180 1.374 . S
C2182 C2179 1.479 1_545 S
C2182 C2183 1.380 . S
C2182 C2184 1.403 . S
C2183 H2162 0.950 . S
C2183 C2182 1.380 . S
C2183 C2199 1.377 . S
C2184 C2182 1.403 . S
C2184 C2185 1.524 1_545 S
C2184 C2198 1.377 . S
C2185 C2184 1.524 1_565 S
C2185 C2186 1.397 . S
C2185 C2190 1.358 1_565 S
C2186 H2163 0.950 . S
C2186 C2185 1.397 . S
C2186 C2187 1.334 . S
C2187 H2164 0.950 . S
C2187 C2186 1.334 . S
C2187 C2188 1.287 . S
C2188 C2187 1.287 . S
C2188 C2189 1.524 . S
C2188 H2207 0.913 . S
C2189 H2165 0.950 . S
C2189 C2188 1.524 . S
C2189 C2190 1.413 1_565 S
C2190 H2166 0.957 . S
C2190 C2185 1.358 1_545 S
C2190 C2189 1.413 1_545 S
C2191 H2167 0.951 . S
C2191 C2192 1.366 . S
C2191 C2193 1.388 . S
C2192 C2191 1.366 . S
C2192 C2196 1.385 . S
C2193 H2168 0.951 . S
C2193 C2191 1.388 . S
C2193 C2194 1.366 . S
C2194 C2193 1.366 . S
C2194 C2195 1.414 . S
C2194 C2197 1.499 . S
C2195 H2169 0.950 . S
C2195 C2194 1.414 . S
C2195 C2196 1.374 . S
C2196 H2170 0.950 . S
C2196 C2192 1.385 . S
C2196 C2195 1.374 . S
C2197 C2194 1.499 . S
C2197 C2198 1.373 . S
C2197 C2199 1.389 . S
C2198 H2171 0.950 . S
C2198 C2184 1.377 . S
C2198 C2197 1.373 . S
C2199 C2183 1.377 . S
C2199 C2197 1.389 . S
C2199 C2200 1.524 . S
C2200 C2199 1.524 . S
C2200 C2201 1.397 . S
C2200 C2205 1.363 . S
C2201 H2172 0.950 . S
C2201 C2200 1.397 . S
C2201 C2202 1.334 . S
C2202 H2173 0.950 . S
C2202 C2201 1.334 . S
C2202 C2203 1.287 . S
C2203 C2202 1.287 . S
C2203 C2204 1.524 . S
C2203 H2206 0.999 . S
C2204 H2174 0.950 . S
C2204 C2203 1.524 . S
C2204 C2205 1.415 . S
C2205 H2175 0.950 . S
C2205 C2200 1.363 . S
C2205 C2204 1.415 . S
H2206 C2203 0.999 . S
H2207 C2188 0.913 . S
H2208 C2226 0.951 . S
H2209 C2228 0.951 . S
H2210 C2230 0.950 . S
H2211 C2231 0.950 . S
H2212 C2233 0.950 . S
H2213 C2236 0.950 . S
H2214 C2237 0.950 . S
H2215 C2239 0.950 . S
H2216 C2240 0.950 . S
H2217 C2241 0.951 . S
H2218 C2243 0.951 . S
H2219 C2245 0.950 . S
H2220 C2246 0.950 . S
H2221 C2248 0.950 . S
H2222 C2251 0.950 . S
H2223 C2252 0.950 . S
H2224 C2254 0.950 . S
H2225 C2255 0.950 . S
C2226 H2208 0.951 . S
C2226 C2227 1.366 . S
C2226 C2228 1.388 . S
C2227 C2226 1.366 . S
C2227 C2231 1.385 . S
C2228 H2209 0.951 . S
C2228 C2226 1.388 . S
C2228 C2229 1.366 . S
C2229 C2228 1.366 . S
C2229 C2230 1.414 . S
C2229 C2232 1.499 . S
C2230 H2210 0.950 . S
C2230 C2229 1.414 . S
C2230 C2231 1.374 . S
C2231 H2211 0.950 . S
C2231 C2227 1.385 . S
C2231 C2230 1.374 . S
C2232 C2229 1.499 . S
C2232 C2233 1.373 . S
C2232 C2234 1.389 . S
C2233 H2212 0.950 . S
C2233 C2232 1.373 . S
C2233 C2249 1.377 . S
C2234 C2232 1.389 . S
C2234 C2235 1.524 . S
C2234 C2248 1.377 . S
C2235 C2234 1.524 . S
C2235 C2236 1.397 . S
C2235 C2240 1.363 . S
C2236 H2213 0.950 . S
C2236 C2235 1.397 . S
C2236 C2237 1.334 . S
C2237 H2214 0.950 . S
C2237 C2236 1.334 . S
C2237 C2238 1.287 . S
C2238 C2237 1.287 . S
C2238 C2239 1.524 . S
C2238 H2257 0.913 . S
C2239 H2215 0.950 . S
C2239 C2238 1.524 . S
C2239 C2240 1.415 . S
C2240 H2216 0.950 . S
C2240 C2235 1.363 . S
C2240 C2239 1.415 . S
C2241 H2217 0.951 . S
C2241 C2242 1.366 . S
C2241 C2243 1.388 . S
C2242 C2241 1.366 . S
C2242 C2246 1.385 . S
C2243 H2218 0.951 . S
C2243 C2241 1.388 . S
C2243 C2244 1.366 . S
C2244 C2243 1.366 . S
C2244 C2245 1.414 . S
C2244 C2247 1.499 . S
C2245 H2219 0.950 . S
C2245 C2244 1.414 . S
C2245 C2246 1.374 . S
C2246 H2220 0.950 . S
C2246 C2242 1.385 . S
C2246 C2245 1.374 . S
C2247 C2244 1.499 . S
C2247 C2248 1.373 . S
C2247 C2249 1.389 . S
C2248 H2221 0.950 . S
C2248 C2234 1.377 . S
C2248 C2247 1.373 . S
C2249 C2233 1.377 . S
C2249 C2247 1.389 . S
C2249 C2250 1.524 . S
C2250 C2249 1.524 . S
C2250 C2251 1.397 . S
C2250 C2255 1.363 . S
C2251 H2222 0.950 . S
C2251 C2250 1.397 . S
C2251 C2252 1.334 . S
C2252 H2223 0.950 . S
C2252 C2251 1.334 . S
C2252 C2253 1.287 . S
C2253 C2252 1.287 . S
C2253 C2254 1.524 . S
C2253 H2256 0.999 . S
C2254 H2224 0.950 . S
C2254 C2253 1.524 . S
C2254 C2255 1.415 . S
C2255 H2225 0.950 . S
C2255 C2250 1.363 . S
C2255 C2254 1.415 . S
H2256 C2253 0.999 . S
H2257 C2238 0.913 . S
H2258 C2276 0.951 . S
H2259 C2278 0.951 . S
H2260 C2280 0.950 . S
H2261 C2281 0.950 . S
H2262 C2283 0.950 . S
H2263 C2286 0.950 . S
H2264 C2287 0.950 . S
H2265 C2289 0.950 . S
H2266 C2290 0.950 . S
H2267 C2291 0.951 . S
H2268 C2293 0.951 . S
H2269 C2295 0.950 . S
H2270 C2296 0.950 . S
H2271 C2298 0.950 . S
H2272 C2301 0.950 . S
H2273 C2302 0.950 . S
H2274 C2304 0.950 . S
H2275 C2305 0.950 . S
C2276 H2258 0.951 . S
C2276 C2277 1.366 . S
C2276 C2278 1.388 . S
C2277 C2276 1.366 . S
C2277 C2281 1.385 . S
C2278 H2259 0.951 . S
C2278 C2276 1.388 . S
C2278 C2279 1.366 . S
C2279 C2278 1.366 . S
C2279 C2280 1.414 . S
C2279 C2282 1.499 . S
C2280 H2260 0.950 . S
C2280 C2279 1.414 . S
C2280 C2281 1.374 . S
C2281 H2261 0.950 . S
C2281 C2277 1.385 . S
C2281 C2280 1.374 . S
C2282 C2279 1.499 . S
C2282 C2283 1.373 . S
C2282 C2284 1.389 . S
C2283 H2262 0.950 . S
C2283 C2282 1.373 . S
C2283 C2299 1.377 . S
C2284 C2282 1.389 . S
C2284 C2285 1.524 . S
C2284 C2298 1.377 . S
C2285 C2284 1.524 . S
C2285 C2286 1.397 . S
C2285 C2290 1.363 . S
C2286 H2263 0.950 . S
C2286 C2285 1.397 . S
C2286 C2287 1.334 . S
C2287 H2264 0.950 . S
C2287 C2286 1.334 . S
C2287 C2288 1.287 . S
C2288 C2287 1.287 . S
C2288 C2289 1.524 . S
C2288 H2307 0.913 . S
C2289 H2265 0.950 . S
C2289 C2288 1.524 . S
C2289 C2290 1.415 . S
C2290 H2266 0.950 . S
C2290 C2285 1.363 . S
C2290 C2289 1.415 . S
C2291 H2267 0.951 . S
C2291 C2292 1.366 . S
C2291 C2293 1.388 . S
C2292 C2291 1.366 . S
C2292 C2296 1.385 . S
C2293 H2268 0.951 . S
C2293 C2291 1.388 . S
C2293 C2294 1.366 . S
C2294 C2293 1.366 . S
C2294 C2295 1.414 . S
C2294 C2297 1.499 . S
C2295 H2269 0.950 . S
C2295 C2294 1.414 . S
C2295 C2296 1.374 . S
C2296 H2270 0.950 . S
C2296 C2292 1.385 . S
C2296 C2295 1.374 . S
C2297 C2294 1.499 . S
C2297 C2298 1.373 . S
C2297 C2299 1.389 . S
C2298 H2271 0.950 . S
C2298 C2284 1.377 . S
C2298 C2297 1.373 . S
C2299 C2283 1.377 . S
C2299 C2297 1.389 . S
C2299 C2300 1.524 . S
C2300 C2299 1.524 . S
C2300 C2301 1.397 . S
C2300 C2305 1.363 . S
C2301 H2272 0.950 . S
C2301 C2300 1.397 . S
C2301 C2302 1.334 . S
C2302 H2273 0.950 . S
C2302 C2301 1.334 . S
C2302 C2303 1.287 . S
C2303 C2302 1.287 . S
C2303 C2304 1.524 . S
C2303 H2306 0.999 . S
C2304 H2274 0.950 . S
C2304 C2303 1.524 . S
C2304 C2305 1.415 . S
C2305 H2275 0.950 . S
C2305 C2300 1.363 . S
C2305 C2304 1.415 . S
H2306 C2303 0.999 . S
H2307 C2288 0.913 . S
H2308 C2326 0.951 . S
H2309 C2328 0.951 . S
H2310 C2330 0.950 . S
H2311 C2331 0.950 . S
H2312 C2333 0.950 . S
H2313 C2336 0.950 . S
H2314 C2337 0.950 . S
H2315 C2339 0.950 . S
H2316 C2340 0.950 . S
H2317 C2341 0.951 . S
H2318 C2343 0.951 . S
H2319 C2345 0.950 . S
H2320 C2346 0.950 . S
H2321 C2348 0.950 . S
H2322 C2351 0.950 . S
H2323 C2352 0.950 . S
H2324 C2354 0.950 . S
H2325 C2355 0.950 . S
C2326 H2308 0.951 . S
C2326 C2327 1.366 . S
C2326 C2328 1.388 . S
C2327 C2326 1.366 . S
C2327 C2331 1.385 . S
C2328 H2309 0.951 . S
C2328 C2326 1.388 . S
C2328 C2329 1.366 . S
C2329 C2328 1.366 . S
C2329 C2330 1.414 . S
C2329 C2332 1.499 . S
C2330 H2310 0.950 . S
C2330 C2329 1.414 . S
C2330 C2331 1.374 . S
C2331 H2311 0.950 . S
C2331 C2327 1.385 . S
C2331 C2330 1.374 . S
C2332 C2329 1.499 . S
C2332 C2333 1.373 . S
C2332 C2334 1.389 . S
C2333 H2312 0.950 . S
C2333 C2332 1.373 . S
C2333 C2349 1.377 . S
C2334 C2332 1.389 . S
C2334 C2335 1.524 . S
C2334 C2348 1.377 . S
C2335 C2334 1.524 . S
C2335 C2336 1.397 . S
C2335 C2340 1.363 . S
C2336 H2313 0.950 . S
C2336 C2335 1.397 . S
C2336 C2337 1.334 . S
C2337 H2314 0.950 . S
C2337 C2336 1.334 . S
C2337 C2338 1.287 . S
C2338 C2337 1.287 . S
C2338 C2339 1.524 . S
C2338 H2357 0.913 . S
C2339 H2315 0.950 . S
C2339 C2338 1.524 . S
C2339 C2340 1.415 . S
C2340 H2316 0.950 . S
C2340 C2335 1.363 . S
C2340 C2339 1.415 . S
C2341 H2317 0.951 . S
C2341 C2342 1.366 . S
C2341 C2343 1.388 . S
C2342 C2341 1.366 . S
C2342 C2346 1.385 . S
C2343 H2318 0.951 . S
C2343 C2341 1.388 . S
C2343 C2344 1.366 . S
C2344 C2343 1.366 . S
C2344 C2345 1.414 . S
C2344 C2347 1.499 . S
C2345 H2319 0.950 . S
C2345 C2344 1.414 . S
C2345 C2346 1.374 . S
C2346 H2320 0.950 . S
C2346 C2342 1.385 . S
C2346 C2345 1.374 . S
C2347 C2344 1.499 . S
C2347 C2348 1.373 . S
C2347 C2349 1.389 . S
C2348 H2321 0.950 . S
C2348 C2334 1.377 . S
C2348 C2347 1.373 . S
C2349 C2333 1.377 . S
C2349 C2347 1.389 . S
C2349 C2350 1.524 . S
C2350 C2349 1.524 . S
C2350 C2351 1.397 . S
C2350 C2355 1.363 . S
C2351 H2322 0.950 . S
C2351 C2350 1.397 . S
C2351 C2352 1.334 . S
C2352 H2323 0.950 . S
C2352 C2351 1.334 . S
C2352 C2353 1.287 . S
C2353 C2352 1.287 . S
C2353 C2354 1.524 . S
C2353 H2356 0.999 . S
C2354 H2324 0.950 . S
C2354 C2353 1.524 . S
C2354 C2355 1.415 . S
C2355 H2325 0.950 . S
C2355 C2350 1.363 . S
C2355 C2354 1.415 . S
H2356 C2353 0.999 . S
H2357 C2338 0.913 . S
H2358 C2376 0.951 . S
H2359 C2378 0.951 . S
H2360 C2380 0.950 . S
H2361 C2381 0.950 . S
H2362 C2383 0.950 . S
H2363 C2386 0.950 . S
H2364 C2387 0.950 . S
H2365 C2389 0.950 . S
H2366 C2390 0.950 . S
H2367 C2391 0.951 . S
H2368 C2393 0.951 . S
H2369 C2395 0.950 . S
H2370 C2396 0.950 1_545 S
H2371 C2398 0.950 . S
H2372 C2401 0.950 . S
H2373 C2402 0.950 . S
H2374 C2404 0.950 . S
H2375 C2405 0.950 . S
C2376 H2358 0.951 . S
C2376 C2377 1.366 . S
C2376 C2378 1.388 . S
C2377 C2376 1.366 . S
C2377 C2381 1.385 . S
C2378 H2359 0.951 . S
C2378 C2376 1.388 . S
C2378 C2379 1.366 . S
C2379 C2378 1.366 . S
C2379 C2380 1.414 . S
C2379 C2382 1.499 . S
C2380 H2360 0.950 . S
C2380 C2379 1.414 . S
C2380 C2381 1.374 . S
C2381 H2361 0.950 . S
C2381 C2377 1.385 . S
C2381 C2380 1.374 . S
C2382 C2379 1.499 . S
C2382 C2383 1.373 . S
C2382 C2384 1.389 . S
C2383 H2362 0.950 . S
C2383 C2382 1.373 . S
C2383 C2399 1.377 . S
C2384 C2382 1.389 . S
C2384 C2385 1.524 . S
C2384 C2398 1.377 . S
C2385 C2384 1.524 . S
C2385 C2386 1.397 . S
C2385 C2390 1.363 . S
C2386 H2363 0.950 . S
C2386 C2385 1.397 . S
C2386 C2387 1.334 . S
C2387 H2364 0.950 . S
C2387 C2386 1.334 . S
C2387 C2388 1.287 . S
C2388 C2387 1.287 . S
C2388 C2389 1.524 . S
C2388 H2407 0.913 . S
C2389 H2365 0.950 . S
C2389 C2388 1.524 . S
C2389 C2390 1.415 . S
C2390 H2366 0.950 . S
C2390 C2385 1.363 . S
C2390 C2389 1.415 . S
C2391 H2367 0.951 . S
C2391 C2392 1.366 . S
C2391 C2393 1.388 . S
C2392 C2391 1.366 . S
C2392 C2396 1.385 . S
C2393 H2368 0.951 . S
C2393 C2391 1.388 . S
C2393 C2394 1.366 . S
C2394 C2393 1.366 . S
C2394 C2395 1.414 . S
C2394 C2397 1.499 . S
C2395 H2369 0.950 . S
C2395 C2394 1.414 . S
C2395 C2396 1.374 . S
C2396 H2370 0.950 1_565 S
C2396 C2392 1.385 . S
C2396 C2395 1.374 . S
C2397 C2394 1.499 . S
C2397 C2398 1.373 . S
C2397 C2399 1.389 . S
C2398 H2371 0.950 . S
C2398 C2384 1.377 . S
C2398 C2397 1.373 . S
C2399 C2383 1.377 . S
C2399 C2397 1.389 . S
C2399 C2400 1.524 . S
C2400 C2399 1.524 . S
C2400 C2401 1.397 . S
C2400 C2405 1.363 . S
C2401 H2372 0.950 . S
C2401 C2400 1.397 . S
C2401 C2402 1.334 . S
C2402 H2373 0.950 . S
C2402 C2401 1.334 . S
C2402 C2403 1.287 . S
C2403 C2402 1.287 . S
C2403 C2404 1.524 . S
C2403 H2406 0.999 . S
C2404 H2374 0.950 . S
C2404 C2403 1.524 . S
C2404 C2405 1.415 . S
C2405 H2375 0.950 . S
C2405 C2400 1.363 . S
C2405 C2404 1.415 . S
H2406 C2403 0.999 . S
H2407 C2388 0.913 . S
H2408 C2426 0.951 . S
H2409 C2428 0.951 . S
H2410 C2430 0.950 . S
H2411 C2431 0.950 . S
H2412 C2433 0.950 . S
H2413 C2436 0.950 . S
H2414 C2437 0.950 . S
H2415 C2439 0.950 . S
H2416 C2440 0.950 . S
H2417 C2441 0.951 . S
H2418 C2443 0.951 . S
H2419 C2445 0.950 . S
H2420 C2446 0.950 . S
H2421 C2448 0.950 . S
H2422 C2451 0.950 . S
H2423 C2452 0.950 . S
H2424 C2454 0.950 . S
H2425 C2455 0.950 . S
C2426 H2408 0.951 . S
C2426 C2427 1.366 . S
C2426 C2428 1.388 . S
C2427 C2426 1.366 . S
C2427 C2431 1.385 . S
C2428 H2409 0.951 . S
C2428 C2426 1.388 . S
C2428 C2429 1.366 . S
C2429 C2428 1.366 . S
C2429 C2430 1.414 . S
C2429 C2432 1.499 . S
C2430 H2410 0.950 . S
C2430 C2429 1.414 . S
C2430 C2431 1.374 . S
C2431 H2411 0.950 . S
C2431 C2427 1.385 . S
C2431 C2430 1.374 . S
C2432 C2429 1.499 . S
C2432 C2433 1.373 . S
C2432 C2434 1.389 . S
C2433 H2412 0.950 . S
C2433 C2432 1.373 . S
C2433 C2449 1.377 . S
C2434 C2432 1.389 . S
C2434 C2435 1.524 . S
C2434 C2448 1.377 . S
C2435 C2434 1.524 . S
C2435 C2436 1.397 . S
C2435 C2440 1.363 . S
C2436 H2413 0.950 . S
C2436 C2435 1.397 . S
C2436 C2437 1.334 . S
C2437 H2414 0.950 . S
C2437 C2436 1.334 . S
C2437 C2438 1.287 . S
C2438 C2437 1.287 . S
C2438 C2439 1.524 . S
C2438 H2457 0.913 . S
C2439 H2415 0.950 . S
C2439 C2438 1.524 . S
C2439 C2440 1.415 . S
C2440 H2416 0.950 . S
C2440 C2435 1.363 . S
C2440 C2439 1.415 . S
C2441 H2417 0.951 . S
C2441 C2442 1.366 . S
C2441 C2443 1.388 . S
C2442 C2441 1.366 . S
C2442 C2446 1.385 . S
C2443 H2418 0.951 . S
C2443 C2441 1.388 . S
C2443 C2444 1.366 . S
C2444 C2443 1.366 . S
C2444 C2445 1.414 . S
C2444 C2447 1.499 . S
C2445 H2419 0.950 . S
C2445 C2444 1.414 . S
C2445 C2446 1.374 . S
C2446 H2420 0.950 . S
C2446 C2442 1.385 . S
C2446 C2445 1.374 . S
C2447 C2444 1.499 . S
C2447 C2448 1.373 . S
C2447 C2449 1.389 . S
C2448 H2421 0.950 . S
C2448 C2434 1.377 . S
C2448 C2447 1.373 . S
C2449 C2433 1.377 . S
C2449 C2447 1.389 . S
C2449 C2450 1.524 . S
C2450 C2449 1.524 . S
C2450 C2451 1.397 . S
C2450 C2455 1.363 . S
C2451 H2422 0.950 . S
C2451 C2450 1.397 . S
C2451 C2452 1.334 1_455 S
C2452 H2423 0.950 . S
C2452 C2451 1.334 1_655 S
C2452 C2453 1.287 . S
C2453 C2452 1.287 . S
C2453 C2454 1.524 1_655 S
C2453 H2456 0.999 . S
C2454 H2424 0.950 . S
C2454 C2453 1.524 1_455 S
C2454 C2455 1.415 . S
C2455 H2425 0.950 . S
C2455 C2450 1.363 . S
C2455 C2454 1.415 . S
H2456 C2453 0.999 . S
H2457 C2438 0.913 . S
H2458 C2476 0.951 . S
H2459 C2478 0.951 . S
H2460 C2480 0.950 . S
H2461 C2481 0.950 . S
H2462 C2483 0.950 . S
H2463 C2486 0.950 . S
H2464 C2487 0.950 . S
H2465 C2489 0.950 . S
H2466 C2490 0.950 . S
H2467 C2491 0.951 . S
H2468 C2493 0.951 . S
H2469 C2495 0.950 . S
H2470 C2496 0.950 . S
H2471 C2498 0.950 . S
H2472 C2501 0.950 . S
H2473 C2502 0.950 . S
H2474 C2504 0.950 . S
H2475 C2505 0.950 . S
C2476 H2458 0.951 . S
C2476 C2477 1.366 . S
C2476 C2478 1.388 . S
C2477 C2476 1.366 . S
C2477 C2481 1.385 . S
C2478 H2459 0.951 . S
C2478 C2476 1.388 . S
C2478 C2479 1.366 . S
C2479 C2478 1.366 . S
C2479 C2480 1.414 . S
C2479 C2482 1.499 . S
C2480 H2460 0.950 . S
C2480 C2479 1.414 . S
C2480 C2481 1.374 . S
C2481 H2461 0.950 . S
C2481 C2477 1.385 . S
C2481 C2480 1.374 . S
C2482 C2479 1.499 . S
C2482 C2483 1.373 . S
C2482 C2484 1.389 . S
C2483 H2462 0.950 . S
C2483 C2482 1.373 . S
C2483 C2499 1.377 . S
C2484 C2482 1.389 . S
C2484 C2485 1.524 . S
C2484 C2498 1.377 . S
C2485 C2484 1.524 . S
C2485 C2486 1.397 . S
C2485 C2490 1.363 . S
C2486 H2463 0.950 . S
C2486 C2485 1.397 . S
C2486 C2487 1.334 . S
C2487 H2464 0.950 . S
C2487 C2486 1.334 . S
C2487 C2488 1.287 . S
C2488 C2487 1.287 . S
C2488 C2489 1.524 . S
C2488 H2507 0.913 . S
C2489 H2465 0.950 . S
C2489 C2488 1.524 . S
C2489 C2490 1.415 . S
C2490 H2466 0.950 . S
C2490 C2485 1.363 . S
C2490 C2489 1.415 . S
C2491 H2467 0.951 . S
C2491 C2492 1.366 . S
C2491 C2493 1.388 . S
C2492 C2491 1.366 . S
C2492 C2496 1.385 . S
C2493 H2468 0.951 . S
C2493 C2491 1.388 . S
C2493 C2494 1.366 . S
C2494 C2493 1.366 . S
C2494 C2495 1.414 . S
C2494 C2497 1.499 . S
C2495 H2469 0.950 . S
C2495 C2494 1.414 . S
C2495 C2496 1.374 . S
C2496 H2470 0.950 . S
C2496 C2492 1.385 . S
C2496 C2495 1.374 . S
C2497 C2494 1.499 . S
C2497 C2498 1.373 . S
C2497 C2499 1.389 . S
C2498 H2471 0.950 . S
C2498 C2484 1.377 . S
C2498 C2497 1.373 . S
C2499 C2483 1.377 . S
C2499 C2497 1.389 . S
C2499 C2500 1.524 . S
C2500 C2499 1.524 . S
C2500 C2501 1.397 . S
C2500 C2505 1.363 . S
C2501 H2472 0.950 . S
C2501 C2500 1.397 . S
C2501 C2502 1.334 . S
C2502 H2473 0.950 . S
C2502 C2501 1.334 . S
C2502 C2503 1.287 . S
C2503 C2502 1.287 . S
C2503 C2504 1.524 . S
C2503 H2506 0.999 . S
C2504 H2474 0.950 . S
C2504 C2503 1.524 . S
C2504 C2505 1.415 . S
C2505 H2475 0.950 . S
C2505 C2500 1.363 . S
C2505 C2504 1.415 . S
H2506 C2503 0.999 . S
H2507 C2488 0.913 . S
H2508 C2526 0.951 . S
H2509 C2528 0.951 . S
H2510 C2530 0.950 . S
H2511 C2531 0.950 . S
H2512 C2533 0.950 . S
H2513 C2536 0.950 . S
H2514 C2537 0.950 . S
H2515 C2539 0.950 . S
H2516 C2540 0.950 . S
H2517 C2541 0.951 . S
H2518 C2543 0.951 . S
H2519 C2545 0.950 . S
H2520 C2546 0.950 . S
H2521 C2548 0.950 . S
H2522 C2551 0.950 . S
H2523 C2552 0.950 . S
H2524 C2554 0.950 . S
H2525 C2555 0.950 . S
C2526 H2508 0.951 . S
C2526 C2527 1.366 . S
C2526 C2528 1.388 . S
C2527 C2526 1.366 . S
C2527 C2531 1.385 . S
C2528 H2509 0.951 . S
C2528 C2526 1.388 . S
C2528 C2529 1.366 . S
C2529 C2528 1.366 . S
C2529 C2530 1.414 . S
C2529 C2532 1.499 . S
C2530 H2510 0.950 . S
C2530 C2529 1.414 . S
C2530 C2531 1.374 . S
C2531 H2511 0.950 . S
C2531 C2527 1.385 . S
C2531 C2530 1.374 . S
C2532 C2529 1.499 . S
C2532 C2533 1.373 . S
C2532 C2534 1.389 . S
C2533 H2512 0.950 . S
C2533 C2532 1.373 . S
C2533 C2549 1.377 . S
C2534 C2532 1.389 . S
C2534 C2535 1.524 . S
C2534 C2548 1.377 . S
C2535 C2534 1.524 . S
C2535 C2536 1.397 . S
C2535 C2540 1.363 1_655 S
C2536 H2513 0.950 . S
C2536 C2535 1.397 . S
C2536 C2537 1.334 . S
C2537 H2514 0.950 . S
C2537 C2536 1.334 . S
C2537 C2538 1.287 1_655 S
C2538 C2537 1.287 1_455 S
C2538 C2539 1.524 . S
C2538 H2557 0.913 . S
C2539 H2515 0.950 . S
C2539 C2538 1.524 . S
C2539 C2540 1.415 . S
C2540 H2516 0.950 . S
C2540 C2535 1.363 1_455 S
C2540 C2539 1.415 . S
C2541 H2517 0.951 . S
C2541 C2542 1.366 . S
C2541 C2543 1.388 . S
C2542 C2541 1.366 . S
C2542 C2546 1.385 . S
C2543 H2518 0.951 . S
C2543 C2541 1.388 . S
C2543 C2544 1.366 . S
C2544 C2543 1.366 . S
C2544 C2545 1.414 . S
C2544 C2547 1.499 . S
C2545 H2519 0.950 . S
C2545 C2544 1.414 . S
C2545 C2546 1.374 . S
C2546 H2520 0.950 . S
C2546 C2542 1.385 . S
C2546 C2545 1.374 . S
C2547 C2544 1.499 . S
C2547 C2548 1.373 . S
C2547 C2549 1.389 . S
C2548 H2521 0.950 . S
C2548 C2534 1.377 . S
C2548 C2547 1.373 . S
C2549 C2533 1.377 . S
C2549 C2547 1.389 . S
C2549 C2550 1.524 . S
C2550 C2549 1.524 . S
C2550 C2551 1.397 . S
C2550 C2555 1.363 . S
C2551 H2522 0.950 . S
C2551 C2550 1.397 . S
C2551 C2552 1.334 . S
C2552 H2523 0.950 . S
C2552 C2551 1.334 . S
C2552 C2553 1.287 . S
C2553 C2552 1.287 . S
C2553 C2554 1.524 . S
C2553 H2556 0.999 . S
C2554 H2524 0.950 . S
C2554 C2553 1.524 . S
C2554 C2555 1.415 . S
C2555 H2525 0.950 . S
C2555 C2550 1.363 . S
C2555 C2554 1.415 . S
H2556 C2553 0.999 . S
H2557 C2538 0.913 . S
H2558 C2576 0.951 . S
H2559 C2578 0.951 . S
H2560 C2580 0.950 . S
H2561 C2581 0.950 . S
H2562 C2583 0.950 . S
H2563 C2586 0.950 . S
H2564 C2587 0.950 . S
H2565 C2589 0.950 . S
H2566 C2590 0.950 . S
H2567 C2591 0.951 . S
H2568 C2593 0.951 . S
H2569 C2595 0.950 . S
H2570 C2596 0.950 . S
H2571 C2598 0.950 . S
H2572 C2601 0.950 . S
H2573 C2602 0.950 . S
H2574 C2604 0.950 . S
H2575 C2605 0.950 . S
C2576 H2558 0.951 . S
C2576 C2577 1.366 . S
C2576 C2578 1.388 . S
C2577 C2576 1.366 . S
C2577 C2581 1.385 . S
C2578 H2559 0.951 . S
C2578 C2576 1.388 . S
C2578 C2579 1.366 . S
C2579 C2578 1.366 . S
C2579 C2580 1.414 . S
C2579 C2582 1.499 . S
C2580 H2560 0.950 . S
C2580 C2579 1.414 . S
C2580 C2581 1.374 . S
C2581 H2561 0.950 . S
C2581 C2577 1.385 . S
C2581 C2580 1.374 . S
C2582 C2579 1.499 . S
C2582 C2583 1.373 . S
C2582 C2584 1.389 . S
C2583 H2562 0.950 . S
C2583 C2582 1.373 . S
C2583 C2599 1.377 . S
C2584 C2582 1.389 . S
C2584 C2585 1.524 . S
C2584 C2598 1.377 . S
C2585 C2584 1.524 . S
C2585 C2586 1.397 . S
C2585 C2590 1.363 . S
C2586 H2563 0.950 . S
C2586 C2585 1.397 . S
C2586 C2587 1.334 . S
C2587 H2564 0.950 . S
C2587 C2586 1.334 . S
C2587 C2588 1.287 . S
C2588 C2587 1.287 . S
C2588 C2589 1.524 . S
C2588 H2607 0.913 . S
C2589 H2565 0.950 . S
C2589 C2588 1.524 . S
C2589 C2590 1.415 . S
C2590 H2566 0.950 . S
C2590 C2585 1.363 . S
C2590 C2589 1.415 . S
C2591 H2567 0.951 . S
C2591 C2592 1.366 . S
C2591 C2593 1.388 . S
C2592 C2591 1.366 . S
C2592 C2596 1.385 . S
C2593 H2568 0.951 . S
C2593 C2591 1.388 . S
C2593 C2594 1.366 . S
C2594 C2593 1.366 . S
C2594 C2595 1.414 . S
C2594 C2597 1.499 . S
C2595 H2569 0.950 . S
C2595 C2594 1.414 . S
C2595 C2596 1.374 . S
C2596 H2570 0.950 . S
C2596 C2592 1.385 . S
C2596 C2595 1.374 . S
C2597 C2594 1.499 . S
C2597 C2598 1.373 . S
C2597 C2599 1.389 . S
C2598 H2571 0.950 . S
C2598 C2584 1.377 . S
C2598 C2597 1.373 . S
C2599 C2583 1.377 . S
C2599 C2597 1.389 . S
C2599 C2600 1.524 . S
C2600 C2599 1.524 . S
C2600 C2601 1.397 . S
C2600 C2605 1.363 . S
C2601 H2572 0.950 . S
C2601 C2600 1.397 . S
C2601 C2602 1.334 . S
C2602 H2573 0.950 . S
C2602 C2601 1.334 . S
C2602 C2603 1.287 . S
C2603 C2602 1.287 . S
C2603 C2604 1.524 . S
C2603 H2606 0.999 . S
C2604 H2574 0.950 . S
C2604 C2603 1.524 . S
C2604 C2605 1.415 . S
C2605 H2575 0.950 . S
C2605 C2600 1.363 . S
C2605 C2604 1.415 . S
H2606 C2603 0.999 . S
H2607 C2588 0.913 . S
H2608 C2626 0.951 . S
H2609 C2628 0.951 . S
H2610 C2630 0.950 . S
H2611 C2631 0.950 . S
H2612 C2633 0.950 . S
H2613 C2636 0.950 . S
H2614 C2637 0.950 . S
H2615 C2639 0.950 . S
H2616 C2640 0.950 1_565 S
H2617 C2641 0.951 . S
H2618 C2643 0.951 . S
H2619 C2645 0.950 . S
H2620 C2646 0.950 1_565 S
H2621 C2648 0.950 . S
H2622 C2651 0.950 . S
H2623 C2652 0.950 . S
H2624 C2654 0.950 . S
H2625 C2655 0.950 . S
C2626 H2608 0.951 . S
C2626 C2627 1.366 . S
C2626 C2628 1.388 . S
C2627 C2626 1.366 . S
C2627 C2631 1.385 . S
C2628 H2609 0.951 . S
C2628 C2626 1.388 . S
C2628 C2629 1.366 . S
C2629 C2628 1.366 . S
C2629 C2630 1.414 . S
C2629 C2632 1.499 . S
C2630 H2610 0.950 . S
C2630 C2629 1.414 . S
C2630 C2631 1.374 . S
C2631 H2611 0.950 . S
C2631 C2627 1.385 . S
C2631 C2630 1.374 . S
C2632 C2629 1.499 . S
C2632 C2633 1.373 . S
C2632 C2634 1.389 . S
C2633 H2612 0.950 . S
C2633 C2632 1.373 . S
C2633 C2649 1.377 . S
C2634 C2632 1.389 . S
C2634 C2635 1.524 . S
C2634 C2648 1.377 . S
C2635 C2634 1.524 . S
C2635 C2636 1.397 . S
C2635 C2640 1.363 . S
C2636 H2613 0.950 . S
C2636 C2635 1.397 . S
C2636 C2637 1.334 . S
C2637 H2614 0.950 . S
C2637 C2636 1.334 . S
C2637 C2638 1.287 . S
C2638 C2637 1.287 . S
C2638 C2639 1.524 1_545 S
C2638 H2657 0.913 . S
C2639 H2615 0.950 . S
C2639 C2638 1.524 1_565 S
C2639 C2640 1.415 1_565 S
C2640 H2616 0.950 1_545 S
C2640 C2635 1.363 . S
C2640 C2639 1.415 1_545 S
C2641 H2617 0.951 . S
C2641 C2642 1.366 . S
C2641 C2643 1.388 . S
C2642 C2641 1.366 . S
C2642 C2646 1.385 . S
C2643 H2618 0.951 . S
C2643 C2641 1.388 . S
C2643 C2644 1.366 . S
C2644 C2643 1.366 . S
C2644 C2645 1.414 . S
C2644 C2647 1.499 . S
C2645 H2619 0.950 . S
C2645 C2644 1.414 . S
C2645 C2646 1.374 . S
C2646 H2620 0.950 1_545 S
C2646 C2642 1.385 . S
C2646 C2645 1.374 . S
C2647 C2644 1.499 . S
C2647 C2648 1.373 . S
C2647 C2649 1.389 . S
C2648 H2621 0.950 . S
C2648 C2634 1.377 . S
C2648 C2647 1.373 . S
C2649 C2633 1.377 . S
C2649 C2647 1.389 . S
C2649 C2650 1.524 . S
C2650 C2649 1.524 . S
C2650 C2651 1.397 . S
C2650 C2655 1.363 . S
C2651 H2622 0.950 . S
C2651 C2650 1.397 . S
C2651 C2652 1.334 . S
C2652 H2623 0.950 . S
C2652 C2651 1.334 . S
C2652 C2653 1.287 . S
C2653 C2652 1.287 . S
C2653 C2654 1.524 . S
C2653 H2656 0.999 . S
C2654 H2624 0.950 . S
C2654 C2653 1.524 . S
C2654 C2655 1.415 . S
C2655 H2625 0.950 . S
C2655 C2650 1.363 . S
C2655 C2654 1.415 . S
H2656 C2653 0.999 . S
H2657 C2638 0.913 . S
H2658 C2676 0.951 . S
H2659 C2678 0.951 . S
H2660 C2680 0.950 . S
H2661 C2681 0.950 . S
H2662 C2683 0.950 . S
H2663 C2686 0.950 . S
H2664 C2687 0.950 . S
H2665 C2689 0.950 . S
H2666 C2690 0.950 . S
H2667 C2691 0.951 . S
H2668 C2693 0.951 . S
H2669 C2695 0.950 . S
H2670 C2696 0.950 . S
H2671 C2698 0.950 . S
H2672 C2701 0.950 . S
H2673 C2702 0.950 . S
H2674 C2704 0.950 . S
H2675 C2705 0.950 . S
C2676 H2658 0.951 . S
C2676 C2677 1.366 . S
C2676 C2678 1.388 . S
C2677 C2676 1.366 . S
C2677 C2681 1.385 . S
C2678 H2659 0.951 . S
C2678 C2676 1.388 . S
C2678 C2679 1.366 . S
C2679 C2678 1.366 . S
C2679 C2680 1.414 . S
C2679 C2682 1.499 . S
C2680 H2660 0.950 . S
C2680 C2679 1.414 . S
C2680 C2681 1.374 . S
C2681 H2661 0.950 . S
C2681 C2677 1.385 . S
C2681 C2680 1.374 . S
C2682 C2679 1.499 . S
C2682 C2683 1.373 . S
C2682 C2684 1.389 . S
C2683 H2662 0.950 . S
C2683 C2682 1.373 . S
C2683 C2699 1.377 . S
C2684 C2682 1.389 . S
C2684 C2685 1.524 . S
C2684 C2698 1.377 . S
C2685 C2684 1.524 . S
C2685 C2686 1.397 . S
C2685 C2690 1.363 . S
C2686 H2663 0.950 . S
C2686 C2685 1.397 . S
C2686 C2687 1.334 . S
C2687 H2664 0.950 . S
C2687 C2686 1.334 . S
C2687 C2688 1.287 . S
C2688 C2687 1.287 . S
C2688 C2689 1.524 . S
C2688 H2707 0.913 . S
C2689 H2665 0.950 . S
C2689 C2688 1.524 . S
C2689 C2690 1.415 . S
C2690 H2666 0.950 . S
C2690 C2685 1.363 . S
C2690 C2689 1.415 . S
C2691 H2667 0.951 . S
C2691 C2692 1.366 . S
C2691 C2693 1.388 . S
C2692 C2691 1.366 . S
C2692 C2696 1.385 . S
C2693 H2668 0.951 . S
C2693 C2691 1.388 . S
C2693 C2694 1.366 . S
C2694 C2693 1.366 . S
C2694 C2695 1.414 . S
C2694 C2697 1.499 . S
C2695 H2669 0.950 . S
C2695 C2694 1.414 . S
C2695 C2696 1.374 . S
C2696 H2670 0.950 . S
C2696 C2692 1.385 . S
C2696 C2695 1.374 . S
C2697 C2694 1.499 . S
C2697 C2698 1.373 . S
C2697 C2699 1.389 . S
C2698 H2671 0.950 . S
C2698 C2684 1.377 . S
C2698 C2697 1.373 . S
C2699 C2683 1.377 . S
C2699 C2697 1.389 . S
C2699 C2700 1.524 . S
C2700 C2699 1.524 . S
C2700 C2701 1.397 . S
C2700 C2705 1.363 . S
C2701 H2672 0.950 . S
C2701 C2700 1.397 . S
C2701 C2702 1.334 . S
C2702 H2673 0.950 . S
C2702 C2701 1.334 . S
C2702 C2703 1.287 . S
C2703 C2702 1.287 . S
C2703 C2704 1.524 . S
C2703 H2706 0.999 . S
C2704 H2674 0.950 . S
C2704 C2703 1.524 . S
C2704 C2705 1.415 . S
C2705 H2675 0.950 . S
C2705 C2700 1.363 . S
C2705 C2704 1.415 . S
H2706 C2703 0.999 . S
H2707 C2688 0.913 . S
H2708 C2726 0.951 . S
H2709 C2728 0.951 . S
H2710 C2730 0.950 . S
H2711 C2731 0.950 . S
H2712 C2733 0.950 . S
H2713 C2736 0.950 . S
H2714 C2737 0.950 . S
H2715 C2739 0.950 . S
H2716 C2740 0.950 . S
H2717 C2741 0.951 . S
H2718 C2743 0.951 . S
H2719 C2745 0.950 . S
H2720 C2746 0.950 . S
H2721 C2748 0.950 . S
H2722 C2751 0.950 . S
H2723 C2752 0.950 . S
H2724 C2754 0.950 . S
H2725 C2755 0.950 . S
C2726 H2708 0.951 . S
C2726 C2727 1.366 . S
C2726 C2728 1.388 . S
C2727 C2726 1.366 . S
C2727 C2731 1.385 . S
C2728 H2709 0.951 . S
C2728 C2726 1.388 . S
C2728 C2729 1.366 . S
C2729 C2728 1.366 . S
C2729 C2730 1.414 . S
C2729 C2732 1.499 . S
C2730 H2710 0.950 . S
C2730 C2729 1.414 . S
C2730 C2731 1.374 . S
C2731 H2711 0.950 . S
C2731 C2727 1.385 . S
C2731 C2730 1.374 . S
C2732 C2729 1.499 . S
C2732 C2733 1.373 . S
C2732 C2734 1.389 . S
C2733 H2712 0.950 . S
C2733 C2732 1.373 . S
C2733 C2749 1.377 . S
C2734 C2732 1.389 . S
C2734 C2735 1.524 . S
C2734 C2748 1.377 . S
C2735 C2734 1.524 . S
C2735 C2736 1.397 . S
C2735 C2740 1.363 . S
C2736 H2713 0.950 . S
C2736 C2735 1.397 . S
C2736 C2737 1.334 . S
C2737 H2714 0.950 . S
C2737 C2736 1.334 . S
C2737 C2738 1.287 . S
C2738 C2737 1.287 . S
C2738 C2739 1.524 . S
C2738 H2757 0.913 . S
C2739 H2715 0.950 . S
C2739 C2738 1.524 . S
C2739 C2740 1.415 . S
C2740 H2716 0.950 . S
C2740 C2735 1.363 . S
C2740 C2739 1.415 . S
C2741 H2717 0.951 . S
C2741 C2742 1.366 . S
C2741 C2743 1.388 . S
C2742 C2741 1.366 . S
C2742 C2746 1.385 . S
C2743 H2718 0.951 . S
C2743 C2741 1.388 . S
C2743 C2744 1.366 . S
C2744 C2743 1.366 . S
C2744 C2745 1.414 . S
C2744 C2747 1.499 . S
C2745 H2719 0.950 . S
C2745 C2744 1.414 . S
C2745 C2746 1.374 . S
C2746 H2720 0.950 . S
C2746 C2742 1.385 . S
C2746 C2745 1.374 . S
C2747 C2744 1.499 . S
C2747 C2748 1.373 . S
C2747 C2749 1.389 . S
C2748 H2721 0.950 . S
C2748 C2734 1.377 . S
C2748 C2747 1.373 . S
C2749 C2733 1.377 . S
C2749 C2747 1.389 . S
C2749 C2750 1.524 . S
C2750 C2749 1.524 . S
C2750 C2751 1.397 . S
C2750 C2755 1.363 . S
C2751 H2722 0.950 . S
C2751 C2750 1.397 . S
C2751 C2752 1.334 . S
C2752 H2723 0.950 . S
C2752 C2751 1.334 . S
C2752 C2753 1.287 . S
C2753 C2752 1.287 . S
C2753 C2754 1.524 . S
C2753 H2756 0.999 . S
C2754 H2724 0.950 . S
C2754 C2753 1.524 . S
C2754 C2755 1.415 . S
C2755 H2725 0.950 . S
C2755 C2750 1.363 . S
C2755 C2754 1.415 . S
H2756 C2753 0.999 . S
H2757 C2738 0.913 . S
H2758 C2776 0.951 . S
H2759 C2778 0.951 . S
H2760 C2780 0.950 . S
H2761 C2781 0.950 . S
H2762 C2783 0.950 . S
H2763 C2786 0.950 . S
H2764 C2787 0.950 . S
H2765 C2789 0.950 . S
H2766 C2790 0.950 . S
H2767 C2791 0.951 . S
H2768 C2793 0.951 . S
H2769 C2795 0.950 . S
H2770 C2796 0.950 . S
H2771 C2798 0.950 . S
H2772 C2801 0.950 . S
H2773 C2802 0.950 . S
H2774 C2804 0.950 . S
H2775 C2805 0.950 . S
C2776 H2758 0.951 . S
C2776 C2777 1.366 . S
C2776 C2778 1.388 . S
C2777 C2776 1.366 . S
C2777 C2781 1.385 . S
C2778 H2759 0.951 . S
C2778 C2776 1.388 . S
C2778 C2779 1.366 . S
C2779 C2778 1.366 . S
C2779 C2780 1.414 . S
C2779 C2782 1.499 . S
C2780 H2760 0.950 . S
C2780 C2779 1.414 . S
C2780 C2781 1.374 . S
C2781 H2761 0.950 . S
C2781 C2777 1.385 . S
C2781 C2780 1.374 . S
C2782 C2779 1.499 . S
C2782 C2783 1.373 . S
C2782 C2784 1.389 . S
C2783 H2762 0.950 . S
C2783 C2782 1.373 . S
C2783 C2799 1.377 . S
C2784 C2782 1.389 . S
C2784 C2785 1.524 . S
C2784 C2798 1.377 . S
C2785 C2784 1.524 . S
C2785 C2786 1.397 . S
C2785 C2790 1.363 . S
C2786 H2763 0.950 . S
C2786 C2785 1.397 . S
C2786 C2787 1.334 . S
C2787 H2764 0.950 . S
C2787 C2786 1.334 . S
C2787 C2788 1.287 . S
C2788 C2787 1.287 . S
C2788 C2789 1.524 . S
C2788 H2807 0.913 . S
C2789 H2765 0.950 . S
C2789 C2788 1.524 . S
C2789 C2790 1.415 . S
C2790 H2766 0.950 . S
C2790 C2785 1.363 . S
C2790 C2789 1.415 . S
C2791 H2767 0.951 . S
C2791 C2792 1.366 . S
C2791 C2793 1.388 . S
C2792 C2791 1.366 . S
C2792 C2796 1.385 . S
C2793 H2768 0.951 . S
C2793 C2791 1.388 . S
C2793 C2794 1.366 . S
C2794 C2793 1.366 . S
C2794 C2795 1.414 . S
C2794 C2797 1.499 . S
C2795 H2769 0.950 . S
C2795 C2794 1.414 . S
C2795 C2796 1.374 . S
C2796 H2770 0.950 . S
C2796 C2792 1.385 . S
C2796 C2795 1.374 . S
C2797 C2794 1.499 . S
C2797 C2798 1.373 . S
C2797 C2799 1.389 . S
C2798 H2771 0.950 . S
C2798 C2784 1.377 . S
C2798 C2797 1.373 . S
C2799 C2783 1.377 . S
C2799 C2797 1.389 . S
C2799 C2800 1.524 . S
C2800 C2799 1.524 . S
C2800 C2801 1.397 . S
C2800 C2805 1.363 . S
C2801 H2772 0.950 . S
C2801 C2800 1.397 . S
C2801 C2802 1.334 . S
C2802 H2773 0.950 . S
C2802 C2801 1.334 . S
C2802 C2803 1.287 . S
C2803 C2802 1.287 . S
C2803 C2804 1.524 . S
C2803 H2806 0.999 . S
C2804 H2774 0.950 . S
C2804 C2803 1.524 . S
C2804 C2805 1.415 . S
C2805 H2775 0.950 . S
C2805 C2800 1.363 . S
C2805 C2804 1.415 . S
H2806 C2803 0.999 . S
H2807 C2788 0.913 . S
H2808 C2826 0.951 . S
H2809 C2828 0.951 . S
H2810 C2830 0.950 . S
H2811 C2831 0.950 . S
H2812 C2833 0.950 . S
H2813 C2836 0.950 . S
H2814 C2837 0.950 . S
H2815 C2839 0.950 . S
H2816 C2840 0.950 . S
H2817 C2841 0.951 . S
H2818 C2843 0.951 . S
H2819 C2845 0.950 . S
H2820 C2846 0.950 . S
H2821 C2848 0.950 . S
H2822 C2851 0.950 . S
H2823 C2852 0.950 . S
H2824 C2854 0.950 . S
H2825 C2855 0.950 . S
C2826 H2808 0.951 . S
C2826 C2827 1.366 . S
C2826 C2828 1.388 . S
C2827 C2826 1.366 . S
C2827 C2831 1.385 . S
C2828 H2809 0.951 . S
C2828 C2826 1.388 . S
C2828 C2829 1.366 . S
C2829 C2828 1.366 . S
C2829 C2830 1.414 . S
C2829 C2832 1.499 . S
C2830 H2810 0.950 . S
C2830 C2829 1.414 . S
C2830 C2831 1.374 . S
C2831 H2811 0.950 . S
C2831 C2827 1.385 . S
C2831 C2830 1.374 . S
C2832 C2829 1.499 . S
C2832 C2833 1.373 . S
C2832 C2834 1.389 . S
C2833 H2812 0.950 . S
C2833 C2832 1.373 . S
C2833 C2849 1.377 . S
C2834 C2832 1.389 . S
C2834 C2835 1.524 . S
C2834 C2848 1.377 . S
C2835 C2834 1.524 . S
C2835 C2836 1.397 . S
C2835 C2840 1.363 . S
C2836 H2813 0.950 . S
C2836 C2835 1.397 . S
C2836 C2837 1.334 . S
C2837 H2814 0.950 . S
C2837 C2836 1.334 . S
C2837 C2838 1.287 . S
C2838 C2837 1.287 . S
C2838 C2839 1.524 . S
C2838 H2857 0.913 . S
C2839 H2815 0.950 . S
C2839 C2838 1.524 . S
C2839 C2840 1.415 . S
C2840 H2816 0.950 . S
C2840 C2835 1.363 . S
C2840 C2839 1.415 . S
C2841 H2817 0.951 . S
C2841 C2842 1.366 . S
C2841 C2843 1.388 . S
C2842 C2841 1.366 . S
C2842 C2846 1.385 . S
C2843 H2818 0.951 . S
C2843 C2841 1.388 . S
C2843 C2844 1.366 . S
C2844 C2843 1.366 . S
C2844 C2845 1.414 . S
C2844 C2847 1.499 . S
C2845 H2819 0.950 . S
C2845 C2844 1.414 . S
C2845 C2846 1.374 . S
C2846 H2820 0.950 . S
C2846 C2842 1.385 . S
C2846 C2845 1.374 . S
C2847 C2844 1.499 . S
C2847 C2848 1.373 . S
C2847 C2849 1.389 . S
C2848 H2821 0.950 . S
C2848 C2834 1.377 . S
C2848 C2847 1.373 . S
C2849 C2833 1.377 . S
C2849 C2847 1.389 . S
C2849 C2850 1.524 . S
C2850 C2849 1.524 . S
C2850 C2851 1.397 . S
C2850 C2855 1.363 . S
C2851 H2822 0.950 . S
C2851 C2850 1.397 . S
C2851 C2852 1.334 . S
C2852 H2823 0.950 . S
C2852 C2851 1.334 . S
C2852 C2853 1.287 . S
C2853 C2852 1.287 . S
C2853 C2854 1.524 . S
C2853 H2856 0.999 . S
C2854 H2824 0.950 . S
C2854 C2853 1.524 . S
C2854 C2855 1.415 . S
C2855 H2825 0.950 . S
C2855 C2850 1.363 . S
C2855 C2854 1.415 . S
H2856 C2853 0.999 . S
H2857 C2838 0.913 . S
H2858 C2876 0.951 . S
H2859 C2878 0.951 . S
H2860 C2880 0.950 . S
H2861 C2881 0.950 . S
H2862 C2883 0.950 . S
H2863 C2886 0.950 . S
H2864 C2887 0.950 . S
H2865 C2889 0.950 . S
H2866 C2890 0.950 . S
H2867 C2891 0.951 . S
H2868 C2893 0.951 . S
H2869 C2895 0.950 . S
H2870 C2896 0.950 . S
H2871 C2898 0.950 . S
H2872 C2901 0.950 . S
H2873 C2902 0.950 . S
H2874 C2904 0.950 . S
H2875 C2905 0.950 . S
C2876 H2858 0.951 . S
C2876 C2877 1.366 . S
C2876 C2878 1.388 . S
C2877 C2876 1.366 . S
C2877 C2881 1.385 . S
C2878 H2859 0.951 . S
C2878 C2876 1.388 . S
C2878 C2879 1.366 . S
C2879 C2878 1.366 . S
C2879 C2880 1.414 . S
C2879 C2882 1.499 . S
C2880 H2860 0.950 . S
C2880 C2879 1.414 . S
C2880 C2881 1.374 . S
C2881 H2861 0.950 . S
C2881 C2877 1.385 . S
C2881 C2880 1.374 . S
C2882 C2879 1.499 . S
C2882 C2883 1.373 . S
C2882 C2884 1.389 . S
C2883 H2862 0.950 . S
C2883 C2882 1.373 . S
C2883 C2899 1.377 . S
C2884 C2882 1.389 . S
C2884 C2885 1.524 . S
C2884 C2898 1.377 . S
C2885 C2884 1.524 . S
C2885 C2886 1.397 . S
C2885 C2890 1.363 . S
C2886 H2863 0.950 . S
C2886 C2885 1.397 . S
C2886 C2887 1.334 . S
C2887 H2864 0.950 . S
C2887 C2886 1.334 . S
C2887 C2888 1.287 . S
C2888 C2887 1.287 . S
C2888 C2889 1.524 . S
C2888 H2907 0.913 . S
C2889 H2865 0.950 . S
C2889 C2888 1.524 . S
C2889 C2890 1.415 . S
C2890 H2866 0.950 . S
C2890 C2885 1.363 . S
C2890 C2889 1.415 . S
C2891 H2867 0.951 . S
C2891 C2892 1.366 . S
C2891 C2893 1.388 . S
C2892 C2891 1.366 . S
C2892 C2896 1.385 . S
C2893 H2868 0.951 . S
C2893 C2891 1.388 . S
C2893 C2894 1.366 . S
C2894 C2893 1.366 . S
C2894 C2895 1.414 . S
C2894 C2897 1.499 . S
C2895 H2869 0.950 . S
C2895 C2894 1.414 . S
C2895 C2896 1.374 . S
C2896 H2870 0.950 . S
C2896 C2892 1.385 . S
C2896 C2895 1.374 . S
C2897 C2894 1.499 . S
C2897 C2898 1.373 . S
C2897 C2899 1.389 . S
C2898 H2871 0.950 . S
C2898 C2884 1.377 . S
C2898 C2897 1.373 . S
C2899 C2883 1.377 . S
C2899 C2897 1.389 . S
C2899 C2900 1.524 . S
C2900 C2899 1.524 . S
C2900 C2901 1.397 . S
C2900 C2905 1.363 . S
C2901 H2872 0.950 . S
C2901 C2900 1.397 . S
C2901 C2902 1.334 . S
C2902 H2873 0.950 . S
C2902 C2901 1.334 . S
C2902 C2903 1.287 . S
C2903 C2902 1.287 . S
C2903 C2904 1.524 . S
C2903 H2906 0.999 . S
C2904 H2874 0.950 . S
C2904 C2903 1.524 . S
C2904 C2905 1.415 . S
C2905 H2875 0.950 . S
C2905 C2900 1.363 . S
C2905 C2904 1.415 . S
H2906 C2903 0.999 . S
H2907 C2888 0.913 . S
H2908 C2926 0.951 . S
H2909 C2928 0.951 . S
H2910 C2930 0.950 . S
H2911 C2931 0.950 . S
H2912 C2933 0.950 . S
H2913 C2936 0.950 . S
H2914 C2937 0.950 . S
H2915 C2939 0.950 . S
H2916 C2940 0.950 . S
H2917 C2941 0.951 . S
H2918 C2943 0.951 . S
H2919 C2945 0.950 . S
H2920 C2946 0.950 . S
H2921 C2948 0.950 . S
H2922 C2951 0.950 . S
H2923 C2952 0.950 . S
H2924 C2954 0.950 . S
H2925 C2955 0.950 . S
C2926 H2908 0.951 . S
C2926 C2927 1.366 . S
C2926 C2928 1.388 . S
C2927 C2926 1.366 . S
C2927 C2931 1.385 . S
C2928 H2909 0.951 . S
C2928 C2926 1.388 . S
C2928 C2929 1.366 . S
C2929 C2928 1.366 . S
C2929 C2930 1.414 . S
C2929 C2932 1.499 . S
C2930 H2910 0.950 . S
C2930 C2929 1.414 . S
C2930 C2931 1.374 . S
C2931 H2911 0.950 . S
C2931 C2927 1.385 . S
C2931 C2930 1.374 . S
C2932 C2929 1.499 . S
C2932 C2933 1.373 . S
C2932 C2934 1.389 . S
C2933 H2912 0.950 . S
C2933 C2932 1.373 . S
C2933 C2949 1.377 . S
C2934 C2932 1.389 . S
C2934 C2935 1.524 . S
C2934 C2948 1.377 . S
C2935 C2934 1.524 . S
C2935 C2936 1.397 . S
C2935 C2940 1.363 . S
C2936 H2913 0.950 . S
C2936 C2935 1.397 . S
C2936 C2937 1.334 . S
C2937 H2914 0.950 . S
C2937 C2936 1.334 . S
C2937 C2938 1.287 . S
C2938 C2937 1.287 . S
C2938 C2939 1.524 . S
C2938 H2957 0.913 . S
C2939 H2915 0.950 . S
C2939 C2938 1.524 . S
C2939 C2940 1.415 . S
C2940 H2916 0.950 . S
C2940 C2935 1.363 . S
C2940 C2939 1.415 . S
C2941 H2917 0.951 . S
C2941 C2942 1.366 . S
C2941 C2943 1.388 . S
C2942 C2941 1.366 . S
C2942 C2946 1.385 . S
C2943 H2918 0.951 . S
C2943 C2941 1.388 . S
C2943 C2944 1.366 . S
C2944 C2943 1.366 . S
C2944 C2945 1.414 . S
C2944 C2947 1.499 . S
C2945 H2919 0.950 . S
C2945 C2944 1.414 . S
C2945 C2946 1.374 . S
C2946 H2920 0.950 . S
C2946 C2942 1.385 . S
C2946 C2945 1.374 . S
C2947 C2944 1.499 . S
C2947 C2948 1.373 . S
C2947 C2949 1.389 . S
C2948 H2921 0.950 . S
C2948 C2934 1.377 . S
C2948 C2947 1.373 . S
C2949 C2933 1.377 . S
C2949 C2947 1.389 . S
C2949 C2950 1.524 . S
C2950 C2949 1.524 . S
C2950 C2951 1.397 . S
C2950 C2955 1.363 . S
C2951 H2922 0.950 . S
C2951 C2950 1.397 . S
C2951 C2952 1.334 . S
C2952 H2923 0.950 . S
C2952 C2951 1.334 . S
C2952 C2953 1.287 . S
C2953 C2952 1.287 . S
C2953 C2954 1.524 . S
C2953 H2956 0.999 . S
C2954 H2924 0.950 . S
C2954 C2953 1.524 . S
C2954 C2955 1.415 . S
C2955 H2925 0.950 . S
C2955 C2950 1.363 . S
C2955 C2954 1.415 . S
H2956 C2953 0.999 . S
H2957 C2938 0.913 . S
H2958 C2976 0.951 . S
H2959 C2978 0.951 . S
H2960 C2980 0.950 . S
H2961 C2981 0.950 . S
H2962 C2983 0.950 . S
H2963 C2986 0.950 . S
H2964 C2987 0.950 . S
H2965 C2989 0.950 . S
H2966 C2990 0.950 . S
H2967 C2991 0.951 . S
H2968 C2993 0.951 . S
H2969 C2995 0.950 . S
H2970 C2996 0.950 . S
H2971 C2998 0.950 . S
H2972 C3001 0.950 . S
H2973 C3002 0.950 . S
H2974 C3004 0.950 . S
H2975 C3005 0.950 . S
C2976 H2958 0.951 . S
C2976 C2977 1.366 . S
C2976 C2978 1.388 . S
C2977 C2976 1.366 . S
C2977 C2981 1.385 . S
C2978 H2959 0.951 . S
C2978 C2976 1.388 . S
C2978 C2979 1.366 . S
C2979 C2978 1.366 . S
C2979 C2980 1.414 . S
C2979 C2982 1.499 . S
C2980 H2960 0.950 . S
C2980 C2979 1.414 . S
C2980 C2981 1.374 . S
C2981 H2961 0.950 . S
C2981 C2977 1.385 . S
C2981 C2980 1.374 . S
C2982 C2979 1.499 . S
C2982 C2983 1.373 . S
C2982 C2984 1.389 . S
C2983 H2962 0.950 . S
C2983 C2982 1.373 . S
C2983 C2999 1.377 . S
C2984 C2982 1.389 . S
C2984 C2985 1.524 . S
C2984 C2998 1.377 . S
C2985 C2984 1.524 . S
C2985 C2986 1.397 . S
C2985 C2990 1.363 . S
C2986 H2963 0.950 . S
C2986 C2985 1.397 . S
C2986 C2987 1.334 . S
C2987 H2964 0.950 . S
C2987 C2986 1.334 . S
C2987 C2988 1.287 . S
C2988 C2987 1.287 . S
C2988 C2989 1.524 . S
C2988 H3007 0.913 . S
C2989 H2965 0.950 . S
C2989 C2988 1.524 . S
C2989 C2990 1.415 . S
C2990 H2966 0.950 . S
C2990 C2985 1.363 . S
C2990 C2989 1.415 . S
C2991 H2967 0.951 . S
C2991 C2992 1.366 . S
C2991 C2993 1.388 . S
C2992 C2991 1.366 . S
C2992 C2996 1.385 . S
C2993 H2968 0.951 . S
C2993 C2991 1.388 . S
C2993 C2994 1.366 . S
C2994 C2993 1.366 . S
C2994 C2995 1.414 . S
C2994 C2997 1.499 . S
C2995 H2969 0.950 . S
C2995 C2994 1.414 . S
C2995 C2996 1.374 . S
C2996 H2970 0.950 . S
C2996 C2992 1.385 . S
C2996 C2995 1.374 . S
C2997 C2994 1.499 . S
C2997 C2998 1.373 . S
C2997 C2999 1.389 . S
C2998 H2971 0.950 . S
C2998 C2984 1.377 . S
C2998 C2997 1.373 . S
C2999 C2983 1.377 . S
C2999 C2997 1.389 . S
C2999 C3000 1.524 . S
C3000 C2999 1.524 . S
C3000 C3001 1.397 . S
C3000 C3005 1.363 . S
C3001 H2972 0.950 . S
C3001 C3000 1.397 . S
C3001 C3002 1.334 . S
C3002 H2973 0.950 . S
C3002 C3001 1.334 . S
C3002 C3003 1.287 . S
C3003 C3002 1.287 . S
C3003 C3004 1.524 . S
C3003 H3006 0.999 . S
C3004 H2974 0.950 . S
C3004 C3003 1.524 . S
C3004 C3005 1.415 . S
C3005 H2975 0.950 . S
C3005 C3000 1.363 . S
C3005 C3004 1.415 . S
H3006 C3003 0.999 . S
H3007 C2988 0.913 . S
H3008 C3026 0.951 . S
H3009 C3028 0.951 . S
H3010 C3030 0.950 . S
H3011 C3031 0.950 . S
H3012 C3033 0.950 . S
H3013 C3036 0.950 . S
H3014 C3037 0.950 . S
H3015 C3039 0.950 . S
H3016 C3040 0.950 . S
H3017 C3041 0.951 . S
H3018 C3043 0.951 . S
H3019 C3045 0.950 . S
H3020 C3046 0.950 . S
H3021 C3048 0.950 . S
H3022 C3051 0.950 . S
H3023 C3052 0.950 . S
H3024 C3054 0.950 . S
H3025 C3055 0.950 . S
C3026 H3008 0.951 . S
C3026 C3027 1.366 . S
C3026 C3028 1.388 . S
C3027 C3026 1.366 . S
C3027 C3031 1.385 . S
C3028 H3009 0.951 . S
C3028 C3026 1.388 . S
C3028 C3029 1.366 . S
C3029 C3028 1.366 . S
C3029 C3030 1.414 . S
C3029 C3032 1.499 . S
C3030 H3010 0.950 . S
C3030 C3029 1.414 . S
C3030 C3031 1.374 . S
C3031 H3011 0.950 . S
C3031 C3027 1.385 . S
C3031 C3030 1.374 . S
C3032 C3029 1.499 . S
C3032 C3033 1.373 . S
C3032 C3034 1.389 . S
C3033 H3012 0.950 . S
C3033 C3032 1.373 . S
C3033 C3049 1.377 . S
C3034 C3032 1.389 . S
C3034 C3035 1.524 . S
C3034 C3048 1.377 . S
C3035 C3034 1.524 . S
C3035 C3036 1.397 . S
C3035 C3040 1.363 . S
C3036 H3013 0.950 . S
C3036 C3035 1.397 . S
C3036 C3037 1.334 . S
C3037 H3014 0.950 . S
C3037 C3036 1.334 . S
C3037 C3038 1.287 . S
C3038 C3037 1.287 . S
C3038 C3039 1.524 . S
C3038 H3057 0.913 . S
C3039 H3015 0.950 . S
C3039 C3038 1.524 . S
C3039 C3040 1.415 . S
C3040 H3016 0.950 . S
C3040 C3035 1.363 . S
C3040 C3039 1.415 . S
C3041 H3017 0.951 . S
C3041 C3042 1.366 . S
C3041 C3043 1.388 . S
C3042 C3041 1.366 . S
C3042 C3046 1.385 . S
C3043 H3018 0.951 . S
C3043 C3041 1.388 . S
C3043 C3044 1.366 . S
C3044 C3043 1.366 . S
C3044 C3045 1.414 . S
C3044 C3047 1.499 . S
C3045 H3019 0.950 . S
C3045 C3044 1.414 . S
C3045 C3046 1.374 . S
C3046 H3020 0.950 . S
C3046 C3042 1.385 . S
C3046 C3045 1.374 . S
C3047 C3044 1.499 . S
C3047 C3048 1.373 . S
C3047 C3049 1.389 . S
C3048 H3021 0.950 . S
C3048 C3034 1.377 . S
C3048 C3047 1.373 . S
C3049 C3033 1.377 . S
C3049 C3047 1.389 . S
C3049 C3050 1.524 . S
C3050 C3049 1.524 . S
C3050 C3051 1.397 . S
C3050 C3055 1.363 . S
C3051 H3022 0.950 . S
C3051 C3050 1.397 . S
C3051 C3052 1.334 . S
C3052 H3023 0.950 . S
C3052 C3051 1.334 . S
C3052 C3053 1.287 . S
C3053 C3052 1.287 . S
C3053 C3054 1.524 . S
C3053 H3056 0.999 . S
C3054 H3024 0.950 . S
C3054 C3053 1.524 . S
C3054 C3055 1.415 . S
C3055 H3025 0.950 . S
C3055 C3050 1.363 . S
C3055 C3054 1.415 . S
H3056 C3053 0.999 . S
H3057 C3038 0.913 . S
H3058 C3076 0.951 . S
H3059 C3078 0.951 . S
H3060 C3080 0.950 . S
H3061 C3081 0.950 . S
H3062 C3083 0.950 . S
H3063 C3086 0.950 . S
H3064 C3087 0.950 . S
H3065 C3089 0.950 . S
H3066 C3090 0.950 . S
H3067 C3091 0.951 . S
H3068 C3093 0.951 . S
H3069 C3095 0.950 . S
H3070 C3096 0.950 . S
H3071 C3098 0.950 . S
H3072 C3101 0.950 . S
H3073 C3102 0.950 . S
H3074 C3104 0.950 . S
H3075 C3105 0.950 . S
C3076 H3058 0.951 . S
C3076 C3077 1.366 . S
C3076 C3078 1.388 . S
C3077 C3076 1.366 . S
C3077 C3081 1.385 . S
C3078 H3059 0.951 . S
C3078 C3076 1.388 . S
C3078 C3079 1.366 . S
C3079 C3078 1.366 . S
C3079 C3080 1.414 . S
C3079 C3082 1.499 . S
C3080 H3060 0.950 . S
C3080 C3079 1.414 . S
C3080 C3081 1.374 . S
C3081 H3061 0.950 . S
C3081 C3077 1.385 . S
C3081 C3080 1.374 . S
C3082 C3079 1.499 . S
C3082 C3083 1.373 . S
C3082 C3084 1.389 . S
C3083 H3062 0.950 . S
C3083 C3082 1.373 . S
C3083 C3099 1.377 . S
C3084 C3082 1.389 . S
C3084 C3085 1.524 . S
C3084 C3098 1.377 . S
C3085 C3084 1.524 . S
C3085 C3086 1.397 . S
C3085 C3090 1.363 . S
C3086 H3063 0.950 . S
C3086 C3085 1.397 . S
C3086 C3087 1.334 . S
C3087 H3064 0.950 . S
C3087 C3086 1.334 . S
C3087 C3088 1.287 . S
C3088 C3087 1.287 . S
C3088 C3089 1.524 . S
C3088 H3107 0.913 . S
C3089 H3065 0.950 . S
C3089 C3088 1.524 . S
C3089 C3090 1.415 . S
C3090 H3066 0.950 . S
C3090 C3085 1.363 . S
C3090 C3089 1.415 . S
C3091 H3067 0.951 . S
C3091 C3092 1.366 . S
C3091 C3093 1.388 . S
C3092 C3091 1.366 . S
C3092 C3096 1.385 . S
C3093 H3068 0.951 . S
C3093 C3091 1.388 . S
C3093 C3094 1.366 . S
C3094 C3093 1.366 . S
C3094 C3095 1.414 . S
C3094 C3097 1.499 . S
C3095 H3069 0.950 . S
C3095 C3094 1.414 . S
C3095 C3096 1.374 . S
C3096 H3070 0.950 . S
C3096 C3092 1.385 . S
C3096 C3095 1.374 . S
C3097 C3094 1.499 . S
C3097 C3098 1.373 . S
C3097 C3099 1.389 . S
C3098 H3071 0.950 . S
C3098 C3084 1.377 . S
C3098 C3097 1.373 . S
C3099 C3083 1.377 . S
C3099 C3097 1.389 . S
C3099 C3100 1.524 . S
C3100 C3099 1.524 . S
C3100 C3101 1.397 . S
C3100 C3105 1.363 . S
C3101 H3072 0.950 . S
C3101 C3100 1.397 . S
C3101 C3102 1.334 . S
C3102 H3073 0.950 . S
C3102 C3101 1.334 . S
C3102 C3103 1.287 . S
C3103 C3102 1.287 . S
C3103 C3104 1.524 . S
C3103 H3106 0.999 . S
C3104 H3074 0.950 . S
C3104 C3103 1.524 . S
C3104 C3105 1.415 . S
C3105 H3075 0.950 . S
C3105 C3100 1.363 . S
C3105 C3104 1.415 . S
H3106 C3103 0.999 . S
H3107 C3088 0.913 . S
H3108 C3126 0.951 . S
H3109 C3128 0.951 . S
H3110 C3130 0.950 . S
H3111 C3131 0.950 . S
H3112 C3133 0.950 . S
H3113 C3136 0.950 . S
H3114 C3137 0.950 . S
H3115 C3139 0.950 . S
H3116 C3140 0.950 . S
H3117 C3141 0.951 . S
H3118 C3143 0.951 . S
H3119 C3145 0.950 . S
H3120 C3146 0.950 . S
H3121 C3148 0.950 . S
H3122 C3151 0.950 . S
H3123 C3152 0.950 . S
H3124 C3154 0.950 . S
H3125 C3155 0.950 . S
C3126 H3108 0.951 . S
C3126 C3127 1.366 . S
C3126 C3128 1.388 . S
C3127 C3126 1.366 . S
C3127 C3131 1.385 . S
C3128 H3109 0.951 . S
C3128 C3126 1.388 . S
C3128 C3129 1.366 . S
C3129 C3128 1.366 . S
C3129 C3130 1.414 . S
C3129 C3132 1.499 . S
C3130 H3110 0.950 . S
C3130 C3129 1.414 . S
C3130 C3131 1.374 . S
C3131 H3111 0.950 . S
C3131 C3127 1.385 . S
C3131 C3130 1.374 . S
C3132 C3129 1.499 . S
C3132 C3133 1.373 . S
C3132 C3134 1.389 . S
C3133 H3112 0.950 . S
C3133 C3132 1.373 . S
C3133 C3149 1.377 . S
C3134 C3132 1.389 . S
C3134 C3135 1.524 . S
C3134 C3148 1.377 . S
C3135 C3134 1.524 . S
C3135 C3136 1.397 . S
C3135 C3140 1.363 . S
C3136 H3113 0.950 . S
C3136 C3135 1.397 . S
C3136 C3137 1.334 . S
C3137 H3114 0.950 . S
C3137 C3136 1.334 . S
C3137 C3138 1.287 . S
C3138 C3137 1.287 . S
C3138 C3139 1.524 . S
C3138 H3157 0.913 . S
C3139 H3115 0.950 . S
C3139 C3138 1.524 . S
C3139 C3140 1.415 . S
C3140 H3116 0.950 . S
C3140 C3135 1.363 . S
C3140 C3139 1.415 . S
C3141 H3117 0.951 . S
C3141 C3142 1.366 . S
C3141 C3143 1.388 . S
C3142 C3141 1.366 . S
C3142 C3146 1.385 . S
C3143 H3118 0.951 . S
C3143 C3141 1.388 . S
C3143 C3144 1.366 . S
C3144 C3143 1.366 . S
C3144 C3145 1.414 . S
C3144 C3147 1.499 . S
C3145 H3119 0.950 . S
C3145 C3144 1.414 . S
C3145 C3146 1.374 . S
C3146 H3120 0.950 . S
C3146 C3142 1.385 . S
C3146 C3145 1.374 . S
C3147 C3144 1.499 . S
C3147 C3148 1.373 . S
C3147 C3149 1.389 . S
C3148 H3121 0.950 . S
C3148 C3134 1.377 . S
C3148 C3147 1.373 . S
C3149 C3133 1.377 . S
C3149 C3147 1.389 . S
C3149 C3150 1.524 . S
C3150 C3149 1.524 . S
C3150 C3151 1.397 . S
C3150 C3155 1.363 . S
C3151 H3122 0.950 . S
C3151 C3150 1.397 . S
C3151 C3152 1.334 . S
C3152 H3123 0.950 . S
C3152 C3151 1.334 . S
C3152 C3153 1.287 . S
C3153 C3152 1.287 . S
C3153 C3154 1.524 . S
C3153 H3156 0.999 . S
C3154 H3124 0.950 . S
C3154 C3153 1.524 . S
C3154 C3155 1.415 . S
C3155 H3125 0.950 . S
C3155 C3150 1.363 . S
C3155 C3154 1.415 . S
H3156 C3153 0.999 . S
H3157 C3138 0.913 . S
H3158 C3176 0.951 . S
H3159 C3178 0.951 . S
H3160 C3180 0.950 . S
H3161 C3181 0.950 . S
H3162 C3183 0.950 . S
H3163 C3186 0.950 . S
H3164 C3187 0.950 . S
H3165 C3189 0.950 . S
H3166 C3190 0.950 . S
H3167 C3191 0.951 . S
H3168 C3193 0.951 . S
H3169 C3195 0.950 . S
H3170 C3196 0.950 . S
H3171 C3198 0.950 . S
H3172 C3201 0.950 . S
H3173 C3202 0.950 . S
H3174 C3204 0.950 . S
H3175 C3205 0.950 . S
C3176 H3158 0.951 . S
C3176 C3177 1.366 . S
C3176 C3178 1.388 . S
C3177 C3176 1.366 . S
C3177 C3181 1.385 . S
C3178 H3159 0.951 . S
C3178 C3176 1.388 . S
C3178 C3179 1.366 . S
C3179 C3178 1.366 . S
C3179 C3180 1.414 . S
C3179 C3182 1.499 . S
C3180 H3160 0.950 . S
C3180 C3179 1.414 . S
C3180 C3181 1.374 . S
C3181 H3161 0.950 . S
C3181 C3177 1.385 . S
C3181 C3180 1.374 . S
C3182 C3179 1.499 . S
C3182 C3183 1.373 . S
C3182 C3184 1.389 . S
C3183 H3162 0.950 . S
C3183 C3182 1.373 . S
C3183 C3199 1.377 . S
C3184 C3182 1.389 . S
C3184 C3185 1.524 . S
C3184 C3198 1.377 . S
C3185 C3184 1.524 . S
C3185 C3186 1.397 . S
C3185 C3190 1.363 . S
C3186 H3163 0.950 . S
C3186 C3185 1.397 . S
C3186 C3187 1.334 . S
C3187 H3164 0.950 . S
C3187 C3186 1.334 . S
C3187 C3188 1.287 . S
C3188 C3187 1.287 . S
C3188 C3189 1.524 . S
C3188 H3207 0.913 . S
C3189 H3165 0.950 . S
C3189 C3188 1.524 . S
C3189 C3190 1.415 . S
C3190 H3166 0.950 . S
C3190 C3185 1.363 . S
C3190 C3189 1.415 . S
C3191 H3167 0.951 . S
C3191 C3192 1.366 . S
C3191 C3193 1.388 . S
C3192 C3191 1.366 . S
C3192 C3196 1.385 . S
C3193 H3168 0.951 . S
C3193 C3191 1.388 . S
C3193 C3194 1.366 . S
C3194 C3193 1.366 . S
C3194 C3195 1.414 . S
C3194 C3197 1.499 . S
C3195 H3169 0.950 . S
C3195 C3194 1.414 . S
C3195 C3196 1.374 . S
C3196 H3170 0.950 . S
C3196 C3192 1.385 . S
C3196 C3195 1.374 . S
C3197 C3194 1.499 . S
C3197 C3198 1.373 . S
C3197 C3199 1.389 . S
C3198 H3171 0.950 . S
C3198 C3184 1.377 . S
C3198 C3197 1.373 . S
C3199 C3183 1.377 . S
C3199 C3197 1.389 . S
C3199 C3200 1.524 . S
C3200 C3199 1.524 . S
C3200 C3201 1.397 . S
C3200 C3205 1.363 . S
C3201 H3172 0.950 . S
C3201 C3200 1.397 . S
C3201 C3202 1.334 . S
C3202 H3173 0.950 . S
C3202 C3201 1.334 . S
C3202 C3203 1.287 . S
C3203 C3202 1.287 . S
C3203 C3204 1.524 . S
C3203 H3206 0.999 . S
C3204 H3174 0.950 . S
C3204 C3203 1.524 . S
C3204 C3205 1.415 . S
C3205 H3175 0.950 . S
C3205 C3200 1.363 . S
C3205 C3204 1.415 . S
H3206 C3203 0.999 . S
H3207 C3188 0.913 . S
H3208 C3226 0.951 . S
H3209 C3228 0.951 . S
H3210 C3230 0.950 . S
H3211 C3231 0.950 . S
H3212 C3233 0.950 . S
H3213 C3236 0.950 . S
H3214 C3237 0.950 . S
H3215 C3239 0.950 . S
H3216 C3240 0.950 . S
H3217 C3241 0.951 . S
H3218 C3243 0.951 . S
H3219 C3245 0.950 . S
H3220 C3246 0.950 . S
H3221 C3248 0.950 . S
H3222 C3251 0.950 . S
H3223 C3252 0.950 . S
H3224 C3254 0.950 . S
H3225 C3255 0.950 . S
C3226 H3208 0.951 . S
C3226 C3227 1.366 . S
C3226 C3228 1.388 . S
C3227 C3226 1.366 . S
C3227 C3231 1.385 . S
C3228 H3209 0.951 . S
C3228 C3226 1.388 . S
C3228 C3229 1.366 . S
C3229 C3228 1.366 . S
C3229 C3230 1.414 . S
C3229 C3232 1.499 . S
C3230 H3210 0.950 . S
C3230 C3229 1.414 . S
C3230 C3231 1.374 . S
C3231 H3211 0.950 . S
C3231 C3227 1.385 . S
C3231 C3230 1.374 . S
C3232 C3229 1.499 . S
C3232 C3233 1.373 . S
C3232 C3234 1.389 . S
C3233 H3212 0.950 . S
C3233 C3232 1.373 . S
C3233 C3249 1.377 . S
C3234 C3232 1.389 . S
C3234 C3235 1.524 . S
C3234 C3248 1.377 . S
C3235 C3234 1.524 . S
C3235 C3236 1.397 . S
C3235 C3240 1.363 . S
C3236 H3213 0.950 . S
C3236 C3235 1.397 . S
C3236 C3237 1.334 . S
C3237 H3214 0.950 . S
C3237 C3236 1.334 . S
C3237 C3238 1.287 . S
C3238 C3237 1.287 . S
C3238 C3239 1.524 . S
C3238 H3257 0.913 . S
C3239 H3215 0.950 . S
C3239 C3238 1.524 . S
C3239 C3240 1.415 . S
C3240 H3216 0.950 . S
C3240 C3235 1.363 . S
C3240 C3239 1.415 . S
C3241 H3217 0.951 . S
C3241 C3242 1.366 . S
C3241 C3243 1.388 . S
C3242 C3241 1.366 . S
C3242 C3246 1.385 . S
C3243 H3218 0.951 . S
C3243 C3241 1.388 . S
C3243 C3244 1.366 . S
C3244 C3243 1.366 . S
C3244 C3245 1.414 . S
C3244 C3247 1.499 . S
C3245 H3219 0.950 . S
C3245 C3244 1.414 . S
C3245 C3246 1.374 . S
C3246 H3220 0.950 . S
C3246 C3242 1.385 . S
C3246 C3245 1.374 . S
C3247 C3244 1.499 . S
C3247 C3248 1.373 . S
C3247 C3249 1.389 . S
C3248 H3221 0.950 . S
C3248 C3234 1.377 . S
C3248 C3247 1.373 . S
C3249 C3233 1.377 . S
C3249 C3247 1.389 . S
C3249 C3250 1.524 . S
C3250 C3249 1.524 . S
C3250 C3251 1.397 . S
C3250 C3255 1.363 . S
C3251 H3222 0.950 . S
C3251 C3250 1.397 . S
C3251 C3252 1.334 . S
C3252 H3223 0.950 . S
C3252 C3251 1.334 . S
C3252 C3253 1.287 . S
C3253 C3252 1.287 . S
C3253 C3254 1.524 . S
C3253 H3256 0.999 . S
C3254 H3224 0.950 . S
C3254 C3253 1.524 . S
C3254 C3255 1.415 . S
C3255 H3225 0.950 . S
C3255 C3250 1.363 . S
C3255 C3254 1.415 . S
H3256 C3253 0.999 . S
H3257 C3238 0.913 . S
C577 C151 1.271 . S
C592 C207 1.288 . S
C627 C159 1.994 . S
C642 C247 2.147 . S
C677 C137 1.553 . S
C692 C286 1.637 . S
C727 C126 1.365 . S
C742 C246 1.452 1_556 S
C792 C287 1.880 . S
C777 C104 1.748 . S
C827 C118 1.007 . S
C842 C206 1.021 . S
C892 C217 1.601 . S
C877 C129 1.630 . S
C942 C257 1.818 . S
C927 C107 1.836 . S
C977 C115 1.326 . S
C992 C296 1.645 1_556 S
C1027 C148 1.190 . S
C1042 C256 1.437 . S
C1077 C162 1.561 . S
C1092 C297 1.540 . S
C1142 C216 1.359 . S
C1127 C140 1.377 . S
C1192 C327 1.288 . S
C1177 C19 1.271 . S
C1227 C27 1.996 . S
C1242 C367 2.147 . S
C1277 C5 1.552 . S
C1292 C406 1.637 . S
C1327 C192 1.366 . S
C1342 C366 1.453 . S
C1377 C170 1.748 . S
C1392 C407 1.880 . S
C1427 C184 1.007 . S
C1442 C326 1.021 . S
C1477 C195 1.630 . S
C1492 C337 1.601 . S
C1527 C173 1.836 . S
C1542 C377 1.813 . S
C1592 C416 1.645 . S
C1577 C181 1.325 . S
C1627 C16 1.188 . S
C1642 C376 1.435 . S
C1692 C417 1.541 . S
C1677 C30 1.561 . S
C1727 C8 1.377 . S
C1742 C336 1.359 . S
C1792 C447 1.288 . S
C1777 C85 1.272 . S
C1827 C93 1.995 . S
C1842 C487 2.147 . S
C1892 C526 1.637 . S
C1877 C71 1.552 . S
C1942 C486 1.452 . S
C1927 C60 1.367 . S
C1992 C527 1.880 . S
C1977 C38 1.749 . S
C2027 C52 1.007 . S
C2042 C446 1.021 . S
C2077 C63 1.630 . S
C2092 C457 1.601 . S
C2127 C41 1.836 . S
C2142 C497 1.813 . S
C2192 C536 1.645 . S
C2177 C49 1.326 . S
C2227 C82 1.190 . S
C2242 C496 1.436 . S
C2277 C96 1.561 . S
C2292 C537 1.541 . S
C2327 C74 1.377 . S
C2342 C456 1.358 . S
C2377 C172 1.474 . S
C2392 C203 1.513 . S
C2442 C243 1.659 . S
C2427 C183 1.556 . S
C2477 C194 1.533 . S
C2492 C293 1.558 . S
C2527 C73 1.842 . S
C2542 C253 1.871 . S
C2577 C84 1.253 . S
C2592 C283 1.316 . S
C2642 C213 1.448 . S
C2627 C95 1.406 . S
C2677 C40 1.474 . S
C2692 C323 1.513 . S
C2727 C51 1.555 . S
C2742 C363 1.658 . S
C2777 C62 1.534 . S
C2792 C413 1.558 . S
C2827 C139 1.843 . S
C2842 C373 1.871 . S
C2892 C403 1.316 . S
C2877 C150 1.251 . S
C2927 C161 1.406 . S
C2942 C333 1.448 . S
C2977 C106 1.474 . S
C2992 C443 1.513 . S
C3027 C117 1.555 . S
C3042 C483 1.658 . S
C3092 C533 1.558 . S
C3077 C128 1.533 . S
C3127 C7 1.843 . S
C3142 C493 1.871 . S
C3177 C18 1.251 . S
C3192 C523 1.316 . S
C3227 C29 1.407 . S
C3242 C453 1.448 . S
