# Generated by pormake.
# Topology dag, (6,3)-cn, num edge types: 1
# Building blocks:
#     Node 0, Type 0, BuildingBlock: OJICUG_clean_sbu_0, # of connection points: 6
#     Node 1, Type 0, BuildingBlock: OJICUG_clean_sbu_0, # of connection points: 6
#     Node 2, Type 0, BuildingBlock: OJICUG_clean_sbu_0, # of connection points: 6
#     Node 3, Type 0, BuildingBlock: OJICUG_clean_sbu_0, # of connection points: 6
#     Node 4, Type 1, BuildingBlock: OLANEW_clean_sbu_2, # of connection points: 3
#     Node 5, Type 1, BuildingBlock: OLANEW_clean_sbu_2, # of connection points: 3
#     Node 6, Type 1, BuildingBlock: OLANEW_clean_sbu_2, # of connection points: 3
#     Node 7, Type 1, BuildingBlock: OLANEW_clean_sbu_2, # of connection points: 3
#     Node 8, Type 1, BuildingBlock: OLANEW_clean_sbu_2, # of connection points: 3
#     Node 9, Type 1, BuildingBlock: OLANEW_clean_sbu_2, # of connection points: 3
#     Node 10, Type 1, BuildingBlock: OLANEW_clean_sbu_2, # of connection points: 3
#     Node 11, Type 1, BuildingBlock: OLANEW_clean_sbu_2, # of connection points: 3
#     Edge 12, Type (0, 1), BuildingBlock: TEMPAE_clean_linker_10, # of connection points: 2
#     Edge 13, Type (0, 1), BuildingBlock: TEMPAE_clean_linker_10, # of connection points: 2
#     Edge 14, Type (0, 1), BuildingBlock: TEMPAE_clean_linker_10, # of connection points: 2
#     Edge 15, Type (0, 1), BuildingBlock: TEMPAE_clean_linker_10, # of connection points: 2
#     Edge 16, Type (0, 1), BuildingBlock: TEMPAE_clean_linker_10, # of connection points: 2
#     Edge 17, Type (0, 1), BuildingBlock: TEMPAE_clean_linker_10, # of connection points: 2
#     Edge 18, Type (0, 1), BuildingBlock: TEMPAE_clean_linker_10, # of connection points: 2
#     Edge 19, Type (0, 1), BuildingBlock: TEMPAE_clean_linker_10, # of connection points: 2
#     Edge 20, Type (0, 1), BuildingBlock: TEMPAE_clean_linker_10, # of connection points: 2
#     Edge 21, Type (0, 1), BuildingBlock: TEMPAE_clean_linker_10, # of connection points: 2
#     Edge 22, Type (0, 1), BuildingBlock: TEMPAE_clean_linker_10, # of connection points: 2
#     Edge 23, Type (0, 1), BuildingBlock: TEMPAE_clean_linker_10, # of connection points: 2
#     Edge 24, Type (0, 1), BuildingBlock: TEMPAE_clean_linker_10, # of connection points: 2
#     Edge 25, Type (0, 1), BuildingBlock: TEMPAE_clean_linker_10, # of connection points: 2
#     Edge 26, Type (0, 1), BuildingBlock: TEMPAE_clean_linker_10, # of connection points: 2
#     Edge 27, Type (0, 1), BuildingBlock: TEMPAE_clean_linker_10, # of connection points: 2
#     Edge 28, Type (0, 1), BuildingBlock: TEMPAE_clean_linker_10, # of connection points: 2
#     Edge 29, Type (0, 1), BuildingBlock: TEMPAE_clean_linker_10, # of connection points: 2
#     Edge 30, Type (0, 1), BuildingBlock: TEMPAE_clean_linker_10, # of connection points: 2
#     Edge 31, Type (0, 1), BuildingBlock: TEMPAE_clean_linker_10, # of connection points: 2
#     Edge 32, Type (0, 1), BuildingBlock: TEMPAE_clean_linker_10, # of connection points: 2
#     Edge 33, Type (0, 1), BuildingBlock: TEMPAE_clean_linker_10, # of connection points: 2
#     Edge 34, Type (0, 1), BuildingBlock: TEMPAE_clean_linker_10, # of connection points: 2
#     Edge 35, Type (0, 1), BuildingBlock: TEMPAE_clean_linker_10, # of connection points: 2
# Relax obj value: 0.128
# Max RMSD: 0.158
# Mean RMSD: 0.121
data_MOF--net-dag--node1-OJICUG_clean_sbu_0--node2-OLANEW_clean_sbu_2--edge1-TEMPAE_clean_linker_10
_symmetry_space_group_name_H-M    P1
_symmetry_Int_Tables_number       1
_symmetry_cell_setting            triclinic
loop_
_symmetry_equiv_pos_as_xyz
'x, y, z'
_cell_length_a     41.707591
_cell_length_b     38.717881
_cell_length_c     41.170768
_cell_angle_alpha  92.399332
_cell_angle_beta   94.235448
_cell_angle_gamma 91.241751
loop_
_atom_site_label
_atom_site_type_symbol
_atom_site_fract_x
_atom_site_fract_y
_atom_site_fract_z
_atom_type_partial_charge
Sc0 Sc 0.09153 0.90144 0.01353 0.0
Sc1 Sc 0.11971 0.81857 0.99274 0.0
Sc2 Sc 0.17484 0.88562 0.01904 0.0
O3 O 0.12862 0.86858 0.00856 0.0
C4 C 0.14421 0.9519 0.98643 0.0
C5 C 0.07075 0.86 0.94603 0.0
C6 C 0.18143 0.83828 0.95506 0.0
C7 C 0.06092 0.83079 0.03681 0.0
C8 C 0.13832 0.92059 0.0773 0.0
C9 C 0.17654 0.80974 0.04745 0.0
O10 O 0.11536 0.94415 0.99187 0.0
O11 O 0.08747 0.83382 0.95297 0.0
O12 O 0.19039 0.86419 0.97376 0.0
O13 O 0.0621 0.86362 0.03612 0.0
O14 O 0.16349 0.90944 0.06503 0.0
O15 O 0.15115 0.79845 0.03105 0.0
O16 O 0.11066 0.91928 0.06177 0.0
O17 O 0.08044 0.81165 0.0227 0.0
O18 O 0.1881 0.84006 0.04477 0.0
O19 O 0.0697 0.88656 0.9653 0.0
O20 O 0.1677 0.93305 0.99463 0.0
O21 O 0.15741 0.81898 0.95992 0.0
Sc22 Sc 0.71705 0.60058 0.46261 0.0
Sc23 Sc 0.66261 0.66831 0.44764 0.0
Sc24 Sc 0.63444 0.58702 0.4702 0.0
O25 O 0.67141 0.61875 0.46014 0.0
C26 C 0.67751 0.5339 0.43265 0.0
C27 C 0.71501 0.64424 0.39874 0.0
C28 C 0.60318 0.6261 0.40957 0.0
C29 C 0.72885 0.67802 0.49167 0.0
C30 C 0.68866 0.56999 0.52568 0.0
C31 C 0.61336 0.65883 0.50228 0.0
O32 O 0.70346 0.55177 0.43738 0.0
O33 O 0.69218 0.66345 0.40666 0.0
O34 O 0.6056 0.60005 0.42731 0.0
O35 O 0.73689 0.64685 0.4872 0.0
O36 O 0.65953 0.57127 0.51433 0.0
O37 O 0.63136 0.67824 0.48678 0.0
O38 O 0.71221 0.57946 0.50988 0.0
O39 O 0.70246 0.68977 0.47974 0.0
O40 O 0.61242 0.62617 0.49829 0.0
O41 O 0.72641 0.62057 0.41634 0.0
O42 O 0.65121 0.54362 0.44314 0.0
O43 O 0.62171 0.65274 0.41411 0.0
Sc44 Sc 0.84752 0.20382 0.04291 0.0
Sc45 Sc 0.80066 0.13423 0.00461 0.0
Sc46 Sc 0.8823 0.12349 0.0286 0.0
O47 O 0.84342 0.15385 0.02535 0.0
C48 C 0.91255 0.19567 0.00884 0.0
C49 C 0.79946 0.2106 0.97937 0.0
C50 C 0.85064 0.10131 0.95772 0.0
C51 C 0.78049 0.17881 0.06702 0.0
C52 C 0.89269 0.16579 0.09607 0.0
C53 C 0.82667 0.06982 0.04349 0.0
O54 O 0.88907 0.21432 0.01594 0.0
O55 O 0.79232 0.17858 0.97537 0.0
O56 O 0.87467 0.10559 0.97847 0.0
O57 O 0.8063 0.19721 0.07082 0.0
O58 O 0.89425 0.13795 0.07891 0.0
O59 O 0.80367 0.08699 0.03079 0.0
O60 O 0.87798 0.19203 0.08565 0.0
O61 O 0.77484 0.15636 0.04366 0.0
O62 O 0.85584 0.07998 0.04403 0.0
O63 O 0.8178 0.22306 0.00315 0.0
O64 O 0.9135 0.1635 0.01364 0.0
O65 O 0.82233 0.10989 0.96377 0.0
Sc66 Sc 0.38201 0.40132 0.55266 0.0
Sc67 Sc 0.30106 0.38122 0.56572 0.0
Sc68 Sc 0.36217 0.32139 0.58383 0.0
O69 O 0.34833 0.36802 0.56744 0.0
C70 C 0.40676 0.32882 0.52516 0.0
C71 C 0.32416 0.40984 0.49893 0.0
C72 C 0.29637 0.30161 0.54144 0.0
C73 C 0.33582 0.45331 0.58849 0.0
C74 C 0.41836 0.37222 0.61613 0.0
C75 C 0.30995 0.34324 0.63311 0.0
O76 O 0.40616 0.36165 0.52615 0.0
O77 O 0.30212 0.40082 0.51698 0.0
O78 O 0.32354 0.29404 0.55504 0.0
O79 O 0.36209 0.44565 0.57646 0.0
O80 O 0.40241 0.34371 0.61448 0.0
O81 O 0.29445 0.36319 0.61415 0.0
O82 O 0.41332 0.39564 0.59576 0.0
O83 O 0.31186 0.43228 0.58775 0.0
O84 O 0.33453 0.32704 0.62528 0.0
O85 O 0.35383 0.41022 0.5085 0.0
O86 O 0.39155 0.31061 0.54412 0.0
O87 O 0.28509 0.33185 0.54331 0.0
O88 O 0.13541 0.05297 0.3126 0.0
Cd89 Cd 0.11585 0.09131 0.35554 0.0
O90 O 0.14028 0.09592 0.27989 0.0
Cd91 Cd 0.11496 0.1331 0.30916 0.0
O92 O 0.06981 0.15752 0.29498 0.0
C93 C 0.07056 0.17402 0.26901 0.0
O94 O 0.09836 0.17817 0.25638 0.0
C95 C 0.14338 0.06411 0.2856 0.0
C96 C 0.1622 0.1304 0.39473 0.0
O97 O 0.15172 0.10122 0.40378 0.0
O98 O 0.15147 0.14056 0.36687 0.0
O99 O 0.27434 0.7135 0.6564 0.0
Cd100 Cd 0.26981 0.77569 0.66724 0.0
O101 O 0.32573 0.72246 0.66905 0.0
Cd102 Cd 0.37676 0.71078 0.6699 0.0
O103 O 0.42583 0.71108 0.65481 0.0
C104 C 0.43147 0.72997 0.63126 0.0
O105 O 0.40805 0.74828 0.61826 0.0
C106 C 0.30252 0.70169 0.65968 0.0
C107 C 0.25498 0.79188 0.73084 0.0
O108 O 0.23284 0.78813 0.70758 0.0
O109 O 0.2842 0.78787 0.72401 0.0
O110 O 0.88742 0.6604 0.12131 0.0
Cd111 Cd 0.84076 0.62182 0.12447 0.0
O112 O 0.8515 0.70067 0.12087 0.0
Cd113 Cd 0.8351 0.75358 0.11902 0.0
O114 O 0.8214 0.80698 0.11373 0.0
C115 C 0.81876 0.81827 0.08517 0.0
O116 O 0.82376 0.79715 0.06033 0.0
C117 C 0.8806 0.69208 0.11921 0.0
C118 C 0.81194 0.63083 0.18296 0.0
O119 O 0.83087 0.60575 0.17836 0.0
O120 O 0.80669 0.65177 0.15999 0.0
O121 O 0.69595 0.47423 0.76614 0.0
Cd122 Cd 0.68051 0.45653 0.81918 0.0
O123 O 0.67093 0.52312 0.77268 0.0
Cd124 Cd 0.64071 0.50078 0.80782 0.0
O125 O 0.59728 0.46853 0.79746 0.0
C126 C 0.60024 0.44208 0.77865 0.0
O127 O 0.6291 0.4344 0.7702 0.0
C128 C 0.68947 0.50434 0.7567 0.0
C129 C 0.70702 0.39539 0.84031 0.0
O130 O 0.7233 0.42396 0.84311 0.0
O131 O 0.67833 0.39553 0.82681 0.0
O132 O 0.61027 0.30225 0.30365 0.0
Cd133 Cd 0.58372 0.24825 0.28303 0.0
O134 O 0.64591 0.276 0.33528 0.0
Cd135 Cd 0.6141 0.23054 0.33516 0.0
O136 O 0.57525 0.22262 0.367 0.0
C137 C 0.54667 0.23076 0.35812 0.0
O138 O 0.54006 0.2398 0.32802 0.0
C139 C 0.63597 0.30344 0.32237 0.0
C140 C 0.61931 0.22278 0.23337 0.0
O141 O 0.5958 0.2429 0.22738 0.0
O142 O 0.62515 0.21368 0.26276 0.0
O143 O 0.26263 0.17975 0.92604 0.0
Cd144 Cd 0.29652 0.22883 0.91341 0.0
O145 O 0.22134 0.19885 0.89668 0.0
Cd146 Cd 0.17035 0.20078 0.8811 0.0
O147 O 0.11965 0.21049 0.88551 0.0
C148 C 0.11252 0.2376 0.90164 0.0
O149 O 0.13577 0.25917 0.91318 0.0
C150 C 0.2334 0.17622 0.91515 0.0
C151 C 0.28256 0.25406 0.85165 0.0
O152 O 0.30023 0.2277 0.85583 0.0
O153 O 0.27087 0.26828 0.8767 0.0
O154 O 0.37999 0.62257 0.26429 0.0
Cd155 Cd 0.32496 0.60537 0.24395 0.0
O156 O 0.39959 0.57365 0.24644 0.0
Cd157 Cd 0.35194 0.54869 0.23902 0.0
O158 O 0.32118 0.51805 0.26827 0.0
C159 C 0.31215 0.53309 0.29396 0.0
O160 O 0.31884 0.56628 0.29911 0.0
C161 C 0.40407 0.60377 0.25981 0.0
C162 C 0.29476 0.65143 0.20192 0.0
O163 O 0.29209 0.65412 0.23274 0.0
O164 O 0.31214 0.62725 0.19106 0.0
O165 O 0.99328 0.82652 0.69504 0.0
Cd166 Cd 0.97907 0.8134 0.63708 0.0
O167 O 0.94796 0.85227 0.7026 0.0
Cd168 Cd 0.91693 0.88351 0.73169 0.0
O169 O 0.89658 0.91763 0.76759 0.0
C170 C 0.89524 0.94984 0.76308 0.0
O171 O 0.90524 0.96174 0.73607 0.0
C172 C 0.97527 0.84238 0.71394 0.0
C173 C 0.91467 0.79637 0.61878 0.0
O174 O 0.93378 0.77403 0.63097 0.0
O175 O 0.92569 0.82723 0.6162 0.0
C176 C 0.17145 0.93818 0.12913 0.0
C177 C 0.14167 0.93717 0.11069 0.0
C178 C 0.17545 0.9559 0.15972 0.0
C179 C 0.14913 0.97319 0.17214 0.0
C180 C 0.11879 0.97137 0.15417 0.0
C181 C 0.11541 0.95335 0.12377 0.0
C182 C 0.2081 0.957 0.17826 0.0
C183 C 0.09007 0.98945 0.16657 0.0
C184 C 0.14594 0.00398 0.26073 0.0
C185 C 0.15137 0.03972 0.25875 0.0
C186 C 0.14691 0.98153 0.23308 0.0
C187 C 0.15349 0.99517 0.20281 0.0
C188 C 0.16128 0.03079 0.20125 0.0
C189 C 0.16018 0.05259 0.22921 0.0
C190 C 0.13885 0.94362 0.23582 0.0
C191 C 0.16873 0.04637 0.16954 0.0
H192 H 0.19189 0.9256 0.11946 0.0
H193 H 0.09227 0.95271 0.1099 0.0
H194 H 0.21824 0.98378 0.17935 0.0
H195 H 0.20596 0.94949 0.20374 0.0
H196 H 0.22528 0.93962 0.16677 0.0
H197 H 0.06779 0.9841 0.15048 0.0
H198 H 0.08584 0.9812 0.19141 0.0
H199 H 0.09485 0.0178 0.1683 0.0
H200 H 0.13918 0.99373 0.28342 0.0
H201 H 0.16471 0.0801 0.22745 0.0
H202 H 0.15632 0.92742 0.22346 0.0
H203 H 0.1147 0.93758 0.22349 0.0
H204 H 0.13871 0.93629 0.26161 0.0
H205 H 0.18732 0.03132 0.1577 0.0
H206 H 0.17728 0.07374 0.17305 0.0
H207 H 0.14675 0.04532 0.15256 0.0
C208 C 0.59519 0.70741 0.53881 0.0
C209 C 0.59027 0.67423 0.52403 0.0
C210 C 0.57251 0.72147 0.55905 0.0
C211 C 0.54409 0.70216 0.56381 0.0
C212 C 0.53908 0.66878 0.54877 0.0
C213 C 0.56228 0.65519 0.5294 0.0
C214 C 0.57887 0.75686 0.57529 0.0
C215 C 0.50887 0.64748 0.55264 0.0
C216 C 0.48912 0.71296 0.63226 0.0
C217 C 0.46261 0.72837 0.61627 0.0
C218 C 0.51734 0.70726 0.61643 0.0
C219 C 0.51873 0.71653 0.58364 0.0
C220 C 0.49285 0.73416 0.56817 0.0
C221 C 0.4652 0.74013 0.58478 0.0
C222 C 0.5447 0.68907 0.63401 0.0
C223 C 0.49312 0.74404 0.53308 0.0
H224 H 0.61683 0.72216 0.53483 0.0
H225 H 0.55804 0.6297 0.51775 0.0
H226 H 0.56006 0.7748 0.56656 0.0
H227 H 0.57764 0.75549 0.60204 0.0
H228 H 0.60276 0.76785 0.57035 0.0
H229 H 0.50854 0.62217 0.53885 0.0
H230 H 0.50668 0.6426 0.57874 0.0
H231 H 0.48739 0.66188 0.54398 0.0
H232 H 0.48747 0.70431 0.65681 0.0
H233 H 0.44488 0.75225 0.57231 0.0
H234 H 0.56815 0.70123 0.62931 0.0
H235 H 0.54484 0.66173 0.62481 0.0
H236 H 0.54249 0.68939 0.66074 0.0
H237 H 0.51641 0.75662 0.52855 0.0
H238 H 0.47342 0.76177 0.52615 0.0
H239 H 0.49019 0.72034 0.51691 0.0
C240 C 0.78954 0.0189 0.0498 0.0
C241 C 0.82001 0.03505 0.05561 0.0
C242 C 0.78467 0.98404 0.05683 0.0
C243 C 0.81091 0.96502 0.06973 0.0
C244 C 0.84115 0.98176 0.07745 0.0
C245 C 0.84527 0.01655 0.07047 0.0
C246 C 0.75193 0.96715 0.04886 0.0
C247 C 0.86976 0.96241 0.09131 0.0
C248 C 0.80402 0.87705 0.106 0.0
C249 C 0.81285 0.85526 0.08022 0.0
C250 C 0.80128 0.91277 0.10236 0.0
C251 C 0.808 0.92697 0.07243 0.0
C252 C 0.81552 0.9049 0.0459 0.0
C253 C 0.81767 0.86927 0.05008 0.0
C254 C 0.79268 0.93545 0.131 0.0
C255 C 0.82307 0.9191 0.01363 0.0
H256 H 0.76981 0.03299 0.03853 0.0
H257 H 0.86881 0.02884 0.07551 0.0
H258 H 0.75271 0.9493 0.02716 0.0
H259 H 0.74491 0.95154 0.06931 0.0
H260 H 0.73312 0.98644 0.04358 0.0
H261 H 0.891 0.97976 0.09798 0.0
H262 H 0.86359 0.94884 0.11329 0.0
H263 H 0.87655 0.94246 0.07309 0.0
H264 H 0.7999 0.86631 0.12927 0.0
H265 H 0.82441 0.85259 0.03003 0.0
H266 H 0.77398 0.95396 0.12321 0.0
H267 H 0.8142 0.95084 0.14095 0.0
H268 H 0.78379 0.92009 0.15084 0.0
H269 H 0.80364 0.93613 0.00456 0.0
H270 H 0.82611 0.89831 0.99476 0.0
H271 H 0.84561 0.93504 0.01691 0.0
C272 C 0.44663 0.35744 0.6697 0.0
C273 C 0.44384 0.3788 0.64293 0.0
C274 C 0.47052 0.36405 0.69528 0.0
C275 C 0.49223 0.39247 0.69387 0.0
C276 C 0.4895 0.41407 0.66695 0.0
C277 C 0.46535 0.40705 0.64193 0.0
C278 C 0.47257 0.34065 0.72374 0.0
C279 C 0.51229 0.44457 0.6644 0.0
C280 C 0.54055 0.43601 0.76636 0.0
C281 C 0.57155 0.42442 0.7615 0.0
C282 C 0.51388 0.42386 0.74591 0.0
C283 C 0.5184 0.39968 0.71997 0.0
C284 C 0.5492 0.38596 0.71655 0.0
C285 C 0.57538 0.39842 0.73742 0.0
C286 C 0.48132 0.43878 0.75062 0.0
C287 C 0.55504 0.36007 0.68928 0.0
H288 H 0.42999 0.3357 0.67084 0.0
H289 H 0.46351 0.42368 0.62139 0.0
H290 H 0.4962 0.32798 0.72536 0.0
H291 H 0.47088 0.35606 0.74686 0.0
H292 H 0.45325 0.32031 0.72167 0.0
H293 H 0.5068 0.45891 0.64193 0.0
H294 H 0.51105 0.46273 0.68582 0.0
H295 H 0.53738 0.4356 0.66447 0.0
H296 H 0.53728 0.45586 0.7851 0.0
H297 H 0.59918 0.38901 0.73367 0.0
H298 H 0.46242 0.41805 0.74886 0.0
H299 H 0.4752 0.4569 0.73105 0.0
H300 H 0.48079 0.45308 0.77453 0.0
H301 H 0.53659 0.3389 0.6877 0.0
H302 H 0.57922 0.34865 0.69247 0.0
H303 H 0.55315 0.37305 0.66571 0.0
C304 C 0.65285 0.47567 0.41852 0.0
C305 C 0.67747 0.50004 0.41461 0.0
C306 C 0.65129 0.44379 0.40118 0.0
C307 C 0.67476 0.43607 0.37901 0.0
C308 C 0.69998 0.4603 0.37513 0.0
C309 C 0.70116 0.49203 0.39319 0.0
C310 C 0.62418 0.41852 0.40637 0.0
C311 C 0.7252 0.453 0.35147 0.0
C312 C 0.67472 0.34007 0.35898 0.0
C313 C 0.65178 0.33725 0.33225 0.0
C314 C 0.68484 0.37255 0.3729 0.0
C315 C 0.67183 0.4028 0.3596 0.0
C316 C 0.65116 0.40016 0.33071 0.0
C317 C 0.64127 0.36739 0.31743 0.0
C318 C 0.70706 0.37426 0.40362 0.0
C319 C 0.63713 0.43183 0.31549 0.0
H320 H 0.63466 0.48147 0.43531 0.0
H321 H 0.72017 0.51084 0.38998 0.0
H322 H 0.60909 0.41359 0.38324 0.0
H323 H 0.63405 0.39341 0.41378 0.0
H324 H 0.60853 0.4281 0.42532 0.0
H325 H 0.7443 0.47357 0.35277 0.0
H326 H 0.73652 0.4279 0.35637 0.0
H327 H 0.71376 0.4509 0.32625 0.0
H328 H 0.68325 0.31693 0.37041 0.0
H329 H 0.62395 0.36545 0.29643 0.0
H330 H 0.69289 0.38001 0.42489 0.0
H331 H 0.72544 0.39529 0.40292 0.0
H332 H 0.71944 0.34948 0.40747 0.0
H333 H 0.61822 0.44211 0.33058 0.0
H334 H 0.62616 0.42595 0.2904 0.0
H335 H 0.65585 0.4525 0.3146 0.0
C336 C 0.93659 0.23751 0.97191 0.0
C337 C 0.94033 0.21113 0.99408 0.0
C338 C 0.9626 0.24849 0.95464 0.0
C339 C 0.99283 0.23289 0.96013 0.0
C340 C 0.99699 0.20767 0.98389 0.0
C341 C 0.97068 0.19702 0.0004 0.0
C342 C 0.95729 0.27539 0.92945 0.0
C343 C 0.02894 0.19073 0.99094 0.0
C344 C 0.05455 0.21922 0.89882 0.0
C345 C 0.07947 0.24174 0.91179 0.0
C346 C 0.02473 0.21848 0.91244 0.0
C347 C 0.01989 0.24057 0.93985 0.0
C348 C 0.04391 0.26547 0.95115 0.0
C349 C 0.07345 0.26585 0.93689 0.0
C350 C 0.9995 0.19192 0.8993 0.0
C351 C 0.03962 0.28956 0.98021 0.0
H352 H 0.91307 0.24835 0.96694 0.0
H353 H 0.97372 0.17695 0.0179 0.0
H354 H 0.97718 0.29504 0.93168 0.0
H355 H 0.95705 0.26279 0.90473 0.0
H356 H 0.93414 0.28865 0.9316 0.0
H357 H 0.02861 0.17331 0.01169 0.0
H358 H 0.03523 0.17533 0.96907 0.0
H359 H 0.04827 0.21067 0.99663 0.0
H360 H 0.05884 0.20093 0.87904 0.0
H361 H 0.09245 0.28362 0.94683 0.0
H362 H 0.97538 0.2035 0.89723 0.0
H363 H 0.99854 0.17059 0.91642 0.0
H364 H 0.00476 0.18074 0.87503 0.0
H365 H 0.01511 0.30021 0.97892 0.0
H366 H 0.05753 0.31135 0.9821 0.0
H367 H 0.04263 0.27496 0.00282 0.0
C368 C 0.34006 0.43244 0.44643 0.0
C369 C 0.31549 0.42233 0.46585 0.0
C370 C 0.33317 0.44773 0.41664 0.0
C371 C 0.30077 0.45277 0.40548 0.0
C372 C 0.27567 0.44098 0.42393 0.0
C373 C 0.28332 0.42608 0.45408 0.0
C374 C 0.36078 0.45989 0.39781 0.0
C375 C 0.24084 0.44525 0.41249 0.0
C376 C 0.2973 0.52884 0.3513 0.0
C377 C 0.30086 0.51258 0.32072 0.0
C378 C 0.29411 0.50943 0.37892 0.0
C379 C 0.29407 0.47288 0.37582 0.0
C380 C 0.29401 0.45637 0.34447 0.0
C381 C 0.29762 0.47643 0.31724 0.0
C382 C 0.29415 0.52815 0.41186 0.0
C383 C 0.29302 0.41747 0.34002 0.0
H384 H 0.36502 0.42938 0.45492 0.0
H385 H 0.26413 0.41815 0.46872 0.0
H386 H 0.3584 0.44834 0.37261 0.0
H387 H 0.36028 0.4884 0.39604 0.0
H388 H 0.38456 0.45304 0.4094 0.0
H389 H 0.22453 0.4291 0.42609 0.0
H390 H 0.23439 0.4727 0.41617 0.0
H391 H 0.23665 0.43834 0.38606 0.0
H392 H 0.29924 0.55678 0.35419 0.0
H393 H 0.29977 0.46363 0.29361 0.0
H394 H 0.31788 0.5253 0.42543 0.0
H395 H 0.27563 0.51679 0.42649 0.0
H396 H 0.28968 0.55618 0.40974 0.0
H397 H 0.31714 0.40741 0.34708 0.0
H398 H 0.28626 0.40889 0.31429 0.0
H399 H 0.27573 0.4058 0.35588 0.0
C400 C 0.04818 0.82836 0.8949 0.0
C401 C 0.05273 0.85956 0.91348 0.0
C402 C 0.03338 0.82746 0.86317 0.0
C403 C 0.02302 0.85856 0.84938 0.0
C404 C 0.02667 0.89006 0.86823 0.0
C405 C 0.04137 0.89018 0.90013 0.0
C406 C 0.02965 0.79325 0.84406 0.0
C407 C 0.016 0.92375 0.85431 0.0
C408 C 0.01953 0.85606 0.75692 0.0
C409 C 0.98671 0.84951 0.74852 0.0
C410 C 0.03142 0.86056 0.78965 0.0
C411 C 0.01002 0.85804 0.81465 0.0
C412 C 0.97673 0.85216 0.8063 0.0
C413 C 0.96549 0.84781 0.7733 0.0
C414 C 0.06708 0.86693 0.79747 0.0
C415 C 0.95318 0.84895 0.83221 0.0
H416 H 0.05654 0.80449 0.90503 0.0
H417 H 0.04482 0.91443 0.91422 0.0
H418 H 0.00424 0.78874 0.83458 0.0
H419 H 0.04441 0.79373 0.82273 0.0
H420 H 0.03717 0.77116 0.85897 0.0
H421 H 0.01867 0.94564 0.87272 0.0
H422 H 0.03048 0.92985 0.83364 0.0
H423 H 0.99047 0.9215 0.8446 0.0
H424 H 0.03601 0.85735 0.73781 0.0
H425 H 0.9403 0.84156 0.76703 0.0
H426 H 0.07752 0.84452 0.81005 0.0
H427 H 0.07137 0.88999 0.81428 0.0
H428 H 0.08008 0.8709 0.77527 0.0
H429 H 0.95781 0.825 0.8455 0.0
H430 H 0.92783 0.84796 0.82176 0.0
H431 H 0.95638 0.87102 0.8503 0.0
C432 C 0.88673 0.0741 0.91857 0.0
C433 C 0.8557 0.0836 0.92592 0.0
C434 C 0.89171 0.05429 0.89021 0.0
C435 C 0.86505 0.04375 0.86856 0.0
C436 C 0.83383 0.05441 0.87503 0.0
C437 C 0.8295 0.07423 0.90366 0.0
C438 C 0.92542 0.04353 0.88407 0.0
C439 C 0.80485 0.0438 0.85237 0.0
C440 C 0.88467 0.00957 0.78476 0.0
C441 C 0.88485 0.9738 0.789 0.0
C442 C 0.8772 0.0327 0.81012 0.0
C443 C 0.8698 0.0197 0.84037 0.0
C444 C 0.86892 0.98358 0.84443 0.0
C445 C 0.87643 0.96107 0.81869 0.0
C446 C 0.87823 0.07107 0.80489 0.0
C447 C 0.86111 0.96873 0.87636 0.0
H448 H 0.9072 0.08139 0.9354 0.0
H449 H 0.80544 0.08152 0.90899 0.0
H450 H 0.92703 0.01501 0.88507 0.0
H451 H 0.93137 0.05063 0.85935 0.0
H452 H 0.94376 0.05565 0.90222 0.0
H453 H 0.78269 0.05673 0.85934 0.0
H454 H 0.80908 0.05001 0.82695 0.0
H455 H 0.80077 0.01541 0.85271 0.0
H456 H 0.89102 0.01962 0.76185 0.0
H457 H 0.8764 0.93347 0.82216 0.0
H458 H 0.89816 0.08359 0.82081 0.0
H459 H 0.85559 0.08293 0.81177 0.0
H460 H 0.88187 0.07685 0.7792 0.0
H461 H 0.87989 0.97714 0.89575 0.0
H462 H 0.85967 0.94002 0.87495 0.0
H463 H 0.83787 0.97858 0.88383 0.0
C464 C 0.42212 0.27522 0.49425 0.0
C465 C 0.42584 0.31105 0.50077 0.0
C466 C 0.43994 0.25817 0.47107 0.0
C467 C 0.46219 0.27735 0.45425 0.0
C468 C 0.4661 0.31347 0.46073 0.0
C469 C 0.44779 0.32988 0.48378 0.0
C470 C 0.43492 0.21969 0.46454 0.0
C471 C 0.48977 0.33479 0.44342 0.0
C472 C 0.53273 0.23596 0.41616 0.0
C473 C 0.52306 0.2367 0.38282 0.0
C474 C 0.51248 0.24758 0.43985 0.0
C475 C 0.48174 0.25991 0.42995 0.0
C476 C 0.47099 0.25847 0.39649 0.0
C477 C 0.49184 0.24698 0.37329 0.0
C478 C 0.52481 0.2487 0.47531 0.0
C479 C 0.43818 0.27091 0.38504 0.0
H480 H 0.40507 0.26045 0.50707 0.0
H481 H 0.45092 0.35752 0.48868 0.0
H482 H 0.42765 0.21412 0.43835 0.0
H483 H 0.45779 0.2063 0.47011 0.0
H484 H 0.41626 0.20864 0.47928 0.0
H485 H 0.49004 0.36258 0.45138 0.0
H486 H 0.51437 0.32485 0.44805 0.0
H487 H 0.48371 0.33257 0.41671 0.0
H488 H 0.55676 0.22795 0.42378 0.0
H489 H 0.48406 0.24735 0.3476 0.0
H490 H 0.50684 0.23688 0.49032 0.0
H491 H 0.5287 0.27602 0.48425 0.0
H492 H 0.54784 0.23506 0.47924 0.0
H493 H 0.41942 0.2595 0.39937 0.0
H494 H 0.43202 0.26431 0.35876 0.0
H495 H 0.43754 0.29941 0.38893 0.0
C496 C 0.13212 0.01379 0.97542 0.0
C497 C 0.15143 0.98495 0.97122 0.0
C498 C 0.14133 0.04632 0.96466 0.0
C499 C 0.17023 0.04986 0.94889 0.0
C500 C 0.18874 0.02035 0.9429 0.0
C501 C 0.17927 0.98838 0.95437 0.0
C502 C 0.12109 0.0772 0.97172 0.0
C503 C 0.21938 0.02279 0.92565 0.0
C504 C 0.19121 0.12943 0.9026 0.0
C505 C 0.21406 0.14635 0.92477 0.0
C506 C 0.17563 0.09862 0.91051 0.0
C507 C 0.18298 0.08468 0.94138 0.0
C508 C 0.20497 0.10261 0.96434 0.0
C509 C 0.22045 0.133 0.95563 0.0
C510 C 0.15266 0.08008 0.88522 0.0
C511 C 0.21316 0.08897 0.9977 0.0
H512 H 0.11062 0.01132 0.9885 0.0
H513 H 0.19408 0.96609 0.95065 0.0
H514 H 0.13432 0.09474 0.99034 0.0
H515 H 0.11644 0.09207 0.94948 0.0
H516 H 0.09768 0.0696 0.98092 0.0
H517 H 0.22917 0.99695 0.91996 0.0
H518 H 0.21514 0.03639 0.90259 0.0
H519 H 0.23786 0.03807 0.94123 0.0
H520 H 0.1867 0.13926 0.87847 0.0
H521 H 0.23803 0.14611 0.97287 0.0
H522 H 0.13005 0.0726 0.896 0.0
H523 H 0.16365 0.05593 0.87639 0.0
H524 H 0.14669 0.09616 0.86398 0.0
H525 H 0.19087 0.0831 0.00977 0.0
H526 H 0.22836 0.10758 0.01371 0.0
H527 H 0.2263 0.06449 0.99527 0.0
C528 C 0.54996 0.60315 0.38532 0.0
C529 C 0.57649 0.62574 0.38361 0.0
C530 C 0.52373 0.60299 0.36201 0.0
C531 C 0.5241 0.6256 0.33588 0.0
C532 C 0.55101 0.64807 0.33357 0.0
C533 C 0.57681 0.64813 0.35767 0.0
C534 C 0.49537 0.57886 0.36567 0.0
C535 C 0.5525 0.67206 0.30573 0.0
C536 C 0.46354 0.59547 0.26691 0.0
C537 C 0.43658 0.61457 0.27425 0.0
C538 C 0.4932 0.60088 0.28509 0.0
C539 C 0.49582 0.6256 0.31154 0.0
C540 C 0.46939 0.64674 0.31747 0.0
C541 C 0.44015 0.64114 0.29859 0.0
C542 C 0.52098 0.5783 0.27751 0.0
C543 C 0.47107 0.67326 0.34553 0.0
H544 H 0.54931 0.58595 0.40538 0.0
H545 H 0.59729 0.66552 0.35607 0.0
H546 H 0.47319 0.59394 0.36743 0.0
H547 H 0.4915 0.561 0.34389 0.0
H548 H 0.49872 0.5632 0.38761 0.0
H549 H 0.57567 0.68692 0.30672 0.0
H550 H 0.54928 0.65704 0.28212 0.0
H551 H 0.5326 0.69057 0.30623 0.0
H552 H 0.46113 0.57516 0.24789 0.0
H553 H 0.41951 0.6561 0.30442 0.0
H554 H 0.52415 0.55859 0.29621 0.0
H555 H 0.54369 0.59388 0.27825 0.0
H556 H 0.51696 0.5647 0.2532 0.0
H557 H 0.47135 0.65982 0.36884 0.0
H558 H 0.45023 0.69066 0.34421 0.0
H559 H 0.49353 0.6892 0.34609 0.0
C560 C 0.35133 0.51612 0.59114 0.0
C561 C 0.3325 0.48906 0.60201 0.0
C562 C 0.34709 0.55055 0.60167 0.0
C563 C 0.32393 0.55812 0.62422 0.0
C564 C 0.30557 0.53083 0.63616 0.0
C565 C 0.30978 0.49665 0.62459 0.0
C566 C 0.36668 0.57892 0.5878 0.0
C567 C 0.28117 0.5378 0.66079 0.0
C568 C 0.3317 0.64663 0.66841 0.0
C569 C 0.30807 0.665 0.65093 0.0
C570 C 0.33667 0.61157 0.6605 0.0
C571 C 0.31799 0.59477 0.63407 0.0
C572 C 0.29414 0.61332 0.61632 0.0
C573 C 0.28918 0.64807 0.62526 0.0
C574 C 0.3618 0.59247 0.68047 0.0
C575 C 0.27421 0.59663 0.58752 0.0
H576 H 0.36875 0.51055 0.57347 0.0
H577 H 0.2953 0.47585 0.63325 0.0
H578 H 0.35043 0.5966 0.57435 0.0
H579 H 0.3801 0.59454 0.60776 0.0
H580 H 0.38414 0.56864 0.57095 0.0
H581 H 0.27061 0.51358 0.66947 0.0
H582 H 0.29249 0.5532 0.6821 0.0
H583 H 0.26142 0.55327 0.6498 0.0
H584 H 0.34583 0.65947 0.68873 0.0
H585 H 0.27091 0.66226 0.6117 0.0
H586 H 0.38071 0.58338 0.6648 0.0
H587 H 0.35072 0.56923 0.69042 0.0
H588 H 0.37339 0.60886 0.70104 0.0
H589 H 0.29019 0.58729 0.56881 0.0
H590 H 0.25683 0.61471 0.57614 0.0
H591 H 0.26066 0.57381 0.59524 0.0
C592 C 0.02407 0.78008 0.04148 0.0
C593 C 0.03449 0.81348 0.05263 0.0
C594 C 0.99847 0.76317 0.05489 0.0
C595 C 0.98322 0.77967 0.08071 0.0
C596 C 0.99386 0.81321 0.0925 0.0
C597 C 0.01915 0.82996 0.078 0.0
C598 C 0.98748 0.72774 0.04105 0.0
C599 C 0.97864 0.83125 0.12047 0.0
C600 C 0.89941 0.74344 0.09055 0.0
C601 C 0.90585 0.71784 0.11305 0.0
C602 C 0.92413 0.76518 0.08109 0.0
C603 C 0.95597 0.76146 0.09479 0.0
C604 C 0.96222 0.73695 0.11892 0.0
C605 C 0.93715 0.71506 0.1274 0.0
C606 C 0.91652 0.79044 0.0548 0.0
C607 C 0.99568 0.73264 0.13461 0.0
H608 H 0.03551 0.76732 0.0216 0.0
H609 H 0.02719 0.85572 0.08678 0.0
H610 H 0.99011 0.70855 0.06027 0.0
H611 H 0.96163 0.72799 0.03249 0.0
H612 H 0.00135 0.71894 0.02034 0.0
H613 H 0.99031 0.85682 0.12743 0.0
H614 H 0.95274 0.83506 0.11383 0.0
H615 H 0.98024 0.81492 0.14202 0.0
H616 H 0.87541 0.74509 0.0788 0.0
H617 H 0.94213 0.6953 0.14486 0.0
H618 H 0.92778 0.78191 0.03231 0.0
H619 H 0.92668 0.81649 0.06233 0.0
H620 H 0.89024 0.79251 0.04887 0.0
H621 H 0.01095 0.72041 0.11665 0.0
H622 H 0.99569 0.71624 0.15612 0.0
H623 H 0.00688 0.7582 0.14238 0.0
C624 C 0.7247 0.56497 0.57689 0.0
C625 C 0.69495 0.55815 0.55928 0.0
C626 C 0.72963 0.55635 0.6097 0.0
C627 C 0.70425 0.54044 0.62508 0.0
C628 C 0.67462 0.53238 0.60706 0.0
C629 C 0.67033 0.54138 0.57449 0.0
C630 C 0.76153 0.56534 0.62817 0.0
C631 C 0.647 0.51516 0.62248 0.0
C632 C 0.71304 0.49234 0.70328 0.0
C633 C 0.69979 0.51584 0.72514 0.0
C634 C 0.71697 0.5009 0.67099 0.0
C635 C 0.70753 0.53374 0.66044 0.0
C636 C 0.69671 0.55854 0.68312 0.0
C637 C 0.69293 0.54927 0.71519 0.0
C638 C 0.72882 0.47384 0.64758 0.0
C639 C 0.68672 0.59399 0.67293 0.0
H640 H 0.74385 0.57798 0.56537 0.0
H641 H 0.64736 0.53566 0.56104 0.0
H642 H 0.75823 0.58594 0.6471 0.0
H643 H 0.77095 0.54255 0.64089 0.0
H644 H 0.77975 0.57458 0.61196 0.0
H645 H 0.62609 0.50916 0.60467 0.0
H646 H 0.65489 0.49076 0.63342 0.0
H647 H 0.63896 0.53231 0.64241 0.0
H648 H 0.71862 0.46651 0.7108 0.0
H649 H 0.68307 0.56777 0.73202 0.0
H650 H 0.74661 0.48528 0.63214 0.0
H651 H 0.70828 0.46345 0.63111 0.0
H652 H 0.73998 0.45198 0.6605 0.0
H653 H 0.70505 0.6058 0.65834 0.0
H654 H 0.68305 0.61169 0.69421 0.0
H655 H 0.66385 0.59166 0.65732 0.0
C656 C 0.93039 0.14108 0.13857 0.0
C657 C 0.91169 0.16878 0.12806 0.0
C658 C 0.95277 0.14509 0.16562 0.0
C659 C 0.95636 0.17749 0.1829 0.0
C660 C 0.93586 0.20475 0.17407 0.0
C661 C 0.91384 0.20014 0.14662 0.0
C662 C 0.97411 0.11527 0.17426 0.0
C663 C 0.93849 0.23941 0.19237 0.0
C664 C 0.0103 0.17341 0.26085 0.0
C665 C 0.04039 0.18173 0.24967 0.0
C666 C 0.98208 0.17446 0.24007 0.0
C667 C 0.98417 0.18361 0.20735 0.0
C668 C 0.01414 0.19449 0.19674 0.0
C669 C 0.04182 0.19366 0.2181 0.0
C670 C 0.95043 0.16356 0.25251 0.0
C671 C 0.01746 0.20445 0.16202 0.0
H672 H 0.92872 0.11659 0.12474 0.0
H673 H 0.89929 0.22163 0.13898 0.0
H674 H 0.99927 0.12187 0.16931 0.0
H675 H 0.97395 0.1104 0.20059 0.0
H676 H 0.96656 0.09104 0.16008 0.0
H677 H 0.91729 0.2555 0.18644 0.0
H678 H 0.94095 0.23612 0.21908 0.0
H679 H 0.96032 0.25361 0.18584 0.0
H680 H 0.00892 0.16453 0.28534 0.0
H681 H 0.06489 0.2005 0.20932 0.0
H682 H 0.94369 0.13701 0.24285 0.0
H683 H 0.93099 0.18087 0.24396 0.0
H684 H 0.95175 0.16363 0.27956 0.0
H685 H 0.01281 0.18134 0.14533 0.0
H686 H 0.04181 0.21516 0.15846 0.0
H687 H 0.99945 0.22391 0.15485 0.0
C688 C 0.22352 0.79691 0.08634 0.0
C689 C 0.19366 0.78659 0.07048 0.0
C690 C 0.24024 0.77524 0.10783 0.0
C691 C 0.22675 0.74247 0.11382 0.0
C692 C 0.19658 0.73192 0.09811 0.0
C693 C 0.18043 0.75405 0.07658 0.0
C694 C 0.27243 0.78735 0.12402 0.0
C695 C 0.18135 0.69723 0.10403 0.0
C696 C 0.28246 0.67325 0.14605 0.0
C697 C 0.27777 0.67509 0.17947 0.0
C698 C 0.26606 0.69507 0.12442 0.0
C699 C 0.24432 0.71919 0.13647 0.0
C700 C 0.2395 0.72121 0.17017 0.0
C701 C 0.25634 0.69921 0.19127 0.0
C702 C 0.272 0.69231 0.08867 0.0
C703 C 0.21642 0.74652 0.18391 0.0
H704 H 0.23406 0.82192 0.08182 0.0
H705 H 0.15737 0.74581 0.06458 0.0
H706 H 0.27167 0.78779 0.15091 0.0
H707 H 0.29127 0.76902 0.11755 0.0
H708 H 0.2796 0.81357 0.11679 0.0
H709 H 0.1576 0.69303 0.09019 0.0
H710 H 0.19741 0.6762 0.09687 0.0
H711 H 0.17811 0.69509 0.13038 0.0
H712 H 0.29898 0.65473 0.13672 0.0
H713 H 0.2525 0.70075 0.21704 0.0
H714 H 0.2809 0.71756 0.0807 0.0
H715 H 0.24915 0.68579 0.07396 0.0
H716 H 0.2898 0.67234 0.08324 0.0
H717 H 0.2238 0.77332 0.17875 0.0
H718 H 0.21526 0.74473 0.21066 0.0
H719 H 0.19194 0.74168 0.17193 0.0
C720 C 0.78517 0.69766 0.50632 0.0
C721 C 0.7524 0.70141 0.51055 0.0
C722 C 0.80862 0.7174 0.52531 0.0
C723 C 0.79916 0.74096 0.54984 0.0
C724 C 0.766 0.74546 0.55384 0.0
C725 C 0.74289 0.72585 0.53378 0.0
C726 C 0.84363 0.71233 0.51962 0.0
C727 C 0.75504 0.76984 0.5801 0.0
C728 C 0.86732 0.75539 0.61513 0.0
C729 C 0.88184 0.78586 0.60538 0.0
C730 C 0.83857 0.74209 0.59901 0.0
C731 C 0.82446 0.75924 0.57199 0.0
C732 C 0.83791 0.79119 0.56339 0.0
C733 C 0.86631 0.80431 0.58044 0.0
C734 C 0.82458 0.7084 0.60949 0.0
C735 C 0.8239 0.81007 0.53451 0.0
H736 H 0.79251 0.67902 0.48808 0.0
H737 H 0.71752 0.72858 0.53717 0.0
H738 H 0.85567 0.73759 0.51611 0.0
H739 H 0.85607 0.70102 0.54128 0.0
H740 H 0.84676 0.69495 0.49798 0.0
H741 H 0.72853 0.77272 0.57816 0.0
H742 H 0.76237 0.75994 0.60437 0.0
H743 H 0.76673 0.79572 0.57892 0.0
H744 H 0.87901 0.74126 0.63468 0.0
H745 H 0.87743 0.82789 0.57279 0.0
H746 H 0.82924 0.68738 0.59143 0.0
H747 H 0.79813 0.70998 0.61044 0.0
H748 H 0.83523 0.70129 0.63376 0.0
H749 H 0.82924 0.79577 0.51169 0.0
H750 H 0.83406 0.83679 0.53401 0.0
H751 H 0.79738 0.8113 0.5347 0.0
C752 C 0.72928 0.16068 0.09049 0.0
C753 C 0.7559 0.1836 0.09095 0.0
C754 C 0.7059 0.16486 0.11304 0.0
C755 C 0.70911 0.19271 0.13649 0.0
C756 C 0.73585 0.21594 0.13712 0.0
C757 C 0.75896 0.21105 0.11441 0.0
C758 C 0.67778 0.13948 0.11181 0.0
C759 C 0.73997 0.24607 0.16171 0.0
C760 C 0.63611 0.22586 0.17654 0.0
C761 C 0.6404 0.21226 0.20756 0.0
C762 C 0.65787 0.21897 0.15284 0.0
C763 C 0.68444 0.19784 0.16033 0.0
C764 C 0.68825 0.18297 0.19116 0.0
C765 C 0.6662 0.19043 0.21446 0.0
C766 C 0.65305 0.23529 0.12021 0.0
C767 C 0.71618 0.16009 0.19989 0.0
H768 H 0.72674 0.13928 0.07259 0.0
H769 H 0.77936 0.22895 0.11496 0.0
H770 H 0.67703 0.12702 0.13553 0.0
H771 H 0.65491 0.15327 0.10759 0.0
H772 H 0.67899 0.11898 0.09226 0.0
H773 H 0.76213 0.26177 0.15893 0.0
H774 H 0.71895 0.26307 0.15905 0.0
H775 H 0.74104 0.23654 0.1868 0.0
H776 H 0.61623 0.24275 0.17102 0.0
H777 H 0.66962 0.17973 0.23834 0.0
H778 H 0.65292 0.21521 0.10018 0.0
H779 H 0.67335 0.25359 0.11715 0.0
H780 H 0.63024 0.24956 0.11761 0.0
H781 H 0.7173 0.13877 0.18119 0.0
H782 H 0.71453 0.14875 0.22408 0.0
H783 H 0.73906 0.17532 0.20032 0.0
C784 C 0.32339 0.33771 0.6921 0.0
C785 C 0.29979 0.33823 0.66613 0.0
C786 C 0.31581 0.32735 0.72282 0.0
C787 C 0.28391 0.31646 0.72748 0.0
C788 C 0.25956 0.31871 0.70179 0.0
C789 C 0.26778 0.32993 0.67132 0.0
C790 C 0.34242 0.32609 0.74969 0.0
C791 C 0.22537 0.30708 0.70575 0.0
C792 C 0.28407 0.24895 0.7912 0.0
C793 C 0.2777 0.26879 0.81913 0.0
C794 C 0.28371 0.26368 0.76066 0.0
C795 C 0.27739 0.29929 0.75807 0.0
C796 C 0.26916 0.31901 0.78584 0.0
C797 C 0.26918 0.30343 0.81607 0.0
C798 C 0.29203 0.24155 0.73152 0.0
C799 C 0.26251 0.35708 0.78413 0.0
H800 H 0.34813 0.34442 0.68805 0.0
H801 H 0.24962 0.33013 0.65109 0.0
H802 H 0.33494 0.33875 0.7725 0.0
H803 H 0.34754 0.29876 0.75479 0.0
H804 H 0.365 0.33893 0.74317 0.0
H805 H 0.20855 0.3153 0.6855 0.0
H806 H 0.22412 0.27845 0.70621 0.0
H807 H 0.21719 0.31744 0.72919 0.0
H808 H 0.29025 0.22204 0.79336 0.0
H809 H 0.26419 0.31889 0.83759 0.0
H810 H 0.31616 0.24944 0.72435 0.0
H811 H 0.27454 0.24527 0.7104 0.0
H812 H 0.29232 0.21362 0.73669 0.0
H813 H 0.28536 0.37156 0.78152 0.0
H814 H 0.25181 0.36743 0.80636 0.0
H815 H 0.24604 0.36205 0.76252 0.0
C816 C 0.70801 0.65018 0.33865 0.0
C817 C 0.72843 0.64844 0.36705 0.0
C818 C 0.72051 0.64941 0.30787 0.0
C819 C 0.75423 0.64802 0.30576 0.0
C820 C 0.77496 0.64826 0.3346 0.0
C821 C 0.76175 0.6478 0.36491 0.0
C822 C 0.6976 0.64819 0.27767 0.0
C823 C 0.81106 0.64791 0.33343 0.0
C824 C 0.7889 0.60647 0.23144 0.0
C825 C 0.79647 0.63535 0.21388 0.0
C826 C 0.77412 0.61023 0.26085 0.0
C827 C 0.76783 0.64379 0.2735 0.0
C828 C 0.77561 0.6731 0.25591 0.0
C829 C 0.78938 0.66847 0.22596 0.0
C830 C 0.76536 0.57829 0.27844 0.0
C831 C 0.7702 0.7093 0.26912 0.0
H832 H 0.6822 0.6503 0.34043 0.0
H833 H 0.77747 0.64664 0.38701 0.0
H834 H 0.70411 0.66863 0.26109 0.0
H835 H 0.69942 0.62295 0.26422 0.0
H836 H 0.67223 0.65149 0.2835 0.0
H837 H 0.82378 0.65207 0.358 0.0
H838 H 0.81825 0.62267 0.32286 0.0
H839 H 0.81919 0.66827 0.31749 0.0
H840 H 0.7941 0.58083 0.22191 0.0
H841 H 0.79545 0.69083 0.21243 0.0
H842 H 0.73962 0.57861 0.2836 0.0
H843 H 0.77969 0.57792 0.3022 0.0
H844 H 0.76971 0.55408 0.26415 0.0
H845 H 0.74453 0.71243 0.27366 0.0
H846 H 0.77724 0.72931 0.25225 0.0
H847 H 0.78438 0.71393 0.29285 0.0
C848 C 0.77877 0.22501 0.92297 0.0
C849 C 0.78519 0.23489 0.956 0.0
C850 C 0.76608 0.24861 0.90068 0.0
C851 C 0.75887 0.28241 0.91198 0.0
C852 C 0.76468 0.29215 0.94546 0.0
C853 C 0.77816 0.26843 0.96695 0.0
C854 C 0.76097 0.23764 0.86502 0.0
C855 C 0.75663 0.32768 0.95865 0.0
C856 C 0.75364 0.36027 0.85936 0.0
C857 C 0.7203 0.36382 0.8544 0.0
C858 C 0.76659 0.33237 0.87614 0.0
C859 C 0.74564 0.30809 0.88906 0.0
C860 C 0.71194 0.3108 0.88297 0.0
C861 C 0.69967 0.33845 0.86531 0.0
C862 C 0.80266 0.32984 0.88138 0.0
C863 C 0.68881 0.28588 0.89692 0.0
H864 H 0.7844 0.19913 0.91446 0.0
H865 H 0.78279 0.276 0.99256 0.0
H866 H 0.73541 0.24057 0.8563 0.0
H867 H 0.77555 0.25464 0.85048 0.0
H868 H 0.76768 0.21039 0.86021 0.0
H869 H 0.76117 0.33053 0.98557 0.0
H870 H 0.77123 0.34765 0.9475 0.0
H871 H 0.73096 0.33294 0.95212 0.0
H872 H 0.76964 0.37968 0.85064 0.0
H873 H 0.67387 0.34122 0.86162 0.0
H874 H 0.81016 0.30307 0.8757 0.0
H875 H 0.81037 0.33619 0.90734 0.0
H876 H 0.81546 0.34781 0.86611 0.0
H877 H 0.69529 0.25878 0.89125 0.0
H878 H 0.66353 0.28958 0.88747 0.0
H879 H 0.69035 0.28966 0.92387 0.0
C880 C 0.2926 0.24502 0.50929 0.0
C881 C 0.27747 0.27432 0.52159 0.0
C882 C 0.27535 0.21996 0.48894 0.0
C883 C 0.24205 0.22399 0.48112 0.0
C884 C 0.22649 0.25307 0.49408 0.0
C885 C 0.24442 0.278 0.51393 0.0
C886 C 0.29289 0.1896 0.47521 0.0
C887 C 0.19092 0.25805 0.4867 0.0
C888 C 0.20034 0.18119 0.40415 0.0
C889 C 0.18471 0.15263 0.41641 0.0
C890 C 0.21991 0.20398 0.4248 0.0
C891 C 0.22354 0.1984 0.45864 0.0
C892 C 0.20835 0.16922 0.47107 0.0
C893 C 0.18931 0.14652 0.44976 0.0
C894 C 0.23614 0.23448 0.4105 0.0
C895 C 0.21135 0.1626 0.50704 0.0
H896 H 0.31819 0.24209 0.51486 0.0
H897 H 0.23249 0.30042 0.52348 0.0
H898 H 0.28147 0.16499 0.48183 0.0
H899 H 0.29123 0.18988 0.44819 0.0
H900 H 0.3187 0.18988 0.48414 0.0
H901 H 0.18217 0.2812 0.49989 0.0
H902 H 0.18567 0.26091 0.46015 0.0
H903 H 0.17711 0.23497 0.4935 0.0
H904 H 0.19705 0.18596 0.37837 0.0
H905 H 0.17719 0.12458 0.45944 0.0
H906 H 0.26232 0.23496 0.41767 0.0
H907 H 0.22638 0.2589 0.42028 0.0
H908 H 0.23261 0.23389 0.38347 0.0
H909 H 0.23705 0.16167 0.51597 0.0
H910 H 0.19913 0.13801 0.51265 0.0
H911 H 0.20064 0.18416 0.52081 0.0
C912 C 0.21346 0.85838 0.91004 0.0
C913 C 0.1979 0.83144 0.92492 0.0
C914 C 0.22525 0.8531 0.87918 0.0
C915 C 0.2218 0.81999 0.86316 0.0
C916 C 0.2076 0.79232 0.87884 0.0
C917 C 0.19561 0.79844 0.90941 0.0
C918 C 0.23996 0.88331 0.86307 0.0
C919 C 0.20395 0.7565 0.86279 0.0
C920 C 0.21603 0.81102 0.77082 0.0
C921 C 0.24699 0.80034 0.76463 0.0
C922 C 0.20783 0.81844 0.80275 0.0
C923 C 0.23104 0.81463 0.82917 0.0
C924 C 0.26244 0.80422 0.82309 0.0
C925 C 0.27011 0.7974 0.79084 0.0
C926 C 0.17416 0.82986 0.80824 0.0
C927 C 0.28767 0.79948 0.85067 0.0
H928 H 0.21509 0.884 0.92181 0.0
H929 H 0.18384 0.77744 0.92092 0.0
H930 H 0.26376 0.8765 0.85463 0.0
H931 H 0.22436 0.88971 0.84124 0.0
H932 H 0.243 0.90671 0.87968 0.0
H933 H 0.19489 0.73722 0.87937 0.0
H934 H 0.18689 0.75694 0.84083 0.0
H935 H 0.22736 0.74785 0.85463 0.0
H936 H 0.19812 0.81358 0.75067 0.0
H937 H 0.29407 0.7891 0.78622 0.0
H938 H 0.17509 0.85459 0.82294 0.0
H939 H 0.16179 0.81036 0.82222 0.0
H940 H 0.15953 0.83338 0.78501 0.0
H941 H 0.29086 0.82353 0.86629 0.0
H942 H 0.3113 0.79254 0.84178 0.0
H943 H 0.27968 0.77874 0.86627 0.0
loop_
_geom_bond_atom_site_label_1
_geom_bond_atom_site_label_2
_geom_bond_distance
_geom_bond_site_symmetry_2
_ccdc_geom_bond_type
Sc0 O3 2.028 . S
Sc0 O10 2.105 1_554 S
Sc0 O13 2.105 . S
Sc0 O16 2.105 . S
Sc0 O19 2.105 1_554 S
Sc1 O3 2.018 1_556 S
Sc1 O11 2.105 . S
Sc1 O15 2.105 1_556 S
Sc1 O17 2.105 1_556 S
Sc1 O21 2.105 . S
Sc2 O3 2.030 . S
Sc2 O12 2.105 1_554 S
Sc2 O14 2.105 . S
Sc2 O18 2.105 . S
Sc2 O20 2.105 1_554 S
O3 Sc0 2.028 . S
O3 Sc1 2.018 1_554 S
O3 Sc2 2.030 . S
C4 O10 1.268 . S
C4 O20 1.268 . S
C5 O11 1.268 . S
C5 O19 1.268 . S
C6 O12 1.268 . S
C6 O21 1.268 . S
C7 O13 1.268 . S
C7 O17 1.268 . S
C8 O14 1.268 . S
C8 O16 1.268 . S
C9 O15 1.268 . S
C9 O18 1.268 . S
O10 Sc0 2.105 1_556 S
O10 C4 1.268 . S
O11 Sc1 2.105 . S
O11 C5 1.268 . S
O12 Sc2 2.105 1_556 S
O12 C6 1.268 . S
O13 Sc0 2.105 . S
O13 C7 1.268 . S
O14 Sc2 2.105 . S
O14 C8 1.268 . S
O15 Sc1 2.105 1_554 S
O15 C9 1.268 . S
O16 Sc0 2.105 . S
O16 C8 1.268 . S
O17 Sc1 2.105 1_554 S
O17 C7 1.268 . S
O18 Sc2 2.105 . S
O18 C9 1.268 . S
O19 Sc0 2.105 1_556 S
O19 C5 1.268 . S
O20 Sc2 2.105 1_556 S
O20 C4 1.268 . S
O21 Sc1 2.105 . S
O21 C6 1.268 . S
Sc22 O25 2.025 . S
Sc22 O32 2.105 . S
Sc22 O35 2.105 . S
Sc22 O38 2.105 . S
Sc22 O41 2.105 . S
Sc23 O25 2.025 . S
Sc23 O33 2.105 . S
Sc23 O37 2.105 . S
Sc23 O39 2.105 . S
Sc23 O43 2.105 . S
Sc24 O25 2.025 . S
Sc24 O34 2.105 . S
Sc24 O36 2.105 . S
Sc24 O40 2.105 . S
Sc24 O42 2.105 . S
O25 Sc22 2.025 . S
O25 Sc23 2.025 . S
O25 Sc24 2.025 . S
C26 O32 1.268 . S
C26 O42 1.268 . S
C27 O33 1.268 . S
C27 O41 1.268 . S
C28 O34 1.268 . S
C28 O43 1.268 . S
C29 O35 1.268 . S
C29 O39 1.268 . S
C30 O36 1.268 . S
C30 O38 1.268 . S
C31 O37 1.268 . S
C31 O40 1.268 . S
O32 Sc22 2.105 . S
O32 C26 1.268 . S
O33 Sc23 2.105 . S
O33 C27 1.268 . S
O34 Sc24 2.105 . S
O34 C28 1.268 . S
O35 Sc22 2.105 . S
O35 C29 1.268 . S
O36 Sc24 2.105 . S
O36 C30 1.268 . S
O37 Sc23 2.105 . S
O37 C31 1.268 . S
O38 Sc22 2.105 . S
O38 C30 1.268 . S
O39 Sc23 2.105 . S
O39 C29 1.268 . S
O40 Sc24 2.105 . S
O40 C31 1.268 . S
O41 Sc22 2.105 . S
O41 C27 1.268 . S
O42 Sc24 2.105 . S
O42 C26 1.268 . S
O43 Sc23 2.105 . S
O43 C28 1.268 . S
Sc44 O47 2.025 . S
Sc44 O54 2.105 . S
Sc44 O57 2.105 . S
Sc44 O60 2.105 . S
Sc44 O63 2.105 . S
Sc45 O47 2.025 . S
Sc45 O55 2.105 1_554 S
Sc45 O59 2.105 . S
Sc45 O61 2.105 . S
Sc45 O65 2.105 1_554 S
Sc46 O47 2.025 . S
Sc46 O56 2.105 1_554 S
Sc46 O58 2.105 . S
Sc46 O62 2.105 . S
Sc46 O64 2.105 1_554 S
O47 Sc44 2.025 . S
O47 Sc45 2.025 . S
O47 Sc46 2.025 . S
C48 O54 1.268 1_556 S
C48 O64 1.268 . S
C49 O55 1.268 . S
C49 O63 1.268 1_556 S
C50 O56 1.268 . S
C50 O65 1.268 . S
C51 O57 1.268 . S
C51 O61 1.268 . S
C52 O58 1.268 . S
C52 O60 1.268 . S
C53 O59 1.268 . S
C53 O62 1.268 . S
O54 Sc44 2.105 . S
O54 C48 1.268 1_554 S
O55 Sc45 2.105 1_556 S
O55 C49 1.268 . S
O56 Sc46 2.105 1_556 S
O56 C50 1.268 . S
O57 Sc44 2.105 . S
O57 C51 1.268 . S
O58 Sc46 2.105 . S
O58 C52 1.268 . S
O59 Sc45 2.105 . S
O59 C53 1.268 . S
O60 Sc44 2.105 . S
O60 C52 1.268 . S
O61 Sc45 2.105 . S
O61 C51 1.268 . S
O62 Sc46 2.105 . S
O62 C53 1.268 . S
O63 Sc44 2.105 . S
O63 C49 1.268 1_554 S
O64 Sc46 2.105 1_556 S
O64 C48 1.268 . S
O65 Sc45 2.105 1_556 S
O65 C50 1.268 . S
Sc66 O69 2.025 . S
Sc66 O76 2.105 . S
Sc66 O79 2.105 . S
Sc66 O82 2.105 . S
Sc66 O85 2.105 . S
Sc67 O69 2.025 . S
Sc67 O77 2.105 . S
Sc67 O81 2.105 . S
Sc67 O83 2.105 . S
Sc67 O87 2.105 . S
Sc68 O69 2.025 . S
Sc68 O78 2.105 . S
Sc68 O80 2.105 . S
Sc68 O84 2.105 . S
Sc68 O86 2.105 . S
O69 Sc66 2.025 . S
O69 Sc67 2.025 . S
O69 Sc68 2.025 . S
C70 O76 1.268 . S
C70 O86 1.268 . S
C71 O77 1.268 . S
C71 O85 1.268 . S
C72 O78 1.268 . S
C72 O87 1.268 . S
C73 O79 1.268 . S
C73 O83 1.268 . S
C74 O80 1.268 . S
C74 O82 1.268 . S
C75 O81 1.268 . S
C75 O84 1.268 . S
O76 Sc66 2.105 . S
O76 C70 1.268 . S
O77 Sc67 2.105 . S
O77 C71 1.268 . S
O78 Sc68 2.105 . S
O78 C72 1.268 . S
O79 Sc66 2.105 . S
O79 C73 1.268 . S
O80 Sc68 2.105 . S
O80 C74 1.268 . S
O81 Sc67 2.105 . S
O81 C75 1.268 . S
O82 Sc66 2.105 . S
O82 C74 1.268 . S
O83 Sc67 2.105 . S
O83 C73 1.268 . S
O84 Sc68 2.105 . S
O84 C75 1.268 . S
O85 Sc66 2.105 . S
O85 C71 1.268 . S
O86 Sc68 2.105 . S
O86 C70 1.268 . S
O87 Sc67 2.105 . S
O87 C72 1.268 . S
O88 Cd89 2.300 . S
O88 C95 1.275 . S
Cd89 O88 2.300 . S
Cd89 O97 2.381 . S
Cd89 O98 2.378 . S
O90 Cd91 2.385 . S
O90 C95 1.255 . S
Cd91 O90 2.385 . S
Cd91 O92 2.317 . S
O92 Cd91 2.317 . S
O92 C93 1.232 . S
C93 O92 1.232 . S
C93 O94 1.218 . S
O94 C93 1.218 . S
C95 O88 1.275 . S
C95 O90 1.255 . S
C96 O97 1.258 . S
C96 O98 1.256 . S
O97 Cd89 2.381 . S
O97 C96 1.258 . S
O98 Cd89 2.378 . S
O98 C96 1.256 . S
O99 Cd100 2.300 . S
O99 C106 1.275 . S
Cd100 O99 2.300 . S
Cd100 O108 2.381 . S
Cd100 O109 2.378 . S
O101 Cd102 2.385 . S
O101 C106 1.255 . S
Cd102 O101 2.385 . S
Cd102 O103 2.317 . S
O103 Cd102 2.317 . S
O103 C104 1.232 . S
C104 O103 1.232 . S
C104 O105 1.218 . S
O105 C104 1.218 . S
C106 O99 1.275 . S
C106 O101 1.255 . S
C107 O108 1.258 . S
C107 O109 1.256 . S
O108 Cd100 2.381 . S
O108 C107 1.258 . S
O109 Cd100 2.378 . S
O109 C107 1.256 . S
O110 Cd111 2.300 . S
O110 C117 1.275 . S
Cd111 O110 2.300 . S
Cd111 O119 2.381 . S
Cd111 O120 2.378 . S
O112 Cd113 2.385 . S
O112 C117 1.255 . S
Cd113 O112 2.385 . S
Cd113 O114 2.317 . S
O114 Cd113 2.317 . S
O114 C115 1.232 . S
C115 O114 1.232 . S
C115 O116 1.218 . S
O116 C115 1.218 . S
C117 O110 1.275 . S
C117 O112 1.255 . S
C118 O119 1.258 . S
C118 O120 1.256 . S
O119 Cd111 2.381 . S
O119 C118 1.258 . S
O120 Cd111 2.378 . S
O120 C118 1.256 . S
O121 Cd122 2.300 . S
O121 C128 1.275 . S
Cd122 O121 2.300 . S
Cd122 O130 2.381 . S
Cd122 O131 2.378 . S
O123 Cd124 2.385 . S
O123 C128 1.255 . S
Cd124 O123 2.385 . S
Cd124 O125 2.317 . S
O125 Cd124 2.317 . S
O125 C126 1.232 . S
C126 O125 1.232 . S
C126 O127 1.218 . S
O127 C126 1.218 . S
C128 O121 1.275 . S
C128 O123 1.255 . S
C129 O130 1.258 . S
C129 O131 1.256 . S
O130 Cd122 2.381 . S
O130 C129 1.258 . S
O131 Cd122 2.378 . S
O131 C129 1.256 . S
O132 Cd133 2.300 . S
O132 C139 1.275 . S
Cd133 O132 2.300 . S
Cd133 O141 2.381 . S
Cd133 O142 2.378 . S
O134 Cd135 2.385 . S
O134 C139 1.255 . S
Cd135 O134 2.385 . S
Cd135 O136 2.317 . S
O136 Cd135 2.317 . S
O136 C137 1.232 . S
C137 O136 1.232 . S
C137 O138 1.218 . S
O138 C137 1.218 . S
C139 O132 1.275 . S
C139 O134 1.255 . S
C140 O141 1.258 . S
C140 O142 1.256 . S
O141 Cd133 2.381 . S
O141 C140 1.258 . S
O142 Cd133 2.378 . S
O142 C140 1.256 . S
O143 Cd144 2.300 . S
O143 C150 1.275 . S
Cd144 O143 2.300 . S
Cd144 O152 2.381 . S
Cd144 O153 2.378 . S
O145 Cd146 2.385 . S
O145 C150 1.255 . S
Cd146 O145 2.385 . S
Cd146 O147 2.317 . S
O147 Cd146 2.317 . S
O147 C148 1.232 . S
C148 O147 1.232 . S
C148 O149 1.218 . S
O149 C148 1.218 . S
C150 O143 1.275 . S
C150 O145 1.255 . S
C151 O152 1.258 . S
C151 O153 1.256 . S
O152 Cd144 2.381 . S
O152 C151 1.258 . S
O153 Cd144 2.378 . S
O153 C151 1.256 . S
O154 Cd155 2.300 . S
O154 C161 1.275 . S
Cd155 O154 2.300 . S
Cd155 O163 2.381 . S
Cd155 O164 2.378 . S
O156 Cd157 2.385 . S
O156 C161 1.255 . S
Cd157 O156 2.385 . S
Cd157 O158 2.317 . S
O158 Cd157 2.317 . S
O158 C159 1.232 . S
C159 O158 1.232 . S
C159 O160 1.218 . S
O160 C159 1.218 . S
C161 O154 1.275 . S
C161 O156 1.255 . S
C162 O163 1.258 . S
C162 O164 1.256 . S
O163 Cd155 2.381 . S
O163 C162 1.258 . S
O164 Cd155 2.378 . S
O164 C162 1.256 . S
O165 Cd166 2.300 . S
O165 C172 1.275 . S
Cd166 O165 2.300 . S
Cd166 O174 2.381 . S
Cd166 O175 2.378 . S
O167 Cd168 2.385 . S
O167 C172 1.255 . S
Cd168 O167 2.385 . S
Cd168 O169 2.317 . S
O169 Cd168 2.317 . S
O169 C170 1.232 . S
C170 O169 1.232 . S
C170 O171 1.218 . S
O171 C170 1.218 . S
C172 O165 1.275 . S
C172 O167 1.255 . S
C173 O174 1.258 . S
C173 O175 1.256 . S
O174 Cd166 2.381 . S
O174 C173 1.258 . S
O175 Cd166 2.378 . S
O175 C173 1.256 . S
C176 C177 1.391 . S
C176 C178 1.394 . S
C176 H192 0.931 . S
C177 C176 1.391 . S
C177 C181 1.376 . S
C178 C176 1.394 . S
C178 C179 1.369 . S
C178 C182 1.531 . S
C179 C178 1.369 . S
C179 C180 1.410 . S
C179 C187 1.503 . S
C180 C179 1.410 . S
C180 C181 1.392 . S
C180 C183 1.511 1_565 S
C181 C177 1.376 . S
C181 C180 1.392 . S
C181 H193 0.929 . S
C182 C178 1.531 . S
C182 H194 0.960 . S
C182 H195 0.962 . S
C182 H196 0.960 . S
C183 C180 1.511 1_545 S
C183 H197 0.961 . S
C183 H198 0.961 . S
C183 H199 0.961 . S
C184 C185 1.370 . S
C184 C186 1.363 . S
C184 H200 0.931 . S
C185 C184 1.370 . S
C185 C189 1.408 . S
C186 C184 1.363 . S
C186 C187 1.370 1_545 S
C186 C190 1.524 1_545 S
C187 C179 1.503 . S
C187 C186 1.370 1_565 S
C187 C188 1.403 . S
C188 C187 1.403 . S
C188 C189 1.404 1_565 S
C188 C191 1.539 . S
C189 C185 1.408 . S
C189 C188 1.404 1_545 S
C189 H201 0.930 . S
C190 C186 1.524 1_565 S
C190 H202 0.956 . S
C190 H203 0.961 1_565 S
C190 H204 0.961 1_565 S
C191 C188 1.539 . S
C191 H205 0.958 . S
C191 H206 0.961 . S
C191 H207 0.960 . S
H192 C176 0.931 . S
H193 C181 0.929 . S
H194 C182 0.960 . S
H195 C182 0.962 . S
H196 C182 0.960 . S
H197 C183 0.961 . S
H198 C183 0.961 . S
H199 C183 0.961 . S
H200 C184 0.931 . S
H201 C189 0.930 . S
H202 C190 0.956 . S
H203 C190 0.961 1_545 S
H204 C190 0.961 1_545 S
H205 C191 0.958 . S
H206 C191 0.961 . S
H207 C191 0.960 . S
C208 C209 1.391 . S
C208 C210 1.394 . S
C208 H224 0.931 . S
C209 C208 1.391 . S
C209 C213 1.376 . S
C210 C208 1.394 . S
C210 C211 1.369 . S
C210 C214 1.531 . S
C211 C210 1.369 . S
C211 C212 1.410 . S
C211 C219 1.503 . S
C212 C211 1.410 . S
C212 C213 1.392 . S
C212 C215 1.511 . S
C213 C209 1.376 . S
C213 C212 1.392 . S
C213 H225 0.929 . S
C214 C210 1.531 . S
C214 H226 0.960 . S
C214 H227 0.962 . S
C214 H228 0.960 . S
C215 C212 1.511 . S
C215 H229 0.961 . S
C215 H230 0.961 . S
C215 H231 0.961 . S
C216 C217 1.370 . S
C216 C218 1.363 . S
C216 H232 0.931 . S
C217 C216 1.370 . S
C217 C221 1.408 . S
C218 C216 1.363 . S
C218 C219 1.370 . S
C218 C222 1.524 . S
C219 C211 1.503 . S
C219 C218 1.370 . S
C219 C220 1.403 . S
C220 C219 1.403 . S
C220 C221 1.404 . S
C220 C223 1.539 . S
C221 C217 1.408 . S
C221 C220 1.404 . S
C221 H233 0.930 . S
C222 C218 1.524 . S
C222 H234 0.956 . S
C222 H235 0.961 . S
C222 H236 0.961 . S
C223 C220 1.539 . S
C223 H237 0.958 . S
C223 H238 0.961 . S
C223 H239 0.960 . S
H224 C208 0.931 . S
H225 C213 0.929 . S
H226 C214 0.960 . S
H227 C214 0.962 . S
H228 C214 0.960 . S
H229 C215 0.961 . S
H230 C215 0.961 . S
H231 C215 0.961 . S
H232 C216 0.931 . S
H233 C221 0.930 . S
H234 C222 0.956 . S
H235 C222 0.961 . S
H236 C222 0.961 . S
H237 C223 0.958 . S
H238 C223 0.961 . S
H239 C223 0.960 . S
C240 C241 1.391 . S
C240 C242 1.394 1_545 S
C240 H256 0.931 . S
C241 C240 1.391 . S
C241 C245 1.376 . S
C242 C240 1.394 1_565 S
C242 C243 1.369 . S
C242 C246 1.531 . S
C243 C242 1.369 . S
C243 C244 1.410 . S
C243 C251 1.503 . S
C244 C243 1.410 . S
C244 C245 1.392 1_565 S
C244 C247 1.511 . S
C245 C241 1.376 . S
C245 C244 1.392 1_545 S
C245 H257 0.929 . S
C246 C242 1.531 . S
C246 H258 0.960 . S
C246 H259 0.962 . S
C246 H260 0.960 . S
C247 C244 1.511 . S
C247 H261 0.961 . S
C247 H262 0.961 . S
C247 H263 0.961 . S
C248 C249 1.370 . S
C248 C250 1.363 . S
C248 H264 0.931 . S
C249 C248 1.370 . S
C249 C253 1.408 . S
C250 C248 1.363 . S
C250 C251 1.370 . S
C250 C254 1.524 . S
C251 C243 1.503 . S
C251 C250 1.370 . S
C251 C252 1.403 . S
C252 C251 1.403 . S
C252 C253 1.404 . S
C252 C255 1.539 . S
C253 C249 1.408 . S
C253 C252 1.404 . S
C253 H265 0.930 . S
C254 C250 1.524 . S
C254 H266 0.956 . S
C254 H267 0.961 . S
C254 H268 0.961 . S
C255 C252 1.539 . S
C255 H269 0.958 . S
C255 H270 0.961 . S
C255 H271 0.960 . S
H256 C240 0.931 . S
H257 C245 0.929 . S
H258 C246 0.960 . S
H259 C246 0.962 . S
H260 C246 0.960 . S
H261 C247 0.961 . S
H262 C247 0.961 . S
H263 C247 0.961 . S
H264 C248 0.931 . S
H265 C253 0.930 . S
H266 C254 0.956 . S
H267 C254 0.961 . S
H268 C254 0.961 . S
H269 C255 0.958 . S
H270 C255 0.961 . S
H271 C255 0.960 . S
C272 C273 1.391 . S
C272 C274 1.394 . S
C272 H288 0.931 . S
C273 C272 1.391 . S
C273 C277 1.376 . S
C274 C272 1.394 . S
C274 C275 1.369 . S
C274 C278 1.531 . S
C275 C274 1.369 . S
C275 C276 1.410 . S
C275 C283 1.503 . S
C276 C275 1.410 . S
C276 C277 1.392 . S
C276 C279 1.511 . S
C277 C273 1.376 . S
C277 C276 1.392 . S
C277 H289 0.929 . S
C278 C274 1.531 . S
C278 H290 0.960 . S
C278 H291 0.962 . S
C278 H292 0.960 . S
C279 C276 1.511 . S
C279 H293 0.961 . S
C279 H294 0.961 . S
C279 H295 0.961 . S
C280 C281 1.370 . S
C280 C282 1.363 . S
C280 H296 0.931 . S
C281 C280 1.370 . S
C281 C285 1.408 . S
C282 C280 1.363 . S
C282 C283 1.370 . S
C282 C286 1.524 . S
C283 C275 1.503 . S
C283 C282 1.370 . S
C283 C284 1.403 . S
C284 C283 1.403 . S
C284 C285 1.404 . S
C284 C287 1.539 . S
C285 C281 1.408 . S
C285 C284 1.404 . S
C285 H297 0.930 . S
C286 C282 1.524 . S
C286 H298 0.956 . S
C286 H299 0.961 . S
C286 H300 0.961 . S
C287 C284 1.539 . S
C287 H301 0.958 . S
C287 H302 0.961 . S
C287 H303 0.960 . S
H288 C272 0.931 . S
H289 C277 0.929 . S
H290 C278 0.960 . S
H291 C278 0.962 . S
H292 C278 0.960 . S
H293 C279 0.961 . S
H294 C279 0.961 . S
H295 C279 0.961 . S
H296 C280 0.931 . S
H297 C285 0.930 . S
H298 C286 0.956 . S
H299 C286 0.961 . S
H300 C286 0.961 . S
H301 C287 0.958 . S
H302 C287 0.961 . S
H303 C287 0.960 . S
C304 C305 1.391 . S
C304 C306 1.394 . S
C304 H320 0.931 . S
C305 C304 1.391 . S
C305 C309 1.376 . S
C306 C304 1.394 . S
C306 C307 1.369 . S
C306 C310 1.531 . S
C307 C306 1.369 . S
C307 C308 1.410 . S
C307 C315 1.503 . S
C308 C307 1.410 . S
C308 C309 1.392 . S
C308 C311 1.511 . S
C309 C305 1.376 . S
C309 C308 1.392 . S
C309 H321 0.929 . S
C310 C306 1.531 . S
C310 H322 0.960 . S
C310 H323 0.962 . S
C310 H324 0.960 . S
C311 C308 1.511 . S
C311 H325 0.961 . S
C311 H326 0.961 . S
C311 H327 0.961 . S
C312 C313 1.370 . S
C312 C314 1.363 . S
C312 H328 0.931 . S
C313 C312 1.370 . S
C313 C317 1.408 . S
C314 C312 1.363 . S
C314 C315 1.370 . S
C314 C318 1.524 . S
C315 C307 1.503 . S
C315 C314 1.370 . S
C315 C316 1.403 . S
C316 C315 1.403 . S
C316 C317 1.404 . S
C316 C319 1.539 . S
C317 C313 1.408 . S
C317 C316 1.404 . S
C317 H329 0.930 . S
C318 C314 1.524 . S
C318 H330 0.956 . S
C318 H331 0.961 . S
C318 H332 0.961 . S
C319 C316 1.539 . S
C319 H333 0.958 . S
C319 H334 0.961 . S
C319 H335 0.960 . S
H320 C304 0.931 . S
H321 C309 0.929 . S
H322 C310 0.960 . S
H323 C310 0.962 . S
H324 C310 0.960 . S
H325 C311 0.961 . S
H326 C311 0.961 . S
H327 C311 0.961 . S
H328 C312 0.931 . S
H329 C317 0.930 . S
H330 C318 0.956 . S
H331 C318 0.961 . S
H332 C318 0.961 . S
H333 C319 0.958 . S
H334 C319 0.961 . S
H335 C319 0.960 . S
C336 C337 1.391 . S
C336 C338 1.394 . S
C336 H352 0.931 . S
C337 C336 1.391 . S
C337 C341 1.376 . S
C338 C336 1.394 . S
C338 C339 1.369 . S
C338 C342 1.531 . S
C339 C338 1.369 . S
C339 C340 1.410 . S
C339 C347 1.503 1_655 S
C340 C339 1.410 . S
C340 C341 1.392 . S
C340 C343 1.511 1_655 S
C341 C337 1.376 . S
C341 C340 1.392 . S
C341 H353 0.929 . S
C342 C338 1.531 . S
C342 H354 0.960 1_655 S
C342 H355 0.962 . S
C342 H356 0.960 . S
C343 C340 1.511 1_455 S
C343 H357 0.961 . S
C343 H358 0.961 . S
C343 H359 0.961 . S
C344 C345 1.370 . S
C344 C346 1.363 . S
C344 H360 0.931 . S
C345 C344 1.370 . S
C345 C349 1.408 . S
C346 C344 1.363 . S
C346 C347 1.370 . S
C346 C350 1.524 . S
C347 C339 1.503 1_455 S
C347 C346 1.370 . S
C347 C348 1.403 . S
C348 C347 1.403 . S
C348 C349 1.404 . S
C348 C351 1.539 1_556 S
C349 C345 1.408 . S
C349 C348 1.404 . S
C349 H361 0.930 . S
C350 C346 1.524 . S
C350 H362 0.956 1_455 S
C350 H363 0.961 1_455 S
C350 H364 0.961 . S
C351 C348 1.539 1_554 S
C351 H365 0.958 . S
C351 H366 0.961 . S
C351 H367 0.960 . S
H352 C336 0.931 . S
H353 C341 0.929 . S
H354 C342 0.960 1_455 S
H355 C342 0.962 . S
H356 C342 0.960 . S
H357 C343 0.961 . S
H358 C343 0.961 . S
H359 C343 0.961 . S
H360 C344 0.931 . S
H361 C349 0.930 . S
H362 C350 0.956 1_655 S
H363 C350 0.961 1_655 S
H364 C350 0.961 . S
H365 C351 0.958 . S
H366 C351 0.961 . S
H367 C351 0.960 . S
C368 C369 1.391 . S
C368 C370 1.394 . S
C368 H384 0.931 . S
C369 C368 1.391 . S
C369 C373 1.376 . S
C370 C368 1.394 . S
C370 C371 1.369 . S
C370 C374 1.531 . S
C371 C370 1.369 . S
C371 C372 1.410 . S
C371 C379 1.503 . S
C372 C371 1.410 . S
C372 C373 1.392 . S
C372 C375 1.511 . S
C373 C369 1.376 . S
C373 C372 1.392 . S
C373 H385 0.929 . S
C374 C370 1.531 . S
C374 H386 0.960 . S
C374 H387 0.962 . S
C374 H388 0.960 . S
C375 C372 1.511 . S
C375 H389 0.961 . S
C375 H390 0.961 . S
C375 H391 0.961 . S
C376 C377 1.370 . S
C376 C378 1.363 . S
C376 H392 0.931 . S
C377 C376 1.370 . S
C377 C381 1.408 . S
C378 C376 1.363 . S
C378 C379 1.370 . S
C378 C382 1.524 . S
C379 C371 1.503 . S
C379 C378 1.370 . S
C379 C380 1.403 . S
C380 C379 1.403 . S
C380 C381 1.404 . S
C380 C383 1.539 . S
C381 C377 1.408 . S
C381 C380 1.404 . S
C381 H393 0.930 . S
C382 C378 1.524 . S
C382 H394 0.956 . S
C382 H395 0.961 . S
C382 H396 0.961 . S
C383 C380 1.539 . S
C383 H397 0.958 . S
C383 H398 0.961 . S
C383 H399 0.960 . S
H384 C368 0.931 . S
H385 C373 0.929 . S
H386 C374 0.960 . S
H387 C374 0.962 . S
H388 C374 0.960 . S
H389 C375 0.961 . S
H390 C375 0.961 . S
H391 C375 0.961 . S
H392 C376 0.931 . S
H393 C381 0.930 . S
H394 C382 0.956 . S
H395 C382 0.961 . S
H396 C382 0.961 . S
H397 C383 0.958 . S
H398 C383 0.961 . S
H399 C383 0.960 . S
C400 C401 1.391 . S
C400 C402 1.394 . S
C400 H416 0.931 . S
C401 C400 1.391 . S
C401 C405 1.376 . S
C402 C400 1.394 . S
C402 C403 1.369 . S
C402 C406 1.531 . S
C403 C402 1.369 . S
C403 C404 1.410 . S
C403 C411 1.503 1_455 S
C404 C403 1.410 . S
C404 C405 1.392 . S
C404 C407 1.511 . S
C405 C401 1.376 . S
C405 C404 1.392 . S
C405 H417 0.929 . S
C406 C402 1.531 . S
C406 H418 0.960 1_455 S
C406 H419 0.962 . S
C406 H420 0.960 . S
C407 C404 1.511 . S
C407 H421 0.961 . S
C407 H422 0.961 . S
C407 H423 0.961 1_455 S
C408 C409 1.370 . S
C408 C410 1.363 1_655 S
C408 H424 0.931 1_655 S
C409 C408 1.370 . S
C409 C413 1.408 . S
C410 C408 1.363 1_455 S
C410 C411 1.370 1_455 S
C410 C414 1.524 . S
C411 C403 1.503 1_655 S
C411 C410 1.370 1_655 S
C411 C412 1.403 . S
C412 C411 1.403 . S
C412 C413 1.404 . S
C412 C415 1.539 . S
C413 C409 1.408 . S
C413 C412 1.404 . S
C413 H425 0.930 . S
C414 C410 1.524 . S
C414 H426 0.956 . S
C414 H427 0.961 . S
C414 H428 0.961 . S
C415 C412 1.539 . S
C415 H429 0.958 . S
C415 H430 0.961 . S
C415 H431 0.960 . S
H416 C400 0.931 . S
H417 C405 0.929 . S
H418 C406 0.960 1_655 S
H419 C406 0.962 . S
H420 C406 0.960 . S
H421 C407 0.961 . S
H422 C407 0.961 . S
H423 C407 0.961 1_655 S
H424 C408 0.931 1_455 S
H425 C413 0.930 . S
H426 C414 0.956 . S
H427 C414 0.961 . S
H428 C414 0.961 . S
H429 C415 0.958 . S
H430 C415 0.961 . S
H431 C415 0.960 . S
C432 C433 1.391 . S
C432 C434 1.394 . S
C432 H448 0.931 . S
C433 C432 1.391 . S
C433 C437 1.376 . S
C434 C432 1.394 . S
C434 C435 1.369 . S
C434 C438 1.531 1_545 S
C435 C434 1.369 . S
C435 C436 1.410 . S
C435 C443 1.503 . S
C436 C435 1.410 . S
C436 C437 1.392 . S
C436 C439 1.511 . S
C437 C433 1.376 . S
C437 C436 1.392 . S
C437 H449 0.929 . S
C438 C434 1.531 1_565 S
C438 H450 0.960 . S
C438 H451 0.962 . S
C438 H452 0.960 . S
C439 C436 1.511 . S
C439 H453 0.961 . S
C439 H454 0.961 . S
C439 H455 0.961 . S
C440 C441 1.370 1_545 S
C440 C442 1.363 . S
C440 H456 0.931 . S
C441 C440 1.370 1_565 S
C441 C445 1.408 . S
C442 C440 1.363 . S
C442 C443 1.370 . S
C442 C446 1.524 . S
C443 C435 1.503 . S
C443 C442 1.370 . S
C443 C444 1.403 . S
C444 C443 1.403 . S
C444 C445 1.404 1_545 S
C444 C447 1.539 . S
C445 C441 1.408 . S
C445 C444 1.404 1_565 S
C445 H457 0.930 . S
C446 C442 1.524 . S
C446 H458 0.956 . S
C446 H459 0.961 . S
C446 H460 0.961 . S
C447 C444 1.539 . S
C447 H461 0.958 1_545 S
C447 H462 0.961 . S
C447 H463 0.960 . S
H448 C432 0.931 . S
H449 C437 0.929 . S
H450 C438 0.960 . S
H451 C438 0.962 . S
H452 C438 0.960 . S
H453 C439 0.961 . S
H454 C439 0.961 . S
H455 C439 0.961 . S
H456 C440 0.931 . S
H457 C445 0.930 . S
H458 C446 0.956 . S
H459 C446 0.961 . S
H460 C446 0.961 . S
H461 C447 0.958 1_565 S
H462 C447 0.961 . S
H463 C447 0.960 . S
C464 C465 1.391 . S
C464 C466 1.394 . S
C464 H480 0.931 . S
C465 C464 1.391 . S
C465 C469 1.376 . S
C466 C464 1.394 . S
C466 C467 1.369 . S
C466 C470 1.531 . S
C467 C466 1.369 . S
C467 C468 1.410 . S
C467 C475 1.503 . S
C468 C467 1.410 . S
C468 C469 1.392 . S
C468 C471 1.511 . S
C469 C465 1.376 . S
C469 C468 1.392 . S
C469 H481 0.929 . S
C470 C466 1.531 . S
C470 H482 0.960 . S
C470 H483 0.962 . S
C470 H484 0.960 . S
C471 C468 1.511 . S
C471 H485 0.961 . S
C471 H486 0.961 . S
C471 H487 0.961 . S
C472 C473 1.370 . S
C472 C474 1.363 . S
C472 H488 0.931 . S
C473 C472 1.370 . S
C473 C477 1.408 . S
C474 C472 1.363 . S
C474 C475 1.370 . S
C474 C478 1.524 . S
C475 C467 1.503 . S
C475 C474 1.370 . S
C475 C476 1.403 . S
C476 C475 1.403 . S
C476 C477 1.404 . S
C476 C479 1.539 . S
C477 C473 1.408 . S
C477 C476 1.404 . S
C477 H489 0.930 . S
C478 C474 1.524 . S
C478 H490 0.956 . S
C478 H491 0.961 . S
C478 H492 0.961 . S
C479 C476 1.539 . S
C479 H493 0.958 . S
C479 H494 0.961 . S
C479 H495 0.960 . S
H480 C464 0.931 . S
H481 C469 0.929 . S
H482 C470 0.960 . S
H483 C470 0.962 . S
H484 C470 0.960 . S
H485 C471 0.961 . S
H486 C471 0.961 . S
H487 C471 0.961 . S
H488 C472 0.931 . S
H489 C477 0.930 . S
H490 C478 0.956 . S
H491 C478 0.961 . S
H492 C478 0.961 . S
H493 C479 0.958 . S
H494 C479 0.961 . S
H495 C479 0.960 . S
C496 C497 1.391 1_545 S
C496 C498 1.394 . S
C496 H512 0.931 . S
C497 C496 1.391 1_565 S
C497 C501 1.376 . S
C498 C496 1.394 . S
C498 C499 1.369 . S
C498 C502 1.531 . S
C499 C498 1.369 . S
C499 C500 1.410 . S
C499 C507 1.503 . S
C500 C499 1.410 . S
C500 C501 1.392 1_545 S
C500 C503 1.511 . S
C501 C497 1.376 . S
C501 C500 1.392 1_565 S
C501 H513 0.929 . S
C502 C498 1.531 . S
C502 H514 0.960 . S
C502 H515 0.962 . S
C502 H516 0.960 1_556 S
C503 C500 1.511 . S
C503 H517 0.961 . S
C503 H518 0.961 . S
C503 H519 0.961 . S
C504 C505 1.370 . S
C504 C506 1.363 . S
C504 H520 0.931 . S
C505 C504 1.370 . S
C505 C509 1.408 . S
C506 C504 1.363 . S
C506 C507 1.370 . S
C506 C510 1.524 . S
C507 C499 1.503 . S
C507 C506 1.370 . S
C507 C508 1.403 . S
C508 C507 1.403 . S
C508 C509 1.404 . S
C508 C511 1.539 . S
C509 C505 1.408 . S
C509 C508 1.404 . S
C509 H521 0.930 . S
C510 C506 1.524 . S
C510 H522 0.956 . S
C510 H523 0.961 . S
C510 H524 0.961 . S
C511 C508 1.539 . S
C511 H525 0.958 . S
C511 H526 0.961 . S
C511 H527 0.960 . S
H512 C496 0.931 . S
H513 C501 0.929 . S
H514 C502 0.960 . S
H515 C502 0.962 . S
H516 C502 0.960 1_554 S
H517 C503 0.961 . S
H518 C503 0.961 . S
H519 C503 0.961 . S
H520 C504 0.931 . S
H521 C509 0.930 . S
H522 C510 0.956 . S
H523 C510 0.961 . S
H524 C510 0.961 . S
H525 C511 0.958 . S
H526 C511 0.961 . S
H527 C511 0.960 . S
C528 C529 1.391 . S
C528 C530 1.394 . S
C528 H544 0.931 . S
C529 C528 1.391 . S
C529 C533 1.376 . S
C530 C528 1.394 . S
C530 C531 1.369 . S
C530 C534 1.531 . S
C531 C530 1.369 . S
C531 C532 1.410 . S
C531 C539 1.503 . S
C532 C531 1.410 . S
C532 C533 1.392 . S
C532 C535 1.511 . S
C533 C529 1.376 . S
C533 C532 1.392 . S
C533 H545 0.929 . S
C534 C530 1.531 . S
C534 H546 0.960 . S
C534 H547 0.962 . S
C534 H548 0.960 . S
C535 C532 1.511 . S
C535 H549 0.961 . S
C535 H550 0.961 . S
C535 H551 0.961 . S
C536 C537 1.370 . S
C536 C538 1.363 . S
C536 H552 0.931 . S
C537 C536 1.370 . S
C537 C541 1.408 . S
C538 C536 1.363 . S
C538 C539 1.370 . S
C538 C542 1.524 . S
C539 C531 1.503 . S
C539 C538 1.370 . S
C539 C540 1.403 . S
C540 C539 1.403 . S
C540 C541 1.404 . S
C540 C543 1.539 . S
C541 C537 1.408 . S
C541 C540 1.404 . S
C541 H553 0.930 . S
C542 C538 1.524 . S
C542 H554 0.956 . S
C542 H555 0.961 . S
C542 H556 0.961 . S
C543 C540 1.539 . S
C543 H557 0.958 . S
C543 H558 0.961 . S
C543 H559 0.960 . S
H544 C528 0.931 . S
H545 C533 0.929 . S
H546 C534 0.960 . S
H547 C534 0.962 . S
H548 C534 0.960 . S
H549 C535 0.961 . S
H550 C535 0.961 . S
H551 C535 0.961 . S
H552 C536 0.931 . S
H553 C541 0.930 . S
H554 C542 0.956 . S
H555 C542 0.961 . S
H556 C542 0.961 . S
H557 C543 0.958 . S
H558 C543 0.961 . S
H559 C543 0.960 . S
C560 C561 1.391 . S
C560 C562 1.394 . S
C560 H576 0.931 . S
C561 C560 1.391 . S
C561 C565 1.376 . S
C562 C560 1.394 . S
C562 C563 1.369 . S
C562 C566 1.531 . S
C563 C562 1.369 . S
C563 C564 1.410 . S
C563 C571 1.503 . S
C564 C563 1.410 . S
C564 C565 1.392 . S
C564 C567 1.511 . S
C565 C561 1.376 . S
C565 C564 1.392 . S
C565 H577 0.929 . S
C566 C562 1.531 . S
C566 H578 0.960 . S
C566 H579 0.962 . S
C566 H580 0.960 . S
C567 C564 1.511 . S
C567 H581 0.961 . S
C567 H582 0.961 . S
C567 H583 0.961 . S
C568 C569 1.370 . S
C568 C570 1.363 . S
C568 H584 0.931 . S
C569 C568 1.370 . S
C569 C573 1.408 . S
C570 C568 1.363 . S
C570 C571 1.370 . S
C570 C574 1.524 . S
C571 C563 1.503 . S
C571 C570 1.370 . S
C571 C572 1.403 . S
C572 C571 1.403 . S
C572 C573 1.404 . S
C572 C575 1.539 . S
C573 C569 1.408 . S
C573 C572 1.404 . S
C573 H585 0.930 . S
C574 C570 1.524 . S
C574 H586 0.956 . S
C574 H587 0.961 . S
C574 H588 0.961 . S
C575 C572 1.539 . S
C575 H589 0.958 . S
C575 H590 0.961 . S
C575 H591 0.960 . S
H576 C560 0.931 . S
H577 C565 0.929 . S
H578 C566 0.960 . S
H579 C566 0.962 . S
H580 C566 0.960 . S
H581 C567 0.961 . S
H582 C567 0.961 . S
H583 C567 0.961 . S
H584 C568 0.931 . S
H585 C573 0.930 . S
H586 C574 0.956 . S
H587 C574 0.961 . S
H588 C574 0.961 . S
H589 C575 0.958 . S
H590 C575 0.961 . S
H591 C575 0.960 . S
C592 C593 1.391 . S
C592 C594 1.394 1_455 S
C592 H608 0.931 . S
C593 C592 1.391 . S
C593 C597 1.376 . S
C594 C592 1.394 1_655 S
C594 C595 1.369 . S
C594 C598 1.531 . S
C595 C594 1.369 . S
C595 C596 1.410 1_655 S
C595 C603 1.503 . S
C596 C595 1.410 1_455 S
C596 C597 1.392 . S
C596 C599 1.511 . S
C597 C593 1.376 . S
C597 C596 1.392 . S
C597 H609 0.929 . S
C598 C594 1.531 . S
C598 H610 0.960 . S
C598 H611 0.962 . S
C598 H612 0.960 1_554 S
C599 C596 1.511 . S
C599 H613 0.961 . S
C599 H614 0.961 1_455 S
C599 H615 0.961 . S
C600 C601 1.370 . S
C600 C602 1.363 . S
C600 H616 0.931 . S
C601 C600 1.370 . S
C601 C605 1.408 . S
C602 C600 1.363 . S
C602 C603 1.370 . S
C602 C606 1.524 . S
C603 C595 1.503 . S
C603 C602 1.370 . S
C603 C604 1.403 . S
C604 C603 1.403 . S
C604 C605 1.404 . S
C604 C607 1.539 . S
C605 C601 1.408 . S
C605 C604 1.404 . S
C605 H617 0.930 . S
C606 C602 1.524 . S
C606 H618 0.956 . S
C606 H619 0.961 . S
C606 H620 0.961 . S
C607 C604 1.539 . S
C607 H621 0.958 . S
C607 H622 0.961 . S
C607 H623 0.960 1_655 S
H608 C592 0.931 . S
H609 C597 0.929 . S
H610 C598 0.960 . S
H611 C598 0.962 . S
H612 C598 0.960 1_556 S
H613 C599 0.961 . S
H614 C599 0.961 1_655 S
H615 C599 0.961 . S
H616 C600 0.931 . S
H617 C605 0.930 . S
H618 C606 0.956 . S
H619 C606 0.961 . S
H620 C606 0.961 . S
H621 C607 0.958 . S
H622 C607 0.961 . S
H623 C607 0.960 1_455 S
C624 C625 1.391 . S
C624 C626 1.394 . S
C624 H640 0.931 . S
C625 C624 1.391 . S
C625 C629 1.376 . S
C626 C624 1.394 . S
C626 C627 1.369 . S
C626 C630 1.531 . S
C627 C626 1.369 . S
C627 C628 1.410 . S
C627 C635 1.503 . S
C628 C627 1.410 . S
C628 C629 1.392 . S
C628 C631 1.511 . S
C629 C625 1.376 . S
C629 C628 1.392 . S
C629 H641 0.929 . S
C630 C626 1.531 . S
C630 H642 0.960 . S
C630 H643 0.962 . S
C630 H644 0.960 . S
C631 C628 1.511 . S
C631 H645 0.961 . S
C631 H646 0.961 . S
C631 H647 0.961 . S
C632 C633 1.370 . S
C632 C634 1.363 . S
C632 H648 0.931 . S
C633 C632 1.370 . S
C633 C637 1.408 . S
C634 C632 1.363 . S
C634 C635 1.370 . S
C634 C638 1.524 . S
C635 C627 1.503 . S
C635 C634 1.370 . S
C635 C636 1.403 . S
C636 C635 1.403 . S
C636 C637 1.404 . S
C636 C639 1.539 . S
C637 C633 1.408 . S
C637 C636 1.404 . S
C637 H649 0.930 . S
C638 C634 1.524 . S
C638 H650 0.956 . S
C638 H651 0.961 . S
C638 H652 0.961 . S
C639 C636 1.539 . S
C639 H653 0.958 . S
C639 H654 0.961 . S
C639 H655 0.960 . S
H640 C624 0.931 . S
H641 C629 0.929 . S
H642 C630 0.960 . S
H643 C630 0.962 . S
H644 C630 0.960 . S
H645 C631 0.961 . S
H646 C631 0.961 . S
H647 C631 0.961 . S
H648 C632 0.931 . S
H649 C637 0.930 . S
H650 C638 0.956 . S
H651 C638 0.961 . S
H652 C638 0.961 . S
H653 C639 0.958 . S
H654 C639 0.961 . S
H655 C639 0.960 . S
C656 C657 1.391 . S
C656 C658 1.394 . S
C656 H672 0.931 . S
C657 C656 1.391 . S
C657 C661 1.376 . S
C658 C656 1.394 . S
C658 C659 1.369 . S
C658 C662 1.531 . S
C659 C658 1.369 . S
C659 C660 1.410 . S
C659 C667 1.503 . S
C660 C659 1.410 . S
C660 C661 1.392 . S
C660 C663 1.511 1_655 S
C661 C657 1.376 . S
C661 C660 1.392 . S
C661 H673 0.929 . S
C662 C658 1.531 . S
C662 H674 0.960 . S
C662 H675 0.962 . S
C662 H676 0.960 . S
C663 C660 1.511 1_455 S
C663 H677 0.961 . S
C663 H678 0.961 . S
C663 H679 0.961 . S
C664 C665 1.370 . S
C664 C666 1.363 1_455 S
C664 H680 0.931 . S
C665 C664 1.370 . S
C665 C669 1.408 . S
C666 C664 1.363 1_655 S
C666 C667 1.370 . S
C666 C670 1.524 . S
C667 C659 1.503 . S
C667 C666 1.370 . S
C667 C668 1.403 1_655 S
C668 C667 1.403 1_455 S
C668 C669 1.404 . S
C668 C671 1.539 . S
C669 C665 1.408 . S
C669 C668 1.404 . S
C669 H681 0.930 . S
C670 C666 1.524 . S
C670 H682 0.956 . S
C670 H683 0.961 . S
C670 H684 0.961 . S
C671 C668 1.539 . S
C671 H685 0.958 1_455 S
C671 H686 0.961 . S
C671 H687 0.965 . S
H672 C656 0.931 . S
H673 C661 0.929 . S
H674 C662 0.960 . S
H675 C662 0.962 . S
H676 C662 0.960 . S
H677 C663 0.961 . S
H678 C663 0.961 . S
H679 C663 0.961 . S
H680 C664 0.931 . S
H681 C669 0.930 . S
H682 C670 0.956 . S
H683 C670 0.961 . S
H684 C670 0.961 . S
H685 C671 0.958 1_655 S
H686 C671 0.961 . S
H687 C671 0.965 . S
C688 C689 1.391 . S
C688 C690 1.394 . S
C688 H704 0.931 . S
C689 C688 1.391 . S
C689 C693 1.376 . S
C690 C688 1.394 . S
C690 C691 1.369 . S
C690 C694 1.531 . S
C691 C690 1.369 . S
C691 C692 1.410 . S
C691 C699 1.503 . S
C692 C691 1.410 . S
C692 C693 1.392 . S
C692 C695 1.511 . S
C693 C689 1.376 . S
C693 C692 1.392 . S
C693 H705 0.929 . S
C694 C690 1.531 . S
C694 H706 0.960 . S
C694 H707 0.962 . S
C694 H708 0.960 . S
C695 C692 1.511 . S
C695 H709 0.961 . S
C695 H710 0.961 . S
C695 H711 0.961 . S
C696 C697 1.370 . S
C696 C698 1.363 . S
C696 H712 0.931 . S
C697 C696 1.370 . S
C697 C701 1.408 . S
C698 C696 1.363 . S
C698 C699 1.370 . S
C698 C702 1.524 . S
C699 C691 1.503 . S
C699 C698 1.370 . S
C699 C700 1.403 . S
C700 C699 1.403 . S
C700 C701 1.404 . S
C700 C703 1.539 . S
C701 C697 1.408 . S
C701 C700 1.404 . S
C701 H713 0.930 . S
C702 C698 1.524 . S
C702 H714 0.956 . S
C702 H715 0.961 . S
C702 H716 0.961 . S
C703 C700 1.539 . S
C703 H717 0.958 . S
C703 H718 0.961 . S
C703 H719 0.960 . S
H704 C688 0.931 . S
H705 C693 0.929 . S
H706 C694 0.960 . S
H707 C694 0.962 . S
H708 C694 0.960 . S
H709 C695 0.961 . S
H710 C695 0.961 . S
H711 C695 0.961 . S
H712 C696 0.931 . S
H713 C701 0.930 . S
H714 C702 0.956 . S
H715 C702 0.961 . S
H716 C702 0.961 . S
H717 C703 0.958 . S
H718 C703 0.961 . S
H719 C703 0.960 . S
C720 C721 1.391 . S
C720 C722 1.394 . S
C720 H736 0.931 . S
C721 C720 1.391 . S
C721 C725 1.376 . S
C722 C720 1.394 . S
C722 C723 1.369 . S
C722 C726 1.531 . S
C723 C722 1.369 . S
C723 C724 1.410 . S
C723 C731 1.503 . S
C724 C723 1.410 . S
C724 C725 1.392 . S
C724 C727 1.511 . S
C725 C721 1.376 . S
C725 C724 1.392 . S
C725 H737 0.929 . S
C726 C722 1.531 . S
C726 H738 0.960 . S
C726 H739 0.962 . S
C726 H740 0.960 . S
C727 C724 1.511 . S
C727 H741 0.961 . S
C727 H742 0.961 . S
C727 H743 0.961 . S
C728 C729 1.370 . S
C728 C730 1.363 . S
C728 H744 0.931 . S
C729 C728 1.370 . S
C729 C733 1.408 . S
C730 C728 1.363 . S
C730 C731 1.370 . S
C730 C734 1.524 . S
C731 C723 1.503 . S
C731 C730 1.370 . S
C731 C732 1.403 . S
C732 C731 1.403 . S
C732 C733 1.404 . S
C732 C735 1.539 . S
C733 C729 1.408 . S
C733 C732 1.404 . S
C733 H745 0.930 . S
C734 C730 1.524 . S
C734 H746 0.956 . S
C734 H747 0.961 . S
C734 H748 0.961 . S
C735 C732 1.539 . S
C735 H749 0.958 . S
C735 H750 0.961 . S
C735 H751 0.960 . S
H736 C720 0.931 . S
H737 C725 0.929 . S
H738 C726 0.960 . S
H739 C726 0.962 . S
H740 C726 0.960 . S
H741 C727 0.961 . S
H742 C727 0.961 . S
H743 C727 0.961 . S
H744 C728 0.931 . S
H745 C733 0.930 . S
H746 C734 0.956 . S
H747 C734 0.961 . S
H748 C734 0.961 . S
H749 C735 0.958 . S
H750 C735 0.961 . S
H751 C735 0.960 . S
C752 C753 1.391 . S
C752 C754 1.394 . S
C752 H768 0.931 . S
C753 C752 1.391 . S
C753 C757 1.376 . S
C754 C752 1.394 . S
C754 C755 1.369 . S
C754 C758 1.531 . S
C755 C754 1.369 . S
C755 C756 1.410 . S
C755 C763 1.503 . S
C756 C755 1.410 . S
C756 C757 1.392 . S
C756 C759 1.511 . S
C757 C753 1.376 . S
C757 C756 1.392 . S
C757 H769 0.929 . S
C758 C754 1.531 . S
C758 H770 0.960 . S
C758 H771 0.962 . S
C758 H772 0.960 . S
C759 C756 1.511 . S
C759 H773 0.961 . S
C759 H774 0.961 . S
C759 H775 0.961 . S
C760 C761 1.370 . S
C760 C762 1.363 . S
C760 H776 0.931 . S
C761 C760 1.370 . S
C761 C765 1.408 . S
C762 C760 1.363 . S
C762 C763 1.370 . S
C762 C766 1.524 . S
C763 C755 1.503 . S
C763 C762 1.370 . S
C763 C764 1.403 . S
C764 C763 1.403 . S
C764 C765 1.404 . S
C764 C767 1.539 . S
C765 C761 1.408 . S
C765 C764 1.404 . S
C765 H777 0.930 . S
C766 C762 1.524 . S
C766 H778 0.956 . S
C766 H779 0.961 . S
C766 H780 0.961 . S
C767 C764 1.539 . S
C767 H781 0.958 . S
C767 H782 0.961 . S
C767 H783 0.960 . S
H768 C752 0.931 . S
H769 C757 0.929 . S
H770 C758 0.960 . S
H771 C758 0.962 . S
H772 C758 0.960 . S
H773 C759 0.961 . S
H774 C759 0.961 . S
H775 C759 0.961 . S
H776 C760 0.931 . S
H777 C765 0.930 . S
H778 C766 0.956 . S
H779 C766 0.961 . S
H780 C766 0.961 . S
H781 C767 0.958 . S
H782 C767 0.961 . S
H783 C767 0.960 . S
C784 C785 1.391 . S
C784 C786 1.394 . S
C784 H800 0.931 . S
C785 C784 1.391 . S
C785 C789 1.376 . S
C786 C784 1.394 . S
C786 C787 1.369 . S
C786 C790 1.531 . S
C787 C786 1.369 . S
C787 C788 1.410 . S
C787 C795 1.503 . S
C788 C787 1.410 . S
C788 C789 1.392 . S
C788 C791 1.511 . S
C789 C785 1.376 . S
C789 C788 1.392 . S
C789 H801 0.929 . S
C790 C786 1.531 . S
C790 H802 0.960 . S
C790 H803 0.962 . S
C790 H804 0.960 . S
C791 C788 1.511 . S
C791 H805 0.961 . S
C791 H806 0.961 . S
C791 H807 0.961 . S
C792 C793 1.370 . S
C792 C794 1.363 . S
C792 H808 0.931 . S
C793 C792 1.370 . S
C793 C797 1.408 . S
C794 C792 1.363 . S
C794 C795 1.370 . S
C794 C798 1.524 . S
C795 C787 1.503 . S
C795 C794 1.370 . S
C795 C796 1.403 . S
C796 C795 1.403 . S
C796 C797 1.404 . S
C796 C799 1.539 . S
C797 C793 1.408 . S
C797 C796 1.404 . S
C797 H809 0.930 . S
C798 C794 1.524 . S
C798 H810 0.956 . S
C798 H811 0.961 . S
C798 H812 0.961 . S
C799 C796 1.539 . S
C799 H813 0.958 . S
C799 H814 0.961 . S
C799 H815 0.960 . S
H800 C784 0.931 . S
H801 C789 0.929 . S
H802 C790 0.960 . S
H803 C790 0.962 . S
H804 C790 0.960 . S
H805 C791 0.961 . S
H806 C791 0.961 . S
H807 C791 0.961 . S
H808 C792 0.931 . S
H809 C797 0.930 . S
H810 C798 0.956 . S
H811 C798 0.961 . S
H812 C798 0.961 . S
H813 C799 0.958 . S
H814 C799 0.961 . S
H815 C799 0.960 . S
C816 C817 1.391 . S
C816 C818 1.394 . S
C816 H832 0.931 . S
C817 C816 1.391 . S
C817 C821 1.376 . S
C818 C816 1.394 . S
C818 C819 1.369 . S
C818 C822 1.531 . S
C819 C818 1.369 . S
C819 C820 1.410 . S
C819 C827 1.503 . S
C820 C819 1.410 . S
C820 C821 1.392 . S
C820 C823 1.511 . S
C821 C817 1.376 . S
C821 C820 1.392 . S
C821 H833 0.929 . S
C822 C818 1.531 . S
C822 H834 0.960 . S
C822 H835 0.962 . S
C822 H836 0.960 . S
C823 C820 1.511 . S
C823 H837 0.961 . S
C823 H838 0.961 . S
C823 H839 0.961 . S
C824 C825 1.370 . S
C824 C826 1.363 . S
C824 H840 0.931 . S
C825 C824 1.370 . S
C825 C829 1.408 . S
C826 C824 1.363 . S
C826 C827 1.370 . S
C826 C830 1.524 . S
C827 C819 1.503 . S
C827 C826 1.370 . S
C827 C828 1.403 . S
C828 C827 1.403 . S
C828 C829 1.404 . S
C828 C831 1.539 . S
C829 C825 1.408 . S
C829 C828 1.404 . S
C829 H841 0.930 . S
C830 C826 1.524 . S
C830 H842 0.956 . S
C830 H843 0.961 . S
C830 H844 0.961 . S
C831 C828 1.539 . S
C831 H845 0.958 . S
C831 H846 0.961 . S
C831 H847 0.960 . S
H832 C816 0.931 . S
H833 C821 0.929 . S
H834 C822 0.960 . S
H835 C822 0.962 . S
H836 C822 0.960 . S
H837 C823 0.961 . S
H838 C823 0.961 . S
H839 C823 0.961 . S
H840 C824 0.931 . S
H841 C829 0.930 . S
H842 C830 0.956 . S
H843 C830 0.961 . S
H844 C830 0.961 . S
H845 C831 0.958 . S
H846 C831 0.961 . S
H847 C831 0.960 . S
C848 C849 1.391 . S
C848 C850 1.394 . S
C848 H864 0.931 . S
C849 C848 1.391 . S
C849 C853 1.376 . S
C850 C848 1.394 . S
C850 C851 1.369 . S
C850 C854 1.531 . S
C851 C850 1.369 . S
C851 C852 1.410 . S
C851 C859 1.503 . S
C852 C851 1.410 . S
C852 C853 1.392 . S
C852 C855 1.511 . S
C853 C849 1.376 . S
C853 C852 1.392 . S
C853 H865 0.929 . S
C854 C850 1.531 . S
C854 H866 0.960 . S
C854 H867 0.962 . S
C854 H868 0.960 . S
C855 C852 1.511 . S
C855 H869 0.961 . S
C855 H870 0.961 . S
C855 H871 0.961 . S
C856 C857 1.370 . S
C856 C858 1.363 . S
C856 H872 0.931 . S
C857 C856 1.370 . S
C857 C861 1.408 . S
C858 C856 1.363 . S
C858 C859 1.370 . S
C858 C862 1.524 . S
C859 C851 1.503 . S
C859 C858 1.370 . S
C859 C860 1.403 . S
C860 C859 1.403 . S
C860 C861 1.404 . S
C860 C863 1.539 . S
C861 C857 1.408 . S
C861 C860 1.404 . S
C861 H873 0.930 . S
C862 C858 1.524 . S
C862 H874 0.956 . S
C862 H875 0.961 . S
C862 H876 0.961 . S
C863 C860 1.539 . S
C863 H877 0.958 . S
C863 H878 0.961 . S
C863 H879 0.960 . S
H864 C848 0.931 . S
H865 C853 0.929 . S
H866 C854 0.960 . S
H867 C854 0.962 . S
H868 C854 0.960 . S
H869 C855 0.961 . S
H870 C855 0.961 . S
H871 C855 0.961 . S
H872 C856 0.931 . S
H873 C861 0.930 . S
H874 C862 0.956 . S
H875 C862 0.961 . S
H876 C862 0.961 . S
H877 C863 0.958 . S
H878 C863 0.961 . S
H879 C863 0.960 . S
C880 C881 1.391 . S
C880 C882 1.394 . S
C880 H896 0.931 . S
C881 C880 1.391 . S
C881 C885 1.376 . S
C882 C880 1.394 . S
C882 C883 1.369 . S
C882 C886 1.531 . S
C883 C882 1.369 . S
C883 C884 1.410 . S
C883 C891 1.503 . S
C884 C883 1.410 . S
C884 C885 1.392 . S
C884 C887 1.511 . S
C885 C881 1.376 . S
C885 C884 1.392 . S
C885 H897 0.929 . S
C886 C882 1.531 . S
C886 H898 0.960 . S
C886 H899 0.962 . S
C886 H900 0.960 . S
C887 C884 1.511 . S
C887 H901 0.961 . S
C887 H902 0.961 . S
C887 H903 0.961 . S
C888 C889 1.370 . S
C888 C890 1.363 . S
C888 H904 0.931 . S
C889 C888 1.370 . S
C889 C893 1.408 . S
C890 C888 1.363 . S
C890 C891 1.370 . S
C890 C894 1.524 . S
C891 C883 1.503 . S
C891 C890 1.370 . S
C891 C892 1.403 . S
C892 C891 1.403 . S
C892 C893 1.404 . S
C892 C895 1.539 . S
C893 C889 1.408 . S
C893 C892 1.404 . S
C893 H905 0.930 . S
C894 C890 1.524 . S
C894 H906 0.956 . S
C894 H907 0.961 . S
C894 H908 0.961 . S
C895 C892 1.539 . S
C895 H909 0.958 . S
C895 H910 0.961 . S
C895 H911 0.960 . S
H896 C880 0.931 . S
H897 C885 0.929 . S
H898 C886 0.960 . S
H899 C886 0.962 . S
H900 C886 0.960 . S
H901 C887 0.961 . S
H902 C887 0.961 . S
H903 C887 0.961 . S
H904 C888 0.931 . S
H905 C893 0.930 . S
H906 C894 0.956 . S
H907 C894 0.961 . S
H908 C894 0.961 . S
H909 C895 0.958 . S
H910 C895 0.961 . S
H911 C895 0.960 . S
C912 C913 1.391 . S
C912 C914 1.394 . S
C912 H928 0.931 . S
C913 C912 1.391 . S
C913 C917 1.376 . S
C914 C912 1.394 . S
C914 C915 1.369 . S
C914 C918 1.531 . S
C915 C914 1.369 . S
C915 C916 1.410 . S
C915 C923 1.503 . S
C916 C915 1.410 . S
C916 C917 1.392 . S
C916 C919 1.511 . S
C917 C913 1.376 . S
C917 C916 1.392 . S
C917 H929 0.929 . S
C918 C914 1.531 . S
C918 H930 0.960 . S
C918 H931 0.962 . S
C918 H932 0.960 . S
C919 C916 1.511 . S
C919 H933 0.961 . S
C919 H934 0.961 . S
C919 H935 0.961 . S
C920 C921 1.370 . S
C920 C922 1.363 . S
C920 H936 0.931 . S
C921 C920 1.370 . S
C921 C925 1.408 . S
C922 C920 1.363 . S
C922 C923 1.370 . S
C922 C926 1.524 . S
C923 C915 1.503 . S
C923 C922 1.370 . S
C923 C924 1.403 . S
C924 C923 1.403 . S
C924 C925 1.404 . S
C924 C927 1.539 . S
C925 C921 1.408 . S
C925 C924 1.404 . S
C925 H937 0.930 . S
C926 C922 1.524 . S
C926 H938 0.956 . S
C926 H939 0.961 . S
C926 H940 0.961 . S
C927 C924 1.539 . S
C927 H941 0.958 . S
C927 H942 0.961 . S
C927 H943 0.960 . S
H928 C912 0.931 . S
H929 C917 0.929 . S
H930 C918 0.960 . S
H931 C918 0.962 . S
H932 C918 0.960 . S
H933 C919 0.961 . S
H934 C919 0.961 . S
H935 C919 0.961 . S
H936 C920 0.931 . S
H937 C925 0.930 . S
H938 C926 0.956 . S
H939 C926 0.961 . S
H940 C926 0.961 . S
H941 C927 0.958 . S
H942 C927 0.961 . S
H943 C927 0.960 . S
C177 C8 1.542 . S
C185 C95 1.455 . S
C209 C31 1.396 . S
C217 C104 1.126 . S
C241 C53 1.217 . S
C249 C115 0.993 . S
C281 C126 1.020 . S
C273 C74 1.078 . S
C313 C139 1.322 . S
C305 C26 1.271 . S
C337 C48 1.155 . S
C345 C148 0.935 . S
C369 C71 1.115 . S
C377 C159 1.001 . S
C401 C5 1.628 . S
C409 C172 1.553 . S
C433 C50 1.183 . S
C441 C170 0.890 . S
C473 C137 1.142 . S
C465 C70 1.338 . S
C505 C150 1.571 . S
C497 C4 1.594 . S
C529 C28 1.648 . S
C537 C161 1.665 . S
C569 C106 1.392 . S
C561 C73 1.362 . S
C593 C7 1.647 . S
C601 C117 1.593 . S
C633 C128 1.432 . S
C625 C30 1.434 . S
C665 C93 0.880 . S
C657 C52 1.169 . S
C697 C162 1.449 . S
C689 C9 1.434 . S
C729 C173 1.462 . S
C721 C29 1.472 . S
C753 C51 1.326 . S
C761 C140 1.307 . S
C793 C151 1.400 . S
C785 C75 1.462 . S
C825 C118 1.518 . S
C817 C27 1.587 . S
C849 C49 1.308 . S
C857 C129 1.309 . S
C889 C96 1.392 . S
C881 C72 1.393 . S
C921 C107 1.406 . S
C913 C6 1.435 . S
