# Generated by pormake.
# Topology ocu, (6,8)-cn, num edge types: 1
# Building blocks:
#     Node 0, Type 0, BuildingBlock: KUMBUR_clean_sbu_0, # of connection points: 6
#     Node 1, Type 0, BuildingBlock: KUMBUR_clean_sbu_0, # of connection points: 6
#     Node 2, Type 0, BuildingBlock: KUMBUR_clean_sbu_0, # of connection points: 6
#     Node 3, Type 0, BuildingBlock: KUMBUR_clean_sbu_0, # of connection points: 6
#     Node 4, Type 0, BuildingBlock: KUMBUR_clean_sbu_0, # of connection points: 6
#     Node 5, Type 0, BuildingBlock: KUMBUR_clean_sbu_0, # of connection points: 6
#     Node 6, Type 0, BuildingBlock: KUMBUR_clean_sbu_0, # of connection points: 6
#     Node 7, Type 0, BuildingBlock: KUMBUR_clean_sbu_0, # of connection points: 6
#     Node 8, Type 1, BuildingBlock: AJUNOK_clean_sbu_0, # of connection points: 8
#     Node 9, Type 1, BuildingBlock: AJUNOK_clean_sbu_0, # of connection points: 8
#     Node 10, Type 1, BuildingBlock: AJUNOK_clean_sbu_0, # of connection points: 8
#     Node 11, Type 1, BuildingBlock: AJUNOK_clean_sbu_0, # of connection points: 8
#     Node 12, Type 1, BuildingBlock: AJUNOK_clean_sbu_0, # of connection points: 8
#     Node 13, Type 1, BuildingBlock: AJUNOK_clean_sbu_0, # of connection points: 8
#     Edge 14, Type (0, 1), BuildingBlock: CIFDUS_clean_linker_0, # of connection points: 2
#     Edge 15, Type (0, 1), BuildingBlock: CIFDUS_clean_linker_0, # of connection points: 2
#     Edge 16, Type (0, 1), BuildingBlock: CIFDUS_clean_linker_0, # of connection points: 2
#     Edge 17, Type (0, 1), BuildingBlock: CIFDUS_clean_linker_0, # of connection points: 2
#     Edge 18, Type (0, 1), BuildingBlock: CIFDUS_clean_linker_0, # of connection points: 2
#     Edge 19, Type (0, 1), BuildingBlock: CIFDUS_clean_linker_0, # of connection points: 2
#     Edge 20, Type (0, 1), BuildingBlock: CIFDUS_clean_linker_0, # of connection points: 2
#     Edge 21, Type (0, 1), BuildingBlock: CIFDUS_clean_linker_0, # of connection points: 2
#     Edge 22, Type (0, 1), BuildingBlock: CIFDUS_clean_linker_0, # of connection points: 2
#     Edge 23, Type (0, 1), BuildingBlock: CIFDUS_clean_linker_0, # of connection points: 2
#     Edge 24, Type (0, 1), BuildingBlock: CIFDUS_clean_linker_0, # of connection points: 2
#     Edge 25, Type (0, 1), BuildingBlock: CIFDUS_clean_linker_0, # of connection points: 2
#     Edge 26, Type (0, 1), BuildingBlock: CIFDUS_clean_linker_0, # of connection points: 2
#     Edge 27, Type (0, 1), BuildingBlock: CIFDUS_clean_linker_0, # of connection points: 2
#     Edge 28, Type (0, 1), BuildingBlock: CIFDUS_clean_linker_0, # of connection points: 2
#     Edge 29, Type (0, 1), BuildingBlock: CIFDUS_clean_linker_0, # of connection points: 2
#     Edge 30, Type (0, 1), BuildingBlock: CIFDUS_clean_linker_0, # of connection points: 2
#     Edge 31, Type (0, 1), BuildingBlock: CIFDUS_clean_linker_0, # of connection points: 2
#     Edge 32, Type (0, 1), BuildingBlock: CIFDUS_clean_linker_0, # of connection points: 2
#     Edge 33, Type (0, 1), BuildingBlock: CIFDUS_clean_linker_0, # of connection points: 2
#     Edge 34, Type (0, 1), BuildingBlock: CIFDUS_clean_linker_0, # of connection points: 2
#     Edge 35, Type (0, 1), BuildingBlock: CIFDUS_clean_linker_0, # of connection points: 2
#     Edge 36, Type (0, 1), BuildingBlock: CIFDUS_clean_linker_0, # of connection points: 2
#     Edge 37, Type (0, 1), BuildingBlock: CIFDUS_clean_linker_0, # of connection points: 2
#     Edge 38, Type (0, 1), BuildingBlock: CIFDUS_clean_linker_0, # of connection points: 2
#     Edge 39, Type (0, 1), BuildingBlock: CIFDUS_clean_linker_0, # of connection points: 2
#     Edge 40, Type (0, 1), BuildingBlock: CIFDUS_clean_linker_0, # of connection points: 2
#     Edge 41, Type (0, 1), BuildingBlock: CIFDUS_clean_linker_0, # of connection points: 2
#     Edge 42, Type (0, 1), BuildingBlock: CIFDUS_clean_linker_0, # of connection points: 2
#     Edge 43, Type (0, 1), BuildingBlock: CIFDUS_clean_linker_0, # of connection points: 2
#     Edge 44, Type (0, 1), BuildingBlock: CIFDUS_clean_linker_0, # of connection points: 2
#     Edge 45, Type (0, 1), BuildingBlock: CIFDUS_clean_linker_0, # of connection points: 2
#     Edge 46, Type (0, 1), BuildingBlock: CIFDUS_clean_linker_0, # of connection points: 2
#     Edge 47, Type (0, 1), BuildingBlock: CIFDUS_clean_linker_0, # of connection points: 2
#     Edge 48, Type (0, 1), BuildingBlock: CIFDUS_clean_linker_0, # of connection points: 2
#     Edge 49, Type (0, 1), BuildingBlock: CIFDUS_clean_linker_0, # of connection points: 2
#     Edge 50, Type (0, 1), BuildingBlock: CIFDUS_clean_linker_0, # of connection points: 2
#     Edge 51, Type (0, 1), BuildingBlock: CIFDUS_clean_linker_0, # of connection points: 2
#     Edge 52, Type (0, 1), BuildingBlock: CIFDUS_clean_linker_0, # of connection points: 2
#     Edge 53, Type (0, 1), BuildingBlock: CIFDUS_clean_linker_0, # of connection points: 2
#     Edge 54, Type (0, 1), BuildingBlock: CIFDUS_clean_linker_0, # of connection points: 2
#     Edge 55, Type (0, 1), BuildingBlock: CIFDUS_clean_linker_0, # of connection points: 2
#     Edge 56, Type (0, 1), BuildingBlock: CIFDUS_clean_linker_0, # of connection points: 2
#     Edge 57, Type (0, 1), BuildingBlock: CIFDUS_clean_linker_0, # of connection points: 2
#     Edge 58, Type (0, 1), BuildingBlock: CIFDUS_clean_linker_0, # of connection points: 2
#     Edge 59, Type (0, 1), BuildingBlock: CIFDUS_clean_linker_0, # of connection points: 2
#     Edge 60, Type (0, 1), BuildingBlock: CIFDUS_clean_linker_0, # of connection points: 2
#     Edge 61, Type (0, 1), BuildingBlock: CIFDUS_clean_linker_0, # of connection points: 2
# Relax obj value: 0.163
# Max RMSD: 0.265
# Mean RMSD: 0.201
data_MOF--net-ocu--node1-KUMBUR_clean_sbu_0--node2-AJUNOK_clean_sbu_0--edge1-CIFDUS_clean_linker_0
_symmetry_space_group_name_H-M    P1
_symmetry_Int_Tables_number       1
_symmetry_cell_setting            triclinic
loop_
_symmetry_equiv_pos_as_xyz
'x, y, z'
_cell_length_a     39.66992
_cell_length_b     39.122992
_cell_length_c     35.540178
_cell_angle_alpha  86.556212
_cell_angle_beta   106.15991
_cell_angle_gamma 116.22959
loop_
_atom_site_label
_atom_site_type_symbol
_atom_site_fract_x
_atom_site_fract_y
_atom_site_fract_z
_atom_type_partial_charge
Tb0 Tb 0.25512 0.21556 0.20293 0.0
C1 C 0.36403 0.32373 0.34695 0.0
C2 C 0.36692 0.27859 0.39574 0.0
C3 C 0.4222 0.34123 0.40237 0.0
C4 C 0.34703 0.2882 0.36046 0.0
C5 C 0.40116 0.35129 0.36851 0.0
C6 C 0.40512 0.30483 0.41591 0.0
C7 C 0.39117 0.39786 0.32493 0.0
N8 N 0.34242 0.33245 0.31464 0.0
C9 C 0.35439 0.36947 0.30472 0.0
C10 C 0.41504 0.38856 0.3565 0.0
Tb11 Tb 0.283 0.28439 0.28258 0.0
N12 N 0.30966 0.26435 0.34075 0.0
C13 C 0.28945 0.23143 0.35683 0.0
C14 C 0.3472 0.2437 0.41059 0.0
C15 C 0.30805 0.22035 0.39141 0.0
H16 H 0.336 0.37676 0.28031 0.0
H17 H 0.2921 0.19376 0.40321 0.0
H18 H 0.42104 0.29783 0.44283 0.0
H19 H 0.40104 0.42688 0.31619 0.0
H20 H 0.25921 0.21265 0.3429 0.0
H21 H 0.24083 0.29747 0.07605 0.0
H22 H 0.36144 0.23519 0.43755 0.0
H23 H 0.20136 0.12505 0.21607 0.0
H24 H 0.27485 0.28425 0.13973 0.0
H25 H 0.1362 0.07324 0.18391 0.0
H26 H 0.45101 0.36182 0.4191 0.0
H27 H 0.1726 0.25213 0.0425 0.0
H28 H 0.11469 0.189 0.04092 0.0
H29 H 0.44337 0.41064 0.37233 0.0
H30 H 0.0861 0.12784 0.07027 0.0
N31 N 0.22629 0.23173 0.14369 0.0
C32 C 0.2451 0.26393 0.12598 0.0
C33 C 0.18736 0.24607 0.07076 0.0
C34 C 0.16885 0.21234 0.08802 0.0
C35 C 0.22589 0.27165 0.08953 0.0
C36 C 0.18946 0.2058 0.12478 0.0
H37 H 0.09408 0.08422 0.1234 0.0
N38 N 0.19532 0.16561 0.17534 0.0
C39 C 0.14619 0.10084 0.17173 0.0
C40 C 0.17343 0.17148 0.14112 0.0
C41 C 0.18306 0.13025 0.1899 0.0
C42 C 0.12248 0.10717 0.13761 0.0
C43 C 0.13629 0.14259 0.12145 0.0
O44 O 0.27564 0.17412 0.20299 0.0
O45 O 0.29274 0.23877 0.26209 0.0
O46 O 0.33439 0.30529 0.26104 0.0
O47 O 0.30534 0.26906 0.20075 0.0
O48 O 0.26402 0.1809 0.25193 0.0
O49 O 0.28284 0.21519 0.15988 0.0
O50 O 0.26485 0.32734 0.28449 0.0
O51 O 0.24677 0.26204 0.22319 0.0
O52 O 0.2026 0.19909 0.22132 0.0
O53 O 0.23171 0.23119 0.2836 0.0
O54 O 0.27301 0.31919 0.2336 0.0
O55 O 0.25162 0.28197 0.3228 0.0
C56 C 0.29005 0.2079 0.2779 0.0
C57 C 0.27988 0.15534 0.14306 0.0
C58 C 0.30155 0.11773 0.11088 0.0
C59 C 0.31037 0.14884 0.13649 0.0
C60 C 0.26219 0.09353 0.09213 0.0
C61 C 0.24095 0.13088 0.12324 0.0
C62 C 0.23223 0.1002 0.09813 0.0
C63 C 0.33456 0.29716 0.22556 0.0
C64 C 0.28859 0.18573 0.17254 0.0
C65 C 0.11482 0.14956 0.08573 0.0
C66 C 0.13109 0.18439 0.06903 0.0
C67 C 0.24807 0.29234 0.2069 0.0
C68 C 0.25767 0.34121 0.34476 0.0
C69 C 0.22847 0.35117 0.34848 0.0
C70 C 0.23713 0.37914 0.37779 0.0
C71 C 0.2754 0.39662 0.40324 0.0
C72 C 0.29529 0.3589 0.37093 0.0
C73 C 0.30408 0.38652 0.3998 0.0
C74 C 0.20195 0.2056 0.25693 0.0
C75 C 0.249 0.31343 0.31276 0.0
H76 H 0.34061 0.16734 0.15172 0.0
H77 H 0.25463 0.06938 0.07265 0.0
H78 H 0.21715 0.13513 0.12746 0.0
H79 H 0.202 0.08129 0.08342 0.0
H80 H 0.19937 0.33771 0.32819 0.0
H81 H 0.28309 0.41779 0.42636 0.0
H82 H 0.31795 0.35144 0.36914 0.0
H83 H 0.33331 0.40012 0.41973 0.0
Tb84 Tb 0.79769 0.22702 0.23102 0.0
C85 C 0.708 0.26537 0.32348 0.0
C86 C 0.64099 0.21559 0.30585 0.0
C87 C 0.66875 0.25083 0.36952 0.0
C88 C 0.67687 0.23684 0.29667 0.0
C89 C 0.70362 0.27334 0.35966 0.0
C90 C 0.63751 0.22209 0.34266 0.0
C91 C 0.76532 0.32971 0.3709 0.0
N92 N 0.74114 0.28749 0.31284 0.0
C93 C 0.76791 0.32121 0.33455 0.0
C94 C 0.73341 0.30519 0.38395 0.0
Tb95 Tb 0.73985 0.2731 0.25045 0.0
N96 N 0.68079 0.23145 0.26088 0.0
C97 C 0.64895 0.20617 0.23268 0.0
C98 C 0.60918 0.189 0.27748 0.0
C99 C 0.61317 0.18441 0.24072 0.0
H100 H 0.79138 0.34163 0.32372 0.0
H101 H 0.58848 0.16438 0.21827 0.0
H102 H 0.61035 0.20567 0.35024 0.0
H103 H 0.78741 0.35572 0.38831 0.0
H104 H 0.64973 0.20304 0.20326 0.0
H105 H 0.94862 0.33617 0.2579 0.0
H106 H 0.58128 0.17221 0.28349 0.0
H107 H 0.74183 0.15795 0.15876 0.0
H108 H 0.88765 0.30092 0.27417 0.0
H109 H 0.74562 0.13968 0.09539 0.0
H110 H 0.66509 0.2564 0.39726 0.0
H111 H 0.95494 0.32362 0.19369 0.0
H112 H 0.92495 0.28655 0.12885 0.0
H113 H 0.73098 0.3123 0.41177 0.0
H114 H 0.86956 0.23415 0.0842 0.0
N115 N 0.85618 0.26757 0.2187 0.0
C116 C 0.88821 0.29449 0.24548 0.0
C117 C 0.92725 0.30772 0.20039 0.0
C118 C 0.8951 0.27994 0.17334 0.0
C119 C 0.92379 0.31486 0.23662 0.0
C120 C 0.85952 0.25986 0.18339 0.0
H121 H 0.80301 0.17939 0.07156 0.0
N122 N 0.79486 0.20978 0.16908 0.0
C123 C 0.7687 0.16554 0.11232 0.0
C124 C 0.82799 0.23036 0.15785 0.0
C125 C 0.76659 0.17611 0.14808 0.0
C126 C 0.80111 0.18804 0.099 0.0
C127 C 0.83167 0.22028 0.12218 0.0
O128 O 0.78915 0.17053 0.22888 0.0
O129 O 0.74667 0.22222 0.24726 0.0
O130 O 0.7803 0.26987 0.30506 0.0
O131 O 0.82871 0.26541 0.2839 0.0
O132 O 0.76424 0.18155 0.26482 0.0
O133 O 0.84464 0.21622 0.26248 0.0
O134 O 0.74977 0.33008 0.25327 0.0
O135 O 0.78979 0.27736 0.23281 0.0
O136 O 0.75827 0.23009 0.17567 0.0
O137 O 0.71032 0.23795 0.19529 0.0
O138 O 0.77325 0.31892 0.2166 0.0
O139 O 0.69271 0.28466 0.22222 0.0
C140 C 0.73958 0.19335 0.26684 0.0
C141 C 0.82563 0.15359 0.2832 0.0
C142 C 0.83166 0.13822 0.35124 0.0
C143 C 0.82954 0.16345 0.322 0.0
C144 C 0.8279 0.10216 0.34011 0.0
C145 C 0.82236 0.11806 0.27297 0.0
C146 C 0.82314 0.0923 0.30136 0.0
C147 C 0.81682 0.27591 0.31043 0.0
C148 C 0.82415 0.17947 0.2524 0.0
C149 C 0.86639 0.24139 0.11156 0.0
C150 C 0.89799 0.27113 0.13706 0.0
C151 C 0.79697 0.30628 0.21329 0.0
C152 C 0.71008 0.34683 0.2016 0.0
C153 C 0.70641 0.33797 0.16255 0.0
C154 C 0.7012 0.36246 0.13359 0.0
C155 C 0.70068 0.39636 0.14489 0.0
C156 C 0.70939 0.38033 0.21213 0.0
C157 C 0.7049 0.40514 0.18379 0.0
C158 C 0.72315 0.22852 0.16881 0.0
C159 C 0.71391 0.32134 0.23205 0.0
H160 H 0.83212 0.19112 0.32953 0.0
H161 H 0.83057 0.0819 0.36139 0.0
H162 H 0.81924 0.11032 0.24298 0.0
H163 H 0.82106 0.06496 0.29354 0.0
H164 H 0.70633 0.3116 0.15458 0.0
H165 H 0.69516 0.41556 0.12358 0.0
H166 H 0.71195 0.38706 0.24225 0.0
H167 H 0.7037 0.43076 0.19179 0.0
Tb168 Tb 0.74101 0.74212 0.2777 0.0
C169 C 0.83339 0.82978 0.16292 0.0
C170 C 0.7838 0.82362 0.10254 0.0
C171 C 0.84676 0.8798 0.11737 0.0
C172 C 0.79608 0.80986 0.13887 0.0
C173 C 0.85969 0.86444 0.15203 0.0
C174 C 0.80883 0.85932 0.09256 0.0
C175 C 0.91091 0.86267 0.20675 0.0
N176 N 0.84502 0.81317 0.19521 0.0
C177 C 0.8838 0.82784 0.2157 0.0
C178 C 0.89864 0.88147 0.17519 0.0
Tb179 Tb 0.79835 0.75753 0.20975 0.0
N180 N 0.77339 0.7751 0.14924 0.0
C181 C 0.73936 0.75116 0.12254 0.0
C182 C 0.74779 0.80014 0.07639 0.0
C183 C 0.72598 0.76338 0.08606 0.0
H184 H 0.8938 0.81279 0.23914 0.0
H185 H 0.6987 0.74439 0.06549 0.0
H186 H 0.79976 0.87057 0.065 0.0
H187 H 0.94133 0.87471 0.22386 0.0
H188 H 0.72183 0.72251 0.12888 0.0
H189 H 0.8453 0.74887 0.41684 0.0
H190 H 0.7374 0.80947 0.04807 0.0
H191 H 0.64486 0.69087 0.25284 0.0
H192 H 0.82111 0.7731 0.35536 0.0
H193 H 0.59678 0.629 0.26777 0.0
H194 H 0.86637 0.90658 0.10864 0.0
H195 H 0.80534 0.68401 0.43378 0.0
H196 H 0.74133 0.62459 0.41775 0.0
H197 H 0.91978 0.90813 0.16789 0.0
H198 H 0.67323 0.59127 0.37643 0.0
N199 N 0.76736 0.72224 0.33605 0.0
C200 C 0.80292 0.74467 0.36174 0.0
C201 C 0.7944 0.69443 0.40641 0.0
C202 C 0.75718 0.67244 0.38129 0.0
C203 C 0.81693 0.73109 0.39704 0.0
C204 C 0.74422 0.68758 0.34622 0.0
H205 H 0.61876 0.59283 0.3204 0.0
N206 N 0.69403 0.68706 0.29256 0.0
C207 C 0.62756 0.63959 0.28323 0.0
C208 C 0.70608 0.66916 0.32344 0.0
C209 C 0.65494 0.67421 0.27422 0.0
C210 C 0.64007 0.61928 0.31296 0.0
C211 C 0.67959 0.63469 0.33443 0.0
O212 O 0.70318 0.76747 0.27429 0.0
O213 O 0.75329 0.76853 0.22386 0.0
O214 O 0.81887 0.81313 0.23884 0.0
O215 O 0.7968 0.79246 0.29414 0.0
O216 O 0.69624 0.7414 0.22496 0.0
O217 O 0.74873 0.7758 0.32685 0.0
O218 O 0.84227 0.73991 0.21352 0.0
O219 O 0.78481 0.73022 0.26243 0.0
O220 O 0.71685 0.68711 0.24603 0.0
O221 O 0.7428 0.70663 0.19249 0.0
O222 O 0.84177 0.75776 0.26392 0.0
O223 O 0.7897 0.71762 0.16608 0.0
C224 C 0.71831 0.76108 0.20331 0.0
C225 C 0.69221 0.78018 0.33259 0.0
C226 C 0.66088 0.81059 0.36053 0.0
C227 C 0.69027 0.81329 0.34345 0.0
C228 C 0.63344 0.77376 0.36586 0.0
C229 C 0.66581 0.74442 0.34058 0.0
C230 C 0.63637 0.74123 0.3566 0.0
C231 C 0.81852 0.81874 0.27489 0.0
C232 C 0.71939 0.78313 0.30983 0.0
C233 C 0.69301 0.61794 0.36768 0.0
C234 C 0.73178 0.63689 0.39118 0.0
C235 C 0.81882 0.73578 0.2837 0.0
C236 C 0.84678 0.71893 0.155 0.0
C237 C 0.8521 0.68663 0.14815 0.0
C238 C 0.87636 0.68828 0.12465 0.0
C239 C 0.89516 0.72312 0.10854 0.0
C240 C 0.86553 0.75287 0.13803 0.0
C241 C 0.8896 0.75489 0.11504 0.0
C242 C 0.71829 0.6815 0.21034 0.0
C243 C 0.82342 0.71745 0.18162 0.0
H244 H 0.71154 0.84089 0.33817 0.0
H245 H 0.60905 0.76962 0.37664 0.0
H246 H 0.66745 0.71884 0.33391 0.0
H247 H 0.61528 0.71328 0.36135 0.0
H248 H 0.83737 0.66038 0.16117 0.0
H249 H 0.91496 0.72626 0.09146 0.0
H250 H 0.86199 0.77795 0.14292 0.0
H251 H 0.90444 0.78142 0.10253 0.0
Tb252 Tb 0.29503 0.72093 0.25291 0.0
C253 C 0.22523 0.82418 0.16096 0.0
C254 C 0.28189 0.88491 0.1652 0.0
C255 C 0.22425 0.8675 0.10915 0.0
C256 C 0.26286 0.84971 0.18063 0.0
C257 C 0.20511 0.83299 0.12536 0.0
C258 C 0.26263 0.89339 0.129 0.0
C259 C 0.14802 0.77413 0.12591 0.0
N260 N 0.20788 0.79112 0.1775 0.0
C261 C 0.16921 0.76674 0.16133 0.0
C262 C 0.16617 0.8072 0.1076 0.0
Tb263 Tb 0.24531 0.78133 0.23497 0.0
N264 N 0.28031 0.8405 0.21557 0.0
C265 C 0.31604 0.86657 0.23791 0.0
C266 C 0.31936 0.9108 0.18698 0.0
C267 C 0.3363 0.90173 0.22371 0.0
H268 H 0.15487 0.74116 0.17527 0.0
H269 H 0.36497 0.92182 0.24115 0.0
H270 H 0.27685 0.92018 0.11652 0.0
H271 H 0.1177 0.75436 0.1128 0.0
H272 H 0.32964 0.86017 0.26639 0.0
H273 H 0.17407 0.58012 0.24181 0.0
H274 H 0.33505 0.9381 0.1761 0.0
H275 H 0.38541 0.75558 0.31203 0.0
H276 H 0.21167 0.64146 0.21775 0.0
H277 H 0.41978 0.74249 0.37644 0.0
H278 H 0.20943 0.87469 0.08164 0.0
H279 H 0.19974 0.5642 0.30877 0.0
H280 H 0.25506 0.58203 0.37116 0.0
H281 H 0.14966 0.81291 0.08022 0.0
H282 H 0.32225 0.62642 0.40805 0.0
N283 N 0.25843 0.66138 0.27086 0.0
C284 C 0.22364 0.63526 0.24698 0.0
C285 C 0.21652 0.59137 0.29837 0.0
C286 C 0.2532 0.61715 0.32175 0.0
C287 C 0.20202 0.6002 0.26053 0.0
C288 C 0.27374 0.65212 0.30677 0.0
H289 H 0.38424 0.68628 0.41005 0.0
N290 N 0.33035 0.70898 0.31057 0.0
C291 C 0.38908 0.72398 0.36317 0.0
C292 C 0.31121 0.67682 0.32739 0.0
C293 C 0.36945 0.73154 0.32686 0.0
C294 C 0.36893 0.69223 0.38205 0.0
C295 C 0.32968 0.66767 0.36375 0.0
O296 O 0.34313 0.73141 0.23257 0.0
O297 O 0.29166 0.77081 0.22709 0.0
O298 O 0.23494 0.75627 0.17776 0.0
O299 O 0.24653 0.70369 0.19839 0.0
O300 O 0.34577 0.77595 0.25536 0.0
O301 O 0.2903 0.67864 0.21488 0.0
O302 O 0.19848 0.77127 0.25717 0.0
O303 O 0.24901 0.7317 0.26062 0.0
O304 O 0.30618 0.74694 0.30992 0.0
O305 O 0.29336 0.79918 0.28979 0.0
O306 O 0.19458 0.72656 0.23485 0.0
O307 O 0.25045 0.82523 0.27111 0.0
C308 C 0.32742 0.79358 0.23386 0.0
C309 C 0.35007 0.67931 0.21427 0.0
C310 C 0.3821 0.65711 0.1798 0.0
C311 C 0.35522 0.67118 0.17915 0.0
C312 C 0.40379 0.65086 0.21574 0.0
C313 C 0.3712 0.67242 0.25022 0.0
C314 C 0.39812 0.6583 0.25087 0.0
C315 C 0.23255 0.72243 0.17104 0.0
C316 C 0.32578 0.69879 0.21229 0.0
C317 C 0.30876 0.63382 0.37992 0.0
C318 C 0.27052 0.60857 0.35893 0.0
C319 C 0.21347 0.70884 0.25508 0.0
C320 C 0.19039 0.82338 0.27259 0.0
C321 C 0.18173 0.82838 0.30672 0.0
C322 C 0.15311 0.8405 0.30467 0.0
C323 C 0.13339 0.84817 0.26831 0.0
C324 C 0.17118 0.83164 0.23631 0.0
C325 C 0.14268 0.84402 0.23426 0.0
C326 C 0.30736 0.78028 0.31685 0.0
C327 C 0.21566 0.80488 0.2755 0.0
H328 H 0.3388 0.67635 0.15131 0.0
H329 H 0.42445 0.63957 0.2165 0.0
H330 H 0.36742 0.67846 0.27759 0.0
H331 H 0.41464 0.65323 0.27859 0.0
H332 H 0.19663 0.82206 0.33482 0.0
H333 H 0.11149 0.85811 0.26649 0.0
H334 H 0.17757 0.82787 0.20967 0.0
H335 H 0.12767 0.85019 0.20627 0.0
Tb336 Tb 0.29697 0.72754 0.73652 0.0
C337 C 0.21078 0.78059 0.82501 0.0
C338 C 0.14491 0.72956 0.81451 0.0
C339 C 0.17221 0.77751 0.86885 0.0
C340 C 0.18004 0.74799 0.8035 0.0
C341 C 0.20688 0.79609 0.85749 0.0
C342 C 0.14136 0.74426 0.84749 0.0
C343 C 0.27016 0.84935 0.8628 0.0
N344 N 0.24367 0.79821 0.81286 0.0
C345 C 0.27262 0.83305 0.83032 0.0
C346 C 0.23732 0.83061 0.87668 0.0
Tb347 Tb 0.24016 0.77361 0.7543 0.0
N348 N 0.18412 0.73494 0.77125 0.0
C349 C 0.15353 0.70393 0.74833 0.0
C350 C 0.11414 0.69721 0.79172 0.0
C351 C 0.1185 0.68438 0.75848 0.0
H352 H 0.29763 0.84806 0.81897 0.0
H353 H 0.09491 0.65934 0.74063 0.0
H354 H 0.11462 0.73047 0.85634 0.0
H355 H 0.29339 0.87655 0.87682 0.0
H356 H 0.15619 0.69296 0.72293 0.0
H357 H 0.44344 0.84423 0.77096 0.0
H358 H 0.08687 0.6821 0.79941 0.0
H359 H 0.24798 0.65963 0.66345 0.0
H360 H 0.37903 0.80595 0.78099 0.0
H361 H 0.25762 0.64307 0.60255 0.0
H362 H 0.16868 0.789 0.8937 0.0
H363 H 0.45705 0.83313 0.71025 0.0
H364 H 0.43346 0.79628 0.64551 0.0
H365 H 0.23528 0.84354 0.90157 0.0
H366 H 0.38234 0.74269 0.59891 0.0
N367 N 0.35536 0.77145 0.72707 0.0
C368 C 0.38414 0.79964 0.75471 0.0
C369 C 0.42853 0.81566 0.71467 0.0
C370 C 0.39915 0.78701 0.6864 0.0
C371 C 0.421 0.82191 0.74901 0.0
C372 C 0.36253 0.76486 0.69364 0.0
H373 H 0.31691 0.68543 0.58272 0.0
N374 N 0.29979 0.71254 0.67637 0.0
C375 C 0.27904 0.66918 0.62019 0.0
C376 C 0.33368 0.73475 0.66728 0.0
C377 C 0.2736 0.67877 0.65454 0.0
C378 C 0.31248 0.69319 0.60909 0.0
C379 C 0.34075 0.72593 0.63315 0.0
O380 O 0.29453 0.67339 0.73506 0.0
O381 O 0.25344 0.72541 0.76323 0.0
O382 O 0.27642 0.77008 0.8116 0.0
O383 O 0.32399 0.75847 0.79537 0.0
O384 O 0.24735 0.67454 0.74469 0.0
O385 O 0.34447 0.72025 0.77357 0.0
O386 O 0.23794 0.82577 0.75028 0.0
O387 O 0.28369 0.77507 0.72853 0.0
O388 O 0.25782 0.72966 0.6805 0.0
O389 O 0.20927 0.73545 0.70058 0.0
O390 O 0.28783 0.8262 0.74028 0.0
O391 O 0.19123 0.77557 0.71337 0.0
C392 C 0.23286 0.69002 0.76242 0.0
C393 C 0.33102 0.65653 0.78911 0.0
C394 C 0.33582 0.63412 0.85461 0.0
C395 C 0.33189 0.66115 0.82821 0.0
C396 C 0.33712 0.60173 0.84031 0.0
C397 C 0.33288 0.62463 0.7758 0.0
C398 C 0.33552 0.59712 0.80129 0.0
C399 C 0.31065 0.76897 0.82089 0.0
C400 C 0.3285 0.68426 0.76094 0.0
C401 C 0.3765 0.74892 0.62507 0.0
C402 C 0.40566 0.77934 0.65167 0.0
C403 C 0.30327 0.80977 0.72523 0.0
C404 C 0.2 0.83753 0.69362 0.0
C405 C 0.20115 0.83262 0.65531 0.0
C406 C 0.19728 0.85893 0.62788 0.0
C407 C 0.19331 0.89051 0.64019 0.0
C408 C 0.19541 0.86855 0.70485 0.0
C409 C 0.19237 0.8951 0.67827 0.0
C410 C 0.22209 0.72679 0.67358 0.0
C411 C 0.20426 0.81178 0.7236 0.0
H412 H 0.33097 0.68626 0.83828 0.0
H413 H 0.34152 0.58062 0.85948 0.0
H414 H 0.33245 0.62112 0.74561 0.0
H415 H 0.33742 0.57268 0.79106 0.0
H416 H 0.20401 0.80813 0.64668 0.0
H417 H 0.18902 0.91106 0.62016 0.0
H418 H 0.19431 0.87228 0.73441 0.0
H419 H 0.18852 0.91892 0.68693 0.0
Tb420 Tb 0.23632 0.23731 0.77663 0.0
C421 C 0.33757 0.33267 0.66921 0.0
C422 C 0.29086 0.33109 0.60784 0.0
C423 C 0.35605 0.38409 0.62579 0.0
C424 C 0.30067 0.31497 0.64341 0.0
C425 C 0.36589 0.3673 0.6606 0.0
C426 C 0.3186 0.36596 0.59941 0.0
C427 C 0.41212 0.36509 0.7203 0.0
N428 N 0.34597 0.3154 0.70241 0.0
C429 C 0.38311 0.33062 0.72745 0.0
C430 C 0.40341 0.38366 0.68689 0.0
Tb431 Tb 0.29645 0.25869 0.71094 0.0
N432 N 0.27481 0.28126 0.65253 0.0
C433 C 0.23895 0.26147 0.62626 0.0
C434 C 0.25379 0.31129 0.58146 0.0
C435 C 0.22783 0.27613 0.59062 0.0
H436 H 0.39058 0.31673 0.75335 0.0
H437 H 0.19916 0.26028 0.57032 0.0
H438 H 0.31156 0.37887 0.57235 0.0
H439 H 0.44123 0.37726 0.74055 0.0
H440 H 0.21827 0.23463 0.6327 0.0
H441 H 0.341 0.24438 0.91527 0.0
H442 H 0.24515 0.32261 0.5538 0.0
H443 H 0.14307 0.17626 0.7392 0.0
H444 H 0.31666 0.26854 0.85375 0.0
H445 H 0.09562 0.11454 0.75504 0.0
H446 H 0.37736 0.41076 0.61871 0.0
H447 H 0.29984 0.18059 0.9336 0.0
H448 H 0.23535 0.12172 0.91825 0.0
H449 H 0.42599 0.41028 0.68137 0.0
H450 H 0.16846 0.08652 0.87487 0.0
N451 N 0.26217 0.21836 0.83554 0.0
C452 C 0.29812 0.24053 0.86073 0.0
C453 C 0.28895 0.19093 0.90616 0.0
C454 C 0.25148 0.16914 0.88132 0.0
C455 C 0.31221 0.22695 0.89596 0.0
C456 C 0.23879 0.18389 0.84586 0.0
H457 H 0.11598 0.08379 0.81414 0.0
N458 N 0.19022 0.17987 0.78822 0.0
C459 C 0.12537 0.12806 0.77384 0.0
C460 C 0.20141 0.16404 0.82145 0.0
C461 C 0.15234 0.16301 0.76494 0.0
C462 C 0.13698 0.11077 0.80722 0.0
C463 C 0.17529 0.12893 0.83175 0.0
O464 O 0.19386 0.25691 0.77243 0.0
O465 O 0.24963 0.26589 0.72478 0.0
O466 O 0.31042 0.31313 0.73808 0.0
O467 O 0.29092 0.29029 0.79421 0.0
O468 O 0.19258 0.23741 0.72251 0.0
O469 O 0.24092 0.27036 0.8249 0.0
O470 O 0.33589 0.23532 0.71487 0.0
O471 O 0.28272 0.22922 0.76272 0.0
O472 O 0.21993 0.183 0.74617 0.0
O473 O 0.24067 0.20862 0.69127 0.0
O474 O 0.33989 0.25929 0.76531 0.0
O475 O 0.29053 0.22607 0.66166 0.0
C476 C 0.21574 0.2601 0.70316 0.0
C477 C 0.18149 0.26982 0.82998 0.0
C478 C 0.15202 0.29751 0.86441 0.0
C479 C 0.18095 0.30216 0.84565 0.0
C480 C 0.12341 0.26024 0.86606 0.0
C481 C 0.15273 0.23327 0.83293 0.0
C482 C 0.12381 0.2286 0.8505 0.0
C483 C 0.30974 0.31842 0.77413 0.0
C484 C 0.20944 0.27427 0.80732 0.0
C485 C 0.18801 0.11356 0.86652 0.0
C486 C 0.22608 0.1336 0.89122 0.0
C487 C 0.3169 0.23584 0.78428 0.0
C488 C 0.34856 0.22314 0.65744 0.0
C489 C 0.34959 0.1902 0.64423 0.0
C490 C 0.38 0.19334 0.62837 0.0
C491 C 0.40903 0.2304 0.62629 0.0
C492 C 0.37744 0.25928 0.65373 0.0
C493 C 0.4074 0.2628 0.63834 0.0
C494 C 0.22065 0.17976 0.70963 0.0
C495 C 0.32038 0.21954 0.6793 0.0
H496 H 0.20277 0.33061 0.84322 0.0
H497 H 0.10016 0.25551 0.87906 0.0
H498 H 0.15207 0.20822 0.82092 0.0
H499 H 0.10133 0.20023 0.85183 0.0
H500 H 0.32703 0.16235 0.647 0.0
H501 H 0.43394 0.23475 0.61633 0.0
H502 H 0.37755 0.28484 0.6638 0.0
H503 H 0.43013 0.2909 0.6366 0.0
Tb504 Tb 0.79143 0.21939 0.75747 0.0
C505 C 0.73655 0.32362 0.65566 0.0
C506 C 0.79267 0.38583 0.66395 0.0
C507 C 0.74023 0.36678 0.60296 0.0
C508 C 0.77278 0.35033 0.67867 0.0
C509 C 0.71948 0.33232 0.61814 0.0
C510 C 0.77678 0.39337 0.62571 0.0
C511 C 0.6602 0.27467 0.61495 0.0
N512 N 0.71663 0.29061 0.67111 0.0
C513 C 0.678 0.26726 0.65212 0.0
C514 C 0.68121 0.30703 0.59759 0.0
Tb515 Tb 0.74855 0.28435 0.73393 0.0
N516 N 0.78693 0.34304 0.71629 0.0
C517 C 0.81906 0.37137 0.74126 0.0
C518 C 0.827 0.41365 0.68869 0.0
C519 C 0.83981 0.40663 0.72766 0.0
H520 H 0.66115 0.24212 0.66522 0.0
H521 H 0.86562 0.42852 0.7474 0.0
H522 H 0.79183 0.42039 0.61401 0.0
H523 H 0.63015 0.25556 0.59988 0.0
H524 H 0.82956 0.36755 0.77178 0.0
H525 H 0.67359 0.08414 0.77306 0.0
H526 H 0.84299 0.44122 0.67844 0.0
H527 H 0.88721 0.26123 0.80978 0.0
H528 H 0.70462 0.14097 0.74 0.0
H529 H 0.92808 0.25199 0.87074 0.0
H530 H 0.72767 0.37372 0.57412 0.0
H531 H 0.70936 0.07394 0.83821 0.0
H532 H 0.77161 0.09569 0.89267 0.0
H533 H 0.66713 0.31295 0.5689 0.0
H534 H 0.84078 0.14133 0.9192 0.0
N535 N 0.75797 0.16571 0.78665 0.0
C536 C 0.72098 0.13822 0.7687 0.0
C537 C 0.72327 0.09968 0.82405 0.0
C538 C 0.76174 0.12664 0.84142 0.0
C539 C 0.70301 0.10531 0.7873 0.0
C540 C 0.77863 0.15965 0.82167 0.0
H541 H 0.89925 0.19929 0.91112 0.0
N542 N 0.8336 0.2152 0.81516 0.0
C543 C 0.897 0.23312 0.86158 0.0
C544 C 0.81767 0.18518 0.83638 0.0
C545 C 0.87323 0.23832 0.82673 0.0
C546 C 0.88063 0.20342 0.88432 0.0
C547 C 0.8407 0.17859 0.87154 0.0
O548 O 0.8132 0.21787 0.71006 0.0
O549 O 0.79287 0.2698 0.72841 0.0
O550 O 0.73512 0.24924 0.68099 0.0
O551 O 0.73539 0.19712 0.71301 0.0
O552 O 0.84529 0.26989 0.7552 0.0
O553 O 0.79189 0.1686 0.74189 0.0
O554 O 0.69058 0.26991 0.73237 0.0
O555 O 0.74062 0.22802 0.7546 0.0
O556 O 0.80988 0.25485 0.81192 0.0
O557 O 0.79672 0.30632 0.78722 0.0
O558 O 0.72819 0.26055 0.78514 0.0
O559 O 0.73908 0.32798 0.75352 0.0
C560 C 0.82923 0.29019 0.73569 0.0
C561 C 0.84075 0.17565 0.71304 0.0
C562 C 0.87085 0.15473 0.67478 0.0
C563 C 0.84011 0.162 0.67733 0.0
C564 C 0.90246 0.16122 0.70822 0.0
C565 C 0.87204 0.18157 0.74655 0.0
C566 C 0.9029 0.17446 0.74404 0.0
C567 C 0.72473 0.2124 0.6806 0.0
C568 C 0.80816 0.1831 0.71422 0.0
C569 C 0.82355 0.14672 0.89214 0.0
C570 C 0.78416 0.12077 0.87707 0.0
C571 C 0.72863 0.22824 0.78391 0.0
C572 C 0.67389 0.31664 0.75304 0.0
C573 C 0.68135 0.33348 0.78989 0.0
C574 C 0.65333 0.34206 0.79795 0.0
C575 C 0.61842 0.33496 0.76849 0.0
C576 C 0.63902 0.30937 0.7238 0.0
C577 C 0.6115 0.31893 0.73145 0.0
C578 C 0.81109 0.28899 0.81593 0.0
C579 C 0.70154 0.3047 0.74599 0.0
H580 H 0.81564 0.15687 0.65153 0.0
H581 H 0.92619 0.15508 0.70679 0.0
H582 H 0.87248 0.1913 0.7745 0.0
H583 H 0.92695 0.17884 0.76993 0.0
H584 H 0.70822 0.33871 0.81261 0.0
H585 H 0.59675 0.34217 0.77407 0.0
H586 H 0.63317 0.29636 0.69517 0.0
H587 H 0.5847 0.31366 0.70879 0.0
Tb588 Tb 0.75096 0.71691 0.70014 0.0
C589 C 0.86451 0.82214 0.84695 0.0
C590 C 0.86677 0.77813 0.89727 0.0
C591 C 0.92147 0.84122 0.904 0.0
C592 C 0.84746 0.7868 0.86101 0.0
C593 C 0.90136 0.85012 0.86863 0.0
C594 C 0.90419 0.80525 0.9183 0.0
C595 C 0.89369 0.89478 0.82114 0.0
N596 N 0.84378 0.82988 0.81315 0.0
C597 C 0.85704 0.86621 0.80102 0.0
C598 C 0.91621 0.88659 0.85485 0.0
Tb599 Tb 0.78392 0.78146 0.78243 0.0
N600 N 0.81094 0.76177 0.84026 0.0
C601 C 0.79115 0.72825 0.85559 0.0
C602 C 0.84738 0.74299 0.91192 0.0
C603 C 0.80922 0.71813 0.89117 0.0
H604 H 0.83972 0.8734 0.77561 0.0
H605 H 0.79354 0.69125 0.90267 0.0
H606 H 0.91956 0.79906 0.94612 0.0
H607 H 0.90436 0.92321 0.81083 0.0
H608 H 0.76143 0.70881 0.84055 0.0
H609 H 0.73955 0.80427 0.57791 0.0
H610 H 0.86118 0.73524 0.93967 0.0
H611 H 0.69276 0.62609 0.71223 0.0
H612 H 0.77224 0.78831 0.64096 0.0
H613 H 0.62815 0.5761 0.67794 0.0
H614 H 0.94989 0.86226 0.92101 0.0
H615 H 0.67222 0.75912 0.5414 0.0
H616 H 0.61436 0.69518 0.5362 0.0
H617 H 0.94439 0.9089 0.87065 0.0
H618 H 0.58416 0.63306 0.5633 0.0
N619 N 0.72324 0.73521 0.64192 0.0
C620 C 0.74261 0.76846 0.626 0.0
C621 C 0.68625 0.75209 0.56947 0.0
C622 C 0.66725 0.7173 0.5849 0.0
C623 C 0.72424 0.77762 0.58997 0.0
C624 C 0.68682 0.70956 0.62158 0.0
H625 H 0.58912 0.58841 0.616 0.0
N626 N 0.69044 0.66798 0.67137 0.0
C627 C 0.63942 0.6038 0.66614 0.0
C628 C 0.66986 0.67472 0.63675 0.0
C629 C 0.67621 0.63252 0.68564 0.0
C630 C 0.61747 0.61086 0.63121 0.0
C631 C 0.6328 0.64647 0.6158 0.0
O632 O 0.77157 0.67591 0.69915 0.0
O633 O 0.78944 0.73309 0.76088 0.0
O634 O 0.83636 0.79497 0.76462 0.0
O635 O 0.80399 0.76854 0.70032 0.0
O636 O 0.75174 0.6777 0.74585 0.0
O637 O 0.77571 0.71554 0.65469 0.0
O638 O 0.76421 0.82318 0.78424 0.0
O639 O 0.74586 0.76525 0.7218 0.0
O640 O 0.69862 0.7041 0.71748 0.0
O641 O 0.73137 0.72938 0.78187 0.0
O642 O 0.78365 0.8208 0.73639 0.0
O643 O 0.7571 0.78133 0.8265 0.0
C644 C 0.781 0.69978 0.77374 0.0
C645 C 0.77407 0.65592 0.63956 0.0
C646 C 0.79712 0.61717 0.6112 0.0
C647 C 0.80493 0.64994 0.63367 0.0
C648 C 0.75761 0.5907 0.59514 0.0
C649 C 0.73529 0.62959 0.62203 0.0
C650 C 0.72719 0.59718 0.60009 0.0
C651 C 0.83611 0.78882 0.7284 0.0
C652 C 0.78285 0.68696 0.66784 0.0
C653 C 0.61269 0.65435 0.57978 0.0
C654 C 0.62988 0.68972 0.56436 0.0
C655 C 0.75449 0.79835 0.70861 0.0
C656 C 0.75999 0.8408 0.84441 0.0
C657 C 0.72926 0.84727 0.85002 0.0
C658 C 0.7375 0.87853 0.87491 0.0
C659 C 0.77669 0.90292 0.8942 0.0
C660 C 0.79874 0.86513 0.8649 0.0
C661 C 0.80698 0.89601 0.88948 0.0
C662 C 0.69944 0.70784 0.75428 0.0
C663 C 0.75143 0.81096 0.8146 0.0
H664 H 0.83484 0.67061 0.64709 0.0
H665 H 0.74983 0.56429 0.57932 0.0
H666 H 0.71122 0.63347 0.62608 0.0
H667 H 0.6971 0.57649 0.58751 0.0
H668 H 0.69918 0.82879 0.83422 0.0
H669 H 0.78383 0.92717 0.91331 0.0
H670 H 0.82273 0.86069 0.86156 0.0
H671 H 0.83705 0.91488 0.90473 0.0
Cd672 Cd 0.98488 0.9655 0.54251 0.0
Cd673 Cd 0.05608 0.0377 0.45356 0.0
C674 C 0.03659 0.92345 0.56833 0.0
N675 N 1.00972 0.92439 0.53542 0.0
C676 C 0.03065 0.89493 0.49597 0.0
C677 C 0.0618 0.89853 0.52854 0.0
C678 C 0.06357 0.91103 0.56546 0.0
C679 C 1.00479 0.90876 0.50003 0.0
H680 H 0.03929 0.93563 0.59617 0.0
H681 H 0.98269 0.90948 0.4747 0.0
C682 C 0.96854 0.97527 0.43758 0.0
C683 C 1.00155 0.07542 0.42259 0.0
C684 C 0.97458 0.08901 0.42203 0.0
C685 C 0.97663 0.10592 0.45668 0.0
C686 C 1.00771 0.11197 0.49025 0.0
C687 C 0.0331 0.09621 0.49005 0.0
N688 N 0.0285 0.07728 0.45678 0.0
H689 H 0.99919 0.06077 0.39643 0.0
H690 H 0.05469 0.09709 0.51684 0.0
C691 C 0.06051 0.96328 0.43296 0.0
N692 N 0.08193 0.99548 0.4573 0.0
C693 C 0.13878 0.98502 0.47115 0.0
C694 C 0.11734 0.95119 0.4463 0.0
C695 C 0.07757 0.94054 0.42713 0.0
C696 C 0.12023 0.00665 0.4766 0.0
H697 H 0.03085 0.95649 0.41629 0.0
H698 H 0.13678 0.03331 0.49461 0.0
C699 C 0.07111 0.02101 0.55437 0.0
C700 C 0.94764 0.93032 0.59763 0.0
N701 N 0.96348 0.01118 0.53618 0.0
C702 C 0.98786 0.04461 0.55806 0.0
C703 C 0.97403 0.07073 0.56224 0.0
C704 C 0.9348 0.06244 0.54351 0.0
C705 C 0.91016 0.02721 0.52155 0.0
C706 C 0.92536 0.002 0.51783 0.0
C707 C 0.10004 0.07728 0.40446 0.0
O708 O 0.98132 0.97849 0.47457 0.0
O709 O 0.99153 0.99494 0.41761 0.0
O710 O 0.05362 0.01804 0.51828 0.0
O711 O 0.05088 0.00362 0.57741 0.0
O712 O 0.93365 0.91509 0.56249 0.0
O713 O 0.97797 0.96216 0.60578 0.0
O714 O 0.11313 0.08834 0.44095 0.0
O715 O 0.06668 0.04901 0.39184 0.0
H716 H 0.01756 0.05022 0.57373 0.0
H717 H 0.90647 0.97438 0.50193 0.0
H718 H 0.0282 0.88443 0.46737 0.0
H719 H 0.08711 0.91352 0.59124 0.0
H720 H 0.95109 0.08451 0.39548 0.0
H721 H 1.01051 0.12608 0.51694 0.0
H722 H 0.16945 0.99467 0.48652 0.0
H723 H 0.06005 0.91601 0.40607 0.0
H724 H 0.99364 0.09654 0.58115 0.0
H725 H 0.8795 0.01922 0.50735 0.0
Cd726 Cd 0.50445 0.94587 0.04442 0.0
Cd727 Cd 0.52184 0.03679 0.9311 0.0
C728 C 0.5901 0.94295 0.08837 0.0
N729 N 0.55412 0.92063 0.06374 0.0
C730 C 0.56972 0.8667 0.07314 0.0
C731 C 0.60682 0.88872 0.09978 0.0
C732 C 0.61672 0.92784 0.1062 0.0
C733 C 0.54401 0.88307 0.05567 0.0
H734 H 0.59788 0.97248 0.09548 0.0
H735 H 0.51513 0.86509 0.0369 0.0
C736 C 0.4708 0.94624 0.9407 0.0
C737 C 0.44322 0.05447 0.88183 0.0
C738 C 0.42182 0.07617 0.86899 0.0
C739 C 0.43476 0.11254 0.88743 0.0
C740 C 0.4685 0.12463 0.92004 0.0
C741 C 0.48883 0.10213 0.93195 0.0
N742 N 0.47662 0.06779 0.91262 0.0
H743 H 0.43372 0.0275 0.86608 0.0
H744 H 0.51539 0.1129 0.95608 0.0
C745 C 0.54376 0.98375 0.88286 0.0
N746 N 0.54982 0.99637 0.92015 0.0
C747 C 0.5986 0.97359 0.94449 0.0
C748 C 0.59423 0.96207 0.90608 0.0
C749 C 0.56579 0.96656 0.87517 0.0
C750 C 0.57615 0.99097 0.95088 0.0
H751 H 0.5231 0.98866 0.85879 0.0
H752 H 0.58119 0.00183 0.9802 0.0
C753 C 0.56179 0.04106 0.04164 0.0
C754 C 0.4627 0.90124 0.09561 0.0
N755 N 0.47412 0.98477 0.05601 0.0
C756 C 0.48427 0.00054 0.09302 0.0
C757 C 0.46469 0.01978 0.10226 0.0
C758 C 0.43422 0.02324 0.07329 0.0
C759 C 0.42529 0.00817 0.03489 0.0
C760 C 0.44548 0.98875 0.02693 0.0
C761 C 0.58092 0.08794 0.89717 0.0
O762 O 0.48924 0.95909 0.97587 0.0
O763 O 0.47314 0.96954 0.91382 0.0
O764 O 0.54984 0.04264 0.00452 0.0
O765 O 0.55126 0.00973 0.05811 0.0
O766 O 0.44653 0.89395 0.05857 0.0
O767 O 0.49772 0.92713 0.10698 0.0
O768 O 0.58674 0.08698 0.93416 0.0
O769 O 0.54647 0.06718 0.8758 0.0
H770 H 0.50688 -0.00279 0.1159 0.0
H771 H 0.43729 0.97578 -0.00227 0.0
H772 H 0.55958 0.8365 0.06687 0.0
H773 H 0.6448 0.94704 0.12535 0.0
H774 H 0.39638 0.06524 0.84364 0.0
H775 H 0.47983 0.15191 0.93607 0.0
H776 H 0.6207 0.97121 0.96901 0.0
H777 H 0.56179 0.95824 0.84512 0.0
H778 H 0.47262 0.031 0.13222 0.0
H779 H 0.40169 0.00973 0.01173 0.0
Cd780 Cd 1.00656 0.44863 0.04855 0.0
Cd781 Cd 0.03105 0.54573 0.93567 0.0
C782 C 0.06827 0.41787 0.1061 0.0
N783 N 0.05246 0.41913 0.06691 0.0
C784 C 0.08446 0.38328 0.0524 0.0
C785 C 0.10086 0.38127 0.09275 0.0
C786 C 0.09215 0.39898 0.11956 0.0
C787 C 0.06011 0.40195 0.04014 0.0
H788 H 0.0622 0.4314 0.12732 0.0
H789 H 0.04717 0.40243 0.00912 0.0
C790 C 0.97625 0.45657 0.94757 0.0
C791 C 0.95802 0.56585 0.87841 0.0
C792 C 0.93468 0.5853 0.86375 0.0
C793 C 0.93835 0.61618 0.88601 0.0
C794 C 0.96575 0.62546 0.92365 0.0
C795 C 0.98837 0.60509 0.93732 0.0
N796 N 0.98465 0.57584 0.9147 0.0
H797 H 0.95543 0.54322 0.86007 0.0
H798 H 1.00966 0.61343 0.96591 0.0
C799 C 0.04484 0.48572 0.88701 0.0
N800 N 0.05649 0.50279 0.92367 0.0
C801 C 0.10135 0.47484 0.94571 0.0
C802 C 0.09065 0.4578 0.90778 0.0
C803 C 0.06156 0.46321 0.87846 0.0
C804 C 0.0841 0.49752 0.95294 0.0
H805 H 0.02291 0.49008 0.86409 0.0
H806 H 0.09334 0.5115 0.98185 0.0
C807 C 0.06342 0.5429 0.04645 0.0
C808 C 0.95642 0.4043 0.09451 0.0
N809 N 0.97586 0.48819 0.05585 0.0
C810 C 0.98383 0.50483 0.09189 0.0
C811 C 0.96768 0.52918 0.09673 0.0
C812 C 0.94233 0.53632 0.06433 0.0
C813 C 0.9335 0.51762 0.0277 0.0
C814 C 0.95051 0.49366 0.02415 0.0
C815 C 0.08926 0.59778 0.89971 0.0
O816 O 1.00047 0.4683 0.98112 0.0
O817 O 0.97773 0.47984 0.92059 0.0
O818 O 0.05056 0.53993 0.00901 0.0
O819 O 0.05523 0.51357 0.06661 0.0
O820 O 0.94439 0.39693 0.0572 0.0
O821 O 0.99152 0.42932 0.10879 0.0
O822 O 0.09386 0.60254 0.93633 0.0
O823 O 0.05731 0.57065 0.88044 0.0
H824 H 1.00369 0.50006 0.11696 0.0
H825 H 0.9434 0.4795 -0.00409 0.0
H826 H 0.09005 0.37011 0.03038 0.0
H827 H 0.10439 0.39896 0.15085 0.0
H828 H 0.91472 0.57681 0.83446 0.0
H829 H 0.96985 0.64843 0.94262 0.0
H830 H 0.12367 0.47164 0.96927 0.0
H831 H 0.0518 0.45018 0.84897 0.0
H832 H 0.97599 0.54308 0.12551 0.0
H833 H 0.91349 0.52128 0.00189 0.0
Cd834 Cd 0.47384 0.45999 0.02161 0.0
Cd835 Cd 0.56316 0.54015 0.95137 0.0
C836 C 0.53193 0.42594 0.05451 0.0
N837 N 0.50587 0.42427 0.01968 0.0
C838 C 0.52795 0.38971 0.98776 0.0
C839 C 0.55838 0.39584 0.02206 0.0
C840 C 0.55924 0.41254 0.05621 0.0
C841 C 0.5021 0.40524 0.98688 0.0
H842 H 0.53294 0.43958 0.08059 0.0
H843 H 0.48037 0.40368 0.95984 0.0
C844 C 0.47539 0.48235 0.92307 0.0
C845 C 0.51163 0.58201 0.92456 0.0
C846 C 0.48402 0.5942 0.92566 0.0
C847 C 0.48311 0.60513 0.96199 0.0
C848 C 0.5125 0.60771 -0.004 0.0
C849 C 0.53935 0.59452 -0.00641 0.0
N850 N 0.53668 0.57999 0.95852 0.0
H851 H 0.51088 0.5711 0.89697 0.0
H852 H 0.56029 0.59341 0.01987 0.0
C853 C 0.55768 0.4607 0.92853 0.0
N854 N 0.58325 0.49373 0.95069 0.0
C855 C 0.63539 0.47612 0.96159 0.0
C856 C 0.60921 0.44108 0.93988 0.0
C857 C 0.57014 0.43402 0.92256 0.0
C858 C 0.62152 0.50202 0.96712 0.0
H859 H 0.52782 0.45535 0.91449 0.0
H860 H 0.64142 0.52919 0.98352 0.0
C861 C 0.55993 0.52234 0.04969 0.0
C862 C 0.43261 0.40999 0.06723 0.0
N863 N 0.44173 0.49711 0.01735 0.0
C864 C 0.46385 0.5311 0.03868 0.0
C865 C 0.44642 0.55236 0.04727 0.0
C866 C 0.40559 0.53895 0.03318 0.0
C867 C 0.38343 0.50398 0.01012 0.0
C868 C 0.40226 0.48323 0.00272 0.0
C869 C 0.6131 0.58889 0.91246 0.0
O870 O 0.48669 0.4835 0.96006 0.0
O871 O 0.50045 0.50269 0.9054 0.0
O872 O 0.55108 0.51851 0.01283 0.0
O873 O 0.53396 0.50246 0.06643 0.0
O874 O 0.42225 0.40078 0.03041 0.0
O875 O 0.46045 0.44264 0.0807 0.0
O876 O 0.62615 0.59022 0.94976 0.0
O877 O 0.57812 0.56541 0.89552 0.0
H878 H 0.49491 0.54075 0.051 0.0
H879 H 0.38531 0.45539 0.98694 0.0
H880 H 0.52586 0.37552 0.96145 0.0
H881 H 0.58198 0.41683 0.08338 0.0
H882 H 0.46177 0.59237 0.89886 0.0
H883 H 0.51264 0.61667 0.0243 0.0
H884 H 0.66596 0.48308 0.97481 0.0
H885 H 0.54938 0.40845 0.90371 0.0
H886 H 0.4649 0.57818 0.0664 0.0
H887 H 0.35198 0.49254 -0.00171 0.0
Cd888 Cd 1.00725 0.4527 0.55092 0.0
Cd889 Cd 0.03175 0.54777 0.43885 0.0
C890 C 0.08393 0.43471 0.60122 0.0
N891 N 0.05322 0.42319 0.56792 0.0
C892 C 0.06626 0.37032 0.55688 0.0
C893 C 0.09784 0.38052 0.59186 0.0
C894 C 0.10642 0.41411 0.61354 0.0
C895 C 0.04456 0.39161 0.54578 0.0
H896 H 0.09047 0.45943 0.61919 0.0
H897 H 0.01983 0.38208 0.51972 0.0
C898 C 0.97436 0.45887 0.44575 0.0
C899 C 0.95312 0.56329 0.39137 0.0
C900 C 0.9296 0.5828 0.37835 0.0
C901 C 0.93999 0.61878 0.39638 0.0
C902 C 0.97471 0.6329 0.42833 0.0
C903 C 0.99702 0.61228 0.44064 0.0
N904 N 0.98638 0.57808 0.42211 0.0
H905 H 0.94505 0.5365 0.3761 0.0
H906 H 0.02379 0.62445 0.46443 0.0
C907 C 0.05026 0.48301 0.4045 0.0
N908 N 0.06391 0.50944 0.43516 0.0
C909 C 0.12248 0.50118 0.45802 0.0
C910 C 0.10983 0.47494 0.42585 0.0
C911 C 0.07261 0.46498 0.39959 0.0
C912 C 0.09898 0.51808 0.46215 0.0
H913 H 0.02281 0.47711 0.3827 0.0
H914 H 0.10961 0.53952 0.48593 0.0
C915 C 0.06253 0.54613 0.54791 0.0
C916 C 0.95103 0.40092 0.58773 0.0
N917 N 0.97452 0.49035 0.55709 0.0
C918 C 0.97708 0.50371 0.59281 0.0
C919 C 0.95512 0.52291 0.59591 0.0
C920 C 0.93045 0.52901 0.56187 0.0
C921 C 0.92983 0.51613 0.52543 0.0
C922 C 0.95127 0.49627 0.5238 0.0
C923 C 0.07587 0.58761 0.38664 0.0
O924 O 0.99478 0.46681 0.48137 0.0
O925 O 0.98061 0.48528 0.4221 0.0
O926 O 0.04838 0.53888 0.5109 0.0
O927 O 0.05569 0.51911 0.57112 0.0
O928 O 0.94464 0.39705 0.55065 0.0
O929 O 0.98408 0.4268 0.60686 0.0
O930 O 0.08934 0.59899 0.4231 0.0
O931 O 0.04177 0.56 0.37546 0.0
H932 H 0.99556 0.49882 0.61912 0.0
H933 H 0.94838 0.48499 0.49564 0.0
H934 H 0.0571 0.34567 0.53767 0.0
H935 H 0.12973 0.42452 0.64056 0.0
H936 H 0.90366 0.56944 0.35397 0.0
H937 H 0.98608 0.6604 0.44363 0.0
H938 H 0.15096 0.50959 0.47902 0.0
H939 H 0.06194 0.44528 0.37415 0.0
H940 H 0.95666 0.53169 0.62486 0.0
H941 H 0.91249 0.52073 0.49801 0.0
Cd942 Cd 0.50483 0.95142 0.54873 0.0
Cd943 Cd 0.5302 0.0485 0.43166 0.0
C944 C 0.5784 0.93118 0.60096 0.0
N945 N 0.54938 0.91929 0.56628 0.0
C946 C 0.56541 0.86728 0.55865 0.0
C947 C 0.59538 0.87868 0.59468 0.0
C948 C 0.60159 0.91163 0.61543 0.0
C949 C 0.54294 0.88784 0.54507 0.0
H950 H 0.58302 0.9555 0.61828 0.0
H951 H 0.51964 0.87791 0.51785 0.0
C952 C 0.47523 0.95592 0.44112 0.0
C953 C 0.44828 0.0576 0.38864 0.0
C954 C 0.42209 0.07384 0.37452 0.0
C955 C 0.43198 0.11158 0.3869 0.0
C956 C 0.46914 0.13181 0.41386 0.0
C957 C 0.49455 0.11431 0.42752 0.0
N958 N 0.4839 0.07761 0.41495 0.0
H959 H 0.44031 0.029 0.37786 0.0
H960 H 0.52314 0.13048 0.44777 0.0
C961 C 0.5524 0.99183 0.38909 0.0
N962 N 0.56044 0.00917 0.42478 0.0
C963 C 0.60248 0.97996 0.45447 0.0
C964 C 0.59391 0.96111 0.41826 0.0
C965 C 0.56919 0.96787 0.3851 0.0
C966 C 0.58591 0.00445 0.45694 0.0
H967 H 0.53221 0.99587 0.36379 0.0
H968 H 0.59328 0.01935 0.48479 0.0
C969 C 0.56256 0.04281 0.53771 0.0
C970 C 0.45595 0.90978 0.59802 0.0
N971 N 0.4778 0.99407 0.55633 0.0
C972 C 0.48952 0.01395 0.59152 0.0
C973 C 0.4742 0.03902 0.59644 0.0
C974 C 0.44664 0.04395 0.56487 0.0
C975 C 0.43472 0.02293 0.529 0.0
C976 C 0.45039 -0.00226 0.52548 0.0
C977 C 0.57964 0.09288 0.38463 0.0
O978 O 0.49085 0.9646 0.47772 0.0
O979 O 0.48113 0.98165 0.41642 0.0
O980 O 0.54439 0.03444 0.50156 0.0
O981 O 0.55646 0.01688 0.56223 0.0
O982 O 0.44307 0.90105 0.56096 0.0
O983 O 0.49117 0.93511 0.61088 0.0
O984 O 0.59158 0.1005 0.42184 0.0
O985 O 0.54461 0.06756 0.37052 0.0
H986 H 0.51125 0.01077 0.61576 0.0
H987 H 0.44073 0.98128 0.49794 0.0
H988 H 0.5592 0.84252 0.54091 0.0
H989 H 0.62353 0.92175 0.64354 0.0
H990 H 0.39429 0.05694 0.35336 0.0
H991 H 0.47839 0.16077 0.42468 0.0
H992 H 0.62173 0.97569 0.48062 0.0
H993 H 0.56167 0.95354 0.35672 0.0
H994 H 0.48452 0.05514 0.6244 0.0
H995 H 0.4135 0.02597 0.50396 0.0
H996 H 0.19719 0.14001 0.28393 0.0
H997 H 0.14111 0.21434 0.26665 0.0
H998 H 0.10328 0.1798 0.31233 0.0
H999 H 0.09232 0.1331 0.36245 0.0
H1000 H 0.15256 0.06233 0.3834 0.0
H1001 H 0.18378 0.09126 0.33132 0.0
C1002 C 0.17536 0.14736 0.28904 0.0
C1003 C 0.17055 0.17844 0.27156 0.0
C1004 C 0.15599 0.1291 0.31695 0.0
C1005 C 0.14386 0.18944 0.27921 0.0
C1006 C 0.12299 0.17027 0.30576 0.0
C1007 C 0.11264 0.12453 0.35561 0.0
C1008 C 0.12149 0.09691 0.37677 0.0
C1009 C 0.13 0.14105 0.32582 0.0
C1010 C 0.1467 0.08463 0.36771 0.0
C1011 C 0.16396 0.1007 0.33781 0.0
H1012 H 0.81296 0.09774 0.41392 0.0
H1013 H 0.88299 0.21136 0.38803 0.0
H1014 H 0.93977 0.21355 0.43854 0.0
H1015 H 0.97402 0.17325 0.46147 0.0
H1016 H 0.90425 0.05149 0.45018 0.0
H1017 H 0.84519 0.05909 0.44237 0.0
C1018 C 0.84068 0.12337 0.42046 0.0
C1019 C 0.84562 0.15168 0.39365 0.0
C1020 C 0.87463 0.12067 0.4419 0.0
C1021 C 0.87925 0.18694 0.40542 0.0
C1022 C 0.9123 0.18788 0.4337 0.0
C1023 C 0.94592 0.1488 0.4588 0.0
C1024 C 0.94325 0.11195 0.45843 0.0
C1025 C 0.9114 0.15325 0.44757 0.0
C1026 C 0.90681 0.08 0.4529 0.0
C1027 C 0.87303 0.08442 0.4479 0.0
H1028 H 0.81538 0.87417 0.31224 0.0
H1029 H 0.89169 0.82771 0.29799 0.0
H1030 H 0.94274 0.86742 0.35424 0.0
H1031 H 0.96553 0.91504 0.40657 0.0
H1032 H 0.89386 0.96717 0.42041 0.0
H1033 H 0.83934 0.92365 0.36652 0.0
C1034 C 0.84387 0.87417 0.32082 0.0
C1035 C 0.85119 0.85026 0.29982 0.0
C1036 C 0.87264 0.89636 0.35404 0.0
C1037 C 0.88694 0.84829 0.31191 0.0
C1038 C 0.9155 0.86991 0.34492 0.0
C1039 C 0.93757 0.91606 0.39848 0.0
C1040 C 0.93285 0.94321 0.41719 0.0
C1041 C 0.90846 0.89369 0.36618 0.0
C1042 C 0.89715 0.94536 0.40651 0.0
C1043 C 0.86662 0.92127 0.37533 0.0
H1044 H 0.20194 0.89781 0.35891 0.0
H1045 H 0.08868 0.80041 0.33031 0.0
H1046 H 0.07242 0.82146 0.38364 0.0
H1047 H 0.08544 0.87434 0.42758 0.0
H1048 H 0.19372 0.97788 0.44427 0.0
H1049 H 0.21826 0.94672 0.40952 0.0
C1050 C 0.17413 0.8809 0.36518 0.0
C1051 C 0.14613 0.84825 0.34084 0.0
C1052 C 0.16427 0.8944 0.39399 0.0
C1053 C 0.1102 0.82605 0.34872 0.0
C1054 C 0.10103 0.83808 0.37907 0.0
C1055 C 0.11441 0.89021 0.42358 0.0
C1056 C 0.13665 0.92914 0.4367 0.0
C1057 C 0.12695 0.87342 0.40019 0.0
C1058 C 0.17529 0.9482 0.43391 0.0
C1059 C 0.18931 0.93054 0.41346 0.0
H1060 H 0.22448 0.90743 0.57318 0.0
H1061 H 0.15182 0.78968 0.5828 0.0
H1062 H 0.09795 0.7918 0.53089 0.0
H1063 H 0.06452 0.83327 0.51313 0.0
H1064 H 0.1343 0.9543 0.53963 0.0
H1065 H 0.19392 0.94791 0.54691 0.0
C1066 C 0.19712 0.88191 0.56227 0.0
C1067 C 0.18967 0.85041 0.58522 0.0
C1068 C 0.16422 0.88609 0.53993 0.0
C1069 C 0.1569 0.81595 0.56833 0.0
C1070 C 0.12548 0.81745 0.53935 0.0
C1071 C 0.09284 0.85804 0.5188 0.0
C1072 C 0.09541 0.89433 0.5242 0.0
C1073 C 0.12727 0.85341 0.52965 0.0
C1074 C 0.13198 0.92643 0.53351 0.0
C1075 C 0.16605 0.92264 0.53809 0.0
H1076 H 0.18711 0.17351 0.63319 0.0
H1077 H 0.19973 0.10636 0.73209 0.0
H1078 H 0.1623 0.04782 0.68754 0.0
H1079 H 0.12035 0.01757 0.62173 0.0
H1080 H 0.11107 0.08744 0.52445 0.0
H1081 H 0.15738 0.14486 0.56723 0.0
C1082 C 0.18278 0.14638 0.64514 0.0
C1083 C 0.19596 0.144 0.6856 0.0
C1084 C 0.16323 0.11404 0.61965 0.0
C1085 C 0.18891 0.10844 0.70091 0.0
C1086 C 0.16833 0.07535 0.67549 0.0
C1087 C 0.12985 0.0454 0.60979 0.0
C1088 C 0.11117 0.04916 0.57106 0.0
C1089 C 0.15486 0.07799 0.63491 0.0
C1090 C 0.12435 0.08449 0.55474 0.0
C1091 C 0.15018 0.11717 0.57926 0.0
H1092 H 0.92155 0.18443 0.63115 0.0
H1093 H 0.81515 0.08699 0.63695 0.0
H1094 H 0.82019 0.05136 0.58621 0.0
H1095 H 0.86376 0.04354 0.55451 0.0
H1096 H 0.97075 0.14087 0.54898 0.0
H1097 H 0.95593 0.18148 0.58434 0.0
C1098 C 0.89904 0.15576 0.62037 0.0
C1099 C 0.86876 0.13765 0.63812 0.0
C1100 C 0.90248 0.13543 0.59178 0.0
C1101 C 0.83904 0.10098 0.62378 0.0
C1102 C 0.84199 0.08066 0.59497 0.0
C1103 C 0.88317 0.07388 0.55959 0.0
C1104 C 0.91933 0.08874 0.55108 0.0
C1105 C 0.87492 0.09683 0.58071 0.0
C1106 C 0.94359 0.12836 0.55704 0.0
C1107 C 0.93517 0.15164 0.57725 0.0
H1108 H 0.87944 0.86461 0.73786 0.0
H1109 H 0.86624 0.76101 0.68639 0.0
H1110 H 0.90199 0.79734 0.64025 0.0
H1111 H 0.92583 0.85661 0.60777 0.0
H1112 H 0.93845 0.9604 0.65854 0.0
H1113 H 0.91327 0.92585 0.71214 0.0
C1114 C 0.88628 0.85037 0.71808 0.0
C1115 C 0.87058 0.8106 0.71524 0.0
C1116 C 0.905 0.87118 0.69064 0.0
C1117 C 0.87857 0.79193 0.68885 0.0
C1118 C 0.89827 0.81251 0.66213 0.0
C1119 C 0.92286 0.87142 0.63062 0.0
C1120 C 0.93227 0.91019 0.62905 0.0
C1121 C 0.90946 0.85175 0.66139 0.0
C1122 C 0.93015 0.93004 0.65919 0.0
C1123 C 0.91623 0.91051 0.68982 0.0
H1124 H 0.32414 0.06388 0.14294 0.0
H1125 H 0.34532 0.14998 0.05964 0.0
H1126 H 0.38738 0.1282 0.03914 0.0
H1127 H 0.41652 0.08238 0.04352 0.0
H1128 H 0.39596 -0.00214 0.12887 0.0
H1129 H 0.35544 0.02083 0.14966 0.0
C1130 C 0.3387 0.07836 0.12091 0.0
C1131 C 0.33227 0.10899 0.10339 0.0
C1132 C 0.36266 0.06551 0.10924 0.0
C1133 C 0.35055 0.12692 0.07419 0.0
C1134 C 0.37428 0.11417 0.06221 0.0
C1135 C 0.40317 0.06912 0.06668 0.0
C1136 C 0.4094 0.03838 0.08467 0.0
C1137 C 0.38026 0.08312 0.0792 0.0
C1138 C 0.39195 0.02166 0.11475 0.0
C1139 C 0.36871 0.0348 0.12667 0.0
H1140 H 0.87077 0.36161 0.22798 0.0
H1141 H 0.77494 0.28577 0.13441 0.0
H1142 H 0.81559 0.30781 0.08926 0.0
H1143 H 0.87975 0.34868 0.07666 0.0
H1144 H 0.97487 0.42457 0.17169 0.0
H1145 H 0.93338 0.40292 0.2154 0.0
C1146 C 0.85898 0.34963 0.19782 0.0
C1147 C 0.821 0.31992 0.18544 0.0
C1148 C 0.88243 0.36294 0.17194 0.0
C1149 C 0.80517 0.30639 0.14563 0.0
C1150 C 0.82825 0.31955 0.11951 0.0
C1151 C 0.89141 0.36022 0.10698 0.0
C1152 C 0.93058 0.38802 0.12074 0.0
C1153 C 0.86728 0.34744 0.13251 0.0
C1154 C 0.94503 0.4029 0.16015 0.0
C1155 C 0.92121 0.39079 0.18528 0.0
H1156 H 0.72875 0.83468 0.21613 0.0
H1157 H 0.66738 0.73849 0.13074 0.0
H1158 H 0.63101 0.77015 0.08955 0.0
H1159 H 0.61183 0.82294 0.07971 0.0
H1160 H 0.66389 0.91331 0.17192 0.0
H1161 H 0.70725 0.88651 0.20761 0.0
C1162 C 0.70866 0.82142 0.18768 0.0
C1163 C 0.70395 0.78544 0.17502 0.0
C1164 C 0.68481 0.83856 0.16548 0.0
C1165 C 0.67466 0.76743 0.1398 0.0
C1166 C 0.65282 0.78522 0.11658 0.0
C1167 C 0.63241 0.83707 0.10761 0.0
C1168 C 0.63411 0.87121 0.12185 0.0
C1169 C 0.65694 0.82053 0.12938 0.0
C1170 C 0.66181 0.88811 0.15852 0.0
C1171 C 0.68683 0.87243 0.17958 0.0
H1172 H 0.16317 0.67482 0.17521 0.0
H1173 H 0.23292 0.71797 0.09429 0.0
H1174 H 0.18133 0.66796 0.04353 0.0
H1175 H 0.12106 0.60588 0.02751 0.0
H1176 H 0.05799 0.56208 0.11453 0.0
H1177 H 0.10194 0.61875 0.15777 0.0
C1178 C 0.16657 0.67372 0.14611 0.0
C1179 C 0.20111 0.69905 0.13794 0.0
C1180 C 0.13812 0.64465 0.11855 0.0
C1181 C 0.20603 0.69803 0.1006 0.0
C1182 C 0.1768 0.66953 0.07195 0.0
C1183 C 0.11669 0.60949 0.05554 0.0
C1184 C 0.0867 0.58006 0.06813 0.0
C1185 C 0.14337 0.6417 0.08125 0.0
C1186 C 0.08102 0.58442 0.10444 0.0
C1187 C 0.10615 0.61675 0.12924 0.0
H1188 H 0.38893 0.79089 0.84636 0.0
H1189 H 0.29281 0.78435 0.88537 0.0
H1190 H 0.33759 0.83827 0.93347 0.0
H1191 H 0.40056 0.89715 0.95049 0.0
H1192 H 0.49484 0.90501 0.90735 0.0
H1193 H 0.45464 0.84082 0.87487 0.0
C1194 C 0.37784 0.80068 0.86591 0.0
C1195 C 0.33743 0.78623 0.86004 0.0
C1196 C 0.4035 0.83252 0.89224 0.0
C1197 C 0.32379 0.79703 0.88764 0.0
C1198 C 0.34933 0.82789 0.91512 0.0
C1199 C 0.41238 0.88408 0.93492 0.0
C1200 C 0.44984 0.90536 0.93022 0.0
C1201 C 0.38868 0.8477 0.91535 0.0
C1202 C 0.46555 0.8888 0.91041 0.0
C1203 C 0.44269 0.85223 0.89198 0.0
H1204 H 0.15488 0.36426 0.83178 0.0
H1205 H 0.14291 0.30397 0.93649 0.0
H1206 H 0.12592 0.34953 0.96091 0.0
H1207 H 0.10716 0.40261 0.94939 0.0
H1208 H 0.11811 0.46246 0.84427 0.0
H1209 H 0.14305 0.42183 0.82374 0.0
C1210 C 0.14945 0.36162 0.86032 0.0
C1211 C 0.14978 0.33026 0.88193 0.0
C1212 C 0.13882 0.38773 0.87402 0.0
C1213 C 0.14242 0.32742 0.91888 0.0
C1214 C 0.13256 0.35349 0.9329 0.0
C1215 C 0.11547 0.40709 0.92224 0.0
C1216 C 0.10986 0.43518 0.89805 0.0
C1217 C 0.12943 0.38311 0.91021 0.0
C1218 C 0.12106 0.44049 0.86303 0.0
C1219 C 0.13553 0.4173 0.85129 0.0
H1220 H 0.73634 0.19329 0.85167 0.0
H1221 H 0.65176 0.19545 0.74644 0.0
H1222 H 0.59845 0.14794 0.76964 0.0
H1223 H 0.57534 0.11137 0.82321 0.0
H1224 H 0.6592 0.11474 0.93222 0.0
H1225 H 0.71313 0.15404 0.9046 0.0
C1226 C 0.70627 0.18222 0.83347 0.0
C1227 C 0.69803 0.19539 0.79603 0.0
C1228 C 0.67555 0.15662 0.84828 0.0
C1229 C 0.65892 0.18296 0.77366 0.0
C1230 C 0.62834 0.15662 0.78749 0.0
C1231 C 0.60542 0.12062 0.84085 0.0
C1232 C 0.61329 0.11088 0.8799 0.0
C1233 C 0.63624 0.14393 0.82514 0.0
C1234 C 0.65241 0.12272 0.90233 0.0
C1235 C 0.68326 0.14502 0.88653 0.0
H1236 H 0.86127 0.73273 0.8241 0.0
H1237 H 0.76268 0.62491 0.77381 0.0
H1238 H 0.80118 0.59143 0.80035 0.0
H1239 H 0.86203 0.58988 0.83847 0.0
H1240 H 0.95986 0.69403 0.897 0.0
H1241 H 0.92245 0.73003 0.86911 0.0
C1242 C 0.84786 0.70193 0.8195 0.0
C1243 C 0.80823 0.68227 0.79598 0.0
C1244 C 0.87018 0.68129 0.83705 0.0
C1245 C 0.79263 0.64196 0.79094 0.0
C1246 C 0.81479 0.62215 0.80641 0.0
C1247 C 0.87562 0.62051 0.84512 0.0
C1248 C 0.9145 0.63864 0.86981 0.0
C1249 C 0.85357 0.64123 0.82947 0.0
C1250 C 0.93028 0.67855 0.87831 0.0
C1251 C 0.90876 0.69947 0.86202 0.0
H1252 H 0.24178 0.33441 0.14276 0.0
H1253 H 0.17676 0.26641 0.22105 0.0
H1254 H 0.12593 0.28785 0.19395 0.0
H1255 H 0.10162 0.32975 0.15031 0.0
H1256 H 0.16324 0.39145 0.06675 0.0
H1257 H 0.21226 0.36766 0.09214 0.0
C1258 C 0.21563 0.32282 0.15269 0.0
C1259 C 0.2128 0.29751 0.18316 0.0
C1260 C 0.18575 0.33458 0.13605 0.0
C1261 C 0.17935 0.28458 0.19676 0.0
C1262 C 0.15037 0.29735 0.18151 0.0
C1263 C 0.12562 0.33781 0.13743 0.0
C1264 C 0.12868 0.36312 0.10677 0.0
C1265 C 0.15349 0.32294 0.15154 0.0
C1266 C 0.15985 0.37239 0.09029 0.0
C1267 C 0.18815 0.35881 0.10497 0.0
H1268 H 0.23207 0.70993 0.83591 0.0
H1269 H 0.17336 0.61978 0.74318 0.0
H1270 H 0.12458 0.58328 0.77768 0.0
H1271 H 0.0961 0.57836 0.83158 0.0
H1272 H 0.15274 0.66813 0.92453 0.0
H1273 H 0.20392 0.70418 0.89186 0.0
C1274 C 0.20835 0.68258 0.82302 0.0
C1275 C 0.20533 0.66837 0.78596 0.0
C1276 C 0.17975 0.66192 0.84283 0.0
C1277 C 0.17566 0.63183 0.77097 0.0
C1278 C 0.14768 0.61099 0.79064 0.0
C1279 C 0.11953 0.6059 0.84472 0.0
C1280 C 0.12035 0.62061 0.88032 0.0
C1281 C 0.1489 0.62609 0.82606 0.0
C1282 C 0.15136 0.65609 0.89716 0.0
C1283 C 0.18073 0.67662 0.87855 0.0
H1284 H 0.39059 0.24889 0.82551 0.0
H1285 H 0.27315 0.15808 0.79336 0.0
H1286 H 0.29821 0.11217 0.82249 0.0
H1287 H 0.35521 0.09695 0.85416 0.0
H1288 H 0.47207 0.18983 0.88311 0.0
H1289 H 0.44573 0.23473 0.85812 0.0
C1290 C 0.37019 0.21911 0.82526 0.0
C1291 C 0.32972 0.2075 0.80735 0.0
C1292 C 0.38503 0.19269 0.84124 0.0
C1293 C 0.30422 0.16846 0.80727 0.0
C1294 C 0.31877 0.14198 0.82367 0.0
C1295 C 0.37499 0.12699 0.85509 0.0
C1296 C 0.41611 0.13938 0.8714 0.0
C1297 C 0.35937 0.15354 0.84019 0.0
C1298 C 0.44058 0.17882 0.87196 0.0
C1299 C 0.42545 0.20484 0.85729 0.0
H1300 H 0.87695 0.29404 0.87058 0.0
H1301 H 0.78794 0.33353 0.84623 0.0
H1302 H 0.83074 0.38798 0.89381 0.0
H1303 H 0.89863 0.43223 0.9271 0.0
H1304 H 0.98842 0.39402 0.95064 0.0
H1305 H 0.94025 0.33076 0.919 0.0
C1306 C 0.86647 0.31365 0.87687 0.0
C1307 C 0.83038 0.31102 0.85396 0.0
C1308 C 0.89171 0.34552 0.90339 0.0
C1309 C 0.81648 0.33606 0.86284 0.0
C1310 C 0.8409 0.36723 0.88986 0.0
C1311 C 0.90709 0.40946 0.92642 0.0
C1312 C 0.94647 0.41722 0.94002 0.0
C1313 C 0.8795 0.37368 0.9079 0.0
C1314 C 0.95785 0.38805 0.93985 0.0
C1315 C 0.93046 0.35213 0.92163 0.0
H1316 H 0.7261 0.94163 0.85653 0.0
H1317 H 0.67916 0.83425 0.90806 0.0
H1318 H 0.63143 0.8507 0.92404 0.0
H1319 H 0.60349 0.89674 0.92404 0.0
H1320 H 0.64875 0.00223 0.86869 0.0
H1321 H 0.69654 0.98576 0.85364 0.0
C1322 C 0.70509 0.92171 0.87088 0.0
C1323 C 0.70593 0.88668 0.8809 0.0
C1324 C 0.67751 0.93122 0.87946 0.0
C1325 C 0.67869 0.86114 0.89961 0.0
C1326 C 0.6516 0.8707 0.90896 0.0
C1327 C 0.62383 0.91593 0.90863 0.0
C1328 C 0.62265 0.95067 0.89743 0.0
C1329 C 0.65079 0.90577 0.8992 0.0
C1330 C 0.64904 0.97531 0.8774 0.0
C1331 C 0.67637 0.96589 0.86881 0.0
H1332 H 0.88675 0.66651 0.05824 0.0
H1333 H 0.88259 0.63397 0.17574 0.0
H1334 H 0.89982 0.58297 0.16656 0.0
H1335 H 0.92013 0.54988 0.12677 0.0
H1336 H 0.92885 0.58604 0.01115 0.0
H1337 H 0.90603 0.63308 0.01828 0.0
C1338 C 0.88989 0.64858 0.08212 0.0
C1339 C 0.88364 0.65478 0.11788 0.0
C1340 C 0.90087 0.6198 0.07706 0.0
C1341 C 0.88677 0.63008 0.14776 0.0
C1342 C 0.89704 0.60098 0.14267 0.0
C1343 C 0.91734 0.56815 0.10315 0.0
C1344 C 0.92647 0.56406 0.06844 0.0
C1345 C 0.90487 0.59599 0.1077 0.0
C1346 C 0.92166 0.58775 0.038 0.0
C1347 C 0.90885 0.61505 0.04216 0.0
H1348 H 0.40333 0.83966 0.24386 0.0
H1349 H 0.2913 0.79994 0.15679 0.0
H1350 H 0.32306 0.8299 0.10617 0.0
H1351 H 0.38366 0.86324 0.0854 0.0
H1352 H 0.49554 0.89958 0.17278 0.0
H1353 H 0.46307 0.87424 0.22394 0.0
C1354 C 0.38586 0.8381 0.21389 0.0
C1355 C 0.34498 0.81783 0.20437 0.0
C1356 C 0.40446 0.85391 0.18457 0.0
C1357 C 0.3227 0.81576 0.16535 0.0
C1358 C 0.34097 0.83252 0.1361 0.0
C1359 C 0.4008 0.86521 0.11558 0.0
C1360 C 0.44189 0.88281 0.12518 0.0
C1361 C 0.38192 0.85073 0.14516 0.0
C1362 C 0.46382 0.88589 0.16454 0.0
C1363 C 0.44534 0.87162 0.19392 0.0
H1364 H 0.66957 0.16376 0.17978 0.0
H1365 H 0.71425 0.23046 0.08883 0.0
H1366 H 0.66603 0.17767 0.03913 0.0
H1367 H 0.61177 0.11118 0.0234 0.0
H1368 H 0.57198 0.04747 0.11905 0.0
H1369 H 0.61714 0.10116 0.16521 0.0
C1370 C 0.66747 0.16746 0.14882 0.0
C1371 C 0.69323 0.20116 0.13721 0.0
C1372 C 0.64083 0.13747 0.12151 0.0
C1373 C 0.69317 0.20481 0.09771 0.0
C1374 C 0.66596 0.1747 0.06962 0.0
C1375 C 0.61285 0.10947 0.05425 0.0
C1376 C 0.58849 0.07548 0.06769 0.0
C1377 C 0.6396 0.14071 0.08133 0.0
C1378 C 0.59036 0.07323 0.10782 0.0
C1379 C 0.61618 0.10391 0.13442 0.0
H1380 H 0.70568 0.64964 0.79011 0.0
H1381 H 0.6303 0.70516 0.75558 0.0
H1382 H 0.59764 0.67403 0.80618 0.0
H1383 H 0.59634 0.63675 0.8643 0.0
H1384 H 0.67896 0.58968 0.90418 0.0
H1385 H 0.70605 0.61465 0.84869 0.0
C1386 C 0.68114 0.65376 0.79284 0.0
C1387 C 0.6695 0.67869 0.76917 0.0
C1388 C 0.66604 0.6395 0.82428 0.0
C1389 C 0.63854 0.68495 0.77306 0.0
C1390 C 0.62087 0.66816 0.80257 0.0
C1391 C 0.62097 0.63297 0.86114 0.0
C1392 C 0.63659 0.61251 0.88804 0.0
C1393 C 0.63566 0.64681 0.82927 0.0
C1394 C 0.66776 0.60664 0.88407 0.0
C1395 C 0.68239 0.61997 0.85203 0.0
H1396 H 0.31546 0.58517 0.91116 0.0
H1397 H 0.38172 0.70414 0.89856 0.0
H1398 H 0.43728 0.706 0.95079 0.0
H1399 H 0.4748 0.66854 0.97188 0.0
H1400 H 0.41275 0.54636 0.95133 0.0
H1401 H 0.35022 0.54847 0.93888 0.0
C1402 C 0.34187 0.61176 0.92111 0.0
C1403 C 0.34673 0.6428 0.89777 0.0
C1404 C 0.3761 0.61029 0.94376 0.0
C1405 C 0.37841 0.67839 0.91351 0.0
C1406 C 0.41085 0.67927 0.94273 0.0
C1407 C 0.44747 0.64262 0.96644 0.0
C1408 C 0.44782 0.60724 0.96405 0.0
C1409 C 0.41162 0.64452 0.95369 0.0
C1410 C 0.41262 0.5736 0.95488 0.0
C1411 C 0.37697 0.57491 0.94745 0.0
H1412 H 0.32226 0.33763 0.85006 0.0
H1413 H 0.35174 0.38444 0.7439 0.0
H1414 H 0.40263 0.44344 0.78139 0.0
H1415 H 0.44484 0.47655 0.84494 0.0
H1416 H 0.41864 0.4274 0.95146 0.0
H1417 H 0.35921 0.37447 0.91281 0.0
C1418 C 0.33942 0.36086 0.83495 0.0
C1419 C 0.33454 0.35623 0.79465 0.0
C1420 C 0.36908 0.39409 0.8567 0.0
C1421 C 0.35603 0.38696 0.77524 0.0
C1422 C 0.38498 0.4207 0.79657 0.0
C1423 C 0.42581 0.45454 0.8597 0.0
C1424 C 0.43631 0.45509 0.90078 0.0
C1425 C 0.39282 0.42375 0.83748 0.0
C1426 C 0.41117 0.4271 0.91972 0.0
C1427 C 0.37739 0.39684 0.8977 0.0
H1428 H 0.60834 0.31442 0.84716 0.0
H1429 H 0.7147 0.40792 0.83497 0.0
H1430 H 0.71681 0.44484 0.8895 0.0
H1431 H 0.67808 0.45604 0.92572 0.0
H1432 H 0.57034 0.36289 0.93609 0.0
H1433 H 0.57971 0.31978 0.8982 0.0
C1434 C 0.63247 0.34247 0.85733 0.0
C1435 C 0.6605 0.35929 0.83665 0.0
C1436 C 0.63293 0.36366 0.88787 0.0
C1437 C 0.69241 0.39502 0.85029 0.0
C1438 C 0.69352 0.41609 0.88127 0.0
C1439 C 0.65745 0.42602 0.92114 0.0
C1440 C 0.62248 0.41315 0.9317 0.0
C1441 C 0.66239 0.40167 0.89825 0.0
C1442 C 0.59663 0.37389 0.92656 0.0
C1443 C 0.6019 0.34918 0.90483 0.0
H1444 H 0.72233 0.40496 0.0734 0.0
H1445 H 0.65113 0.29027 0.09544 0.0
H1446 H 0.59575 0.28842 0.04273 0.0
H1447 H 0.56172 0.32866 0.01808 0.0
H1448 H 0.63102 0.45051 0.03156 0.0
H1449 H 0.69075 0.44341 0.04283 0.0
C1450 C 0.69484 0.37912 0.06526 0.0
C1451 C 0.68884 0.35004 0.09119 0.0
C1452 C 0.66135 0.38174 0.04225 0.0
C1453 C 0.65546 0.31488 0.07821 0.0
C1454 C 0.62324 0.31418 0.04874 0.0
C1455 C 0.58995 0.35326 0.02196 0.0
C1456 C 0.59231 0.39002 0.02194 0.0
C1457 C 0.62454 0.34898 0.03493 0.0
C1458 C 0.62882 0.4221 0.02915 0.0
C1459 C 0.66295 0.41796 0.03608 0.0
H1460 H 0.72089 0.63473 0.16016 0.0
H1461 H 0.64318 0.66514 0.19824 0.0
H1462 H 0.58732 0.62023 0.14913 0.0
H1463 H 0.56066 0.57213 0.09618 0.0
H1464 H 0.636 0.54205 0.05305 0.0
H1465 H 0.69376 0.58871 0.10207 0.0
C1466 C 0.69146 0.63046 0.15808 0.0
C1467 C 0.68526 0.6505 0.18474 0.0
C1468 C 0.65972 0.60591 0.12818 0.0
C1469 C 0.6478 0.64703 0.18076 0.0
C1470 C 0.61611 0.62243 0.15167 0.0
C1471 C 0.58984 0.57608 0.09743 0.0
C1472 C 0.59481 0.554 0.07216 0.0
C1473 C 0.62181 0.60166 0.12558 0.0
C1474 C 0.63225 0.55935 0.07273 0.0
C1475 C 0.66488 0.58545 0.10086 0.0
H1476 H 0.33167 0.59416 0.13325 0.0
H1477 H 0.43984 0.69579 0.14471 0.0
H1478 H 0.4504 0.67135 0.08915 0.0
H1479 H 0.43487 0.61623 0.04708 0.0
H1480 H 0.33319 0.50998 0.04649 0.0
H1481 H 0.3122 0.54178 0.08514 0.0
C1482 C 0.35706 0.61108 0.12284 0.0
C1483 C 0.38534 0.64612 0.14283 0.0
C1484 C 0.36381 0.59598 0.0926 0.0
C1485 C 0.41814 0.66839 0.12961 0.0
C1486 C 0.42406 0.65445 0.098 0.0
C1487 C 0.40813 0.59988 0.05544 0.0
C1488 C 0.38685 0.56022 0.04555 0.0
C1489 C 0.39812 0.6174 0.08079 0.0
C1490 C 0.35078 0.5403 0.05417 0.0
C1491 C 0.33894 0.55836 0.07685 0.0
H1492 H 0.35761 0.2784 0.16962 0.0
H1493 H 0.37976 0.37432 0.24273 0.0
H1494 H 0.4141 0.41835 0.19979 0.0
H1495 H 0.42887 0.42884 0.13653 0.0
H1496 H 0.39957 0.33255 0.05949 0.0
H1497 H 0.37504 0.28879 0.10824 0.0
C1498 C 0.37055 0.30899 0.17652 0.0
C1499 C 0.36564 0.3232 0.20888 0.0
C1500 C 0.38749 0.33378 0.15022 0.0
C1501 C 0.38323 0.3627 0.21816 0.0
C1502 C 0.40224 0.38786 0.19315 0.0
C1503 C 0.41707 0.39823 0.1305 0.0
C1504 C 0.41523 0.38354 0.09456 0.0
C1505 C 0.40285 0.37357 0.15824 0.0
C1506 C 0.40018 0.34409 0.08677 0.0
C1507 C 0.38677 0.31928 0.11473 0.0
H1508 H 0.79599 0.57884 0.54834 0.0
H1509 H 0.8719 0.63758 0.66105 0.0
H1510 H 0.92115 0.61915 0.6538 0.0
H1511 H 0.94065 0.58178 0.61801 0.0
H1512 H 0.85847 0.51479 0.51086 0.0
H1513 H 0.81419 0.54074 0.51399 0.0
C1514 C 0.82288 0.58721 0.57191 0.0
C1515 C 0.8293 0.60913 0.6056 0.0
C1516 C 0.85031 0.5748 0.56866 0.0
C1517 C 0.8656 0.62095 0.63457 0.0
C1518 C 0.89383 0.61001 0.63069 0.0
C1519 C 0.91295 0.57241 0.59546 0.0
C1520 C 0.90375 0.54631 0.56403 0.0
C1521 C 0.88611 0.58609 0.59828 0.0
C1522 C 0.86765 0.53551 0.53491 0.0
C1523 C 0.84172 0.55004 0.53684 0.0
H1524 H 0.37387 0.8713 0.73508 0.0
H1525 H 0.27954 0.78773 0.64632 0.0
H1526 H 0.31799 0.80963 0.59936 0.0
H1527 H 0.38031 0.85188 0.58377 0.0
H1528 H 0.47537 0.93364 0.67442 0.0
H1529 H 0.43537 0.91322 0.71971 0.0
C1530 C 0.36174 0.85806 0.70538 0.0
C1531 C 0.3248 0.82636 0.69515 0.0
C1532 C 0.38441 0.87062 0.67853 0.0
C1533 C 0.30894 0.81028 0.65612 0.0
C1534 C 0.33081 0.82328 0.62888 0.0
C1535 C 0.39226 0.86513 0.61344 0.0
C1536 C 0.43098 0.89436 0.62541 0.0
C1537 C 0.36904 0.85294 0.63996 0.0
C1538 C 0.44583 0.91104 0.66415 0.0
C1539 C 0.42282 0.89961 0.69018 0.0
H1540 H 0.16116 0.25261 0.63295 0.0
H1541 H 0.2424 0.33438 0.7298 0.0
H1542 H 0.21395 0.37849 0.70496 0.0
H1543 H 0.16354 0.39252 0.65754 0.0
H1544 H 0.08487 0.31063 0.55836 0.0
H1545 H 0.11583 0.26994 0.5815 0.0
C1546 C 0.17367 0.28068 0.64789 0.0
C1547 C 0.20501 0.29036 0.68269 0.0
C1548 C 0.15732 0.30632 0.63306 0.0
C1549 C 0.21951 0.32645 0.70224 0.0
C1550 C 0.20274 0.3516 0.6882 0.0
C1551 C 0.15252 0.366 0.64041 0.0
C1552 C 0.1201 0.35587 0.60585 0.0
C1553 C 0.1711 0.34168 0.65382 0.0
C1554 C 0.10853 0.32078 0.58504 0.0
C1555 C 0.12653 0.29667 0.59838 0.0
H1556 H 0.70804 0.19914 0.60125 0.0
H1557 H 0.66027 0.16871 0.69995 0.0
H1558 H 0.60126 0.1176 0.66083 0.0
H1559 H 0.56914 0.07498 0.60333 0.0
H1560 H 0.61647 0.09732 0.50434 0.0
H1561 H 0.66964 0.15853 0.53792 0.0
C1562 C 0.68408 0.18173 0.61343 0.0
C1563 C 0.68788 0.18735 0.65323 0.0
C1564 C 0.65074 0.15073 0.59086 0.0
C1565 C 0.65724 0.16495 0.66929 0.0
C1566 C 0.62373 0.13552 0.64701 0.0
C1567 C 0.59085 0.09352 0.5889 0.0
C1568 C 0.59015 0.08183 0.55243 0.0
C1569 C 0.62109 0.12717 0.60851 0.0
C1570 C 0.61733 0.1061 0.53305 0.0
C1571 C 0.64762 0.14077 0.55226 0.0
H1572 H 0.85435 0.28717 0.38974 0.0
H1573 H 0.84263 0.34283 0.2817 0.0
H1574 H 0.88413 0.40467 0.31616 0.0
H1575 H 0.9243 0.44256 0.37499 0.0
H1576 H 0.9524 0.39116 0.48262 0.0
H1577 H 0.9023 0.32781 0.45129 0.0
C1578 C 0.86157 0.31303 0.37419 0.0
C1579 C 0.84578 0.31096 0.3334 0.0
C1580 C 0.88735 0.34895 0.39427 0.0
C1581 C 0.85509 0.34408 0.31295 0.0
C1582 C 0.87833 0.37945 0.33269 0.0
C1583 C 0.91981 0.4177 0.39201 0.0
C1584 C 0.94177 0.42137 0.43106 0.0
C1585 C 0.8946 0.3821 0.37312 0.0
C1586 C 0.93507 0.38886 0.4526 0.0
C1587 C 0.90704 0.35275 0.43449 0.0
H1588 H 0.63048 0.82002 0.41795 0.0
H1589 H 0.68349 0.88087 0.32799 0.0
H1590 H 0.67118 0.93402 0.3409 0.0
H1591 H 0.6382 0.96047 0.372 0.0
H1592 H 0.58161 0.89756 0.45839 0.0
H1593 H 0.60043 0.84718 0.45084 0.0
C1594 C 0.63878 0.84438 0.40036 0.0
C1595 C 0.65705 0.84524 0.37108 0.0
C1596 C 0.63007 0.87437 0.40666 0.0
C1597 C 0.66938 0.87861 0.35065 0.0
C1598 C 0.6619 0.90913 0.35768 0.0
C1599 C 0.6303 0.93578 0.38927 0.0
C1600 C 0.60844 0.93254 0.41557 0.0
C1601 C 0.64117 0.90683 0.38468 0.0
C1602 C 0.59864 0.9007 0.43815 0.0
C1603 C 0.60931 0.87189 0.43375 0.0
H1604 H 0.14395 0.64722 0.2424 0.0
H1605 H 0.24597 0.71707 0.33485 0.0
H1606 H 0.21304 0.68493 0.38421 0.0
H1607 H 0.15241 0.641 0.40087 0.0
H1608 H 0.05078 0.57039 0.30785 0.0
H1609 H 0.08631 0.59829 0.25935 0.0
C1610 C 0.15916 0.65468 0.27343 0.0
C1611 C 0.19741 0.68412 0.28492 0.0
C1612 C 0.13982 0.6363 0.30167 0.0
C1613 C 0.21689 0.69391 0.32513 0.0
C1614 C 0.19781 0.67582 0.35347 0.0
C1615 C 0.13809 0.63178 0.37 0.0
C1616 C 0.09866 0.60443 0.35799 0.0
C1617 C 0.15883 0.64773 0.34203 0.0
C1618 C 0.08084 0.59204 0.31793 0.0
C1619 C 0.10115 0.60784 0.29007 0.0
H1620 H 0.28358 0.14471 0.31673 0.0
H1621 H 0.37079 0.25403 0.29853 0.0
H1622 H 0.4228 0.2355 0.33251 0.0
H1623 H 0.44325 0.18491 0.36261 0.0
H1624 H 0.35364 0.07588 0.37911 0.0
H1625 H 0.30369 0.09748 0.35106 0.0
C1626 C 0.31404 0.16484 0.32075 0.0
C1627 C 0.32293 0.20089 0.30505 0.0
C1628 C 0.34371 0.15363 0.33972 0.0
C1629 C 0.36275 0.22633 0.31054 0.0
C1630 C 0.39259 0.21548 0.32976 0.0
C1631 C 0.41286 0.16598 0.36047 0.0
C1632 C 0.40265 0.12812 0.37254 0.0
C1633 C 0.38348 0.17872 0.34376 0.0
C1634 C 0.3628 0.10455 0.36938 0.0
C1635 C 0.33398 0.11702 0.35343 0.0
H1636 H 0.67317 0.76381 0.66193 0.0
H1637 H 0.7742 0.87284 0.70116 0.0
H1638 H 0.73552 0.90592 0.67247 0.0
H1639 H 0.67359 0.9064 0.63646 0.0
H1640 H 0.57242 0.80003 0.58969 0.0
H1641 H 0.61041 0.7648 0.61872 0.0
C1642 C 0.68699 0.79474 0.66362 0.0
C1643 C 0.72738 0.81514 0.68465 0.0
C1644 C 0.66437 0.81478 0.64509 0.0
C1645 C 0.74365 0.85551 0.68596 0.0
C1646 C 0.72138 0.87496 0.6693 0.0
C1647 C 0.65942 0.87548 0.63262 0.0
C1648 C 0.61945 0.85649 0.61099 0.0
C1649 C 0.68171 0.85517 0.64899 0.0
C1650 C 0.60285 0.81614 0.60598 0.0
C1651 C 0.62471 0.7957 0.62293 0.0
H1652 H 0.66612 0.13809 0.25151 0.0
H1653 H 0.76137 0.21356 0.34575 0.0
H1654 H 0.72058 0.19004 0.39092 0.0
H1655 H 0.65627 0.14853 0.40301 0.0
H1656 H 0.5618 0.07292 0.30739 0.0
H1657 H 0.60362 0.09548 0.26391 0.0
C1658 C 0.67767 0.1496 0.28187 0.0
C1659 C 0.71549 0.1795 0.29454 0.0
C1660 C 0.65422 0.13544 0.30771 0.0
C1661 C 0.73125 0.19254 0.33451 0.0
C1662 C 0.70811 0.17859 0.36056 0.0
C1663 C 0.64483 0.1372 0.37262 0.0
C1664 C 0.60567 0.10935 0.35855 0.0
C1665 C 0.66918 0.15046 0.34731 0.0
C1666 C 0.59156 0.0947 0.3191 0.0
C1667 C 0.61557 0.10732 0.29413 0.0
H1668 H 0.87143 0.7422 0.35507 0.0
H1669 H 0.79592 0.66317 0.25452 0.0
H1670 H 0.82673 0.62067 0.27865 0.0
H1671 H 0.87825 0.60789 0.32683 0.0
H1672 H 0.94439 0.68256 0.43341 0.0
H1673 H 0.91327 0.72318 0.40903 0.0
C1674 C 0.85995 0.71465 0.33947 0.0
C1675 C 0.82971 0.70541 0.30377 0.0
C1676 C 0.87687 0.68948 0.35438 0.0
C1677 C 0.81769 0.67057 0.28286 0.0
C1678 C 0.83582 0.64638 0.29651 0.0
C1679 C 0.886 0.63257 0.3455 0.0
C1680 C 0.91614 0.64183 0.38193 0.0
C1681 C 0.86597 0.65571 0.33216 0.0
C1682 C 0.92381 0.67443 0.40458 0.0
C1683 C 0.90529 0.69802 0.39081 0.0
H1684 H 0.3835 0.80941 0.33242 0.0
H1685 H 0.29128 0.80245 0.37817 0.0
H1686 H 0.33915 0.85364 0.42907 0.0
H1687 H 0.40511 0.90795 0.45077 0.0
H1688 H 0.49402 0.91737 0.39795 0.0
H1689 H 0.45006 0.85658 0.35992 0.0
C1690 C 0.37435 0.81769 0.35492 0.0
C1691 C 0.33475 0.8022 0.35276 0.0
C1692 C 0.40142 0.84786 0.38216 0.0
C1693 C 0.32217 0.81423 0.38023 0.0
C1694 C 0.34936 0.84347 0.40891 0.0
C1695 C 0.41484 0.89575 0.43179 0.0
C1696 C 0.45203 0.91643 0.42639 0.0
C1697 C 0.38878 0.86171 0.40883 0.0
C1698 C 0.46508 0.90146 0.4018 0.0
C1699 C 0.44006 0.86691 0.38019 0.0
H1700 H 0.24619 0.45089 0.39134 0.0
H1701 H 0.16027 0.33288 0.37562 0.0
H1702 H 0.11296 0.35153 0.38883 0.0
H1703 H 0.09663 0.40189 0.40686 0.0
H1704 H 0.18451 0.51926 0.42435 0.0
H1705 H 0.23031 0.50037 0.40889 0.0
C1706 C 0.21715 0.42914 0.3909 0.0
C1707 C 0.20698 0.39046 0.38259 0.0
C1708 C 0.19041 0.44002 0.39915 0.0
C1709 C 0.16887 0.36287 0.38148 0.0
C1710 C 0.14188 0.37353 0.38936 0.0
C1711 C 0.12584 0.42322 0.4073 0.0
C1712 C 0.13726 0.46194 0.41724 0.0
C1713 C 0.15239 0.41205 0.39853 0.0
C1714 C 0.1752 0.48924 0.41762 0.0
C1715 C 0.20137 0.47848 0.4085 0.0
H1716 H 0.41293 0.18653 0.57182 0.0
H1717 H 0.35449 0.12098 0.65642 0.0
H1718 H 0.36676 0.0682 0.64172 0.0
H1719 H 0.40067 0.04284 0.61031 0.0
H1720 H 0.46145 0.10983 0.52844 0.0
H1721 H 0.44356 0.1604 0.53826 0.0
C1722 C 0.40329 0.16113 0.58777 0.0
C1723 C 0.38353 0.15888 0.61617 0.0
C1724 C 0.41172 0.13116 0.58026 0.0
C1725 C 0.36975 0.12432 0.63452 0.0
C1726 C 0.37718 0.094 0.62644 0.0
C1727 C 0.40966 0.06844 0.59447 0.0
C1728 C 0.43249 0.07273 0.56878 0.0
C1729 C 0.39913 0.09748 0.60025 0.0
C1730 C 0.44373 0.10584 0.54817 0.0
C1731 C 0.43355 0.13478 0.55387 0.0
H1732 H 0.81386 0.28568 0.65623 0.0
H1733 H 0.89227 0.35729 0.76128 0.0
H1734 H 0.93501 0.40013 0.72349 0.0
H1735 H 0.95394 0.41294 0.66274 0.0
H1736 H 0.88041 0.33793 0.55833 0.0
H1737 H 0.83227 0.30012 0.59365 0.0
C1738 C 0.8398 0.31127 0.67041 0.0
C1739 C 0.84952 0.31922 0.71117 0.0
C1740 C 0.86563 0.33434 0.64886 0.0
C1741 C 0.88398 0.35133 0.72977 0.0
C1742 C 0.90854 0.37552 0.70827 0.0
C1743 C 0.92741 0.38831 0.64758 0.0
C1744 C 0.92109 0.37795 0.60812 0.0
C1745 C 0.90036 0.36657 0.66814 0.0
C1746 C 0.88618 0.34632 0.58883 0.0
C1747 C 0.8586 0.32478 0.60899 0.0
H1748 H 0.1435 0.69335 0.65781 0.0
H1749 H 0.23549 0.71605 0.60421 0.0
H1750 H 0.19071 0.66287 0.55481 0.0
H1751 H 0.1295 0.60196 0.53647 0.0
H1752 H 0.0422 0.57694 0.59747 0.0
H1753 H 0.08104 0.63856 0.63502 0.0
C1754 C 0.15383 0.68698 0.63528 0.0
C1755 C 0.19337 0.70641 0.63641 0.0
C1756 C 0.12872 0.65541 0.60871 0.0
C1757 C 0.20553 0.69966 0.60523 0.0
C1758 C 0.17999 0.66934 0.57703 0.0
C1759 C 0.11889 0.61069 0.55738 0.0
C1760 C 0.08357 0.58537 0.56483 0.0
C1761 C 0.14223 0.64554 0.58009 0.0
C1762 C 0.06967 0.59623 0.59189 0.0
C1763 C 0.09173 0.63138 0.61318 0.0
loop_
_geom_bond_atom_site_label_1
_geom_bond_atom_site_label_2
_geom_bond_distance
_geom_bond_site_symmetry_2
_ccdc_geom_bond_type
Tb0 N31 2.660 . S
Tb0 N38 2.600 . S
Tb0 O44 2.546 . S
Tb0 O45 2.610 . S
Tb0 O47 2.320 . S
Tb0 O48 2.552 . S
Tb0 O49 2.413 . S
Tb0 O51 2.362 . S
Tb0 O52 2.421 . S
Tb0 C64 2.833 . S
C1 C4 1.432 . S
C1 C5 1.414 . S
C1 N8 1.359 . S
C2 C4 1.417 . S
C2 C6 1.432 . S
C2 C14 1.410 . S
C3 C5 1.444 . S
C3 C6 1.317 . S
C3 H26 0.929 . S
C4 C1 1.432 . S
C4 C2 1.417 . S
C4 N12 1.360 . S
C5 C1 1.414 . S
C5 C3 1.444 . S
C5 C10 1.385 . S
C6 C2 1.432 . S
C6 C3 1.317 . S
C6 H18 0.930 . S
C7 C9 1.392 . S
C7 C10 1.370 . S
C7 H19 0.931 . S
N8 C1 1.359 . S
N8 C9 1.327 . S
N8 Tb11 2.600 . S
C9 C7 1.392 . S
C9 N8 1.327 . S
C9 H16 0.930 . S
C10 C5 1.385 . S
C10 C7 1.370 . S
C10 H29 0.930 . S
Tb11 N8 2.600 . S
Tb11 N12 2.660 . S
Tb11 O45 2.362 . S
Tb11 O46 2.421 . S
Tb11 O50 2.546 . S
Tb11 O51 2.610 . S
Tb11 O53 2.320 . S
Tb11 O54 2.552 . S
Tb11 O55 2.413 . S
Tb11 C75 2.833 . S
N12 C4 1.360 . S
N12 Tb11 2.660 . S
N12 C13 1.305 . S
C13 N12 1.305 . S
C13 C15 1.407 . S
C13 H20 0.930 . S
C14 C2 1.410 . S
C14 C15 1.345 . S
C14 H22 0.930 . S
C15 C13 1.407 . S
C15 C14 1.345 . S
C15 H17 0.930 . S
H16 C9 0.930 . S
H17 C15 0.930 . S
H18 C6 0.930 . S
H19 C7 0.931 . S
H20 C13 0.930 . S
H21 C35 0.930 . S
H22 C14 0.930 . S
H23 C41 0.930 . S
H24 C32 0.930 . S
H25 C39 0.931 . S
H26 C3 0.929 . S
H27 C33 0.930 . S
H28 C66 0.930 . S
H29 C10 0.930 . S
H30 C65 0.929 . S
N31 Tb0 2.660 . S
N31 C32 1.305 . S
N31 C36 1.360 . S
C32 H24 0.930 . S
C32 N31 1.305 . S
C32 C35 1.407 . S
C33 H27 0.930 . S
C33 C34 1.410 . S
C33 C35 1.345 . S
C34 C33 1.410 . S
C34 C36 1.417 . S
C34 C66 1.432 . S
C35 H21 0.930 . S
C35 C32 1.407 . S
C35 C33 1.345 . S
C36 N31 1.360 . S
C36 C34 1.417 . S
C36 C40 1.432 . S
H37 C42 0.930 . S
N38 Tb0 2.600 . S
N38 C40 1.359 . S
N38 C41 1.327 . S
C39 H25 0.931 . S
C39 C41 1.392 . S
C39 C42 1.370 . S
C40 C36 1.432 . S
C40 N38 1.359 . S
C40 C43 1.414 . S
C41 H23 0.930 . S
C41 N38 1.327 . S
C41 C39 1.392 . S
C42 H37 0.930 . S
C42 C39 1.370 . S
C42 C43 1.385 . S
C43 C40 1.414 . S
C43 C42 1.385 . S
C43 C65 1.444 . S
O44 Tb0 2.546 . S
O44 C64 1.251 . S
O45 Tb0 2.610 . S
O45 Tb11 2.362 . S
O45 C56 1.283 . S
O46 Tb11 2.421 . S
O46 C63 1.262 . S
O47 Tb0 2.320 . S
O47 C63 1.260 . S
O48 Tb0 2.552 . S
O48 C56 1.243 . S
O49 Tb0 2.413 . S
O49 C64 1.256 . S
O50 Tb11 2.546 . S
O50 C75 1.251 . S
O51 Tb0 2.362 . S
O51 Tb11 2.610 . S
O51 C67 1.283 . S
O52 Tb0 2.421 . S
O52 C74 1.262 . S
O53 Tb11 2.320 . S
O53 C74 1.260 . S
O54 Tb11 2.552 . S
O54 C67 1.243 . S
O55 Tb11 2.413 . S
O55 C75 1.256 . S
C56 O45 1.283 . S
C56 O48 1.243 . S
C57 C59 1.382 . S
C57 C61 1.393 . S
C57 C64 1.500 . S
C58 C59 1.400 . S
C58 C60 1.384 . S
C59 C57 1.382 . S
C59 C58 1.400 . S
C59 H76 0.930 . S
C60 C58 1.384 . S
C60 C62 1.392 . S
C60 H77 0.931 . S
C61 C57 1.393 . S
C61 C62 1.401 . S
C61 H78 0.930 . S
C62 C60 1.392 . S
C62 C61 1.401 . S
C62 H79 0.930 . S
C63 O46 1.262 . S
C63 O47 1.260 . S
C64 Tb0 2.833 . S
C64 O44 1.251 . S
C64 O49 1.256 . S
C64 C57 1.500 . S
C65 H30 0.929 . S
C65 C43 1.444 . S
C65 C66 1.317 . S
C66 H28 0.930 . S
C66 C34 1.432 . S
C66 C65 1.317 . S
C67 O51 1.283 . S
C67 O54 1.243 . S
C68 C69 1.382 . S
C68 C72 1.393 . S
C68 C75 1.500 . S
C69 C68 1.382 . S
C69 C70 1.400 . S
C69 H80 0.930 . S
C70 C69 1.400 . S
C70 C71 1.384 . S
C71 C70 1.384 . S
C71 C73 1.392 . S
C71 H81 0.931 . S
C72 C68 1.393 . S
C72 C73 1.401 . S
C72 H82 0.930 . S
C73 C71 1.392 . S
C73 C72 1.401 . S
C73 H83 0.930 . S
C74 O52 1.262 . S
C74 O53 1.260 . S
C75 Tb11 2.833 . S
C75 O50 1.251 . S
C75 O55 1.256 . S
C75 C68 1.500 . S
H76 C59 0.930 . S
H77 C60 0.931 . S
H78 C61 0.930 . S
H79 C62 0.930 . S
H80 C69 0.930 . S
H81 C71 0.931 . S
H82 C72 0.930 . S
H83 C73 0.930 . S
Tb84 N115 2.660 . S
Tb84 N122 2.600 . S
Tb84 O128 2.546 . S
Tb84 O129 2.610 . S
Tb84 O131 2.320 . S
Tb84 O132 2.552 . S
Tb84 O133 2.413 . S
Tb84 O135 2.362 . S
Tb84 O136 2.421 . S
Tb84 C148 2.833 . S
C85 C88 1.432 . S
C85 C89 1.414 . S
C85 N92 1.359 . S
C86 C88 1.417 . S
C86 C90 1.432 . S
C86 C98 1.410 . S
C87 C89 1.444 . S
C87 C90 1.317 . S
C87 H110 0.929 . S
C88 C85 1.432 . S
C88 C86 1.417 . S
C88 N96 1.360 . S
C89 C85 1.414 . S
C89 C87 1.444 . S
C89 C94 1.385 . S
C90 C86 1.432 . S
C90 C87 1.317 . S
C90 H102 0.930 . S
C91 C93 1.392 . S
C91 C94 1.370 . S
C91 H103 0.931 . S
N92 C85 1.359 . S
N92 C93 1.327 . S
N92 Tb95 2.600 . S
C93 C91 1.392 . S
C93 N92 1.327 . S
C93 H100 0.930 . S
C94 C89 1.385 . S
C94 C91 1.370 . S
C94 H113 0.930 . S
Tb95 N92 2.600 . S
Tb95 N96 2.660 . S
Tb95 O129 2.362 . S
Tb95 O130 2.421 . S
Tb95 O134 2.546 . S
Tb95 O135 2.610 . S
Tb95 O137 2.320 . S
Tb95 O138 2.552 . S
Tb95 O139 2.413 . S
Tb95 C159 2.833 . S
N96 C88 1.360 . S
N96 Tb95 2.660 . S
N96 C97 1.305 . S
C97 N96 1.305 . S
C97 C99 1.407 . S
C97 H104 0.930 . S
C98 C86 1.410 . S
C98 C99 1.345 . S
C98 H106 0.930 . S
C99 C97 1.407 . S
C99 C98 1.345 . S
C99 H101 0.930 . S
H100 C93 0.930 . S
H101 C99 0.930 . S
H102 C90 0.930 . S
H103 C91 0.931 . S
H104 C97 0.930 . S
H105 C119 0.930 . S
H106 C98 0.930 . S
H107 C125 0.930 . S
H108 C116 0.930 . S
H109 C123 0.931 . S
H110 C87 0.929 . S
H111 C117 0.930 . S
H112 C150 0.930 . S
H113 C94 0.930 . S
H114 C149 0.929 . S
N115 Tb84 2.660 . S
N115 C116 1.305 . S
N115 C120 1.360 . S
C116 H108 0.930 . S
C116 N115 1.305 . S
C116 C119 1.407 . S
C117 H111 0.930 . S
C117 C118 1.410 . S
C117 C119 1.345 . S
C118 C117 1.410 . S
C118 C120 1.417 . S
C118 C150 1.432 . S
C119 H105 0.930 . S
C119 C116 1.407 . S
C119 C117 1.345 . S
C120 N115 1.360 . S
C120 C118 1.417 . S
C120 C124 1.432 . S
H121 C126 0.930 . S
N122 Tb84 2.600 . S
N122 C124 1.359 . S
N122 C125 1.327 . S
C123 H109 0.931 . S
C123 C125 1.392 . S
C123 C126 1.370 . S
C124 C120 1.432 . S
C124 N122 1.359 . S
C124 C127 1.414 . S
C125 H107 0.930 . S
C125 N122 1.327 . S
C125 C123 1.392 . S
C126 H121 0.930 . S
C126 C123 1.370 . S
C126 C127 1.385 . S
C127 C124 1.414 . S
C127 C126 1.385 . S
C127 C149 1.444 . S
O128 Tb84 2.546 . S
O128 C148 1.251 . S
O129 Tb84 2.610 . S
O129 Tb95 2.362 . S
O129 C140 1.283 . S
O130 Tb95 2.421 . S
O130 C147 1.262 . S
O131 Tb84 2.320 . S
O131 C147 1.260 . S
O132 Tb84 2.552 . S
O132 C140 1.243 . S
O133 Tb84 2.413 . S
O133 C148 1.256 . S
O134 Tb95 2.546 . S
O134 C159 1.251 . S
O135 Tb84 2.362 . S
O135 Tb95 2.610 . S
O135 C151 1.283 . S
O136 Tb84 2.421 . S
O136 C158 1.262 . S
O137 Tb95 2.320 . S
O137 C158 1.260 . S
O138 Tb95 2.552 . S
O138 C151 1.243 . S
O139 Tb95 2.413 . S
O139 C159 1.256 . S
C140 O129 1.283 . S
C140 O132 1.243 . S
C141 C143 1.382 . S
C141 C145 1.393 . S
C141 C148 1.500 . S
C142 C143 1.400 . S
C142 C144 1.384 . S
C143 C141 1.382 . S
C143 C142 1.400 . S
C143 H160 0.930 . S
C144 C142 1.384 . S
C144 C146 1.392 . S
C144 H161 0.931 . S
C145 C141 1.393 . S
C145 C146 1.401 . S
C145 H162 0.930 . S
C146 C144 1.392 . S
C146 C145 1.401 . S
C146 H163 0.930 . S
C147 O130 1.262 . S
C147 O131 1.260 . S
C148 Tb84 2.833 . S
C148 O128 1.251 . S
C148 O133 1.256 . S
C148 C141 1.500 . S
C149 H114 0.929 . S
C149 C127 1.444 . S
C149 C150 1.317 . S
C150 H112 0.930 . S
C150 C118 1.432 . S
C150 C149 1.317 . S
C151 O135 1.283 . S
C151 O138 1.243 . S
C152 C153 1.382 . S
C152 C156 1.393 . S
C152 C159 1.500 . S
C153 C152 1.382 . S
C153 C154 1.400 . S
C153 H164 0.930 . S
C154 C153 1.400 . S
C154 C155 1.384 . S
C155 C154 1.384 . S
C155 C157 1.392 . S
C155 H165 0.931 . S
C156 C152 1.393 . S
C156 C157 1.401 . S
C156 H166 0.930 . S
C157 C155 1.392 . S
C157 C156 1.401 . S
C157 H167 0.930 . S
C158 O136 1.262 . S
C158 O137 1.260 . S
C159 Tb95 2.833 . S
C159 O134 1.251 . S
C159 O139 1.256 . S
C159 C152 1.500 . S
H160 C143 0.930 . S
H161 C144 0.931 . S
H162 C145 0.930 . S
H163 C146 0.930 . S
H164 C153 0.930 . S
H165 C155 0.931 . S
H166 C156 0.930 . S
H167 C157 0.930 . S
Tb168 N199 2.660 . S
Tb168 N206 2.600 . S
Tb168 O212 2.546 . S
Tb168 O213 2.610 . S
Tb168 O215 2.320 . S
Tb168 O216 2.552 . S
Tb168 O217 2.413 . S
Tb168 O219 2.362 . S
Tb168 O220 2.421 . S
Tb168 C232 2.833 . S
C169 C172 1.432 . S
C169 C173 1.414 . S
C169 N176 1.359 . S
C170 C172 1.417 . S
C170 C174 1.432 . S
C170 C182 1.410 . S
C171 C173 1.444 . S
C171 C174 1.317 . S
C171 H194 0.929 . S
C172 C169 1.432 . S
C172 C170 1.417 . S
C172 N180 1.360 . S
C173 C169 1.414 . S
C173 C171 1.444 . S
C173 C178 1.385 . S
C174 C170 1.432 . S
C174 C171 1.317 . S
C174 H186 0.930 . S
C175 C177 1.392 . S
C175 C178 1.370 . S
C175 H187 0.931 . S
N176 C169 1.359 . S
N176 C177 1.327 . S
N176 Tb179 2.600 . S
C177 C175 1.392 . S
C177 N176 1.327 . S
C177 H184 0.930 . S
C178 C173 1.385 . S
C178 C175 1.370 . S
C178 H197 0.930 . S
Tb179 N176 2.600 . S
Tb179 N180 2.660 . S
Tb179 O213 2.362 . S
Tb179 O214 2.421 . S
Tb179 O218 2.546 . S
Tb179 O219 2.610 . S
Tb179 O221 2.320 . S
Tb179 O222 2.552 . S
Tb179 O223 2.413 . S
Tb179 C243 2.833 . S
N180 C172 1.360 . S
N180 Tb179 2.660 . S
N180 C181 1.305 . S
C181 N180 1.305 . S
C181 C183 1.407 . S
C181 H188 0.930 . S
C182 C170 1.410 . S
C182 C183 1.345 . S
C182 H190 0.930 . S
C183 C181 1.407 . S
C183 C182 1.345 . S
C183 H185 0.930 . S
H184 C177 0.930 . S
H185 C183 0.930 . S
H186 C174 0.930 . S
H187 C175 0.931 . S
H188 C181 0.930 . S
H189 C203 0.930 . S
H190 C182 0.930 . S
H191 C209 0.930 . S
H192 C200 0.930 . S
H193 C207 0.931 . S
H194 C171 0.929 . S
H195 C201 0.930 . S
H196 C234 0.930 . S
H197 C178 0.930 . S
H198 C233 0.929 . S
N199 Tb168 2.660 . S
N199 C200 1.305 . S
N199 C204 1.360 . S
C200 H192 0.930 . S
C200 N199 1.305 . S
C200 C203 1.407 . S
C201 H195 0.930 . S
C201 C202 1.410 . S
C201 C203 1.345 . S
C202 C201 1.410 . S
C202 C204 1.417 . S
C202 C234 1.432 . S
C203 H189 0.930 . S
C203 C200 1.407 . S
C203 C201 1.345 . S
C204 N199 1.360 . S
C204 C202 1.417 . S
C204 C208 1.432 . S
H205 C210 0.930 . S
N206 Tb168 2.600 . S
N206 C208 1.359 . S
N206 C209 1.327 . S
C207 H193 0.931 . S
C207 C209 1.392 . S
C207 C210 1.370 . S
C208 C204 1.432 . S
C208 N206 1.359 . S
C208 C211 1.414 . S
C209 H191 0.930 . S
C209 N206 1.327 . S
C209 C207 1.392 . S
C210 H205 0.930 . S
C210 C207 1.370 . S
C210 C211 1.385 . S
C211 C208 1.414 . S
C211 C210 1.385 . S
C211 C233 1.444 . S
O212 Tb168 2.546 . S
O212 C232 1.251 . S
O213 Tb168 2.610 . S
O213 Tb179 2.362 . S
O213 C224 1.283 . S
O214 Tb179 2.421 . S
O214 C231 1.262 . S
O215 Tb168 2.320 . S
O215 C231 1.260 . S
O216 Tb168 2.552 . S
O216 C224 1.243 . S
O217 Tb168 2.413 . S
O217 C232 1.256 . S
O218 Tb179 2.546 . S
O218 C243 1.251 . S
O219 Tb168 2.362 . S
O219 Tb179 2.610 . S
O219 C235 1.283 . S
O220 Tb168 2.421 . S
O220 C242 1.262 . S
O221 Tb179 2.320 . S
O221 C242 1.260 . S
O222 Tb179 2.552 . S
O222 C235 1.243 . S
O223 Tb179 2.413 . S
O223 C243 1.256 . S
C224 O213 1.283 . S
C224 O216 1.243 . S
C225 C227 1.382 . S
C225 C229 1.393 . S
C225 C232 1.500 . S
C226 C227 1.400 . S
C226 C228 1.384 . S
C227 C225 1.382 . S
C227 C226 1.400 . S
C227 H244 0.930 . S
C228 C226 1.384 . S
C228 C230 1.392 . S
C228 H245 0.931 . S
C229 C225 1.393 . S
C229 C230 1.401 . S
C229 H246 0.930 . S
C230 C228 1.392 . S
C230 C229 1.401 . S
C230 H247 0.930 . S
C231 O214 1.262 . S
C231 O215 1.260 . S
C232 Tb168 2.833 . S
C232 O212 1.251 . S
C232 O217 1.256 . S
C232 C225 1.500 . S
C233 H198 0.929 . S
C233 C211 1.444 . S
C233 C234 1.317 . S
C234 H196 0.930 . S
C234 C202 1.432 . S
C234 C233 1.317 . S
C235 O219 1.283 . S
C235 O222 1.243 . S
C236 C237 1.382 . S
C236 C240 1.393 . S
C236 C243 1.500 . S
C237 C236 1.382 . S
C237 C238 1.400 . S
C237 H248 0.930 . S
C238 C237 1.400 . S
C238 C239 1.384 . S
C239 C238 1.384 . S
C239 C241 1.392 . S
C239 H249 0.931 . S
C240 C236 1.393 . S
C240 C241 1.401 . S
C240 H250 0.930 . S
C241 C239 1.392 . S
C241 C240 1.401 . S
C241 H251 0.930 . S
C242 O220 1.262 . S
C242 O221 1.260 . S
C243 Tb179 2.833 . S
C243 O218 1.251 . S
C243 O223 1.256 . S
C243 C236 1.500 . S
H244 C227 0.930 . S
H245 C228 0.931 . S
H246 C229 0.930 . S
H247 C230 0.930 . S
H248 C237 0.930 . S
H249 C239 0.931 . S
H250 C240 0.930 . S
H251 C241 0.930 . S
Tb252 N283 2.660 . S
Tb252 N290 2.600 . S
Tb252 O296 2.546 . S
Tb252 O297 2.610 . S
Tb252 O299 2.320 . S
Tb252 O300 2.552 . S
Tb252 O301 2.413 . S
Tb252 O303 2.362 . S
Tb252 O304 2.421 . S
Tb252 C316 2.833 . S
C253 C256 1.432 . S
C253 C257 1.414 . S
C253 N260 1.359 . S
C254 C256 1.417 . S
C254 C258 1.432 . S
C254 C266 1.410 . S
C255 C257 1.444 . S
C255 C258 1.317 . S
C255 H278 0.929 . S
C256 C253 1.432 . S
C256 C254 1.417 . S
C256 N264 1.360 . S
C257 C253 1.414 . S
C257 C255 1.444 . S
C257 C262 1.385 . S
C258 C254 1.432 . S
C258 C255 1.317 . S
C258 H270 0.930 . S
C259 C261 1.392 . S
C259 C262 1.370 . S
C259 H271 0.931 . S
N260 C253 1.359 . S
N260 C261 1.327 . S
N260 Tb263 2.600 . S
C261 C259 1.392 . S
C261 N260 1.327 . S
C261 H268 0.930 . S
C262 C257 1.385 . S
C262 C259 1.370 . S
C262 H281 0.930 . S
Tb263 N260 2.600 . S
Tb263 N264 2.660 . S
Tb263 O297 2.362 . S
Tb263 O298 2.421 . S
Tb263 O302 2.546 . S
Tb263 O303 2.610 . S
Tb263 O305 2.320 . S
Tb263 O306 2.552 . S
Tb263 O307 2.413 . S
Tb263 C327 2.833 . S
N264 C256 1.360 . S
N264 Tb263 2.660 . S
N264 C265 1.305 . S
C265 N264 1.305 . S
C265 C267 1.407 . S
C265 H272 0.930 . S
C266 C254 1.410 . S
C266 C267 1.345 . S
C266 H274 0.930 . S
C267 C265 1.407 . S
C267 C266 1.345 . S
C267 H269 0.930 . S
H268 C261 0.930 . S
H269 C267 0.930 . S
H270 C258 0.930 . S
H271 C259 0.931 . S
H272 C265 0.930 . S
H273 C287 0.930 . S
H274 C266 0.930 . S
H275 C293 0.930 . S
H276 C284 0.930 . S
H277 C291 0.931 . S
H278 C255 0.929 . S
H279 C285 0.930 . S
H280 C318 0.930 . S
H281 C262 0.930 . S
H282 C317 0.929 . S
N283 Tb252 2.660 . S
N283 C284 1.305 . S
N283 C288 1.360 . S
C284 H276 0.930 . S
C284 N283 1.305 . S
C284 C287 1.407 . S
C285 H279 0.930 . S
C285 C286 1.410 . S
C285 C287 1.345 . S
C286 C285 1.410 . S
C286 C288 1.417 . S
C286 C318 1.432 . S
C287 H273 0.930 . S
C287 C284 1.407 . S
C287 C285 1.345 . S
C288 N283 1.360 . S
C288 C286 1.417 . S
C288 C292 1.432 . S
H289 C294 0.930 . S
N290 Tb252 2.600 . S
N290 C292 1.359 . S
N290 C293 1.327 . S
C291 H277 0.931 . S
C291 C293 1.392 . S
C291 C294 1.370 . S
C292 C288 1.432 . S
C292 N290 1.359 . S
C292 C295 1.414 . S
C293 H275 0.930 . S
C293 N290 1.327 . S
C293 C291 1.392 . S
C294 H289 0.930 . S
C294 C291 1.370 . S
C294 C295 1.385 . S
C295 C292 1.414 . S
C295 C294 1.385 . S
C295 C317 1.444 . S
O296 Tb252 2.546 . S
O296 C316 1.251 . S
O297 Tb252 2.610 . S
O297 Tb263 2.362 . S
O297 C308 1.283 . S
O298 Tb263 2.421 . S
O298 C315 1.262 . S
O299 Tb252 2.320 . S
O299 C315 1.260 . S
O300 Tb252 2.552 . S
O300 C308 1.243 . S
O301 Tb252 2.413 . S
O301 C316 1.256 . S
O302 Tb263 2.546 . S
O302 C327 1.251 . S
O303 Tb252 2.362 . S
O303 Tb263 2.610 . S
O303 C319 1.283 . S
O304 Tb252 2.421 . S
O304 C326 1.262 . S
O305 Tb263 2.320 . S
O305 C326 1.260 . S
O306 Tb263 2.552 . S
O306 C319 1.243 . S
O307 Tb263 2.413 . S
O307 C327 1.256 . S
C308 O297 1.283 . S
C308 O300 1.243 . S
C309 C311 1.382 . S
C309 C313 1.393 . S
C309 C316 1.500 . S
C310 C311 1.400 . S
C310 C312 1.384 . S
C311 C309 1.382 . S
C311 C310 1.400 . S
C311 H328 0.930 . S
C312 C310 1.384 . S
C312 C314 1.392 . S
C312 H329 0.931 . S
C313 C309 1.393 . S
C313 C314 1.401 . S
C313 H330 0.930 . S
C314 C312 1.392 . S
C314 C313 1.401 . S
C314 H331 0.930 . S
C315 O298 1.262 . S
C315 O299 1.260 . S
C316 Tb252 2.833 . S
C316 O296 1.251 . S
C316 O301 1.256 . S
C316 C309 1.500 . S
C317 H282 0.929 . S
C317 C295 1.444 . S
C317 C318 1.317 . S
C318 H280 0.930 . S
C318 C286 1.432 . S
C318 C317 1.317 . S
C319 O303 1.283 . S
C319 O306 1.243 . S
C320 C321 1.382 . S
C320 C324 1.393 . S
C320 C327 1.500 . S
C321 C320 1.382 . S
C321 C322 1.400 . S
C321 H332 0.930 . S
C322 C321 1.400 . S
C322 C323 1.384 . S
C323 C322 1.384 . S
C323 C325 1.392 . S
C323 H333 0.931 . S
C324 C320 1.393 . S
C324 C325 1.401 . S
C324 H334 0.930 . S
C325 C323 1.392 . S
C325 C324 1.401 . S
C325 H335 0.930 . S
C326 O304 1.262 . S
C326 O305 1.260 . S
C327 Tb263 2.833 . S
C327 O302 1.251 . S
C327 O307 1.256 . S
C327 C320 1.500 . S
H328 C311 0.930 . S
H329 C312 0.931 . S
H330 C313 0.930 . S
H331 C314 0.930 . S
H332 C321 0.930 . S
H333 C323 0.931 . S
H334 C324 0.930 . S
H335 C325 0.930 . S
Tb336 N367 2.660 . S
Tb336 N374 2.600 . S
Tb336 O380 2.546 . S
Tb336 O381 2.610 . S
Tb336 O383 2.320 . S
Tb336 O384 2.552 . S
Tb336 O385 2.413 . S
Tb336 O387 2.362 . S
Tb336 O388 2.421 . S
Tb336 C400 2.833 . S
C337 C340 1.432 . S
C337 C341 1.414 . S
C337 N344 1.359 . S
C338 C340 1.417 . S
C338 C342 1.432 . S
C338 C350 1.410 . S
C339 C341 1.444 . S
C339 C342 1.317 . S
C339 H362 0.929 . S
C340 C337 1.432 . S
C340 C338 1.417 . S
C340 N348 1.360 . S
C341 C337 1.414 . S
C341 C339 1.444 . S
C341 C346 1.385 . S
C342 C338 1.432 . S
C342 C339 1.317 . S
C342 H354 0.930 . S
C343 C345 1.392 . S
C343 C346 1.370 . S
C343 H355 0.931 . S
N344 C337 1.359 . S
N344 C345 1.327 . S
N344 Tb347 2.600 . S
C345 C343 1.392 . S
C345 N344 1.327 . S
C345 H352 0.930 . S
C346 C341 1.385 . S
C346 C343 1.370 . S
C346 H365 0.930 . S
Tb347 N344 2.600 . S
Tb347 N348 2.660 . S
Tb347 O381 2.362 . S
Tb347 O382 2.421 . S
Tb347 O386 2.546 . S
Tb347 O387 2.610 . S
Tb347 O389 2.320 . S
Tb347 O390 2.552 . S
Tb347 O391 2.413 . S
Tb347 C411 2.833 . S
N348 C340 1.360 . S
N348 Tb347 2.660 . S
N348 C349 1.305 . S
C349 N348 1.305 . S
C349 C351 1.407 . S
C349 H356 0.930 . S
C350 C338 1.410 . S
C350 C351 1.345 . S
C350 H358 0.930 . S
C351 C349 1.407 . S
C351 C350 1.345 . S
C351 H353 0.930 . S
H352 C345 0.930 . S
H353 C351 0.930 . S
H354 C342 0.930 . S
H355 C343 0.931 . S
H356 C349 0.930 . S
H357 C371 0.930 . S
H358 C350 0.930 . S
H359 C377 0.930 . S
H360 C368 0.930 . S
H361 C375 0.931 . S
H362 C339 0.929 . S
H363 C369 0.930 . S
H364 C402 0.930 . S
H365 C346 0.930 . S
H366 C401 0.929 . S
N367 Tb336 2.660 . S
N367 C368 1.305 . S
N367 C372 1.360 . S
C368 H360 0.930 . S
C368 N367 1.305 . S
C368 C371 1.407 . S
C369 H363 0.930 . S
C369 C370 1.410 . S
C369 C371 1.345 . S
C370 C369 1.410 . S
C370 C372 1.417 . S
C370 C402 1.432 . S
C371 H357 0.930 . S
C371 C368 1.407 . S
C371 C369 1.345 . S
C372 N367 1.360 . S
C372 C370 1.417 . S
C372 C376 1.432 . S
H373 C378 0.930 . S
N374 Tb336 2.600 . S
N374 C376 1.359 . S
N374 C377 1.327 . S
C375 H361 0.931 . S
C375 C377 1.392 . S
C375 C378 1.370 . S
C376 C372 1.432 . S
C376 N374 1.359 . S
C376 C379 1.414 . S
C377 H359 0.930 . S
C377 N374 1.327 . S
C377 C375 1.392 . S
C378 H373 0.930 . S
C378 C375 1.370 . S
C378 C379 1.385 . S
C379 C376 1.414 . S
C379 C378 1.385 . S
C379 C401 1.444 . S
O380 Tb336 2.546 . S
O380 C400 1.251 . S
O381 Tb336 2.610 . S
O381 Tb347 2.362 . S
O381 C392 1.283 . S
O382 Tb347 2.421 . S
O382 C399 1.262 . S
O383 Tb336 2.320 . S
O383 C399 1.260 . S
O384 Tb336 2.552 . S
O384 C392 1.243 . S
O385 Tb336 2.413 . S
O385 C400 1.256 . S
O386 Tb347 2.546 . S
O386 C411 1.251 . S
O387 Tb336 2.362 . S
O387 Tb347 2.610 . S
O387 C403 1.283 . S
O388 Tb336 2.421 . S
O388 C410 1.262 . S
O389 Tb347 2.320 . S
O389 C410 1.260 . S
O390 Tb347 2.552 . S
O390 C403 1.243 . S
O391 Tb347 2.413 . S
O391 C411 1.256 . S
C392 O381 1.283 . S
C392 O384 1.243 . S
C393 C395 1.382 . S
C393 C397 1.393 . S
C393 C400 1.500 . S
C394 C395 1.400 . S
C394 C396 1.384 . S
C395 C393 1.382 . S
C395 C394 1.400 . S
C395 H412 0.930 . S
C396 C394 1.384 . S
C396 C398 1.392 . S
C396 H413 0.931 . S
C397 C393 1.393 . S
C397 C398 1.401 . S
C397 H414 0.930 . S
C398 C396 1.392 . S
C398 C397 1.401 . S
C398 H415 0.930 . S
C399 O382 1.262 . S
C399 O383 1.260 . S
C400 Tb336 2.833 . S
C400 O380 1.251 . S
C400 O385 1.256 . S
C400 C393 1.500 . S
C401 H366 0.929 . S
C401 C379 1.444 . S
C401 C402 1.317 . S
C402 H364 0.930 . S
C402 C370 1.432 . S
C402 C401 1.317 . S
C403 O387 1.283 . S
C403 O390 1.243 . S
C404 C405 1.382 . S
C404 C408 1.393 . S
C404 C411 1.500 . S
C405 C404 1.382 . S
C405 C406 1.400 . S
C405 H416 0.930 . S
C406 C405 1.400 . S
C406 C407 1.384 . S
C407 C406 1.384 . S
C407 C409 1.392 . S
C407 H417 0.931 . S
C408 C404 1.393 . S
C408 C409 1.401 . S
C408 H418 0.930 . S
C409 C407 1.392 . S
C409 C408 1.401 . S
C409 H419 0.930 . S
C410 O388 1.262 . S
C410 O389 1.260 . S
C411 Tb347 2.833 . S
C411 O386 1.251 . S
C411 O391 1.256 . S
C411 C404 1.500 . S
H412 C395 0.930 . S
H413 C396 0.931 . S
H414 C397 0.930 . S
H415 C398 0.930 . S
H416 C405 0.930 . S
H417 C407 0.931 . S
H418 C408 0.930 . S
H419 C409 0.930 . S
Tb420 N451 2.660 . S
Tb420 N458 2.600 . S
Tb420 O464 2.546 . S
Tb420 O465 2.610 . S
Tb420 O467 2.320 . S
Tb420 O468 2.552 . S
Tb420 O469 2.413 . S
Tb420 O471 2.362 . S
Tb420 O472 2.421 . S
Tb420 C484 2.833 . S
C421 C424 1.432 . S
C421 C425 1.414 . S
C421 N428 1.359 . S
C422 C424 1.417 . S
C422 C426 1.432 . S
C422 C434 1.410 . S
C423 C425 1.444 . S
C423 C426 1.317 . S
C423 H446 0.929 . S
C424 C421 1.432 . S
C424 C422 1.417 . S
C424 N432 1.360 . S
C425 C421 1.414 . S
C425 C423 1.444 . S
C425 C430 1.385 . S
C426 C422 1.432 . S
C426 C423 1.317 . S
C426 H438 0.930 . S
C427 C429 1.392 . S
C427 C430 1.370 . S
C427 H439 0.931 . S
N428 C421 1.359 . S
N428 C429 1.327 . S
N428 Tb431 2.600 . S
C429 C427 1.392 . S
C429 N428 1.327 . S
C429 H436 0.930 . S
C430 C425 1.385 . S
C430 C427 1.370 . S
C430 H449 0.930 . S
Tb431 N428 2.600 . S
Tb431 N432 2.660 . S
Tb431 O465 2.362 . S
Tb431 O466 2.421 . S
Tb431 O470 2.546 . S
Tb431 O471 2.610 . S
Tb431 O473 2.320 . S
Tb431 O474 2.552 . S
Tb431 O475 2.413 . S
Tb431 C495 2.833 . S
N432 C424 1.360 . S
N432 Tb431 2.660 . S
N432 C433 1.305 . S
C433 N432 1.305 . S
C433 C435 1.407 . S
C433 H440 0.930 . S
C434 C422 1.410 . S
C434 C435 1.345 . S
C434 H442 0.930 . S
C435 C433 1.407 . S
C435 C434 1.345 . S
C435 H437 0.930 . S
H436 C429 0.930 . S
H437 C435 0.930 . S
H438 C426 0.930 . S
H439 C427 0.931 . S
H440 C433 0.930 . S
H441 C455 0.930 . S
H442 C434 0.930 . S
H443 C461 0.930 . S
H444 C452 0.930 . S
H445 C459 0.931 . S
H446 C423 0.929 . S
H447 C453 0.930 . S
H448 C486 0.930 . S
H449 C430 0.930 . S
H450 C485 0.929 . S
N451 Tb420 2.660 . S
N451 C452 1.305 . S
N451 C456 1.360 . S
C452 H444 0.930 . S
C452 N451 1.305 . S
C452 C455 1.407 . S
C453 H447 0.930 . S
C453 C454 1.410 . S
C453 C455 1.345 . S
C454 C453 1.410 . S
C454 C456 1.417 . S
C454 C486 1.432 . S
C455 H441 0.930 . S
C455 C452 1.407 . S
C455 C453 1.345 . S
C456 N451 1.360 . S
C456 C454 1.417 . S
C456 C460 1.432 . S
H457 C462 0.930 . S
N458 Tb420 2.600 . S
N458 C460 1.359 . S
N458 C461 1.327 . S
C459 H445 0.931 . S
C459 C461 1.392 . S
C459 C462 1.370 . S
C460 C456 1.432 . S
C460 N458 1.359 . S
C460 C463 1.414 . S
C461 H443 0.930 . S
C461 N458 1.327 . S
C461 C459 1.392 . S
C462 H457 0.930 . S
C462 C459 1.370 . S
C462 C463 1.385 . S
C463 C460 1.414 . S
C463 C462 1.385 . S
C463 C485 1.444 . S
O464 Tb420 2.546 . S
O464 C484 1.251 . S
O465 Tb420 2.610 . S
O465 Tb431 2.362 . S
O465 C476 1.283 . S
O466 Tb431 2.421 . S
O466 C483 1.262 . S
O467 Tb420 2.320 . S
O467 C483 1.260 . S
O468 Tb420 2.552 . S
O468 C476 1.243 . S
O469 Tb420 2.413 . S
O469 C484 1.256 . S
O470 Tb431 2.546 . S
O470 C495 1.251 . S
O471 Tb420 2.362 . S
O471 Tb431 2.610 . S
O471 C487 1.283 . S
O472 Tb420 2.421 . S
O472 C494 1.262 . S
O473 Tb431 2.320 . S
O473 C494 1.260 . S
O474 Tb431 2.552 . S
O474 C487 1.243 . S
O475 Tb431 2.413 . S
O475 C495 1.256 . S
C476 O465 1.283 . S
C476 O468 1.243 . S
C477 C479 1.382 . S
C477 C481 1.393 . S
C477 C484 1.500 . S
C478 C479 1.400 . S
C478 C480 1.384 . S
C479 C477 1.382 . S
C479 C478 1.400 . S
C479 H496 0.930 . S
C480 C478 1.384 . S
C480 C482 1.392 . S
C480 H497 0.931 . S
C481 C477 1.393 . S
C481 C482 1.401 . S
C481 H498 0.930 . S
C482 C480 1.392 . S
C482 C481 1.401 . S
C482 H499 0.930 . S
C483 O466 1.262 . S
C483 O467 1.260 . S
C484 Tb420 2.833 . S
C484 O464 1.251 . S
C484 O469 1.256 . S
C484 C477 1.500 . S
C485 H450 0.929 . S
C485 C463 1.444 . S
C485 C486 1.317 . S
C486 H448 0.930 . S
C486 C454 1.432 . S
C486 C485 1.317 . S
C487 O471 1.283 . S
C487 O474 1.243 . S
C488 C489 1.382 . S
C488 C492 1.393 . S
C488 C495 1.500 . S
C489 C488 1.382 . S
C489 C490 1.400 . S
C489 H500 0.930 . S
C490 C489 1.400 . S
C490 C491 1.384 . S
C491 C490 1.384 . S
C491 C493 1.392 . S
C491 H501 0.931 . S
C492 C488 1.393 . S
C492 C493 1.401 . S
C492 H502 0.930 . S
C493 C491 1.392 . S
C493 C492 1.401 . S
C493 H503 0.930 . S
C494 O472 1.262 . S
C494 O473 1.260 . S
C495 Tb431 2.833 . S
C495 O470 1.251 . S
C495 O475 1.256 . S
C495 C488 1.500 . S
H496 C479 0.930 . S
H497 C480 0.931 . S
H498 C481 0.930 . S
H499 C482 0.930 . S
H500 C489 0.930 . S
H501 C491 0.931 . S
H502 C492 0.930 . S
H503 C493 0.930 . S
Tb504 N535 2.660 . S
Tb504 N542 2.600 . S
Tb504 O548 2.546 . S
Tb504 O549 2.610 . S
Tb504 O551 2.320 . S
Tb504 O552 2.552 . S
Tb504 O553 2.413 . S
Tb504 O555 2.362 . S
Tb504 O556 2.421 . S
Tb504 C568 2.833 . S
C505 C508 1.432 . S
C505 C509 1.414 . S
C505 N512 1.359 . S
C506 C508 1.417 . S
C506 C510 1.432 . S
C506 C518 1.410 . S
C507 C509 1.444 . S
C507 C510 1.317 . S
C507 H530 0.929 . S
C508 C505 1.432 . S
C508 C506 1.417 . S
C508 N516 1.360 . S
C509 C505 1.414 . S
C509 C507 1.444 . S
C509 C514 1.385 . S
C510 C506 1.432 . S
C510 C507 1.317 . S
C510 H522 0.930 . S
C511 C513 1.392 . S
C511 C514 1.370 . S
C511 H523 0.931 . S
N512 C505 1.359 . S
N512 C513 1.327 . S
N512 Tb515 2.600 . S
C513 C511 1.392 . S
C513 N512 1.327 . S
C513 H520 0.930 . S
C514 C509 1.385 . S
C514 C511 1.370 . S
C514 H533 0.930 . S
Tb515 N512 2.600 . S
Tb515 N516 2.660 . S
Tb515 O549 2.362 . S
Tb515 O550 2.421 . S
Tb515 O554 2.546 . S
Tb515 O555 2.610 . S
Tb515 O557 2.320 . S
Tb515 O558 2.552 . S
Tb515 O559 2.413 . S
Tb515 C579 2.833 . S
N516 C508 1.360 . S
N516 Tb515 2.660 . S
N516 C517 1.305 . S
C517 N516 1.305 . S
C517 C519 1.407 . S
C517 H524 0.930 . S
C518 C506 1.410 . S
C518 C519 1.345 . S
C518 H526 0.930 . S
C519 C517 1.407 . S
C519 C518 1.345 . S
C519 H521 0.930 . S
H520 C513 0.930 . S
H521 C519 0.930 . S
H522 C510 0.930 . S
H523 C511 0.931 . S
H524 C517 0.930 . S
H525 C539 0.930 . S
H526 C518 0.930 . S
H527 C545 0.930 . S
H528 C536 0.930 . S
H529 C543 0.931 . S
H530 C507 0.929 . S
H531 C537 0.930 . S
H532 C570 0.930 . S
H533 C514 0.930 . S
H534 C569 0.929 . S
N535 Tb504 2.660 . S
N535 C536 1.305 . S
N535 C540 1.360 . S
C536 H528 0.930 . S
C536 N535 1.305 . S
C536 C539 1.407 . S
C537 H531 0.930 . S
C537 C538 1.410 . S
C537 C539 1.345 . S
C538 C537 1.410 . S
C538 C540 1.417 . S
C538 C570 1.432 . S
C539 H525 0.930 . S
C539 C536 1.407 . S
C539 C537 1.345 . S
C540 N535 1.360 . S
C540 C538 1.417 . S
C540 C544 1.432 . S
H541 C546 0.930 . S
N542 Tb504 2.600 . S
N542 C544 1.359 . S
N542 C545 1.327 . S
C543 H529 0.931 . S
C543 C545 1.392 . S
C543 C546 1.370 . S
C544 C540 1.432 . S
C544 N542 1.359 . S
C544 C547 1.414 . S
C545 H527 0.930 . S
C545 N542 1.327 . S
C545 C543 1.392 . S
C546 H541 0.930 . S
C546 C543 1.370 . S
C546 C547 1.385 . S
C547 C544 1.414 . S
C547 C546 1.385 . S
C547 C569 1.444 . S
O548 Tb504 2.546 . S
O548 C568 1.251 . S
O549 Tb504 2.610 . S
O549 Tb515 2.362 . S
O549 C560 1.283 . S
O550 Tb515 2.421 . S
O550 C567 1.262 . S
O551 Tb504 2.320 . S
O551 C567 1.260 . S
O552 Tb504 2.552 . S
O552 C560 1.243 . S
O553 Tb504 2.413 . S
O553 C568 1.256 . S
O554 Tb515 2.546 . S
O554 C579 1.251 . S
O555 Tb504 2.362 . S
O555 Tb515 2.610 . S
O555 C571 1.283 . S
O556 Tb504 2.421 . S
O556 C578 1.262 . S
O557 Tb515 2.320 . S
O557 C578 1.260 . S
O558 Tb515 2.552 . S
O558 C571 1.243 . S
O559 Tb515 2.413 . S
O559 C579 1.256 . S
C560 O549 1.283 . S
C560 O552 1.243 . S
C561 C563 1.382 . S
C561 C565 1.393 . S
C561 C568 1.500 . S
C562 C563 1.400 . S
C562 C564 1.384 . S
C563 C561 1.382 . S
C563 C562 1.400 . S
C563 H580 0.930 . S
C564 C562 1.384 . S
C564 C566 1.392 . S
C564 H581 0.931 . S
C565 C561 1.393 . S
C565 C566 1.401 . S
C565 H582 0.930 . S
C566 C564 1.392 . S
C566 C565 1.401 . S
C566 H583 0.930 . S
C567 O550 1.262 . S
C567 O551 1.260 . S
C568 Tb504 2.833 . S
C568 O548 1.251 . S
C568 O553 1.256 . S
C568 C561 1.500 . S
C569 H534 0.929 . S
C569 C547 1.444 . S
C569 C570 1.317 . S
C570 H532 0.930 . S
C570 C538 1.432 . S
C570 C569 1.317 . S
C571 O555 1.283 . S
C571 O558 1.243 . S
C572 C573 1.382 . S
C572 C576 1.393 . S
C572 C579 1.500 . S
C573 C572 1.382 . S
C573 C574 1.400 . S
C573 H584 0.930 . S
C574 C573 1.400 . S
C574 C575 1.384 . S
C575 C574 1.384 . S
C575 C577 1.392 . S
C575 H585 0.931 . S
C576 C572 1.393 . S
C576 C577 1.401 . S
C576 H586 0.930 . S
C577 C575 1.392 . S
C577 C576 1.401 . S
C577 H587 0.930 . S
C578 O556 1.262 . S
C578 O557 1.260 . S
C579 Tb515 2.833 . S
C579 O554 1.251 . S
C579 O559 1.256 . S
C579 C572 1.500 . S
H580 C563 0.930 . S
H581 C564 0.931 . S
H582 C565 0.930 . S
H583 C566 0.930 . S
H584 C573 0.930 . S
H585 C575 0.931 . S
H586 C576 0.930 . S
H587 C577 0.930 . S
Tb588 N619 2.660 . S
Tb588 N626 2.600 . S
Tb588 O632 2.546 . S
Tb588 O633 2.610 . S
Tb588 O635 2.320 . S
Tb588 O636 2.552 . S
Tb588 O637 2.413 . S
Tb588 O639 2.362 . S
Tb588 O640 2.421 . S
Tb588 C652 2.833 . S
C589 C592 1.432 . S
C589 C593 1.414 . S
C589 N596 1.359 . S
C590 C592 1.417 . S
C590 C594 1.432 . S
C590 C602 1.410 . S
C591 C593 1.444 . S
C591 C594 1.317 . S
C591 H614 0.929 . S
C592 C589 1.432 . S
C592 C590 1.417 . S
C592 N600 1.360 . S
C593 C589 1.414 . S
C593 C591 1.444 . S
C593 C598 1.385 . S
C594 C590 1.432 . S
C594 C591 1.317 . S
C594 H606 0.930 . S
C595 C597 1.392 . S
C595 C598 1.370 . S
C595 H607 0.931 . S
N596 C589 1.359 . S
N596 C597 1.327 . S
N596 Tb599 2.600 . S
C597 C595 1.392 . S
C597 N596 1.327 . S
C597 H604 0.930 . S
C598 C593 1.385 . S
C598 C595 1.370 . S
C598 H617 0.930 . S
Tb599 N596 2.600 . S
Tb599 N600 2.660 . S
Tb599 O633 2.362 . S
Tb599 O634 2.421 . S
Tb599 O638 2.546 . S
Tb599 O639 2.610 . S
Tb599 O641 2.320 . S
Tb599 O642 2.552 . S
Tb599 O643 2.413 . S
Tb599 C663 2.833 . S
N600 C592 1.360 . S
N600 Tb599 2.660 . S
N600 C601 1.305 . S
C601 N600 1.305 . S
C601 C603 1.407 . S
C601 H608 0.930 . S
C602 C590 1.410 . S
C602 C603 1.345 . S
C602 H610 0.930 . S
C603 C601 1.407 . S
C603 C602 1.345 . S
C603 H605 0.930 . S
H604 C597 0.930 . S
H605 C603 0.930 . S
H606 C594 0.930 . S
H607 C595 0.931 . S
H608 C601 0.930 . S
H609 C623 0.930 . S
H610 C602 0.930 . S
H611 C629 0.930 . S
H612 C620 0.930 . S
H613 C627 0.931 . S
H614 C591 0.929 . S
H615 C621 0.930 . S
H616 C654 0.930 . S
H617 C598 0.930 . S
H618 C653 0.929 . S
N619 Tb588 2.660 . S
N619 C620 1.305 . S
N619 C624 1.360 . S
C620 H612 0.930 . S
C620 N619 1.305 . S
C620 C623 1.407 . S
C621 H615 0.930 . S
C621 C622 1.410 . S
C621 C623 1.345 . S
C622 C621 1.410 . S
C622 C624 1.417 . S
C622 C654 1.432 . S
C623 H609 0.930 . S
C623 C620 1.407 . S
C623 C621 1.345 . S
C624 N619 1.360 . S
C624 C622 1.417 . S
C624 C628 1.432 . S
H625 C630 0.930 . S
N626 Tb588 2.600 . S
N626 C628 1.359 . S
N626 C629 1.327 . S
C627 H613 0.931 . S
C627 C629 1.392 . S
C627 C630 1.370 . S
C628 C624 1.432 . S
C628 N626 1.359 . S
C628 C631 1.414 . S
C629 H611 0.930 . S
C629 N626 1.327 . S
C629 C627 1.392 . S
C630 H625 0.930 . S
C630 C627 1.370 . S
C630 C631 1.385 . S
C631 C628 1.414 . S
C631 C630 1.385 . S
C631 C653 1.444 . S
O632 Tb588 2.546 . S
O632 C652 1.251 . S
O633 Tb588 2.610 . S
O633 Tb599 2.362 . S
O633 C644 1.283 . S
O634 Tb599 2.421 . S
O634 C651 1.262 . S
O635 Tb588 2.320 . S
O635 C651 1.260 . S
O636 Tb588 2.552 . S
O636 C644 1.243 . S
O637 Tb588 2.413 . S
O637 C652 1.256 . S
O638 Tb599 2.546 . S
O638 C663 1.251 . S
O639 Tb588 2.362 . S
O639 Tb599 2.610 . S
O639 C655 1.283 . S
O640 Tb588 2.421 . S
O640 C662 1.262 . S
O641 Tb599 2.320 . S
O641 C662 1.260 . S
O642 Tb599 2.552 . S
O642 C655 1.243 . S
O643 Tb599 2.413 . S
O643 C663 1.256 . S
C644 O633 1.283 . S
C644 O636 1.243 . S
C645 C647 1.382 . S
C645 C649 1.393 . S
C645 C652 1.500 . S
C646 C647 1.400 . S
C646 C648 1.384 . S
C647 C645 1.382 . S
C647 C646 1.400 . S
C647 H664 0.930 . S
C648 C646 1.384 . S
C648 C650 1.392 . S
C648 H665 0.931 . S
C649 C645 1.393 . S
C649 C650 1.401 . S
C649 H666 0.930 . S
C650 C648 1.392 . S
C650 C649 1.401 . S
C650 H667 0.930 . S
C651 O634 1.262 . S
C651 O635 1.260 . S
C652 Tb588 2.833 . S
C652 O632 1.251 . S
C652 O637 1.256 . S
C652 C645 1.500 . S
C653 H618 0.929 . S
C653 C631 1.444 . S
C653 C654 1.317 . S
C654 H616 0.930 . S
C654 C622 1.432 . S
C654 C653 1.317 . S
C655 O639 1.283 . S
C655 O642 1.243 . S
C656 C657 1.382 . S
C656 C660 1.393 . S
C656 C663 1.500 . S
C657 C656 1.382 . S
C657 C658 1.400 . S
C657 H668 0.930 . S
C658 C657 1.400 . S
C658 C659 1.384 . S
C659 C658 1.384 . S
C659 C661 1.392 . S
C659 H669 0.931 . S
C660 C656 1.393 . S
C660 C661 1.401 . S
C660 H670 0.930 . S
C661 C659 1.392 . S
C661 C660 1.401 . S
C661 H671 0.930 . S
C662 O640 1.262 . S
C662 O641 1.260 . S
C663 Tb599 2.833 . S
C663 O638 1.251 . S
C663 O643 1.256 . S
C663 C656 1.500 . S
H664 C647 0.930 . S
H665 C648 0.931 . S
H666 C649 0.930 . S
H667 C650 0.930 . S
H668 C657 0.930 . S
H669 C659 0.931 . S
H670 C660 0.930 . S
H671 C661 0.930 . S
Cd672 N675 2.334 1_655 S
Cd672 N701 2.304 1_565 S
Cd672 O708 2.268 . S
Cd672 O711 2.273 1_665 S
Cd672 O712 2.417 . S
Cd672 O713 2.330 . S
Cd673 N688 2.304 1_455 S
Cd673 N692 2.334 1_545 S
Cd673 O709 2.273 1_445 S
Cd673 O710 2.268 . S
Cd673 O714 2.417 . S
Cd673 O715 2.330 . S
C674 N675 1.332 . S
C674 C678 1.381 . S
C674 H680 0.931 . S
N675 Cd672 2.334 1_455 S
N675 C674 1.332 . S
N675 C679 1.328 . S
C676 C677 1.396 . S
C676 C679 1.378 . S
C676 H718 0.931 . S
C677 C676 1.396 . S
C677 C678 1.382 . S
C678 C674 1.381 . S
C678 C677 1.382 . S
C678 H719 0.930 . S
C679 N675 1.328 . S
C679 C676 1.378 . S
C679 H681 0.930 1_455 S
H680 C674 0.931 . S
H681 C679 0.930 1_655 S
C682 O708 1.238 . S
C682 O709 1.253 . S
C683 C684 1.379 . S
C683 N688 1.337 . S
C683 H689 0.929 . S
C684 C683 1.379 . S
C684 C685 1.380 . S
C684 H720 0.929 . S
C685 C684 1.380 . S
C685 C686 1.399 . S
C686 C685 1.399 . S
C686 C687 1.364 1_655 S
C686 H721 0.931 . S
C687 C686 1.364 1_455 S
C687 N688 1.343 1_455 S
C687 H690 0.937 . S
N688 Cd673 2.304 1_655 S
N688 C683 1.337 . S
N688 C687 1.343 1_655 S
H689 C683 0.929 . S
H690 C687 0.937 . S
C691 N692 1.332 . S
C691 C695 1.381 . S
C691 H697 0.931 . S
N692 Cd673 2.334 1_565 S
N692 C691 1.332 . S
N692 C696 1.328 1_565 S
C693 C694 1.396 . S
C693 C696 1.378 1_565 S
C693 H722 0.931 . S
C694 C693 1.396 . S
C694 C695 1.382 . S
C695 C691 1.381 . S
C695 C694 1.382 . S
C695 H723 0.930 . S
C696 N692 1.328 1_545 S
C696 C693 1.378 1_545 S
C696 H698 0.930 . S
H697 C691 0.931 . S
H698 C696 0.930 . S
C699 O710 1.238 . S
C699 O711 1.253 . S
C700 O712 1.239 . S
C700 O713 1.230 . S
N701 Cd672 2.304 1_545 S
N701 C702 1.337 . S
N701 C706 1.338 . S
C702 N701 1.337 . S
C702 C703 1.379 . S
C702 H716 0.929 . S
C703 C702 1.379 . S
C703 C704 1.380 . S
C703 H724 0.929 . S
C704 C703 1.380 . S
C704 C705 1.399 . S
C705 C704 1.399 . S
C705 C706 1.376 . S
C705 H725 0.931 . S
C706 N701 1.338 . S
C706 C705 1.376 . S
C706 H717 0.930 1_545 S
C707 O714 1.239 . S
C707 O715 1.230 . S
O708 Cd672 2.268 . S
O708 C682 1.238 . S
O709 Cd673 2.273 1_665 S
O709 C682 1.253 . S
O710 Cd673 2.268 . S
O710 C699 1.238 . S
O711 Cd672 2.273 1_445 S
O711 C699 1.253 . S
O712 Cd672 2.417 . S
O712 C700 1.239 . S
O713 Cd672 2.330 . S
O713 C700 1.230 . S
O714 Cd673 2.417 . S
O714 C707 1.239 . S
O715 Cd673 2.330 . S
O715 C707 1.230 . S
H716 C702 0.929 . S
H717 C706 0.930 1_565 S
H718 C676 0.931 . S
H719 C678 0.930 . S
H720 C684 0.929 . S
H721 C686 0.931 . S
H722 C693 0.931 . S
H723 C695 0.930 . S
H724 C703 0.929 . S
H725 C705 0.931 . S
Cd726 N729 2.334 . S
Cd726 N755 2.304 1_565 S
Cd726 O762 2.268 1_554 S
Cd726 O765 2.273 1_565 S
Cd726 O766 2.417 . S
Cd726 O767 2.330 . S
Cd727 N742 2.304 . S
Cd727 N746 2.334 1_545 S
Cd727 O763 2.273 1_545 S
Cd727 O764 2.268 1_556 S
Cd727 O768 2.417 . S
Cd727 O769 2.330 . S
C728 N729 1.332 . S
C728 C732 1.381 . S
C728 H734 0.931 . S
N729 Cd726 2.334 . S
N729 C728 1.332 . S
N729 C733 1.328 . S
C730 C731 1.396 . S
C730 C733 1.378 . S
C730 H772 0.931 . S
C731 C730 1.396 . S
C731 C732 1.382 . S
C732 C728 1.381 . S
C732 C731 1.382 . S
C732 H773 0.930 . S
C733 N729 1.328 . S
C733 C730 1.378 . S
C733 H735 0.931 1_554 S
H734 C728 0.931 . S
H735 C733 0.931 1_556 S
C736 O762 1.238 . S
C736 O763 1.253 . S
C737 C738 1.379 . S
C737 N742 1.337 . S
C737 H743 0.929 . S
C738 C737 1.379 . S
C738 C739 1.380 . S
C738 H774 0.929 . S
C739 C738 1.380 . S
C739 C740 1.399 . S
C740 C739 1.399 . S
C740 C741 1.376 . S
C740 H775 0.951 . S
C741 C740 1.376 . S
C741 N742 1.338 . S
C741 H744 0.930 1_556 S
N742 Cd727 2.304 . S
N742 C737 1.337 . S
N742 C741 1.338 . S
H743 C737 0.929 . S
H744 C741 0.930 1_554 S
C745 N746 1.332 . S
C745 C749 1.381 . S
C745 H751 0.931 . S
N746 Cd727 2.334 1_565 S
N746 C745 1.332 . S
N746 C750 1.328 1_565 S
C747 C748 1.398 . S
C747 C750 1.378 1_565 S
C747 H776 0.930 1_556 S
C748 C747 1.398 . S
C748 C749 1.382 . S
C749 C745 1.381 . S
C749 C748 1.382 . S
C749 H777 0.930 . S
C750 N746 1.328 1_545 S
C750 C747 1.378 1_545 S
C750 H752 0.930 1_556 S
H751 C745 0.931 . S
H752 C750 0.930 1_554 S
C753 O764 1.238 . S
C753 O765 1.253 . S
C754 O766 1.239 . S
C754 O767 1.230 . S
N755 Cd726 2.304 1_545 S
N755 C756 1.337 . S
N755 C760 1.338 . S
C756 N755 1.337 . S
C756 C757 1.379 . S
C756 H770 0.929 . S
C757 C756 1.379 . S
C757 C758 1.380 . S
C757 H778 0.929 . S
C758 C757 1.380 . S
C758 C759 1.404 . S
C759 C758 1.404 . S
C759 C760 1.375 . S
C759 H779 0.926 1_554 S
C760 N755 1.338 . S
C760 C759 1.375 . S
C760 H771 0.930 1_544 S
C761 O768 1.239 . S
C761 O769 1.230 . S
O762 Cd726 2.268 1_556 S
O762 C736 1.238 . S
O763 Cd727 2.273 1_565 S
O763 C736 1.253 . S
O764 Cd727 2.268 1_554 S
O764 C753 1.238 . S
O765 Cd726 2.273 1_545 S
O765 C753 1.253 . S
O766 Cd726 2.417 . S
O766 C754 1.239 . S
O767 Cd726 2.330 . S
O767 C754 1.230 . S
O768 Cd727 2.417 . S
O768 C761 1.239 . S
O769 Cd727 2.330 . S
O769 C761 1.230 . S
H770 C756 0.929 . S
H771 C760 0.930 1_566 S
H772 C730 0.931 . S
H773 C732 0.930 . S
H774 C738 0.929 . S
H775 C740 0.951 . S
H776 C747 0.930 1_554 S
H777 C749 0.930 . S
H778 C757 0.929 . S
H779 C759 0.926 1_556 S
Cd780 N783 2.334 1_655 S
Cd780 N809 2.304 . S
Cd780 O816 2.268 1_554 S
Cd780 O819 2.273 1_655 S
Cd780 O820 2.417 . S
Cd780 O821 2.330 . S
Cd781 N796 2.304 1_455 S
Cd781 N800 2.334 . S
Cd781 O817 2.273 1_455 S
Cd781 O818 2.268 1_556 S
Cd781 O822 2.417 . S
Cd781 O823 2.330 . S
C782 N783 1.332 . S
C782 C786 1.381 . S
C782 H788 0.931 . S
N783 Cd780 2.334 1_455 S
N783 C782 1.332 . S
N783 C787 1.328 . S
C784 C785 1.396 . S
C784 C787 1.378 . S
C784 H826 0.931 . S
C785 C784 1.396 . S
C785 C786 1.382 . S
C786 C782 1.381 . S
C786 C785 1.382 . S
C786 H827 0.930 . S
C787 N783 1.328 . S
C787 C784 1.378 . S
C787 H789 0.931 1_454 S
H788 C782 0.931 . S
H789 C787 0.931 1_656 S
C790 O816 1.238 . S
C790 O817 1.253 . S
C791 C792 1.379 . S
C791 N796 1.337 . S
C791 H797 0.929 . S
C792 C791 1.379 . S
C792 C793 1.380 . S
C792 H828 0.929 . S
C793 C792 1.380 . S
C793 C794 1.399 . S
C794 C793 1.399 . S
C794 C795 1.361 1_655 S
C794 H829 0.951 . S
C795 C794 1.361 1_455 S
C795 N796 1.344 1_455 S
C795 H798 0.939 1_556 S
N796 Cd781 2.304 1_655 S
N796 C791 1.337 . S
N796 C795 1.344 1_655 S
H797 C791 0.929 . S
H798 C795 0.939 1_554 S
C799 N800 1.332 . S
C799 C803 1.381 . S
C799 H805 0.931 . S
N800 Cd781 2.334 . S
N800 C799 1.332 . S
N800 C804 1.328 . S
C801 C802 1.398 . S
C801 C804 1.378 . S
C801 H830 0.930 1_556 S
C802 C801 1.398 . S
C802 C803 1.382 . S
C803 C799 1.381 . S
C803 C802 1.382 . S
C803 H831 0.930 . S
C804 N800 1.328 . S
C804 C801 1.378 . S
C804 H806 0.930 1_556 S
H805 C799 0.931 . S
H806 C804 0.930 1_554 S
C807 O818 1.238 . S
C807 O819 1.253 . S
C808 O820 1.239 . S
C808 O821 1.230 . S
N809 Cd780 2.304 . S
N809 C810 1.337 . S
N809 C814 1.338 . S
C810 N809 1.337 . S
C810 C811 1.379 . S
C810 H824 0.929 . S
C811 C810 1.379 . S
C811 C812 1.380 . S
C811 H832 0.929 . S
C812 C811 1.380 . S
C812 C813 1.404 . S
C813 C812 1.404 . S
C813 C814 1.375 . S
C813 H833 0.926 1_554 S
C814 N809 1.338 . S
C814 C813 1.375 . S
C814 H825 0.930 1_554 S
C815 O822 1.239 . S
C815 O823 1.230 . S
O816 Cd780 2.268 1_556 S
O816 C790 1.238 . S
O817 Cd781 2.273 1_655 S
O817 C790 1.253 . S
O818 Cd781 2.268 1_554 S
O818 C807 1.238 . S
O819 Cd780 2.273 1_455 S
O819 C807 1.253 . S
O820 Cd780 2.417 . S
O820 C808 1.239 . S
O821 Cd780 2.330 . S
O821 C808 1.230 . S
O822 Cd781 2.417 . S
O822 C815 1.239 . S
O823 Cd781 2.330 . S
O823 C815 1.230 . S
H824 C810 0.929 . S
H825 C814 0.930 1_556 S
H826 C784 0.931 . S
H827 C786 0.930 . S
H828 C792 0.929 . S
H829 C794 0.951 . S
H830 C801 0.930 1_554 S
H831 C803 0.930 . S
H832 C811 0.929 . S
H833 C813 0.926 1_556 S
Cd834 N837 2.334 . S
Cd834 N863 2.304 . S
Cd834 O870 2.268 1_554 S
Cd834 O873 2.273 . S
Cd834 O874 2.417 . S
Cd834 O875 2.330 . S
Cd835 N850 2.304 . S
Cd835 N854 2.334 . S
Cd835 O871 2.273 . S
Cd835 O872 2.268 1_556 S
Cd835 O876 2.417 . S
Cd835 O877 2.330 . S
C836 N837 1.332 . S
C836 C840 1.381 . S
C836 H842 0.931 . S
N837 Cd834 2.334 . S
N837 C836 1.332 . S
N837 C841 1.328 . S
C838 C839 1.396 . S
C838 C841 1.378 . S
C838 H880 0.931 . S
C839 C838 1.396 . S
C839 C840 1.382 . S
C840 C836 1.381 . S
C840 C839 1.382 . S
C840 H881 0.930 . S
C841 N837 1.328 . S
C841 C838 1.378 . S
C841 H843 0.930 1_554 S
H842 C836 0.931 . S
H843 C841 0.930 1_556 S
C844 O870 1.238 . S
C844 O871 1.253 . S
C845 C846 1.379 . S
C845 N850 1.337 . S
C845 H851 0.929 . S
C846 C845 1.379 . S
C846 C847 1.380 . S
C846 H882 0.929 . S
C847 C846 1.380 . S
C847 C848 1.399 . S
C848 C847 1.399 . S
C848 C849 1.376 . S
C848 H883 0.952 . S
C849 C848 1.376 . S
C849 N850 1.338 . S
C849 H852 0.930 1_556 S
N850 Cd835 2.304 . S
N850 C845 1.337 . S
N850 C849 1.338 . S
H851 C845 0.929 . S
H852 C849 0.930 1_554 S
C853 N854 1.332 . S
C853 C857 1.381 . S
C853 H859 0.931 . S
N854 Cd835 2.334 . S
N854 C853 1.332 . S
N854 C858 1.328 . S
C855 C856 1.399 . S
C855 C858 1.378 . S
C855 H884 0.929 1_556 S
C856 C855 1.399 . S
C856 C857 1.382 . S
C857 C853 1.381 . S
C857 C856 1.382 . S
C857 H885 0.930 . S
C858 N854 1.328 . S
C858 C855 1.378 . S
C858 H860 0.930 1_556 S
H859 C853 0.931 . S
H860 C858 0.930 1_554 S
C861 O872 1.238 . S
C861 O873 1.253 . S
C862 O874 1.239 . S
C862 O875 1.230 . S
N863 Cd834 2.304 . S
N863 C864 1.337 . S
N863 C868 1.338 . S
C864 N863 1.337 . S
C864 C865 1.379 . S
C864 H878 0.929 . S
C865 C864 1.379 . S
C865 C866 1.380 . S
C865 H886 0.929 . S
C866 C865 1.380 . S
C866 C867 1.403 . S
C867 C866 1.403 . S
C867 C868 1.375 . S
C867 H887 0.927 1_554 S
C868 N863 1.338 . S
C868 C867 1.375 . S
C868 H879 0.930 1_554 S
C869 O876 1.239 . S
C869 O877 1.230 . S
O870 Cd834 2.268 1_556 S
O870 C844 1.238 . S
O871 Cd835 2.273 . S
O871 C844 1.253 . S
O872 Cd835 2.268 1_554 S
O872 C861 1.238 . S
O873 Cd834 2.273 . S
O873 C861 1.253 . S
O874 Cd834 2.417 . S
O874 C862 1.239 . S
O875 Cd834 2.330 . S
O875 C862 1.230 . S
O876 Cd835 2.417 . S
O876 C869 1.239 . S
O877 Cd835 2.330 . S
O877 C869 1.230 . S
H878 C864 0.929 . S
H879 C868 0.930 1_556 S
H880 C838 0.931 . S
H881 C840 0.930 . S
H882 C846 0.929 . S
H883 C848 0.952 . S
H884 C855 0.929 1_554 S
H885 C857 0.930 . S
H886 C865 0.929 . S
H887 C867 0.927 1_556 S
Cd888 N891 2.334 1_655 S
Cd888 N917 2.304 . S
Cd888 O924 2.268 . S
Cd888 O927 2.273 1_655 S
Cd888 O928 2.417 . S
Cd888 O929 2.330 . S
Cd889 N904 2.304 1_455 S
Cd889 N908 2.334 . S
Cd889 O925 2.273 1_455 S
Cd889 O926 2.268 . S
Cd889 O930 2.417 . S
Cd889 O931 2.330 . S
C890 N891 1.332 . S
C890 C894 1.381 . S
C890 H896 0.931 . S
N891 Cd888 2.334 1_455 S
N891 C890 1.332 . S
N891 C895 1.328 . S
C892 C893 1.396 . S
C892 C895 1.378 . S
C892 H934 0.931 . S
C893 C892 1.396 . S
C893 C894 1.382 . S
C894 C890 1.381 . S
C894 C893 1.382 . S
C894 H935 0.930 . S
C895 N891 1.328 . S
C895 C892 1.378 . S
C895 H897 0.930 1_455 S
H896 C890 0.931 . S
H897 C895 0.930 1_655 S
C898 O924 1.238 . S
C898 O925 1.253 . S
C899 C900 1.379 . S
C899 N904 1.337 . S
C899 H905 0.929 . S
C900 C899 1.379 . S
C900 C901 1.380 . S
C900 H936 0.929 . S
C901 C900 1.380 . S
C901 C902 1.399 . S
C902 C901 1.399 . S
C902 C903 1.360 1_655 S
C902 H937 0.931 . S
C903 C902 1.360 1_455 S
C903 N904 1.344 1_455 S
C903 H906 0.940 . S
N904 Cd889 2.304 1_655 S
N904 C899 1.337 . S
N904 C903 1.344 1_655 S
H905 C899 0.929 . S
H906 C903 0.940 . S
C907 N908 1.332 . S
C907 C911 1.381 . S
C907 H913 0.931 . S
N908 Cd889 2.334 . S
N908 C907 1.332 . S
N908 C912 1.328 . S
C909 C910 1.396 . S
C909 C912 1.378 . S
C909 H938 0.931 . S
C910 C909 1.396 . S
C910 C911 1.382 . S
C911 C907 1.381 . S
C911 C910 1.382 . S
C911 H939 0.930 . S
C912 N908 1.328 . S
C912 C909 1.378 . S
C912 H914 0.930 . S
H913 C907 0.931 . S
H914 C912 0.930 . S
C915 O926 1.238 . S
C915 O927 1.253 . S
C916 O928 1.239 . S
C916 O929 1.230 . S
N917 Cd888 2.304 . S
N917 C918 1.337 . S
N917 C922 1.338 . S
C918 N917 1.337 . S
C918 C919 1.379 . S
C918 H932 0.929 . S
C919 C918 1.379 . S
C919 C920 1.380 . S
C919 H940 0.929 . S
C920 C919 1.380 . S
C920 C921 1.399 . S
C921 C920 1.399 . S
C921 C922 1.376 . S
C921 H941 0.931 . S
C922 N917 1.338 . S
C922 C921 1.376 . S
C922 H933 0.930 . S
C923 O930 1.239 . S
C923 O931 1.230 . S
O924 Cd888 2.268 . S
O924 C898 1.238 . S
O925 Cd889 2.273 1_655 S
O925 C898 1.253 . S
O926 Cd889 2.268 . S
O926 C915 1.238 . S
O927 Cd888 2.273 1_455 S
O927 C915 1.253 . S
O928 Cd888 2.417 . S
O928 C916 1.239 . S
O929 Cd888 2.330 . S
O929 C916 1.230 . S
O930 Cd889 2.417 . S
O930 C923 1.239 . S
O931 Cd889 2.330 . S
O931 C923 1.230 . S
H932 C918 0.929 . S
H933 C922 0.930 . S
H934 C892 0.931 . S
H935 C894 0.930 . S
H936 C900 0.929 . S
H937 C902 0.931 . S
H938 C909 0.931 . S
H939 C911 0.930 . S
H940 C919 0.929 . S
H941 C921 0.931 . S
Cd942 N945 2.334 . S
Cd942 N971 2.304 1_565 S
Cd942 O978 2.268 . S
Cd942 O981 2.273 1_565 S
Cd942 O982 2.417 . S
Cd942 O983 2.330 . S
Cd943 N958 2.304 . S
Cd943 N962 2.334 1_545 S
Cd943 O979 2.273 1_545 S
Cd943 O980 2.268 . S
Cd943 O984 2.417 . S
Cd943 O985 2.330 . S
C944 N945 1.332 . S
C944 C948 1.381 . S
C944 H950 0.931 . S
N945 Cd942 2.334 . S
N945 C944 1.332 . S
N945 C949 1.328 . S
C946 C947 1.396 . S
C946 C949 1.378 . S
C946 H988 0.931 . S
C947 C946 1.396 . S
C947 C948 1.382 . S
C948 C944 1.381 . S
C948 C947 1.382 . S
C948 H989 0.930 . S
C949 N945 1.328 . S
C949 C946 1.378 . S
C949 H951 0.930 . S
H950 C944 0.931 . S
H951 C949 0.930 . S
C952 O978 1.238 . S
C952 O979 1.253 . S
C953 C954 1.379 . S
C953 N958 1.337 . S
C953 H959 0.929 . S
C954 C953 1.379 . S
C954 C955 1.380 . S
C954 H990 0.929 . S
C955 C954 1.380 . S
C955 C956 1.399 . S
C956 C955 1.399 . S
C956 C957 1.376 . S
C956 H991 0.931 . S
C957 C956 1.376 . S
C957 N958 1.338 . S
C957 H960 0.930 . S
N958 Cd943 2.304 . S
N958 C953 1.337 . S
N958 C957 1.338 . S
H959 C953 0.929 . S
H960 C957 0.930 . S
C961 N962 1.332 . S
C961 C965 1.381 . S
C961 H967 0.931 . S
N962 Cd943 2.334 1_565 S
N962 C961 1.332 . S
N962 C966 1.328 1_565 S
C963 C964 1.396 . S
C963 C966 1.378 1_565 S
C963 H992 0.931 . S
C964 C963 1.396 . S
C964 C965 1.382 . S
C965 C961 1.381 . S
C965 C964 1.382 . S
C965 H993 0.930 . S
C966 N962 1.328 1_545 S
C966 C963 1.378 1_545 S
C966 H968 0.930 . S
H967 C961 0.931 . S
H968 C966 0.930 . S
C969 O980 1.238 . S
C969 O981 1.253 . S
C970 O982 1.239 . S
C970 O983 1.230 . S
N971 Cd942 2.304 1_545 S
N971 C972 1.337 . S
N971 C976 1.338 . S
C972 N971 1.337 . S
C972 C973 1.379 . S
C972 H986 0.929 . S
C973 C972 1.379 . S
C973 C974 1.380 . S
C973 H994 0.929 . S
C974 C973 1.380 . S
C974 C975 1.399 . S
C975 C974 1.399 . S
C975 C976 1.376 . S
C975 H995 0.931 . S
C976 N971 1.338 . S
C976 C975 1.376 . S
C976 H987 0.930 1_545 S
C977 O984 1.239 . S
C977 O985 1.230 . S
O978 Cd942 2.268 . S
O978 C952 1.238 . S
O979 Cd943 2.273 1_565 S
O979 C952 1.253 . S
O980 Cd943 2.268 . S
O980 C969 1.238 . S
O981 Cd942 2.273 1_545 S
O981 C969 1.253 . S
O982 Cd942 2.417 . S
O982 C970 1.239 . S
O983 Cd942 2.330 . S
O983 C970 1.230 . S
O984 Cd943 2.417 . S
O984 C977 1.239 . S
O985 Cd943 2.330 . S
O985 C977 1.230 . S
H986 C972 0.929 . S
H987 C976 0.930 1_565 S
H988 C946 0.931 . S
H989 C948 0.930 . S
H990 C954 0.929 . S
H991 C956 0.931 . S
H992 C963 0.931 . S
H993 C965 0.930 . S
H994 C973 0.929 . S
H995 C975 0.931 . S
H996 C1002 0.930 . S
H997 C1005 0.930 . S
H998 C1006 0.930 . S
H999 C1007 0.930 . S
H1000 C1010 0.930 . S
H1001 C1011 0.930 . S
C1002 H996 0.930 . S
C1002 C1003 1.355 . S
C1002 C1004 1.415 . S
C1003 C1002 1.355 . S
C1003 C1005 1.419 . S
C1004 C1002 1.415 . S
C1004 C1009 1.425 . S
C1004 C1011 1.409 . S
C1005 H997 0.930 . S
C1005 C1003 1.419 . S
C1005 C1006 1.362 . S
C1006 H998 0.930 . S
C1006 C1005 1.362 . S
C1006 C1009 1.409 . S
C1007 H999 0.930 . S
C1007 C1008 1.355 . S
C1007 C1009 1.415 . S
C1008 C1007 1.355 . S
C1008 C1010 1.419 . S
C1009 C1004 1.425 . S
C1009 C1006 1.409 . S
C1009 C1007 1.415 . S
C1010 H1000 0.930 . S
C1010 C1008 1.419 . S
C1010 C1011 1.362 . S
C1011 H1001 0.930 . S
C1011 C1004 1.409 . S
C1011 C1010 1.362 . S
H1012 C1018 0.930 . S
H1013 C1021 0.930 . S
H1014 C1022 0.930 . S
H1015 C1023 0.930 . S
H1016 C1026 0.930 . S
H1017 C1027 0.930 . S
C1018 H1012 0.930 . S
C1018 C1019 1.355 . S
C1018 C1020 1.415 . S
C1019 C1018 1.355 . S
C1019 C1021 1.419 . S
C1020 C1018 1.415 . S
C1020 C1025 1.425 . S
C1020 C1027 1.409 . S
C1021 H1013 0.930 . S
C1021 C1019 1.419 . S
C1021 C1022 1.362 . S
C1022 H1014 0.930 . S
C1022 C1021 1.362 . S
C1022 C1025 1.409 . S
C1023 H1015 0.930 . S
C1023 C1024 1.355 . S
C1023 C1025 1.415 . S
C1024 C1023 1.355 . S
C1024 C1026 1.419 . S
C1025 C1020 1.425 . S
C1025 C1022 1.409 . S
C1025 C1023 1.415 . S
C1026 H1016 0.930 . S
C1026 C1024 1.419 . S
C1026 C1027 1.362 . S
C1027 H1017 0.930 . S
C1027 C1020 1.409 . S
C1027 C1026 1.362 . S
H1028 C1034 0.930 . S
H1029 C1037 0.930 . S
H1030 C1038 0.930 . S
H1031 C1039 0.930 . S
H1032 C1042 0.930 . S
H1033 C1043 0.930 . S
C1034 H1028 0.930 . S
C1034 C1035 1.355 . S
C1034 C1036 1.415 . S
C1035 C1034 1.355 . S
C1035 C1037 1.419 . S
C1036 C1034 1.415 . S
C1036 C1041 1.425 . S
C1036 C1043 1.409 . S
C1037 H1029 0.930 . S
C1037 C1035 1.419 . S
C1037 C1038 1.362 . S
C1038 H1030 0.930 . S
C1038 C1037 1.362 . S
C1038 C1041 1.409 . S
C1039 H1031 0.930 . S
C1039 C1040 1.355 . S
C1039 C1041 1.415 . S
C1040 C1039 1.355 . S
C1040 C1042 1.419 . S
C1041 C1036 1.425 . S
C1041 C1038 1.409 . S
C1041 C1039 1.415 . S
C1042 H1032 0.930 . S
C1042 C1040 1.419 . S
C1042 C1043 1.362 . S
C1043 H1033 0.930 . S
C1043 C1036 1.409 . S
C1043 C1042 1.362 . S
H1044 C1050 0.930 . S
H1045 C1053 0.930 . S
H1046 C1054 0.930 . S
H1047 C1055 0.930 . S
H1048 C1058 0.930 . S
H1049 C1059 0.930 . S
C1050 H1044 0.930 . S
C1050 C1051 1.355 . S
C1050 C1052 1.415 . S
C1051 C1050 1.355 . S
C1051 C1053 1.419 . S
C1052 C1050 1.415 . S
C1052 C1057 1.425 . S
C1052 C1059 1.409 . S
C1053 H1045 0.930 . S
C1053 C1051 1.419 . S
C1053 C1054 1.362 . S
C1054 H1046 0.930 . S
C1054 C1053 1.362 . S
C1054 C1057 1.409 . S
C1055 H1047 0.930 . S
C1055 C1056 1.355 . S
C1055 C1057 1.415 . S
C1056 C1055 1.355 . S
C1056 C1058 1.419 . S
C1057 C1052 1.425 . S
C1057 C1054 1.409 . S
C1057 C1055 1.415 . S
C1058 H1048 0.930 . S
C1058 C1056 1.419 . S
C1058 C1059 1.362 . S
C1059 H1049 0.930 . S
C1059 C1052 1.409 . S
C1059 C1058 1.362 . S
H1060 C1066 0.930 . S
H1061 C1069 0.930 . S
H1062 C1070 0.930 . S
H1063 C1071 0.930 . S
H1064 C1074 0.930 . S
H1065 C1075 0.930 . S
C1066 H1060 0.930 . S
C1066 C1067 1.355 . S
C1066 C1068 1.415 . S
C1067 C1066 1.355 . S
C1067 C1069 1.419 . S
C1068 C1066 1.415 . S
C1068 C1073 1.425 . S
C1068 C1075 1.409 . S
C1069 H1061 0.930 . S
C1069 C1067 1.419 . S
C1069 C1070 1.362 . S
C1070 H1062 0.930 . S
C1070 C1069 1.362 . S
C1070 C1073 1.409 . S
C1071 H1063 0.930 . S
C1071 C1072 1.355 . S
C1071 C1073 1.415 . S
C1072 C1071 1.355 . S
C1072 C1074 1.419 . S
C1073 C1068 1.425 . S
C1073 C1070 1.409 . S
C1073 C1071 1.415 . S
C1074 H1064 0.930 . S
C1074 C1072 1.419 . S
C1074 C1075 1.362 . S
C1075 H1065 0.930 . S
C1075 C1068 1.409 . S
C1075 C1074 1.362 . S
H1076 C1082 0.930 . S
H1077 C1085 0.930 . S
H1078 C1086 0.930 . S
H1079 C1087 0.930 . S
H1080 C1090 0.930 . S
H1081 C1091 0.930 . S
C1082 H1076 0.930 . S
C1082 C1083 1.355 . S
C1082 C1084 1.415 . S
C1083 C1082 1.355 . S
C1083 C1085 1.419 . S
C1084 C1082 1.415 . S
C1084 C1089 1.425 . S
C1084 C1091 1.409 . S
C1085 H1077 0.930 . S
C1085 C1083 1.419 . S
C1085 C1086 1.362 . S
C1086 H1078 0.930 . S
C1086 C1085 1.362 . S
C1086 C1089 1.409 . S
C1087 H1079 0.930 . S
C1087 C1088 1.355 . S
C1087 C1089 1.415 . S
C1088 C1087 1.355 . S
C1088 C1090 1.419 . S
C1089 C1084 1.425 . S
C1089 C1086 1.409 . S
C1089 C1087 1.415 . S
C1090 H1080 0.930 . S
C1090 C1088 1.419 . S
C1090 C1091 1.362 . S
C1091 H1081 0.930 . S
C1091 C1084 1.409 . S
C1091 C1090 1.362 . S
H1092 C1098 0.930 . S
H1093 C1101 0.930 . S
H1094 C1102 0.930 . S
H1095 C1103 0.930 . S
H1096 C1106 0.930 . S
H1097 C1107 0.930 . S
C1098 H1092 0.930 . S
C1098 C1099 1.355 . S
C1098 C1100 1.415 . S
C1099 C1098 1.355 . S
C1099 C1101 1.419 . S
C1100 C1098 1.415 . S
C1100 C1105 1.425 . S
C1100 C1107 1.409 . S
C1101 H1093 0.930 . S
C1101 C1099 1.419 . S
C1101 C1102 1.362 . S
C1102 H1094 0.930 . S
C1102 C1101 1.362 . S
C1102 C1105 1.409 . S
C1103 H1095 0.930 . S
C1103 C1104 1.355 . S
C1103 C1105 1.415 . S
C1104 C1103 1.355 . S
C1104 C1106 1.419 . S
C1105 C1100 1.425 . S
C1105 C1102 1.409 . S
C1105 C1103 1.415 . S
C1106 H1096 0.930 . S
C1106 C1104 1.419 . S
C1106 C1107 1.362 . S
C1107 H1097 0.930 . S
C1107 C1100 1.409 . S
C1107 C1106 1.362 . S
H1108 C1114 0.930 . S
H1109 C1117 0.930 . S
H1110 C1118 0.930 . S
H1111 C1119 0.930 . S
H1112 C1122 0.930 . S
H1113 C1123 0.930 . S
C1114 H1108 0.930 . S
C1114 C1115 1.355 . S
C1114 C1116 1.415 . S
C1115 C1114 1.355 . S
C1115 C1117 1.419 . S
C1116 C1114 1.415 . S
C1116 C1121 1.425 . S
C1116 C1123 1.409 . S
C1117 H1109 0.930 . S
C1117 C1115 1.419 . S
C1117 C1118 1.362 . S
C1118 H1110 0.930 . S
C1118 C1117 1.362 . S
C1118 C1121 1.409 . S
C1119 H1111 0.930 . S
C1119 C1120 1.355 . S
C1119 C1121 1.415 . S
C1120 C1119 1.355 . S
C1120 C1122 1.419 . S
C1121 C1116 1.425 . S
C1121 C1118 1.409 . S
C1121 C1119 1.415 . S
C1122 H1112 0.930 . S
C1122 C1120 1.419 . S
C1122 C1123 1.362 . S
C1123 H1113 0.930 . S
C1123 C1116 1.409 . S
C1123 C1122 1.362 . S
H1124 C1130 0.930 . S
H1125 C1133 0.930 . S
H1126 C1134 0.930 . S
H1127 C1135 0.930 . S
H1128 C1138 0.930 . S
H1129 C1139 0.930 . S
C1130 H1124 0.930 . S
C1130 C1131 1.355 . S
C1130 C1132 1.415 . S
C1131 C1130 1.355 . S
C1131 C1133 1.419 . S
C1132 C1130 1.415 . S
C1132 C1137 1.425 . S
C1132 C1139 1.409 . S
C1133 H1125 0.930 . S
C1133 C1131 1.419 . S
C1133 C1134 1.362 . S
C1134 H1126 0.930 . S
C1134 C1133 1.362 . S
C1134 C1137 1.409 . S
C1135 H1127 0.930 . S
C1135 C1136 1.355 . S
C1135 C1137 1.415 . S
C1136 C1135 1.355 . S
C1136 C1138 1.419 . S
C1137 C1132 1.425 . S
C1137 C1134 1.409 . S
C1137 C1135 1.415 . S
C1138 H1128 0.930 . S
C1138 C1136 1.419 . S
C1138 C1139 1.362 . S
C1139 H1129 0.930 . S
C1139 C1132 1.409 . S
C1139 C1138 1.362 . S
H1140 C1146 0.930 . S
H1141 C1149 0.930 . S
H1142 C1150 0.930 . S
H1143 C1151 0.930 . S
H1144 C1154 0.930 . S
H1145 C1155 0.930 . S
C1146 H1140 0.930 . S
C1146 C1147 1.355 . S
C1146 C1148 1.415 . S
C1147 C1146 1.355 . S
C1147 C1149 1.419 . S
C1148 C1146 1.415 . S
C1148 C1153 1.425 . S
C1148 C1155 1.409 . S
C1149 H1141 0.930 . S
C1149 C1147 1.419 . S
C1149 C1150 1.362 . S
C1150 H1142 0.930 . S
C1150 C1149 1.362 . S
C1150 C1153 1.409 . S
C1151 H1143 0.930 . S
C1151 C1152 1.355 . S
C1151 C1153 1.415 . S
C1152 C1151 1.355 . S
C1152 C1154 1.419 . S
C1153 C1148 1.425 . S
C1153 C1150 1.409 . S
C1153 C1151 1.415 . S
C1154 H1144 0.930 . S
C1154 C1152 1.419 . S
C1154 C1155 1.362 . S
C1155 H1145 0.930 . S
C1155 C1148 1.409 . S
C1155 C1154 1.362 . S
H1156 C1162 0.930 . S
H1157 C1165 0.930 . S
H1158 C1166 0.930 . S
H1159 C1167 0.930 . S
H1160 C1170 0.930 . S
H1161 C1171 0.930 . S
C1162 H1156 0.930 . S
C1162 C1163 1.355 . S
C1162 C1164 1.415 . S
C1163 C1162 1.355 . S
C1163 C1165 1.419 . S
C1164 C1162 1.415 . S
C1164 C1169 1.425 . S
C1164 C1171 1.409 . S
C1165 H1157 0.930 . S
C1165 C1163 1.419 . S
C1165 C1166 1.362 . S
C1166 H1158 0.930 . S
C1166 C1165 1.362 . S
C1166 C1169 1.409 . S
C1167 H1159 0.930 . S
C1167 C1168 1.355 . S
C1167 C1169 1.415 . S
C1168 C1167 1.355 . S
C1168 C1170 1.419 . S
C1169 C1164 1.425 . S
C1169 C1166 1.409 . S
C1169 C1167 1.415 . S
C1170 H1160 0.930 . S
C1170 C1168 1.419 . S
C1170 C1171 1.362 . S
C1171 H1161 0.930 . S
C1171 C1164 1.409 . S
C1171 C1170 1.362 . S
H1172 C1178 0.930 . S
H1173 C1181 0.930 . S
H1174 C1182 0.930 . S
H1175 C1183 0.930 . S
H1176 C1186 0.930 . S
H1177 C1187 0.930 . S
C1178 H1172 0.930 . S
C1178 C1179 1.355 . S
C1178 C1180 1.415 . S
C1179 C1178 1.355 . S
C1179 C1181 1.419 . S
C1180 C1178 1.415 . S
C1180 C1185 1.425 . S
C1180 C1187 1.409 . S
C1181 H1173 0.930 . S
C1181 C1179 1.419 . S
C1181 C1182 1.362 . S
C1182 H1174 0.930 . S
C1182 C1181 1.362 . S
C1182 C1185 1.409 . S
C1183 H1175 0.930 . S
C1183 C1184 1.355 . S
C1183 C1185 1.415 . S
C1184 C1183 1.355 . S
C1184 C1186 1.419 . S
C1185 C1180 1.425 . S
C1185 C1182 1.409 . S
C1185 C1183 1.415 . S
C1186 H1176 0.930 . S
C1186 C1184 1.419 . S
C1186 C1187 1.362 . S
C1187 H1177 0.930 . S
C1187 C1180 1.409 . S
C1187 C1186 1.362 . S
H1188 C1194 0.930 . S
H1189 C1197 0.930 . S
H1190 C1198 0.930 . S
H1191 C1199 0.930 . S
H1192 C1202 0.930 . S
H1193 C1203 0.930 . S
C1194 H1188 0.930 . S
C1194 C1195 1.355 . S
C1194 C1196 1.415 . S
C1195 C1194 1.355 . S
C1195 C1197 1.419 . S
C1196 C1194 1.415 . S
C1196 C1201 1.425 . S
C1196 C1203 1.409 . S
C1197 H1189 0.930 . S
C1197 C1195 1.419 . S
C1197 C1198 1.362 . S
C1198 H1190 0.930 . S
C1198 C1197 1.362 . S
C1198 C1201 1.409 . S
C1199 H1191 0.930 . S
C1199 C1200 1.355 . S
C1199 C1201 1.415 . S
C1200 C1199 1.355 . S
C1200 C1202 1.419 . S
C1201 C1196 1.425 . S
C1201 C1198 1.409 . S
C1201 C1199 1.415 . S
C1202 H1192 0.930 . S
C1202 C1200 1.419 . S
C1202 C1203 1.362 . S
C1203 H1193 0.930 . S
C1203 C1196 1.409 . S
C1203 C1202 1.362 . S
H1204 C1210 0.930 . S
H1205 C1213 0.930 . S
H1206 C1214 0.930 . S
H1207 C1215 0.930 . S
H1208 C1218 0.930 . S
H1209 C1219 0.930 . S
C1210 H1204 0.930 . S
C1210 C1211 1.355 . S
C1210 C1212 1.415 . S
C1211 C1210 1.355 . S
C1211 C1213 1.419 . S
C1212 C1210 1.415 . S
C1212 C1217 1.425 . S
C1212 C1219 1.409 . S
C1213 H1205 0.930 . S
C1213 C1211 1.419 . S
C1213 C1214 1.362 . S
C1214 H1206 0.930 . S
C1214 C1213 1.362 . S
C1214 C1217 1.409 . S
C1215 H1207 0.930 . S
C1215 C1216 1.355 . S
C1215 C1217 1.415 . S
C1216 C1215 1.355 . S
C1216 C1218 1.419 . S
C1217 C1212 1.425 . S
C1217 C1214 1.409 . S
C1217 C1215 1.415 . S
C1218 H1208 0.930 . S
C1218 C1216 1.419 . S
C1218 C1219 1.362 . S
C1219 H1209 0.930 . S
C1219 C1212 1.409 . S
C1219 C1218 1.362 . S
H1220 C1226 0.930 . S
H1221 C1229 0.930 . S
H1222 C1230 0.930 . S
H1223 C1231 0.930 . S
H1224 C1234 0.930 . S
H1225 C1235 0.930 . S
C1226 H1220 0.930 . S
C1226 C1227 1.355 . S
C1226 C1228 1.415 . S
C1227 C1226 1.355 . S
C1227 C1229 1.419 . S
C1228 C1226 1.415 . S
C1228 C1233 1.425 . S
C1228 C1235 1.409 . S
C1229 H1221 0.930 . S
C1229 C1227 1.419 . S
C1229 C1230 1.362 . S
C1230 H1222 0.930 . S
C1230 C1229 1.362 . S
C1230 C1233 1.409 . S
C1231 H1223 0.930 . S
C1231 C1232 1.355 . S
C1231 C1233 1.415 . S
C1232 C1231 1.355 . S
C1232 C1234 1.419 . S
C1233 C1228 1.425 . S
C1233 C1230 1.409 . S
C1233 C1231 1.415 . S
C1234 H1224 0.930 . S
C1234 C1232 1.419 . S
C1234 C1235 1.362 . S
C1235 H1225 0.930 . S
C1235 C1228 1.409 . S
C1235 C1234 1.362 . S
H1236 C1242 0.930 . S
H1237 C1245 0.930 . S
H1238 C1246 0.930 . S
H1239 C1247 0.930 . S
H1240 C1250 0.930 . S
H1241 C1251 0.930 . S
C1242 H1236 0.930 . S
C1242 C1243 1.355 . S
C1242 C1244 1.415 . S
C1243 C1242 1.355 . S
C1243 C1245 1.419 . S
C1244 C1242 1.415 . S
C1244 C1249 1.425 . S
C1244 C1251 1.409 . S
C1245 H1237 0.930 . S
C1245 C1243 1.419 . S
C1245 C1246 1.362 . S
C1246 H1238 0.930 . S
C1246 C1245 1.362 . S
C1246 C1249 1.409 . S
C1247 H1239 0.930 . S
C1247 C1248 1.355 . S
C1247 C1249 1.415 . S
C1248 C1247 1.355 . S
C1248 C1250 1.419 . S
C1249 C1244 1.425 . S
C1249 C1246 1.409 . S
C1249 C1247 1.415 . S
C1250 H1240 0.930 . S
C1250 C1248 1.419 . S
C1250 C1251 1.362 . S
C1251 H1241 0.930 . S
C1251 C1244 1.409 . S
C1251 C1250 1.362 . S
H1252 C1258 0.930 . S
H1253 C1261 0.930 . S
H1254 C1262 0.930 . S
H1255 C1263 0.930 . S
H1256 C1266 0.930 . S
H1257 C1267 0.930 . S
C1258 H1252 0.930 . S
C1258 C1259 1.355 . S
C1258 C1260 1.415 . S
C1259 C1258 1.355 . S
C1259 C1261 1.419 . S
C1260 C1258 1.415 . S
C1260 C1265 1.425 . S
C1260 C1267 1.409 . S
C1261 H1253 0.930 . S
C1261 C1259 1.419 . S
C1261 C1262 1.362 . S
C1262 H1254 0.930 . S
C1262 C1261 1.362 . S
C1262 C1265 1.409 . S
C1263 H1255 0.930 . S
C1263 C1264 1.355 . S
C1263 C1265 1.415 . S
C1264 C1263 1.355 . S
C1264 C1266 1.419 . S
C1265 C1260 1.425 . S
C1265 C1262 1.409 . S
C1265 C1263 1.415 . S
C1266 H1256 0.930 . S
C1266 C1264 1.419 . S
C1266 C1267 1.362 . S
C1267 H1257 0.930 . S
C1267 C1260 1.409 . S
C1267 C1266 1.362 . S
H1268 C1274 0.930 . S
H1269 C1277 0.930 . S
H1270 C1278 0.930 . S
H1271 C1279 0.930 . S
H1272 C1282 0.930 . S
H1273 C1283 0.930 . S
C1274 H1268 0.930 . S
C1274 C1275 1.355 . S
C1274 C1276 1.415 . S
C1275 C1274 1.355 . S
C1275 C1277 1.419 . S
C1276 C1274 1.415 . S
C1276 C1281 1.425 . S
C1276 C1283 1.409 . S
C1277 H1269 0.930 . S
C1277 C1275 1.419 . S
C1277 C1278 1.362 . S
C1278 H1270 0.930 . S
C1278 C1277 1.362 . S
C1278 C1281 1.409 . S
C1279 H1271 0.930 . S
C1279 C1280 1.355 . S
C1279 C1281 1.415 . S
C1280 C1279 1.355 . S
C1280 C1282 1.419 . S
C1281 C1276 1.425 . S
C1281 C1278 1.409 . S
C1281 C1279 1.415 . S
C1282 H1272 0.930 . S
C1282 C1280 1.419 . S
C1282 C1283 1.362 . S
C1283 H1273 0.930 . S
C1283 C1276 1.409 . S
C1283 C1282 1.362 . S
H1284 C1290 0.930 . S
H1285 C1293 0.930 . S
H1286 C1294 0.930 . S
H1287 C1295 0.930 . S
H1288 C1298 0.930 . S
H1289 C1299 0.930 . S
C1290 H1284 0.930 . S
C1290 C1291 1.355 . S
C1290 C1292 1.415 . S
C1291 C1290 1.355 . S
C1291 C1293 1.419 . S
C1292 C1290 1.415 . S
C1292 C1297 1.425 . S
C1292 C1299 1.409 . S
C1293 H1285 0.930 . S
C1293 C1291 1.419 . S
C1293 C1294 1.362 . S
C1294 H1286 0.930 . S
C1294 C1293 1.362 . S
C1294 C1297 1.409 . S
C1295 H1287 0.930 . S
C1295 C1296 1.355 . S
C1295 C1297 1.415 . S
C1296 C1295 1.355 . S
C1296 C1298 1.419 . S
C1297 C1292 1.425 . S
C1297 C1294 1.409 . S
C1297 C1295 1.415 . S
C1298 H1288 0.930 . S
C1298 C1296 1.419 . S
C1298 C1299 1.362 . S
C1299 H1289 0.930 . S
C1299 C1292 1.409 . S
C1299 C1298 1.362 . S
H1300 C1306 0.930 . S
H1301 C1309 0.930 . S
H1302 C1310 0.930 . S
H1303 C1311 0.930 . S
H1304 C1314 0.930 . S
H1305 C1315 0.930 . S
C1306 H1300 0.930 . S
C1306 C1307 1.355 . S
C1306 C1308 1.415 . S
C1307 C1306 1.355 . S
C1307 C1309 1.419 . S
C1308 C1306 1.415 . S
C1308 C1313 1.425 . S
C1308 C1315 1.409 . S
C1309 H1301 0.930 . S
C1309 C1307 1.419 . S
C1309 C1310 1.362 . S
C1310 H1302 0.930 . S
C1310 C1309 1.362 . S
C1310 C1313 1.409 . S
C1311 H1303 0.930 . S
C1311 C1312 1.355 . S
C1311 C1313 1.415 . S
C1312 C1311 1.355 . S
C1312 C1314 1.419 . S
C1313 C1308 1.425 . S
C1313 C1310 1.409 . S
C1313 C1311 1.415 . S
C1314 H1304 0.930 . S
C1314 C1312 1.419 . S
C1314 C1315 1.362 . S
C1315 H1305 0.930 . S
C1315 C1308 1.409 . S
C1315 C1314 1.362 . S
H1316 C1322 0.930 . S
H1317 C1325 0.930 . S
H1318 C1326 0.930 . S
H1319 C1327 0.930 . S
H1320 C1330 0.930 . S
H1321 C1331 0.930 . S
C1322 H1316 0.930 . S
C1322 C1323 1.355 . S
C1322 C1324 1.415 . S
C1323 C1322 1.355 . S
C1323 C1325 1.419 . S
C1324 C1322 1.415 . S
C1324 C1329 1.425 . S
C1324 C1331 1.409 . S
C1325 H1317 0.930 . S
C1325 C1323 1.419 . S
C1325 C1326 1.362 . S
C1326 H1318 0.930 . S
C1326 C1325 1.362 . S
C1326 C1329 1.409 . S
C1327 H1319 0.930 . S
C1327 C1328 1.355 . S
C1327 C1329 1.415 . S
C1328 C1327 1.355 . S
C1328 C1330 1.419 . S
C1329 C1324 1.425 . S
C1329 C1326 1.409 . S
C1329 C1327 1.415 . S
C1330 H1320 0.930 . S
C1330 C1328 1.419 . S
C1330 C1331 1.362 . S
C1331 H1321 0.930 . S
C1331 C1324 1.409 . S
C1331 C1330 1.362 . S
H1332 C1338 0.930 . S
H1333 C1341 0.930 . S
H1334 C1342 0.930 . S
H1335 C1343 0.930 . S
H1336 C1346 0.930 1_556 S
H1337 C1347 0.930 . S
C1338 H1332 0.930 . S
C1338 C1339 1.355 . S
C1338 C1340 1.415 . S
C1339 C1338 1.355 . S
C1339 C1341 1.419 . S
C1340 C1338 1.415 . S
C1340 C1345 1.425 . S
C1340 C1347 1.409 . S
C1341 H1333 0.930 . S
C1341 C1339 1.419 . S
C1341 C1342 1.362 . S
C1342 H1334 0.930 . S
C1342 C1341 1.362 . S
C1342 C1345 1.409 . S
C1343 H1335 0.930 . S
C1343 C1344 1.355 . S
C1343 C1345 1.415 . S
C1344 C1343 1.355 . S
C1344 C1346 1.419 . S
C1345 C1340 1.425 . S
C1345 C1342 1.409 . S
C1345 C1343 1.415 . S
C1346 H1336 0.930 1_554 S
C1346 C1344 1.419 . S
C1346 C1347 1.362 . S
C1347 H1337 0.930 . S
C1347 C1340 1.409 . S
C1347 C1346 1.362 . S
H1348 C1354 0.930 . S
H1349 C1357 0.930 . S
H1350 C1358 0.930 . S
H1351 C1359 0.930 . S
H1352 C1362 0.930 . S
H1353 C1363 0.930 . S
C1354 H1348 0.930 . S
C1354 C1355 1.355 . S
C1354 C1356 1.415 . S
C1355 C1354 1.355 . S
C1355 C1357 1.419 . S
C1356 C1354 1.415 . S
C1356 C1361 1.425 . S
C1356 C1363 1.409 . S
C1357 H1349 0.930 . S
C1357 C1355 1.419 . S
C1357 C1358 1.362 . S
C1358 H1350 0.930 . S
C1358 C1357 1.362 . S
C1358 C1361 1.409 . S
C1359 H1351 0.930 . S
C1359 C1360 1.355 . S
C1359 C1361 1.415 . S
C1360 C1359 1.355 . S
C1360 C1362 1.419 . S
C1361 C1356 1.425 . S
C1361 C1358 1.409 . S
C1361 C1359 1.415 . S
C1362 H1352 0.930 . S
C1362 C1360 1.419 . S
C1362 C1363 1.362 . S
C1363 H1353 0.930 . S
C1363 C1356 1.409 . S
C1363 C1362 1.362 . S
H1364 C1370 0.930 . S
H1365 C1373 0.930 . S
H1366 C1374 0.930 . S
H1367 C1375 0.930 . S
H1368 C1378 0.930 . S
H1369 C1379 0.930 . S
C1370 H1364 0.930 . S
C1370 C1371 1.355 . S
C1370 C1372 1.415 . S
C1371 C1370 1.355 . S
C1371 C1373 1.419 . S
C1372 C1370 1.415 . S
C1372 C1377 1.425 . S
C1372 C1379 1.409 . S
C1373 H1365 0.930 . S
C1373 C1371 1.419 . S
C1373 C1374 1.362 . S
C1374 H1366 0.930 . S
C1374 C1373 1.362 . S
C1374 C1377 1.409 . S
C1375 H1367 0.930 . S
C1375 C1376 1.355 . S
C1375 C1377 1.415 . S
C1376 C1375 1.355 . S
C1376 C1378 1.419 . S
C1377 C1372 1.425 . S
C1377 C1374 1.409 . S
C1377 C1375 1.415 . S
C1378 H1368 0.930 . S
C1378 C1376 1.419 . S
C1378 C1379 1.362 . S
C1379 H1369 0.930 . S
C1379 C1372 1.409 . S
C1379 C1378 1.362 . S
H1380 C1386 0.930 . S
H1381 C1389 0.930 . S
H1382 C1390 0.930 . S
H1383 C1391 0.930 . S
H1384 C1394 0.930 . S
H1385 C1395 0.930 . S
C1386 H1380 0.930 . S
C1386 C1387 1.355 . S
C1386 C1388 1.415 . S
C1387 C1386 1.355 . S
C1387 C1389 1.419 . S
C1388 C1386 1.415 . S
C1388 C1393 1.425 . S
C1388 C1395 1.409 . S
C1389 H1381 0.930 . S
C1389 C1387 1.419 . S
C1389 C1390 1.362 . S
C1390 H1382 0.930 . S
C1390 C1389 1.362 . S
C1390 C1393 1.409 . S
C1391 H1383 0.930 . S
C1391 C1392 1.355 . S
C1391 C1393 1.415 . S
C1392 C1391 1.355 . S
C1392 C1394 1.419 . S
C1393 C1388 1.425 . S
C1393 C1390 1.409 . S
C1393 C1391 1.415 . S
C1394 H1384 0.930 . S
C1394 C1392 1.419 . S
C1394 C1395 1.362 . S
C1395 H1385 0.930 . S
C1395 C1388 1.409 . S
C1395 C1394 1.362 . S
H1396 C1402 0.930 . S
H1397 C1405 0.930 . S
H1398 C1406 0.930 . S
H1399 C1407 0.930 . S
H1400 C1410 0.930 . S
H1401 C1411 0.930 . S
C1402 H1396 0.930 . S
C1402 C1403 1.355 . S
C1402 C1404 1.415 . S
C1403 C1402 1.355 . S
C1403 C1405 1.419 . S
C1404 C1402 1.415 . S
C1404 C1409 1.425 . S
C1404 C1411 1.409 . S
C1405 H1397 0.930 . S
C1405 C1403 1.419 . S
C1405 C1406 1.362 . S
C1406 H1398 0.930 . S
C1406 C1405 1.362 . S
C1406 C1409 1.409 . S
C1407 H1399 0.930 . S
C1407 C1408 1.355 . S
C1407 C1409 1.415 . S
C1408 C1407 1.355 . S
C1408 C1410 1.419 . S
C1409 C1404 1.425 . S
C1409 C1406 1.409 . S
C1409 C1407 1.415 . S
C1410 H1400 0.930 . S
C1410 C1408 1.419 . S
C1410 C1411 1.362 . S
C1411 H1401 0.930 . S
C1411 C1404 1.409 . S
C1411 C1410 1.362 . S
H1412 C1418 0.930 . S
H1413 C1421 0.930 . S
H1414 C1422 0.930 . S
H1415 C1423 0.930 . S
H1416 C1426 0.930 . S
H1417 C1427 0.930 . S
C1418 H1412 0.930 . S
C1418 C1419 1.355 . S
C1418 C1420 1.415 . S
C1419 C1418 1.355 . S
C1419 C1421 1.419 . S
C1420 C1418 1.415 . S
C1420 C1425 1.425 . S
C1420 C1427 1.409 . S
C1421 H1413 0.930 . S
C1421 C1419 1.419 . S
C1421 C1422 1.362 . S
C1422 H1414 0.930 . S
C1422 C1421 1.362 . S
C1422 C1425 1.409 . S
C1423 H1415 0.930 . S
C1423 C1424 1.355 . S
C1423 C1425 1.415 . S
C1424 C1423 1.355 . S
C1424 C1426 1.419 . S
C1425 C1420 1.425 . S
C1425 C1422 1.409 . S
C1425 C1423 1.415 . S
C1426 H1416 0.930 . S
C1426 C1424 1.419 . S
C1426 C1427 1.362 . S
C1427 H1417 0.930 . S
C1427 C1420 1.409 . S
C1427 C1426 1.362 . S
H1428 C1434 0.930 . S
H1429 C1437 0.930 . S
H1430 C1438 0.930 . S
H1431 C1439 0.930 . S
H1432 C1442 0.930 . S
H1433 C1443 0.930 . S
C1434 H1428 0.930 . S
C1434 C1435 1.355 . S
C1434 C1436 1.415 . S
C1435 C1434 1.355 . S
C1435 C1437 1.419 . S
C1436 C1434 1.415 . S
C1436 C1441 1.425 . S
C1436 C1443 1.409 . S
C1437 H1429 0.930 . S
C1437 C1435 1.419 . S
C1437 C1438 1.362 . S
C1438 H1430 0.930 . S
C1438 C1437 1.362 . S
C1438 C1441 1.409 . S
C1439 H1431 0.930 . S
C1439 C1440 1.355 . S
C1439 C1441 1.415 . S
C1440 C1439 1.355 . S
C1440 C1442 1.419 . S
C1441 C1436 1.425 . S
C1441 C1438 1.409 . S
C1441 C1439 1.415 . S
C1442 H1432 0.930 . S
C1442 C1440 1.419 . S
C1442 C1443 1.362 . S
C1443 H1433 0.930 . S
C1443 C1436 1.409 . S
C1443 C1442 1.362 . S
H1444 C1450 0.930 . S
H1445 C1453 0.930 . S
H1446 C1454 0.930 . S
H1447 C1455 0.930 . S
H1448 C1458 0.930 . S
H1449 C1459 0.930 . S
C1450 H1444 0.930 . S
C1450 C1451 1.355 . S
C1450 C1452 1.415 . S
C1451 C1450 1.355 . S
C1451 C1453 1.419 . S
C1452 C1450 1.415 . S
C1452 C1457 1.425 . S
C1452 C1459 1.409 . S
C1453 H1445 0.930 . S
C1453 C1451 1.419 . S
C1453 C1454 1.362 . S
C1454 H1446 0.930 . S
C1454 C1453 1.362 . S
C1454 C1457 1.409 . S
C1455 H1447 0.930 . S
C1455 C1456 1.355 . S
C1455 C1457 1.415 . S
C1456 C1455 1.355 . S
C1456 C1458 1.419 . S
C1457 C1452 1.425 . S
C1457 C1454 1.409 . S
C1457 C1455 1.415 . S
C1458 H1448 0.930 . S
C1458 C1456 1.419 . S
C1458 C1459 1.362 . S
C1459 H1449 0.930 . S
C1459 C1452 1.409 . S
C1459 C1458 1.362 . S
H1460 C1466 0.930 . S
H1461 C1469 0.930 . S
H1462 C1470 0.930 . S
H1463 C1471 0.930 . S
H1464 C1474 0.930 . S
H1465 C1475 0.930 . S
C1466 H1460 0.930 . S
C1466 C1467 1.355 . S
C1466 C1468 1.415 . S
C1467 C1466 1.355 . S
C1467 C1469 1.419 . S
C1468 C1466 1.415 . S
C1468 C1473 1.425 . S
C1468 C1475 1.409 . S
C1469 H1461 0.930 . S
C1469 C1467 1.419 . S
C1469 C1470 1.362 . S
C1470 H1462 0.930 . S
C1470 C1469 1.362 . S
C1470 C1473 1.409 . S
C1471 H1463 0.930 . S
C1471 C1472 1.355 . S
C1471 C1473 1.415 . S
C1472 C1471 1.355 . S
C1472 C1474 1.419 . S
C1473 C1468 1.425 . S
C1473 C1470 1.409 . S
C1473 C1471 1.415 . S
C1474 H1464 0.930 . S
C1474 C1472 1.419 . S
C1474 C1475 1.362 . S
C1475 H1465 0.930 . S
C1475 C1468 1.409 . S
C1475 C1474 1.362 . S
H1476 C1482 0.930 . S
H1477 C1485 0.930 . S
H1478 C1486 0.930 . S
H1479 C1487 0.930 . S
H1480 C1490 0.930 . S
H1481 C1491 0.930 . S
C1482 H1476 0.930 . S
C1482 C1483 1.355 . S
C1482 C1484 1.415 . S
C1483 C1482 1.355 . S
C1483 C1485 1.419 . S
C1484 C1482 1.415 . S
C1484 C1489 1.425 . S
C1484 C1491 1.409 . S
C1485 H1477 0.930 . S
C1485 C1483 1.419 . S
C1485 C1486 1.362 . S
C1486 H1478 0.930 . S
C1486 C1485 1.362 . S
C1486 C1489 1.409 . S
C1487 H1479 0.930 . S
C1487 C1488 1.355 . S
C1487 C1489 1.415 . S
C1488 C1487 1.355 . S
C1488 C1490 1.419 . S
C1489 C1484 1.425 . S
C1489 C1486 1.409 . S
C1489 C1487 1.415 . S
C1490 H1480 0.930 . S
C1490 C1488 1.419 . S
C1490 C1491 1.362 . S
C1491 H1481 0.930 . S
C1491 C1484 1.409 . S
C1491 C1490 1.362 . S
H1492 C1498 0.930 . S
H1493 C1501 0.930 . S
H1494 C1502 0.930 . S
H1495 C1503 0.930 . S
H1496 C1506 0.930 . S
H1497 C1507 0.930 . S
C1498 H1492 0.930 . S
C1498 C1499 1.355 . S
C1498 C1500 1.415 . S
C1499 C1498 1.355 . S
C1499 C1501 1.419 . S
C1500 C1498 1.415 . S
C1500 C1505 1.425 . S
C1500 C1507 1.409 . S
C1501 H1493 0.930 . S
C1501 C1499 1.419 . S
C1501 C1502 1.362 . S
C1502 H1494 0.930 . S
C1502 C1501 1.362 . S
C1502 C1505 1.409 . S
C1503 H1495 0.930 . S
C1503 C1504 1.355 . S
C1503 C1505 1.415 . S
C1504 C1503 1.355 . S
C1504 C1506 1.419 . S
C1505 C1500 1.425 . S
C1505 C1502 1.409 . S
C1505 C1503 1.415 . S
C1506 H1496 0.930 . S
C1506 C1504 1.419 . S
C1506 C1507 1.362 . S
C1507 H1497 0.930 . S
C1507 C1500 1.409 . S
C1507 C1506 1.362 . S
H1508 C1514 0.930 . S
H1509 C1517 0.930 . S
H1510 C1518 0.930 . S
H1511 C1519 0.930 . S
H1512 C1522 0.930 . S
H1513 C1523 0.930 . S
C1514 H1508 0.930 . S
C1514 C1515 1.355 . S
C1514 C1516 1.415 . S
C1515 C1514 1.355 . S
C1515 C1517 1.419 . S
C1516 C1514 1.415 . S
C1516 C1521 1.425 . S
C1516 C1523 1.409 . S
C1517 H1509 0.930 . S
C1517 C1515 1.419 . S
C1517 C1518 1.362 . S
C1518 H1510 0.930 . S
C1518 C1517 1.362 . S
C1518 C1521 1.409 . S
C1519 H1511 0.930 . S
C1519 C1520 1.355 . S
C1519 C1521 1.415 . S
C1520 C1519 1.355 . S
C1520 C1522 1.419 . S
C1521 C1516 1.425 . S
C1521 C1518 1.409 . S
C1521 C1519 1.415 . S
C1522 H1512 0.930 . S
C1522 C1520 1.419 . S
C1522 C1523 1.362 . S
C1523 H1513 0.930 . S
C1523 C1516 1.409 . S
C1523 C1522 1.362 . S
H1524 C1530 0.930 . S
H1525 C1533 0.930 . S
H1526 C1534 0.930 . S
H1527 C1535 0.930 . S
H1528 C1538 0.930 . S
H1529 C1539 0.930 . S
C1530 H1524 0.930 . S
C1530 C1531 1.355 . S
C1530 C1532 1.415 . S
C1531 C1530 1.355 . S
C1531 C1533 1.419 . S
C1532 C1530 1.415 . S
C1532 C1537 1.425 . S
C1532 C1539 1.409 . S
C1533 H1525 0.930 . S
C1533 C1531 1.419 . S
C1533 C1534 1.362 . S
C1534 H1526 0.930 . S
C1534 C1533 1.362 . S
C1534 C1537 1.409 . S
C1535 H1527 0.930 . S
C1535 C1536 1.355 . S
C1535 C1537 1.415 . S
C1536 C1535 1.355 . S
C1536 C1538 1.419 . S
C1537 C1532 1.425 . S
C1537 C1534 1.409 . S
C1537 C1535 1.415 . S
C1538 H1528 0.930 . S
C1538 C1536 1.419 . S
C1538 C1539 1.362 . S
C1539 H1529 0.930 . S
C1539 C1532 1.409 . S
C1539 C1538 1.362 . S
H1540 C1546 0.930 . S
H1541 C1549 0.930 . S
H1542 C1550 0.930 . S
H1543 C1551 0.930 . S
H1544 C1554 0.930 . S
H1545 C1555 0.930 . S
C1546 H1540 0.930 . S
C1546 C1547 1.355 . S
C1546 C1548 1.415 . S
C1547 C1546 1.355 . S
C1547 C1549 1.419 . S
C1548 C1546 1.415 . S
C1548 C1553 1.425 . S
C1548 C1555 1.409 . S
C1549 H1541 0.930 . S
C1549 C1547 1.419 . S
C1549 C1550 1.362 . S
C1550 H1542 0.930 . S
C1550 C1549 1.362 . S
C1550 C1553 1.409 . S
C1551 H1543 0.930 . S
C1551 C1552 1.355 . S
C1551 C1553 1.415 . S
C1552 C1551 1.355 . S
C1552 C1554 1.419 . S
C1553 C1548 1.425 . S
C1553 C1550 1.409 . S
C1553 C1551 1.415 . S
C1554 H1544 0.930 . S
C1554 C1552 1.419 . S
C1554 C1555 1.362 . S
C1555 H1545 0.930 . S
C1555 C1548 1.409 . S
C1555 C1554 1.362 . S
H1556 C1562 0.930 . S
H1557 C1565 0.930 . S
H1558 C1566 0.930 . S
H1559 C1567 0.930 . S
H1560 C1570 0.930 . S
H1561 C1571 0.930 . S
C1562 H1556 0.930 . S
C1562 C1563 1.355 . S
C1562 C1564 1.415 . S
C1563 C1562 1.355 . S
C1563 C1565 1.419 . S
C1564 C1562 1.415 . S
C1564 C1569 1.425 . S
C1564 C1571 1.409 . S
C1565 H1557 0.930 . S
C1565 C1563 1.419 . S
C1565 C1566 1.362 . S
C1566 H1558 0.930 . S
C1566 C1565 1.362 . S
C1566 C1569 1.409 . S
C1567 H1559 0.930 . S
C1567 C1568 1.355 . S
C1567 C1569 1.415 . S
C1568 C1567 1.355 . S
C1568 C1570 1.419 . S
C1569 C1564 1.425 . S
C1569 C1566 1.409 . S
C1569 C1567 1.415 . S
C1570 H1560 0.930 . S
C1570 C1568 1.419 . S
C1570 C1571 1.362 . S
C1571 H1561 0.930 . S
C1571 C1564 1.409 . S
C1571 C1570 1.362 . S
H1572 C1578 0.930 . S
H1573 C1581 0.930 . S
H1574 C1582 0.930 . S
H1575 C1583 0.930 . S
H1576 C1586 0.930 . S
H1577 C1587 0.930 . S
C1578 H1572 0.930 . S
C1578 C1579 1.355 . S
C1578 C1580 1.415 . S
C1579 C1578 1.355 . S
C1579 C1581 1.419 . S
C1580 C1578 1.415 . S
C1580 C1585 1.425 . S
C1580 C1587 1.409 . S
C1581 H1573 0.930 . S
C1581 C1579 1.419 . S
C1581 C1582 1.362 . S
C1582 H1574 0.930 . S
C1582 C1581 1.362 . S
C1582 C1585 1.409 . S
C1583 H1575 0.930 . S
C1583 C1584 1.355 . S
C1583 C1585 1.415 . S
C1584 C1583 1.355 . S
C1584 C1586 1.419 . S
C1585 C1580 1.425 . S
C1585 C1582 1.409 . S
C1585 C1583 1.415 . S
C1586 H1576 0.930 . S
C1586 C1584 1.419 . S
C1586 C1587 1.362 . S
C1587 H1577 0.930 . S
C1587 C1580 1.409 . S
C1587 C1586 1.362 . S
H1588 C1594 0.930 . S
H1589 C1597 0.930 . S
H1590 C1598 0.930 . S
H1591 C1599 0.930 . S
H1592 C1602 0.930 . S
H1593 C1603 0.930 . S
C1594 H1588 0.930 . S
C1594 C1595 1.355 . S
C1594 C1596 1.415 . S
C1595 C1594 1.355 . S
C1595 C1597 1.419 . S
C1596 C1594 1.415 . S
C1596 C1601 1.425 . S
C1596 C1603 1.409 . S
C1597 H1589 0.930 . S
C1597 C1595 1.419 . S
C1597 C1598 1.362 . S
C1598 H1590 0.930 . S
C1598 C1597 1.362 . S
C1598 C1601 1.409 . S
C1599 H1591 0.930 . S
C1599 C1600 1.355 . S
C1599 C1601 1.415 . S
C1600 C1599 1.355 . S
C1600 C1602 1.419 . S
C1601 C1596 1.425 . S
C1601 C1598 1.409 . S
C1601 C1599 1.415 . S
C1602 H1592 0.930 . S
C1602 C1600 1.419 . S
C1602 C1603 1.362 . S
C1603 H1593 0.930 . S
C1603 C1596 1.409 . S
C1603 C1602 1.362 . S
H1604 C1610 0.930 . S
H1605 C1613 0.930 . S
H1606 C1614 0.930 . S
H1607 C1615 0.930 . S
H1608 C1618 0.930 . S
H1609 C1619 0.930 . S
C1610 H1604 0.930 . S
C1610 C1611 1.355 . S
C1610 C1612 1.415 . S
C1611 C1610 1.355 . S
C1611 C1613 1.419 . S
C1612 C1610 1.415 . S
C1612 C1617 1.425 . S
C1612 C1619 1.409 . S
C1613 H1605 0.930 . S
C1613 C1611 1.419 . S
C1613 C1614 1.362 . S
C1614 H1606 0.930 . S
C1614 C1613 1.362 . S
C1614 C1617 1.409 . S
C1615 H1607 0.930 . S
C1615 C1616 1.355 . S
C1615 C1617 1.415 . S
C1616 C1615 1.355 . S
C1616 C1618 1.419 . S
C1617 C1612 1.425 . S
C1617 C1614 1.409 . S
C1617 C1615 1.415 . S
C1618 H1608 0.930 . S
C1618 C1616 1.419 . S
C1618 C1619 1.362 . S
C1619 H1609 0.930 . S
C1619 C1612 1.409 . S
C1619 C1618 1.362 . S
H1620 C1626 0.930 . S
H1621 C1629 0.930 . S
H1622 C1630 0.930 . S
H1623 C1631 0.930 . S
H1624 C1634 0.930 . S
H1625 C1635 0.930 . S
C1626 H1620 0.930 . S
C1626 C1627 1.355 . S
C1626 C1628 1.415 . S
C1627 C1626 1.355 . S
C1627 C1629 1.419 . S
C1628 C1626 1.415 . S
C1628 C1633 1.425 . S
C1628 C1635 1.409 . S
C1629 H1621 0.930 . S
C1629 C1627 1.419 . S
C1629 C1630 1.362 . S
C1630 H1622 0.930 . S
C1630 C1629 1.362 . S
C1630 C1633 1.409 . S
C1631 H1623 0.930 . S
C1631 C1632 1.355 . S
C1631 C1633 1.415 . S
C1632 C1631 1.355 . S
C1632 C1634 1.419 . S
C1633 C1628 1.425 . S
C1633 C1630 1.409 . S
C1633 C1631 1.415 . S
C1634 H1624 0.930 . S
C1634 C1632 1.419 . S
C1634 C1635 1.362 . S
C1635 H1625 0.930 . S
C1635 C1628 1.409 . S
C1635 C1634 1.362 . S
H1636 C1642 0.930 . S
H1637 C1645 0.930 . S
H1638 C1646 0.930 . S
H1639 C1647 0.930 . S
H1640 C1650 0.930 . S
H1641 C1651 0.930 . S
C1642 H1636 0.930 . S
C1642 C1643 1.355 . S
C1642 C1644 1.415 . S
C1643 C1642 1.355 . S
C1643 C1645 1.419 . S
C1644 C1642 1.415 . S
C1644 C1649 1.425 . S
C1644 C1651 1.409 . S
C1645 H1637 0.930 . S
C1645 C1643 1.419 . S
C1645 C1646 1.362 . S
C1646 H1638 0.930 . S
C1646 C1645 1.362 . S
C1646 C1649 1.409 . S
C1647 H1639 0.930 . S
C1647 C1648 1.355 . S
C1647 C1649 1.415 . S
C1648 C1647 1.355 . S
C1648 C1650 1.419 . S
C1649 C1644 1.425 . S
C1649 C1646 1.409 . S
C1649 C1647 1.415 . S
C1650 H1640 0.930 . S
C1650 C1648 1.419 . S
C1650 C1651 1.362 . S
C1651 H1641 0.930 . S
C1651 C1644 1.409 . S
C1651 C1650 1.362 . S
H1652 C1658 0.930 . S
H1653 C1661 0.930 . S
H1654 C1662 0.930 . S
H1655 C1663 0.930 . S
H1656 C1666 0.930 . S
H1657 C1667 0.930 . S
C1658 H1652 0.930 . S
C1658 C1659 1.355 . S
C1658 C1660 1.415 . S
C1659 C1658 1.355 . S
C1659 C1661 1.419 . S
C1660 C1658 1.415 . S
C1660 C1665 1.425 . S
C1660 C1667 1.409 . S
C1661 H1653 0.930 . S
C1661 C1659 1.419 . S
C1661 C1662 1.362 . S
C1662 H1654 0.930 . S
C1662 C1661 1.362 . S
C1662 C1665 1.409 . S
C1663 H1655 0.930 . S
C1663 C1664 1.355 . S
C1663 C1665 1.415 . S
C1664 C1663 1.355 . S
C1664 C1666 1.419 . S
C1665 C1660 1.425 . S
C1665 C1662 1.409 . S
C1665 C1663 1.415 . S
C1666 H1656 0.930 . S
C1666 C1664 1.419 . S
C1666 C1667 1.362 . S
C1667 H1657 0.930 . S
C1667 C1660 1.409 . S
C1667 C1666 1.362 . S
H1668 C1674 0.930 . S
H1669 C1677 0.930 . S
H1670 C1678 0.930 . S
H1671 C1679 0.930 . S
H1672 C1682 0.930 . S
H1673 C1683 0.930 . S
C1674 H1668 0.930 . S
C1674 C1675 1.355 . S
C1674 C1676 1.415 . S
C1675 C1674 1.355 . S
C1675 C1677 1.419 . S
C1676 C1674 1.415 . S
C1676 C1681 1.425 . S
C1676 C1683 1.409 . S
C1677 H1669 0.930 . S
C1677 C1675 1.419 . S
C1677 C1678 1.362 . S
C1678 H1670 0.930 . S
C1678 C1677 1.362 . S
C1678 C1681 1.409 . S
C1679 H1671 0.930 . S
C1679 C1680 1.355 . S
C1679 C1681 1.415 . S
C1680 C1679 1.355 . S
C1680 C1682 1.419 . S
C1681 C1676 1.425 . S
C1681 C1678 1.409 . S
C1681 C1679 1.415 . S
C1682 H1672 0.930 . S
C1682 C1680 1.419 . S
C1682 C1683 1.362 . S
C1683 H1673 0.930 . S
C1683 C1676 1.409 . S
C1683 C1682 1.362 . S
H1684 C1690 0.930 . S
H1685 C1693 0.930 . S
H1686 C1694 0.930 . S
H1687 C1695 0.930 . S
H1688 C1698 0.930 . S
H1689 C1699 0.930 . S
C1690 H1684 0.930 . S
C1690 C1691 1.355 . S
C1690 C1692 1.415 . S
C1691 C1690 1.355 . S
C1691 C1693 1.419 . S
C1692 C1690 1.415 . S
C1692 C1697 1.425 . S
C1692 C1699 1.409 . S
C1693 H1685 0.930 . S
C1693 C1691 1.419 . S
C1693 C1694 1.362 . S
C1694 H1686 0.930 . S
C1694 C1693 1.362 . S
C1694 C1697 1.409 . S
C1695 H1687 0.930 . S
C1695 C1696 1.355 . S
C1695 C1697 1.415 . S
C1696 C1695 1.355 . S
C1696 C1698 1.419 . S
C1697 C1692 1.425 . S
C1697 C1694 1.409 . S
C1697 C1695 1.415 . S
C1698 H1688 0.930 . S
C1698 C1696 1.419 . S
C1698 C1699 1.362 . S
C1699 H1689 0.930 . S
C1699 C1692 1.409 . S
C1699 C1698 1.362 . S
H1700 C1706 0.930 . S
H1701 C1709 0.930 . S
H1702 C1710 0.930 . S
H1703 C1711 0.930 . S
H1704 C1714 0.930 . S
H1705 C1715 0.930 . S
C1706 H1700 0.930 . S
C1706 C1707 1.355 . S
C1706 C1708 1.415 . S
C1707 C1706 1.355 . S
C1707 C1709 1.419 . S
C1708 C1706 1.415 . S
C1708 C1713 1.425 . S
C1708 C1715 1.409 . S
C1709 H1701 0.930 . S
C1709 C1707 1.419 . S
C1709 C1710 1.362 . S
C1710 H1702 0.930 . S
C1710 C1709 1.362 . S
C1710 C1713 1.409 . S
C1711 H1703 0.930 . S
C1711 C1712 1.355 . S
C1711 C1713 1.415 . S
C1712 C1711 1.355 . S
C1712 C1714 1.419 . S
C1713 C1708 1.425 . S
C1713 C1710 1.409 . S
C1713 C1711 1.415 . S
C1714 H1704 0.930 . S
C1714 C1712 1.419 . S
C1714 C1715 1.362 . S
C1715 H1705 0.930 . S
C1715 C1708 1.409 . S
C1715 C1714 1.362 . S
H1716 C1722 0.930 . S
H1717 C1725 0.930 . S
H1718 C1726 0.930 . S
H1719 C1727 0.930 . S
H1720 C1730 0.930 . S
H1721 C1731 0.930 . S
C1722 H1716 0.930 . S
C1722 C1723 1.355 . S
C1722 C1724 1.415 . S
C1723 C1722 1.355 . S
C1723 C1725 1.419 . S
C1724 C1722 1.415 . S
C1724 C1729 1.425 . S
C1724 C1731 1.409 . S
C1725 H1717 0.930 . S
C1725 C1723 1.419 . S
C1725 C1726 1.362 . S
C1726 H1718 0.930 . S
C1726 C1725 1.362 . S
C1726 C1729 1.409 . S
C1727 H1719 0.930 . S
C1727 C1728 1.355 . S
C1727 C1729 1.415 . S
C1728 C1727 1.355 . S
C1728 C1730 1.419 . S
C1729 C1724 1.425 . S
C1729 C1726 1.409 . S
C1729 C1727 1.415 . S
C1730 H1720 0.930 . S
C1730 C1728 1.419 . S
C1730 C1731 1.362 . S
C1731 H1721 0.930 . S
C1731 C1724 1.409 . S
C1731 C1730 1.362 . S
H1732 C1738 0.930 . S
H1733 C1741 0.930 . S
H1734 C1742 0.930 . S
H1735 C1743 0.930 . S
H1736 C1746 0.930 . S
H1737 C1747 0.930 . S
C1738 H1732 0.930 . S
C1738 C1739 1.355 . S
C1738 C1740 1.415 . S
C1739 C1738 1.355 . S
C1739 C1741 1.419 . S
C1740 C1738 1.415 . S
C1740 C1745 1.425 . S
C1740 C1747 1.409 . S
C1741 H1733 0.930 . S
C1741 C1739 1.419 . S
C1741 C1742 1.362 . S
C1742 H1734 0.930 . S
C1742 C1741 1.362 . S
C1742 C1745 1.409 . S
C1743 H1735 0.930 . S
C1743 C1744 1.355 . S
C1743 C1745 1.415 . S
C1744 C1743 1.355 . S
C1744 C1746 1.419 . S
C1745 C1740 1.425 . S
C1745 C1742 1.409 . S
C1745 C1743 1.415 . S
C1746 H1736 0.930 . S
C1746 C1744 1.419 . S
C1746 C1747 1.362 . S
C1747 H1737 0.930 . S
C1747 C1740 1.409 . S
C1747 C1746 1.362 . S
H1748 C1754 0.930 . S
H1749 C1757 0.930 . S
H1750 C1758 0.930 . S
H1751 C1759 0.930 . S
H1752 C1762 0.930 . S
H1753 C1763 0.930 . S
C1754 H1748 0.930 . S
C1754 C1755 1.355 . S
C1754 C1756 1.415 . S
C1755 C1754 1.355 . S
C1755 C1757 1.419 . S
C1756 C1754 1.415 . S
C1756 C1761 1.425 . S
C1756 C1763 1.409 . S
C1757 H1749 0.930 . S
C1757 C1755 1.419 . S
C1757 C1758 1.362 . S
C1758 H1750 0.930 . S
C1758 C1757 1.362 . S
C1758 C1761 1.409 . S
C1759 H1751 0.930 . S
C1759 C1760 1.355 . S
C1759 C1761 1.415 . S
C1760 C1759 1.355 . S
C1760 C1762 1.419 . S
C1761 C1756 1.425 . S
C1761 C1758 1.409 . S
C1761 C1759 1.415 . S
C1762 H1752 0.930 . S
C1762 C1760 1.419 . S
C1762 C1763 1.362 . S
C1763 H1753 0.930 . S
C1763 C1756 1.409 . S
C1763 C1762 1.362 . S
C1008 C707 1.297 . S
C1003 C74 1.273 . S
C1024 C685 0.176 . S
C1019 C142 0.887 . S
C1040 C682 0.933 . S
C1035 C231 0.843 . S
C1051 C322 1.548 . S
C1056 C694 1.602 . S
C1067 C406 0.883 . S
C1072 C677 0.185 . S
C1088 C699 0.948 . S
C1083 C494 0.955 . S
C1099 C562 1.622 . S
C1104 C704 1.565 . S
C1115 C651 1.219 . S
C1120 C700 1.304 . S
C1136 C758 1.596 . S
C1131 C58 1.596 . S
C1147 C151 1.396 . S
C1152 C808 1.454 . S
C1168 C731 2.758 . S
C1163 C224 2.646 . S
C1184 C807 0.888 . S
C1179 C315 0.954 . S
C1195 C399 0.937 . S
C1200 C736 0.912 . S
C1216 C802 1.597 . S
C1211 C478 1.560 . S
C1227 C571 1.250 . S
C1232 C761 1.391 . S
C1243 C644 2.644 . S
C1248 C793 2.774 . S
C1259 C67 2.658 . S
C1264 C785 2.780 . S
C1275 C392 1.352 . S
C1280 C815 1.448 . S
C1296 C739 2.795 . S
C1291 C487 2.694 . S
C1312 C790 0.906 . S
C1307 C578 0.936 . S
C1323 C658 1.582 . S
C1328 C748 1.593 . S
C1339 C238 1.624 . S
C1344 C812 1.668 . S
C1360 C754 1.433 . S
C1355 C308 1.367 . S
C1371 C158 0.962 . S
C1376 C753 0.924 . S
C1387 C662 1.273 . S
C1392 C869 1.297 . S
C1403 C394 0.904 . S
C1408 C847 0.153 . S
C1424 C844 0.955 . S
C1419 C483 0.943 . S
C1440 C856 1.584 . S
C1435 C574 1.591 . S
C1451 C154 0.857 . S
C1456 C839 0.218 . S
C1472 C861 0.926 . S
C1467 C242 0.833 . S
C1483 C310 1.547 . S
C1488 C866 1.620 . S
C1499 C63 1.210 . S
C1504 C862 1.299 . S
C1515 C646 1.591 . S
C1520 C920 1.652 . S
C1536 C970 1.455 . S
C1531 C403 1.393 . S
C1547 C476 2.664 . S
C1552 C893 2.789 . S
C1563 C567 0.805 . S
C1568 C969 0.932 . S
C1584 C898 0.946 . S
C1579 C147 0.817 . S
C1595 C226 1.625 . S
C1600 C964 1.632 . S
C1616 C923 1.421 . S
C1611 C319 1.326 . S
C1632 C955 2.766 . S
C1627 C56 2.689 . S
C1648 C947 2.762 . S
C1643 C655 2.638 . S
C1659 C140 1.423 . S
C1664 C977 1.451 . S
C1675 C235 2.651 . S
C1680 C901 2.809 . S
C1696 C952 0.901 . S
C1691 C326 0.965 . S
C1707 C70 1.607 . S
C1712 C910 1.603 . S
C1723 C490 1.638 . S
C1728 C974 1.628 . S
C1744 C916 1.404 . S
C1739 C560 1.290 . S
C1760 C915 0.923 . S
C1755 C410 0.943 . S
