# Generated by pormake.
# Topology ocu, (6,8)-cn, num edge types: 1
# Building blocks:
#     Node 0, Type 0, BuildingBlock: CUKXOW_clean_sbu_0, # of connection points: 6
#     Node 1, Type 0, BuildingBlock: CUKXOW_clean_sbu_0, # of connection points: 6
#     Node 2, Type 0, BuildingBlock: CUKXOW_clean_sbu_0, # of connection points: 6
#     Node 3, Type 0, BuildingBlock: CUKXOW_clean_sbu_0, # of connection points: 6
#     Node 4, Type 0, BuildingBlock: CUKXOW_clean_sbu_0, # of connection points: 6
#     Node 5, Type 0, BuildingBlock: CUKXOW_clean_sbu_0, # of connection points: 6
#     Node 6, Type 0, BuildingBlock: CUKXOW_clean_sbu_0, # of connection points: 6
#     Node 7, Type 0, BuildingBlock: CUKXOW_clean_sbu_0, # of connection points: 6
#     Node 8, Type 1, BuildingBlock: AJUNOK_clean_sbu_0, # of connection points: 8
#     Node 9, Type 1, BuildingBlock: AJUNOK_clean_sbu_0, # of connection points: 8
#     Node 10, Type 1, BuildingBlock: AJUNOK_clean_sbu_0, # of connection points: 8
#     Node 11, Type 1, BuildingBlock: AJUNOK_clean_sbu_0, # of connection points: 8
#     Node 12, Type 1, BuildingBlock: AJUNOK_clean_sbu_0, # of connection points: 8
#     Node 13, Type 1, BuildingBlock: AJUNOK_clean_sbu_0, # of connection points: 8
#     Edge 14, Type (0, 1), BuildingBlock: OJICUG_clean_linker_0, # of connection points: 2
#     Edge 15, Type (0, 1), BuildingBlock: OJICUG_clean_linker_0, # of connection points: 2
#     Edge 16, Type (0, 1), BuildingBlock: OJICUG_clean_linker_0, # of connection points: 2
#     Edge 17, Type (0, 1), BuildingBlock: OJICUG_clean_linker_0, # of connection points: 2
#     Edge 18, Type (0, 1), BuildingBlock: OJICUG_clean_linker_0, # of connection points: 2
#     Edge 19, Type (0, 1), BuildingBlock: OJICUG_clean_linker_0, # of connection points: 2
#     Edge 20, Type (0, 1), BuildingBlock: OJICUG_clean_linker_0, # of connection points: 2
#     Edge 21, Type (0, 1), BuildingBlock: OJICUG_clean_linker_0, # of connection points: 2
#     Edge 22, Type (0, 1), BuildingBlock: OJICUG_clean_linker_0, # of connection points: 2
#     Edge 23, Type (0, 1), BuildingBlock: OJICUG_clean_linker_0, # of connection points: 2
#     Edge 24, Type (0, 1), BuildingBlock: OJICUG_clean_linker_0, # of connection points: 2
#     Edge 25, Type (0, 1), BuildingBlock: OJICUG_clean_linker_0, # of connection points: 2
#     Edge 26, Type (0, 1), BuildingBlock: OJICUG_clean_linker_0, # of connection points: 2
#     Edge 27, Type (0, 1), BuildingBlock: OJICUG_clean_linker_0, # of connection points: 2
#     Edge 28, Type (0, 1), BuildingBlock: OJICUG_clean_linker_0, # of connection points: 2
#     Edge 29, Type (0, 1), BuildingBlock: OJICUG_clean_linker_0, # of connection points: 2
#     Edge 30, Type (0, 1), BuildingBlock: OJICUG_clean_linker_0, # of connection points: 2
#     Edge 31, Type (0, 1), BuildingBlock: OJICUG_clean_linker_0, # of connection points: 2
#     Edge 32, Type (0, 1), BuildingBlock: OJICUG_clean_linker_0, # of connection points: 2
#     Edge 33, Type (0, 1), BuildingBlock: OJICUG_clean_linker_0, # of connection points: 2
#     Edge 34, Type (0, 1), BuildingBlock: OJICUG_clean_linker_0, # of connection points: 2
#     Edge 35, Type (0, 1), BuildingBlock: OJICUG_clean_linker_0, # of connection points: 2
#     Edge 36, Type (0, 1), BuildingBlock: OJICUG_clean_linker_0, # of connection points: 2
#     Edge 37, Type (0, 1), BuildingBlock: OJICUG_clean_linker_0, # of connection points: 2
#     Edge 38, Type (0, 1), BuildingBlock: OJICUG_clean_linker_0, # of connection points: 2
#     Edge 39, Type (0, 1), BuildingBlock: OJICUG_clean_linker_0, # of connection points: 2
#     Edge 40, Type (0, 1), BuildingBlock: OJICUG_clean_linker_0, # of connection points: 2
#     Edge 41, Type (0, 1), BuildingBlock: OJICUG_clean_linker_0, # of connection points: 2
#     Edge 42, Type (0, 1), BuildingBlock: OJICUG_clean_linker_0, # of connection points: 2
#     Edge 43, Type (0, 1), BuildingBlock: OJICUG_clean_linker_0, # of connection points: 2
#     Edge 44, Type (0, 1), BuildingBlock: OJICUG_clean_linker_0, # of connection points: 2
#     Edge 45, Type (0, 1), BuildingBlock: OJICUG_clean_linker_0, # of connection points: 2
#     Edge 46, Type (0, 1), BuildingBlock: OJICUG_clean_linker_0, # of connection points: 2
#     Edge 47, Type (0, 1), BuildingBlock: OJICUG_clean_linker_0, # of connection points: 2
#     Edge 48, Type (0, 1), BuildingBlock: OJICUG_clean_linker_0, # of connection points: 2
#     Edge 49, Type (0, 1), BuildingBlock: OJICUG_clean_linker_0, # of connection points: 2
#     Edge 50, Type (0, 1), BuildingBlock: OJICUG_clean_linker_0, # of connection points: 2
#     Edge 51, Type (0, 1), BuildingBlock: OJICUG_clean_linker_0, # of connection points: 2
#     Edge 52, Type (0, 1), BuildingBlock: OJICUG_clean_linker_0, # of connection points: 2
#     Edge 53, Type (0, 1), BuildingBlock: OJICUG_clean_linker_0, # of connection points: 2
#     Edge 54, Type (0, 1), BuildingBlock: OJICUG_clean_linker_0, # of connection points: 2
#     Edge 55, Type (0, 1), BuildingBlock: OJICUG_clean_linker_0, # of connection points: 2
#     Edge 56, Type (0, 1), BuildingBlock: OJICUG_clean_linker_0, # of connection points: 2
#     Edge 57, Type (0, 1), BuildingBlock: OJICUG_clean_linker_0, # of connection points: 2
#     Edge 58, Type (0, 1), BuildingBlock: OJICUG_clean_linker_0, # of connection points: 2
#     Edge 59, Type (0, 1), BuildingBlock: OJICUG_clean_linker_0, # of connection points: 2
#     Edge 60, Type (0, 1), BuildingBlock: OJICUG_clean_linker_0, # of connection points: 2
#     Edge 61, Type (0, 1), BuildingBlock: OJICUG_clean_linker_0, # of connection points: 2
# Relax obj value: 0.140
# Max RMSD: 0.217
# Mean RMSD: 0.184
data_MOF--net-ocu--node1-CUKXOW_clean_sbu_0--node2-AJUNOK_clean_sbu_0--edge1-OJICUG_clean_linker_0
_symmetry_space_group_name_H-M    P1
_symmetry_Int_Tables_number       1
_symmetry_cell_setting            triclinic
loop_
_symmetry_equiv_pos_as_xyz
'x, y, z'
_cell_length_a     31.248697
_cell_length_b     32.794339
_cell_length_c     27.30731
_cell_angle_alpha  102.36176
_cell_angle_beta   102.19177
_cell_angle_gamma 102.21931
loop_
_atom_site_label
_atom_site_type_symbol
_atom_site_fract_x
_atom_site_fract_y
_atom_site_fract_z
_atom_type_partial_charge
Tb0 Tb 0.2489 0.19193 0.19547 0.0
C1 C 0.31459 0.28695 0.21256 0.0
Tb2 Tb 0.27569 0.26244 0.30261 0.0
O3 O 0.19161 0.21115 0.15409 0.0
O4 O 0.22673 0.24408 0.22995 0.0
O5 O 0.30288 0.24463 0.18824 0.0
C6 C 0.27067 0.3165 0.38683 0.0
O7 O 0.30479 0.30203 0.25692 0.0
C8 C 0.32996 0.20943 0.30388 0.0
C9 C 0.1963 0.17517 0.27936 0.0
O10 O 0.28416 0.32836 0.34878 0.0
O11 O 0.26038 0.27476 0.37703 0.0
O12 O 0.33477 0.24313 0.34159 0.0
O13 O 0.29766 0.2098 0.26771 0.0
O14 O 0.21394 0.21694 0.30441 0.0
O15 O 0.20747 0.1567 0.23712 0.0
C16 C 0.2568 0.13138 0.11899 0.0
O17 O 0.24529 0.12448 0.16013 0.0
O18 O 0.26346 0.17204 0.12104 0.0
C19 C 0.19572 0.24458 0.19217 0.0
Tb20 Tb 0.71252 0.25958 0.30811 0.0
C21 C 0.67594 0.18868 0.19888 0.0
Tb22 Tb 0.75395 0.27228 0.22346 0.0
O23 O 0.69031 0.31862 0.31028 0.0
O24 O 0.69235 0.27996 0.23981 0.0
O25 O 0.67584 0.1995 0.24846 0.0
C26 C 0.77681 0.2889 0.13993 0.0
O27 O 0.70243 0.21351 0.17892 0.0
C28 C 0.80118 0.24078 0.29169 0.0
C29 C 0.79282 0.33973 0.33076 0.0
O30 O 0.78403 0.25724 0.15902 0.0
O31 O 0.75629 0.31094 0.16788 0.0
O32 O 0.81896 0.26763 0.26825 0.0
O33 O 0.75853 0.23141 0.27457 0.0
O34 O 0.78104 0.33502 0.28006 0.0
O35 O 0.77425 0.30985 0.35138 0.0
C36 C 0.67534 0.22511 0.37409 0.0
O37 O 0.71827 0.23392 0.37602 0.0
O38 O 0.65431 0.23816 0.33673 0.0
C39 C 0.68462 0.3148 0.26091 0.0
Tb40 Tb 0.75434 0.74748 0.21312 0.0
C41 C 0.71773 0.6469 0.17772 0.0
Tb42 Tb 0.76922 0.6974 0.29403 0.0
O43 O 0.80264 0.72579 0.17312 0.0
O44 O 0.80876 0.7259 0.25005 0.0
O45 O 0.71214 0.68394 0.16985 0.0
C46 C 0.80935 0.65758 0.35701 0.0
O47 O 0.74274 0.64443 0.22221 0.0
C48 C 0.70107 0.73237 0.29671 0.0
C49 C 0.79937 0.79929 0.32911 0.0
O50 O 0.77066 0.63972 0.32203 0.0
O51 O 0.82456 0.69708 0.35597 0.0
O52 O 0.72064 0.71835 0.33421 0.0
O53 O 0.71495 0.71904 0.25751 0.0
O54 O 0.80778 0.76338 0.3387 0.0
O55 O 0.77437 0.7996 0.28374 0.0
C56 C 0.71785 0.78685 0.14774 0.0
O57 O 0.75544 0.80482 0.18452 0.0
O58 O 0.70124 0.74757 0.1486 0.0
C59 C 0.82213 0.71206 0.21074 0.0
Tb60 Tb 0.23818 0.78493 0.22451 0.0
C61 C 0.29064 0.81459 0.34374 0.0
Tb62 Tb 0.22848 0.7285 0.27843 0.0
O63 O 0.17045 0.79339 0.21481 0.0
O64 O 0.20312 0.78478 0.28503 0.0
O65 O 0.29163 0.81896 0.29707 0.0
C66 C 0.2058 0.66035 0.31446 0.0
O67 O 0.26073 0.78175 0.34812 0.0
C68 C 0.29993 0.72571 0.2403 0.0
C69 C 0.17232 0.69854 0.1638 0.0
O70 O 0.23736 0.69536 0.33959 0.0
O71 O 0.18492 0.66472 0.27071 0.0
O72 O 0.29855 0.72556 0.28685 0.0
O73 O 0.26188 0.72836 0.21669 0.0
O74 O 0.16917 0.69856 0.21112 0.0
O75 O 0.20597 0.72756 0.15852 0.0
C76 C 0.27637 0.84734 0.187 0.0
O77 O 0.23708 0.81983 0.1645 0.0
O78 O 0.2939 0.83903 0.22957 0.0
C79 C 0.16662 0.79 0.25998 0.0
Tb80 Tb 0.21109 0.74637 0.79847 0.0
C81 C 0.21343 0.69104 0.69032 0.0
Tb82 Tb 0.26599 0.78471 0.74009 0.0
O83 O 0.17273 0.79482 0.79887 0.0
O84 O 0.19522 0.77286 0.73363 0.0
O85 O 0.21113 0.69138 0.7381 0.0
C86 C 0.31509 0.84205 0.70485 0.0
O87 O 0.22779 0.72727 0.67782 0.0
C88 C 0.30283 0.73116 0.78286 0.0
C89 C 0.27455 0.83485 0.85171 0.0
O90 O 0.27605 0.81534 0.67819 0.0
O91 O 0.32652 0.83585 0.75038 0.0
O92 O 0.30732 0.73888 0.73946 0.0
O93 O 0.28188 0.7562 0.8033 0.0
O94 O 0.26402 0.83687 0.80321 0.0
O95 O 0.25881 0.79792 0.8618 0.0
C96 C 0.16143 0.6902 0.83462 0.0
O97 O 0.20038 0.71697 0.86108 0.0
O98 O 0.15011 0.69622 0.78903 0.0
C99 C 0.17484 0.79883 0.75319 0.0
Tb100 Tb 0.25404 0.25997 0.70184 0.0
C101 C 0.21468 0.15965 0.66403 0.0
Tb102 Tb 0.26964 0.20918 0.77879 0.0
O103 O 0.29772 0.23566 0.65671 0.0
O104 O 0.30972 0.23741 0.73486 0.0
O105 O 0.20986 0.19727 0.65753 0.0
C106 C 0.30746 0.16836 0.84135 0.0
O107 O 0.24095 0.15649 0.70722 0.0
C108 C 0.20383 0.24606 0.78804 0.0
C109 C 0.30114 0.31042 0.81786 0.0
O110 O 0.26621 0.15347 0.8113 0.0
O111 O 0.32695 0.20482 0.8347 0.0
O112 O 0.2258 0.2324 0.82417 0.0
O113 O 0.21405 0.23189 0.74627 0.0
O114 O 0.30884 0.27392 0.82582 0.0
O115 O 0.27652 0.31199 0.77296 0.0
C116 C 0.21771 0.30116 0.63873 0.0
O117 O 0.25768 0.31696 0.67173 0.0
O118 O 0.19893 0.26335 0.64243 0.0
C119 C 0.31963 0.22247 0.69326 0.0
Tb120 Tb 0.74803 0.28859 0.71821 0.0
C121 C 0.78717 0.30144 0.83884 0.0
Tb122 Tb 0.72016 0.22314 0.7604 0.0
O123 O 0.68283 0.30376 0.70598 0.0
O124 O 0.70648 0.2851 0.77212 0.0
O125 O 0.79541 0.31066 0.79637 0.0
C126 C 0.68072 0.15255 0.78419 0.0
O127 O 0.75127 0.27044 0.83543 0.0
C128 C 0.79573 0.21844 0.73235 0.0
C129 C 0.68058 0.20777 0.64121 0.0
O130 O 0.72296 0.17374 0.80196 0.0
O131 O 0.65956 0.17236 0.75506 0.0
O132 O 0.78735 0.21239 0.7747 0.0
O133 O 0.7618 0.22694 0.70666 0.0
O134 O 0.67078 0.20109 0.68394 0.0
O135 O 0.71773 0.2376 0.64505 0.0
C136 C 0.79811 0.3542 0.69454 0.0
O137 O 0.81258 0.33562 0.72939 0.0
O138 O 0.75562 0.33515 0.6718 0.0
C139 C 0.67361 0.29579 0.74744 0.0
Tb140 Tb 0.74999 0.70165 0.70274 0.0
C141 C 0.81826 0.795 0.72082 0.0
Tb142 Tb 0.77682 0.7719 0.8095 0.0
O143 O 0.69231 0.72062 0.66169 0.0
O144 O 0.72847 0.75486 0.73661 0.0
O145 O 0.80659 0.75259 0.69771 0.0
C146 C 0.77198 0.8285 0.89186 0.0
O147 O 0.80764 0.81088 0.76428 0.0
C148 C 0.82923 0.71728 0.81276 0.0
C149 C 0.6983 0.68395 0.78639 0.0
O150 O 0.78731 0.83873 0.85411 0.0
O151 O 0.7597 0.78682 0.8828 0.0
O152 O 0.83377 0.75109 0.85023 0.0
O153 O 0.79849 0.71866 0.77537 0.0
O154 O 0.71504 0.72598 0.81089 0.0
O155 O 0.70957 0.6656 0.74418 0.0
C156 C 0.75941 0.64622 0.62218 0.0
O157 O 0.75229 0.63667 0.66418 0.0
O158 O 0.76015 0.68627 0.62571 0.0
C159 C 0.69734 0.75507 0.6987 0.0
Cd160 Cd 0.95738 0.97757 0.57791 0.0
Cd161 Cd 0.00668 0.03008 0.4171 0.0
C162 C 0.02186 0.94917 0.66436 0.0
N163 N 0.01581 0.94881 0.61352 0.0
C164 C 0.06866 0.90608 0.60487 0.0
C165 C 0.07449 0.90455 0.65705 0.0
C166 C 0.05047 0.92683 0.68667 0.0
C167 C 0.03861 0.92801 0.58365 0.0
H168 H 0.00313 0.96557 0.68729 0.0
H169 H 0.03281 0.92775 0.54308 0.0
C170 C 0.92042 0.96074 0.43813 0.0
C171 C 0.91527 0.05578 0.36028 0.0
C172 C 0.8883 0.0828 0.346 0.0
C173 C 0.90285 0.12769 0.37026 0.0
C174 C 0.94417 0.14378 0.4096 0.0
C175 C 0.96987 0.11561 0.42287 0.0
N176 N 0.95535 0.07251 0.39809 0.0
H177 H 0.90476 0.02166 0.33997 0.0
H178 H 0.00215 0.12835 0.45219 0.0
C179 C 0.00359 0.93322 0.34836 0.0
N180 N 0.02989 0.96796 0.3881 0.0
C181 C 0.0929 0.9369 0.3944 0.0
C182 C 0.06718 0.90099 0.35243 0.0
C183 C 0.02156 0.89911 0.33005 0.0
C184 C 0.07347 0.97001 0.41168 0.0
H185 H 0.96906 0.93243 0.33001 0.0
H186 H 0.09366 -0.00175 0.44294 0.0
C187 C 0.05184 0.03627 0.55663 0.0
C188 C 0.90085 0.91735 0.61725 0.0
N189 N 0.93302 0.03915 0.60778 0.0
C190 C 0.95788 0.07153 0.65095 0.0
C191 C 0.94022 0.10582 0.66961 0.0
C192 C 0.89642 0.10669 0.64382 0.0
C193 C 0.87227 0.07328 0.59846 0.0
C194 C 0.89129 0.03979 0.5811 0.0
C195 C 0.0701 0.07667 0.37063 0.0
O196 O 0.94423 0.97653 0.48496 0.0
O197 O 0.93343 0.97524 0.40228 0.0
O198 O 0.02688 0.02981 0.51079 0.0
O199 O 0.03464 0.0225 0.59047 0.0
O200 O 0.90537 0.90595 0.57123 0.0
O201 O 0.91919 0.95691 0.64223 0.0
O202 O 0.07339 0.08803 0.41934 0.0
O203 O 0.03761 0.0437 0.34359 0.0
H204 H 0.991 0.07028 0.67151 0.0
H205 H 0.87219 0.01349 0.54701 0.0
H206 H 0.08665 0.89019 0.58032 0.0
H207 H 0.05227 0.92601 0.72642 0.0
H208 H 0.8572 0.06882 0.31489 0.0
H209 H 0.95678 0.17795 0.42983 0.0
H210 H 0.12831 0.94042 0.41243 0.0
H211 H 0.00012 0.87191 0.29812 0.0
H212 H 0.96047 0.13105 0.7043 0.0
H213 H 0.83822 0.07195 0.57762 0.0
Cd214 Cd 0.46568 0.9462 0.03816 0.0
Cd215 Cd 0.54098 0.98891 0.92509 0.0
C216 C 0.56159 0.92991 0.05863 0.0
N217 N 0.51772 0.90751 0.04984 0.0
C218 C 0.5401 0.84434 0.06066 0.0
C219 C 0.58583 0.86747 0.0705 0.0
C220 C 0.59621 0.91052 0.06881 0.0
C221 C 0.50614 0.86529 0.05017 0.0
H222 H 0.5703 0.96294 0.05793 0.0
H223 H 0.47086 0.8483 0.04332 0.0
C224 C 0.46033 0.91915 0.91333 0.0
C225 C 0.45949 0.01854 0.8752 0.0
C226 C 0.42568 0.03981 0.86951 0.0
C227 C 0.42784 0.07539 0.90989 0.0
C228 C 0.46542 0.0903 0.95378 0.0
C229 C 0.49875 0.06831 0.9574 0.0
N230 N 0.4938 0.03196 0.91957 0.0
H231 H 0.45816 -0.00909 0.84454 0.0
H232 H 0.5279 0.07989 0.99079 0.0
C233 C 0.58207 0.91083 0.94107 0.0
N234 N 0.58996 0.95434 0.95871 0.0
C235 C 0.6681 0.96334 0.99764 0.0
C236 C 0.66184 0.91897 0.97666 0.0
C237 C 0.6179 0.89213 0.95029 0.0
C238 C 0.63118 0.98051 0.98821 0.0
H239 H 0.54898 0.89131 0.91668 0.0
H240 H 0.63605 0.01515 0.00076 0.0
C241 C 0.54671 0.03217 0.06701 0.0
C242 C 0.40783 0.91001 0.08944 0.0
N243 N 0.41278 0.98087 0.00819 0.0
C244 C 0.42564 0.02479 0.02041 0.0
C245 C 0.39322 0.04795 0.02187 0.0
C246 C 0.34736 0.02543 0.01144 0.0
C247 C 0.33467 0.98012 0.99453 0.0
C248 C 0.36823 0.95838 0.99396 0.0
C249 C 0.59343 0.0255 0.86628 0.0
O250 O 0.48495 0.93729 0.95886 0.0
O251 O 0.47661 0.92606 0.87638 0.0
O252 O 0.54469 0.01749 0.01909 0.0
O253 O 0.51922 0.0119 0.08746 0.0
O254 O 0.40469 0.89072 0.04256 0.0
O255 O 0.44127 0.94297 0.11316 0.0
O256 O 0.60247 0.04032 0.91526 0.0
O257 O 0.55951 -0.00715 0.84402 0.0
H258 H 0.46113 0.04204 0.03413 0.0
H259 H 0.35869 0.92372 0.9867 0.0
H260 H 0.53082 0.81109 0.06255 0.0
H261 H 0.63086 0.92929 0.07541 0.0
H262 H 0.39856 0.0288 0.83373 0.0
H263 H 0.46875 0.11817 0.98531 0.0
H264 H 0.70163 0.98479 0.01772 0.0
H265 H 0.6121 0.85784 0.93272 0.0
H266 H 0.40453 0.08296 0.03621 0.0
H267 H 0.29961 0.96169 0.98631 0.0
Cd268 Cd 0.98824 0.46051 0.09078 0.0
Cd269 Cd 0.01557 0.48094 0.91027 0.0
C270 C 0.07867 0.4415 0.16835 0.0
N271 N 0.04328 0.42587 0.12437 0.0
C272 C 0.05973 0.35693 0.10851 0.0
C273 C 0.09724 0.37186 0.15287 0.0
C274 C 0.10634 0.41493 0.18327 0.0
C275 C 0.0338 0.38449 0.09472 0.0
H276 H 0.08542 0.47439 0.19192 0.0
H277 H 0.00513 0.37255 0.06047 0.0
C278 C 0.94533 0.41681 0.95187 0.0
C279 C 0.92399 0.50733 0.84277 0.0
C280 C 0.90013 0.537 0.82837 0.0
C281 C 0.91731 0.58179 0.85377 0.0
C282 C 0.95874 0.5949 0.89294 0.0
C283 C 0.98085 0.56441 0.90645 0.0
N284 N 0.96362 0.52148 0.88157 0.0
H285 H 0.91098 0.47321 0.82264 0.0
H286 H 0.01273 0.57525 0.93644 0.0
C287 C 0.03596 0.40215 0.82575 0.0
N288 N 0.0464 0.42291 0.87742 0.0
C289 C 0.10305 0.385 0.89605 0.0
C290 C 0.09333 0.36291 0.84295 0.0
C291 C 0.059 0.37193 0.80766 0.0
C292 C 0.07918 0.41469 0.91237 0.0
H293 H 0.01034 0.40963 0.79831 0.0
H294 H 0.08772 0.43217 0.95304 0.0
C295 C 0.05583 0.53593 0.0519 0.0
C296 C 0.91108 0.39696 0.0865 0.0
N297 N 0.9633 0.51848 0.13395 0.0
C298 C 0.97107 0.53692 0.18587 0.0
C299 C 0.95119 0.57025 0.2031 0.0
C300 C 0.92312 0.58463 0.16655 0.0
C301 C 0.91579 0.56435 0.11343 0.0
C302 C 0.93636 0.53173 0.09813 0.0
C303 C 0.07696 0.53739 0.88207 0.0
O304 O 0.97293 0.44072 0.99479 0.0
O305 O 0.95235 0.42296 0.90949 0.0
O306 O 0.03768 0.50999 0.00661 0.0
O307 O 0.0454 0.52506 0.09083 0.0
O308 O 0.90865 0.42207 0.05713 0.0
O309 O 0.94867 0.4035 0.11994 0.0
O310 O 0.0842 0.53541 0.92915 0.0
O311 O 0.04282 0.50995 0.84811 0.0
H312 H 0.99241 0.52579 0.2139 0.0
H313 H 0.93036 0.51631 0.05717 0.0
H314 H 0.04983 0.32384 0.0845 0.0
H315 H 0.13475 0.42816 0.21775 0.0
H316 H 0.86843 0.52485 0.79803 0.0
H317 H 0.97476 0.62875 0.91289 0.0
H318 H 0.12977 0.38036 0.92498 0.0
H319 H 0.04985 0.35577 0.76648 0.0
H320 H 0.9581 0.58481 0.24445 0.0
H321 H 0.89362 0.57295 0.08347 0.0
Cd322 Cd 0.45355 0.47858 0.0794 0.0
Cd323 Cd 0.51511 0.53075 0.92313 0.0
C324 C 0.52321 0.45622 0.16755 0.0
N325 N 0.51224 0.45078 0.11528 0.0
C326 C 0.56309 0.40616 0.10555 0.0
C327 C 0.57456 0.41043 0.15949 0.0
C328 C 0.55407 0.4361 0.19044 0.0
C329 C 0.53135 0.4263 0.08412 0.0
H330 H 0.50696 0.47527 0.19133 0.0
H331 H 0.52154 0.42209 0.04253 0.0
C332 C 0.42288 0.46654 0.93993 0.0
C333 C 0.45899 0.57768 0.8506 0.0
C334 C 0.4314 0.60295 0.83336 0.0
C335 C 0.40499 0.61983 0.86422 0.0
C336 C 0.40812 0.61069 0.91284 0.0
C337 C 0.4369 0.58558 0.92901 0.0
N338 N 0.46168 0.56965 0.89781 0.0
H339 H 0.47889 0.56498 0.82631 0.0
H340 H 0.43966 0.57906 0.96659 0.0
C341 C 0.51212 0.43813 0.84465 0.0
N342 N 0.53667 0.46801 0.89014 0.0
C343 C 0.59695 0.43318 0.89523 0.0
C344 C 0.57333 0.40267 0.84724 0.0
C345 C 0.52979 0.40496 0.82256 0.0
C346 C 0.57793 0.46563 0.91597 0.0
H347 H 0.47955 0.44093 0.82456 0.0
H348 H 0.59699 0.49018 0.95172 0.0
C349 C 0.55376 0.53223 0.06257 0.0
C350 C 0.39737 0.41494 0.1153 0.0
N351 N 0.42948 0.54029 0.11076 0.0
C352 C 0.45687 0.57546 0.14928 0.0
C353 C 0.4397 0.61008 0.16826 0.0
C354 C 0.39382 0.60846 0.14764 0.0
C355 C 0.36685 0.57194 0.10714 0.0
C356 C 0.38543 0.53826 0.08925 0.0
C357 C 0.57939 0.58043 0.88039 0.0
O358 O 0.44529 0.48031 0.98747 0.0
O359 O 0.43921 0.48053 0.90564 0.0
O360 O 0.53166 0.52833 0.01613 0.0
O361 O 0.53285 0.51962 0.09438 0.0
O362 O 0.40107 0.40572 0.0687 0.0
O363 O 0.41644 0.45381 0.14247 0.0
O364 O 0.57785 0.59403 0.92733 0.0
O365 O 0.55231 0.54374 0.85441 0.0
H366 H 0.49185 0.57639 0.16577 0.0
H367 H 0.36437 0.50984 0.0588 0.0
H368 H 0.57818 0.38729 0.07997 0.0
H369 H 0.56056 0.43966 0.23187 0.0
H370 H 0.43161 0.60973 0.79632 0.0
H371 H 0.38838 0.62249 0.93807 0.0
H372 H 0.63078 0.43338 0.91547 0.0
H373 H 0.50993 0.38193 0.78593 0.0
H374 H 0.46213 0.63766 0.199 0.0
H375 H 0.33121 0.56855 0.09048 0.0
Cd376 Cd 0.98673 0.48705 0.56429 0.0
Cd377 Cd 0.06735 0.49798 0.4477 0.0
C378 C 0.06514 0.45407 0.61864 0.0
N379 N 0.03001 0.44097 0.57501 0.0
C380 C 0.05531 0.38055 0.5406 0.0
C381 C 0.09394 0.39522 0.5833 0.0
C382 C 0.09796 0.43163 0.62356 0.0
C383 C 0.02342 0.4041 0.53729 0.0
H384 H 0.06832 0.48263 0.64897 0.0
H385 H 0.99443 0.39376 0.50376 0.0
C386 C 0.9739 0.44097 0.42761 0.0
C387 C 0.99098 0.52938 0.38322 0.0
C388 C 0.95492 0.54772 0.3733 0.0
C389 C 0.94888 0.57838 0.41391 0.0
C390 C 0.98092 0.59192 0.46249 0.0
C391 C 0.01586 0.5723 0.47082 0.0
N392 N 0.01925 0.54056 0.43197 0.0
H393 H 0.99528 0.50479 0.35267 0.0
H394 H 0.03877 0.58144 0.50899 0.0
C395 C 0.09255 0.41091 0.45135 0.0
N396 N 0.10434 0.45313 0.47863 0.0
C397 C 0.17873 0.45068 0.51845 0.0
C398 C 0.16869 0.40806 0.48775 0.0
C399 C 0.12437 0.38718 0.45616 0.0
C400 C 0.1455 0.47286 0.51336 0.0
H401 H 0.06006 0.39693 0.42262 0.0
H402 H 0.15414 0.50711 0.53249 0.0
C403 C 0.08009 0.5454 0.58064 0.0
C404 C 0.92279 0.45329 0.61295 0.0
N405 N 0.94697 0.53141 0.53615 0.0
C406 C 0.95512 0.57183 0.56762 0.0
C407 C 0.92079 0.59284 0.56448 0.0
C408 C 0.87795 0.57103 0.52984 0.0
C409 C 0.87167 0.53086 0.49514 0.0
C410 C 0.90717 0.51143 0.49899 0.0
C411 C 0.13188 0.53323 0.40203 0.0
O412 O 0.99126 0.46168 0.47502 0.0
O413 O 0.99936 0.44187 0.3971 0.0
O414 O 0.06257 0.52143 0.53488 0.0
O415 O 0.05578 0.54465 0.6124 0.0
O416 O 0.91727 0.43974 0.56426 0.0
O417 O 0.95918 0.48208 0.63953 0.0
O418 O 0.1338 0.54955 0.44934 0.0
O419 O 0.09972 0.49974 0.37636 0.0
H420 H 0.98646 0.58578 0.59828 0.0
H421 H 0.90106 0.47844 0.47688 0.0
H422 H 0.05055 0.35225 0.50902 0.0
H423 H 0.12606 0.44272 0.65841 0.0
H424 H 0.9319 0.53774 0.33458 0.0
H425 H 0.97802 0.6161 0.49455 0.0
H426 H 0.21288 0.46766 0.54237 0.0
H427 H 0.11595 0.35454 0.43112 0.0
H428 H 0.92603 0.6235 0.59261 0.0
H429 H 0.83857 0.51305 0.46903 0.0
Cd430 Cd 0.50967 0.98581 0.59089 0.0
Cd431 Cd 0.53243 0.98897 0.40337 0.0
C432 C 0.60195 0.96139 0.65741 0.0
N433 N 0.56033 0.94583 0.62202 0.0
C434 C 0.56339 0.87286 0.6184 0.0
C435 C 0.60697 0.88734 0.65373 0.0
C436 C 0.62603 0.93257 0.6737 0.0
C437 C 0.54101 0.90248 0.60289 0.0
H438 H 0.61645 -0.00398 0.67318 0.0
H439 H 0.50752 0.89082 0.57582 0.0
C440 C 0.45423 0.93386 0.45144 0.0
C441 C 0.45652 0.01772 0.31836 0.0
C442 C 0.43027 0.04544 0.30375 0.0
C443 C 0.42192 0.07672 0.3422 0.0
C444 C 0.43829 0.07699 0.39453 0.0
C445 C 0.4644 0.04905 0.40733 0.0
N446 N 0.47394 0.02074 0.36966 0.0
H447 H 0.46505 -0.00442 0.28882 0.0
H448 H 0.4789 0.05133 0.4478 0.0
C449 C 0.55045 0.90653 0.31858 0.0
N450 N 0.56193 0.93008 0.36936 0.0
C451 C 0.61495 0.88943 0.39223 0.0
C452 C 0.60383 0.86412 0.34031 0.0
C453 C 0.57107 0.87333 0.30318 0.0
C454 C 0.59356 0.92197 0.40583 0.0
H455 H 0.52534 0.91344 0.28993 0.0
H456 H 0.60253 0.94123 0.44583 0.0
C457 C 0.57473 0.04755 0.54069 0.0
C458 C 0.44223 0.94481 0.62821 0.0
N459 N 0.48295 0.0477 0.61888 0.0
C460 C 0.49065 0.06858 0.67005 0.0
C461 C 0.46747 0.0995 0.68513 0.0
C462 C 0.43557 0.10896 0.64733 0.0
C463 C 0.42913 0.08717 0.59473 0.0
C464 C 0.45319 0.05684 0.58144 0.0
C465 C 0.59142 0.06066 0.39343 0.0
O466 O 0.48143 0.95614 0.49522 0.0
O467 O 0.46463 0.9384 0.4099 0.0
O468 O 0.5531 0.01652 0.50009 0.0
O469 O 0.56876 0.0443 0.5845 0.0
O470 O 0.43664 0.93972 0.57944 0.0
O471 O 0.47998 0.9688 0.65904 0.0
O472 O 0.60029 0.04762 0.43407 0.0
O473 O 0.55849 0.03671 0.35513 0.0
H474 H 0.5135 0.06012 0.69941 0.0
H475 H 0.44664 0.0391 0.54115 0.0
H476 H 0.54612 0.83868 0.60291 0.0
H477 H 0.6594 0.9456 0.70098 0.0
H478 H 0.41871 0.04382 0.26294 0.0
H479 H 0.43203 0.09943 0.42581 0.0
H480 H 0.64056 0.88468 0.42238 0.0
H481 H 0.56094 0.85473 0.26278 0.0
H482 H 0.47425 0.11542 0.72609 0.0
H483 H 0.40438 0.09208 0.56385 0.0
C484 C 0.1348 0.10757 0.27309 0.0
C485 C 0.1634 0.149 0.30135 0.0
H486 H 0.08262 0.05247 0.27227 0.0
C487 C 0.16086 0.16584 0.35243 0.0
H488 H 0.13564 0.09342 0.23378 0.0
C489 C 0.13111 0.14223 0.37468 0.0
C490 C 0.10222 0.10111 0.34649 0.0
H491 H 0.18235 0.19741 0.37586 0.0
H492 H 0.13052 0.15652 0.41407 0.0
C493 C 0.10432 0.08411 0.29522 0.0
C494 C 0.80376 0.17312 0.32079 0.0
C495 C 0.82651 0.21338 0.31611 0.0
H496 H 0.80973 0.11457 0.34141 0.0
C497 C 0.87426 0.22602 0.33151 0.0
H498 H 0.76696 0.16242 0.30921 0.0
C499 C 0.8988 0.19867 0.34987 0.0
C500 C 0.87628 0.15773 0.35321 0.0
H501 H 0.89278 0.25684 0.32838 0.0
H502 H 0.93556 0.20917 0.35991 0.0
C503 C 0.82834 0.14553 0.33883 0.0
C504 C 0.81327 0.87938 0.35707 0.0
C505 C 0.82228 0.84145 0.36771 0.0
H506 H 0.83812 0.94811 0.37223 0.0
C507 C 0.85748 0.84507 0.41138 0.0
H508 H 0.78542 0.8778 0.32482 0.0
C509 C 0.88693 0.88567 0.43937 0.0
C510 C 0.88155 0.92264 0.42346 0.0
H511 H 0.86466 0.81648 0.42122 0.0
H512 H 0.91654 0.88748 0.46961 0.0
C513 C 0.8431 0.91969 0.38438 0.0
C514 C 0.10122 0.82259 0.25345 0.0
C515 C 0.13695 0.81231 0.28482 0.0
H516 H 0.05206 0.85893 0.24969 0.0
C517 C 0.147 0.82816 0.33915 0.0
H518 H 0.09271 0.81092 0.21143 0.0
C519 C 0.12321 0.85557 0.36139 0.0
C520 C 0.08891 0.86772 0.32976 0.0
H521 H 0.17444 0.82088 0.36435 0.0
H522 H 0.13239 0.86797 0.40334 0.0
C523 C 0.07765 0.85001 0.27554 0.0
C524 C 0.13497 0.81598 0.6729 0.0
C525 C 0.15285 0.82716 0.72714 0.0
H526 H 0.09483 0.83032 0.60824 0.0
C527 C 0.14773 0.86514 0.75748 0.0
H528 H 0.13843 0.78672 0.64863 0.0
C529 C 0.12437 0.89109 0.73445 0.0
C530 C 0.1039 0.87901 0.6804 0.0
H531 H 0.16186 0.87486 0.79934 0.0
H532 H 0.12216 0.92052 0.75952 0.0
C533 C 0.11022 0.8413 0.64981 0.0
C534 C 0.1711 0.08219 0.64045 0.0
C535 C 0.18308 0.12054 0.62577 0.0
H536 H 0.11896 0.02432 0.62867 0.0
C537 C 0.15721 0.12435 0.57884 0.0
H538 H 0.19096 0.07782 0.67564 0.0
C539 C 0.11583 0.09389 0.55218 0.0
C540 C 0.10032 0.05936 0.57211 0.0
H541 H 0.16648 0.15308 0.56567 0.0
H542 H 0.09398 0.10004 0.51976 0.0
C543 C 0.12972 0.05176 0.61378 0.0
C544 C 0.82045 0.18373 0.6552 0.0
C545 C 0.82608 0.19592 0.7092 0.0
H546 H 0.8387 0.14647 0.59202 0.0
C547 C 0.85781 0.18181 0.74146 0.0
H548 H 0.79626 0.19415 0.62937 0.0
C549 C 0.88158 0.15418 0.72028 0.0
C550 C 0.87462 0.14009 0.66612 0.0
H551 H 0.86289 0.19064 0.78326 0.0
H552 H 0.90383 0.14229 0.74649 0.0
C553 C 0.84446 0.15604 0.63386 0.0
C554 C 0.84677 0.81143 0.64484 0.0
C555 C 0.84137 0.826 0.6951 0.0
H556 H 0.86879 0.82842 0.58058 0.0
C557 C 0.85526 0.87098 0.71886 0.0
H558 H 0.8363 0.77717 0.62495 0.0
C559 C 0.87371 0.90035 0.69322 0.0
C560 C 0.87867 0.88583 0.6428 0.0
H561 H 0.85164 0.8837 0.75732 0.0
H562 H 0.88418 0.93463 0.71311 0.0
C563 C 0.86503 0.84091 0.61905 0.0
C564 C 0.29343 0.11551 0.04774 0.0
C565 C 0.27072 0.10077 0.08247 0.0
H566 H 0.33532 0.10245 0.9968 0.0
C567 C 0.26738 0.05865 0.08715 0.0
H568 H 0.29643 0.14806 0.04365 0.0
C569 C 0.28954 0.03266 0.06042 0.0
C570 C 0.31534 0.04857 0.02872 0.0
H571 H 0.25013 0.04679 0.11389 0.0
H572 H 0.28926 0.00144 0.06778 0.0
C573 C 0.31575 0.08958 0.0211 0.0
C574 C 0.79471 0.34307 0.09136 0.0
C575 C 0.80311 0.307 0.10752 0.0
H576 H 0.82327 0.4003 0.07068 0.0
C577 C 0.84349 0.29563 0.10455 0.0
H578 H 0.76351 0.35207 0.09296 0.0
C579 C 0.87799 0.32384 0.0937 0.0
C580 C 0.87166 0.36272 0.08404 0.0
H581 H 0.85051 0.26766 0.11632 0.0
H582 H 0.91062 0.31675 0.09641 0.0
C583 C 0.82885 0.37069 0.07898 0.0
C584 C 0.65231 0.78525 0.07907 0.0
C585 C 0.69063 0.80956 0.11994 0.0
H586 H 0.58887 0.78492 0.03068 0.0
C587 C 0.69678 0.85378 0.14087 0.0
H588 H 0.64713 0.75085 0.06271 0.0
C589 C 0.66292 0.87285 0.1239 0.0
C590 C 0.62308 0.84801 0.08501 0.0
H591 H 0.72583 0.87274 0.1731 0.0
H592 H 0.66698 0.90643 0.14332 0.0
C593 C 0.61873 0.80444 0.06148 0.0
C594 C 0.09453 0.65474 0.11283 0.0
C595 C 0.14154 0.66288 0.11945 0.0
H596 H 0.0298 0.6077 0.08289 0.0
C597 C 0.15852 0.63148 0.09175 0.0
H598 H 0.08068 0.67841 0.1338 0.0
C599 C 0.1293 0.59049 0.06296 0.0
C600 C 0.08286 0.58099 0.06113 0.0
H601 H 0.1948 0.63696 0.09673 0.0
H602 H 0.14368 0.56516 0.0467 0.0
C603 C 0.06544 0.61433 0.08352 0.0
C604 C 0.34954 0.84691 0.91338 0.0
C605 C 0.31856 0.86368 0.8837 0.0
H606 H 0.41996 0.85137 0.94521 0.0
C607 C 0.33471 0.90177 0.86998 0.0
H608 H 0.33804 0.81752 0.92443 0.0
C609 C 0.38105 0.91916 0.87908 0.0
C610 C 0.41193 0.90025 0.90456 0.0
H611 H 0.31153 0.91553 0.84747 0.0
H612 H 0.39257 0.94688 0.86527 0.0
C613 C 0.39624 0.86545 0.92409 0.0
C614 C 0.15667 0.29702 0.76357 0.0
C615 C 0.17215 0.27326 0.7975 0.0
H616 H 0.12027 0.34442 0.75122 0.0
C617 C 0.15973 0.27779 0.84454 0.0
H618 H 0.16598 0.29458 0.72726 0.0
C619 C 0.13343 0.3057 0.85809 0.0
C620 C 0.11894 0.33082 0.82546 0.0
H621 H 0.17081 0.25991 0.87162 0.0
H622 H 0.1246 0.30755 0.89461 0.0
C623 C 0.13039 0.32556 0.77744 0.0
C624 C 0.61583 0.08893 0.7719 0.0
C625 C 0.66045 0.11376 0.79793 0.0
H626 H 0.55944 0.03906 0.77288 0.0
C627 C 0.68537 0.10295 0.83996 0.0
H628 H 0.59664 0.09624 0.73848 0.0
C629 C 0.66424 0.07103 0.85976 0.0
C630 C 0.61837 0.04895 0.83688 0.0
H631 H 0.72025 0.12111 0.85979 0.0
H632 H 0.68292 0.06542 0.8948 0.0
C633 C 0.5949 0.05612 0.79108 0.0
C634 C 0.84545 0.64405 0.78025 0.0
C635 C 0.8508 0.6815 0.82008 0.0
H636 H 0.86236 0.5834 0.75887 0.0
C637 C 0.8766 0.68478 0.87034 0.0
H638 H 0.82557 0.64023 0.74117 0.0
C639 C 0.8967 0.65224 0.88081 0.0
C640 C 0.89279 0.61508 0.84126 0.0
H641 H 0.88099 0.71265 0.90239 0.0
H642 H 0.91509 0.65635 0.92063 0.0
C643 C 0.86633 0.61127 0.79067 0.0
C644 C 0.17083 0.31188 0.22684 0.0
C645 C 0.17364 0.27967 0.18531 0.0
H646 H 0.1438 0.36608 0.24969 0.0
C647 C 0.15435 0.28029 0.13425 0.0
H648 H 0.18586 0.31248 0.26664 0.0
C649 C 0.13173 0.31121 0.12448 0.0
C650 C 0.12622 0.34218 0.16541 0.0
H651 H 0.15676 0.25665 0.10121 0.0
H652 H 0.11827 0.31045 0.08428 0.0
C653 C 0.147 0.34273 0.21698 0.0
C654 C 0.10528 0.61917 0.80927 0.0
C655 C 0.13951 0.65193 0.84794 0.0
H656 H 0.05996 0.55612 0.78921 0.0
C657 C 0.15542 0.64575 0.89697 0.0
H658 H 0.09299 0.62308 0.77081 0.0
C659 C 0.13663 0.60722 0.90754 0.0
C660 C 0.10202 0.57456 0.86895 0.0
H661 H 0.18226 0.67059 0.927 0.0
H662 H 0.14848 0.60345 0.94614 0.0
C663 C 0.08691 0.58061 0.81955 0.0
C664 C 0.31725 0.1001 0.86106 0.0
C665 C 0.33264 0.14507 0.87077 0.0
H666 H 0.33605 0.0421 0.86769 0.0
C667 C 0.37664 0.16738 0.90181 0.0
H668 H 0.2832 0.08253 0.83731 0.0
C669 C 0.40693 0.1446 0.91776 0.0
C670 C 0.39326 0.09922 0.90361 0.0
H671 H 0.38891 0.20228 0.91008 0.0
H672 H 0.4419 0.16254 0.93733 0.0
C673 C 0.34756 0.07715 0.87777 0.0
C674 C 0.82148 0.36919 0.90913 0.0
C675 C 0.82012 0.32578 0.88882 0.0
H676 H 0.86411 0.43319 0.94868 0.0
C677 C 0.85859 0.31131 0.90494 0.0
H678 H 0.7923 0.38104 0.8966 0.0
C679 C 0.89983 0.34123 0.93456 0.0
C680 C 0.90266 0.38566 0.94835 0.0
H681 H 0.85834 0.27798 0.88905 0.0
H682 H 0.93043 0.3303 0.94081 0.0
C683 C 0.86257 0.399 0.93895 0.0
C684 C 0.72979 0.83908 0.9582 0.0
C685 C 0.75665 0.8572 0.92891 0.0
H686 H 0.6781 0.84537 0.99742 0.0
C687 C 0.75999 0.89998 0.92683 0.0
H688 H 0.72693 0.80607 0.96049 0.0
C689 C 0.73229 0.92248 0.9483 0.0
C690 C 0.70107 0.90217 0.97176 0.0
H691 H 0.78055 0.91448 0.90443 0.0
H692 H 0.73194 0.95383 0.94164 0.0
C693 C 0.70185 0.86141 0.97929 0.0
C694 C 0.86059 0.65649 0.23812 0.0
C695 C 0.85217 0.68275 0.20467 0.0
H696 H 0.88891 0.60445 0.25239 0.0
C697 C 0.86999 0.67859 0.16134 0.0
H698 H 0.84702 0.65872 0.27153 0.0
C699 C 0.89446 0.64826 0.15068 0.0
C700 C 0.9012 0.62021 0.18237 0.0
H701 H 0.86446 0.69851 0.13492 0.0
H702 H 0.90762 0.64656 0.11689 0.0
C703 C 0.88472 0.62541 0.22704 0.0
C704 C 0.34563 0.90109 0.19137 0.0
C705 C 0.30403 0.87202 0.16131 0.0
H706 H 0.41196 0.93517 0.19185 0.0
C707 C 0.29482 0.8589 0.10706 0.0
H708 H 0.35311 0.91157 0.23344 0.0
C709 C 0.32885 0.87131 0.08341 0.0
C710 C 0.37185 0.89752 0.11394 0.0
H711 H 0.2628 0.83638 0.08339 0.0
H712 H 0.32184 0.8596 0.04153 0.0
C713 C 0.37941 0.91391 0.16775 0.0
C714 C 0.64098 0.13591 0.11119 0.0
C715 C 0.645 0.14751 0.16493 0.0
H716 H 0.60682 0.08961 0.03762 0.0
C717 C 0.61842 0.11975 0.18617 0.0
H718 H 0.66145 0.15655 0.09385 0.0
C719 C 0.58708 0.08198 0.15409 0.0
C720 C 0.58177 0.07109 0.10014 0.0
H721 H 0.62124 0.12735 0.22754 0.0
H722 H 0.56672 0.06155 0.17176 0.0
C723 C 0.60967 0.09775 0.07898 0.0
C724 C 0.64325 0.61345 0.78348 0.0
C725 C 0.66674 0.65706 0.80909 0.0
H726 H 0.59735 0.55525 0.78555 0.0
C727 C 0.66115 0.67487 0.85844 0.0
H728 H 0.6466 0.59845 0.7456 0.0
C729 C 0.63346 0.64997 0.88166 0.0
C730 C 0.60996 0.6065 0.85615 0.0
H731 H 0.67866 0.70819 0.87979 0.0
H732 H 0.63024 0.665 0.91961 0.0
C733 C 0.61503 0.58862 0.80655 0.0
C734 C 0.3311 0.66558 0.77215 0.0
C735 C 0.32456 0.70104 0.80589 0.0
H736 H 0.35888 0.61135 0.76358 0.0
C737 C 0.34157 0.70817 0.85983 0.0
H738 H 0.31772 0.65886 0.73041 0.0
C739 C 0.36687 0.68144 0.87927 0.0
C740 C 0.37492 0.64665 0.8451 0.0
H741 H 0.33706 0.73539 0.88675 0.0
H742 H 0.3814 0.68905 0.92086 0.0
C743 C 0.35528 0.63852 0.79136 0.0
C744 C 0.35496 0.35236 0.90439 0.0
C745 C 0.32337 0.35134 0.85875 0.0
H746 H 0.41155 0.39164 0.96803 0.0
C747 C 0.31706 0.39053 0.84968 0.0
H748 H 0.35976 0.32268 0.91316 0.0
C749 C 0.34663 0.42977 0.88109 0.0
C750 C 0.38216 0.43019 0.9223 0.0
H751 H 0.29189 0.39088 0.81586 0.0
H752 H 0.34432 0.45935 0.87033 0.0
C753 C 0.38418 0.3918 0.93628 0.0
C754 C 0.64884 0.32621 0.82646 0.0
C755 C 0.64387 0.31796 0.77259 0.0
H756 H 0.63012 0.35881 0.89229 0.0
C757 C 0.61317 0.33505 0.74319 0.0
H758 H 0.67234 0.31361 0.85023 0.0
C759 C 0.58938 0.36127 0.7672 0.0
C760 C 0.59544 0.37107 0.8214 0.0
H761 H 0.60867 0.3294 0.70163 0.0
H762 H 0.56768 0.37535 0.74334 0.0
C763 C 0.62494 0.35251 0.8506 0.0
C764 C 0.65984 0.38195 0.2595 0.0
C765 C 0.66029 0.34055 0.23279 0.0
H766 H 0.63458 0.43723 0.25697 0.0
C767 C 0.63508 0.32327 0.18046 0.0
H768 H 0.67946 0.39622 0.29969 0.0
C769 C 0.60798 0.34619 0.15618 0.0
C770 C 0.60626 0.38728 0.18344 0.0
H771 H 0.63477 0.29129 0.15899 0.0
H772 H 0.58717 0.33086 0.1167 0.0
C773 C 0.63365 0.40524 0.23501 0.0
C774 C 0.66713 0.61051 0.08899 0.0
C775 C 0.68761 0.60751 0.1388 0.0
H776 H 0.60728 0.58831 0.02495 0.0
C777 C 0.66989 0.57126 0.15484 0.0
H778 H 0.68109 0.63754 0.07497 0.0
C779 C 0.62765 0.54323 0.12616 0.0
C780 C 0.6032 0.55121 0.08125 0.0
H781 H 0.68556 0.56754 0.19241 0.0
H782 H 0.61228 0.51791 0.14186 0.0
C783 C 0.62488 0.58243 0.06028 0.0
C784 C 0.31599 0.6835 0.16089 0.0
C785 C 0.32817 0.70161 0.21501 0.0
H786 H 0.32761 0.64062 0.09692 0.0
C787 C 0.36458 0.69194 0.24606 0.0
H788 H 0.28801 0.69028 0.13593 0.0
C789 C 0.38674 0.66297 0.22401 0.0
C790 C 0.37337 0.64305 0.17011 0.0
H791 H 0.3747 0.70533 0.28794 0.0
H792 H 0.41296 0.65471 0.24977 0.0
C793 C 0.33838 0.65458 0.13867 0.0
C794 C 0.35228 0.3637 0.21396 0.0
C795 C 0.33732 0.31915 0.18782 0.0
H796 H 0.38214 0.42826 0.21184 0.0
C797 C 0.34175 0.30643 0.13678 0.0
H798 H 0.3495 0.3751 0.25312 0.0
C799 C 0.3602 0.33732 0.11265 0.0
C800 C 0.37498 0.38182 0.13892 0.0
H801 H 0.33044 0.27258 0.11508 0.0
H802 H 0.36323 0.32626 0.07354 0.0
C803 C 0.37086 0.39442 0.19002 0.0
C804 C 0.80446 0.64406 0.55804 0.0
C805 C 0.77924 0.62189 0.58595 0.0
H806 H 0.85678 0.64492 0.51828 0.0
C807 C 0.78072 0.57964 0.58645 0.0
H808 H 0.80405 0.67691 0.55745 0.0
C809 C 0.81007 0.56114 0.56293 0.0
C810 C 0.83853 0.58513 0.53958 0.0
H811 H 0.76174 0.56222 0.60804 0.0
H812 H 0.81342 0.52971 0.56694 0.0
C813 C 0.83455 0.62598 0.53561 0.0
C814 C 0.38364 0.90186 0.72056 0.0
C815 C 0.34432 0.87212 0.68574 0.0
H816 H 0.44553 0.94881 0.72944 0.0
C817 C 0.33519 0.86925 0.63251 0.0
H818 H 0.39097 0.90485 0.76198 0.0
C819 C 0.36652 0.89413 0.61378 0.0
C820 C 0.40706 0.92224 0.64826 0.0
H821 H 0.30487 0.84655 0.6052 0.0
H822 H 0.35963 0.89029 0.57223 0.0
C823 C 0.41479 0.92691 0.70195 0.0
C824 C 0.14688 0.30316 0.58247 0.0
C825 C 0.19145 0.32521 0.61196 0.0
H826 H 0.08046 0.30804 0.5524 0.0
C827 C 0.20611 0.37039 0.62418 0.0
H828 H 0.13505 0.26811 0.57234 0.0
C829 C 0.1748 0.39352 0.61157 0.0
C830 C 0.12878 0.37146 0.58735 0.0
H831 H 0.24055 0.38781 0.64676 0.0
H832 H 0.18609 0.42859 0.62319 0.0
C833 C 0.11557 0.32609 0.57083 0.0
C834 C 0.6088 0.16644 0.5748 0.0
C835 C 0.65605 0.17408 0.59242 0.0
H836 H 0.54497 0.11851 0.54011 0.0
C837 C 0.67609 0.14094 0.57599 0.0
H838 H 0.59259 0.1914 0.58746 0.0
C839 C 0.64874 0.09881 0.55013 0.0
C840 C 0.60122 0.08994 0.53928 0.0
H841 H 0.71248 0.14601 0.58969 0.0
H842 H 0.66469 0.0725 0.54459 0.0
C843 C 0.58156 0.12467 0.54768 0.0
C844 C 0.85674 0.40181 0.33754 0.0
C845 C 0.83432 0.37354 0.36181 0.0
H846 H 0.91941 0.44415 0.33912 0.0
C847 C 0.85644 0.37219 0.41166 0.0
H848 H 0.84032 0.40431 0.29959 0.0
C849 C 0.90186 0.39533 0.43435 0.0
C850 C 0.92537 0.41978 0.40727 0.0
H851 H 0.83981 0.35109 0.43158 0.0
H852 H 0.91899 0.39244 0.47169 0.0
C853 C 0.90214 0.42425 0.35979 0.0
C854 C 0.66072 0.78637 0.26739 0.0
C855 C 0.67312 0.76373 0.30403 0.0
H856 H 0.62971 0.83609 0.2499 0.0
C857 C 0.66078 0.77297 0.35094 0.0
H858 H 0.66987 0.78016 0.23099 0.0
C859 C 0.63755 0.80445 0.36168 0.0
C860 C 0.62615 0.82837 0.32612 0.0
H861 H 0.66952 0.75607 0.38003 0.0
H862 H 0.62859 0.80999 0.39827 0.0
C863 C 0.63752 0.81838 0.27831 0.0
C864 C 0.21549 0.62377 0.38441 0.0
C865 C 0.19458 0.6223 0.33318 0.0
H866 H 0.21198 0.59482 0.4469 0.0
C867 C 0.16051 0.5855 0.30132 0.0
H868 H 0.24285 0.65146 0.40897 0.0
C869 C 0.14354 0.55273 0.32259 0.0
C870 C 0.16014 0.55724 0.37593 0.0
H871 H 0.14495 0.58339 0.26111 0.0
H872 H 0.11454 0.52632 0.29859 0.0
C873 C 0.19816 0.59132 0.40588 0.0
C874 C 0.39152 0.18457 0.35288 0.0
C875 C 0.35484 0.17563 0.30874 0.0
H876 H 0.44161 0.16179 0.39708 0.0
C877 C 0.34107 0.13398 0.27379 0.0
H878 H 0.40322 0.21626 0.38068 0.0
C879 C 0.36295 0.10185 0.28376 0.0
C880 C 0.39898 0.11064 0.32903 0.0
H881 H 0.31269 0.12586 0.23969 0.0
H882 H 0.35076 0.06982 0.25678 0.0
C883 C 0.4133 0.15289 0.3627 0.0
C884 C 0.68276 0.82921 0.72868 0.0
C885 C 0.67478 0.78987 0.69075 0.0
H886 H 0.66747 0.89092 0.74742 0.0
C887 C 0.64592 0.7839 0.64128 0.0
H888 H 0.70536 0.83511 0.76697 0.0
C889 C 0.62532 0.81574 0.62969 0.0
C890 C 0.63188 0.85483 0.66739 0.0
H891 H 0.63953 0.75448 0.61061 0.0
H892 H 0.60446 0.80958 0.59043 0.0
C893 C 0.66138 0.86135 0.71716 0.0
C894 C 0.67804 0.16772 0.42042 0.0
C895 C 0.65248 0.18897 0.39099 0.0
H896 H 0.6785 0.10936 0.44402 0.0
C897 C 0.6061 0.16941 0.36704 0.0
H898 H 0.71392 0.18229 0.43921 0.0
C899 C 0.5867 0.12743 0.36777 0.0
C900 C 0.613 0.10487 0.39381 0.0
H901 H 0.5855 0.18518 0.34438 0.0
H902 H 0.55118 0.1124 0.34734 0.0
C903 C 0.65815 0.12591 0.42235 0.0
C904 C 0.83152 0.59007 0.36222 0.0
C905 C 0.83912 0.63486 0.38151 0.0
H906 H 0.86098 0.53658 0.35806 0.0
C907 C 0.88075 0.6598 0.41638 0.0
H908 H 0.7996 0.5704 0.33496 0.0
C909 C 0.91603 0.64109 0.42798 0.0
C910 C 0.9099 0.59687 0.40572 0.0
H911 H 0.88727 0.69454 0.43161 0.0
H912 H 0.94879 0.66192 0.45193 0.0
C913 C 0.86684 0.57106 0.37449 0.0
C914 C 0.36092 0.83202 0.41642 0.0
C915 C 0.32544 0.84549 0.38921 0.0
H916 H 0.43127 0.85091 0.45988 0.0
C917 C 0.32995 0.88995 0.39615 0.0
H918 H 0.35834 0.7978 0.4111 0.0
C919 C 0.37114 0.9202 0.42468 0.0
C920 C 0.40867 0.90639 0.44599 0.0
H921 H 0.3031 0.90103 0.37535 0.0
H922 H 0.3752 0.95389 0.42488 0.0
C923 C 0.40258 0.86239 0.44448 0.0
C924 C 0.22797 0.32335 0.45305 0.0
C925 C 0.25611 0.34356 0.42635 0.0
H926 H 0.17732 0.32869 0.49409 0.0
C927 C 0.26265 0.38784 0.43055 0.0
H928 H 0.22244 0.28909 0.45031 0.0
C929 C 0.23757 0.41062 0.45673 0.0
C930 C 0.20545 0.38901 0.47814 0.0
H931 H 0.28418 0.4039 0.41016 0.0
H932 H 0.23992 0.44382 0.45554 0.0
C933 C 0.20231 0.34588 0.47832 0.0
C934 C 0.36743 0.17316 0.72043 0.0
C935 C 0.35237 0.19617 0.68542 0.0
H936 H 0.40441 0.12702 0.73586 0.0
C937 C 0.3665 0.19177 0.63945 0.0
H938 H 0.35679 0.1754 0.75585 0.0
C939 C 0.39429 0.16473 0.62817 0.0
C940 C 0.40842 0.14035 0.66205 0.0
H941 H 0.35572 0.20913 0.6116 0.0
H942 H 0.40455 0.16301 0.59249 0.0
C943 C 0.39495 0.14543 0.70882 0.0
C944 C 0.87174 0.40769 0.70882 0.0
C945 C 0.8273 0.38646 0.67792 0.0
H946 H 0.93718 0.44671 0.71236 0.0
C947 C 0.81284 0.39232 0.6284 0.0
H948 H 0.88331 0.40375 0.74739 0.0
C949 C 0.84376 0.41585 0.60799 0.0
C950 C 0.88906 0.4346 0.63745 0.0
H951 H 0.77854 0.37646 0.6042 0.0
H952 H 0.83266 0.41808 0.5685 0.0
C953 C 0.90242 0.43214 0.68886 0.0
C954 C 0.19085 0.61163 0.66921 0.0
C955 C 0.19506 0.64903 0.65133 0.0
H956 H 0.14877 0.54852 0.66002 0.0
C957 C 0.17051 0.64617 0.60087 0.0
H958 H 0.21085 0.61263 0.7073 0.0
C959 C 0.13584 0.60866 0.573 0.0
C960 C 0.12554 0.57498 0.59646 0.0
H961 H 0.17403 0.67434 0.58581 0.0
H962 H 0.11424 0.60839 0.53636 0.0
C963 C 0.15544 0.575 0.64237 0.0
loop_
_geom_bond_atom_site_label_1
_geom_bond_atom_site_label_2
_geom_bond_distance
_geom_bond_site_symmetry_2
_ccdc_geom_bond_type
Tb0 O3 2.453 . S
Tb0 O4 2.596 . S
Tb0 O5 2.374 . S
Tb0 O13 2.343 . S
Tb0 O15 2.353 . S
Tb0 O17 2.427 . S
Tb0 O18 2.513 . S
C1 O5 1.251 . S
C1 O7 1.263 . S
Tb2 O4 2.343 . S
Tb2 O7 2.353 . S
Tb2 O10 2.427 . S
Tb2 O11 2.513 . S
Tb2 O12 2.453 . S
Tb2 O13 2.596 . S
Tb2 O14 2.374 . S
O3 Tb0 2.453 . S
O3 C19 1.245 . S
O4 Tb0 2.596 . S
O4 Tb2 2.343 . S
O4 C19 1.259 . S
O5 Tb0 2.374 . S
O5 C1 1.251 . S
C6 O10 1.275 . S
C6 O11 1.246 . S
O7 C1 1.263 . S
O7 Tb2 2.353 . S
C8 O12 1.245 . S
C8 O13 1.259 . S
C9 O14 1.250 . S
C9 O15 1.263 . S
O10 Tb2 2.427 . S
O10 C6 1.275 . S
O11 Tb2 2.513 . S
O11 C6 1.246 . S
O12 Tb2 2.453 . S
O12 C8 1.245 . S
O13 Tb0 2.343 . S
O13 Tb2 2.596 . S
O13 C8 1.259 . S
O14 Tb2 2.374 . S
O14 C9 1.250 . S
O15 Tb0 2.353 . S
O15 C9 1.263 . S
C16 O17 1.275 . S
C16 O18 1.246 . S
O17 Tb0 2.427 . S
O17 C16 1.275 . S
O18 Tb0 2.513 . S
O18 C16 1.246 . S
C19 O3 1.245 . S
C19 O4 1.259 . S
Tb20 O23 2.453 . S
Tb20 O24 2.596 . S
Tb20 O25 2.374 . S
Tb20 O33 2.343 . S
Tb20 O35 2.353 . S
Tb20 O37 2.427 . S
Tb20 O38 2.513 . S
C21 O25 1.251 . S
C21 O27 1.263 . S
Tb22 O24 2.343 . S
Tb22 O27 2.353 . S
Tb22 O30 2.427 . S
Tb22 O31 2.513 . S
Tb22 O32 2.453 . S
Tb22 O33 2.596 . S
Tb22 O34 2.374 . S
O23 Tb20 2.453 . S
O23 C39 1.245 . S
O24 Tb20 2.596 . S
O24 Tb22 2.343 . S
O24 C39 1.259 . S
O25 Tb20 2.374 . S
O25 C21 1.251 . S
C26 O30 1.275 . S
C26 O31 1.246 . S
O27 C21 1.263 . S
O27 Tb22 2.353 . S
C28 O32 1.245 . S
C28 O33 1.259 . S
C29 O34 1.250 . S
C29 O35 1.263 . S
O30 Tb22 2.427 . S
O30 C26 1.275 . S
O31 Tb22 2.513 . S
O31 C26 1.246 . S
O32 Tb22 2.453 . S
O32 C28 1.245 . S
O33 Tb20 2.343 . S
O33 Tb22 2.596 . S
O33 C28 1.259 . S
O34 Tb22 2.374 . S
O34 C29 1.250 . S
O35 Tb20 2.353 . S
O35 C29 1.263 . S
C36 O37 1.275 . S
C36 O38 1.246 . S
O37 Tb20 2.427 . S
O37 C36 1.275 . S
O38 Tb20 2.513 . S
O38 C36 1.246 . S
C39 O23 1.245 . S
C39 O24 1.259 . S
Tb40 O43 2.453 . S
Tb40 O44 2.596 . S
Tb40 O45 2.374 . S
Tb40 O53 2.343 . S
Tb40 O55 2.353 . S
Tb40 O57 2.427 . S
Tb40 O58 2.513 . S
C41 O45 1.251 . S
C41 O47 1.263 . S
Tb42 O44 2.343 . S
Tb42 O47 2.353 . S
Tb42 O50 2.427 . S
Tb42 O51 2.513 . S
Tb42 O52 2.453 . S
Tb42 O53 2.596 . S
Tb42 O54 2.374 . S
O43 Tb40 2.453 . S
O43 C59 1.245 . S
O44 Tb40 2.596 . S
O44 Tb42 2.343 . S
O44 C59 1.259 . S
O45 Tb40 2.374 . S
O45 C41 1.251 . S
C46 O50 1.275 . S
C46 O51 1.246 . S
O47 C41 1.263 . S
O47 Tb42 2.353 . S
C48 O52 1.245 . S
C48 O53 1.259 . S
C49 O54 1.250 . S
C49 O55 1.263 . S
O50 Tb42 2.427 . S
O50 C46 1.275 . S
O51 Tb42 2.513 . S
O51 C46 1.246 . S
O52 Tb42 2.453 . S
O52 C48 1.245 . S
O53 Tb40 2.343 . S
O53 Tb42 2.596 . S
O53 C48 1.259 . S
O54 Tb42 2.374 . S
O54 C49 1.250 . S
O55 Tb40 2.353 . S
O55 C49 1.263 . S
C56 O57 1.275 . S
C56 O58 1.246 . S
O57 Tb40 2.427 . S
O57 C56 1.275 . S
O58 Tb40 2.513 . S
O58 C56 1.246 . S
C59 O43 1.245 . S
C59 O44 1.259 . S
Tb60 O63 2.453 . S
Tb60 O64 2.596 . S
Tb60 O65 2.374 . S
Tb60 O73 2.343 . S
Tb60 O75 2.353 . S
Tb60 O77 2.427 . S
Tb60 O78 2.513 . S
C61 O65 1.251 . S
C61 O67 1.263 . S
Tb62 O64 2.343 . S
Tb62 O67 2.353 . S
Tb62 O70 2.427 . S
Tb62 O71 2.513 . S
Tb62 O72 2.453 . S
Tb62 O73 2.596 . S
Tb62 O74 2.374 . S
O63 Tb60 2.453 . S
O63 C79 1.245 . S
O64 Tb60 2.596 . S
O64 Tb62 2.343 . S
O64 C79 1.259 . S
O65 Tb60 2.374 . S
O65 C61 1.251 . S
C66 O70 1.275 . S
C66 O71 1.246 . S
O67 C61 1.263 . S
O67 Tb62 2.353 . S
C68 O72 1.245 . S
C68 O73 1.259 . S
C69 O74 1.250 . S
C69 O75 1.263 . S
O70 Tb62 2.427 . S
O70 C66 1.275 . S
O71 Tb62 2.513 . S
O71 C66 1.246 . S
O72 Tb62 2.453 . S
O72 C68 1.245 . S
O73 Tb60 2.343 . S
O73 Tb62 2.596 . S
O73 C68 1.259 . S
O74 Tb62 2.374 . S
O74 C69 1.250 . S
O75 Tb60 2.353 . S
O75 C69 1.263 . S
C76 O77 1.275 . S
C76 O78 1.246 . S
O77 Tb60 2.427 . S
O77 C76 1.275 . S
O78 Tb60 2.513 . S
O78 C76 1.246 . S
C79 O63 1.245 . S
C79 O64 1.259 . S
Tb80 O83 2.453 . S
Tb80 O84 2.596 . S
Tb80 O85 2.374 . S
Tb80 O93 2.343 . S
Tb80 O95 2.353 . S
Tb80 O97 2.427 . S
Tb80 O98 2.513 . S
C81 O85 1.251 . S
C81 O87 1.263 . S
Tb82 O84 2.343 . S
Tb82 O87 2.353 . S
Tb82 O90 2.427 . S
Tb82 O91 2.513 . S
Tb82 O92 2.453 . S
Tb82 O93 2.596 . S
Tb82 O94 2.374 . S
O83 Tb80 2.453 . S
O83 C99 1.245 . S
O84 Tb80 2.596 . S
O84 Tb82 2.343 . S
O84 C99 1.259 . S
O85 Tb80 2.374 . S
O85 C81 1.251 . S
C86 O90 1.275 . S
C86 O91 1.246 . S
O87 C81 1.263 . S
O87 Tb82 2.353 . S
C88 O92 1.245 . S
C88 O93 1.259 . S
C89 O94 1.250 . S
C89 O95 1.263 . S
O90 Tb82 2.427 . S
O90 C86 1.275 . S
O91 Tb82 2.513 . S
O91 C86 1.246 . S
O92 Tb82 2.453 . S
O92 C88 1.245 . S
O93 Tb80 2.343 . S
O93 Tb82 2.596 . S
O93 C88 1.259 . S
O94 Tb82 2.374 . S
O94 C89 1.250 . S
O95 Tb80 2.353 . S
O95 C89 1.263 . S
C96 O97 1.275 . S
C96 O98 1.246 . S
O97 Tb80 2.427 . S
O97 C96 1.275 . S
O98 Tb80 2.513 . S
O98 C96 1.246 . S
C99 O83 1.245 . S
C99 O84 1.259 . S
Tb100 O103 2.453 . S
Tb100 O104 2.596 . S
Tb100 O105 2.374 . S
Tb100 O113 2.343 . S
Tb100 O115 2.353 . S
Tb100 O117 2.427 . S
Tb100 O118 2.513 . S
C101 O105 1.251 . S
C101 O107 1.263 . S
Tb102 O104 2.343 . S
Tb102 O107 2.353 . S
Tb102 O110 2.427 . S
Tb102 O111 2.513 . S
Tb102 O112 2.453 . S
Tb102 O113 2.596 . S
Tb102 O114 2.374 . S
O103 Tb100 2.453 . S
O103 C119 1.245 . S
O104 Tb100 2.596 . S
O104 Tb102 2.343 . S
O104 C119 1.259 . S
O105 Tb100 2.374 . S
O105 C101 1.251 . S
C106 O110 1.275 . S
C106 O111 1.246 . S
O107 C101 1.263 . S
O107 Tb102 2.353 . S
C108 O112 1.245 . S
C108 O113 1.259 . S
C109 O114 1.250 . S
C109 O115 1.263 . S
O110 Tb102 2.427 . S
O110 C106 1.275 . S
O111 Tb102 2.513 . S
O111 C106 1.246 . S
O112 Tb102 2.453 . S
O112 C108 1.245 . S
O113 Tb100 2.343 . S
O113 Tb102 2.596 . S
O113 C108 1.259 . S
O114 Tb102 2.374 . S
O114 C109 1.250 . S
O115 Tb100 2.353 . S
O115 C109 1.263 . S
C116 O117 1.275 . S
C116 O118 1.246 . S
O117 Tb100 2.427 . S
O117 C116 1.275 . S
O118 Tb100 2.513 . S
O118 C116 1.246 . S
C119 O103 1.245 . S
C119 O104 1.259 . S
Tb120 O123 2.453 . S
Tb120 O124 2.596 . S
Tb120 O125 2.374 . S
Tb120 O133 2.343 . S
Tb120 O135 2.353 . S
Tb120 O137 2.427 . S
Tb120 O138 2.513 . S
C121 O125 1.251 . S
C121 O127 1.263 . S
Tb122 O124 2.343 . S
Tb122 O127 2.353 . S
Tb122 O130 2.427 . S
Tb122 O131 2.513 . S
Tb122 O132 2.453 . S
Tb122 O133 2.596 . S
Tb122 O134 2.374 . S
O123 Tb120 2.453 . S
O123 C139 1.245 . S
O124 Tb120 2.596 . S
O124 Tb122 2.343 . S
O124 C139 1.259 . S
O125 Tb120 2.374 . S
O125 C121 1.251 . S
C126 O130 1.275 . S
C126 O131 1.246 . S
O127 C121 1.263 . S
O127 Tb122 2.353 . S
C128 O132 1.245 . S
C128 O133 1.259 . S
C129 O134 1.250 . S
C129 O135 1.263 . S
O130 Tb122 2.427 . S
O130 C126 1.275 . S
O131 Tb122 2.513 . S
O131 C126 1.246 . S
O132 Tb122 2.453 . S
O132 C128 1.245 . S
O133 Tb120 2.343 . S
O133 Tb122 2.596 . S
O133 C128 1.259 . S
O134 Tb122 2.374 . S
O134 C129 1.250 . S
O135 Tb120 2.353 . S
O135 C129 1.263 . S
C136 O137 1.275 . S
C136 O138 1.246 . S
O137 Tb120 2.427 . S
O137 C136 1.275 . S
O138 Tb120 2.513 . S
O138 C136 1.246 . S
C139 O123 1.245 . S
C139 O124 1.259 . S
Tb140 O143 2.453 . S
Tb140 O144 2.596 . S
Tb140 O145 2.374 . S
Tb140 O153 2.343 . S
Tb140 O155 2.353 . S
Tb140 O157 2.427 . S
Tb140 O158 2.513 . S
C141 O145 1.251 . S
C141 O147 1.263 . S
Tb142 O144 2.343 . S
Tb142 O147 2.353 . S
Tb142 O150 2.427 . S
Tb142 O151 2.513 . S
Tb142 O152 2.453 . S
Tb142 O153 2.596 . S
Tb142 O154 2.374 . S
O143 Tb140 2.453 . S
O143 C159 1.245 . S
O144 Tb140 2.596 . S
O144 Tb142 2.343 . S
O144 C159 1.259 . S
O145 Tb140 2.374 . S
O145 C141 1.251 . S
C146 O150 1.275 . S
C146 O151 1.246 . S
O147 C141 1.263 . S
O147 Tb142 2.353 . S
C148 O152 1.245 . S
C148 O153 1.259 . S
C149 O154 1.250 . S
C149 O155 1.263 . S
O150 Tb142 2.427 . S
O150 C146 1.275 . S
O151 Tb142 2.513 . S
O151 C146 1.246 . S
O152 Tb142 2.453 . S
O152 C148 1.245 . S
O153 Tb140 2.343 . S
O153 Tb142 2.596 . S
O153 C148 1.259 . S
O154 Tb142 2.374 . S
O154 C149 1.250 . S
O155 Tb140 2.353 . S
O155 C149 1.263 . S
C156 O157 1.275 . S
C156 O158 1.246 . S
O157 Tb140 2.427 . S
O157 C156 1.275 . S
O158 Tb140 2.513 . S
O158 C156 1.246 . S
C159 O143 1.245 . S
C159 O144 1.259 . S
Cd160 N163 2.334 1_655 S
Cd160 N189 2.304 1_565 S
Cd160 O196 2.268 . S
Cd160 O199 2.273 1_665 S
Cd160 O200 2.417 . S
Cd160 O201 2.330 . S
Cd161 N176 2.304 1_455 S
Cd161 N180 2.334 1_545 S
Cd161 O197 2.273 1_445 S
Cd161 O198 2.268 . S
Cd161 O202 2.417 . S
Cd161 O203 2.330 . S
C162 N163 1.332 . S
C162 C166 1.381 . S
C162 H168 0.931 . S
N163 Cd160 2.334 1_455 S
N163 C162 1.332 . S
N163 C167 1.328 . S
C164 C165 1.396 . S
C164 C167 1.378 . S
C164 H206 0.931 . S
C165 C164 1.396 . S
C165 C166 1.382 . S
C166 C162 1.381 . S
C166 C165 1.382 . S
C166 H207 0.930 . S
C167 N163 1.328 . S
C167 C164 1.378 . S
C167 H169 0.930 1_455 S
H168 C162 0.931 . S
H169 C167 0.930 1_655 S
C170 O196 1.238 . S
C170 O197 1.253 . S
C171 C172 1.379 . S
C171 N176 1.337 . S
C171 H177 0.929 . S
C172 C171 1.379 . S
C172 C173 1.380 . S
C172 H208 0.929 . S
C173 C172 1.380 . S
C173 C174 1.399 . S
C174 C173 1.399 . S
C174 C175 1.376 . S
C174 H209 0.931 . S
C175 C174 1.376 . S
C175 N176 1.338 . S
C175 H178 0.930 1_655 S
N176 Cd161 2.304 1_655 S
N176 C171 1.337 . S
N176 C175 1.338 . S
H177 C171 0.929 . S
H178 C175 0.930 1_455 S
C179 N180 1.332 . S
C179 C183 1.381 . S
C179 H185 0.931 . S
N180 Cd161 2.334 1_565 S
N180 C179 1.332 . S
N180 C184 1.328 . S
C181 C182 1.396 . S
C181 C184 1.378 . S
C181 H210 0.931 . S
C182 C181 1.396 . S
C182 C183 1.382 . S
C183 C179 1.381 . S
C183 C182 1.382 . S
C183 H211 0.930 . S
C184 N180 1.328 . S
C184 C181 1.378 . S
C184 H186 0.930 1_565 S
H185 C179 0.931 . S
H186 C184 0.930 1_545 S
C187 O198 1.238 . S
C187 O199 1.253 . S
C188 O200 1.239 . S
C188 O201 1.230 . S
N189 Cd160 2.304 1_545 S
N189 C190 1.337 . S
N189 C194 1.338 . S
C190 N189 1.337 . S
C190 C191 1.379 . S
C190 H204 0.929 . S
C191 C190 1.379 . S
C191 C192 1.380 . S
C191 H212 0.929 . S
C192 C191 1.380 . S
C192 C193 1.399 . S
C193 C192 1.399 . S
C193 C194 1.376 . S
C193 H213 0.931 . S
C194 N189 1.338 . S
C194 C193 1.376 . S
C194 H205 0.930 1_545 S
C195 O202 1.239 . S
C195 O203 1.230 . S
O196 Cd160 2.268 . S
O196 C170 1.238 . S
O197 Cd161 2.273 1_665 S
O197 C170 1.253 . S
O198 Cd161 2.268 . S
O198 C187 1.238 . S
O199 Cd160 2.273 1_445 S
O199 C187 1.253 . S
O200 Cd160 2.417 . S
O200 C188 1.239 . S
O201 Cd160 2.330 . S
O201 C188 1.230 . S
O202 Cd161 2.417 . S
O202 C195 1.239 . S
O203 Cd161 2.330 . S
O203 C195 1.230 . S
H204 C190 0.929 . S
H205 C194 0.930 1_565 S
H206 C164 0.931 . S
H207 C166 0.930 . S
H208 C172 0.929 . S
H209 C174 0.931 . S
H210 C181 0.931 . S
H211 C183 0.930 . S
H212 C191 0.929 . S
H213 C193 0.931 . S
Cd214 N217 2.334 . S
Cd214 N243 2.304 1_565 S
Cd214 O250 2.268 1_554 S
Cd214 O253 2.273 1_565 S
Cd214 O254 2.417 . S
Cd214 O255 2.330 . S
Cd215 N230 2.304 . S
Cd215 N234 2.334 1_545 S
Cd215 O251 2.273 1_545 S
Cd215 O252 2.268 1_556 S
Cd215 O256 2.417 . S
Cd215 O257 2.330 . S
C216 N217 1.332 . S
C216 C220 1.381 . S
C216 H222 0.931 . S
N217 Cd214 2.334 . S
N217 C216 1.332 . S
N217 C221 1.328 . S
C218 C219 1.396 . S
C218 C221 1.378 . S
C218 H260 0.931 1_554 S
C219 C218 1.396 . S
C219 C220 1.382 . S
C220 C216 1.381 . S
C220 C219 1.382 . S
C220 H261 0.930 . S
C221 N217 1.328 . S
C221 C218 1.378 . S
C221 H223 0.930 1_554 S
H222 C216 0.931 . S
H223 C221 0.930 1_556 S
C224 O250 1.238 . S
C224 O251 1.253 . S
C225 C226 1.379 . S
C225 N230 1.337 . S
C225 H231 0.929 . S
C226 C225 1.379 . S
C226 C227 1.380 . S
C226 H262 0.929 . S
C227 C226 1.380 . S
C227 C228 1.399 . S
C228 C227 1.399 . S
C228 C229 1.376 . S
C228 H263 0.931 1_556 S
C229 C228 1.376 . S
C229 N230 1.338 . S
C229 H232 0.930 1_556 S
N230 Cd215 2.304 . S
N230 C225 1.337 . S
N230 C229 1.338 . S
H231 C225 0.929 . S
H232 C229 0.930 1_554 S
C233 N234 1.332 . S
C233 C237 1.381 . S
C233 H239 0.931 . S
N234 Cd215 2.334 1_565 S
N234 C233 1.332 . S
N234 C238 1.328 . S
C235 C236 1.396 . S
C235 C238 1.378 . S
C235 H264 0.931 1_556 S
C236 C235 1.396 . S
C236 C237 1.382 . S
C237 C233 1.381 . S
C237 C236 1.382 . S
C237 H265 0.930 . S
C238 N234 1.328 . S
C238 C235 1.378 . S
C238 H240 0.930 1_566 S
H239 C233 0.931 . S
H240 C238 0.930 1_544 S
C241 O252 1.238 . S
C241 O253 1.253 . S
C242 O254 1.239 . S
C242 O255 1.230 . S
N243 Cd214 2.304 1_545 S
N243 C244 1.337 . S
N243 C248 1.338 . S
C244 N243 1.337 . S
C244 C245 1.379 . S
C244 H258 0.929 . S
C245 C244 1.379 . S
C245 C246 1.380 . S
C245 H266 0.929 . S
C246 C245 1.380 . S
C246 C247 1.399 . S
C247 C246 1.399 . S
C247 C248 1.376 . S
C247 H267 0.931 1_554 S
C248 N243 1.338 . S
C248 C247 1.376 . S
C248 H259 0.930 1_544 S
C249 O256 1.239 . S
C249 O257 1.230 . S
O250 Cd214 2.268 1_556 S
O250 C224 1.238 . S
O251 Cd215 2.273 1_565 S
O251 C224 1.253 . S
O252 Cd215 2.268 1_554 S
O252 C241 1.238 . S
O253 Cd214 2.273 1_545 S
O253 C241 1.253 . S
O254 Cd214 2.417 . S
O254 C242 1.239 . S
O255 Cd214 2.330 . S
O255 C242 1.230 . S
O256 Cd215 2.417 . S
O256 C249 1.239 . S
O257 Cd215 2.330 . S
O257 C249 1.230 . S
H258 C244 0.929 . S
H259 C248 0.930 1_566 S
H260 C218 0.931 1_556 S
H261 C220 0.930 . S
H262 C226 0.929 . S
H263 C228 0.931 1_554 S
H264 C235 0.931 1_554 S
H265 C237 0.930 . S
H266 C245 0.929 . S
H267 C247 0.931 1_556 S
Cd268 N271 2.334 1_655 S
Cd268 N297 2.304 . S
Cd268 O304 2.268 1_554 S
Cd268 O307 2.273 1_655 S
Cd268 O308 2.417 . S
Cd268 O309 2.330 . S
Cd269 N284 2.304 1_455 S
Cd269 N288 2.334 . S
Cd269 O305 2.273 1_455 S
Cd269 O306 2.268 1_556 S
Cd269 O310 2.417 . S
Cd269 O311 2.330 . S
C270 N271 1.332 . S
C270 C274 1.381 . S
C270 H276 0.931 . S
N271 Cd268 2.334 1_455 S
N271 C270 1.332 . S
N271 C275 1.328 . S
C272 C273 1.396 . S
C272 C275 1.378 . S
C272 H314 0.931 1_554 S
C273 C272 1.396 . S
C273 C274 1.382 . S
C274 C270 1.381 . S
C274 C273 1.382 . S
C274 H315 0.930 . S
C275 N271 1.328 . S
C275 C272 1.378 . S
C275 H277 0.930 1_454 S
H276 C270 0.931 . S
H277 C275 0.930 1_656 S
C278 O304 1.238 . S
C278 O305 1.253 . S
C279 C280 1.379 . S
C279 N284 1.337 . S
C279 H285 0.929 . S
C280 C279 1.379 . S
C280 C281 1.380 . S
C280 H316 0.929 . S
C281 C280 1.380 . S
C281 C282 1.399 . S
C282 C281 1.399 . S
C282 C283 1.376 . S
C282 H317 0.931 1_556 S
C283 C282 1.376 . S
C283 N284 1.338 . S
C283 H286 0.930 1_656 S
N284 Cd269 2.304 1_655 S
N284 C279 1.337 . S
N284 C283 1.338 . S
H285 C279 0.929 . S
H286 C283 0.930 1_454 S
C287 N288 1.332 . S
C287 C291 1.381 . S
C287 H293 0.931 . S
N288 Cd269 2.334 . S
N288 C287 1.332 . S
N288 C292 1.328 . S
C289 C290 1.396 . S
C289 C292 1.378 . S
C289 H318 0.931 1_556 S
C290 C289 1.396 . S
C290 C291 1.382 . S
C291 C287 1.381 . S
C291 C290 1.382 . S
C291 H319 0.930 . S
C292 N288 1.328 . S
C292 C289 1.378 . S
C292 H294 0.930 1_556 S
H293 C287 0.931 . S
H294 C292 0.930 1_554 S
C295 O306 1.238 . S
C295 O307 1.253 . S
C296 O308 1.239 . S
C296 O309 1.230 . S
N297 Cd268 2.304 . S
N297 C298 1.337 . S
N297 C302 1.338 . S
C298 N297 1.337 . S
C298 C299 1.379 . S
C298 H312 0.929 . S
C299 C298 1.379 . S
C299 C300 1.380 . S
C299 H320 0.929 . S
C300 C299 1.380 . S
C300 C301 1.399 . S
C301 C300 1.399 . S
C301 C302 1.376 . S
C301 H321 0.931 1_554 S
C302 N297 1.338 . S
C302 C301 1.376 . S
C302 H313 0.930 1_554 S
C303 O310 1.239 . S
C303 O311 1.230 . S
O304 Cd268 2.268 1_556 S
O304 C278 1.238 . S
O305 Cd269 2.273 1_655 S
O305 C278 1.253 . S
O306 Cd269 2.268 1_554 S
O306 C295 1.238 . S
O307 Cd268 2.273 1_455 S
O307 C295 1.253 . S
O308 Cd268 2.417 . S
O308 C296 1.239 . S
O309 Cd268 2.330 . S
O309 C296 1.230 . S
O310 Cd269 2.417 . S
O310 C303 1.239 . S
O311 Cd269 2.330 . S
O311 C303 1.230 . S
H312 C298 0.929 . S
H313 C302 0.930 1_556 S
H314 C272 0.931 1_556 S
H315 C274 0.930 . S
H316 C280 0.929 . S
H317 C282 0.931 1_554 S
H318 C289 0.931 1_554 S
H319 C291 0.930 . S
H320 C299 0.929 . S
H321 C301 0.931 1_556 S
Cd322 N325 2.334 . S
Cd322 N351 2.304 . S
Cd322 O358 2.268 1_554 S
Cd322 O361 2.273 . S
Cd322 O362 2.417 . S
Cd322 O363 2.330 . S
Cd323 N338 2.304 . S
Cd323 N342 2.334 . S
Cd323 O359 2.273 . S
Cd323 O360 2.268 1_556 S
Cd323 O364 2.417 . S
Cd323 O365 2.330 . S
C324 N325 1.332 . S
C324 C328 1.381 . S
C324 H330 0.931 . S
N325 Cd322 2.334 . S
N325 C324 1.332 . S
N325 C329 1.328 . S
C326 C327 1.396 . S
C326 C329 1.378 . S
C326 H368 0.931 1_554 S
C327 C326 1.396 . S
C327 C328 1.382 . S
C328 C324 1.381 . S
C328 C327 1.382 . S
C328 H369 0.930 . S
C329 N325 1.328 . S
C329 C326 1.378 . S
C329 H331 0.930 1_554 S
H330 C324 0.931 . S
H331 C329 0.930 1_556 S
C332 O358 1.238 . S
C332 O359 1.253 . S
C333 C334 1.379 . S
C333 N338 1.337 . S
C333 H339 0.929 . S
C334 C333 1.379 . S
C334 C335 1.380 . S
C334 H370 0.929 . S
C335 C334 1.380 . S
C335 C336 1.399 . S
C336 C335 1.399 . S
C336 C337 1.376 . S
C336 H371 0.931 1_556 S
C337 C336 1.376 . S
C337 N338 1.338 . S
C337 H340 0.930 1_556 S
N338 Cd323 2.304 . S
N338 C333 1.337 . S
N338 C337 1.338 . S
H339 C333 0.929 . S
H340 C337 0.930 1_554 S
C341 N342 1.332 . S
C341 C345 1.381 . S
C341 H347 0.931 . S
N342 Cd323 2.334 . S
N342 C341 1.332 . S
N342 C346 1.328 . S
C343 C344 1.396 . S
C343 C346 1.378 . S
C343 H372 0.931 1_556 S
C344 C343 1.396 . S
C344 C345 1.382 . S
C345 C341 1.381 . S
C345 C344 1.382 . S
C345 H373 0.930 . S
C346 N342 1.328 . S
C346 C343 1.378 . S
C346 H348 0.930 1_556 S
H347 C341 0.931 . S
H348 C346 0.930 1_554 S
C349 O360 1.238 . S
C349 O361 1.253 . S
C350 O362 1.239 . S
C350 O363 1.230 . S
N351 Cd322 2.304 . S
N351 C352 1.337 . S
N351 C356 1.338 . S
C352 N351 1.337 . S
C352 C353 1.379 . S
C352 H366 0.929 . S
C353 C352 1.379 . S
C353 C354 1.380 . S
C353 H374 0.929 . S
C354 C353 1.380 . S
C354 C355 1.399 . S
C355 C354 1.399 . S
C355 C356 1.376 . S
C355 H375 0.931 1_554 S
C356 N351 1.338 . S
C356 C355 1.376 . S
C356 H367 0.930 1_554 S
C357 O364 1.239 . S
C357 O365 1.230 . S
O358 Cd322 2.268 1_556 S
O358 C332 1.238 . S
O359 Cd323 2.273 . S
O359 C332 1.253 . S
O360 Cd323 2.268 1_554 S
O360 C349 1.238 . S
O361 Cd322 2.273 . S
O361 C349 1.253 . S
O362 Cd322 2.417 . S
O362 C350 1.239 . S
O363 Cd322 2.330 . S
O363 C350 1.230 . S
O364 Cd323 2.417 . S
O364 C357 1.239 . S
O365 Cd323 2.330 . S
O365 C357 1.230 . S
H366 C352 0.929 . S
H367 C356 0.930 1_556 S
H368 C326 0.931 1_556 S
H369 C328 0.930 . S
H370 C334 0.929 . S
H371 C336 0.931 1_554 S
H372 C343 0.931 1_554 S
H373 C345 0.930 . S
H374 C353 0.929 . S
H375 C355 0.931 1_556 S
Cd376 N379 2.334 1_655 S
Cd376 N405 2.304 . S
Cd376 O412 2.268 . S
Cd376 O415 2.273 1_655 S
Cd376 O416 2.417 . S
Cd376 O417 2.330 . S
Cd377 N392 2.304 1_455 S
Cd377 N396 2.334 . S
Cd377 O413 2.273 1_455 S
Cd377 O414 2.268 . S
Cd377 O418 2.417 . S
Cd377 O419 2.330 . S
C378 N379 1.332 . S
C378 C382 1.381 . S
C378 H384 0.931 . S
N379 Cd376 2.334 1_455 S
N379 C378 1.332 . S
N379 C383 1.328 . S
C380 C381 1.396 . S
C380 C383 1.378 . S
C380 H422 0.931 . S
C381 C380 1.396 . S
C381 C382 1.382 . S
C382 C378 1.381 . S
C382 C381 1.382 . S
C382 H423 0.930 . S
C383 N379 1.328 . S
C383 C380 1.378 . S
C383 H385 0.930 1_455 S
H384 C378 0.931 . S
H385 C383 0.930 1_655 S
C386 O412 1.238 . S
C386 O413 1.253 . S
C387 C388 1.379 . S
C387 N392 1.337 . S
C387 H393 0.929 . S
C388 C387 1.379 . S
C388 C389 1.380 . S
C388 H424 0.929 . S
C389 C388 1.380 . S
C389 C390 1.399 . S
C390 C389 1.399 . S
C390 C391 1.376 . S
C390 H425 0.931 . S
C391 C390 1.376 . S
C391 N392 1.338 . S
C391 H394 0.930 1_655 S
N392 Cd377 2.304 1_655 S
N392 C387 1.337 . S
N392 C391 1.338 . S
H393 C387 0.929 . S
H394 C391 0.930 1_455 S
C395 N396 1.332 . S
C395 C399 1.381 . S
C395 H401 0.931 . S
N396 Cd377 2.334 . S
N396 C395 1.332 . S
N396 C400 1.328 . S
C397 C398 1.396 . S
C397 C400 1.378 . S
C397 H426 0.931 . S
C398 C397 1.396 . S
C398 C399 1.382 . S
C399 C395 1.381 . S
C399 C398 1.382 . S
C399 H427 0.930 . S
C400 N396 1.328 . S
C400 C397 1.378 . S
C400 H402 0.930 . S
H401 C395 0.931 . S
H402 C400 0.930 . S
C403 O414 1.238 . S
C403 O415 1.253 . S
C404 O416 1.239 . S
C404 O417 1.230 . S
N405 Cd376 2.304 . S
N405 C406 1.337 . S
N405 C410 1.338 . S
C406 N405 1.337 . S
C406 C407 1.379 . S
C406 H420 0.929 . S
C407 C406 1.379 . S
C407 C408 1.380 . S
C407 H428 0.929 . S
C408 C407 1.380 . S
C408 C409 1.399 . S
C409 C408 1.399 . S
C409 C410 1.376 . S
C409 H429 0.931 . S
C410 N405 1.338 . S
C410 C409 1.376 . S
C410 H421 0.930 . S
C411 O418 1.239 . S
C411 O419 1.230 . S
O412 Cd376 2.268 . S
O412 C386 1.238 . S
O413 Cd377 2.273 1_655 S
O413 C386 1.253 . S
O414 Cd377 2.268 . S
O414 C403 1.238 . S
O415 Cd376 2.273 1_455 S
O415 C403 1.253 . S
O416 Cd376 2.417 . S
O416 C404 1.239 . S
O417 Cd376 2.330 . S
O417 C404 1.230 . S
O418 Cd377 2.417 . S
O418 C411 1.239 . S
O419 Cd377 2.330 . S
O419 C411 1.230 . S
H420 C406 0.929 . S
H421 C410 0.930 . S
H422 C380 0.931 . S
H423 C382 0.930 . S
H424 C388 0.929 . S
H425 C390 0.931 . S
H426 C397 0.931 . S
H427 C399 0.930 . S
H428 C407 0.929 . S
H429 C409 0.931 . S
Cd430 N433 2.334 . S
Cd430 N459 2.304 1_565 S
Cd430 O466 2.268 . S
Cd430 O469 2.273 1_565 S
Cd430 O470 2.417 . S
Cd430 O471 2.330 . S
Cd431 N446 2.304 . S
Cd431 N450 2.334 1_545 S
Cd431 O467 2.273 1_545 S
Cd431 O468 2.268 . S
Cd431 O472 2.417 . S
Cd431 O473 2.330 . S
C432 N433 1.332 . S
C432 C436 1.381 . S
C432 H438 0.931 . S
N433 Cd430 2.334 . S
N433 C432 1.332 . S
N433 C437 1.328 . S
C434 C435 1.396 . S
C434 C437 1.378 . S
C434 H476 0.931 . S
C435 C434 1.396 . S
C435 C436 1.382 . S
C436 C432 1.381 . S
C436 C435 1.382 . S
C436 H477 0.930 . S
C437 N433 1.328 . S
C437 C434 1.378 . S
C437 H439 0.930 . S
H438 C432 0.931 . S
H439 C437 0.930 . S
C440 O466 1.238 . S
C440 O467 1.253 . S
C441 C442 1.379 . S
C441 N446 1.337 . S
C441 H447 0.929 . S
C442 C441 1.379 . S
C442 C443 1.380 . S
C442 H478 0.929 . S
C443 C442 1.380 . S
C443 C444 1.399 . S
C444 C443 1.399 . S
C444 C445 1.376 . S
C444 H479 0.931 . S
C445 C444 1.376 . S
C445 N446 1.338 . S
C445 H448 0.930 . S
N446 Cd431 2.304 . S
N446 C441 1.337 . S
N446 C445 1.338 . S
H447 C441 0.929 . S
H448 C445 0.930 . S
C449 N450 1.332 . S
C449 C453 1.381 . S
C449 H455 0.931 . S
N450 Cd431 2.334 1_565 S
N450 C449 1.332 . S
N450 C454 1.328 . S
C451 C452 1.396 . S
C451 C454 1.378 . S
C451 H480 0.931 . S
C452 C451 1.396 . S
C452 C453 1.382 . S
C453 C449 1.381 . S
C453 C452 1.382 . S
C453 H481 0.930 . S
C454 N450 1.328 . S
C454 C451 1.378 . S
C454 H456 0.930 1_565 S
H455 C449 0.931 . S
H456 C454 0.930 1_545 S
C457 O468 1.238 . S
C457 O469 1.253 . S
C458 O470 1.239 . S
C458 O471 1.230 . S
N459 Cd430 2.304 1_545 S
N459 C460 1.337 . S
N459 C464 1.338 . S
C460 N459 1.337 . S
C460 C461 1.379 . S
C460 H474 0.929 . S
C461 C460 1.379 . S
C461 C462 1.380 . S
C461 H482 0.929 . S
C462 C461 1.380 . S
C462 C463 1.399 . S
C463 C462 1.399 . S
C463 C464 1.376 . S
C463 H483 0.931 . S
C464 N459 1.338 . S
C464 C463 1.376 . S
C464 H475 0.930 1_545 S
C465 O472 1.239 . S
C465 O473 1.230 . S
O466 Cd430 2.268 . S
O466 C440 1.238 . S
O467 Cd431 2.273 1_565 S
O467 C440 1.253 . S
O468 Cd431 2.268 . S
O468 C457 1.238 . S
O469 Cd430 2.273 1_545 S
O469 C457 1.253 . S
O470 Cd430 2.417 . S
O470 C458 1.239 . S
O471 Cd430 2.330 . S
O471 C458 1.230 . S
O472 Cd431 2.417 . S
O472 C465 1.239 . S
O473 Cd431 2.330 . S
O473 C465 1.230 . S
H474 C460 0.929 . S
H475 C464 0.930 1_565 S
H476 C434 0.931 . S
H477 C436 0.930 . S
H478 C442 0.929 . S
H479 C444 0.931 . S
H480 C451 0.931 . S
H481 C453 0.930 . S
H482 C461 0.929 . S
H483 C463 0.931 . S
C484 C485 1.387 . S
C484 H488 0.950 . S
C484 C493 1.390 . S
C485 C484 1.387 . S
C485 C487 1.387 . S
H486 C493 0.950 . S
C487 C485 1.387 . S
C487 C489 1.390 . S
C487 H491 0.950 . S
H488 C484 0.950 . S
C489 C487 1.390 . S
C489 C490 1.387 . S
C489 H492 0.950 . S
C490 C489 1.387 . S
C490 C493 1.387 . S
H491 C487 0.950 . S
H492 C489 0.950 . S
C493 C484 1.390 . S
C493 H486 0.950 . S
C493 C490 1.387 . S
C494 C495 1.387 . S
C494 H498 0.950 . S
C494 C503 1.390 . S
C495 C494 1.387 . S
C495 C497 1.387 . S
H496 C503 0.950 . S
C497 C495 1.387 . S
C497 C499 1.390 . S
C497 H501 0.950 . S
H498 C494 0.950 . S
C499 C497 1.390 . S
C499 C500 1.387 . S
C499 H502 0.950 . S
C500 C499 1.387 . S
C500 C503 1.387 . S
H501 C497 0.950 . S
H502 C499 0.950 . S
C503 C494 1.390 . S
C503 H496 0.950 . S
C503 C500 1.387 . S
C504 C505 1.387 . S
C504 H508 0.950 . S
C504 C513 1.390 . S
C505 C504 1.387 . S
C505 C507 1.387 . S
H506 C513 0.950 . S
C507 C505 1.387 . S
C507 C509 1.390 . S
C507 H511 0.950 . S
H508 C504 0.950 . S
C509 C507 1.390 . S
C509 C510 1.387 . S
C509 H512 0.950 . S
C510 C509 1.387 . S
C510 C513 1.387 . S
H511 C507 0.950 . S
H512 C509 0.950 . S
C513 C504 1.390 . S
C513 H506 0.950 . S
C513 C510 1.387 . S
C514 C515 1.387 . S
C514 H518 0.950 . S
C514 C523 1.390 . S
C515 C514 1.387 . S
C515 C517 1.387 . S
H516 C523 0.950 . S
C517 C515 1.387 . S
C517 C519 1.390 . S
C517 H521 0.950 . S
H518 C514 0.950 . S
C519 C517 1.390 . S
C519 C520 1.387 . S
C519 H522 0.950 . S
C520 C519 1.387 . S
C520 C523 1.387 . S
H521 C517 0.950 . S
H522 C519 0.950 . S
C523 C514 1.390 . S
C523 H516 0.950 . S
C523 C520 1.387 . S
C524 C525 1.387 . S
C524 H528 0.950 . S
C524 C533 1.390 . S
C525 C524 1.387 . S
C525 C527 1.387 . S
H526 C533 0.950 . S
C527 C525 1.387 . S
C527 C529 1.390 . S
C527 H531 0.950 . S
H528 C524 0.950 . S
C529 C527 1.390 . S
C529 C530 1.387 . S
C529 H532 0.950 . S
C530 C529 1.387 . S
C530 C533 1.387 . S
H531 C527 0.950 . S
H532 C529 0.950 . S
C533 C524 1.390 . S
C533 H526 0.950 . S
C533 C530 1.387 . S
C534 C535 1.387 . S
C534 H538 0.950 . S
C534 C543 1.390 . S
C535 C534 1.387 . S
C535 C537 1.387 . S
H536 C543 0.950 . S
C537 C535 1.387 . S
C537 C539 1.390 . S
C537 H541 0.950 . S
H538 C534 0.950 . S
C539 C537 1.390 . S
C539 C540 1.387 . S
C539 H542 0.950 . S
C540 C539 1.387 . S
C540 C543 1.387 . S
H541 C537 0.950 . S
H542 C539 0.950 . S
C543 C534 1.390 . S
C543 H536 0.950 . S
C543 C540 1.387 . S
C544 C545 1.387 . S
C544 H548 0.950 . S
C544 C553 1.390 . S
C545 C544 1.387 . S
C545 C547 1.387 . S
H546 C553 0.950 . S
C547 C545 1.387 . S
C547 C549 1.390 . S
C547 H551 0.950 . S
H548 C544 0.950 . S
C549 C547 1.390 . S
C549 C550 1.387 . S
C549 H552 0.950 . S
C550 C549 1.387 . S
C550 C553 1.387 . S
H551 C547 0.950 . S
H552 C549 0.950 . S
C553 C544 1.390 . S
C553 H546 0.950 . S
C553 C550 1.387 . S
C554 C555 1.387 . S
C554 H558 0.950 . S
C554 C563 1.390 . S
C555 C554 1.387 . S
C555 C557 1.387 . S
H556 C563 0.950 . S
C557 C555 1.387 . S
C557 C559 1.390 . S
C557 H561 0.950 . S
H558 C554 0.950 . S
C559 C557 1.390 . S
C559 C560 1.387 . S
C559 H562 0.950 . S
C560 C559 1.387 . S
C560 C563 1.387 . S
H561 C557 0.950 . S
H562 C559 0.950 . S
C563 C554 1.390 . S
C563 H556 0.950 . S
C563 C560 1.387 . S
C564 C565 1.387 . S
C564 H568 0.950 . S
C564 C573 1.390 . S
C565 C564 1.387 . S
C565 C567 1.387 . S
H566 C573 0.950 . S
C567 C565 1.387 . S
C567 C569 1.390 . S
C567 H571 0.950 . S
H568 C564 0.950 . S
C569 C567 1.390 . S
C569 C570 1.387 . S
C569 H572 0.950 . S
C570 C569 1.387 . S
C570 C573 1.387 . S
H571 C567 0.950 . S
H572 C569 0.950 . S
C573 C564 1.390 . S
C573 H566 0.950 . S
C573 C570 1.387 . S
C574 C575 1.387 . S
C574 H578 0.950 . S
C574 C583 1.390 . S
C575 C574 1.387 . S
C575 C577 1.387 . S
H576 C583 0.950 . S
C577 C575 1.387 . S
C577 C579 1.390 . S
C577 H581 0.950 . S
H578 C574 0.950 . S
C579 C577 1.390 . S
C579 C580 1.387 . S
C579 H582 0.950 . S
C580 C579 1.387 . S
C580 C583 1.387 . S
H581 C577 0.950 . S
H582 C579 0.950 . S
C583 C574 1.390 . S
C583 H576 0.950 . S
C583 C580 1.387 . S
C584 C585 1.387 . S
C584 H588 0.950 . S
C584 C593 1.390 . S
C585 C584 1.387 . S
C585 C587 1.387 . S
H586 C593 0.950 . S
C587 C585 1.387 . S
C587 C589 1.390 . S
C587 H591 0.950 . S
H588 C584 0.950 . S
C589 C587 1.390 . S
C589 C590 1.387 . S
C589 H592 0.950 . S
C590 C589 1.387 . S
C590 C593 1.387 . S
H591 C587 0.950 . S
H592 C589 0.950 . S
C593 C584 1.390 . S
C593 H586 0.950 . S
C593 C590 1.387 . S
C594 C595 1.387 . S
C594 H598 0.950 . S
C594 C603 1.390 . S
C595 C594 1.387 . S
C595 C597 1.387 . S
H596 C603 0.950 . S
C597 C595 1.387 . S
C597 C599 1.390 . S
C597 H601 0.950 . S
H598 C594 0.950 . S
C599 C597 1.390 . S
C599 C600 1.387 . S
C599 H602 0.950 . S
C600 C599 1.387 . S
C600 C603 1.387 . S
H601 C597 0.950 . S
H602 C599 0.950 . S
C603 C594 1.390 . S
C603 H596 0.950 . S
C603 C600 1.387 . S
C604 C605 1.387 . S
C604 H608 0.950 . S
C604 C613 1.390 . S
C605 C604 1.387 . S
C605 C607 1.387 . S
H606 C613 0.950 . S
C607 C605 1.387 . S
C607 C609 1.390 . S
C607 H611 0.950 . S
H608 C604 0.950 . S
C609 C607 1.390 . S
C609 C610 1.387 . S
C609 H612 0.950 . S
C610 C609 1.387 . S
C610 C613 1.387 . S
H611 C607 0.950 . S
H612 C609 0.950 . S
C613 C604 1.390 . S
C613 H606 0.950 . S
C613 C610 1.387 . S
C614 C615 1.387 . S
C614 H618 0.950 . S
C614 C623 1.390 . S
C615 C614 1.387 . S
C615 C617 1.387 . S
H616 C623 0.950 . S
C617 C615 1.387 . S
C617 C619 1.390 . S
C617 H621 0.950 . S
H618 C614 0.950 . S
C619 C617 1.390 . S
C619 C620 1.387 . S
C619 H622 0.950 . S
C620 C619 1.387 . S
C620 C623 1.387 . S
H621 C617 0.950 . S
H622 C619 0.950 . S
C623 C614 1.390 . S
C623 H616 0.950 . S
C623 C620 1.387 . S
C624 C625 1.387 . S
C624 H628 0.950 . S
C624 C633 1.390 . S
C625 C624 1.387 . S
C625 C627 1.387 . S
H626 C633 0.950 . S
C627 C625 1.387 . S
C627 C629 1.390 . S
C627 H631 0.950 . S
H628 C624 0.950 . S
C629 C627 1.390 . S
C629 C630 1.387 . S
C629 H632 0.950 . S
C630 C629 1.387 . S
C630 C633 1.387 . S
H631 C627 0.950 . S
H632 C629 0.950 . S
C633 C624 1.390 . S
C633 H626 0.950 . S
C633 C630 1.387 . S
C634 C635 1.387 . S
C634 H638 0.950 . S
C634 C643 1.390 . S
C635 C634 1.387 . S
C635 C637 1.387 . S
H636 C643 0.950 . S
C637 C635 1.387 . S
C637 C639 1.390 . S
C637 H641 0.950 . S
H638 C634 0.950 . S
C639 C637 1.390 . S
C639 C640 1.387 . S
C639 H642 0.950 . S
C640 C639 1.387 . S
C640 C643 1.387 . S
H641 C637 0.950 . S
H642 C639 0.950 . S
C643 C634 1.390 . S
C643 H636 0.950 . S
C643 C640 1.387 . S
C644 C645 1.387 . S
C644 H648 0.950 . S
C644 C653 1.390 . S
C645 C644 1.387 . S
C645 C647 1.387 . S
H646 C653 0.950 . S
C647 C645 1.387 . S
C647 C649 1.390 . S
C647 H651 0.950 . S
H648 C644 0.950 . S
C649 C647 1.390 . S
C649 C650 1.387 . S
C649 H652 0.950 . S
C650 C649 1.387 . S
C650 C653 1.387 . S
H651 C647 0.950 . S
H652 C649 0.950 . S
C653 C644 1.390 . S
C653 H646 0.950 . S
C653 C650 1.387 . S
C654 C655 1.387 . S
C654 H658 0.950 . S
C654 C663 1.390 . S
C655 C654 1.387 . S
C655 C657 1.387 . S
H656 C663 0.950 . S
C657 C655 1.387 . S
C657 C659 1.390 . S
C657 H661 0.950 . S
H658 C654 0.950 . S
C659 C657 1.390 . S
C659 C660 1.387 . S
C659 H662 0.950 . S
C660 C659 1.387 . S
C660 C663 1.387 . S
H661 C657 0.950 . S
H662 C659 0.950 . S
C663 C654 1.390 . S
C663 H656 0.950 . S
C663 C660 1.387 . S
C664 C665 1.387 . S
C664 H668 0.950 . S
C664 C673 1.390 . S
C665 C664 1.387 . S
C665 C667 1.387 . S
H666 C673 0.950 . S
C667 C665 1.387 . S
C667 C669 1.390 . S
C667 H671 0.950 . S
H668 C664 0.950 . S
C669 C667 1.390 . S
C669 C670 1.387 . S
C669 H672 0.950 . S
C670 C669 1.387 . S
C670 C673 1.387 . S
H671 C667 0.950 . S
H672 C669 0.950 . S
C673 C664 1.390 . S
C673 H666 0.950 . S
C673 C670 1.387 . S
C674 C675 1.387 . S
C674 H678 0.950 . S
C674 C683 1.390 . S
C675 C674 1.387 . S
C675 C677 1.387 . S
H676 C683 0.950 . S
C677 C675 1.387 . S
C677 C679 1.390 . S
C677 H681 0.950 . S
H678 C674 0.950 . S
C679 C677 1.390 . S
C679 C680 1.387 . S
C679 H682 0.950 . S
C680 C679 1.387 . S
C680 C683 1.387 . S
H681 C677 0.950 . S
H682 C679 0.950 . S
C683 C674 1.390 . S
C683 H676 0.950 . S
C683 C680 1.387 . S
C684 C685 1.387 . S
C684 H688 0.950 . S
C684 C693 1.390 . S
C685 C684 1.387 . S
C685 C687 1.387 . S
H686 C693 0.950 . S
C687 C685 1.387 . S
C687 C689 1.390 . S
C687 H691 0.950 . S
H688 C684 0.950 . S
C689 C687 1.390 . S
C689 C690 1.387 . S
C689 H692 0.950 . S
C690 C689 1.387 . S
C690 C693 1.387 . S
H691 C687 0.950 . S
H692 C689 0.950 . S
C693 C684 1.390 . S
C693 H686 0.950 . S
C693 C690 1.387 . S
C694 C695 1.387 . S
C694 H698 0.950 . S
C694 C703 1.390 . S
C695 C694 1.387 . S
C695 C697 1.387 . S
H696 C703 0.950 . S
C697 C695 1.387 . S
C697 C699 1.390 . S
C697 H701 0.950 . S
H698 C694 0.950 . S
C699 C697 1.390 . S
C699 C700 1.387 . S
C699 H702 0.950 . S
C700 C699 1.387 . S
C700 C703 1.387 . S
H701 C697 0.950 . S
H702 C699 0.950 . S
C703 C694 1.390 . S
C703 H696 0.950 . S
C703 C700 1.387 . S
C704 C705 1.387 . S
C704 H708 0.950 . S
C704 C713 1.390 . S
C705 C704 1.387 . S
C705 C707 1.387 . S
H706 C713 0.950 . S
C707 C705 1.387 . S
C707 C709 1.390 . S
C707 H711 0.950 . S
H708 C704 0.950 . S
C709 C707 1.390 . S
C709 C710 1.387 . S
C709 H712 0.950 . S
C710 C709 1.387 . S
C710 C713 1.387 . S
H711 C707 0.950 . S
H712 C709 0.950 . S
C713 C704 1.390 . S
C713 H706 0.950 . S
C713 C710 1.387 . S
C714 C715 1.387 . S
C714 H718 0.950 . S
C714 C723 1.390 . S
C715 C714 1.387 . S
C715 C717 1.387 . S
H716 C723 0.950 . S
C717 C715 1.387 . S
C717 C719 1.390 . S
C717 H721 0.950 . S
H718 C714 0.950 . S
C719 C717 1.390 . S
C719 C720 1.387 . S
C719 H722 0.950 . S
C720 C719 1.387 . S
C720 C723 1.387 . S
H721 C717 0.950 . S
H722 C719 0.950 . S
C723 C714 1.390 . S
C723 H716 0.950 . S
C723 C720 1.387 . S
C724 C725 1.387 . S
C724 H728 0.950 . S
C724 C733 1.390 . S
C725 C724 1.387 . S
C725 C727 1.387 . S
H726 C733 0.950 . S
C727 C725 1.387 . S
C727 C729 1.390 . S
C727 H731 0.950 . S
H728 C724 0.950 . S
C729 C727 1.390 . S
C729 C730 1.387 . S
C729 H732 0.950 . S
C730 C729 1.387 . S
C730 C733 1.387 . S
H731 C727 0.950 . S
H732 C729 0.950 . S
C733 C724 1.390 . S
C733 H726 0.950 . S
C733 C730 1.387 . S
C734 C735 1.387 . S
C734 H738 0.950 . S
C734 C743 1.390 . S
C735 C734 1.387 . S
C735 C737 1.387 . S
H736 C743 0.950 . S
C737 C735 1.387 . S
C737 C739 1.390 . S
C737 H741 0.950 . S
H738 C734 0.950 . S
C739 C737 1.390 . S
C739 C740 1.387 . S
C739 H742 0.950 . S
C740 C739 1.387 . S
C740 C743 1.387 . S
H741 C737 0.950 . S
H742 C739 0.950 . S
C743 C734 1.390 . S
C743 H736 0.950 . S
C743 C740 1.387 . S
C744 C745 1.387 . S
C744 H748 0.950 . S
C744 C753 1.390 . S
C745 C744 1.387 . S
C745 C747 1.387 . S
H746 C753 0.950 . S
C747 C745 1.387 . S
C747 C749 1.390 . S
C747 H751 0.950 . S
H748 C744 0.950 . S
C749 C747 1.390 . S
C749 C750 1.387 . S
C749 H752 0.950 . S
C750 C749 1.387 . S
C750 C753 1.387 . S
H751 C747 0.950 . S
H752 C749 0.950 . S
C753 C744 1.390 . S
C753 H746 0.950 . S
C753 C750 1.387 . S
C754 C755 1.387 . S
C754 H758 0.950 . S
C754 C763 1.390 . S
C755 C754 1.387 . S
C755 C757 1.387 . S
H756 C763 0.950 . S
C757 C755 1.387 . S
C757 C759 1.390 . S
C757 H761 0.950 . S
H758 C754 0.950 . S
C759 C757 1.390 . S
C759 C760 1.387 . S
C759 H762 0.950 . S
C760 C759 1.387 . S
C760 C763 1.387 . S
H761 C757 0.950 . S
H762 C759 0.950 . S
C763 C754 1.390 . S
C763 H756 0.950 . S
C763 C760 1.387 . S
C764 C765 1.387 . S
C764 H768 0.950 . S
C764 C773 1.390 . S
C765 C764 1.387 . S
C765 C767 1.387 . S
H766 C773 0.950 . S
C767 C765 1.387 . S
C767 C769 1.390 . S
C767 H771 0.950 . S
H768 C764 0.950 . S
C769 C767 1.390 . S
C769 C770 1.387 . S
C769 H772 0.950 . S
C770 C769 1.387 . S
C770 C773 1.387 . S
H771 C767 0.950 . S
H772 C769 0.950 . S
C773 C764 1.390 . S
C773 H766 0.950 . S
C773 C770 1.387 . S
C774 C775 1.387 . S
C774 H778 0.950 . S
C774 C783 1.390 . S
C775 C774 1.387 . S
C775 C777 1.387 . S
H776 C783 0.950 . S
C777 C775 1.387 . S
C777 C779 1.390 . S
C777 H781 0.950 . S
H778 C774 0.950 . S
C779 C777 1.390 . S
C779 C780 1.387 . S
C779 H782 0.950 . S
C780 C779 1.387 . S
C780 C783 1.387 . S
H781 C777 0.950 . S
H782 C779 0.950 . S
C783 C774 1.390 . S
C783 H776 0.950 . S
C783 C780 1.387 . S
C784 C785 1.387 . S
C784 H788 0.950 . S
C784 C793 1.390 . S
C785 C784 1.387 . S
C785 C787 1.387 . S
H786 C793 0.950 . S
C787 C785 1.387 . S
C787 C789 1.390 . S
C787 H791 0.950 . S
H788 C784 0.950 . S
C789 C787 1.390 . S
C789 C790 1.387 . S
C789 H792 0.950 . S
C790 C789 1.387 . S
C790 C793 1.387 . S
H791 C787 0.950 . S
H792 C789 0.950 . S
C793 C784 1.390 . S
C793 H786 0.950 . S
C793 C790 1.387 . S
C794 C795 1.387 . S
C794 H798 0.950 . S
C794 C803 1.390 . S
C795 C794 1.387 . S
C795 C797 1.387 . S
H796 C803 0.950 . S
C797 C795 1.387 . S
C797 C799 1.390 . S
C797 H801 0.950 . S
H798 C794 0.950 . S
C799 C797 1.390 . S
C799 C800 1.387 . S
C799 H802 0.950 . S
C800 C799 1.387 . S
C800 C803 1.387 . S
H801 C797 0.950 . S
H802 C799 0.950 . S
C803 C794 1.390 . S
C803 H796 0.950 . S
C803 C800 1.387 . S
C804 C805 1.387 . S
C804 H808 0.950 . S
C804 C813 1.390 . S
C805 C804 1.387 . S
C805 C807 1.387 . S
H806 C813 0.950 . S
C807 C805 1.387 . S
C807 C809 1.390 . S
C807 H811 0.950 . S
H808 C804 0.950 . S
C809 C807 1.390 . S
C809 C810 1.387 . S
C809 H812 0.950 . S
C810 C809 1.387 . S
C810 C813 1.387 . S
H811 C807 0.950 . S
H812 C809 0.950 . S
C813 C804 1.390 . S
C813 H806 0.950 . S
C813 C810 1.387 . S
C814 C815 1.387 . S
C814 H818 0.950 . S
C814 C823 1.390 . S
C815 C814 1.387 . S
C815 C817 1.387 . S
H816 C823 0.950 . S
C817 C815 1.387 . S
C817 C819 1.390 . S
C817 H821 0.950 . S
H818 C814 0.950 . S
C819 C817 1.390 . S
C819 C820 1.387 . S
C819 H822 0.950 . S
C820 C819 1.387 . S
C820 C823 1.387 . S
H821 C817 0.950 . S
H822 C819 0.950 . S
C823 C814 1.390 . S
C823 H816 0.950 . S
C823 C820 1.387 . S
C824 C825 1.387 . S
C824 H828 0.950 . S
C824 C833 1.390 . S
C825 C824 1.387 . S
C825 C827 1.387 . S
H826 C833 0.950 . S
C827 C825 1.387 . S
C827 C829 1.390 . S
C827 H831 0.950 . S
H828 C824 0.950 . S
C829 C827 1.390 . S
C829 C830 1.387 . S
C829 H832 0.950 . S
C830 C829 1.387 . S
C830 C833 1.387 . S
H831 C827 0.950 . S
H832 C829 0.950 . S
C833 C824 1.390 . S
C833 H826 0.950 . S
C833 C830 1.387 . S
C834 C835 1.387 . S
C834 H838 0.950 . S
C834 C843 1.390 . S
C835 C834 1.387 . S
C835 C837 1.387 . S
H836 C843 0.950 . S
C837 C835 1.387 . S
C837 C839 1.390 . S
C837 H841 0.950 . S
H838 C834 0.950 . S
C839 C837 1.390 . S
C839 C840 1.387 . S
C839 H842 0.950 . S
C840 C839 1.387 . S
C840 C843 1.387 . S
H841 C837 0.950 . S
H842 C839 0.950 . S
C843 C834 1.390 . S
C843 H836 0.950 . S
C843 C840 1.387 . S
C844 C845 1.387 . S
C844 H848 0.950 . S
C844 C853 1.390 . S
C845 C844 1.387 . S
C845 C847 1.387 . S
H846 C853 0.950 . S
C847 C845 1.387 . S
C847 C849 1.390 . S
C847 H851 0.950 . S
H848 C844 0.950 . S
C849 C847 1.390 . S
C849 C850 1.387 . S
C849 H852 0.950 . S
C850 C849 1.387 . S
C850 C853 1.387 . S
H851 C847 0.950 . S
H852 C849 0.950 . S
C853 C844 1.390 . S
C853 H846 0.950 . S
C853 C850 1.387 . S
C854 C855 1.387 . S
C854 H858 0.950 . S
C854 C863 1.390 . S
C855 C854 1.387 . S
C855 C857 1.387 . S
H856 C863 0.950 . S
C857 C855 1.387 . S
C857 C859 1.390 . S
C857 H861 0.950 . S
H858 C854 0.950 . S
C859 C857 1.390 . S
C859 C860 1.387 . S
C859 H862 0.950 . S
C860 C859 1.387 . S
C860 C863 1.387 . S
H861 C857 0.950 . S
H862 C859 0.950 . S
C863 C854 1.390 . S
C863 H856 0.950 . S
C863 C860 1.387 . S
C864 C865 1.387 . S
C864 H868 0.950 . S
C864 C873 1.390 . S
C865 C864 1.387 . S
C865 C867 1.387 . S
H866 C873 0.950 . S
C867 C865 1.387 . S
C867 C869 1.390 . S
C867 H871 0.950 . S
H868 C864 0.950 . S
C869 C867 1.390 . S
C869 C870 1.387 . S
C869 H872 0.950 . S
C870 C869 1.387 . S
C870 C873 1.387 . S
H871 C867 0.950 . S
H872 C869 0.950 . S
C873 C864 1.390 . S
C873 H866 0.950 . S
C873 C870 1.387 . S
C874 C875 1.387 . S
C874 H878 0.950 . S
C874 C883 1.390 . S
C875 C874 1.387 . S
C875 C877 1.387 . S
H876 C883 0.950 . S
C877 C875 1.387 . S
C877 C879 1.390 . S
C877 H881 0.950 . S
H878 C874 0.950 . S
C879 C877 1.390 . S
C879 C880 1.387 . S
C879 H882 0.950 . S
C880 C879 1.387 . S
C880 C883 1.387 . S
H881 C877 0.950 . S
H882 C879 0.950 . S
C883 C874 1.390 . S
C883 H876 0.950 . S
C883 C880 1.387 . S
C884 C885 1.387 . S
C884 H888 0.950 . S
C884 C893 1.390 . S
C885 C884 1.387 . S
C885 C887 1.387 . S
H886 C893 0.950 . S
C887 C885 1.387 . S
C887 C889 1.390 . S
C887 H891 0.950 . S
H888 C884 0.950 . S
C889 C887 1.390 . S
C889 C890 1.387 . S
C889 H892 0.950 . S
C890 C889 1.387 . S
C890 C893 1.387 . S
H891 C887 0.950 . S
H892 C889 0.950 . S
C893 C884 1.390 . S
C893 H886 0.950 . S
C893 C890 1.387 . S
C894 C895 1.387 . S
C894 H898 0.950 . S
C894 C903 1.390 . S
C895 C894 1.387 . S
C895 C897 1.387 . S
H896 C903 0.950 . S
C897 C895 1.387 . S
C897 C899 1.390 . S
C897 H901 0.950 . S
H898 C894 0.950 . S
C899 C897 1.390 . S
C899 C900 1.387 . S
C899 H902 0.950 . S
C900 C899 1.387 . S
C900 C903 1.387 . S
H901 C897 0.950 . S
H902 C899 0.950 . S
C903 C894 1.390 . S
C903 H896 0.950 . S
C903 C900 1.387 . S
C904 C905 1.387 . S
C904 H908 0.950 . S
C904 C913 1.390 . S
C905 C904 1.387 . S
C905 C907 1.387 . S
H906 C913 0.950 . S
C907 C905 1.387 . S
C907 C909 1.390 . S
C907 H911 0.950 . S
H908 C904 0.950 . S
C909 C907 1.390 . S
C909 C910 1.387 . S
C909 H912 0.950 . S
C910 C909 1.387 . S
C910 C913 1.387 . S
H911 C907 0.950 . S
H912 C909 0.950 . S
C913 C904 1.390 . S
C913 H906 0.950 . S
C913 C910 1.387 . S
C914 C915 1.387 . S
C914 H918 0.950 . S
C914 C923 1.390 . S
C915 C914 1.387 . S
C915 C917 1.387 . S
H916 C923 0.950 . S
C917 C915 1.387 . S
C917 C919 1.390 . S
C917 H921 0.950 . S
H918 C914 0.950 . S
C919 C917 1.390 . S
C919 C920 1.387 . S
C919 H922 0.950 . S
C920 C919 1.387 . S
C920 C923 1.387 . S
H921 C917 0.950 . S
H922 C919 0.950 . S
C923 C914 1.390 . S
C923 H916 0.950 . S
C923 C920 1.387 . S
C924 C925 1.387 . S
C924 H928 0.950 . S
C924 C933 1.390 . S
C925 C924 1.387 . S
C925 C927 1.387 . S
H926 C933 0.950 . S
C927 C925 1.387 . S
C927 C929 1.390 . S
C927 H931 0.950 . S
H928 C924 0.950 . S
C929 C927 1.390 . S
C929 C930 1.387 . S
C929 H932 0.950 . S
C930 C929 1.387 . S
C930 C933 1.387 . S
H931 C927 0.950 . S
H932 C929 0.950 . S
C933 C924 1.390 . S
C933 H926 0.950 . S
C933 C930 1.387 . S
C934 C935 1.387 . S
C934 H938 0.950 . S
C934 C943 1.390 . S
C935 C934 1.387 . S
C935 C937 1.387 . S
H936 C943 0.950 . S
C937 C935 1.387 . S
C937 C939 1.390 . S
C937 H941 0.950 . S
H938 C934 0.950 . S
C939 C937 1.390 . S
C939 C940 1.387 . S
C939 H942 0.950 . S
C940 C939 1.387 . S
C940 C943 1.387 . S
H941 C937 0.950 . S
H942 C939 0.950 . S
C943 C934 1.390 . S
C943 H936 0.950 . S
C943 C940 1.387 . S
C944 C945 1.387 . S
C944 H948 0.950 . S
C944 C953 1.390 . S
C945 C944 1.387 . S
C945 C947 1.387 . S
H946 C953 0.950 . S
C947 C945 1.387 . S
C947 C949 1.390 . S
C947 H951 0.950 . S
H948 C944 0.950 . S
C949 C947 1.390 . S
C949 C950 1.387 . S
C949 H952 0.950 . S
C950 C949 1.387 . S
C950 C953 1.387 . S
H951 C947 0.950 . S
H952 C949 0.950 . S
C953 C944 1.390 . S
C953 H946 0.950 . S
C953 C950 1.387 . S
C954 C955 1.387 . S
C954 H958 0.950 . S
C954 C963 1.390 . S
C955 C954 1.387 . S
C955 C957 1.387 . S
H956 C963 0.950 . S
C957 C955 1.387 . S
C957 C959 1.390 . S
C957 H961 0.950 . S
H958 C954 0.950 . S
C959 C957 1.390 . S
C959 C960 1.387 . S
C959 H962 0.950 . S
C960 C959 1.387 . S
C960 C963 1.387 . S
H961 C957 0.950 . S
H962 C959 0.950 . S
C963 C954 1.390 . S
C963 H956 0.950 . S
C963 C960 1.387 . S
C490 C195 1.682 . S
C485 C9 1.657 . S
C500 C173 2.075 . S
C495 C28 2.126 . S
C510 C170 0.871 . S
C505 C49 0.862 . S
C515 C79 2.131 . S
C520 C182 2.092 . S
C525 C99 2.123 . S
C530 C165 2.068 . S
C540 C187 0.872 . S
C535 C101 0.867 . S
C545 C128 2.136 . S
C550 C192 2.100 . S
C555 C141 1.657 . S
C560 C188 1.683 . S
C570 C246 1.371 . S
C565 C16 1.387 . S
C575 C26 1.154 . S
C580 C296 1.234 . S
C590 C219 1.336 . S
C585 C56 1.357 . S
C600 C295 0.962 . S
C595 C69 0.926 . S
C605 C89 0.930 . S
C610 C224 0.978 . S
C620 C290 2.072 . S
C615 C108 2.092 . S
C625 C126 1.170 . S
C630 C249 1.273 . S
C635 C148 2.110 . S
C640 C281 2.082 . S
C645 C19 2.111 . S
C650 C273 2.080 . S
C655 C96 1.156 . S
C660 C303 1.236 . S
C670 C227 1.353 . S
C665 C106 1.368 . S
C680 C278 0.970 . S
C675 C121 0.929 . S
C685 C146 1.389 . S
C690 C236 1.372 . S
C695 C59 2.103 . S
C700 C300 2.087 . S
C710 C242 1.274 . S
C705 C76 1.171 . S
C715 C21 0.937 . S
C720 C241 0.985 . S
C725 C149 1.657 . S
C730 C357 1.681 . S
C735 C88 2.126 . S
C740 C335 2.075 . S
C750 C332 0.871 . S
C745 C109 0.866 . S
C760 C344 2.093 . S
C755 C139 2.132 . S
C765 C39 2.121 . S
C770 C327 2.070 . S
C780 C349 0.872 . S
C775 C41 0.863 . S
C785 C68 2.136 . S
C790 C354 2.100 . S
C795 C1 1.659 . S
C800 C350 1.684 . S
C805 C156 1.387 . S
C810 C408 1.371 . S
C820 C458 1.232 . S
C815 C86 1.154 . S
C825 C116 1.356 . S
C830 C381 1.335 . S
C835 C129 0.925 . S
C840 C457 0.962 . S
C850 C386 0.979 . S
C845 C29 0.931 . S
C855 C48 2.092 . S
C860 C452 2.073 . S
C870 C411 1.273 . S
C865 C66 1.167 . S
C880 C443 2.083 . S
C875 C8 2.111 . S
C890 C435 2.081 . S
C885 C159 2.112 . S
C895 C36 1.161 . S
C900 C465 1.237 . S
C905 C46 1.367 . S
C910 C389 1.352 . S
C920 C440 0.970 . S
C915 C61 0.934 . S
C925 C6 1.390 . S
C930 C398 1.373 . S
C935 C119 2.104 . S
C940 C462 2.088 . S
C950 C404 1.275 . S
C945 C136 1.172 . S
C960 C403 0.984 . S
C955 C81 0.935 . S
