# Generated by pormake.
# Topology csq, (4,8)-cn, num edge types: 1
# Building blocks:
#     Node 0, Type 0, BuildingBlock: KOZSID_clean_sbu_0, # of connection points: 4
#     Node 1, Type 0, BuildingBlock: KOZSID_clean_sbu_0, # of connection points: 4
#     Node 2, Type 0, BuildingBlock: KOZSID_clean_sbu_0, # of connection points: 4
#     Node 3, Type 0, BuildingBlock: KOZSID_clean_sbu_0, # of connection points: 4
#     Node 4, Type 0, BuildingBlock: KOZSID_clean_sbu_0, # of connection points: 4
#     Node 5, Type 0, BuildingBlock: KOZSID_clean_sbu_0, # of connection points: 4
#     Node 6, Type 1, BuildingBlock: TAGTUT_clean_sbu_3, # of connection points: 8
#     Node 7, Type 1, BuildingBlock: TAGTUT_clean_sbu_3, # of connection points: 8
#     Node 8, Type 1, BuildingBlock: TAGTUT_clean_sbu_3, # of connection points: 8
#     Edge 9, Type (0, 1), BuildingBlock: CIFDUS_clean_linker_0, # of connection points: 2
#     Edge 10, Type (0, 1), BuildingBlock: CIFDUS_clean_linker_0, # of connection points: 2
#     Edge 11, Type (0, 1), BuildingBlock: CIFDUS_clean_linker_0, # of connection points: 2
#     Edge 12, Type (0, 1), BuildingBlock: CIFDUS_clean_linker_0, # of connection points: 2
#     Edge 13, Type (0, 1), BuildingBlock: CIFDUS_clean_linker_0, # of connection points: 2
#     Edge 14, Type (0, 1), BuildingBlock: CIFDUS_clean_linker_0, # of connection points: 2
#     Edge 15, Type (0, 1), BuildingBlock: CIFDUS_clean_linker_0, # of connection points: 2
#     Edge 16, Type (0, 1), BuildingBlock: CIFDUS_clean_linker_0, # of connection points: 2
#     Edge 17, Type (0, 1), BuildingBlock: CIFDUS_clean_linker_0, # of connection points: 2
#     Edge 18, Type (0, 1), BuildingBlock: CIFDUS_clean_linker_0, # of connection points: 2
#     Edge 19, Type (0, 1), BuildingBlock: CIFDUS_clean_linker_0, # of connection points: 2
#     Edge 20, Type (0, 1), BuildingBlock: CIFDUS_clean_linker_0, # of connection points: 2
#     Edge 21, Type (0, 1), BuildingBlock: CIFDUS_clean_linker_0, # of connection points: 2
#     Edge 22, Type (0, 1), BuildingBlock: CIFDUS_clean_linker_0, # of connection points: 2
#     Edge 23, Type (0, 1), BuildingBlock: CIFDUS_clean_linker_0, # of connection points: 2
#     Edge 24, Type (0, 1), BuildingBlock: CIFDUS_clean_linker_0, # of connection points: 2
#     Edge 25, Type (0, 1), BuildingBlock: CIFDUS_clean_linker_0, # of connection points: 2
#     Edge 26, Type (0, 1), BuildingBlock: CIFDUS_clean_linker_0, # of connection points: 2
#     Edge 27, Type (0, 1), BuildingBlock: CIFDUS_clean_linker_0, # of connection points: 2
#     Edge 28, Type (0, 1), BuildingBlock: CIFDUS_clean_linker_0, # of connection points: 2
#     Edge 29, Type (0, 1), BuildingBlock: CIFDUS_clean_linker_0, # of connection points: 2
#     Edge 30, Type (0, 1), BuildingBlock: CIFDUS_clean_linker_0, # of connection points: 2
#     Edge 31, Type (0, 1), BuildingBlock: CIFDUS_clean_linker_0, # of connection points: 2
#     Edge 32, Type (0, 1), BuildingBlock: CIFDUS_clean_linker_0, # of connection points: 2
# Relax obj value: 0.033
# Max RMSD: 0.126
# Mean RMSD: 0.043
data_MOF--net-csq--node1-KOZSID_clean_sbu_0--node2-TAGTUT_clean_sbu_3--edge1-CIFDUS_clean_linker_0
_symmetry_space_group_name_H-M    P1
_symmetry_Int_Tables_number       1
_symmetry_cell_setting            triclinic
loop_
_symmetry_equiv_pos_as_xyz
'x, y, z'
_cell_length_a     51.127834
_cell_length_b     50.444964
_cell_length_c     18.218334
_cell_angle_alpha  87.378493
_cell_angle_beta   97.961279
_cell_angle_gamma 119.91877
loop_
_atom_site_label
_atom_site_type_symbol
_atom_site_fract_x
_atom_site_fract_y
_atom_site_fract_z
_atom_type_partial_charge
C0 C 0.30394 0.5302 0.29237 0.0
C1 C 0.3246 0.56132 0.29299 0.0
C2 C 0.31326 0.57336 0.23733 0.0
C3 C 0.28662 0.54896 0.20561 0.0
N4 N 0.27979 0.52219 0.23911 0.0
Co5 Co 0.2463 0.48017 0.20432 0.0
N6 N 0.23314 0.4967 0.11387 0.0
C7 C 0.24499 0.52631 0.09474 0.0
C8 C 0.22937 0.53057 0.03211 0.0
C9 C 0.20564 0.50205 0.01132 0.0
C10 C 0.2083 0.48209 0.06262 0.0
N11 N 0.21376 0.43797 0.16846 0.0
C12 C 0.1915 0.42923 0.1102 0.0
C13 C 0.17281 0.39773 0.10498 0.0
C14 C 0.18333 0.38611 0.16344 0.0
C15 C 0.20771 0.41115 0.20064 0.0
N16 N 0.25863 0.46364 0.29568 0.0
C17 C 0.24486 0.43449 0.31865 0.0
C18 C 0.25882 0.43061 0.38485 0.0
C19 C 0.28338 0.45883 0.404 0.0
C20 C 0.28302 0.4782 0.34775 0.0
N21 N 0.21688 0.48462 0.25773 0.0
C22 C 0.17459 0.49045 0.3327 0.0
C23 C 0.17341 0.46229 0.326 0.0
C24 C 0.19458 0.45997 0.28942 0.0
C25 C 0.19728 0.51557 0.29996 0.0
C26 C 0.21779 0.51215 0.26285 0.0
N27 N 0.27567 0.47586 0.1511 0.0
C28 C 0.29958 0.44718 0.12182 0.0
C29 C 0.31787 0.47034 0.07643 0.0
C30 C 0.31488 0.49642 0.06986 0.0
C31 C 0.29367 0.49857 0.10669 0.0
C32 C 0.27908 0.45053 0.159 0.0
H33 H 0.2922 0.51884 0.0982 0.0
H34 H 0.26623 0.43237 0.19399 0.0
H35 H 0.19224 0.43783 0.28727 0.0
H36 H 0.23419 0.53221 0.23879 0.0
C37 C 0.26964 0.54967 0.13915 0.0
C38 C 0.30879 0.50841 0.33904 0.0
C39 C 0.18487 0.45018 0.06553 0.0
C40 C 0.22204 0.41075 0.27156 0.0
H41 H 0.3462 0.57394 0.3277 0.0
H42 H 0.3241 0.59676 0.21925 0.0
H43 H 0.23394 0.55198 0.00648 0.0
H44 H 0.18762 0.49661 0.96566 0.0
H45 H 0.1527 0.38474 0.06543 0.0
H46 H 0.17316 0.36247 0.17965 0.0
H47 H 0.25307 0.40943 0.41313 0.0
H48 H 0.30083 0.46416 0.45103 0.0
H49 H 0.15598 0.44177 0.34823 0.0
H50 H 0.19965 0.53804 0.30364 0.0
H51 H 0.30124 0.42661 0.12907 0.0
H52 H 0.32831 0.51483 0.03474 0.0
C53 C 0.82264 0.27626 0.02333 0.0
C54 C 0.84967 0.27779 0.01145 0.0
C55 C 0.85419 0.25865 0.06061 0.0
C56 C 0.82993 0.24658 0.10005 0.0
N57 N 0.81016 0.25659 0.0781 0.0
Co58 Co 0.77359 0.24636 0.1254 0.0
N59 N 0.77327 0.21013 0.17346 0.0
C60 C 0.7966 0.20452 0.18357 0.0
C61 C 0.7886 0.17619 0.21187 0.0
C62 C 0.75841 0.16328 0.22011 0.0
C63 C 0.74969 0.18475 0.19748 0.0
N64 N 0.73747 0.23625 0.17388 0.0
C65 C 0.71736 0.20929 0.20084 0.0
C66 C 0.69526 0.21209 0.23062 0.0
C67 C 0.70171 0.24181 0.2207 0.0
C68 C 0.72742 0.25552 0.18602 0.0
N69 N 0.77353 0.28242 0.07699 0.0
C70 C 0.75859 0.29615 0.09651 0.0
C71 C 0.76258 0.32058 0.05338 0.0
C72 C 0.78161 0.32267 0.00449 0.0
C73 C 0.78852 0.29952 0.02107 0.0
N74 N 0.74714 0.22043 0.04062 0.0
C75 C 0.7018 0.17117 0.95152 0.0
C76 C 0.69638 0.19372 0.97633 0.0
C77 C 0.71964 0.21862 0.01894 0.0
C78 C 0.73153 0.1759 0.96574 0.0
C79 C 0.75371 0.20039 0.01119 0.0
N80 N 0.79986 0.27193 0.21136 0.0
C81 C 0.84358 0.31847 0.26123 0.0
C82 C 0.83831 0.3085 0.33337 0.0
C83 C 0.81309 0.28008 0.3437 0.0
C84 C 0.79422 0.26196 0.2817 0.0
C85 C 0.8241 0.29997 0.20122 0.0
H86 H 0.77515 0.23985 0.29061 0.0
H87 H 0.82882 0.30844 0.14658 0.0
H88 H 0.71459 0.23507 0.03927 0.0
H89 H 0.77553 0.20189 0.02632 0.0
C90 C 0.82286 0.22293 0.1505 0.0
C91 C 0.81183 0.29661 0.98837 0.0
C92 C 0.71953 0.18129 0.2017 0.0
C93 C 0.73844 0.28339 0.14961 0.0
H94 H 0.86507 0.2919 0.97285 0.0
H95 H 0.87271 0.25377 0.06605 0.0
H96 H 0.80242 0.16533 0.22063 0.0
H97 H 0.7445 0.14043 0.23908 0.0
H98 H 0.67632 0.19448 0.25609 0.0
H99 H 0.68825 0.25167 0.23345 0.0
H100 H 0.75244 0.33485 0.05615 0.0
H101 H 0.78996 0.33975 0.96259 0.0
H102 H 0.67405 0.19159 0.96685 0.0
H103 H 0.7375 0.16017 0.9447 0.0
H104 H 0.86261 0.34062 0.2512 0.0
H105 H 0.80835 0.27179 0.39891 0.0
C106 C 0.56867 0.74056 0.14148 0.0
C107 C 0.59629 0.74339 0.17313 0.0
C108 C 0.61862 0.77043 0.1503 0.0
C109 C 0.60352 0.78253 0.10581 0.0
N110 N 0.57286 0.76452 0.0974 0.0
Co111 Co 0.54236 0.77439 0.04045 0.0
N112 N 0.57514 0.81517 0.01074 0.0
C113 C 0.60553 0.82621 0.02498 0.0
C114 C 0.62246 0.85429 0.99551 0.0
C115 C 0.60166 0.86156 0.95974 0.0
C116 C 0.57312 0.83747 0.96976 0.0
N117 N 0.51171 0.78486 0.98699 0.0
C118 C 0.51559 0.81034 0.95021 0.0
C119 C 0.48787 0.80835 0.92323 0.0
C120 C 0.46573 0.78061 0.94307 0.0
C121 C 0.48108 0.76737 0.98125 0.0
N122 N 0.50956 0.73302 0.06712 0.0
C123 C 0.47932 0.7205 0.04481 0.0
C124 C 0.46205 0.69262 0.07436 0.0
C125 C 0.48236 0.68698 0.11873 0.0
C126 C 0.51117 0.71174 0.11317 0.0
N127 N 0.54126 0.79261 0.13297 0.0
C128 C 0.5409 0.81714 0.26838 0.0
C129 C 0.51417 0.79326 0.23084 0.0
C130 C 0.51478 0.78175 0.16321 0.0
C131 C 0.5678 0.82809 0.2371 0.0
C132 C 0.56751 0.81549 0.17047 0.0
N133 N 0.54374 0.756 0.94808 0.0
C134 C 0.51823 0.72453 0.83667 0.0
C135 C 0.54451 0.72373 0.82712 0.0
C136 C 0.57105 0.74172 0.8752 0.0
C137 C 0.5702 0.75773 0.9342 0.0
C138 C 0.51828 0.74051 0.89734 0.0
H139 H 0.59111 0.77034 0.96919 0.0
H140 H 0.49719 0.73912 0.90313 0.0
H141 H 0.49354 0.76415 0.13626 0.0
H142 H 0.58884 0.8249 0.15015 0.0
C143 C 0.6174 0.81052 0.07033 0.0
C144 C 0.53913 0.71489 0.15591 0.0
C145 C 0.54485 0.83684 0.93893 0.0
C146 C 0.46747 0.73765 0.0071 0.0
H147 H 0.59997 0.72765 0.2095 0.0
H148 H 0.64298 0.78022 0.16486 0.0
H149 H 0.64702 0.868 1.00018 0.0
H150 H 0.60686 0.88227 0.92972 0.0
H151 H 0.48402 0.82509 0.89177 0.0
H152 H 0.44134 0.771 0.93 0.0
H153 H 0.43746 0.67892 0.06818 0.0
H154 H 0.47621 0.66737 0.15353 0.0
H155 H 0.4927 0.78371 0.25271 0.0
H156 H 0.58903 0.8471 0.26231 0.0
H157 H 0.49723 0.71166 0.79965 0.0
H158 H 0.59207 0.74197 0.87073 0.0
C159 C 0.84319 0.57077 0.15827 0.0
C160 C 0.86778 0.60032 0.17065 0.0
C161 C 0.85898 0.61953 0.13546 0.0
C162 C 0.82992 0.60087 0.10221 0.0
N163 N 0.81921 0.57081 0.11567 0.0
Co164 Co 0.78041 0.53541 0.06673 0.0
N165 N 0.77151 0.56317 0.99864 0.0
C166 C 0.78851 0.59399 0.99683 0.0
C167 C 0.77585 0.60713 0.9477 0.0
C168 C 0.7489 0.58335 0.91676 0.0
C169 C 0.74674 0.55687 0.94862 0.0
N170 N 0.74156 0.49997 0.01817 0.0
C171 C 0.71957 0.49961 0.9663 0.0
C172 C 0.69567 0.47007 0.94983 0.0
C173 C 0.70243 0.45113 0.99398 0.0
C174 C 0.73 0.47007 0.03453 0.0
N175 N 0.7896 0.50769 0.13393 0.0
C176 C 0.772 0.47704 0.13879 0.0
C177 C 0.78513 0.46412 0.18735 0.0
C178 C 0.81325 0.48775 0.21304 0.0
C179 C 0.81574 0.51377 0.17786 0.0
N180 N 0.75706 0.53977 0.13979 0.0
C181 C 0.7158 0.54348 0.22064 0.0
C182 C 0.71493 0.51575 0.2114 0.0
C183 C 0.73578 0.51449 0.17193 0.0
C184 C 0.73929 0.56983 0.19448 0.0
C185 C 0.75963 0.56748 0.15463 0.0
N186 N 0.80378 0.53102 0.99458 0.0
C187 C 0.82068 0.50004 0.94129 0.0
C188 C 0.84666 0.52618 0.9222 0.0
C189 C 0.84922 0.55464 0.93495 0.0
C190 C 0.82729 0.5564 0.96887 0.0
C191 C 0.79976 0.50296 0.97731 0.0
H192 H 0.83059 0.57872 0.97695 0.0
H193 H 0.78107 0.48227 0.99292 0.0
H194 H 0.73342 0.49255 0.16608 0.0
H195 H 0.77648 0.58825 0.13433 0.0
C196 C 0.81501 0.61021 0.04625 0.0
C197 C 0.84414 0.54312 0.18293 0.0
C198 C 0.71997 0.52658 0.9325 0.0
C199 C 0.74488 0.46068 0.09087 0.0
H200 H 0.89051 0.60758 0.198 0.0
H201 H 0.8731 0.64393 0.1292 0.0
H202 H 0.78461 0.63124 0.93772 0.0
H203 H 0.73231 0.58552 0.87705 0.0
H204 H 0.6752 0.46301 0.91087 0.0
H205 H 0.68856 0.42656 0.99738 0.0
H206 H 0.77603 0.44014 0.19953 0.0
H207 H 0.83049 0.48579 0.25073 0.0
H208 H 0.69756 0.49484 0.23266 0.0
H209 H 0.74103 0.59191 0.20129 0.0
H210 H 0.81662 0.47733 0.92993 0.0
H211 H 0.86861 0.57585 0.9218 0.0
C212 C 0.27577 0.83561 0.18061 0.0
C213 C 0.27058 0.85743 0.20903 0.0
C214 C 0.24102 0.84927 0.18436 0.0
C215 C 0.22963 0.82278 0.1434 0.0
N216 N 0.25008 0.81335 0.14113 0.0
Co217 Co 0.2423 0.77481 0.09255 0.0
N218 N 0.20039 0.76527 0.04625 0.0
C219 C 0.1868 0.782 0.05343 0.0
C220 C 0.15886 0.77088 0.01138 0.0
C221 C 0.15449 0.74578 0.97425 0.0
C222 C 0.18004 0.74291 0.9963 0.0
N223 N 0.23431 0.73586 0.04573 0.0
C224 C 0.21024 0.71555 0.99846 0.0
C225 C 0.21342 0.69079 0.98156 0.0
C226 C 0.2407 0.69596 0.01826 0.0
C227 C 0.25246 0.72328 0.05576 0.0
N228 N 0.28476 0.78508 0.13529 0.0
C229 C 0.29813 0.76816 0.12797 0.0
C230 C 0.32864 0.78277 0.1527 0.0
C231 C 0.33535 0.81085 0.17698 0.0
C232 C 0.30819 0.81152 0.1675 0.0
N233 N 0.22594 0.75213 0.18339 0.0
C234 C 0.20261 0.7215 0.31337 0.0
C235 C 0.22694 0.72089 0.28813 0.0
C236 C 0.23823 0.73632 0.22366 0.0
C237 C 0.19021 0.73753 0.27221 0.0
C238 C 0.20199 0.75238 0.20849 0.0
N239 N 0.2584 0.79754 0.00321 0.0
C240 C 0.29119 0.81067 0.90836 0.0
C241 C 0.2852 0.83413 0.88437 0.0
C242 C 0.26433 0.83777 0.91848 0.0
C243 C 0.25145 0.81951 0.97744 0.0
C244 C 0.27745 0.79259 0.96724 0.0
H245 H 0.23642 0.82407 0.00244 0.0
H246 H 0.28305 0.77524 0.98419 0.0
H247 H 0.25684 0.73503 0.20768 0.0
H248 H 0.19091 0.76364 0.18063 0.0
C249 C 0.20098 0.80799 0.10048 0.0
C250 C 0.30567 0.83755 0.19043 0.0
C251 C 0.18407 0.71877 0.96771 0.0
C252 C 0.28192 0.73943 0.09284 0.0
H253 H 0.28659 0.87752 0.24302 0.0
H254 H 0.22947 0.86165 0.19349 0.0
H255 H 0.14363 0.78012 0.00755 0.0
H256 H 0.13484 0.73134 0.93492 0.0
H257 H 0.1979 0.67119 0.94556 0.0
H258 H 0.25118 0.68199 0.01582 0.0
H259 H 0.34436 0.77443 0.15069 0.0
H260 H 0.35795 0.82886 0.19782 0.0
H261 H 0.23732 0.70867 0.31797 0.0
H262 H 0.17077 0.73803 0.28781 0.0
H263 H 0.30731 0.807 0.88397 0.0
H264 H 0.25837 0.85511 0.90086 0.0
C265 C 0.51332 0.21593 0.28093 0.0
C266 C 0.54116 0.22044 0.31649 0.0
C267 C 0.56316 0.24613 0.28822 0.0
C268 C 0.54768 0.25578 0.23697 0.0
N269 N 0.51703 0.23779 0.23053 0.0
Co270 Co 0.486 0.24353 0.16195 0.0
N271 N 0.51857 0.28135 0.12051 0.0
C272 C 0.54905 0.2936 0.13794 0.0
C273 C 0.56575 0.31901 0.09875 0.0
C274 C 0.54472 0.32347 0.05383 0.0
C275 C 0.51627 0.30056 0.0688 0.0
N276 N 0.45498 0.24957 0.09403 0.0
C277 C 0.45867 0.27239 0.04658 0.0
C278 C 0.43084 0.26841 0.01261 0.0
C279 C 0.40884 0.24212 0.03899 0.0
C280 C 0.42433 0.23166 0.08778 0.0
N281 N 0.45344 0.20552 0.20289 0.0
C282 C 0.42299 0.19253 0.18312 0.0
C283 C 0.40629 0.16682 0.22145 0.0
C284 C 0.42729 0.163 0.26841 0.0
C285 C 0.45573 0.18665 0.25571 0.0
N286 N 0.48445 0.26867 0.24016 0.0
C287 C 0.4823 0.30556 0.34826 0.0
C288 C 0.4556 0.28161 0.3114 0.0
C289 C 0.45718 0.2636 0.25812 0.0
C290 C 0.51012 0.31027 0.33125 0.0
C291 C 0.51066 0.29174 0.27748 0.0
N292 N 0.48755 0.21834 0.08348 0.0
C293 C 0.46192 0.1795 0.98544 0.0
C294 C 0.48962 0.18349 0.96969 0.0
C295 C 0.51627 0.20509 0.01232 0.0
C296 C 0.51473 0.22207 0.06841 0.0
C297 C 0.46141 0.19692 0.04206 0.0
H298 H 0.53587 0.23808 0.09862 0.0
H299 H 0.43954 0.19252 0.05135 0.0
H300 H 0.436 0.24594 0.23166 0.0
H301 H 0.53256 0.29685 0.26618 0.0
C302 C 0.56132 0.28114 0.19265 0.0
C303 C 0.48413 0.18993 0.29499 0.0
C304 C 0.48789 0.29868 0.03386 0.0
C305 C 0.41072 0.20554 0.12989 0.0
H306 H 0.54533 0.20648 0.35797 0.0
H307 H 0.58757 0.25636 0.30266 0.0
H308 H 0.59028 0.33279 0.1028 0.0
H309 H 0.54976 0.34173 0.01491 0.0
H310 H 0.4267 0.28313 0.97356 0.0
H311 H 0.38443 0.23209 0.02515 0.0
H312 H 0.38176 0.15267 0.21626 0.0
H313 H 0.42227 0.14488 0.30775 0.0
H314 H 0.43349 0.27691 0.32307 0.0
H315 H 0.53147 0.32886 0.35738 0.0
H316 H 0.44055 0.16258 0.95507 0.0
H317 H 0.53834 0.20914 0.00212 0.0
C318 C 0.05195 0.47828 0.58709 0.0
C319 C 0.0347 0.43441 0.85235 0.0
C320 C 0.94919 0.43457 0.81308 0.0
Mg321 Mg 0.02695 0.5212 0.49635 0.0
Mg322 Mg 0.02574 0.57289 0.59548 0.0
O323 O 0.00993 0.53095 0.57701 0.0
Mg324 Mg 0.01664 0.50767 0.66071 0.0
O325 O 0.02284 0.48166 0.73962 0.0
Mg326 Mg 0.99692 0.43952 0.69175 0.0
Mg327 Mg 0.01595 0.48463 0.83605 0.0
C328 C 0.9849 0.54289 0.72505 0.0
O329 O 0.05401 0.55092 0.73091 0.0
O330 O 1.00109 0.54238 0.41883 0.0
O331 O 0.04174 0.53419 0.84532 0.0
O332 O 0.07111 0.56717 0.50756 0.0
O333 O 0.00303 0.57783 0.49369 0.0
O334 O 0.0743 0.59994 0.59033 0.0
O335 O 0.9786 0.46278 0.60418 0.0
O336 O 0.98472 0.47408 0.4859 0.0
C337 C 0.97131 0.45524 0.53545 0.0
C338 C 0.99434 0.56312 0.43151 0.0
O339 O 0.98437 0.5172 0.71931 0.0
O340 O 0.02128 0.42392 0.78652 0.0
O341 O 0.00249 0.56698 0.69129 0.0
O342 O 0.95629 0.42445 0.76038 0.0
O343 O 0.03518 0.45732 0.88163 0.0
O344 O 0.96829 0.46004 0.84622 0.0
O345 O 0.04862 0.50177 0.5909 0.0
O346 O 0.03621 0.45409 0.62252 0.0
C347 C 0.08618 0.59264 0.5435 0.0
C348 C 0.05604 0.55572 0.80108 0.0
C349 C 0.50008 0.0481 0.44409 0.0
C350 C 0.59565 0.0382 0.40331 0.0
C351 C 0.53677 0.94394 0.47776 0.0
Mg352 Mg 0.45477 0.01563 0.56908 0.0
Mg353 Mg 0.47844 0.99265 0.72344 0.0
O354 O 0.47108 0.98933 0.61973 0.0
Mg355 Mg 0.50715 0.00259 0.56807 0.0
O356 O 0.54209 0.01656 0.51194 0.0
Mg357 Mg 0.51948 0.99791 0.41272 0.0
Mg358 Mg 0.57223 0.0067 0.55112 0.0
C359 C 0.51332 0.95714 0.7004 0.0
O360 O 0.54127 0.03479 0.66116 0.0
O361 O 0.41284 0.98654 0.63305 0.0
O362 O 0.58156 0.02783 0.66025 0.0
O363 O 0.47652 0.05291 0.66441 0.0
O364 O 0.43147 0.97173 0.73677 0.0
O365 O 0.50029 0.03956 0.75783 0.0
O366 O 0.47506 0.97145 0.46995 0.0
O367 O 0.43596 0.97952 0.47504 0.0
C368 C 0.44825 0.96669 0.44499 0.0
C369 C 0.40951 0.97216 0.69438 0.0
O370 O 0.51462 0.96462 0.63172 0.0
O371 O 0.568 0.02767 0.37131 0.0
O372 O 0.50273 0.96738 0.74469 0.0
O373 O 0.52552 0.95639 0.43113 0.0
O374 O 0.60168 0.03199 0.47041 0.0
O375 O 0.55502 0.95842 0.53529 0.0
O376 O 0.49819 0.03972 0.51166 0.0
O377 O 0.5099 0.03727 0.39946 0.0
C378 C 0.49328 0.0588 0.72733 0.0
C379 C 0.56774 0.03942 0.68879 0.0
C380 C 0.5299 0.56979 0.70879 0.0
C381 C 0.44348 0.47972 0.83966 0.0
C382 C 0.48129 0.42656 0.76909 0.0
Mg383 Mg 0.56508 0.56888 0.57055 0.0
Mg384 Mg 0.52487 0.51638 0.44026 0.0
O385 O 0.53979 0.52439 0.54087 0.0
Mg386 Mg 0.5103 0.50862 0.61498 0.0
O387 O 0.48268 0.49515 0.69374 0.0
Mg388 Mg 0.51282 0.50373 0.78487 0.0
Mg389 Mg 0.44724 0.45656 0.68618 0.0
C390 C 0.48778 0.44978 0.50405 0.0
O391 O 0.47013 0.50464 0.53459 0.0
O392 O 0.59861 0.57089 0.49064 0.0
O393 O 0.42982 0.46267 0.57336 0.0
O394 O 0.54263 0.58608 0.47312 0.0
O395 O 0.56874 0.53259 0.40682 0.0
O396 O 0.50975 0.54738 0.39571 0.0
O397 O 0.54769 0.51077 0.70439 0.0
O398 O 0.58719 0.55193 0.66507 0.0
C399 C 0.5763 0.52992 0.71007 0.0
C400 C 0.59493 0.55449 0.43366 0.0
O401 O 0.49456 0.45963 0.57193 0.0
O402 O 0.47285 0.4953 0.85172 0.0
O403 O 0.49433 0.46754 0.44843 0.0
O404 O 0.49966 0.45311 0.79854 0.0
O405 O 0.42916 0.46338 0.78019 0.0
O406 O 0.4604 0.42235 0.71582 0.0
O407 O 0.52714 0.55854 0.64492 0.0
O408 O 0.52495 0.55336 0.76646 0.0
C409 C 0.52297 0.57561 0.41488 0.0
C410 C 0.44182 0.48413 0.52701 0.0
H411 H 0.14936 0.4593 0.45424 0.0
H412 H 0.15001 0.52863 0.30534 0.0
H413 H 0.11388 0.5327 0.37247 0.0
H414 H 0.07999 0.51485 0.47173 0.0
H415 H 0.07804 0.44292 0.61302 0.0
H416 H 0.1159 0.44126 0.54961 0.0
C417 C 0.14136 0.47501 0.43521 0.0
C418 C 0.15256 0.49341 0.37396 0.0
C419 C 0.11993 0.47669 0.47277 0.0
C420 C 0.1423 0.51428 0.35256 0.0
C421 C 0.12133 0.51649 0.39069 0.0
C422 C 0.08796 0.49892 0.48865 0.0
C423 C 0.07585 0.47893 0.54707 0.0
C424 C 0.10974 0.49762 0.45075 0.0
C425 C 0.08651 0.45838 0.56793 0.0
C426 C 0.10834 0.45742 0.53177 0.0
H427 H 0.71883 0.14938 0.32648 0.0
H428 H 0.66183 0.14893 0.12856 0.0
H429 H 0.61804 0.10334 0.16998 0.0
H430 H 0.59568 0.06493 0.26688 0.0
H431 H 0.65564 0.06433 0.45849 0.0
H432 H 0.69856 0.10792 0.41338 0.0
C433 C 0.69712 0.13867 0.29104 0.0
C434 C 0.69374 0.152 0.22372 0.0
C435 C 0.67246 0.11212 0.31412 0.0
C436 C 0.66502 0.13875 0.18027 0.0
C437 C 0.64002 0.11272 0.20395 0.0
C438 C 0.6182 0.07397 0.29804 0.0
C439 C 0.622 0.06133 0.36674 0.0
C440 C 0.64339 0.09928 0.27132 0.0
C441 C 0.65159 0.07349 0.40593 0.0
C442 C 0.67637 0.09865 0.38036 0.0
H443 H 0.51533 0.6532 0.13888 0.0
H444 H 0.55964 0.72621 0.30396 0.0
H445 H 0.55748 0.68975 0.40011 0.0
H446 H 0.54375 0.63693 0.43654 0.0
H447 H 0.49516 0.56362 0.27163 0.0
H448 H 0.49704 0.60005 0.1773 0.0
C449 C 0.52413 0.66103 0.19613 0.0
C450 C 0.53756 0.69235 0.21432 0.0
C451 C 0.52165 0.63976 0.25147 0.0
C452 C 0.54928 0.70223 0.28856 0.0
C453 C 0.54788 0.68135 0.34356 0.0
C454 C 0.53314 0.62883 0.38025 0.0
C455 C 0.51948 0.59741 0.36167 0.0
C456 C 0.53412 0.65001 0.3257 0.0
C457 C 0.50579 0.58751 0.28817 0.0
C458 C 0.50706 0.60842 0.23371 0.0
H459 H 0.8823 0.577 0.30288 0.0
H460 H 0.87057 0.51181 0.13892 0.0
H461 H 0.91736 0.51282 0.19766 0.0
H462 H 0.96072 0.53136 0.30044 0.0
H463 H 0.97541 0.60387 0.44757 0.0
H464 H 0.92958 0.60236 0.38732 0.0
C465 C 0.89051 0.56381 0.27832 0.0
C466 C 0.87332 0.54477 0.21615 0.0
C467 C 0.91825 0.56612 0.30889 0.0
C468 C 0.88358 0.52677 0.18688 0.0
C469 C 0.91038 0.5275 0.2201 0.0
C470 C 0.95433 0.54735 0.31804 0.0
C471 C 0.97131 0.56706 0.38006 0.0
C472 C 0.92794 0.54708 0.28161 0.0
C473 C 0.96271 0.58789 0.40119 0.0
C474 C 0.93626 0.58703 0.36703 0.0
H475 H 0.34414 0.84006 0.31289 0.0
H476 H 0.32867 0.8971 0.14974 0.0
H477 H 0.3728 0.94274 0.21159 0.0
H478 H 0.41465 0.96628 0.31595 0.0
H479 H 0.43459 0.90814 0.46566 0.0
H480 H 0.39083 0.86269 0.40267 0.0
C481 C 0.35085 0.86242 0.28987 0.0
C482 C 0.33313 0.86524 0.22701 0.0
C483 C 0.37734 0.88818 0.32249 0.0
C484 C 0.34179 0.89442 0.19857 0.0
C485 C 0.36713 0.92043 0.23348 0.0
C486 C 0.40983 0.94358 0.33308 0.0
C487 C 0.42768 0.94035 0.39486 0.0
C488 C 0.385 0.91758 0.29571 0.0
C489 C 0.42132 0.91099 0.41742 0.0
C490 C 0.39609 0.88508 0.38212 0.0
H491 H 0.44493 0.32968 0.32919 0.0
H492 H 0.51785 0.33027 0.48124 0.0
H493 H 0.52164 0.37193 0.55396 0.0
H494 H 0.50952 0.41323 0.56233 0.0
H495 H 0.43937 0.41451 0.40373 0.0
H496 H 0.42824 0.36633 0.34736 0.0
C497 C 0.46108 0.33829 0.37939 0.0
C498 C 0.48132 0.32714 0.39922 0.0
C499 C 0.46355 0.36261 0.41987 0.0
C500 C 0.50238 0.33888 0.464 0.0
C501 C 0.50449 0.36261 0.50575 0.0
C502 C 0.49106 0.40225 0.51725 0.0
C503 C 0.47517 0.41712 0.4871 0.0
C504 C 0.48594 0.3754 0.48266 0.0
C505 C 0.45172 0.40321 0.42775 0.0
C506 C 0.4456 0.37589 0.39513 0.0
H507 H 0.53566 0.8464 0.79106 0.0
H508 H 0.55422 0.8879 0.00731 0.0
H509 H 0.54818 0.93003 0.95189 0.0
H510 H 0.53364 0.95274 0.84339 0.0
H511 H 0.51495 0.91184 0.62592 0.0
H512 H 0.5255 0.87215 0.67969 0.0
C513 C 0.53888 0.86505 0.82552 0.0
C514 C 0.54541 0.86428 0.90304 0.0
C515 C 0.53517 0.88912 0.79306 0.0
C516 C 0.54936 0.88827 0.94758 0.0
C517 C 0.54575 0.9122 0.9159 0.0
C518 C 0.53209 0.93528 0.80754 0.0
C519 C 0.52326 0.93518 0.73068 0.0
C520 C 0.53803 0.91252 0.83894 0.0
C521 C 0.52182 0.91261 0.68509 0.0
C522 C 0.52765 0.88976 0.71598 0.0
H523 H 0.66355 0.51156 0.96337 0.0
H524 H 0.71771 0.53497 0.78452 0.0
H525 H 0.67745 0.53729 0.69963 0.0
H526 H 0.62877 0.53633 0.67876 0.0
H527 H 0.57236 0.51022 0.85356 0.0
H528 H 0.61141 0.505 0.93804 0.0
C529 C 0.66614 0.51667 0.90547 0.0
C530 C 0.69354 0.5235 0.87992 0.0
C531 C 0.64274 0.51777 0.85692 0.0
C532 C 0.69682 0.52989 0.80498 0.0
C533 C 0.67391 0.53133 0.75674 0.0
C534 C 0.625 0.52944 0.73539 0.0
C535 C 0.59812 0.52428 0.76065 0.0
C536 C 0.64713 0.52599 0.78253 0.0
C537 C 0.59306 0.51456 0.83334 0.0
C538 C 0.61538 0.51163 0.88145 0.0
H539 H 0.13059 0.67456 0.0048 0.0
H540 H 0.18305 0.70661 0.82244 0.0
H541 H 0.14645 0.65956 0.75011 0.0
H542 H 0.10236 0.60671 0.74541 0.0
H543 H 0.05149 0.57542 0.93201 0.0
H544 H 0.08433 0.62455 0.99548 0.0
C545 C 0.13344 0.67146 0.94846 0.0
C546 C 0.1591 0.69377 0.91844 0.0
C547 C 0.11285 0.64421 0.90845 0.0
C548 C 0.16311 0.68961 0.84596 0.0
C549 C 0.14238 0.66266 0.80507 0.0
C550 C 0.09829 0.61082 0.79949 0.0
C551 C 0.07483 0.58708 0.83428 0.0
C552 C 0.11759 0.63935 0.83665 0.0
C553 C 0.06976 0.59293 0.90433 0.0
C554 C 0.08846 0.62114 0.94084 0.0
H555 H 0.52499 0.15697 0.97448 0.0
H556 H 0.45605 0.16744 0.83219 0.0
H557 H 0.45385 0.13251 0.73995 0.0
H558 H 0.46816 0.09553 0.70487 0.0
H559 H 0.53601 0.08398 0.84924 0.0
H560 H 0.54271 0.12357 0.93407 0.0
C561 C 0.5099 0.1521 0.9227 0.0
C562 C 0.49047 0.16457 0.91074 0.0
C563 C 0.50859 0.13182 0.87007 0.0
C564 C 0.47082 0.1577 0.84353 0.0
C565 C 0.46967 0.13785 0.79052 0.0
C566 C 0.48486 0.10209 0.7541 0.0
C567 C 0.50138 0.0866 0.7708 0.0
C568 C 0.48796 0.12425 0.80391 0.0
C569 C 0.52285 0.09536 0.83511 0.0
C570 C 0.5266 0.11792 0.88395 0.0
H571 H 0.37798 0.5108 0.0661 0.0
H572 H 0.30437 0.42165 0.98908 0.0
H573 H 0.33682 0.41629 0.91114 0.0
H574 H 0.38538 0.43773 0.86059 0.0
H575 H 0.46009 0.52584 0.94103 0.0
H576 H 0.42817 0.53071 0.02205 0.0
C577 C 0.36915 0.49018 0.03239 0.0
C578 C 0.3387 0.4667 0.03316 0.0
C579 C 0.38815 0.48707 0.98824 0.0
C580 C 0.3277 0.43996 0.98987 0.0
C581 C 0.34623 0.43695 0.94501 0.0
C582 C 0.39478 0.45796 0.89613 0.0
C583 C 0.4251 0.48148 0.89416 0.0
C584 C 0.37638 0.46046 0.94315 0.0
C585 C 0.43692 0.50733 0.94142 0.0
C586 C 0.4186 0.5102 0.98755 0.0
H587 H 0.84798 0.35773 0.0174 0.0
H588 H 0.82043 0.2885 0.84839 0.0
H589 H 0.85869 0.32592 0.77429 0.0
H590 H 0.90342 0.37713 0.76424 0.0
H591 H 0.9298 0.44631 0.93368 0.0
H592 H 0.88802 0.41049 0.99935 0.0
C593 C 0.84975 0.35111 0.96328 0.0
C594 C 0.83126 0.3205 0.93794 0.0
C595 C 0.87173 0.37275 0.92117 0.0
C596 C 0.83427 0.31202 0.86856 0.0
C597 C 0.85622 0.33338 0.82648 0.0
C598 C 0.89972 0.38459 0.81478 0.0
C599 C 0.92018 0.41443 0.84412 0.0
C600 C 0.87561 0.36367 0.85307 0.0
C601 C 0.91472 0.42356 0.90961 0.0
C602 C 0.89083 0.40299 0.94767 0.0
H603 H 0.88512 0.56524 0.82751 0.0
H604 H 0.86412 0.48225 0.9462 0.0
H605 H 0.90464 0.47968 0.89625 0.0
H606 H 0.94689 0.50156 0.81922 0.0
H607 H 0.97039 0.58795 0.71489 0.0
H608 H 0.92916 0.5892 0.76251 0.0
C609 C 0.8896 0.54687 0.84446 0.0
C610 C 0.87117 0.52404 0.89092 0.0
C611 C 0.91392 0.5463 0.81885 0.0
C612 C 0.87721 0.49994 0.90928 0.0
C613 C 0.90077 0.49861 0.88151 0.0
C614 C 0.94319 0.5208 0.80769 0.0
C615 C 0.96186 0.54452 0.7632 0.0
C616 C 0.9194 0.52176 0.83631 0.0
C617 C 0.95667 0.56933 0.7491 0.0
C618 C 0.93286 0.57006 0.77591 0.0
H619 H 0.30766 0.89558 0.88639 0.0
H620 H 0.30177 0.82252 0.75787 0.0
H621 H 0.33599 0.85992 0.67677 0.0
H622 H 0.37296 0.91342 0.65395 0.0
H623 H 0.3806 0.98602 0.78662 0.0
H624 H 0.33914 0.94876 0.85281 0.0
C625 C 0.31308 0.88769 0.8394 0.0
C626 C 0.30239 0.85625 0.82878 0.0
C627 C 0.33291 0.90929 0.79349 0.0
C628 C 0.31016 0.84659 0.76823 0.0
C629 C 0.32957 0.86794 0.72157 0.0
C630 C 0.36455 0.921 0.6953 0.0
C631 C 0.37911 0.95221 0.71488 0.0
C632 C 0.3418 0.89936 0.73514 0.0
C633 C 0.36904 0.96206 0.76992 0.0
C634 C 0.34572 0.94074 0.80832 0.0
H635 H 0.46961 0.30132 0.88661 0.0
H636 H 0.50914 0.3556 0.08942 0.0
H637 H 0.51278 0.40046 0.02376 0.0
H638 H 0.50349 0.42373 0.91042 0.0
H639 H 0.46037 0.36941 0.70802 0.0
H640 H 0.45927 0.32494 0.77154 0.0
C641 C 0.47882 0.323 0.91608 0.0
C642 C 0.48904 0.32533 0.99259 0.0
C643 C 0.48025 0.34855 0.87811 0.0
C644 C 0.50115 0.35344 0.03053 0.0
C645 C 0.50324 0.37901 0.99304 0.0
C646 C 0.49415 0.40228 0.87974 0.0
C647 C 0.48227 0.39995 0.80438 0.0
C648 C 0.49279 0.37679 0.917 0.0
C649 C 0.46972 0.3718 0.76601 0.0
C650 C 0.46905 0.34639 0.80236 0.0
H651 H 0.14798 0.41858 0.94167 0.0
H652 H 0.15107 0.4638 0.14021 0.0
H653 H 0.10035 0.45661 0.09762 0.0
H654 H 0.05922 0.44439 0.99653 0.0
H655 H 0.0572 0.40201 0.79365 0.0
H656 H 0.10264 0.39979 0.84638 0.0
C657 C 0.13709 0.42625 0.97571 0.0
C658 C 0.15287 0.44192 0.04313 0.0
C659 C 0.1082 0.42244 0.95026 0.0
C660 C 0.13903 0.45188 0.08771 0.0
C661 C 0.11016 0.44774 0.06346 0.0
C662 C 0.06828 0.434 0.96437 0.0
C663 C 0.05526 0.42403 0.89076 0.0
C664 C 0.09505 0.43402 0.99373 0.0
C665 C 0.06688 0.41005 0.85036 0.0
C666 C 0.09311 0.40911 0.88013 0.0
H667 H 0.64981 0.16266 0.86423 0.0
H668 H 0.69596 0.11396 0.95634 0.0
H669 H 0.65694 0.06787 0.88802 0.0
H670 H 0.61183 0.04244 0.79471 0.0
H671 H 0.56328 0.08965 0.7126 0.0
H672 H 0.6002 0.13472 0.78893 0.0
C673 C 0.65119 0.14194 0.87128 0.0
C674 C 0.67659 0.14242 0.9139 0.0
C675 C 0.62795 0.115 0.83452 0.0
C676 C 0.67761 0.11499 0.92126 0.0
C677 C 0.65499 0.08833 0.88315 0.0
C678 C 0.60906 0.06241 0.79483 0.0
C679 C 0.58524 0.06298 0.74767 0.0
C680 C 0.63043 0.08828 0.83838 0.0
C681 C 0.58149 0.08871 0.74874 0.0
C682 C 0.60279 0.11462 0.79163 0.0
H683 H 0.49815 0.66601 0.79928 0.0
H684 H 0.5883 0.72854 0.74529 0.0
H685 H 0.59076 0.68593 0.69418 0.0
H686 H 0.57007 0.62967 0.68383 0.0
H687 H 0.4805 0.56879 0.74277 0.0
H688 H 0.47466 0.6121 0.77098 0.0
C689 C 0.51795 0.67073 0.77386 0.0
C690 C 0.54319 0.70041 0.77747 0.0
C691 C 0.51945 0.64623 0.74625 0.0
C692 C 0.56876 0.70575 0.74485 0.0
C693 C 0.57022 0.6814 0.71566 0.0
C694 C 0.54918 0.62617 0.70142 0.0
C695 C 0.52596 0.59644 0.71276 0.0
C696 C 0.54622 0.65133 0.71925 0.0
C697 C 0.49879 0.59173 0.73503 0.0
C698 C 0.49543 0.6164 0.75107 0.0
H699 H 0.46765 0.13419 0.24247 0.0
H700 H 0.49969 0.18836 0.4447 0.0
H701 H 0.50427 0.14734 0.51294 0.0
H702 H 0.50386 0.0978 0.51107 0.0
H703 H 0.47214 0.04501 0.30582 0.0
H704 H 0.46203 0.08321 0.24322 0.0
C705 C 0.47516 0.13669 0.30173 0.0
C706 C 0.48365 0.1641 0.33868 0.0
C707 C 0.47782 0.11324 0.33995 0.0
C708 C 0.49329 0.16734 0.4154 0.0
C709 C 0.49592 0.14396 0.4542 0.0
C710 C 0.49415 0.09449 0.45314 0.0
C711 C 0.48916 0.0689 0.41284 0.0
C712 C 0.48891 0.11702 0.41666 0.0
C713 C 0.47662 0.0648 0.33771 0.0
C714 C 0.47085 0.08663 0.30174 0.0
H715 H 0.3336 0.47565 0.30278 0.0
H716 H 0.35164 0.55154 0.44113 0.0
H717 H 0.39873 0.55418 0.50148 0.0
H718 H 0.43016 0.52986 0.52757 0.0
H719 H 0.40651 0.44794 0.40618 0.0
H720 H 0.36604 0.45226 0.32617 0.0
C721 C 0.34828 0.49311 0.34521 0.0
C722 C 0.33971 0.5138 0.3667 0.0
C723 C 0.37392 0.49293 0.38321 0.0
C724 C 0.35839 0.53607 0.42226 0.0
C725 C 0.385 0.53723 0.45746 0.0
C726 C 0.41649 0.51344 0.48234 0.0
C727 C 0.42112 0.48883 0.47152 0.0
C728 C 0.39238 0.51514 0.44007 0.0
C729 C 0.40316 0.46712 0.41446 0.0
C730 C 0.38009 0.46957 0.36925 0.0
H731 H 0.8988 0.33277 0.35463 0.0
H732 H 0.82484 0.32928 0.45079 0.0
H733 H 0.86116 0.37257 0.53472 0.0
H734 H 0.91329 0.41713 0.56278 0.0
H735 H 0.98562 0.42222 0.45535 0.0
H736 H 0.9509 0.37251 0.39422 0.0
C737 C 0.89078 0.34113 0.39524 0.0
C738 C 0.85944 0.32848 0.39616 0.0
C739 C 0.91154 0.36659 0.44039 0.0
C740 C 0.84902 0.33893 0.44934 0.0
C741 C 0.86973 0.36381 0.49665 0.0
C742 C 0.92137 0.40682 0.52737 0.0
C743 C 0.95158 0.42312 0.51224 0.0
C744 C 0.90094 0.37873 0.49007 0.0
C745 C 0.96219 0.40996 0.46649 0.0
C746 C 0.94242 0.38164 0.43164 0.0
H747 H 0.49557 0.82701 0.29639 0.0
H748 H 0.5852 0.84393 0.38879 0.0
H749 H 0.5899 0.88216 0.47502 0.0
H750 H 0.57245 0.91767 0.50513 0.0
H751 H 0.48281 0.89974 0.41054 0.0
H752 H 0.47368 0.85394 0.34692 0.0
C753 C 0.51572 0.83802 0.33708 0.0
C754 C 0.5404 0.8333 0.33402 0.0
C755 C 0.51836 0.86003 0.38609 0.0
C756 C 0.56626 0.848 0.38775 0.0
C757 C 0.56895 0.86979 0.43744 0.0
C758 C 0.5506 0.90309 0.47264 0.0
C759 C 0.52868 0.91237 0.46054 0.0
C760 C 0.54579 0.87718 0.43421 0.0
C761 C 0.50029 0.8933 0.41898 0.0
C762 C 0.49507 0.86718 0.3824 0.0
H763 H 0.71934 0.5811 0.33054 0.0
H764 H 0.65572 0.50714 0.17733 0.0
H765 H 0.61314 0.50557 0.22685 0.0
H766 H 0.59393 0.52342 0.31539 0.0
H767 H 0.656 0.59599 0.47385 0.0
H768 H 0.69927 0.60016 0.41992 0.0
C769 C 0.69611 0.56482 0.30802 0.0
C770 C 0.69062 0.544 0.25101 0.0
C771 C 0.67154 0.56378 0.33752 0.0
C772 C 0.66048 0.52299 0.2221 0.0
C773 C 0.63613 0.52218 0.2501 0.0
C774 C 0.61685 0.54035 0.33837 0.0
C775 C 0.62158 0.55929 0.39897 0.0
C776 C 0.6414 0.54219 0.30823 0.0
C777 C 0.6516 0.58108 0.42727 0.0
C778 C 0.67637 0.58341 0.39657 0.0
H779 H 0.19107 0.66418 0.35217 0.0
H780 H 0.18173 0.7394 0.42105 0.0
H781 H 0.14829 0.70698 0.50992 0.0
H782 H 0.11505 0.65508 0.55244 0.0
H783 H 0.12414 0.57997 0.48135 0.0
H784 H 0.16495 0.61466 0.4114 0.0
C785 C 0.18251 0.67378 0.38814 0.0
C786 C 0.18834 0.70397 0.37851 0.0
C787 C 0.16297 0.65489 0.43868 0.0
C788 C 0.17694 0.71595 0.42579 0.0
C789 C 0.15785 0.69745 0.47687 0.0
C790 C 0.12665 0.64651 0.52363 0.0
C791 C 0.11617 0.61492 0.52104 0.0
C792 C 0.14965 0.66651 0.48153 0.0
C793 C 0.13146 0.60416 0.48337 0.0
C794 C 0.15474 0.62396 0.44294 0.0
loop_
_geom_bond_atom_site_label_1
_geom_bond_atom_site_label_2
_geom_bond_distance
_geom_bond_site_symmetry_2
_ccdc_geom_bond_type
C0 C1 1.443 . S
C0 N4 1.376 . S
C0 C38 1.389 . S
C1 C0 1.443 . S
C1 C2 1.340 . S
C1 H41 0.951 . S
C2 C1 1.340 . S
C2 C3 1.439 . S
C2 H42 0.950 . S
C3 C2 1.439 . S
C3 N4 1.374 . S
C3 C37 1.395 . S
N4 C0 1.376 . S
N4 C3 1.374 . S
N4 Co5 2.008 . S
Co5 N4 2.008 . S
Co5 N6 1.995 . S
Co5 N11 2.008 . S
Co5 N16 1.995 . S
Co5 N21 2.282 . S
Co5 N27 2.282 . S
N6 Co5 1.995 . S
N6 C7 1.376 . S
N6 C10 1.383 . S
C7 N6 1.376 . S
C7 C8 1.446 . S
C7 C37 1.391 . S
C8 C7 1.446 . S
C8 C9 1.339 . S
C8 H43 0.949 . S
C9 C8 1.339 . S
C9 C10 1.439 . S
C9 H44 0.950 . S
C10 N6 1.383 . S
C10 C9 1.439 . S
C10 C39 1.392 . S
N11 Co5 2.008 . S
N11 C12 1.376 . S
N11 C15 1.374 . S
C12 N11 1.376 . S
C12 C13 1.443 . S
C12 C39 1.389 . S
C13 C12 1.443 . S
C13 C14 1.340 . S
C13 H45 0.951 . S
C14 C13 1.340 . S
C14 C15 1.439 . S
C14 H46 0.950 . S
C15 N11 1.374 . S
C15 C14 1.439 . S
C15 C40 1.395 . S
N16 Co5 1.995 . S
N16 C17 1.376 . S
N16 C20 1.383 . S
C17 N16 1.376 . S
C17 C18 1.446 . S
C17 C40 1.391 . S
C18 C17 1.446 . S
C18 C19 1.339 . S
C18 H47 0.949 . S
C19 C18 1.339 . S
C19 C20 1.439 . S
C19 H48 0.950 . S
C20 N16 1.383 . S
C20 C19 1.439 . S
C20 C38 1.392 . S
N21 Co5 2.282 . S
N21 C24 1.332 . S
N21 C26 1.332 . S
C22 C23 1.386 . S
C22 C25 1.388 . S
C23 C22 1.386 . S
C23 C24 1.382 . S
C23 H49 0.950 . S
C24 N21 1.332 . S
C24 C23 1.382 . S
C24 H35 0.952 . S
C25 C22 1.388 . S
C25 C26 1.382 . S
C25 H50 0.950 . S
C26 N21 1.332 . S
C26 C25 1.382 . S
C26 H36 0.948 . S
N27 Co5 2.282 . S
N27 C31 1.332 . S
N27 C32 1.332 . S
C28 C29 1.388 . S
C28 C32 1.382 . S
C28 H51 0.950 . S
C29 C28 1.388 . S
C29 C30 1.386 . S
C30 C29 1.386 . S
C30 C31 1.382 . S
C30 H52 0.950 . S
C31 N27 1.332 . S
C31 C30 1.382 . S
C31 H33 0.952 . S
C32 N27 1.332 . S
C32 C28 1.382 . S
C32 H34 0.948 . S
H33 C31 0.952 . S
H34 C32 0.948 . S
H35 C24 0.952 . S
H36 C26 0.948 . S
C37 C3 1.395 . S
C37 C7 1.391 . S
C38 C0 1.389 . S
C38 C20 1.392 . S
C39 C10 1.392 . S
C39 C12 1.389 . S
C40 C15 1.395 . S
C40 C17 1.391 . S
H41 C1 0.951 . S
H42 C2 0.950 . S
H43 C8 0.949 . S
H44 C9 0.950 . S
H45 C13 0.951 . S
H46 C14 0.950 . S
H47 C18 0.949 . S
H48 C19 0.950 . S
H49 C23 0.950 . S
H50 C25 0.950 . S
H51 C28 0.950 . S
H52 C30 0.950 . S
C53 C54 1.443 . S
C53 N57 1.376 . S
C53 C91 1.389 . S
C54 C53 1.443 . S
C54 C55 1.340 . S
C54 H94 0.951 . S
C55 C54 1.340 . S
C55 C56 1.439 . S
C55 H95 0.950 . S
C56 C55 1.439 . S
C56 N57 1.374 . S
C56 C90 1.395 . S
N57 C53 1.376 . S
N57 C56 1.374 . S
N57 Co58 2.008 . S
Co58 N57 2.008 . S
Co58 N59 1.995 . S
Co58 N64 2.008 . S
Co58 N69 1.995 . S
Co58 N74 2.282 . S
Co58 N80 2.282 . S
N59 Co58 1.995 . S
N59 C60 1.376 . S
N59 C63 1.383 . S
C60 N59 1.376 . S
C60 C61 1.446 . S
C60 C90 1.391 . S
C61 C60 1.446 . S
C61 C62 1.339 . S
C61 H96 0.949 . S
C62 C61 1.339 . S
C62 C63 1.439 . S
C62 H97 0.950 . S
C63 N59 1.383 . S
C63 C62 1.439 . S
C63 C92 1.392 . S
N64 Co58 2.008 . S
N64 C65 1.376 . S
N64 C68 1.374 . S
C65 N64 1.376 . S
C65 C66 1.443 . S
C65 C92 1.389 . S
C66 C65 1.443 . S
C66 C67 1.340 . S
C66 H98 0.951 . S
C67 C66 1.340 . S
C67 C68 1.439 . S
C67 H99 0.950 . S
C68 N64 1.374 . S
C68 C67 1.439 . S
C68 C93 1.395 . S
N69 Co58 1.995 . S
N69 C70 1.376 . S
N69 C73 1.383 . S
C70 N69 1.376 . S
C70 C71 1.446 . S
C70 C93 1.391 . S
C71 C70 1.446 . S
C71 C72 1.339 1_554 S
C71 H100 0.949 1_554 S
C72 C71 1.339 1_556 S
C72 C73 1.439 1_556 S
C72 H101 0.950 . S
C73 N69 1.383 . S
C73 C72 1.439 1_554 S
C73 C91 1.392 . S
N74 Co58 2.282 . S
N74 C77 1.332 1_554 S
N74 C79 1.332 . S
C75 C76 1.386 . S
C75 C78 1.388 . S
C76 C75 1.386 . S
C76 C77 1.382 . S
C76 H102 0.950 . S
C77 N74 1.332 1_556 S
C77 C76 1.382 . S
C77 H88 0.952 . S
C78 C75 1.388 . S
C78 C79 1.382 1_556 S
C78 H103 0.950 . S
C79 N74 1.332 . S
C79 C78 1.382 1_554 S
C79 H89 0.948 . S
N80 Co58 2.282 . S
N80 C84 1.332 . S
N80 C85 1.332 . S
C81 C82 1.388 . S
C81 C85 1.382 . S
C81 H104 0.950 . S
C82 C81 1.388 . S
C82 C83 1.386 . S
C83 C82 1.386 . S
C83 C84 1.382 . S
C83 H105 0.950 . S
C84 N80 1.332 . S
C84 C83 1.382 . S
C84 H86 0.952 . S
C85 N80 1.332 . S
C85 C81 1.382 . S
C85 H87 0.948 . S
H86 C84 0.952 . S
H87 C85 0.948 . S
H88 C77 0.952 . S
H89 C79 0.948 . S
C90 C56 1.395 . S
C90 C60 1.391 . S
C91 C53 1.389 . S
C91 C73 1.392 . S
C92 C63 1.392 . S
C92 C65 1.389 . S
C93 C68 1.395 . S
C93 C70 1.391 . S
H94 C54 0.951 . S
H95 C55 0.950 . S
H96 C61 0.949 . S
H97 C62 0.950 . S
H98 C66 0.951 . S
H99 C67 0.950 . S
H100 C71 0.949 1_556 S
H101 C72 0.950 . S
H102 C76 0.950 . S
H103 C78 0.950 . S
H104 C81 0.950 . S
H105 C83 0.950 . S
C106 C107 1.443 . S
C106 N110 1.376 . S
C106 C144 1.389 . S
C107 C106 1.443 . S
C107 C108 1.340 . S
C107 H147 0.951 . S
C108 C107 1.340 . S
C108 C109 1.439 . S
C108 H148 0.950 . S
C109 C108 1.439 . S
C109 N110 1.374 . S
C109 C143 1.395 . S
N110 C106 1.376 . S
N110 C109 1.374 . S
N110 Co111 2.008 . S
Co111 N110 2.008 . S
Co111 N112 1.995 1_554 S
Co111 N117 2.008 1_554 S
Co111 N122 1.995 . S
Co111 N127 2.282 . S
Co111 N133 2.282 1_554 S
N112 Co111 1.995 1_556 S
N112 C113 1.376 . S
N112 C116 1.383 . S
C113 N112 1.376 . S
C113 C114 1.453 . S
C113 C143 1.384 1_556 S
C114 C113 1.453 . S
C114 C115 1.339 . S
C114 H149 0.949 . S
C115 C114 1.339 . S
C115 C116 1.439 . S
C115 H150 0.950 . S
C116 N112 1.383 . S
C116 C115 1.439 . S
C116 C145 1.392 . S
N117 Co111 2.008 1_556 S
N117 C118 1.376 . S
N117 C121 1.374 . S
C118 N117 1.376 . S
C118 C119 1.443 . S
C118 C145 1.389 . S
C119 C118 1.443 . S
C119 C120 1.340 . S
C119 H151 0.951 . S
C120 C119 1.340 . S
C120 C121 1.439 . S
C120 H152 0.950 . S
C121 N117 1.374 . S
C121 C120 1.439 . S
C121 C146 1.395 1_556 S
N122 Co111 1.995 . S
N122 C123 1.376 . S
N122 C126 1.383 . S
C123 N122 1.376 . S
C123 C124 1.446 . S
C123 C146 1.391 . S
C124 C123 1.446 . S
C124 C125 1.339 . S
C124 H153 0.949 . S
C125 C124 1.339 . S
C125 C126 1.439 . S
C125 H154 0.950 . S
C126 N122 1.383 . S
C126 C125 1.439 . S
C126 C144 1.392 . S
N127 Co111 2.282 . S
N127 C130 1.332 . S
N127 C132 1.332 . S
C128 C129 1.386 . S
C128 C131 1.388 . S
C129 C128 1.386 . S
C129 C130 1.382 . S
C129 H155 0.950 . S
C130 N127 1.332 . S
C130 C129 1.382 . S
C130 H141 0.952 . S
C131 C128 1.388 . S
C131 C132 1.382 . S
C131 H156 0.950 . S
C132 N127 1.332 . S
C132 C131 1.382 . S
C132 H142 0.948 . S
N133 Co111 2.282 1_556 S
N133 C137 1.332 . S
N133 C138 1.332 . S
C134 C135 1.388 . S
C134 C138 1.382 . S
C134 H157 0.950 . S
C135 C134 1.388 . S
C135 C136 1.386 . S
C136 C135 1.386 . S
C136 C137 1.382 . S
C136 H158 0.950 . S
C137 N133 1.332 . S
C137 C136 1.382 . S
C137 H139 0.952 . S
C138 N133 1.332 . S
C138 C134 1.382 . S
C138 H140 0.948 . S
H139 C137 0.952 . S
H140 C138 0.948 . S
H141 C130 0.952 . S
H142 C132 0.948 . S
C143 C109 1.395 . S
C143 C113 1.384 1_554 S
C144 C106 1.389 . S
C144 C126 1.392 . S
C145 C116 1.392 . S
C145 C118 1.389 . S
C146 C121 1.395 1_554 S
C146 C123 1.391 . S
H147 C107 0.951 . S
H148 C108 0.950 . S
H149 C114 0.949 . S
H150 C115 0.950 . S
H151 C119 0.951 . S
H152 C120 0.950 . S
H153 C124 0.949 . S
H154 C125 0.950 . S
H155 C129 0.950 . S
H156 C131 0.950 . S
H157 C134 0.950 . S
H158 C136 0.950 . S
C159 C160 1.443 . S
C159 N163 1.376 . S
C159 C197 1.389 . S
C160 C159 1.443 . S
C160 C161 1.340 . S
C160 H200 0.951 . S
C161 C160 1.340 . S
C161 C162 1.439 . S
C161 H201 0.950 . S
C162 C161 1.439 . S
C162 N163 1.374 . S
C162 C196 1.395 . S
N163 C159 1.376 . S
N163 C162 1.374 . S
N163 Co164 2.008 . S
Co164 N163 2.008 . S
Co164 N165 1.995 1_554 S
Co164 N170 2.008 1_554 S
Co164 N175 1.995 . S
Co164 N180 2.282 . S
Co164 N186 2.282 1_554 S
N165 Co164 1.995 1_556 S
N165 C166 1.376 . S
N165 C169 1.383 . S
C166 N165 1.376 . S
C166 C167 1.446 . S
C166 C196 1.391 1_556 S
C167 C166 1.446 . S
C167 C168 1.339 . S
C167 H202 0.949 . S
C168 C167 1.339 . S
C168 C169 1.439 . S
C168 H203 0.950 . S
C169 N165 1.383 . S
C169 C168 1.439 . S
C169 C198 1.392 . S
N170 Co164 2.008 1_556 S
N170 C171 1.376 . S
N170 C174 1.374 . S
C171 N170 1.376 . S
C171 C172 1.443 . S
C171 C198 1.389 . S
C172 C171 1.443 . S
C172 C173 1.340 . S
C172 H204 0.951 . S
C173 C172 1.340 . S
C173 C174 1.439 . S
C173 H205 0.950 . S
C174 N170 1.374 . S
C174 C173 1.439 . S
C174 C199 1.395 1_556 S
N175 Co164 1.995 . S
N175 C176 1.376 . S
N175 C179 1.383 . S
C176 N175 1.376 . S
C176 C177 1.446 . S
C176 C199 1.391 . S
C177 C176 1.446 . S
C177 C178 1.339 . S
C177 H206 0.949 . S
C178 C177 1.339 . S
C178 C179 1.439 . S
C178 H207 0.950 . S
C179 N175 1.383 . S
C179 C178 1.439 . S
C179 C197 1.392 . S
N180 Co164 2.282 . S
N180 C183 1.332 . S
N180 C185 1.332 . S
C181 C182 1.386 . S
C181 C184 1.388 . S
C182 C181 1.386 . S
C182 C183 1.382 . S
C182 H208 0.950 . S
C183 N180 1.332 . S
C183 C182 1.382 . S
C183 H194 0.952 . S
C184 C181 1.388 . S
C184 C185 1.382 . S
C184 H209 0.950 . S
C185 N180 1.332 . S
C185 C184 1.382 . S
C185 H195 0.948 . S
N186 Co164 2.282 1_556 S
N186 C190 1.332 . S
N186 C191 1.332 . S
C187 C188 1.388 . S
C187 C191 1.382 . S
C187 H210 0.950 . S
C188 C187 1.388 . S
C188 C189 1.386 . S
C189 C188 1.386 . S
C189 C190 1.382 . S
C189 H211 0.950 . S
C190 N186 1.332 . S
C190 C189 1.382 . S
C190 H192 0.952 . S
C191 N186 1.332 . S
C191 C187 1.382 . S
C191 H193 0.948 . S
H192 C190 0.952 . S
H193 C191 0.948 . S
H194 C183 0.952 . S
H195 C185 0.948 . S
C196 C162 1.395 . S
C196 C166 1.391 1_554 S
C197 C159 1.389 . S
C197 C179 1.392 . S
C198 C169 1.392 . S
C198 C171 1.389 . S
C199 C174 1.395 1_554 S
C199 C176 1.391 . S
H200 C160 0.951 . S
H201 C161 0.950 . S
H202 C167 0.949 . S
H203 C168 0.950 . S
H204 C172 0.951 . S
H205 C173 0.950 . S
H206 C177 0.949 . S
H207 C178 0.950 . S
H208 C182 0.950 . S
H209 C184 0.950 . S
H210 C187 0.950 . S
H211 C189 0.950 . S
C212 C213 1.443 . S
C212 N216 1.376 . S
C212 C250 1.389 . S
C213 C212 1.443 . S
C213 C214 1.340 . S
C213 H253 0.951 . S
C214 C213 1.340 . S
C214 C215 1.439 . S
C214 H254 0.950 . S
C215 C214 1.439 . S
C215 N216 1.374 . S
C215 C249 1.395 . S
N216 C212 1.376 . S
N216 C215 1.374 . S
N216 Co217 2.008 . S
Co217 N216 2.008 . S
Co217 N218 1.995 . S
Co217 N223 2.008 . S
Co217 N228 1.995 . S
Co217 N233 2.282 . S
Co217 N239 2.282 . S
N218 Co217 1.995 . S
N218 C219 1.376 . S
N218 C222 1.383 1_554 S
C219 N218 1.376 . S
C219 C220 1.446 1_554 S
C219 C249 1.391 . S
C220 C219 1.446 1_556 S
C220 C221 1.339 . S
C220 H255 0.949 . S
C221 C220 1.339 . S
C221 C222 1.439 . S
C221 H256 0.950 . S
C222 N218 1.383 1_556 S
C222 C221 1.439 . S
C222 C251 1.392 . S
N223 Co217 2.008 . S
N223 C224 1.376 . S
N223 C227 1.374 . S
C224 N223 1.376 . S
C224 C225 1.443 . S
C224 C251 1.389 1_554 S
C225 C224 1.443 . S
C225 C226 1.340 . S
C225 H257 0.951 1_554 S
C226 C225 1.340 . S
C226 C227 1.439 . S
C226 H258 0.950 . S
C227 N223 1.374 . S
C227 C226 1.439 . S
C227 C252 1.395 . S
N228 Co217 1.995 . S
N228 C229 1.376 . S
N228 C232 1.383 . S
C229 N228 1.376 . S
C229 C230 1.446 . S
C229 C252 1.391 . S
C230 C229 1.446 . S
C230 C231 1.339 . S
C230 H259 0.949 . S
C231 C230 1.339 . S
C231 C232 1.439 . S
C231 H260 0.950 . S
C232 N228 1.383 . S
C232 C231 1.439 . S
C232 C250 1.392 . S
N233 Co217 2.282 . S
N233 C236 1.332 . S
N233 C238 1.332 . S
C234 C235 1.386 . S
C234 C237 1.388 . S
C235 C234 1.386 . S
C235 C236 1.382 . S
C235 H261 0.950 . S
C236 N233 1.332 . S
C236 C235 1.382 . S
C236 H247 0.952 . S
C237 C234 1.388 . S
C237 C238 1.382 . S
C237 H262 0.950 . S
C238 N233 1.332 . S
C238 C237 1.382 . S
C238 H248 0.948 . S
N239 Co217 2.282 . S
N239 C243 1.332 1_554 S
N239 C244 1.332 . S
C240 C241 1.388 . S
C240 C244 1.382 1_556 S
C240 H263 0.950 . S
C241 C240 1.388 . S
C241 C242 1.386 . S
C242 C241 1.386 . S
C242 C243 1.382 . S
C242 H264 0.950 . S
C243 N239 1.332 1_556 S
C243 C242 1.382 . S
C243 H245 0.952 . S
C244 N239 1.332 . S
C244 C240 1.382 1_554 S
C244 H246 0.948 . S
H245 C243 0.952 . S
H246 C244 0.948 . S
H247 C236 0.952 . S
H248 C238 0.948 . S
C249 C215 1.395 . S
C249 C219 1.391 . S
C250 C212 1.389 . S
C250 C232 1.392 . S
C251 C222 1.392 . S
C251 C224 1.389 1_556 S
C252 C227 1.395 . S
C252 C229 1.391 . S
H253 C213 0.951 . S
H254 C214 0.950 . S
H255 C220 0.949 . S
H256 C221 0.950 . S
H257 C225 0.951 1_556 S
H258 C226 0.950 . S
H259 C230 0.949 . S
H260 C231 0.950 . S
H261 C235 0.950 . S
H262 C237 0.950 . S
H263 C240 0.950 . S
H264 C242 0.950 . S
C265 C266 1.443 . S
C265 N269 1.376 . S
C265 C303 1.389 . S
C266 C265 1.443 . S
C266 C267 1.340 . S
C266 H306 0.951 . S
C267 C266 1.340 . S
C267 C268 1.439 . S
C267 H307 0.950 . S
C268 C267 1.439 . S
C268 N269 1.374 . S
C268 C302 1.395 . S
N269 C265 1.376 . S
N269 C268 1.374 . S
N269 Co270 2.008 . S
Co270 N269 2.008 . S
Co270 N271 1.995 . S
Co270 N276 2.008 . S
Co270 N281 1.995 . S
Co270 N286 2.282 . S
Co270 N292 2.282 . S
N271 Co270 1.995 . S
N271 C272 1.376 . S
N271 C275 1.383 . S
C272 N271 1.376 . S
C272 C273 1.446 . S
C272 C302 1.391 . S
C273 C272 1.446 . S
C273 C274 1.339 . S
C273 H308 0.949 . S
C274 C273 1.339 . S
C274 C275 1.439 . S
C274 H309 0.950 . S
C275 N271 1.383 . S
C275 C274 1.439 . S
C275 C304 1.392 . S
N276 Co270 2.008 . S
N276 C277 1.376 . S
N276 C280 1.374 . S
C277 N276 1.376 . S
C277 C278 1.443 . S
C277 C304 1.389 . S
C278 C277 1.443 . S
C278 C279 1.340 . S
C278 H310 0.951 . S
C279 C278 1.340 . S
C279 C280 1.439 . S
C279 H311 0.950 . S
C280 N276 1.374 . S
C280 C279 1.439 . S
C280 C305 1.395 . S
N281 Co270 1.995 . S
N281 C282 1.376 . S
N281 C285 1.383 . S
C282 N281 1.376 . S
C282 C283 1.446 . S
C282 C305 1.391 . S
C283 C282 1.446 . S
C283 C284 1.339 . S
C283 H312 0.949 . S
C284 C283 1.339 . S
C284 C285 1.439 . S
C284 H313 0.950 . S
C285 N281 1.383 . S
C285 C284 1.439 . S
C285 C303 1.392 . S
N286 Co270 2.282 . S
N286 C289 1.332 . S
N286 C291 1.332 . S
C287 C288 1.386 . S
C287 C290 1.388 . S
C288 C287 1.386 . S
C288 C289 1.382 . S
C288 H314 0.950 . S
C289 N286 1.332 . S
C289 C288 1.382 . S
C289 H300 0.952 . S
C290 C287 1.388 . S
C290 C291 1.382 . S
C290 H315 0.950 . S
C291 N286 1.332 . S
C291 C290 1.382 . S
C291 H301 0.948 . S
N292 Co270 2.282 . S
N292 C296 1.332 . S
N292 C297 1.332 . S
C293 C294 1.388 1_554 S
C293 C297 1.382 . S
C293 H316 0.950 . S
C294 C293 1.388 1_556 S
C294 C295 1.386 1_556 S
C295 C294 1.386 1_554 S
C295 C296 1.382 . S
C295 H317 0.950 1_554 S
C296 N292 1.332 . S
C296 C295 1.382 . S
C296 H298 0.952 . S
C297 N292 1.332 . S
C297 C293 1.382 . S
C297 H299 0.948 . S
H298 C296 0.952 . S
H299 C297 0.948 . S
H300 C289 0.952 . S
H301 C291 0.948 . S
C302 C268 1.395 . S
C302 C272 1.391 . S
C303 C265 1.389 . S
C303 C285 1.392 . S
C304 C275 1.392 . S
C304 C277 1.389 . S
C305 C280 1.395 . S
C305 C282 1.391 . S
H306 C266 0.951 . S
H307 C267 0.950 . S
H308 C273 0.949 . S
H309 C274 0.950 . S
H310 C278 0.951 . S
H311 C279 0.950 . S
H312 C283 0.949 . S
H313 C284 0.950 . S
H314 C288 0.950 . S
H315 C290 0.950 . S
H316 C293 0.950 . S
H317 C295 0.950 1_556 S
C318 O345 1.312 . S
C318 O346 1.208 . S
C319 O340 1.331 . S
C319 O343 1.244 . S
C320 O342 1.264 . S
C320 O344 1.273 . S
Mg321 O323 1.936 1_455 S
Mg321 O330 2.081 1_455 S
Mg321 O332 2.023 . S
Mg321 O336 2.031 1_455 S
Mg321 O345 2.291 . S
Mg322 O323 1.963 . S
Mg322 O333 1.942 . S
Mg322 O334 1.955 1_655 S
Mg322 O341 1.986 . S
O323 Mg321 1.936 1_655 S
O323 Mg322 1.963 . S
O323 Mg324 1.915 1_655 S
Mg324 O323 1.915 1_455 S
Mg324 O325 1.915 . S
Mg324 O329 2.013 . S
Mg324 O335 2.114 1_455 S
Mg324 O339 2.013 1_455 S
Mg324 O345 2.114 . S
O325 Mg324 1.915 . S
O325 Mg326 1.936 . S
O325 Mg327 1.963 . S
Mg326 O325 1.936 . S
Mg326 O335 2.291 1_455 S
Mg326 O340 2.081 . S
Mg326 O342 2.023 1_455 S
Mg326 O346 2.031 . S
Mg327 O325 1.963 . S
Mg327 O331 1.986 . S
Mg327 O343 1.942 . S
Mg327 O344 1.955 1_455 S
C328 O339 1.191 . S
C328 O341 1.307 . S
O329 Mg324 2.013 . S
O329 C348 1.191 . S
O330 Mg321 2.081 1_655 S
O330 C338 1.331 . S
O331 Mg327 1.986 . S
O331 C348 1.307 . S
O332 Mg321 2.023 . S
O332 C347 1.264 . S
O333 Mg322 1.942 . S
O333 C338 1.244 . S
O334 Mg322 1.955 1_455 S
O334 C347 1.273 . S
O335 Mg324 2.114 1_655 S
O335 Mg326 2.291 1_655 S
O335 C337 1.312 . S
O336 Mg321 2.031 1_655 S
O336 C337 1.208 . S
C337 O335 1.312 . S
C337 O336 1.208 . S
C338 O330 1.331 . S
C338 O333 1.244 . S
O339 Mg324 2.013 1_655 S
O339 C328 1.191 . S
O340 C319 1.331 . S
O340 Mg326 2.081 . S
O341 Mg322 1.986 . S
O341 C328 1.307 . S
O342 C320 1.264 . S
O342 Mg326 2.023 1_655 S
O343 C319 1.244 . S
O343 Mg327 1.942 . S
O344 C320 1.273 . S
O344 Mg327 1.955 1_655 S
O345 C318 1.312 . S
O345 Mg321 2.291 . S
O345 Mg324 2.114 . S
O346 C318 1.208 . S
O346 Mg326 2.031 . S
C347 O332 1.264 . S
C347 O334 1.273 . S
C348 O329 1.191 . S
C348 O331 1.307 . S
C349 O376 1.312 . S
C349 O377 1.208 . S
C350 O371 1.331 . S
C350 O374 1.244 . S
C351 O373 1.264 . S
C351 O375 1.273 . S
Mg352 O354 1.936 1_545 S
Mg352 O361 2.081 1_545 S
Mg352 O363 2.023 . S
Mg352 O367 2.031 1_545 S
Mg352 O376 2.291 . S
Mg353 O354 1.963 . S
Mg353 O364 1.942 . S
Mg353 O365 1.955 1_565 S
Mg353 O372 1.986 . S
O354 Mg352 1.936 1_565 S
O354 Mg353 1.963 . S
O354 Mg355 1.915 1_565 S
Mg355 O354 1.915 1_545 S
Mg355 O356 1.915 . S
Mg355 O360 2.013 . S
Mg355 O366 2.114 1_545 S
Mg355 O370 2.013 1_545 S
Mg355 O376 2.114 . S
O356 Mg355 1.915 . S
O356 Mg357 1.936 . S
O356 Mg358 1.963 . S
Mg357 O356 1.936 . S
Mg357 O366 2.291 1_545 S
Mg357 O371 2.081 . S
Mg357 O373 2.023 1_545 S
Mg357 O377 2.031 . S
Mg358 O356 1.963 . S
Mg358 O362 1.986 . S
Mg358 O374 1.942 . S
Mg358 O375 1.955 1_545 S
C359 O370 1.191 . S
C359 O372 1.307 . S
O360 Mg355 2.013 . S
O360 C379 1.191 . S
O361 Mg352 2.081 1_565 S
O361 C369 1.331 . S
O362 Mg358 1.986 . S
O362 C379 1.307 . S
O363 Mg352 2.023 . S
O363 C378 1.264 . S
O364 Mg353 1.942 . S
O364 C369 1.244 . S
O365 Mg353 1.955 1_545 S
O365 C378 1.273 . S
O366 Mg355 2.114 1_565 S
O366 Mg357 2.291 1_565 S
O366 C368 1.312 . S
O367 Mg352 2.031 1_565 S
O367 C368 1.208 . S
C368 O366 1.312 . S
C368 O367 1.208 . S
C369 O361 1.331 . S
C369 O364 1.244 . S
O370 Mg355 2.013 1_565 S
O370 C359 1.191 . S
O371 C350 1.331 . S
O371 Mg357 2.081 . S
O372 Mg353 1.986 . S
O372 C359 1.307 . S
O373 C351 1.264 . S
O373 Mg357 2.023 1_565 S
O374 C350 1.244 . S
O374 Mg358 1.942 . S
O375 C351 1.273 . S
O375 Mg358 1.955 1_565 S
O376 C349 1.312 . S
O376 Mg352 2.291 . S
O376 Mg355 2.114 . S
O377 C349 1.208 . S
O377 Mg357 2.031 . S
C378 O363 1.264 . S
C378 O365 1.273 . S
C379 O360 1.191 . S
C379 O362 1.307 . S
C380 O407 1.312 . S
C380 O408 1.208 . S
C381 O402 1.331 . S
C381 O405 1.244 . S
C382 O404 1.264 . S
C382 O406 1.273 . S
Mg383 O385 1.936 . S
Mg383 O392 2.081 . S
Mg383 O394 2.023 . S
Mg383 O398 2.031 . S
Mg383 O407 2.291 . S
Mg384 O385 1.963 . S
Mg384 O395 1.942 . S
Mg384 O396 1.955 . S
Mg384 O403 1.986 . S
O385 Mg383 1.936 . S
O385 Mg384 1.963 . S
O385 Mg386 1.915 . S
Mg386 O385 1.915 . S
Mg386 O387 1.915 . S
Mg386 O391 2.013 . S
Mg386 O397 2.114 . S
Mg386 O401 2.013 . S
Mg386 O407 2.114 . S
O387 Mg386 1.915 . S
O387 Mg388 1.936 . S
O387 Mg389 1.963 . S
Mg388 O387 1.936 . S
Mg388 O397 2.291 . S
Mg388 O402 2.081 . S
Mg388 O404 2.023 . S
Mg388 O408 2.031 . S
Mg389 O387 1.963 . S
Mg389 O393 1.986 . S
Mg389 O405 1.942 . S
Mg389 O406 1.955 . S
C390 O401 1.191 . S
C390 O403 1.307 . S
O391 Mg386 2.013 . S
O391 C410 1.191 . S
O392 Mg383 2.081 . S
O392 C400 1.331 . S
O393 Mg389 1.986 . S
O393 C410 1.307 . S
O394 Mg383 2.023 . S
O394 C409 1.264 . S
O395 Mg384 1.942 . S
O395 C400 1.244 . S
O396 Mg384 1.955 . S
O396 C409 1.273 . S
O397 Mg386 2.114 . S
O397 Mg388 2.291 . S
O397 C399 1.312 . S
O398 Mg383 2.031 . S
O398 C399 1.208 . S
C399 O397 1.312 . S
C399 O398 1.208 . S
C400 O392 1.331 . S
C400 O395 1.244 . S
O401 Mg386 2.013 . S
O401 C390 1.191 . S
O402 C381 1.331 . S
O402 Mg388 2.081 . S
O403 Mg384 1.986 . S
O403 C390 1.307 . S
O404 C382 1.264 . S
O404 Mg388 2.023 . S
O405 C381 1.244 . S
O405 Mg389 1.942 . S
O406 C382 1.273 . S
O406 Mg389 1.955 . S
O407 C380 1.312 . S
O407 Mg383 2.291 . S
O407 Mg386 2.114 . S
O408 C380 1.208 . S
O408 Mg388 2.031 . S
C409 O394 1.264 . S
C409 O396 1.273 . S
C410 O391 1.191 . S
C410 O393 1.307 . S
H411 C417 0.930 . S
H412 C420 0.930 . S
H413 C421 0.930 . S
H414 C422 0.930 . S
H415 C425 0.930 . S
H416 C426 0.930 . S
C417 H411 0.930 . S
C417 C418 1.355 . S
C417 C419 1.415 . S
C418 C417 1.355 . S
C418 C420 1.419 . S
C419 C417 1.415 . S
C419 C424 1.425 . S
C419 C426 1.409 . S
C420 H412 0.930 . S
C420 C418 1.419 . S
C420 C421 1.362 . S
C421 H413 0.930 . S
C421 C420 1.362 . S
C421 C424 1.409 . S
C422 H414 0.930 . S
C422 C423 1.355 . S
C422 C424 1.415 . S
C423 C422 1.355 . S
C423 C425 1.419 . S
C424 C419 1.425 . S
C424 C421 1.409 . S
C424 C422 1.415 . S
C425 H415 0.930 . S
C425 C423 1.419 . S
C425 C426 1.362 . S
C426 H416 0.930 . S
C426 C419 1.409 . S
C426 C425 1.362 . S
H427 C433 0.930 . S
H428 C436 0.930 . S
H429 C437 0.930 . S
H430 C438 0.930 . S
H431 C441 0.930 . S
H432 C442 0.930 . S
C433 H427 0.930 . S
C433 C434 1.355 . S
C433 C435 1.415 . S
C434 C433 1.355 . S
C434 C436 1.419 . S
C435 C433 1.415 . S
C435 C440 1.425 . S
C435 C442 1.409 . S
C436 H428 0.930 . S
C436 C434 1.419 . S
C436 C437 1.362 . S
C437 H429 0.930 . S
C437 C436 1.362 . S
C437 C440 1.409 . S
C438 H430 0.930 . S
C438 C439 1.355 . S
C438 C440 1.415 . S
C439 C438 1.355 . S
C439 C441 1.419 . S
C440 C435 1.425 . S
C440 C437 1.409 . S
C440 C438 1.415 . S
C441 H431 0.930 . S
C441 C439 1.419 . S
C441 C442 1.362 . S
C442 H432 0.930 . S
C442 C435 1.409 . S
C442 C441 1.362 . S
H443 C449 0.930 . S
H444 C452 0.930 . S
H445 C453 0.930 . S
H446 C454 0.930 . S
H447 C457 0.930 . S
H448 C458 0.930 . S
C449 H443 0.930 . S
C449 C450 1.355 . S
C449 C451 1.415 . S
C450 C449 1.355 . S
C450 C452 1.419 . S
C451 C449 1.415 . S
C451 C456 1.425 . S
C451 C458 1.409 . S
C452 H444 0.930 . S
C452 C450 1.419 . S
C452 C453 1.362 . S
C453 H445 0.930 . S
C453 C452 1.362 . S
C453 C456 1.409 . S
C454 H446 0.930 . S
C454 C455 1.355 . S
C454 C456 1.415 . S
C455 C454 1.355 . S
C455 C457 1.419 . S
C456 C451 1.425 . S
C456 C453 1.409 . S
C456 C454 1.415 . S
C457 H447 0.930 . S
C457 C455 1.419 . S
C457 C458 1.362 . S
C458 H448 0.930 . S
C458 C451 1.409 . S
C458 C457 1.362 . S
H459 C465 0.930 . S
H460 C468 0.930 . S
H461 C469 0.930 . S
H462 C470 0.930 . S
H463 C473 0.930 . S
H464 C474 0.930 . S
C465 H459 0.930 . S
C465 C466 1.355 . S
C465 C467 1.415 . S
C466 C465 1.355 . S
C466 C468 1.419 . S
C467 C465 1.415 . S
C467 C472 1.425 . S
C467 C474 1.409 . S
C468 H460 0.930 . S
C468 C466 1.419 . S
C468 C469 1.362 . S
C469 H461 0.930 . S
C469 C468 1.362 . S
C469 C472 1.409 . S
C470 H462 0.930 . S
C470 C471 1.355 . S
C470 C472 1.415 . S
C471 C470 1.355 . S
C471 C473 1.419 . S
C472 C467 1.425 . S
C472 C469 1.409 . S
C472 C470 1.415 . S
C473 H463 0.930 . S
C473 C471 1.419 . S
C473 C474 1.362 . S
C474 H464 0.930 . S
C474 C467 1.409 . S
C474 C473 1.362 . S
H475 C481 0.930 . S
H476 C484 0.930 . S
H477 C485 0.930 . S
H478 C486 0.930 . S
H479 C489 0.930 . S
H480 C490 0.930 . S
C481 H475 0.930 . S
C481 C482 1.355 . S
C481 C483 1.415 . S
C482 C481 1.355 . S
C482 C484 1.419 . S
C483 C481 1.415 . S
C483 C488 1.425 . S
C483 C490 1.409 . S
C484 H476 0.930 . S
C484 C482 1.419 . S
C484 C485 1.362 . S
C485 H477 0.930 . S
C485 C484 1.362 . S
C485 C488 1.409 . S
C486 H478 0.930 . S
C486 C487 1.355 . S
C486 C488 1.415 . S
C487 C486 1.355 . S
C487 C489 1.419 . S
C488 C483 1.425 . S
C488 C485 1.409 . S
C488 C486 1.415 . S
C489 H479 0.930 . S
C489 C487 1.419 . S
C489 C490 1.362 . S
C490 H480 0.930 . S
C490 C483 1.409 . S
C490 C489 1.362 . S
H491 C497 0.930 . S
H492 C500 0.930 . S
H493 C501 0.930 . S
H494 C502 0.930 . S
H495 C505 0.930 . S
H496 C506 0.930 . S
C497 H491 0.930 . S
C497 C498 1.355 . S
C497 C499 1.415 . S
C498 C497 1.355 . S
C498 C500 1.419 . S
C499 C497 1.415 . S
C499 C504 1.425 . S
C499 C506 1.409 . S
C500 H492 0.930 . S
C500 C498 1.419 . S
C500 C501 1.362 . S
C501 H493 0.930 . S
C501 C500 1.362 . S
C501 C504 1.409 . S
C502 H494 0.930 . S
C502 C503 1.355 . S
C502 C504 1.415 . S
C503 C502 1.355 . S
C503 C505 1.419 . S
C504 C499 1.425 . S
C504 C501 1.409 . S
C504 C502 1.415 . S
C505 H495 0.930 . S
C505 C503 1.419 . S
C505 C506 1.362 . S
C506 H496 0.930 . S
C506 C499 1.409 . S
C506 C505 1.362 . S
H507 C513 0.930 . S
H508 C516 0.930 . S
H509 C517 0.930 . S
H510 C518 0.930 . S
H511 C521 0.930 . S
H512 C522 0.930 . S
C513 H507 0.930 . S
C513 C514 1.355 . S
C513 C515 1.415 . S
C514 C513 1.355 . S
C514 C516 1.419 . S
C515 C513 1.415 . S
C515 C520 1.425 . S
C515 C522 1.409 . S
C516 H508 0.930 . S
C516 C514 1.419 . S
C516 C517 1.362 . S
C517 H509 0.930 . S
C517 C516 1.362 . S
C517 C520 1.409 . S
C518 H510 0.930 . S
C518 C519 1.355 . S
C518 C520 1.415 . S
C519 C518 1.355 . S
C519 C521 1.419 . S
C520 C515 1.425 . S
C520 C517 1.409 . S
C520 C518 1.415 . S
C521 H511 0.930 . S
C521 C519 1.419 . S
C521 C522 1.362 . S
C522 H512 0.930 . S
C522 C515 1.409 . S
C522 C521 1.362 . S
H523 C529 0.930 . S
H524 C532 0.930 . S
H525 C533 0.930 . S
H526 C534 0.930 . S
H527 C537 0.930 . S
H528 C538 0.930 . S
C529 H523 0.930 . S
C529 C530 1.355 . S
C529 C531 1.415 . S
C530 C529 1.355 . S
C530 C532 1.419 . S
C531 C529 1.415 . S
C531 C536 1.425 . S
C531 C538 1.409 . S
C532 H524 0.930 . S
C532 C530 1.419 . S
C532 C533 1.362 . S
C533 H525 0.930 . S
C533 C532 1.362 . S
C533 C536 1.409 . S
C534 H526 0.930 . S
C534 C535 1.355 . S
C534 C536 1.415 . S
C535 C534 1.355 . S
C535 C537 1.419 . S
C536 C531 1.425 . S
C536 C533 1.409 . S
C536 C534 1.415 . S
C537 H527 0.930 . S
C537 C535 1.419 . S
C537 C538 1.362 . S
C538 H528 0.930 . S
C538 C531 1.409 . S
C538 C537 1.362 . S
H539 C545 0.930 . S
H540 C548 0.930 . S
H541 C549 0.930 . S
H542 C550 0.930 . S
H543 C553 0.930 . S
H544 C554 0.930 . S
C545 H539 0.930 . S
C545 C546 1.355 . S
C545 C547 1.415 . S
C546 C545 1.355 . S
C546 C548 1.419 . S
C547 C545 1.415 . S
C547 C552 1.425 . S
C547 C554 1.409 . S
C548 H540 0.930 . S
C548 C546 1.419 . S
C548 C549 1.362 . S
C549 H541 0.930 . S
C549 C548 1.362 . S
C549 C552 1.409 . S
C550 H542 0.930 . S
C550 C551 1.355 . S
C550 C552 1.415 . S
C551 C550 1.355 . S
C551 C553 1.419 . S
C552 C547 1.425 . S
C552 C549 1.409 . S
C552 C550 1.415 . S
C553 H543 0.930 . S
C553 C551 1.419 . S
C553 C554 1.362 . S
C554 H544 0.930 . S
C554 C547 1.409 . S
C554 C553 1.362 . S
H555 C561 0.930 . S
H556 C564 0.930 . S
H557 C565 0.930 . S
H558 C566 0.930 . S
H559 C569 0.930 . S
H560 C570 0.930 . S
C561 H555 0.930 . S
C561 C562 1.355 . S
C561 C563 1.415 . S
C562 C561 1.355 . S
C562 C564 1.419 . S
C563 C561 1.415 . S
C563 C568 1.425 . S
C563 C570 1.409 . S
C564 H556 0.930 . S
C564 C562 1.419 . S
C564 C565 1.362 . S
C565 H557 0.930 . S
C565 C564 1.362 . S
C565 C568 1.409 . S
C566 H558 0.930 . S
C566 C567 1.355 . S
C566 C568 1.415 . S
C567 C566 1.355 . S
C567 C569 1.419 . S
C568 C563 1.425 . S
C568 C565 1.409 . S
C568 C566 1.415 . S
C569 H559 0.930 . S
C569 C567 1.419 . S
C569 C570 1.362 . S
C570 H560 0.930 . S
C570 C563 1.409 . S
C570 C569 1.362 . S
H571 C577 0.930 . S
H572 C580 0.930 . S
H573 C581 0.930 . S
H574 C582 0.930 . S
H575 C585 0.930 . S
H576 C586 0.930 . S
C577 H571 0.930 . S
C577 C578 1.355 . S
C577 C579 1.415 1_554 S
C578 C577 1.355 . S
C578 C580 1.419 1_554 S
C579 C577 1.415 1_556 S
C579 C584 1.425 . S
C579 C586 1.409 . S
C580 H572 0.930 . S
C580 C578 1.419 1_556 S
C580 C581 1.362 . S
C581 H573 0.930 . S
C581 C580 1.362 . S
C581 C584 1.409 . S
C582 H574 0.930 . S
C582 C583 1.355 . S
C582 C584 1.415 . S
C583 C582 1.355 . S
C583 C585 1.419 . S
C584 C579 1.425 . S
C584 C581 1.409 . S
C584 C582 1.415 . S
C585 H575 0.930 . S
C585 C583 1.419 . S
C585 C586 1.362 . S
C586 H576 0.930 . S
C586 C579 1.409 . S
C586 C585 1.362 . S
H587 C593 0.930 1_554 S
H588 C596 0.930 . S
H589 C597 0.930 . S
H590 C598 0.930 . S
H591 C601 0.930 . S
H592 C602 0.930 1_554 S
C593 H587 0.930 1_556 S
C593 C594 1.355 . S
C593 C595 1.415 . S
C594 C593 1.355 . S
C594 C596 1.419 . S
C595 C593 1.415 . S
C595 C600 1.425 . S
C595 C602 1.409 . S
C596 H588 0.930 . S
C596 C594 1.419 . S
C596 C597 1.362 . S
C597 H589 0.930 . S
C597 C596 1.362 . S
C597 C600 1.409 . S
C598 H590 0.930 . S
C598 C599 1.355 . S
C598 C600 1.415 . S
C599 C598 1.355 . S
C599 C601 1.419 . S
C600 C595 1.425 . S
C600 C597 1.409 . S
C600 C598 1.415 . S
C601 H591 0.930 . S
C601 C599 1.419 . S
C601 C602 1.362 . S
C602 H592 0.930 1_556 S
C602 C595 1.409 . S
C602 C601 1.362 . S
H603 C609 0.930 . S
H604 C612 0.930 . S
H605 C613 0.930 . S
H606 C614 0.930 . S
H607 C617 0.930 . S
H608 C618 0.930 . S
C609 H603 0.930 . S
C609 C610 1.355 . S
C609 C611 1.415 . S
C610 C609 1.355 . S
C610 C612 1.419 . S
C611 C609 1.415 . S
C611 C616 1.425 . S
C611 C618 1.409 . S
C612 H604 0.930 . S
C612 C610 1.419 . S
C612 C613 1.362 . S
C613 H605 0.930 . S
C613 C612 1.362 . S
C613 C616 1.409 . S
C614 H606 0.930 . S
C614 C615 1.355 . S
C614 C616 1.415 . S
C615 C614 1.355 . S
C615 C617 1.419 . S
C616 C611 1.425 . S
C616 C613 1.409 . S
C616 C614 1.415 . S
C617 H607 0.930 . S
C617 C615 1.419 . S
C617 C618 1.362 . S
C618 H608 0.930 . S
C618 C611 1.409 . S
C618 C617 1.362 . S
H619 C625 0.930 . S
H620 C628 0.930 . S
H621 C629 0.930 . S
H622 C630 0.930 . S
H623 C633 0.930 . S
H624 C634 0.930 . S
C625 H619 0.930 . S
C625 C626 1.355 . S
C625 C627 1.415 . S
C626 C625 1.355 . S
C626 C628 1.419 . S
C627 C625 1.415 . S
C627 C632 1.425 . S
C627 C634 1.409 . S
C628 H620 0.930 . S
C628 C626 1.419 . S
C628 C629 1.362 . S
C629 H621 0.930 . S
C629 C628 1.362 . S
C629 C632 1.409 . S
C630 H622 0.930 . S
C630 C631 1.355 . S
C630 C632 1.415 . S
C631 C630 1.355 . S
C631 C633 1.419 . S
C632 C627 1.425 . S
C632 C629 1.409 . S
C632 C630 1.415 . S
C633 H623 0.930 . S
C633 C631 1.419 . S
C633 C634 1.362 . S
C634 H624 0.930 . S
C634 C627 1.409 . S
C634 C633 1.362 . S
H635 C641 0.930 . S
H636 C644 0.930 . S
H637 C645 0.929 1_554 S
H638 C646 0.930 . S
H639 C649 0.930 . S
H640 C650 0.930 . S
C641 H635 0.930 . S
C641 C642 1.355 . S
C641 C643 1.415 . S
C642 C641 1.355 . S
C642 C644 1.419 1_556 S
C643 C641 1.415 . S
C643 C648 1.425 . S
C643 C650 1.409 . S
C644 H636 0.930 . S
C644 C642 1.419 1_554 S
C644 C645 1.362 1_554 S
C645 H637 0.929 1_556 S
C645 C644 1.362 1_556 S
C645 C648 1.409 . S
C646 H638 0.930 . S
C646 C647 1.355 . S
C646 C648 1.415 . S
C647 C646 1.355 . S
C647 C649 1.419 . S
C648 C643 1.425 . S
C648 C645 1.409 . S
C648 C646 1.415 . S
C649 H639 0.930 . S
C649 C647 1.419 . S
C649 C650 1.362 . S
C650 H640 0.930 . S
C650 C643 1.409 . S
C650 C649 1.362 . S
H651 C657 0.930 . S
H652 C660 0.930 . S
H653 C661 0.930 . S
H654 C662 0.930 . S
H655 C665 0.930 . S
H656 C666 0.930 . S
C657 H651 0.930 . S
C657 C658 1.355 . S
C657 C659 1.415 1_554 S
C658 C657 1.355 . S
C658 C660 1.419 . S
C659 C657 1.415 1_556 S
C659 C664 1.425 . S
C659 C666 1.409 . S
C660 H652 0.930 . S
C660 C658 1.419 . S
C660 C661 1.362 . S
C661 H653 0.930 . S
C661 C660 1.362 . S
C661 C664 1.409 1_554 S
C662 H654 0.930 . S
C662 C663 1.355 . S
C662 C664 1.415 . S
C663 C662 1.355 . S
C663 C665 1.419 . S
C664 C659 1.425 . S
C664 C661 1.409 1_556 S
C664 C662 1.415 . S
C665 H655 0.930 . S
C665 C663 1.419 . S
C665 C666 1.362 . S
C666 H656 0.930 . S
C666 C659 1.409 . S
C666 C665 1.362 . S
H667 C673 0.930 . S
H668 C676 0.930 . S
H669 C677 0.930 . S
H670 C678 0.930 . S
H671 C681 0.930 . S
H672 C682 0.930 . S
C673 H667 0.930 . S
C673 C674 1.355 . S
C673 C675 1.415 . S
C674 C673 1.355 . S
C674 C676 1.419 . S
C675 C673 1.415 . S
C675 C680 1.425 . S
C675 C682 1.409 . S
C676 H668 0.930 . S
C676 C674 1.419 . S
C676 C677 1.362 . S
C677 H669 0.930 . S
C677 C676 1.362 . S
C677 C680 1.409 . S
C678 H670 0.930 . S
C678 C679 1.355 . S
C678 C680 1.415 . S
C679 C678 1.355 . S
C679 C681 1.419 . S
C680 C675 1.425 . S
C680 C677 1.409 . S
C680 C678 1.415 . S
C681 H671 0.930 . S
C681 C679 1.419 . S
C681 C682 1.362 . S
C682 H672 0.930 . S
C682 C675 1.409 . S
C682 C681 1.362 . S
H683 C689 0.930 . S
H684 C692 0.930 . S
H685 C693 0.930 . S
H686 C694 0.930 . S
H687 C697 0.930 . S
H688 C698 0.930 . S
C689 H683 0.930 . S
C689 C690 1.355 . S
C689 C691 1.415 . S
C690 C689 1.355 . S
C690 C692 1.419 . S
C691 C689 1.415 . S
C691 C696 1.425 . S
C691 C698 1.409 . S
C692 H684 0.930 . S
C692 C690 1.419 . S
C692 C693 1.362 . S
C693 H685 0.930 . S
C693 C692 1.362 . S
C693 C696 1.409 . S
C694 H686 0.930 . S
C694 C695 1.355 . S
C694 C696 1.415 . S
C695 C694 1.355 . S
C695 C697 1.419 . S
C696 C691 1.425 . S
C696 C693 1.409 . S
C696 C694 1.415 . S
C697 H687 0.930 . S
C697 C695 1.419 . S
C697 C698 1.362 . S
C698 H688 0.930 . S
C698 C691 1.409 . S
C698 C697 1.362 . S
H699 C705 0.930 . S
H700 C708 0.930 . S
H701 C709 0.930 . S
H702 C710 0.930 . S
H703 C713 0.930 . S
H704 C714 0.930 . S
C705 H699 0.930 . S
C705 C706 1.355 . S
C705 C707 1.415 . S
C706 C705 1.355 . S
C706 C708 1.419 . S
C707 C705 1.415 . S
C707 C712 1.425 . S
C707 C714 1.409 . S
C708 H700 0.930 . S
C708 C706 1.419 . S
C708 C709 1.362 . S
C709 H701 0.930 . S
C709 C708 1.362 . S
C709 C712 1.409 . S
C710 H702 0.930 . S
C710 C711 1.355 . S
C710 C712 1.415 . S
C711 C710 1.355 . S
C711 C713 1.419 . S
C712 C707 1.425 . S
C712 C709 1.409 . S
C712 C710 1.415 . S
C713 H703 0.930 . S
C713 C711 1.419 . S
C713 C714 1.362 . S
C714 H704 0.930 . S
C714 C707 1.409 . S
C714 C713 1.362 . S
H715 C721 0.930 . S
H716 C724 0.930 . S
H717 C725 0.930 . S
H718 C726 0.930 . S
H719 C729 0.930 . S
H720 C730 0.930 . S
C721 H715 0.930 . S
C721 C722 1.355 . S
C721 C723 1.415 . S
C722 C721 1.355 . S
C722 C724 1.419 . S
C723 C721 1.415 . S
C723 C728 1.425 . S
C723 C730 1.409 . S
C724 H716 0.930 . S
C724 C722 1.419 . S
C724 C725 1.362 . S
C725 H717 0.930 . S
C725 C724 1.362 . S
C725 C728 1.409 . S
C726 H718 0.930 . S
C726 C727 1.355 . S
C726 C728 1.415 . S
C727 C726 1.355 . S
C727 C729 1.419 . S
C728 C723 1.425 . S
C728 C725 1.409 . S
C728 C726 1.415 . S
C729 H719 0.930 . S
C729 C727 1.419 . S
C729 C730 1.362 . S
C730 H720 0.930 . S
C730 C723 1.409 . S
C730 C729 1.362 . S
H731 C737 0.930 . S
H732 C740 0.930 . S
H733 C741 0.930 . S
H734 C742 0.930 . S
H735 C745 0.930 . S
H736 C746 0.930 . S
C737 H731 0.930 . S
C737 C738 1.355 . S
C737 C739 1.415 . S
C738 C737 1.355 . S
C738 C740 1.419 . S
C739 C737 1.415 . S
C739 C744 1.425 . S
C739 C746 1.409 . S
C740 H732 0.930 . S
C740 C738 1.419 . S
C740 C741 1.362 . S
C741 H733 0.930 . S
C741 C740 1.362 . S
C741 C744 1.409 . S
C742 H734 0.930 . S
C742 C743 1.355 . S
C742 C744 1.415 . S
C743 C742 1.355 . S
C743 C745 1.419 . S
C744 C739 1.425 . S
C744 C741 1.409 . S
C744 C742 1.415 . S
C745 H735 0.930 . S
C745 C743 1.419 . S
C745 C746 1.362 . S
C746 H736 0.930 . S
C746 C739 1.409 . S
C746 C745 1.362 . S
H747 C753 0.930 . S
H748 C756 0.930 . S
H749 C757 0.930 . S
H750 C758 0.930 . S
H751 C761 0.930 . S
H752 C762 0.930 . S
C753 H747 0.930 . S
C753 C754 1.355 . S
C753 C755 1.415 . S
C754 C753 1.355 . S
C754 C756 1.419 . S
C755 C753 1.415 . S
C755 C760 1.425 . S
C755 C762 1.409 . S
C756 H748 0.930 . S
C756 C754 1.419 . S
C756 C757 1.362 . S
C757 H749 0.930 . S
C757 C756 1.362 . S
C757 C760 1.409 . S
C758 H750 0.930 . S
C758 C759 1.355 . S
C758 C760 1.415 . S
C759 C758 1.355 . S
C759 C761 1.419 . S
C760 C755 1.425 . S
C760 C757 1.409 . S
C760 C758 1.415 . S
C761 H751 0.930 . S
C761 C759 1.419 . S
C761 C762 1.362 . S
C762 H752 0.930 . S
C762 C755 1.409 . S
C762 C761 1.362 . S
H763 C769 0.930 . S
H764 C772 0.930 . S
H765 C773 0.930 . S
H766 C774 0.930 . S
H767 C777 0.930 . S
H768 C778 0.930 . S
C769 H763 0.930 . S
C769 C770 1.355 . S
C769 C771 1.415 . S
C770 C769 1.355 . S
C770 C772 1.419 . S
C771 C769 1.415 . S
C771 C776 1.425 . S
C771 C778 1.409 . S
C772 H764 0.930 . S
C772 C770 1.419 . S
C772 C773 1.362 . S
C773 H765 0.930 . S
C773 C772 1.362 . S
C773 C776 1.409 . S
C774 H766 0.930 . S
C774 C775 1.355 . S
C774 C776 1.415 . S
C775 C774 1.355 . S
C775 C777 1.419 . S
C776 C771 1.425 . S
C776 C773 1.409 . S
C776 C774 1.415 . S
C777 H767 0.930 . S
C777 C775 1.419 . S
C777 C778 1.362 . S
C778 H768 0.930 . S
C778 C771 1.409 . S
C778 C777 1.362 . S
H779 C785 0.930 . S
H780 C788 0.930 . S
H781 C789 0.930 . S
H782 C790 0.930 . S
H783 C793 0.930 . S
H784 C794 0.930 . S
C785 H779 0.930 . S
C785 C786 1.355 . S
C785 C787 1.415 . S
C786 C785 1.355 . S
C786 C788 1.419 . S
C787 C785 1.415 . S
C787 C792 1.425 . S
C787 C794 1.409 . S
C788 H780 0.930 . S
C788 C786 1.419 . S
C788 C789 1.362 . S
C789 H781 0.930 . S
C789 C788 1.362 . S
C789 C792 1.409 . S
C790 H782 0.930 . S
C790 C791 1.355 . S
C790 C792 1.415 . S
C791 C790 1.355 . S
C791 C793 1.419 . S
C792 C787 1.425 . S
C792 C789 1.409 . S
C792 C790 1.415 . S
C793 H783 0.930 . S
C793 C791 1.419 . S
C793 C794 1.362 . S
C794 H784 0.930 . S
C794 C787 1.409 . S
C794 C793 1.362 . S
C418 C22 1.787 . S
C423 C318 1.700 . S
C434 C92 1.747 . S
C439 C350 1.707 . S
C455 C409 1.962 . S
C450 C144 2.027 . S
C471 C338 1.557 . S
C466 C197 1.586 . S
C482 C250 1.916 . S
C487 C368 1.835 . S
C503 C390 1.278 . S
C498 C287 1.318 . S
C519 C359 1.840 . S
C514 C145 1.877 . S
C530 C198 1.478 . S
C535 C399 1.383 . S
C551 C348 1.803 . S
C546 C251 1.824 . S
C562 C294 1.506 . S
C567 C378 1.462 . S
C578 C29 1.784 . S
C583 C381 1.751 . S
C599 C320 1.818 . S
C594 C91 1.847 1_556 S
C615 C328 1.465 . S
C610 C188 1.525 . S
C631 C369 1.271 . S
C626 C241 1.312 . S
C647 C382 1.802 . S
C642 C304 1.855 1_556 S
C663 C319 1.381 . S
C658 C39 1.411 . S
C679 C379 1.336 . S
C674 C75 1.390 . S
C690 C135 1.206 . S
C695 C380 1.181 . S
C711 C349 1.569 . S
C706 C303 1.651 . S
C727 C410 1.162 . S
C722 C38 1.216 . S
C743 C337 1.312 . S
C738 C82 1.396 . S
C759 C351 1.360 . S
C754 C128 1.386 . S
C770 C181 1.639 . S
C775 C400 1.618 . S
C786 C234 1.411 . S
C791 C347 1.377 . S
