# Generated by pormake.
# Topology pth, (4,4)-cn, num edge types: 1
# Building blocks:
#     Node 0, Type 0, BuildingBlock: UXUYUI_clean_sbu_0, # of connection points: 4
#     Node 1, Type 0, BuildingBlock: UXUYUI_clean_sbu_0, # of connection points: 4
#     Node 2, Type 0, BuildingBlock: UXUYUI_clean_sbu_0, # of connection points: 4
#     Node 3, Type 1, BuildingBlock: MUDLON_clean_sbu_0, # of connection points: 4
#     Node 4, Type 1, BuildingBlock: MUDLON_clean_sbu_0, # of connection points: 4
#     Node 5, Type 1, BuildingBlock: MUDLON_clean_sbu_0, # of connection points: 4
#     Edge 6, Type (0, 1), None
#     Edge 7, Type (0, 1), None
#     Edge 8, Type (0, 1), None
#     Edge 9, Type (0, 1), None
#     Edge 10, Type (0, 1), None
#     Edge 11, Type (0, 1), None
#     Edge 12, Type (0, 1), None
#     Edge 13, Type (0, 1), None
#     Edge 14, Type (0, 1), None
#     Edge 15, Type (0, 1), None
#     Edge 16, Type (0, 1), None
#     Edge 17, Type (0, 1), None
# Relax obj value: 0.110
# Max RMSD: 0.229
# Mean RMSD: 0.139
data_MOF--net-pth--node1-UXUYUI_clean_sbu_0--node2-MUDLON_clean_sbu_0--edge1-none
_symmetry_space_group_name_H-M    P1
_symmetry_Int_Tables_number       1
_symmetry_cell_setting            triclinic
loop_
_symmetry_equiv_pos_as_xyz
'x, y, z'
_cell_length_a     15.57615
_cell_length_b     15.603971
_cell_length_c     40.101842
_cell_angle_alpha  90.302583
_cell_angle_beta   89.637071
_cell_angle_gamma 119.80853
loop_
_atom_site_label
_atom_site_type_symbol
_atom_site_fract_x
_atom_site_fract_y
_atom_site_fract_z
_atom_type_partial_charge
Li0 Li 0.08033 0.05123 0.09131 0.0
Li1 Li 0.9781 0.05152 0.13754 0.0
Li2 Li 0.02757 0.92176 0.13362 0.0
Li3 Li 0.90136 0.92158 0.09515 0.0
C4 C 0.19659 0.14768 0.14969 0.0
N5 N 0.36802 0.31417 0.16971 0.0
C6 C 0.20079 0.23922 0.15095 0.0
C7 C 0.2791 0.14053 0.15904 0.0
C8 C 0.28827 0.3226 0.16102 0.0
C9 C 0.36523 0.22565 0.16897 0.0
C10 C 0.95847 0.14822 0.07942 0.0
C11 C 0.86875 0.22777 0.06054 0.0
N12 N 0.95458 0.31587 0.06005 0.0
C13 C 0.04592 0.23934 0.07842 0.0
C14 C 0.86923 0.14206 0.07014 0.0
C15 C 0.04236 0.32333 0.06868 0.0
C16 C 0.15225 0.09964 1.02683 0.0
N17 N 0.18217 0.12514 0.05887 0.0
C18 C 0.34299 0.24926 0.04027 0.0
C19 C 0.27627 0.19701 0.06602 0.0
C20 C 0.31262 0.22689 1.00689 0.0
C21 C 0.21643 0.14923 1.00041 0.0
H22 H 0.07736 0.0417 1.02182 0.0
H23 H 0.29942 0.21581 0.09155 0.0
C24 C 0.95635 0.10092 0.20218 0.0
N25 N 0.95114 0.12613 0.17019 0.0
C26 C 0.94345 0.15163 0.22874 0.0
C27 C 0.91684 0.25208 0.18914 0.0
C28 C 0.9296 0.19872 0.16325 0.0
C29 C 0.92584 0.23012 0.22245 0.0
H30 H 0.97281 0.04246 0.20703 0.0
H31 H 0.92468 0.21733 0.13776 0.0
C32 C 0.08548 0.88357 0.07072 0.0
N33 N 0.22271 0.841 0.04292 0.0
C34 C 0.06064 0.82173 0.04287 0.0
C35 C 0.18011 0.92404 0.08439 0.0
C36 C 0.13107 0.80098 0.02919 0.0
C37 C 0.24845 0.90158 0.06999 0.0
C38 C 0.80573 0.88443 0.15796 0.0
C39 C 0.76855 0.82271 0.18573 0.0
C40 C 0.75182 0.92518 0.14422 0.0
C41 C 0.67745 0.80236 0.19925 0.0
C42 C 0.66109 0.9031 0.15847 0.0
N43 N 0.62606 0.84263 0.18546 0.0
C44 C 0.10157 0.86034 0.18819 0.0
C45 C 0.0352 0.74773 0.14307 0.0
C46 C 0.11527 0.79195 0.20657 0.0
N47 N 0.06027 0.83622 0.15734 0.0
C48 C 0.04858 0.67787 0.16031 0.0
C49 C 0.08624 0.69822 0.19292 0.0
H50 H 0.1204 0.9312 0.199 0.0
H51 H 1.00139 0.72986 0.11869 0.0
C52 C 0.76551 0.85796 0.04042 0.0
N53 N 0.78327 0.83518 0.07138 0.0
C54 C 0.68393 0.78843 1.02208 0.0
C55 C 0.63807 0.67605 0.06861 0.0
C56 C 0.72077 0.74697 0.0858 0.0
C57 C 0.62031 0.69493 0.03587 0.0
H58 H 0.8168 0.92859 0.02948 0.0
H59 H 0.73715 0.73008 0.11024 0.0
O60 O 0.11174 0.06493 0.14003 0.0
O61 O 0.96007 0.0649 0.08877 0.0
O62 O 0.01768 0.90531 0.08421 0.0
O63 O 0.89516 0.90572 0.1446 0.0
H64 H 0.13732 0.24595 0.14428 0.0
H65 H 0.27672 0.07001 0.15853 0.0
H66 H 0.29269 0.39398 0.16198 0.0
H67 H 0.42983 0.22133 0.17611 0.0
H68 H 0.80015 0.22422 0.05345 0.0
H69 H 0.11582 0.2453 0.08503 0.0
H70 H 0.80102 0.07185 0.07044 0.0
H71 H 0.10942 0.39441 0.06792 0.0
H72 H 0.41621 0.30872 0.04648 0.0
H73 H 0.18938 0.12919 0.97515 0.0
H74 H 0.9512 0.13189 0.25395 0.0
H75 H 0.90368 0.31211 0.18306 0.0
H76 H 0.98772 0.79018 0.03194 0.0
H77 H 0.20062 0.97247 0.10582 0.0
H78 H 0.11291 0.75315 1.00764 0.0
H79 H 0.32197 0.93238 0.0803 0.0
H80 H 0.80972 0.79095 0.1967 0.0
H81 H 0.77987 0.97349 0.12285 0.0
H82 H 0.64763 0.75461 0.22073 0.0
H83 H 0.61856 0.93411 0.1481 0.0
H84 H 0.14398 0.81067 0.23169 0.0
H85 H 0.02462 0.60665 0.14876 0.0
H86 H 0.67359 0.80604 0.99686 0.0
H87 H 0.59165 0.60509 0.08028 0.0
Li88 Li 0.99543 0.9242 0.42581 0.0
Li89 Li 0.11051 0.03425 0.46851 0.0
Li90 Li 0.92996 0.98716 0.46921 0.0
Li91 Li 0.04424 0.10498 0.42779 0.0
C92 C 0.95507 0.80368 0.48001 0.0
N93 N 0.88471 0.6043 0.48948 0.0
C94 C 0.02034 0.76964 0.48773 0.0
C95 C 0.85382 0.73644 0.47772 0.0
C96 C 0.98342 0.66853 0.49224 0.0
C97 C 0.81972 0.63593 0.48244 0.0
C98 C 0.22535 0.09313 0.40907 0.0
C99 C 0.38017 0.24452 0.40133 0.0
N100 N 0.4211 0.19198 0.38864 0.0
C101 C 0.26862 0.04089 0.3954 0.0
C102 C 0.28129 0.19595 0.41161 0.0
C103 C 0.36778 0.09206 0.38545 0.0
C104 C 0.91161 0.78097 0.37151 0.0
N105 N 0.97666 0.81775 0.39734 0.0
C106 C 0.05021 0.72156 0.381 0.0
C107 C 0.04363 0.78784 0.4027 0.0
C108 C 0.98706 0.68507 0.35338 0.0
C109 C 0.91483 0.71291 0.34919 0.0
H110 H 0.86045 0.80761 0.36729 0.0
H111 H 0.09566 0.81966 0.42296 0.0
C112 C 0.23745 0.09454 0.52592 0.0
N113 N 0.21903 0.05172 0.49517 0.0
C114 C 0.30798 0.09163 0.54669 0.0
C115 C 0.33973 1.00234 0.50344 0.0
C116 C 0.2697 0.00775 0.48354 0.0
C117 C 0.35768 0.04223 0.53577 0.0
H118 H 0.19415 0.12666 0.53499 0.0
H119 H 0.25121 0.97119 0.45959 0.0
C120 C 0.81384 0.95274 0.41411 0.0
N121 N 0.61541 0.88595 0.40317 0.0
C122 C 0.78174 0.01951 0.40639 0.0
C123 C 0.7452 0.85185 0.41563 0.0
C124 C 0.68106 0.98437 0.40114 0.0
C125 C 0.64518 0.81956 0.41019 0.0
C126 C 0.09824 0.21425 0.48848 0.0
C127 C 0.04454 0.25605 0.5021 0.0
C128 C 0.20145 0.2702 0.48717 0.0
C129 C 0.09477 0.35391 0.51321 0.0
C130 C 0.24903 0.36775 0.49859 0.0
N131 N 0.19514 0.40733 0.5112 0.0
C132 C 0.78547 0.90133 0.52293 0.0
C133 C 0.79104 0.03313 0.49207 0.0
C134 C 0.7167 0.90316 0.54532 0.0
N135 N 0.82193 0.9669 0.49723 0.0
C136 C 0.72391 0.03826 0.51384 0.0
C137 C 0.68777 0.97455 0.54135 0.0
H138 H 0.81304 0.85092 0.52703 0.0
H139 H 0.82291 0.08587 0.472 0.0
C140 C 0.11064 0.23687 0.37157 0.0
N141 N 0.06534 0.21631 0.40196 0.0
C142 C 0.11046 0.30964 0.35127 0.0
C143 C 0.01915 0.33952 0.39433 0.0
C144 C 0.02172 0.26716 0.41375 0.0
C145 C 0.06131 0.35954 0.36229 0.0
H146 H 0.14255 0.19356 0.36236 0.0
H147 H 0.98315 0.24705 0.43737 0.0
O148 O 0.99 0.90242 0.47524 0.0
O149 O 0.12811 0.04401 0.41896 0.0
O150 O 0.9121 0.98592 0.41961 0.0
O151 O 0.05004 0.11829 0.47747 0.0
H152 H 0.09876 0.82058 0.49001 0.0
H153 H 0.80196 0.76161 0.47265 0.0
H154 H 0.03324 0.64115 0.49796 0.0
H155 H 0.74154 0.5831 0.48061 0.0
H156 H 0.42421 0.32406 0.40328 0.0
H157 H 0.22642 0.96158 0.39263 0.0
H158 H 0.24848 0.2382 0.42092 0.0
H159 H 0.40229 0.05233 0.37512 0.0
H160 H 0.10688 0.70184 0.38517 0.0
H161 H 0.86571 0.68716 0.32793 0.0
H162 H 0.31855 0.12173 0.57169 0.0
H163 H 0.37595 0.96294 0.49418 0.0
H164 H 0.83384 0.09771 0.40471 0.0
H165 H 0.76893 0.79892 0.42069 0.0
H166 H 0.65515 0.03534 0.39543 0.0
H167 H 0.59126 0.74166 0.41143 0.0
H168 H 0.96485 0.21375 0.50391 0.0
H169 H 0.2447 0.23838 0.47794 0.0
H170 H 0.05393 0.38731 0.5235 0.0
H171 H 0.32887 0.4118 0.4976 0.0
H172 H 0.69126 0.85361 0.56648 0.0
H173 H 0.70343 0.09438 0.50985 0.0
H174 H 0.1422 0.32168 0.32646 0.0
H175 H 0.97973 0.37569 0.40364 0.0
Li176 Li 0.06141 0.96582 0.75755 0.0
Li177 Li 0.08054 0.09078 0.79993 0.0
Li178 Li 0.94218 0.91606 0.80392 0.0
Li179 Li 0.93822 0.02935 0.76177 0.0
C180 C 0.13662 0.91911 0.8146 0.0
N181 N 0.23913 0.82227 0.82998 0.0
C182 C 0.23064 0.97095 0.82886 0.0
C183 C 0.09458 0.81802 0.80831 0.0
C184 C 0.28134 0.92067 0.83641 0.0
C185 C 0.14758 0.77037 0.81624 0.0
C186 C 0.158 0.18818 0.73842 0.0
C187 C 0.22428 0.35698 0.72062 0.0
N188 N 0.31268 0.3625 0.71407 0.0
C189 C 0.24903 0.19508 0.73101 0.0
C190 C 0.14502 0.26933 0.73275 0.0
C191 C 0.32651 0.28402 0.71893 0.0
C192 C 0.08963 0.90149 0.69505 0.0
N193 N 0.12903 0.92624 0.72613 0.0
C194 C 0.26939 0.91325 0.70856 0.0
C195 C 0.2164 0.93069 0.73338 0.0
C196 C 0.23334 0.89327 0.67574 0.0
C197 C 0.14071 0.8847 0.66937 0.0
H198 H 0.02036 0.89905 0.68986 0.0
H199 H 0.24792 0.95276 0.75793 0.0
C200 C 0.15032 0.23643 0.85251 0.0
N201 N 0.17624 0.20109 0.82542 0.0
C202 C 0.22314 0.30954 0.87274 0.0
C203 C 0.34758 0.30906 0.83663 0.0
C204 C 0.27271 0.23647 0.81717 0.0
C205 C 0.32332 0.34495 0.86527 0.0
H206 H 0.07348 0.20498 0.85947 0.0
H207 H 0.29179 0.20466 0.79646 0.0
C208 C 0.84265 0.79636 0.75047 0.0
N209 N 0.69717 0.60208 0.74112 0.0
C210 C 0.74312 0.77113 0.74971 0.0
C211 C 0.86834 0.72313 0.74578 0.0
C212 C 0.67061 0.67239 0.74518 0.0
C213 C 0.79368 0.62524 0.74126 0.0
C214 C 0.90502 0.10236 0.82129 0.0
C215 C 0.82756 0.06982 0.8444 0.0
C216 C 0.94674 0.19776 0.80832 0.0
C217 C 0.79276 0.13335 0.854 0.0
C218 C 0.90998 0.25911 0.81856 0.0
N219 N 0.83431 0.22587 0.84098 0.0
C220 C 0.87784 0.76376 0.85586 0.0
C221 C 0.76206 0.80307 0.83276 0.0
C222 C 0.80634 0.69796 0.87843 0.0
N223 N 0.85429 0.81481 0.83373 0.0
C224 C 0.68926 0.73929 0.85477 0.0
C225 C 0.71113 0.68677 0.87836 0.0
H226 H 0.9524 0.77614 0.85685 0.0
H227 H 0.746 0.84608 0.81545 0.0
C228 C 0.87273 0.09865 0.70682 0.0
N229 N 0.85057 0.05938 0.738 0.0
C230 C 0.8024 0.1095 0.6885 0.0
C231 C 0.69031 0.04411 0.73543 0.0
C232 C 0.76204 0.03351 0.75259 0.0
C233 C 0.70871 0.07969 0.70254 0.0
H234 H 0.94348 0.11789 0.69568 0.0
H235 H 0.74537 1.0006 0.77711 0.0
O236 O 0.08685 0.96767 0.80652 0.0
O237 O 0.08106 0.10139 0.75003 0.0
O238 O 0.91469 0.89262 0.75494 0.0
O239 O 0.93861 0.04043 0.81105 0.0
H240 H 0.26425 0.04923 0.83392 0.0
H241 H 0.02162 0.77675 0.7976 0.0
H242 H 0.35428 0.95989 0.84736 0.0
H243 H 0.11589 0.69213 0.81149 0.0
H244 H 0.21538 0.42048 0.71626 0.0
H245 H 0.2602 0.13284 0.73495 0.0
H246 H 0.07433 0.26461 0.73737 0.0
H247 H 0.39764 0.29064 0.71342 0.0
H248 H 0.34069 0.92144 0.71466 0.0
H249 H 0.11008 0.86981 0.64446 0.0
H250 H 0.20123 0.33377 0.89495 0.0
H251 H 0.42389 0.33348 0.83009 0.0
H252 H 0.72204 0.82714 0.75277 0.0
H253 H 0.9451 0.74171 0.74533 0.0
H254 H 0.59323 0.65169 0.74482 0.0
H255 H 0.81249 0.56774 0.73774 0.0
H256 H 0.79453 0.99627 0.85477 0.0
H257 H 1.0072 0.22414 0.7907 0.0
H258 H 0.7327 0.10908 0.8718 0.0
H259 H 0.94163 0.33315 0.8087 0.0
H260 H 0.82631 0.65949 0.89645 0.0
H261 H 0.61684 0.73295 0.85368 0.0
H262 H 0.81963 0.13664 0.66315 0.0
H263 H 0.61913 0.0194 0.74726 0.0
Mg264 Mg 0.0113 0.50254 0.27756 0.0
C265 C 0.03835 0.41877 0.33921 0.0
O266 O 0.95506 0.41942 0.34356 0.0
C267 C 0.08037 0.61715 0.21378 0.0
O268 O 0.03603 0.5268 0.20182 0.0
C269 C 0.93061 0.29569 0.25022 0.0
O270 O 0.95805 0.28326 0.27983 0.0
O271 O 0.92986 0.37544 0.24427 0.0
O272 O 0.08765 0.45564 0.31249 0.0
O273 O 0.93938 0.56289 0.3094 0.0
C274 C 1.00669 0.62844 0.3278 0.0
O275 O 0.09776 0.64548 0.32411 0.0
O276 O 0.09549 0.62946 0.24504 0.0
Mg277 Mg 0.50687 0.99396 0.61917 0.0
C278 C 0.4158 0.01809 0.55894 0.0
O279 O 0.41745 0.93558 0.55422 0.0
C280 C 0.62587 0.07082 0.68191 0.0
O281 O 0.53624 0.02806 0.69462 0.0
C282 C 0.29809 0.89762 0.64767 0.0
O283 O 0.27796 0.91387 0.6174 0.0
O284 O 0.38361 0.90951 0.65357 0.0
O285 O 0.45336 0.06725 0.58558 0.0
O286 O 0.56789 0.92512 0.58627 0.0
C287 C 0.63024 0.99254 0.56708 0.0
O288 O 0.64426 0.08243 0.57051 0.0
O289 O 0.63595 0.08174 0.65044 0.0
Mg290 Mg 0.50362 0.49662 0.95153 0.0
C291 C 0.40221 0.40726 0.88913 0.0
O292 O 0.48639 0.40715 0.88757 0.0
C293 C 0.54607 0.61254 1.01511 0.0
O294 O 0.50286 0.52246 1.02712 0.0
C295 C 0.37417 0.29127 0.97916 0.0
O296 O 0.33424 0.27945 0.94958 0.0
O297 O 0.4558 0.36975 0.98504 0.0
O298 O 0.38598 0.44767 0.91429 0.0
O299 O 0.6377 0.55999 0.92086 0.0
C300 C 0.63511 0.627 0.90355 0.0
O301 O 0.56036 0.64266 0.90809 0.0
O302 O 0.54199 0.62384 0.98385 0.0
loop_
_geom_bond_atom_site_label_1
_geom_bond_atom_site_label_2
_geom_bond_distance
_geom_bond_site_symmetry_2
_ccdc_geom_bond_type
Li0 N17 1.990 . S
Li0 O60 1.956 . S
Li0 O61 1.970 1_455 S
Li0 O62 1.961 1_545 S
Li1 N25 1.990 . S
Li1 O60 1.970 1_655 S
Li1 O61 1.956 . S
Li1 O63 1.961 1_545 S
Li2 N47 1.990 . S
Li2 O60 1.961 1_565 S
Li2 O62 1.956 . S
Li2 O63 1.970 1_455 S
Li3 N53 1.990 . S
Li3 O61 1.961 1_565 S
Li3 O62 1.970 1_655 S
Li3 O63 1.956 . S
C4 C6 1.348 . S
C4 C7 1.356 . S
C4 O60 1.325 . S
N5 C8 1.314 . S
N5 C9 1.279 . S
C6 C4 1.348 . S
C6 C8 1.353 . S
C6 H64 0.929 . S
C7 C4 1.356 . S
C7 C9 1.358 . S
C7 H65 0.930 . S
C8 N5 1.314 . S
C8 C6 1.353 . S
C8 H66 0.930 . S
C9 N5 1.279 . S
C9 C7 1.358 . S
C9 H67 0.930 . S
C10 C13 1.348 1_655 S
C10 C14 1.356 . S
C10 O61 1.325 . S
C11 N12 1.279 . S
C11 C14 1.358 . S
C11 H68 0.930 . S
N12 C11 1.279 . S
N12 C15 1.314 . S
C13 C10 1.348 1_455 S
C13 C15 1.353 1_455 S
C13 H69 0.929 . S
C14 C10 1.356 . S
C14 C11 1.358 . S
C14 H70 0.930 . S
C15 N12 1.314 . S
C15 C13 1.353 1_655 S
C15 H71 0.930 1_655 S
C16 N17 1.314 . S
C16 C21 1.353 1_554 S
C16 H22 0.940 . S
N17 Li0 1.990 . S
N17 C16 1.314 . S
N17 C19 1.279 . S
C18 C19 1.358 . S
C18 C20 1.356 1_554 S
C18 H72 0.930 . S
C19 N17 1.279 . S
C19 C18 1.358 . S
C19 H23 0.930 . S
C20 C18 1.356 1_556 S
C20 C21 1.348 . S
C21 C16 1.353 1_556 S
C21 C20 1.348 . S
C21 H73 0.929 . S
H22 C16 0.940 . S
H23 C19 0.930 . S
C24 N25 1.314 . S
C24 C26 1.353 . S
C24 H30 0.930 . S
N25 Li1 1.990 . S
N25 C24 1.314 . S
N25 C28 1.279 . S
C26 C24 1.353 . S
C26 C29 1.348 . S
C26 H74 0.929 . S
C27 C28 1.358 . S
C27 C29 1.356 . S
C27 H75 0.930 . S
C28 N25 1.279 . S
C28 C27 1.358 . S
C28 H31 0.930 . S
C29 C26 1.348 . S
C29 C27 1.356 . S
H30 C24 0.930 . S
H31 C28 0.930 . S
C32 C34 1.348 1_455 S
C32 C35 1.356 . S
C32 O62 1.325 . S
N33 C36 1.314 . S
N33 C37 1.279 . S
C34 C32 1.348 1_655 S
C34 C36 1.353 1_655 S
C34 H76 0.929 . S
C35 C32 1.356 . S
C35 C37 1.358 . S
C35 H77 0.930 . S
C36 N33 1.314 . S
C36 C34 1.353 1_455 S
C36 H78 0.930 1_455 S
C37 N33 1.279 . S
C37 C35 1.358 . S
C37 H79 0.930 . S
C38 C39 1.348 . S
C38 C40 1.356 . S
C38 O63 1.325 . S
C39 C38 1.348 . S
C39 C41 1.353 . S
C39 H80 0.929 . S
C40 C38 1.356 . S
C40 C42 1.358 . S
C40 H81 0.930 . S
C41 C39 1.353 . S
C41 N43 1.314 . S
C41 H82 0.930 . S
C42 C40 1.358 . S
C42 N43 1.279 . S
C42 H83 0.930 . S
N43 C41 1.314 . S
N43 C42 1.279 . S
C44 C46 1.353 . S
C44 N47 1.314 . S
C44 H50 0.930 . S
C45 N47 1.279 . S
C45 C48 1.358 . S
C45 H51 0.930 . S
C46 C44 1.353 . S
C46 C49 1.348 . S
C46 H84 0.929 . S
N47 Li2 1.990 . S
N47 C44 1.314 . S
N47 C45 1.279 . S
C48 C45 1.358 . S
C48 C49 1.356 . S
C48 H85 0.930 . S
C49 C46 1.348 . S
C49 C48 1.356 . S
H50 C44 0.930 . S
H51 C45 0.930 . S
C52 N53 1.314 . S
C52 C54 1.353 1_554 S
C52 H58 0.940 . S
N53 Li3 1.990 . S
N53 C52 1.314 . S
N53 C56 1.279 . S
C54 C52 1.353 1_556 S
C54 C57 1.348 . S
C54 H86 0.929 . S
C55 C56 1.358 . S
C55 C57 1.356 1_554 S
C55 H87 0.930 . S
C56 N53 1.279 . S
C56 C55 1.358 . S
C56 H59 0.930 . S
C57 C54 1.348 . S
C57 C55 1.356 1_556 S
H58 C52 0.940 . S
H59 C56 0.930 . S
O60 Li0 1.956 . S
O60 Li1 1.970 1_455 S
O60 Li2 1.961 1_545 S
O60 C4 1.325 . S
O61 Li0 1.970 1_655 S
O61 Li1 1.956 . S
O61 Li3 1.961 1_545 S
O61 C10 1.325 . S
O62 Li0 1.961 1_565 S
O62 Li2 1.956 . S
O62 Li3 1.970 1_455 S
O62 C32 1.325 . S
O63 Li1 1.961 1_565 S
O63 Li2 1.970 1_655 S
O63 Li3 1.956 . S
O63 C38 1.325 . S
H64 C6 0.929 . S
H65 C7 0.930 . S
H66 C8 0.930 . S
H67 C9 0.930 . S
H68 C11 0.930 . S
H69 C13 0.929 . S
H70 C14 0.930 . S
H71 C15 0.930 1_455 S
H72 C18 0.930 . S
H73 C21 0.929 . S
H74 C26 0.929 . S
H75 C27 0.930 . S
H76 C34 0.929 . S
H77 C35 0.930 . S
H78 C36 0.930 1_655 S
H79 C37 0.930 . S
H80 C39 0.929 . S
H81 C40 0.930 . S
H82 C41 0.930 . S
H83 C42 0.930 . S
H84 C46 0.929 . S
H85 C48 0.930 . S
H86 C54 0.929 . S
H87 C55 0.930 . S
Li88 N105 1.990 . S
Li88 O148 1.956 . S
Li88 O149 1.970 1_665 S
Li88 O150 1.961 . S
Li89 N113 1.990 . S
Li89 O148 1.970 1_445 S
Li89 O149 1.956 . S
Li89 O151 1.961 . S
Li90 N135 1.990 . S
Li90 O148 1.961 . S
Li90 O150 1.956 . S
Li90 O151 1.970 1_665 S
Li91 N141 1.990 . S
Li91 O149 1.961 . S
Li91 O150 1.970 1_445 S
Li91 O151 1.956 . S
C92 C94 1.348 1_655 S
C92 C95 1.356 . S
C92 O148 1.325 . S
N93 C96 1.314 . S
N93 C97 1.279 . S
C94 C92 1.348 1_455 S
C94 C96 1.353 1_455 S
C94 H152 0.929 . S
C95 C92 1.356 . S
C95 C97 1.358 . S
C95 H153 0.930 . S
C96 N93 1.314 . S
C96 C94 1.353 1_655 S
C96 H154 0.930 1_655 S
C97 N93 1.279 . S
C97 C95 1.358 . S
C97 H155 0.930 . S
C98 C101 1.348 1_545 S
C98 C102 1.356 . S
C98 O149 1.325 . S
C99 N100 1.279 . S
C99 C102 1.358 . S
C99 H156 0.930 . S
N100 C99 1.279 . S
N100 C103 1.314 . S
C101 C98 1.348 1_565 S
C101 C103 1.353 1_565 S
C101 H157 0.929 . S
C102 C98 1.356 . S
C102 C99 1.358 . S
C102 H158 0.930 . S
C103 N100 1.314 . S
C103 C101 1.353 1_545 S
C103 H159 0.930 1_545 S
C104 N105 1.314 . S
C104 C109 1.353 . S
C104 H110 0.930 . S
N105 Li88 1.990 . S
N105 C104 1.314 . S
N105 C107 1.279 . S
C106 C107 1.358 . S
C106 C108 1.356 . S
C106 H160 0.930 . S
C107 N105 1.279 . S
C107 C106 1.358 . S
C107 H111 0.930 . S
C108 C106 1.356 . S
C108 C109 1.348 . S
C109 C104 1.353 . S
C109 C108 1.348 . S
C109 H161 0.929 . S
H110 C104 0.930 . S
H111 C107 0.930 . S
C112 N113 1.314 . S
C112 C114 1.353 . S
C112 H118 0.930 . S
N113 Li89 1.990 . S
N113 C112 1.314 . S
N113 C116 1.279 . S
C114 C112 1.353 . S
C114 C117 1.348 . S
C114 H162 0.929 . S
C115 C116 1.358 . S
C115 C117 1.356 . S
C115 H163 0.930 . S
C116 N113 1.279 . S
C116 C115 1.358 . S
C116 H119 0.930 . S
C117 C114 1.348 . S
C117 C115 1.356 . S
H118 C112 0.930 . S
H119 C116 0.930 . S
C120 C122 1.348 1_565 S
C120 C123 1.356 . S
C120 O150 1.325 . S
N121 C124 1.314 . S
N121 C125 1.279 . S
C122 C120 1.348 1_545 S
C122 C124 1.353 1_545 S
C122 H164 0.929 . S
C123 C120 1.356 . S
C123 C125 1.358 . S
C123 H165 0.930 . S
C124 N121 1.314 . S
C124 C122 1.353 1_565 S
C124 H166 0.930 1_565 S
C125 N121 1.279 . S
C125 C123 1.358 . S
C125 H167 0.930 . S
C126 C127 1.348 1_455 S
C126 C128 1.356 . S
C126 O151 1.325 . S
C127 C126 1.348 1_655 S
C127 C129 1.353 1_655 S
C127 H168 0.929 . S
C128 C126 1.356 . S
C128 C130 1.358 . S
C128 H169 0.930 . S
C129 C127 1.353 1_455 S
C129 N131 1.314 . S
C129 H170 0.930 1_455 S
C130 C128 1.358 . S
C130 N131 1.279 . S
C130 H171 0.930 . S
N131 C129 1.314 . S
N131 C130 1.279 . S
C132 C134 1.353 . S
C132 N135 1.314 . S
C132 H138 0.930 . S
C133 N135 1.279 . S
C133 C136 1.358 . S
C133 H139 0.930 . S
C134 C132 1.353 . S
C134 C137 1.348 . S
C134 H172 0.929 . S
N135 Li90 1.990 . S
N135 C132 1.314 . S
N135 C133 1.279 . S
C136 C133 1.358 . S
C136 C137 1.356 . S
C136 H173 0.930 . S
C137 C134 1.348 . S
C137 C136 1.356 . S
H138 C132 0.930 . S
H139 C133 0.930 . S
C140 N141 1.314 . S
C140 C142 1.353 . S
C140 H146 0.930 . S
N141 Li91 1.990 . S
N141 C140 1.314 . S
N141 C144 1.279 . S
C142 C140 1.353 . S
C142 C145 1.348 . S
C142 H174 0.929 . S
C143 C144 1.358 . S
C143 C145 1.356 . S
C143 H175 0.930 . S
C144 N141 1.279 . S
C144 C143 1.358 . S
C144 H147 0.930 . S
C145 C142 1.348 . S
C145 C143 1.356 . S
H146 C140 0.930 . S
H147 C144 0.930 . S
O148 Li88 1.956 . S
O148 Li89 1.970 1_665 S
O148 Li90 1.961 . S
O148 C92 1.325 . S
O149 Li88 1.970 1_445 S
O149 Li89 1.956 . S
O149 Li91 1.961 . S
O149 C98 1.325 . S
O150 Li88 1.961 . S
O150 Li90 1.956 . S
O150 Li91 1.970 1_665 S
O150 C120 1.325 . S
O151 Li89 1.961 . S
O151 Li90 1.970 1_445 S
O151 Li91 1.956 . S
O151 C126 1.325 . S
H152 C94 0.929 . S
H153 C95 0.930 . S
H154 C96 0.930 1_455 S
H155 C97 0.930 . S
H156 C99 0.930 . S
H157 C101 0.929 . S
H158 C102 0.930 . S
H159 C103 0.930 1_565 S
H160 C106 0.930 . S
H161 C109 0.929 . S
H162 C114 0.929 . S
H163 C115 0.930 . S
H164 C122 0.929 . S
H165 C123 0.930 . S
H166 C124 0.930 1_545 S
H167 C125 0.930 . S
H168 C127 0.929 . S
H169 C128 0.930 . S
H170 C129 0.930 1_655 S
H171 C130 0.930 . S
H172 C134 0.929 . S
H173 C136 0.930 . S
H174 C142 0.929 . S
H175 C143 0.930 . S
Li176 N193 1.990 . S
Li176 O236 1.956 . S
Li176 O237 1.970 1_565 S
Li176 O238 1.961 1_455 S
Li177 N201 1.990 . S
Li177 O236 1.970 1_545 S
Li177 O237 1.956 . S
Li177 O239 1.961 1_455 S
Li178 N223 1.990 . S
Li178 O236 1.961 1_655 S
Li178 O238 1.956 . S
Li178 O239 1.970 1_565 S
Li179 N229 1.990 . S
Li179 O237 1.961 1_655 S
Li179 O238 1.970 1_545 S
Li179 O239 1.956 . S
C180 C182 1.348 1_565 S
C180 C183 1.356 . S
C180 O236 1.325 . S
N181 C184 1.314 . S
N181 C185 1.279 . S
C182 C180 1.348 1_545 S
C182 C184 1.353 1_545 S
C182 H240 0.929 . S
C183 C180 1.356 . S
C183 C185 1.358 . S
C183 H241 0.930 . S
C184 N181 1.314 . S
C184 C182 1.353 1_565 S
C184 H242 0.930 1_565 S
C185 N181 1.279 . S
C185 C183 1.358 . S
C185 H243 0.930 . S
C186 C189 1.348 . S
C186 C190 1.356 . S
C186 O237 1.325 . S
C187 N188 1.279 . S
C187 C190 1.358 . S
C187 H244 0.930 . S
N188 C187 1.279 . S
N188 C191 1.314 . S
C189 C186 1.348 . S
C189 C191 1.353 . S
C189 H245 0.929 . S
C190 C186 1.356 . S
C190 C187 1.358 . S
C190 H246 0.930 . S
C191 N188 1.314 . S
C191 C189 1.353 . S
C191 H247 0.930 . S
C192 N193 1.314 . S
C192 C197 1.353 . S
C192 H198 0.930 . S
N193 Li176 1.990 . S
N193 C192 1.314 . S
N193 C195 1.279 . S
C194 C195 1.358 . S
C194 C196 1.356 . S
C194 H248 0.930 . S
C195 N193 1.279 . S
C195 C194 1.358 . S
C195 H199 0.930 . S
C196 C194 1.356 . S
C196 C197 1.348 . S
C197 C192 1.353 . S
C197 C196 1.348 . S
C197 H249 0.929 . S
H198 C192 0.930 . S
H199 C195 0.930 . S
C200 N201 1.314 . S
C200 C202 1.353 . S
C200 H206 0.930 . S
N201 Li177 1.990 . S
N201 C200 1.314 . S
N201 C204 1.279 . S
C202 C200 1.353 . S
C202 C205 1.348 . S
C202 H250 0.929 . S
C203 C204 1.358 . S
C203 C205 1.356 . S
C203 H251 0.930 . S
C204 N201 1.279 . S
C204 C203 1.358 . S
C204 H207 0.930 . S
C205 C202 1.348 . S
C205 C203 1.356 . S
H206 C200 0.930 . S
H207 C204 0.930 . S
C208 C210 1.348 . S
C208 C211 1.356 . S
C208 O238 1.325 . S
N209 C212 1.314 . S
N209 C213 1.279 . S
C210 C208 1.348 . S
C210 C212 1.353 . S
C210 H252 0.929 . S
C211 C208 1.356 . S
C211 C213 1.358 . S
C211 H253 0.930 . S
C212 N209 1.314 . S
C212 C210 1.353 . S
C212 H254 0.930 . S
C213 N209 1.279 . S
C213 C211 1.358 . S
C213 H255 0.930 . S
C214 C215 1.348 1_545 S
C214 C216 1.356 . S
C214 O239 1.325 . S
C215 C214 1.348 1_565 S
C215 C217 1.353 1_565 S
C215 H256 0.929 . S
C216 C214 1.356 . S
C216 C218 1.358 . S
C216 H257 0.930 . S
C217 C215 1.353 1_545 S
C217 N219 1.314 . S
C217 H258 0.930 1_545 S
C218 C216 1.358 . S
C218 N219 1.279 . S
C218 H259 0.930 . S
N219 C217 1.314 . S
N219 C218 1.279 . S
C220 C222 1.353 . S
C220 N223 1.314 . S
C220 H226 0.930 . S
C221 N223 1.279 . S
C221 C224 1.358 . S
C221 H227 0.930 . S
C222 C220 1.353 . S
C222 C225 1.348 . S
C222 H260 0.929 . S
N223 Li178 1.990 . S
N223 C220 1.314 . S
N223 C221 1.279 . S
C224 C221 1.358 . S
C224 C225 1.356 . S
C224 H261 0.930 . S
C225 C222 1.348 . S
C225 C224 1.356 . S
H226 C220 0.930 . S
H227 C221 0.930 . S
C228 N229 1.314 . S
C228 C230 1.353 . S
C228 H234 0.930 . S
N229 Li179 1.990 . S
N229 C228 1.314 . S
N229 C232 1.279 . S
C230 C228 1.353 . S
C230 C233 1.348 . S
C230 H262 0.929 . S
C231 C232 1.358 . S
C231 C233 1.356 . S
C231 H263 0.930 . S
C232 N229 1.279 . S
C232 C231 1.358 . S
C232 H235 0.930 . S
C233 C230 1.348 . S
C233 C231 1.356 . S
H234 C228 0.930 . S
H235 C232 0.930 . S
O236 Li176 1.956 . S
O236 Li177 1.970 1_565 S
O236 Li178 1.961 1_455 S
O236 C180 1.325 . S
O237 Li176 1.970 1_545 S
O237 Li177 1.956 . S
O237 Li179 1.961 1_455 S
O237 C186 1.325 . S
O238 Li176 1.961 1_655 S
O238 Li178 1.956 . S
O238 Li179 1.970 1_565 S
O238 C208 1.325 . S
O239 Li177 1.961 1_655 S
O239 Li178 1.970 1_545 S
O239 Li179 1.956 . S
O239 C214 1.325 . S
H240 C182 0.929 . S
H241 C183 0.930 . S
H242 C184 0.930 1_545 S
H243 C185 0.930 . S
H244 C187 0.930 . S
H245 C189 0.929 . S
H246 C190 0.930 . S
H247 C191 0.930 . S
H248 C194 0.930 . S
H249 C197 0.929 . S
H250 C202 0.929 . S
H251 C203 0.930 . S
H252 C210 0.929 . S
H253 C211 0.930 . S
H254 C212 0.930 . S
H255 C213 0.930 . S
H256 C215 0.929 . S
H257 C216 0.930 . S
H258 C217 0.930 1_565 S
H259 C218 0.930 . S
H260 C222 0.929 . S
H261 C224 0.930 . S
H262 C230 0.929 . S
H263 C231 0.930 . S
Mg264 O271 2.141 . S
Mg264 O272 2.048 . S
Mg264 O273 2.048 . S
Mg264 O276 2.141 . S
C265 O266 1.313 . S
C265 O272 1.195 1_655 S
O266 C265 1.313 . S
C267 O268 1.245 . S
C267 O276 1.289 1_655 S
O268 C267 1.245 . S
C269 O270 1.245 . S
C269 O271 1.289 1_655 S
O270 C269 1.245 . S
O271 Mg264 2.141 . S
O271 C269 1.289 1_455 S
O272 Mg264 2.048 . S
O272 C265 1.195 1_455 S
O273 Mg264 2.048 . S
O273 C274 1.195 1_455 S
C274 O273 1.195 1_655 S
C274 O275 1.313 . S
O275 C274 1.313 . S
O276 Mg264 2.141 . S
O276 C267 1.289 1_455 S
Mg277 O284 2.141 . S
Mg277 O285 2.048 . S
Mg277 O286 2.048 . S
Mg277 O289 2.141 . S
C278 O279 1.313 . S
C278 O285 1.195 1_565 S
O279 C278 1.313 . S
C280 O281 1.245 . S
C280 O289 1.289 1_565 S
O281 C280 1.245 . S
C282 O283 1.245 . S
C282 O284 1.289 1_565 S
O283 C282 1.245 . S
O284 Mg277 2.141 . S
O284 C282 1.289 1_545 S
O285 Mg277 2.048 . S
O285 C278 1.195 1_545 S
O286 Mg277 2.048 . S
O286 C287 1.195 1_545 S
C287 O286 1.195 1_565 S
C287 O288 1.313 . S
O288 C287 1.313 . S
O289 Mg277 2.141 . S
O289 C280 1.289 1_545 S
Mg290 O297 2.141 . S
Mg290 O298 2.048 . S
Mg290 O299 2.048 . S
Mg290 O302 2.141 . S
C291 O292 1.313 . S
C291 O298 1.195 . S
O292 C291 1.313 . S
C293 O294 1.245 . S
C293 O302 1.289 . S
O294 C293 1.245 . S
C295 O296 1.245 . S
C295 O297 1.289 . S
O296 C295 1.245 . S
O297 Mg290 2.141 . S
O297 C295 1.289 . S
O298 Mg290 2.048 . S
O298 C291 1.195 . S
O299 Mg290 2.048 . S
O299 C300 1.195 . S
C300 O299 1.195 . S
C300 O301 1.313 . S
O301 C300 1.313 . S
O302 Mg290 2.141 . S
O302 C293 1.289 . S
C269 C29 1.872 . S
C137 C287 1.957 . S
C225 C300 1.958 . S
C49 C267 2.113 1_455 S
C278 C117 2.132 1_565 S
C205 C291 2.133 . S
C280 C233 2.111 1_565 S
C57 C293 2.113 . S
C274 C108 1.956 . S
C282 C196 1.869 . S
C295 C20 1.871 . S
C145 C265 2.131 1_455 S
