# Generated by pormake.
# Topology tsx, (6,3)-cn, num edge types: 1
# Building blocks:
#     Node 0, Type 0, BuildingBlock: CIFDUS_clean_sbu_1, # of connection points: 6
#     Node 1, Type 0, BuildingBlock: CIFDUS_clean_sbu_1, # of connection points: 6
#     Node 2, Type 1, BuildingBlock: WUSLED_clean_sbu_0, # of connection points: 3
#     Node 3, Type 1, BuildingBlock: WUSLED_clean_sbu_0, # of connection points: 3
#     Node 4, Type 1, BuildingBlock: WUSLED_clean_sbu_0, # of connection points: 3
#     Node 5, Type 1, BuildingBlock: WUSLED_clean_sbu_0, # of connection points: 3
#     Edge 6, Type (0, 1), BuildingBlock: FUNLAD_clean_linker_1, # of connection points: 2
#     Edge 7, Type (0, 1), BuildingBlock: FUNLAD_clean_linker_1, # of connection points: 2
#     Edge 8, Type (0, 1), BuildingBlock: FUNLAD_clean_linker_1, # of connection points: 2
#     Edge 9, Type (0, 1), BuildingBlock: FUNLAD_clean_linker_1, # of connection points: 2
#     Edge 10, Type (0, 1), BuildingBlock: FUNLAD_clean_linker_1, # of connection points: 2
#     Edge 11, Type (0, 1), BuildingBlock: FUNLAD_clean_linker_1, # of connection points: 2
#     Edge 12, Type (0, 1), BuildingBlock: FUNLAD_clean_linker_1, # of connection points: 2
#     Edge 13, Type (0, 1), BuildingBlock: FUNLAD_clean_linker_1, # of connection points: 2
#     Edge 14, Type (0, 1), BuildingBlock: FUNLAD_clean_linker_1, # of connection points: 2
#     Edge 15, Type (0, 1), BuildingBlock: FUNLAD_clean_linker_1, # of connection points: 2
#     Edge 16, Type (0, 1), BuildingBlock: FUNLAD_clean_linker_1, # of connection points: 2
#     Edge 17, Type (0, 1), BuildingBlock: FUNLAD_clean_linker_1, # of connection points: 2
# Relax obj value: 0.120
# Max RMSD: 0.152
# Mean RMSD: 0.113
data_MOF--net-tsx--node1-CIFDUS_clean_sbu_1--node2-WUSLED_clean_sbu_0--edge1-FUNLAD_clean_linker_1
_symmetry_space_group_name_H-M    P1
_symmetry_Int_Tables_number       1
_symmetry_cell_setting            triclinic
loop_
_symmetry_equiv_pos_as_xyz
'x, y, z'
_cell_length_a     23.746932
_cell_length_b     29.404702
_cell_length_c     48.527766
_cell_angle_alpha  97.283125
_cell_angle_beta   92.494007
_cell_angle_gamma 91.46575
loop_
_atom_site_label
_atom_site_type_symbol
_atom_site_fract_x
_atom_site_fract_y
_atom_site_fract_z
_atom_type_partial_charge
O0 O 1.02832 0.11422 0.01826 0.0
Mn1 Mn 0.06872 0.05123 0.01579 0.0
O2 O 0.94758 0.10121 0.99166 0.0
Mn3 Mn 0.96121 0.0419 0.97579 0.0
O4 O 0.10808 0.98774 0.01192 0.0
O5 O 0.14164 0.08454 0.02972 0.0
Mn6 Mn 0.17618 0.05407 0.05444 0.0
O7 O 0.0474 0.04497 0.05661 0.0
O8 O 0.19135 0.9969 0.03609 0.0
O9 O 0.08976 0.05723 0.97475 0.0
O10 O 1.01131 0.03809 0.94745 0.0
O11 O 0.2215 0.10507 0.05152 0.0
O12 O 0.1278 0.05326 0.08335 0.0
C13 C 0.95613 0.98785 1.00214 0.0
C14 C 0.98122 0.12749 1.00824 0.0
C15 C 0.15568 0.97259 0.01975 0.0
C16 C 0.18269 0.11467 0.03376 0.0
C17 C 0.07434 0.04735 0.08034 0.0
C18 C 0.06385 0.04882 0.95069 0.0
O19 O 0.99652 0.01786 1.00263 0.0
O20 O 0.91723 0.99183 0.98318 0.0
O21 O 0.53193 0.61582 0.51992 0.0
Mn22 Mn 0.57271 0.55291 0.51745 0.0
O23 O 0.45181 0.60249 0.49282 0.0
Mn24 Mn 0.46592 0.54331 0.4769 0.0
O25 O 0.61192 0.48932 0.51338 0.0
O26 O 0.64553 0.5863 0.53182 0.0
Mn27 Mn 0.67975 0.55462 0.55606 0.0
O28 O 0.55078 0.54612 0.55804 0.0
O29 O 0.69552 0.49804 0.53716 0.0
O30 O 0.59449 0.5594 0.47665 0.0
O31 O 0.51679 0.53982 0.4489 0.0
O32 O 0.72531 0.60576 0.55417 0.0
O33 O 0.63114 0.55264 0.5848 0.0
C34 C 0.46063 0.48925 0.50327 0.0
C35 C 0.48489 0.62886 0.50965 0.0
C36 C 0.65963 0.47396 0.52085 0.0
C37 C 0.6867 0.61634 0.5366 0.0
C38 C 0.57761 0.54742 0.5817 0.0
C39 C 0.5692 0.55091 0.45247 0.0
O40 O 0.50082 0.51945 0.50391 0.0
O41 O 0.42208 0.49298 0.4841 0.0
C42 C 0.95997 0.09964 0.47829 0.0
C43 C 0.92851 0.11693 0.457 0.0
C44 C 0.88858 0.17409 0.49089 0.0
C45 C 0.89315 0.15382 0.46319 0.0
C46 C 0.9196 0.15602 0.51213 0.0
C47 C 0.95488 0.11905 0.5059 0.0
U48 U 0.03708 0.02586 0.42384 0.0
O49 O 0.12699 1.00947 0.42177 0.0
O50 O 0.06255 0.95409 0.42006 0.0
C51 C 0.11672 0.9653 0.4217 0.0
C52 C 1.00111 0.06386 0.47146 0.0
C53 C 0.15336 0.94173 0.44054 0.0
C54 C 0.16666 0.88623 0.47331 0.0
C55 C 0.13097 0.91266 0.45849 0.0
C56 C 0.24781 0.91893 0.45355 0.0
C57 C 0.22538 0.8886 0.47078 0.0
C58 C 0.21211 0.94509 0.4386 0.0
C59 C 0.99917 0.04201 0.34769 0.0
C60 C 0.05603 0.02011 0.30802 0.0
C61 C 0.96173 0.04723 0.3008 0.0
C62 C 0.95523 0.05242 0.32953 0.0
C63 C 1.01252 0.03135 0.2897 0.0
C64 C 0.04937 0.02515 0.33676 0.0
C65 C 0.99269 0.05138 0.37789 0.0
O66 O 0.9802 0.02471 0.45845 0.0
O67 O 0.0468 0.07821 0.46044 0.0
O68 O 0.03533 0.07339 0.39238 0.0
O69 O 0.9715 0.01754 0.38984 0.0
H70 H 0.93253 0.10269 0.43549 0.0
H71 H 0.87138 0.16722 0.44608 0.0
H72 H 0.91733 0.17109 0.53361 0.0
H73 H 0.97919 0.10635 0.52257 0.0
H74 H 0.14817 0.86296 0.48627 0.0
H75 H 0.08586 0.90919 0.46047 0.0
H76 H 0.29257 0.92095 0.45038 0.0
H77 H 0.23041 0.96679 0.42466 0.0
H78 H 0.09572 1.00813 0.30011 0.0
H79 H 0.92766 0.05743 0.28763 0.0
H80 H 0.9163 0.06575 0.33764 0.0
H81 H 0.08383 0.01691 0.35046 0.0
C82 C 0.98956 0.99062 0.54867 0.0
C83 C 0.93364 0.99107 0.55724 0.0
C84 C 0.91397 0.91492 0.53171 0.0
C85 C 0.89627 0.9537 0.54886 0.0
C86 C 0.96932 0.91511 0.52257 0.0
C87 C 1.0065 0.95264 0.53073 0.0
U88 U 0.07505 0.05736 0.60935 0.0
O89 O 0.16373 0.08178 0.61417 0.0
O90 O 0.09606 0.13096 0.62073 0.0
C91 C 0.15067 0.12502 0.61995 0.0
C92 C 0.0314 0.02789 0.55942 0.0
C93 C 0.1837 0.1588 0.60685 0.0
C94 C 0.22166 0.18794 0.56657 0.0
C95 C 0.18914 0.15515 0.57801 0.0
C96 C 0.24331 0.2282 0.61264 0.0
C97 C 0.24948 0.22474 0.58372 0.0
C98 C 0.21093 0.19548 0.624 0.0
C99 C 0.05265 0.02084 0.6813 0.0
C100 C 0.10684 0.0528 0.72334 0.0
C101 C 1.02843 0.99946 0.72605 0.0
C102 C 1.0186 0.99601 0.69728 0.0
C103 C 0.07255 0.0278 0.73953 0.0
C104 C 0.09683 0.04932 0.69444 0.0
C105 C 0.04105 0.01654 0.65107 0.0
O106 O 1.01238 0.06333 0.57527 0.0
O107 O 0.07998 0.01423 0.56896 0.0
O108 O 0.0827 1.00197 0.63565 0.0
O109 O 1.01479 0.05087 0.64193 0.0
H110 H 0.91905 0.01967 0.57112 0.0
H111 H 0.85449 0.95458 0.55692 0.0
H112 H 0.98427 0.8857 0.50947 0.0
H113 H 0.04915 0.95136 0.52365 0.0
H114 H 0.22502 0.18456 0.54421 0.0
H115 H 0.16827 0.12711 0.56441 0.0
H116 H 0.26231 0.25642 0.62669 0.0
H117 H 0.20692 0.19897 0.64633 0.0
H118 H 0.14118 0.07515 0.73264 0.0
H119 H 1.00122 0.97983 0.73784 0.0
H120 H 0.98424 0.97392 0.68749 0.0
H121 H 0.12348 0.06886 0.68234 0.0
C122 C 0.45881 0.59962 0.97858 0.0
C123 C 0.42899 0.61805 0.95722 0.0
C124 C 0.38635 0.6733 0.99125 0.0
C125 C 0.39314 0.65457 0.96343 0.0
C126 C 0.4157 0.65407 0.01256 0.0
C127 C 0.45153 0.61747 1.00629 0.0
U128 U 0.53644 0.52678 0.92409 0.0
O129 O 0.62639 0.51052 0.92192 0.0
O130 O 0.562 0.45504 0.91982 0.0
C131 C 0.61615 0.46628 0.92155 0.0
C132 C 0.50027 0.56411 0.97179 0.0
C133 C 0.65273 0.44233 0.94023 0.0
C134 C 0.66599 0.38492 0.97177 0.0
C135 C 0.63027 0.41156 0.95714 0.0
C136 C 0.74731 0.42063 0.95389 0.0
C137 C 0.72482 0.38869 0.97008 0.0
C138 C 0.71157 0.44704 0.93912 0.0
C139 C 0.49828 0.54304 0.84817 0.0
C140 C 0.55489 0.51953 0.80868 0.0
C141 C 0.46154 0.5484 0.80121 0.0
C142 C 0.45489 0.55409 0.82992 0.0
C143 C 0.51194 0.53136 0.79026 0.0
C144 C 0.54806 0.52507 0.83739 0.0
C145 C 0.49166 0.55256 0.87832 0.0
O146 O 0.47964 0.52497 0.95865 0.0
O147 O 0.54595 0.57875 0.96088 0.0
O148 O 0.53431 0.5746 0.8928 0.0
O149 O 0.47059 0.51866 0.89025 0.0
H150 H 0.43466 0.60496 0.93565 0.0
H151 H 0.37274 0.66888 0.94629 0.0
H152 H 0.4117 0.66795 0.03414 0.0
H153 H 0.4745 0.60382 0.02304 0.0
H154 H 0.64747 0.3604 0.98391 0.0
H155 H 0.58512 0.40692 0.95842 0.0
H156 H 0.79221 0.4238 0.95137 0.0
H157 H 0.72996 0.47004 0.92597 0.0
H158 H 0.59428 0.50668 0.80086 0.0
H159 H 0.42797 0.55909 0.78793 0.0
H160 H 0.41628 0.56825 0.83794 0.0
H161 H 0.58206 0.5163 0.85119 0.0
C162 C 0.47642 0.49053 0.05675 0.0
C163 C 0.45964 0.465 0.07766 0.0
C164 C 0.39639 0.41684 0.04456 0.0
C165 C 0.42027 0.42863 0.07162 0.0
C166 C 0.41292 0.44283 0.02355 0.0
C167 C 0.45264 0.47942 0.02967 0.0
U168 U 0.56983 0.55806 0.1119 0.0
O169 O 0.65852 0.5823 0.11397 0.0
O170 O 0.59164 0.63168 0.1226 0.0
C171 C 0.64597 0.62554 0.12035 0.0
C172 C 0.5192 0.52804 0.06362 0.0
C173 C 0.67774 0.6596 0.10689 0.0
C174 C 0.7142 0.6888 0.06629 0.0
C175 C 0.68213 0.65601 0.07798 0.0
C176 C 0.73739 0.72894 0.11226 0.0
C177 C 0.74268 0.72545 0.08328 0.0
C178 C 0.70543 0.69626 0.12384 0.0
C179 C 0.55544 0.52135 0.18457 0.0
C180 C 0.61148 0.55411 0.22581 0.0
C181 C 0.53525 0.49922 0.22963 0.0
C182 C 0.52353 0.49572 0.20101 0.0
C183 C 0.57917 0.52844 0.24248 0.0
C184 C 0.59957 0.55056 0.19704 0.0
C185 C 0.54116 0.51741 0.1546 0.0
O186 O 0.50237 0.56375 0.07997 0.0
O187 O 0.56929 0.51477 0.07137 0.0
O188 O 0.5812 0.5029 0.13812 0.0
O189 O 0.5139 0.55188 0.14627 0.0
H190 H 0.47742 0.473 0.09871 0.0
H191 H 0.40869 0.4094 0.08826 0.0
H192 H 0.3963 0.43478 1.00236 0.0
H193 H 0.46514 0.49874 0.01326 0.0
H194 H 0.71687 0.68547 0.0439 0.0
H195 H 0.66093 0.62797 0.06452 0.0
H196 H 0.75683 0.75715 0.12616 0.0
H197 H 0.70225 0.6997 0.14622 0.0
H198 H 0.64559 0.57713 0.23465 0.0
H199 H 0.50954 0.47907 0.2418 0.0
H200 H 0.48922 0.47308 0.19171 0.0
H201 H 0.62454 0.57072 0.18456 0.0
H202 H 0.15 0.16772 1.00857 0.0
C203 C 0.18569 0.15784 0.021 0.0
H204 H 0.26797 0.17457 0.03811 0.0
H205 H 0.36247 0.3187 0.97162 0.0
H206 H 0.38676 0.2522 0.93987 0.0
H207 H 0.34324 0.17597 0.94289 0.0
H208 H 0.27496 0.16579 0.97782 0.0
C209 C 0.23218 0.1855 0.02614 0.0
C210 C 0.23942 0.23174 0.01708 0.0
C211 C 0.27764 0.23766 0.99614 0.0
C212 C 0.30236 0.28175 0.99428 0.0
C213 C 0.34218 0.2861 0.97384 0.0
C214 C 0.35648 0.24821 0.9555 0.0
C215 C 0.33202 0.20525 0.95722 0.0
C216 C 0.29318 0.19981 0.97735 0.0
H217 H 0.35335 0.35524 0.05641 0.0
C218 C 0.35647 0.37621 0.03955 0.0
H219 H 0.32574 0.38218 0.99845 0.0
H220 H 0.15963 0.2337 0.05603 0.0
H221 H 0.129 0.3011 0.08514 0.0
H222 H 0.1695 0.37793 0.08095 0.0
H223 H 0.24149 0.38775 0.04785 0.0
C224 C 0.32428 0.36318 0.01615 0.0
C225 C 0.28877 0.31986 0.01351 0.0
C226 C 0.24496 0.31493 0.03201 0.0
C227 C 0.22064 0.27074 0.03398 0.0
C228 C 0.17916 0.2665 0.05362 0.0
C229 C 0.16111 0.30491 0.07036 0.0
C230 C 0.18396 0.34817 0.06803 0.0
C231 C 0.22542 0.35333 0.0491 0.0
H232 H 0.14902 0.90896 0.98971 0.0
C233 C 0.17084 0.92548 1.00864 0.0
H234 H 0.23391 0.92065 0.03993 0.0
H235 H 0.21286 0.70217 0.98421 0.0
H236 H 0.11377 0.70342 0.99448 0.0
H237 H 0.06971 0.7758 0.01186 0.0
H238 H 0.1243 0.84741 0.01924 0.0
C239 C 0.21214 0.90371 0.02108 0.0
C240 C 0.23581 0.85982 1.00837 0.0
C241 C 0.20321 0.81812 1.00465 0.0
C242 C 0.22882 0.7761 0.99498 0.0
C243 C 0.19553 0.73497 0.9915 0.0
C244 C 0.13865 0.73517 0.99737 0.0
C245 C 0.11385 0.77597 1.00717 0.0
C246 C 0.14564 0.81696 0.01107 0.0
H247 H 0.36106 0.73383 0.01938 0.0
C248 C 0.35292 0.71491 0.99876 0.0
H249 H 0.30235 0.7124 0.96138 0.0
H250 H 0.30928 0.93388 1.0107 0.0
H251 H 0.40737 0.9325 0.99905 0.0
H252 H 0.4513 0.85971 0.98223 0.0
H253 H 0.39739 0.78786 0.97708 0.0
C254 C 0.31471 0.73129 0.98148 0.0
C255 C 0.28706 0.77565 0.98967 0.0
C256 C 0.319 0.81751 0.99225 0.0
C257 C 0.29347 0.85952 1.00172 0.0
C258 C 0.32651 0.90081 1.00399 0.0
C259 C 0.38289 0.9006 0.9972 0.0
C260 C 0.40762 0.85964 0.98774 0.0
C261 C 0.37622 0.81854 0.98511 0.0
H262 H 0.97223 0.9616 0.04267 0.0
C263 C 0.95033 0.95464 0.02239 0.0
H264 H 0.89175 0.91316 0.99612 0.0
H265 H 0.91721 0.77305 0.09154 0.0
H266 H 1.01836 0.77528 0.08639 0.0
H267 H 0.06226 0.82987 0.0586 0.0
H268 H 1.00537 0.88192 0.03516 0.0
C269 C 0.91345 0.91877 0.01653 0.0
C270 C 0.89102 0.89134 0.03772 0.0
C271 C 0.925 0.86045 0.05072 0.0
C272 C 0.89954 0.82876 0.06678 0.0
C273 C 0.93426 0.79795 0.07929 0.0
C274 C 0.99238 0.79878 0.07645 0.0
C275 C 1.01709 0.82947 0.06072 0.0
C276 C 0.98394 0.8595 0.04757 0.0
H277 H 0.76649 0.76145 0.04786 0.0
C278 C 0.77484 0.76047 0.06999 0.0
H279 H 0.82515 0.78991 0.10532 0.0
H280 H 0.81534 0.95137 0.01988 0.0
H281 H 0.71577 0.95378 0.02867 0.0
H282 H 0.6723 0.8998 0.0571 0.0
H283 H 0.72808 0.84291 0.07668 0.0
C284 C 0.81273 0.79128 0.08369 0.0
C285 C 0.84022 0.82761 0.06944 0.0
C286 C 0.8072 0.86133 0.05859 0.0
C287 C 0.8325 0.89289 0.04256 0.0
C288 C 0.79831 0.92605 0.03187 0.0
C289 C 0.7411 0.9281 0.03693 0.0
C290 C 0.71663 0.8977 0.05291 0.0
C291 C 0.7491 0.86484 0.06379 0.0
H292 H 0.99797 0.20096 0.02468 0.0
C293 C 0.96654 0.17634 0.01434 0.0
H294 H 0.88482 0.16638 0.99501 0.0
H295 H 0.78372 0.35434 0.03921 0.0
H296 H 0.76229 0.31546 0.07902 0.0
H297 H 0.80506 0.24168 0.08546 0.0
H298 H 0.87017 0.20659 0.05228 0.0
C299 C 0.9167 0.1909 1.00503 0.0
C300 C 0.90309 0.24004 1.00546 0.0
C301 C 0.86529 0.26007 0.02489 0.0
C302 C 0.83975 0.30213 0.02086 0.0
C303 C 0.8029 0.32176 0.04089 0.0
C304 C 0.7906 0.29997 0.0639 0.0
C305 C 0.81474 0.25844 0.06754 0.0
C306 C 0.85174 0.23856 0.04833 0.0
H307 H 0.74056 0.32309 0.98633 0.0
C308 C 0.76066 0.35543 0.9829 0.0
H309 H 0.83771 0.39401 0.98649 0.0
H310 H 0.97985 0.21405 0.96648 0.0
H311 H 1.00409 0.25413 0.92773 0.0
H312 H 0.9591 0.32656 0.92029 0.0
H313 H 0.88957 0.35926 0.95147 0.0
C314 C 0.81633 0.36198 0.98926 0.0
C315 C 0.85112 0.32347 0.99697 0.0
C316 C 0.89304 0.30563 0.97896 0.0
C317 C 0.91897 0.2638 0.98321 0.0
C318 C 0.95895 0.24571 0.96427 0.0
C319 C 0.97329 0.26839 0.94193 0.0
C320 C 0.94797 0.30917 0.93775 0.0
C321 C 0.90812 0.32762 0.95588 0.0
H322 H 0.65308 0.67242 0.51414 0.0
C323 C 0.68958 0.66081 0.52525 0.0
H324 H 0.77271 0.67566 0.54175 0.0
H325 H 0.83423 0.83546 0.47358 0.0
H326 H 0.84261 0.77529 0.43483 0.0
H327 H 0.80522 0.69682 0.43712 0.0
H328 H 0.75839 0.67817 0.47811 0.0
C329 C 0.73656 0.68787 0.53064 0.0
C330 C 0.74195 0.73639 0.52506 0.0
C331 C 0.76914 0.74686 0.50117 0.0
C332 C 0.79187 0.79192 0.50015 0.0
C333 C 0.81788 0.80149 0.47576 0.0
C334 C 0.82258 0.76736 0.45333 0.0
C335 C 0.80147 0.72317 0.45461 0.0
C336 C 0.77501 0.71283 0.47823 0.0
H337 H 0.89966 0.83995 0.52135 0.0
C338 C 0.87808 0.87214 0.52532 0.0
H339 H 0.79843 0.90239 0.52853 0.0
H340 H 0.68308 0.72967 0.57142 0.0
H341 H 0.67076 0.79022 0.60946 0.0
H342 H 0.71197 0.86784 0.6085 0.0
H343 H 0.76558 0.8855 0.56966 0.0
C344 C 0.82121 0.87081 0.52509 0.0
C345 C 0.78849 0.82619 0.52339 0.0
C346 C 0.7561 0.81685 0.54607 0.0
C347 C 0.73275 0.77193 0.54681 0.0
C348 C 0.70205 0.7631 0.57002 0.0
C349 C 0.69453 0.79755 0.59192 0.0
C350 C 0.71768 0.84126 0.59135 0.0
C351 C 0.74832 0.85096 0.56884 0.0
H352 H 0.65072 0.40992 0.49121 0.0
C353 C 0.67434 0.42683 0.50952 0.0
H354 H 0.74083 0.42261 0.53919 0.0
H355 H 0.7151 0.20277 0.48776 0.0
H356 H 0.61787 0.20478 0.50122 0.0
H357 H 0.57543 0.27788 0.51855 0.0
H358 H 0.62983 0.34951 0.52273 0.0
C359 C 0.71706 0.40532 0.52104 0.0
C360 C 0.73924 0.36098 0.50811 0.0
C361 C 0.70679 0.31934 0.50623 0.0
C362 C 0.73149 0.27692 0.49656 0.0
C363 C 0.69841 0.23585 0.49496 0.0
C364 C 0.64261 0.2365 0.50267 0.0
C365 C 0.61873 0.27771 0.51245 0.0
C366 C 0.65036 0.31868 0.51452 0.0
H367 H 0.86582 0.2362 0.51835 0.0
C368 C 0.85581 0.21611 0.49824 0.0
H369 H 0.80169 0.21137 0.46192 0.0
H370 H 0.81161 0.43467 0.50653 0.0
H371 H 0.90763 0.43247 0.49162 0.0
H372 H 0.94999 0.35897 0.47483 0.0
H373 H 0.89661 0.28724 0.47297 0.0
C374 C 0.81585 0.2314 0.48142 0.0
C375 C 0.78872 0.27606 0.48939 0.0
C376 C 0.82029 0.31781 0.49005 0.0
C377 C 0.79565 0.3602 0.49953 0.0
C378 C 0.82829 0.40136 0.49989 0.0
C379 C 0.88343 0.40066 0.49122 0.0
C380 C 0.90729 0.3593 0.48178 0.0
C381 C 0.87624 0.3183 0.48103 0.0
H382 H 0.47518 0.46376 0.54411 0.0
C383 C 0.45462 0.45612 0.52355 0.0
H384 H 0.3987 0.41323 0.49661 0.0
H385 H 0.42248 0.2773 0.59481 0.0
H386 H 0.52407 0.28215 0.59164 0.0
H387 H 0.56806 0.33638 0.56363 0.0
H388 H 0.51092 0.38546 0.53808 0.0
C389 C 0.41898 0.41951 0.51734 0.0
C390 C 0.39586 0.39201 0.53835 0.0
C391 C 0.43007 0.36271 0.55254 0.0
C392 C 0.40455 0.33113 0.56866 0.0
C393 C 0.43954 0.30202 0.58244 0.0
C394 C 0.49791 0.30436 0.58074 0.0
C395 C 0.52269 0.33487 0.56491 0.0
C396 C 0.48935 0.36321 0.55055 0.0
H397 H 0.27486 0.25996 0.54826 0.0
C398 C 0.28173 0.2599 0.57056 0.0
H399 H 0.32867 0.29185 0.60638 0.0
H400 H 0.31907 0.44885 0.51796 0.0
H401 H 0.21863 0.44866 0.52466 0.0
H402 H 0.17502 0.39485 0.55314 0.0
H403 H 0.23156 0.34072 0.57487 0.0
C404 C 0.31773 0.29203 0.58449 0.0
C405 C 0.34498 0.32839 0.57015 0.0
C406 C 0.31147 0.36054 0.55803 0.0
C407 C 0.33682 0.39203 0.54197 0.0
C408 C 0.30211 0.42362 0.53002 0.0
C409 C 0.24436 0.42418 0.53388 0.0
C410 C 0.2198 0.39387 0.54989 0.0
C411 C 0.25276 0.36258 0.56201 0.0
H412 H 0.50076 0.70255 0.52588 0.0
C413 C 0.46954 0.67758 0.51572 0.0
H414 H 0.38767 0.66668 0.49666 0.0
H415 H 0.28532 0.85484 0.53992 0.0
H416 H 0.26542 0.817 0.58031 0.0
H417 H 0.30914 0.74379 0.58722 0.0
H418 H 0.37371 0.70823 0.55393 0.0
C419 C 0.41931 0.69158 0.50649 0.0
C420 C 0.40503 0.74053 0.50649 0.0
C421 C 0.36749 0.76082 0.52598 0.0
C422 C 0.34136 0.80253 0.52166 0.0
C423 C 0.30488 0.82247 0.54178 0.0
C424 C 0.29347 0.80128 0.56513 0.0
C425 C 0.31814 0.76007 0.56904 0.0
C426 C 0.35482 0.73993 0.54976 0.0
H427 H 0.24072 0.82352 0.48777 0.0
C428 C 0.26106 0.85547 0.48382 0.0
H429 H 0.3384 0.89347 0.48643 0.0
H430 H 0.48085 0.71389 0.46718 0.0
H431 H 0.50334 0.75277 0.4277 0.0
H432 H 0.45721 0.82448 0.41972 0.0
H433 H 0.38831 0.85766 0.45108 0.0
C434 C 0.31695 0.86172 0.48971 0.0
C435 C 0.35184 0.82326 0.49744 0.0
C436 C 0.39333 0.8051 0.47927 0.0
C437 C 0.41989 0.76364 0.48381 0.0
C438 C 0.45949 0.74526 0.46475 0.0
C439 C 0.47283 0.76726 0.44199 0.0
C440 C 0.44688 0.80764 0.43751 0.0
C441 C 0.40741 0.82638 0.45576 0.0
H442 H 0.99636 0.04185 0.10354 0.0
C443 C 0.04217 0.04303 0.10537 0.0
H444 H 0.11451 0.04263 0.13226 0.0
H445 H 1.01173 0.11609 0.24431 0.0
H446 H 0.05634 0.18612 0.23313 0.0
H447 H 0.09323 0.19005 0.18671 0.0
H448 H 0.08527 0.12403 0.15114 0.0
C449 C 0.06873 0.04055 0.13019 0.0
C450 C 0.0386 0.03969 0.15636 0.0
C451 C 0.04385 0.07845 0.17698 0.0
C452 C 1.02334 0.07598 0.20384 0.0
C453 C 1.02799 0.11563 0.22381 0.0
C454 C 0.05314 0.15618 0.2176 0.0
C455 C 0.07386 0.15841 0.19146 0.0
C456 C 0.06927 0.12017 0.17129 0.0
H457 H 0.06741 0.03011 0.25397 0.0
C458 C 1.02358 0.02997 0.25964 0.0
H459 H 0.93883 0.02725 0.24344 0.0
H460 H 1.01852 0.95991 0.12106 0.0
H461 H 0.97036 0.89097 0.13168 0.0
H462 H 0.93433 0.8869 0.17828 0.0
H463 H 0.94639 0.95185 0.21458 0.0
C464 C 0.98318 0.03021 0.23927 0.0
C465 C 0.99853 0.03441 0.21022 0.0
C466 C 0.98991 0.99661 0.18907 0.0
C467 C 1.01029 0.99912 0.1621 0.0
C468 C 1.00318 0.96019 0.14173 0.0
C469 C 0.97575 0.92031 0.14759 0.0
C470 C 0.95547 0.91802 0.17383 0.0
C471 C 0.9626 0.95553 0.19445 0.0
H472 H 0.14044 0.06158 0.92756 0.0
C473 C 0.09558 0.05286 0.92544 0.0
H474 H 1.02413 0.03869 0.89779 0.0
H475 H 0.10971 0.14136 0.80203 0.0
H476 H 0.08245 0.20958 0.83146 0.0
H477 H 0.06241 0.20652 0.88068 0.0
H478 H 0.06961 0.13513 0.90081 0.0
C479 C 0.06907 0.04696 0.90008 0.0
C480 C 0.09752 0.05212 0.87396 0.0
C481 C 0.09477 0.09423 0.86275 0.0
C482 C 0.10653 0.09598 0.83439 0.0
C483 C 0.10147 0.13816 0.82346 0.0
C484 C 0.08587 0.17755 0.84012 0.0
C485 C 0.07455 0.17583 0.86784 0.0
C486 C 0.07869 0.13469 0.87912 0.0
H487 H 0.04981 1.01021 0.7806 0.0
C488 C 0.08003 0.03004 0.77036 0.0
H489 H 0.15102 0.07626 0.77799 0.0
H490 H 0.11544 0.96812 0.89047 0.0
H491 H 0.14893 0.901 0.86204 0.0
H492 H 0.17184 0.90448 0.81321 0.0
H493 H 0.16083 0.97494 0.7924 0.0
C494 C 0.12038 0.05471 0.78656 0.0
C495 C 0.12073 0.05548 0.81738 0.0
C496 C 0.12956 0.01464 0.8295 0.0
C497 C 0.11739 1.01287 0.85778 0.0
C498 C 0.12424 0.97119 0.86908 0.0
C499 C 0.14359 0.93256 0.85303 0.0
C500 C 0.15645 0.9345 0.82552 0.0
C501 C 0.14963 0.975 0.81379 0.0
H502 H 0.49934 0.54229 0.60467 0.0
C503 C 0.54513 0.54282 0.60657 0.0
H504 H 0.61711 0.54097 0.63353 0.0
H505 H 0.51172 0.61576 0.7449 0.0
H506 H 0.5574 0.68552 0.73394 0.0
H507 H 0.59588 0.68906 0.68782 0.0
H508 H 0.58847 0.62292 0.65232 0.0
C509 C 0.57134 0.53953 0.63135 0.0
C510 C 0.54071 0.53885 0.65734 0.0
C511 C 0.54569 0.57768 0.6779 0.0
C512 C 0.52428 0.57543 0.70459 0.0
C513 C 0.52866 0.61513 0.72452 0.0
C514 C 0.55442 0.65554 0.71844 0.0
C515 C 0.57604 0.65754 0.69247 0.0
C516 C 0.57173 0.61924 0.67233 0.0
H517 H 0.56717 0.52907 0.75464 0.0
C518 C 0.52328 0.52944 0.76023 0.0
H519 H 0.43865 0.52746 0.7439 0.0
H520 H 0.52077 0.45914 0.62196 0.0
H521 H 0.4716 0.39046 0.63234 0.0
H522 H 0.43418 0.38671 0.67868 0.0
H523 H 0.44581 0.45172 0.71498 0.0
C524 C 0.4831 0.52991 0.73981 0.0
C525 C 0.49891 0.53399 0.71084 0.0
C526 C 0.49056 0.49615 0.68972 0.0
C527 C 0.51179 0.49846 0.66291 0.0
C528 C 0.50485 0.45953 0.64253 0.0
C529 C 0.47684 0.41981 0.64824 0.0
C530 C 0.45578 0.4177 0.67434 0.0
C531 C 0.46268 0.45523 0.69497 0.0
H532 H 0.64647 0.56381 0.42993 0.0
C533 C 0.60161 0.55521 0.42749 0.0
H534 H 0.53079 0.54161 0.39939 0.0
H535 H 0.6178 0.64362 0.30405 0.0
H536 H 0.58885 0.71172 0.33306 0.0
H537 H 0.56773 0.70886 0.38217 0.0
H538 H 0.5755 0.63776 0.4026 0.0
C539 C 0.57577 0.54962 0.402 0.0
C540 C 0.60513 0.55492 0.37618 0.0
C541 C 0.60211 0.59688 0.36483 0.0
C542 C 0.61452 0.59854 0.33656 0.0
C543 C 0.60908 0.64052 0.32543 0.0
C544 C 0.59253 0.67983 0.34186 0.0
C545 C 0.58061 0.67822 0.36952 0.0
C546 C 0.58507 0.63726 0.38096 0.0
H547 H 0.55906 0.51093 0.28388 0.0
C548 C 0.58822 0.53108 0.27323 0.0
H549 H 0.65806 0.57857 0.27997 0.0
H550 H 0.62412 0.47137 0.39316 0.0
H551 H 0.65951 0.40453 0.36521 0.0
H552 H 0.68362 0.40792 0.31652 0.0
H553 H 0.67189 0.47804 0.29539 0.0
C554 C 0.62847 0.55667 0.28894 0.0
C555 C 0.62961 0.55807 0.31979 0.0
C556 C 0.63905 0.51755 0.33214 0.0
C557 C 0.62621 0.51585 0.36033 0.0
C558 C 0.63347 0.4744 0.37183 0.0
C559 C 0.65389 0.43592 0.35605 0.0
C560 C 0.66741 0.43781 0.32863 0.0
C561 C 0.66019 0.47808 0.3167 0.0
loop_
_geom_bond_atom_site_label_1
_geom_bond_atom_site_label_2
_geom_bond_distance
_geom_bond_site_symmetry_2
_ccdc_geom_bond_type
O0 Mn1 2.163 . S
O0 C14 1.252 1_455 S
Mn1 O0 2.163 . S
Mn1 O4 2.160 1_544 S
Mn1 O5 2.221 . S
Mn1 O7 2.163 . S
Mn1 O9 2.160 1_554 S
Mn1 O19 2.221 1_444 S
O2 Mn3 2.087 . S
O2 C14 1.248 1_556 S
Mn3 O2 2.087 . S
Mn3 O10 2.089 . S
Mn3 O19 2.290 1_545 S
Mn3 O20 2.251 1_545 S
O4 Mn1 2.160 1_566 S
O4 C15 1.239 1_556 S
O5 Mn1 2.221 . S
O5 Mn6 2.290 . S
O5 C16 1.278 . S
Mn6 O5 2.290 . S
Mn6 O8 2.089 1_545 S
Mn6 O11 2.251 . S
Mn6 O12 2.087 . S
O7 Mn1 2.163 . S
O7 C17 1.244 . S
O8 Mn6 2.089 1_565 S
O8 C15 1.256 . S
O9 Mn1 2.160 1_556 S
O9 C18 1.239 . S
O10 Mn3 2.089 . S
O10 C18 1.256 1_655 S
O11 Mn6 2.251 . S
O11 C16 1.241 . S
O12 Mn6 2.087 . S
O12 C17 1.256 . S
C13 O19 1.278 1_554 S
C13 O20 1.241 1_554 S
C14 O0 1.252 1_655 S
C14 O2 1.248 1_554 S
C15 O4 1.239 1_554 S
C15 O8 1.256 . S
C16 O5 1.278 . S
C16 O11 1.241 . S
C17 O7 1.244 . S
C17 O12 1.256 . S
C18 O9 1.239 . S
C18 O10 1.256 1_455 S
O19 Mn1 2.221 1_666 S
O19 Mn3 2.290 1_565 S
O19 C13 1.278 1_556 S
O20 Mn3 2.251 1_565 S
O20 C13 1.241 1_556 S
O21 Mn22 2.163 . S
O21 C35 1.244 . S
Mn22 O21 2.163 . S
Mn22 O25 2.160 . S
Mn22 O26 2.221 . S
Mn22 O28 2.163 . S
Mn22 O30 2.160 . S
Mn22 O40 2.221 . S
O23 Mn24 2.087 . S
O23 C35 1.256 . S
Mn24 O23 2.087 . S
Mn24 O31 2.089 . S
Mn24 O40 2.290 . S
Mn24 O41 2.251 . S
O25 Mn22 2.160 . S
O25 C36 1.239 . S
O26 Mn22 2.221 . S
O26 Mn27 2.290 . S
O26 C37 1.278 . S
Mn27 O26 2.290 . S
Mn27 O29 2.089 . S
Mn27 O32 2.251 . S
Mn27 O33 2.087 . S
O28 Mn22 2.163 . S
O28 C38 1.244 . S
O29 Mn27 2.089 . S
O29 C36 1.256 . S
O30 Mn22 2.160 . S
O30 C39 1.239 . S
O31 Mn24 2.089 . S
O31 C39 1.256 . S
O32 Mn27 2.251 . S
O32 C37 1.241 . S
O33 Mn27 2.087 . S
O33 C38 1.256 . S
C34 O40 1.278 . S
C34 O41 1.241 . S
C35 O21 1.244 . S
C35 O23 1.256 . S
C36 O25 1.239 . S
C36 O29 1.256 . S
C37 O26 1.278 . S
C37 O32 1.241 . S
C38 O28 1.244 . S
C38 O33 1.256 . S
C39 O30 1.239 . S
C39 O31 1.256 . S
O40 Mn22 2.221 . S
O40 Mn24 2.290 . S
O40 C34 1.278 . S
O41 Mn24 2.251 . S
O41 C34 1.241 . S
C42 C43 1.264 . S
C42 C47 1.479 . S
C42 C52 1.465 1_655 S
C43 C42 1.264 . S
C43 C45 1.339 . S
C43 H70 0.931 . S
C44 C45 1.395 . S
C44 C46 1.320 . S
C45 C43 1.339 . S
C45 C44 1.395 . S
C45 H71 0.929 . S
C46 C44 1.320 . S
C46 C47 1.405 . S
C46 H72 0.930 . S
C47 C42 1.479 . S
C47 C46 1.405 . S
C47 H73 0.931 . S
U48 O49 2.454 1_545 S
U48 O50 2.458 1_545 S
U48 C51 2.984 1_545 S
U48 C52 2.847 . S
U48 C65 2.882 . S
U48 O66 2.441 . S
U48 O67 2.420 . S
U48 O68 2.455 1_545 S
U48 O69 2.449 . S
O49 U48 2.454 1_565 S
O49 C51 1.353 . S
O50 U48 2.458 1_565 S
O50 C51 1.286 . S
C51 U48 2.984 1_565 S
C51 O49 1.353 . S
C51 O50 1.286 . S
C51 C53 1.363 . S
C52 C42 1.465 1_455 S
C52 U48 2.847 . S
C52 O66 1.249 . S
C52 O67 1.202 . S
C53 C51 1.363 . S
C53 C55 1.408 . S
C53 C58 1.342 . S
C54 C55 1.310 . S
C54 C57 1.461 . S
C54 H74 0.932 . S
C55 C53 1.408 . S
C55 C54 1.310 . S
C55 H75 0.930 . S
C56 C57 1.474 . S
C56 C58 1.285 . S
C56 H76 0.929 . S
C57 C54 1.461 . S
C57 C56 1.474 . S
C58 C53 1.342 . S
C58 C56 1.285 . S
C58 H77 0.930 . S
C59 C62 1.424 . S
C59 C64 1.245 1_545 S
C59 C65 1.428 . S
C60 C63 1.245 1_565 S
C60 C64 1.477 . S
C60 H78 0.932 . S
C61 C62 1.384 . S
C61 C63 1.497 . S
C61 H79 0.929 . S
C62 C59 1.424 . S
C62 C61 1.384 . S
C62 H80 0.928 . S
C63 C60 1.245 1_545 S
C63 C61 1.497 . S
C64 C59 1.245 1_565 S
C64 C60 1.477 . S
C64 H81 0.932 . S
C65 U48 2.882 . S
C65 C59 1.428 . S
C65 O68 1.301 1_545 S
C65 O69 1.282 . S
O66 U48 2.441 . S
O66 C52 1.249 . S
O67 U48 2.420 . S
O67 C52 1.202 . S
O68 U48 2.455 1_565 S
O68 C65 1.301 1_565 S
O69 U48 2.449 . S
O69 C65 1.282 . S
H70 C43 0.931 . S
H71 C45 0.929 . S
H72 C46 0.930 . S
H73 C47 0.931 . S
H74 C54 0.932 . S
H75 C55 0.930 . S
H76 C56 0.929 . S
H77 C58 0.930 . S
H78 C60 0.932 . S
H79 C61 0.929 . S
H80 C62 0.928 . S
H81 C64 0.932 . S
C82 C83 1.264 . S
C82 C87 1.479 . S
C82 C92 1.465 . S
C83 C82 1.264 . S
C83 C85 1.339 . S
C83 H110 0.931 . S
C84 C85 1.395 . S
C84 C86 1.320 . S
C85 C83 1.339 . S
C85 C84 1.395 . S
C85 H111 0.929 . S
C86 C84 1.320 . S
C86 C87 1.405 . S
C86 H112 0.930 . S
C87 C82 1.479 . S
C87 C86 1.405 . S
C87 H113 0.931 . S
U88 O89 2.454 . S
U88 O90 2.458 . S
U88 C91 2.984 . S
U88 C92 2.847 1_445 S
U88 C105 2.882 . S
U88 O106 2.441 1_455 S
U88 O107 2.420 1_445 S
U88 O108 2.455 . S
U88 O109 2.449 . S
O89 U88 2.454 . S
O89 C91 1.353 . S
O90 U88 2.458 . S
O90 C91 1.286 . S
C91 U88 2.984 . S
C91 O89 1.353 . S
C91 O90 1.286 . S
C91 C93 1.363 . S
C92 C82 1.465 . S
C92 U88 2.847 1_665 S
C92 O106 1.249 1_565 S
C92 O107 1.202 . S
C93 C91 1.363 . S
C93 C95 1.408 . S
C93 C98 1.342 . S
C94 C95 1.310 . S
C94 C97 1.461 . S
C94 H114 0.932 . S
C95 C93 1.408 . S
C95 C94 1.310 . S
C95 H115 0.930 . S
C96 C97 1.474 . S
C96 C98 1.285 . S
C96 H116 0.929 . S
C97 C94 1.461 . S
C97 C96 1.474 . S
C98 C93 1.342 . S
C98 C96 1.285 . S
C98 H117 0.930 . S
C99 C102 1.424 1_455 S
C99 C104 1.245 . S
C99 C105 1.428 . S
C100 C103 1.260 . S
C100 C104 1.477 . S
C100 H118 0.932 . S
C101 C102 1.384 . S
C101 C103 1.479 1_655 S
C101 H119 0.929 . S
C102 C99 1.424 1_655 S
C102 C101 1.384 . S
C102 H120 0.928 . S
C103 C100 1.260 . S
C103 C101 1.479 1_455 S
C104 C99 1.245 . S
C104 C100 1.477 . S
C104 H121 0.932 . S
C105 U88 2.882 . S
C105 C99 1.428 . S
C105 O108 1.301 . S
C105 O109 1.282 . S
O106 U88 2.441 1_655 S
O106 C92 1.249 1_545 S
O107 U88 2.420 1_665 S
O107 C92 1.202 . S
O108 U88 2.455 . S
O108 C105 1.301 . S
O109 U88 2.449 . S
O109 C105 1.282 . S
H110 C83 0.931 . S
H111 C85 0.929 . S
H112 C86 0.930 . S
H113 C87 0.931 . S
H114 C94 0.932 . S
H115 C95 0.930 . S
H116 C96 0.929 . S
H117 C98 0.930 . S
H118 C100 0.932 . S
H119 C101 0.929 . S
H120 C102 0.928 . S
H121 C104 0.932 . S
C122 C123 1.264 . S
C122 C127 1.479 . S
C122 C132 1.465 . S
C123 C122 1.264 . S
C123 C125 1.339 . S
C123 H150 0.931 . S
C124 C125 1.395 . S
C124 C126 1.320 1_556 S
C125 C123 1.339 . S
C125 C124 1.395 . S
C125 H151 0.929 . S
C126 C124 1.320 1_554 S
C126 C127 1.405 1_554 S
C126 H152 0.930 . S
C127 C122 1.479 . S
C127 C126 1.405 1_556 S
C127 H153 0.931 1_556 S
U128 O129 2.454 . S
U128 O130 2.458 . S
U128 C131 2.984 . S
U128 C132 2.847 . S
U128 C145 2.882 . S
U128 O146 2.441 . S
U128 O147 2.420 . S
U128 O148 2.455 . S
U128 O149 2.449 . S
O129 U128 2.454 . S
O129 C131 1.353 . S
O130 U128 2.458 . S
O130 C131 1.286 . S
C131 U128 2.984 . S
C131 O129 1.353 . S
C131 O130 1.286 . S
C131 C133 1.363 . S
C132 C122 1.465 . S
C132 U128 2.847 . S
C132 O146 1.249 . S
C132 O147 1.202 . S
C133 C131 1.363 . S
C133 C135 1.408 . S
C133 C138 1.342 . S
C134 C135 1.310 . S
C134 C137 1.461 . S
C134 H154 0.932 1_556 S
C135 C133 1.408 . S
C135 C134 1.310 . S
C135 H155 0.930 . S
C136 C137 1.474 . S
C136 C138 1.285 . S
C136 H156 0.929 . S
C137 C134 1.461 . S
C137 C136 1.474 . S
C138 C133 1.342 . S
C138 C136 1.285 . S
C138 H157 0.930 . S
C139 C142 1.424 . S
C139 C144 1.245 . S
C139 C145 1.428 . S
C140 C143 1.260 . S
C140 C144 1.477 . S
C140 H158 0.932 . S
C141 C142 1.384 . S
C141 C143 1.479 . S
C141 H159 0.929 . S
C142 C139 1.424 . S
C142 C141 1.384 . S
C142 H160 0.928 . S
C143 C140 1.260 . S
C143 C141 1.479 . S
C144 C139 1.245 . S
C144 C140 1.477 . S
C144 H161 0.932 . S
C145 U128 2.882 . S
C145 C139 1.428 . S
C145 O148 1.301 . S
C145 O149 1.282 . S
O146 U128 2.441 . S
O146 C132 1.249 . S
O147 U128 2.420 . S
O147 C132 1.202 . S
O148 U128 2.455 . S
O148 C145 1.301 . S
O149 U128 2.449 . S
O149 C145 1.282 . S
H150 C123 0.931 . S
H151 C125 0.929 . S
H152 C126 0.930 . S
H153 C127 0.931 1_554 S
H154 C134 0.932 1_554 S
H155 C135 0.930 . S
H156 C136 0.929 . S
H157 C138 0.930 . S
H158 C140 0.932 . S
H159 C141 0.929 . S
H160 C142 0.928 . S
H161 C144 0.932 . S
C162 C163 1.264 . S
C162 C167 1.479 . S
C162 C172 1.465 . S
C163 C162 1.264 . S
C163 C165 1.339 . S
C163 H190 0.931 . S
C164 C165 1.395 . S
C164 C166 1.320 . S
C165 C163 1.339 . S
C165 C164 1.395 . S
C165 H191 0.929 . S
C166 C164 1.320 . S
C166 C167 1.405 . S
C166 H192 0.930 1_554 S
C167 C162 1.479 . S
C167 C166 1.405 . S
C167 H193 0.931 . S
U168 O169 2.454 . S
U168 O170 2.458 . S
U168 C171 2.984 . S
U168 C172 2.847 . S
U168 C185 2.882 . S
U168 O186 2.441 . S
U168 O187 2.420 . S
U168 O188 2.455 . S
U168 O189 2.449 . S
O169 U168 2.454 . S
O169 C171 1.353 . S
O170 U168 2.458 . S
O170 C171 1.286 . S
C171 U168 2.984 . S
C171 O169 1.353 . S
C171 O170 1.286 . S
C171 C173 1.363 . S
C172 C162 1.465 . S
C172 U168 2.847 . S
C172 O186 1.249 . S
C172 O187 1.202 . S
C173 C171 1.363 . S
C173 C175 1.408 . S
C173 C178 1.342 . S
C174 C175 1.310 . S
C174 C177 1.461 . S
C174 H194 0.932 1_554 S
C175 C173 1.408 . S
C175 C174 1.310 . S
C175 H195 0.930 . S
C176 C177 1.474 . S
C176 C178 1.285 . S
C176 H196 0.929 . S
C177 C174 1.461 . S
C177 C176 1.474 . S
C178 C173 1.342 . S
C178 C176 1.285 . S
C178 H197 0.930 . S
C179 C182 1.424 . S
C179 C184 1.245 . S
C179 C185 1.428 . S
C180 C183 1.260 . S
C180 C184 1.477 . S
C180 H198 0.932 . S
C181 C182 1.384 . S
C181 C183 1.479 . S
C181 H199 0.929 . S
C182 C179 1.424 . S
C182 C181 1.384 . S
C182 H200 0.928 . S
C183 C180 1.260 . S
C183 C181 1.479 . S
C184 C179 1.245 . S
C184 C180 1.477 . S
C184 H201 0.932 . S
C185 U168 2.882 . S
C185 C179 1.428 . S
C185 O188 1.301 . S
C185 O189 1.282 . S
O186 U168 2.441 . S
O186 C172 1.249 . S
O187 U168 2.420 . S
O187 C172 1.202 . S
O188 U168 2.455 . S
O188 C185 1.301 . S
O189 U168 2.449 . S
O189 C185 1.282 . S
H190 C163 0.931 . S
H191 C165 0.929 . S
H192 C166 0.930 1_556 S
H193 C167 0.931 . S
H194 C174 0.932 1_556 S
H195 C175 0.930 . S
H196 C176 0.929 . S
H197 C178 0.930 . S
H198 C180 0.932 . S
H199 C181 0.929 . S
H200 C182 0.928 . S
H201 C184 0.932 . S
H202 C203 0.951 . S
C203 H202 0.951 . S
C203 C209 1.265 . S
H204 C209 0.950 . S
H205 C213 0.949 . S
H206 C214 0.950 . S
H207 C215 0.951 . S
H208 C216 0.951 . S
C209 C203 1.265 . S
C209 H204 0.950 . S
C209 C210 1.478 . S
C210 C209 1.478 . S
C210 C211 1.397 1_554 S
C210 C227 1.394 . S
C211 C210 1.397 1_556 S
C211 C212 1.438 . S
C211 C216 1.429 . S
C212 C211 1.438 . S
C212 C213 1.428 . S
C212 C225 1.394 1_556 S
C213 H205 0.949 . S
C213 C212 1.428 . S
C213 C214 1.345 . S
C214 H206 0.950 . S
C214 C213 1.345 . S
C214 C215 1.424 . S
C215 H207 0.951 . S
C215 C214 1.424 . S
C215 C216 1.347 . S
C216 H208 0.951 . S
C216 C211 1.429 . S
C216 C215 1.347 . S
H217 C218 0.951 . S
C218 H217 0.951 . S
C218 C224 1.265 . S
H219 C224 0.950 . S
H220 C228 0.949 . S
H221 C229 0.950 . S
H222 C230 0.951 . S
H223 C231 0.951 . S
C224 C218 1.265 . S
C224 H219 0.950 . S
C224 C225 1.478 . S
C225 C212 1.394 1_554 S
C225 C224 1.478 . S
C225 C226 1.397 . S
C226 C225 1.397 . S
C226 C227 1.438 . S
C226 C231 1.429 . S
C227 C210 1.394 . S
C227 C226 1.438 . S
C227 C228 1.428 . S
C228 H220 0.949 . S
C228 C227 1.428 . S
C228 C229 1.345 . S
C229 H221 0.950 . S
C229 C228 1.345 . S
C229 C230 1.424 . S
C230 H222 0.951 . S
C230 C229 1.424 . S
C230 C231 1.347 . S
C231 H223 0.951 . S
C231 C226 1.429 . S
C231 C230 1.347 . S
H232 C233 0.951 . S
C233 H232 0.951 . S
C233 C239 1.265 . S
H234 C239 0.950 1_556 S
H235 C243 0.949 . S
H236 C244 0.950 . S
H237 C245 0.951 . S
H238 C246 0.951 . S
C239 C233 1.265 . S
C239 H234 0.950 1_554 S
C239 C240 1.478 . S
C240 C239 1.478 . S
C240 C241 1.397 1_554 S
C240 C257 1.394 . S
C241 C240 1.397 1_556 S
C241 C242 1.438 . S
C241 C246 1.429 . S
C242 C241 1.438 . S
C242 C243 1.428 . S
C242 C255 1.366 1_556 S
C243 H235 0.949 . S
C243 C242 1.428 . S
C243 C244 1.345 . S
C244 H236 0.950 . S
C244 C243 1.345 . S
C244 C245 1.424 . S
C245 H237 0.951 . S
C245 C244 1.424 . S
C245 C246 1.347 . S
C246 H238 0.951 . S
C246 C241 1.429 . S
C246 C245 1.347 . S
H247 C248 0.951 . S
C248 H247 0.951 . S
C248 C254 1.265 1_556 S
H249 C254 0.954 . S
H250 C258 0.949 . S
H251 C259 0.950 . S
H252 C260 0.951 . S
H253 C261 0.951 . S
C254 C248 1.265 1_554 S
C254 H249 0.954 . S
C254 C255 1.478 . S
C255 C242 1.366 1_554 S
C255 C254 1.478 . S
C255 C256 1.423 . S
C256 C255 1.423 . S
C256 C257 1.438 . S
C256 C261 1.429 . S
C257 C240 1.394 . S
C257 C256 1.438 . S
C257 C258 1.428 . S
C258 H250 0.949 . S
C258 C257 1.428 . S
C258 C259 1.345 . S
C259 H251 0.950 . S
C259 C258 1.345 . S
C259 C260 1.424 . S
C260 H252 0.951 . S
C260 C259 1.424 . S
C260 C261 1.347 . S
C261 H253 0.951 . S
C261 C256 1.429 . S
C261 C260 1.347 . S
H262 C263 0.951 . S
C263 H262 0.951 . S
C263 C269 1.265 . S
H264 C269 0.936 1_556 S
H265 C273 0.949 . S
H266 C274 0.950 . S
H267 C275 0.951 . S
H268 C276 0.951 . S
C269 C263 1.265 . S
C269 H264 0.936 1_554 S
C269 C270 1.478 . S
C270 C269 1.478 . S
C270 C271 1.397 . S
C270 C287 1.394 . S
C271 C270 1.397 . S
C271 C272 1.438 . S
C271 C276 1.429 . S
C272 C271 1.438 . S
C272 C273 1.428 . S
C272 C285 1.394 . S
C273 H265 0.949 . S
C273 C272 1.428 . S
C273 C274 1.345 . S
C274 H266 0.950 . S
C274 C273 1.345 . S
C274 C275 1.424 . S
C275 H267 0.951 . S
C275 C274 1.424 . S
C275 C276 1.347 . S
C276 H268 0.951 . S
C276 C271 1.429 . S
C276 C275 1.347 . S
H277 C278 0.951 . S
C278 H277 0.951 . S
C278 C284 1.265 . S
H279 C284 0.950 . S
H280 C288 0.949 . S
H281 C289 0.950 . S
H282 C290 0.951 . S
H283 C291 0.943 1_554 S
C284 C278 1.265 . S
C284 H279 0.950 . S
C284 C285 1.478 . S
C285 C272 1.394 . S
C285 C284 1.478 . S
C285 C286 1.397 . S
C286 C285 1.397 . S
C286 C287 1.438 . S
C286 C291 1.429 1_554 S
C287 C270 1.394 . S
C287 C286 1.438 . S
C287 C288 1.428 1_554 S
C288 H280 0.949 . S
C288 C287 1.428 1_556 S
C288 C289 1.345 . S
C289 H281 0.950 . S
C289 C288 1.345 . S
C289 C290 1.424 . S
C290 H282 0.951 . S
C290 C289 1.424 . S
C290 C291 1.347 . S
C291 H283 0.943 1_556 S
C291 C286 1.429 1_556 S
C291 C290 1.347 . S
H292 C293 0.938 1_556 S
C293 H292 0.938 1_554 S
C293 C299 1.270 . S
H294 C299 0.950 . S
H295 C303 0.949 . S
H296 C304 0.950 . S
H297 C305 0.951 . S
H298 C306 0.951 . S
C299 C293 1.270 . S
C299 H294 0.950 . S
C299 C300 1.475 1_554 S
C300 C299 1.475 1_556 S
C300 C301 1.389 1_556 S
C300 C317 1.404 . S
C301 C300 1.389 1_554 S
C301 C302 1.438 . S
C301 C306 1.429 . S
C302 C301 1.438 . S
C302 C303 1.428 . S
C302 C315 1.394 1_554 S
C303 H295 0.949 . S
C303 C302 1.428 . S
C303 C304 1.345 . S
C304 H296 0.950 . S
C304 C303 1.345 . S
C304 C305 1.424 . S
C305 H297 0.951 . S
C305 C304 1.424 . S
C305 C306 1.347 . S
C306 H298 0.951 . S
C306 C301 1.429 . S
C306 C305 1.347 . S
H307 C308 0.951 . S
C308 H307 0.951 . S
C308 C314 1.265 . S
H309 C314 0.950 . S
H310 C318 0.949 . S
H311 C319 0.950 . S
H312 C320 0.951 . S
H313 C321 0.951 . S
C314 C308 1.265 . S
C314 H309 0.950 . S
C314 C315 1.478 . S
C315 C302 1.394 1_556 S
C315 C314 1.478 . S
C315 C316 1.397 . S
C316 C315 1.397 . S
C316 C317 1.438 . S
C316 C321 1.429 . S
C317 C300 1.404 . S
C317 C316 1.438 . S
C317 C318 1.428 . S
C318 H310 0.949 . S
C318 C317 1.428 . S
C318 C319 1.345 . S
C319 H311 0.950 . S
C319 C318 1.345 . S
C319 C320 1.424 . S
C320 H312 0.951 . S
C320 C319 1.424 . S
C320 C321 1.347 . S
C321 H313 0.951 . S
C321 C316 1.429 . S
C321 C320 1.347 . S
H322 C323 0.951 . S
C323 H322 0.951 . S
C323 C329 1.265 . S
H324 C329 0.950 . S
H325 C333 0.949 . S
H326 C334 0.950 . S
H327 C335 0.951 . S
H328 C336 0.951 . S
C329 C323 1.265 . S
C329 H324 0.950 . S
C329 C330 1.478 . S
C330 C329 1.478 . S
C330 C331 1.397 . S
C330 C347 1.394 . S
C331 C330 1.397 . S
C331 C332 1.438 . S
C331 C336 1.429 . S
C332 C331 1.438 . S
C332 C333 1.428 . S
C332 C345 1.394 . S
C333 H325 0.949 . S
C333 C332 1.428 . S
C333 C334 1.345 . S
C334 H326 0.950 . S
C334 C333 1.345 . S
C334 C335 1.424 . S
C335 H327 0.951 . S
C335 C334 1.424 . S
C335 C336 1.347 . S
C336 H328 0.951 . S
C336 C331 1.429 . S
C336 C335 1.347 . S
H337 C338 0.951 . S
C338 H337 0.951 . S
C338 C344 1.265 . S
H339 C344 0.950 . S
H340 C348 0.949 . S
H341 C349 0.950 . S
H342 C350 0.951 . S
H343 C351 0.951 . S
C344 C338 1.265 . S
C344 H339 0.950 . S
C344 C345 1.478 . S
C345 C332 1.394 . S
C345 C344 1.478 . S
C345 C346 1.397 . S
C346 C345 1.397 . S
C346 C347 1.438 . S
C346 C351 1.429 . S
C347 C330 1.394 . S
C347 C346 1.438 . S
C347 C348 1.428 . S
C348 H340 0.949 . S
C348 C347 1.428 . S
C348 C349 1.345 . S
C349 H341 0.950 . S
C349 C348 1.345 . S
C349 C350 1.424 . S
C350 H342 0.951 . S
C350 C349 1.424 . S
C350 C351 1.347 . S
C351 H343 0.951 . S
C351 C346 1.429 . S
C351 C350 1.347 . S
H352 C353 0.951 . S
C353 H352 0.951 . S
C353 C359 1.265 . S
H354 C359 0.950 . S
H355 C363 0.949 . S
H356 C364 0.950 . S
H357 C365 0.951 . S
H358 C366 0.951 . S
C359 C353 1.265 . S
C359 H354 0.950 . S
C359 C360 1.478 . S
C360 C359 1.478 . S
C360 C361 1.397 . S
C360 C377 1.394 . S
C361 C360 1.397 . S
C361 C362 1.438 . S
C361 C366 1.429 . S
C362 C361 1.438 . S
C362 C363 1.428 . S
C362 C375 1.394 . S
C363 H355 0.949 . S
C363 C362 1.428 . S
C363 C364 1.345 . S
C364 H356 0.950 . S
C364 C363 1.345 . S
C364 C365 1.424 . S
C365 H357 0.951 . S
C365 C364 1.424 . S
C365 C366 1.347 . S
C366 H358 0.951 . S
C366 C361 1.429 . S
C366 C365 1.347 . S
H367 C368 0.951 . S
C368 H367 0.951 . S
C368 C374 1.265 . S
H369 C374 0.950 . S
H370 C378 0.949 . S
H371 C379 0.950 . S
H372 C380 0.951 . S
H373 C381 0.951 . S
C374 C368 1.265 . S
C374 H369 0.950 . S
C374 C375 1.478 . S
C375 C362 1.394 . S
C375 C374 1.478 . S
C375 C376 1.397 . S
C376 C375 1.397 . S
C376 C377 1.438 . S
C376 C381 1.429 . S
C377 C360 1.394 . S
C377 C376 1.438 . S
C377 C378 1.428 . S
C378 H370 0.949 . S
C378 C377 1.428 . S
C378 C379 1.345 . S
C379 H371 0.950 . S
C379 C378 1.345 . S
C379 C380 1.424 . S
C380 H372 0.951 . S
C380 C379 1.424 . S
C380 C381 1.347 . S
C381 H373 0.951 . S
C381 C376 1.429 . S
C381 C380 1.347 . S
H382 C383 0.951 . S
C383 H382 0.951 . S
C383 C389 1.265 . S
H384 C389 0.950 . S
H385 C393 0.949 . S
H386 C394 0.950 . S
H387 C395 0.951 . S
H388 C396 0.951 . S
C389 C383 1.265 . S
C389 H384 0.950 . S
C389 C390 1.478 . S
C390 C389 1.478 . S
C390 C391 1.397 . S
C390 C407 1.394 . S
C391 C390 1.397 . S
C391 C392 1.438 . S
C391 C396 1.429 . S
C392 C391 1.438 . S
C392 C393 1.428 . S
C392 C405 1.394 . S
C393 H385 0.949 . S
C393 C392 1.428 . S
C393 C394 1.345 . S
C394 H386 0.950 . S
C394 C393 1.345 . S
C394 C395 1.424 . S
C395 H387 0.951 . S
C395 C394 1.424 . S
C395 C396 1.347 . S
C396 H388 0.951 . S
C396 C391 1.429 . S
C396 C395 1.347 . S
H397 C398 0.951 . S
C398 H397 0.951 . S
C398 C404 1.265 . S
H399 C404 0.950 . S
H400 C408 0.949 . S
H401 C409 0.950 . S
H402 C410 0.951 . S
H403 C411 0.951 . S
C404 C398 1.265 . S
C404 H399 0.950 . S
C404 C405 1.478 . S
C405 C392 1.394 . S
C405 C404 1.478 . S
C405 C406 1.397 . S
C406 C405 1.397 . S
C406 C407 1.438 . S
C406 C411 1.429 . S
C407 C390 1.394 . S
C407 C406 1.438 . S
C407 C408 1.428 . S
C408 H400 0.949 . S
C408 C407 1.428 . S
C408 C409 1.345 . S
C409 H401 0.950 . S
C409 C408 1.345 . S
C409 C410 1.424 . S
C410 H402 0.951 . S
C410 C409 1.424 . S
C410 C411 1.347 . S
C411 H403 0.951 . S
C411 C406 1.429 . S
C411 C410 1.347 . S
H412 C413 0.951 . S
C413 H412 0.951 . S
C413 C419 1.265 . S
H414 C419 0.950 . S
H415 C423 0.949 . S
H416 C424 0.950 . S
H417 C425 0.951 . S
H418 C426 0.951 . S
C419 C413 1.265 . S
C419 H414 0.950 . S
C419 C420 1.478 . S
C420 C419 1.478 . S
C420 C421 1.397 . S
C420 C437 1.394 . S
C421 C420 1.397 . S
C421 C422 1.438 . S
C421 C426 1.429 . S
C422 C421 1.438 . S
C422 C423 1.428 . S
C422 C435 1.394 . S
C423 H415 0.949 . S
C423 C422 1.428 . S
C423 C424 1.345 . S
C424 H416 0.950 . S
C424 C423 1.345 . S
C424 C425 1.424 . S
C425 H417 0.951 . S
C425 C424 1.424 . S
C425 C426 1.347 . S
C426 H418 0.951 . S
C426 C421 1.429 . S
C426 C425 1.347 . S
H427 C428 0.951 . S
C428 H427 0.951 . S
C428 C434 1.265 . S
H429 C434 0.950 . S
H430 C438 0.949 . S
H431 C439 0.950 . S
H432 C440 0.951 . S
H433 C441 0.951 . S
C434 C428 1.265 . S
C434 H429 0.950 . S
C434 C435 1.478 . S
C435 C422 1.394 . S
C435 C434 1.478 . S
C435 C436 1.397 . S
C436 C435 1.397 . S
C436 C437 1.438 . S
C436 C441 1.429 . S
C437 C420 1.394 . S
C437 C436 1.438 . S
C437 C438 1.428 . S
C438 H430 0.949 . S
C438 C437 1.428 . S
C438 C439 1.345 . S
C439 H431 0.950 . S
C439 C438 1.345 . S
C439 C440 1.424 . S
C440 H432 0.951 . S
C440 C439 1.424 . S
C440 C441 1.347 . S
C441 H433 0.951 . S
C441 C436 1.429 . S
C441 C440 1.347 . S
H442 C443 0.951 . S
C443 H442 0.951 . S
C443 C449 1.265 . S
H444 C449 0.950 . S
H445 C453 0.949 . S
H446 C454 0.950 . S
H447 C455 0.951 . S
H448 C456 0.951 . S
C449 C443 1.265 . S
C449 H444 0.950 . S
C449 C450 1.478 . S
C450 C449 1.478 . S
C450 C451 1.397 . S
C450 C467 1.394 1_545 S
C451 C450 1.397 . S
C451 C452 1.438 . S
C451 C456 1.429 . S
C452 C451 1.438 . S
C452 C453 1.428 . S
C452 C465 1.394 . S
C453 H445 0.949 . S
C453 C452 1.428 . S
C453 C454 1.345 . S
C454 H446 0.950 . S
C454 C453 1.345 . S
C454 C455 1.424 . S
C455 H447 0.951 . S
C455 C454 1.424 . S
C455 C456 1.347 . S
C456 H448 0.951 . S
C456 C451 1.429 . S
C456 C455 1.347 . S
H457 C458 0.951 1_545 S
C458 H457 0.951 1_565 S
C458 C464 1.265 . S
H459 C464 0.950 1_655 S
H460 C468 0.949 . S
H461 C469 0.953 . S
H462 C470 0.951 . S
H463 C471 0.954 . S
C464 C458 1.265 . S
C464 H459 0.950 1_455 S
C464 C465 1.478 1_565 S
C465 C452 1.394 . S
C465 C464 1.478 1_545 S
C465 C466 1.397 1_545 S
C466 C465 1.397 1_565 S
C466 C467 1.438 . S
C466 C471 1.429 . S
C467 C450 1.394 1_565 S
C467 C466 1.438 . S
C467 C468 1.428 . S
C468 H460 0.949 . S
C468 C467 1.428 . S
C468 C469 1.345 . S
C469 H461 0.953 . S
C469 C468 1.345 . S
C469 C470 1.424 1_455 S
C470 H462 0.951 . S
C470 C469 1.424 1_655 S
C470 C471 1.347 1_655 S
C471 H463 0.954 . S
C471 C466 1.429 . S
C471 C470 1.347 1_455 S
H472 C473 0.951 . S
C473 H472 0.951 . S
C473 C479 1.265 . S
H474 C479 0.950 1_655 S
H475 C483 0.949 . S
H476 C484 0.950 . S
H477 C485 0.951 . S
H478 C486 0.951 . S
C479 C473 1.265 . S
C479 H474 0.950 1_455 S
C479 C480 1.478 . S
C480 C479 1.478 . S
C480 C481 1.397 . S
C480 C497 1.394 . S
C481 C480 1.397 . S
C481 C482 1.438 . S
C481 C486 1.429 . S
C482 C481 1.438 . S
C482 C483 1.428 . S
C482 C495 1.394 . S
C483 H475 0.949 . S
C483 C482 1.428 . S
C483 C484 1.345 . S
C484 H476 0.950 . S
C484 C483 1.345 . S
C484 C485 1.424 . S
C485 H477 0.951 . S
C485 C484 1.424 . S
C485 C486 1.347 . S
C486 H478 0.951 . S
C486 C481 1.429 . S
C486 C485 1.347 . S
H487 C488 0.951 1_655 S
C488 H487 0.951 1_455 S
C488 C494 1.265 . S
H489 C494 0.950 . S
H490 C498 0.949 . S
H491 C499 0.950 . S
H492 C500 0.951 . S
H493 C501 0.951 . S
C494 C488 1.265 . S
C494 H489 0.950 . S
C494 C495 1.478 . S
C495 C482 1.394 . S
C495 C494 1.478 . S
C495 C496 1.397 . S
C496 C495 1.397 . S
C496 C497 1.438 . S
C496 C501 1.429 1_545 S
C497 C480 1.394 . S
C497 C496 1.438 . S
C497 C498 1.428 1_545 S
C498 H490 0.949 . S
C498 C497 1.428 1_565 S
C498 C499 1.345 . S
C499 H491 0.950 . S
C499 C498 1.345 . S
C499 C500 1.424 . S
C500 H492 0.951 . S
C500 C499 1.424 . S
C500 C501 1.347 . S
C501 H493 0.951 . S
C501 C496 1.429 1_565 S
C501 C500 1.347 . S
H502 C503 0.951 . S
C503 H502 0.951 . S
C503 C509 1.265 . S
H504 C509 0.950 . S
H505 C513 0.949 . S
H506 C514 0.950 . S
H507 C515 0.951 . S
H508 C516 0.951 . S
C509 C503 1.265 . S
C509 H504 0.950 . S
C509 C510 1.478 . S
C510 C509 1.478 . S
C510 C511 1.397 . S
C510 C527 1.394 . S
C511 C510 1.397 . S
C511 C512 1.438 . S
C511 C516 1.429 . S
C512 C511 1.438 . S
C512 C513 1.428 . S
C512 C525 1.394 . S
C513 H505 0.949 . S
C513 C512 1.428 . S
C513 C514 1.345 . S
C514 H506 0.950 . S
C514 C513 1.345 . S
C514 C515 1.424 . S
C515 H507 0.951 . S
C515 C514 1.424 . S
C515 C516 1.347 . S
C516 H508 0.951 . S
C516 C511 1.429 . S
C516 C515 1.347 . S
H517 C518 0.951 . S
C518 H517 0.951 . S
C518 C524 1.265 . S
H519 C524 0.950 . S
H520 C528 0.949 . S
H521 C529 0.950 . S
H522 C530 0.951 . S
H523 C531 0.951 . S
C524 C518 1.265 . S
C524 H519 0.950 . S
C524 C525 1.478 . S
C525 C512 1.394 . S
C525 C524 1.478 . S
C525 C526 1.397 . S
C526 C525 1.397 . S
C526 C527 1.438 . S
C526 C531 1.429 . S
C527 C510 1.394 . S
C527 C526 1.438 . S
C527 C528 1.428 . S
C528 H520 0.949 . S
C528 C527 1.428 . S
C528 C529 1.345 . S
C529 H521 0.950 . S
C529 C528 1.345 . S
C529 C530 1.424 . S
C530 H522 0.951 . S
C530 C529 1.424 . S
C530 C531 1.347 . S
C531 H523 0.951 . S
C531 C526 1.429 . S
C531 C530 1.347 . S
H532 C533 0.951 . S
C533 H532 0.951 . S
C533 C539 1.265 . S
H534 C539 0.950 . S
H535 C543 0.949 . S
H536 C544 0.950 . S
H537 C545 0.951 . S
H538 C546 0.951 . S
C539 C533 1.265 . S
C539 H534 0.950 . S
C539 C540 1.478 . S
C540 C539 1.478 . S
C540 C541 1.397 . S
C540 C557 1.394 . S
C541 C540 1.397 . S
C541 C542 1.438 . S
C541 C546 1.429 . S
C542 C541 1.438 . S
C542 C543 1.428 . S
C542 C555 1.394 . S
C543 H535 0.949 . S
C543 C542 1.428 . S
C543 C544 1.345 . S
C544 H536 0.950 . S
C544 C543 1.345 . S
C544 C545 1.424 . S
C545 H537 0.951 . S
C545 C544 1.424 . S
C545 C546 1.347 . S
C546 H538 0.951 . S
C546 C541 1.429 . S
C546 C545 1.347 . S
H547 C548 0.951 . S
C548 H547 0.951 . S
C548 C554 1.265 . S
H549 C554 0.950 . S
H550 C558 0.949 . S
H551 C559 0.950 . S
H552 C560 0.951 . S
H553 C561 0.951 . S
C554 C548 1.265 . S
C554 H549 0.950 . S
C554 C555 1.478 . S
C555 C542 1.394 . S
C555 C554 1.478 . S
C555 C556 1.397 . S
C556 C555 1.397 . S
C556 C557 1.438 . S
C556 C561 1.429 . S
C557 C540 1.394 . S
C557 C556 1.438 . S
C557 C558 1.428 . S
C558 H550 0.949 . S
C558 C557 1.428 . S
C558 C559 1.345 . S
C559 H551 0.950 . S
C559 C558 1.345 . S
C559 C560 1.424 . S
C560 H552 0.951 . S
C560 C559 1.424 . S
C560 C561 1.347 . S
C561 H553 0.951 . S
C561 C556 1.429 . S
C561 C560 1.347 . S
C218 C164 1.453 . S
C203 C16 1.438 . S
C233 C15 1.540 . S
C248 C124 1.578 . S
C263 C13 1.279 . S
C278 C177 1.500 . S
C293 C14 1.396 . S
C308 C137 1.404 . S
C323 C37 1.419 . S
C338 C84 1.466 . S
C353 C36 1.542 . S
C368 C44 1.581 . S
C398 C97 1.479 . S
C383 C34 1.234 . S
C428 C57 1.406 . S
C413 C35 1.393 . S
C443 C17 1.548 . S
C458 C63 1.523 1_565 S
C473 C18 1.421 . S
C488 C103 1.434 . S
C518 C143 1.523 . S
C503 C38 1.547 . S
C533 C39 1.421 . S
C548 C183 1.433 . S
