# Generated by pormake.
# Topology dag, (6,3)-cn, num edge types: 1
# Building blocks:
#     Node 0, Type 0, BuildingBlock: MIDCAF_clean_sbu_0, # of connection points: 6
#     Node 1, Type 0, BuildingBlock: MIDCAF_clean_sbu_0, # of connection points: 6
#     Node 2, Type 0, BuildingBlock: MIDCAF_clean_sbu_0, # of connection points: 6
#     Node 3, Type 0, BuildingBlock: MIDCAF_clean_sbu_0, # of connection points: 6
#     Node 4, Type 1, BuildingBlock: WUSLED_clean_sbu_0, # of connection points: 3
#     Node 5, Type 1, BuildingBlock: WUSLED_clean_sbu_0, # of connection points: 3
#     Node 6, Type 1, BuildingBlock: WUSLED_clean_sbu_0, # of connection points: 3
#     Node 7, Type 1, BuildingBlock: WUSLED_clean_sbu_0, # of connection points: 3
#     Node 8, Type 1, BuildingBlock: WUSLED_clean_sbu_0, # of connection points: 3
#     Node 9, Type 1, BuildingBlock: WUSLED_clean_sbu_0, # of connection points: 3
#     Node 10, Type 1, BuildingBlock: WUSLED_clean_sbu_0, # of connection points: 3
#     Node 11, Type 1, BuildingBlock: WUSLED_clean_sbu_0, # of connection points: 3
#     Edge 12, Type (0, 1), BuildingBlock: KIFKEQ_clean_linker_1, # of connection points: 2
#     Edge 13, Type (0, 1), BuildingBlock: KIFKEQ_clean_linker_1, # of connection points: 2
#     Edge 14, Type (0, 1), BuildingBlock: KIFKEQ_clean_linker_1, # of connection points: 2
#     Edge 15, Type (0, 1), BuildingBlock: KIFKEQ_clean_linker_1, # of connection points: 2
#     Edge 16, Type (0, 1), BuildingBlock: KIFKEQ_clean_linker_1, # of connection points: 2
#     Edge 17, Type (0, 1), BuildingBlock: KIFKEQ_clean_linker_1, # of connection points: 2
#     Edge 18, Type (0, 1), BuildingBlock: KIFKEQ_clean_linker_1, # of connection points: 2
#     Edge 19, Type (0, 1), BuildingBlock: KIFKEQ_clean_linker_1, # of connection points: 2
#     Edge 20, Type (0, 1), BuildingBlock: KIFKEQ_clean_linker_1, # of connection points: 2
#     Edge 21, Type (0, 1), BuildingBlock: KIFKEQ_clean_linker_1, # of connection points: 2
#     Edge 22, Type (0, 1), BuildingBlock: KIFKEQ_clean_linker_1, # of connection points: 2
#     Edge 23, Type (0, 1), BuildingBlock: KIFKEQ_clean_linker_1, # of connection points: 2
#     Edge 24, Type (0, 1), BuildingBlock: KIFKEQ_clean_linker_1, # of connection points: 2
#     Edge 25, Type (0, 1), BuildingBlock: KIFKEQ_clean_linker_1, # of connection points: 2
#     Edge 26, Type (0, 1), BuildingBlock: KIFKEQ_clean_linker_1, # of connection points: 2
#     Edge 27, Type (0, 1), BuildingBlock: KIFKEQ_clean_linker_1, # of connection points: 2
#     Edge 28, Type (0, 1), BuildingBlock: KIFKEQ_clean_linker_1, # of connection points: 2
#     Edge 29, Type (0, 1), BuildingBlock: KIFKEQ_clean_linker_1, # of connection points: 2
#     Edge 30, Type (0, 1), BuildingBlock: KIFKEQ_clean_linker_1, # of connection points: 2
#     Edge 31, Type (0, 1), BuildingBlock: KIFKEQ_clean_linker_1, # of connection points: 2
#     Edge 32, Type (0, 1), BuildingBlock: KIFKEQ_clean_linker_1, # of connection points: 2
#     Edge 33, Type (0, 1), BuildingBlock: KIFKEQ_clean_linker_1, # of connection points: 2
#     Edge 34, Type (0, 1), BuildingBlock: KIFKEQ_clean_linker_1, # of connection points: 2
#     Edge 35, Type (0, 1), BuildingBlock: KIFKEQ_clean_linker_1, # of connection points: 2
# Relax obj value: 0.296
# Max RMSD: 0.190
# Mean RMSD: 0.178
data_MOF--net-dag--node1-MIDCAF_clean_sbu_0--node2-WUSLED_clean_sbu_0--edge1-KIFKEQ_clean_linker_1
_symmetry_space_group_name_H-M    P1
_symmetry_Int_Tables_number       1
_symmetry_cell_setting            triclinic
loop_
_symmetry_equiv_pos_as_xyz
'x, y, z'
_cell_length_a     53.53564
_cell_length_b     52.680792
_cell_length_c     39.923896
_cell_angle_alpha  90.048849
_cell_angle_beta   93.577312
_cell_angle_gamma 89.964736
loop_
_atom_site_label
_atom_site_type_symbol
_atom_site_fract_x
_atom_site_fract_y
_atom_site_fract_z
_atom_type_partial_charge
Zn0 Zn 0.16611 0.82349 0.08952 0.0
Zn1 Zn 0.16059 0.85075 0.89151 0.0
Zn2 Zn 0.1684 0.83207 0.98957 0.0
C3 C 0.1741 0.88933 0.94584 0.0
C4 C 0.12741 0.82675 0.94655 0.0
O5 O 0.19736 0.8031 1.00097 0.0
O6 O 0.18245 0.81586 0.04647 0.0
C7 C 0.18169 0.8662 0.03875 0.0
O8 O 0.17355 0.87235 0.96954 0.0
O9 O 0.17002 0.88426 0.9145 0.0
O10 O 0.14689 0.83416 0.93294 0.0
O11 O 0.13025 0.82178 0.97771 0.0
O12 O 0.17575 0.84441 0.04907 0.0
O13 O 0.1814 0.86866 0.00705 0.0
O14 O 0.13251 0.82327 0.01616 0.0
O15 O 0.12997 0.81759 0.0725 0.0
C16 C 0.11993 0.81867 0.04247 0.0
O17 O 0.19355 0.80502 0.9664 0.0
O18 O 0.17467 0.82718 0.9278 0.0
C19 C 0.19696 0.80071 0.03265 0.0
C20 C 0.19094 0.8104 0.9353 0.0
Zn21 Zn 0.68366 0.64413 0.43687 0.0
Zn22 Zn 0.67609 0.68035 0.55839 0.0
Zn23 Zn 0.67793 0.66347 0.49593 0.0
C24 C 0.69113 0.63033 0.56403 0.0
C25 C 0.62783 0.68468 0.5279 0.0
O26 O 0.7019 0.68983 0.46755 0.0
O27 O 0.70031 0.67305 0.41664 0.0
C28 C 0.70094 0.60733 0.47886 0.0
O29 O 0.69102 0.6333 0.53194 0.0
O30 O 0.68364 0.64794 0.58236 0.0
O31 O 0.64074 0.69184 0.55374 0.0
O32 O 0.6383 0.67306 0.50399 0.0
O33 O 0.7027 0.61274 0.44833 0.0
O34 O 0.6918 0.62365 0.49892 0.0
O35 O 0.63996 0.66287 0.47101 0.0
O36 O 0.64719 0.64048 0.42565 0.0
C37 C 0.63203 0.65166 0.44368 0.0
O38 O 0.7029 0.697 0.50124 0.0
O39 O 0.70326 0.70553 0.55566 0.0
C40 C 0.70715 0.69074 0.43644 0.0
C41 C 0.71101 0.70999 0.52705 0.0
Zn42 Zn 0.88087 0.16509 0.05895 0.0
Zn43 Zn 0.82586 0.14827 0.1379 0.0
Zn44 Zn 0.84729 0.16261 0.09026 0.0
C45 C 0.8769 0.13367 0.14685 0.0
C46 C 0.8022 0.12553 0.07889 0.0
O47 O 0.82921 0.16247 0.03925 0.0
O48 O 0.8599 0.18667 0.02415 0.0
C49 C 0.8854 0.20401 0.09694 0.0
O50 O 0.8764 0.14221 0.11702 0.0
O51 O 0.8572 0.13443 0.1628 0.0
O52 O 0.8024 0.12569 0.11058 0.0
O53 O 0.81795 0.13937 0.06377 0.0
O54 O 0.89869 0.1841 0.09743 0.0
O55 O 0.86172 0.20166 0.08992 0.0
O56 O 0.84263 0.13639 0.04641 0.0
O57 O 0.88295 0.12776 0.04624 0.0
C58 C 0.86062 0.12281 0.03574 0.0
O59 O 0.8348 0.19937 0.10866 0.0
O60 O 0.81358 0.18271 0.14891 0.0
C61 C 0.83736 0.17949 0.01931 0.0
C62 C 0.82031 0.20192 0.13284 0.0
Zn63 Zn 0.33714 0.34032 0.63475 0.0
Zn64 Zn 0.32327 0.31224 0.50682 0.0
Zn65 Zn 0.33138 0.32469 0.57127 0.0
C66 C 0.37448 0.30349 0.52507 0.0
C67 C 0.31105 0.36239 0.5093 0.0
O68 O 0.30521 0.3024 0.60213 0.0
O69 O 0.31013 0.32006 0.65246 0.0
C70 C 0.38347 0.32187 0.61637 0.0
O71 O 0.36795 0.31102 0.55403 0.0
O72 O 0.35848 0.30239 0.50047 0.0
O73 O 0.31191 0.34505 0.48764 0.0
O74 O 0.31753 0.35788 0.54042 0.0
O75 O 0.37254 0.32908 0.64185 0.0
O76 O 0.37126 0.31967 0.58765 0.0
O77 O 0.32233 0.36567 0.57363 0.0
O78 O 0.32945 0.37678 0.62691 0.0
C79 C 0.32297 0.38263 0.59698 0.0
O80 O 0.30456 0.29262 0.56913 0.0
O81 O 0.29823 0.28559 0.51448 0.0
C82 C 0.29905 0.30438 0.63281 0.0
C83 C 0.29387 0.28022 0.54435 0.0
C84 C 0.08829 0.11717 0.31734 0.0
C85 C 0.08781 0.11671 0.28211 0.0
C86 C 0.04236 0.11842 0.27882 0.0
C87 C 0.06507 0.11752 0.26304 0.0
C88 C 0.04287 0.11903 0.31408 0.0
C89 C 0.06569 0.11848 0.33318 0.0
U90 U 0.15154 0.08669 0.32656 0.0
O91 O 0.18901 0.10062 0.34257 0.0
O92 O 0.1723 0.0697 0.37043 0.0
C93 C 0.1906 0.08628 0.36956 0.0
C94 C 0.11206 0.11403 0.33751 0.0
C95 C 0.19685 0.10004 0.401 0.0
C96 C 0.19125 0.13667 0.43671 0.0
C97 C 0.18353 0.12196 0.40883 0.0
C98 C 0.22478 0.10683 0.45046 0.0
C99 C 0.21234 0.12963 0.45748 0.0
C100 C 0.21714 0.09223 0.42236 0.0
C101 C 0.16483 0.0426 0.25091 0.0
C102 C 0.18473 0.03395 0.19889 0.0
C103 C 0.1753 -0.00069 0.23583 0.0
C104 C 0.16564 0.01653 0.2583 0.0
C105 C 0.18429 0.00774 0.20538 0.0
C106 C 0.17501 0.05117 0.22134 0.0
C107 C 0.1501 0.06028 0.2707 0.0
O108 O 0.11569 0.09118 0.35007 0.0
O109 O 0.132 0.12343 0.32437 0.0
O110 O 0.15776 0.08397 0.27271 0.0
O111 O 0.14169 0.05172 0.29883 0.0
H112 H 0.105 0.1152 0.26929 0.0
H113 H 0.06523 0.11672 0.23594 0.0
H114 H 0.02563 0.11992 0.32688 0.0
H115 H 0.06567 0.11858 0.36032 0.0
H116 H 0.18138 0.15423 0.4409 0.0
H117 H 0.16773 0.12823 0.39264 0.0
H118 H 0.24082 0.10059 0.46619 0.0
H119 H 0.22751 0.07523 0.41679 0.0
H120 H 0.19181 0.04111 0.17589 0.0
H121 H 0.17432 0.97925 0.24147 0.0
H122 H 0.15769 0.0092 0.28063 0.0
H123 H 0.17442 0.07112 0.21477 0.0
C124 C 0.29561 0.61828 0.62235 0.0
C125 C 0.30816 0.61198 0.59364 0.0
C126 C 0.29268 0.56863 0.59602 0.0
C127 C 0.30661 0.5874 0.58049 0.0
C128 C 0.27912 0.57544 0.6238 0.0
C129 C 0.28063 0.60006 0.63687 0.0
U130 U 0.33838 0.67406 0.63659 0.0
O131 O 0.33187 0.71462 0.64624 0.0
O132 O 0.35382 0.6917 0.6833 0.0
C133 C 0.34222 0.71335 0.67699 0.0
C134 C 0.30084 0.64246 0.6397 0.0
C135 C 0.32728 0.72341 0.70421 0.0
C136 C 0.31879 0.72544 0.76346 0.0
C137 C 0.33314 0.71649 0.73783 0.0
C138 C 0.29281 0.74905 0.72266 0.0
C139 C 0.29833 0.74168 0.75617 0.0
C140 C 0.30714 0.74009 0.69701 0.0
C141 C 0.39625 0.67182 0.58284 0.0
C142 C 0.43319 0.69854 0.58918 0.0
C143 C 0.43098 0.66484 0.54773 0.0
C144 C 0.40711 0.6585 0.55712 0.0
C145 C 0.44449 0.68473 0.5639 0.0
C146 C 0.40923 0.6921 0.59862 0.0
C147 C 0.37212 0.663 0.59385 0.0
O148 O 0.3207 0.64184 0.66071 0.0
O149 O 0.29979 0.66288 0.62071 0.0
O150 O 0.35257 0.67745 0.58616 0.0
O151 O 0.37251 0.65382 0.62446 0.0
H152 H 0.32002 0.62576 0.58226 0.0
H153 H 0.31703 0.58287 0.55886 0.0
H154 H 0.2685 0.5614 0.63668 0.0
H155 H 0.27107 0.60453 0.65928 0.0
H156 H 0.32349 0.71925 0.78894 0.0
H157 H 0.34871 0.70393 0.74437 0.0
H158 H 0.27749 0.76194 0.71622 0.0
H159 H 0.30234 0.74619 0.67152 0.0
H160 H 0.44295 0.71414 0.60189 0.0
H161 H 0.43918 0.65349 0.52863 0.0
H162 H 0.39737 0.64268 0.54484 0.0
H163 H 0.40104 0.70257 0.61859 0.0
C164 C 0.78318 0.90683 0.13238 0.0
C165 C 0.79829 0.91702 0.1083 0.0
C166 C 0.76813 0.95109 0.09676 0.0
C167 C 0.79086 0.93894 0.09068 0.0
C168 C 0.75247 0.93997 0.11974 0.0
C169 C 0.76 0.91806 0.13748 0.0
U170 U 0.83395 0.85908 0.15638 0.0
O171 O 0.85143 0.84903 0.20583 0.0
O172 O 0.83224 0.8197 0.17477 0.0
C173 C 0.8431 0.82556 0.20422 0.0
C174 C 0.79255 0.88592 0.15404 0.0
C175 C 0.83025 0.81668 0.23361 0.0
C176 C 0.80168 0.82365 0.27779 0.0
C177 C 0.81371 0.83249 0.24991 0.0
C178 C 0.82248 0.78307 0.27327 0.0
C179 C 0.8058 0.79875 0.28975 0.0
C180 C 0.83459 0.79198 0.24556 0.0
C181 C 0.89175 0.85878 0.10215 0.0
C182 C 0.9181 0.83154 0.06969 0.0
C183 C 0.93662 0.86636 0.10204 0.0
C184 C 0.91311 0.87282 0.11281 0.0
C185 C 0.93939 0.84582 0.08004 0.0
C186 C 0.89452 0.83802 0.08049 0.0
C187 C 0.86659 0.86737 0.11108 0.0
O188 O 0.79423 0.86369 0.13936 0.0
O189 O 0.81246 0.8916 0.17351 0.0
O190 O 0.84805 0.85108 0.1068 0.0
O191 O 0.86563 0.88079 0.13877 0.0
H192 H 0.81632 0.90862 0.10414 0.0
H193 H 0.80363 0.94709 0.07366 0.0
H194 H 0.73473 0.94861 0.12476 0.0
H195 H 0.74809 0.91037 0.15595 0.0
H196 H 0.78918 0.83636 0.28998 0.0
H197 H 0.81006 0.85166 0.24106 0.0
H198 H 0.82576 0.76364 0.28124 0.0
H199 H 0.84722 0.77946 0.23323 0.0
H200 H 0.91952 0.81577 0.0525 0.0
H201 H 0.95266 0.87754 0.11094 0.0
H202 H 0.91165 0.88914 0.12911 0.0
H203 H 0.87842 0.82705 0.07127 0.0
C204 C 0.71982 0.41356 0.71044 0.0
C205 C 0.69782 0.42813 0.70786 0.0
C206 C 0.71794 0.45966 0.67401 0.0
C207 C 0.69696 0.45095 0.69017 0.0
C208 C 0.7401 0.44515 0.67686 0.0
C209 C 0.74101 0.42228 0.69492 0.0
U210 U 0.68391 0.35518 0.72896 0.0
O211 O 0.69342 0.31445 0.73284 0.0
O212 O 0.67775 0.33429 0.77521 0.0
C213 C 0.68747 0.31314 0.76427 0.0
C214 C 0.71992 0.38865 0.72742 0.0
C215 C 0.70514 0.29962 0.78795 0.0
C216 C 0.72309 0.25954 0.8079 0.0
C217 C 0.70844 0.27339 0.78411 0.0
C218 C 0.73169 0.29806 0.83965 0.0
C219 C 0.73465 0.27163 0.83625 0.0
C220 C 0.71715 0.31193 0.81573 0.0
C221 C 0.61649 0.35566 0.68755 0.0
C222 C 0.58745 0.3257 0.65963 0.0
C223 C 0.57164 0.3608 0.69133 0.0
C224 C 0.59606 0.36899 0.69923 0.0
C225 C 0.56702 0.33916 0.67128 0.0
C226 C 0.61198 0.33385 0.66772 0.0
C227 C 0.64195 0.36604 0.69436 0.0
O228 O 0.70511 0.38694 0.75241 0.0
O229 O 0.71832 0.3689 0.70723 0.0
O230 O 0.6606 0.35384 0.68162 0.0
O231 O 0.64731 0.37425 0.72507 0.0
H232 H 0.68109 0.42178 0.71927 0.0
H233 H 0.67975 0.4618 0.68925 0.0
H234 H 0.75655 0.45115 0.66454 0.0
H235 H 0.75809 0.41119 0.69628 0.0
H236 H 0.72529 0.23933 0.80409 0.0
H237 H 0.6993 0.26349 0.76294 0.0
H238 H 0.74005 0.30801 0.86129 0.0
H239 H 0.71486 0.33215 0.81943 0.0
H240 H 0.58445 0.30889 0.64428 0.0
H241 H 0.55631 0.37186 0.7002 0.0
H242 H 0.59897 0.3861 0.71405 0.0
H243 H 0.62731 0.32324 0.65808 0.0
C244 C 0.5992 0.27941 0.43312 0.0
C245 C 0.59263 0.29675 0.45779 0.0
C246 C 0.55211 0.27611 0.46129 0.0
C247 C 0.56935 0.29514 0.47173 0.0
C248 C 0.55922 0.25821 0.43736 0.0
C249 C 0.58252 0.25991 0.42335 0.0
U250 U 0.65756 0.31753 0.42477 0.0
O251 O 0.69674 0.308 0.41577 0.0
O252 O 0.67506 0.3331 0.3809 0.0
C253 C 0.69641 0.32132 0.38789 0.0
C254 C 0.62267 0.28282 0.41621 0.0
C255 C 0.70909 0.31031 0.35947 0.0
C256 C 0.70885 0.2932 0.30277 0.0
C257 C 0.6959 0.30114 0.33044 0.0
C258 C 0.74822 0.3032 0.33304 0.0
C259 C 0.73521 0.2943 0.30366 0.0
C260 C 0.7353 0.31108 0.36056 0.0
C261 C 0.6665 0.37431 0.483 0.0
C262 C 0.70093 0.40356 0.47702 0.0
C263 C 0.6672 0.41476 0.51204 0.0
C264 C 0.65576 0.3914 0.50478 0.0
C265 C 0.68958 0.42139 0.49752 0.0
C266 C 0.68943 0.38022 0.46972 0.0
C267 C 0.65255 0.35157 0.4719 0.0
O268 O 0.6233 0.30344 0.39777 0.0
O269 O 0.64339 0.27922 0.4351 0.0
O270 O 0.66409 0.3298 0.47733 0.0
O271 O 0.64145 0.3533 0.44172 0.0
H272 H 0.60524 0.31203 0.46556 0.0
H273 H 0.56449 0.30947 0.48967 0.0
H274 H 0.54661 0.24309 0.42906 0.0
H275 H 0.58728 0.24633 0.40437 0.0
H276 H 0.69824 0.28612 0.28075 0.0
H277 H 0.67564 0.30045 0.32896 0.0
H278 H 0.76843 0.30468 0.33455 0.0
H279 H 0.74584 0.31839 0.38255 0.0
H280 H 0.7183 0.40797 0.46576 0.0
H281 H 0.65776 0.42814 0.52753 0.0
H282 H 0.63798 0.38713 0.51508 0.0
H283 H 0.69794 0.36718 0.45278 0.0
C284 C 0.06427 0.23296 0.9348 0.0
C285 C 0.05573 0.21397 0.95583 0.0
C286 C 0.02619 0.24356 0.97894 0.0
C287 C 0.03686 0.21915 0.9775 0.0
C288 C 0.03495 0.26264 0.9579 0.0
C289 C 0.05384 0.25736 0.93603 0.0
U290 U 0.11248 0.18699 0.9061 0.0
O291 O 0.12128 0.17379 0.85573 0.0
O292 O 0.15042 0.19177 0.88892 0.0
C293 C 0.14458 0.18167 0.85932 0.0
C294 C 0.08376 0.22704 0.91145 0.0
C295 C 0.15491 0.19393 0.83003 0.0
C296 C 0.16854 0.23112 0.80005 0.0
C297 C 0.15639 0.22041 0.82679 0.0
C298 C 0.17725 0.18906 0.7792 0.0
C299 C 0.1795 0.21553 0.77625 0.0
C300 C 0.16508 0.17842 0.80578 0.0
C301 C 0.12061 0.12463 0.95345 0.0
C302 C 0.14992 0.09275 0.93604 0.0
C303 C 0.12262 0.08337 0.9806 0.0
C304 C 0.11236 0.10776 0.9775 0.0
C305 C 0.1413 0.07544 0.95959 0.0
C306 C 0.13964 0.1171 0.93297 0.0
C307 C 0.10865 0.14962 0.949 0.0
O308 O 0.10671 0.22572 0.92514 0.0
O309 O 0.07829 0.20819 0.89067 0.0
O310 O 0.12342 0.16926 0.95474 0.0
O311 O 0.09395 0.15204 0.9216 0.0
H312 H 0.06349 0.19498 0.95521 0.0
H313 H 0.03032 0.20379 0.99267 0.0
H314 H 0.02736 0.28167 0.95848 0.0
H315 H 0.06025 0.27229 0.92002 0.0
H316 H 0.17012 0.25158 0.79868 0.0
H317 H 0.14871 0.23274 0.84529 0.0
H318 H 0.18511 0.17651 0.76111 0.0
H319 H 0.16411 0.15793 0.80783 0.0
H320 H 0.16449 0.08739 0.91977 0.0
H321 H 0.11532 0.07046 0.99868 0.0
H322 H 0.09761 0.11327 0.99344 0.0
H323 H 0.14627 0.12995 0.91429 0.0
C324 C 0.28757 0.56929 0.34833 0.0
C325 C 0.27498 0.54671 0.3394 0.0
C326 C 0.28377 0.53 0.39588 0.0
C327 C 0.27307 0.52723 0.36295 0.0
C328 C 0.29519 0.55321 0.40516 0.0
C329 C 0.29722 0.57257 0.38161 0.0
U330 U 0.33482 0.6123 0.31291 0.0
O331 O 0.34508 0.61976 0.26133 0.0
O332 O 0.33343 0.6512 0.29299 0.0
C333 C 0.33983 0.64408 0.26314 0.0
C334 C 0.29327 0.58786 0.32218 0.0
C335 C 0.32472 0.6548 0.23464 0.0
C336 C 0.28616 0.6574 0.19937 0.0
C337 C 0.30054 0.64588 0.22567 0.0
C338 C 0.3202 0.68647 0.19059 0.0
C339 C 0.29574 0.67804 0.18175 0.0
C340 C 0.33452 0.67493 0.21675 0.0
C341 C 0.39947 0.61257 0.36083 0.0
C342 C 0.43061 0.64483 0.3765 0.0
C343 C 0.44376 0.602 0.36427 0.0
C344 C 0.41881 0.59483 0.35804 0.0
C345 C 0.44993 0.62703 0.37377 0.0
C346 C 0.40561 0.63771 0.37001 0.0
C347 C 0.3732 0.60406 0.35562 0.0
O348 O 0.29732 0.61131 0.33254 0.0
O349 O 0.30969 0.57996 0.30134 0.0
O350 O 0.36803 0.58978 0.32907 0.0
O351 O 0.35571 0.62092 0.36069 0.0
H352 H 0.26762 0.54369 0.31381 0.0
H353 H 0.26442 0.50951 0.35483 0.0
H354 H 0.30331 0.55612 0.4304 0.0
H355 H 0.30722 0.58971 0.38918 0.0
H356 H 0.2675 0.65027 0.19301 0.0
H357 H 0.29272 0.63029 0.23925 0.0
H358 H 0.32804 0.70257 0.17807 0.0
H359 H 0.35314 0.68209 0.22348 0.0
H360 H 0.43484 0.66429 0.38359 0.0
H361 H 0.45821 0.58775 0.36248 0.0
H362 H 0.41459 0.57528 0.35143 0.0
H363 H 0.39115 0.65184 0.37249 0.0
C364 C 0.82735 0.96459 0.78967 0.0
C365 C 0.84741 0.96325 0.81393 0.0
C366 C 0.83188 0.0003 0.84235 0.0
C367 C 0.84968 0.98089 0.83994 0.0
C368 C 0.81143 0.00135 0.81839 0.0
C369 C 0.80924 0.98363 0.79208 0.0
U370 U 0.85754 0.90891 0.75344 0.0
O371 O 0.84457 0.87278 0.73135 0.0
O372 O 0.8671 0.89861 0.70218 0.0
C373 C 0.85412 0.87743 0.7024 0.0
C374 C 0.82621 0.94613 0.76197 0.0
C375 C 0.83841 0.8712 0.67176 0.0
C376 C 0.79984 0.8542 0.64526 0.0
C377 C 0.81297 0.86501 0.6731 0.0
C378 C 0.8368 0.85735 0.61353 0.0
C379 C 0.81186 0.84939 0.6155 0.0
C380 C 0.84995 0.86804 0.64143 0.0
C381 C 0.91588 0.88707 0.80865 0.0
C382 C 0.93594 0.85585 0.84635 0.0
C383 C 0.9603 0.878 0.80648 0.0
C384 C 0.93891 0.89112 0.79444 0.0
C385 C 0.95918 0.86064 0.83309 0.0
C386 C 0.91456 0.86901 0.83437 0.0
C387 C 0.89407 0.90355 0.79986 0.0
O388 O 0.84488 0.94789 0.7422 0.0
O389 O 0.82175 0.92264 0.77099 0.0
O390 O 0.87185 0.89329 0.80195 0.0
O391 O 0.89545 0.91858 0.77375 0.0
H392 H 0.86151 0.9486 0.81259 0.0
H393 H 0.86537 0.97926 0.85829 0.0
H394 H 0.79748 0.01616 0.81958 0.0
H395 H 0.79362 0.98491 0.77356 0.0
H396 H 0.78075 0.84812 0.64789 0.0
H397 H 0.80353 0.86724 0.69614 0.0
H398 H 0.84651 0.85432 0.59086 0.0
H399 H 0.86955 0.87266 0.63979 0.0
H400 H 0.93439 0.84239 0.86661 0.0
H401 H 0.97796 0.88244 0.79601 0.0
H402 H 0.9407 0.90512 0.77489 0.0
H403 H 0.89714 0.86566 0.84607 0.0
H404 H 0.20103 0.9132 0.02589 0.0
H405 H 0.17383 0.86718 0.10531 0.0
H406 H 0.20632 0.94904 0.06493 0.0
H407 H 0.17977 0.90237 0.14418 0.0
H408 H 0.20955 0.96266 0.21387 0.0
H409 H 0.21329 0.92902 0.17241 0.0
H410 H 0.17693 0.97683 0.09628 0.0
H411 H 0.17278 0.0103 0.13769 0.0
C412 C 0.19604 0.91079 0.05154 0.0
C413 C 0.18645 0.88757 0.0623 0.0
C414 C 0.1993 0.93118 0.07392 0.0
C415 C 0.19355 0.92845 0.10763 0.0
C416 C 0.18473 0.90496 0.11851 0.0
C417 C 0.18118 0.88479 0.09612 0.0
C418 C 0.20256 0.96609 0.18823 0.0
C419 C 0.19059 0.98907 0.17925 0.0
C420 C 0.20476 0.94686 0.16449 0.0
C421 C 0.19514 0.95022 0.13122 0.0
C422 C 0.18468 0.97377 0.12167 0.0
C423 C 0.18236 0.99297 0.14546 0.0
H424 H 0.59125 0.65254 0.503 0.0
H425 H 0.60289 0.72418 0.554 0.0
H426 H 0.54604 0.65671 0.50776 0.0
H427 H 0.55786 0.72776 0.5603 0.0
H428 H 0.46418 0.68404 0.502 0.0
H429 H 0.50823 0.68715 0.48978 0.0
H430 H 0.52839 0.69991 0.59462 0.0
H431 H 0.48452 0.69651 0.60724 0.0
C432 C 0.58406 0.66954 0.51422 0.0
C433 C 0.60046 0.68838 0.52719 0.0
C434 C 0.55825 0.67181 0.5173 0.0
C435 C 0.54852 0.69259 0.53439 0.0
C436 C 0.56491 0.71156 0.54706 0.0
C437 C 0.59061 0.70951 0.54339 0.0
C438 C 0.47797 0.68751 0.5225 0.0
C439 C 0.47078 0.68976 0.5557 0.0
C440 C 0.50315 0.68923 0.51541 0.0
C441 C 0.52165 0.69338 0.54125 0.0
C442 C 0.51445 0.69684 0.57418 0.0
C443 C 0.48929 0.69498 0.58136 0.0
H444 H 0.82343 0.08648 0.04882 0.0
H445 H 0.75246 0.11424 0.07784 0.0
H446 H 0.80619 0.04477 0.03945 0.0
H447 H 0.735 0.07138 0.07079 0.0
H448 H 0.77622 0.96855 0.03335 0.0
H449 H 0.77636 0.01279 0.01506 0.0
H450 H 0.74752 0.03573 0.10906 0.0
H451 H 0.74774 0.99192 0.12751 0.0
C452 C 0.80354 0.08425 0.05019 0.0
C453 C 0.78904 0.10412 0.06193 0.0
C454 C 0.79364 0.05994 0.04576 0.0
C455 C 0.76917 0.05464 0.05445 0.0
C456 C 0.75393 0.07489 0.06385 0.0
C457 C 0.76382 0.09945 0.0676 0.0
C458 C 0.76945 0.983 0.04985 0.0
C459 C 0.76249 0.97667 0.08222 0.0
C460 C 0.76936 0.00831 0.03924 0.0
C461 C 0.76219 0.02781 0.06071 0.0
C462 C 0.75289 0.0212 0.09169 0.0
C463 C 0.75309 0.99595 0.10235 0.0
H464 H 0.40947 0.29726 0.66675 0.0
H465 H 0.41863 0.33851 0.57507 0.0
H466 H 0.45477 0.29637 0.67814 0.0
H467 H 0.46404 0.33821 0.58664 0.0
H468 H 0.52798 0.33689 0.71186 0.0
H469 H 0.48426 0.32845 0.69585 0.0
H470 H 0.50305 0.31471 0.59371 0.0
H471 H 0.54692 0.32402 0.60964 0.0
C472 C 0.4213 0.30578 0.64879 0.0
C473 C 0.4107 0.31782 0.61998 0.0
C474 C 0.4472 0.30544 0.65538 0.0
C475 C 0.46304 0.31754 0.63357 0.0
C476 C 0.45243 0.32854 0.60385 0.0
C477 C 0.42645 0.32875 0.59719 0.0
C478 C 0.52281 0.33198 0.686 0.0
C479 C 0.54088 0.33131 0.66198 0.0
C480 C 0.49776 0.32682 0.67686 0.0
C481 C 0.49011 0.32079 0.64345 0.0
C482 C 0.5083 0.31941 0.61958 0.0
C483 C 0.53345 0.32452 0.62877 0.0
H484 H 0.6738 0.5789 0.51986 0.0
H485 H 0.73864 0.57639 0.46097 0.0
H486 H 0.67766 0.5335 0.5305 0.0
H487 H 0.74268 0.53077 0.47161 0.0
H488 H 0.69268 0.45213 0.55337 0.0
H489 H 0.70165 0.49763 0.55507 0.0
H490 H 0.71664 0.49575 0.45011 0.0
H491 H 0.70774 0.45064 0.44828 0.0
C492 C 0.68938 0.56872 0.51013 0.0
C493 C 0.70611 0.58111 0.48996 0.0
C494 C 0.69162 0.5427 0.51621 0.0
C495 C 0.71043 0.52849 0.50176 0.0
C496 C 0.72787 0.54118 0.48284 0.0
C497 C 0.72563 0.56724 0.47683 0.0
C498 C 0.69823 0.46141 0.5308 0.0
C499 C 0.69926 0.44778 0.5006 0.0
C500 C 0.70337 0.48743 0.53183 0.0
C501 C 0.70963 0.50033 0.50272 0.0
C502 C 0.71221 0.48637 0.47313 0.0
C503 C 0.70708 0.46042 0.47208 0.0
H504 H 0.87945 0.23312 0.04121 0.0
H505 H 0.92345 0.22594 0.13477 0.0
H506 H 0.91483 0.25183 0.01546 0.0
H507 H 0.9585 0.24674 0.11008 0.0
H508 H 0.02166 0.22533 0.04244 0.0
H509 H 0.9857 0.22739 0.07587 0.0
H510 H 0.94834 0.27695 1.0023 0.0
H511 H 0.98401 0.27324 0.96747 0.0
C512 C 0.89617 0.23719 0.05697 0.0
C513 C 0.89887 0.22758 0.08979 0.0
C514 C 0.91673 0.24784 0.04207 0.0
C515 C 0.94015 0.24973 0.06014 0.0
C516 C 0.94121 0.24445 0.09482 0.0
C517 C 0.92088 0.23313 0.10936 0.0
C518 C 0.00581 0.23667 0.03327 0.0
C519 C 0.00561 0.24855 1.00175 0.0
C520 C 0.98518 0.23834 0.05292 0.0
C521 C 0.96372 0.25228 0.04197 0.0
C522 C 0.96423 0.26566 0.01146 0.0
C523 C 0.98486 0.26375 0.99155 0.0
H524 H 0.27225 0.39367 0.5241 0.0
H525 H 0.33832 0.38916 0.46788 0.0
H526 H 0.26368 0.43659 0.50137 0.0
H527 H 0.33025 0.43178 0.4459 0.0
H528 H 0.32376 0.51574 0.43735 0.0
H529 H 0.3288 0.47703 0.47027 0.0
H530 H 0.25328 0.4548 0.43952 0.0
H531 H 0.24785 0.49404 0.40687 0.0
C532 C 0.28494 0.40199 0.5071 0.0
C533 C 0.30593 0.3884 0.49764 0.0
C534 C 0.28005 0.42637 0.49408 0.0
C535 C 0.29642 0.43749 0.47209 0.0
C536 C 0.31753 0.42382 0.46316 0.0
C537 C 0.32208 0.39944 0.47554 0.0
C538 C 0.30793 0.50303 0.43824 0.0
C539 C 0.28542 0.50796 0.41925 0.0
C540 C 0.31093 0.48075 0.45693 0.0
C541 C 0.29151 0.46288 0.45716 0.0
C542 C 0.2685 0.46835 0.43983 0.0
C543 C 0.26551 0.49065 0.4209 0.0
H544 H 0.08477 0.80244 0.96309 0.0
H545 H 0.11437 0.85086 0.88789 0.0
H546 H 0.04299 0.80598 0.93478 0.0
H547 H 0.07304 0.85397 0.85936 0.0
H548 H 0.99957 0.84215 0.8018 0.0
H549 H 0.04005 0.82935 0.82801 0.0
H550 H 0.01209 0.84114 0.926 0.0
H551 H 0.97181 0.85415 0.89994 0.0
C552 C 0.08231 0.81385 0.94059 0.0
C553 C 0.10266 0.82685 0.92813 0.0
C554 C 0.05849 0.81574 0.92428 0.0
C555 C 0.05474 0.83028 0.89488 0.0
C556 C 0.07536 0.84235 0.88171 0.0
C557 C 0.09905 0.84065 0.89816 0.0
C558 C 0.00202 0.84182 0.82893 0.0
C559 C 0.98253 0.84939 0.84875 0.0
C560 C 0.02516 0.83446 0.84392 0.0
C561 C 0.02928 0.83444 0.87904 0.0
C562 C 0.00941 0.84069 0.89888 0.0
C563 C 0.98629 0.84813 0.8839 0.0
H564 H 0.82025 0.12128 0.99065 0.0
H565 H 0.89006 0.08325 0.01792 0.0
H566 H 0.81262 0.09209 0.94373 0.0
H567 H 0.88227 0.05374 0.97123 0.0
H568 H 0.87474 0.02482 0.86377 0.0
H569 H 0.88113 0.05412 0.91066 0.0
H570 H 0.80287 0.04803 0.93019 0.0
H571 H 0.79645 0.01877 0.88281 0.0
C572 C 0.83386 0.10651 0.98678 0.0
C573 C 0.85572 0.10445 0.00806 0.0
C574 C 0.82942 0.08971 0.95997 0.0
C575 C 0.84684 0.07059 0.95366 0.0
C576 C 0.86864 0.06849 0.97509 0.0
C577 C 0.87308 0.0853 1.00191 0.0
C578 C 0.8589 0.02967 0.87813 0.0
C579 C 0.83512 0.01934 0.86974 0.0
C580 C 0.86258 0.0464 0.9051 0.0
C581 C 0.84258 0.05322 0.92445 0.0
C582 C 0.81864 0.04332 0.91564 0.0
C583 C 0.81494 0.02659 0.8885 0.0
H584 H 0.41085 0.27963 0.566 0.0
H585 H 0.39753 0.31478 0.46896 0.0
H586 H 0.45426 0.27056 0.55281 0.0
H587 H 0.44024 0.30578 0.45574 0.0
H588 H 0.50813 0.26598 0.42515 0.0
H589 H 0.46575 0.26986 0.44293 0.0
H590 H 0.49453 0.29165 0.54217 0.0
H591 H 0.53728 0.28677 0.52479 0.0
C592 C 0.41728 0.28563 0.54208 0.0
C593 C 0.40091 0.2981 0.51865 0.0
C594 C 0.44205 0.28036 0.53443 0.0
C595 C 0.45067 0.28715 0.503 0.0
C596 C 0.43416 0.29973 0.47984 0.0
C597 C 0.40966 0.30501 0.4875 0.0
C598 C 0.50558 0.27104 0.451 0.0
C599 C 0.52626 0.2762 0.47341 0.0
C600 C 0.48118 0.2736 0.46111 0.0
C601 C 0.4767 0.28152 0.49386 0.0
C602 C 0.49732 0.28557 0.51679 0.0
C603 C 0.52182 0.28301 0.50667 0.0
H604 H 0.15152 0.91412 0.99568 0.0
H605 H 0.20009 0.92575 0.91484 0.0
H606 H 0.14752 0.96 1.00238 0.0
H607 H 0.19663 0.97161 0.92185 0.0
H608 H 0.15046 0.04467 0.90677 0.0
H609 H 0.16309 0.00044 0.90792 0.0
H610 H 0.16571 0.00117 0.01632 0.0
H611 H 0.15284 0.04575 0.01511 0.0
C612 C 0.16203 0.92653 0.98014 0.0
C613 C 0.17621 0.91645 0.95485 0.0
C614 C 0.15972 0.95284 0.98391 0.0
C615 C 0.17144 0.96955 0.9623 0.0
C616 C 0.18691 0.95932 0.93844 0.0
C617 C 0.18909 0.93307 0.93458 0.0
C618 C 0.15419 0.03561 0.93091 0.0
C619 C 0.15066 0.04882 0.96083 0.0
C620 C 0.16151 0.01018 0.93159 0.0
C621 C 0.16558 0.9972 0.96224 0.0
C622 C 0.1625 0.01051 0.99227 0.0
C623 C 0.15511 0.03603 0.99157 0.0
H624 H 0.59624 0.68884 0.44655 0.0
H625 H 0.60762 0.61116 0.41667 0.0
H626 H 0.55176 0.68545 0.42777 0.0
H627 H 0.56366 0.60767 0.39809 0.0
H628 H 0.49039 0.6151 0.3385 0.0
H629 H 0.53438 0.62347 0.35407 0.0
H630 H 0.51351 0.6629 0.44287 0.0
H631 H 0.46937 0.65485 0.42714 0.0
C632 C 0.58915 0.67105 0.43618 0.0
C633 C 0.60516 0.65017 0.43339 0.0
C634 C 0.56379 0.6691 0.42539 0.0
C635 C 0.55424 0.64634 0.41119 0.0
C636 C 0.57047 0.62561 0.4083 0.0
C637 C 0.59562 0.62755 0.41914 0.0
C638 C 0.49519 0.62567 0.36128 0.0
C639 C 0.47645 0.63413 0.38173 0.0
C640 C 0.52037 0.63045 0.37023 0.0
C641 C 0.5274 0.64369 0.39992 0.0
C642 C 0.50862 0.65296 0.41972 0.0
C643 C 0.48338 0.64828 0.41071 0.0
H644 H 0.33966 0.41363 0.54843 0.0
H645 H 0.29041 0.41101 0.62976 0.0
H646 H 0.32931 0.45859 0.5393 0.0
H647 H 0.28044 0.45579 0.62142 0.0
H648 H 0.2553 0.53289 0.59109 0.0
H649 H 0.26009 0.48713 0.58386 0.0
H650 H 0.33899 0.49743 0.57133 0.0
H651 H 0.33428 0.54293 0.57861 0.0
C652 C 0.3263 0.42264 0.56389 0.0
C653 C 0.31556 0.40899 0.58948 0.0
C654 C 0.32053 0.44834 0.55891 0.0
C655 C 0.30394 0.46074 0.57953 0.0
C656 C 0.29286 0.44674 0.60464 0.0
C657 C 0.29874 0.42119 0.60968 0.0
C658 C 0.2736 0.52539 0.58638 0.0
C659 C 0.29445 0.54155 0.58585 0.0
C660 C 0.27633 0.4992 0.58221 0.0
C661 C 0.29998 0.48862 0.57746 0.0
C662 C 0.32047 0.50496 0.57463 0.0
C663 C 0.31775 0.53111 0.57882 0.0
H664 H 0.08925 0.78917 0.0776 0.0
H665 H 0.08841 0.84729 1.00147 0.0
H666 H 0.0442 0.79369 0.08092 0.0
H667 H 0.04305 0.85114 1.00361 0.0
H668 H 0.97493 0.87886 0.06012 0.0
H669 H 0.01713 0.86928 0.04468 0.0
H670 H 0.00249 0.78911 0.05516 0.0
H671 H 0.96046 0.79883 0.07202 0.0
C672 C 0.07926 0.80236 0.06081 0.0
C673 C 0.0923 0.81768 0.03904 0.0
C674 C 0.05339 0.80487 0.06256 0.0
C675 C 0.03996 0.82291 0.0427 0.0
C676 C 0.05286 0.8373 0.0196 0.0
C677 C 0.07879 0.83484 0.01798 0.0
C678 C 0.98071 0.85918 0.05922 0.0
C679 C 0.96441 0.83965 0.06782 0.0
C680 C 0.00482 0.85364 0.04982 0.0
C681 C 0.01329 0.8284 0.0487 0.0
C682 C 0.99667 0.80878 0.0561 0.0
C683 C 0.9725 0.81434 0.06551 0.0
H684 H 0.66343 0.60446 0.6064 0.0
H685 H 0.73259 0.60065 0.55667 0.0
H686 H 0.67166 0.56263 0.63081 0.0
H687 H 0.74103 0.55842 0.58138 0.0
H688 H 0.75383 0.49681 0.66913 0.0
H689 H 0.74922 0.53786 0.64063 0.0
H690 H 0.67362 0.51821 0.60661 0.0
H691 H 0.67837 0.47705 0.63374 0.0
C692 C 0.68049 0.59464 0.60089 0.0
C693 C 0.69727 0.60553 0.57947 0.0
C694 C 0.68512 0.57065 0.61464 0.0
C695 C 0.70686 0.55717 0.60772 0.0
C696 C 0.72416 0.56844 0.58717 0.0
C697 C 0.71931 0.59245 0.57297 0.0
C698 C 0.7364 0.50102 0.65502 0.0
C699 C 0.71631 0.48374 0.65434 0.0
C700 C 0.73377 0.52456 0.63878 0.0
C701 C 0.71093 0.53135 0.62188 0.0
C702 C 0.69125 0.51371 0.62011 0.0
C703 C 0.69398 0.49015 0.63582 0.0
H704 H 0.88546 0.12073 0.21275 0.0
H705 H 0.92282 0.12972 0.12061 0.0
H706 H 0.92561 0.11496 0.24349 0.0
H707 H 0.96311 0.12301 0.15128 0.0
H708 H 0.02939 0.1467 0.22319 0.0
H709 H 0.98967 0.14675 0.18989 0.0
H710 H 0.96144 0.08905 0.25457 0.0
H711 H 0.00104 0.08957 0.28832 0.0
C712 C 0.90222 0.1209 0.19889 0.0
C713 C 0.90092 0.12591 0.16425 0.0
C714 C 0.92531 0.11748 0.21655 0.0
C715 C 0.94769 0.11878 0.19997 0.0
C716 C 0.94629 0.12244 0.16498 0.0
C717 C 0.92317 0.12604 0.14733 0.0
C718 C 0.01471 0.13394 0.23012 0.0
C719 C 0.01823 0.11825 0.25845 0.0
C720 C 0.99199 0.13382 0.21093 0.0
C721 C 0.97231 0.11784 0.21943 0.0
C722 C 0.97602 0.10188 0.24756 0.0
C723 C 0.99868 0.10217 0.26693 0.0
H724 H 0.19938 0.79397 0.10022 0.0
H725 H 0.22643 0.76266 0.00923 0.0
H726 H 0.222 0.76176 0.13297 0.0
H727 H 0.24912 0.72983 0.04235 0.0
H728 H 0.30952 0.69798 0.12205 0.0
H729 H 0.28496 0.7258 0.08384 0.0
H730 H 0.22124 0.71667 0.14398 0.0
H731 H 0.24604 0.6899 0.18294 0.0
C732 C 0.20998 0.78003 0.0871 0.0
C733 C 0.21097 0.78081 0.05205 0.0
C734 C 0.22286 0.76141 0.10595 0.0
C735 C 0.23713 0.74299 0.09029 0.0
C736 C 0.23832 0.7438 0.05518 0.0
C737 C 0.22531 0.76253 0.0362 0.0
C738 C 0.29025 0.70188 0.12708 0.0
C739 C 0.27988 0.69195 0.15585 0.0
C740 C 0.27609 0.71759 0.10494 0.0
C741 C 0.25123 0.72372 0.11109 0.0
C742 C 0.24049 0.71269 0.13885 0.0
C743 C 0.25463 0.69705 0.16099 0.0
H744 H 0.75746 0.71 0.55627 0.0
H745 H 0.70594 0.75534 0.49436 0.0
H746 H 0.78458 0.74661 0.56598 0.0
H747 H 0.73316 0.79256 0.50417 0.0
H748 H 0.76259 0.84984 0.59132 0.0
H749 H 0.74101 0.81701 0.55755 0.0
H750 H 0.81157 0.77965 0.54467 0.0
H751 H 0.83302 0.81175 0.57946 0.0
C752 C 0.75249 0.72771 0.54375 0.0
C753 C 0.72982 0.73 0.52455 0.0
C754 C 0.76802 0.7487 0.54919 0.0
C755 C 0.76095 0.77258 0.536 0.0
C756 C 0.739 0.77444 0.51481 0.0
C757 C 0.72355 0.7532 0.50898 0.0
C758 C 0.77355 0.83485 0.58083 0.0
C759 C 0.79948 0.83322 0.58871 0.0
C760 C 0.76122 0.81621 0.56107 0.0
C761 C 0.77456 0.79554 0.54879 0.0
C762 C 0.80075 0.79518 0.55412 0.0
C763 C 0.81307 0.81376 0.57389 0.0
H764 H 0.77348 0.22001 0.12336 0.0
H765 H 0.84586 0.23693 0.17124 0.0
H766 H 0.75373 0.24827 0.16209 0.0
H767 H 0.82629 0.26575 0.21001 0.0
H768 H 0.77914 0.26763 0.30404 0.0
H769 H 0.80175 0.25367 0.25647 0.0
H770 H 0.74585 0.28858 0.18865 0.0
H771 H 0.72314 0.30271 0.23655 0.0
C772 C 0.78529 0.23102 0.14096 0.0
C773 C 0.81118 0.2266 0.14407 0.0
C774 C 0.77397 0.2471 0.16343 0.0
C775 C 0.78834 0.25889 0.18971 0.0
C776 C 0.81461 0.25657 0.19047 0.0
C777 C 0.82593 0.24049 0.16786 0.0
C778 C 0.77184 0.27276 0.27905 0.0
C779 C 0.74921 0.28624 0.27424 0.0
C780 C 0.78493 0.26486 0.25167 0.0
C781 C 0.77579 0.27016 0.2186 0.0
C782 C 0.75337 0.28403 0.21374 0.0
C783 C 0.74026 0.29198 0.24121 0.0
H784 H 0.28821 0.2534 0.62711 0.0
H785 H 0.26307 0.32346 0.66943 0.0
H786 H 0.25604 0.23016 0.65592 0.0
H787 H 0.23188 0.30065 0.69906 0.0
H788 H 0.16823 0.25729 0.73709 0.0
H789 H 0.19384 0.27698 0.69581 0.0
H790 H 0.25001 0.21884 0.71386 0.0
H791 H 0.22429 0.19905 0.75472 0.0
C792 C 0.27532 0.26385 0.6417 0.0
C793 C 0.27786 0.29018 0.64567 0.0
C794 C 0.25719 0.25058 0.65871 0.0
C795 C 0.24131 0.2635 0.67994 0.0
C796 C 0.24338 0.29002 0.68262 0.0
C797 C 0.26143 0.30313 0.66581 0.0
C798 C 0.186 0.24867 0.73214 0.0
C799 C 0.19425 0.2267 0.74942 0.0
C800 C 0.20069 0.25992 0.70842 0.0
C801 C 0.22411 0.2496 0.70155 0.0
C802 C 0.23195 0.22713 0.71803 0.0
C803 C 0.21721 0.21582 0.74163 0.0
H804 H 0.69411 0.71418 0.37841 0.0
H805 H 0.7496 0.7156 0.46146 0.0
H806 H 0.71796 0.74498 0.3486 0.0
H807 H 0.77364 0.74734 0.43177 0.0
H808 H 0.82289 0.76665 0.34049 0.0
H809 H 0.79838 0.74553 0.38173 0.0
H810 H 0.73297 0.78778 0.34575 0.0
H811 H 0.75703 0.80785 0.30343 0.0
C812 C 0.7112 0.72166 0.39063 0.0
C813 C 0.71998 0.71265 0.42227 0.0
C814 C 0.72482 0.73949 0.37365 0.0
C815 C 0.74775 0.74872 0.38773 0.0
C816 C 0.75609 0.7405 0.42015 0.0
C817 C 0.74223 0.72263 0.43736 0.0
C818 C 0.80328 0.77148 0.3414 0.0
C819 C 0.79188 0.78864 0.31812 0.0
C820 C 0.78932 0.75966 0.36545 0.0
C821 C 0.76363 0.76475 0.36686 0.0
C822 C 0.75264 0.78313 0.34503 0.0
C823 C 0.76654 0.79484 0.32091 0.0
H824 H 0.78639 0.17633 0.0068 0.0
H825 H 0.8535 0.2056 0.96616 0.0
H826 H 0.76108 0.19764 0.96194 0.0
H827 H 0.82855 0.22597 0.92107 0.0
H828 H 0.77814 0.28541 0.87144 0.0
H829 H 0.8018 0.26169 0.91482 0.0
H830 H 0.74926 0.19964 0.90265 0.0
H831 H 0.7247 0.22406 0.86043 0.0
C832 C 0.79573 0.18693 0.98799 0.0
C833 C 0.8219 0.1895 0.99023 0.0
C834 C 0.78126 0.19911 0.96223 0.0
C835 C 0.79273 0.21392 0.93813 0.0
C836 C 0.81899 0.21537 0.93965 0.0
C837 C 0.83334 0.20347 0.96542 0.0
C838 C 0.77141 0.26684 0.87821 0.0
C839 C 0.74946 0.25672 0.86231 0.0
C840 C 0.78521 0.25303 0.90284 0.0
C841 C 0.77761 0.22858 0.91212 0.0
C842 C 0.75561 0.21844 0.89633 0.0
C843 C 0.74171 0.23234 0.87176 0.0
H844 H 0.30753 0.23549 0.57342 0.0
H845 H 0.24517 0.275 0.52388 0.0
H846 H 0.28544 0.19508 0.56468 0.0
H847 H 0.22309 0.23488 0.51482 0.0
H848 H 0.26158 0.13995 0.47443 0.0
H849 H 0.2785 0.17425 0.5093 0.0
H850 H 0.20392 0.19505 0.53442 0.0
H851 H 0.18679 0.16011 0.49987 0.0
C852 C 0.2886 0.23558 0.56209 0.0
C853 C 0.27782 0.2582 0.54962 0.0
C854 C 0.27607 0.21249 0.55676 0.0
C855 C 0.25264 0.21175 0.53872 0.0
C856 C 0.24097 0.23476 0.5291 0.0
C857 C 0.25358 0.25777 0.53424 0.0
C858 C 0.24875 0.15114 0.4883 0.0
C859 C 0.22274 0.1474 0.48386 0.0
C860 C 0.25851 0.17089 0.50841 0.0
C861 C 0.24254 0.18751 0.52446 0.0
C862 C 0.21667 0.18272 0.52204 0.0
C863 C 0.20688 0.1628 0.50208 0.0
H864 H 0.18744 0.81876 0.86792 0.0
H865 H 0.23021 0.77714 0.94504 0.0
H866 H 0.21352 0.80162 0.82571 0.0
H867 H 0.25622 0.75943 0.90237 0.0
H868 H 0.31372 0.75729 0.8198 0.0
H869 H 0.28787 0.77272 0.86381 0.0
H870 H 0.2216 0.76179 0.79801 0.0
H871 H 0.24736 0.74636 0.75414 0.0
C872 C 0.20238 0.80587 0.87589 0.0
C873 C 0.20678 0.79937 0.90987 0.0
C874 C 0.21725 0.79586 0.85159 0.0
C875 C 0.23691 0.77905 0.8606 0.0
C876 C 0.24136 0.77251 0.89464 0.0
C877 C 0.22639 0.78253 0.91903 0.0
C878 C 0.29361 0.75794 0.81484 0.0
C879 C 0.28264 0.75073 0.78332 0.0
C880 C 0.2788 0.76676 0.8401 0.0
C881 C 0.25267 0.76861 0.8344 0.0
C882 C 0.2417 0.76105 0.80305 0.0
C883 C 0.25648 0.75224 0.77785 0.0
loop_
_geom_bond_atom_site_label_1
_geom_bond_atom_site_label_2
_geom_bond_distance
_geom_bond_site_symmetry_2
_ccdc_geom_bond_type
Zn0 O6 1.920 . S
Zn0 O12 1.898 . S
Zn0 O15 1.905 . S
Zn1 O9 1.905 . S
Zn1 O10 1.898 . S
Zn1 O18 1.920 . S
Zn2 O5 2.080 . S
Zn2 O8 2.114 1_554 S
Zn2 O11 2.120 1_554 S
Zn2 O13 2.120 . S
Zn2 O14 2.114 . S
Zn2 O17 2.080 1_554 S
C3 O8 1.166 . S
C3 O9 1.182 . S
C4 O10 1.167 . S
C4 O11 1.299 . S
O5 Zn2 2.080 . S
O5 C19 1.305 . S
O6 Zn0 1.920 . S
O6 C19 1.234 . S
C7 O12 1.167 . S
C7 O13 1.299 . S
O8 Zn2 2.114 1_556 S
O8 C3 1.166 . S
O9 Zn1 1.905 . S
O9 C3 1.182 . S
O10 Zn1 1.898 . S
O10 C4 1.167 . S
O11 Zn2 2.120 1_556 S
O11 C4 1.299 . S
O12 Zn0 1.898 . S
O12 C7 1.167 . S
O13 Zn2 2.120 . S
O13 C7 1.299 . S
O14 Zn2 2.114 . S
O14 C16 1.166 . S
O15 Zn0 1.905 . S
O15 C16 1.182 . S
C16 O14 1.166 . S
C16 O15 1.182 . S
O17 Zn2 2.080 1_556 S
O17 C20 1.305 . S
O18 Zn1 1.920 . S
O18 C20 1.234 . S
C19 O5 1.305 . S
C19 O6 1.234 . S
C20 O17 1.305 . S
C20 O18 1.234 . S
Zn21 O27 1.920 . S
Zn21 O33 1.898 . S
Zn21 O36 1.905 . S
Zn22 O30 1.905 . S
Zn22 O31 1.898 . S
Zn22 O39 1.920 . S
Zn23 O26 2.080 . S
Zn23 O29 2.114 . S
Zn23 O32 2.120 . S
Zn23 O34 2.120 . S
Zn23 O35 2.114 . S
Zn23 O38 2.080 . S
C24 O29 1.166 . S
C24 O30 1.182 . S
C25 O31 1.167 . S
C25 O32 1.299 . S
O26 Zn23 2.080 . S
O26 C40 1.305 . S
O27 Zn21 1.920 . S
O27 C40 1.234 . S
C28 O33 1.167 . S
C28 O34 1.299 . S
O29 Zn23 2.114 . S
O29 C24 1.166 . S
O30 Zn22 1.905 . S
O30 C24 1.182 . S
O31 Zn22 1.898 . S
O31 C25 1.167 . S
O32 Zn23 2.120 . S
O32 C25 1.299 . S
O33 Zn21 1.898 . S
O33 C28 1.167 . S
O34 Zn23 2.120 . S
O34 C28 1.299 . S
O35 Zn23 2.114 . S
O35 C37 1.166 . S
O36 Zn21 1.905 . S
O36 C37 1.182 . S
C37 O35 1.166 . S
C37 O36 1.182 . S
O38 Zn23 2.080 . S
O38 C41 1.305 . S
O39 Zn22 1.920 . S
O39 C41 1.234 . S
C40 O26 1.305 . S
C40 O27 1.234 . S
C41 O38 1.305 . S
C41 O39 1.234 . S
Zn42 O48 1.920 . S
Zn42 O54 1.898 . S
Zn42 O57 1.905 . S
Zn43 O51 1.905 . S
Zn43 O52 1.898 . S
Zn43 O60 1.920 . S
Zn44 O47 2.080 . S
Zn44 O50 2.114 . S
Zn44 O53 2.120 . S
Zn44 O55 2.120 . S
Zn44 O56 2.114 . S
Zn44 O59 2.080 . S
C45 O50 1.166 . S
C45 O51 1.182 . S
C46 O52 1.167 . S
C46 O53 1.299 . S
O47 Zn44 2.080 . S
O47 C61 1.305 . S
O48 Zn42 1.920 . S
O48 C61 1.234 1_556 S
C49 O54 1.167 1_554 S
C49 O55 1.299 . S
O50 Zn44 2.114 . S
O50 C45 1.166 . S
O51 Zn43 1.905 . S
O51 C45 1.182 . S
O52 Zn43 1.898 . S
O52 C46 1.167 . S
O53 Zn44 2.120 . S
O53 C46 1.299 . S
O54 Zn42 1.898 . S
O54 C49 1.167 1_556 S
O55 Zn44 2.120 . S
O55 C49 1.299 . S
O56 Zn44 2.114 . S
O56 C58 1.166 1_554 S
O57 Zn42 1.905 . S
O57 C58 1.182 . S
C58 O56 1.166 1_556 S
C58 O57 1.182 . S
O59 Zn44 2.080 . S
O59 C62 1.305 . S
O60 Zn43 1.920 . S
O60 C62 1.234 . S
C61 O47 1.305 . S
C61 O48 1.234 1_554 S
C62 O59 1.305 . S
C62 O60 1.234 . S
Zn63 O69 1.920 . S
Zn63 O75 1.898 . S
Zn63 O78 1.905 . S
Zn64 O72 1.905 . S
Zn64 O73 1.898 . S
Zn64 O81 1.920 . S
Zn65 O68 2.080 . S
Zn65 O71 2.114 . S
Zn65 O74 2.120 . S
Zn65 O76 2.120 . S
Zn65 O77 2.114 . S
Zn65 O80 2.080 . S
C66 O71 1.166 . S
C66 O72 1.182 . S
C67 O73 1.167 . S
C67 O74 1.299 . S
O68 Zn65 2.080 . S
O68 C82 1.305 . S
O69 Zn63 1.920 . S
O69 C82 1.234 . S
C70 O75 1.167 . S
C70 O76 1.299 . S
O71 Zn65 2.114 . S
O71 C66 1.166 . S
O72 Zn64 1.905 . S
O72 C66 1.182 . S
O73 Zn64 1.898 . S
O73 C67 1.167 . S
O74 Zn65 2.120 . S
O74 C67 1.299 . S
O75 Zn63 1.898 . S
O75 C70 1.167 . S
O76 Zn65 2.120 . S
O76 C70 1.299 . S
O77 Zn65 2.114 . S
O77 C79 1.166 . S
O78 Zn63 1.905 . S
O78 C79 1.182 . S
C79 O77 1.166 . S
C79 O78 1.182 . S
O80 Zn65 2.080 . S
O80 C83 1.305 . S
O81 Zn64 1.920 . S
O81 C83 1.234 . S
C82 O68 1.305 . S
C82 O69 1.234 . S
C83 O80 1.305 . S
C83 O81 1.234 . S
C84 C85 1.264 . S
C84 C89 1.479 . S
C84 C94 1.465 . S
C85 C84 1.264 . S
C85 C87 1.339 . S
C85 H112 0.931 . S
C86 C87 1.395 . S
C86 C88 1.320 . S
C87 C85 1.339 . S
C87 C86 1.395 . S
C87 H113 0.929 . S
C88 C86 1.320 . S
C88 C89 1.405 . S
C88 H114 0.930 . S
C89 C84 1.479 . S
C89 C88 1.405 . S
C89 H115 0.931 . S
U90 O91 2.454 . S
U90 O92 2.458 . S
U90 C93 2.984 . S
U90 C94 2.847 . S
U90 C107 2.882 . S
U90 O108 2.441 . S
U90 O109 2.420 . S
U90 O110 2.455 . S
U90 O111 2.449 . S
O91 U90 2.454 . S
O91 C93 1.353 . S
O92 U90 2.458 . S
O92 C93 1.286 . S
C93 U90 2.984 . S
C93 O91 1.353 . S
C93 O92 1.286 . S
C93 C95 1.363 . S
C94 C84 1.465 . S
C94 U90 2.847 . S
C94 O108 1.249 . S
C94 O109 1.202 . S
C95 C93 1.363 . S
C95 C97 1.408 . S
C95 C100 1.342 . S
C96 C97 1.310 . S
C96 C99 1.461 . S
C96 H116 0.932 . S
C97 C95 1.408 . S
C97 C96 1.310 . S
C97 H117 0.930 . S
C98 C99 1.474 . S
C98 C100 1.285 . S
C98 H118 0.929 . S
C99 C96 1.461 . S
C99 C98 1.474 . S
C100 C95 1.342 . S
C100 C98 1.285 . S
C100 H119 0.930 . S
C101 C104 1.424 1_545 S
C101 C106 1.232 1_545 S
C101 C107 1.428 . S
C102 C105 1.260 . S
C102 C106 1.507 . S
C102 H120 0.932 . S
C103 C104 1.384 . S
C103 C105 1.479 . S
C103 H121 0.929 . S
C104 C101 1.424 1_565 S
C104 C103 1.384 . S
C104 H122 0.945 . S
C105 C102 1.260 . S
C105 C103 1.479 . S
C106 C101 1.232 1_565 S
C106 C102 1.507 . S
C106 H123 0.916 1_565 S
C107 U90 2.882 . S
C107 C101 1.428 . S
C107 O110 1.301 . S
C107 O111 1.282 . S
O108 U90 2.441 . S
O108 C94 1.249 . S
O109 U90 2.420 . S
O109 C94 1.202 . S
O110 U90 2.455 . S
O110 C107 1.301 . S
O111 U90 2.449 . S
O111 C107 1.282 . S
H112 C85 0.931 . S
H113 C87 0.929 . S
H114 C88 0.930 . S
H115 C89 0.931 . S
H116 C96 0.932 . S
H117 C97 0.930 . S
H118 C98 0.929 . S
H119 C100 0.930 . S
H120 C102 0.932 . S
H121 C103 0.929 . S
H122 C104 0.945 . S
H123 C106 0.916 1_545 S
C124 C125 1.264 . S
C124 C129 1.479 . S
C124 C134 1.465 . S
C125 C124 1.264 . S
C125 C127 1.339 . S
C125 H152 0.931 . S
C126 C127 1.395 . S
C126 C128 1.320 . S
C127 C125 1.339 . S
C127 C126 1.395 . S
C127 H153 0.929 . S
C128 C126 1.320 . S
C128 C129 1.405 . S
C128 H154 0.930 . S
C129 C124 1.479 . S
C129 C128 1.405 . S
C129 H155 0.931 . S
U130 O131 2.454 . S
U130 O132 2.458 . S
U130 C133 2.984 . S
U130 C134 2.847 . S
U130 C147 2.882 . S
U130 O148 2.441 . S
U130 O149 2.420 . S
U130 O150 2.455 . S
U130 O151 2.449 . S
O131 U130 2.454 . S
O131 C133 1.353 . S
O132 U130 2.458 . S
O132 C133 1.286 . S
C133 U130 2.984 . S
C133 O131 1.353 . S
C133 O132 1.286 . S
C133 C135 1.363 . S
C134 C124 1.465 . S
C134 U130 2.847 . S
C134 O148 1.249 . S
C134 O149 1.202 . S
C135 C133 1.363 . S
C135 C137 1.408 . S
C135 C140 1.342 . S
C136 C137 1.310 . S
C136 C139 1.461 . S
C136 H156 0.932 . S
C137 C135 1.408 . S
C137 C136 1.310 . S
C137 H157 0.930 . S
C138 C139 1.474 . S
C138 C140 1.285 . S
C138 H158 0.929 . S
C139 C136 1.461 . S
C139 C138 1.474 . S
C140 C135 1.342 . S
C140 C138 1.285 . S
C140 H159 0.930 . S
C141 C144 1.424 . S
C141 C146 1.245 . S
C141 C147 1.428 . S
C142 C145 1.260 . S
C142 C146 1.477 . S
C142 H160 0.932 . S
C143 C144 1.384 . S
C143 C145 1.479 . S
C143 H161 0.929 . S
C144 C141 1.424 . S
C144 C143 1.384 . S
C144 H162 0.928 . S
C145 C142 1.260 . S
C145 C143 1.479 . S
C146 C141 1.245 . S
C146 C142 1.477 . S
C146 H163 0.932 . S
C147 U130 2.882 . S
C147 C141 1.428 . S
C147 O150 1.301 . S
C147 O151 1.282 . S
O148 U130 2.441 . S
O148 C134 1.249 . S
O149 U130 2.420 . S
O149 C134 1.202 . S
O150 U130 2.455 . S
O150 C147 1.301 . S
O151 U130 2.449 . S
O151 C147 1.282 . S
H152 C125 0.931 . S
H153 C127 0.929 . S
H154 C128 0.930 . S
H155 C129 0.931 . S
H156 C136 0.932 . S
H157 C137 0.930 . S
H158 C138 0.929 . S
H159 C140 0.930 . S
H160 C142 0.932 . S
H161 C143 0.929 . S
H162 C144 0.928 . S
H163 C146 0.932 . S
C164 C165 1.264 . S
C164 C169 1.479 . S
C164 C174 1.465 . S
C165 C164 1.264 . S
C165 C167 1.339 . S
C165 H192 0.931 . S
C166 C167 1.395 . S
C166 C168 1.320 . S
C167 C165 1.339 . S
C167 C166 1.395 . S
C167 H193 0.929 . S
C168 C166 1.320 . S
C168 C169 1.405 . S
C168 H194 0.930 . S
C169 C164 1.479 . S
C169 C168 1.405 . S
C169 H195 0.931 . S
U170 O171 2.454 . S
U170 O172 2.458 . S
U170 C173 2.984 . S
U170 C174 2.847 . S
U170 C187 2.882 . S
U170 O188 2.441 . S
U170 O189 2.420 . S
U170 O190 2.455 . S
U170 O191 2.449 . S
O171 U170 2.454 . S
O171 C173 1.353 . S
O172 U170 2.458 . S
O172 C173 1.286 . S
C173 U170 2.984 . S
C173 O171 1.353 . S
C173 O172 1.286 . S
C173 C175 1.363 . S
C174 C164 1.465 . S
C174 U170 2.847 . S
C174 O188 1.249 . S
C174 O189 1.202 . S
C175 C173 1.363 . S
C175 C177 1.408 . S
C175 C180 1.342 . S
C176 C177 1.310 . S
C176 C179 1.461 . S
C176 H196 0.932 . S
C177 C175 1.408 . S
C177 C176 1.310 . S
C177 H197 0.930 . S
C178 C179 1.474 . S
C178 C180 1.285 . S
C178 H198 0.929 . S
C179 C176 1.461 . S
C179 C178 1.474 . S
C180 C175 1.342 . S
C180 C178 1.285 . S
C180 H199 0.930 . S
C181 C184 1.424 . S
C181 C186 1.245 . S
C181 C187 1.428 . S
C182 C185 1.260 . S
C182 C186 1.477 . S
C182 H200 0.932 . S
C183 C184 1.384 . S
C183 C185 1.479 . S
C183 H201 0.929 . S
C184 C181 1.424 . S
C184 C183 1.384 . S
C184 H202 0.928 . S
C185 C182 1.260 . S
C185 C183 1.479 . S
C186 C181 1.245 . S
C186 C182 1.477 . S
C186 H203 0.932 . S
C187 U170 2.882 . S
C187 C181 1.428 . S
C187 O190 1.301 . S
C187 O191 1.282 . S
O188 U170 2.441 . S
O188 C174 1.249 . S
O189 U170 2.420 . S
O189 C174 1.202 . S
O190 U170 2.455 . S
O190 C187 1.301 . S
O191 U170 2.449 . S
O191 C187 1.282 . S
H192 C165 0.931 . S
H193 C167 0.929 . S
H194 C168 0.930 . S
H195 C169 0.931 . S
H196 C176 0.932 . S
H197 C177 0.930 . S
H198 C178 0.929 . S
H199 C180 0.930 . S
H200 C182 0.932 . S
H201 C183 0.929 . S
H202 C184 0.928 . S
H203 C186 0.932 . S
C204 C205 1.264 . S
C204 C209 1.479 . S
C204 C214 1.465 . S
C205 C204 1.264 . S
C205 C207 1.339 . S
C205 H232 0.931 . S
C206 C207 1.395 . S
C206 C208 1.320 . S
C207 C205 1.339 . S
C207 C206 1.395 . S
C207 H233 0.929 . S
C208 C206 1.320 . S
C208 C209 1.405 . S
C208 H234 0.930 . S
C209 C204 1.479 . S
C209 C208 1.405 . S
C209 H235 0.931 . S
U210 O211 2.454 . S
U210 O212 2.458 . S
U210 C213 2.984 . S
U210 C214 2.847 . S
U210 C227 2.882 . S
U210 O228 2.441 . S
U210 O229 2.420 . S
U210 O230 2.455 . S
U210 O231 2.449 . S
O211 U210 2.454 . S
O211 C213 1.353 . S
O212 U210 2.458 . S
O212 C213 1.286 . S
C213 U210 2.984 . S
C213 O211 1.353 . S
C213 O212 1.286 . S
C213 C215 1.363 . S
C214 C204 1.465 . S
C214 U210 2.847 . S
C214 O228 1.249 . S
C214 O229 1.202 . S
C215 C213 1.363 . S
C215 C217 1.408 . S
C215 C220 1.342 . S
C216 C217 1.310 . S
C216 C219 1.461 . S
C216 H236 0.932 . S
C217 C215 1.408 . S
C217 C216 1.310 . S
C217 H237 0.930 . S
C218 C219 1.474 . S
C218 C220 1.285 . S
C218 H238 0.929 . S
C219 C216 1.461 . S
C219 C218 1.474 . S
C220 C215 1.342 . S
C220 C218 1.285 . S
C220 H239 0.930 . S
C221 C224 1.424 . S
C221 C226 1.245 . S
C221 C227 1.428 . S
C222 C225 1.260 . S
C222 C226 1.477 . S
C222 H240 0.932 . S
C223 C224 1.384 . S
C223 C225 1.479 . S
C223 H241 0.929 . S
C224 C221 1.424 . S
C224 C223 1.384 . S
C224 H242 0.928 . S
C225 C222 1.260 . S
C225 C223 1.479 . S
C226 C221 1.245 . S
C226 C222 1.477 . S
C226 H243 0.932 . S
C227 U210 2.882 . S
C227 C221 1.428 . S
C227 O230 1.301 . S
C227 O231 1.282 . S
O228 U210 2.441 . S
O228 C214 1.249 . S
O229 U210 2.420 . S
O229 C214 1.202 . S
O230 U210 2.455 . S
O230 C227 1.301 . S
O231 U210 2.449 . S
O231 C227 1.282 . S
H232 C205 0.931 . S
H233 C207 0.929 . S
H234 C208 0.930 . S
H235 C209 0.931 . S
H236 C216 0.932 . S
H237 C217 0.930 . S
H238 C218 0.929 . S
H239 C220 0.930 . S
H240 C222 0.932 . S
H241 C223 0.929 . S
H242 C224 0.928 . S
H243 C226 0.932 . S
C244 C245 1.264 . S
C244 C249 1.479 . S
C244 C254 1.465 . S
C245 C244 1.264 . S
C245 C247 1.339 . S
C245 H272 0.931 . S
C246 C247 1.395 . S
C246 C248 1.320 . S
C247 C245 1.339 . S
C247 C246 1.395 . S
C247 H273 0.929 . S
C248 C246 1.320 . S
C248 C249 1.405 . S
C248 H274 0.930 . S
C249 C244 1.479 . S
C249 C248 1.405 . S
C249 H275 0.931 . S
U250 O251 2.454 . S
U250 O252 2.458 . S
U250 C253 2.984 . S
U250 C254 2.847 . S
U250 C267 2.882 . S
U250 O268 2.441 . S
U250 O269 2.420 . S
U250 O270 2.455 . S
U250 O271 2.449 . S
O251 U250 2.454 . S
O251 C253 1.353 . S
O252 U250 2.458 . S
O252 C253 1.286 . S
C253 U250 2.984 . S
C253 O251 1.353 . S
C253 O252 1.286 . S
C253 C255 1.363 . S
C254 C244 1.465 . S
C254 U250 2.847 . S
C254 O268 1.249 . S
C254 O269 1.202 . S
C255 C253 1.363 . S
C255 C257 1.408 . S
C255 C260 1.342 . S
C256 C257 1.310 . S
C256 C259 1.461 . S
C256 H276 0.932 . S
C257 C255 1.408 . S
C257 C256 1.310 . S
C257 H277 0.930 . S
C258 C259 1.474 . S
C258 C260 1.285 . S
C258 H278 0.929 . S
C259 C256 1.461 . S
C259 C258 1.474 . S
C260 C255 1.342 . S
C260 C258 1.285 . S
C260 H279 0.930 . S
C261 C264 1.424 . S
C261 C266 1.245 . S
C261 C267 1.428 . S
C262 C265 1.260 . S
C262 C266 1.477 . S
C262 H280 0.932 . S
C263 C264 1.384 . S
C263 C265 1.479 . S
C263 H281 0.929 . S
C264 C261 1.424 . S
C264 C263 1.384 . S
C264 H282 0.928 . S
C265 C262 1.260 . S
C265 C263 1.479 . S
C266 C261 1.245 . S
C266 C262 1.477 . S
C266 H283 0.932 . S
C267 U250 2.882 . S
C267 C261 1.428 . S
C267 O270 1.301 . S
C267 O271 1.282 . S
O268 U250 2.441 . S
O268 C254 1.249 . S
O269 U250 2.420 . S
O269 C254 1.202 . S
O270 U250 2.455 . S
O270 C267 1.301 . S
O271 U250 2.449 . S
O271 C267 1.282 . S
H272 C245 0.931 . S
H273 C247 0.929 . S
H274 C248 0.930 . S
H275 C249 0.931 . S
H276 C256 0.932 . S
H277 C257 0.930 . S
H278 C258 0.929 . S
H279 C260 0.930 . S
H280 C262 0.932 . S
H281 C263 0.929 . S
H282 C264 0.928 . S
H283 C266 0.932 . S
C284 C285 1.264 . S
C284 C289 1.479 . S
C284 C294 1.465 . S
C285 C284 1.264 . S
C285 C287 1.339 . S
C285 H312 0.931 . S
C286 C287 1.395 . S
C286 C288 1.320 . S
C287 C285 1.339 . S
C287 C286 1.395 . S
C287 H313 0.929 . S
C288 C286 1.320 . S
C288 C289 1.405 . S
C288 H314 0.930 . S
C289 C284 1.479 . S
C289 C288 1.405 . S
C289 H315 0.931 . S
U290 O291 2.454 . S
U290 O292 2.458 . S
U290 C293 2.984 . S
U290 C294 2.847 . S
U290 C307 2.882 . S
U290 O308 2.441 . S
U290 O309 2.420 . S
U290 O310 2.455 . S
U290 O311 2.449 . S
O291 U290 2.454 . S
O291 C293 1.353 . S
O292 U290 2.458 . S
O292 C293 1.286 . S
C293 U290 2.984 . S
C293 O291 1.353 . S
C293 O292 1.286 . S
C293 C295 1.363 . S
C294 C284 1.465 . S
C294 U290 2.847 . S
C294 O308 1.249 . S
C294 O309 1.202 . S
C295 C293 1.363 . S
C295 C297 1.408 . S
C295 C300 1.342 . S
C296 C297 1.310 . S
C296 C299 1.461 . S
C296 H316 0.932 . S
C297 C295 1.408 . S
C297 C296 1.310 . S
C297 H317 0.930 . S
C298 C299 1.474 . S
C298 C300 1.285 . S
C298 H318 0.929 . S
C299 C296 1.461 . S
C299 C298 1.474 . S
C300 C295 1.342 . S
C300 C298 1.285 . S
C300 H319 0.930 . S
C301 C304 1.424 . S
C301 C306 1.245 . S
C301 C307 1.428 . S
C302 C305 1.260 . S
C302 C306 1.477 . S
C302 H320 0.932 . S
C303 C304 1.384 . S
C303 C305 1.479 . S
C303 H321 0.929 . S
C304 C301 1.424 . S
C304 C303 1.384 . S
C304 H322 0.928 . S
C305 C302 1.260 . S
C305 C303 1.479 . S
C306 C301 1.245 . S
C306 C302 1.477 . S
C306 H323 0.932 . S
C307 U290 2.882 . S
C307 C301 1.428 . S
C307 O310 1.301 . S
C307 O311 1.282 . S
O308 U290 2.441 . S
O308 C294 1.249 . S
O309 U290 2.420 . S
O309 C294 1.202 . S
O310 U290 2.455 . S
O310 C307 1.301 . S
O311 U290 2.449 . S
O311 C307 1.282 . S
H312 C285 0.931 . S
H313 C287 0.929 . S
H314 C288 0.930 . S
H315 C289 0.931 . S
H316 C296 0.932 . S
H317 C297 0.930 . S
H318 C298 0.929 . S
H319 C300 0.930 . S
H320 C302 0.932 . S
H321 C303 0.929 . S
H322 C304 0.928 . S
H323 C306 0.932 . S
C324 C325 1.264 . S
C324 C329 1.479 . S
C324 C334 1.465 . S
C325 C324 1.264 . S
C325 C327 1.339 . S
C325 H352 0.931 . S
C326 C327 1.395 . S
C326 C328 1.320 . S
C327 C325 1.339 . S
C327 C326 1.395 . S
C327 H353 0.929 . S
C328 C326 1.320 . S
C328 C329 1.405 . S
C328 H354 0.930 . S
C329 C324 1.479 . S
C329 C328 1.405 . S
C329 H355 0.931 . S
U330 O331 2.454 . S
U330 O332 2.458 . S
U330 C333 2.984 . S
U330 C334 2.847 . S
U330 C347 2.882 . S
U330 O348 2.441 . S
U330 O349 2.420 . S
U330 O350 2.455 . S
U330 O351 2.449 . S
O331 U330 2.454 . S
O331 C333 1.353 . S
O332 U330 2.458 . S
O332 C333 1.286 . S
C333 U330 2.984 . S
C333 O331 1.353 . S
C333 O332 1.286 . S
C333 C335 1.363 . S
C334 C324 1.465 . S
C334 U330 2.847 . S
C334 O348 1.249 . S
C334 O349 1.202 . S
C335 C333 1.363 . S
C335 C337 1.408 . S
C335 C340 1.342 . S
C336 C337 1.310 . S
C336 C339 1.461 . S
C336 H356 0.932 . S
C337 C335 1.408 . S
C337 C336 1.310 . S
C337 H357 0.930 . S
C338 C339 1.474 . S
C338 C340 1.285 . S
C338 H358 0.929 . S
C339 C336 1.461 . S
C339 C338 1.474 . S
C340 C335 1.342 . S
C340 C338 1.285 . S
C340 H359 0.930 . S
C341 C344 1.424 . S
C341 C346 1.245 . S
C341 C347 1.428 . S
C342 C345 1.260 . S
C342 C346 1.477 . S
C342 H360 0.932 . S
C343 C344 1.384 . S
C343 C345 1.479 . S
C343 H361 0.929 . S
C344 C341 1.424 . S
C344 C343 1.384 . S
C344 H362 0.928 . S
C345 C342 1.260 . S
C345 C343 1.479 . S
C346 C341 1.245 . S
C346 C342 1.477 . S
C346 H363 0.932 . S
C347 U330 2.882 . S
C347 C341 1.428 . S
C347 O350 1.301 . S
C347 O351 1.282 . S
O348 U330 2.441 . S
O348 C334 1.249 . S
O349 U330 2.420 . S
O349 C334 1.202 . S
O350 U330 2.455 . S
O350 C347 1.301 . S
O351 U330 2.449 . S
O351 C347 1.282 . S
H352 C325 0.931 . S
H353 C327 0.929 . S
H354 C328 0.930 . S
H355 C329 0.931 . S
H356 C336 0.932 . S
H357 C337 0.930 . S
H358 C338 0.929 . S
H359 C340 0.930 . S
H360 C342 0.932 . S
H361 C343 0.929 . S
H362 C344 0.928 . S
H363 C346 0.932 . S
C364 C365 1.264 . S
C364 C369 1.479 . S
C364 C374 1.465 . S
C365 C364 1.264 . S
C365 C367 1.339 . S
C365 H392 0.931 . S
C366 C367 1.395 . S
C366 C368 1.320 . S
C367 C365 1.339 . S
C367 C366 1.395 . S
C367 H393 0.929 . S
C368 C366 1.320 . S
C368 C369 1.405 . S
C368 H394 0.930 . S
C369 C364 1.479 . S
C369 C368 1.405 . S
C369 H395 0.931 . S
U370 O371 2.454 . S
U370 O372 2.458 . S
U370 C373 2.984 . S
U370 C374 2.847 . S
U370 C387 2.882 . S
U370 O388 2.441 . S
U370 O389 2.420 . S
U370 O390 2.455 . S
U370 O391 2.449 . S
O371 U370 2.454 . S
O371 C373 1.353 . S
O372 U370 2.458 . S
O372 C373 1.286 . S
C373 U370 2.984 . S
C373 O371 1.353 . S
C373 O372 1.286 . S
C373 C375 1.363 . S
C374 C364 1.465 . S
C374 U370 2.847 . S
C374 O388 1.249 . S
C374 O389 1.202 . S
C375 C373 1.363 . S
C375 C377 1.408 . S
C375 C380 1.342 . S
C376 C377 1.310 . S
C376 C379 1.461 . S
C376 H396 0.932 . S
C377 C375 1.408 . S
C377 C376 1.310 . S
C377 H397 0.930 . S
C378 C379 1.474 . S
C378 C380 1.285 . S
C378 H398 0.929 . S
C379 C376 1.461 . S
C379 C378 1.474 . S
C380 C375 1.342 . S
C380 C378 1.285 . S
C380 H399 0.930 . S
C381 C384 1.424 . S
C381 C386 1.245 . S
C381 C387 1.428 . S
C382 C385 1.260 1_655 S
C382 C386 1.477 . S
C382 H400 0.932 . S
C383 C384 1.384 . S
C383 C385 1.479 1_655 S
C383 H401 0.929 1_655 S
C384 C381 1.424 . S
C384 C383 1.384 . S
C384 H402 0.928 . S
C385 C382 1.260 1_455 S
C385 C383 1.479 1_455 S
C386 C381 1.245 . S
C386 C382 1.477 . S
C386 H403 0.932 . S
C387 U370 2.882 . S
C387 C381 1.428 . S
C387 O390 1.301 . S
C387 O391 1.282 . S
O388 U370 2.441 . S
O388 C374 1.249 . S
O389 U370 2.420 . S
O389 C374 1.202 . S
O390 U370 2.455 . S
O390 C387 1.301 . S
O391 U370 2.449 . S
O391 C387 1.282 . S
H392 C365 0.931 . S
H393 C367 0.929 . S
H394 C368 0.930 . S
H395 C369 0.931 . S
H396 C376 0.932 . S
H397 C377 0.930 . S
H398 C378 0.929 . S
H399 C380 0.930 . S
H400 C382 0.932 . S
H401 C383 0.929 1_455 S
H402 C384 0.928 . S
H403 C386 0.932 . S
H404 C412 0.950 . S
H405 C417 0.950 . S
H406 C414 0.950 . S
H407 C416 0.950 . S
H408 C418 0.950 . S
H409 C420 0.950 . S
H410 C422 0.950 . S
H411 C423 0.950 . S
C412 H404 0.950 . S
C412 C413 1.386 . S
C412 C414 1.391 . S
C413 C412 1.386 . S
C413 C417 1.393 . S
C414 H406 0.950 . S
C414 C412 1.391 . S
C414 C415 1.400 . S
C415 C414 1.400 . S
C415 C416 1.398 . S
C415 C421 1.491 . S
C416 H407 0.950 . S
C416 C415 1.398 . S
C416 C417 1.391 . S
C417 H405 0.950 . S
C417 C413 1.393 . S
C417 C416 1.391 . S
C418 H408 0.950 . S
C418 C419 1.386 . S
C418 C420 1.391 . S
C419 C418 1.386 . S
C419 C423 1.393 . S
C420 H409 0.950 . S
C420 C418 1.391 . S
C420 C421 1.400 . S
C421 C415 1.491 . S
C421 C420 1.400 . S
C421 C422 1.398 . S
C422 H410 0.950 . S
C422 C421 1.398 . S
C422 C423 1.391 . S
C423 H411 0.950 . S
C423 C419 1.393 . S
C423 C422 1.391 . S
H424 C432 0.950 . S
H425 C437 0.950 . S
H426 C434 0.950 . S
H427 C436 0.950 . S
H428 C438 0.950 . S
H429 C440 0.950 . S
H430 C442 0.950 . S
H431 C443 0.950 . S
C432 H424 0.950 . S
C432 C433 1.386 . S
C432 C434 1.391 . S
C433 C432 1.386 . S
C433 C437 1.393 . S
C434 H426 0.950 . S
C434 C432 1.391 . S
C434 C435 1.400 . S
C435 C434 1.400 . S
C435 C436 1.398 . S
C435 C441 1.491 . S
C436 H427 0.950 . S
C436 C435 1.398 . S
C436 C437 1.391 . S
C437 H425 0.950 . S
C437 C433 1.393 . S
C437 C436 1.391 . S
C438 H428 0.950 . S
C438 C439 1.386 . S
C438 C440 1.391 . S
C439 C438 1.386 . S
C439 C443 1.393 . S
C440 H429 0.950 . S
C440 C438 1.391 . S
C440 C441 1.400 . S
C441 C435 1.491 . S
C441 C440 1.400 . S
C441 C442 1.398 . S
C442 H430 0.950 . S
C442 C441 1.398 . S
C442 C443 1.391 . S
C443 H431 0.950 . S
C443 C439 1.393 . S
C443 C442 1.391 . S
H444 C452 0.950 . S
H445 C457 0.950 . S
H446 C454 0.950 . S
H447 C456 0.950 . S
H448 C458 0.950 . S
H449 C460 0.950 . S
H450 C462 0.950 1_545 S
H451 C463 0.950 . S
C452 H444 0.950 . S
C452 C453 1.386 . S
C452 C454 1.391 . S
C453 C452 1.386 . S
C453 C457 1.393 . S
C454 H446 0.950 . S
C454 C452 1.391 . S
C454 C455 1.400 . S
C455 C454 1.400 . S
C455 C456 1.398 . S
C455 C461 1.491 . S
C456 H447 0.950 . S
C456 C455 1.398 . S
C456 C457 1.391 . S
C457 H445 0.950 . S
C457 C453 1.393 . S
C457 C456 1.391 . S
C458 H448 0.950 . S
C458 C459 1.386 . S
C458 C460 1.391 1_565 S
C459 C458 1.386 . S
C459 C463 1.393 . S
C460 H449 0.950 . S
C460 C458 1.391 1_545 S
C460 C461 1.400 . S
C461 C455 1.491 . S
C461 C460 1.400 . S
C461 C462 1.398 1_545 S
C462 H450 0.950 1_565 S
C462 C461 1.398 1_565 S
C462 C463 1.391 . S
C463 H451 0.950 . S
C463 C459 1.393 . S
C463 C462 1.391 . S
H464 C472 0.950 . S
H465 C477 0.950 . S
H466 C474 0.950 . S
H467 C476 0.950 . S
H468 C478 0.950 . S
H469 C480 0.950 . S
H470 C482 0.950 . S
H471 C483 0.950 . S
C472 H464 0.950 . S
C472 C473 1.386 . S
C472 C474 1.391 . S
C473 C472 1.386 . S
C473 C477 1.393 . S
C474 H466 0.950 . S
C474 C472 1.391 . S
C474 C475 1.400 . S
C475 C474 1.400 . S
C475 C476 1.398 . S
C475 C481 1.491 . S
C476 H467 0.950 . S
C476 C475 1.398 . S
C476 C477 1.391 . S
C477 H465 0.950 . S
C477 C473 1.393 . S
C477 C476 1.391 . S
C478 H468 0.950 . S
C478 C479 1.386 . S
C478 C480 1.391 . S
C479 C478 1.386 . S
C479 C483 1.393 . S
C480 H469 0.950 . S
C480 C478 1.391 . S
C480 C481 1.400 . S
C481 C475 1.491 . S
C481 C480 1.400 . S
C481 C482 1.398 . S
C482 H470 0.950 . S
C482 C481 1.398 . S
C482 C483 1.391 . S
C483 H471 0.950 . S
C483 C479 1.393 . S
C483 C482 1.391 . S
H484 C492 0.950 . S
H485 C497 0.950 . S
H486 C494 0.950 . S
H487 C496 0.950 . S
H488 C498 0.950 . S
H489 C500 0.950 . S
H490 C502 0.950 . S
H491 C503 0.950 . S
C492 H484 0.950 . S
C492 C493 1.386 . S
C492 C494 1.391 . S
C493 C492 1.386 . S
C493 C497 1.393 . S
C494 H486 0.950 . S
C494 C492 1.391 . S
C494 C495 1.400 . S
C495 C494 1.400 . S
C495 C496 1.398 . S
C495 C501 1.491 . S
C496 H487 0.950 . S
C496 C495 1.398 . S
C496 C497 1.391 . S
C497 H485 0.950 . S
C497 C493 1.393 . S
C497 C496 1.391 . S
C498 H488 0.950 . S
C498 C499 1.386 . S
C498 C500 1.391 . S
C499 C498 1.386 . S
C499 C503 1.393 . S
C500 H489 0.950 . S
C500 C498 1.391 . S
C500 C501 1.400 . S
C501 C495 1.491 . S
C501 C500 1.400 . S
C501 C502 1.398 . S
C502 H490 0.950 . S
C502 C501 1.398 . S
C502 C503 1.391 . S
C503 H491 0.950 . S
C503 C499 1.393 . S
C503 C502 1.391 . S
H504 C512 0.950 . S
H505 C517 0.950 . S
H506 C514 0.950 . S
H507 C516 0.950 . S
H508 C518 0.950 . S
H509 C520 0.950 . S
H510 C522 0.950 . S
H511 C523 0.950 . S
C512 H504 0.950 . S
C512 C513 1.386 1_556 S
C512 C514 1.391 . S
C513 C512 1.386 1_554 S
C513 C517 1.393 . S
C514 H506 0.950 . S
C514 C512 1.391 . S
C514 C515 1.399 . S
C515 C514 1.399 . S
C515 C516 1.401 1_556 S
C515 C521 1.490 . S
C516 H507 0.950 . S
C516 C515 1.401 1_554 S
C516 C517 1.391 . S
C517 H505 0.950 . S
C517 C513 1.393 . S
C517 C516 1.391 . S
C518 H508 0.950 . S
C518 C519 1.386 1_554 S
C518 C520 1.391 1_455 S
C519 C518 1.386 1_556 S
C519 C523 1.393 1_455 S
C520 H509 0.950 . S
C520 C518 1.391 1_655 S
C520 C521 1.400 1_554 S
C521 C515 1.490 . S
C521 C520 1.400 1_556 S
C521 C522 1.398 . S
C522 H510 0.950 . S
C522 C521 1.398 . S
C522 C523 1.391 . S
C523 H511 0.950 . S
C523 C519 1.393 1_655 S
C523 C522 1.391 . S
H524 C532 0.950 . S
H525 C537 0.950 . S
H526 C534 0.950 . S
H527 C536 0.950 . S
H528 C538 0.950 . S
H529 C540 0.950 . S
H530 C542 0.950 . S
H531 C543 0.950 . S
C532 H524 0.950 . S
C532 C533 1.386 . S
C532 C534 1.391 . S
C533 C532 1.386 . S
C533 C537 1.393 . S
C534 H526 0.950 . S
C534 C532 1.391 . S
C534 C535 1.400 . S
C535 C534 1.400 . S
C535 C536 1.398 . S
C535 C541 1.491 . S
C536 H527 0.950 . S
C536 C535 1.398 . S
C536 C537 1.391 . S
C537 H525 0.950 . S
C537 C533 1.393 . S
C537 C536 1.391 . S
C538 H528 0.950 . S
C538 C539 1.386 . S
C538 C540 1.391 . S
C539 C538 1.386 . S
C539 C543 1.393 . S
C540 H529 0.950 . S
C540 C538 1.391 . S
C540 C541 1.400 . S
C541 C535 1.491 . S
C541 C540 1.400 . S
C541 C542 1.398 . S
C542 H530 0.950 . S
C542 C541 1.398 . S
C542 C543 1.391 . S
C543 H531 0.950 . S
C543 C539 1.393 . S
C543 C542 1.391 . S
H544 C552 0.950 . S
H545 C557 0.950 . S
H546 C554 0.950 . S
H547 C556 0.950 . S
H548 C558 0.950 . S
H549 C560 0.950 . S
H550 C562 0.950 . S
H551 C563 0.950 . S
C552 H544 0.950 . S
C552 C553 1.386 . S
C552 C554 1.391 . S
C553 C552 1.386 . S
C553 C557 1.393 . S
C554 H546 0.950 . S
C554 C552 1.391 . S
C554 C555 1.400 . S
C555 C554 1.400 . S
C555 C556 1.398 . S
C555 C561 1.491 . S
C556 H547 0.950 . S
C556 C555 1.398 . S
C556 C557 1.391 . S
C557 H545 0.950 . S
C557 C553 1.393 . S
C557 C556 1.391 . S
C558 H548 0.950 . S
C558 C559 1.386 . S
C558 C560 1.391 . S
C559 C558 1.386 . S
C559 C563 1.393 . S
C560 H549 0.950 . S
C560 C558 1.391 . S
C560 C561 1.400 . S
C561 C555 1.491 . S
C561 C560 1.400 . S
C561 C562 1.398 . S
C562 H550 0.950 . S
C562 C561 1.398 . S
C562 C563 1.391 . S
C563 H551 0.950 . S
C563 C559 1.393 . S
C563 C562 1.391 . S
H564 C572 0.950 . S
H565 C577 0.950 . S
H566 C574 0.950 . S
H567 C576 0.950 . S
H568 C578 0.950 . S
H569 C580 0.950 . S
H570 C582 0.950 . S
H571 C583 0.950 . S
C572 H564 0.950 . S
C572 C573 1.386 . S
C572 C574 1.391 . S
C573 C572 1.386 . S
C573 C577 1.393 . S
C574 H566 0.950 . S
C574 C572 1.391 . S
C574 C575 1.400 . S
C575 C574 1.400 . S
C575 C576 1.398 . S
C575 C581 1.491 . S
C576 H567 0.950 . S
C576 C575 1.398 . S
C576 C577 1.391 . S
C577 H565 0.950 . S
C577 C573 1.393 . S
C577 C576 1.391 . S
C578 H568 0.950 . S
C578 C579 1.386 . S
C578 C580 1.391 . S
C579 C578 1.386 . S
C579 C583 1.393 . S
C580 H569 0.950 . S
C580 C578 1.391 . S
C580 C581 1.400 . S
C581 C575 1.491 . S
C581 C580 1.400 . S
C581 C582 1.398 . S
C582 H570 0.950 . S
C582 C581 1.398 . S
C582 C583 1.391 . S
C583 H571 0.950 . S
C583 C579 1.393 . S
C583 C582 1.391 . S
H584 C592 0.950 . S
H585 C597 0.950 . S
H586 C594 0.950 . S
H587 C596 0.950 . S
H588 C598 0.950 . S
H589 C600 0.950 . S
H590 C602 0.950 . S
H591 C603 0.950 . S
C592 H584 0.950 . S
C592 C593 1.386 . S
C592 C594 1.391 . S
C593 C592 1.386 . S
C593 C597 1.393 . S
C594 H586 0.950 . S
C594 C592 1.391 . S
C594 C595 1.400 . S
C595 C594 1.400 . S
C595 C596 1.398 . S
C595 C601 1.491 . S
C596 H587 0.950 . S
C596 C595 1.398 . S
C596 C597 1.391 . S
C597 H585 0.950 . S
C597 C593 1.393 . S
C597 C596 1.391 . S
C598 H588 0.950 . S
C598 C599 1.386 . S
C598 C600 1.391 . S
C599 C598 1.386 . S
C599 C603 1.393 . S
C600 H589 0.950 . S
C600 C598 1.391 . S
C600 C601 1.400 . S
C601 C595 1.491 . S
C601 C600 1.400 . S
C601 C602 1.398 . S
C602 H590 0.950 . S
C602 C601 1.398 . S
C602 C603 1.391 . S
C603 H591 0.950 . S
C603 C599 1.393 . S
C603 C602 1.391 . S
H604 C612 0.950 . S
H605 C617 0.950 . S
H606 C614 0.950 . S
H607 C616 0.950 . S
H608 C618 0.950 . S
H609 C620 0.950 . S
H610 C622 0.950 . S
H611 C623 0.950 . S
C612 H604 0.950 . S
C612 C613 1.386 . S
C612 C614 1.391 . S
C613 C612 1.386 . S
C613 C617 1.393 . S
C614 H606 0.950 . S
C614 C612 1.391 . S
C614 C615 1.400 . S
C615 C614 1.400 . S
C615 C616 1.398 . S
C615 C621 1.491 1_565 S
C616 H607 0.950 . S
C616 C615 1.398 . S
C616 C617 1.391 . S
C617 H605 0.950 . S
C617 C613 1.393 . S
C617 C616 1.391 . S
C618 H608 0.950 . S
C618 C619 1.386 . S
C618 C620 1.391 . S
C619 C618 1.386 . S
C619 C623 1.393 . S
C620 H609 0.950 . S
C620 C618 1.391 . S
C620 C621 1.400 . S
C621 C615 1.491 1_545 S
C621 C620 1.400 . S
C621 C622 1.398 . S
C622 H610 0.950 . S
C622 C621 1.398 . S
C622 C623 1.391 . S
C623 H611 0.950 . S
C623 C619 1.393 . S
C623 C622 1.391 . S
H624 C632 0.950 . S
H625 C637 0.950 . S
H626 C634 0.950 . S
H627 C636 0.950 . S
H628 C638 0.950 . S
H629 C640 0.950 . S
H630 C642 0.950 . S
H631 C643 0.950 . S
C632 H624 0.950 . S
C632 C633 1.386 . S
C632 C634 1.391 . S
C633 C632 1.386 . S
C633 C637 1.393 . S
C634 H626 0.950 . S
C634 C632 1.391 . S
C634 C635 1.400 . S
C635 C634 1.400 . S
C635 C636 1.398 . S
C635 C641 1.491 . S
C636 H627 0.950 . S
C636 C635 1.398 . S
C636 C637 1.391 . S
C637 H625 0.950 . S
C637 C633 1.393 . S
C637 C636 1.391 . S
C638 H628 0.950 . S
C638 C639 1.386 . S
C638 C640 1.391 . S
C639 C638 1.386 . S
C639 C643 1.393 . S
C640 H629 0.950 . S
C640 C638 1.391 . S
C640 C641 1.400 . S
C641 C635 1.491 . S
C641 C640 1.400 . S
C641 C642 1.398 . S
C642 H630 0.950 . S
C642 C641 1.398 . S
C642 C643 1.391 . S
C643 H631 0.950 . S
C643 C639 1.393 . S
C643 C642 1.391 . S
H644 C652 0.950 . S
H645 C657 0.950 . S
H646 C654 0.950 . S
H647 C656 0.950 . S
H648 C658 0.950 . S
H649 C660 0.950 . S
H650 C662 0.950 . S
H651 C663 0.950 . S
C652 H644 0.950 . S
C652 C653 1.386 . S
C652 C654 1.391 . S
C653 C652 1.386 . S
C653 C657 1.393 . S
C654 H646 0.950 . S
C654 C652 1.391 . S
C654 C655 1.400 . S
C655 C654 1.400 . S
C655 C656 1.398 . S
C655 C661 1.491 . S
C656 H647 0.950 . S
C656 C655 1.398 . S
C656 C657 1.391 . S
C657 H645 0.950 . S
C657 C653 1.393 . S
C657 C656 1.391 . S
C658 H648 0.950 . S
C658 C659 1.386 . S
C658 C660 1.391 . S
C659 C658 1.386 . S
C659 C663 1.393 . S
C660 H649 0.950 . S
C660 C658 1.391 . S
C660 C661 1.400 . S
C661 C655 1.491 . S
C661 C660 1.400 . S
C661 C662 1.398 . S
C662 H650 0.950 . S
C662 C661 1.398 . S
C662 C663 1.391 . S
C663 H651 0.950 . S
C663 C659 1.393 . S
C663 C662 1.391 . S
H664 C672 0.950 . S
H665 C677 0.950 . S
H666 C674 0.950 . S
H667 C676 0.950 . S
H668 C678 0.950 . S
H669 C680 0.950 . S
H670 C682 0.950 1_455 S
H671 C683 0.950 . S
C672 H664 0.950 . S
C672 C673 1.386 . S
C672 C674 1.391 . S
C673 C672 1.386 . S
C673 C677 1.393 . S
C674 H666 0.950 . S
C674 C672 1.391 . S
C674 C675 1.400 . S
C675 C674 1.400 . S
C675 C676 1.398 . S
C675 C681 1.491 1_455 S
C676 H667 0.950 . S
C676 C675 1.398 . S
C676 C677 1.391 . S
C677 H665 0.950 . S
C677 C673 1.393 . S
C677 C676 1.391 . S
C678 H668 0.950 . S
C678 C679 1.386 . S
C678 C680 1.391 . S
C679 C678 1.386 . S
C679 C683 1.393 . S
C680 H669 0.950 . S
C680 C678 1.391 . S
C680 C681 1.400 . S
C681 C675 1.491 1_655 S
C681 C680 1.400 . S
C681 C682 1.398 . S
C682 H670 0.950 1_655 S
C682 C681 1.398 . S
C682 C683 1.391 . S
C683 H671 0.950 . S
C683 C679 1.393 . S
C683 C682 1.391 . S
H684 C692 0.950 . S
H685 C697 0.950 . S
H686 C694 0.950 . S
H687 C696 0.950 . S
H688 C698 0.950 . S
H689 C700 0.950 . S
H690 C702 0.950 . S
H691 C703 0.950 . S
C692 H684 0.950 . S
C692 C693 1.386 . S
C692 C694 1.391 . S
C693 C692 1.386 . S
C693 C697 1.393 . S
C694 H686 0.950 . S
C694 C692 1.391 . S
C694 C695 1.400 . S
C695 C694 1.400 . S
C695 C696 1.398 . S
C695 C701 1.491 . S
C696 H687 0.950 . S
C696 C695 1.398 . S
C696 C697 1.391 . S
C697 H685 0.950 . S
C697 C693 1.393 . S
C697 C696 1.391 . S
C698 H688 0.950 . S
C698 C699 1.386 . S
C698 C700 1.391 . S
C699 C698 1.386 . S
C699 C703 1.393 . S
C700 H689 0.950 . S
C700 C698 1.391 . S
C700 C701 1.400 . S
C701 C695 1.491 . S
C701 C700 1.400 . S
C701 C702 1.398 . S
C702 H690 0.950 . S
C702 C701 1.398 . S
C702 C703 1.391 . S
C703 H691 0.950 . S
C703 C699 1.393 . S
C703 C702 1.391 . S
H704 C712 0.950 . S
H705 C717 0.950 . S
H706 C714 0.950 . S
H707 C716 0.950 . S
H708 C718 0.950 . S
H709 C720 0.950 . S
H710 C722 0.950 . S
H711 C723 0.950 . S
C712 H704 0.950 . S
C712 C713 1.386 . S
C712 C714 1.391 . S
C713 C712 1.386 . S
C713 C717 1.393 . S
C714 H706 0.950 . S
C714 C712 1.391 . S
C714 C715 1.400 . S
C715 C714 1.400 . S
C715 C716 1.398 . S
C715 C721 1.491 . S
C716 H707 0.950 . S
C716 C715 1.398 . S
C716 C717 1.391 . S
C717 H705 0.950 . S
C717 C713 1.393 . S
C717 C716 1.391 . S
C718 H708 0.950 . S
C718 C719 1.386 . S
C718 C720 1.391 . S
C719 C718 1.386 . S
C719 C723 1.393 1_455 S
C720 H709 0.950 . S
C720 C718 1.391 . S
C720 C721 1.400 1_455 S
C721 C715 1.491 . S
C721 C720 1.400 1_655 S
C721 C722 1.398 . S
C722 H710 0.950 . S
C722 C721 1.398 . S
C722 C723 1.391 . S
C723 H711 0.950 . S
C723 C719 1.393 1_655 S
C723 C722 1.391 . S
H724 C732 0.950 . S
H725 C737 0.950 1_556 S
H726 C734 0.950 . S
H727 C736 0.950 . S
H728 C738 0.950 . S
H729 C740 0.950 . S
H730 C742 0.950 . S
H731 C743 0.950 . S
C732 H724 0.950 . S
C732 C733 1.386 . S
C732 C734 1.391 . S
C733 C732 1.386 . S
C733 C737 1.393 . S
C734 H726 0.950 . S
C734 C732 1.391 . S
C734 C735 1.400 . S
C735 C734 1.400 . S
C735 C736 1.398 . S
C735 C741 1.491 . S
C736 H727 0.950 . S
C736 C735 1.398 . S
C736 C737 1.391 . S
C737 H725 0.950 1_554 S
C737 C733 1.393 . S
C737 C736 1.391 . S
C738 H728 0.950 . S
C738 C739 1.386 . S
C738 C740 1.391 . S
C739 C738 1.386 . S
C739 C743 1.393 . S
C740 H729 0.950 . S
C740 C738 1.391 . S
C740 C741 1.400 . S
C741 C735 1.491 . S
C741 C740 1.400 . S
C741 C742 1.398 . S
C742 H730 0.950 . S
C742 C741 1.398 . S
C742 C743 1.391 . S
C743 H731 0.950 . S
C743 C739 1.393 . S
C743 C742 1.391 . S
H744 C752 0.950 . S
H745 C757 0.950 . S
H746 C754 0.950 . S
H747 C756 0.950 . S
H748 C758 0.950 . S
H749 C760 0.950 . S
H750 C762 0.950 . S
H751 C763 0.950 . S
C752 H744 0.950 . S
C752 C753 1.386 . S
C752 C754 1.391 . S
C753 C752 1.386 . S
C753 C757 1.393 . S
C754 H746 0.950 . S
C754 C752 1.391 . S
C754 C755 1.400 . S
C755 C754 1.400 . S
C755 C756 1.398 . S
C755 C761 1.491 . S
C756 H747 0.950 . S
C756 C755 1.398 . S
C756 C757 1.391 . S
C757 H745 0.950 . S
C757 C753 1.393 . S
C757 C756 1.391 . S
C758 H748 0.950 . S
C758 C759 1.386 . S
C758 C760 1.391 . S
C759 C758 1.386 . S
C759 C763 1.393 . S
C760 H749 0.950 . S
C760 C758 1.391 . S
C760 C761 1.400 . S
C761 C755 1.491 . S
C761 C760 1.400 . S
C761 C762 1.398 . S
C762 H750 0.950 . S
C762 C761 1.398 . S
C762 C763 1.391 . S
C763 H751 0.950 . S
C763 C759 1.393 . S
C763 C762 1.391 . S
H764 C772 0.950 . S
H765 C777 0.950 . S
H766 C774 0.950 . S
H767 C776 0.950 . S
H768 C778 0.950 . S
H769 C780 0.950 . S
H770 C782 0.950 . S
H771 C783 0.950 . S
C772 H764 0.950 . S
C772 C773 1.386 . S
C772 C774 1.391 . S
C773 C772 1.386 . S
C773 C777 1.393 . S
C774 H766 0.950 . S
C774 C772 1.391 . S
C774 C775 1.400 . S
C775 C774 1.400 . S
C775 C776 1.398 . S
C775 C781 1.491 . S
C776 H767 0.950 . S
C776 C775 1.398 . S
C776 C777 1.391 . S
C777 H765 0.950 . S
C777 C773 1.393 . S
C777 C776 1.391 . S
C778 H768 0.950 . S
C778 C779 1.386 . S
C778 C780 1.391 . S
C779 C778 1.386 . S
C779 C783 1.393 . S
C780 H769 0.950 . S
C780 C778 1.391 . S
C780 C781 1.400 . S
C781 C775 1.491 . S
C781 C780 1.400 . S
C781 C782 1.398 . S
C782 H770 0.950 . S
C782 C781 1.398 . S
C782 C783 1.391 . S
C783 H771 0.950 . S
C783 C779 1.393 . S
C783 C782 1.391 . S
H784 C792 0.950 . S
H785 C797 0.950 . S
H786 C794 0.950 . S
H787 C796 0.950 . S
H788 C798 0.950 . S
H789 C800 0.950 . S
H790 C802 0.950 . S
H791 C803 0.950 . S
C792 H784 0.950 . S
C792 C793 1.386 . S
C792 C794 1.391 . S
C793 C792 1.386 . S
C793 C797 1.393 . S
C794 H786 0.950 . S
C794 C792 1.391 . S
C794 C795 1.400 . S
C795 C794 1.400 . S
C795 C796 1.398 . S
C795 C801 1.491 . S
C796 H787 0.950 . S
C796 C795 1.398 . S
C796 C797 1.391 . S
C797 H785 0.950 . S
C797 C793 1.393 . S
C797 C796 1.391 . S
C798 H788 0.950 . S
C798 C799 1.386 . S
C798 C800 1.391 . S
C799 C798 1.386 . S
C799 C803 1.393 . S
C800 H789 0.950 . S
C800 C798 1.391 . S
C800 C801 1.400 . S
C801 C795 1.491 . S
C801 C800 1.400 . S
C801 C802 1.398 . S
C802 H790 0.950 . S
C802 C801 1.398 . S
C802 C803 1.391 . S
C803 H791 0.950 . S
C803 C799 1.393 . S
C803 C802 1.391 . S
H804 C812 0.950 . S
H805 C817 0.950 . S
H806 C814 0.950 . S
H807 C816 0.950 . S
H808 C818 0.950 . S
H809 C820 0.950 . S
H810 C822 0.950 . S
H811 C823 0.950 . S
C812 H804 0.950 . S
C812 C813 1.386 . S
C812 C814 1.391 . S
C813 C812 1.386 . S
C813 C817 1.393 . S
C814 H806 0.950 . S
C814 C812 1.391 . S
C814 C815 1.400 . S
C815 C814 1.400 . S
C815 C816 1.398 . S
C815 C821 1.491 . S
C816 H807 0.950 . S
C816 C815 1.398 . S
C816 C817 1.391 . S
C817 H805 0.950 . S
C817 C813 1.393 . S
C817 C816 1.391 . S
C818 H808 0.950 . S
C818 C819 1.386 . S
C818 C820 1.391 . S
C819 C818 1.386 . S
C819 C823 1.393 . S
C820 H809 0.950 . S
C820 C818 1.391 . S
C820 C821 1.400 . S
C821 C815 1.491 . S
C821 C820 1.400 . S
C821 C822 1.398 . S
C822 H810 0.950 . S
C822 C821 1.398 . S
C822 C823 1.391 . S
C823 H811 0.950 . S
C823 C819 1.393 . S
C823 C822 1.391 . S
H824 C832 0.950 . S
H825 C837 0.950 . S
H826 C834 0.950 . S
H827 C836 0.950 . S
H828 C838 0.950 . S
H829 C840 0.950 1_554 S
H830 C842 0.950 . S
H831 C843 0.950 . S
C832 H824 0.950 . S
C832 C833 1.386 1_556 S
C832 C834 1.391 . S
C833 C832 1.386 1_554 S
C833 C837 1.393 . S
C834 H826 0.950 . S
C834 C832 1.391 . S
C834 C835 1.400 . S
C835 C834 1.400 . S
C835 C836 1.398 1_556 S
C835 C841 1.491 . S
C836 H827 0.950 . S
C836 C835 1.398 1_554 S
C836 C837 1.391 . S
C837 H825 0.950 . S
C837 C833 1.393 . S
C837 C836 1.391 . S
C838 H828 0.950 . S
C838 C839 1.386 . S
C838 C840 1.391 . S
C839 C838 1.386 . S
C839 C843 1.393 . S
C840 H829 0.950 1_556 S
C840 C838 1.391 . S
C840 C841 1.400 . S
C841 C835 1.491 . S
C841 C840 1.400 . S
C841 C842 1.398 . S
C842 H830 0.950 . S
C842 C841 1.398 . S
C842 C843 1.391 . S
C843 H831 0.950 . S
C843 C839 1.393 . S
C843 C842 1.391 . S
H844 C852 0.950 . S
H845 C857 0.950 . S
H846 C854 0.950 . S
H847 C856 0.950 . S
H848 C858 0.950 . S
H849 C860 0.950 . S
H850 C862 0.950 . S
H851 C863 0.950 . S
C852 H844 0.950 . S
C852 C853 1.386 . S
C852 C854 1.391 . S
C853 C852 1.386 . S
C853 C857 1.393 . S
C854 H846 0.950 . S
C854 C852 1.391 . S
C854 C855 1.400 . S
C855 C854 1.400 . S
C855 C856 1.398 . S
C855 C861 1.491 . S
C856 H847 0.950 . S
C856 C855 1.398 . S
C856 C857 1.391 . S
C857 H845 0.950 . S
C857 C853 1.393 . S
C857 C856 1.391 . S
C858 H848 0.950 . S
C858 C859 1.386 . S
C858 C860 1.391 . S
C859 C858 1.386 . S
C859 C863 1.393 . S
C860 H849 0.950 . S
C860 C858 1.391 . S
C860 C861 1.400 . S
C861 C855 1.491 . S
C861 C860 1.400 . S
C861 C862 1.398 . S
C862 H850 0.950 . S
C862 C861 1.398 . S
C862 C863 1.391 . S
C863 H851 0.950 . S
C863 C859 1.393 . S
C863 C862 1.391 . S
H864 C872 0.950 . S
H865 C877 0.950 . S
H866 C874 0.950 . S
H867 C876 0.950 . S
H868 C878 0.950 . S
H869 C880 0.950 . S
H870 C882 0.950 . S
H871 C883 0.950 . S
C872 H864 0.950 . S
C872 C873 1.386 . S
C872 C874 1.391 . S
C873 C872 1.386 . S
C873 C877 1.393 . S
C874 H866 0.950 . S
C874 C872 1.391 . S
C874 C875 1.400 . S
C875 C874 1.400 . S
C875 C876 1.398 . S
C875 C881 1.491 . S
C876 H867 0.950 . S
C876 C875 1.398 . S
C876 C877 1.391 . S
C877 H865 0.950 . S
C877 C873 1.393 . S
C877 C876 1.391 . S
C878 H868 0.950 . S
C878 C879 1.386 . S
C878 C880 1.391 . S
C879 C878 1.386 . S
C879 C883 1.393 . S
C880 H869 0.950 . S
C880 C878 1.391 . S
C880 C881 1.400 . S
C881 C875 1.491 . S
C881 C880 1.400 . S
C881 C882 1.398 . S
C882 H870 0.950 . S
C882 C881 1.398 . S
C882 C883 1.391 . S
C883 H871 0.950 . S
C883 C879 1.393 . S
C883 C882 1.391 . S
C413 C7 1.062 . S
C419 C105 1.066 . S
C433 C25 1.193 . S
C439 C145 1.169 . S
C453 C46 0.984 . S
C459 C166 0.943 . S
C479 C225 0.821 . S
C473 C70 0.826 . S
C499 C265 1.012 . S
C493 C28 1.000 . S
C513 C49 1.171 . S
C519 C286 1.105 . S
C533 C67 1.071 . S
C539 C326 1.123 . S
C553 C4 0.855 . S
C559 C385 0.882 . S
C573 C58 1.602 . S
C579 C366 1.672 1_545 S
C599 C246 2.062 . S
C593 C66 2.013 . S
C619 C305 1.911 . S
C613 C3 1.933 . S
C633 C37 1.804 . S
C639 C345 1.970 . S
C659 C126 1.946 . S
C653 C79 1.859 . S
C673 C16 2.140 . S
C679 C185 2.052 . S
C699 C206 1.697 . S
C693 C24 1.636 . S
C719 C86 1.888 . S
C713 C45 1.775 . S
C739 C339 1.381 . S
C733 C19 1.305 . S
C759 C379 1.141 . S
C753 C41 1.124 . S
C773 C62 1.144 . S
C779 C259 1.349 . S
C799 C299 1.528 . S
C793 C82 1.296 . S
C819 C179 1.409 . S
C813 C40 1.229 . S
C833 C61 1.070 . S
C839 C219 1.092 . S
C859 C99 1.391 . S
C853 C83 1.314 . S
C879 C139 1.561 . S
C873 C20 1.339 . S
