# Generated by pormake.
# Topology myd, (4,6)-cn, num edge types: 1
# Building blocks:
#     Node 0, Type 0, BuildingBlock: KOZSID_clean_sbu_0, # of connection points: 4
#     Node 1, Type 0, BuildingBlock: KOZSID_clean_sbu_0, # of connection points: 4
#     Node 2, Type 0, BuildingBlock: KOZSID_clean_sbu_0, # of connection points: 4
#     Node 3, Type 0, BuildingBlock: KOZSID_clean_sbu_0, # of connection points: 4
#     Node 4, Type 0, BuildingBlock: KOZSID_clean_sbu_0, # of connection points: 4
#     Node 5, Type 0, BuildingBlock: KOZSID_clean_sbu_0, # of connection points: 4
#     Node 6, Type 0, BuildingBlock: KOZSID_clean_sbu_0, # of connection points: 4
#     Node 7, Type 0, BuildingBlock: KOZSID_clean_sbu_0, # of connection points: 4
#     Node 8, Type 0, BuildingBlock: KOZSID_clean_sbu_0, # of connection points: 4
#     Node 9, Type 0, BuildingBlock: KOZSID_clean_sbu_0, # of connection points: 4
#     Node 10, Type 0, BuildingBlock: KOZSID_clean_sbu_0, # of connection points: 4
#     Node 11, Type 0, BuildingBlock: KOZSID_clean_sbu_0, # of connection points: 4
#     Node 12, Type 1, BuildingBlock: JUFBIX_clean_sbu_0, # of connection points: 6
#     Node 13, Type 1, BuildingBlock: JUFBIX_clean_sbu_0, # of connection points: 6
#     Node 14, Type 1, BuildingBlock: JUFBIX_clean_sbu_0, # of connection points: 6
#     Node 15, Type 1, BuildingBlock: JUFBIX_clean_sbu_0, # of connection points: 6
#     Node 16, Type 1, BuildingBlock: JUFBIX_clean_sbu_0, # of connection points: 6
#     Node 17, Type 1, BuildingBlock: JUFBIX_clean_sbu_0, # of connection points: 6
#     Node 18, Type 1, BuildingBlock: JUFBIX_clean_sbu_0, # of connection points: 6
#     Node 19, Type 1, BuildingBlock: JUFBIX_clean_sbu_0, # of connection points: 6
#     Edge 20, Type (0, 1), BuildingBlock: EZIPEK_clean_linker_0, # of connection points: 2
#     Edge 21, Type (0, 1), BuildingBlock: EZIPEK_clean_linker_0, # of connection points: 2
#     Edge 22, Type (0, 1), BuildingBlock: EZIPEK_clean_linker_0, # of connection points: 2
#     Edge 23, Type (0, 1), BuildingBlock: EZIPEK_clean_linker_0, # of connection points: 2
#     Edge 24, Type (0, 1), BuildingBlock: EZIPEK_clean_linker_0, # of connection points: 2
#     Edge 25, Type (0, 1), BuildingBlock: EZIPEK_clean_linker_0, # of connection points: 2
#     Edge 26, Type (0, 1), BuildingBlock: EZIPEK_clean_linker_0, # of connection points: 2
#     Edge 27, Type (0, 1), BuildingBlock: EZIPEK_clean_linker_0, # of connection points: 2
#     Edge 28, Type (0, 1), BuildingBlock: EZIPEK_clean_linker_0, # of connection points: 2
#     Edge 29, Type (0, 1), BuildingBlock: EZIPEK_clean_linker_0, # of connection points: 2
#     Edge 30, Type (0, 1), BuildingBlock: EZIPEK_clean_linker_0, # of connection points: 2
#     Edge 31, Type (0, 1), BuildingBlock: EZIPEK_clean_linker_0, # of connection points: 2
#     Edge 32, Type (0, 1), BuildingBlock: EZIPEK_clean_linker_0, # of connection points: 2
#     Edge 33, Type (0, 1), BuildingBlock: EZIPEK_clean_linker_0, # of connection points: 2
#     Edge 34, Type (0, 1), BuildingBlock: EZIPEK_clean_linker_0, # of connection points: 2
#     Edge 35, Type (0, 1), BuildingBlock: EZIPEK_clean_linker_0, # of connection points: 2
#     Edge 36, Type (0, 1), BuildingBlock: EZIPEK_clean_linker_0, # of connection points: 2
#     Edge 37, Type (0, 1), BuildingBlock: EZIPEK_clean_linker_0, # of connection points: 2
#     Edge 38, Type (0, 1), BuildingBlock: EZIPEK_clean_linker_0, # of connection points: 2
#     Edge 39, Type (0, 1), BuildingBlock: EZIPEK_clean_linker_0, # of connection points: 2
#     Edge 40, Type (0, 1), BuildingBlock: EZIPEK_clean_linker_0, # of connection points: 2
#     Edge 41, Type (0, 1), BuildingBlock: EZIPEK_clean_linker_0, # of connection points: 2
#     Edge 42, Type (0, 1), BuildingBlock: EZIPEK_clean_linker_0, # of connection points: 2
#     Edge 43, Type (0, 1), BuildingBlock: EZIPEK_clean_linker_0, # of connection points: 2
#     Edge 44, Type (0, 1), BuildingBlock: EZIPEK_clean_linker_0, # of connection points: 2
#     Edge 45, Type (0, 1), BuildingBlock: EZIPEK_clean_linker_0, # of connection points: 2
#     Edge 46, Type (0, 1), BuildingBlock: EZIPEK_clean_linker_0, # of connection points: 2
#     Edge 47, Type (0, 1), BuildingBlock: EZIPEK_clean_linker_0, # of connection points: 2
#     Edge 48, Type (0, 1), BuildingBlock: EZIPEK_clean_linker_0, # of connection points: 2
#     Edge 49, Type (0, 1), BuildingBlock: EZIPEK_clean_linker_0, # of connection points: 2
#     Edge 50, Type (0, 1), BuildingBlock: EZIPEK_clean_linker_0, # of connection points: 2
#     Edge 51, Type (0, 1), BuildingBlock: EZIPEK_clean_linker_0, # of connection points: 2
#     Edge 52, Type (0, 1), BuildingBlock: EZIPEK_clean_linker_0, # of connection points: 2
#     Edge 53, Type (0, 1), BuildingBlock: EZIPEK_clean_linker_0, # of connection points: 2
#     Edge 54, Type (0, 1), BuildingBlock: EZIPEK_clean_linker_0, # of connection points: 2
#     Edge 55, Type (0, 1), BuildingBlock: EZIPEK_clean_linker_0, # of connection points: 2
#     Edge 56, Type (0, 1), BuildingBlock: EZIPEK_clean_linker_0, # of connection points: 2
#     Edge 57, Type (0, 1), BuildingBlock: EZIPEK_clean_linker_0, # of connection points: 2
#     Edge 58, Type (0, 1), BuildingBlock: EZIPEK_clean_linker_0, # of connection points: 2
#     Edge 59, Type (0, 1), BuildingBlock: EZIPEK_clean_linker_0, # of connection points: 2
#     Edge 60, Type (0, 1), BuildingBlock: EZIPEK_clean_linker_0, # of connection points: 2
#     Edge 61, Type (0, 1), BuildingBlock: EZIPEK_clean_linker_0, # of connection points: 2
#     Edge 62, Type (0, 1), BuildingBlock: EZIPEK_clean_linker_0, # of connection points: 2
#     Edge 63, Type (0, 1), BuildingBlock: EZIPEK_clean_linker_0, # of connection points: 2
#     Edge 64, Type (0, 1), BuildingBlock: EZIPEK_clean_linker_0, # of connection points: 2
#     Edge 65, Type (0, 1), BuildingBlock: EZIPEK_clean_linker_0, # of connection points: 2
#     Edge 66, Type (0, 1), BuildingBlock: EZIPEK_clean_linker_0, # of connection points: 2
#     Edge 67, Type (0, 1), BuildingBlock: EZIPEK_clean_linker_0, # of connection points: 2
# Relax obj value: 0.238
# Max RMSD: 0.232
# Mean RMSD: 0.150
data_MOF--net-myd--node1-KOZSID_clean_sbu_0--node2-JUFBIX_clean_sbu_0--edge1-EZIPEK_clean_linker_0
_symmetry_space_group_name_H-M    P1
_symmetry_Int_Tables_number       1
_symmetry_cell_setting            triclinic
loop_
_symmetry_equiv_pos_as_xyz
'x, y, z'
_cell_length_a     37.18486
_cell_length_b     40.148929
_cell_length_c     39.511255
_cell_angle_alpha  92.331687
_cell_angle_beta   86.535891
_cell_angle_gamma 93.703959
loop_
_atom_site_label
_atom_site_type_symbol
_atom_site_fract_x
_atom_site_fract_y
_atom_site_fract_z
_atom_type_partial_charge
C0 C 1.01568 0.27886 0.36234 0.0
C1 C 0.98187 0.28503 0.37709 0.0
C2 C 0.9594 0.25749 0.36941 0.0
C3 C 0.98059 0.23604 0.35034 0.0
N4 N 1.0149 0.24845 0.34577 0.0
Co5 Co 0.05371 0.22753 0.31739 0.0
N6 N 1.01876 0.19858 0.29191 0.0
C7 C 0.98432 0.19067 0.30266 0.0
C8 C 0.96677 0.169 0.28043 0.0
C9 C 0.99189 0.16271 0.25438 0.0
C10 C 0.02348 0.18099 0.26215 0.0
N11 N 0.09303 0.20801 0.28844 0.0
C12 C 0.09162 0.19059 0.25832 0.0
C13 C 0.12572 0.18131 0.24696 0.0
C14 C 0.14897 0.19296 0.27113 0.0
C15 C 0.12793 0.20875 0.29583 0.0
N16 N 0.08827 0.25611 0.34381 0.0
C17 C 0.12337 0.25099 0.34629 0.0
C18 C 0.14073 0.2758 0.36541 0.0
C19 C 0.11493 0.29785 0.37528 0.0
C20 C 0.0832 0.28529 0.36155 0.0
N21 N 0.05498 0.19136 0.34941 0.0
C22 C 0.04543 0.13578 0.39055 0.0
C23 C 0.0568 0.13215 0.35647 0.0
C24 C 0.06087 0.1599 0.33645 0.0
C25 C 0.04052 0.16812 0.40432 0.0
C26 C 0.04617 0.19576 0.38338 0.0
N27 N 0.05176 0.2623 0.28501 0.0
C28 C 0.08037 0.30784 0.254 0.0
C29 C 0.04685 0.31545 0.2431 0.0
C30 C 1.0164 0.29455 0.25141 0.0
C31 C 1.01926 0.26865 0.27308 0.0
C32 C 0.08234 0.28063 0.2745 0.0
H33 H 0.9949 0.25442 0.28096 0.0
H34 H 0.10829 0.27529 0.28299 0.0
H35 H 0.06712 0.15527 0.30998 0.0
H36 H 0.04209 0.22041 0.39432 0.0
C37 C 0.96815 0.20829 0.33047 0.0
C38 C 0.04855 0.30123 0.36594 0.0
C39 C 0.05807 0.17899 0.24226 0.0
C40 C 0.1403 0.22807 0.32378 0.0
H41 H 0.9742 0.30713 0.39163 0.0
H42 H 0.93062 0.25441 0.37538 0.0
H43 H 0.93878 0.15969 0.28234 0.0
H44 H 0.9876 0.14628 0.23241 0.0
H45 H 0.13289 0.16692 0.22406 0.0
H46 H 0.17787 0.19074 0.27038 0.0
H47 H 0.16925 0.27879 0.3697 0.0
H48 H 0.11909 0.32085 0.39017 0.0
H49 H 0.06095 0.10763 0.34492 0.0
H50 H 0.03184 0.17188 0.43079 0.0
H51 H 0.10452 0.32341 0.24765 0.0
H52 H 0.99017 0.29955 0.24291 0.0
C53 C 0.9956 0.67537 0.12436 0.0
C54 C 0.96331 0.66504 0.11015 0.0
C55 C 0.93797 0.68568 0.12396 0.0
C56 C 0.95605 0.70713 0.14595 0.0
N57 N 0.99124 0.70135 0.14675 0.0
Co58 Co 0.02694 0.72469 0.17635 0.0
N59 N 0.98783 0.74295 0.20699 0.0
C60 C 0.95255 0.74261 0.20079 0.0
C61 C 0.93158 0.75494 0.22758 0.0
C62 C 0.95515 0.76434 0.25198 0.0
C63 C 0.98934 0.75757 0.2384 0.0
N64 N 0.06283 0.74818 0.20598 0.0
C65 C 0.0578 0.76487 0.23632 0.0
C66 C 0.09023 0.77959 0.24699 0.0
C67 C 0.11623 0.77244 0.2222 0.0
C68 C 0.09837 0.75386 0.19781 0.0
N69 N 0.06556 0.70637 0.14563 0.0
C70 C 0.10052 0.71735 0.1433 0.0
C71 C 0.12062 0.69938 0.11955 0.0
C72 C 0.09672 0.67562 0.10619 0.0
C73 C 0.06342 0.68055 0.12268 0.0
N74 N 0.0283 0.76445 0.14845 0.0
C75 C 0.03543 0.82299 0.11133 0.0
C76 C 0.03325 0.82445 0.14664 0.0
C77 C 0.03021 0.79521 0.16439 0.0
C78 C 0.03374 0.79144 0.09453 0.0
C79 C 0.02982 0.76236 0.11366 0.0
N80 N 0.02623 0.68521 0.20445 0.0
C81 C 0.05818 0.65083 0.23969 0.0
C82 C 0.02554 0.63707 0.25413 0.0
C83 C 0.99333 0.64582 0.24123 0.0
C84 C 0.99427 0.66977 0.21623 0.0
C85 C 0.05794 0.67477 0.21493 0.0
H86 H 0.96899 0.67703 0.20784 0.0
H87 H 0.08348 0.68595 0.20549 0.0
H88 H 0.03081 0.7977 0.19114 0.0
H89 H 0.0289 0.73831 0.10039 0.0
C90 C 0.93956 0.727 0.17137 0.0
C91 C 0.03013 0.66073 0.11582 0.0
C92 C 0.02243 0.77212 0.25269 0.0
C93 C 0.11425 0.73994 0.1679 0.0
H94 H 0.95826 0.64447 0.09221 0.0
H95 H 0.90932 0.68375 0.12013 0.0
H96 H 0.9026 0.7567 0.22927 0.0
H97 H 0.94833 0.77674 0.27615 0.0
H98 H 0.0944 0.79514 0.26961 0.0
H99 H 0.14466 0.78021 0.22186 0.0
H100 H 0.14947 0.7021 0.11382 0.0
H101 H 0.10302 0.65664 0.08688 0.0
H102 H 0.03494 0.84826 0.16059 0.0
H103 H 0.03574 0.78933 0.06709 0.0
H104 H 0.08363 0.64485 0.24919 0.0
H105 H 0.96755 0.6359 0.25198 0.0
C106 C 0.36243 0.96896 0.27835 0.0
C107 C 0.36641 0.93573 0.28477 0.0
C108 C 0.35244 0.91722 0.25831 0.0
C109 C 0.34037 0.93998 0.23736 0.0
N110 N 0.34645 0.972 0.24855 0.0
Co111 Co 0.32827 1.01257 0.22872 0.0
N112 N 0.29852 0.985 0.19568 0.0
C113 C 0.29706 0.95133 0.19155 0.0
C114 C 0.27224 0.93899 0.16925 0.0
C115 C 0.25694 0.96637 0.1584 0.0
C116 C 0.2737 0.99413 0.17436 0.0
N117 N 0.3101 0.05326 0.20921 0.0
C118 C 0.28697 0.05625 0.18425 0.0
C119 C 0.28408 0.08949 0.17696 0.0
C120 C 0.30519 0.10812 0.1986 0.0
C121 C 0.32014 0.08538 0.21756 0.0
N122 N 0.35736 0.04014 0.26213 0.0
C123 C 0.36151 0.07383 0.26453 0.0
C124 C 0.38189 0.08575 0.29069 0.0
C125 C 0.39043 0.05802 0.30663 0.0
C126 C 0.37454 0.03073 0.28926 0.0
N127 N 0.37032 1.01441 0.1941 0.0
C128 C 0.42167 0.01983 0.13822 0.0
C129 C 0.4165 0.04674 0.16108 0.0
C130 C 0.39105 0.0435 0.18862 0.0
C131 C 0.40288 0.98947 0.14517 0.0
C132 C 0.37799 0.98722 0.17325 0.0
N133 N 0.28672 1.01035 0.26279 0.0
C134 C 0.25182 0.03469 0.31019 0.0
C135 C 0.23438 1.0035 0.31712 0.0
C136 C 0.24206 0.97647 0.29528 0.0
C137 C 0.26813 0.98034 0.26868 0.0
C138 C 0.27742 0.03766 0.2826 0.0
H139 H 0.27346 0.95839 0.25375 0.0
H140 H 0.2904 0.06186 0.27837 0.0
H141 H 0.38786 0.06534 0.20425 0.0
H142 H 0.36449 0.96341 0.17668 0.0
C143 C 0.31724 0.9319 0.21114 0.0
C144 C 0.37295 0.99684 0.30177 0.0
C145 C 0.2658 0.02866 0.16779 0.0
C146 C 0.34351 0.09345 0.24347 0.0
H147 H 0.37703 0.9257 0.30682 0.0
H148 H 0.34913 0.89026 0.25591 0.0
H149 H 0.26538 0.91308 0.16238 0.0
H150 H 0.23575 0.96583 0.14077 0.0
H151 H 0.26802 0.09935 0.1582 0.0
H152 H 0.30909 0.13507 0.20036 0.0
H153 H 0.38835 0.11156 0.29823 0.0
H154 H 0.40516 0.05791 0.32942 0.0
H155 H 0.43045 0.07082 0.15654 0.0
H156 H 0.40607 0.96796 0.12805 0.0
H157 H 0.24615 0.05643 0.32628 0.0
H158 H 0.22864 0.95206 0.29936 0.0
C159 C 0.67752 0.46909 0.26111 0.0
C160 C 0.66508 0.43671 0.2528 0.0
C161 C 0.68113 0.41643 0.27359 0.0
C162 C 0.70236 0.43756 0.29334 0.0
N163 N 0.70028 0.47014 0.28676 0.0
Co164 Co 0.72822 0.50927 0.30772 0.0
N165 N 0.7586 0.47942 0.33185 0.0
C166 C 0.75634 0.44563 0.3307 0.0
C167 C 0.78172 0.43204 0.34882 0.0
C168 C 0.80145 0.45875 0.36222 0.0
C169 C 0.78674 0.48719 0.35165 0.0
N170 N 0.75512 0.54858 0.3293 0.0
C171 C 0.78198 0.54977 0.35104 0.0
C172 C 0.79168 0.58235 0.36166 0.0
C173 C 0.77038 0.60249 0.34579 0.0
C174 C 0.74888 0.58115 0.32666 0.0
N175 N 0.69878 0.53907 0.28243 0.0
C176 C 0.70033 0.57281 0.28387 0.0
C177 C 0.67885 0.58634 0.26171 0.0
C178 C 0.66334 0.55963 0.24436 0.0
C179 C 0.67626 0.53133 0.25715 0.0
N180 N 0.69196 0.50941 0.34785 0.0
C181 C 0.64832 0.51163 0.40952 0.0
C182 C 0.65327 0.53931 0.38897 0.0
C183 C 0.67489 0.53767 0.35851 0.0
C184 C 0.66399 0.48238 0.39785 0.0
C185 C 0.68508 0.4817 0.36715 0.0
N186 N 0.76457 0.50882 0.26817 0.0
C187 C 0.80405 0.53694 0.22528 0.0
C188 C 0.81151 0.50643 0.20841 0.0
C189 C 0.79575 0.47733 0.22303 0.0
C190 C 0.7739 0.479 0.25308 0.0
C191 C 0.7801 0.53762 0.25448 0.0
H192 H 0.76365 0.45571 0.26289 0.0
H193 H 0.77429 0.56163 0.26558 0.0
H194 H 0.6781 0.55991 0.34457 0.0
H195 H 0.69624 0.45856 0.36021 0.0
C196 C 0.72934 0.42749 0.31323 0.0
C197 C 0.66899 0.4979 0.2425 0.0
C198 C 0.80008 0.52102 0.36139 0.0
C199 C 0.72374 0.59103 0.30492 0.0
H200 H 0.64739 0.42864 0.23288 0.0
H201 H 0.67939 0.3894 0.27281 0.0
H202 H 0.78533 0.40585 0.35205 0.0
H203 H 0.82391 0.45747 0.37821 0.0
H204 H 0.81228 0.59071 0.37883 0.0
H205 H 0.7708 0.62948 0.34768 0.0
H206 H 0.67592 0.61252 0.25773 0.0
H207 H 0.64556 0.56086 0.22381 0.0
H208 H 0.64168 0.5626 0.39709 0.0
H209 H 0.66089 0.46032 0.41292 0.0
H210 H 0.81632 0.56019 0.21581 0.0
H211 H 0.8006 0.453 0.21141 0.0
C212 C 0.35525 0.43087 0.01683 0.0
C213 C 0.36883 0.44264 0.98583 0.0
C214 C 0.34257 0.43505 0.96327 0.0
C215 C 0.31461 0.41892 0.98169 0.0
N216 N 0.32125 0.41665 1.0147 0.0
Co217 Co 0.29152 0.39047 0.0494 0.0
N218 N 0.26102 0.3683 1.01457 0.0
C219 C 0.25872 0.37801 0.98252 0.0
C220 C 0.23416 0.3583 0.96484 0.0
C221 C 0.22021 0.33482 0.98712 0.0
C222 C 0.23713 0.34163 0.01718 0.0
N223 N 0.26445 0.3627 0.08431 0.0
C224 C 0.24201 0.33528 0.08015 0.0
C225 C 0.23031 0.32196 0.11108 0.0
C226 C 0.24598 0.34203 0.13565 0.0
C227 C 0.26652 0.36611 0.1183 0.0
N228 N 0.32149 0.41387 0.08424 0.0
C229 C 0.31444 0.4146 0.11812 0.0
C230 C 0.34116 0.43181 0.13548 0.0
C231 C 0.36692 0.44193 0.11115 0.0
C232 C 0.35437 0.43028 0.08028 0.0
N233 N 0.25455 0.42504 0.05503 0.0
C234 C 0.18593 0.445 0.04075 0.0
C235 C 0.19098 0.42933 0.07079 0.0
C236 C 0.22541 0.42043 0.07785 0.0
C237 C 0.21674 0.4558 0.02111 0.0
C238 C 0.25093 0.4469 0.02974 0.0
N239 N 0.32574 0.35518 0.04254 0.0
C240 C 0.36173 0.31373 0.06401 0.0
C241 C 0.3704 0.30179 0.03089 0.0
C242 C 0.35617 0.31683 1.00391 0.0
C243 C 0.33443 0.34356 1.01021 0.0
C244 C 0.3389 0.34015 0.06932 0.0
H245 H 0.32424 0.35429 0.98863 0.0
H246 H 0.33272 0.34885 0.09499 0.0
H247 H 0.22702 0.40821 0.1011 0.0
H248 H 0.27378 0.45656 1.01457 0.0
C249 C 0.28422 0.40166 0.9684 0.0
C250 C 0.37521 0.43329 0.04789 0.0
C251 C 0.23054 0.32192 0.04743 0.0
C252 C 0.28864 0.39175 0.13268 0.0
H253 H 0.39521 0.45475 0.98004 0.0
H254 H 0.34449 0.43914 0.9363 0.0
H255 H 0.22829 0.35981 0.93847 0.0
H256 H 0.2003 0.31472 0.98178 0.0
H257 H 0.21214 0.3002 0.11543 0.0
H258 H 0.2431 0.33915 0.16281 0.0
H259 H 0.34323 0.43414 0.16269 0.0
H260 H 0.39268 0.45497 0.11564 0.0
H261 H 0.1681 0.42239 0.08793 0.0
H262 H 0.21435 0.46999 0.99871 0.0
H263 H 0.37242 0.30266 0.08553 0.0
H264 H 0.36211 0.30808 0.97799 0.0
C265 C 0.22785 0.64722 0.4732 0.0
C266 C 0.22982 0.63152 0.44123 0.0
C267 C 0.25673 0.64838 0.42266 0.0
C268 C 0.27004 0.67302 0.44435 0.0
N269 N 0.25356 0.6727 0.4758 0.0
Co270 Co 0.26715 0.702 0.51595 0.0
N271 N 0.30652 0.72718 0.48854 0.0
C272 C 0.31495 0.72271 0.45495 0.0
C273 C 0.34308 0.74362 0.44304 0.0
C274 C 0.35337 0.76257 0.47067 0.0
C275 C 0.33093 0.75199 0.49799 0.0
N276 N 0.28153 0.73057 0.55643 0.0
C277 C 0.30909 0.75416 0.5598 0.0
C278 C 0.31071 0.76644 0.59306 0.0
C279 C 0.2833 0.75005 0.61139 0.0
C280 C 0.26667 0.72871 0.58842 0.0
N281 N 0.22716 0.67737 0.54313 0.0
C282 C 0.21755 0.68319 0.5763 0.0
C283 C 0.18663 0.66554 0.58732 0.0
C284 C 0.17552 0.64744 0.55951 0.0
C285 C 0.20077 0.65466 0.53304 0.0
N286 N 0.30253 0.66902 0.52744 0.0
C287 C 0.35907 0.62997 0.54515 0.0
C288 C 0.33149 0.63842 0.56906 0.0
C289 C 0.30358 0.65769 0.5597 0.0
C290 C 0.35659 0.63958 0.51191 0.0
C291 C 0.3283 0.65864 0.50363 0.0
N292 N 0.23188 0.73517 0.50432 0.0
C293 C 0.18395 0.7722 0.5207 0.0
C294 C 0.17757 0.77862 0.48672 0.0
C295 C 0.20333 0.76597 0.46257 0.0
C296 C 0.22884 0.74393 0.47153 0.0
C297 C 0.21013 0.75035 0.52875 0.0
H298 H 0.24616 0.73451 0.45137 0.0
H299 H 0.21245 0.7463 0.55504 0.0
H300 H 0.28378 0.66402 0.5792 0.0
H301 H 0.32865 0.66558 0.47794 0.0
C302 C 0.29759 0.6971 0.43585 0.0
C303 C 0.19859 0.6393 0.49883 0.0
C304 C 0.33409 0.76624 0.53238 0.0
C305 C 0.237 0.70672 0.59602 0.0
H306 H 0.21273 0.61071 0.43193 0.0
H307 H 0.26527 0.64351 0.39635 0.0
H308 H 0.35516 0.7445 0.41744 0.0
H309 H 0.37524 0.78172 0.47083 0.0
H310 H 0.32982 0.78528 0.60303 0.0
H311 H 0.27643 0.7532 0.63829 0.0
H312 H 0.17319 0.66642 0.61239 0.0
H313 H 0.15128 0.63111 0.55892 0.0
H314 H 0.3324 0.63153 0.5952 0.0
H315 H 0.37735 0.6336 0.49259 0.0
H316 H 0.16941 0.78435 0.54171 0.0
H317 H 0.20535 0.77324 0.43658 0.0
C318 C 0.8242 0.89956 0.47681 0.0
C319 C 0.83273 0.90669 0.44318 0.0
C320 C 0.80354 0.89489 0.42539 0.0
C321 C 0.77894 0.88112 0.44911 0.0
N322 N 0.79057 0.88422 0.48076 0.0
Co323 Co 0.76712 0.86345 0.52202 0.0
N324 N 0.73429 0.83383 0.49513 0.0
C325 C 0.72647 0.83815 0.46276 0.0
C326 C 0.70111 0.81457 0.45142 0.0
C327 C 0.69241 0.79446 0.47837 0.0
C328 C 0.71308 0.80693 0.50468 0.0
N329 N 0.74716 0.84139 0.56369 0.0
C330 C 0.72683 0.81252 0.56685 0.0
C331 C 0.71904 0.80555 0.60077 0.0
C332 C 0.73469 0.83146 0.61946 0.0
C333 C 0.75127 0.85251 0.59598 0.0
N334 N 0.79921 0.89453 0.54877 0.0
C335 C 0.79521 0.90215 0.58225 0.0
C336 C 0.82329 0.92263 0.59376 0.0
C337 C 0.84668 0.92762 0.56603 0.0
C338 C 0.83139 0.91003 0.53901 0.0
N339 N 0.72709 0.89551 0.52533 0.0
C340 C 0.65811 0.91801 0.51263 0.0
C341 C 0.66324 0.90016 0.54132 0.0
C342 C 0.69727 0.8893 0.54716 0.0
C343 C 0.68919 0.92805 0.49266 0.0
C344 C 0.72343 0.91773 0.5003 0.0
N345 N 0.80403 0.83018 0.51755 0.0
C346 C 0.85126 0.80034 0.53976 0.0
C347 C 0.85908 0.78426 0.50779 0.0
C348 C 0.83345 0.78754 0.4835 0.0
C349 C 0.80766 0.81128 0.48813 0.0
C350 C 0.82448 0.82364 0.5438 0.0
H351 H 0.79113 0.81448 0.4673 0.0
H352 H 0.82036 0.83631 0.56818 0.0
H353 H 0.69753 0.87409 0.56863 0.0
H354 H 0.74632 0.92664 0.48455 0.0
C355 C 0.74794 0.86056 0.44244 0.0
C356 C 0.8484 0.90742 0.50467 0.0
C357 C 0.71133 0.79326 0.53856 0.0
C358 C 0.77215 0.8819 0.60309 0.0
H359 H 0.85769 0.91848 0.43265 0.0
H360 H 0.80147 0.89464 0.39817 0.0
H361 H 0.69122 0.81151 0.42621 0.0
H362 H 0.67323 0.773 0.47859 0.0
H363 H 0.70286 0.78448 0.61093 0.0
H364 H 0.73413 0.83448 0.64683 0.0
H365 H 0.82802 0.93026 0.61979 0.0
H366 H 0.87266 0.94137 0.56612 0.0
H367 H 0.64038 0.89271 0.55826 0.0
H368 H 0.68699 0.94296 0.47074 0.0
H369 H 0.86464 0.79522 0.56218 0.0
H370 H 0.83344 0.77251 0.46018 0.0
C371 C 0.50596 0.79907 0.88896 0.0
C372 C 0.47315 0.80872 0.90347 0.0
C373 C 0.44883 0.78167 0.90018 0.0
C374 C 0.46775 0.75709 0.88339 0.0
N375 N 0.50242 0.76715 0.87598 0.0
Co376 Co 0.5377 0.74183 0.84719 0.0
N377 N 0.49924 0.71232 0.82686 0.0
C378 C 0.46526 0.70742 0.84028 0.0
C379 C 0.44488 0.68436 0.82179 0.0
C380 C 0.46762 0.67386 0.79538 0.0
C381 C 0.50073 0.69124 0.79913 0.0
N382 N 0.57355 0.71733 0.81816 0.0
C383 C 0.56896 0.69705 0.7902 0.0
C384 C 0.60181 0.68584 0.77737 0.0
C385 C 0.62746 0.69877 0.79866 0.0
C386 C 0.60908 0.71739 0.82307 0.0
N387 N 0.57591 0.7711 0.86807 0.0
C388 C 0.6108 0.76446 0.86892 0.0
C389 C 0.63083 0.78934 0.88549 0.0
C390 C 0.60697 0.81308 0.89555 0.0
C391 C 0.57368 0.80135 0.8844 0.0
N392 N 0.54012 0.70947 0.88271 0.0
C393 C 0.54226 0.6606 0.93091 0.0
C394 C 0.54311 0.65198 0.89642 0.0
C395 C 0.54164 0.67651 0.873 0.0
C396 C 0.53977 0.69431 0.94122 0.0
C397 C 0.53923 0.71856 0.91653 0.0
N398 N 0.53474 0.77319 0.81142 0.0
C399 C 0.56311 0.80858 0.76873 0.0
C400 C 0.52925 0.81793 0.76045 0.0
C401 C 0.49825 0.8041 0.77745 0.0
C402 C 0.50158 0.78179 0.80287 0.0
C403 C 0.56527 0.78596 0.79433 0.0
H404 H 0.47724 0.77159 0.81567 0.0
H405 H 0.59157 0.77934 0.80081 0.0
H406 H 0.54155 0.66854 0.84686 0.0
H407 H 0.538 0.7445 0.92465 0.0
C408 C 0.45234 0.7284 0.86701 0.0
C409 C 0.54056 0.8196 0.88925 0.0
C410 C 0.53366 0.6848 0.77782 0.0
C411 C 0.62468 0.73877 0.8479 0.0
H412 H 0.46702 0.8328 0.91478 0.0
H413 H 0.42017 0.78091 0.90705 0.0
H414 H 0.41663 0.67668 0.82643 0.0
H415 H 0.46078 0.65517 0.77591 0.0
H416 H 0.60672 0.66943 0.75541 0.0
H417 H 0.65619 0.69561 0.79609 0.0
H418 H 0.65969 0.79102 0.88819 0.0
H419 H 0.61338 0.83662 0.90884 0.0
H420 H 0.54479 0.62618 0.88755 0.0
H421 H 0.53889 0.70177 0.96788 0.0
H422 H 0.58755 0.81898 0.75581 0.0
H423 H 0.4717 0.81078 0.77131 0.0
C424 C 0.54594 0.28644 0.65498 0.0
C425 C 0.57873 0.29822 0.63987 0.0
C426 C 0.60264 0.27392 0.64289 0.0
C427 C 0.58356 0.24887 0.66018 0.0
N428 N 0.54919 0.25608 0.66818 0.0
Co429 Co 0.514 0.2298 0.69783 0.0
N430 N 0.55243 0.20629 0.7177 0.0
C431 C 0.58596 0.20329 0.70359 0.0
C432 C 0.6064 0.18444 0.72234 0.0
C433 C 0.58417 0.17484 0.74973 0.0
C434 C 0.55132 0.18855 0.74625 0.0
N435 N 0.47845 0.2042 0.72775 0.0
C436 C 0.4834 0.18832 0.75663 0.0
C437 C 0.45058 0.17536 0.77072 0.0
C438 C 0.42463 0.18251 0.74925 0.0
C439 C 0.44278 0.19979 0.7235 0.0
N440 N 0.47572 0.25302 0.67741 0.0
C441 C 0.44071 0.24241 0.67711 0.0
C442 C 0.42074 0.26352 0.6604 0.0
C443 C 0.44481 0.2889 0.64963 0.0
C444 C 0.47815 0.28186 0.66051 0.0
N445 N 0.51008 0.19421 0.66281 0.0
C446 C 0.50199 0.14193 0.61469 0.0
C447 C 0.50379 0.13546 0.64891 0.0
C448 C 0.50815 0.16179 0.67242 0.0
C449 C 0.50532 0.17508 0.60457 0.0
C450 C 0.50897 0.20102 0.62923 0.0
N451 N 0.51808 0.26467 0.73299 0.0
C452 C 0.4903 0.30096 0.77504 0.0
C453 C 0.52427 0.31514 0.78261 0.0
C454 C 0.55514 0.30322 0.76575 0.0
C455 C 0.55144 0.27789 0.74094 0.0
C456 C 0.48778 0.27558 0.75009 0.0
H457 H 0.57557 0.26914 0.72808 0.0
H458 H 0.46134 0.26534 0.74406 0.0
H459 H 0.50961 0.15575 0.69854 0.0
H460 H 0.51059 0.22651 0.62127 0.0
C461 C 0.59879 0.2231 0.67639 0.0
C462 C 0.51155 0.30319 0.65505 0.0
C463 C 0.519 0.18229 0.76911 0.0
C464 C 0.42688 0.21708 0.69863 0.0
H465 H 0.5852 0.32196 0.62832 0.0
H466 H 0.63119 0.27551 0.63551 0.0
H467 H 0.63447 0.17924 0.71738 0.0
H468 H 0.59124 0.15935 0.7698 0.0
H469 H 0.4458 0.16178 0.79381 0.0
H470 H 0.39582 0.17691 0.75278 0.0
H471 H 0.39183 0.26176 0.65801 0.0
H472 H 0.43851 0.31044 0.63602 0.0
H473 H 0.50167 0.11005 0.65746 0.0
H474 H 0.5043 0.18079 0.57811 0.0
H475 H 0.466 0.3098 0.78796 0.0
H476 H 0.58177 0.31367 0.77149 0.0
C477 C 0.86915 0.49291 0.79031 0.0
C478 C 0.88071 0.46141 0.79511 0.0
C479 C 0.86673 0.44075 0.76988 0.0
C480 C 0.84756 0.46077 0.75108 0.0
N481 N 0.84889 0.49266 0.7629 0.0
Co482 Co 0.82469 0.52971 0.74409 0.0
N483 N 0.78997 0.49852 0.72037 0.0
C484 C 0.7933 0.4655 0.71476 0.0
C485 C 0.76397 0.44985 0.69999 0.0
C486 C 0.74117 0.47465 0.69543 0.0
C487 C 0.75818 0.50437 0.70711 0.0
N488 N 0.80139 0.56722 0.72487 0.0
C489 C 0.77087 0.56736 0.70774 0.0
C490 C 0.76725 0.59869 0.69503 0.0
C491 C 0.79644 0.61866 0.70455 0.0
C492 C 0.81641 0.59854 0.72225 0.0
N493 N 0.85895 0.56053 0.76867 0.0
C494 C 0.86697 0.5929 0.76242 0.0
C495 C 0.88839 0.60861 0.78614 0.0
C496 C 0.89404 0.5846 0.8087 0.0
C497 C 0.87609 0.55534 0.79719 0.0
N498 N 0.85838 0.52876 0.70348 0.0
C499 C 0.90396 0.53061 0.64384 0.0
C500 C 0.91844 0.5317 0.67596 0.0
C501 C 0.89513 0.53011 0.70551 0.0
C502 C 0.86645 0.5275 0.64242 0.0
C503 C 0.84444 0.52743 0.67216 0.0
N504 N 0.79083 0.53045 0.78409 0.0
C505 C 0.76181 0.55999 0.83151 0.0
C506 C 0.74547 0.52992 0.84326 0.0
C507 C 0.75133 0.5004 0.82443 0.0
C508 C 0.77411 0.50116 0.79505 0.0
C509 C 0.7843 0.55973 0.8017 0.0
H510 H 0.77892 0.4778 0.7818 0.0
H511 H 0.79665 0.58314 0.79304 0.0
H512 H 0.90677 0.53073 0.72993 0.0
H513 H 0.81596 0.52715 0.66949 0.0
C514 C 0.82149 0.44958 0.72829 0.0
C515 C 0.87717 0.52253 0.81241 0.0
C516 C 0.74635 0.5379 0.70058 0.0
C517 C 0.84722 0.60893 0.73956 0.0
H518 H 0.89667 0.45404 0.81525 0.0
H519 H 0.86832 0.41394 0.76708 0.0
H520 H 0.75921 0.42344 0.69406 0.0
H521 H 0.71553 0.47128 0.6838 0.0
H522 H 0.74621 0.60625 0.67979 0.0
H523 H 0.80222 0.64479 0.6994 0.0
H524 H 0.89685 0.63489 0.78818 0.0
H525 H 0.90931 0.5884 0.83112 0.0
H526 H 0.94737 0.53435 0.67821 0.0
H527 H 0.85405 0.52681 0.61825 0.0
H528 H 0.7571 0.58339 0.84516 0.0
H529 H 0.73863 0.47679 0.83258 0.0
C530 C 0.18727 0.04424 0.83788 0.0
C531 C 0.17636 0.07637 0.84439 0.0
C532 C 0.19128 0.09526 0.81855 0.0
C533 C 0.21038 0.07371 0.79775 0.0
N534 N 0.2082 0.04203 0.80846 0.0
Co535 Co 0.2334 1.00323 0.78636 0.0
N536 N 0.25724 0.03144 0.74918 0.0
C537 C 0.25374 0.06447 0.74571 0.0
C538 C 0.27399 0.07754 0.71873 0.0
C539 C 0.29108 0.05126 0.70363 0.0
C540 C 0.27991 0.02334 0.72204 0.0
N541 N 0.25853 0.96444 0.76412 0.0
C542 C 0.27782 0.96174 0.73375 0.0
C543 C 0.28565 0.92883 0.72595 0.0
C544 C 0.27192 0.91038 0.75246 0.0
C545 C 0.25587 0.9327 0.77471 0.0
N546 N 0.20963 0.97498 0.82336 0.0
C547 C 0.21315 0.94203 0.82695 0.0
C548 C 0.19529 0.92955 0.85551 0.0
C549 C 0.1797 0.95622 0.87147 0.0
C550 C 0.18896 0.98352 0.8516 0.0
N551 N 0.19218 0.99221 0.75772 0.0
C552 C 0.14915 0.97534 0.70351 0.0
C553 C 0.15784 0.95075 0.72497 0.0
C554 C 0.17926 0.9598 0.75211 0.0
C555 C 0.15783 1.00867 0.71221 0.0
C556 C 0.1788 0.01655 0.73968 0.0
N557 N 0.2745 1.01447 0.81519 0.0
C558 C 0.3112 1.00058 0.86034 0.0
C559 C 0.32137 0.03452 0.8672 0.0
C560 C 0.31239 0.05678 0.84298 0.0
C561 C 0.28878 0.04658 0.8181 0.0
C562 C 0.28768 0.99127 0.83475 0.0
H563 H 0.28224 0.06538 0.80182 0.0
H564 H 0.28028 0.96527 0.83137 0.0
H565 H 0.18654 0.94005 0.76699 0.0
H566 H 0.18548 0.04234 0.74458 0.0
C567 C 0.23178 0.08266 0.76876 0.0
C568 C 0.17844 0.01719 0.86137 0.0
C569 C 0.29039 0.98951 0.7118 0.0
C570 C 0.2349 0.92392 0.80388 0.0
H571 H 0.15993 0.08534 0.86599 0.0
H572 H 0.18912 0.12174 0.81568 0.0
H573 H 0.27607 0.10316 0.71093 0.0
H574 H 0.30927 0.05251 0.68124 0.0
H575 H 0.29956 0.91895 0.70326 0.0
H576 H 0.27238 0.88363 0.75464 0.0
H577 H 0.19442 0.90425 0.86412 0.0
H578 H 0.16383 0.95578 0.89535 0.0
H579 H 0.15044 0.92466 0.71937 0.0
H580 H 0.15037 0.02844 0.69662 0.0
H581 H 0.32137 0.98071 0.87385 0.0
H582 H 0.32348 0.08226 0.84234 0.0
C583 C 0.74583 0.17513 0.9658 0.0
C584 C 0.74093 0.16663 0.93196 0.0
C585 C 0.76618 0.18558 0.91343 0.0
C586 C 0.78493 0.20456 0.93693 0.0
N587 N 0.77362 0.19852 0.9694 0.0
Co588 Co 0.7917 0.22248 1.0113 0.0
N589 N 0.82724 0.25191 0.98407 0.0
C590 C 0.8336 0.25047 0.94999 0.0
C591 C 0.86057 0.27286 0.93856 0.0
C592 C 0.87234 0.28948 0.96705 0.0
C593 C 0.85173 0.27625 0.99432 0.0
N594 N 0.80882 0.24693 0.05326 0.0
C595 C 0.83409 0.27255 0.05694 0.0
C596 C 0.83727 0.28235 0.09078 0.0
C597 C 0.8133 0.26213 0.10919 0.0
C598 C 0.79686 0.2413 0.08565 0.0
N599 N 0.75691 0.19232 0.03858 0.0
C600 C 0.75278 0.19173 0.07277 0.0
C601 C 0.72674 0.16855 0.08438 0.0
C602 C 0.71308 0.15358 0.05589 0.0
C603 C 0.73166 0.1686 0.02847 0.0
N604 N 0.83042 0.18998 1.0138 0.0
C605 C 0.89355 0.15421 0.01745 0.0
C606 C 0.87243 0.16255 0.04672 0.0
C607 C 0.84112 0.1801 0.04434 0.0
C608 C 0.88114 0.16199 0.98627 0.0
C609 C 0.84969 0.17937 0.98501 0.0
N610 N 0.75363 0.25546 1.00848 0.0
C611 C 0.70365 0.28625 0.0335 0.0
C612 C 0.69735 0.30075 1.00246 0.0
C613 C 0.72385 0.2948 0.97616 0.0
C614 C 0.75037 0.27191 0.97924 0.0
C615 C 0.73075 0.26345 0.03567 0.0
H616 H 0.76833 0.26828 0.95755 0.0
H617 H 0.73306 0.25284 0.05979 0.0
H618 H 0.82662 0.18627 0.06764 0.0
H619 H 0.84223 0.18482 0.96037 0.0
C620 C 0.81295 0.22853 0.92941 0.0
C621 C 0.72249 0.16108 0.99347 0.0
C622 C 0.856 0.2882 0.02937 0.0
C623 C 0.77141 0.21522 0.0932 0.0
H624 H 0.72084 0.14888 0.9218 0.0
H625 H 0.77002 0.18586 0.88607 0.0
H626 H 0.87038 0.27676 0.91258 0.0
H627 H 0.89359 0.30919 0.96774 0.0
H628 H 0.85534 0.30188 0.10109 0.0
H629 H 0.80875 0.26228 0.13651 0.0
H630 H 0.71786 0.1639 0.11045 0.0
H631 H 0.69124 0.13444 0.05532 0.0
H632 H 0.88082 0.1567 0.07146 0.0
H633 H 0.89639 0.15568 0.96291 0.0
H634 H 0.68891 0.2928 0.05687 0.0
H635 H 0.72538 0.30821 0.95296 0.0
Co636 Co 0.07893 0.05543 0.06122 0.0
C637 C 0.07427 0.10567 0.11247 0.0
Co638 Co 0.10802 0.10281 0.04768 0.0
C639 C 0.06568 0.98341 0.06616 0.0
C640 C 0.02414 1.0108 0.09216 0.0
N641 N 0.05532 1.01481 0.07306 0.0
N642 N 0.04248 0.96014 0.08079 0.0
C643 C 1.01629 0.97731 0.09704 0.0
H644 H 0.09024 0.97772 0.05154 0.0
H645 H 1.0084 0.03101 0.10238 0.0
C646 C 0.11499 0.05354 0.99627 0.0
N647 N 0.13017 0.14279 0.03399 0.0
C648 C 0.14759 0.16786 0.05139 0.0
C649 C 0.12951 0.15362 1.00208 0.0
N650 N 0.15775 0.19354 0.03128 0.0
C651 C 0.1466 0.18477 1.00033 0.0
C652 C 0.15086 0.06199 0.0813 0.0
O653 O 0.09365 0.0361 0.01615 0.0
O654 O 0.12442 0.08308 1.00577 0.0
O655 O 0.15091 0.09053 0.06817 0.0
O656 O 0.12286 0.04202 0.07946 0.0
O657 O 0.0921 0.1229 0.0901 0.0
H658 H 0.1167 0.13997 0.98143 0.0
H659 H 0.15228 0.16756 0.07815 0.0
O660 O 0.06528 0.07515 0.10527 0.0
O661 O 0.03451 0.07017 0.04477 0.0
O662 O 0.06493 0.1151 0.0281 0.0
C663 C 0.03469 0.09886 0.03202 0.0
H664 H 0.99337 0.96635 0.1118 0.0
H665 H 0.15014 0.20012 0.97833 0.0
Co666 Co 0.98476 0.46257 0.08448 0.0
C667 C 1.00318 0.52861 0.06384 0.0
Co668 Co 0.96333 0.47663 0.03675 0.0
C669 C 1.01007 0.42659 0.13788 0.0
C670 C 1.01008 0.47886 0.15091 0.0
N671 N 1.00193 0.45594 0.12608 0.0
N672 N 0.02292 0.43026 0.16891 0.0
C673 C 0.02332 0.46305 0.17736 0.0
H674 H 1.00667 0.40283 0.12411 0.0
H675 H 1.00644 0.50531 0.15002 0.0
C676 C 0.94495 0.41009 0.05612 0.0
N677 N 0.94837 0.4815 0.9922 0.0
C678 C 0.93214 0.50407 0.97438 0.0
C679 C 0.95627 0.45713 0.96872 0.0
N680 N 0.92989 0.49402 0.94117 0.0
C681 C 0.94503 0.46462 0.93787 0.0
C682 C 0.03489 0.45312 0.03349 0.0
O683 O 0.9618 0.41799 0.08263 0.0
O684 O 0.94441 0.43141 0.03348 0.0
O685 O 1.01114 0.46512 0.01625 0.0
O686 O 0.02716 0.44724 0.06424 0.0
O687 O 0.98183 0.5217 0.04022 0.0
H688 H 0.9699 0.43496 0.97355 0.0
H689 H 0.92242 0.52721 0.98528 0.0
O690 O 1.00668 0.50646 0.08528 0.0
O691 O 0.94346 0.47809 0.10621 0.0
O692 O 0.91641 0.48862 0.06036 0.0
C693 C 0.91568 0.48698 0.09294 0.0
H694 H 0.03166 0.47442 0.20117 0.0
H695 H 0.94776 0.44963 0.91455 0.0
Co696 Co 0.07521 0.95729 0.47607 0.0
C697 C 0.12329 0.9664 0.41916 0.0
Co698 Co 0.05416 0.93858 0.42804 0.0
C699 C 0.09105 0.9598 0.54597 0.0
C700 C 0.11256 1.00352 0.52046 0.0
N701 N 0.09324 0.97425 0.51568 0.0
N702 N 0.10834 0.97894 0.56931 0.0
C703 C 0.12203 1.0064 0.55358 0.0
H704 H 0.07797 0.9354 0.55061 0.0
H705 H 0.11982 0.02127 0.50094 0.0
C706 C 1.00357 0.93196 0.48239 0.0
N707 N 0.035 0.92149 0.38884 0.0
C708 C 0.04706 0.89633 0.36852 0.0
C709 C 1.00184 0.92649 0.37863 0.0
N710 N 0.02222 0.88485 0.34685 0.0
C711 C 0.99387 0.90385 0.35277 0.0
C712 C 0.09055 0.89094 0.46214 0.0
O713 O 0.02895 0.9447 0.50006 0.0
O714 O 1.01013 0.92585 0.45114 0.0
O715 O 0.07299 0.89533 0.43607 0.0
O716 O 0.09397 0.91499 0.48381 0.0
O717 O 0.09742 0.95181 0.40382 0.0
H718 H 0.98362 0.94382 0.3908 0.0
H719 H 0.07245 0.88515 0.37096 0.0
O720 O 0.12021 0.97081 0.45132 0.0
O721 O 0.05782 0.99918 0.46883 0.0
O722 O 0.03631 0.982 0.42084 0.0
C723 C 0.04083 1.0054 0.44329 0.0
H724 H 0.13839 0.02657 0.56509 0.0
H725 H 0.96871 0.90054 0.34024 0.0
Co726 Co 0.99028 0.58776 0.45426 0.0
C727 C 0.0624 0.57124 0.4642 0.0
Co728 Co 1.00304 0.5349 0.44145 0.0
C729 C 0.95357 0.6487 0.47411 0.0
C730 C 1.00992 0.65828 0.46107 0.0
N731 N 0.98393 0.63325 0.46372 0.0
N732 N 0.95991 0.68213 0.47787 0.0
C733 C 0.99524 0.68823 0.46966 0.0
H734 H 0.92727 0.63589 0.47832 0.0
H735 H 0.03785 0.65518 0.45308 0.0
C736 C 0.93218 0.55223 0.42958 0.0
N737 N 1.00655 0.48772 0.43254 0.0
C738 C 0.03083 0.46664 0.41774 0.0
C739 C 0.97801 0.46691 0.4421 0.0
N740 N 1.01782 0.43398 0.41758 0.0
C741 C 0.98464 0.43454 0.4329 0.0
C742 C 0.97518 0.54917 0.50936 0.0
O743 O 0.94106 0.58053 0.44323 0.0
O744 O 0.95501 0.53003 0.42635 0.0
O745 O 0.98449 0.52577 0.4883 0.0
O746 O 0.97792 0.57896 0.49962 0.0
O747 O 0.05199 0.54117 0.45599 0.0
H748 H 0.95337 0.47475 0.45508 0.0
H749 H 0.05727 0.47496 0.40718 0.0
O750 O 0.04003 0.59399 0.46436 0.0
O751 O 1.00219 0.59664 0.40881 0.0
O752 O 1.02032 0.54657 0.39511 0.0
C753 C 1.01537 0.57643 0.38657 0.0
H754 H 1.0092 0.71275 0.46928 0.0
H755 H 0.96643 0.4128 0.43733 0.0
Co756 Co 0.46449 0.94376 0.57866 0.0
C757 C 0.47145 1.01069 0.5601 0.0
Co758 Co 0.43634 0.95484 0.53322 0.0
C759 C 0.48492 0.91241 0.63848 0.0
C760 C 0.52302 0.95175 0.62248 0.0
N761 N 0.49085 0.93622 0.61537 0.0
N762 N 0.51214 0.91256 0.65942 0.0
C763 C 0.53618 0.93722 0.64968 0.0
H764 H 0.46191 0.89447 0.63924 0.0
H765 H 0.53684 0.97146 0.60792 0.0
C766 C 0.42538 0.88815 0.55236 0.0
N767 N 0.41011 0.96158 0.49499 0.0
C768 C 0.42011 0.97426 0.46421 0.0
C769 C 0.37552 0.9499 0.49216 0.0
N770 N 0.39312 0.9704 0.44244 0.0
C771 C 0.36513 0.95517 0.46013 0.0
C772 C 0.50773 0.93668 0.51891 0.0
O773 O 0.44511 0.89737 0.57678 0.0
O774 O 0.4204 0.90902 0.53015 0.0
O775 O 0.48058 0.94618 0.50411 0.0
O776 O 0.50471 0.93282 0.55054 0.0
O777 O 0.45144 1.00071 0.53631 0.0
H778 H 0.35909 0.93737 0.51189 0.0
H779 H 0.4468 0.98533 0.45761 0.0
O780 O 0.48153 0.98967 0.58022 0.0
O781 O 0.42561 0.95513 0.60771 0.0
O782 O 0.39336 0.96345 0.56492 0.0
C783 C 0.39567 0.96233 0.5972 0.0
H784 H 0.56186 0.94331 0.66068 0.0
H785 H 0.33901 0.94815 0.45037 0.0
Co786 Co 0.54679 0.54238 0.60991 0.0
C787 C 0.54023 0.59732 0.65688 0.0
Co788 Co 0.57032 0.59067 0.59124 0.0
C789 C 0.52054 0.46997 0.61632 0.0
C790 C 0.53915 0.49507 0.6613 0.0
N791 N 0.53189 0.50069 0.62902 0.0
N792 N 0.52126 0.44584 0.63954 0.0
C793 C 0.53294 0.46195 0.66767 0.0
H794 H 0.51342 0.46516 0.59034 0.0
H795 H 0.55051 0.51353 0.67885 0.0
C796 C 0.57994 0.53813 0.54389 0.0
N797 N 0.58624 0.63036 0.57198 0.0
C798 C 0.61057 0.65461 0.58188 0.0
C799 C 0.57644 0.63957 0.54147 0.0
N800 N 0.61606 0.67825 0.55853 0.0
C801 C 0.59467 0.66907 0.53322 0.0
C802 C 0.61991 0.55897 0.62463 0.0
O803 O 0.56153 0.52022 0.56575 0.0
O804 O 0.58612 0.56885 0.55089 0.0
O805 O 0.6162 0.58589 0.60961 0.0
O806 O 0.5939 0.53683 0.6258 0.0
O807 O 0.55497 0.61356 0.63222 0.0
H808 H 0.558 0.62517 0.52558 0.0
H809 H 0.62469 0.65451 0.60504 0.0
O810 O 0.53368 0.56585 0.65282 0.0
O811 O 0.49864 0.54977 0.59501 0.0
O812 O 0.52457 0.59508 0.5736 0.0
C813 C 0.49595 0.57704 0.57981 0.0
H814 H 0.53746 0.45027 0.69116 0.0
H815 H 0.59325 0.68235 0.51007 0.0
Co816 Co 0.59893 0.48402 1.01126 0.0
C817 C 0.64144 0.49382 0.95085 0.0
Co818 Co 0.57296 0.46623 0.96502 0.0
C819 C 0.61881 0.48432 0.08033 0.0
C820 C 0.64024 0.52807 0.05486 0.0
N821 N 0.62082 0.49888 0.05003 0.0
N822 N 0.63583 0.50357 0.10386 0.0
C823 C 0.64963 0.53096 0.08801 0.0
H824 H 0.6051 0.46022 0.08512 0.0
H825 H 0.64686 0.54621 0.03562 0.0
C826 C 0.52787 0.45904 0.02268 0.0
N827 N 0.5496 0.45225 0.92698 0.0
C828 C 0.55843 0.42799 0.90408 0.0
C829 C 0.51761 0.46216 0.91787 0.0
N830 N 0.53303 0.42227 0.88141 0.0
C831 C 0.50729 0.44361 0.88972 0.0
C832 C 0.61113 0.41698 0.99326 0.0
O833 O 0.55537 0.47026 0.03831 0.0
O834 O 0.53068 0.45466 0.99085 0.0
O835 O 0.59016 0.42206 0.96983 0.0
O836 O 0.61823 0.44078 1.01456 0.0
O837 O 0.6145 0.47815 0.93814 0.0
H838 H 0.50202 0.48066 0.9317 0.0
H839 H 0.58209 0.41374 0.90481 0.0
O840 O 0.64133 0.49869 0.98302 0.0
O841 O 0.58093 0.52693 1.00812 0.0
O842 O 0.55703 0.51039 0.96063 0.0
C843 C 0.5641 0.53355 0.98254 0.0
H844 H 0.6656 0.55134 0.09961 0.0
H845 H 0.48229 0.44457 0.87721 0.0
Co846 Co 0.50348 0.10841 0.96469 0.0
C847 C 0.57812 0.09986 0.96825 0.0
Co848 Co 0.52196 0.0606 0.94124 0.0
C849 C 0.46526 0.16919 0.98077 0.0
C850 C 0.50681 0.16179 1.01444 0.0
N851 N 0.49135 0.14848 0.98643 0.0
N852 N 0.46426 0.19467 1.00412 0.0
C853 C 0.49032 0.19022 0.02523 0.0
H854 H 0.44685 0.16532 0.96057 0.0
H855 H 0.52808 0.151 0.027 0.0
C856 C 0.44876 0.07185 0.93529 0.0
N857 N 0.5325 0.01878 0.91944 0.0
C858 C 0.54172 0.98892 0.93057 0.0
C859 C 0.52328 1.01153 0.88729 0.0
N860 N 0.53795 0.96372 0.90656 0.0
C861 C 0.52641 0.97827 0.87951 0.0
C862 C 0.49506 0.05623 1.00948 0.0
O863 O 0.45576 0.09903 0.95192 0.0
O864 O 0.47348 0.05174 0.92911 0.0
O865 O 0.50962 0.03902 0.98491 0.0
O866 O 0.49137 0.08697 1.00569 0.0
O867 O 0.57191 0.07161 0.95265 0.0
H868 H 0.51272 0.02889 0.87085 0.0
H869 H 0.54947 0.98539 0.95609 0.0
O870 O 0.55153 0.11705 0.97715 0.0
O871 O 0.51459 0.13032 0.92265 0.0
O872 O 0.53206 0.08319 0.89884 0.0
C873 C 0.52562 0.1138 0.89625 0.0
H874 H 0.49619 0.20593 0.04739 0.0
H875 H 0.5199 0.96542 0.85581 0.0
C876 C 1.00978 0.08102 0.39968 0.0
C877 C 0.03713 0.105 0.4103 0.0
C878 C 0.05036 0.06786 0.45471 0.0
C879 C 0.03152 0.04073 0.43776 0.0
N880 N 0.9845 0.02361 0.40035 0.0
N881 N 0.08557 0.1199 0.44728 0.0
C882 C 1.00838 0.04799 0.41208 0.0
C883 C 0.05779 0.09825 0.43789 0.0
N884 N 0.98474 0.09028 0.3785 0.0
N885 N 0.05919 0.06558 0.48753 0.0
H886 H 0.09256 0.14225 0.43532 0.0
H887 H 0.10357 0.11406 0.46507 0.0
H888 H 0.04887 0.04611 0.50265 0.0
H889 H 0.07131 0.08554 0.50126 0.0
H890 H 0.96259 0.07498 0.37144 0.0
H891 H 0.98444 0.11458 0.37015 0.0
H892 H 0.97047 0.02536 0.37856 0.0
H893 H 0.97831 1.00159 0.41319 0.0
C894 C 0.0514 0.36424 0.35822 0.0
C895 C 0.04668 0.33691 0.38021 0.0
C896 C 0.03647 0.37724 0.42811 0.0
C897 C 0.03393 0.40327 0.40519 0.0
N898 N 0.03643 0.4207 0.34752 0.0
N899 N 0.03642 0.31762 0.43709 0.0
C900 C 0.04121 0.39667 0.36999 0.0
C901 C 0.03995 0.34355 0.41556 0.0
N902 N 0.06649 0.35942 0.32625 0.0
N903 N 0.0362 0.38519 0.46205 0.0
H904 H 0.04081 0.29306 0.42906 0.0
H905 H 0.02741 0.32009 0.46247 0.0
H906 H 0.03481 0.40977 0.47147 0.0
H907 H 0.04085 0.36832 0.48038 0.0
H908 H 0.0739 0.37882 0.31002 0.0
H909 H 0.07483 0.33628 0.31736 0.0
H910 H 0.03773 0.41632 0.32133 0.0
H911 H 0.0286 0.44443 0.35512 0.0
C912 C 1.01266 0.86899 0.07783 0.0
C913 C 0.04135 0.85521 0.09354 0.0
C914 C 0.07363 0.91046 0.09655 0.0
C915 C 0.04495 0.92432 0.08094 0.0
N916 N 0.99271 0.91567 0.0481 0.0
N917 N 0.10347 0.86042 0.10788 0.0
C918 C 1.0163 0.90306 0.06865 0.0
C919 C 0.07344 0.87523 0.09924 0.0
N920 N 0.98118 0.85025 0.0735 0.0
N921 N 0.09952 0.93093 0.11122 0.0
H922 H 0.10392 0.83459 0.10985 0.0
H923 H 0.12861 0.87322 0.10963 0.0
H924 H 0.09978 0.95688 0.1112 0.0
H925 H 0.11887 0.92227 0.1261 0.0
H926 H 0.95784 0.86011 0.06594 0.0
H927 H 0.97772 0.82514 0.07941 0.0
H928 H 0.97293 0.90099 0.03589 0.0
H929 H 0.99541 0.9404 0.04067 0.0
C930 C 0.04266 0.59998 0.1149 0.0
C931 C 0.0314 0.62746 0.09784 0.0
C932 C 1.01468 0.59032 0.04967 0.0
C933 C 0.02166 0.56263 0.06911 0.0
N934 N 0.06401 0.54458 0.10749 0.0
N935 N 1.01969 0.65077 0.04471 0.0
C936 C 0.04266 0.56847 0.09777 0.0
C937 C 0.0216 0.62328 0.06366 0.0
N938 N 0.05202 0.60345 0.1478 0.0
N939 N 1.00232 0.58526 0.01793 0.0
H940 H 0.02528 0.675 0.05442 0.0
H941 H 1.0153 0.64969 0.01892 0.0
H942 H 1.00442 0.56269 1.00421 0.0
H943 H 0.99137 0.60371 1.00471 0.0
H944 H 0.05675 0.58311 0.16216 0.0
H945 H 0.05229 0.62617 0.1615 0.0
H946 H 0.08157 0.54861 0.12705 0.0
H947 H 0.06795 0.52277 0.09279 0.0
C948 C 0.42113 0.03799 0.07842 0.0
C949 C 0.44069 0.02531 0.10421 0.0
C950 C 0.4962 0.02852 0.06641 0.0
C951 C 0.47642 0.0409 0.04046 0.0
N952 N 0.41845 0.05034 0.01952 0.0
N953 N 0.49503 1.00338 0.1217 0.0
C954 C 0.43843 0.04348 0.04593 0.0
C955 C 0.47771 0.01884 0.09779 0.0
N956 N 0.38604 0.04581 0.08524 0.0
N957 N 0.53282 0.02752 0.06163 0.0
H958 H 0.48242 0.99689 0.14503 0.0
H959 H 0.5209 0.99499 0.1177 0.0
H960 H 0.54677 0.03372 0.03881 0.0
H961 H 0.54961 0.02227 0.0806 0.0
H962 H 0.37201 0.0598 0.06943 0.0
H963 H 0.37128 0.04025 0.10781 0.0
H964 H 0.39037 0.04834 0.02027 0.0
H965 H 0.43006 0.05497 0.99563 0.0
C966 C 0.68639 0.49166 0.18001 0.0
C967 C 0.65887 0.49394 0.20637 0.0
C968 C 0.61414 0.49862 0.164 0.0
C969 C 0.64182 0.49557 0.13804 0.0
N970 N 0.70134 0.47999 0.12034 0.0
N971 N 0.59562 0.49292 0.22368 0.0
C972 C 0.67696 0.48877 0.14587 0.0
C973 C 0.62229 0.49501 0.19839 0.0
N974 N 0.72172 0.49473 0.18744 0.0
N975 N 0.58071 0.50663 0.15579 0.0
H976 H 0.60104 0.49078 0.24908 0.0
H977 H 0.56823 0.49071 0.21926 0.0
H978 H 0.57419 0.50916 0.13075 0.0
H979 H 0.56024 0.51269 0.17369 0.0
H980 H 0.7431 0.49588 0.16919 0.0
H981 H 0.72931 0.49972 0.21198 0.0
H982 H 0.72661 0.47171 0.12456 0.0
H983 H 0.69473 0.47781 0.09501 0.0
C984 C 0.35721 1.00477 0.36512 0.0
C985 C 0.38024 0.99151 0.33849 0.0
C986 C 0.4144 0.966 0.38122 0.0
C987 C 0.39232 0.98055 0.40765 0.0
N988 N 0.34958 0.02108 0.42484 0.0
N989 N 0.43708 0.96794 0.32236 0.0
C990 C 0.3659 1.00229 0.39949 0.0
C991 C 0.41089 0.97477 0.34692 0.0
N992 N 0.32631 0.01879 0.35771 0.0
N993 N 0.43739 0.94251 0.38855 0.0
H994 H 0.43561 0.97446 0.29721 0.0
H995 H 0.46158 0.95864 0.32759 0.0
H996 H 0.4401 0.93501 0.41316 0.0
H997 H 0.45138 0.9285 0.36994 0.0
H998 H 0.30678 0.02612 0.37603 0.0
H999 H 0.31845 0.02007 0.33303 0.0
H1000 H 0.33244 0.03977 0.42047 0.0
H1001 H 0.35635 0.02036 0.45004 0.0
C1002 C 0.6515 0.52907 0.47133 0.0
C1003 C 0.63089 0.51454 0.44483 0.0
C1004 C 0.57692 0.51025 0.4847 0.0
C1005 C 0.59764 0.52467 0.5113 0.0
N1006 N 0.65627 0.54206 0.53131 0.0
N1007 N 0.5759 0.48594 0.42718 0.0
C1008 C 0.63543 0.53224 0.50491 0.0
C1009 C 0.59421 0.50329 0.4519 0.0
N1010 N 0.68642 0.54081 0.46418 0.0
N1011 N 0.54037 0.50514 0.49014 0.0
H1012 H 0.58727 0.48159 0.40274 0.0
H1013 H 0.55049 0.4739 0.43141 0.0
H1014 H 0.52701 0.50945 0.51371 0.0
H1015 H 0.52296 0.49852 0.471 0.0
H1016 H 0.7014 0.55598 0.48085 0.0
H1017 H 0.70012 0.53708 0.44065 0.0
H1018 H 0.68436 0.54379 0.52957 0.0
H1019 H 0.64565 0.54604 0.55596 0.0
C1020 C 0.12699 0.41836 0.02161 0.0
C1021 C 0.1484 0.44797 0.02969 0.0
C1022 C 0.09616 0.48093 0.02212 0.0
C1023 C 0.07344 0.45114 0.02126 0.0
N1024 N 0.06677 0.39126 0.01895 0.0
N1025 N 0.15287 0.50776 0.03932 0.0
C1026 C 0.08889 0.41975 0.02012 0.0
C1027 C 0.13305 0.47946 0.02977 0.0
N1028 N 0.14323 0.38899 1.01517 0.0
N1029 N 0.08225 0.51066 0.01623 0.0
H1030 H 0.17978 0.50773 0.04532 0.0
H1031 H 0.14193 0.53087 0.04382 0.0
H1032 H 0.05567 0.51222 1.0098 0.0
H1033 H 0.09785 0.53304 1.01405 0.0
H1034 H 0.12973 0.36707 1.00648 0.0
H1035 H 0.17108 0.3873 0.01559 0.0
H1036 H 0.07539 0.36756 0.0225 0.0
H1037 H 0.03916 0.39176 0.01561 0.0
C1038 C 0.14513 0.62906 0.46207 0.0
C1039 C 0.1651 0.61866 0.48879 0.0
C1040 C 0.11924 0.57204 0.49787 0.0
C1041 C 0.10102 0.58184 0.46974 0.0
N1042 N 0.10842 0.60882 0.41656 0.0
N1043 N 0.17625 0.57393 0.52516 0.0
C1044 C 0.11761 0.60707 0.4492 0.0
C1045 C 0.15383 0.58802 0.50452 0.0
N1046 N 0.1514 0.6602 0.44947 0.0
N1047 N 0.10331 0.54845 0.51873 0.0
H1048 H 0.2019 0.58459 0.52982 0.0
H1049 H 0.17062 0.55037 0.53505 0.0
H1050 H 0.07852 0.53601 0.51401 0.0
H1051 H 0.11375 0.54285 0.54157 0.0
H1052 H 0.13541 0.66915 0.43145 0.0
H1053 H 0.16982 0.67809 0.4595 0.0
H1054 H 0.1218 0.62537 0.39964 0.0
H1055 H 0.09066 0.59078 0.40574 0.0
C1056 C 0.90399 0.94804 0.49949 0.0
C1057 C 0.88875 0.91462 0.49883 0.0
C1058 C 0.94993 0.89404 0.49791 0.0
C1059 C 0.96524 0.92706 0.49571 0.0
N1060 N 0.95757 0.98592 0.49297 0.0
N1061 N 0.89768 0.85608 0.49047 0.0
C1062 C 0.94241 0.95425 0.49647 0.0
C1063 C 0.91191 0.88772 0.49632 0.0
N1064 N 0.88161 0.97382 0.50309 0.0
N1065 N 0.972 0.86865 0.50162 0.0
H1066 H 0.87043 0.85106 0.48681 0.0
H1067 H 0.91324 0.83565 0.48549 0.0
H1068 H 0.99991 0.87281 0.5028 0.0
H1069 H 0.96259 0.84431 0.50684 0.0
H1070 H 0.89048 0.99861 0.50766 0.0
H1071 H 0.85358 0.97016 0.50305 0.0
H1072 H 0.94307 1.0065 0.48865 0.0
H1073 H 0.98529 0.9915 0.49344 0.0
C1074 C 0.39798 0.58093 0.55179 0.0
C1075 C 0.39308 0.61571 0.55541 0.0
C1076 C 0.4545 0.62531 0.57554 0.0
C1077 C 0.46005 0.59011 0.57168 0.0
N1078 N 0.43934 0.53632 0.54805 0.0
N1079 N 0.41426 0.67059 0.57488 0.0
C1080 C 0.43218 0.56835 0.55801 0.0
C1081 C 0.4208 0.6377 0.56814 0.0
N1082 N 0.36946 0.55974 0.54317 0.0
N1083 N 0.4817 0.64771 0.58507 0.0
H1084 H 0.39107 0.68137 0.56814 0.0
H1085 H 0.43046 0.68701 0.58934 0.0
H1086 H 0.50426 0.64181 0.59721 0.0
H1087 H 0.48239 0.67307 0.58033 0.0
H1088 H 0.36939 0.53386 0.54401 0.0
H1089 H 0.34455 0.56819 0.53779 0.0
H1090 H 0.42177 0.52024 0.53467 0.0
H1091 H 0.46444 0.52662 0.54976 0.0
C1092 C 0.5788 0.62665 0.96574 0.0
C1093 C 0.54453 0.63319 0.95481 0.0
C1094 C 0.52096 0.57698 0.97081 0.0
C1095 C 0.55667 0.56868 0.97618 0.0
N1096 N 0.62064 0.58494 0.97516 0.0
N1097 N 0.48211 0.61618 0.94831 0.0
C1098 C 0.5858 0.59351 0.97345 0.0
C1099 C 0.51517 0.60892 0.95835 0.0
N1100 N 0.60499 0.65201 0.96788 0.0
N1101 N 0.49268 0.55437 0.97782 0.0
H1102 H 0.47674 0.64003 0.94117 0.0
H1103 H 0.46048 0.59862 0.94597 0.0
H1104 H 0.49615 0.53055 0.98615 0.0
H1105 H 0.4657 0.5598 0.9777 0.0
H1106 H 0.62929 0.64971 0.97913 0.0
H1107 H 0.60107 0.67637 0.96147 0.0
H1108 H 0.64307 0.60089 0.96902 0.0
H1109 H 0.62762 0.56091 0.97946 0.0
C1110 C 0.561 0.87889 0.87227 0.0
C1111 C 0.54297 0.85722 0.89638 0.0
C1112 C 0.52499 0.9068 0.93079 0.0
C1113 C 0.54405 0.92824 0.90717 0.0
N1114 N 0.58988 0.93376 0.862 0.0
N1115 N 0.5205 0.85181 0.95459 0.0
C1116 C 0.56526 0.91382 0.88009 0.0
C1117 C 0.52893 0.87156 0.92759 0.0
N1118 N 0.57291 0.86649 0.84124 0.0
N1119 N 0.50158 0.91953 0.95511 0.0
H1120 H 0.52449 0.82629 0.95349 0.0
H1121 H 0.51307 0.86143 0.97873 0.0
H1122 H 0.49692 0.94482 0.95759 0.0
H1123 H 0.48448 0.90444 0.97076 0.0
H1124 H 0.58292 0.88155 0.82152 0.0
H1125 H 0.56958 0.84137 0.8341 0.0
H1126 H 0.60846 0.9245 0.84377 0.0
H1127 H 0.59432 0.95918 0.86812 0.0
C1128 C 0.52444 0.35305 0.61662 0.0
C1129 C 0.50971 0.33988 0.64773 0.0
C1130 C 0.48962 0.39581 0.66394 0.0
C1131 C 0.51228 0.41002 0.63752 0.0
N1132 N 0.55484 0.40113 0.58986 0.0
N1133 N 0.47929 0.35075 0.70257 0.0
C1134 C 0.53038 0.38839 0.61379 0.0
C1135 C 0.49217 0.36179 0.67169 0.0
N1136 N 0.53183 0.33199 0.58948 0.0
N1137 N 0.4656 0.41517 0.68168 0.0
H1138 H 0.48139 0.32642 0.70977 0.0
H1139 H 0.46964 0.36653 0.72217 0.0
H1140 H 0.46264 0.43988 0.67561 0.0
H1141 H 0.44616 0.40572 0.69947 0.0
H1142 H 0.53984 0.34051 0.56544 0.0
H1143 H 0.52641 0.3062 0.59041 0.0
H1144 H 0.57121 0.38611 0.57424 0.0
H1145 H 0.561 0.42663 0.58762 0.0
C1146 C 0.52476 0.09159 0.58317 0.0
C1147 C 0.49627 0.11304 0.59057 0.0
C1148 C 0.45195 0.06889 0.57336 0.0
C1149 C 0.48029 0.04687 0.56674 0.0
N1150 N 0.54395 0.03846 0.55943 0.0
N1151 N 0.43473 0.12574 0.58426 0.0
C1152 C 0.51687 0.05872 0.56962 0.0
C1153 C 0.46059 0.10293 0.58243 0.0
N1154 N 0.55911 0.10238 0.59062 0.0
N1155 N 0.41666 0.0568 0.57414 0.0
H1156 H 0.43994 0.15066 0.59185 0.0
H1157 H 0.40913 0.12082 0.57521 0.0
H1158 H 0.40865 0.03194 0.56891 0.0
H1159 H 0.39515 0.07074 0.58301 0.0
H1160 H 0.58062 0.08701 0.5901 0.0
H1161 H 0.56585 0.127 0.59853 0.0
H1162 H 0.57116 0.04641 0.55754 0.0
H1163 H 0.53903 1.01387 0.5507 0.0
C1164 C 0.91854 0.56315 0.59153 0.0
C1165 C 0.92644 0.53629 0.61143 0.0
C1166 C 0.97055 0.51914 0.56587 0.0
C1167 C 0.95787 0.54273 0.54409 0.0
N1168 N 0.91043 0.57958 0.53486 0.0
N1169 N 0.95661 0.48522 0.61509 0.0
C1170 C 0.92926 0.56265 0.55656 0.0
C1171 C 0.95162 0.51326 0.59799 0.0
N1172 N 0.9008 0.58938 0.60602 0.0
N1173 N 1.00128 0.50332 0.55682 0.0
H1174 H 0.94321 0.48001 0.6384 0.0
H1175 H 0.97174 0.46592 0.60477 0.0
H1176 H 1.01664 0.50772 0.53434 0.0
H1177 H 1.01344 0.48837 0.5732 0.0
H1178 H 0.89709 0.61084 0.59297 0.0
H1179 H 0.8936 0.59125 0.63195 0.0
H1180 H 0.88759 0.5922 0.5428 0.0
H1181 H 0.91435 0.57728 0.50857 0.0
C1182 C 0.15937 0.95733 0.64262 0.0
C1183 C 0.13505 0.96696 0.66989 0.0
C1184 C 0.09009 0.97873 0.63009 0.0
C1185 C 0.1149 0.97039 0.60307 0.0
N1186 N 0.16832 0.944 0.58233 0.0
N1187 N 0.07497 0.97884 0.69079 0.0
C1188 C 0.1479 0.95684 0.60905 0.0
C1189 C 0.09944 0.97486 0.66395 0.0
N1190 N 0.19412 0.95101 0.64854 0.0
N1191 N 0.05847 0.9918 0.62312 0.0
H1192 H 0.08145 0.97587 0.71579 0.0
H1193 H 0.04778 0.98228 0.68828 0.0
H1194 H 0.05095 0.99411 0.59834 0.0
H1195 H 0.04059 1.00173 0.64154 0.0
H1196 H 0.21419 0.94772 0.6294 0.0
H1197 H 0.20381 0.95093 0.67272 0.0
H1198 H 0.1911 0.9308 0.58501 0.0
H1199 H 0.16058 0.94413 0.55739 0.0
C1200 C 0.86588 0.50482 0.87349 0.0
C1201 C 0.89004 0.51881 0.84764 0.0
C1202 C 0.93826 0.52401 0.88802 0.0
C1203 C 0.91457 0.50904 0.91316 0.0
N1204 N 0.85556 0.48803 0.93215 0.0
N1205 N 0.95148 0.53384 0.82826 0.0
C1206 C 0.87818 0.50045 0.9065 0.0
C1207 C 0.92683 0.52668 0.85446 0.0
N1208 N 0.83176 0.49389 0.86575 0.0
N1209 N 0.97201 0.5354 0.89657 0.0
H1210 H 0.94455 0.53418 0.8031 0.0
H1211 H 0.97922 0.5365 0.83083 0.0
H1212 H 0.98067 0.53329 0.92101 0.0
H1213 H 0.98997 0.54941 0.88074 0.0
H1214 H 0.8142 0.47912 0.88117 0.0
H1215 H 0.82128 0.4985 0.84279 0.0
H1216 H 0.82797 0.48277 0.93054 0.0
H1217 H 0.86433 0.48468 0.95629 0.0
C1218 C 0.18432 0.03672 0.92269 0.0
C1219 C 0.16184 0.02453 0.89659 0.0
C1220 C 0.10815 0.02926 0.93617 0.0
C1221 C 0.13074 0.04028 0.96275 0.0
N1222 N 0.19088 0.04964 0.98257 0.0
N1223 N 0.10313 1.00454 0.87922 0.0
C1224 C 0.16899 0.04263 0.95627 0.0
C1225 C 0.12397 0.01928 0.90365 0.0
N1226 N 0.22042 0.0434 0.91516 0.0
N1227 N 0.07154 0.03026 0.9413 0.0
H1228 H 0.1135 0.99826 0.85484 0.0
H1229 H 0.07618 0.99638 0.88368 0.0
H1230 H 0.05897 0.0374 0.9645 0.0
H1231 H 0.05366 0.02643 0.92204 0.0
H1232 H 0.2377 0.05637 0.93156 0.0
H1233 H 0.23301 0.03783 0.89148 0.0
H1234 H 0.21871 0.04772 0.98068 0.0
H1235 H 0.18104 0.05491 1.00729 0.0
C1236 C 0.59541 0.89506 0.49856 0.0
C1237 C 0.61994 0.92341 0.50341 0.0
C1238 C 0.56923 0.95938 0.49822 0.0
C1239 C 0.54424 0.93143 0.50182 0.0
N1240 N 0.53324 0.872 0.50338 0.0
N1241 N 0.62919 0.98344 0.50902 0.0
C1242 C 0.55737 0.89901 0.50083 0.0
C1243 C 0.60674 0.95591 0.50278 0.0
N1244 N 0.6086 0.86439 0.49152 0.0
N1245 N 0.55691 0.98936 0.49087 0.0
H1246 H 0.65642 0.98207 0.5133 0.0
H1247 H 0.62015 1.00742 0.5126 0.0
H1248 H 0.52964 0.99214 0.48753 0.0
H1249 H 0.5739 1.01027 0.4851 0.0
H1250 H 0.59247 0.84316 0.48518 0.0
H1251 H 0.63621 0.86088 0.48873 0.0
H1252 H 0.54057 0.84792 0.50735 0.0
H1253 H 0.50546 0.87424 0.50273 0.0
C1254 C 0.65702 0.16519 0.98235 0.0
C1255 C 0.6859 0.14481 0.98646 0.0
C1256 C 0.64388 0.09485 0.98274 0.0
C1257 C 0.61572 0.11494 0.9742 0.0
N1258 N 0.59965 0.17035 0.95905 0.0
N1259 N 0.70845 0.08998 0.98592 0.0
C1260 C 0.62339 0.15041 0.97222 0.0
C1261 C 0.67983 0.10953 0.98505 0.0
N1262 N 0.6614 0.19894 0.98868 0.0
N1263 N 0.63611 0.06235 0.99098 0.0
H1264 H 0.73482 0.09994 0.98846 0.0
H1265 H 0.70642 0.06421 0.98137 0.0
H1266 H 0.61001 0.0512 0.99219 0.0
H1267 H 0.65489 0.04755 1.00047 0.0
H1268 H 0.63996 0.21452 0.99064 0.0
H1269 H 0.68584 0.21108 0.99502 0.0
H1270 H 0.60632 0.19515 0.9532 0.0
H1271 H 0.57484 0.16212 0.9502 0.0
C1272 C 0.43865 0.41352 0.04735 0.0
C1273 C 0.41558 0.44037 0.04698 0.0
C1274 C 0.46906 0.47982 0.04575 0.0
C1275 C 0.49153 0.45271 0.03967 0.0
N1276 N 0.4983 0.39357 0.03433 0.0
N1277 N 0.40855 0.49955 0.04622 0.0
C1278 C 0.47648 0.41949 0.04079 0.0
C1279 C 0.43074 0.47375 0.04665 0.0
N1280 N 0.42447 0.38237 0.05473 0.0
N1281 N 0.4845 0.51131 0.05063 0.0
H1282 H 0.38047 0.49601 0.048 0.0
H1283 H 0.41781 0.52415 0.04209 0.0
H1284 H 0.51241 0.51624 0.05015 0.0
H1285 H 0.46995 0.53196 0.05793 0.0
H1286 H 0.44001 0.36258 0.05942 0.0
H1287 H 0.39698 0.37735 0.05932 0.0
H1288 H 0.48855 0.36891 0.0303 0.0
H1289 H 0.52637 0.39709 0.03146 0.0
C1290 C 0.96001 0.16214 0.02812 0.0
C1291 C 0.93012 0.14038 0.01938 0.0
C1292 C 0.97011 0.09343 1.0129 0.0
C1293 C 0.99967 0.11429 0.02475 0.0
N1294 N 0.02357 0.17146 0.03692 0.0
N1295 N 0.90536 0.08467 1.0074 0.0
C1296 C 0.99491 0.14946 0.03042 0.0
C1297 C 0.93489 0.1059 1.01273 0.0
N1298 N 0.95454 0.19503 0.03607 0.0
N1299 N 0.97624 0.06237 0.99913 0.0
H1300 H 0.87941 0.09289 1.00643 0.0
H1301 H 0.90602 0.05876 1.00671 0.0
H1302 H 1.00191 0.05332 0.99587 0.0
H1303 H 0.95685 0.04716 0.98701 0.0
H1304 H 0.97283 0.21135 0.04831 0.0
H1305 H 0.9305 0.20594 0.03223 0.0
H1306 H 0.02341 0.19706 0.03382 0.0
H1307 H 0.04835 0.16521 0.04453 0.0
C1308 C 0.06709 0.12449 0.20889 0.0
C1309 C 0.05954 0.15877 0.20938 0.0
C1310 C 0.05109 0.15382 0.14828 0.0
C1311 C 0.065 0.12161 0.14665 0.0
N1312 N 0.08845 0.07667 0.17619 0.0
N1313 N 0.04668 0.20706 0.17905 0.0
C1314 C 0.0732 0.1068 0.17721 0.0
C1315 C 0.05217 0.17372 0.1789 0.0
N1316 N 0.06782 0.10862 0.23875 0.0
N1317 N 0.0349 0.16459 0.12099 0.0
H1318 H 0.04646 0.22227 0.20111 0.0
H1319 H 0.0451 0.22008 0.15697 0.0
H1320 H 0.03073 0.14914 0.09958 0.0
H1321 H 0.02161 0.18667 0.1213 0.0
H1322 H 0.06907 0.08288 0.24016 0.0
H1323 H 0.06378 0.12074 0.26234 0.0
H1324 H 0.09919 0.06692 0.19714 0.0
H1325 H 0.09349 0.0625 0.15399 0.0
C1326 C 1.01885 0.37016 0.23924 0.0
C1327 C 0.04282 0.34642 0.22501 0.0
C1328 C 0.05899 0.38261 0.17753 0.0
C1329 C 0.03145 0.40358 0.18936 0.0
N1330 N 0.97989 0.41359 0.22743 0.0
N1331 N 0.08072 0.32715 0.17718 0.0
C1332 C 1.01001 0.39651 0.21924 0.0
C1333 C 0.06179 0.35188 0.19324 0.0
N1334 N 1.00492 0.36795 0.27195 0.0
N1335 N 0.08257 0.39237 0.15144 0.0
H1336 H 0.08208 0.30362 0.18709 0.0
H1337 H 0.09209 0.32884 0.15251 0.0
H1338 H 0.08131 0.41517 0.13992 0.0
H1339 H 0.10524 0.37949 0.14357 0.0
H1340 H 0.99017 0.38651 0.28431 0.0
H1341 H 1.01086 0.34927 0.28788 0.0
H1342 H 0.96114 0.40696 0.24706 0.0
H1343 H 0.97159 0.43218 0.21255 0.0
C1344 C 0.02715 0.79633 0.31234 0.0
C1345 C 1.02023 0.80089 0.27794 0.0
C1346 C 0.02123 0.86127 0.28898 0.0
C1347 C 0.0239 0.85646 0.32377 0.0
N1348 N 0.02236 0.81908 0.3701 0.0
N1349 N 0.9988 0.83772 0.23712 0.0
C1350 C 0.02505 0.82386 0.336 0.0
C1351 C 1.0139 0.83333 0.26712 0.0
N1352 N 0.03579 0.76584 0.32235 0.0
N1353 N 0.02601 0.89269 0.27681 0.0
H1354 H 0.98828 0.81816 0.22209 0.0
H1355 H 0.99159 0.86088 0.22969 0.0
H1356 H 0.03204 0.91367 0.29241 0.0
H1357 H 0.02785 0.89732 0.25097 0.0
H1358 H 0.04483 0.76193 0.34623 0.0
H1359 H 0.03632 0.74493 0.30587 0.0
H1360 H 1.01956 0.79554 0.38045 0.0
H1361 H 1.01951 0.83861 0.38806 0.0
C1362 C 1.01786 0.58482 0.28902 0.0
C1363 C 0.02501 0.61985 0.28707 0.0
C1364 C 0.03481 0.62359 0.34786 0.0
C1365 C 0.02294 0.58919 0.35125 0.0
N1366 N 0.99634 0.53886 0.3243 0.0
N1367 N 0.03232 0.67351 0.31629 0.0
C1368 C 1.01298 0.57007 0.32156 0.0
C1369 C 0.03131 0.63941 0.31693 0.0
N1370 N 1.01575 0.56562 0.2598 0.0
N1371 N 0.05006 0.64151 0.37403 0.0
H1372 H 0.02956 0.68642 0.29432 0.0
H1373 H 0.03214 0.68892 0.33817 0.0
H1374 H 0.05284 0.63201 0.39765 0.0
H1375 H 0.0632 0.66506 0.37128 0.0
H1376 H 1.01438 0.5396 0.25932 0.0
H1377 H 1.01842 0.57581 0.23582 0.0
H1378 H 0.98499 0.52558 0.30397 0.0
H1379 H 0.99052 0.52736 0.34726 0.0
C1380 C 0.2373 0.02646 0.11006 0.0
C1381 C 0.23594 0.03623 0.14514 0.0
C1382 C 0.18305 0.06778 0.13607 0.0
C1383 C 0.18102 0.05371 0.10259 0.0
N1384 N 0.20257 1.01319 0.06072 0.0
N1385 N 0.20124 0.05981 0.19282 0.0
C1386 C 0.20699 0.03098 0.09048 0.0
C1387 C 0.20682 0.0549 0.15854 0.0
N1388 N 0.26785 1.01393 0.09506 0.0
N1389 N 0.16307 0.09405 0.14642 0.0
H1390 H 0.2173 0.04988 0.21018 0.0
H1391 H 0.17849 0.07074 0.20391 0.0
H1392 H 0.14592 0.10475 0.13069 0.0
H1393 H 0.16622 0.10712 0.1695 0.0
H1394 H 0.27131 1.00922 0.06896 0.0
H1395 H 0.29093 1.01135 0.10824 0.0
H1396 H 0.21928 0.99435 0.05216 0.0
H1397 H 0.18001 1.01484 0.0466 0.0
C1398 C 0.86357 0.4795 0.17663 0.0
C1399 C 0.83731 0.50358 0.1772 0.0
C1400 C 0.8605 0.51783 0.11881 0.0
C1401 C 0.88309 0.49047 0.11747 0.0
N1402 N 0.89293 0.43772 0.14193 0.0
N1403 N 0.80614 0.54127 0.14445 0.0
C1404 C 0.88012 0.46885 0.1453 0.0
C1405 C 0.83434 0.5216 0.14699 0.0
N1406 N 0.87417 0.4676 0.20612 0.0
N1407 N 0.86454 0.54077 0.09414 0.0
H1408 H 0.78602 0.54396 0.16369 0.0
H1409 H 0.80096 0.55233 0.12198 0.0
H1410 H 0.88281 0.53852 0.07324 0.0
H1411 H 0.85149 0.56303 0.09578 0.0
H1412 H 0.89523 0.4517 0.20661 0.0
H1413 H 0.86518 0.47689 0.22998 0.0
H1414 H 0.88929 0.42052 0.16113 0.0
H1415 H 0.90287 0.42787 0.11869 0.0
C1416 C 0.21602 0.97611 0.37254 0.0
C1417 C 0.20826 0.99831 0.34704 0.0
C1418 C 0.14958 1.00691 0.37674 0.0
C1419 C 0.1549 0.9807 0.39858 0.0
N1420 N 0.19247 0.93914 0.41696 0.0
N1421 N 0.16537 0.03174 0.32266 0.0
C1422 C 0.18815 0.96524 0.39673 0.0
C1423 C 0.17458 1.01324 0.34876 0.0
N1424 N 0.25016 0.96567 0.37379 0.0
N1425 N 0.12069 0.02605 0.3831 0.0
H1426 H 0.18236 0.0364 0.30121 0.0
H1427 H 0.1396 0.04001 0.32083 0.0
H1428 H 0.10257 0.02251 0.40397 0.0
H1429 H 0.11703 0.04752 0.37009 0.0
H1430 H 0.25854 0.95245 0.39372 0.0
H1431 H 0.27106 0.97258 0.35623 0.0
H1432 H 0.21422 0.92399 0.41394 0.0
H1433 H 0.17309 0.93138 0.43568 0.0
C1434 C 0.83441 0.52344 0.41491 0.0
C1435 C 0.83428 0.527 0.37931 0.0
C1436 C 0.89577 0.55257 0.3786 0.0
C1437 C 0.89734 0.54599 0.41348 0.0
N1438 N 0.87032 0.52079 0.46397 0.0
N1439 N 0.8669 0.53868 0.3261 0.0
C1440 C 0.86726 0.5301 0.43144 0.0
C1441 C 0.86569 0.53959 0.36079 0.0
N1442 N 0.80298 0.51463 0.43299 0.0
N1443 N 0.92251 0.57217 0.36273 0.0
H1444 H 0.84531 0.5292 0.31217 0.0
H1445 H 0.89036 0.54434 0.31114 0.0
H1446 H 0.94411 0.58331 0.37543 0.0
H1447 H 0.9213 0.58033 0.33816 0.0
H1448 H 0.80052 0.51509 0.4594 0.0
H1449 H 0.7786 0.50909 0.42161 0.0
H1450 H 0.85061 0.50602 0.47719 0.0
H1451 H 0.89379 0.52588 0.47695 0.0
C1452 C 0.2317 0.2604 0.03549 0.0
C1453 C 0.21152 0.28839 0.04511 0.0
C1454 C 0.15563 0.25272 0.04882 0.0
C1455 C 0.17606 0.22479 0.04012 0.0
N1456 N 0.23284 0.20004 0.03004 0.0
N1457 N 0.15534 0.31204 0.06371 0.0
C1458 C 0.21398 0.22809 0.03505 0.0
C1459 C 0.1737 0.28479 0.05275 0.0
N1460 N 0.26747 0.26493 0.02556 0.0
N1461 N 0.11884 0.24836 0.0521 0.0
H1462 H 0.16758 0.33613 0.06537 0.0
H1463 H 0.12844 0.31083 0.07271 0.0
H1464 H 0.10529 0.22481 0.0505 0.0
H1465 H 0.10161 0.2678 0.05505 0.0
H1466 H 0.28247 0.24623 1.01387 0.0
H1467 H 0.28178 0.28809 0.02689 0.0
H1468 H 0.26087 0.20018 0.02946 0.0
H1469 H 0.22015 0.1761 0.02904 0.0
C1470 C 0.14485 0.81291 0.44443 0.0
C1471 C 0.14746 0.80115 0.47762 0.0
C1472 C 0.10255 0.84157 0.49788 0.0
C1473 C 0.10811 0.85866 0.46684 0.0
N1474 N 0.13848 0.86068 0.41083 0.0
N1475 N 0.10653 0.78933 0.52569 0.0
C1476 C 0.13016 0.84426 0.44013 0.0
C1477 C 0.1201 0.81131 0.502 0.0
N1478 N 0.1496 0.79176 0.41691 0.0
N1479 N 0.08028 0.85386 0.52351 0.0
H1480 H 0.11411 0.76471 0.52511 0.0
H1481 H 0.08434 0.79358 0.54231 0.0
H1482 H 0.06397 0.87359 0.52065 0.0
H1483 H 0.07918 0.84521 0.54808 0.0
H1484 H 0.1452 0.79841 0.39231 0.0
H1485 H 0.15135 0.76616 0.41962 0.0
H1486 H 0.15693 0.85193 0.39212 0.0
H1487 H 0.13001 0.88433 0.40666 0.0
C1488 C 0.91354 0.7521 0.52447 0.0
C1489 C 0.89143 0.76281 0.49935 0.0
C1490 C 0.91913 0.72248 0.45863 0.0
C1491 C 0.93449 0.7074 0.48554 0.0
N1492 N 0.94591 0.70705 0.54464 0.0
N1493 N 0.89746 0.7733 0.43939 0.0
C1494 C 0.93127 0.72185 0.51871 0.0
C1495 C 0.9008 0.75227 0.46517 0.0
N1496 N 0.92421 0.77388 0.54981 0.0
N1497 N 0.92217 0.70834 0.42667 0.0
H1498 H 0.88963 0.79764 0.44383 0.0
H1499 H 0.90711 0.76845 0.41449 0.0
H1500 H 0.93626 0.68698 0.42099 0.0
H1501 H 0.90829 0.71627 0.40662 0.0
H1502 H 0.94226 0.76811 0.56757 0.0
H1503 H 0.9208 0.7994 0.54868 0.0
H1504 H 0.94168 0.71506 0.56993 0.0
H1505 H 0.95964 0.6852 0.5409 0.0
C1506 C 0.34338 0.82852 0.54074 0.0
C1507 C 0.35845 0.797 0.53856 0.0
C1508 C 0.41858 0.82445 0.54792 0.0
C1509 C 0.40288 0.8558 0.55185 0.0
N1510 N 0.34869 0.88538 0.56269 0.0
N1511 N 0.40906 0.7638 0.54517 0.0
C1512 C 0.36478 0.85712 0.55131 0.0
C1513 C 0.39573 0.7946 0.54375 0.0
N1514 N 0.30868 0.83136 0.53207 0.0
N1515 N 0.45525 0.82331 0.54701 0.0
H1516 H 0.39321 0.74169 0.54145 0.0
H1517 H 0.43497 0.76008 0.55225 0.0
H1518 H 0.47241 0.84447 0.55113 0.0
H1519 H 0.46874 0.80184 0.54044 0.0
H1520 H 0.29768 0.85428 0.52949 0.0
H1521 H 0.29185 0.81098 0.52443 0.0
H1522 H 0.32083 0.88691 0.56597 0.0
H1523 H 0.36324 0.90589 0.57296 0.0
C1524 C 0.51643 0.66889 0.71789 0.0
C1525 C 0.53163 0.66008 0.74809 0.0
C1526 C 0.54839 0.60683 0.72028 0.0
C1527 C 0.53257 0.6155 0.69023 0.0
N1528 N 0.48896 0.64793 0.66659 0.0
N1529 N 0.55111 0.61598 0.78108 0.0
C1530 C 0.51288 0.64462 0.69084 0.0
C1531 C 0.54402 0.62747 0.75028 0.0
N1532 N 0.50591 0.70052 0.71468 0.0
N1533 N 0.5691 0.57994 0.72 0.0
H1534 H 0.54773 0.63016 0.80355 0.0
H1535 H 0.55678 0.59134 0.78471 0.0
H1536 H 0.57367 0.56453 0.69859 0.0
H1537 H 0.58458 0.57482 0.74005 0.0
H1538 H 0.49795 0.70907 0.69189 0.0
H1539 H 0.50787 0.71896 0.73398 0.0
H1540 H 0.47191 0.66754 0.66674 0.0
H1541 H 0.48275 0.62828 0.64943 0.0
C1542 C 0.53134 0.83303 0.69948 0.0
C1543 C 0.52588 0.84261 0.73429 0.0
C1544 C 0.50869 0.89766 0.71912 0.0
C1545 C 0.51665 0.88887 0.68466 0.0
N1546 N 0.54024 0.85101 0.64151 0.0
N1547 N 0.51401 0.885 0.77796 0.0
C1548 C 0.52935 0.8573 0.67467 0.0
C1549 C 0.51584 0.87525 0.74436 0.0
N1550 N 0.53701 0.80051 0.69016 0.0
N1551 N 0.49334 0.92714 0.72739 0.0
H1552 H 0.51844 0.86906 0.79726 0.0
H1553 H 0.51066 0.90948 0.7867 0.0
H1554 H 0.48819 0.94405 0.70917 0.0
H1555 H 0.48331 0.93375 0.75174 0.0
H1556 H 0.53741 0.79127 0.66515 0.0
H1557 H 0.5386 0.78197 0.70766 0.0
H1558 H 0.55331 0.82982 0.63299 0.0
H1559 H 0.53864 0.86835 0.62278 0.0
C1560 C 0.53564 0.37585 0.79738 0.0
C1561 C 0.52748 0.34274 0.80812 0.0
C1562 C 0.52074 0.36279 0.86716 0.0
C1563 C 0.53117 0.39542 0.85664 0.0
N1564 N 0.55332 0.43325 0.81366 0.0
N1565 N 0.51828 0.30347 0.85297 0.0
C1566 C 0.53997 0.40203 0.82222 0.0
C1567 C 0.52172 0.33581 0.843 0.0
N1568 N 0.53821 0.38229 0.76357 0.0
N1569 N 0.50888 0.35797 0.90012 0.0
H1570 H 0.5189 0.28299 0.83587 0.0
H1571 H 0.51774 0.29682 0.8782 0.0
H1572 H 0.50789 0.37744 0.91838 0.0
H1573 H 0.49737 0.33533 0.90879 0.0
H1574 H 0.54008 0.40626 0.75425 0.0
H1575 H 0.53608 0.36361 0.74456 0.0
H1576 H 0.56379 0.43914 0.78945 0.0
H1577 H 0.55635 0.45289 0.8316 0.0
C1578 C 0.54068 0.17924 0.82851 0.0
C1579 C 0.52209 0.16374 0.80115 0.0
C1580 C 0.50586 0.11503 0.83585 0.0
C1581 C 0.52696 0.12934 0.86222 0.0
N1582 N 0.57415 0.16983 0.87752 0.0
N1583 N 0.49743 0.11228 0.77552 0.0
C1584 C 0.54709 0.16009 0.85687 0.0
C1585 C 0.50802 0.13013 0.80375 0.0
N1586 N 0.55201 0.21226 0.82767 0.0
N1587 N 0.48221 0.08816 0.84169 0.0
H1588 H 0.49962 0.12213 0.75141 0.0
H1589 H 0.49 0.0868 0.77565 0.0
H1590 H 0.47833 0.07719 0.86514 0.0
H1591 H 0.46375 0.07906 0.82419 0.0
H1592 H 0.56271 0.22544 0.84841 0.0
H1593 H 0.54784 0.22709 0.80736 0.0
H1594 H 0.59147 0.19097 0.87365 0.0
H1595 H 0.58241 0.15379 0.89517 0.0
C1596 C 0.68621 0.56303 0.69498 0.0
C1597 C 0.71338 0.54236 0.681 0.0
C1598 C 0.67709 0.52968 0.63168 0.0
C1599 C 0.65285 0.55412 0.64323 0.0
N1600 N 0.63966 0.59959 0.68315 0.0
N1601 N 0.73904 0.51495 0.63028 0.0
C1602 C 0.65911 0.57263 0.67398 0.0
C1603 C 0.71019 0.5283 0.6476 0.0
N1604 N 0.68583 0.57306 0.72845 0.0
N1605 N 0.66859 0.50731 0.60603 0.0
H1606 H 0.76437 0.51508 0.64017 0.0
H1607 H 0.73862 0.50709 0.60482 0.0
H1608 H 0.64395 0.50634 0.59469 0.0
H1609 H 0.68446 0.48746 0.59874 0.0
H1610 H 0.66471 0.58559 0.74061 0.0
H1611 H 0.70479 0.56598 0.74476 0.0
H1612 H 0.64569 0.61573 0.70365 0.0
H1613 H 0.6194 0.60741 0.66879 0.0
C1614 C 0.34914 0.96852 0.68534 0.0
C1615 C 0.31636 0.98344 0.68104 0.0
C1616 C 0.33433 0.98644 0.61964 0.0
C1617 C 0.36481 0.9673 0.62386 0.0
N1618 N 0.38725 0.92707 0.66044 0.0
N1619 N 0.27391 0.99902 0.64152 0.0
C1620 C 0.36815 0.95448 0.65665 0.0
C1621 C 0.30771 0.99007 0.64736 0.0
N1622 N 0.36218 0.9672 0.71677 0.0
N1623 N 0.33081 1.00216 0.59016 0.0
H1624 H 0.25379 1.00137 0.66088 0.0
H1625 H 0.26504 1.00098 0.6172 0.0
H1626 H 0.34898 1.00077 0.56923 0.0
H1627 H 0.3111 0.01906 0.58762 0.0
H1628 H 0.3873 0.95813 0.72037 0.0
H1629 H 0.3497 0.97822 0.73839 0.0
H1630 H 0.38858 0.91617 0.68383 0.0
H1631 H 0.39663 0.91238 0.6398 0.0
C1632 C 0.68291 0.532 0.87038 0.0
C1633 C 0.7201 0.52879 0.87385 0.0
C1634 C 0.70709 0.50652 0.93052 0.0
C1635 C 0.66968 0.50966 0.92711 0.0
N1636 N 0.62444 0.53747 0.89919 0.0
N1637 N 0.76804 0.52513 0.91137 0.0
C1638 C 0.65834 0.52619 0.89868 0.0
C1639 C 0.73237 0.51997 0.90534 0.0
N1640 N 0.67082 0.53966 0.83982 0.0
N1641 N 0.71855 0.48912 0.9564 0.0
H1642 H 0.78652 0.53649 0.89383 0.0
H1643 H 0.77815 0.52195 0.93497 0.0
H1644 H 0.70101 0.47817 0.97491 0.0
H1645 H 0.7453 0.48323 0.95781 0.0
H1646 H 0.64356 0.53821 0.83477 0.0
H1647 H 0.68812 0.54547 0.81882 0.0
H1648 H 0.61592 0.55229 0.88055 0.0
H1649 H 0.60636 0.53553 0.92024 0.0
C1650 C 0.35711 0.08019 0.90008 0.0
C1651 C 0.3451 0.04626 0.89588 0.0
C1652 C 0.39445 0.03098 0.92906 0.0
C1653 C 0.41189 0.06333 0.92388 0.0
N1654 N 0.40926 0.1185 0.90112 0.0
N1655 N 0.33689 0.9991 0.93141 0.0
C1656 C 0.39285 0.08816 0.90909 0.0
C1657 C 0.35921 0.02383 0.9175 0.0
N1658 N 0.33327 0.10452 0.89936 0.0
N1659 N 0.41111 1.00692 0.94464 0.0
H1660 H 0.30924 0.99745 0.92768 0.0
H1661 H 0.34444 0.98379 0.95009 0.0
H1662 H 0.43547 1.01109 0.95622 0.0
H1663 H 0.40112 0.98206 0.94475 0.0
H1664 H 0.34024 0.12958 0.90524 0.0
H1665 H 0.30572 0.09859 0.8971 0.0
H1666 H 0.39648 0.13584 0.88784 0.0
H1667 H 0.43651 0.1249 0.90407 0.0
C1668 C 0.65056 0.76722 0.55654 0.0
C1669 C 0.68724 0.76332 0.54589 0.0
C1670 C 0.67756 0.70264 0.54676 0.0
C1671 C 0.64131 0.70661 0.5584 0.0
N1672 N 0.59428 0.74109 0.57997 0.0
N1673 N 0.73767 0.72865 0.53605 0.0
C1674 C 0.62819 0.73855 0.56513 0.0
C1675 C 0.70143 0.73137 0.54269 0.0
N1676 N 0.63701 0.79815 0.5574 0.0
N1677 N 0.68846 0.67142 0.53811 0.0
H1678 H 0.75578 0.74927 0.53204 0.0
H1679 H 0.75023 0.70628 0.53679 0.0
H1680 H 0.67155 0.64989 0.54132 0.0
H1681 H 0.71335 0.6669 0.52589 0.0
H1682 H 0.60971 0.80222 0.56154 0.0
H1683 H 0.6528 0.81986 0.55177 0.0
H1684 H 0.58385 0.76357 0.58847 0.0
H1685 H 0.57754 0.72011 0.5863 0.0
C1686 C 0.6618 0.33865 0.96645 0.0
C1687 C 0.66695 0.32471 0.99822 0.0
C1688 C 0.62578 0.3656 0.02485 0.0
C1689 C 0.62869 0.38422 0.99472 0.0
N1690 N 0.65325 0.38855 0.93675 0.0
N1691 N 0.62854 0.3108 0.04742 0.0
C1692 C 0.64743 0.37061 0.96541 0.0
C1693 C 0.64211 0.33421 0.02523 0.0
N1694 N 0.66495 0.31929 0.93739 0.0
N1695 N 0.6069 0.37734 0.05308 0.0
H1696 H 0.63319 0.28557 0.04315 0.0
H1697 H 0.60815 0.31508 0.06604 0.0
H1698 H 0.59177 0.39831 0.05324 0.0
H1699 H 0.60779 0.36696 0.07675 0.0
H1700 H 0.65832 0.32725 0.91388 0.0
H1701 H 0.66877 0.29378 0.93797 0.0
H1702 H 0.66958 0.3805 0.91601 0.0
H1703 H 0.64504 0.41271 0.93494 0.0
C1704 C 0.428 0.27949 1.00499 0.0
C1705 C 0.39448 0.27375 0.02391 0.0
C1706 C 0.40687 0.21484 0.02859 0.0
C1707 C 0.43907 0.22034 1.00815 0.0
N1708 N 0.47826 0.25543 0.97258 0.0
N1709 N 0.34917 0.23485 0.04903 0.0
C1710 C 0.4489 0.25198 0.99495 0.0
C1711 C 0.3831 0.24108 0.03448 0.0
N1712 N 0.44056 0.31136 0.9979 0.0
N1713 N 0.39968 0.18465 0.04312 0.0
H1714 H 0.33107 0.25336 0.0543 0.0
H1715 H 0.33786 0.21095 0.05365 0.0
H1716 H 0.41604 0.16466 0.0382 0.0
H1717 H 0.37896 0.18003 0.06157 0.0
H1718 H 0.46633 0.31748 0.9873 0.0
H1719 H 0.42635 0.33227 1.00506 0.0
H1720 H 0.48508 0.2769 0.95909 0.0
H1721 H 0.49423 0.23559 0.96542 0.0
C1722 C 0.91555 0.31694 0.0458 0.0
C1723 C 0.87935 0.31919 0.03686 0.0
C1724 C 0.88489 0.37983 0.04697 0.0
C1725 C 0.92225 0.37821 0.05245 0.0
N1726 N 0.97424 0.34555 0.05389 0.0
N1727 N 0.83057 0.35276 0.02491 0.0
C1728 C 0.93787 0.34678 0.05129 0.0
C1729 C 0.86437 0.35066 0.03626 0.0
N1730 N 0.92836 0.28621 0.04944 0.0
N1731 N 0.86846 0.40908 0.05357 0.0
H1732 H 0.81397 0.33191 0.01814 0.0
H1733 H 0.81996 0.37525 0.01968 0.0
H1734 H 0.88212 0.43085 0.06225 0.0
H1735 H 0.84066 0.41102 0.05387 0.0
H1736 H 0.95305 0.28264 0.05939 0.0
H1737 H 0.91306 0.26402 0.0446 0.0
H1738 H 0.98802 0.32389 0.04945 0.0
H1739 H 0.99125 0.36675 0.05832 0.0
loop_
_geom_bond_atom_site_label_1
_geom_bond_atom_site_label_2
_geom_bond_distance
_geom_bond_site_symmetry_2
_ccdc_geom_bond_type
C0 C1 1.443 . S
C0 N4 1.376 . S
C0 C38 1.389 1_655 S
C1 C0 1.443 . S
C1 C2 1.340 . S
C1 H41 0.951 . S
C2 C1 1.340 . S
C2 C3 1.439 . S
C2 H42 0.950 . S
C3 C2 1.439 . S
C3 N4 1.374 . S
C3 C37 1.395 . S
N4 C0 1.376 . S
N4 C3 1.374 . S
N4 Co5 2.008 1_655 S
Co5 N4 2.008 1_455 S
Co5 N6 1.995 . S
Co5 N11 2.008 . S
Co5 N16 1.995 . S
Co5 N21 2.282 . S
Co5 N27 2.282 . S
N6 Co5 1.995 . S
N6 C7 1.376 1_455 S
N6 C10 1.383 . S
C7 N6 1.376 1_655 S
C7 C8 1.446 . S
C7 C37 1.391 . S
C8 C7 1.446 . S
C8 C9 1.339 . S
C8 H43 0.949 . S
C9 C8 1.339 . S
C9 C10 1.439 1_655 S
C9 H44 0.950 . S
C10 N6 1.383 . S
C10 C9 1.439 1_455 S
C10 C39 1.392 . S
N11 Co5 2.008 . S
N11 C12 1.376 . S
N11 C15 1.374 . S
C12 N11 1.376 . S
C12 C13 1.443 . S
C12 C39 1.389 . S
C13 C12 1.443 . S
C13 C14 1.340 . S
C13 H45 0.951 . S
C14 C13 1.340 . S
C14 C15 1.439 . S
C14 H46 0.950 . S
C15 N11 1.374 . S
C15 C14 1.439 . S
C15 C40 1.395 . S
N16 Co5 1.995 . S
N16 C17 1.376 . S
N16 C20 1.383 . S
C17 N16 1.376 . S
C17 C18 1.446 . S
C17 C40 1.391 . S
C18 C17 1.446 . S
C18 C19 1.339 . S
C18 H47 0.949 . S
C19 C18 1.339 . S
C19 C20 1.439 . S
C19 H48 0.950 . S
C20 N16 1.383 . S
C20 C19 1.439 . S
C20 C38 1.392 . S
N21 Co5 2.282 . S
N21 C24 1.332 . S
N21 C26 1.332 . S
C22 C23 1.386 . S
C22 C25 1.388 . S
C23 C22 1.386 . S
C23 C24 1.382 . S
C23 H49 0.950 . S
C24 N21 1.332 . S
C24 C23 1.382 . S
C24 H35 0.952 . S
C25 C22 1.388 . S
C25 C26 1.382 . S
C25 H50 0.950 . S
C26 N21 1.332 . S
C26 C25 1.382 . S
C26 H36 0.948 1_455 S
N27 Co5 2.282 . S
N27 C31 1.332 1_455 S
N27 C32 1.332 . S
C28 C29 1.388 . S
C28 C32 1.382 . S
C28 H51 0.950 . S
C29 C28 1.388 . S
C29 C30 1.386 1_455 S
C30 C29 1.386 1_655 S
C30 C31 1.382 . S
C30 H52 0.950 . S
C31 N27 1.332 1_655 S
C31 C30 1.382 . S
C31 H33 0.952 . S
C32 N27 1.332 . S
C32 C28 1.382 . S
C32 H34 0.948 . S
H33 C31 0.952 . S
H34 C32 0.948 . S
H35 C24 0.952 . S
H36 C26 0.948 1_655 S
C37 C3 1.395 . S
C37 C7 1.391 . S
C38 C0 1.389 1_455 S
C38 C20 1.392 . S
C39 C10 1.392 . S
C39 C12 1.389 . S
C40 C15 1.395 . S
C40 C17 1.391 . S
H41 C1 0.951 . S
H42 C2 0.950 . S
H43 C8 0.949 . S
H44 C9 0.950 . S
H45 C13 0.951 . S
H46 C14 0.950 . S
H47 C18 0.949 . S
H48 C19 0.950 . S
H49 C23 0.950 . S
H50 C25 0.950 . S
H51 C28 0.950 . S
H52 C30 0.950 . S
C53 C54 1.443 . S
C53 N57 1.376 . S
C53 C91 1.389 . S
C54 C53 1.443 . S
C54 C55 1.340 . S
C54 H94 0.951 . S
C55 C54 1.340 . S
C55 C56 1.439 . S
C55 H95 0.950 . S
C56 C55 1.439 . S
C56 N57 1.374 . S
C56 C90 1.395 . S
N57 C53 1.376 . S
N57 C56 1.374 . S
N57 Co58 2.008 1_655 S
Co58 N57 2.008 1_455 S
Co58 N59 1.995 1_455 S
Co58 N64 2.008 . S
Co58 N69 1.995 . S
Co58 N74 2.282 . S
Co58 N80 2.282 . S
N59 Co58 1.995 1_655 S
N59 C60 1.376 . S
N59 C63 1.383 . S
C60 N59 1.376 . S
C60 C61 1.446 . S
C60 C90 1.391 . S
C61 C60 1.446 . S
C61 C62 1.339 . S
C61 H96 0.949 . S
C62 C61 1.339 . S
C62 C63 1.439 . S
C62 H97 0.950 . S
C63 N59 1.383 . S
C63 C62 1.439 . S
C63 C92 1.392 1_655 S
N64 Co58 2.008 . S
N64 C65 1.376 . S
N64 C68 1.374 . S
C65 N64 1.376 . S
C65 C66 1.443 . S
C65 C92 1.389 . S
C66 C65 1.443 . S
C66 C67 1.340 . S
C66 H98 0.951 . S
C67 C66 1.340 . S
C67 C68 1.439 . S
C67 H99 0.950 . S
C68 N64 1.374 . S
C68 C67 1.439 . S
C68 C93 1.395 . S
N69 Co58 1.995 . S
N69 C70 1.376 . S
N69 C73 1.383 . S
C70 N69 1.376 . S
C70 C71 1.446 . S
C70 C93 1.391 . S
C71 C70 1.446 . S
C71 C72 1.339 . S
C71 H100 0.949 . S
C72 C71 1.339 . S
C72 C73 1.439 . S
C72 H101 0.950 . S
C73 N69 1.383 . S
C73 C72 1.439 . S
C73 C91 1.392 1_455 S
N74 Co58 2.282 . S
N74 C77 1.332 . S
N74 C79 1.332 1_455 S
C75 C76 1.386 . S
C75 C78 1.388 1_455 S
C76 C75 1.386 . S
C76 C77 1.382 . S
C76 H102 0.950 . S
C77 N74 1.332 . S
C77 C76 1.382 . S
C77 H88 0.952 . S
C78 C75 1.388 1_655 S
C78 C79 1.382 . S
C78 H103 0.950 . S
C79 N74 1.332 1_655 S
C79 C78 1.382 . S
C79 H89 0.948 . S
N80 Co58 2.282 . S
N80 C84 1.332 1_455 S
N80 C85 1.332 . S
C81 C82 1.388 1_455 S
C81 C85 1.382 . S
C81 H104 0.950 . S
C82 C81 1.388 1_655 S
C82 C83 1.386 . S
C83 C82 1.386 . S
C83 C84 1.382 . S
C83 H105 0.950 . S
C84 N80 1.332 1_655 S
C84 C83 1.382 . S
C84 H86 0.952 . S
C85 N80 1.332 . S
C85 C81 1.382 . S
C85 H87 0.948 . S
H86 C84 0.952 . S
H87 C85 0.948 . S
H88 C77 0.952 . S
H89 C79 0.948 . S
C90 C56 1.395 . S
C90 C60 1.391 . S
C91 C53 1.389 . S
C91 C73 1.392 1_655 S
C92 C63 1.392 1_455 S
C92 C65 1.389 . S
C93 C68 1.395 . S
C93 C70 1.391 . S
H94 C54 0.951 . S
H95 C55 0.950 . S
H96 C61 0.949 . S
H97 C62 0.950 . S
H98 C66 0.951 . S
H99 C67 0.950 . S
H100 C71 0.949 . S
H101 C72 0.950 . S
H102 C76 0.950 . S
H103 C78 0.950 . S
H104 C81 0.950 . S
H105 C83 0.950 . S
C106 C107 1.443 . S
C106 N110 1.376 . S
C106 C144 1.389 . S
C107 C106 1.443 . S
C107 C108 1.340 . S
C107 H147 0.951 . S
C108 C107 1.340 . S
C108 C109 1.439 . S
C108 H148 0.950 . S
C109 C108 1.439 . S
C109 N110 1.374 . S
C109 C143 1.395 . S
N110 C106 1.376 . S
N110 C109 1.374 . S
N110 Co111 2.008 1_565 S
Co111 N110 2.008 1_545 S
Co111 N112 1.995 1_545 S
Co111 N117 2.008 . S
Co111 N122 1.995 . S
Co111 N127 2.282 . S
Co111 N133 2.282 . S
N112 Co111 1.995 1_565 S
N112 C113 1.376 . S
N112 C116 1.383 1_565 S
C113 N112 1.376 . S
C113 C114 1.446 . S
C113 C143 1.391 . S
C114 C113 1.446 . S
C114 C115 1.339 . S
C114 H149 0.949 . S
C115 C114 1.339 . S
C115 C116 1.439 1_565 S
C115 H150 0.950 . S
C116 N112 1.383 1_545 S
C116 C115 1.439 1_545 S
C116 C145 1.392 . S
N117 Co111 2.008 . S
N117 C118 1.376 . S
N117 C121 1.374 . S
C118 N117 1.376 . S
C118 C119 1.443 . S
C118 C145 1.389 . S
C119 C118 1.443 . S
C119 C120 1.340 . S
C119 H151 0.951 . S
C120 C119 1.340 . S
C120 C121 1.439 . S
C120 H152 0.950 . S
C121 N117 1.374 . S
C121 C120 1.439 . S
C121 C146 1.395 . S
N122 Co111 1.995 . S
N122 C123 1.376 . S
N122 C126 1.383 . S
C123 N122 1.376 . S
C123 C124 1.446 . S
C123 C146 1.391 . S
C124 C123 1.446 . S
C124 C125 1.339 . S
C124 H153 0.949 . S
C125 C124 1.339 . S
C125 C126 1.439 . S
C125 H154 0.950 . S
C126 N122 1.383 . S
C126 C125 1.439 . S
C126 C144 1.392 1_545 S
N127 Co111 2.282 . S
N127 C130 1.332 . S
N127 C132 1.332 . S
C128 C129 1.386 . S
C128 C131 1.388 . S
C129 C128 1.386 . S
C129 C130 1.382 . S
C129 H155 0.950 . S
C130 N127 1.332 . S
C130 C129 1.382 . S
C130 H141 0.952 . S
C131 C128 1.388 . S
C131 C132 1.382 . S
C131 H156 0.929 1_545 S
C132 N127 1.332 . S
C132 C131 1.382 . S
C132 H142 0.948 1_545 S
N133 Co111 2.282 . S
N133 C137 1.332 1_545 S
N133 C138 1.332 . S
C134 C135 1.388 1_545 S
C134 C138 1.382 . S
C134 H157 0.950 . S
C135 C134 1.388 1_565 S
C135 C136 1.386 . S
C136 C135 1.386 . S
C136 C137 1.382 . S
C136 H158 0.950 . S
C137 N133 1.332 1_565 S
C137 C136 1.382 . S
C137 H139 0.952 . S
C138 N133 1.332 . S
C138 C134 1.382 . S
C138 H140 0.948 . S
H139 C137 0.952 . S
H140 C138 0.948 . S
H141 C130 0.952 . S
H142 C132 0.948 1_565 S
C143 C109 1.395 . S
C143 C113 1.391 . S
C144 C106 1.389 . S
C144 C126 1.392 1_565 S
C145 C116 1.392 . S
C145 C118 1.389 . S
C146 C121 1.395 . S
C146 C123 1.391 . S
H147 C107 0.951 . S
H148 C108 0.950 . S
H149 C114 0.949 . S
H150 C115 0.950 . S
H151 C119 0.951 . S
H152 C120 0.950 . S
H153 C124 0.949 . S
H154 C125 0.950 . S
H155 C129 0.950 . S
H156 C131 0.929 1_565 S
H157 C134 0.950 . S
H158 C136 0.950 . S
C159 C160 1.443 . S
C159 N163 1.376 . S
C159 C197 1.389 . S
C160 C159 1.443 . S
C160 C161 1.340 . S
C160 H200 0.951 . S
C161 C160 1.340 . S
C161 C162 1.439 . S
C161 H201 0.950 . S
C162 C161 1.439 . S
C162 N163 1.374 . S
C162 C196 1.395 . S
N163 C159 1.376 . S
N163 C162 1.374 . S
N163 Co164 2.008 . S
Co164 N163 2.008 . S
Co164 N165 1.995 . S
Co164 N170 2.008 . S
Co164 N175 1.995 . S
Co164 N180 2.282 . S
Co164 N186 2.282 . S
N165 Co164 1.995 . S
N165 C166 1.376 . S
N165 C169 1.383 . S
C166 N165 1.376 . S
C166 C167 1.446 . S
C166 C196 1.391 . S
C167 C166 1.446 . S
C167 C168 1.339 . S
C167 H202 0.949 . S
C168 C167 1.339 . S
C168 C169 1.439 . S
C168 H203 0.950 . S
C169 N165 1.383 . S
C169 C168 1.439 . S
C169 C198 1.392 . S
N170 Co164 2.008 . S
N170 C171 1.376 . S
N170 C174 1.374 . S
C171 N170 1.376 . S
C171 C172 1.443 . S
C171 C198 1.389 . S
C172 C171 1.443 . S
C172 C173 1.340 . S
C172 H204 0.951 . S
C173 C172 1.340 . S
C173 C174 1.439 . S
C173 H205 0.950 . S
C174 N170 1.374 . S
C174 C173 1.439 . S
C174 C199 1.395 . S
N175 Co164 1.995 . S
N175 C176 1.376 . S
N175 C179 1.383 . S
C176 N175 1.376 . S
C176 C177 1.446 . S
C176 C199 1.391 . S
C177 C176 1.446 . S
C177 C178 1.339 . S
C177 H206 0.949 . S
C178 C177 1.339 . S
C178 C179 1.439 . S
C178 H207 0.950 . S
C179 N175 1.383 . S
C179 C178 1.439 . S
C179 C197 1.392 . S
N180 Co164 2.282 . S
N180 C183 1.332 . S
N180 C185 1.332 . S
C181 C182 1.386 . S
C181 C184 1.388 . S
C182 C181 1.386 . S
C182 C183 1.382 . S
C182 H208 0.950 . S
C183 N180 1.332 . S
C183 C182 1.382 . S
C183 H194 0.952 . S
C184 C181 1.388 . S
C184 C185 1.382 . S
C184 H209 0.950 . S
C185 N180 1.332 . S
C185 C184 1.382 . S
C185 H195 0.948 . S
N186 Co164 2.282 . S
N186 C190 1.332 . S
N186 C191 1.332 . S
C187 C188 1.388 . S
C187 C191 1.382 . S
C187 H210 0.950 . S
C188 C187 1.388 . S
C188 C189 1.386 . S
C189 C188 1.386 . S
C189 C190 1.382 . S
C189 H211 0.950 . S
C190 N186 1.332 . S
C190 C189 1.382 . S
C190 H192 0.952 . S
C191 N186 1.332 . S
C191 C187 1.382 . S
C191 H193 0.948 . S
H192 C190 0.952 . S
H193 C191 0.948 . S
H194 C183 0.952 . S
H195 C185 0.948 . S
C196 C162 1.395 . S
C196 C166 1.391 . S
C197 C159 1.389 . S
C197 C179 1.392 . S
C198 C169 1.392 . S
C198 C171 1.389 . S
C199 C174 1.395 . S
C199 C176 1.391 . S
H200 C160 0.951 . S
H201 C161 0.950 . S
H202 C167 0.949 . S
H203 C168 0.950 . S
H204 C172 0.951 . S
H205 C173 0.950 . S
H206 C177 0.949 . S
H207 C178 0.950 . S
H208 C182 0.950 . S
H209 C184 0.950 . S
H210 C187 0.950 . S
H211 C189 0.950 . S
C212 C213 1.443 . S
C212 N216 1.376 . S
C212 C250 1.389 1_556 S
C213 C212 1.443 . S
C213 C214 1.340 . S
C213 H253 0.951 . S
C214 C213 1.340 . S
C214 C215 1.439 . S
C214 H254 0.950 . S
C215 C214 1.439 . S
C215 N216 1.374 . S
C215 C249 1.395 . S
N216 C212 1.376 . S
N216 C215 1.374 . S
N216 Co217 2.008 1_556 S
Co217 N216 2.008 1_554 S
Co217 N218 1.995 1_554 S
Co217 N223 2.008 . S
Co217 N228 1.995 . S
Co217 N233 2.282 . S
Co217 N239 2.282 . S
N218 Co217 1.995 1_556 S
N218 C219 1.376 . S
N218 C222 1.383 . S
C219 N218 1.376 . S
C219 C220 1.446 . S
C219 C249 1.391 . S
C220 C219 1.446 . S
C220 C221 1.339 . S
C220 H255 0.949 . S
C221 C220 1.339 . S
C221 C222 1.439 . S
C221 H256 0.950 . S
C222 N218 1.383 . S
C222 C221 1.439 . S
C222 C251 1.392 1_556 S
N223 Co217 2.008 . S
N223 C224 1.376 . S
N223 C227 1.374 . S
C224 N223 1.376 . S
C224 C225 1.443 . S
C224 C251 1.389 . S
C225 C224 1.443 . S
C225 C226 1.340 . S
C225 H257 0.951 . S
C226 C225 1.340 . S
C226 C227 1.439 . S
C226 H258 0.950 . S
C227 N223 1.374 . S
C227 C226 1.439 . S
C227 C252 1.395 . S
N228 Co217 1.995 . S
N228 C229 1.376 . S
N228 C232 1.383 . S
C229 N228 1.376 . S
C229 C230 1.446 . S
C229 C252 1.391 . S
C230 C229 1.446 . S
C230 C231 1.339 . S
C230 H259 0.949 . S
C231 C230 1.339 . S
C231 C232 1.439 . S
C231 H260 0.950 . S
C232 N228 1.383 . S
C232 C231 1.439 . S
C232 C250 1.392 . S
N233 Co217 2.282 . S
N233 C236 1.332 . S
N233 C238 1.332 . S
C234 C235 1.386 . S
C234 C237 1.388 . S
C235 C234 1.386 . S
C235 C236 1.382 . S
C235 H261 0.950 . S
C236 N233 1.332 . S
C236 C235 1.382 . S
C236 H247 0.952 . S
C237 C234 1.388 . S
C237 C238 1.382 . S
C237 H262 0.950 1_554 S
C238 N233 1.332 . S
C238 C237 1.382 . S
C238 H248 0.948 1_554 S
N239 Co217 2.282 . S
N239 C243 1.332 1_554 S
N239 C244 1.332 . S
C240 C241 1.388 1_554 S
C240 C244 1.382 . S
C240 H263 0.950 . S
C241 C240 1.388 1_556 S
C241 C242 1.386 . S
C242 C241 1.386 . S
C242 C243 1.382 . S
C242 H264 0.950 . S
C243 N239 1.332 1_556 S
C243 C242 1.382 . S
C243 H245 0.952 . S
C244 N239 1.332 . S
C244 C240 1.382 . S
C244 H246 0.948 . S
H245 C243 0.952 . S
H246 C244 0.948 . S
H247 C236 0.952 . S
H248 C238 0.948 1_556 S
C249 C215 1.395 . S
C249 C219 1.391 . S
C250 C212 1.389 1_554 S
C250 C232 1.392 . S
C251 C222 1.392 1_554 S
C251 C224 1.389 . S
C252 C227 1.395 . S
C252 C229 1.391 . S
H253 C213 0.951 . S
H254 C214 0.950 . S
H255 C220 0.949 . S
H256 C221 0.950 . S
H257 C225 0.951 . S
H258 C226 0.950 . S
H259 C230 0.949 . S
H260 C231 0.950 . S
H261 C235 0.950 . S
H262 C237 0.950 1_556 S
H263 C240 0.950 . S
H264 C242 0.950 . S
C265 C266 1.443 . S
C265 N269 1.376 . S
C265 C303 1.389 . S
C266 C265 1.443 . S
C266 C267 1.340 . S
C266 H306 0.951 . S
C267 C266 1.340 . S
C267 C268 1.439 . S
C267 H307 0.950 . S
C268 C267 1.439 . S
C268 N269 1.374 . S
C268 C302 1.395 . S
N269 C265 1.376 . S
N269 C268 1.374 . S
N269 Co270 2.008 . S
Co270 N269 2.008 . S
Co270 N271 1.995 . S
Co270 N276 2.008 . S
Co270 N281 1.995 . S
Co270 N286 2.282 . S
Co270 N292 2.282 . S
N271 Co270 1.995 . S
N271 C272 1.376 . S
N271 C275 1.383 . S
C272 N271 1.376 . S
C272 C273 1.446 . S
C272 C302 1.391 . S
C273 C272 1.446 . S
C273 C274 1.339 . S
C273 H308 0.949 . S
C274 C273 1.339 . S
C274 C275 1.439 . S
C274 H309 0.950 . S
C275 N271 1.383 . S
C275 C274 1.439 . S
C275 C304 1.392 . S
N276 Co270 2.008 . S
N276 C277 1.376 . S
N276 C280 1.374 . S
C277 N276 1.376 . S
C277 C278 1.443 . S
C277 C304 1.389 . S
C278 C277 1.443 . S
C278 C279 1.340 . S
C278 H310 0.951 . S
C279 C278 1.340 . S
C279 C280 1.439 . S
C279 H311 0.950 . S
C280 N276 1.374 . S
C280 C279 1.439 . S
C280 C305 1.395 . S
N281 Co270 1.995 . S
N281 C282 1.376 . S
N281 C285 1.383 . S
C282 N281 1.376 . S
C282 C283 1.446 . S
C282 C305 1.391 . S
C283 C282 1.446 . S
C283 C284 1.339 . S
C283 H312 0.949 . S
C284 C283 1.339 . S
C284 C285 1.439 . S
C284 H313 0.950 . S
C285 N281 1.383 . S
C285 C284 1.439 . S
C285 C303 1.392 . S
N286 Co270 2.282 . S
N286 C289 1.332 . S
N286 C291 1.332 . S
C287 C288 1.386 . S
C287 C290 1.388 . S
C288 C287 1.386 . S
C288 C289 1.382 . S
C288 H314 0.950 . S
C289 N286 1.332 . S
C289 C288 1.382 . S
C289 H300 0.952 . S
C290 C287 1.388 . S
C290 C291 1.382 . S
C290 H315 0.950 . S
C291 N286 1.332 . S
C291 C290 1.382 . S
C291 H301 0.948 . S
N292 Co270 2.282 . S
N292 C296 1.332 . S
N292 C297 1.332 . S
C293 C294 1.388 . S
C293 C297 1.382 . S
C293 H316 0.950 . S
C294 C293 1.388 . S
C294 C295 1.386 . S
C295 C294 1.386 . S
C295 C296 1.382 . S
C295 H317 0.950 . S
C296 N292 1.332 . S
C296 C295 1.382 . S
C296 H298 0.952 . S
C297 N292 1.332 . S
C297 C293 1.382 . S
C297 H299 0.948 . S
H298 C296 0.952 . S
H299 C297 0.948 . S
H300 C289 0.952 . S
H301 C291 0.948 . S
C302 C268 1.395 . S
C302 C272 1.391 . S
C303 C265 1.389 . S
C303 C285 1.392 . S
C304 C275 1.392 . S
C304 C277 1.389 . S
C305 C280 1.395 . S
C305 C282 1.391 . S
H306 C266 0.951 . S
H307 C267 0.950 . S
H308 C273 0.949 . S
H309 C274 0.950 . S
H310 C278 0.951 . S
H311 C279 0.950 . S
H312 C283 0.949 . S
H313 C284 0.950 . S
H314 C288 0.950 . S
H315 C290 0.950 . S
H316 C293 0.950 . S
H317 C295 0.950 . S
C318 C319 1.443 . S
C318 N322 1.376 . S
C318 C356 1.389 . S
C319 C318 1.443 . S
C319 C320 1.340 . S
C319 H359 0.951 . S
C320 C319 1.340 . S
C320 C321 1.439 . S
C320 H360 0.950 . S
C321 C320 1.439 . S
C321 N322 1.374 . S
C321 C355 1.395 . S
N322 C318 1.376 . S
N322 C321 1.374 . S
N322 Co323 2.008 . S
Co323 N322 2.008 . S
Co323 N324 1.995 . S
Co323 N329 2.008 . S
Co323 N334 1.995 . S
Co323 N339 2.282 . S
Co323 N345 2.282 . S
N324 Co323 1.995 . S
N324 C325 1.376 . S
N324 C328 1.383 . S
C325 N324 1.376 . S
C325 C326 1.446 . S
C325 C355 1.391 . S
C326 C325 1.446 . S
C326 C327 1.339 . S
C326 H361 0.949 . S
C327 C326 1.339 . S
C327 C328 1.439 . S
C327 H362 0.950 . S
C328 N324 1.383 . S
C328 C327 1.439 . S
C328 C357 1.392 . S
N329 Co323 2.008 . S
N329 C330 1.376 . S
N329 C333 1.374 . S
C330 N329 1.376 . S
C330 C331 1.443 . S
C330 C357 1.389 . S
C331 C330 1.443 . S
C331 C332 1.340 . S
C331 H363 0.951 . S
C332 C331 1.340 . S
C332 C333 1.439 . S
C332 H364 0.950 . S
C333 N329 1.374 . S
C333 C332 1.439 . S
C333 C358 1.395 . S
N334 Co323 1.995 . S
N334 C335 1.376 . S
N334 C338 1.383 . S
C335 N334 1.376 . S
C335 C336 1.446 . S
C335 C358 1.391 . S
C336 C335 1.446 . S
C336 C337 1.339 . S
C336 H365 0.949 . S
C337 C336 1.339 . S
C337 C338 1.439 . S
C337 H366 0.950 . S
C338 N334 1.383 . S
C338 C337 1.439 . S
C338 C356 1.392 . S
N339 Co323 2.282 . S
N339 C342 1.332 . S
N339 C344 1.332 . S
C340 C341 1.386 . S
C340 C343 1.388 . S
C341 C340 1.386 . S
C341 C342 1.382 . S
C341 H367 0.950 . S
C342 N339 1.332 . S
C342 C341 1.382 . S
C342 H353 0.952 . S
C343 C340 1.388 . S
C343 C344 1.382 . S
C343 H368 0.950 . S
C344 N339 1.332 . S
C344 C343 1.382 . S
C344 H354 0.948 . S
N345 Co323 2.282 . S
N345 C349 1.332 . S
N345 C350 1.332 . S
C346 C347 1.388 . S
C346 C350 1.382 . S
C346 H369 0.950 . S
C347 C346 1.388 . S
C347 C348 1.386 . S
C348 C347 1.386 . S
C348 C349 1.382 . S
C348 H370 0.950 . S
C349 N345 1.332 . S
C349 C348 1.382 . S
C349 H351 0.952 . S
C350 N345 1.332 . S
C350 C346 1.382 . S
C350 H352 0.948 . S
H351 C349 0.952 . S
H352 C350 0.948 . S
H353 C342 0.952 . S
H354 C344 0.948 . S
C355 C321 1.395 . S
C355 C325 1.391 . S
C356 C318 1.389 . S
C356 C338 1.392 . S
C357 C328 1.392 . S
C357 C330 1.389 . S
C358 C333 1.395 . S
C358 C335 1.391 . S
H359 C319 0.951 . S
H360 C320 0.950 . S
H361 C326 0.949 . S
H362 C327 0.950 . S
H363 C331 0.951 . S
H364 C332 0.950 . S
H365 C336 0.949 . S
H366 C337 0.950 . S
H367 C341 0.950 . S
H368 C343 0.950 . S
H369 C346 0.950 . S
H370 C348 0.950 . S
C371 C372 1.443 . S
C371 N375 1.376 . S
C371 C409 1.389 . S
C372 C371 1.443 . S
C372 C373 1.340 . S
C372 H412 0.951 . S
C373 C372 1.340 . S
C373 C374 1.439 . S
C373 H413 0.950 . S
C374 C373 1.439 . S
C374 N375 1.374 . S
C374 C408 1.395 . S
N375 C371 1.376 . S
N375 C374 1.374 . S
N375 Co376 2.008 . S
Co376 N375 2.008 . S
Co376 N377 1.995 . S
Co376 N382 2.008 . S
Co376 N387 1.995 . S
Co376 N392 2.282 . S
Co376 N398 2.282 . S
N377 Co376 1.995 . S
N377 C378 1.376 . S
N377 C381 1.383 . S
C378 N377 1.376 . S
C378 C379 1.446 . S
C378 C408 1.391 . S
C379 C378 1.446 . S
C379 C380 1.339 . S
C379 H414 0.949 . S
C380 C379 1.339 . S
C380 C381 1.439 . S
C380 H415 0.950 . S
C381 N377 1.383 . S
C381 C380 1.439 . S
C381 C410 1.392 . S
N382 Co376 2.008 . S
N382 C383 1.376 . S
N382 C386 1.374 . S
C383 N382 1.376 . S
C383 C384 1.443 . S
C383 C410 1.389 . S
C384 C383 1.443 . S
C384 C385 1.340 . S
C384 H416 0.951 . S
C385 C384 1.340 . S
C385 C386 1.439 . S
C385 H417 0.950 . S
C386 N382 1.374 . S
C386 C385 1.439 . S
C386 C411 1.395 . S
N387 Co376 1.995 . S
N387 C388 1.376 . S
N387 C391 1.383 . S
C388 N387 1.376 . S
C388 C389 1.446 . S
C388 C411 1.391 . S
C389 C388 1.446 . S
C389 C390 1.339 . S
C389 H418 0.949 . S
C390 C389 1.339 . S
C390 C391 1.439 . S
C390 H419 0.950 . S
C391 N387 1.383 . S
C391 C390 1.439 . S
C391 C409 1.392 . S
N392 Co376 2.282 . S
N392 C395 1.332 . S
N392 C397 1.332 . S
C393 C394 1.386 . S
C393 C396 1.388 . S
C394 C393 1.386 . S
C394 C395 1.382 . S
C394 H420 0.950 . S
C395 N392 1.332 . S
C395 C394 1.382 . S
C395 H406 0.952 . S
C396 C393 1.388 . S
C396 C397 1.382 . S
C396 H421 0.950 . S
C397 N392 1.332 . S
C397 C396 1.382 . S
C397 H407 0.948 . S
N398 Co376 2.282 . S
N398 C402 1.332 . S
N398 C403 1.332 . S
C399 C400 1.388 . S
C399 C403 1.382 . S
C399 H422 0.950 . S
C400 C399 1.388 . S
C400 C401 1.386 . S
C401 C400 1.386 . S
C401 C402 1.382 . S
C401 H423 0.950 . S
C402 N398 1.332 . S
C402 C401 1.382 . S
C402 H404 0.952 . S
C403 N398 1.332 . S
C403 C399 1.382 . S
C403 H405 0.948 . S
H404 C402 0.952 . S
H405 C403 0.948 . S
H406 C395 0.952 . S
H407 C397 0.948 . S
C408 C374 1.395 . S
C408 C378 1.391 . S
C409 C371 1.389 . S
C409 C391 1.392 . S
C410 C381 1.392 . S
C410 C383 1.389 . S
C411 C386 1.395 . S
C411 C388 1.391 . S
H412 C372 0.951 . S
H413 C373 0.950 . S
H414 C379 0.949 . S
H415 C380 0.950 . S
H416 C384 0.951 . S
H417 C385 0.950 . S
H418 C389 0.949 . S
H419 C390 0.950 . S
H420 C394 0.950 . S
H421 C396 0.950 . S
H422 C399 0.950 . S
H423 C401 0.950 . S
C424 C425 1.443 . S
C424 N428 1.376 . S
C424 C462 1.389 . S
C425 C424 1.443 . S
C425 C426 1.340 . S
C425 H465 0.951 . S
C426 C425 1.340 . S
C426 C427 1.439 . S
C426 H466 0.950 . S
C427 C426 1.439 . S
C427 N428 1.374 . S
C427 C461 1.395 . S
N428 C424 1.376 . S
N428 C427 1.374 . S
N428 Co429 2.008 . S
Co429 N428 2.008 . S
Co429 N430 1.995 . S
Co429 N435 2.008 . S
Co429 N440 1.995 . S
Co429 N445 2.282 . S
Co429 N451 2.282 . S
N430 Co429 1.995 . S
N430 C431 1.376 . S
N430 C434 1.383 . S
C431 N430 1.376 . S
C431 C432 1.446 . S
C431 C461 1.391 . S
C432 C431 1.446 . S
C432 C433 1.339 . S
C432 H467 0.949 . S
C433 C432 1.339 . S
C433 C434 1.439 . S
C433 H468 0.950 . S
C434 N430 1.383 . S
C434 C433 1.439 . S
C434 C463 1.392 . S
N435 Co429 2.008 . S
N435 C436 1.376 . S
N435 C439 1.374 . S
C436 N435 1.376 . S
C436 C437 1.443 . S
C436 C463 1.389 . S
C437 C436 1.443 . S
C437 C438 1.340 . S
C437 H469 0.951 . S
C438 C437 1.340 . S
C438 C439 1.439 . S
C438 H470 0.950 . S
C439 N435 1.374 . S
C439 C438 1.439 . S
C439 C464 1.395 . S
N440 Co429 1.995 . S
N440 C441 1.376 . S
N440 C444 1.383 . S
C441 N440 1.376 . S
C441 C442 1.446 . S
C441 C464 1.391 . S
C442 C441 1.446 . S
C442 C443 1.339 . S
C442 H471 0.949 . S
C443 C442 1.339 . S
C443 C444 1.439 . S
C443 H472 0.950 . S
C444 N440 1.383 . S
C444 C443 1.439 . S
C444 C462 1.392 . S
N445 Co429 2.282 . S
N445 C448 1.332 . S
N445 C450 1.332 . S
C446 C447 1.386 . S
C446 C449 1.388 . S
C447 C446 1.386 . S
C447 C448 1.382 . S
C447 H473 0.950 . S
C448 N445 1.332 . S
C448 C447 1.382 . S
C448 H459 0.952 . S
C449 C446 1.388 . S
C449 C450 1.382 . S
C449 H474 0.950 . S
C450 N445 1.332 . S
C450 C449 1.382 . S
C450 H460 0.948 . S
N451 Co429 2.282 . S
N451 C455 1.332 . S
N451 C456 1.332 . S
C452 C453 1.388 . S
C452 C456 1.382 . S
C452 H475 0.950 . S
C453 C452 1.388 . S
C453 C454 1.386 . S
C454 C453 1.386 . S
C454 C455 1.382 . S
C454 H476 0.950 . S
C455 N451 1.332 . S
C455 C454 1.382 . S
C455 H457 0.952 . S
C456 N451 1.332 . S
C456 C452 1.382 . S
C456 H458 0.948 . S
H457 C455 0.952 . S
H458 C456 0.948 . S
H459 C448 0.952 . S
H460 C450 0.948 . S
C461 C427 1.395 . S
C461 C431 1.391 . S
C462 C424 1.389 . S
C462 C444 1.392 . S
C463 C434 1.392 . S
C463 C436 1.389 . S
C464 C439 1.395 . S
C464 C441 1.391 . S
H465 C425 0.951 . S
H466 C426 0.950 . S
H467 C432 0.949 . S
H468 C433 0.950 . S
H469 C437 0.951 . S
H470 C438 0.950 . S
H471 C442 0.949 . S
H472 C443 0.950 . S
H473 C447 0.950 . S
H474 C449 0.950 . S
H475 C452 0.950 . S
H476 C454 0.950 . S
C477 C478 1.443 . S
C477 N481 1.376 . S
C477 C515 1.389 . S
C478 C477 1.443 . S
C478 C479 1.340 . S
C478 H518 0.951 . S
C479 C478 1.340 . S
C479 C480 1.439 . S
C479 H519 0.950 . S
C480 C479 1.439 . S
C480 N481 1.374 . S
C480 C514 1.395 . S
N481 C477 1.376 . S
N481 C480 1.374 . S
N481 Co482 2.008 . S
Co482 N481 2.008 . S
Co482 N483 1.995 . S
Co482 N488 2.008 . S
Co482 N493 1.995 . S
Co482 N498 2.282 . S
Co482 N504 2.282 . S
N483 Co482 1.995 . S
N483 C484 1.376 . S
N483 C487 1.383 . S
C484 N483 1.376 . S
C484 C485 1.446 . S
C484 C514 1.391 . S
C485 C484 1.446 . S
C485 C486 1.339 . S
C485 H520 0.949 . S
C486 C485 1.339 . S
C486 C487 1.439 . S
C486 H521 0.950 . S
C487 N483 1.383 . S
C487 C486 1.439 . S
C487 C516 1.392 . S
N488 Co482 2.008 . S
N488 C489 1.376 . S
N488 C492 1.374 . S
C489 N488 1.376 . S
C489 C490 1.443 . S
C489 C516 1.389 . S
C490 C489 1.443 . S
C490 C491 1.340 . S
C490 H522 0.951 . S
C491 C490 1.340 . S
C491 C492 1.439 . S
C491 H523 0.950 . S
C492 N488 1.374 . S
C492 C491 1.439 . S
C492 C517 1.395 . S
N493 Co482 1.995 . S
N493 C494 1.376 . S
N493 C497 1.383 . S
C494 N493 1.376 . S
C494 C495 1.446 . S
C494 C517 1.391 . S
C495 C494 1.446 . S
C495 C496 1.339 . S
C495 H524 0.949 . S
C496 C495 1.339 . S
C496 C497 1.439 . S
C496 H525 0.950 . S
C497 N493 1.383 . S
C497 C496 1.439 . S
C497 C515 1.392 . S
N498 Co482 2.282 . S
N498 C501 1.332 . S
N498 C503 1.332 . S
C499 C500 1.386 . S
C499 C502 1.388 . S
C500 C499 1.386 . S
C500 C501 1.382 . S
C500 H526 0.950 . S
C501 N498 1.332 . S
C501 C500 1.382 . S
C501 H512 0.952 . S
C502 C499 1.388 . S
C502 C503 1.382 . S
C502 H527 0.950 . S
C503 N498 1.332 . S
C503 C502 1.382 . S
C503 H513 0.948 . S
N504 Co482 2.282 . S
N504 C508 1.332 . S
N504 C509 1.332 . S
C505 C506 1.388 . S
C505 C509 1.382 . S
C505 H528 0.950 . S
C506 C505 1.388 . S
C506 C507 1.386 . S
C507 C506 1.386 . S
C507 C508 1.382 . S
C507 H529 0.950 . S
C508 N504 1.332 . S
C508 C507 1.382 . S
C508 H510 0.952 . S
C509 N504 1.332 . S
C509 C505 1.382 . S
C509 H511 0.948 . S
H510 C508 0.952 . S
H511 C509 0.948 . S
H512 C501 0.952 . S
H513 C503 0.948 . S
C514 C480 1.395 . S
C514 C484 1.391 . S
C515 C477 1.389 . S
C515 C497 1.392 . S
C516 C487 1.392 . S
C516 C489 1.389 . S
C517 C492 1.395 . S
C517 C494 1.391 . S
H518 C478 0.951 . S
H519 C479 0.950 . S
H520 C485 0.949 . S
H521 C486 0.950 . S
H522 C490 0.951 . S
H523 C491 0.950 . S
H524 C495 0.949 . S
H525 C496 0.950 . S
H526 C500 0.950 . S
H527 C502 0.950 . S
H528 C505 0.950 . S
H529 C507 0.950 . S
C530 C531 1.443 . S
C530 N534 1.376 . S
C530 C568 1.389 . S
C531 C530 1.443 . S
C531 C532 1.340 . S
C531 H571 0.951 . S
C532 C531 1.340 . S
C532 C533 1.439 . S
C532 H572 0.950 . S
C533 C532 1.439 . S
C533 N534 1.374 . S
C533 C567 1.395 . S
N534 C530 1.376 . S
N534 C533 1.374 . S
N534 Co535 2.008 . S
Co535 N534 2.008 . S
Co535 N536 1.995 . S
Co535 N541 2.008 1_545 S
Co535 N546 1.995 1_545 S
Co535 N551 2.282 . S
Co535 N557 2.282 . S
N536 Co535 1.995 . S
N536 C537 1.376 . S
N536 C540 1.383 . S
C537 N536 1.376 . S
C537 C538 1.446 . S
C537 C567 1.391 . S
C538 C537 1.446 . S
C538 C539 1.339 . S
C538 H573 0.949 . S
C539 C538 1.339 . S
C539 C540 1.439 . S
C539 H574 0.950 . S
C540 N536 1.383 . S
C540 C539 1.439 . S
C540 C569 1.392 1_545 S
N541 Co535 2.008 1_565 S
N541 C542 1.376 . S
N541 C545 1.374 . S
C542 N541 1.376 . S
C542 C543 1.443 . S
C542 C569 1.389 . S
C543 C542 1.443 . S
C543 C544 1.340 . S
C543 H575 0.951 . S
C544 C543 1.340 . S
C544 C545 1.439 . S
C544 H576 0.950 . S
C545 N541 1.374 . S
C545 C544 1.439 . S
C545 C570 1.395 . S
N546 Co535 1.995 1_565 S
N546 C547 1.376 . S
N546 C550 1.375 1_565 S
C547 N546 1.376 . S
C547 C548 1.446 . S
C547 C570 1.391 . S
C548 C547 1.446 . S
C548 C549 1.339 . S
C548 H577 0.949 . S
C549 C548 1.339 . S
C549 C550 1.423 1_565 S
C549 H578 0.950 . S
C550 N546 1.375 1_545 S
C550 C549 1.423 1_545 S
C550 C568 1.412 . S
N551 Co535 2.282 . S
N551 C554 1.332 1_545 S
N551 C556 1.332 . S
C552 C553 1.386 . S
C552 C555 1.388 1_565 S
C553 C552 1.386 . S
C553 C554 1.382 . S
C553 H579 0.950 . S
C554 N551 1.332 1_565 S
C554 C553 1.382 . S
C554 H565 0.952 . S
C555 C552 1.388 1_545 S
C555 C556 1.382 . S
C555 H580 0.950 . S
C556 N551 1.332 . S
C556 C555 1.382 . S
C556 H566 0.948 . S
N557 Co535 2.282 . S
N557 C561 1.332 . S
N557 C562 1.332 . S
C558 C559 1.388 . S
C558 C562 1.382 . S
C558 H581 0.950 1_545 S
C559 C558 1.388 . S
C559 C560 1.386 . S
C560 C559 1.386 . S
C560 C561 1.382 . S
C560 H582 0.950 . S
C561 N557 1.332 . S
C561 C560 1.382 . S
C561 H563 0.952 . S
C562 N557 1.332 . S
C562 C558 1.382 . S
C562 H564 0.948 1_545 S
H563 C561 0.952 . S
H564 C562 0.948 1_565 S
H565 C554 0.952 . S
H566 C556 0.948 . S
C567 C533 1.395 . S
C567 C537 1.391 . S
C568 C530 1.389 . S
C568 C550 1.412 . S
C569 C540 1.392 1_565 S
C569 C542 1.389 . S
C570 C545 1.395 . S
C570 C547 1.391 . S
H571 C531 0.951 . S
H572 C532 0.950 . S
H573 C538 0.949 . S
H574 C539 0.950 . S
H575 C543 0.951 . S
H576 C544 0.950 . S
H577 C548 0.949 . S
H578 C549 0.950 . S
H579 C553 0.950 . S
H580 C555 0.950 . S
H581 C558 0.950 1_565 S
H582 C560 0.950 . S
C583 C584 1.443 . S
C583 N587 1.376 . S
C583 C621 1.389 . S
C584 C583 1.443 . S
C584 C585 1.340 . S
C584 H624 0.951 . S
C585 C584 1.340 . S
C585 C586 1.439 . S
C585 H625 0.950 . S
C586 C585 1.439 . S
C586 N587 1.374 . S
C586 C620 1.395 . S
N587 C583 1.376 . S
N587 C586 1.374 . S
N587 Co588 2.008 1_556 S
Co588 N587 2.008 1_554 S
Co588 N589 1.995 1_554 S
Co588 N594 2.008 . S
Co588 N599 1.995 . S
Co588 N604 2.282 . S
Co588 N610 2.282 . S
N589 Co588 1.995 1_556 S
N589 C590 1.376 . S
N589 C593 1.383 . S
C590 N589 1.376 . S
C590 C591 1.446 . S
C590 C620 1.391 . S
C591 C590 1.446 . S
C591 C592 1.339 . S
C591 H626 0.949 . S
C592 C591 1.339 . S
C592 C593 1.439 . S
C592 H627 0.950 . S
C593 N589 1.383 . S
C593 C592 1.439 . S
C593 C622 1.392 1_556 S
N594 Co588 2.008 . S
N594 C595 1.376 . S
N594 C598 1.374 . S
C595 N594 1.376 . S
C595 C596 1.443 . S
C595 C622 1.389 . S
C596 C595 1.443 . S
C596 C597 1.340 . S
C596 H628 0.951 . S
C597 C596 1.340 . S
C597 C598 1.439 . S
C597 H629 0.950 . S
C598 N594 1.374 . S
C598 C597 1.439 . S
C598 C623 1.395 . S
N599 Co588 1.995 . S
N599 C600 1.376 . S
N599 C603 1.383 . S
C600 N599 1.376 . S
C600 C601 1.446 . S
C600 C623 1.391 . S
C601 C600 1.446 . S
C601 C602 1.339 . S
C601 H630 0.949 . S
C602 C601 1.339 . S
C602 C603 1.439 . S
C602 H631 0.950 . S
C603 N599 1.383 . S
C603 C602 1.439 . S
C603 C621 1.392 1_554 S
N604 Co588 2.282 . S
N604 C607 1.332 . S
N604 C609 1.332 1_554 S
C605 C606 1.386 . S
C605 C608 1.388 . S
C606 C605 1.386 . S
C606 C607 1.382 . S
C606 H632 0.950 . S
C607 N604 1.332 . S
C607 C606 1.382 . S
C607 H618 0.952 . S
C608 C605 1.388 . S
C608 C609 1.382 1_554 S
C608 H633 0.950 1_554 S
C609 N604 1.332 1_556 S
C609 C608 1.382 1_556 S
C609 H619 0.948 . S
N610 Co588 2.282 . S
N610 C614 1.332 1_554 S
N610 C615 1.332 . S
C611 C612 1.388 1_554 S
C611 C615 1.382 . S
C611 H634 0.950 . S
C612 C611 1.388 1_556 S
C612 C613 1.386 . S
C613 C612 1.386 . S
C613 C614 1.382 . S
C613 H635 0.950 . S
C614 N610 1.332 1_556 S
C614 C613 1.382 . S
C614 H616 0.952 . S
C615 N610 1.332 . S
C615 C611 1.382 . S
C615 H617 0.948 . S
H616 C614 0.952 . S
H617 C615 0.948 . S
H618 C607 0.952 . S
H619 C609 0.948 . S
C620 C586 1.395 . S
C620 C590 1.391 . S
C621 C583 1.389 . S
C621 C603 1.392 1_556 S
C622 C593 1.392 1_554 S
C622 C595 1.389 . S
C623 C598 1.395 . S
C623 C600 1.391 . S
H624 C584 0.951 . S
H625 C585 0.950 . S
H626 C591 0.949 . S
H627 C592 0.950 . S
H628 C596 0.951 . S
H629 C597 0.950 . S
H630 C601 0.949 . S
H631 C602 0.950 . S
H632 C606 0.950 . S
H633 C608 0.950 1_556 S
H634 C611 0.950 . S
H635 C613 0.950 . S
Co636 N641 2.057 1_545 S
Co636 O653 2.021 . S
Co636 O656 2.062 . S
Co636 O660 2.117 . S
Co636 O661 2.020 . S
C637 O657 1.259 . S
C637 O660 1.258 . S
Co638 N647 2.057 . S
Co638 O654 2.111 1_554 S
Co638 O655 2.020 . S
Co638 O657 2.021 . S
Co638 O662 2.062 . S
C639 N641 1.316 . S
C639 N642 1.347 . S
C639 H644 0.931 . S
C640 N641 1.375 . S
C640 C643 1.350 . S
C640 H645 0.930 1_565 S
N641 Co636 2.057 1_565 S
N641 C639 1.316 . S
N641 C640 1.375 . S
N642 C639 1.347 . S
N642 C643 1.373 . S
C643 C640 1.350 . S
C643 N642 1.373 . S
C643 H664 0.931 1_455 S
H644 C639 0.931 . S
H645 C640 0.930 1_545 S
C646 O653 1.259 1_556 S
C646 O654 1.261 . S
N647 Co638 2.057 . S
N647 C648 1.316 . S
N647 C649 1.375 1_554 S
C648 N647 1.316 . S
C648 N650 1.347 . S
C648 H659 0.931 . S
C649 N647 1.375 1_556 S
C649 C651 1.350 . S
C649 H658 0.930 . S
N650 C648 1.347 . S
N650 C651 1.373 1_554 S
C651 C649 1.350 . S
C651 N650 1.373 1_556 S
C651 H665 0.931 . S
C652 O655 1.256 . S
C652 O656 1.255 . S
O653 Co636 2.021 . S
O653 C646 1.259 1_554 S
O654 Co638 2.111 1_556 S
O654 C646 1.261 . S
O655 Co638 2.020 . S
O655 C652 1.256 . S
O656 Co636 2.062 . S
O656 C652 1.255 . S
O657 C637 1.259 . S
O657 Co638 2.021 . S
H658 C649 0.930 . S
H659 C648 0.931 . S
O660 Co636 2.117 . S
O660 C637 1.258 . S
O661 Co636 2.020 . S
O661 C663 1.256 . S
O662 Co638 2.062 . S
O662 C663 1.255 . S
C663 O661 1.256 . S
C663 O662 1.255 . S
H664 C643 0.931 1_655 S
H665 C651 0.931 . S
Co666 N671 2.057 . S
Co666 O683 2.021 . S
Co666 O686 2.062 . S
Co666 O690 2.117 . S
Co666 O691 2.020 . S
C667 O687 1.259 . S
C667 O690 1.258 . S
Co668 N677 2.057 1_554 S
Co668 O684 2.117 . S
Co668 O685 2.020 . S
Co668 O687 2.021 . S
Co668 O692 2.062 . S
C669 N671 1.316 . S
C669 N672 1.347 . S
C669 H674 0.931 . S
C670 N671 1.375 . S
C670 C673 1.350 1_655 S
C670 H675 0.930 . S
N671 Co666 2.057 . S
N671 C669 1.316 . S
N671 C670 1.375 . S
N672 C669 1.347 . S
N672 C673 1.373 1_655 S
C673 C670 1.350 1_455 S
C673 N672 1.373 1_455 S
C673 H694 0.931 . S
H674 C669 0.931 . S
H675 C670 0.930 . S
C676 O683 1.259 . S
C676 O684 1.258 . S
N677 Co668 2.057 1_556 S
N677 C678 1.316 . S
N677 C679 1.375 . S
C678 N677 1.316 . S
C678 N680 1.347 . S
C678 H689 0.931 . S
C679 N677 1.375 . S
C679 C681 1.350 . S
C679 H688 0.930 . S
N680 C678 1.347 . S
N680 C681 1.373 . S
C681 C679 1.350 . S
C681 N680 1.373 . S
C681 H695 0.931 . S
C682 O685 1.256 1_455 S
C682 O686 1.255 1_455 S
O683 Co666 2.021 . S
O683 C676 1.259 . S
O684 Co668 2.117 . S
O684 C676 1.258 . S
O685 Co668 2.020 . S
O685 C682 1.256 1_655 S
O686 Co666 2.062 . S
O686 C682 1.255 1_655 S
O687 C667 1.259 . S
O687 Co668 2.021 . S
H688 C679 0.930 . S
H689 C678 0.931 . S
O690 Co666 2.117 . S
O690 C667 1.258 . S
O691 Co666 2.020 . S
O691 C693 1.256 . S
O692 Co668 2.062 . S
O692 C693 1.255 . S
C693 O691 1.256 . S
C693 O692 1.255 . S
H694 C673 0.931 . S
H695 C681 0.931 . S
Co696 N701 2.057 . S
Co696 O713 2.021 . S
Co696 O716 2.062 . S
Co696 O720 2.117 . S
Co696 O721 2.020 . S
C697 O717 1.259 . S
C697 O720 1.258 . S
Co698 N707 2.057 . S
Co698 O714 2.117 1_455 S
Co698 O715 2.020 . S
Co698 O717 2.021 . S
Co698 O722 2.062 . S
C699 N701 1.316 . S
C699 N702 1.347 . S
C699 H704 0.931 . S
C700 N701 1.375 . S
C700 C703 1.350 . S
C700 H705 0.930 . S
N701 Co696 2.057 . S
N701 C699 1.316 . S
N701 C700 1.375 . S
N702 C699 1.347 . S
N702 C703 1.373 . S
C703 C700 1.350 . S
C703 N702 1.373 . S
C703 H724 0.931 1_565 S
H704 C699 0.931 . S
H705 C700 0.930 . S
C706 O713 1.259 1_655 S
C706 O714 1.258 . S
N707 Co698 2.057 . S
N707 C708 1.316 . S
N707 C709 1.375 1_455 S
C708 N707 1.316 . S
C708 N710 1.347 1_455 S
C708 H719 0.931 . S
C709 N707 1.375 1_655 S
C709 C711 1.350 . S
C709 H718 0.930 . S
N710 C708 1.347 1_655 S
N710 C711 1.373 . S
C711 C709 1.350 . S
C711 N710 1.373 . S
C711 H725 0.931 . S
C712 O715 1.256 . S
C712 O716 1.255 . S
O713 Co696 2.021 . S
O713 C706 1.259 1_455 S
O714 Co698 2.117 1_655 S
O714 C706 1.258 . S
O715 Co698 2.020 . S
O715 C712 1.256 . S
O716 Co696 2.062 . S
O716 C712 1.255 . S
O717 C697 1.259 . S
O717 Co698 2.021 . S
H718 C709 0.930 . S
H719 C708 0.931 . S
O720 Co696 2.117 . S
O720 C697 1.258 . S
O721 Co696 2.020 . S
O721 C723 1.256 . S
O722 Co698 2.062 . S
O722 C723 1.255 . S
C723 O721 1.256 . S
C723 O722 1.255 . S
H724 C703 0.931 1_545 S
H725 C711 0.931 . S
Co726 N731 2.057 . S
Co726 O743 2.021 . S
Co726 O746 2.062 . S
Co726 O750 2.117 . S
Co726 O751 2.020 . S
C727 O747 1.259 . S
C727 O750 1.258 1_455 S
Co728 N737 2.057 . S
Co728 O744 2.117 . S
Co728 O745 2.020 . S
Co728 O747 2.021 1_655 S
Co728 O752 2.062 . S
C729 N731 1.316 . S
C729 N732 1.347 . S
C729 H734 0.931 . S
C730 N731 1.375 . S
C730 C733 1.350 . S
C730 H735 0.930 . S
N731 Co726 2.057 . S
N731 C729 1.316 . S
N731 C730 1.375 . S
N732 C729 1.347 . S
N732 C733 1.373 . S
C733 C730 1.350 . S
C733 N732 1.373 . S
C733 H754 0.931 . S
H734 C729 0.931 . S
H735 C730 0.930 . S
C736 O743 1.259 . S
C736 O744 1.258 . S
N737 Co728 2.057 . S
N737 C738 1.316 1_655 S
N737 C739 1.375 . S
C738 N737 1.316 1_455 S
C738 N740 1.347 . S
C738 H749 0.931 . S
C739 N737 1.375 . S
C739 C741 1.350 . S
C739 H748 0.930 . S
N740 C738 1.347 . S
N740 C741 1.373 1_455 S
C741 C739 1.350 . S
C741 N740 1.373 1_655 S
C741 H755 0.931 . S
C742 O745 1.256 . S
C742 O746 1.255 . S
O743 Co726 2.021 . S
O743 C736 1.259 . S
O744 Co728 2.117 . S
O744 C736 1.258 . S
O745 Co728 2.020 . S
O745 C742 1.256 . S
O746 Co726 2.062 . S
O746 C742 1.255 . S
O747 C727 1.259 . S
O747 Co728 2.021 1_455 S
H748 C739 0.930 . S
H749 C738 0.931 . S
O750 Co726 2.117 . S
O750 C727 1.258 1_655 S
O751 Co726 2.020 . S
O751 C753 1.256 . S
O752 Co728 2.062 . S
O752 C753 1.255 . S
C753 O751 1.256 . S
C753 O752 1.255 . S
H754 C733 0.931 . S
H755 C741 0.931 . S
Co756 N761 2.057 . S
Co756 O773 2.021 . S
Co756 O776 2.062 . S
Co756 O780 2.117 . S
Co756 O781 2.020 . S
C757 O777 1.259 . S
C757 O780 1.258 . S
Co758 N767 2.057 . S
Co758 O774 2.117 . S
Co758 O775 2.020 . S
Co758 O777 2.021 . S
Co758 O782 2.062 . S
C759 N761 1.316 . S
C759 N762 1.347 . S
C759 H764 0.931 . S
C760 N761 1.375 . S
C760 C763 1.350 . S
C760 H765 0.930 . S
N761 Co756 2.057 . S
N761 C759 1.316 . S
N761 C760 1.375 . S
N762 C759 1.347 . S
N762 C763 1.373 . S
C763 C760 1.350 . S
C763 N762 1.373 . S
C763 H784 0.931 . S
H764 C759 0.931 . S
H765 C760 0.930 . S
C766 O773 1.259 . S
C766 O774 1.258 . S
N767 Co758 2.057 . S
N767 C768 1.316 . S
N767 C769 1.375 . S
C768 N767 1.316 . S
C768 N770 1.347 . S
C768 H779 0.931 1_565 S
C769 N767 1.375 . S
C769 C771 1.350 . S
C769 H778 0.930 . S
N770 C768 1.347 . S
N770 C771 1.373 . S
C771 C769 1.350 . S
C771 N770 1.373 . S
C771 H785 0.931 . S
C772 O775 1.256 . S
C772 O776 1.255 . S
O773 Co756 2.021 . S
O773 C766 1.259 . S
O774 Co758 2.117 . S
O774 C766 1.258 . S
O775 Co758 2.020 . S
O775 C772 1.256 . S
O776 Co756 2.062 . S
O776 C772 1.255 . S
O777 C757 1.259 . S
O777 Co758 2.021 . S
H778 C769 0.930 . S
H779 C768 0.931 1_545 S
O780 Co756 2.117 . S
O780 C757 1.258 . S
O781 Co756 2.020 . S
O781 C783 1.256 . S
O782 Co758 2.062 . S
O782 C783 1.255 . S
C783 O781 1.256 . S
C783 O782 1.255 . S
H784 C763 0.931 . S
H785 C771 0.931 . S
Co786 N791 2.057 . S
Co786 O803 2.021 . S
Co786 O806 2.062 . S
Co786 O810 2.117 . S
Co786 O811 2.020 . S
C787 O807 1.259 . S
C787 O810 1.258 . S
Co788 N797 2.057 . S
Co788 O804 2.117 . S
Co788 O805 2.020 . S
Co788 O807 2.021 . S
Co788 O812 2.062 . S
C789 N791 1.316 . S
C789 N792 1.347 . S
C789 H794 0.931 . S
C790 N791 1.375 . S
C790 C793 1.350 . S
C790 H795 0.930 . S
N791 Co786 2.057 . S
N791 C789 1.316 . S
N791 C790 1.375 . S
N792 C789 1.347 . S
N792 C793 1.373 . S
C793 C790 1.350 . S
C793 N792 1.373 . S
C793 H814 0.931 . S
H794 C789 0.931 . S
H795 C790 0.930 . S
C796 O803 1.259 . S
C796 O804 1.258 . S
N797 Co788 2.057 . S
N797 C798 1.316 . S
N797 C799 1.375 . S
C798 N797 1.316 . S
C798 N800 1.347 . S
C798 H809 0.931 . S
C799 N797 1.375 . S
C799 C801 1.350 . S
C799 H808 0.930 . S
N800 C798 1.347 . S
N800 C801 1.373 . S
C801 C799 1.350 . S
C801 N800 1.373 . S
C801 H815 0.931 . S
C802 O805 1.256 . S
C802 O806 1.255 . S
O803 Co786 2.021 . S
O803 C796 1.259 . S
O804 Co788 2.117 . S
O804 C796 1.258 . S
O805 Co788 2.020 . S
O805 C802 1.256 . S
O806 Co786 2.062 . S
O806 C802 1.255 . S
O807 C787 1.259 . S
O807 Co788 2.021 . S
H808 C799 0.930 . S
H809 C798 0.931 . S
O810 Co786 2.117 . S
O810 C787 1.258 . S
O811 Co786 2.020 . S
O811 C813 1.256 . S
O812 Co788 2.062 . S
O812 C813 1.255 . S
C813 O811 1.256 . S
C813 O812 1.255 . S
H814 C793 0.931 . S
H815 C801 0.931 . S
Co816 N821 2.057 1_556 S
Co816 O833 2.021 1_556 S
Co816 O836 2.062 1_556 S
Co816 O840 2.117 . S
Co816 O841 2.020 . S
C817 O837 1.259 . S
C817 O840 1.258 . S
Co818 N827 2.057 . S
Co818 O834 2.117 . S
Co818 O835 2.020 . S
Co818 O837 2.021 . S
Co818 O842 2.062 . S
C819 N821 1.316 . S
C819 N822 1.347 . S
C819 H824 0.931 . S
C820 N821 1.375 . S
C820 C823 1.350 . S
C820 H825 0.930 . S
N821 Co816 2.057 1_554 S
N821 C819 1.316 . S
N821 C820 1.375 . S
N822 C819 1.347 . S
N822 C823 1.373 . S
C823 C820 1.350 . S
C823 N822 1.373 . S
C823 H844 0.931 . S
H824 C819 0.931 . S
H825 C820 0.930 . S
C826 O833 1.259 1_556 S
C826 O834 1.258 . S
N827 Co818 2.057 . S
N827 C828 1.316 . S
N827 C829 1.375 . S
C828 N827 1.316 . S
C828 N830 1.347 . S
C828 H839 0.931 . S
C829 N827 1.375 . S
C829 C831 1.350 . S
C829 H838 0.930 . S
N830 C828 1.347 . S
N830 C831 1.373 . S
C831 C829 1.350 . S
C831 N830 1.373 . S
C831 H845 0.931 . S
C832 O835 1.256 . S
C832 O836 1.255 1_556 S
O833 Co816 2.021 1_554 S
O833 C826 1.259 1_554 S
O834 Co818 2.117 . S
O834 C826 1.258 . S
O835 Co818 2.020 . S
O835 C832 1.256 . S
O836 Co816 2.062 1_554 S
O836 C832 1.255 1_554 S
O837 C817 1.259 . S
O837 Co818 2.021 . S
H838 C829 0.930 . S
H839 C828 0.931 . S
O840 Co816 2.117 . S
O840 C817 1.258 . S
O841 Co816 2.020 . S
O841 C843 1.256 . S
O842 Co818 2.062 . S
O842 C843 1.255 . S
C843 O841 1.256 . S
C843 O842 1.255 . S
H844 C823 0.931 . S
H845 C831 0.931 . S
Co846 N851 2.057 . S
Co846 O863 2.021 . S
Co846 O866 2.062 . S
Co846 O870 2.117 . S
Co846 O871 2.020 . S
C847 O867 1.259 . S
C847 O870 1.258 . S
Co848 N857 2.057 1_545 S
Co848 O864 2.117 . S
Co848 O865 2.020 . S
Co848 O867 2.021 . S
Co848 O872 2.062 . S
C849 N851 1.316 . S
C849 N852 1.347 . S
C849 H854 0.931 . S
C850 N851 1.375 . S
C850 C853 1.350 . S
C850 H855 0.930 . S
N851 Co846 2.057 . S
N851 C849 1.316 . S
N851 C850 1.375 . S
N852 C849 1.347 . S
N852 C853 1.373 . S
C853 C850 1.350 . S
C853 N852 1.373 . S
C853 H874 0.931 . S
H854 C849 0.931 . S
H855 C850 0.930 . S
C856 O863 1.259 . S
C856 O864 1.258 . S
N857 Co848 2.057 1_565 S
N857 C858 1.316 . S
N857 C859 1.375 . S
C858 N857 1.316 . S
C858 N860 1.347 . S
C858 H869 0.931 . S
C859 N857 1.375 . S
C859 C861 1.350 . S
C859 H868 0.930 . S
N860 C858 1.347 . S
N860 C861 1.373 . S
C861 C859 1.350 . S
C861 N860 1.373 . S
C861 H875 0.931 . S
C862 O865 1.256 . S
C862 O866 1.255 . S
O863 Co846 2.021 . S
O863 C856 1.259 . S
O864 Co848 2.117 . S
O864 C856 1.258 . S
O865 Co848 2.020 . S
O865 C862 1.256 . S
O866 Co846 2.062 . S
O866 C862 1.255 . S
O867 C847 1.259 . S
O867 Co848 2.021 . S
H868 C859 0.930 . S
H869 C858 0.931 . S
O870 Co846 2.117 . S
O870 C847 1.258 . S
O871 Co846 2.020 . S
O871 C873 1.256 . S
O872 Co848 2.062 . S
O872 C873 1.255 . S
C873 O871 1.256 . S
C873 O872 1.255 . S
H874 C853 0.931 . S
H875 C861 0.931 . S
C876 C877 1.363 . S
C876 C882 1.379 . S
C876 N884 1.356 . S
C877 C876 1.363 . S
C877 C883 1.363 . S
C878 C879 1.363 . S
C878 C883 1.379 . S
C878 N885 1.356 . S
C879 C878 1.363 . S
C879 C882 1.363 . S
N880 C882 1.356 1_565 S
N880 H892 0.984 . S
N880 H893 0.991 . S
N881 C883 1.356 . S
N881 H886 0.984 . S
N881 H887 0.985 . S
C882 C876 1.379 . S
C882 C879 1.363 . S
C882 N880 1.356 1_545 S
C883 C877 1.363 . S
C883 C878 1.379 . S
C883 N881 1.356 . S
N884 C876 1.356 . S
N884 H890 0.984 . S
N884 H891 0.984 . S
N885 C878 1.356 . S
N885 H888 0.984 1_545 S
N885 H889 0.985 . S
H886 N881 0.984 . S
H887 N881 0.985 . S
H888 N885 0.984 1_565 S
H889 N885 0.985 . S
H890 N884 0.984 . S
H891 N884 0.984 . S
H892 N880 0.984 . S
H893 N880 0.991 . S
C894 C895 1.363 . S
C894 C900 1.379 . S
C894 N902 1.356 . S
C895 C894 1.363 . S
C895 C901 1.369 . S
C896 C897 1.363 . S
C896 C901 1.379 . S
C896 N903 1.356 1_455 S
C897 C896 1.363 . S
C897 C900 1.363 . S
N898 C900 1.356 . S
N898 H910 0.984 . S
N898 H911 0.985 . S
N899 C901 1.351 1_655 S
N899 H904 0.984 . S
N899 H905 0.985 . S
C900 C894 1.379 . S
C900 C897 1.363 . S
C900 N898 1.356 . S
C901 C895 1.369 . S
C901 C896 1.379 . S
C901 N899 1.351 1_455 S
N902 C894 1.356 . S
N902 H908 0.984 . S
N902 H909 0.984 . S
N903 C896 1.356 1_655 S
N903 H906 0.990 . S
N903 H907 0.985 . S
H904 N899 0.984 . S
H905 N899 0.985 . S
H906 N903 0.990 . S
H907 N903 0.985 . S
H908 N902 0.984 . S
H909 N902 0.984 . S
H910 N898 0.984 . S
H911 N898 0.985 . S
C912 C913 1.363 . S
C912 C918 1.379 . S
C912 N920 1.356 1_455 S
C913 C912 1.363 . S
C913 C919 1.363 . S
C914 C915 1.363 . S
C914 C919 1.379 . S
C914 N921 1.356 . S
C915 C914 1.363 . S
C915 C918 1.363 . S
N916 C918 1.356 1_655 S
N916 H928 0.984 . S
N916 H929 0.985 . S
N917 C919 1.356 . S
N917 H922 0.984 . S
N917 H923 0.985 . S
C918 C912 1.379 . S
C918 C915 1.363 . S
C918 N916 1.356 1_455 S
C919 C913 1.363 . S
C919 C914 1.379 . S
C919 N917 1.356 . S
N920 C912 1.356 1_655 S
N920 H926 0.984 . S
N920 H927 0.984 1_655 S
N921 C914 1.356 . S
N921 H924 0.984 . S
N921 H925 0.985 . S
H922 N917 0.984 . S
H923 N917 0.985 . S
H924 N921 0.984 . S
H925 N921 0.985 . S
H926 N920 0.984 . S
H927 N920 0.984 1_455 S
H928 N916 0.984 . S
H929 N916 0.985 . S
C930 C931 1.363 1_455 S
C930 C936 1.379 . S
C930 N938 1.356 . S
C931 C930 1.363 1_655 S
C931 C937 1.363 . S
C932 C933 1.363 . S
C932 C937 1.379 . S
C932 N939 1.356 . S
C933 C932 1.363 . S
C933 C936 1.363 1_655 S
N934 C936 1.356 . S
N934 H946 0.984 . S
N934 H947 0.985 . S
N935 C937 1.356 . S
N935 H940 0.984 . S
N935 H941 0.985 . S
C936 C930 1.379 . S
C936 C933 1.363 1_455 S
C936 N934 1.356 . S
C937 C931 1.363 . S
C937 C932 1.379 . S
C937 N935 1.356 . S
N938 C930 1.356 . S
N938 H944 0.984 . S
N938 H945 0.984 . S
N939 C932 1.356 . S
N939 H942 0.984 . S
N939 H943 0.985 . S
H940 N935 0.984 . S
H941 N935 0.985 . S
H942 N939 0.984 . S
H943 N939 0.985 . S
H944 N938 0.984 . S
H945 N938 0.984 . S
H946 N934 0.984 . S
H947 N934 0.985 . S
C948 C949 1.363 . S
C948 C954 1.379 . S
C948 N956 1.356 . S
C949 C948 1.363 . S
C949 C955 1.363 . S
C950 C951 1.363 . S
C950 C955 1.379 . S
C950 N957 1.356 . S
C951 C950 1.363 . S
C951 C954 1.363 . S
N952 C954 1.356 . S
N952 H964 0.984 . S
N952 H965 0.985 1_554 S
N953 C955 1.356 . S
N953 H958 0.984 . S
N953 H959 0.985 1_545 S
C954 C948 1.379 . S
C954 C951 1.363 . S
C954 N952 1.356 . S
C955 C949 1.363 . S
C955 C950 1.379 . S
C955 N953 1.356 . S
N956 C948 1.356 . S
N956 H962 0.984 . S
N956 H963 0.984 . S
N957 C950 1.356 . S
N957 H960 0.984 . S
N957 H961 0.985 1_545 S
H958 N953 0.984 . S
H959 N953 0.985 1_565 S
H960 N957 0.984 . S
H961 N957 0.985 1_565 S
H962 N956 0.984 . S
H963 N956 0.984 . S
H964 N952 0.984 . S
H965 N952 0.985 1_556 S
C966 C967 1.363 . S
C966 C972 1.379 . S
C966 N974 1.356 . S
C967 C966 1.363 . S
C967 C973 1.363 . S
C968 C969 1.363 . S
C968 C973 1.379 . S
C968 N975 1.356 . S
C969 C968 1.363 . S
C969 C972 1.363 . S
N970 C972 1.356 . S
N970 H982 0.984 . S
N970 H983 0.985 . S
N971 C973 1.356 . S
N971 H976 0.984 . S
N971 H977 0.985 . S
C972 C966 1.379 . S
C972 C969 1.363 . S
C972 N970 1.356 . S
C973 C967 1.363 . S
C973 C968 1.379 . S
C973 N971 1.356 . S
N974 C966 1.356 . S
N974 H980 0.984 . S
N974 H981 0.984 . S
N975 C968 1.356 . S
N975 H978 0.984 . S
N975 H979 0.985 . S
H976 N971 0.984 . S
H977 N971 0.985 . S
H978 N975 0.984 . S
H979 N975 0.985 . S
H980 N974 0.984 . S
H981 N974 0.984 . S
H982 N970 0.984 . S
H983 N970 0.985 . S
C984 C985 1.363 . S
C984 C990 1.379 . S
C984 N992 1.356 . S
C985 C984 1.363 . S
C985 C991 1.363 1_565 S
C986 C987 1.363 1_545 S
C986 C991 1.379 . S
C986 N993 1.356 . S
C987 C986 1.363 1_565 S
C987 C990 1.363 . S
N988 C990 1.356 . S
N988 H1000 0.984 . S
N988 H1001 0.985 . S
N989 C991 1.356 . S
N989 H994 0.984 . S
N989 H995 0.985 . S
C990 C984 1.379 . S
C990 C987 1.363 . S
C990 N988 1.356 . S
C991 C985 1.363 1_545 S
C991 C986 1.379 . S
C991 N989 1.356 . S
N992 C984 1.356 . S
N992 H998 0.984 . S
N992 H999 0.984 . S
N993 C986 1.356 . S
N993 H996 0.984 . S
N993 H997 0.985 . S
H994 N989 0.984 . S
H995 N989 0.985 . S
H996 N993 0.984 . S
H997 N993 0.985 . S
H998 N992 0.984 . S
H999 N992 0.984 . S
H1000 N988 0.984 . S
H1001 N988 0.985 . S
C1002 C1003 1.363 . S
C1002 C1008 1.379 . S
C1002 N1010 1.356 . S
C1003 C1002 1.363 . S
C1003 C1009 1.363 . S
C1004 C1005 1.363 . S
C1004 C1009 1.379 . S
C1004 N1011 1.356 . S
C1005 C1004 1.363 . S
C1005 C1008 1.363 . S
N1006 C1008 1.356 . S
N1006 H1018 0.984 . S
N1006 H1019 0.985 . S
N1007 C1009 1.356 . S
N1007 H1012 0.984 . S
N1007 H1013 0.985 . S
C1008 C1002 1.379 . S
C1008 C1005 1.363 . S
C1008 N1006 1.356 . S
C1009 C1003 1.363 . S
C1009 C1004 1.379 . S
C1009 N1007 1.356 . S
N1010 C1002 1.356 . S
N1010 H1016 0.984 . S
N1010 H1017 0.984 . S
N1011 C1004 1.356 . S
N1011 H1014 0.984 . S
N1011 H1015 0.985 . S
H1012 N1007 0.984 . S
H1013 N1007 0.985 . S
H1014 N1011 0.984 . S
H1015 N1011 0.985 . S
H1016 N1010 0.984 . S
H1017 N1010 0.984 . S
H1018 N1006 0.984 . S
H1019 N1006 0.985 . S
C1020 C1021 1.363 . S
C1020 C1026 1.379 . S
C1020 N1028 1.356 . S
C1021 C1020 1.363 . S
C1021 C1027 1.363 . S
C1022 C1023 1.363 . S
C1022 C1027 1.379 . S
C1022 N1029 1.356 . S
C1023 C1022 1.363 . S
C1023 C1026 1.363 . S
N1024 C1026 1.356 1_556 S
N1024 H1036 0.984 . S
N1024 H1037 0.985 . S
N1025 C1027 1.356 . S
N1025 H1030 0.984 . S
N1025 H1031 0.985 . S
C1026 C1020 1.379 . S
C1026 C1023 1.363 . S
C1026 N1024 1.356 1_554 S
C1027 C1021 1.363 . S
C1027 C1022 1.379 . S
C1027 N1025 1.356 . S
N1028 C1020 1.356 . S
N1028 H1034 0.984 1_554 S
N1028 H1035 0.984 . S
N1029 C1022 1.356 . S
N1029 H1032 0.984 . S
N1029 H1033 0.985 . S
H1030 N1025 0.984 . S
H1031 N1025 0.985 . S
H1032 N1029 0.984 . S
H1033 N1029 0.985 . S
H1034 N1028 0.984 1_556 S
H1035 N1028 0.984 . S
H1036 N1024 0.984 . S
H1037 N1024 0.985 . S
C1038 C1039 1.363 . S
C1038 C1044 1.379 . S
C1038 N1046 1.356 . S
C1039 C1038 1.363 . S
C1039 C1045 1.363 . S
C1040 C1041 1.363 . S
C1040 C1045 1.379 . S
C1040 N1047 1.356 . S
C1041 C1040 1.363 . S
C1041 C1044 1.363 . S
N1042 C1044 1.356 . S
N1042 H1054 0.984 . S
N1042 H1055 0.985 . S
N1043 C1045 1.356 . S
N1043 H1048 0.984 . S
N1043 H1049 0.985 . S
C1044 C1038 1.379 . S
C1044 C1041 1.363 . S
C1044 N1042 1.356 . S
C1045 C1039 1.363 . S
C1045 C1040 1.379 . S
C1045 N1043 1.356 . S
N1046 C1038 1.356 . S
N1046 H1052 0.984 . S
N1046 H1053 0.984 . S
N1047 C1040 1.356 . S
N1047 H1050 0.984 . S
N1047 H1051 0.985 . S
H1048 N1043 0.984 . S
H1049 N1043 0.985 . S
H1050 N1047 0.984 . S
H1051 N1047 0.985 . S
H1052 N1046 0.984 . S
H1053 N1046 0.984 . S
H1054 N1042 0.984 . S
H1055 N1042 0.985 . S
C1056 C1057 1.363 . S
C1056 C1062 1.379 . S
C1056 N1064 1.356 . S
C1057 C1056 1.363 . S
C1057 C1063 1.363 . S
C1058 C1059 1.363 . S
C1058 C1063 1.379 . S
C1058 N1065 1.356 . S
C1059 C1058 1.363 . S
C1059 C1062 1.363 . S
N1060 C1062 1.356 . S
N1060 H1072 0.984 . S
N1060 H1073 0.985 . S
N1061 C1063 1.356 . S
N1061 H1066 0.984 . S
N1061 H1067 0.985 . S
C1062 C1056 1.379 . S
C1062 C1059 1.363 . S
C1062 N1060 1.356 . S
C1063 C1057 1.363 . S
C1063 C1058 1.379 . S
C1063 N1061 1.356 . S
N1064 C1056 1.356 . S
N1064 H1070 0.984 . S
N1064 H1071 0.984 . S
N1065 C1058 1.356 . S
N1065 H1068 0.984 . S
N1065 H1069 0.985 . S
H1066 N1061 0.984 . S
H1067 N1061 0.985 . S
H1068 N1065 0.984 . S
H1069 N1065 0.985 . S
H1070 N1064 0.984 . S
H1071 N1064 0.984 . S
H1072 N1060 0.984 . S
H1073 N1060 0.985 . S
C1074 C1075 1.363 . S
C1074 C1080 1.379 . S
C1074 N1082 1.356 . S
C1075 C1074 1.363 . S
C1075 C1081 1.363 . S
C1076 C1077 1.363 . S
C1076 C1081 1.379 . S
C1076 N1083 1.356 . S
C1077 C1076 1.363 . S
C1077 C1080 1.363 . S
N1078 C1080 1.356 . S
N1078 H1090 0.984 . S
N1078 H1091 0.985 . S
N1079 C1081 1.356 . S
N1079 H1084 0.984 . S
N1079 H1085 0.985 . S
C1080 C1074 1.379 . S
C1080 C1077 1.363 . S
C1080 N1078 1.356 . S
C1081 C1075 1.363 . S
C1081 C1076 1.379 . S
C1081 N1079 1.356 . S
N1082 C1074 1.356 . S
N1082 H1088 0.984 . S
N1082 H1089 0.984 . S
N1083 C1076 1.356 . S
N1083 H1086 0.984 . S
N1083 H1087 0.985 . S
H1084 N1079 0.984 . S
H1085 N1079 0.985 . S
H1086 N1083 0.984 . S
H1087 N1083 0.985 . S
H1088 N1082 0.984 . S
H1089 N1082 0.984 . S
H1090 N1078 0.984 . S
H1091 N1078 0.985 . S
C1092 C1093 1.363 . S
C1092 C1098 1.379 . S
C1092 N1100 1.356 . S
C1093 C1092 1.363 . S
C1093 C1099 1.363 . S
C1094 C1095 1.363 . S
C1094 C1099 1.379 . S
C1094 N1101 1.356 . S
C1095 C1094 1.363 . S
C1095 C1098 1.363 . S
N1096 C1098 1.356 . S
N1096 H1108 0.984 . S
N1096 H1109 0.985 . S
N1097 C1099 1.356 . S
N1097 H1102 0.984 . S
N1097 H1103 0.985 . S
C1098 C1092 1.379 . S
C1098 C1095 1.363 . S
C1098 N1096 1.356 . S
C1099 C1093 1.363 . S
C1099 C1094 1.379 . S
C1099 N1097 1.356 . S
N1100 C1092 1.356 . S
N1100 H1106 0.984 . S
N1100 H1107 0.984 . S
N1101 C1094 1.356 . S
N1101 H1104 0.984 . S
N1101 H1105 0.985 . S
H1102 N1097 0.984 . S
H1103 N1097 0.985 . S
H1104 N1101 0.984 . S
H1105 N1101 0.985 . S
H1106 N1100 0.984 . S
H1107 N1100 0.984 . S
H1108 N1096 0.984 . S
H1109 N1096 0.985 . S
C1110 C1111 1.363 . S
C1110 C1116 1.379 . S
C1110 N1118 1.356 . S
C1111 C1110 1.363 . S
C1111 C1117 1.363 . S
C1112 C1113 1.363 . S
C1112 C1117 1.379 . S
C1112 N1119 1.356 . S
C1113 C1112 1.363 . S
C1113 C1116 1.363 . S
N1114 C1116 1.356 . S
N1114 H1126 0.984 . S
N1114 H1127 0.985 . S
N1115 C1117 1.356 . S
N1115 H1120 0.984 . S
N1115 H1121 0.985 . S
C1116 C1110 1.379 . S
C1116 C1113 1.363 . S
C1116 N1114 1.356 . S
C1117 C1111 1.363 . S
C1117 C1112 1.379 . S
C1117 N1115 1.356 . S
N1118 C1110 1.356 . S
N1118 H1124 0.984 . S
N1118 H1125 0.984 . S
N1119 C1112 1.356 . S
N1119 H1122 0.984 . S
N1119 H1123 0.985 . S
H1120 N1115 0.984 . S
H1121 N1115 0.985 . S
H1122 N1119 0.984 . S
H1123 N1119 0.985 . S
H1124 N1118 0.984 . S
H1125 N1118 0.984 . S
H1126 N1114 0.984 . S
H1127 N1114 0.985 . S
C1128 C1129 1.363 . S
C1128 C1134 1.379 . S
C1128 N1136 1.356 . S
C1129 C1128 1.363 . S
C1129 C1135 1.363 . S
C1130 C1131 1.363 . S
C1130 C1135 1.379 . S
C1130 N1137 1.356 . S
C1131 C1130 1.363 . S
C1131 C1134 1.363 . S
N1132 C1134 1.356 . S
N1132 H1144 0.984 . S
N1132 H1145 0.985 . S
N1133 C1135 1.356 . S
N1133 H1138 0.984 . S
N1133 H1139 0.985 . S
C1134 C1128 1.379 . S
C1134 C1131 1.363 . S
C1134 N1132 1.356 . S
C1135 C1129 1.363 . S
C1135 C1130 1.379 . S
C1135 N1133 1.356 . S
N1136 C1128 1.356 . S
N1136 H1142 0.984 . S
N1136 H1143 0.984 . S
N1137 C1130 1.356 . S
N1137 H1140 0.984 . S
N1137 H1141 0.985 . S
H1138 N1133 0.984 . S
H1139 N1133 0.985 . S
H1140 N1137 0.984 . S
H1141 N1137 0.985 . S
H1142 N1136 0.984 . S
H1143 N1136 0.984 . S
H1144 N1132 0.984 . S
H1145 N1132 0.985 . S
C1146 C1147 1.363 . S
C1146 C1152 1.379 . S
C1146 N1154 1.356 . S
C1147 C1146 1.363 . S
C1147 C1153 1.363 . S
C1148 C1149 1.363 . S
C1148 C1153 1.379 . S
C1148 N1155 1.356 . S
C1149 C1148 1.363 . S
C1149 C1152 1.363 . S
N1150 C1152 1.356 . S
N1150 H1162 0.984 . S
N1150 H1163 0.985 1_545 S
N1151 C1153 1.356 . S
N1151 H1156 0.984 . S
N1151 H1157 0.985 . S
C1152 C1146 1.379 . S
C1152 C1149 1.363 . S
C1152 N1150 1.356 . S
C1153 C1147 1.363 . S
C1153 C1148 1.379 . S
C1153 N1151 1.356 . S
N1154 C1146 1.356 . S
N1154 H1160 0.984 . S
N1154 H1161 0.984 . S
N1155 C1148 1.356 . S
N1155 H1158 0.984 1_545 S
N1155 H1159 0.985 . S
H1156 N1151 0.984 . S
H1157 N1151 0.985 . S
H1158 N1155 0.984 1_565 S
H1159 N1155 0.985 . S
H1160 N1154 0.984 . S
H1161 N1154 0.984 . S
H1162 N1150 0.984 . S
H1163 N1150 0.985 1_565 S
C1164 C1165 1.363 . S
C1164 C1170 1.379 . S
C1164 N1172 1.356 . S
C1165 C1164 1.363 . S
C1165 C1171 1.363 . S
C1166 C1167 1.363 . S
C1166 C1171 1.379 . S
C1166 N1173 1.356 . S
C1167 C1166 1.363 . S
C1167 C1170 1.363 . S
N1168 C1170 1.356 . S
N1168 H1180 0.984 . S
N1168 H1181 0.985 . S
N1169 C1171 1.356 . S
N1169 H1174 0.984 . S
N1169 H1175 0.985 . S
C1170 C1164 1.379 . S
C1170 C1167 1.363 . S
C1170 N1168 1.356 . S
C1171 C1165 1.363 . S
C1171 C1166 1.379 . S
C1171 N1169 1.356 . S
N1172 C1164 1.356 . S
N1172 H1178 0.984 . S
N1172 H1179 0.984 . S
N1173 C1166 1.356 . S
N1173 H1176 0.984 . S
N1173 H1177 0.985 . S
H1174 N1169 0.984 . S
H1175 N1169 0.985 . S
H1176 N1173 0.984 . S
H1177 N1173 0.985 . S
H1178 N1172 0.984 . S
H1179 N1172 0.984 . S
H1180 N1168 0.984 . S
H1181 N1168 0.985 . S
C1182 C1183 1.363 . S
C1182 C1188 1.379 . S
C1182 N1190 1.356 . S
C1183 C1182 1.363 . S
C1183 C1189 1.363 1_565 S
C1184 C1185 1.363 1_545 S
C1184 C1189 1.379 . S
C1184 N1191 1.356 . S
C1185 C1184 1.363 1_565 S
C1185 C1188 1.363 . S
N1186 C1188 1.356 . S
N1186 H1198 0.984 . S
N1186 H1199 0.985 . S
N1187 C1189 1.356 . S
N1187 H1192 0.984 . S
N1187 H1193 0.985 . S
C1188 C1182 1.379 . S
C1188 C1185 1.363 . S
C1188 N1186 1.356 . S
C1189 C1183 1.363 1_545 S
C1189 C1184 1.379 . S
C1189 N1187 1.356 . S
N1190 C1182 1.356 . S
N1190 H1196 0.984 . S
N1190 H1197 0.984 . S
N1191 C1184 1.356 . S
N1191 H1194 0.984 . S
N1191 H1195 0.985 . S
H1192 N1187 0.984 . S
H1193 N1187 0.985 . S
H1194 N1191 0.984 . S
H1195 N1191 0.985 . S
H1196 N1190 0.984 . S
H1197 N1190 0.984 . S
H1198 N1186 0.984 . S
H1199 N1186 0.985 . S
C1200 C1201 1.363 . S
C1200 C1206 1.379 . S
C1200 N1208 1.356 . S
C1201 C1200 1.363 . S
C1201 C1207 1.363 . S
C1202 C1203 1.363 . S
C1202 C1207 1.379 . S
C1202 N1209 1.356 . S
C1203 C1202 1.363 . S
C1203 C1206 1.363 . S
N1204 C1206 1.356 . S
N1204 H1216 0.984 . S
N1204 H1217 0.985 . S
N1205 C1207 1.356 . S
N1205 H1210 0.984 . S
N1205 H1211 0.985 . S
C1206 C1200 1.379 . S
C1206 C1203 1.363 . S
C1206 N1204 1.356 . S
C1207 C1201 1.363 . S
C1207 C1202 1.379 . S
C1207 N1205 1.356 . S
N1208 C1200 1.356 . S
N1208 H1214 0.984 . S
N1208 H1215 0.984 . S
N1209 C1202 1.356 . S
N1209 H1212 0.984 . S
N1209 H1213 0.985 . S
H1210 N1205 0.984 . S
H1211 N1205 0.985 . S
H1212 N1209 0.984 . S
H1213 N1209 0.985 . S
H1214 N1208 0.984 . S
H1215 N1208 0.984 . S
H1216 N1204 0.984 . S
H1217 N1204 0.985 . S
C1218 C1219 1.363 . S
C1218 C1224 1.379 . S
C1218 N1226 1.356 . S
C1219 C1218 1.363 . S
C1219 C1225 1.363 . S
C1220 C1221 1.363 . S
C1220 C1225 1.379 . S
C1220 N1227 1.356 1_545 S
C1221 C1220 1.363 . S
C1221 C1224 1.363 . S
N1222 C1224 1.356 . S
N1222 H1234 0.984 . S
N1222 H1235 0.985 . S
N1223 C1225 1.356 1_565 S
N1223 H1228 0.984 1_565 S
N1223 H1229 0.985 . S
C1224 C1218 1.379 . S
C1224 C1221 1.363 . S
C1224 N1222 1.356 . S
C1225 C1219 1.363 . S
C1225 C1220 1.379 . S
C1225 N1223 1.356 1_545 S
N1226 C1218 1.356 . S
N1226 H1232 0.984 . S
N1226 H1233 0.984 . S
N1227 C1220 1.356 1_565 S
N1227 H1230 0.981 1_565 S
N1227 H1231 0.985 . S
H1228 N1223 0.984 1_545 S
H1229 N1223 0.985 . S
H1230 N1227 0.981 1_545 S
H1231 N1227 0.985 . S
H1232 N1226 0.984 . S
H1233 N1226 0.984 . S
H1234 N1222 0.984 . S
H1235 N1222 0.985 . S
C1236 C1237 1.363 . S
C1236 C1242 1.379 . S
C1236 N1244 1.356 . S
C1237 C1236 1.363 . S
C1237 C1243 1.363 . S
C1238 C1239 1.363 . S
C1238 C1243 1.379 . S
C1238 N1245 1.356 . S
C1239 C1238 1.363 . S
C1239 C1242 1.363 . S
N1240 C1242 1.356 . S
N1240 H1252 0.984 . S
N1240 H1253 0.985 . S
N1241 C1243 1.356 . S
N1241 H1246 0.984 . S
N1241 H1247 0.985 . S
C1242 C1236 1.379 . S
C1242 C1239 1.363 . S
C1242 N1240 1.356 . S
C1243 C1237 1.363 . S
C1243 C1238 1.379 . S
C1243 N1241 1.356 . S
N1244 C1236 1.356 . S
N1244 H1250 0.984 . S
N1244 H1251 0.984 . S
N1245 C1238 1.356 . S
N1245 H1248 0.984 . S
N1245 H1249 0.985 . S
H1246 N1241 0.984 . S
H1247 N1241 0.985 . S
H1248 N1245 0.984 . S
H1249 N1245 0.985 . S
H1250 N1244 0.984 . S
H1251 N1244 0.984 . S
H1252 N1240 0.984 . S
H1253 N1240 0.985 . S
C1254 C1255 1.363 . S
C1254 C1260 1.379 . S
C1254 N1262 1.356 . S
C1255 C1254 1.363 . S
C1255 C1261 1.358 1_556 S
C1256 C1257 1.363 . S
C1256 C1261 1.376 1_556 S
C1256 N1263 1.356 1_556 S
C1257 C1256 1.363 . S
C1257 C1260 1.363 . S
N1258 C1260 1.356 . S
N1258 H1270 0.984 . S
N1258 H1271 0.985 . S
N1259 C1261 1.364 . S
N1259 H1264 0.984 . S
N1259 H1265 0.985 . S
C1260 C1254 1.379 . S
C1260 C1257 1.363 . S
C1260 N1258 1.356 . S
C1261 C1255 1.358 1_554 S
C1261 C1256 1.376 1_554 S
C1261 N1259 1.364 . S
N1262 C1254 1.356 . S
N1262 H1268 0.984 . S
N1262 H1269 0.984 . S
N1263 C1256 1.356 1_554 S
N1263 H1266 0.984 1_554 S
N1263 H1267 0.985 . S
H1264 N1259 0.984 . S
H1265 N1259 0.985 . S
H1266 N1263 0.984 1_556 S
H1267 N1263 0.985 . S
H1268 N1262 0.984 . S
H1269 N1262 0.984 . S
H1270 N1258 0.984 . S
H1271 N1258 0.985 . S
C1272 C1273 1.363 1_556 S
C1272 C1278 1.379 . S
C1272 N1280 1.356 . S
C1273 C1272 1.363 1_554 S
C1273 C1279 1.363 . S
C1274 C1275 1.363 . S
C1274 C1279 1.379 . S
C1274 N1281 1.356 . S
C1275 C1274 1.363 . S
C1275 C1278 1.363 1_554 S
N1276 C1278 1.356 . S
N1276 H1288 0.984 . S
N1276 H1289 0.985 . S
N1277 C1279 1.356 . S
N1277 H1282 0.984 . S
N1277 H1283 0.985 . S
C1278 C1272 1.379 . S
C1278 C1275 1.363 1_556 S
C1278 N1276 1.356 . S
C1279 C1273 1.363 . S
C1279 C1274 1.379 . S
C1279 N1277 1.356 . S
N1280 C1272 1.356 . S
N1280 H1286 0.984 . S
N1280 H1287 0.984 . S
N1281 C1274 1.356 . S
N1281 H1284 0.984 . S
N1281 H1285 0.985 . S
H1282 N1277 0.984 . S
H1283 N1277 0.985 . S
H1284 N1281 0.984 . S
H1285 N1281 0.985 . S
H1286 N1280 0.984 . S
H1287 N1280 0.984 . S
H1288 N1276 0.984 . S
H1289 N1276 0.985 . S
C1290 C1291 1.363 . S
C1290 C1296 1.379 . S
C1290 N1298 1.356 . S
C1291 C1290 1.363 . S
C1291 C1297 1.363 . S
C1292 C1293 1.363 . S
C1292 C1297 1.379 . S
C1292 N1299 1.356 . S
C1293 C1292 1.363 . S
C1293 C1296 1.363 . S
N1294 C1296 1.356 1_455 S
N1294 H1306 0.984 . S
N1294 H1307 0.985 . S
N1295 C1297 1.356 . S
N1295 H1300 0.984 . S
N1295 H1301 0.985 . S
C1296 C1290 1.379 . S
C1296 C1293 1.363 . S
C1296 N1294 1.356 1_655 S
C1297 C1291 1.363 . S
C1297 C1292 1.379 . S
C1297 N1295 1.356 . S
N1298 C1290 1.356 . S
N1298 H1304 0.984 . S
N1298 H1305 0.984 . S
N1299 C1292 1.356 . S
N1299 H1302 0.984 . S
N1299 H1303 0.985 1_554 S
H1300 N1295 0.984 . S
H1301 N1295 0.985 . S
H1302 N1299 0.984 . S
H1303 N1299 0.985 1_556 S
H1304 N1298 0.984 . S
H1305 N1298 0.984 . S
H1306 N1294 0.984 . S
H1307 N1294 0.985 . S
C1308 C1309 1.363 . S
C1308 C1314 1.379 . S
C1308 N1316 1.356 . S
C1309 C1308 1.363 . S
C1309 C1315 1.363 . S
C1310 C1311 1.363 . S
C1310 C1315 1.379 . S
C1310 N1317 1.356 . S
C1311 C1310 1.363 . S
C1311 C1314 1.363 . S
N1312 C1314 1.356 . S
N1312 H1324 0.984 . S
N1312 H1325 0.985 . S
N1313 C1315 1.356 . S
N1313 H1318 0.984 . S
N1313 H1319 0.985 . S
C1314 C1308 1.379 . S
C1314 C1311 1.363 . S
C1314 N1312 1.356 . S
C1315 C1309 1.363 . S
C1315 C1310 1.379 . S
C1315 N1313 1.356 . S
N1316 C1308 1.356 . S
N1316 H1322 0.984 . S
N1316 H1323 0.984 . S
N1317 C1310 1.356 . S
N1317 H1320 0.984 . S
N1317 H1321 0.985 . S
H1318 N1313 0.984 . S
H1319 N1313 0.985 . S
H1320 N1317 0.984 . S
H1321 N1317 0.985 . S
H1322 N1316 0.984 . S
H1323 N1316 0.984 . S
H1324 N1312 0.984 . S
H1325 N1312 0.985 . S
C1326 C1327 1.363 1_655 S
C1326 C1332 1.379 . S
C1326 N1334 1.356 . S
C1327 C1326 1.363 1_455 S
C1327 C1333 1.363 . S
C1328 C1329 1.363 . S
C1328 C1333 1.379 . S
C1328 N1335 1.356 . S
C1329 C1328 1.363 . S
C1329 C1332 1.363 1_455 S
N1330 C1332 1.356 . S
N1330 H1342 0.984 . S
N1330 H1343 0.985 . S
N1331 C1333 1.356 . S
N1331 H1336 0.984 . S
N1331 H1337 0.985 . S
C1332 C1326 1.379 . S
C1332 C1329 1.363 1_655 S
C1332 N1330 1.356 . S
C1333 C1327 1.363 . S
C1333 C1328 1.379 . S
C1333 N1331 1.356 . S
N1334 C1326 1.356 . S
N1334 H1340 0.984 . S
N1334 H1341 0.984 . S
N1335 C1328 1.356 . S
N1335 H1338 0.984 . S
N1335 H1339 0.985 . S
H1336 N1331 0.984 . S
H1337 N1331 0.985 . S
H1338 N1335 0.984 . S
H1339 N1335 0.985 . S
H1340 N1334 0.984 . S
H1341 N1334 0.984 . S
H1342 N1330 0.984 . S
H1343 N1330 0.985 . S
C1344 C1345 1.363 . S
C1344 C1350 1.379 . S
C1344 N1352 1.356 . S
C1345 C1344 1.363 . S
C1345 C1351 1.363 . S
C1346 C1347 1.363 1_455 S
C1346 C1351 1.379 . S
C1346 N1353 1.356 1_455 S
C1347 C1346 1.363 1_655 S
C1347 C1350 1.360 1_655 S
N1348 C1350 1.356 . S
N1348 H1360 0.984 . S
N1348 H1361 0.985 1_455 S
N1349 C1351 1.356 . S
N1349 H1354 0.984 . S
N1349 H1355 0.985 . S
C1350 C1344 1.379 . S
C1350 C1347 1.360 1_455 S
C1350 N1348 1.356 . S
C1351 C1345 1.363 . S
C1351 C1346 1.379 . S
C1351 N1349 1.356 . S
N1352 C1344 1.356 . S
N1352 H1358 0.984 . S
N1352 H1359 0.984 . S
N1353 C1346 1.356 1_655 S
N1353 H1356 0.984 . S
N1353 H1357 0.985 . S
H1354 N1349 0.984 . S
H1355 N1349 0.985 . S
H1356 N1353 0.984 . S
H1357 N1353 0.985 . S
H1358 N1352 0.984 . S
H1359 N1352 0.984 . S
H1360 N1348 0.984 . S
H1361 N1348 0.985 1_655 S
C1362 C1363 1.363 . S
C1362 C1368 1.379 . S
C1362 N1370 1.356 . S
C1363 C1362 1.363 . S
C1363 C1369 1.363 1_655 S
C1364 C1365 1.363 1_455 S
C1364 C1369 1.379 . S
C1364 N1371 1.356 . S
C1365 C1364 1.363 1_655 S
C1365 C1368 1.363 . S
N1366 C1368 1.356 . S
N1366 H1378 0.984 . S
N1366 H1379 0.985 . S
N1367 C1369 1.356 . S
N1367 H1372 0.984 . S
N1367 H1373 0.985 . S
C1368 C1362 1.379 . S
C1368 C1365 1.363 . S
C1368 N1366 1.356 . S
C1369 C1363 1.363 1_455 S
C1369 C1364 1.379 . S
C1369 N1367 1.356 . S
N1370 C1362 1.356 . S
N1370 H1376 0.984 . S
N1370 H1377 0.984 . S
N1371 C1364 1.356 . S
N1371 H1374 0.984 . S
N1371 H1375 0.985 . S
H1372 N1367 0.984 . S
H1373 N1367 0.985 . S
H1374 N1371 0.984 . S
H1375 N1371 0.985 . S
H1376 N1370 0.984 . S
H1377 N1370 0.984 . S
H1378 N1366 0.984 . S
H1379 N1366 0.985 . S
C1380 C1381 1.363 . S
C1380 C1386 1.379 . S
C1380 N1388 1.356 . S
C1381 C1380 1.363 . S
C1381 C1387 1.363 . S
C1382 C1383 1.363 . S
C1382 C1387 1.379 . S
C1382 N1389 1.356 . S
C1383 C1382 1.363 . S
C1383 C1386 1.363 . S
N1384 C1386 1.356 . S
N1384 H1396 0.984 1_545 S
N1384 H1397 0.985 . S
N1385 C1387 1.356 . S
N1385 H1390 0.984 . S
N1385 H1391 0.985 . S
C1386 C1380 1.379 . S
C1386 C1383 1.363 . S
C1386 N1384 1.356 . S
C1387 C1381 1.363 . S
C1387 C1382 1.379 . S
C1387 N1385 1.356 . S
N1388 C1380 1.356 . S
N1388 H1394 0.984 1_545 S
N1388 H1395 0.984 . S
N1389 C1382 1.356 . S
N1389 H1392 0.984 . S
N1389 H1393 0.985 . S
H1390 N1385 0.984 . S
H1391 N1385 0.985 . S
H1392 N1389 0.984 . S
H1393 N1389 0.985 . S
H1394 N1388 0.984 1_565 S
H1395 N1388 0.984 . S
H1396 N1384 0.984 1_565 S
H1397 N1384 0.985 . S
C1398 C1399 1.363 . S
C1398 C1404 1.379 . S
C1398 N1406 1.356 . S
C1399 C1398 1.363 . S
C1399 C1405 1.363 . S
C1400 C1401 1.363 . S
C1400 C1405 1.379 . S
C1400 N1407 1.356 . S
C1401 C1400 1.363 . S
C1401 C1404 1.363 . S
N1402 C1404 1.356 . S
N1402 H1414 0.984 . S
N1402 H1415 0.985 . S
N1403 C1405 1.356 . S
N1403 H1408 0.984 . S
N1403 H1409 0.985 . S
C1404 C1398 1.379 . S
C1404 C1401 1.363 . S
C1404 N1402 1.356 . S
C1405 C1399 1.363 . S
C1405 C1400 1.379 . S
C1405 N1403 1.356 . S
N1406 C1398 1.356 . S
N1406 H1412 0.984 . S
N1406 H1413 0.984 . S
N1407 C1400 1.356 . S
N1407 H1410 0.984 . S
N1407 H1411 0.985 . S
H1408 N1403 0.984 . S
H1409 N1403 0.985 . S
H1410 N1407 0.984 . S
H1411 N1407 0.985 . S
H1412 N1406 0.984 . S
H1413 N1406 0.984 . S
H1414 N1402 0.984 . S
H1415 N1402 0.985 . S
C1416 C1417 1.363 . S
C1416 C1422 1.379 . S
C1416 N1424 1.356 . S
C1417 C1416 1.363 . S
C1417 C1423 1.363 . S
C1418 C1419 1.363 . S
C1418 C1423 1.379 . S
C1418 N1425 1.356 . S
C1419 C1418 1.363 . S
C1419 C1422 1.363 . S
N1420 C1422 1.356 . S
N1420 H1432 0.984 . S
N1420 H1433 0.985 . S
N1421 C1423 1.356 1_545 S
N1421 H1426 0.984 . S
N1421 H1427 0.985 . S
C1422 C1416 1.379 . S
C1422 C1419 1.363 . S
C1422 N1420 1.356 . S
C1423 C1417 1.363 . S
C1423 C1418 1.379 . S
C1423 N1421 1.356 1_565 S
N1424 C1416 1.356 . S
N1424 H1430 0.984 . S
N1424 H1431 0.984 . S
N1425 C1418 1.356 . S
N1425 H1428 0.984 . S
N1425 H1429 0.985 1_565 S
H1426 N1421 0.984 . S
H1427 N1421 0.985 . S
H1428 N1425 0.984 . S
H1429 N1425 0.985 1_545 S
H1430 N1424 0.984 . S
H1431 N1424 0.984 . S
H1432 N1420 0.984 . S
H1433 N1420 0.985 . S
C1434 C1435 1.363 . S
C1434 C1440 1.379 . S
C1434 N1442 1.356 . S
C1435 C1434 1.363 . S
C1435 C1441 1.363 . S
C1436 C1437 1.363 . S
C1436 C1441 1.379 . S
C1436 N1443 1.356 . S
C1437 C1436 1.363 . S
C1437 C1440 1.363 . S
N1438 C1440 1.356 . S
N1438 H1450 0.984 . S
N1438 H1451 0.985 . S
N1439 C1441 1.356 . S
N1439 H1444 0.984 . S
N1439 H1445 0.985 . S
C1440 C1434 1.379 . S
C1440 C1437 1.363 . S
C1440 N1438 1.356 . S
C1441 C1435 1.363 . S
C1441 C1436 1.379 . S
C1441 N1439 1.356 . S
N1442 C1434 1.356 . S
N1442 H1448 0.984 . S
N1442 H1449 0.984 . S
N1443 C1436 1.356 . S
N1443 H1446 0.984 . S
N1443 H1447 0.985 . S
H1444 N1439 0.984 . S
H1445 N1439 0.985 . S
H1446 N1443 0.984 . S
H1447 N1443 0.985 . S
H1448 N1442 0.984 . S
H1449 N1442 0.984 . S
H1450 N1438 0.984 . S
H1451 N1438 0.985 . S
C1452 C1453 1.363 . S
C1452 C1458 1.379 . S
C1452 N1460 1.356 . S
C1453 C1452 1.363 . S
C1453 C1459 1.363 . S
C1454 C1455 1.363 1_556 S
C1454 C1459 1.379 1_556 S
C1454 N1461 1.356 . S
C1455 C1454 1.363 1_554 S
C1455 C1458 1.363 . S
N1456 C1458 1.356 . S
N1456 H1468 0.984 . S
N1456 H1469 0.985 . S
N1457 C1459 1.356 1_556 S
N1457 H1462 0.984 1_556 S
N1457 H1463 0.985 . S
C1458 C1452 1.379 . S
C1458 C1455 1.363 . S
C1458 N1456 1.356 . S
C1459 C1453 1.363 . S
C1459 C1454 1.379 1_554 S
C1459 N1457 1.356 1_554 S
N1460 C1452 1.356 . S
N1460 H1466 0.984 . S
N1460 H1467 0.984 . S
N1461 C1454 1.356 . S
N1461 H1464 0.984 . S
N1461 H1465 0.985 . S
H1462 N1457 0.984 1_554 S
H1463 N1457 0.985 . S
H1464 N1461 0.984 . S
H1465 N1461 0.985 . S
H1466 N1460 0.984 . S
H1467 N1460 0.984 . S
H1468 N1456 0.984 . S
H1469 N1456 0.985 . S
C1470 C1471 1.363 . S
C1470 C1476 1.379 . S
C1470 N1478 1.356 . S
C1471 C1470 1.363 . S
C1471 C1477 1.363 . S
C1472 C1473 1.363 . S
C1472 C1477 1.379 . S
C1472 N1479 1.356 . S
C1473 C1472 1.363 . S
C1473 C1476 1.363 . S
N1474 C1476 1.356 . S
N1474 H1486 0.984 . S
N1474 H1487 0.985 . S
N1475 C1477 1.356 . S
N1475 H1480 0.984 . S
N1475 H1481 0.985 . S
C1476 C1470 1.379 . S
C1476 C1473 1.363 . S
C1476 N1474 1.356 . S
C1477 C1471 1.363 . S
C1477 C1472 1.379 . S
C1477 N1475 1.356 . S
N1478 C1470 1.356 . S
N1478 H1484 0.984 . S
N1478 H1485 0.984 . S
N1479 C1472 1.356 . S
N1479 H1482 0.984 . S
N1479 H1483 0.985 . S
H1480 N1475 0.984 . S
H1481 N1475 0.985 . S
H1482 N1479 0.984 . S
H1483 N1479 0.985 . S
H1484 N1478 0.984 . S
H1485 N1478 0.984 . S
H1486 N1474 0.984 . S
H1487 N1474 0.985 . S
C1488 C1489 1.363 . S
C1488 C1494 1.379 . S
C1488 N1496 1.356 . S
C1489 C1488 1.363 . S
C1489 C1495 1.363 . S
C1490 C1491 1.363 . S
C1490 C1495 1.379 . S
C1490 N1497 1.356 . S
C1491 C1490 1.363 . S
C1491 C1494 1.363 . S
N1492 C1494 1.356 . S
N1492 H1504 0.984 . S
N1492 H1505 0.985 . S
N1493 C1495 1.356 . S
N1493 H1498 0.984 . S
N1493 H1499 0.985 . S
C1494 C1488 1.379 . S
C1494 C1491 1.363 . S
C1494 N1492 1.356 . S
C1495 C1489 1.363 . S
C1495 C1490 1.379 . S
C1495 N1493 1.356 . S
N1496 C1488 1.356 . S
N1496 H1502 0.984 . S
N1496 H1503 0.984 . S
N1497 C1490 1.356 . S
N1497 H1500 0.984 . S
N1497 H1501 0.985 . S
H1498 N1493 0.984 . S
H1499 N1493 0.985 . S
H1500 N1497 0.984 . S
H1501 N1497 0.985 . S
H1502 N1496 0.984 . S
H1503 N1496 0.984 . S
H1504 N1492 0.984 . S
H1505 N1492 0.985 . S
C1506 C1507 1.363 . S
C1506 C1512 1.379 . S
C1506 N1514 1.356 . S
C1507 C1506 1.363 . S
C1507 C1513 1.363 . S
C1508 C1509 1.363 . S
C1508 C1513 1.379 . S
C1508 N1515 1.356 . S
C1509 C1508 1.363 . S
C1509 C1512 1.363 . S
N1510 C1512 1.356 . S
N1510 H1522 0.984 . S
N1510 H1523 0.985 . S
N1511 C1513 1.356 . S
N1511 H1516 0.984 . S
N1511 H1517 0.985 . S
C1512 C1506 1.379 . S
C1512 C1509 1.363 . S
C1512 N1510 1.356 . S
C1513 C1507 1.363 . S
C1513 C1508 1.379 . S
C1513 N1511 1.356 . S
N1514 C1506 1.356 . S
N1514 H1520 0.984 . S
N1514 H1521 0.984 . S
N1515 C1508 1.356 . S
N1515 H1518 0.984 . S
N1515 H1519 0.985 . S
H1516 N1511 0.984 . S
H1517 N1511 0.985 . S
H1518 N1515 0.984 . S
H1519 N1515 0.985 . S
H1520 N1514 0.984 . S
H1521 N1514 0.984 . S
H1522 N1510 0.984 . S
H1523 N1510 0.985 . S
C1524 C1525 1.363 . S
C1524 C1530 1.379 . S
C1524 N1532 1.356 . S
C1525 C1524 1.363 . S
C1525 C1531 1.363 . S
C1526 C1527 1.363 . S
C1526 C1531 1.379 . S
C1526 N1533 1.356 . S
C1527 C1526 1.363 . S
C1527 C1530 1.363 . S
N1528 C1530 1.356 . S
N1528 H1540 0.984 . S
N1528 H1541 0.985 . S
N1529 C1531 1.356 . S
N1529 H1534 0.984 . S
N1529 H1535 0.985 . S
C1530 C1524 1.379 . S
C1530 C1527 1.363 . S
C1530 N1528 1.356 . S
C1531 C1525 1.363 . S
C1531 C1526 1.379 . S
C1531 N1529 1.356 . S
N1532 C1524 1.356 . S
N1532 H1538 0.984 . S
N1532 H1539 0.984 . S
N1533 C1526 1.356 . S
N1533 H1536 0.984 . S
N1533 H1537 0.985 . S
H1534 N1529 0.984 . S
H1535 N1529 0.985 . S
H1536 N1533 0.984 . S
H1537 N1533 0.985 . S
H1538 N1532 0.984 . S
H1539 N1532 0.984 . S
H1540 N1528 0.984 . S
H1541 N1528 0.985 . S
C1542 C1543 1.363 . S
C1542 C1548 1.379 . S
C1542 N1550 1.356 . S
C1543 C1542 1.363 . S
C1543 C1549 1.363 . S
C1544 C1545 1.363 . S
C1544 C1549 1.379 . S
C1544 N1551 1.356 . S
C1545 C1544 1.363 . S
C1545 C1548 1.363 . S
N1546 C1548 1.356 . S
N1546 H1558 0.984 . S
N1546 H1559 0.985 . S
N1547 C1549 1.356 . S
N1547 H1552 0.984 . S
N1547 H1553 0.985 . S
C1548 C1542 1.379 . S
C1548 C1545 1.363 . S
C1548 N1546 1.356 . S
C1549 C1543 1.363 . S
C1549 C1544 1.379 . S
C1549 N1547 1.356 . S
N1550 C1542 1.356 . S
N1550 H1556 0.984 . S
N1550 H1557 0.984 . S
N1551 C1544 1.356 . S
N1551 H1554 0.984 . S
N1551 H1555 0.985 . S
H1552 N1547 0.984 . S
H1553 N1547 0.985 . S
H1554 N1551 0.984 . S
H1555 N1551 0.985 . S
H1556 N1550 0.984 . S
H1557 N1550 0.984 . S
H1558 N1546 0.984 . S
H1559 N1546 0.985 . S
C1560 C1561 1.363 . S
C1560 C1566 1.379 . S
C1560 N1568 1.356 . S
C1561 C1560 1.363 . S
C1561 C1567 1.363 . S
C1562 C1563 1.363 . S
C1562 C1567 1.379 . S
C1562 N1569 1.356 . S
C1563 C1562 1.363 . S
C1563 C1566 1.363 . S
N1564 C1566 1.356 . S
N1564 H1576 0.984 . S
N1564 H1577 0.985 . S
N1565 C1567 1.356 . S
N1565 H1570 0.984 . S
N1565 H1571 0.985 . S
C1566 C1560 1.379 . S
C1566 C1563 1.363 . S
C1566 N1564 1.356 . S
C1567 C1561 1.363 . S
C1567 C1562 1.379 . S
C1567 N1565 1.356 . S
N1568 C1560 1.356 . S
N1568 H1574 0.984 . S
N1568 H1575 0.984 . S
N1569 C1562 1.356 . S
N1569 H1572 0.984 . S
N1569 H1573 0.985 . S
H1570 N1565 0.984 . S
H1571 N1565 0.985 . S
H1572 N1569 0.984 . S
H1573 N1569 0.985 . S
H1574 N1568 0.984 . S
H1575 N1568 0.984 . S
H1576 N1564 0.984 . S
H1577 N1564 0.985 . S
C1578 C1579 1.363 . S
C1578 C1584 1.379 . S
C1578 N1586 1.356 . S
C1579 C1578 1.363 . S
C1579 C1585 1.363 . S
C1580 C1581 1.363 . S
C1580 C1585 1.379 . S
C1580 N1587 1.356 . S
C1581 C1580 1.363 . S
C1581 C1584 1.363 . S
N1582 C1584 1.356 . S
N1582 H1594 0.984 . S
N1582 H1595 0.985 . S
N1583 C1585 1.356 . S
N1583 H1588 0.984 . S
N1583 H1589 0.985 . S
C1584 C1578 1.379 . S
C1584 C1581 1.363 . S
C1584 N1582 1.356 . S
C1585 C1579 1.363 . S
C1585 C1580 1.379 . S
C1585 N1583 1.356 . S
N1586 C1578 1.356 . S
N1586 H1592 0.984 . S
N1586 H1593 0.984 . S
N1587 C1580 1.356 . S
N1587 H1590 0.984 . S
N1587 H1591 0.985 . S
H1588 N1583 0.984 . S
H1589 N1583 0.985 . S
H1590 N1587 0.984 . S
H1591 N1587 0.985 . S
H1592 N1586 0.984 . S
H1593 N1586 0.984 . S
H1594 N1582 0.984 . S
H1595 N1582 0.985 . S
C1596 C1597 1.363 . S
C1596 C1602 1.379 . S
C1596 N1604 1.356 . S
C1597 C1596 1.363 . S
C1597 C1603 1.363 . S
C1598 C1599 1.363 . S
C1598 C1603 1.379 . S
C1598 N1605 1.356 . S
C1599 C1598 1.363 . S
C1599 C1602 1.363 . S
N1600 C1602 1.356 . S
N1600 H1612 0.984 . S
N1600 H1613 0.985 . S
N1601 C1603 1.356 . S
N1601 H1606 0.984 . S
N1601 H1607 0.985 . S
C1602 C1596 1.379 . S
C1602 C1599 1.363 . S
C1602 N1600 1.356 . S
C1603 C1597 1.363 . S
C1603 C1598 1.379 . S
C1603 N1601 1.356 . S
N1604 C1596 1.356 . S
N1604 H1610 0.984 . S
N1604 H1611 0.984 . S
N1605 C1598 1.356 . S
N1605 H1608 0.984 . S
N1605 H1609 0.985 . S
H1606 N1601 0.984 . S
H1607 N1601 0.985 . S
H1608 N1605 0.984 . S
H1609 N1605 0.985 . S
H1610 N1604 0.984 . S
H1611 N1604 0.984 . S
H1612 N1600 0.984 . S
H1613 N1600 0.985 . S
C1614 C1615 1.363 . S
C1614 C1620 1.379 . S
C1614 N1622 1.356 . S
C1615 C1614 1.363 . S
C1615 C1621 1.363 1_565 S
C1616 C1617 1.363 . S
C1616 C1621 1.379 1_565 S
C1616 N1623 1.356 1_565 S
C1617 C1616 1.363 . S
C1617 C1620 1.363 . S
N1618 C1620 1.356 . S
N1618 H1630 0.984 . S
N1618 H1631 0.985 . S
N1619 C1621 1.356 . S
N1619 H1624 0.984 . S
N1619 H1625 0.985 . S
C1620 C1614 1.379 . S
C1620 C1617 1.363 . S
C1620 N1618 1.356 . S
C1621 C1615 1.363 1_545 S
C1621 C1616 1.379 1_545 S
C1621 N1619 1.356 . S
N1622 C1614 1.356 . S
N1622 H1628 0.984 . S
N1622 H1629 0.984 . S
N1623 C1616 1.356 1_545 S
N1623 H1626 0.984 1_545 S
N1623 H1627 0.985 . S
H1624 N1619 0.984 . S
H1625 N1619 0.985 . S
H1626 N1623 0.984 1_565 S
H1627 N1623 0.985 . S
H1628 N1622 0.984 . S
H1629 N1622 0.984 . S
H1630 N1618 0.984 . S
H1631 N1618 0.985 . S
C1632 C1633 1.363 . S
C1632 C1638 1.379 . S
C1632 N1640 1.356 . S
C1633 C1632 1.363 . S
C1633 C1639 1.363 . S
C1634 C1635 1.363 . S
C1634 C1639 1.379 . S
C1634 N1641 1.356 . S
C1635 C1634 1.363 . S
C1635 C1638 1.363 . S
N1636 C1638 1.356 . S
N1636 H1648 0.984 . S
N1636 H1649 0.985 . S
N1637 C1639 1.356 . S
N1637 H1642 0.984 . S
N1637 H1643 0.985 . S
C1638 C1632 1.379 . S
C1638 C1635 1.363 . S
C1638 N1636 1.356 . S
C1639 C1633 1.363 . S
C1639 C1634 1.379 . S
C1639 N1637 1.356 . S
N1640 C1632 1.356 . S
N1640 H1646 0.984 . S
N1640 H1647 0.984 . S
N1641 C1634 1.356 . S
N1641 H1644 0.984 . S
N1641 H1645 0.985 . S
H1642 N1637 0.984 . S
H1643 N1637 0.985 . S
H1644 N1641 0.984 . S
H1645 N1641 0.985 . S
H1646 N1640 0.984 . S
H1647 N1640 0.984 . S
H1648 N1636 0.984 . S
H1649 N1636 0.985 . S
C1650 C1651 1.363 . S
C1650 C1656 1.379 . S
C1650 N1658 1.356 . S
C1651 C1650 1.363 . S
C1651 C1657 1.363 . S
C1652 C1653 1.363 . S
C1652 C1657 1.379 . S
C1652 N1659 1.356 1_545 S
C1653 C1652 1.363 . S
C1653 C1656 1.363 . S
N1654 C1656 1.356 . S
N1654 H1666 0.984 . S
N1654 H1667 0.985 . S
N1655 C1657 1.361 . S
N1655 H1660 0.988 . S
N1655 H1661 0.976 1_545 S
C1656 C1650 1.379 . S
C1656 C1653 1.363 . S
C1656 N1654 1.356 . S
C1657 C1651 1.363 . S
C1657 C1652 1.379 . S
C1657 N1655 1.361 . S
N1658 C1650 1.356 . S
N1658 H1664 0.984 . S
N1658 H1665 0.984 . S
N1659 C1652 1.356 1_565 S
N1659 H1662 0.984 1_565 S
N1659 H1663 0.985 . S
H1660 N1655 0.988 . S
H1661 N1655 0.976 1_565 S
H1662 N1659 0.984 1_545 S
H1663 N1659 0.985 . S
H1664 N1658 0.984 . S
H1665 N1658 0.984 . S
H1666 N1654 0.984 . S
H1667 N1654 0.985 . S
C1668 C1669 1.363 . S
C1668 C1674 1.379 . S
C1668 N1676 1.356 . S
C1669 C1668 1.363 . S
C1669 C1675 1.363 . S
C1670 C1671 1.363 . S
C1670 C1675 1.379 . S
C1670 N1677 1.356 . S
C1671 C1670 1.363 . S
C1671 C1674 1.363 . S
N1672 C1674 1.356 . S
N1672 H1684 0.984 . S
N1672 H1685 0.985 . S
N1673 C1675 1.356 . S
N1673 H1678 0.984 . S
N1673 H1679 0.985 . S
C1674 C1668 1.379 . S
C1674 C1671 1.363 . S
C1674 N1672 1.356 . S
C1675 C1669 1.363 . S
C1675 C1670 1.379 . S
C1675 N1673 1.356 . S
N1676 C1668 1.356 . S
N1676 H1682 0.984 . S
N1676 H1683 0.984 . S
N1677 C1670 1.356 . S
N1677 H1680 0.984 . S
N1677 H1681 0.985 . S
H1678 N1673 0.984 . S
H1679 N1673 0.985 . S
H1680 N1677 0.984 . S
H1681 N1677 0.985 . S
H1682 N1676 0.984 . S
H1683 N1676 0.984 . S
H1684 N1672 0.984 . S
H1685 N1672 0.985 . S
C1686 C1687 1.363 . S
C1686 C1692 1.379 . S
C1686 N1694 1.356 . S
C1687 C1686 1.363 . S
C1687 C1693 1.363 1_556 S
C1688 C1689 1.363 1_554 S
C1688 C1693 1.379 . S
C1688 N1695 1.356 . S
C1689 C1688 1.363 1_556 S
C1689 C1692 1.363 . S
N1690 C1692 1.356 . S
N1690 H1702 0.984 . S
N1690 H1703 0.985 . S
N1691 C1693 1.356 . S
N1691 H1696 0.984 . S
N1691 H1697 0.985 . S
C1692 C1686 1.379 . S
C1692 C1689 1.363 . S
C1692 N1690 1.356 . S
C1693 C1687 1.363 1_554 S
C1693 C1688 1.379 . S
C1693 N1691 1.356 . S
N1694 C1686 1.356 . S
N1694 H1700 0.984 . S
N1694 H1701 0.984 . S
N1695 C1688 1.356 . S
N1695 H1698 0.984 . S
N1695 H1699 0.985 . S
H1696 N1691 0.984 . S
H1697 N1691 0.985 . S
H1698 N1695 0.984 . S
H1699 N1695 0.985 . S
H1700 N1694 0.984 . S
H1701 N1694 0.984 . S
H1702 N1690 0.984 . S
H1703 N1690 0.985 . S
C1704 C1705 1.363 . S
C1704 C1710 1.379 . S
C1704 N1712 1.356 . S
C1705 C1704 1.363 . S
C1705 C1711 1.363 1_556 S
C1706 C1707 1.363 1_554 S
C1706 C1711 1.379 . S
C1706 N1713 1.356 . S
C1707 C1706 1.363 1_556 S
C1707 C1710 1.363 . S
N1708 C1710 1.356 . S
N1708 H1720 0.984 . S
N1708 H1721 0.985 . S
N1709 C1711 1.356 . S
N1709 H1714 0.984 . S
N1709 H1715 0.985 . S
C1710 C1704 1.379 . S
C1710 C1707 1.363 . S
C1710 N1708 1.356 . S
C1711 C1705 1.363 1_554 S
C1711 C1706 1.379 . S
C1711 N1709 1.356 . S
N1712 C1704 1.356 . S
N1712 H1718 0.984 . S
N1712 H1719 0.984 . S
N1713 C1706 1.356 . S
N1713 H1716 0.984 . S
N1713 H1717 0.985 . S
H1714 N1709 0.984 . S
H1715 N1709 0.985 . S
H1716 N1713 0.984 . S
H1717 N1713 0.985 . S
H1718 N1712 0.984 . S
H1719 N1712 0.984 . S
H1720 N1708 0.984 . S
H1721 N1708 0.985 . S
C1722 C1723 1.363 . S
C1722 C1728 1.379 . S
C1722 N1730 1.356 1_554 S
C1723 C1722 1.363 . S
C1723 C1729 1.363 . S
C1724 C1725 1.363 . S
C1724 C1729 1.379 . S
C1724 N1731 1.356 . S
C1725 C1724 1.363 . S
C1725 C1728 1.363 . S
N1726 C1728 1.356 1_556 S
N1726 H1738 0.984 . S
N1726 H1739 0.985 . S
N1727 C1729 1.356 . S
N1727 H1732 0.984 . S
N1727 H1733 0.985 . S
C1728 C1722 1.379 . S
C1728 C1725 1.363 . S
C1728 N1726 1.356 1_554 S
C1729 C1723 1.363 . S
C1729 C1724 1.379 . S
C1729 N1727 1.356 . S
N1730 C1722 1.356 1_556 S
N1730 H1736 0.984 . S
N1730 H1737 0.993 . S
N1731 C1724 1.356 . S
N1731 H1734 0.984 . S
N1731 H1735 0.985 . S
H1732 N1727 0.984 . S
H1733 N1727 0.985 . S
H1734 N1731 0.984 . S
H1735 N1731 0.985 . S
H1736 N1730 0.984 . S
H1737 N1730 0.993 . S
H1738 N1726 0.984 . S
H1739 N1726 0.985 . S
C877 C22 1.736 . S
C879 C723 1.685 1_545 S
C897 N740 1.777 . S
C895 C38 1.931 . S
C915 N642 1.817 . S
C913 C75 1.738 . S
C931 C91 1.368 . S
C933 C667 1.360 . S
C949 C128 1.826 . S
C951 C862 1.831 1_554 S
C967 C197 1.569 . S
C969 N822 1.575 . S
C987 N770 1.697 . S
C985 C144 1.869 . S
C1003 C181 1.734 . S
C1005 C796 1.731 . S
C1023 C682 1.861 . S
C1021 C234 1.861 . S
C1041 C727 1.907 . S
C1039 C303 1.907 . S
C1057 C356 1.861 . S
C1059 C706 1.892 . S
C1075 C287 1.917 . S
C1077 C813 1.913 . S
C1095 C843 1.595 . S
C1093 C393 1.623 . S
C1113 N860 1.807 . S
C1111 C409 2.024 . S
C1129 C462 1.890 . S
C1131 N792 1.954 . S
C1149 C757 1.333 1_545 S
C1147 C446 1.320 . S
C1165 C499 1.799 . S
C1167 C742 1.789 . S
C1183 C552 1.464 . S
C1185 N702 1.492 . S
C1203 N680 1.564 . S
C1201 C515 1.750 . S
C1219 C568 1.975 . S
C1221 C646 1.978 . S
C1239 C772 1.925 . S
C1237 C340 1.913 . S
C1257 C847 1.854 . S
C1255 C621 1.853 . S
C1273 C250 1.776 . S
C1275 C826 1.783 1_554 S
C1291 C605 1.881 . S
C1293 C663 1.850 1_655 S
C1311 C637 1.566 . S
C1309 C39 1.515 . S
C1327 C29 0.874 . S
C1329 N672 0.871 1_455 S
C1347 N710 1.344 . S
C1345 C92 1.463 . S
C1365 C753 1.841 . S
C1363 C82 1.738 . S
C1381 C145 1.733 . S
C1383 C652 1.734 . S
C1399 C188 1.464 . S
C1401 C693 1.449 . S
C1419 C697 1.261 . S
C1417 C135 1.248 . S
C1435 C198 1.686 . S
C1437 C736 1.677 . S
C1453 C251 1.212 . S
C1455 N650 1.207 . S
C1473 C712 1.718 . S
C1471 C294 1.679 . S
C1489 C347 1.164 . S
C1491 N732 1.161 . S
C1507 C304 1.703 . S
C1509 C766 1.722 . S
C1527 C787 1.571 . S
C1525 C410 1.557 . S
C1543 C400 0.858 . S
C1545 N762 0.857 . S
C1561 C453 1.144 . S
C1563 N830 1.092 . S
C1579 C463 2.041 . S
C1581 C873 2.091 . S
C1597 C516 1.716 . S
C1599 C802 1.735 . S
C1617 C783 1.815 . S
C1615 C569 1.857 . S
C1633 C506 1.149 . S
C1635 C817 1.137 . S
C1653 C856 1.488 . S
C1651 C559 1.456 . S
C1671 N800 1.103 . S
C1669 C357 1.129 . S
C1689 C832 1.698 . S
C1687 C612 1.666 . S
C1707 N852 1.139 . S
C1705 C241 1.135 . S
C1723 C622 1.628 . S
C1725 C676 1.631 . S
