# Generated by pormake.
# Topology pth, (4,4)-cn, num edge types: 1
# Building blocks:
#     Node 0, Type 0, BuildingBlock: TATPOV_clean_sbu_0, # of connection points: 4
#     Node 1, Type 0, BuildingBlock: TATPOV_clean_sbu_0, # of connection points: 4
#     Node 2, Type 0, BuildingBlock: TATPOV_clean_sbu_0, # of connection points: 4
#     Node 3, Type 1, BuildingBlock: KOZSID_clean_sbu_0, # of connection points: 4
#     Node 4, Type 1, BuildingBlock: KOZSID_clean_sbu_0, # of connection points: 4
#     Node 5, Type 1, BuildingBlock: KOZSID_clean_sbu_0, # of connection points: 4
#     Edge 6, Type (0, 1), BuildingBlock: UVAHIK_clean_linker_0, # of connection points: 2
#     Edge 7, Type (0, 1), BuildingBlock: UVAHIK_clean_linker_0, # of connection points: 2
#     Edge 8, Type (0, 1), BuildingBlock: UVAHIK_clean_linker_0, # of connection points: 2
#     Edge 9, Type (0, 1), BuildingBlock: UVAHIK_clean_linker_0, # of connection points: 2
#     Edge 10, Type (0, 1), BuildingBlock: UVAHIK_clean_linker_0, # of connection points: 2
#     Edge 11, Type (0, 1), BuildingBlock: UVAHIK_clean_linker_0, # of connection points: 2
#     Edge 12, Type (0, 1), BuildingBlock: UVAHIK_clean_linker_0, # of connection points: 2
#     Edge 13, Type (0, 1), BuildingBlock: UVAHIK_clean_linker_0, # of connection points: 2
#     Edge 14, Type (0, 1), BuildingBlock: UVAHIK_clean_linker_0, # of connection points: 2
#     Edge 15, Type (0, 1), BuildingBlock: UVAHIK_clean_linker_0, # of connection points: 2
#     Edge 16, Type (0, 1), BuildingBlock: UVAHIK_clean_linker_0, # of connection points: 2
#     Edge 17, Type (0, 1), BuildingBlock: UVAHIK_clean_linker_0, # of connection points: 2
# Relax obj value: 0.036
# Max RMSD: 0.163
# Mean RMSD: 0.080
data_MOF--net-pth--node1-TATPOV_clean_sbu_0--node2-KOZSID_clean_sbu_0--edge1-UVAHIK_clean_linker_0
_symmetry_space_group_name_H-M    P1
_symmetry_Int_Tables_number       1
_symmetry_cell_setting            triclinic
loop_
_symmetry_equiv_pos_as_xyz
'x, y, z'
_cell_length_a     33.853296
_cell_length_b     33.538042
_cell_length_c     74.671702
_cell_angle_alpha  90.25311
_cell_angle_beta   90.091131
_cell_angle_gamma 121.03572
loop_
_atom_site_label
_atom_site_type_symbol
_atom_site_fract_x
_atom_site_fract_y
_atom_site_fract_z
_atom_type_partial_charge
Zn0 Zn 0.16342 0.02296 0.01281 0.0
Zn1 Zn 0.13151 0.06785 0.03224 0.0
O2 O 0.14383 0.02997 0.05073 0.0
O3 O 0.17557 0.9978 0.03527 0.0
O4 O 0.11243 0.10414 0.04778 0.0
O5 O 0.21227 0.08369 0.00205 0.0
O6 O 0.18717 0.12001 0.01886 0.0
C7 C 0.16174 0.0046 0.05007 0.0
C8 C 0.06859 0.99552 0.00475 0.0
O9 O 0.07557 0.02709 0.01606 0.0
O10 O 0.10005 0.98673 0.00141 0.0
C11 C 0.09273 0.12479 0.0416 0.0
O12 O 0.08271 0.12119 0.02444 0.0
C13 C 0.21515 0.12113 0.0072 0.0
Zn14 Zn 0.13905 0.14756 0.33541 0.0
Zn15 Zn 0.07246 0.10774 0.36045 0.0
O16 O 0.13062 0.12335 0.37464 0.0
O17 O 0.18482 0.1517 0.35407 0.0
O18 O 0.02188 0.08435 0.37872 0.0
O19 O 0.12645 0.19981 0.3318 0.0
O20 O 0.06818 0.16192 0.35017 0.0
C21 C 0.17237 0.13935 0.37009 0.0
C22 C 0.06795 0.05173 0.32763 0.0
O23 O 0.05308 0.05326 0.34312 0.0
O24 O 0.10228 0.08767 0.32104 0.0
C25 C 0.02948 0.10576 0.39358 0.0
O26 O 0.07137 0.14013 0.39728 0.0
C27 C 0.09128 0.19565 0.33954 0.0
Zn28 Zn 0.10017 0.95242 0.71237 0.0
Zn29 Zn 0.06455 0.99495 0.69396 0.0
O30 O 0.11035 0.99472 0.67583 0.0
O31 O 0.14031 0.96061 0.69113 0.0
O32 O 0.03006 0.01947 0.68043 0.0
O33 O 0.03833 0.89411 0.71568 0.0
O34 O 0.00988 0.93211 0.7023 0.0
C35 C 0.13865 0.98047 0.67699 0.0
C36 C 0.11891 0.03993 0.72813 0.0
O37 O 0.09791 0.042 0.7143 0.0
O38 O 0.12292 0.0048 0.73062 0.0
C39 C 0.0446 0.04781 0.66743 0.0
O40 O 0.08724 0.06549 0.66192 0.0
C41 C 0.00384 0.89594 0.71032 0.0
C42 C 0.09296 0.62966 0.17804 0.0
C43 C 0.13959 0.66318 0.17718 0.0
C44 C 0.16162 0.6501 0.18892 0.0
C45 C 0.12737 0.60979 0.19637 0.0
N46 N 0.08478 0.59575 0.18988 0.0
Co47 Co 0.02469 0.54183 0.19836 0.0
N48 N 0.05672 0.52617 0.21718 0.0
C49 C 0.10275 0.54613 0.21962 0.0
C50 C 0.11452 0.52719 0.23332 0.0
C51 C 0.0736 0.49325 0.24014 0.0
C52 C 0.03902 0.49373 0.23024 0.0
N53 N 0.96446 0.4891 0.20735 0.0
C54 C 0.95541 0.4613 0.22178 0.0
C55 C 0.90848 0.43046 0.22382 0.0
C56 C 0.88703 0.43913 0.2102 0.0
C57 C 0.92193 0.47477 0.20072 0.0
N58 N 0.9929 0.5569 0.17922 0.0
C59 C 0.94752 0.53258 0.17496 0.0
C60 C 0.9359 0.55191 0.16133 0.0
C61 C 0.97613 0.59123 0.15676 0.0
C62 C 0.01003 0.5937 0.16799 0.0
N63 N 0.0304 0.49903 0.18135 0.0
C64 C 0.03839 0.43769 0.15766 0.0
C65 C 0.99589 0.43389 0.16058 0.0
C66 C 0.99268 0.46449 0.17242 0.0
C67 C 0.07687 0.47288 0.16665 0.0
C68 C 0.07219 0.50297 0.17824 0.0
N69 N 0.01903 0.58434 0.21517 0.0
C70 C 0.97797 0.62139 0.22537 0.0
C71 C 0.01453 0.65104 0.2367 0.0
C72 C 0.05243 0.64502 0.23763 0.0
C73 C 0.05411 0.61199 0.22676 0.0
C74 C 0.98069 0.58821 0.21498 0.0
H75 H 0.08447 0.60994 0.22772 0.0
H76 H 0.95179 0.56673 0.20656 0.0
H77 H 0.95918 0.45913 0.17411 0.0
H78 H 0.10302 0.52906 0.18447 0.0
C79 C 0.13392 0.58532 0.20995 0.0
C80 C 0.05756 0.63257 0.16799 0.0
C81 C 0.99002 0.46339 0.23402 0.0
C82 C 0.91599 0.49551 0.18557 0.0
H83 H 0.15605 0.6945 0.16922 0.0
H84 H 0.1981 0.66849 0.19203 0.0
H85 H 0.14876 0.53763 0.23808 0.0
H86 H 0.06977 0.47114 0.25132 0.0
H87 H 0.89153 0.40462 0.23417 0.0
H88 H 0.85034 0.4218 0.20761 0.0
H89 H 0.90189 0.53999 0.1559 0.0
H90 H 0.97991 0.616 0.14665 0.0
H91 H 0.96496 0.40685 0.15403 0.0
H92 H 0.11071 0.47761 0.16462 0.0
H93 H 0.94786 0.62456 0.22401 0.0
H94 H 0.08113 0.66605 0.24656 0.0
C95 C 0.51203 0.04656 0.55553 0.0
C96 C 0.47611 0.00307 0.56066 0.0
C97 C 0.47984 0.97107 0.55068 0.0
C98 C 0.51745 0.99669 0.54001 0.0
N99 N 0.53863 0.04315 0.54279 0.0
Co100 Co 0.59187 0.09324 0.52904 0.0
N101 N 0.59568 0.04611 0.51363 0.0
C102 C 0.56932 -0.00077 0.51487 0.0
C103 C 0.58208 0.97583 0.50347 0.0
C104 C 0.6194 0.00971 0.49459 0.0
C105 C 0.62701 0.05208 0.50102 0.0
N106 N 0.6439 0.14334 0.51485 0.0
C107 C 0.66946 0.14005 0.50163 0.0
C108 C 0.7021 0.1835 0.49515 0.0
C109 C 0.6977 0.21548 0.50492 0.0
C110 C 0.66257 0.18983 0.51667 0.0
N111 N 0.58926 0.14031 0.5449 0.0
C112 C 0.61787 0.18706 0.54459 0.0
C113 C 0.60706 0.21025 0.55696 0.0
C114 C 0.56897 0.17635 0.56554 0.0
C115 C 0.55862 0.13435 0.5578 0.0
N116 N 0.63662 0.0918 0.54587 0.0
C117 C 0.70377 0.08967 0.56755 0.0
C118 C 0.71031 0.13168 0.56114 0.0
C119 C 0.67655 0.13197 0.55051 0.0
C120 C 0.66239 0.04881 0.56337 0.0
C121 C 0.62956 0.05065 0.55258 0.0
N122 N 0.54725 0.09484 0.51219 0.0
C123 C 0.51479 0.13697 0.49859 0.0
C124 C 0.48155 0.09692 0.48973 0.0
C125 C 0.48199 0.0559 0.49198 0.0
C126 C 0.51466 0.0555 0.50335 0.0
C127 C 0.5474 0.13532 0.50947 0.0
H128 H 0.51256 0.0229 0.50489 0.0
H129 H 0.57217 0.1673 0.51559 0.0
H130 H 0.68387 0.16516 0.54603 0.0
H131 H 0.59909 0.01825 0.54963 0.0
C132 C 0.53325 0.97821 0.52709 0.0
C133 C 0.51804 0.09004 0.56248 0.0
C134 C 0.66573 0.09694 0.49543 0.0
C135 C 0.65027 0.20832 0.53094 0.0
H136 H 0.44931 0.99522 0.57032 0.0
H137 H 0.45723 0.93363 0.55088 0.0
H138 H 0.56673 0.93856 0.50207 0.0
H139 H 0.63924 0.00362 0.4848 0.0
H140 H 0.72735 0.19127 0.48479 0.0
H141 H 0.71887 0.25299 0.50407 0.0
H142 H 0.62358 0.24748 0.55893 0.0
H143 H 0.55002 0.18195 0.57592 0.0
H144 H 0.74141 0.16437 0.56433 0.0
H145 H 0.65581 0.01536 0.56798 0.0
H146 H 0.51596 0.16966 0.49696 0.0
H147 H 0.45665 0.02406 0.4853 0.0
C148 C 0.6223 0.58876 0.82671 0.0
C149 C 0.65109 0.57509 0.81923 0.0
C150 C 0.65392 0.54613 0.83122 0.0
C151 C 0.62673 0.54361 0.84525 0.0
N152 N 0.60661 0.56918 0.84295 0.0
Co153 Co 0.56257 0.57344 0.85965 0.0
N154 N 0.56782 0.53181 0.87736 0.0
C155 C 0.59761 0.51634 0.87685 0.0
C156 C 0.59468 0.4902 0.89141 0.0
C157 C 0.56059 0.48844 0.90172 0.0
C158 C 0.54438 0.51335 0.8927 0.0
N159 N 0.51615 0.57502 0.8759 0.0
C160 C 0.49483 0.54918 0.89059 0.0
C161 C 0.46131 0.55766 0.89694 0.0
C162 C 0.46135 0.58991 0.88583 0.0
C163 C 0.49439 0.59888 0.87329 0.0
N164 N 0.55933 0.61716 0.84234 0.0
C165 C 0.5354 0.63901 0.84437 0.0
C166 C 0.54165 0.66879 0.83067 0.0
C167 C 0.57183 0.66623 0.8193 0.0
C168 C 0.58216 0.63485 0.82676 0.0
N169 N 0.5112 0.5191 0.84726 0.0
C170 C 0.43705 0.44076 0.83054 0.0
C171 C 0.43757 0.48258 0.83201 0.0
C172 C 0.47469 0.52103 0.84037 0.0
C173 C 0.47448 0.43901 0.83749 0.0
C174 C 0.51088 0.47824 0.84572 0.0
N175 N 0.61416 0.6279 0.87228 0.0
C176 C 0.64185 0.696 0.89129 0.0
C177 C 0.6841 0.69874 0.89372 0.0
C178 C 0.69169 0.66722 0.88431 0.0
C179 C 0.65668 0.63248 0.87379 0.0
C180 C 0.60783 0.6609 0.88047 0.0
H181 H 0.66488 0.60941 0.86729 0.0
H182 H 0.57647 0.6608 0.87928 0.0
H183 H 0.47298 0.55187 0.84124 0.0
H184 H 0.53843 0.47472 0.85078 0.0
C185 C 0.623 0.52137 0.86146 0.0
C186 C 0.61407 0.62327 0.81857 0.0
C187 C 0.50425 0.51518 0.89846 0.0
C188 C 0.50538 0.6288 0.85875 0.0
H189 H 0.66933 0.586 0.80664 0.0
H190 H 0.67452 0.53005 0.83011 0.0
H191 H 0.61354 0.4727 0.89382 0.0
H192 H 0.54784 0.46952 0.91413 0.0
H193 H 0.43862 0.54172 0.90823 0.0
H194 H 0.4392 0.60431 0.88658 0.0
H195 H 0.52584 0.68957 0.82906 0.0
H196 H 0.58476 0.68519 0.80691 0.0
H197 H 0.40915 0.48553 0.82699 0.0
H198 H 0.47606 0.40764 0.83641 0.0
H199 H 0.63427 0.71978 0.89816 0.0
H200 H 0.72443 0.66883 0.88521 0.0
C201 C 0.10047 0.16368 0.07117 0.0
C202 C 0.08382 0.15478 0.05346 0.0
C203 C 0.09427 0.19382 0.08214 0.0
C204 C 0.0236 0.24689 0.08839 0.0
H205 H 0.12878 0.33913 0.11592 0.0
C206 C 0.01998 0.3928 0.12875 0.0
C207 C 0.04257 0.40502 0.14544 0.0
C208 C 0.0244 0.36236 0.11722 0.0
C209 C 0.09886 0.31322 0.10852 0.0
H210 H 0.04667 0.16981 0.03352 0.0
H211 H 0.03561 0.22235 0.05279 0.0
H212 H 0.13682 0.28515 0.09656 0.0
H213 H 0.0865 0.39399 0.16332 0.0
H214 H 0.09365 0.3404 0.14339 0.0
H215 H 0.98541 0.27449 0.10054 0.0
C216 C 0.05344 0.20589 0.05814 0.0
C217 C 0.10354 0.28236 0.09739 0.0
C218 C 0.05996 0.17596 0.04709 0.0
C219 C 0.06929 0.38582 0.15042 0.0
C220 C 0.07346 0.35518 0.13897 0.0
C221 C 0.0188 0.2776 0.09964 0.0
C222 C 0.07101 0.21553 0.07571 0.0
C223 C 0.06593 0.24872 0.08727 0.0
C224 C 0.05126 0.34321 0.12217 0.0
C225 C 0.05635 0.31102 0.10991 0.0
H226 H 0.11892 0.14788 0.07653 0.0
H227 H 0.10764 0.20009 0.09571 0.0
H228 H 0.9939 0.22105 0.08086 0.0
H229 H -0.00044 0.40746 0.12447 0.0
H230 H 0.00737 0.35447 0.10429 0.0
C231 C 0.94503 0.07104 0.39899 0.0
C232 C 0.99068 0.09691 0.40533 0.0
C233 C 0.90892 0.06791 0.40914 0.0
C234 C 0.87452 0.08102 0.45435 0.0
H235 H 0.79477 0.11407 0.42953 0.0
C236 C 0.74666 0.11459 0.49261 0.0
C237 C 0.70344 0.0987 0.48472 0.0
C238 C 0.7816 0.11393 0.48293 0.0
C239 C 0.81618 0.10404 0.43664 0.0
H240 H 0.03394 0.13766 0.42768 0.0
H241 H 0.97064 0.1315 0.44552 0.0
H242 H 0.85449 0.10983 0.41301 0.0
H243 H 0.66263 0.07096 0.46059 0.0
H244 H 0.72302 0.06825 0.44373 0.0
H245 H 0.83593 0.07445 0.47793 0.0
C246 C 0.96294 0.11397 0.43265 0.0
C247 C 0.85045 0.1017 0.42715 0.0
C248 C -0.00084 0.1176 0.42241 0.0
C249 C 0.69582 0.08318 0.4669 0.0
C250 C 0.73053 0.08198 0.45726 0.0
C251 C 0.83988 0.08282 0.46381 0.0
C252 C 0.91765 0.09004 0.42592 0.0
C253 C 0.88009 0.09039 0.43593 0.0
C254 C 0.77379 0.09701 0.4652 0.0
C255 C 0.81042 0.09464 0.4551 0.0
H256 H 0.93733 0.05467 0.38589 0.0
H257 H 0.8742 0.04879 0.40375 0.0
H258 H 0.89671 0.07186 0.4614 0.0
H259 H 0.75315 0.12697 0.50635 0.0
H260 H 0.81472 0.12673 0.48936 0.0
C261 C 0.95017 0.8188 0.72424 0.0
C262 C 0.95683 0.8587 0.7154 0.0
C263 C 0.90786 0.78798 0.73212 0.0
C264 C 0.78551 0.75537 0.73657 0.0
H265 H 0.80389 0.73167 0.78578 0.0
C266 C 0.68491 0.69529 0.80878 0.0
C267 C 0.64543 0.6529 0.8042 0.0
C268 C 0.71909 0.71974 0.79607 0.0
C269 C 0.79817 0.73818 0.77209 0.0
H270 H 0.92301 0.89533 0.70656 0.0
H271 H 0.84928 0.84174 0.72052 0.0
H272 H 0.86976 0.77122 0.76599 0.0
H273 H 0.60896 0.60345 0.78285 0.0
H274 H 0.669 0.64652 0.76036 0.0
H275 H 0.71359 0.72272 0.74301 0.0
C276 C 0.87676 0.83424 0.72131 0.0
C277 C 0.83584 0.76022 0.76066 0.0
C278 C 0.91912 0.86507 0.71337 0.0
C279 C 0.63921 0.63639 0.78651 0.0
C280 C 0.67344 0.66096 0.77373 0.0
C281 C 0.74754 0.73285 0.74805 0.0
C282 C 0.87132 0.79645 0.73138 0.0
C283 C 0.8301 0.76945 0.74282 0.0
C284 C 0.71437 0.70211 0.77856 0.0
C285 C 0.75371 0.72472 0.766 0.0
H286 H 0.97828 0.81245 0.72583 0.0
H287 H 0.90435 0.75854 0.73946 0.0
H288 H 0.78005 0.76192 0.72287 0.0
H289 H 0.69021 0.70835 0.82241 0.0
H290 H 0.74996 0.75174 0.80008 0.0
C291 C 0.13858 0.97808 0.08177 0.0
C292 C 0.16193 0.9788 0.0661 0.0
C293 C 0.13264 0.94784 0.09576 0.0
C294 C 0.17073 0.86847 0.11269 0.0
H295 H 0.04514 0.79574 0.12999 0.0
C296 C 0.09677 0.68594 0.14226 0.0
C297 C 0.07003 0.67524 0.15777 0.0
C298 C 0.11062 0.72735 0.13316 0.0
C299 C 0.08052 0.81617 0.1255 0.0
H300 H 0.19993 0.95054 0.05336 0.0
H301 H 0.1892 0.89781 0.07751 0.0
H302 H 0.06743 0.86322 0.11113 0.0
H303 H 0.03548 0.69792 0.17582 0.0
H304 H 0.05917 0.77052 0.15972 0.0
H305 H 0.18323 0.82024 0.12654 0.0
C306 C 0.17567 0.92066 0.07914 0.0
C307 C 0.09339 0.85498 0.11475 0.0
C308 C 0.18157 0.95076 0.06519 0.0
C309 C 0.05619 0.70579 0.16384 0.0
C310 C 0.06972 0.74712 0.15466 0.0
C311 C 0.15777 0.82953 0.12334 0.0
C312 C 0.15006 0.91787 0.09438 0.0
C313 C 0.13838 0.88095 0.10787 0.0
C314 C 0.0975 0.75854 0.13933 0.0
C315 C 0.11227 0.80237 0.12952 0.0
H316 H 0.12323 -0.00059 0.08295 0.0
H317 H 0.11337 0.94706 0.10745 0.0
H318 H 0.20588 0.88824 0.10791 0.0
H319 H 0.10739 0.66247 0.13733 0.0
H320 H 0.13127 0.7348 0.1212 0.0
C321 C 0.24453 0.13927 0.37701 0.0
C322 C 0.20549 0.1397 0.38311 0.0
C323 C 0.27351 0.13481 0.38909 0.0
C324 C 0.31581 0.15545 0.43451 0.0
H325 H 0.33338 0.05105 0.42722 0.0
C326 C 0.41987 0.11563 0.48494 0.0
C327 C 0.44688 0.09842 0.47818 0.0
C328 C 0.3885 0.11908 0.47386 0.0
C329 C 0.32958 0.08085 0.42933 0.0
H330 H 0.1672 0.13766 0.4067 0.0
H331 H 0.21912 0.13146 0.42793 0.0
H332 H 0.28432 0.0629 0.40671 0.0
H333 H 0.46273 0.07143 0.45468 0.0
H334 H 0.40958 0.07929 0.43502 0.0
H335 H 0.36247 0.17494 0.45659 0.0
C336 C 0.22662 0.13388 0.41375 0.0
C337 C 0.3012 0.08737 0.41763 0.0
C338 C 0.19699 0.13735 0.40162 0.0
C339 C 0.44186 0.08438 0.4602 0.0
C340 C 0.41117 0.08871 0.449 0.0
C341 C 0.34499 0.14955 0.44603 0.0
C342 C 0.26458 0.13169 0.40752 0.0
C343 C 0.29414 0.12471 0.42012 0.0
C344 C 0.38415 0.1063 0.45565 0.0
C345 C 0.35233 0.11214 0.44359 0.0
H346 H 0.25189 0.14078 0.36283 0.0
H347 H 0.3028 0.13351 0.38403 0.0
H348 H 0.31104 0.1847 0.43659 0.0
H349 H 0.42294 0.12626 0.49885 0.0
H350 H 0.36764 0.13171 0.47963 0.0
C351 C 0.15059 0.12398 0.73593 0.0
C352 C 0.14158 0.07963 0.74079 0.0
C353 C 0.17718 0.16246 0.74708 0.0
C354 C 0.26633 0.20057 0.78221 0.0
H355 H 0.24752 0.30461 0.78775 0.0
C356 C 0.38137 0.35463 0.82876 0.0
C357 C 0.39804 0.3993 0.82171 0.0
C358 C 0.34626 0.31536 0.82002 0.0
C359 C 0.25329 0.27588 0.78624 0.0
H360 H 0.15066 0.04028 0.7617 0.0
H361 H 0.19588 0.10692 0.78127 0.0
H362 H 0.19164 0.23591 0.77068 0.0
H363 H 0.39027 0.43774 0.80008 0.0
H364 H 0.32883 0.36907 0.78483 0.0
H365 H 0.328 0.24042 0.79759 0.0
C366 C 0.18371 0.11238 0.76862 0.0
C367 C 0.22134 0.23657 0.77646 0.0
C368 C 0.15754 0.07411 0.75744 0.0
C369 C 0.3779 0.40387 0.80596 0.0
C370 C 0.34268 0.36455 0.79723 0.0
C371 C 0.29805 0.23965 0.79201 0.0
C372 C 0.19499 0.15723 0.76336 0.0
C373 C 0.22759 0.1985 0.77429 0.0
C374 C 0.32693 0.31983 0.80403 0.0
C375 C 0.29203 0.27782 0.79409 0.0
H376 H 0.13881 0.12936 0.72318 0.0
H377 H 0.18544 0.19654 0.74257 0.0
H378 H 0.27287 0.1724 0.78048 0.0
H379 H 0.39547 0.34997 0.84106 0.0
H380 H 0.3343 0.28142 0.82576 0.0
C381 C 0.96613 0.03672 0.66342 0.0
C382 C 0.01239 0.05815 0.65799 0.0
C383 C 0.93481 0.04415 0.65404 0.0
C384 C 0.91576 0.07981 0.60977 0.0
H385 H 0.81958 0.08766 0.63473 0.0
C386 C 0.7868 0.11593 0.5732 0.0
C387 C 0.74027 0.08859 0.57822 0.0
C388 C 0.82126 0.11484 0.58311 0.0
C389 C 0.84602 0.08516 0.62757 0.0
H390 H 0.06222 0.10516 0.63864 0.0
H391 H 0.00755 0.11867 0.62238 0.0
H392 H 0.87838 0.08287 0.65186 0.0
H393 H 0.69352 0.03902 0.5977 0.0
H394 H 0.75372 0.03679 0.61495 0.0
H395 H 0.88325 0.082 0.58548 0.0
C396 C 0.9954 0.09549 0.63376 0.0
C397 C 0.87974 0.08241 0.63737 0.0
C398 C 0.02681 0.08798 0.64314 0.0
C399 C 0.72901 0.06022 0.59342 0.0
C400 C 0.76353 0.05932 0.60339 0.0
C401 C 0.88213 0.08274 0.59997 0.0
C402 C 0.94892 0.07333 0.63901 0.0
C403 C 0.91476 0.07921 0.6286 0.0
C404 C 0.81004 0.08654 0.59833 0.0
C405 C 0.84664 0.085 0.60876 0.0
H406 H 0.95374 0.01343 0.67477 0.0
H407 H 0.89919 0.02596 0.65832 0.0
H408 H 0.94177 0.07667 0.60256 0.0
H409 H 0.79656 0.13779 0.56145 0.0
H410 H 0.85679 0.13647 0.57894 0.0
C411 C 0.0097 0.92316 0.9892 0.0
C412 C 0.02357 0.96795 0.99562 0.0
C413 C 0.96778 0.8968 0.98025 0.0
C414 C 0.88793 0.90445 0.95121 0.0
H415 H 0.80442 0.77625 0.96492 0.0
C416 C 0.7272 0.77789 0.90854 0.0
C417 C 0.7192 0.73255 0.90655 0.0
C418 C 0.75989 0.80898 0.9209 0.0
C419 C 0.82748 0.81187 0.96082 0.0
H420 H 0.00451 0.02038 0.99772 0.0
H421 H 0.93118 0.97433 0.98139 0.0
H422 H 0.87003 0.82676 0.98409 0.0
H423 H 0.73881 0.68426 0.91631 0.0
H424 H 0.79667 0.73861 0.93713 0.0
H425 H 0.84706 0.88898 0.92741 0.0
C426 C 0.95282 0.95973 0.98359 0.0
C427 C 0.86477 0.84081 0.97189 0.0
C428 C 0.99454 0.98588 0.99294 0.0
C429 C 0.74453 0.71909 0.91723 0.0
C430 C 0.77723 0.75011 0.92945 0.0
C431 C 0.85086 0.87527 0.93997 0.0
C432 C 0.93914 0.91491 0.97725 0.0
C433 C 0.89593 0.88697 0.96696 0.0
C434 C 0.78526 0.79539 0.93153 0.0
C435 C 0.82096 0.82823 0.94442 0.0
H436 H 0.03122 0.90832 0.99114 0.0
H437 H 0.95814 0.86249 0.97533 0.0
H438 H 0.91175 0.93991 0.94711 0.0
H439 H 0.70855 0.78953 0.90044 0.0
H440 H 0.76504 0.84352 0.92221 0.0
C441 C 0.03137 0.96529 0.32698 0.0
C442 C 0.04801 0.0073 0.31775 0.0
C443 C 0.01978 0.92439 0.31766 0.0
C444 C 0.04639 0.88869 0.27444 0.0
H445 H 0.96086 0.76471 0.29189 0.0
C446 C 0.0553 0.73239 0.24915 0.0
C447 C 0.01419 0.68939 0.24672 0.0
C448 C 0.05509 0.76926 0.25774 0.0
C449 C 0.98446 0.79902 0.28666 0.0
H450 H 0.06181 0.03902 0.29155 0.0
H451 H 0.03907 0.9674 0.27517 0.0
H452 H 0.96352 0.83161 0.30604 0.0
H453 H 0.9406 0.65144 0.25195 0.0
H454 H 0.93993 0.71658 0.26613 0.0
H455 H 0.06614 0.85634 0.25466 0.0
C456 C 0.03705 0.96611 0.28964 0.0
C457 C 0.98644 0.83753 0.29495 0.0
C458 C 0.0497 0.00714 0.29899 0.0
C459 C 0.97286 0.68421 0.25331 0.0
C460 C 0.97255 0.72145 0.26169 0.0
C461 C 0.04389 0.8503 0.26601 0.0
C462 C 0.02373 0.92456 0.29888 0.0
C463 C 0.01802 0.88298 0.28914 0.0
C464 C 0.01365 0.76462 0.26386 0.0
C465 C 0.01366 0.80501 0.27223 0.0
H466 H 0.02996 0.96457 0.34148 0.0
H467 H 0.01012 0.89335 0.32531 0.0
H468 H 0.07174 0.92296 0.26968 0.0
H469 H 0.08775 0.73815 0.24406 0.0
H470 H 0.08762 0.80156 0.25952 0.0
C471 C 0.17471 0.01556 0.64725 0.0
C472 C 0.17329 0.9913 0.66281 0.0
C473 C 0.21119 0.03054 0.63511 0.0
C474 C 0.33228 0.06483 0.6344 0.0
H475 H 0.3174 0.03761 0.5835 0.0
C476 C 0.47763 0.07501 0.59178 0.0
C477 C 0.48176 0.08889 0.5739 0.0
C478 C 0.44077 0.06941 0.60208 0.0
C479 C 0.32223 0.04635 0.59762 0.0
H480 H 0.20811 0.96208 0.67734 0.0
H481 H 0.27137 0.9885 0.65636 0.0
H482 H 0.24941 0.01439 0.60204 0.0
H483 H 0.45239 0.10939 0.55271 0.0
H484 H 0.38793 0.10047 0.57084 0.0
H485 H 0.40476 0.09661 0.63019 0.0
C486 C 0.24458 0.99624 0.65363 0.0
C487 C 0.28327 0.03289 0.60821 0.0
C488 C 0.20809 0.98086 0.66558 0.0
C489 C 0.44954 0.09863 0.56655 0.0
C490 C 0.41262 0.09315 0.57686 0.0
C491 C 0.37113 0.07865 0.62383 0.0
C492 C 0.24703 0.02202 0.63849 0.0
C493 C 0.28795 0.0409 0.62677 0.0
C494 C 0.40745 0.07784 0.5947 0.0
C495 C 0.36655 0.06844 0.60541 0.0
H496 H 0.14843 0.02412 0.64471 0.0
H497 H 0.21231 0.05024 0.62347 0.0
H498 H 0.33683 0.07218 0.64864 0.0
H499 H 0.50218 0.06714 0.59758 0.0
H500 H 0.43755 0.05687 0.61565 0.0
C501 C 0.25649 0.20838 0.00531 0.0
C502 C 0.24932 0.16571 -0.00118 0.0
C503 C 0.28688 0.25001 0.99659 0.0
C504 C 0.38053 0.29966 0.96246 0.0
H505 H 0.34416 0.39111 0.95606 0.0
C506 C 0.44925 0.43212 0.90567 0.0
C507 C 0.47126 0.47901 0.91091 0.0
C508 C 0.42309 0.39705 0.91792 0.0
C509 C 0.35484 0.366 0.95793 0.0
H510 H 0.26875 0.1334 0.97816 0.0
H511 H 0.32024 0.20518 0.96276 0.0
H512 H 0.29807 0.32359 0.97517 0.0
H513 H 0.48287 0.52646 0.93278 0.0
H514 H 0.43512 0.46457 0.95423 0.0
H515 H 0.4359 0.34101 0.94446 0.0
C516 C 0.30356 0.20703 0.97483 0.0
C517 C 0.3287 0.32748 0.96893 0.0
C518 C 0.27367 0.16564 0.98362 0.0
C519 C 0.46545 0.49045 0.92843 0.0
C520 C 0.43848 0.45524 0.94065 0.0
C521 C 0.40609 0.33765 0.95127 0.0
C522 C 0.31044 0.24977 0.98111 0.0
C523 C 0.34072 0.29331 0.97103 0.0
C524 C 0.41801 0.40829 0.93556 0.0
C525 C 0.393 0.37064 0.94867 0.0
H526 H 0.23838 0.20962 0.01704 0.0
H527 H 0.29178 0.28231 0.00195 0.0
H528 H 0.39163 0.27485 0.96414 0.0
H529 H 0.45357 0.42266 0.89223 0.0
H530 H 0.4073 0.36105 0.91369 0.0
C531 C 0.03015 0.21667 0.33993 0.0
C532 C 0.07476 0.22757 0.33506 0.0
C533 C 0.01234 0.24358 0.33373 0.0
C534 C 0.04443 0.35621 0.31297 0.0
H535 H 0.92792 0.28587 0.2876 0.0
C536 C 0.9645 0.38534 0.24678 0.0
C537 C 0.97659 0.43163 0.24951 0.0
C538 C 0.96418 0.35873 0.26117 0.0
C539 C 0.96019 0.306 0.29481 0.0
H540 H 0.13658 0.27677 0.32076 0.0
H541 H 0.10566 0.32377 0.31007 0.0
H542 H 0.9552 0.24514 0.30625 0.0
H543 H 0.99433 0.48574 0.26923 0.0
H544 H 0.99341 0.4391 0.29458 0.0
H545 H 0.05087 0.41675 0.30077 0.0
C546 C 0.08442 0.29445 0.31866 0.0
C547 C 0.97567 0.28275 0.30558 0.0
C548 C 0.10204 0.26733 0.32469 0.0
C549 C 0.98465 0.44989 0.26696 0.0
C550 C 0.98449 0.42337 0.28136 0.0
C551 C 0.02886 0.37946 0.3023 0.0
C552 C 0.03903 0.28223 0.32276 0.0
C553 C 0.01874 0.3075 0.31424 0.0
C554 C 0.97628 0.37824 0.27849 0.0
C555 C 0.98736 0.35445 0.2926 0.0
H556 H 0.00826 0.18631 0.34795 0.0
H557 H 0.97738 0.2336 0.3372 0.0
H558 H 0.07752 0.37619 0.31964 0.0
H559 H 0.95872 0.37097 0.23335 0.0
H560 H 0.95813 0.32426 0.25847 0.0
loop_
_geom_bond_atom_site_label_1
_geom_bond_atom_site_label_2
_geom_bond_distance
_geom_bond_site_symmetry_2
_ccdc_geom_bond_type
Zn0 O3 2.031 . S
Zn0 O5 2.049 1_554 S
Zn0 O10 2.067 . S
Zn1 O2 1.962 . S
Zn1 O4 1.986 . S
Zn1 O6 1.996 . S
Zn1 O9 1.943 . S
O2 Zn1 1.962 . S
O2 C7 1.254 . S
O3 Zn0 2.031 . S
O3 C7 1.269 . S
O4 Zn1 1.986 . S
O4 C11 1.262 . S
O5 Zn0 2.049 1_556 S
O5 C13 1.260 1_556 S
O6 Zn1 1.996 . S
O6 C13 1.257 . S
C7 O2 1.254 . S
C7 O3 1.269 . S
C8 O9 1.249 . S
C8 O10 1.270 . S
O9 Zn1 1.943 . S
O9 C8 1.249 . S
O10 Zn0 2.067 . S
O10 C8 1.270 . S
C11 O4 1.262 . S
C11 O12 1.232 . S
O12 C11 1.232 . S
C13 O5 1.260 1_554 S
C13 O6 1.257 . S
Zn14 O17 2.031 . S
Zn14 O19 2.049 . S
Zn14 O24 2.067 . S
Zn15 O16 1.962 . S
Zn15 O18 1.986 1_455 S
Zn15 O20 1.996 . S
Zn15 O23 1.943 . S
O16 Zn15 1.962 . S
O16 C21 1.254 . S
O17 Zn14 2.031 . S
O17 C21 1.269 . S
O18 Zn15 1.986 1_655 S
O18 C25 1.262 . S
O19 Zn14 2.049 . S
O19 C27 1.260 . S
O20 Zn15 1.996 . S
O20 C27 1.257 . S
C21 O16 1.254 . S
C21 O17 1.269 . S
C22 O23 1.249 . S
C22 O24 1.270 . S
O23 Zn15 1.943 . S
O23 C22 1.249 . S
O24 Zn14 2.067 . S
O24 C22 1.270 . S
C25 O18 1.262 . S
C25 O26 1.232 . S
O26 C25 1.232 . S
C27 O19 1.260 . S
C27 O20 1.257 . S
Zn28 O31 2.031 1_565 S
Zn28 O33 2.049 . S
Zn28 O38 2.067 1_565 S
Zn29 O30 1.962 . S
Zn29 O32 1.986 1_455 S
Zn29 O34 1.996 1_545 S
Zn29 O37 1.943 . S
O30 Zn29 1.962 . S
O30 C35 1.254 . S
O31 Zn28 2.031 1_545 S
O31 C35 1.269 . S
O32 Zn29 1.986 1_655 S
O32 C39 1.262 1_655 S
O33 Zn28 2.049 . S
O33 C41 1.260 . S
O34 Zn29 1.996 1_565 S
O34 C41 1.257 . S
C35 O30 1.254 . S
C35 O31 1.269 . S
C36 O37 1.249 . S
C36 O38 1.270 . S
O37 Zn29 1.943 . S
O37 C36 1.249 . S
O38 Zn28 2.067 1_545 S
O38 C36 1.270 . S
C39 O32 1.262 1_455 S
C39 O40 1.232 . S
O40 C39 1.232 . S
C41 O33 1.260 . S
C41 O34 1.257 . S
C42 C43 1.443 . S
C42 N46 1.376 . S
C42 C80 1.389 . S
C43 C42 1.443 . S
C43 C44 1.340 . S
C43 H83 0.951 . S
C44 C43 1.340 . S
C44 C45 1.439 . S
C44 H84 0.950 . S
C45 C44 1.439 . S
C45 N46 1.374 . S
C45 C79 1.395 . S
N46 C42 1.376 . S
N46 C45 1.374 . S
N46 Co47 2.008 . S
Co47 N46 2.008 . S
Co47 N48 1.995 . S
Co47 N53 2.008 . S
Co47 N58 1.995 . S
Co47 N63 2.282 . S
Co47 N69 2.282 . S
N48 Co47 1.995 . S
N48 C49 1.376 . S
N48 C52 1.383 . S
C49 N48 1.376 . S
C49 C50 1.446 . S
C49 C79 1.391 . S
C50 C49 1.446 . S
C50 C51 1.339 . S
C50 H85 0.949 . S
C51 C50 1.339 . S
C51 C52 1.439 . S
C51 H86 0.950 . S
C52 N48 1.383 . S
C52 C51 1.439 . S
C52 C81 1.392 . S
N53 Co47 2.008 . S
N53 C54 1.376 . S
N53 C57 1.374 1_455 S
C54 N53 1.376 . S
C54 C55 1.443 1_455 S
C54 C81 1.389 . S
C55 C54 1.443 1_655 S
C55 C56 1.340 . S
C55 H87 0.951 . S
C56 C55 1.340 . S
C56 C57 1.439 . S
C56 H88 0.950 . S
C57 N53 1.374 1_655 S
C57 C56 1.439 . S
C57 C82 1.395 . S
N58 Co47 1.995 . S
N58 C59 1.376 1_455 S
N58 C62 1.383 . S
C59 N58 1.376 1_655 S
C59 C60 1.446 . S
C59 C82 1.391 . S
C60 C59 1.446 . S
C60 C61 1.339 . S
C60 H89 0.949 . S
C61 C60 1.339 . S
C61 C62 1.439 1_655 S
C61 H90 0.950 . S
C62 N58 1.383 . S
C62 C61 1.439 1_455 S
C62 C80 1.392 . S
N63 Co47 2.282 . S
N63 C66 1.332 . S
N63 C68 1.332 . S
C64 C65 1.386 . S
C64 C67 1.388 . S
C65 C64 1.386 . S
C65 C66 1.382 . S
C65 H91 0.950 . S
C66 N63 1.332 . S
C66 C65 1.382 . S
C66 H77 0.952 . S
C67 C64 1.388 . S
C67 C68 1.382 . S
C67 H92 0.950 . S
C68 N63 1.332 . S
C68 C67 1.382 . S
C68 H78 0.948 . S
N69 Co47 2.282 . S
N69 C73 1.332 . S
N69 C74 1.332 . S
C70 C71 1.388 . S
C70 C74 1.382 . S
C70 H93 0.950 1_455 S
C71 C70 1.388 . S
C71 C72 1.386 . S
C72 C71 1.386 . S
C72 C73 1.382 . S
C72 H94 0.950 . S
C73 N69 1.332 . S
C73 C72 1.382 . S
C73 H75 0.952 . S
C74 N69 1.332 . S
C74 C70 1.382 . S
C74 H76 0.948 1_455 S
H75 C73 0.952 . S
H76 C74 0.948 1_655 S
H77 C66 0.952 . S
H78 C68 0.948 . S
C79 C45 1.395 . S
C79 C49 1.391 . S
C80 C42 1.389 . S
C80 C62 1.392 . S
C81 C52 1.392 . S
C81 C54 1.389 . S
C82 C57 1.395 . S
C82 C59 1.391 . S
H83 C43 0.951 . S
H84 C44 0.950 . S
H85 C50 0.949 . S
H86 C51 0.950 . S
H87 C55 0.951 . S
H88 C56 0.950 . S
H89 C60 0.949 . S
H90 C61 0.950 . S
H91 C65 0.950 . S
H92 C67 0.950 . S
H93 C70 0.950 1_655 S
H94 C72 0.950 . S
C95 C96 1.443 1_545 S
C95 N99 1.376 . S
C95 C133 1.389 . S
C96 C95 1.443 1_565 S
C96 C97 1.340 . S
C96 H136 0.951 . S
C97 C96 1.340 . S
C97 C98 1.439 . S
C97 H137 0.950 . S
C98 C97 1.439 . S
C98 N99 1.374 1_565 S
C98 C132 1.395 . S
N99 C95 1.376 . S
N99 C98 1.374 1_545 S
N99 Co100 2.008 . S
Co100 N99 2.008 . S
Co100 N101 1.995 . S
Co100 N106 2.008 . S
Co100 N111 1.995 . S
Co100 N116 2.282 . S
Co100 N122 2.282 . S
N101 Co100 1.995 . S
N101 C102 1.376 1_545 S
N101 C105 1.383 . S
C102 N101 1.376 1_565 S
C102 C103 1.446 . S
C102 C132 1.391 . S
C103 C102 1.446 . S
C103 C104 1.339 1_565 S
C103 H138 0.949 . S
C104 C103 1.339 1_545 S
C104 C105 1.439 . S
C104 H139 0.950 . S
C105 N101 1.383 . S
C105 C104 1.439 . S
C105 C134 1.392 . S
N106 Co100 2.008 . S
N106 C107 1.376 . S
N106 C110 1.374 . S
C107 N106 1.376 . S
C107 C108 1.443 . S
C107 C134 1.389 . S
C108 C107 1.443 . S
C108 C109 1.340 . S
C108 H140 0.951 . S
C109 C108 1.340 . S
C109 C110 1.439 . S
C109 H141 0.950 . S
C110 N106 1.374 . S
C110 C109 1.439 . S
C110 C135 1.395 . S
N111 Co100 1.995 . S
N111 C112 1.376 . S
N111 C115 1.383 . S
C112 N111 1.376 . S
C112 C113 1.446 . S
C112 C135 1.391 . S
C113 C112 1.446 . S
C113 C114 1.339 . S
C113 H142 0.949 . S
C114 C113 1.339 . S
C114 C115 1.439 . S
C114 H143 0.950 . S
C115 N111 1.383 . S
C115 C114 1.439 . S
C115 C133 1.392 . S
N116 Co100 2.282 . S
N116 C119 1.332 . S
N116 C121 1.332 . S
C117 C118 1.386 . S
C117 C120 1.388 . S
C118 C117 1.386 . S
C118 C119 1.382 . S
C118 H144 0.950 . S
C119 N116 1.332 . S
C119 C118 1.382 . S
C119 H130 0.952 . S
C120 C117 1.388 . S
C120 C121 1.382 . S
C120 H145 0.950 . S
C121 N116 1.332 . S
C121 C120 1.382 . S
C121 H131 0.948 . S
N122 Co100 2.282 . S
N122 C126 1.332 . S
N122 C127 1.332 . S
C123 C124 1.388 . S
C123 C127 1.382 . S
C123 H146 0.950 . S
C124 C123 1.388 . S
C124 C125 1.386 . S
C125 C124 1.386 . S
C125 C126 1.382 . S
C125 H147 0.950 . S
C126 N122 1.332 . S
C126 C125 1.382 . S
C126 H128 0.952 . S
C127 N122 1.332 . S
C127 C123 1.382 . S
C127 H129 0.948 . S
H128 C126 0.952 . S
H129 C127 0.948 . S
H130 C119 0.952 . S
H131 C121 0.948 . S
C132 C98 1.395 . S
C132 C102 1.391 . S
C133 C95 1.389 . S
C133 C115 1.392 . S
C134 C105 1.392 . S
C134 C107 1.389 . S
C135 C110 1.395 . S
C135 C112 1.391 . S
H136 C96 0.951 . S
H137 C97 0.950 . S
H138 C103 0.949 . S
H139 C104 0.950 . S
H140 C108 0.951 . S
H141 C109 0.950 . S
H142 C113 0.949 . S
H143 C114 0.950 . S
H144 C118 0.950 . S
H145 C120 0.950 . S
H146 C123 0.950 . S
H147 C125 0.950 . S
C148 C149 1.443 . S
C148 N152 1.376 . S
C148 C186 1.389 . S
C149 C148 1.443 . S
C149 C150 1.340 . S
C149 H189 0.951 . S
C150 C149 1.340 . S
C150 C151 1.439 . S
C150 H190 0.950 . S
C151 C150 1.439 . S
C151 N152 1.374 . S
C151 C185 1.395 . S
N152 C148 1.376 . S
N152 C151 1.374 . S
N152 Co153 2.008 . S
Co153 N152 2.008 . S
Co153 N154 1.995 . S
Co153 N159 2.008 . S
Co153 N164 1.995 . S
Co153 N169 2.282 . S
Co153 N175 2.282 . S
N154 Co153 1.995 . S
N154 C155 1.376 . S
N154 C158 1.383 . S
C155 N154 1.376 . S
C155 C156 1.446 . S
C155 C185 1.391 . S
C156 C155 1.446 . S
C156 C157 1.339 . S
C156 H191 0.949 . S
C157 C156 1.339 . S
C157 C158 1.439 . S
C157 H192 0.950 . S
C158 N154 1.383 . S
C158 C157 1.439 . S
C158 C187 1.392 . S
N159 Co153 2.008 . S
N159 C160 1.376 . S
N159 C163 1.374 . S
C160 N159 1.376 . S
C160 C161 1.443 . S
C160 C187 1.389 . S
C161 C160 1.443 . S
C161 C162 1.340 . S
C161 H193 0.951 . S
C162 C161 1.340 . S
C162 C163 1.439 . S
C162 H194 0.950 . S
C163 N159 1.374 . S
C163 C162 1.439 . S
C163 C188 1.395 . S
N164 Co153 1.995 . S
N164 C165 1.376 . S
N164 C168 1.383 . S
C165 N164 1.376 . S
C165 C166 1.446 . S
C165 C188 1.391 . S
C166 C165 1.446 . S
C166 C167 1.339 . S
C166 H195 0.949 . S
C167 C166 1.339 . S
C167 C168 1.439 . S
C167 H196 0.950 . S
C168 N164 1.383 . S
C168 C167 1.439 . S
C168 C186 1.392 . S
N169 Co153 2.282 . S
N169 C172 1.332 . S
N169 C174 1.332 . S
C170 C171 1.386 . S
C170 C173 1.388 . S
C171 C170 1.386 . S
C171 C172 1.382 . S
C171 H197 0.950 . S
C172 N169 1.332 . S
C172 C171 1.382 . S
C172 H183 0.952 . S
C173 C170 1.388 . S
C173 C174 1.382 . S
C173 H198 0.950 . S
C174 N169 1.332 . S
C174 C173 1.382 . S
C174 H184 0.948 . S
N175 Co153 2.282 . S
N175 C179 1.332 . S
N175 C180 1.332 . S
C176 C177 1.388 . S
C176 C180 1.382 . S
C176 H199 0.950 . S
C177 C176 1.388 . S
C177 C178 1.386 . S
C178 C177 1.386 . S
C178 C179 1.382 . S
C178 H200 0.950 . S
C179 N175 1.332 . S
C179 C178 1.382 . S
C179 H181 0.952 . S
C180 N175 1.332 . S
C180 C176 1.382 . S
C180 H182 0.948 . S
H181 C179 0.952 . S
H182 C180 0.948 . S
H183 C172 0.952 . S
H184 C174 0.948 . S
C185 C151 1.395 . S
C185 C155 1.391 . S
C186 C148 1.389 . S
C186 C168 1.392 . S
C187 C158 1.392 . S
C187 C160 1.389 . S
C188 C163 1.395 . S
C188 C165 1.391 . S
H189 C149 0.951 . S
H190 C150 0.950 . S
H191 C156 0.949 . S
H192 C157 0.950 . S
H193 C161 0.951 . S
H194 C162 0.950 . S
H195 C166 0.949 . S
H196 C167 0.950 . S
H197 C171 0.950 . S
H198 C173 0.950 . S
H199 C176 0.950 . S
H200 C178 0.950 . S
C201 C202 1.349 . S
C201 C203 1.327 . S
C201 H226 0.950 . S
C202 C201 1.349 . S
C202 C218 1.349 . S
C203 C201 1.327 . S
C203 C222 1.429 . S
C203 H227 0.950 . S
C204 C221 1.574 . S
C204 C223 1.368 . S
C204 H228 0.949 . S
H205 C209 0.949 . S
C206 C207 1.349 . S
C206 C208 1.327 . S
C206 H229 0.950 . S
C207 C206 1.349 . S
C207 C219 1.349 . S
C208 C206 1.327 . S
C208 C224 1.429 . S
C208 H230 0.950 . S
C209 H205 0.949 . S
C209 C217 1.574 . S
C209 C225 1.368 . S
H210 C218 0.950 . S
H211 C216 0.950 . S
H212 C217 0.949 . S
H213 C219 0.950 . S
H214 C220 0.950 . S
H215 C221 0.949 . S
C216 H211 0.950 . S
C216 C218 1.327 . S
C216 C222 1.429 . S
C217 C209 1.574 . S
C217 H212 0.949 . S
C217 C223 1.368 . S
C218 C202 1.349 . S
C218 H210 0.950 . S
C218 C216 1.327 . S
C219 C207 1.349 . S
C219 H213 0.950 . S
C219 C220 1.327 . S
C220 H214 0.950 . S
C220 C219 1.327 . S
C220 C224 1.429 . S
C221 C204 1.574 . S
C221 H215 0.949 . S
C221 C225 1.368 . S
C222 C203 1.429 . S
C222 C216 1.429 . S
C222 C223 1.523 . S
C223 C204 1.368 . S
C223 C217 1.368 . S
C223 C222 1.523 . S
C224 C208 1.429 . S
C224 C220 1.429 . S
C224 C225 1.523 . S
C225 C209 1.368 . S
C225 C221 1.368 . S
C225 C224 1.523 . S
H226 C201 0.950 . S
H227 C203 0.950 . S
H228 C204 0.949 . S
H229 C206 0.950 . S
H230 C208 0.950 . S
C231 C232 1.349 . S
C231 C233 1.327 . S
C231 H256 0.950 . S
C232 C231 1.349 . S
C232 C248 1.349 . S
C233 C231 1.327 . S
C233 C252 1.429 . S
C233 H257 0.950 . S
C234 C251 1.574 . S
C234 C253 1.368 . S
C234 H258 0.949 . S
H235 C239 0.949 . S
C236 C237 1.349 . S
C236 C238 1.327 . S
C236 H259 0.950 . S
C237 C236 1.349 . S
C237 C249 1.349 . S
C238 C236 1.327 . S
C238 C254 1.429 . S
C238 H260 0.950 . S
C239 H235 0.949 . S
C239 C247 1.574 . S
C239 C255 1.368 . S
H240 C248 0.950 . S
H241 C246 0.950 . S
H242 C247 0.949 . S
H243 C249 0.950 . S
H244 C250 0.950 . S
H245 C251 0.949 . S
C246 H241 0.950 . S
C246 C248 1.327 . S
C246 C252 1.429 . S
C247 C239 1.574 . S
C247 H242 0.949 . S
C247 C253 1.368 . S
C248 C232 1.349 . S
C248 H240 0.950 . S
C248 C246 1.327 . S
C249 C237 1.349 . S
C249 H243 0.950 . S
C249 C250 1.327 . S
C250 H244 0.950 . S
C250 C249 1.327 . S
C250 C254 1.429 . S
C251 C234 1.574 . S
C251 H245 0.949 . S
C251 C255 1.368 . S
C252 C233 1.429 . S
C252 C246 1.429 . S
C252 C253 1.523 . S
C253 C234 1.368 . S
C253 C247 1.368 . S
C253 C252 1.523 . S
C254 C238 1.429 . S
C254 C250 1.429 . S
C254 C255 1.523 . S
C255 C239 1.368 . S
C255 C251 1.368 . S
C255 C254 1.523 . S
H256 C231 0.950 . S
H257 C233 0.950 . S
H258 C234 0.949 . S
H259 C236 0.950 . S
H260 C238 0.950 . S
C261 C262 1.349 . S
C261 C263 1.327 . S
C261 H286 0.950 1_655 S
C262 C261 1.349 . S
C262 C278 1.349 . S
C263 C261 1.327 . S
C263 C282 1.429 . S
C263 H287 0.950 . S
C264 C281 1.574 . S
C264 C283 1.368 . S
C264 H288 0.949 . S
H265 C269 0.949 . S
C266 C267 1.349 . S
C266 C268 1.327 . S
C266 H289 0.950 . S
C267 C266 1.349 . S
C267 C279 1.349 . S
C268 C266 1.327 . S
C268 C284 1.429 . S
C268 H290 0.950 . S
C269 H265 0.949 . S
C269 C277 1.574 . S
C269 C285 1.368 . S
H270 C278 0.950 . S
H271 C276 0.950 . S
H272 C277 0.949 . S
H273 C279 0.950 . S
H274 C280 0.950 . S
H275 C281 0.949 . S
C276 H271 0.950 . S
C276 C278 1.327 . S
C276 C282 1.429 . S
C277 C269 1.574 . S
C277 H272 0.949 . S
C277 C283 1.368 . S
C278 C262 1.349 . S
C278 H270 0.950 . S
C278 C276 1.327 . S
C279 C267 1.349 . S
C279 H273 0.950 . S
C279 C280 1.327 . S
C280 H274 0.950 . S
C280 C279 1.327 . S
C280 C284 1.429 . S
C281 C264 1.574 . S
C281 H275 0.949 . S
C281 C285 1.368 . S
C282 C263 1.429 . S
C282 C276 1.429 . S
C282 C283 1.523 . S
C283 C264 1.368 . S
C283 C277 1.368 . S
C283 C282 1.523 . S
C284 C268 1.429 . S
C284 C280 1.429 . S
C284 C285 1.523 . S
C285 C269 1.368 . S
C285 C281 1.368 . S
C285 C284 1.523 . S
H286 C261 0.950 1_455 S
H287 C263 0.950 . S
H288 C264 0.949 . S
H289 C266 0.950 . S
H290 C268 0.950 . S
C291 C292 1.349 . S
C291 C293 1.327 . S
C291 H316 0.950 1_565 S
C292 C291 1.349 . S
C292 C308 1.349 . S
C293 C291 1.327 . S
C293 C312 1.429 . S
C293 H317 0.950 . S
C294 C311 1.574 . S
C294 C313 1.368 . S
C294 H318 0.949 . S
H295 C299 0.949 . S
C296 C297 1.349 . S
C296 C298 1.327 . S
C296 H319 0.950 . S
C297 C296 1.349 . S
C297 C309 1.349 . S
C298 C296 1.327 . S
C298 C314 1.429 . S
C298 H320 0.950 . S
C299 H295 0.949 . S
C299 C307 1.574 . S
C299 C315 1.368 . S
H300 C308 0.950 . S
H301 C306 0.950 . S
H302 C307 0.949 . S
H303 C309 0.950 . S
H304 C310 0.950 . S
H305 C311 0.949 . S
C306 H301 0.950 . S
C306 C308 1.327 . S
C306 C312 1.429 . S
C307 C299 1.574 . S
C307 H302 0.949 . S
C307 C313 1.368 . S
C308 C292 1.349 . S
C308 H300 0.950 . S
C308 C306 1.327 . S
C309 C297 1.349 . S
C309 H303 0.950 . S
C309 C310 1.327 . S
C310 H304 0.950 . S
C310 C309 1.327 . S
C310 C314 1.429 . S
C311 C294 1.574 . S
C311 H305 0.949 . S
C311 C315 1.368 . S
C312 C293 1.429 . S
C312 C306 1.429 . S
C312 C313 1.523 . S
C313 C294 1.368 . S
C313 C307 1.368 . S
C313 C312 1.523 . S
C314 C298 1.429 . S
C314 C310 1.429 . S
C314 C315 1.523 . S
C315 C299 1.368 . S
C315 C311 1.368 . S
C315 C314 1.523 . S
H316 C291 0.950 1_545 S
H317 C293 0.950 . S
H318 C294 0.949 . S
H319 C296 0.950 . S
H320 C298 0.950 . S
C321 C322 1.349 . S
C321 C323 1.327 . S
C321 H346 0.950 . S
C322 C321 1.349 . S
C322 C338 1.349 . S
C323 C321 1.327 . S
C323 C342 1.429 . S
C323 H347 0.950 . S
C324 C341 1.574 . S
C324 C343 1.368 . S
C324 H348 0.949 . S
H325 C329 0.949 . S
C326 C327 1.349 . S
C326 C328 1.327 . S
C326 H349 0.950 . S
C327 C326 1.349 . S
C327 C339 1.349 . S
C328 C326 1.327 . S
C328 C344 1.429 . S
C328 H350 0.950 . S
C329 H325 0.949 . S
C329 C337 1.574 . S
C329 C345 1.368 . S
H330 C338 0.950 . S
H331 C336 0.950 . S
H332 C337 0.949 . S
H333 C339 0.950 . S
H334 C340 0.950 . S
H335 C341 0.949 . S
C336 H331 0.950 . S
C336 C338 1.327 . S
C336 C342 1.429 . S
C337 C329 1.574 . S
C337 H332 0.949 . S
C337 C343 1.368 . S
C338 C322 1.349 . S
C338 H330 0.950 . S
C338 C336 1.327 . S
C339 C327 1.349 . S
C339 H333 0.950 . S
C339 C340 1.327 . S
C340 H334 0.950 . S
C340 C339 1.327 . S
C340 C344 1.429 . S
C341 C324 1.574 . S
C341 H335 0.949 . S
C341 C345 1.368 . S
C342 C323 1.429 . S
C342 C336 1.429 . S
C342 C343 1.523 . S
C343 C324 1.368 . S
C343 C337 1.368 . S
C343 C342 1.523 . S
C344 C328 1.429 . S
C344 C340 1.429 . S
C344 C345 1.523 . S
C345 C329 1.368 . S
C345 C341 1.368 . S
C345 C344 1.523 . S
H346 C321 0.950 . S
H347 C323 0.950 . S
H348 C324 0.949 . S
H349 C326 0.950 . S
H350 C328 0.950 . S
C351 C352 1.349 . S
C351 C353 1.327 . S
C351 H376 0.950 . S
C352 C351 1.349 . S
C352 C368 1.349 . S
C353 C351 1.327 . S
C353 C372 1.429 . S
C353 H377 0.950 . S
C354 C371 1.574 . S
C354 C373 1.368 . S
C354 H378 0.949 . S
H355 C359 0.949 . S
C356 C357 1.349 . S
C356 C358 1.327 . S
C356 H379 0.950 . S
C357 C356 1.349 . S
C357 C369 1.349 . S
C358 C356 1.327 . S
C358 C374 1.429 . S
C358 H380 0.950 . S
C359 H355 0.949 . S
C359 C367 1.574 . S
C359 C375 1.368 . S
H360 C368 0.950 . S
H361 C366 0.950 . S
H362 C367 0.949 . S
H363 C369 0.950 . S
H364 C370 0.950 . S
H365 C371 0.949 . S
C366 H361 0.950 . S
C366 C368 1.327 . S
C366 C372 1.429 . S
C367 C359 1.574 . S
C367 H362 0.949 . S
C367 C373 1.368 . S
C368 C352 1.349 . S
C368 H360 0.950 . S
C368 C366 1.327 . S
C369 C357 1.349 . S
C369 H363 0.950 . S
C369 C370 1.327 . S
C370 H364 0.950 . S
C370 C369 1.327 . S
C370 C374 1.429 . S
C371 C354 1.574 . S
C371 H365 0.949 . S
C371 C375 1.368 . S
C372 C353 1.429 . S
C372 C366 1.429 . S
C372 C373 1.523 . S
C373 C354 1.368 . S
C373 C367 1.368 . S
C373 C372 1.523 . S
C374 C358 1.429 . S
C374 C370 1.429 . S
C374 C375 1.523 . S
C375 C359 1.368 . S
C375 C371 1.368 . S
C375 C374 1.523 . S
H376 C351 0.950 . S
H377 C353 0.950 . S
H378 C354 0.949 . S
H379 C356 0.950 . S
H380 C358 0.950 . S
C381 C382 1.349 . S
C381 C383 1.327 . S
C381 H406 0.942 1_545 S
C382 C381 1.349 . S
C382 C398 1.349 . S
C383 C381 1.327 . S
C383 C402 1.429 . S
C383 H407 0.950 . S
C384 C401 1.574 . S
C384 C403 1.368 . S
C384 H408 0.949 . S
H385 C389 0.949 . S
C386 C387 1.349 . S
C386 C388 1.327 . S
C386 H409 0.950 . S
C387 C386 1.349 . S
C387 C399 1.349 . S
C388 C386 1.327 . S
C388 C404 1.429 . S
C388 H410 0.950 . S
C389 H385 0.949 . S
C389 C397 1.574 . S
C389 C405 1.368 . S
H390 C398 0.950 1_455 S
H391 C396 0.950 . S
H392 C397 0.949 . S
H393 C399 0.950 . S
H394 C400 0.950 . S
H395 C401 0.949 . S
C396 H391 0.950 . S
C396 C398 1.327 . S
C396 C402 1.429 . S
C397 C389 1.574 . S
C397 H392 0.949 . S
C397 C403 1.368 . S
C398 C382 1.349 . S
C398 H390 0.950 1_655 S
C398 C396 1.327 . S
C399 C387 1.349 . S
C399 H393 0.950 . S
C399 C400 1.327 . S
C400 H394 0.950 . S
C400 C399 1.327 . S
C400 C404 1.429 . S
C401 C384 1.574 . S
C401 H395 0.949 . S
C401 C405 1.368 . S
C402 C383 1.429 . S
C402 C396 1.429 . S
C402 C403 1.523 . S
C403 C384 1.368 . S
C403 C397 1.368 . S
C403 C402 1.523 . S
C404 C388 1.429 . S
C404 C400 1.429 . S
C404 C405 1.523 . S
C405 C389 1.368 . S
C405 C401 1.368 . S
C405 C404 1.523 . S
H406 C381 0.942 1_565 S
H407 C383 0.950 . S
H408 C384 0.949 . S
H409 C386 0.950 . S
H410 C388 0.950 . S
C411 C412 1.349 1_655 S
C411 C413 1.327 1_554 S
C411 H436 0.950 . S
C412 C411 1.349 1_455 S
C412 C428 1.349 1_554 S
C413 C411 1.327 1_556 S
C413 C432 1.429 . S
C413 H437 0.950 1_556 S
C414 C431 1.574 . S
C414 C433 1.368 . S
C414 H438 0.949 . S
H415 C419 0.949 . S
C416 C417 1.349 . S
C416 C418 1.327 . S
C416 H439 0.950 . S
C417 C416 1.349 . S
C417 C429 1.349 . S
C418 C416 1.327 . S
C418 C434 1.429 . S
C418 H440 0.950 . S
C419 H415 0.949 . S
C419 C427 1.574 . S
C419 C435 1.368 . S
H420 C428 0.950 1_545 S
H421 C426 0.950 . S
H422 C427 0.949 . S
H423 C429 0.950 . S
H424 C430 0.950 . S
H425 C431 0.949 . S
C426 H421 0.950 . S
C426 C428 1.327 . S
C426 C432 1.429 1_455 S
C427 C419 1.574 . S
C427 H422 0.949 . S
C427 C433 1.368 . S
C428 C412 1.349 1_556 S
C428 H420 0.950 1_565 S
C428 C426 1.327 . S
C429 C417 1.349 . S
C429 H423 0.950 . S
C429 C430 1.327 . S
C430 H424 0.950 . S
C430 C429 1.327 . S
C430 C434 1.429 . S
C431 C414 1.574 . S
C431 H425 0.949 . S
C431 C435 1.368 . S
C432 C413 1.429 . S
C432 C426 1.429 1_655 S
C432 C433 1.523 . S
C433 C414 1.368 . S
C433 C427 1.368 . S
C433 C432 1.523 . S
C434 C418 1.429 . S
C434 C430 1.429 . S
C434 C435 1.523 . S
C435 C419 1.368 . S
C435 C431 1.368 . S
C435 C434 1.523 . S
H436 C411 0.950 . S
H437 C413 0.950 1_554 S
H438 C414 0.949 . S
H439 C416 0.950 . S
H440 C418 0.950 . S
C441 C442 1.349 1_565 S
C441 C443 1.327 . S
C441 H466 0.950 1_455 S
C442 C441 1.349 1_545 S
C442 C458 1.349 . S
C443 C441 1.327 . S
C443 C462 1.429 . S
C443 H467 0.950 1_455 S
C444 C461 1.574 . S
C444 C463 1.368 . S
C444 H468 0.949 . S
H445 C449 0.949 1_655 S
C446 C447 1.349 . S
C446 C448 1.327 . S
C446 H469 0.950 . S
C447 C446 1.349 . S
C447 C459 1.349 . S
C448 C446 1.327 . S
C448 C464 1.429 . S
C448 H470 0.950 . S
C449 H445 0.949 1_455 S
C449 C457 1.574 . S
C449 C465 1.368 . S
H450 C458 0.950 . S
H451 C456 0.950 1_545 S
H452 C457 0.949 1_655 S
H453 C459 0.950 . S
H454 C460 0.950 1_655 S
H455 C461 0.949 . S
C456 H451 0.950 1_565 S
C456 C458 1.327 1_565 S
C456 C462 1.429 . S
C457 C449 1.574 . S
C457 H452 0.949 1_455 S
C457 C463 1.368 . S
C458 C442 1.349 . S
C458 H450 0.950 . S
C458 C456 1.327 1_545 S
C459 C447 1.349 . S
C459 H453 0.950 . S
C459 C460 1.327 . S
C460 H454 0.950 1_455 S
C460 C459 1.327 . S
C460 C464 1.429 . S
C461 C444 1.574 . S
C461 H455 0.949 . S
C461 C465 1.368 . S
C462 C443 1.429 . S
C462 C456 1.429 . S
C462 C463 1.523 . S
C463 C444 1.368 . S
C463 C457 1.368 . S
C463 C462 1.523 . S
C464 C448 1.429 . S
C464 C460 1.429 . S
C464 C465 1.523 . S
C465 C449 1.368 . S
C465 C461 1.368 . S
C465 C464 1.523 . S
H466 C441 0.950 1_655 S
H467 C443 0.950 1_655 S
H468 C444 0.949 . S
H469 C446 0.950 . S
H470 C448 0.950 . S
C471 C472 1.349 1_565 S
C471 C473 1.327 . S
C471 H496 0.950 . S
C472 C471 1.349 1_545 S
C472 C488 1.349 . S
C473 C471 1.327 . S
C473 C492 1.429 1_565 S
C473 H497 0.950 . S
C474 C491 1.574 . S
C474 C493 1.368 . S
C474 H498 0.949 . S
H475 C479 0.949 1_565 S
C476 C477 1.349 . S
C476 C478 1.327 . S
C476 H499 0.950 . S
C477 C476 1.349 . S
C477 C489 1.349 . S
C478 C476 1.327 . S
C478 C494 1.429 . S
C478 H500 0.950 . S
C479 H475 0.949 1_545 S
C479 C487 1.569 . S
C479 C495 1.368 . S
H480 C488 0.950 . S
H481 C486 0.950 . S
H482 C487 0.941 1_565 S
H483 C489 0.950 . S
H484 C490 0.950 1_565 S
H485 C491 0.949 . S
C486 H481 0.950 . S
C486 C488 1.327 . S
C486 C492 1.429 . S
C487 C479 1.569 . S
C487 H482 0.941 1_545 S
C487 C493 1.381 . S
C488 C472 1.349 . S
C488 H480 0.950 . S
C488 C486 1.327 . S
C489 C477 1.349 . S
C489 H483 0.950 . S
C489 C490 1.327 . S
C490 H484 0.950 1_545 S
C490 C489 1.327 . S
C490 C494 1.429 . S
C491 C474 1.574 . S
C491 H485 0.949 . S
C491 C495 1.368 . S
C492 C473 1.429 1_545 S
C492 C486 1.429 . S
C492 C493 1.523 . S
C493 C474 1.368 . S
C493 C487 1.381 . S
C493 C492 1.523 . S
C494 C478 1.429 . S
C494 C490 1.429 . S
C494 C495 1.523 . S
C495 C479 1.368 . S
C495 C491 1.368 . S
C495 C494 1.523 . S
H496 C471 0.950 . S
H497 C473 0.950 . S
H498 C474 0.949 . S
H499 C476 0.950 . S
H500 C478 0.950 . S
C501 C502 1.342 1_554 S
C501 C503 1.290 1_554 S
C501 H526 0.997 . S
C502 C501 1.342 1_556 S
C502 C518 1.349 . S
C503 C501 1.290 1_556 S
C503 C522 1.429 . S
C503 H527 0.950 . S
C504 C521 1.574 . S
C504 C523 1.368 . S
C504 H528 0.949 . S
H505 C509 0.949 . S
C506 C507 1.349 . S
C506 C508 1.327 . S
C506 H529 0.950 . S
C507 C506 1.349 . S
C507 C519 1.349 . S
C508 C506 1.327 . S
C508 C524 1.429 . S
C508 H530 0.950 . S
C509 H505 0.949 . S
C509 C517 1.574 . S
C509 C525 1.368 . S
H510 C518 0.950 . S
H511 C516 0.950 . S
H512 C517 0.949 . S
H513 C519 0.950 . S
H514 C520 0.950 . S
H515 C521 0.949 . S
C516 H511 0.950 . S
C516 C518 1.327 . S
C516 C522 1.429 . S
C517 C509 1.574 . S
C517 H512 0.949 . S
C517 C523 1.368 . S
C518 C502 1.349 . S
C518 H510 0.950 . S
C518 C516 1.327 . S
C519 C507 1.349 . S
C519 H513 0.950 . S
C519 C520 1.327 . S
C520 H514 0.950 . S
C520 C519 1.327 . S
C520 C524 1.429 . S
C521 C504 1.574 . S
C521 H515 0.949 . S
C521 C525 1.368 . S
C522 C503 1.429 . S
C522 C516 1.429 . S
C522 C523 1.523 . S
C523 C504 1.368 . S
C523 C517 1.368 . S
C523 C522 1.523 . S
C524 C508 1.429 . S
C524 C520 1.429 . S
C524 C525 1.523 . S
C525 C509 1.368 . S
C525 C521 1.368 . S
C525 C524 1.523 . S
H526 C501 0.997 . S
H527 C503 0.950 . S
H528 C504 0.949 . S
H529 C506 0.950 . S
H530 C508 0.950 . S
C531 C532 1.349 . S
C531 C533 1.327 . S
C531 H556 0.950 1_455 S
C532 C531 1.349 . S
C532 C548 1.349 . S
C533 C531 1.327 . S
C533 C552 1.429 . S
C533 H557 0.950 1_455 S
C534 C551 1.574 . S
C534 C553 1.368 . S
C534 H558 0.949 . S
H535 C539 0.949 1_655 S
C536 C537 1.349 . S
C536 C538 1.327 . S
C536 H559 0.950 . S
C537 C536 1.349 . S
C537 C549 1.349 . S
C538 C536 1.327 . S
C538 C554 1.429 . S
C538 H560 0.950 . S
C539 H535 0.949 1_455 S
C539 C547 1.574 . S
C539 C555 1.368 . S
H540 C548 0.950 . S
H541 C546 0.950 . S
H542 C547 0.949 1_655 S
H543 C549 0.950 1_655 S
H544 C550 0.950 1_655 S
H545 C551 0.949 . S
C546 H541 0.950 . S
C546 C548 1.327 . S
C546 C552 1.429 . S
C547 C539 1.574 . S
C547 H542 0.949 1_455 S
C547 C553 1.368 . S
C548 C532 1.349 . S
C548 H540 0.950 . S
C548 C546 1.327 . S
C549 C537 1.349 . S
C549 H543 0.950 1_455 S
C549 C550 1.327 . S
C550 H544 0.950 1_455 S
C550 C549 1.327 . S
C550 C554 1.429 . S
C551 C534 1.574 . S
C551 H545 0.949 . S
C551 C555 1.368 . S
C552 C533 1.429 . S
C552 C546 1.429 . S
C552 C553 1.523 . S
C553 C534 1.368 . S
C553 C547 1.368 . S
C553 C552 1.523 . S
C554 C538 1.429 . S
C554 C550 1.429 . S
C554 C555 1.523 . S
C555 C539 1.368 . S
C555 C551 1.368 . S
C555 C554 1.523 . S
H556 C531 0.950 1_655 S
H557 C533 0.950 1_655 S
H558 C534 0.949 . S
H559 C536 0.950 . S
H560 C538 0.950 . S
C207 C64 1.312 . S
C202 C11 1.301 . S
C232 C25 1.363 . S
C237 C134 1.377 . S
C262 C41 1.358 1_655 S
C267 C186 1.415 . S
C292 C7 1.330 1_565 S
C297 C80 1.331 . S
C327 C124 1.404 . S
C322 C21 1.400 . S
C352 C36 1.378 . S
C357 C170 1.433 . S
C387 C117 1.377 . S
C382 C39 1.365 1_655 S
C412 C8 1.378 1_565 S
C417 C177 1.429 . S
C447 C71 1.491 . S
C442 C22 1.436 . S
C477 C133 1.398 . S
C472 C35 1.395 . S
C507 C187 1.410 . S
C502 C13 1.352 1_556 S
C532 C27 1.414 . S
C537 C81 1.465 . S
