# Generated by pormake.
# Topology pts, (4,4)-cn, num edge types: 1
# Building blocks:
#     Node 0, Type 0, BuildingBlock: ESEHIV_clean_sbu_0, # of connection points: 4
#     Node 1, Type 0, BuildingBlock: ESEHIV_clean_sbu_0, # of connection points: 4
#     Node 2, Type 1, BuildingBlock: UXUYUI_clean_sbu_0, # of connection points: 4
#     Node 3, Type 1, BuildingBlock: UXUYUI_clean_sbu_0, # of connection points: 4
#     Edge 4, Type (0, 1), BuildingBlock: FUNLAD_clean_linker_0, # of connection points: 2
#     Edge 5, Type (0, 1), BuildingBlock: FUNLAD_clean_linker_0, # of connection points: 2
#     Edge 6, Type (0, 1), BuildingBlock: FUNLAD_clean_linker_0, # of connection points: 2
#     Edge 7, Type (0, 1), BuildingBlock: FUNLAD_clean_linker_0, # of connection points: 2
#     Edge 8, Type (0, 1), BuildingBlock: FUNLAD_clean_linker_0, # of connection points: 2
#     Edge 9, Type (0, 1), BuildingBlock: FUNLAD_clean_linker_0, # of connection points: 2
#     Edge 10, Type (0, 1), BuildingBlock: FUNLAD_clean_linker_0, # of connection points: 2
#     Edge 11, Type (0, 1), BuildingBlock: FUNLAD_clean_linker_0, # of connection points: 2
# Relax obj value: 0.002
# Max RMSD: 0.096
# Mean RMSD: 0.062
data_MOF--net-pts--node1-ESEHIV_clean_sbu_0--node2-UXUYUI_clean_sbu_0--edge1-FUNLAD_clean_linker_0
_symmetry_space_group_name_H-M    P1
_symmetry_Int_Tables_number       1
_symmetry_cell_setting            triclinic
loop_
_symmetry_equiv_pos_as_xyz
'x, y, z'
_cell_length_a     34.594191
_cell_length_b     34.645743
_cell_length_c     51.683256
_cell_angle_alpha  92.585739
_cell_angle_beta   92.473369
_cell_angle_gamma 90.076426
loop_
_atom_site_label
_atom_site_type_symbol
_atom_site_fract_x
_atom_site_fract_y
_atom_site_fract_z
_atom_type_partial_charge
Cu0 Cu 0.53853 0.03002 0.0158 0.0
N1 N 0.56564 1.00261 0.99044 0.0
N2 N 0.61275 0.99068 0.96291 0.0
C3 C 0.59761 0.01629 0.98007 0.0
C4 C 0.58895 0.95967 0.9622 0.0
C5 C 0.55989 0.96709 0.9793 0.0
O6 O 0.57697 0.05969 0.03705 0.0
C7 C 0.47038 0.0387 0.98846 0.0
O8 O 0.47208 1.00107 0.99041 0.0
H9 H 0.60958 0.04463 0.9852 0.0
H10 H 0.53664 0.9478 0.98357 0.0
N11 N 0.5133 0.99842 0.03814 0.0
N12 N 0.46951 0.98244 0.06641 0.0
C13 C 0.48305 0.01038 0.05184 0.0
C14 C 0.51952 0.96155 0.04429 0.0
C15 C 0.49252 0.95161 0.06185 0.0
C16 C 0.60496 0.03898 0.04525 0.0
O17 O 0.60435 1.00168 0.03941 0.0
H18 H 0.47144 0.03933 0.05119 0.0
H19 H 0.54191 0.94322 0.03653 0.0
O20 O 0.49824 0.05956 0.99815 0.0
H21 H 0.59277 0.93319 0.95068 0.0
H22 H 0.4897 0.92374 0.07024 0.0
Cu23 Cu 0.07615 0.55917 0.51532 0.0
N24 N 0.10341 0.52425 0.53578 0.0
N25 N 0.11146 0.47437 0.56146 0.0
C26 C 0.0863 0.4945 0.54667 0.0
C27 C 0.14596 0.49211 0.55968 0.0
C28 C 0.14089 0.523 0.54389 0.0
O29 O 0.04681 0.52702 0.48951 0.0
C30 C 0.0584 0.60243 0.56002 0.0
O31 O 0.09095 0.58694 0.56835 0.0
H32 H 0.05577 0.48797 0.5438 0.0
H33 H 0.16273 0.54369 0.53944 0.0
N34 N 0.10751 0.59238 0.49775 0.0
N35 N 0.12096 0.64085 0.47233 0.0
C36 C 0.0936 0.62321 0.4855 0.0
C37 C 0.14517 0.59036 0.49231 0.0
C38 C 0.15357 0.62029 0.47669 0.0
C39 C 0.06771 0.50944 0.47306 0.0
O40 O 0.1052 0.51574 0.47446 0.0
H41 H 0.06365 0.63204 0.48602 0.0
H42 H 0.16478 0.56785 0.4982 0.0
O43 O 0.0448 0.59279 0.53732 0.0
H44 H 0.17267 0.48415 0.56972 0.0
H45 H 0.18117 0.62544 0.46835 0.0
Li46 Li 0.04084 0.09607 0.28428 0.0
Li47 Li 0.03748 0.02522 0.28313 0.0
Li48 Li 0.07445 0.05891 0.24949 0.0
Li49 Li 1.00328 0.05854 0.24879 0.0
C50 C 0.11628 0.07144 0.30202 0.0
N51 N 0.18147 0.09665 0.33076 0.0
C52 C 0.12309 0.05954 0.3273 0.0
C53 C 0.14308 0.09553 0.2912 0.0
C54 C 0.15607 0.07279 0.34157 0.0
C55 C 0.17573 0.10813 0.30607 0.0
C56 C 0.97256 0.04838 0.30534 0.0
C57 C 0.9282 1.00075 0.31953 0.0
N58 N 0.93006 0.01805 0.34371 0.0
C59 C 0.97377 0.06591 0.33026 0.0
C60 C 0.94934 0.01575 0.29985 0.0
C61 C 0.95216 0.05006 0.34941 0.0
C62 C 0.02379 0.17422 0.29728 0.0
N63 N 0.041 0.14193 0.30633 0.0
C64 C 0.05701 0.17492 0.34702 0.0
C65 C 0.05689 0.14154 0.33083 0.0
C66 C 0.0403 0.20903 0.338 0.0
C67 C 0.02321 0.20829 0.31282 0.0
H68 H 1.01068 0.17358 0.27788 0.0
H69 H 0.06904 0.1152 0.33797 0.0
C70 C 0.04292 0.94563 0.29319 0.0
N71 N 0.03901 0.98154 0.30448 0.0
C72 C 0.04669 0.91343 0.30845 0.0
C73 C 0.0419 0.9557 0.34666 0.0
C74 C 0.03852 0.98707 0.33068 0.0
C75 C 0.04639 0.91827 0.33559 0.0
H76 H 0.04377 0.94204 0.27234 0.0
H77 H 0.0363 0.01597 0.33923 0.0
C78 C 0.05333 0.13444 0.23432 0.0
N79 N 0.08311 0.19717 0.21053 0.0
C80 C 0.03911 0.1439 0.20969 0.0
C81 C 0.08225 0.1573 0.24702 0.0
C82 C 0.05468 0.17559 0.19793 0.0
C83 C 0.09704 0.18879 0.23464 0.0
C84 C 0.0226 0.99161 0.22502 0.0
C85 C 0.03776 0.99245 0.20042 0.0
C86 C 0.99047 0.96837 0.2288 0.0
C87 C 0.02006 0.9705 0.17987 0.0
C88 C 0.97356 0.94686 0.20775 0.0
N89 N 0.98855 0.9484 0.18392 0.0
C90 C 0.14865 0.03248 0.23705 0.0
C91 C 0.11904 0.07116 0.20522 0.0
C92 C 0.18052 0.02592 0.22172 0.0
N93 N 0.11874 0.05473 0.22861 0.0
C94 C 0.15032 0.06543 0.18928 0.0
C95 C 0.18151 0.0422 0.19732 0.0
H96 H 0.14736 0.01916 0.25553 0.0
H97 H 0.09458 0.08787 0.19857 0.0
C98 C 0.92248 0.06071 0.23508 0.0
N99 N 0.95866 0.05948 0.22576 0.0
C100 C 0.89001 0.06161 0.21801 0.0
C101 C 0.93271 0.06033 0.18219 0.0
C102 C 0.96425 0.05976 0.19991 0.0
C103 C 0.89494 0.06109 0.19115 0.0
H104 H 0.91882 0.06098 0.25575 0.0
H105 H 0.99332 0.05954 0.19304 0.0
O106 O 0.08421 0.05849 0.28773 0.0
O107 O 0.99386 0.06322 0.28641 0.0
O108 O 0.03836 0.10346 0.24608 0.0
O109 O 0.03921 0.01334 0.24531 0.0
H110 H 0.10299 0.0405 0.3359 0.0
H111 H 0.13905 0.10406 0.27142 0.0
H112 H 0.1615 0.06406 0.36122 0.0
H113 H 0.19662 0.12688 0.29794 0.0
H114 H 0.91029 0.97537 0.31559 0.0
H115 H 0.99136 0.09132 0.3348 0.0
H116 H 0.94774 1.00211 0.28062 0.0
H117 H 0.953 0.06319 0.36882 0.0
H118 H 0.06979 0.17393 0.36648 0.0
H119 H 1.01022 0.23394 0.30501 0.0
H120 H 0.04981 0.88505 0.29911 0.0
H121 H 0.04211 0.96083 0.36749 0.0
H122 H 0.01642 0.12685 0.19968 0.0
H123 H 0.09278 0.1512 0.26636 0.0
H124 H 0.04412 0.18306 0.1788 0.0
H125 H 0.11946 0.20668 0.24425 0.0
H126 H 0.06272 0.01011 0.19717 0.0
H127 H 0.97869 0.96698 0.24776 0.0
H128 H 0.03132 0.97109 0.16069 0.0
H129 H 0.94853 0.92893 0.21037 0.0
H130 H 0.20356 1.00737 0.22859 0.0
H131 H 0.14991 0.07889 0.17077 0.0
H132 H 0.86138 0.06195 0.22571 0.0
H133 H 0.93784 0.06046 0.16167 0.0
Li134 Li 1.008 0.05331 0.78169 0.0
Li135 Li 0.07926 0.05286 0.78406 0.0
Li136 Li 0.04362 0.08639 0.74821 0.0
Li137 Li 0.0462 0.01565 0.749 0.0
C138 C 0.02834 0.12977 0.79883 0.0
N139 N 0.99707 0.19395 0.82376 0.0
C140 C 0.03925 0.13946 0.82467 0.0
C141 C 1.00206 0.15318 0.78556 0.0
C142 C 0.02296 0.17188 0.83698 0.0
C143 C 0.98643 0.18537 0.79852 0.0
C144 C 0.05896 0.99094 0.80792 0.0
C145 C 0.10876 0.95181 0.82759 0.0
N146 N 0.092 0.95687 0.85082 0.0
C147 C 0.04207 0.99553 0.83194 0.0
C148 C 0.09241 0.96867 0.80565 0.0
C149 C 0.05926 0.97813 0.85341 0.0
C150 C 0.93303 0.02801 0.78971 0.0
N151 N 0.96172 0.05102 0.80063 0.0
C152 C 0.9246 0.06414 0.83803 0.0
C153 C 0.95815 0.06903 0.82434 0.0
C154 C 0.89447 0.04044 0.82723 0.0
C155 C 0.89897 0.02247 0.80263 0.0
H156 H 0.9369 0.01342 0.77106 0.0
H157 H 0.98164 0.08639 0.83296 0.0
C158 C 0.1597 0.05721 0.79687 0.0
N159 N 0.12415 0.05704 0.8071 0.0
C160 C 0.19301 0.06181 0.81301 0.0
C161 C 0.15256 0.06619 0.84997 0.0
C162 C 0.12006 0.06143 0.8331 0.0
C163 C 0.18975 0.06654 0.84 0.0
H164 H 0.16223 0.05412 0.77612 0.0
H165 H 0.0915 0.06157 0.84077 0.0
C166 C 0.96939 0.06248 0.72868 0.0
N167 N 0.90701 0.08953 0.69962 0.0
C168 C 0.96286 0.04929 0.7029 0.0
C169 C 0.94373 0.08889 0.7398 0.0
C170 C 0.93131 0.06347 0.68849 0.0
C171 C 0.91249 0.10236 0.72477 0.0
C172 C 0.11047 0.03487 0.7274 0.0
C173 C 0.1083 0.04864 0.70238 0.0
C174 C 0.13328 1.00263 0.73259 0.0
C175 C 0.12864 0.02957 0.68285 0.0
C176 C 0.15312 0.98432 0.71254 0.0
N177 N 0.15039 0.99804 0.68828 0.0
C178 C 0.06743 0.16089 0.73799 0.0
C179 C 0.0323 0.13031 0.7024 0.0
C180 C 0.07434 0.19308 0.72354 0.0
N181 N 0.0468 0.13033 0.72728 0.0
C182 C 0.03868 0.16188 0.68717 0.0
C183 C 0.06036 0.19372 0.69762 0.0
H184 H 0.07915 0.15995 0.75769 0.0
H185 H 0.01707 0.10526 0.69402 0.0
C186 C 0.04602 0.93473 0.73997 0.0
N187 N 0.0458 0.96877 0.72789 0.0
C188 C 0.04505 0.8997 0.7255 0.0
C189 C 0.04308 0.93524 0.68632 0.0
C190 C 0.04417 0.96964 0.70157 0.0
C191 C 0.04362 0.8996 0.69828 0.0
H192 H 0.04663 0.93475 0.76088 0.0
H193 H 0.04382 0.99706 0.6924 0.0
O194 O 0.04421 0.09819 0.78647 0.0
O195 O 0.04289 1.00823 0.78675 0.0
O196 O 1.00006 0.04867 0.7431 0.0
O197 O 0.09026 0.05278 0.74668 0.0
H198 H 0.0599 0.12204 0.83519 0.0
H199 H 0.99414 0.14691 0.76536 0.0
H200 H 0.03095 0.17952 0.85702 0.0
H201 H 0.96599 0.20365 0.78847 0.0
H202 H 0.13478 0.93471 0.82614 0.0
H203 H 0.01615 0.01253 0.83405 0.0
H204 H 0.10573 0.96465 0.7872 0.0
H205 H 0.04661 0.98161 0.87215 0.0
H206 H 0.92233 0.07868 0.85689 0.0
H207 H 0.87685 1.00343 0.79374 0.0
H208 H 0.22101 0.06135 0.80442 0.0
H209 H 0.14848 0.07024 0.87057 0.0
H210 H 0.98207 0.0285 0.69404 0.0
H211 H 0.94755 0.09859 0.7599 0.0
H212 H 0.92611 0.05371 0.66846 0.0
H213 H 0.89251 0.12289 0.73313 0.0
H214 H 0.09092 0.0736 0.69801 0.0
H215 H 0.13545 0.99173 0.75186 0.0
H216 H 0.12705 0.03979 0.66336 0.0
H217 H 0.17068 0.95919 0.71625 0.0
H218 H 0.09075 0.21709 0.73256 0.0
H219 H 0.02792 0.16073 0.66717 0.0
H220 H 0.0449 0.87294 0.73556 0.0
H221 H 0.04238 0.93655 0.66541 0.0
C222 C 0.40705 0.01169 0.07793 0.0
C223 C 0.4371 0.98546 0.08307 0.0
C224 C 0.37634 0.016 0.09449 0.0
C225 C 0.37467 0.99389 0.11661 0.0
C226 C 0.40465 0.9676 0.12174 0.0
C227 C 0.4354 0.96322 0.10508 0.0
C228 C 0.34311 0.99883 0.13523 0.0
C229 C 0.3077 0.01238 0.12849 0.0
C230 C 0.27609 0.01874 0.14689 0.0
C231 C 0.23783 0.02064 0.13682 0.0
C232 C 0.20728 0.02801 0.15315 0.0
C233 C 0.21422 0.0341 0.18003 0.0
H234 H 0.3123 0.02481 0.1823 0.0
C235 C 0.25256 0.03231 0.19017 0.0
C236 C 0.28317 0.02482 0.1738 0.0
H237 H 0.25905 0.03751 0.21071 0.0
H238 H 0.40719 0.02903 0.06103 0.0
H239 H 0.35456 0.03739 0.09013 0.0
H240 H 0.40436 0.95046 0.13875 0.0
H241 H 0.45827 0.9431 0.10977 0.0
H242 H 0.34905 0.98976 0.15483 0.0
H243 H 0.30077 0.01794 0.10831 0.0
H244 H 0.23146 0.01628 0.11618 0.0
H245 H 0.17812 0.02855 0.14466 0.0
C246 C 0.13096 0.41412 0.5825 0.0
C247 C 0.10267 0.44189 0.57677 0.0
C248 C 0.12218 0.38242 0.59711 0.0
C249 C 0.08489 0.37805 0.60661 0.0
C250 C 0.05668 0.4058 0.60074 0.0
C251 C 0.06542 0.43731 0.58608 0.0
C252 C 0.07369 0.34476 0.62206 0.0
C253 C 0.09922 0.32193 0.63454 0.0
C254 C 0.0879 0.28924 0.65049 0.0
C255 C 0.11537 0.27497 0.6684 0.0
C256 C 0.10639 0.24421 0.68368 0.0
C257 C 0.06961 0.22672 0.6814 0.0
H258 H 0.02942 0.28054 0.63387 0.0
C259 C 0.04217 0.24063 0.66327 0.0
C260 C 0.05119 0.2714 0.64791 0.0
H261 H 0.01354 0.22791 0.66102 0.0
H262 H 0.15971 0.41645 0.57525 0.0
H263 H 0.14456 0.36124 0.60039 0.0
H264 H 0.0277 0.40324 0.60766 0.0
H265 H 0.04303 0.45836 0.58234 0.0
H266 H 0.04296 0.34027 0.6241 0.0
H267 H 0.1299 0.32832 0.63423 0.0
H268 H 0.14402 0.28771 0.67064 0.0
H269 H 0.12857 0.23377 0.69701 0.0
C270 C 0.67538 0.03967 0.05544 0.0
C271 C 0.63885 0.05523 0.06022 0.0
C272 C 0.70726 0.04922 0.07187 0.0
C273 C 0.70315 0.07379 0.09401 0.0
C274 C 0.66711 0.09154 0.09777 0.0
C275 C 0.6351 0.08238 0.08094 0.0
C276 C 0.73569 0.08031 0.11363 0.0
C277 C 0.76347 0.05354 0.11749 0.0
C278 C 0.79687 0.05767 0.13654 0.0
C279 C 0.829 0.03363 0.1328 0.0
C280 C 0.86074 0.03503 0.15041 0.0
C281 C 0.86106 0.06027 0.17244 0.0
H282 H 0.77257 0.10147 0.1625 0.0
C283 C 0.82884 0.08424 0.1764 0.0
C284 C 0.79706 0.08308 0.15859 0.0
H285 H 0.82832 0.10407 0.1932 0.0
H286 H 0.67915 0.01927 0.03922 0.0
H287 H 0.73488 0.03663 0.06731 0.0
H288 H 0.66328 0.11117 0.11437 0.0
H289 H 0.60714 0.09475 0.08496 0.0
H290 H 0.73587 0.10696 0.12549 0.0
H291 H 0.76215 0.0266 0.10593 0.0
H292 H 0.82957 0.01351 0.11614 0.0
H293 H 0.88481 0.01577 0.14698 0.0
C294 C 0.05171 0.63817 0.60238 0.0
C295 C 0.04197 0.63465 0.57572 0.0
C296 C 0.04295 0.67173 0.61684 0.0
C297 C 0.02479 0.70299 0.60487 0.0
C298 C 0.01237 0.69836 0.57864 0.0
C299 C 0.02093 0.66446 0.56413 0.0
C300 C 0.01974 0.74091 0.61912 0.0
C301 C 0.04494 0.75364 0.63834 0.0
C302 C 0.04281 0.79142 0.6532 0.0
C303 C 0.06685 0.7969 0.67568 0.0
C304 C 0.067 0.83184 0.69022 0.0
C305 C 0.04321 0.86249 0.6826 0.0
H306 H 1.00047 0.81962 0.62806 0.0
C307 C 0.01925 0.85729 0.66 0.0
C308 C 0.01898 0.82214 0.64544 0.0
H309 H 1.00041 0.8803 0.65368 0.0
H310 H 0.0673 0.61537 0.61197 0.0
H311 H 0.05122 0.67329 0.6373 0.0
H312 H 0.99768 0.7217 0.56904 0.0
H313 H 0.01302 0.66253 0.5436 0.0
H314 H 0.99595 0.75899 0.61273 0.0
H315 H 0.06926 0.73539 0.64362 0.0
H316 H 0.08577 0.77399 0.68208 0.0
H317 H 0.08627 0.83502 0.70727 0.0
C318 C 0.43617 0.0809 0.95659 0.0
C319 C 0.43492 0.05524 0.97679 0.0
C320 C 0.40206 0.09013 0.94249 0.0
C321 C 0.36629 0.07419 0.94879 0.0
C322 C 0.36511 0.0508 0.97018 0.0
C323 C 0.39907 0.04097 0.98378 0.0
C324 C 0.32979 0.07934 0.93308 0.0
C325 C 0.32848 0.08332 0.90723 0.0
C326 C 0.29186 0.08044 0.89095 0.0
C327 C 0.28981 0.0977 0.86687 0.0
C328 C 0.25664 0.09361 0.85047 0.0
C329 C 0.22484 0.07169 0.85762 0.0
H330 H 0.26094 0.04329 0.91595 0.0
C331 C 0.22701 0.05424 0.88168 0.0
C332 C 0.26007 0.05845 0.8981 0.0
H333 H 0.20352 0.03639 0.88759 0.0
H334 H 0.46361 0.09209 0.95084 0.0
H335 H 0.40387 0.10909 0.92651 0.0
H336 H 0.338 0.03843 0.97562 0.0
H337 H 0.39745 0.0212 0.99938 0.0
H338 H 0.30298 0.07589 0.94291 0.0
H339 H 0.35516 0.08718 0.89731 0.0
H340 H 0.31397 0.11443 0.86072 0.0
H341 H 0.25588 0.10782 0.83222 0.0
C342 C 0.07413 0.46814 0.43298 0.0
C343 C 0.05209 0.47935 0.45422 0.0
C344 C 0.06383 0.43578 0.41721 0.0
C345 C 0.03142 0.41341 0.42248 0.0
C346 C 1.00766 0.42615 0.44254 0.0
C347 C 0.01797 0.45888 0.45839 0.0
C348 C 0.02302 0.37622 0.40773 0.0
C349 C 0.05188 0.35322 0.39946 0.0
C350 C 0.04658 0.31559 0.38469 0.0
C351 C 0.07817 0.29022 0.38387 0.0
C352 C 0.07583 0.25553 0.36909 0.0
C353 C 0.04184 0.24537 0.3545 0.0
H354 H 0.98758 0.32446 0.37001 0.0
C355 C 1.01002 0.27061 0.35536 0.0
C356 C 0.01231 0.30538 0.37032 0.0
H357 H 0.98334 0.26351 0.34444 0.0
H358 H 0.10017 0.48378 0.42892 0.0
H359 H 0.08184 0.42788 0.4012 0.0
H360 H 0.98215 0.40978 0.44672 0.0
H361 H 1.00037 0.46695 0.47459 0.0
H362 H 0.99312 0.36675 0.4052 0.0
H363 H 0.08158 0.36175 0.40455 0.0
H364 H 0.10506 0.29743 0.39454 0.0
H365 H 0.10108 0.23711 0.36857 0.0
C366 C 0.65271 0.97647 0.92492 0.0
C367 C 0.64779 0.99547 0.94917 0.0
C368 C 0.68637 0.98218 0.9114 0.0
C369 C 0.71587 1.00708 0.92189 0.0
C370 C 0.71124 0.02522 0.94639 0.0
C371 C 0.67764 0.01965 0.95981 0.0
C372 C 0.75226 0.01431 0.90842 0.0
C373 C 0.75571 1.00945 0.88257 0.0
C374 C 0.79183 0.01812 0.86912 0.0
C375 C 0.78926 0.02426 0.84242 0.0
C376 C 0.82238 0.03194 0.82891 0.0
C377 C 0.85905 0.0335 0.84176 0.0
H378 H 0.83228 0.01359 0.9023 0.0
C379 C 0.86173 0.02721 0.86846 0.0
C380 C 0.82861 0.01941 0.88197 0.0
H381 H 0.88962 0.02734 0.87884 0.0
H382 H 0.63031 0.95762 0.91623 0.0
H383 H 0.6892 0.96668 0.89295 0.0
H384 H 0.73362 0.0441 0.95516 0.0
H385 H 0.67528 0.03405 0.97869 0.0
H386 H 0.77638 0.0263 0.9203 0.0
H387 H 0.73057 1.00067 0.87043 0.0
H388 H 0.76143 0.02328 0.83194 0.0
H389 H 0.81922 0.03692 0.80839 0.0
C390 C 0.07877 0.68199 0.44513 0.0
C391 C 0.11567 0.67318 0.4558 0.0
C392 C 0.07355 0.71304 0.429 0.0
C393 C 0.10512 0.73626 0.42317 0.0
C394 C 0.14205 0.7272 0.43349 0.0
C395 C 0.14727 0.69618 0.44972 0.0
C396 C 0.10079 0.76912 0.40567 0.0
C397 C 0.06752 0.78892 0.40234 0.0
C398 C 0.06299 0.82185 0.38494 0.0
C399 C 0.03449 0.84968 0.39001 0.0
C400 C 0.02907 0.8809 0.37402 0.0
C401 C 0.05169 0.88471 0.35233 0.0
H402 H 0.10685 0.80398 0.35803 0.0
C403 C 0.07975 0.85648 0.34695 0.0
C404 C 0.08537 0.82539 0.36305 0.0
H405 H 0.09775 0.85867 0.33044 0.0
H406 H 0.05387 0.66444 0.44874 0.0
H407 H 0.04486 0.71811 0.4207 0.0
H408 H 0.16695 0.74439 0.42917 0.0
H409 H 0.17603 0.69049 0.45766 0.0
H410 H 0.12646 0.77831 0.39622 0.0
H411 H 0.04297 0.78213 0.41374 0.0
H412 H 0.01651 0.84744 0.40653 0.0
H413 H 1.00686 0.90187 0.3785 0.0
loop_
_geom_bond_atom_site_label_1
_geom_bond_atom_site_label_2
_geom_bond_distance
_geom_bond_site_symmetry_2
_ccdc_geom_bond_type
Cu0 N1 1.999 1_554 S
Cu0 O6 1.974 . S
Cu0 N11 1.985 . S
Cu0 O20 1.959 1_554 S
N1 Cu0 1.999 1_556 S
N1 C3 1.263 . S
N1 C5 1.389 . S
N2 C3 1.358 . S
N2 C4 1.400 . S
C3 N1 1.263 . S
C3 N2 1.358 . S
C3 H9 0.930 . S
C4 N2 1.400 . S
C4 C5 1.351 . S
C4 H21 0.930 . S
C5 N1 1.389 . S
C5 C4 1.351 . S
C5 H10 0.930 . S
O6 Cu0 1.974 . S
O6 C16 1.282 . S
C7 O8 1.261 1_545 S
C7 O20 1.251 . S
O8 C7 1.261 1_565 S
H9 C3 0.930 . S
H10 C5 0.930 . S
N11 Cu0 1.985 . S
N11 C13 1.335 . S
N11 C14 1.390 . S
N12 C13 1.345 . S
N12 C15 1.336 . S
C13 N11 1.335 . S
C13 N12 1.345 . S
C13 H18 0.930 . S
C14 N11 1.390 . S
C14 C15 1.346 . S
C14 H19 0.930 . S
C15 N12 1.336 . S
C15 C14 1.346 . S
C15 H22 0.929 . S
C16 O6 1.282 . S
C16 O17 1.216 1_545 S
O17 C16 1.216 1_565 S
H18 C13 0.930 . S
H19 C14 0.930 . S
O20 Cu0 1.959 1_556 S
O20 C7 1.251 . S
H21 C4 0.930 . S
H22 C15 0.929 . S
Cu23 N24 1.999 . S
Cu23 O29 1.974 . S
Cu23 N34 1.985 . S
Cu23 O43 1.959 . S
N24 Cu23 1.999 . S
N24 C26 1.263 . S
N24 C28 1.389 1_455 S
N25 C26 1.358 . S
N25 C27 1.414 . S
C26 N24 1.263 . S
C26 N25 1.358 . S
C26 H32 0.930 . S
C27 N25 1.414 . S
C27 C28 1.350 1_455 S
C27 H44 0.921 1_455 S
C28 N24 1.389 1_655 S
C28 C27 1.350 1_655 S
C28 H33 0.930 . S
O29 Cu23 1.974 . S
O29 C39 1.282 . S
C30 O31 1.261 . S
C30 O43 1.251 . S
O31 C30 1.261 . S
H32 C26 0.930 . S
H33 C28 0.930 . S
N34 Cu23 1.985 . S
N34 C36 1.335 . S
N34 C37 1.390 . S
N35 C36 1.345 . S
N35 C38 1.336 . S
C36 N34 1.335 . S
C36 N35 1.345 . S
C36 H41 0.930 . S
C37 N34 1.390 . S
C37 C38 1.346 . S
C37 H42 0.930 . S
C38 N35 1.336 . S
C38 C37 1.346 . S
C38 H45 0.929 . S
C39 O29 1.282 . S
C39 O40 1.216 . S
O40 C39 1.216 . S
H41 C36 0.930 . S
H42 C37 0.930 . S
O43 Cu23 1.959 . S
O43 C30 1.251 . S
H44 C27 0.921 1_655 S
H45 C38 0.929 . S
Li46 N63 1.990 . S
Li46 O106 1.956 . S
Li46 O107 1.970 1_455 S
Li46 O108 1.961 . S
Li47 N71 1.990 1_545 S
Li47 O106 1.970 . S
Li47 O107 1.956 1_455 S
Li47 O109 1.961 . S
Li48 N93 1.990 . S
Li48 O106 1.961 . S
Li48 O108 1.956 . S
Li48 O109 1.970 . S
Li49 N99 1.990 . S
Li49 O107 1.961 . S
Li49 O108 1.970 1_655 S
Li49 O109 1.956 1_655 S
C50 C52 1.348 . S
C50 C53 1.356 . S
C50 O106 1.325 . S
N51 C54 1.314 . S
N51 C55 1.279 . S
C52 C50 1.348 . S
C52 C54 1.353 . S
C52 H110 0.929 . S
C53 C50 1.356 . S
C53 C55 1.358 . S
C53 H111 0.930 . S
C54 N51 1.314 . S
C54 C52 1.353 . S
C54 H112 0.930 . S
C55 N51 1.279 . S
C55 C53 1.358 . S
C55 H113 0.930 . S
C56 C59 1.348 . S
C56 C60 1.356 . S
C56 O107 1.325 . S
C57 N58 1.279 . S
C57 C60 1.358 . S
C57 H114 0.930 . S
N58 C57 1.279 . S
N58 C61 1.314 . S
C59 C56 1.348 . S
C59 C61 1.353 . S
C59 H115 0.929 . S
C60 C56 1.356 . S
C60 C57 1.358 . S
C60 H116 0.930 . S
C61 N58 1.314 . S
C61 C59 1.353 . S
C61 H117 0.930 . S
C62 N63 1.314 . S
C62 C67 1.353 . S
C62 H68 0.930 1_455 S
N63 Li46 1.990 . S
N63 C62 1.314 . S
N63 C65 1.279 . S
C64 C65 1.358 . S
C64 C66 1.356 . S
C64 H118 0.930 . S
C65 N63 1.279 . S
C65 C64 1.358 . S
C65 H69 0.930 . S
C66 C64 1.356 . S
C66 C67 1.348 . S
C67 C62 1.353 . S
C67 C66 1.348 . S
C67 H119 0.929 1_455 S
H68 C62 0.930 1_655 S
H69 C65 0.930 . S
C70 N71 1.314 . S
C70 C72 1.353 . S
C70 H76 0.930 . S
N71 Li47 1.990 1_565 S
N71 C70 1.314 . S
N71 C74 1.279 . S
C72 C70 1.353 . S
C72 C75 1.348 . S
C72 H120 0.929 . S
C73 C74 1.358 . S
C73 C75 1.356 . S
C73 H121 0.930 1_455 S
C74 N71 1.279 . S
C74 C73 1.358 . S
C74 H77 0.930 1_455 S
C75 C72 1.348 . S
C75 C73 1.356 . S
H76 C70 0.930 . S
H77 C74 0.930 1_655 S
C78 C80 1.348 . S
C78 C81 1.356 . S
C78 O108 1.325 . S
N79 C82 1.314 . S
N79 C83 1.279 . S
C80 C78 1.348 . S
C80 C82 1.353 . S
C80 H122 0.929 1_455 S
C81 C78 1.356 . S
C81 C83 1.358 . S
C81 H123 0.930 . S
C82 N79 1.314 . S
C82 C80 1.353 . S
C82 H124 0.930 1_455 S
C83 N79 1.279 . S
C83 C81 1.358 . S
C83 H125 0.930 . S
C84 C85 1.348 . S
C84 C86 1.356 . S
C84 O109 1.325 1_565 S
C85 C84 1.348 . S
C85 C87 1.353 . S
C85 H126 0.929 . S
C86 C84 1.356 . S
C86 C88 1.358 . S
C86 H127 0.930 1_455 S
C87 C85 1.353 . S
C87 N89 1.314 . S
C87 H128 0.930 . S
C88 C86 1.358 . S
C88 N89 1.279 . S
C88 H129 0.930 1_455 S
N89 C87 1.314 . S
N89 C88 1.279 . S
C90 C92 1.353 . S
C90 N93 1.314 . S
C90 H96 0.930 . S
C91 N93 1.279 . S
C91 C94 1.358 . S
C91 H97 0.930 . S
C92 C90 1.353 . S
C92 C95 1.348 . S
C92 H130 0.929 . S
N93 Li48 1.990 . S
N93 C90 1.314 . S
N93 C91 1.279 . S
C94 C91 1.358 . S
C94 C95 1.356 . S
C94 H131 0.930 . S
C95 C92 1.348 . S
C95 C94 1.356 . S
H96 C90 0.930 . S
H97 C91 0.930 . S
C98 N99 1.314 . S
C98 C100 1.353 . S
C98 H104 0.930 . S
N99 Li49 1.990 . S
N99 C98 1.314 . S
N99 C102 1.279 . S
C100 C98 1.353 . S
C100 C103 1.348 . S
C100 H132 0.929 . S
C101 C102 1.358 . S
C101 C103 1.356 . S
C101 H133 0.930 . S
C102 N99 1.279 . S
C102 C101 1.358 . S
C102 H105 0.930 . S
C103 C100 1.348 . S
C103 C101 1.356 . S
H104 C98 0.930 . S
H105 C102 0.930 . S
O106 Li46 1.956 . S
O106 Li47 1.970 . S
O106 Li48 1.961 . S
O106 C50 1.325 . S
O107 Li46 1.970 1_655 S
O107 Li47 1.956 1_655 S
O107 Li49 1.961 . S
O107 C56 1.325 . S
O108 Li46 1.961 . S
O108 Li48 1.956 . S
O108 Li49 1.970 1_455 S
O108 C78 1.325 . S
O109 Li47 1.961 . S
O109 Li48 1.970 . S
O109 Li49 1.956 1_455 S
O109 C84 1.325 1_545 S
H110 C52 0.929 . S
H111 C53 0.930 . S
H112 C54 0.930 . S
H113 C55 0.930 . S
H114 C57 0.930 . S
H115 C59 0.929 . S
H116 C60 0.930 . S
H117 C61 0.930 . S
H118 C64 0.930 . S
H119 C67 0.929 1_655 S
H120 C72 0.929 . S
H121 C73 0.930 1_655 S
H122 C80 0.929 1_655 S
H123 C81 0.930 . S
H124 C82 0.930 1_655 S
H125 C83 0.930 . S
H126 C85 0.929 . S
H127 C86 0.930 1_655 S
H128 C87 0.930 . S
H129 C88 0.930 1_655 S
H130 C92 0.929 . S
H131 C94 0.930 . S
H132 C100 0.929 . S
H133 C101 0.930 . S
Li134 N151 1.990 1_455 S
Li134 O194 1.956 . S
Li134 O195 1.970 1_545 S
Li134 O196 1.961 . S
Li135 N159 1.990 . S
Li135 O194 1.970 . S
Li135 O195 1.956 1_545 S
Li135 O197 1.961 . S
Li136 N181 1.990 . S
Li136 O194 1.961 . S
Li136 O196 1.956 . S
Li136 O197 1.970 . S
Li137 N187 1.990 . S
Li137 O195 1.961 . S
Li137 O196 1.970 1_565 S
Li137 O197 1.956 1_565 S
C138 C140 1.348 . S
C138 C141 1.356 . S
C138 O194 1.325 . S
N139 C142 1.314 . S
N139 C143 1.279 . S
C140 C138 1.348 . S
C140 C142 1.353 . S
C140 H198 0.929 . S
C141 C138 1.356 . S
C141 C143 1.358 . S
C141 H199 0.930 . S
C142 N139 1.314 . S
C142 C140 1.353 . S
C142 H200 0.930 . S
C143 N139 1.279 . S
C143 C141 1.358 . S
C143 H201 0.930 . S
C144 C147 1.348 . S
C144 C148 1.356 . S
C144 O195 1.325 . S
C145 N146 1.279 . S
C145 C148 1.358 . S
C145 H202 0.930 . S
N146 C145 1.279 . S
N146 C149 1.314 . S
C147 C144 1.348 . S
C147 C149 1.353 . S
C147 H203 0.929 . S
C148 C144 1.356 . S
C148 C145 1.358 . S
C148 H204 0.930 . S
C149 N146 1.314 . S
C149 C147 1.353 . S
C149 H205 0.930 . S
C150 N151 1.314 . S
C150 C155 1.353 . S
C150 H156 0.930 1_545 S
N151 Li134 1.990 1_655 S
N151 C150 1.314 . S
N151 C153 1.279 . S
C152 C153 1.358 . S
C152 C154 1.356 . S
C152 H206 0.930 . S
C153 N151 1.279 . S
C153 C152 1.358 . S
C153 H157 0.930 . S
C154 C152 1.356 . S
C154 C155 1.348 . S
C155 C150 1.353 . S
C155 C154 1.348 . S
C155 H207 0.929 1_545 S
H156 C150 0.930 1_565 S
H157 C153 0.930 . S
C158 N159 1.314 . S
C158 C160 1.353 . S
C158 H164 0.930 . S
N159 Li135 1.990 . S
N159 C158 1.314 . S
N159 C162 1.279 . S
C160 C158 1.353 . S
C160 C163 1.348 . S
C160 H208 0.929 . S
C161 C162 1.358 . S
C161 C163 1.356 . S
C161 H209 0.930 1_545 S
C162 N159 1.279 . S
C162 C161 1.358 . S
C162 H165 0.930 1_545 S
C163 C160 1.348 . S
C163 C161 1.356 . S
H164 C158 0.930 . S
H165 C162 0.930 1_565 S
C166 C168 1.348 . S
C166 C169 1.356 . S
C166 O196 1.325 1_655 S
N167 C170 1.314 . S
N167 C171 1.279 . S
C168 C166 1.348 . S
C168 C170 1.353 . S
C168 H210 0.929 1_545 S
C169 C166 1.356 . S
C169 C171 1.358 . S
C169 H211 0.930 . S
C170 N167 1.314 . S
C170 C168 1.353 . S
C170 H212 0.930 1_545 S
C171 N167 1.279 . S
C171 C169 1.358 . S
C171 H213 0.930 . S
C172 C173 1.348 . S
C172 C174 1.356 . S
C172 O197 1.325 . S
C173 C172 1.348 . S
C173 C175 1.353 . S
C173 H214 0.929 . S
C174 C172 1.356 . S
C174 C176 1.358 . S
C174 H215 0.930 1_545 S
C175 C173 1.353 . S
C175 N177 1.314 . S
C175 H216 0.930 . S
C176 C174 1.358 . S
C176 N177 1.279 . S
C176 H217 0.930 1_545 S
N177 C175 1.314 . S
N177 C176 1.279 . S
C178 C180 1.353 . S
C178 N181 1.314 . S
C178 H184 0.930 . S
C179 N181 1.279 . S
C179 C182 1.358 . S
C179 H185 0.930 . S
C180 C178 1.353 . S
C180 C183 1.348 . S
C180 H218 0.929 . S
N181 Li136 1.990 . S
N181 C178 1.314 . S
N181 C179 1.279 . S
C182 C179 1.358 . S
C182 C183 1.356 . S
C182 H219 0.930 . S
C183 C180 1.348 . S
C183 C182 1.356 . S
H184 C178 0.930 . S
H185 C179 0.930 . S
C186 N187 1.314 . S
C186 C188 1.353 . S
C186 H192 0.930 . S
N187 Li137 1.990 . S
N187 C186 1.314 . S
N187 C190 1.279 . S
C188 C186 1.353 . S
C188 C191 1.348 . S
C188 H220 0.929 . S
C189 C190 1.358 . S
C189 C191 1.356 . S
C189 H221 0.930 . S
C190 N187 1.279 . S
C190 C189 1.358 . S
C190 H193 0.930 . S
C191 C188 1.348 . S
C191 C189 1.356 . S
H192 C186 0.930 . S
H193 C190 0.930 . S
O194 Li134 1.956 . S
O194 Li135 1.970 . S
O194 Li136 1.961 . S
O194 C138 1.325 . S
O195 Li134 1.970 1_565 S
O195 Li135 1.956 1_565 S
O195 Li137 1.961 . S
O195 C144 1.325 . S
O196 Li134 1.961 . S
O196 Li136 1.956 . S
O196 Li137 1.970 1_545 S
O196 C166 1.325 1_455 S
O197 Li135 1.961 . S
O197 Li136 1.970 . S
O197 Li137 1.956 1_545 S
O197 C172 1.325 . S
H198 C140 0.929 . S
H199 C141 0.930 . S
H200 C142 0.930 . S
H201 C143 0.930 . S
H202 C145 0.930 . S
H203 C147 0.929 . S
H204 C148 0.930 . S
H205 C149 0.930 . S
H206 C152 0.930 . S
H207 C155 0.929 1_565 S
H208 C160 0.929 . S
H209 C161 0.930 1_565 S
H210 C168 0.929 1_565 S
H211 C169 0.930 . S
H212 C170 0.930 1_565 S
H213 C171 0.930 . S
H214 C173 0.929 . S
H215 C174 0.930 1_565 S
H216 C175 0.930 . S
H217 C176 0.930 1_565 S
H218 C180 0.929 . S
H219 C182 0.930 . S
H220 C188 0.929 . S
H221 C189 0.930 . S
C222 C223 1.386 . S
C222 C224 1.383 . S
C222 H238 0.951 . S
C223 C222 1.386 . S
C223 C227 1.383 . S
C224 C222 1.383 . S
C224 C225 1.402 . S
C224 H239 0.951 . S
C225 C224 1.402 . S
C225 C226 1.375 . S
C225 C228 1.481 . S
C226 C225 1.375 . S
C226 C227 1.367 . S
C226 H240 0.951 . S
C227 C223 1.383 . S
C227 C226 1.367 . S
C227 H241 0.950 . S
C228 C225 1.481 . S
C228 C229 1.297 . S
C228 H242 0.950 . S
C229 C228 1.297 . S
C229 C230 1.479 . S
C229 H243 0.950 . S
C230 C229 1.479 . S
C230 C231 1.375 . S
C230 C236 1.404 . S
C231 C230 1.375 . S
C231 C232 1.369 . S
C231 H244 0.950 . S
C232 C231 1.369 . S
C232 C233 1.392 . S
C232 H245 0.951 . S
C233 C232 1.392 . S
C233 C235 1.384 . S
H234 C236 0.949 . S
C235 C233 1.384 . S
C235 C236 1.385 . S
C235 H237 0.950 . S
C236 C230 1.404 . S
C236 H234 0.949 . S
C236 C235 1.385 . S
H237 C235 0.950 . S
H238 C222 0.951 . S
H239 C224 0.951 . S
H240 C226 0.951 . S
H241 C227 0.950 . S
H242 C228 0.950 . S
H243 C229 0.950 . S
H244 C231 0.950 . S
H245 C232 0.951 . S
C246 C247 1.386 . S
C246 C248 1.383 . S
C246 H262 0.951 . S
C247 C246 1.386 . S
C247 C251 1.383 1_455 S
C248 C246 1.383 . S
C248 C249 1.402 . S
C248 H263 0.951 . S
C249 C248 1.402 . S
C249 C250 1.375 1_455 S
C249 C252 1.481 . S
C250 C249 1.375 1_655 S
C250 C251 1.367 . S
C250 H264 0.951 . S
C251 C247 1.383 1_655 S
C251 C250 1.367 . S
C251 H265 0.950 . S
C252 C249 1.481 . S
C252 C253 1.297 . S
C252 H266 0.950 . S
C253 C252 1.297 . S
C253 C254 1.479 . S
C253 H267 0.950 . S
C254 C253 1.479 . S
C254 C255 1.375 . S
C254 C260 1.404 . S
C255 C254 1.375 . S
C255 C256 1.369 . S
C255 H268 0.950 . S
C256 C255 1.369 . S
C256 C257 1.392 . S
C256 H269 0.951 . S
C257 C256 1.392 . S
C257 C259 1.384 . S
H258 C260 0.949 . S
C259 C257 1.384 . S
C259 C260 1.385 . S
C259 H261 0.950 1_455 S
C260 C254 1.404 . S
C260 H258 0.949 . S
C260 C259 1.385 . S
H261 C259 0.950 1_655 S
H262 C246 0.951 . S
H263 C248 0.951 . S
H264 C250 0.951 . S
H265 C251 0.950 . S
H266 C252 0.950 . S
H267 C253 0.950 . S
H268 C255 0.950 . S
H269 C256 0.951 . S
C270 C271 1.386 . S
C270 C272 1.383 . S
C270 H286 0.951 1_545 S
C271 C270 1.386 . S
C271 C275 1.383 . S
C272 C270 1.383 . S
C272 C273 1.402 . S
C272 H287 0.933 1_545 S
C273 C272 1.402 . S
C273 C274 1.375 . S
C273 C276 1.481 . S
C274 C273 1.375 . S
C274 C275 1.367 . S
C274 H288 0.951 . S
C275 C271 1.383 . S
C275 C274 1.367 . S
C275 H289 0.950 . S
C276 C273 1.481 . S
C276 C277 1.297 . S
C276 H290 0.950 . S
C277 C276 1.297 . S
C277 C278 1.479 . S
C277 H291 0.950 . S
C278 C277 1.479 . S
C278 C279 1.375 . S
C278 C284 1.404 . S
C279 C278 1.375 . S
C279 C280 1.369 . S
C279 H292 0.950 1_545 S
C280 C279 1.369 . S
C280 C281 1.392 . S
C280 H293 0.951 1_545 S
C281 C280 1.392 . S
C281 C283 1.384 . S
H282 C284 0.949 . S
C283 C281 1.384 . S
C283 C284 1.385 . S
C283 H285 0.950 . S
C284 C278 1.404 . S
C284 H282 0.949 . S
C284 C283 1.385 . S
H285 C283 0.950 . S
H286 C270 0.951 1_565 S
H287 C272 0.933 1_565 S
H288 C274 0.951 . S
H289 C275 0.950 . S
H290 C276 0.950 . S
H291 C277 0.950 . S
H292 C279 0.950 1_565 S
H293 C280 0.951 1_565 S
C294 C295 1.386 . S
C294 C296 1.383 . S
C294 H310 0.951 . S
C295 C294 1.386 . S
C295 C299 1.383 . S
C296 C294 1.383 . S
C296 C297 1.402 . S
C296 H311 0.951 . S
C297 C296 1.402 . S
C297 C298 1.375 . S
C297 C300 1.481 . S
C298 C297 1.375 . S
C298 C299 1.367 . S
C298 H312 0.948 1_455 S
C299 C295 1.383 . S
C299 C298 1.367 . S
C299 H313 0.950 . S
C300 C297 1.481 . S
C300 C301 1.297 . S
C300 H314 0.950 . S
C301 C300 1.297 . S
C301 C302 1.479 . S
C301 H315 0.950 . S
C302 C301 1.479 . S
C302 C303 1.375 . S
C302 C308 1.404 . S
C303 C302 1.375 . S
C303 C304 1.369 . S
C303 H316 0.950 . S
C304 C303 1.369 . S
C304 C305 1.392 . S
C304 H317 0.951 . S
C305 C304 1.392 . S
C305 C307 1.384 . S
H306 C308 0.949 . S
C307 C305 1.384 . S
C307 C308 1.385 . S
C307 H309 0.950 . S
C308 C302 1.404 . S
C308 H306 0.949 . S
C308 C307 1.385 . S
H309 C307 0.950 . S
H310 C294 0.951 . S
H311 C296 0.951 . S
H312 C298 0.948 1_655 S
H313 C299 0.950 . S
H314 C300 0.950 . S
H315 C301 0.950 . S
H316 C303 0.950 . S
H317 C304 0.951 . S
C318 C319 1.386 . S
C318 C320 1.383 . S
C318 H334 0.951 . S
C319 C318 1.386 . S
C319 C323 1.383 1_545 S
C320 C318 1.383 . S
C320 C321 1.402 . S
C320 H335 0.951 . S
C321 C320 1.402 . S
C321 C322 1.375 1_545 S
C321 C324 1.481 . S
C322 C321 1.375 1_565 S
C322 C323 1.367 . S
C322 H336 0.951 . S
C323 C319 1.383 1_565 S
C323 C322 1.367 . S
C323 H337 0.950 . S
C324 C321 1.481 . S
C324 C325 1.297 . S
C324 H338 0.950 1_545 S
C325 C324 1.297 . S
C325 C326 1.479 . S
C325 H339 0.950 . S
C326 C325 1.479 . S
C326 C327 1.375 . S
C326 C332 1.430 . S
C327 C326 1.375 . S
C327 C328 1.369 . S
C327 H340 0.950 . S
C328 C327 1.369 . S
C328 C329 1.392 . S
C328 H341 0.951 . S
C329 C328 1.392 . S
C329 C331 1.385 1_545 S
H330 C332 0.923 1_565 S
C331 C329 1.385 1_565 S
C331 C332 1.385 1_565 S
C331 H333 0.949 . S
C332 C326 1.430 . S
C332 H330 0.923 1_545 S
C332 C331 1.385 1_545 S
H333 C331 0.949 . S
H334 C318 0.951 . S
H335 C320 0.951 . S
H336 C322 0.951 . S
H337 C323 0.950 . S
H338 C324 0.950 1_565 S
H339 C325 0.950 . S
H340 C327 0.950 . S
H341 C328 0.951 . S
C342 C343 1.386 . S
C342 C344 1.383 . S
C342 H358 0.951 . S
C343 C342 1.386 . S
C343 C347 1.383 . S
C344 C342 1.383 . S
C344 C345 1.402 . S
C344 H359 0.951 . S
C345 C344 1.402 . S
C345 C346 1.375 . S
C345 C348 1.481 . S
C346 C345 1.375 . S
C346 C347 1.367 . S
C346 H360 0.951 1_455 S
C347 C343 1.383 . S
C347 C346 1.367 . S
C347 H361 0.950 1_455 S
C348 C345 1.481 . S
C348 C349 1.297 . S
C348 H362 0.950 . S
C349 C348 1.297 . S
C349 C350 1.479 . S
C349 H363 0.950 . S
C350 C349 1.479 . S
C350 C351 1.375 . S
C350 C356 1.404 . S
C351 C350 1.375 . S
C351 C352 1.369 . S
C351 H364 0.950 . S
C352 C351 1.369 . S
C352 C353 1.392 . S
C352 H365 0.951 . S
C353 C352 1.392 . S
C353 C355 1.384 . S
H354 C356 0.949 1_655 S
C355 C353 1.384 . S
C355 C356 1.385 . S
C355 H357 0.950 1_455 S
C356 C350 1.404 . S
C356 H354 0.949 1_455 S
C356 C355 1.385 . S
H357 C355 0.950 1_655 S
H358 C342 0.951 . S
H359 C344 0.951 . S
H360 C346 0.951 1_655 S
H361 C347 0.950 1_655 S
H362 C348 0.950 . S
H363 C349 0.950 . S
H364 C351 0.950 . S
H365 C352 0.951 . S
C366 C367 1.386 . S
C366 C368 1.383 . S
C366 H382 0.951 . S
C367 C366 1.386 . S
C367 C371 1.383 . S
C368 C366 1.383 . S
C368 C369 1.402 . S
C368 H383 0.951 . S
C369 C368 1.402 . S
C369 C370 1.375 . S
C369 C372 1.481 . S
C370 C369 1.375 . S
C370 C371 1.367 . S
C370 H384 0.951 . S
C371 C367 1.383 . S
C371 C370 1.367 . S
C371 H385 0.950 . S
C372 C369 1.481 . S
C372 C373 1.297 . S
C372 H386 0.950 . S
C373 C372 1.297 . S
C373 C374 1.479 . S
C373 H387 0.950 . S
C374 C373 1.479 . S
C374 C375 1.375 . S
C374 C380 1.404 . S
C375 C374 1.375 . S
C375 C376 1.369 . S
C375 H388 0.950 . S
C376 C375 1.369 . S
C376 C377 1.392 . S
C376 H389 0.951 . S
C377 C376 1.392 . S
C377 C379 1.384 . S
H378 C380 0.949 . S
C379 C377 1.384 . S
C379 C380 1.385 . S
C379 H381 0.950 . S
C380 C374 1.404 . S
C380 H378 0.949 . S
C380 C379 1.385 . S
H381 C379 0.950 . S
H382 C366 0.951 . S
H383 C368 0.951 . S
H384 C370 0.951 . S
H385 C371 0.950 . S
H386 C372 0.950 . S
H387 C373 0.950 . S
H388 C375 0.950 . S
H389 C376 0.951 . S
C390 C391 1.376 1_655 S
C390 C392 1.381 1_655 S
C390 H406 0.962 . S
C391 C390 1.376 1_455 S
C391 C395 1.383 . S
C392 C390 1.381 1_455 S
C392 C393 1.402 . S
C392 H407 0.951 1_455 S
C393 C392 1.402 . S
C393 C394 1.375 . S
C393 C396 1.481 . S
C394 C393 1.375 . S
C394 C395 1.367 . S
C394 H408 0.951 . S
C395 C391 1.383 . S
C395 C394 1.367 . S
C395 H409 0.950 . S
C396 C393 1.481 . S
C396 C397 1.297 . S
C396 H410 0.950 . S
C397 C396 1.297 . S
C397 C398 1.479 . S
C397 H411 0.950 1_455 S
C398 C397 1.479 . S
C398 C399 1.375 1_455 S
C398 C404 1.404 . S
C399 C398 1.375 1_655 S
C399 C400 1.369 . S
C399 H412 0.950 . S
C400 C399 1.369 . S
C400 C401 1.392 1_655 S
C400 H413 0.951 . S
C401 C400 1.392 1_455 S
C401 C403 1.384 . S
H402 C404 0.949 . S
C403 C401 1.384 . S
C403 C404 1.385 . S
C403 H405 0.950 . S
C404 C398 1.404 . S
C404 H402 0.949 . S
C404 C403 1.385 . S
H405 C403 0.950 . S
H406 C390 0.962 . S
H407 C392 0.951 1_655 S
H408 C394 0.951 . S
H409 C395 0.950 . S
H410 C396 0.950 . S
H411 C397 0.950 1_655 S
H412 C399 0.950 . S
H413 C400 0.951 . S
C233 C95 1.453 . S
C223 N12 1.394 . S
C257 C183 1.493 . S
C247 N25 1.443 . S
C281 C103 1.430 . S
C271 C16 1.441 . S
C305 C191 1.471 . S
C295 C30 1.489 . S
C329 C163 1.482 . S
C319 C7 1.485 . S
C353 C66 1.422 . S
C343 C39 1.441 . S
C377 C154 1.480 . S
C367 N2 1.477 . S
C391 N35 1.437 . S
C401 C75 1.439 . S
