# Generated by pormake.
# Topology ibd, (4,6)-cn, num edge types: 1
# Building blocks:
#     Node 0, Type 0, BuildingBlock: QUQFOY_clean_sbu_3, # of connection points: 4
#     Node 1, Type 0, BuildingBlock: QUQFOY_clean_sbu_3, # of connection points: 4
#     Node 2, Type 0, BuildingBlock: QUQFOY_clean_sbu_3, # of connection points: 4
#     Node 3, Type 0, BuildingBlock: QUQFOY_clean_sbu_3, # of connection points: 4
#     Node 4, Type 0, BuildingBlock: QUQFOY_clean_sbu_3, # of connection points: 4
#     Node 5, Type 0, BuildingBlock: QUQFOY_clean_sbu_3, # of connection points: 4
#     Node 6, Type 0, BuildingBlock: QUQFOY_clean_sbu_3, # of connection points: 4
#     Node 7, Type 0, BuildingBlock: QUQFOY_clean_sbu_3, # of connection points: 4
#     Node 8, Type 0, BuildingBlock: QUQFOY_clean_sbu_3, # of connection points: 4
#     Node 9, Type 0, BuildingBlock: QUQFOY_clean_sbu_3, # of connection points: 4
#     Node 10, Type 0, BuildingBlock: QUQFOY_clean_sbu_3, # of connection points: 4
#     Node 11, Type 0, BuildingBlock: QUQFOY_clean_sbu_3, # of connection points: 4
#     Node 12, Type 0, BuildingBlock: QUQFOY_clean_sbu_3, # of connection points: 4
#     Node 13, Type 0, BuildingBlock: QUQFOY_clean_sbu_3, # of connection points: 4
#     Node 14, Type 0, BuildingBlock: QUQFOY_clean_sbu_3, # of connection points: 4
#     Node 15, Type 0, BuildingBlock: QUQFOY_clean_sbu_3, # of connection points: 4
#     Node 16, Type 0, BuildingBlock: QUQFOY_clean_sbu_3, # of connection points: 4
#     Node 17, Type 0, BuildingBlock: QUQFOY_clean_sbu_3, # of connection points: 4
#     Node 18, Type 0, BuildingBlock: QUQFOY_clean_sbu_3, # of connection points: 4
#     Node 19, Type 0, BuildingBlock: QUQFOY_clean_sbu_3, # of connection points: 4
#     Node 20, Type 0, BuildingBlock: QUQFOY_clean_sbu_3, # of connection points: 4
#     Node 21, Type 0, BuildingBlock: QUQFOY_clean_sbu_3, # of connection points: 4
#     Node 22, Type 0, BuildingBlock: QUQFOY_clean_sbu_3, # of connection points: 4
#     Node 23, Type 0, BuildingBlock: QUQFOY_clean_sbu_3, # of connection points: 4
#     Node 24, Type 1, BuildingBlock: IZENUY_clean_sbu_0, # of connection points: 6
#     Node 25, Type 1, BuildingBlock: IZENUY_clean_sbu_0, # of connection points: 6
#     Node 26, Type 1, BuildingBlock: IZENUY_clean_sbu_0, # of connection points: 6
#     Node 27, Type 1, BuildingBlock: IZENUY_clean_sbu_0, # of connection points: 6
#     Node 28, Type 1, BuildingBlock: IZENUY_clean_sbu_0, # of connection points: 6
#     Node 29, Type 1, BuildingBlock: IZENUY_clean_sbu_0, # of connection points: 6
#     Node 30, Type 1, BuildingBlock: IZENUY_clean_sbu_0, # of connection points: 6
#     Node 31, Type 1, BuildingBlock: IZENUY_clean_sbu_0, # of connection points: 6
#     Node 32, Type 1, BuildingBlock: IZENUY_clean_sbu_0, # of connection points: 6
#     Node 33, Type 1, BuildingBlock: IZENUY_clean_sbu_0, # of connection points: 6
#     Node 34, Type 1, BuildingBlock: IZENUY_clean_sbu_0, # of connection points: 6
#     Node 35, Type 1, BuildingBlock: IZENUY_clean_sbu_0, # of connection points: 6
#     Node 36, Type 1, BuildingBlock: IZENUY_clean_sbu_0, # of connection points: 6
#     Node 37, Type 1, BuildingBlock: IZENUY_clean_sbu_0, # of connection points: 6
#     Node 38, Type 1, BuildingBlock: IZENUY_clean_sbu_0, # of connection points: 6
#     Node 39, Type 1, BuildingBlock: IZENUY_clean_sbu_0, # of connection points: 6
#     Edge 40, Type (0, 1), BuildingBlock: KIFKEQ_clean_linker_1, # of connection points: 2
#     Edge 41, Type (0, 1), BuildingBlock: KIFKEQ_clean_linker_1, # of connection points: 2
#     Edge 42, Type (0, 1), BuildingBlock: KIFKEQ_clean_linker_1, # of connection points: 2
#     Edge 43, Type (0, 1), BuildingBlock: KIFKEQ_clean_linker_1, # of connection points: 2
#     Edge 44, Type (0, 1), BuildingBlock: KIFKEQ_clean_linker_1, # of connection points: 2
#     Edge 45, Type (0, 1), BuildingBlock: KIFKEQ_clean_linker_1, # of connection points: 2
#     Edge 46, Type (0, 1), BuildingBlock: KIFKEQ_clean_linker_1, # of connection points: 2
#     Edge 47, Type (0, 1), BuildingBlock: KIFKEQ_clean_linker_1, # of connection points: 2
#     Edge 48, Type (0, 1), BuildingBlock: KIFKEQ_clean_linker_1, # of connection points: 2
#     Edge 49, Type (0, 1), BuildingBlock: KIFKEQ_clean_linker_1, # of connection points: 2
#     Edge 50, Type (0, 1), BuildingBlock: KIFKEQ_clean_linker_1, # of connection points: 2
#     Edge 51, Type (0, 1), BuildingBlock: KIFKEQ_clean_linker_1, # of connection points: 2
#     Edge 52, Type (0, 1), BuildingBlock: KIFKEQ_clean_linker_1, # of connection points: 2
#     Edge 53, Type (0, 1), BuildingBlock: KIFKEQ_clean_linker_1, # of connection points: 2
#     Edge 54, Type (0, 1), BuildingBlock: KIFKEQ_clean_linker_1, # of connection points: 2
#     Edge 55, Type (0, 1), BuildingBlock: KIFKEQ_clean_linker_1, # of connection points: 2
#     Edge 56, Type (0, 1), BuildingBlock: KIFKEQ_clean_linker_1, # of connection points: 2
#     Edge 57, Type (0, 1), BuildingBlock: KIFKEQ_clean_linker_1, # of connection points: 2
#     Edge 58, Type (0, 1), BuildingBlock: KIFKEQ_clean_linker_1, # of connection points: 2
#     Edge 59, Type (0, 1), BuildingBlock: KIFKEQ_clean_linker_1, # of connection points: 2
#     Edge 60, Type (0, 1), BuildingBlock: KIFKEQ_clean_linker_1, # of connection points: 2
#     Edge 61, Type (0, 1), BuildingBlock: KIFKEQ_clean_linker_1, # of connection points: 2
#     Edge 62, Type (0, 1), BuildingBlock: KIFKEQ_clean_linker_1, # of connection points: 2
#     Edge 63, Type (0, 1), BuildingBlock: KIFKEQ_clean_linker_1, # of connection points: 2
#     Edge 64, Type (0, 1), BuildingBlock: KIFKEQ_clean_linker_1, # of connection points: 2
#     Edge 65, Type (0, 1), BuildingBlock: KIFKEQ_clean_linker_1, # of connection points: 2
#     Edge 66, Type (0, 1), BuildingBlock: KIFKEQ_clean_linker_1, # of connection points: 2
#     Edge 67, Type (0, 1), BuildingBlock: KIFKEQ_clean_linker_1, # of connection points: 2
#     Edge 68, Type (0, 1), BuildingBlock: KIFKEQ_clean_linker_1, # of connection points: 2
#     Edge 69, Type (0, 1), BuildingBlock: KIFKEQ_clean_linker_1, # of connection points: 2
#     Edge 70, Type (0, 1), BuildingBlock: KIFKEQ_clean_linker_1, # of connection points: 2
#     Edge 71, Type (0, 1), BuildingBlock: KIFKEQ_clean_linker_1, # of connection points: 2
#     Edge 72, Type (0, 1), BuildingBlock: KIFKEQ_clean_linker_1, # of connection points: 2
#     Edge 73, Type (0, 1), BuildingBlock: KIFKEQ_clean_linker_1, # of connection points: 2
#     Edge 74, Type (0, 1), BuildingBlock: KIFKEQ_clean_linker_1, # of connection points: 2
#     Edge 75, Type (0, 1), BuildingBlock: KIFKEQ_clean_linker_1, # of connection points: 2
#     Edge 76, Type (0, 1), BuildingBlock: KIFKEQ_clean_linker_1, # of connection points: 2
#     Edge 77, Type (0, 1), BuildingBlock: KIFKEQ_clean_linker_1, # of connection points: 2
#     Edge 78, Type (0, 1), BuildingBlock: KIFKEQ_clean_linker_1, # of connection points: 2
#     Edge 79, Type (0, 1), BuildingBlock: KIFKEQ_clean_linker_1, # of connection points: 2
#     Edge 80, Type (0, 1), BuildingBlock: KIFKEQ_clean_linker_1, # of connection points: 2
#     Edge 81, Type (0, 1), BuildingBlock: KIFKEQ_clean_linker_1, # of connection points: 2
#     Edge 82, Type (0, 1), BuildingBlock: KIFKEQ_clean_linker_1, # of connection points: 2
#     Edge 83, Type (0, 1), BuildingBlock: KIFKEQ_clean_linker_1, # of connection points: 2
#     Edge 84, Type (0, 1), BuildingBlock: KIFKEQ_clean_linker_1, # of connection points: 2
#     Edge 85, Type (0, 1), BuildingBlock: KIFKEQ_clean_linker_1, # of connection points: 2
#     Edge 86, Type (0, 1), BuildingBlock: KIFKEQ_clean_linker_1, # of connection points: 2
#     Edge 87, Type (0, 1), BuildingBlock: KIFKEQ_clean_linker_1, # of connection points: 2
#     Edge 88, Type (0, 1), BuildingBlock: KIFKEQ_clean_linker_1, # of connection points: 2
#     Edge 89, Type (0, 1), BuildingBlock: KIFKEQ_clean_linker_1, # of connection points: 2
#     Edge 90, Type (0, 1), BuildingBlock: KIFKEQ_clean_linker_1, # of connection points: 2
#     Edge 91, Type (0, 1), BuildingBlock: KIFKEQ_clean_linker_1, # of connection points: 2
#     Edge 92, Type (0, 1), BuildingBlock: KIFKEQ_clean_linker_1, # of connection points: 2
#     Edge 93, Type (0, 1), BuildingBlock: KIFKEQ_clean_linker_1, # of connection points: 2
#     Edge 94, Type (0, 1), BuildingBlock: KIFKEQ_clean_linker_1, # of connection points: 2
#     Edge 95, Type (0, 1), BuildingBlock: KIFKEQ_clean_linker_1, # of connection points: 2
#     Edge 96, Type (0, 1), BuildingBlock: KIFKEQ_clean_linker_1, # of connection points: 2
#     Edge 97, Type (0, 1), BuildingBlock: KIFKEQ_clean_linker_1, # of connection points: 2
#     Edge 98, Type (0, 1), BuildingBlock: KIFKEQ_clean_linker_1, # of connection points: 2
#     Edge 99, Type (0, 1), BuildingBlock: KIFKEQ_clean_linker_1, # of connection points: 2
#     Edge 100, Type (0, 1), BuildingBlock: KIFKEQ_clean_linker_1, # of connection points: 2
#     Edge 101, Type (0, 1), BuildingBlock: KIFKEQ_clean_linker_1, # of connection points: 2
#     Edge 102, Type (0, 1), BuildingBlock: KIFKEQ_clean_linker_1, # of connection points: 2
#     Edge 103, Type (0, 1), BuildingBlock: KIFKEQ_clean_linker_1, # of connection points: 2
#     Edge 104, Type (0, 1), BuildingBlock: KIFKEQ_clean_linker_1, # of connection points: 2
#     Edge 105, Type (0, 1), BuildingBlock: KIFKEQ_clean_linker_1, # of connection points: 2
#     Edge 106, Type (0, 1), BuildingBlock: KIFKEQ_clean_linker_1, # of connection points: 2
#     Edge 107, Type (0, 1), BuildingBlock: KIFKEQ_clean_linker_1, # of connection points: 2
#     Edge 108, Type (0, 1), BuildingBlock: KIFKEQ_clean_linker_1, # of connection points: 2
#     Edge 109, Type (0, 1), BuildingBlock: KIFKEQ_clean_linker_1, # of connection points: 2
#     Edge 110, Type (0, 1), BuildingBlock: KIFKEQ_clean_linker_1, # of connection points: 2
#     Edge 111, Type (0, 1), BuildingBlock: KIFKEQ_clean_linker_1, # of connection points: 2
#     Edge 112, Type (0, 1), BuildingBlock: KIFKEQ_clean_linker_1, # of connection points: 2
#     Edge 113, Type (0, 1), BuildingBlock: KIFKEQ_clean_linker_1, # of connection points: 2
#     Edge 114, Type (0, 1), BuildingBlock: KIFKEQ_clean_linker_1, # of connection points: 2
#     Edge 115, Type (0, 1), BuildingBlock: KIFKEQ_clean_linker_1, # of connection points: 2
#     Edge 116, Type (0, 1), BuildingBlock: KIFKEQ_clean_linker_1, # of connection points: 2
#     Edge 117, Type (0, 1), BuildingBlock: KIFKEQ_clean_linker_1, # of connection points: 2
#     Edge 118, Type (0, 1), BuildingBlock: KIFKEQ_clean_linker_1, # of connection points: 2
#     Edge 119, Type (0, 1), BuildingBlock: KIFKEQ_clean_linker_1, # of connection points: 2
#     Edge 120, Type (0, 1), BuildingBlock: KIFKEQ_clean_linker_1, # of connection points: 2
#     Edge 121, Type (0, 1), BuildingBlock: KIFKEQ_clean_linker_1, # of connection points: 2
#     Edge 122, Type (0, 1), BuildingBlock: KIFKEQ_clean_linker_1, # of connection points: 2
#     Edge 123, Type (0, 1), BuildingBlock: KIFKEQ_clean_linker_1, # of connection points: 2
#     Edge 124, Type (0, 1), BuildingBlock: KIFKEQ_clean_linker_1, # of connection points: 2
#     Edge 125, Type (0, 1), BuildingBlock: KIFKEQ_clean_linker_1, # of connection points: 2
#     Edge 126, Type (0, 1), BuildingBlock: KIFKEQ_clean_linker_1, # of connection points: 2
#     Edge 127, Type (0, 1), BuildingBlock: KIFKEQ_clean_linker_1, # of connection points: 2
#     Edge 128, Type (0, 1), BuildingBlock: KIFKEQ_clean_linker_1, # of connection points: 2
#     Edge 129, Type (0, 1), BuildingBlock: KIFKEQ_clean_linker_1, # of connection points: 2
#     Edge 130, Type (0, 1), BuildingBlock: KIFKEQ_clean_linker_1, # of connection points: 2
#     Edge 131, Type (0, 1), BuildingBlock: KIFKEQ_clean_linker_1, # of connection points: 2
#     Edge 132, Type (0, 1), BuildingBlock: KIFKEQ_clean_linker_1, # of connection points: 2
#     Edge 133, Type (0, 1), BuildingBlock: KIFKEQ_clean_linker_1, # of connection points: 2
#     Edge 134, Type (0, 1), BuildingBlock: KIFKEQ_clean_linker_1, # of connection points: 2
#     Edge 135, Type (0, 1), BuildingBlock: KIFKEQ_clean_linker_1, # of connection points: 2
# Relax obj value: 0.309
# Max RMSD: 0.289
# Mean RMSD: 0.261
data_MOF--net-ibd--node1-QUQFOY_clean_sbu_3--node2-IZENUY_clean_sbu_0--edge1-KIFKEQ_clean_linker_1
_symmetry_space_group_name_H-M    P1
_symmetry_Int_Tables_number       1
_symmetry_cell_setting            triclinic
loop_
_symmetry_equiv_pos_as_xyz
'x, y, z'
_cell_length_a     50.577905
_cell_length_b     50.580398
_cell_length_c     50.602383
_cell_angle_alpha  90.17266
_cell_angle_beta   90.115347
_cell_angle_gamma 91.295776
loop_
_atom_site_label
_atom_site_type_symbol
_atom_site_fract_x
_atom_site_fract_y
_atom_site_fract_z
_atom_type_partial_charge
C0 C 0.95789 0.20906 0.39729 0.0
O1 O 0.93863 0.22417 0.39313 0.0
Cd2 Cd 0.94068 0.26282 0.36665 0.0
O3 O 0.97988 0.21239 0.38537 0.0
Cd4 Cd -0.00347 0.24152 0.3492 0.0
C5 C -0.00281 0.29176 0.39274 0.0
O6 O 0.95533 0.24577 0.32546 0.0
O7 O 0.98602 0.27397 0.31501 0.0
O8 O 0.01621 0.20366 0.32803 0.0
C9 C 0.96324 0.26411 0.31032 0.0
O10 O 0.97216 0.2926 0.39012 0.0
C11 C 0.03841 0.21514 0.32385 0.0
O12 O 0.01035 0.27442 0.38064 0.0
O13 O 0.04135 0.23866 0.33233 0.0
C14 C 0.0023 0.80329 0.59313 0.0
O15 O 0.97836 0.81016 0.59507 0.0
Cd16 Cd 0.94394 0.78801 0.6188 0.0
O17 O 0.01073 0.78316 0.60547 0.0
Cd18 Cd -0.0068 0.74929 0.6367 0.0
C19 C 0.95131 0.72742 0.58862 0.0
O20 O 0.9653 0.77927 0.65907 0.0
O21 O 0.95966 0.73882 0.67125 0.0
O22 O 0.03453 0.74948 0.66187 0.0
C23 C 0.95349 0.76281 0.67381 0.0
O24 O 0.93722 0.74756 0.59292 0.0
C25 C 0.03615 0.72443 0.66205 0.0
O26 O 0.97291 0.72417 0.60099 0.0
O27 O 0.01856 0.71135 0.64932 0.0
C28 C 0.44617 0.72393 0.89983 0.0
O29 O 0.42977 0.74224 0.89629 0.0
Cd30 Cd 0.4359 0.77978 0.86931 0.0
O31 O 0.46793 0.72353 0.88708 0.0
Cd32 Cd 0.48892 0.75063 0.85114 0.0
C33 C 0.4959 0.80058 0.895 0.0
O34 O 0.44817 0.75944 0.82899 0.0
O35 O 0.48102 0.78359 0.81598 0.0
O36 O 0.50386 0.71062 0.8293 0.0
C37 C 0.45701 0.7765 0.813 0.0
O38 O 0.47115 0.80418 0.89286 0.0
C39 C 0.52723 0.71943 0.82525 0.0
O40 O 0.507 0.78215 0.88237 0.0
O41 O 0.53293 0.74235 0.83413 0.0
C42 C 0.50491 0.30248 0.09692 0.0
O43 O 0.48227 0.31283 0.09786 0.0
Cd44 Cd 0.44509 0.29715 0.12234 0.0
O45 O 0.51022 0.28229 0.11088 0.0
Cd46 Cd 0.48741 0.25424 0.14442 0.0
C47 C 0.44404 0.23414 0.09665 0.0
O48 O 0.4647 0.29036 0.16416 0.0
O49 O 0.4528 0.25222 0.17922 0.0
O50 O 0.52869 0.25008 0.16929 0.0
C51 C 0.45079 0.27712 0.18023 0.0
O52 O 0.43275 0.25631 0.09876 0.0
C53 C 0.52649 0.22509 0.17155 0.0
O54 O 0.46446 0.22914 0.11029 0.0
O55 O 0.50664 0.2139 0.16047 0.0
C56 C 0.93498 0.72826 0.14369 0.0
O57 O 0.92487 0.75096 0.1417 0.0
Cd58 Cd 0.94294 0.78789 0.11835 0.0
O59 O 0.95635 0.72278 0.13168 0.0
Cd60 Cd 0.98844 0.7436 0.1007 0.0
C61 C 0.00441 0.78812 0.14869 0.0
O62 O 0.95535 0.76765 0.07859 0.0
O63 O -0.0052 0.77758 0.06565 0.0
O64 O -0.00885 0.70144 0.07758 0.0
C65 C 0.97019 0.78136 0.06377 0.0
O66 O 0.9824 0.79916 0.14434 0.0
C67 C 0.01625 0.70196 0.07622 0.0
O68 O 0.01076 0.76721 0.1364 0.0
O69 O 0.02831 0.72145 0.0871 0.0
C70 C 0.50284 0.77229 0.33023 0.0
O71 O 0.48262 0.78652 0.33292 0.0
Cd72 Cd 0.44764 0.78015 0.36379 0.0
O73 O 0.50646 0.7524 0.34514 0.0
Cd74 Cd 0.48247 0.73186 0.3829 0.0
C75 C 0.42886 0.7179 0.34462 0.0
O76 O 0.47155 0.77336 0.40354 0.0
O77 O 0.45383 0.73875 0.42146 0.0
O78 O 0.5247 0.72088 0.40283 0.0
C79 C 0.45808 0.76351 0.42217 0.0
O80 O 0.42251 0.74202 0.34672 0.0
C81 C 0.51766 0.69735 0.40872 0.0
O82 O 0.45017 0.7098 0.35484 0.0
O83 O 0.4948 0.6896 0.40125 0.0
C84 C 0.42505 0.21119 0.64713 0.0
O85 O 0.41274 0.23256 0.64399 0.0
Cd86 Cd 0.4294 0.26922 0.61912 0.0
O87 O 0.44664 0.20726 0.63494 0.0
Cd88 Cd 0.47551 0.22959 0.60227 0.0
C89 C 0.49057 0.2744 0.64937 0.0
O90 O 0.44258 0.25235 0.57758 0.0
O91 O 0.48237 0.26772 0.57285 0.0
O92 O 0.4787 0.19094 0.57411 0.0
C93 C 0.45821 0.26851 0.5662 0.0
O94 O 0.46796 0.28416 0.64495 0.0
C95 C 0.50371 0.1897 0.57545 0.0
O96 O 0.49783 0.25363 0.63742 0.0
O97 O 0.51565 0.20666 0.59001 0.0
C98 C 0.02291 0.28261 0.83346 0.0
O99 O 0.006 0.30053 0.8366 0.0
Cd100 Cd 0.96792 0.29769 0.86405 0.0
O101 O 0.02149 0.26122 0.84667 0.0
Cd102 Cd -0.00712 0.2433 0.8823 0.0
C103 C 0.94206 0.23933 0.83952 0.0
O104 O 0.98511 0.28428 0.90551 0.0
O105 O 0.95926 0.25144 0.91562 0.0
O106 O 0.03157 0.22673 0.90455 0.0
C107 C 0.967 0.275 0.9202 0.0
O108 O 0.93943 0.26417 0.84237 0.0
C109 C 0.02165 0.20382 0.90866 0.0
O110 O 0.96079 0.22743 0.85086 0.0
O111 O -0.00138 0.19902 0.89959 0.0
C112 C 0.4043 0.93983 0.21081 0.0
O113 O 0.39936 0.92285 0.22864 0.0
Cd114 Cd 0.37568 0.93243 0.2679 0.0
O115 O 0.39537 0.96312 0.21216 0.0
Cd116 Cd 0.36442 0.98668 0.24122 0.0
C117 C 0.40914 0.98799 0.29028 0.0
O118 O 0.33557 0.94896 0.25002 0.0
O119 O 0.32932 0.98312 0.27456 0.0
O120 O 0.34523 0.0034 0.20097 0.0
C121 C 0.32139 0.96044 0.26685 0.0
O122 O 0.40357 0.96359 0.29391 0.0
C123 C 0.343 0.02694 0.20929 0.0
O124 O 0.39835 0.00062 0.27165 0.0
O125 O 0.35191 0.03207 0.23225 0.0
C126 C 0.31691 0.09276 0.48878 0.0
O127 O 0.32271 0.09058 0.46447 0.0
Cd128 Cd 0.29647 0.10796 0.42943 0.0
O129 O 0.29637 0.10499 0.49593 0.0
Cd130 Cd 0.26017 0.12927 0.47562 0.0
C131 C 0.23775 0.07563 0.44182 0.0
O132 O 0.2877 0.15192 0.4434 0.0
O133 O 0.24571 0.15809 0.4398 0.0
O134 O 0.26073 0.16118 0.51179 0.0
C135 C 0.26903 0.1641 0.43251 0.0
O136 O 0.25713 0.07916 0.4261 0.0
C137 C 0.23646 0.15779 0.51754 0.0
O138 O 0.23517 0.09021 0.46208 0.0
O139 O 0.22355 0.14039 0.50441 0.0
C140 C 0.14251 0.94071 0.73073 0.0
O141 O 0.14279 0.92868 0.75271 0.0
Cd142 Cd 0.13015 0.94986 0.79251 0.0
O143 O 0.13373 0.96407 0.72909 0.0
Cd144 Cd 0.11156 -0.00245 0.75631 0.0
C145 C 0.16886 0.00698 0.78909 0.0
O146 O 0.08728 0.9647 0.78086 0.0
O147 O 0.08236 0.00453 0.79489 0.0
O148 O 0.08571 0.0017 0.71631 0.0
C149 C 0.07574 0.98026 0.79637 0.0
O150 O 0.16466 0.98413 0.79894 0.0
C151 C 0.08432 0.02669 0.71726 0.0
O152 O 0.15259 0.01679 0.77287 0.0
O153 O 0.09615 0.03837 0.73631 0.0
C154 C 0.27618 0.82667 0.03601 0.0
O155 O 0.296 0.8311 0.02123 0.0
Cd156 Cd 0.29329 0.85402 0.9806 0.0
O157 O 0.25368 0.83623 0.03086 0.0
Cd158 Cd 0.2363 0.86867 -0.00119 0.0
C159 C 0.23944 0.82285 0.95125 0.0
O160 O 0.27647 0.89533 -0.00482 0.0
O161 O 0.24643 0.90333 0.96623 0.0
O162 O 0.21589 0.88822 0.03694 0.0
C163 C 0.26835 0.90991 0.97677 0.0
O164 O 0.26447 0.8261 0.95212 0.0
C165 C 0.19382 0.89226 0.02587 0.0
O166 O 0.22453 0.83567 0.96657 0.0
O167 O 0.19108 0.88432 0.00218 0.0
C168 C 0.25012 0.32387 0.03272 0.0
O169 O 0.27427 0.32713 0.03909 0.0
Cd170 Cd 0.30438 0.35697 0.01816 0.0
O171 O 0.24004 0.33715 0.01399 0.0
Cd172 Cd 0.25523 0.37205 0.98288 0.0
C173 C 0.29955 0.33192 0.95546 0.0
O174 O 0.27976 0.39634 0.01578 0.0
O175 O 0.28764 0.40913 0.97606 0.0
O176 O 0.21201 0.3927 0.98464 0.0
C177 C 0.29078 0.41296 0.00063 0.0
O178 O 0.31411 0.33654 0.97558 0.0
C179 C 0.21013 0.39536 0.95976 0.0
O180 O 0.27644 0.3411 0.95401 0.0
O181 O 0.22864 0.38607 0.94589 0.0
C182 C 0.70113 0.07139 0.03106 0.0
O183 O 0.71914 0.07938 0.0469 0.0
Cd184 Cd 0.752 0.11264 0.03872 0.0
O185 O 0.69845 0.08202 0.00842 0.0
Cd186 Cd 0.72013 0.11936 0.98425 0.0
C187 C 0.77791 0.08749 0.98173 0.0
O188 O 0.72722 0.14839 0.02184 0.0
O189 O 0.74782 0.15953 0.98624 0.0
O190 O 0.67828 0.13443 0.96682 0.0
C191 C 0.74157 0.16518 0.00977 0.0
O192 O 0.78125 0.09243 0.00622 0.0
C193 C 0.68616 0.13574 0.94302 0.0
O194 O 0.75702 0.09418 0.96973 0.0
O195 O 0.70934 0.12788 0.93833 0.0
C196 C 0.16446 0.49696 0.20326 0.0
O197 O 0.1595 0.47568 0.19058 0.0
Cd198 Cd 0.12491 0.44393 0.19978 0.0
O199 O 0.15055 0.50338 0.22315 0.0
Cd200 Cd 0.11206 0.48362 0.2465 0.0
C201 C 0.14292 0.42659 0.2616 0.0
O202 O 0.08744 0.47111 0.20691 0.0
O203 O 0.07032 0.45887 0.24404 0.0
O204 O 0.09567 0.52706 0.25843 0.0
C205 C 0.06806 0.46088 0.21922 0.0
O206 O 0.13995 0.41862 0.23788 0.0
C207 C 0.09287 0.52148 0.28277 0.0
O208 O 0.13572 0.44949 0.26844 0.0
O209 O 0.10054 0.49898 0.29019 0.0
C210 C 0.75218 0.82635 0.55003 0.0
O211 O 0.77673 0.82776 0.55533 0.0
Cd212 Cd 0.80848 0.85512 0.53285 0.0
O213 O 0.74241 0.84023 0.5316 0.0
Cd214 Cd 0.75834 0.87336 0.49929 0.0
C215 C 0.80008 0.83109 0.47011 0.0
O216 O 0.78746 0.89646 0.5298 0.0
O217 O 0.79011 0.90971 0.48939 0.0
O218 O 0.71838 0.89915 0.50298 0.0
C219 C 0.79709 0.91269 0.5133 0.0
O220 O 0.81531 0.83432 0.48997 0.0
C221 C 0.71307 0.89833 0.47844 0.0
O222 O 0.7776 0.84179 0.46935 0.0
O223 O 0.72813 0.88481 0.46392 0.0
C224 C 0.90671 0.00283 0.18082 0.0
O225 O 0.90503 0.97854 0.17448 0.0
Cd226 Cd 0.87728 0.94626 0.19535 0.0
O227 O 0.89248 0.01209 0.19928 0.0
Cd228 Cd 0.85812 -0.00525 0.2297 0.0
C229 C 0.90061 0.95353 0.25861 0.0
O230 O 0.83554 0.96671 0.19802 0.0
O231 O 0.8248 0.95949 0.23861 0.0
O232 O 0.83004 0.03326 0.227 0.0
C233 C 0.82043 0.95503 0.2143 0.0
O234 O 0.89764 0.93854 0.23849 0.0
C235 C 0.83087 0.03815 0.25162 0.0
O236 O 0.88968 0.97587 0.25961 0.0
O237 O 0.84534 0.0236 0.26568 0.0
C238 C 0.18193 0.58399 0.53776 0.0
O239 O 0.19623 0.59185 0.55699 0.0
Cd240 Cd 0.23331 0.62142 0.55264 0.0
O241 O 0.18485 0.59384 0.51479 0.0
Cd242 Cd 0.21107 0.63112 0.49568 0.0
C243 C 0.26526 0.59476 0.49937 0.0
O244 O 0.21641 0.66076 0.53361 0.0
O245 O 0.24314 0.66701 0.50096 0.0
O246 O 0.17268 0.64969 0.47455 0.0
C247 C 0.23438 0.67492 0.52296 0.0
O248 O 0.26524 0.5987 0.52425 0.0
C249 C 0.18314 0.65118 0.45178 0.0
O250 O 0.24708 0.60355 0.4847 0.0
O251 O 0.20609 0.6419 0.44921 0.0
C252 C 0.40958 0.49643 0.68638 0.0
O253 O 0.40808 0.47221 0.67973 0.0
Cd254 Cd 0.3793 0.43994 0.69911 0.0
O255 O 0.39491 0.50547 0.7046 0.0
Cd256 Cd 0.35966 0.48756 0.73374 0.0
C257 C 0.39991 0.4447 0.76347 0.0
O258 O 0.33797 0.46133 0.70002 0.0
O259 O 0.32511 0.45275 0.73972 0.0
O260 O 0.33236 0.5266 0.73065 0.0
C261 C 0.32166 0.44961 0.71507 0.0
O262 O 0.39751 0.43043 0.7428 0.0
C263 C 0.33205 0.53096 0.75536 0.0
O264 O 0.38953 0.46731 0.76464 0.0
O265 O 0.34557 0.51585 0.7698 0.0
C266 C 0.65982 0.02078 0.70293 0.0
O267 O 0.65297 0.00271 0.68666 0.0
Cd268 Cd 0.62102 0.96821 0.69343 0.0
O269 O 0.64897 0.02228 0.72561 0.0
Cd270 Cd 0.61317 -0.00257 0.74917 0.0
C271 C 0.64679 0.94037 0.74878 0.0
O272 O 0.58437 -0.00881 0.71128 0.0
O273 O 0.5734 0.96937 0.7462 0.0
O274 O 0.59689 0.03758 0.76953 0.0
C275 C 0.56772 0.97631 0.72291 0.0
O276 O 0.64213 0.93784 0.72416 0.0
C277 C 0.59614 0.02813 0.79277 0.0
O278 O 0.63942 0.96055 0.76155 0.0
O279 O 0.60481 0.00499 0.7958 0.0
C280 C 0.8027 0.58321 -0.00323 0.0
O281 O 0.81201 0.58192 0.97352 0.0
Cd282 Cd 0.78759 0.59609 0.93591 0.0
O283 O 0.78028 0.59338 0.00097 0.0
Cd284 Cd 0.74496 0.61628 0.97743 0.0
C285 C 0.72962 0.56018 0.94409 0.0
O286 O 0.7755 0.63976 0.94875 0.0
O287 O 0.73413 0.64687 0.94177 0.0
O288 O 0.7435 0.64233 0.01781 0.0
C289 C 0.75807 0.65235 0.93637 0.0
O290 O 0.75138 0.56324 0.93173 0.0
C291 C 0.71844 0.64233 0.01911 0.0
O292 O 0.72281 0.57654 0.96174 0.0
O293 O 0.70576 0.62979 0.00118 0.0
C294 C 0.90327 0.43555 0.72865 0.0
O295 O 0.90044 0.42053 0.74856 0.0
Cd296 Cd 0.87567 0.43098 0.78703 0.0
O297 O 0.89196 0.45778 0.72738 0.0
Cd298 Cd 0.85995 0.48198 0.75496 0.0
C299 C 0.90453 0.4903 0.80449 0.0
O300 O 0.83503 0.44216 0.76617 0.0
O301 O 0.82148 0.47785 0.78452 0.0
O302 O 0.84059 0.49674 0.71367 0.0
C303 C 0.81768 0.45346 0.77977 0.0
O304 O 0.90103 0.466 0.81027 0.0
C305 C 0.83742 0.52036 0.72144 0.0
O306 O 0.89253 0.50026 0.78498 0.0
O307 O 0.84596 0.52631 0.74434 0.0
C308 C 0.78193 0.33186 0.51912 0.0
O309 O 0.79968 0.33444 0.50156 0.0
Cd310 Cd 0.79364 0.35588 0.46045 0.0
O311 O 0.75938 0.34229 0.51658 0.0
Cd312 Cd 0.73819 0.37322 0.48542 0.0
C313 C 0.73579 0.32536 0.43906 0.0
O314 O 0.77892 0.39716 0.47649 0.0
O315 O 0.7454 0.40977 0.45388 0.0
O316 O 0.72216 0.3932 0.52558 0.0
C317 C 0.7695 0.41321 0.46014 0.0
O318 O 0.76079 0.32813 0.4371 0.0
C319 C 0.69925 0.39787 0.5167 0.0
O320 O 0.72283 0.33918 0.45531 0.0
O321 O 0.69399 0.38998 0.49339 0.0
C322 C 0.64041 0.43888 0.23119 0.0
O323 O 0.63904 0.431 0.25497 0.0
Cd324 Cd 0.62236 0.45731 0.28995 0.0
O325 O 0.63224 0.46163 0.2247 0.0
Cd326 Cd 0.61046 0.50005 0.2444 0.0
C327 C 0.66347 0.51219 0.2832 0.0
O328 O 0.58252 0.47229 0.27075 0.0
O329 O 0.57898 0.5137 0.27941 0.0
O330 O 0.58808 0.50256 0.20202 0.0
C331 C 0.57098 0.49014 0.28345 0.0
O332 O 0.65606 0.4923 0.29693 0.0
C333 C 0.58896 0.52764 0.2009 0.0
O334 O 0.65102 0.51851 0.26241 0.0
O335 O 0.60066 0.53982 0.2197 0.0
Fe336 Fe 0.12976 0.08911 0.14194 0.0
Fe337 Fe 0.10594 0.13806 0.11643 0.0
O338 O 0.12912 0.1124 0.11601 0.0
Fe339 Fe 0.15172 0.10981 0.0896 0.0
O340 O 0.13855 0.07739 0.08074 0.0
O341 O 0.14028 0.0617 0.12105 0.0
O342 O 0.09619 0.0784 0.13494 0.0
C343 C 0.07663 0.09337 0.13411 0.0
C344 C 0.18247 0.09807 0.13426 0.0
O345 O 0.07981 0.11823 0.1326 0.0
C346 C 0.15299 0.16305 0.09796 0.0
O347 O 0.11911 0.11213 0.16748 0.0
O348 O 0.1185 0.15065 0.14774 0.0
O349 O 0.17816 0.09597 0.1097 0.0
O350 O 0.16349 0.09863 0.15035 0.0
C351 C 0.10471 0.12472 0.06411 0.0
O352 O 0.12804 0.1623 0.10029 0.0
O353 O 0.16596 0.14207 0.09694 0.0
C354 C 0.12005 0.1371 0.16853 0.0
O355 O 0.09174 0.12724 0.08518 0.0
O356 O 0.12962 0.12332 0.06469 0.0
C357 C 0.13704 0.05815 0.09648 0.0
Fe358 Fe 0.07764 0.84571 0.37067 0.0
Fe359 Fe 0.10429 0.89507 0.34699 0.0
O360 O 0.10425 0.86898 0.37014 0.0
Fe361 Fe 0.1308 0.86594 0.39273 0.0
O362 O 0.13846 0.83342 0.37993 0.0
O363 O 0.0976 0.81808 0.38135 0.0
O364 O 0.0841 0.83553 0.33694 0.0
C365 C 0.08498 0.85114 0.31753 0.0
C366 C 0.08574 0.85363 0.4234 0.0
O367 O 0.08741 0.87585 0.32105 0.0
C368 C 0.12489 0.91942 0.39354 0.0
O369 O 0.05272 0.86896 0.35998 0.0
O370 O 0.07338 0.90751 0.35957 0.0
O371 O 0.11033 0.85201 0.41931 0.0
O372 O 0.06967 0.85462 0.40435 0.0
C373 C 0.15635 0.88239 0.3456 0.0
O374 O 0.12127 0.91877 0.36879 0.0
O375 O 0.12514 0.89837 0.40688 0.0
C376 C 0.05222 0.89392 0.36064 0.0
O377 O 0.13518 0.8846 0.33269 0.0
O378 O 0.15594 0.8795 0.37039 0.0
C379 C 0.12207 0.81428 0.37877 0.0
Fe380 Fe 0.35014 0.91014 0.64135 0.0
Fe381 Fe 0.33034 0.88622 0.58923 0.0
O382 O 0.35097 0.88477 0.61736 0.0
Fe383 Fe 0.37221 0.85807 0.62171 0.0
O384 O 0.3564 0.84904 0.65246 0.0
O385 O 0.35854 0.88887 0.66936 0.0
O386 O 0.31593 0.90235 0.64807 0.0
C387 C 0.29786 0.90197 0.63089 0.0
C388 C 0.40292 0.90264 0.6385 0.0
O389 O 0.30337 0.90288 0.60649 0.0
C390 C 0.37814 0.86591 0.56904 0.0
O391 O 0.34195 0.93623 0.61779 0.0
O392 O 0.34589 0.91702 0.57917 0.0
O393 O 0.39818 0.8779 0.63849 0.0
O394 O 0.38448 0.91876 0.63575 0.0
C395 C 0.32544 0.83391 0.6011 0.0
O396 O 0.3535 0.86953 0.56712 0.0
O397 O 0.38925 0.86538 0.59129 0.0
C398 C 0.34716 0.9375 0.59337 0.0
O399 O 0.31378 0.85538 0.59769 0.0
O400 O 0.35009 0.83367 0.60557 0.0
C401 C 0.35634 0.86408 0.6723 0.0
Fe402 Fe 0.40888 0.14204 0.87762 0.0
Fe403 Fe 0.38972 0.08816 0.85628 0.0
O404 O 0.385 0.11593 0.87704 0.0
Fe405 Fe 0.35651 0.11786 0.89711 0.0
O406 O 0.34645 0.14823 0.88136 0.0
O407 O 0.38533 0.16794 0.88452 0.0
O408 O 0.40341 0.14846 0.84296 0.0
C409 C 0.4051 0.1315 0.82475 0.0
C410 C 0.39763 0.13811 0.93009 0.0
O411 O 0.40638 0.10711 0.83003 0.0
C412 C 0.36754 0.06566 0.90283 0.0
O413 O 0.43702 0.12116 0.87061 0.0
O414 O 0.42078 0.0807 0.87239 0.0
O415 O 0.37338 0.13583 0.92396 0.0
O416 O 0.41533 0.13714 0.91255 0.0
C417 C 0.33668 0.09519 0.84952 0.0
O418 O 0.37358 0.06454 0.87861 0.0
O419 O 0.36438 0.0876 0.91418 0.0
C420 C 0.44022 0.09669 0.87385 0.0
O421 O 0.359 0.09337 0.83869 0.0
O422 O 0.33464 0.10024 0.87391 0.0
C423 C 0.36079 0.16887 0.88011 0.0
Fe424 Fe 0.5727 0.32864 0.86914 0.0
Fe425 Fe 0.59866 0.37915 0.84717 0.0
O426 O 0.59985 0.35128 0.86814 0.0
Fe427 Fe 0.62794 0.34571 0.88818 0.0
O428 O 0.6333 0.31391 0.87261 0.0
O429 O 0.59235 0.29976 0.87683 0.0
O430 O 0.57673 0.32055 0.83455 0.0
C431 C 0.57651 0.33741 0.8162 0.0
C432 C 0.58477 0.33339 0.92142 0.0
O433 O 0.57968 0.36188 0.82111 0.0
C434 C 0.62378 0.39926 0.8936 0.0
O435 O 0.54765 0.35295 0.86155 0.0
O436 O 0.56901 0.39098 0.86299 0.0
O437 O 0.6089 0.33081 0.91544 0.0
O438 O 0.56742 0.33582 0.90369 0.0
C439 C 0.65021 0.3657 0.84056 0.0
O440 O 0.61755 0.40099 0.86945 0.0
O441 O 0.62487 0.37716 0.90498 0.0
C442 C 0.54764 0.37779 0.86409 0.0
O443 O 0.62822 0.36976 0.82975 0.0
O444 O 0.65173 0.35993 0.8648 0.0
C445 C 0.61637 0.29526 0.87222 0.0
Fe446 Fe 0.82537 0.37671 0.09032 0.0
Fe447 Fe 0.84639 0.39684 0.14347 0.0
O448 O 0.84817 0.37458 0.11662 0.0
Fe449 Fe 0.87261 0.35035 0.11597 0.0
O450 O 0.88615 0.36332 0.08555 0.0
O451 O 0.84814 0.36494 0.0649 0.0
O452 O 0.83718 0.40967 0.08282 0.0
C453 C 0.8378 0.42857 0.09907 0.0
C454 C 0.82685 0.32352 0.09615 0.0
O455 O 0.83429 0.42442 0.12351 0.0
C456 C 0.85975 0.34849 0.16796 0.0
O457 O 0.79829 0.3887 0.11088 0.0
O458 O 0.81344 0.38496 0.15127 0.0
O459 O 0.85178 0.3256 0.09852 0.0
O460 O 0.81271 0.34371 0.09653 0.0
C461 C 0.89959 0.39569 0.13648 0.0
O462 O 0.85859 0.37348 0.16807 0.0
O463 O 0.8607 0.33593 0.14647 0.0
C464 C 0.79433 0.38506 0.13529 0.0
O465 O 0.87932 0.4097 0.13723 0.0
O466 O 0.89765 0.37087 0.13319 0.0
C467 C 0.87315 0.36495 0.06443 0.0
Fe468 Fe 0.85598 0.62408 0.38981 0.0
Fe469 Fe 0.90593 0.64877 0.36556 0.0
O470 O 0.88204 0.6227 0.36672 0.0
Fe471 Fe 0.88432 0.5955 0.34479 0.0
O472 O 0.85184 0.60128 0.33084 0.0
O473 O 0.83175 0.60691 0.36881 0.0
O474 O 0.84433 0.65479 0.3761 0.0
C475 C 0.85842 0.67558 0.37462 0.0
C476 C 0.8674 0.57187 0.39294 0.0
O477 O 0.88333 0.67448 0.37597 0.0
C478 C 0.93645 0.60353 0.35696 0.0
O479 O 0.87569 0.64128 0.41509 0.0
O480 O 0.91618 0.64267 0.39938 0.0
O481 O 0.87071 0.5712 0.36816 0.0
O482 O 0.86566 0.59355 0.40505 0.0
C483 C 0.89684 0.63981 0.31311 0.0
O484 O 0.93307 0.62809 0.35476 0.0
O485 O 0.9169 0.58762 0.35719 0.0
C486 C 0.90044 0.64254 0.41873 0.0
O487 O 0.8968 0.65623 0.33192 0.0
O488 O 0.89808 0.61521 0.31746 0.0
C489 C 0.83088 0.60252 0.34423 0.0
Fe490 Fe 0.87854 0.85665 0.87203 0.0
Fe491 Fe 0.82915 0.88105 0.89527 0.0
O492 O 0.85325 0.87984 0.87016 0.0
Fe493 Fe 0.85189 0.90188 0.84325 0.0
O494 O 0.88389 0.9162 0.85144 0.0
O495 O 0.90349 0.87813 0.85611 0.0
O496 O 0.89018 0.8704 0.90293 0.0
C497 C 0.87622 0.87169 0.92339 0.0
C498 C 0.86685 0.85388 0.81966 0.0
O499 O 0.85124 0.87001 0.9218 0.0
C500 C 0.80005 0.88795 0.84867 0.0
O501 O 0.85786 0.83118 0.88834 0.0
O502 O 0.818 0.84764 0.88798 0.0
O503 O 0.8662 0.8789 0.81929 0.0
O504 O 0.86834 0.84164 0.84118 0.0
C505 C 0.83974 0.93322 0.88725 0.0
O506 O 0.80263 0.89211 0.87325 0.0
O507 O 0.81989 0.88848 0.83369 0.0
C508 C 0.83292 0.82803 0.88806 0.0
O509 O 0.83942 0.91444 0.90354 0.0
O510 O 0.8375 0.92886 0.86265 0.0
C511 C 0.90461 0.90311 0.85417 0.0
Fe512 Fe 0.87673 0.10432 0.64576 0.0
Fe513 Fe 0.85167 0.12961 0.59723 0.0
O514 O 0.87664 0.12943 0.6216 0.0
Fe515 Fe 0.9015 0.15456 0.6216 0.0
O516 O 0.89165 0.16554 0.65397 0.0
O517 O 0.88991 0.12602 0.67206 0.0
O518 O 0.84415 0.11269 0.65736 0.0
C519 C 0.82387 0.1131 0.64295 0.0
C520 C 0.92957 0.109 0.63562 0.0
O521 O 0.82598 0.11442 0.61808 0.0
C522 C 0.89767 0.14424 0.56902 0.0
O523 O 0.86344 0.07848 0.62346 0.0
O524 O 0.86166 0.09795 0.58468 0.0
O525 O 0.92744 0.13386 0.63531 0.0
O526 O 0.9093 0.0941 0.63593 0.0
C527 C 0.85506 0.18184 0.60923 0.0
O528 O 0.8728 0.14466 0.57174 0.0
O529 O 0.91262 0.1448 0.58899 0.0
C530 C 0.8631 0.0773 0.59842 0.0
O531 O 0.84042 0.16136 0.6086 0.0
O532 O 0.87998 0.18003 0.60813 0.0
C533 C 0.88978 0.15101 0.6741 0.0
Fe534 Fe 0.62336 0.0822 0.34605 0.0
Fe535 Fe 0.64811 0.10544 0.39632 0.0
O536 O 0.62264 0.1051 0.3724 0.0
Fe537 Fe 0.59671 0.12764 0.37503 0.0
O538 O 0.60443 0.14183 0.34322 0.0
O539 O 0.60771 0.10415 0.32191 0.0
O540 O 0.6548 0.09564 0.33478 0.0
C541 C 0.67536 0.09653 0.34882 0.0
C542 C 0.57091 0.08007 0.35849 0.0
O543 O 0.67382 0.0939 0.37365 0.0
C544 C 0.60258 0.11478 0.42669 0.0
O545 O 0.63898 0.05612 0.36574 0.0
O546 O 0.63921 0.07215 0.40623 0.0
O547 O 0.57141 0.10504 0.36089 0.0
O548 O 0.59197 0.06757 0.35567 0.0
C549 C 0.64254 0.15796 0.38773 0.0
O550 O 0.62734 0.11719 0.42359 0.0
O551 O 0.58732 0.1147 0.40703 0.0
C552 C 0.63868 0.05269 0.3906 0.0
O553 O 0.65791 0.13871 0.38724 0.0
O554 O 0.61769 0.15429 0.3895 0.0
C555 C 0.60549 0.12907 0.32185 0.0
Fe556 Fe 0.58722 0.82117 0.11314 0.0
Fe557 Fe 0.63805 0.84683 0.09121 0.0
O558 O 0.61182 0.84656 0.11428 0.0
Fe559 Fe 0.6098 0.87175 0.13828 0.0
O560 O 0.57802 0.88177 0.12574 0.0
O561 O 0.56057 0.84176 0.12555 0.0
O562 O 0.57765 0.83121 0.08036 0.0
C563 C 0.59315 0.83322 0.06099 0.0
C564 C 0.59502 0.82527 0.16612 0.0
O565 O 0.61798 0.83251 0.06412 0.0
C566 C 0.66265 0.86276 0.13933 0.0
O567 O 0.6093 0.79578 0.10045 0.0
O568 O 0.64864 0.81481 0.10216 0.0
O569 O 0.59479 0.85018 0.16341 0.0
O570 O 0.59542 0.81022 0.14618 0.0
C571 C 0.62687 0.89939 0.09272 0.0
O572 O 0.66251 0.86128 0.1143 0.0
O573 O 0.64137 0.86341 0.15215 0.0
C574 C 0.63421 0.79421 0.10188 0.0
O575 O 0.62926 0.87898 0.0787 0.0
O576 O 0.62461 0.89768 0.11755 0.0
C577 C 0.55802 0.86656 0.12457 0.0
Fe578 Fe 0.39821 0.64779 0.12275 0.0
Fe579 Fe 0.34986 0.62245 0.09573 0.0
O580 O 0.37532 0.62099 0.11955 0.0
Fe581 Fe 0.3779 0.593 0.1401 0.0
O582 O 0.41094 0.58688 0.12848 0.0
O583 O 0.42596 0.62758 0.13326 0.0
O584 O 0.40959 0.64343 0.08913 0.0
C585 C 0.39446 0.64335 0.0693 0.0
C586 C 0.3876 0.6363 0.17437 0.0
O587 O 0.36959 0.64189 0.07212 0.0
C588 C 0.32431 0.59772 0.13918 0.0
O589 O 0.37467 0.67302 0.1129 0.0
O590 O 0.33655 0.6516 0.11116 0.0
O591 O 0.38991 0.61195 0.16897 0.0
O592 O 0.38793 0.65346 0.15635 0.0
C593 C 0.36494 0.57146 0.08979 0.0
O594 O 0.3257 0.6029 0.11478 0.0
O595 O 0.34492 0.59705 0.15312 0.0
C596 C 0.34966 0.67285 0.11427 0.0
O597 O 0.36161 0.59353 0.07901 0.0
O598 O 0.36626 0.56938 0.11473 0.0
C599 C 0.43 0.60327 0.1296 0.0
Fe600 Fe 0.12278 0.5866 0.84267 0.0
Fe601 Fe 0.14754 0.6084 0.89359 0.0
O602 O 0.12281 0.60966 0.86893 0.0
Fe603 Fe 0.09831 0.63394 0.87059 0.0
O604 O 0.10783 0.64736 0.83888 0.0
O605 O 0.10918 0.60928 0.81807 0.0
O606 O 0.15526 0.59796 0.83213 0.0
C607 C 0.17545 0.59775 0.84672 0.0
C608 C 0.07012 0.58775 0.85415 0.0
O609 O 0.17315 0.59561 0.87154 0.0
C610 C 0.10166 0.621 0.9226 0.0
O611 O 0.13617 0.55962 0.86267 0.0
O612 O 0.13676 0.57552 0.90313 0.0
O613 O 0.07199 0.61274 0.85597 0.0
O614 O 0.09044 0.57403 0.8517 0.0
C615 C 0.14547 0.66141 0.88523 0.0
O616 O 0.1266 0.62102 0.92034 0.0
O617 O 0.08717 0.62211 0.9024 0.0
C618 C 0.13562 0.55609 0.88748 0.0
O619 O 0.15954 0.64117 0.88515 0.0
O620 O 0.12042 0.65933 0.88553 0.0
C621 C 0.10872 0.63431 0.81769 0.0
Fe622 Fe 0.13193 0.35633 0.58739 0.0
Fe623 Fe 0.08495 0.32499 0.6109 0.0
O624 O 0.10758 0.35223 0.61209 0.0
Fe625 Fe 0.10562 0.37537 0.63806 0.0
O626 O 0.13853 0.3683 0.64907 0.0
O627 O 0.1571 0.37072 0.60987 0.0
O628 O 0.14569 0.32458 0.59501 0.0
C629 C 0.13294 0.30294 0.59449 0.0
C630 C 0.11779 0.40761 0.59401 0.0
O631 O 0.10791 0.3024 0.59472 0.0
C632 C 0.05346 0.36717 0.62786 0.0
O633 O 0.11084 0.34266 0.56077 0.0
O634 O 0.07209 0.33598 0.57964 0.0
O635 O 0.11735 0.40373 0.61867 0.0
O636 O 0.11987 0.38853 0.57817 0.0
C637 C 0.09726 0.32638 0.66319 0.0
O638 O 0.0578 0.34262 0.62676 0.0
O639 O 0.07239 0.38376 0.62842 0.0
C640 C 0.08582 0.34053 0.55932 0.0
O641 O 0.09662 0.31261 0.64237 0.0
O642 O 0.094 0.3511 0.66234 0.0
C643 C 0.15888 0.37 0.63488 0.0
Fe644 Fe 0.65212 0.61232 0.59509 0.0
Fe645 Fe 0.6281 0.58901 0.64542 0.0
O646 O 0.62818 0.61334 0.62045 0.0
Fe647 Fe 0.60446 0.63848 0.62071 0.0
O648 O 0.5922 0.62885 0.58832 0.0
O649 O 0.63114 0.62675 0.56965 0.0
O650 O 0.63997 0.58012 0.58422 0.0
C651 C 0.63849 0.56013 0.59904 0.0
C652 C 0.65208 0.66508 0.60616 0.0
O653 O 0.64019 0.56271 0.62389 0.0
C654 C 0.61523 0.63558 0.67347 0.0
O655 O 0.67778 0.59788 0.61578 0.0
O656 O 0.66125 0.59875 0.65579 0.0
O657 O 0.62702 0.66388 0.60696 0.0
O658 O 0.66541 0.64436 0.60465 0.0
C659 C 0.57527 0.59245 0.63538 0.0
O660 O 0.61561 0.61067 0.67145 0.0
O661 O 0.61494 0.64989 0.65314 0.0
C662 C 0.68098 0.59859 0.64058 0.0
O663 O 0.59516 0.57793 0.63645 0.0
O664 O 0.57788 0.61741 0.63456 0.0
C665 C 0.60627 0.62782 0.56784 0.0
Fe666 Fe 0.38247 0.37389 0.37887 0.0
Fe667 Fe 0.35379 0.42072 0.355 0.0
O668 O 0.35643 0.39631 0.37973 0.0
Fe669 Fe 0.33268 0.39411 0.40517 0.0
O670 O 0.32268 0.3612 0.39491 0.0
O671 O 0.36302 0.34617 0.39287 0.0
O672 O 0.37206 0.36169 0.34695 0.0
C673 C 0.36977 0.37575 0.32669 0.0
C674 C 0.38068 0.38311 0.43153 0.0
O675 O 0.36852 0.40067 0.32857 0.0
C676 C 0.34072 0.44719 0.40209 0.0
O677 O 0.40636 0.39773 0.3647 0.0
O678 O 0.38544 0.43541 0.36382 0.0
O679 O 0.35567 0.38158 0.43017 0.0
O680 O 0.39429 0.38471 0.41081 0.0
C681 C 0.30263 0.40359 0.35987 0.0
O682 O 0.33873 0.44511 0.37716 0.0
O683 O 0.34164 0.42694 0.41645 0.0
C684 C 0.40663 0.42282 0.36461 0.0
O685 O 0.32216 0.40707 0.34479 0.0
O686 O 0.30533 0.40587 0.38466 0.0
C687 C 0.33818 0.34223 0.39261 0.0
H688 H 0.08246 0.23862 0.30233 0.0
H689 H 0.03968 0.16388 0.30754 0.0
H690 H 0.11076 0.22025 0.2681 0.0
H691 H 0.06776 0.14568 0.27341 0.0
H692 H 0.11086 0.18926 0.17913 0.0
H693 H 0.09875 0.20813 0.22164 0.0
H694 H 0.1127 0.13328 0.25948 0.0
H695 H 0.12454 0.11424 0.21699 0.0
C696 C 0.07952 0.2181 0.29663 0.0
C697 C 0.05864 0.20275 0.3073 0.0
C698 C 0.09564 0.20766 0.27699 0.0
C699 C 0.09132 0.18165 0.26796 0.0
C700 C 0.07174 0.16574 0.28012 0.0
C701 C 0.05551 0.17621 0.29955 0.0
C702 C 0.11193 0.17699 0.19659 0.0
C703 C 0.11798 0.15009 0.19459 0.0
C704 C 0.10517 0.18785 0.22099 0.0
C705 C 0.10442 0.17202 0.24378 0.0
C706 C 0.11269 0.14578 0.24213 0.0
C707 C 0.11944 0.13492 0.21778 0.0
H708 H -0.0071 0.84953 0.56753 0.0
H709 H 0.05005 0.78755 0.57413 0.0
H710 H 0.01591 0.86672 0.52881 0.0
H711 H 0.07273 0.80453 0.53511 0.0
H712 H 0.03436 0.85468 0.4398 0.0
H713 H 0.01764 0.84762 0.48428 0.0
H714 H 0.09756 0.84076 0.51338 0.0
H715 H 0.1144 0.84741 0.46873 0.0
C716 C 0.01064 0.83984 0.56101 0.0
C717 C 0.01938 0.81687 0.57358 0.0
C718 C 0.02372 0.84964 0.53878 0.0
C719 C 0.04576 0.83665 0.52866 0.0
C720 C 0.05581 0.815 0.5425 0.0
C721 C 0.04276 0.80523 0.56483 0.0
C722 C 0.0484 0.85187 0.45568 0.0
C723 C 0.07567 0.85127 0.45066 0.0
C724 C 0.03884 0.84809 0.48123 0.0
C725 C 0.05633 0.84366 0.50231 0.0
C726 C 0.08364 0.8439 0.49746 0.0
C727 C 0.09323 0.84774 0.47189 0.0
H728 H 0.46797 0.81994 0.78268 0.0
H729 H 0.40534 0.76415 0.80313 0.0
H730 H 0.43776 0.84253 0.75312 0.0
H731 H 0.37516 0.78687 0.7737 0.0
H732 H 0.37498 0.88964 0.71638 0.0
H733 H 0.39612 0.86916 0.7542 0.0
H734 H 0.37294 0.79191 0.72451 0.0
H735 H 0.35163 0.81225 0.68674 0.0
C736 C 0.44776 0.8126 0.78094 0.0
C737 C 0.43903 0.79025 0.79506 0.0
C738 C 0.43039 0.82568 0.76429 0.0
C739 C 0.40409 0.81653 0.76137 0.0
C740 C 0.39534 0.79428 0.77562 0.0
C741 C 0.41263 0.78131 0.79239 0.0
C742 C 0.37366 0.86832 0.7183 0.0
C743 C 0.36212 0.85249 0.6983 0.0
C744 C 0.38597 0.85664 0.73984 0.0
C745 C 0.38663 0.829 0.74188 0.0
C746 C 0.37277 0.81328 0.72335 0.0
C747 C 0.36062 0.82494 0.7017 0.0
H748 H 0.46872 0.18948 0.08013 0.0
H749 H 0.39938 0.23602 0.06627 0.0
H750 H 0.45714 0.16169 0.04216 0.0
H751 H 0.388 0.20831 0.02832 0.0
H752 H 0.36426 0.14372 0.97187 0.0
H753 H 0.37445 0.1626 0.01505 0.0
H754 H 0.45678 0.17038 -0.00664 0.0
H755 H 0.44672 0.15128 0.95003 0.0
C756 C 0.45079 0.19355 0.06927 0.0
C757 C 0.43506 0.21511 0.07611 0.0
C758 C 0.4443 0.17771 0.04745 0.0
C759 C 0.4218 0.18295 0.03223 0.0
C760 C 0.40536 0.20367 0.03983 0.0
C761 C 0.41195 0.21963 0.06151 0.0
C762 C 0.38462 0.14915 0.97634 0.0
C763 C 0.40464 0.14636 0.95732 0.0
C764 C 0.39039 0.16002 0.00108 0.0
C765 C 0.41632 0.1682 0.00744 0.0
C766 C 0.43662 0.16409 -0.01097 0.0
C767 C 0.43083 0.15328 0.96417 0.0
H768 H 0.00145 0.83579 0.17363 0.0
H769 H 0.04616 0.76392 0.17221 0.0
H770 H 0.02599 0.85067 0.21247 0.0
H771 H 0.07089 0.77904 0.21115 0.0
H772 H 0.08513 0.87935 0.27176 0.0
H773 H 0.07078 0.8644 0.22822 0.0
H774 H 0.05754 0.78552 0.2586 0.0
H775 H 0.07216 0.80034 0.30231 0.0
C776 C 0.01679 0.82334 0.18136 0.0
C777 C 0.02171 0.79858 0.16998 0.0
C778 C 0.03097 0.83196 0.20352 0.0
C779 C 0.05026 0.81594 0.21485 0.0
C780 C 0.05595 0.79164 0.2029 0.0
C781 C 0.04189 0.7831 0.18055 0.0
C782 C 0.07945 0.85873 0.26916 0.0
C783 C 0.07931 0.84112 0.29062 0.0
C784 C 0.07122 0.85022 0.24421 0.0
C785 C 0.06279 0.82391 0.24014 0.0
C786 C 0.06409 0.8059 0.26118 0.0
C787 C 0.07229 0.81443 0.28623 0.0
H788 H 0.44992 0.81641 0.4197 0.0
H789 H 0.44096 0.74853 0.47087 0.0
H790 H 0.43197 0.84469 0.45438 0.0
H791 H 0.42357 0.77698 0.50563 0.0
H792 H 0.42578 0.84182 0.56888 0.0
H793 H 0.44595 0.81866 0.5321 0.0
H794 H 0.3841 0.84467 0.4801 0.0
H795 H 0.36335 0.86766 0.51705 0.0
C796 C 0.44417 0.80759 0.43837 0.0
C797 C 0.4468 0.78034 0.44274 0.0
C798 C 0.43389 0.82373 0.45806 0.0
C799 C 0.42668 0.81289 0.48251 0.0
C800 C 0.42929 0.78569 0.4869 0.0
C801 C 0.43905 0.76946 0.46705 0.0
C802 C 0.41665 0.84307 0.54955 0.0
C803 C 0.39276 0.85629 0.54591 0.0
C804 C 0.42816 0.82969 0.52861 0.0
C805 C 0.41629 0.82973 0.50359 0.0
C806 C 0.39348 0.84442 0.49937 0.0
C807 C 0.38166 0.85749 0.52046 0.0
H808 H 0.45063 0.16764 0.66502 0.0
H809 H 0.38068 0.21365 0.67764 0.0
H810 H 0.4428 0.14498 0.70674 0.0
H811 H 0.37275 0.19064 0.71915 0.0
H812 H 0.3985 0.18138 0.80611 0.0
H813 H 0.39897 0.19589 0.7604 0.0
H814 H 0.41359 0.11605 0.73461 0.0
H815 H 0.4134 0.1014 0.78058 0.0
C816 C 0.43317 0.17239 0.67628 0.0
C817 C 0.41662 0.19289 0.66832 0.0
C818 C 0.42866 0.15933 0.70016 0.0
C819 C 0.40752 0.16652 0.71641 0.0
C820 C 0.38956 0.18519 0.70724 0.0
C821 C 0.39404 0.19824 0.68339 0.0
C822 C 0.40187 0.16688 0.79075 0.0
C823 C 0.40611 0.14028 0.79699 0.0
C824 C 0.4018 0.17514 0.76453 0.0
C825 C 0.40601 0.15701 0.74396 0.0
C826 C 0.4103 0.13041 0.75012 0.0
C827 C 0.41023 0.12208 0.77641 0.0
H828 H 0.07287 0.20589 0.92516 0.0
H829 H 0.00053 0.15918 0.9312 0.0
H830 H 0.09264 0.17949 0.95977 0.0
H831 H 0.02044 0.13267 0.96597 0.0
H832 H 0.1271 0.12246 0.0152 0.0
H833 H 0.10717 0.13459 0.97326 0.0
H834 H 0.0326 0.14639 0.01251 0.0
H835 H 0.05239 0.13409 0.05456 0.0
C836 C 0.06142 0.18959 0.93347 0.0
C837 C 0.03509 0.18478 0.92573 0.0
C838 C 0.07278 0.17436 0.95318 0.0
C839 C 0.05796 0.15416 0.96565 0.0
C840 C 0.03217 0.14828 0.95679 0.0
C841 C 0.02087 0.16337 0.93684 0.0
C842 C 0.10633 0.12722 0.01488 0.0
C843 C 0.09146 0.1279 0.03832 0.0
C844 C 0.09497 0.13414 -0.00917 0.0
C845 C 0.06848 0.1417 -0.01027 0.0
C846 C 0.05305 0.14048 0.01278 0.0
C847 C 0.06445 0.13364 0.0369 0.0
H848 H 0.32515 0.0745 0.22665 0.0
H849 H 0.32467 0.02227 0.1589 0.0
H850 H 0.29001 0.1 0.20653 0.0
H851 H 0.28949 0.0474 0.13907 0.0
H852 H 0.19902 0.0949 0.18564 0.0
H853 H 0.24336 0.08576 0.20131 0.0
H854 H 0.27237 0.08843 0.12108 0.0
H855 H 0.22789 0.09713 0.10527 0.0
C856 C 0.31808 0.06892 0.20715 0.0
C857 C 0.32723 0.0461 0.19455 0.0
C858 C 0.29788 0.08343 0.19573 0.0
C859 C 0.2867 0.07541 0.17148 0.0
C860 C 0.29774 0.05416 0.15774 0.0
C861 C 0.31781 0.03963 0.16918 0.0
C862 C 0.2149 0.09392 0.17137 0.0
C863 C 0.20982 0.09608 0.14417 0.0
C864 C 0.2404 0.08898 0.18037 0.0
C865 C 0.2613 0.08619 0.16237 0.0
C866 C 0.25655 0.09014 0.13535 0.0
C867 C 0.23106 0.09505 0.12633 0.0
H868 H 0.22955 0.04872 0.39572 0.0
H869 H 0.20188 0.05388 0.47633 0.0
H870 H 0.19773 0.01281 0.38724 0.0
H871 H 0.17008 0.01762 0.46774 0.0
H872 H 0.14959 0.92737 0.44147 0.0
H873 H 0.17408 0.96735 0.4554 0.0
H874 H 0.14695 0.00796 0.38589 0.0
H875 H 0.12244 0.96841 0.37199 0.0
C876 C 0.21665 0.04223 0.4116 0.0
C877 C 0.21818 0.05415 0.43665 0.0
C878 C 0.19833 0.02181 0.4067 0.0
C879 C 0.18138 0.01268 0.42682 0.0
C880 C 0.18295 0.02439 0.45194 0.0
C881 C 0.20106 0.04514 0.45676 0.0
C882 C 0.14827 0.94505 0.42955 0.0
C883 C 0.13453 0.94458 0.40536 0.0
C884 C 0.16228 0.96788 0.43753 0.0
C885 C 0.16275 -0.00956 0.42138 0.0
C886 C 0.14727 -0.00939 0.39838 0.0
C887 C 0.13321 0.96797 0.39051 0.0
H888 H 0.15778 0.96524 0.68511 0.0
H889 H 0.15693 0.88942 0.72436 0.0
H890 H 0.19027 0.94935 0.65391 0.0
H891 H 0.18893 0.8733 0.69258 0.0
H892 H 0.25381 0.91632 0.60303 0.0
H893 H 0.20853 0.91897 0.61999 0.0
H894 H 0.23495 0.8894 0.6954 0.0
H895 H 0.27952 0.88664 0.67864 0.0
C896 C 0.16377 0.94487 0.68648 0.0
C897 C 0.15562 0.92886 0.70774 0.0
C898 C 0.18225 0.93568 0.66842 0.0
C899 C 0.19261 0.91033 0.67131 0.0
C900 C 0.18169 0.89317 0.69036 0.0
C901 C 0.16343 0.90242 0.70857 0.0
C902 C 0.24971 0.91007 0.62309 0.0
C903 C 0.27019 0.90182 0.63974 0.0
C904 C 0.22387 0.9115 0.63272 0.0
C905 C 0.2182 0.90427 0.65894 0.0
C906 C 0.23853 0.89467 0.67497 0.0
C907 C 0.26421 0.89352 0.6655 0.0
H908 H 0.31085 0.93346 0.00104 0.0
H909 H 0.2626 0.9367 0.93056 0.0
H910 H 0.3383 0.97031 0.98465 0.0
H911 H 0.29025 0.97329 0.91415 0.0
H912 H 0.36198 0.01656 0.881 0.0
H913 H 0.33966 0.97808 0.90007 0.0
H914 H 0.33005 0.02031 0.97354 0.0
H915 H 0.35226 0.05924 0.95447 0.0
C916 C 0.30617 0.942 0.98204 0.0
C917 C 0.28466 0.93224 0.967 0.0
C918 C 0.32181 0.96307 0.97277 0.0
C919 C 0.31642 0.97436 0.94814 0.0
C920 C 0.29493 0.96462 0.9331 0.0
C921 C 0.27906 0.94384 0.94253 0.0
C922 C 0.35555 0.01762 0.90137 0.0
C923 C 0.35857 0.04112 0.91612 0.0
C924 C 0.34265 -0.00439 0.91218 0.0
C925 C 0.33286 -0.00349 0.93804 0.0
C926 C 0.33743 0.01926 0.95349 0.0
C927 C 0.3501 0.04149 0.94256 0.0
H928 H 0.29576 0.91645 0.24793 0.0
H929 H 0.29364 0.97471 0.31054 0.0
H930 H 0.25641 0.89436 0.26622 0.0
H931 H 0.25446 0.95243 0.32886 0.0
H932 H 0.20434 0.88926 0.36942 0.0
H933 H 0.24496 0.90646 0.34968 0.0
H934 H 0.20714 0.90734 0.27315 0.0
H935 H 0.16609 0.89022 0.29285 0.0
C936 C 0.28693 0.92446 0.26563 0.0
C937 C 0.29772 0.94724 0.2779 0.0
C938 C 0.26442 0.91189 0.27597 0.0
C939 C 0.25264 0.92167 0.29894 0.0
C940 C 0.26345 0.94439 0.31125 0.0
C941 C 0.28573 0.95718 0.30072 0.0
C942 C 0.20467 0.89273 0.34831 0.0
C943 C 0.18186 0.88869 0.33273 0.0
C944 C 0.22791 0.90271 0.3371 0.0
C945 C 0.22892 0.90851 0.31006 0.0
C946 C 0.20672 0.903 0.2941 0.0
C947 C 0.18329 0.89326 0.30538 0.0
H948 H 0.30499 0.08606 0.54089 0.0
H949 H 0.36238 0.06531 0.48154 0.0
H950 H 0.32133 0.05181 0.56952 0.0
H951 H 0.37944 0.03148 0.51077 0.0
H952 H 0.35477 0.94747 0.54105 0.0
H953 H 0.35707 -0.0099 0.51954 0.0
H954 H 0.35345 0.02915 0.59555 0.0
H955 H 0.35037 0.98614 0.6172 0.0
C956 C 0.32172 0.0748 0.5343 0.0
C957 C 0.33177 0.07773 0.50859 0.0
C958 C 0.33128 0.05524 0.55087 0.0
C959 C 0.35122 0.03845 0.5421 0.0
C960 C 0.36353 0.04366 0.51773 0.0
C961 C 0.3538 0.06308 0.50103 0.0
C962 C 0.35476 0.9651 0.55326 0.0
C963 C 0.35167 0.96344 0.58076 0.0
C964 C 0.35649 -0.01038 0.54093 0.0
C965 C 0.35534 0.01307 0.55584 0.0
C966 C 0.35404 0.01142 0.58352 0.0
C967 C 0.3522 0.9868 0.59589 0.0
H968 H 0.21467 0.9871 0.80819 0.0
H969 H 0.17888 0.0601 0.78433 0.0
H970 H 0.25587 0.01121 0.81811 0.0
H971 H 0.22015 0.08425 0.79475 0.0
H972 H 0.2866 0.1113 0.85807 0.0
H973 H 0.2458 0.09168 0.84 0.0
H974 H 0.29153 0.03946 0.79141 0.0
H975 H 0.33246 0.05939 0.80914 0.0
C976 C 0.21558 0.00829 0.80515 0.0
C977 C 0.19353 0.02174 0.79561 0.0
C978 C 0.23922 0.02201 0.81055 0.0
C979 C 0.24113 0.04948 0.80695 0.0
C980 C 0.2191 0.06303 0.79758 0.0
C981 C 0.19556 0.04922 0.79168 0.0
C982 C 0.28791 0.09605 0.84308 0.0
C983 C 0.31262 0.08674 0.83508 0.0
C984 C 0.26462 0.08491 0.83272 0.0
C985 C 0.26565 0.06398 0.81454 0.0
C986 C 0.29033 0.05551 0.80555 0.0
C987 C 0.31367 0.06701 0.81554 0.0
H988 H 0.19274 0.90768 0.07729 0.0
H989 H 0.15094 0.91518 0.00323 0.0
H990 H 0.16911 0.94484 0.09509 0.0
H991 H 0.12673 0.95233 0.02132 0.0
H992 H 0.1271 0.01297 0.12427 0.0
H993 H 0.12981 0.9676 0.10835 0.0
H994 H 0.14536 -0.00346 0.02948 0.0
H995 H 0.14199 0.04178 0.04522 0.0
C996 C 0.17781 0.91673 0.06512 0.0
C997 C 0.17415 0.90902 0.03868 0.0
C998 C 0.16408 0.93795 0.07539 0.0
C999 C 0.14642 0.95186 0.0594 0.0
C1000 C 0.14062 0.94227 0.0339 0.0
C1001 C 0.15436 0.92092 0.02361 0.0
C1002 C 0.1307 0.00961 0.10344 0.0
C1003 C 0.13508 0.03091 0.0861 0.0
C1004 C 0.13214 0.98363 0.09434 0.0
C1005 C 0.13813 0.97849 0.06776 0.0
C1006 C 0.14047 -0.00021 0.05004 0.0
C1007 C 0.13886 0.02577 0.05912 0.0
H1008 H 0.26432 0.29453 0.07538 0.0
H1009 H 0.19968 0.30693 0.02103 0.0
H1010 H 0.23976 0.25779 0.09522 0.0
H1011 H 0.17535 0.2698 0.04065 0.0
H1012 H 0.13103 0.2117 0.09296 0.0
H1013 H 0.15342 0.25316 0.08103 0.0
H1014 H 0.2281 0.21336 0.07905 0.0
H1015 H 0.20595 0.17212 0.09139 0.0
C1016 C 0.2448 0.28955 0.06777 0.0
C1017 C 0.23407 0.30343 0.0464 0.0
C1018 C 0.23079 0.26846 0.07911 0.0
C1019 C 0.20579 0.2608 0.0693 0.0
C1020 C 0.19451 0.27542 0.04875 0.0
C1021 C 0.20852 0.29658 0.03742 0.0
C1022 C 0.15227 0.21186 0.09025 0.0
C1023 C 0.16669 0.18856 0.09286 0.0
C1024 C 0.16504 0.23557 0.08332 0.0
C1025 C 0.19245 0.23644 0.07902 0.0
C1026 C 0.20698 0.21336 0.08254 0.0
C1027 C 0.19424 0.18967 0.08941 0.0
H1028 H 0.63599 0.15383 0.94706 0.0
H1029 H 0.70255 0.15074 0.8938 0.0
H1030 H 0.61677 0.18817 0.92021 0.0
H1031 H 0.68311 0.1851 0.86671 0.0
H1032 H 0.66703 0.27722 0.87199 0.0
H1033 H 0.68064 0.23213 0.87995 0.0
H1034 H 0.59893 0.20533 0.87857 0.0
H1035 H 0.5852 0.25053 0.87093 0.0
C1036 C 0.64606 0.15983 0.9291 0.0
C1037 C 0.67105 0.15007 0.92288 0.0
C1038 C 0.63497 0.17945 0.91359 0.0
C1039 C 0.64872 0.18968 0.89162 0.0
C1040 C 0.67233 0.17787 0.8838 0.0
C1041 C 0.68337 0.15811 0.89926 0.0
C1042 C 0.65199 0.26166 0.87278 0.0
C1043 C 0.62502 0.26756 0.87159 0.0
C1044 C 0.6598 0.23573 0.87709 0.0
C1045 C 0.64079 0.21525 0.88022 0.0
C1046 C 0.61396 0.2208 0.87664 0.0
C1047 C 0.60615 0.24671 0.87232 0.0
H1048 H 0.06241 0.45028 0.16667 0.0
H1049 H 0.01955 0.45137 0.2405 0.0
H1050 H 0.02193 0.43593 0.14357 0.0
H1051 H 0.97917 0.43749 0.21729 0.0
H1052 H 0.90846 0.44288 0.16147 0.0
H1053 H 0.95022 0.45971 0.17971 0.0
H1054 H -0.0096 0.39252 0.14753 0.0
H1055 H 0.94853 0.37528 0.12943 0.0
C1056 C 0.04434 0.44751 0.1779 0.0
C1057 C 0.044 0.45187 0.20533 0.0
C1058 C 0.02132 0.4393 0.16471 0.0
C1059 C -0.00237 0.43588 0.17873 0.0
C1060 C -0.00274 0.44031 0.20611 0.0
C1061 C 0.02033 0.44805 0.21935 0.0
C1062 C 0.92623 0.43186 0.15791 0.0
C1063 C 0.92524 0.40761 0.14427 0.0
C1064 C 0.95003 0.44145 0.16845 0.0
C1065 C 0.97324 0.42721 0.16512 0.0
C1066 C 0.97263 0.40378 0.15025 0.0
C1067 C 0.94873 0.39392 0.14003 0.0
H1068 H 0.84896 0.81168 0.46078 0.0
H1069 H 0.76879 0.80986 0.43089 0.0
H1070 H 0.86066 0.77769 0.4292 0.0
H1071 H 0.78067 0.77574 0.39901 0.0
H1072 H 0.80789 0.6861 0.39025 0.0
H1073 H 0.79226 0.72844 0.40624 0.0
H1074 H 0.86562 0.76627 0.3819 0.0
H1075 H 0.88146 0.72391 0.36623 0.0
C1076 C 0.83394 0.80435 0.44715 0.0
C1077 C 0.80789 0.8132 0.44855 0.0
C1078 C 0.84071 0.78505 0.42885 0.0
C1079 C 0.82154 0.77408 0.41164 0.0
C1080 C 0.79577 0.7838 0.41214 0.0
C1081 C 0.78903 0.80335 0.43034 0.0
C1082 C 0.82037 0.70357 0.38758 0.0
C1083 C 0.84618 0.70159 0.37768 0.0
C1084 C 0.81136 0.72787 0.39664 0.0
C1085 C 0.82799 0.75049 0.39579 0.0
C1086 C 0.85265 0.74899 0.38328 0.0
C1087 C 0.86167 0.72475 0.37431 0.0
H1088 H 0.93665 -0.00863 0.1377 0.0
H1089 H 0.92363 0.0523 0.19609 0.0
H1090 H 0.97567 0.01558 0.12208 0.0
H1091 H 0.96302 0.07619 0.18077 0.0
H1092 H 0.02992 0.11943 0.13814 0.0
H1093 H 0.98577 0.09999 0.14455 0.0
H1094 H 0.01874 0.02191 0.14345 0.0
H1095 H 0.06258 0.04112 0.13662 0.0
C1096 C 0.9419 0.0101 0.14697 0.0
C1097 C 0.92734 0.01971 0.16844 0.0
C1098 C 0.96429 0.02389 0.13808 0.0
C1099 C 0.97262 0.04749 0.15053 0.0
C1100 C 0.95701 0.05808 0.17073 0.0
C1101 C 0.9345 0.04433 0.17957 0.0
C1102 C 0.02769 0.09811 0.1391 0.0
C1103 C 0.04977 0.08182 0.13711 0.0
C1104 C 0.00244 0.08702 0.1428 0.0
C1105 C -0.00118 0.05947 0.14441 0.0
C1106 C 0.02083 0.04321 0.14184 0.0
C1107 C 0.04602 0.05425 0.13821 0.0
H1108 H 0.27993 0.70096 0.50962 0.0
H1109 H 0.21733 0.69964 0.56771 0.0
H1110 H 0.30139 0.73787 0.5327 0.0
H1111 H 0.23896 0.73693 0.59081 0.0
H1112 H 0.34644 0.78529 0.5936 0.0
H1113 H 0.32361 0.74541 0.57765 0.0
H1114 H 0.24939 0.78592 0.57897 0.0
H1115 H 0.27213 0.82598 0.59499 0.0
C1116 C 0.27076 0.70856 0.52733 0.0
C1117 C 0.24697 0.69746 0.5369 0.0
C1118 C 0.28316 0.72953 0.54064 0.0
C1119 C 0.2719 0.73998 0.56361 0.0
C1120 C 0.24798 0.72912 0.57312 0.0
C1121 C 0.23569 0.70784 0.55995 0.0
C1122 C 0.3252 0.78562 0.59092 0.0
C1123 C 0.31113 0.80889 0.59516 0.0
C1124 C 0.31219 0.76283 0.5817 0.0
C1125 C 0.28487 0.76281 0.57685 0.0
C1126 C 0.27049 0.78549 0.58264 0.0
C1127 C 0.28353 0.80841 0.59164 0.0
H1128 H 0.07318 0.5702 0.27247 0.0
H1129 H 0.07737 0.51053 0.33323 0.0
H1130 H 0.03909 0.59245 0.29747 0.0
H1131 H 0.04326 0.5329 0.35824 0.0
H1132 H 0.98233 0.6322 0.35033 0.0
H1133 H 0.02567 0.61554 0.33896 0.0
H1134 H -0.00476 0.53542 0.34602 0.0
H1135 H 0.95186 0.55195 0.35751 0.0
C1136 C 0.0674 0.56228 0.29152 0.0
C1137 C 0.07761 0.5384 0.30066 0.0
C1138 C 0.04793 0.57507 0.30591 0.0
C1139 C 0.03828 0.56414 0.32961 0.0
C1140 C 0.0501 0.54151 0.33984 0.0
C1141 C 0.06972 0.52881 0.32555 0.0
C1142 C 0.98495 0.61101 0.34992 0.0
C1143 C 0.96349 0.59337 0.35433 0.0
C1144 C 0.00979 0.60153 0.34339 0.0
C1145 C 0.01374 0.57425 0.3414 0.0
C1146 C -0.00719 0.55659 0.34762 0.0
C1147 C 0.9679 0.56605 0.354 0.0
H1148 H 0.41949 0.47392 0.80503 0.0
H1149 H 0.41768 0.39499 0.77194 0.0
H1150 H 0.45118 0.45993 0.83846 0.0
H1151 H 0.44922 0.38117 0.80514 0.0
H1152 H 0.53957 0.4295 0.85087 0.0
H1153 H 0.49866 0.44718 0.83353 0.0
H1154 H 0.45727 0.37426 0.85314 0.0
H1155 H 0.49819 0.3564 0.87025 0.0
C1156 C 0.42547 0.45349 0.80517 0.0
C1157 C 0.41635 0.4356 0.78566 0.0
C1158 C 0.44362 0.44555 0.82427 0.0
C1159 C 0.45263 0.4195 0.8244 0.0
C1160 C 0.44236 0.4013 0.80579 0.0
C1161 C 0.42448 0.40928 0.78657 0.0
C1162 C 0.52158 0.41756 0.85231 0.0
C1163 C 0.52223 0.39129 0.86121 0.0
C1164 C 0.4981 0.42773 0.84244 0.0
C1165 C 0.47496 0.41182 0.84144 0.0
C1166 C 0.47498 0.38671 0.85316 0.0
C1167 C 0.49841 0.37654 0.86299 0.0
H1168 H 0.94111 0.74283 0.72219 0.0
H1169 H 0.9193 0.80226 0.66568 0.0
H1170 H 0.91281 0.76307 0.75516 0.0
H1171 H 0.88965 0.82158 0.69784 0.0
H1172 H 0.88434 0.8733 0.77261 0.0
H1173 H 0.89853 0.84809 0.73467 0.0
H1174 H 0.87175 0.77569 0.77246 0.0
H1175 H 0.85867 0.80108 0.81114 0.0
C1176 C 0.92954 0.75972 0.71665 0.0
C1177 C 0.93269 0.77141 0.69178 0.0
C1178 C 0.91316 0.77126 0.73542 0.0
C1179 C 0.8993 0.79433 0.72931 0.0
C1180 C 0.90066 0.80436 0.70347 0.0
C1181 C 0.91751 0.79324 0.68501 0.0
C1182 C 0.88104 0.85206 0.77262 0.0
C1183 C 0.87089 0.83909 0.79497 0.0
C1184 C 0.88899 0.83753 0.75074 0.0
C1185 C 0.88654 0.80974 0.75056 0.0
C1186 C 0.87449 0.79698 0.77219 0.0
C1187 C 0.86689 0.81152 0.79428 0.0
H1188 H -0.01059 0.20371 0.44013 0.0
H1189 H 0.91942 0.17146 0.40213 0.0
H1190 H 0.97719 0.1812 0.481 0.0
H1191 H 0.90802 0.14718 0.44221 0.0
H1192 H 0.87145 0.15588 0.52385 0.0
H1193 H 0.8896 0.16381 0.48055 0.0
H1194 H 0.96761 0.1453 0.50939 0.0
H1195 H 0.94929 0.13848 0.55361 0.0
C1196 C 0.97206 0.19074 0.44027 0.0
C1197 C 0.95511 0.18943 0.41834 0.0
C1198 C 0.96503 0.17776 0.46365 0.0
C1199 C 0.94118 0.16293 0.46517 0.0
C1200 C 0.92601 0.15921 0.44205 0.0
C1201 C 0.93263 0.1728 0.41899 0.0
C1202 C 0.89245 0.15324 0.52102 0.0
C1203 C 0.90898 0.14687 0.54226 0.0
C1204 C 0.90289 0.15747 0.49595 0.0
C1205 C 0.93014 0.15503 0.49127 0.0
C1206 C 0.94659 0.14764 0.51233 0.0
C1207 C 0.93612 0.1437 0.53764 0.0
H1208 H 0.56994 0.24353 0.19881 0.0
H1209 H 0.5237 0.17243 0.18259 0.0
H1210 H 0.59534 0.21976 0.23182 0.0
H1211 H 0.54841 0.14897 0.21598 0.0
H1212 H 0.6021 0.10826 0.27178 0.0
H1213 H 0.58926 0.13103 0.23143 0.0
H1214 H 0.58417 0.20423 0.27522 0.0
H1215 H 0.59766 0.18182 0.31513 0.0
C1216 C 0.56545 0.22275 0.20202 0.0
C1217 C 0.5446 0.20995 0.18837 0.0
C1218 C 0.57989 0.20917 0.22103 0.0
C1219 C 0.57368 0.18255 0.22681 0.0
C1220 C 0.55392 0.16937 0.21191 0.0
C1221 C 0.53959 0.1829 0.19286 0.0
C1222 C 0.5986 0.12929 0.27268 0.0
C1223 C 0.60051 0.14312 0.29678 0.0
C1224 C 0.59117 0.14232 0.24958 0.0
C1225 C 0.58548 0.16941 0.25011 0.0
C1226 C 0.5887 0.18344 0.27396 0.0
C1227 C 0.59618 0.17048 0.29698 0.0
H1228 H 0.54911 0.81072 0.89612 0.0
H1229 H 0.47729 0.82209 0.94029 0.0
H1230 H 0.57517 0.82587 0.93403 0.0
H1231 H 0.503 0.83538 0.9786 0.0
H1232 H 0.55148 0.86196 0.04588 0.0
H1233 H 0.53044 0.8628 0.00259 0.0
H1234 H 0.58759 0.80725 0.97359 0.0
H1235 H 0.60965 0.80832 0.01641 0.0
C1236 C 0.53892 0.81684 0.91385 0.0
C1237 C 0.51124 0.81501 0.91541 0.0
C1238 C 0.55383 0.82524 0.93569 0.0
C1239 C 0.54134 0.8313 0.95972 0.0
C1240 C 0.51349 0.83122 0.9605 0.0
C1241 C 0.49862 0.82345 0.93848 0.0
C1242 C 0.55962 0.85025 0.03001 0.0
C1243 C 0.58185 0.83477 0.03436 0.0
C1244 C 0.54755 0.8506 0.00524 0.0
C1245 C 0.55693 0.83474 0.98453 0.0
C1246 C 0.57992 0.82005 -0.01121 0.0
C1247 C 0.59247 0.82036 0.0134 0.0
H1248 H 0.94364 0.18683 0.82763 0.0
H1249 H 0.90262 0.2583 0.80806 0.0
H1250 H 0.92371 0.16471 0.78984 0.0
H1251 H 0.88184 0.2357 0.77052 0.0
H1252 H 0.88272 0.12694 0.72199 0.0
H1253 H 0.88645 0.1473 0.76564 0.0
H1254 H 0.9015 0.22337 0.72922 0.0
H1255 H 0.89697 0.20331 0.68586 0.0
C1256 C 0.92979 0.19764 0.81567 0.0
C1257 C 0.92526 0.22455 0.82043 0.0
C1258 C 0.91813 0.18483 0.79408 0.0
C1259 C 0.90154 0.1986 0.77689 0.0
C1260 C 0.89503 0.22477 0.7831 0.0
C1261 C 0.90684 0.23767 0.80467 0.0
C1262 C 0.88654 0.14806 0.72336 0.0
C1263 C 0.89006 0.16344 0.7005 0.0
C1264 C 0.88863 0.15971 0.74834 0.0
C1265 C 0.89441 0.18691 0.7509 0.0
C1266 C 0.89664 0.20244 0.728 0.0
C1267 C 0.89438 0.19085 0.70308 0.0
H1268 H 0.55526 0.1752 0.58033 0.0
H1269 H 0.48526 0.16282 0.53249 0.0
H1270 H 0.58076 0.14959 0.54884 0.0
H1271 H 0.51073 0.13885 0.50032 0.0
H1272 H 0.55691 0.09246 0.44513 0.0
H1273 H 0.53418 0.10312 0.48609 0.0
H1274 H 0.59868 0.15681 0.50738 0.0
H1275 H 0.62195 0.14457 0.46741 0.0
C1276 C 0.54531 0.1668 0.56317 0.0
C1277 C 0.51837 0.17119 0.5587 0.0
C1278 C 0.55994 0.15229 0.545 0.0
C1279 C 0.54802 0.14238 0.52171 0.0
C1280 C 0.52068 0.1457 0.5181 0.0
C1281 C 0.506 0.15969 0.53651 0.0
C1282 C 0.56639 0.10604 0.45899 0.0
C1283 C 0.59099 0.11791 0.45311 0.0
C1284 C 0.55332 0.11236 0.48236 0.0
C1285 C 0.56422 0.13133 0.49992 0.0
C1286 C 0.58966 0.14193 0.49464 0.0
C1287 C 0.60302 0.13505 0.47159 0.0
H1288 H 0.50858 0.81911 0.30471 0.0
H1289 H 0.53992 0.74037 0.30789 0.0
H1290 H 0.53707 0.82953 0.26753 0.0
H1291 H 0.56877 0.75099 0.27028 0.0
H1292 H 0.57675 0.77537 0.17871 0.0
H1293 H 0.55981 0.76084 0.22162 0.0
H1294 H 0.58464 0.83559 0.25607 0.0
H1295 H 0.60121 0.85026 0.21333 0.0
C1296 C 0.52177 0.80409 0.29762 0.0
C1297 C 0.52191 0.77888 0.30911 0.0
C1298 C 0.53829 0.81015 0.27645 0.0
C1299 C 0.55523 0.7911 0.26613 0.0
C1300 C 0.55584 0.766 0.27789 0.0
C1301 C 0.53944 0.75999 0.29941 0.0
C1302 C 0.57914 0.78843 0.19559 0.0
C1303 C 0.5897 0.81419 0.19256 0.0
C1304 C 0.56956 0.78006 0.22016 0.0
C1305 C 0.57052 0.7973 0.24198 0.0
C1306 C 0.5832 0.82212 0.23941 0.0
C1307 C 0.59266 0.8305 0.21494 0.0
H1308 H -0.01044 0.80079 0.01741 0.0
H1309 H 0.92627 0.8093 0.07367 0.0
H1310 H 0.96737 0.83058 0.98728 0.0
H1311 H 0.90484 0.84039 0.04451 0.0
H1312 H 0.85576 0.8495 0.96797 0.0
H1313 H 0.88049 0.83433 0.0058 0.0
H1314 H 0.95152 0.87214 0.97493 0.0
H1315 H 0.92676 0.8862 0.93625 0.0
C1316 C 0.97127 0.80966 0.02356 0.0
C1317 C 0.95928 0.80241 0.04745 0.0
C1318 C 0.95862 0.82694 0.00647 0.0
C1319 C 0.93405 0.83764 0.01331 0.0
C1320 C 0.92332 0.83196 0.03829 0.0
C1321 C 0.93562 0.81422 0.05503 0.0
C1322 C 0.87648 0.85516 0.96961 0.0
C1323 C 0.88948 0.86853 0.949 0.0
C1324 C 0.89074 0.84657 -0.00859 0.0
C1325 C 0.91819 0.8516 -0.00677 0.0
C1326 C 0.93059 0.86729 0.97379 0.0
C1327 C 0.91639 0.8755 0.95175 0.0
H1328 H 0.64135 0.92289 0.79911 0.0
H1329 H 0.68973 0.91574 0.72946 0.0
H1330 H 0.67443 0.90009 0.82503 0.0
H1331 H 0.72371 0.89477 0.75542 0.0
H1332 H 0.78515 0.86082 0.80457 0.0
H1333 H 0.74299 0.86295 0.78133 0.0
H1334 H 0.71427 0.91562 0.84194 0.0
H1335 H 0.75565 0.9119 0.86573 0.0
C1336 C 0.65894 0.91597 0.78932 0.0
C1337 C 0.66333 0.92132 0.76249 0.0
C1338 C 0.678 0.90314 0.80416 0.0
C1339 C 0.70218 0.89628 0.79259 0.0
C1340 C 0.70538 0.89957 0.76512 0.0
C1341 C 0.68595 0.91174 0.75015 0.0
C1342 C 0.7695 0.8724 0.81305 0.0
C1343 C 0.77364 0.88657 0.83663 0.0
C1344 C 0.7454 0.87371 0.79973 0.0
C1345 C 0.72526 0.88982 0.80941 0.0
C1346 C 0.72903 0.90269 0.83393 0.0
C1347 C 0.75289 0.90082 0.84754 0.0
H1348 H 0.80325 0.96121 0.49071 0.0
H1349 H 0.82943 0.91361 0.55598 0.0
H1350 H 0.82514 -2e-05 0.51028 0.0
H1351 H 0.85264 0.95189 0.57491 0.0
H1352 H 0.84761 0.03037 0.62028 0.0
H1353 H 0.8376 -0.01085 0.59745 0.0
H1354 H 0.86336 0.0242 0.5237 0.0
H1355 H 0.87226 0.06598 0.54655 0.0
C1356 C 0.81441 0.95894 0.50884 0.0
C1357 C 0.81434 0.93469 0.52214 0.0
C1358 C 0.82709 0.98109 0.52002 0.0
C1359 C 0.8403 0.97916 0.54445 0.0
C1360 C 0.84201 0.95425 0.5565 0.0
C1361 C 0.82888 0.9323 0.54561 0.0
C1362 C 0.85147 0.02918 0.59927 0.0
C1363 C 0.86035 0.05145 0.58513 0.0
C1364 C 0.84594 0.00544 0.58614 0.0
C1365 C 0.84956 0.00334 0.55865 0.0
C1366 C 0.85985 0.02528 0.54478 0.0
C1367 C 0.86504 0.04917 0.55787 0.0
H1368 H 0.78549 0.05715 0.23099 0.0
H1369 H 0.83525 0.061 0.30038 0.0
H1370 H 0.75041 0.07826 0.2551 0.0
H1371 H 0.80069 0.0838 0.3243 0.0
H1372 H 0.72066 0.07519 0.36735 0.0
H1373 H 0.76148 0.06894 0.34332 0.0
H1374 H 0.73009 0.11236 0.27714 0.0
H1375 H 0.68852 0.11709 0.30084 0.0
C1376 C 0.78928 0.06346 0.25115 0.0
C1377 C 0.81286 0.05701 0.26399 0.0
C1378 C 0.76914 0.07575 0.26505 0.0
C1379 C 0.7724 0.08231 0.29194 0.0
C1380 C 0.79713 0.07826 0.30389 0.0
C1381 C 0.81705 0.06543 0.29014 0.0
C1382 C 0.72265 0.0837 0.34781 0.0
C1383 C 0.70133 0.09619 0.33574 0.0
C1384 C 0.74621 0.08035 0.33403 0.0
C1385 C 0.74916 0.08993 0.30806 0.0
C1386 C 0.72835 0.10411 0.2968 0.0
C1387 C 0.70457 0.10694 0.31038 0.0
H1388 H 0.69533 0.05087 0.08028 0.0
H1389 H 0.66869 0.0404 -0.0004 0.0
H1390 H 0.6716 0.01078 0.09292 0.0
H1391 H 0.64439 4e-05 0.01252 0.0
H1392 H 0.64582 0.91157 0.04341 0.0
H1393 H 0.65811 0.95539 0.02685 0.0
H1394 H 0.62773 -0.00934 0.09814 0.0
H1395 H 0.616 0.94694 0.11497 0.0
C1396 C 0.68408 0.04019 0.06528 0.0
C1397 C 0.68408 0.04868 0.03889 0.0
C1398 C 0.67024 0.0173 0.0726 0.0
C1399 C 0.65609 0.00227 0.05371 0.0
C1400 C 0.65528 0.01118 0.02744 0.0
C1401 C 0.66906 0.03431 0.0201 0.0
C1402 C 0.64137 0.92871 0.05535 0.0
C1403 C 0.63052 0.92579 0.08075 0.0
C1404 C 0.64824 0.95382 0.04578 0.0
C1405 C 0.64422 0.9764 0.06139 0.0
C1406 C 0.63155 0.97355 0.08592 0.0
C1407 C 0.62484 0.94851 0.09554 0.0
H1408 H 0.68157 0.02721 0.65426 0.0
H1409 H 0.68636 0.05706 0.73434 0.0
H1410 H 0.71886 0.0553 0.64192 0.0
H1411 H 0.72385 0.08577 0.72169 0.0
H1412 H 0.8127 0.0953 0.69286 0.0
H1413 H 0.77028 0.07813 0.70888 0.0
H1414 H 0.73327 0.10103 0.63566 0.0
H1415 H 0.77574 0.11761 0.61936 0.0
C1416 C 0.69039 0.04003 0.6692 0.0
C1417 C 0.68112 0.03973 0.69535 0.0
C1418 C 0.71165 0.05637 0.66203 0.0
C1419 C 0.72423 0.07286 0.68081 0.0
C1420 C 0.71458 0.07316 0.70685 0.0
C1421 C 0.6931 0.05681 0.71404 0.0
C1422 C 0.79542 0.09712 0.68037 0.0
C1423 C 0.79766 0.10724 0.6546 0.0
C1424 C 0.77108 0.08743 0.68963 0.0
C1425 C 0.74856 0.08784 0.67333 0.0
C1426 C 0.75043 0.09993 0.64843 0.0
C1427 C 0.77474 0.10946 0.63912 0.0
H1428 H 0.69133 0.89487 0.42907 0.0
H1429 H 0.68995 0.94066 0.50118 0.0
H1430 H 0.66547 0.92836 0.4069 0.0
H1431 H 0.66564 0.97475 0.47891 0.0
H1432 H 0.6198 0.03416 0.43731 0.0
H1433 H 0.62921 -0.00794 0.4582 0.0
H1434 H 0.67568 0.9701 0.39016 0.0
H1435 H 0.66472 0.01144 0.36881 0.0
C1436 C 0.68513 0.91192 0.44027 0.0
C1437 C 0.69291 0.91536 0.46673 0.0
C1438 C 0.67053 0.93126 0.42752 0.0
C1439 C 0.6639 0.95465 0.44085 0.0
C1440 C 0.67007 0.95701 0.46792 0.0
C1441 C 0.6842 0.93746 0.48076 0.0
C1442 C 0.63164 0.02003 0.42673 0.0
C1443 C 0.64185 0.02608 0.40165 0.0
C1444 C 0.63716 -0.00404 0.43871 0.0
C1445 C 0.65362 0.97773 0.42616 0.0
C1446 C 0.66266 0.98336 0.4004 0.0
C1447 C 0.65658 0.00718 0.38817 0.0
H1448 H 0.80633 0.94474 0.16357 0.0
H1449 H 0.78812 0.92269 0.24406 0.0
H1450 H 0.77048 0.91643 0.14774 0.0
H1451 H 0.75247 0.8933 0.22805 0.0
H1452 H 0.66909 0.88213 0.18936 0.0
H1453 H 0.70968 0.8992 0.20927 0.0
H1454 H 0.75379 0.87267 0.14143 0.0
H1455 H 0.71283 0.85657 0.12093 0.0
C1456 C 0.7949 0.93346 0.17788 0.0
C1457 C 0.79983 0.93612 0.20507 0.0
C1458 C 0.77448 0.91694 0.16877 0.0
C1459 C 0.75862 0.90249 0.18661 0.0
C1460 C 0.76417 0.90441 0.21382 0.0
C1461 C 0.78457 0.92117 0.22299 0.0
C1462 C 0.6875 0.87953 0.17885 0.0
C1463 C 0.68772 0.86857 0.15329 0.0
C1464 C 0.71085 0.88916 0.19039 0.0
C1465 C 0.73494 0.8877 0.17675 0.0
C1466 C 0.73543 0.87471 0.15214 0.0
C1467 C 0.71201 0.8654 0.14043 0.0
H1468 H 0.79115 0.0905 0.92981 0.0
H1469 H 0.80676 0.04755 0.00152 0.0
H1470 H 0.81501 0.05778 0.90437 0.0
H1471 H 0.82886 0.01385 0.97622 0.0
H1472 H 0.86678 0.9534 0.92911 0.0
H1473 H 0.8612 -0.00362 0.95 0.0
H1474 H 0.80336 0.01572 0.89025 0.0
H1475 H 0.81064 0.97362 0.86857 0.0
C1476 C 0.80007 0.07418 0.94012 0.0
C1477 C 0.79689 0.07122 0.96749 0.0
C1478 C 0.81352 0.05531 0.92556 0.0
C1479 C 0.82331 0.03271 0.93803 0.0
C1480 C 0.82188 0.031 0.9658 0.0
C1481 C 0.80904 0.05026 0.9804 0.0
C1482 C 0.85332 0.96723 0.92027 0.0
C1483 C 0.83882 0.96028 0.89755 0.0
C1484 C 0.84999 -0.00823 0.93226 0.0
C1485 C 0.83143 0.00945 0.92222 0.0
C1486 C 0.8181 0.00292 0.89849 0.0
C1487 C 0.82203 0.97866 0.8861 0.0
H1488 H 0.73048 0.69745 0.92985 0.0
H1489 H 0.80323 0.65991 0.90852 0.0
H1490 H 0.74792 0.73947 0.91335 0.0
H1491 H 0.82026 0.70152 0.89052 0.0
H1492 H 0.85664 0.78366 0.90568 0.0
H1493 H 0.83676 0.73996 0.91127 0.0
H1494 H 0.763 0.76782 0.87942 0.0
H1495 H 0.78274 0.81202 0.87502 0.0
C1496 C 0.74984 0.69804 0.92073 0.0
C1497 C 0.76573 0.67568 0.92077 0.0
C1498 C 0.75986 0.72211 0.91118 0.0
C1499 C 0.78576 0.72403 0.90111 0.0
C1500 C 0.80058 0.70093 0.89893 0.0
C1501 C 0.79078 0.67706 0.90897 0.0
C1502 C 0.83623 0.78041 0.89975 0.0
C1503 C 0.82115 0.80126 0.89022 0.0
C1504 C 0.82485 0.75526 0.90267 0.0
C1505 C 0.79825 0.75027 0.89568 0.0
C1506 C 0.78341 0.77103 0.88536 0.0
C1507 C 0.7947 0.79633 0.88282 0.0
H1508 H 0.31008 0.83262 0.07702 0.0
H1509 H 0.25001 0.78031 0.04425 0.0
H1510 H 0.32325 0.79817 0.10766 0.0
H1511 H 0.26431 0.74501 0.07314 0.0
H1512 H 0.29658 0.68106 0.12009 0.0
H1513 H 0.27347 0.72208 0.11192 0.0
H1514 H 0.34869 0.76219 0.09822 0.0
H1515 H 0.37144 0.72199 0.10768 0.0
C1516 C 0.29938 0.81382 0.07687 0.0
C1517 C 0.27932 0.80876 0.05832 0.0
C1518 C 0.30702 0.794 0.09418 0.0
C1519 C 0.29549 0.76846 0.09233 0.0
C1520 C 0.27366 0.76436 0.07533 0.0
C1521 C 0.26549 0.7845 0.0586 0.0
C1522 C 0.3081 0.69887 0.11591 0.0
C1523 C 0.33578 0.69818 0.1139 0.0
C1524 C 0.29487 0.72236 0.11115 0.0
C1525 C 0.30908 0.74545 0.10393 0.0
C1526 C 0.3369 0.74505 0.104 0.0
C1527 C 0.35007 0.72177 0.10915 0.0
H1528 H 0.91752 0.54225 0.79619 0.0
H1529 H 0.93735 0.47527 0.84468 0.0
H1530 H 0.95554 0.56678 0.81348 0.0
H1531 H 0.97514 0.50026 0.86262 0.0
H1532 H 0.02126 0.61024 0.85571 0.0
H1533 H 0.97823 0.58796 0.85021 0.0
H1534 H 0.01687 0.51295 0.84286 0.0
H1535 H 0.05951 0.53492 0.84899 0.0
C1536 C 0.92965 0.53293 0.811 0.0
C1537 C 0.92467 0.50659 0.81868 0.0
C1538 C 0.95138 0.54713 0.82109 0.0
C1539 C 0.96857 0.53536 0.83918 0.0
C1540 C 0.96252 0.50968 0.8483 0.0
C1541 C 0.94079 0.49542 0.83813 0.0
C1542 C 0.0205 0.58896 0.85317 0.0
C1543 C 0.04384 0.57442 0.85242 0.0
C1544 C -0.00413 0.57621 0.84999 0.0
C1545 C -0.00588 0.54869 0.84604 0.0
C1546 C 0.01743 0.53411 0.84626 0.0
C1547 C 0.04196 0.54679 0.84947 0.0
H1548 H 0.25422 0.20545 0.53608 0.0
H1549 H 0.18836 0.14987 0.54096 0.0
H1550 H 0.22904 0.23802 0.55986 0.0
H1551 H 0.16346 0.18197 0.56624 0.0
H1552 H 0.11524 0.25828 0.56924 0.0
H1553 H 0.14106 0.22044 0.55633 0.0
H1554 H 0.20898 0.25393 0.59767 0.0
H1555 H 0.18338 0.29253 0.60913 0.0
C1556 C 0.23461 0.19993 0.54298 0.0
C1557 C 0.22311 0.17528 0.53638 0.0
C1558 C 0.22014 0.21859 0.55681 0.0
C1559 C 0.19397 0.21284 0.56477 0.0
C1560 C 0.18326 0.18737 0.55983 0.0
C1561 C 0.19759 0.16887 0.54555 0.0
C1562 C 0.1356 0.25734 0.57581 0.0
C1563 C 0.14746 0.27846 0.5898 0.0
C1564 C 0.15042 0.23553 0.5686 0.0
C1565 C 0.1773 0.23413 0.5757 0.0
C1566 C 0.18858 0.2546 0.59122 0.0
C1567 C 0.1739 0.27666 0.59793 0.0
H1568 H 0.06177 0.92919 0.80562 0.0
H1569 H 0.03985 0.00924 0.82408 0.0
H1570 H 0.02148 0.91249 0.8258 0.0
H1571 H -0.00057 -0.00768 0.84525 0.0
H1572 H 0.91563 0.95235 0.83452 0.0
H1573 H 0.95905 0.9728 0.8276 0.0
H1574 H -0.00447 0.90571 0.86442 0.0
H1575 H 0.9521 0.88481 0.87039 0.0
C1576 C 0.04856 0.94321 0.81456 0.0
C1577 C 0.0537 0.97054 0.81291 0.0
C1578 C 0.02552 0.9336 0.82639 0.0
C1579 C 0.00712 0.95108 0.83699 0.0
C1580 C 0.01308 0.9784 0.83689 0.0
C1581 C 0.03625 0.98807 0.82495 0.0
C1582 C 0.93292 0.9421 0.84136 0.0
C1583 C 0.93058 0.91672 0.85241 0.0
C1584 C 0.95781 0.95395 0.83766 0.0
C1585 C 0.98078 0.94076 0.84524 0.0
C1586 C 0.97824 0.91612 0.85786 0.0
C1587 C 0.95339 0.90413 0.86125 0.0
H1588 H 0.75669 0.28002 0.42023 0.0
H1589 H 0.68355 0.3221 0.42562 0.0
H1590 H 0.73282 0.24138 0.40352 0.0
H1591 H 0.65961 0.28391 0.40728 0.0
H1592 H 0.62336 0.19994 0.41488 0.0
H1593 H 0.64536 0.24261 0.42228 0.0
H1594 H 0.7091 0.21949 0.37075 0.0
H1595 H 0.68774 0.17624 0.36492 0.0
C1596 C 0.73557 0.28125 0.41705 0.0
C1597 C 0.72193 0.30392 0.42448 0.0
C1598 C 0.72181 0.25909 0.4073 0.0
C1599 C 0.69413 0.2593 0.40425 0.0
C1600 C 0.68078 0.28273 0.41002 0.0
C1601 C 0.69451 0.30471 0.42031 0.0
C1602 C 0.64195 0.20419 0.40498 0.0
C1603 C 0.6541 0.1848 0.38967 0.0
C1604 C 0.65452 0.22873 0.40901 0.0
C1605 C 0.67923 0.23455 0.3973 0.0
C1606 C 0.6905 0.21553 0.38067 0.0
C1607 C 0.67822 0.1908 0.37719 0.0
H1608 H 0.90204 0.38802 0.70414 0.0
H1609 H 0.94261 0.4639 0.70486 0.0
H1610 H 0.93345 0.37163 0.67193 0.0
H1611 H 0.97558 0.44714 0.67449 0.0
H1612 H 0.03193 0.41491 0.61716 0.0
H1613 H -0.0093 0.43194 0.63456 0.0
H1614 H 0.97567 0.35714 0.67382 0.0
H1615 H 0.01558 0.33989 0.65488 0.0
C1616 C 0.91777 0.40115 0.69724 0.0
C1617 C 0.92026 0.42702 0.70699 0.0
C1618 C 0.93592 0.39177 0.67898 0.0
C1619 C 0.95757 0.40777 0.67095 0.0
C1620 C 0.95912 0.43421 0.67984 0.0
C1621 C 0.94039 0.44385 0.69744 0.0
C1622 C 0.01934 0.40204 0.62902 0.0
C1623 C 0.02694 0.37619 0.63486 0.0
C1624 C -0.00416 0.41183 0.63921 0.0
C1625 C 0.97987 0.39616 0.65603 0.0
C1626 C 0.987 0.3698 0.66065 0.0
C1627 C 0.01009 0.35986 0.64991 0.0
H1628 H 0.56732 0.50782 0.15532 0.0
H1629 H 0.57586 0.57951 0.20145 0.0
H1630 H 0.53338 0.52833 0.12851 0.0
H1631 H 0.54125 0.59955 0.17566 0.0
H1632 H 0.44527 0.55197 0.13191 0.0
H1633 H 0.48913 0.53602 0.14057 0.0
H1634 H 0.5208 0.61609 0.13714 0.0
H1635 H 0.47637 0.63224 0.12945 0.0
C1636 C 0.56232 0.52814 0.15937 0.0
C1637 C 0.57374 0.54188 0.18083 0.0
C1638 C 0.54278 0.53985 0.14413 0.0
C1639 C 0.53404 0.56531 0.15039 0.0
C1640 C 0.54746 0.57994 0.17016 0.0
C1641 C 0.56725 0.56837 0.18513 0.0
C1642 C 0.4616 0.56619 0.13261 0.0
C1643 C 0.45724 0.59343 0.13066 0.0
C1644 C 0.48692 0.55699 0.13727 0.0
C1645 C 0.50856 0.57479 0.13981 0.0
C1646 C 0.50449 0.6019 0.13581 0.0
C1647 C 0.47905 0.61115 0.13139 0.0
H1648 H 0.57556 0.73662 0.80746 0.0
H1649 H 0.52112 0.66953 0.80521 0.0
H1650 H 0.60311 0.71543 0.77436 0.0
H1651 H 0.54852 0.64853 0.77206 0.0
H1652 H 0.6077 0.61025 0.7206 0.0
H1653 H 0.59195 0.62927 0.76181 0.0
H1654 H 0.5948 0.70698 0.72664 0.0
H1655 H 0.61078 0.68811 0.6855 0.0
C1656 C 0.56973 0.71714 0.80028 0.0
C1657 C 0.54602 0.70485 0.8087 0.0
C1658 C 0.58545 0.70509 0.78125 0.0
C1659 C 0.57786 0.68045 0.77048 0.0
C1660 C 0.55502 0.66743 0.78016 0.0
C1661 C 0.53923 0.67954 0.79904 0.0
C1662 C 0.60545 0.63146 0.72177 0.0
C1663 C 0.61007 0.64762 0.69959 0.0
C1664 C 0.59635 0.64231 0.74537 0.0
C1665 C 0.59186 0.66953 0.74734 0.0
C1666 C 0.59822 0.68593 0.72578 0.0
C1667 C 0.60722 0.67508 0.70213 0.0
H1668 H 0.50466 0.34951 0.07096 0.0
H1669 H 0.54734 0.27665 0.07673 0.0
H1670 H 0.52842 0.36056 0.03056 0.0
H1671 H 0.57077 0.28755 0.03597 0.0
H1672 H 0.6151 0.32103 0.96439 0.0
H1673 H 0.60093 0.31786 0.01046 0.0
H1674 H 0.52186 0.33877 0.98729 0.0
H1675 H 0.5359 0.34222 0.94158 0.0
C1676 C 0.5195 0.33611 0.06389 0.0
C1677 C 0.52374 0.31195 0.07666 0.0
C1678 C 0.53302 0.3424 0.04073 0.0
C1679 C 0.55092 0.3246 0.02984 0.0
C1680 C 0.55704 0.30163 0.04393 0.0
C1681 C 0.54358 0.29537 0.06725 0.0
C1682 C 0.59473 0.32508 0.96919 0.0
C1683 C 0.57655 0.3317 0.94932 0.0
C1684 C 0.58667 0.32325 -0.00447 0.0
C1685 C 0.5604 0.32829 0.00245 0.0
C1686 C 0.54239 0.33527 0.98262 0.0
C1687 C 0.55036 0.33694 0.95637 0.0
H1688 H 0.91546 0.2444 0.29367 0.0
H1689 H 0.97035 0.31033 0.28347 0.0
H1690 H 0.88515 0.2643 0.26213 0.0
H1691 H 0.94004 0.33014 0.25208 0.0
H1692 H 0.86488 0.29532 0.17562 0.0
H1693 H 0.88704 0.27429 0.21262 0.0
H1694 H 0.89394 0.34966 0.25261 0.0
H1695 H 0.87186 0.37081 0.21577 0.0
C1696 C 0.921 0.26315 0.28473 0.0
C1697 C 0.94524 0.27585 0.29097 0.0
C1698 C 0.90368 0.27447 0.26674 0.0
C1699 C 0.91019 0.29882 0.25498 0.0
C1700 C 0.93438 0.31155 0.26128 0.0
C1701 C 0.95181 0.3001 0.27902 0.0
C1702 C 0.87054 0.30731 0.19258 0.0
C1703 C 0.86708 0.33481 0.19253 0.0
C1704 C 0.88317 0.29524 0.21375 0.0
C1705 C 0.89259 0.31052 0.23512 0.0
C1706 C 0.88724 0.33759 0.23607 0.0
C1707 C 0.87444 0.34962 0.21504 0.0
H1708 H 0.98179 0.69014 0.56502 0.0
H1709 H 0.90373 0.72328 0.56344 0.0
H1710 H 0.97084 0.66385 0.52574 0.0
H1711 H 0.89297 0.69719 0.52431 0.0
H1712 H 0.94958 0.66116 0.43402 0.0
H1713 H 0.96253 0.67644 0.47818 0.0
H1714 H 0.88633 0.65102 0.50841 0.0
H1715 H 0.87329 0.63604 0.4645 0.0
C1716 C 0.96217 0.69149 0.55658 0.0
C1717 C 0.94366 0.70892 0.5672 0.0
C1718 C 0.95601 0.67656 0.53404 0.0
C1719 C 0.93113 0.67857 0.52199 0.0
C1720 C 0.91223 0.69504 0.53336 0.0
C1721 C 0.91845 0.71012 0.55569 0.0
C1722 C 0.93582 0.65841 0.4502 0.0
C1723 C 0.91023 0.64797 0.44571 0.0
C1724 C 0.94326 0.66703 0.47548 0.0
C1725 C 0.92524 0.66523 0.49657 0.0
C1726 C 0.9004 0.65308 0.49239 0.0
C1727 C 0.89297 0.64453 0.46723 0.0
H1728 H 0.53689 0.2554 0.66883 0.0
H1729 H 0.48276 0.31987 0.67727 0.0
H1730 H 0.562 0.27192 0.70686 0.0
H1731 H 0.50772 0.33609 0.71536 0.0
H1732 H 0.56741 0.36878 0.77342 0.0
H1733 H 0.55088 0.3551 0.73013 0.0
H1734 H 0.55137 0.27342 0.75477 0.0
H1735 H 0.56819 0.28695 0.79798 0.0
C1736 C 0.53053 0.27327 0.67856 0.0
C1737 C 0.50765 0.28617 0.67021 0.0
C1738 C 0.54486 0.28262 0.70039 0.0
C1739 C 0.53668 0.30514 0.71415 0.0
C1740 C 0.51461 0.3188 0.705 0.0
C1741 C 0.50021 0.30939 0.68327 0.0
C1742 C 0.56428 0.34787 0.76954 0.0
C1743 C 0.5688 0.32895 0.78926 0.0
C1744 C 0.55475 0.34008 0.74477 0.0
C1745 C 0.54971 0.31324 0.73917 0.0
C1746 C 0.55531 0.29425 0.75846 0.0
C1747 C 0.56474 0.30202 0.78329 0.0
H1748 H 0.92096 0.26365 0.94589 0.0
H1749 H 0.98128 0.32479 0.9363 0.0
H1750 H 0.89776 0.2917 0.97693 0.0
H1751 H 0.95792 0.35291 0.96753 0.0
H1752 H 0.85093 0.35268 0.01662 0.0
H1753 H 0.87361 0.33522 0.97811 0.0
H1754 H 0.94887 0.3487 0.01689 0.0
H1755 H 0.92634 0.36631 0.05541 0.0
C1756 C 0.92919 0.28312 0.95034 0.0
C1757 C 0.95296 0.29202 0.93883 0.0
C1758 C 0.91576 0.29928 0.96785 0.0
C1759 C 0.92598 0.32452 0.97434 0.0
C1760 C 0.94968 0.33352 0.96274 0.0
C1761 C 0.963 0.31744 0.94497 0.0
C1762 C 0.87235 0.35257 0.0167 0.0
C1763 C 0.88686 0.3603 0.03925 0.0
C1764 C 0.88527 0.34247 -0.00529 0.0
C1765 C 0.91287 0.34023 -0.00516 0.0
C1766 C 0.92754 0.35024 0.01635 0.0
C1767 C 0.91463 0.36017 0.03843 0.0
H1768 H 0.88768 0.73131 0.16921 0.0
H1769 H 0.95648 0.6826 0.16179 0.0
H1770 H 0.87351 0.70588 0.2076 0.0
H1771 H 0.94245 0.6575 0.20048 0.0
H1772 H 0.89031 0.69033 0.29638 0.0
H1773 H 0.89439 0.70716 0.25167 0.0
H1774 H 0.90919 0.62837 0.22289 0.0
H1775 H 0.90541 0.61138 0.26791 0.0
C1776 C 0.89953 0.71487 0.17545 0.0
C1777 C 0.92352 0.70934 0.16285 0.0
C1778 C 0.89142 0.70037 0.19746 0.0
C1779 C 0.90717 0.68012 0.2073 0.0
C1780 C 0.9299 0.673 0.19329 0.0
C1781 C 0.93799 0.68747 0.17119 0.0
C1782 C 0.89428 0.67653 0.28054 0.0
C1783 C 0.89787 0.64959 0.28572 0.0
C1784 C 0.8963 0.68612 0.25486 0.0
C1785 C 0.90198 0.66902 0.2338 0.0
C1786 C 0.9049 0.64196 0.23881 0.0
C1787 C 0.90273 0.63229 0.26455 0.0
H1788 H 0.56748 0.70833 0.42709 0.0
H1789 H 0.5039 0.64991 0.43091 0.0
H1790 H 0.59012 0.68612 0.46299 0.0
H1791 H 0.52669 0.62763 0.46678 0.0
H1792 H 0.6314 0.63369 0.52041 0.0
H1793 H 0.61182 0.64503 0.47801 0.0
H1794 H 0.53419 0.6425 0.51342 0.0
H1795 H 0.55364 0.63097 0.55583 0.0
C1796 C 0.55865 0.69039 0.43516 0.0
C1797 C 0.53378 0.68105 0.42641 0.0
C1798 C 0.57167 0.67761 0.45565 0.0
C1799 C 0.55999 0.65533 0.46785 0.0
C1800 C 0.53595 0.64499 0.45795 0.0
C1801 C 0.52301 0.65766 0.43732 0.0
C1802 C 0.61011 0.63521 0.51912 0.0
C1803 C 0.59409 0.6318 0.54161 0.0
C1804 C 0.59895 0.64175 0.49482 0.0
C1805 C 0.57154 0.64478 0.49246 0.0
C1806 C 0.55538 0.64005 0.5146 0.0
C1807 C 0.56654 0.63366 0.53895 0.0
H1808 H 0.81778 0.51351 0.67163 0.0
H1809 H 0.82019 0.56872 0.73701 0.0
H1810 H 0.78344 0.53909 0.65066 0.0
H1811 H 0.78587 0.59445 0.71584 0.0
H1812 H 0.72715 0.59377 0.61332 0.0
H1813 H 0.77005 0.58149 0.63079 0.0
H1814 H 0.73824 0.58215 0.70994 0.0
H1815 H 0.69537 0.59469 0.6926 0.0
C1816 C 0.81148 0.5315 0.68118 0.0
C1817 C 0.82135 0.53888 0.70613 0.0
C1818 C 0.79189 0.54624 0.6691 0.0
C1819 C 0.78177 0.56858 0.68182 0.0
C1820 C 0.79309 0.5771 0.70581 0.0
C1821 C 0.81281 0.56243 0.71783 0.0
C1822 C 0.72937 0.59168 0.6345 0.0
C1823 C 0.70769 0.5947 0.65156 0.0
C1824 C 0.75395 0.58465 0.64446 0.0
C1825 C 0.75741 0.58066 0.67166 0.0
C1826 C 0.73622 0.58532 0.68888 0.0
C1827 C 0.71159 0.59227 0.67892 0.0
H1828 H 0.74393 0.51303 0.92289 0.0
H1829 H 0.6767 0.55453 0.95348 0.0
H1830 H 0.71573 0.47385 0.91525 0.0
H1831 H 0.64846 0.51539 0.94528 0.0
H1832 H 0.61128 0.45041 0.88454 0.0
H1833 H 0.63557 0.48993 0.89992 0.0
H1834 H 0.68675 0.44111 0.94638 0.0
H1835 H 0.66216 0.40156 0.93149 0.0
C1836 C 0.72313 0.51382 0.92785 0.0
C1837 C 0.71247 0.53683 0.93868 0.0
C1838 C 0.70711 0.49136 0.92373 0.0
C1839 C 0.68008 0.4917 0.92991 0.0
C1840 C 0.6693 0.51473 0.94047 0.0
C1841 C 0.68544 0.53704 0.94511 0.0
C1842 C 0.6273 0.44821 0.89856 0.0
C1843 C 0.63492 0.42299 0.90678 0.0
C1844 C 0.64112 0.47076 0.90734 0.0
C1845 C 0.66307 0.46837 0.92406 0.0
C1846 C 0.66993 0.44331 0.93333 0.0
C1847 C 0.65576 0.42078 0.92498 0.0
H1848 H 0.65467 0.45306 0.18116 0.0
H1849 H 0.65773 0.38839 0.23672 0.0
H1850 H 0.68701 0.43161 0.15363 0.0
H1851 H 0.68964 0.36649 0.20861 0.0
H1852 H 0.74816 0.39173 0.10799 0.0
H1853 H 0.70393 0.39598 0.12657 0.0
H1854 H 0.73532 0.38118 0.20454 0.0
H1855 H 0.77905 0.37639 0.18608 0.0
C1856 C 0.6616 0.43385 0.18709 0.0
C1857 C 0.65438 0.42283 0.21154 0.0
C1858 C 0.67999 0.4214 0.17113 0.0
C1859 C 0.6913 0.39765 0.17929 0.0
C1860 C 0.68168 0.38512 0.20219 0.0
C1861 C 0.66343 0.39767 0.21826 0.0
C1862 C 0.74547 0.38894 0.12903 0.0
C1863 C 0.76716 0.38441 0.1457 0.0
C1864 C 0.72016 0.39132 0.13962 0.0
C1865 C 0.71618 0.3891 0.167 0.0
C1866 C 0.7376 0.38268 0.18332 0.0
C1867 C 0.76281 0.38033 0.17277 0.0
H1868 H 0.75255 0.45972 0.44006 0.0
H1869 H 0.8231 0.41628 0.4574 0.0
H1870 H 0.78002 0.49766 0.42619 0.0
H1871 H 0.85047 0.45408 0.4429 0.0
H1872 H 0.87608 0.52104 0.37759 0.0
H1873 H 0.85408 0.4811 0.39491 0.0
H1874 H 0.8165 0.52773 0.45503 0.0
H1875 H 0.83874 0.56753 0.4383 0.0
C1876 C 0.77388 0.45822 0.44061 0.0
C1877 C 0.78577 0.43522 0.44982 0.0
C1878 C 0.78951 0.47989 0.43289 0.0
C1879 C 0.8172 0.47861 0.4338 0.0
C1880 C 0.82912 0.45537 0.44219 0.0
C1881 C 0.8135 0.43389 0.45044 0.0
C1882 C 0.86365 0.52263 0.39491 0.0
C1883 C 0.85896 0.54739 0.40647 0.0
C1884 C 0.85111 0.49986 0.40473 0.0
C1885 C 0.83344 0.50168 0.42593 0.0
C1886 C 0.82991 0.52609 0.43845 0.0
C1887 C 0.8428 0.54875 0.42899 0.0
H1888 H 0.77135 0.47418 0.79677 0.0
H1889 H 0.80949 0.40019 0.78093 0.0
H1890 H 0.7305 0.44994 0.80791 0.0
H1891 H 0.76871 0.37605 0.79228 0.0
H1892 H 0.70022 0.35045 0.85179 0.0
H1893 H 0.74132 0.37043 0.83522 0.0
H1894 H 0.69672 0.41947 0.78247 0.0
H1895 H 0.65555 0.3994 0.7988 0.0
C1896 C 0.77103 0.45278 0.79584 0.0
C1897 C 0.79353 0.43904 0.78805 0.0
C1898 C 0.74765 0.43896 0.80192 0.0
C1899 C 0.74653 0.41121 0.80066 0.0
C1900 C 0.76914 0.39745 0.79334 0.0
C1901 C 0.7924 0.41127 0.78689 0.0
C1902 C 0.69923 0.36505 0.83622 0.0
C1903 C 0.67472 0.3735 0.8267 0.0
C1904 C 0.72271 0.37645 0.82676 0.0
C1905 C 0.72202 0.39669 0.8079 0.0
C1906 C 0.69763 0.4041 0.79729 0.0
C1907 C 0.67415 0.39242 0.80644 0.0
H1908 H 0.78331 0.57227 0.04587 0.0
H1909 H 0.85262 0.56353 -0.00299 0.0
H1910 H 0.79987 0.53961 0.07627 0.0
H1911 H 0.86972 0.53144 0.02814 0.0
H1912 H 0.83023 0.47519 0.12569 0.0
H1913 H 0.8306 0.51971 0.10685 0.0
H1914 H 0.85157 0.48718 0.03079 0.0
H1915 H 0.85177 0.44335 0.04951 0.0
C1916 C 0.80255 0.56408 0.0421 0.0
C1917 C 0.81621 0.56967 0.01855 0.0
C1918 C 0.81219 0.54549 0.05973 0.0
C1919 C 0.83575 0.53241 0.05418 0.0
C1920 C 0.85111 0.5407 0.03248 0.0
C1921 C 0.84132 0.55906 0.01467 0.0
C1922 C 0.83531 0.47772 0.10505 0.0
C1923 C 0.84032 0.45576 0.0889 0.0
C1924 C 0.83559 0.50317 0.09432 0.0
C1925 C 0.84106 0.50698 0.06734 0.0
C1926 C 0.84769 0.4851 0.05173 0.0
C1927 C 0.84734 0.45982 0.06238 0.0
H1928 H 0.6911 0.54877 0.2539 0.0
H1929 H 0.68965 0.51071 0.33033 0.0
H1930 H 0.73098 0.57382 0.26686 0.0
H1931 H 0.72937 0.53576 0.34312 0.0
H1932 H 0.78258 0.60368 0.36762 0.0
H1933 H 0.74134 0.58402 0.35157 0.0
H1934 H 0.77928 0.56286 0.2784 0.0
H1935 H 0.82098 0.58258 0.29444 0.0
C1936 C 0.69919 0.54584 0.27349 0.0
C1937 C 0.68721 0.52779 0.29114 0.0
C1938 C 0.72206 0.56007 0.28078 0.0
C1939 C 0.73309 0.55677 0.30598 0.0
C1940 C 0.72103 0.53889 0.32367 0.0
C1941 C 0.69839 0.52445 0.31629 0.0
C1942 C 0.78219 0.59513 0.34796 0.0
C1943 C 0.80521 0.59431 0.33246 0.0
C1944 C 0.75855 0.5838 0.33886 0.0
C1945 C 0.75731 0.57158 0.31398 0.0
C1946 C 0.7798 0.57218 0.2977 0.0
C1947 C 0.80363 0.58343 0.30689 0.0
H1948 H 0.70362 0.41348 0.56801 0.0
H1949 H 0.6546 0.42132 0.49855 0.0
H1950 H 0.68093 0.44976 0.58891 0.0
H1951 H 0.63152 0.45761 0.51972 0.0
H1952 H 0.63467 0.51294 0.62492 0.0
H1953 H 0.64067 0.46893 0.6065 0.0
H1954 H 0.64895 0.5027 0.52854 0.0
H1955 H 0.64249 0.54663 0.5468 0.0
C1956 C 0.68745 0.42246 0.55751 0.0
C1957 C 0.68121 0.41492 0.53148 0.0
C1958 C 0.6743 0.44317 0.56956 0.0
C1959 C 0.65469 0.45678 0.55578 0.0
C1960 C 0.64685 0.44771 0.53062 0.0
C1961 C 0.65995 0.42685 0.51859 0.0
C1962 C 0.6374 0.51095 0.60378 0.0
C1963 C 0.63873 0.53333 0.58738 0.0
C1964 C 0.64078 0.48573 0.59327 0.0
C1965 C 0.64553 0.48239 0.56615 0.0
C1966 C 0.64507 0.50458 0.5495 0.0
C1967 C 0.64166 0.52982 0.56001 0.0
H1968 H 0.7009 0.81211 0.53895 0.0
H1969 H 0.76513 0.79645 0.59281 0.0
H1970 H 0.67547 0.77535 0.55766 0.0
H1971 H 0.73937 0.76008 0.61194 0.0
H1972 H 0.63005 0.71399 0.60393 0.0
H1973 H 0.65277 0.75628 0.59592 0.0
H1974 H 0.72764 0.71679 0.59416 0.0
H1975 H 0.70519 0.67482 0.60271 0.0
C1976 C 0.70937 0.8012 0.55515 0.0
C1977 C 0.73522 0.80688 0.56406 0.0
C1978 C 0.69471 0.78023 0.56601 0.0
C1979 C 0.70557 0.76464 0.58606 0.0
C1980 C 0.73071 0.77145 0.59615 0.0
C1981 C 0.74542 0.79232 0.58523 0.0
C1982 C 0.6514 0.71441 0.60215 0.0
C1983 C 0.66579 0.691 0.60361 0.0
C1984 C 0.66436 0.73861 0.59749 0.0
C1985 C 0.69195 0.73983 0.59431 0.0
C1986 C 0.7064 0.71658 0.59687 0.0
C1987 C 0.69348 0.69244 0.60151 0.0
H1988 H 0.20646 0.66928 0.40652 0.0
H1989 H 0.133 0.66948 0.44997 0.0
H1990 H 0.19094 0.70534 0.37897 0.0
H1991 H 0.11762 0.70543 0.42265 0.0
H1992 H 0.17261 0.79714 0.38595 0.0
H1993 H 0.18582 0.75187 0.39412 0.0
H1994 H 0.10576 0.724 0.37936 0.0
H1995 H 0.09242 0.76925 0.37151 0.0
C1996 C 0.18667 0.67641 0.40962 0.0
C1997 C 0.17111 0.66699 0.43073 0.0
C1998 C 0.17788 0.69714 0.39394 0.0
C1999 C 0.1533 0.70847 0.39896 0.0
C2000 C 0.13664 0.69706 0.41821 0.0
C2001 C 0.1455 0.67654 0.434 0.0
C2002 C 0.15796 0.78131 0.38388 0.0
C2003 C 0.13135 0.78682 0.37884 0.0
C2004 C 0.16557 0.75533 0.38831 0.0
C2005 C 0.1467 0.73446 0.38768 0.0
C2006 C 0.1206 0.73976 0.38036 0.0
C2007 C 0.11299 0.76569 0.37597 0.0
H2008 H 0.53279 0.93865 0.7406 0.0
H2009 H 0.55033 -0.01104 0.67366 0.0
H2010 H 0.49444 0.92008 0.71725 0.0
H2011 H 0.51198 0.97022 0.65028 0.0
H2012 H 0.42135 0.95374 0.63743 0.0
H2013 H 0.46262 0.97113 0.65625 0.0
H2014 H 0.48503 0.89195 0.67705 0.0
H2015 H 0.44372 0.87446 0.65847 0.0
C2016 C 0.52848 0.94568 0.7209 0.0
C2017 C 0.54448 0.96524 0.70893 0.0
C2018 C 0.50668 0.93492 0.70747 0.0
C2019 C 0.50044 0.94365 0.68195 0.0
C2020 C 0.51637 0.96326 0.67 0.0
C2021 C 0.53829 0.97391 0.68336 0.0
C2022 C 0.43521 0.94001 0.64575 0.0
C2023 C 0.42918 0.91277 0.64674 0.0
C2024 C 0.45885 0.94996 0.65639 0.0
C2025 C 0.47678 0.93286 0.66829 0.0
C2026 C 0.4713 0.90554 0.66829 0.0
C2027 C 0.44775 0.89556 0.6575 0.0
H2028 H 0.34926 0.31347 0.94849 0.0
H2029 H 0.27005 0.30823 0.91629 0.0
H2030 H 0.36217 0.27702 0.92042 0.0
H2031 H 0.28315 0.27168 0.88792 0.0
H2032 H 0.30974 0.18153 0.89169 0.0
H2033 H 0.29389 0.22572 0.90109 0.0
H2034 H 0.3687 0.25957 0.87547 0.0
H2035 H 0.38472 0.21539 0.8665 0.0
C2036 C 0.33476 0.30493 0.93498 0.0
C2037 C 0.30854 0.31341 0.93495 0.0
C2038 C 0.34222 0.28418 0.91867 0.0
C2039 C 0.32358 0.27141 0.90208 0.0
C2040 C 0.29782 0.28105 0.9007 0.0
C2041 C 0.29039 0.30201 0.91689 0.0
C2042 C 0.32249 0.19844 0.8873 0.0
C2043 C 0.34869 0.19506 0.87911 0.0
C2044 C 0.31337 0.22378 0.89255 0.0
C2045 C 0.33031 0.24601 0.8895 0.0
C2046 C 0.35546 0.24271 0.8785 0.0
C2047 C 0.3646 0.21744 0.8734 0.0
H2048 H 0.42658 0.54563 0.70242 0.0
H2049 H 0.43837 0.48622 0.64221 0.0
H2050 H 0.46455 0.57089 0.68567 0.0
H2051 H 0.47585 0.51179 0.62513 0.0
H2052 H 0.56259 0.53987 0.63556 0.0
H2053 H 0.5197 0.51919 0.64372 0.0
H2054 H 0.4846 0.59613 0.64901 0.0
H2055 H 0.52791 0.61706 0.64133 0.0
C2056 C 0.43691 0.53825 0.68527 0.0
C2057 C 0.42982 0.51371 0.67394 0.0
C2058 C 0.45856 0.5528 0.67558 0.0
C2059 C 0.47336 0.54311 0.65432 0.0
C2060 C 0.46512 0.51946 0.6419 0.0
C2061 C 0.44363 0.50486 0.65166 0.0
C2062 C 0.54575 0.55245 0.63827 0.0
C2063 C 0.54871 0.58012 0.6381 0.0
C2064 C 0.52108 0.54056 0.64269 0.0
C2065 C 0.49879 0.55605 0.64697 0.0
C2066 C 0.50152 0.58373 0.64599 0.0
C2067 C 0.52628 0.59568 0.64151 0.0
H2068 H 0.72953 0.18339 0.05889 0.0
H2069 H 0.78116 0.19805 -0.00772 0.0
H2070 H 0.75075 0.22023 0.08273 0.0
H2071 H 0.80231 0.23481 0.01616 0.0
H2072 H 0.85166 0.28023 0.0768 0.0
H2073 H 0.83089 0.24068 0.05743 0.0
H2074 H 0.75381 0.27019 0.07672 0.0
H2075 H 0.77445 0.30975 0.09616 0.0
C2076 C 0.74537 0.1945 0.04936 0.0
C2077 C 0.75373 0.1879 0.02376 0.0
C2078 C 0.75745 0.21553 0.06298 0.0
C2079 C 0.77823 0.23011 0.0513 0.0
C2080 C 0.78655 0.22356 0.0257 0.0
C2081 C 0.77432 0.20271 0.01198 0.0
C2082 C 0.8303 0.27809 0.0773 0.0
C2083 C 0.81464 0.29816 0.08777 0.0
C2084 C 0.81846 0.25558 0.06605 0.0
C2085 C 0.79081 0.25263 0.0654 0.0
C2086 C 0.77519 0.27202 0.07707 0.0
C2087 C 0.787 0.29466 0.08808 0.0
H2088 H 0.58117 0.0077 0.84045 0.0
H2089 H 0.57817 0.07851 0.79307 0.0
H2090 H 0.54774 0.02538 0.86997 0.0
H2091 H 0.54485 0.09607 0.82245 0.0
H2092 H 0.45589 0.04533 0.8693 0.0
H2093 H 0.50008 0.03065 0.85851 0.0
H2094 H 0.53052 0.11071 0.86691 0.0
H2095 H 0.48631 0.12553 0.87752 0.0
C2096 C 0.57401 0.02738 0.83681 0.0
C2097 C 0.58188 0.04155 0.81417 0.0
C2098 C 0.5548 0.03741 0.85365 0.0
C2099 C 0.54343 0.06189 0.84829 0.0
C2100 C 0.55332 0.07718 0.8272 0.0
C2101 C 0.57233 0.06707 0.81024 0.0
C2102 C 0.47209 0.0597 0.86956 0.0
C2103 C 0.46746 0.08669 0.87354 0.0
C2104 C 0.49749 0.05126 0.86356 0.0
C2105 C 0.51867 0.06965 0.86148 0.0
C2106 C 0.51447 0.09621 0.86797 0.0
C2107 C 0.48912 0.10464 0.87402 0.0
H2108 H 0.92102 0.98458 0.29838 0.0
H2109 H 0.92034 0.90468 0.2677 0.0
H2110 H 0.95422 0.97254 0.3311 0.0
H2111 H 0.95339 0.8928 0.30027 0.0
H2112 H 0.04335 0.94443 0.3438 0.0
H2113 H 0.00212 0.96042 0.32537 0.0
H2114 H 0.96198 0.88797 0.34874 0.0
H2115 H 0.00313 0.87184 0.36701 0.0
C2116 C 0.92761 0.96437 0.29889 0.0
C2117 C 0.91827 0.94561 0.28029 0.0
C2118 C 0.94663 0.95755 0.31758 0.0
C2119 C 0.95631 0.93178 0.31822 0.0
C2120 C 0.94601 0.91274 0.30048 0.0
C2121 C 0.92725 0.9196 0.28165 0.0
C2122 C 0.02556 0.93226 0.34576 0.0
C2123 C 0.02661 0.9066 0.35621 0.0
C2124 C 0.00193 0.94145 0.33526 0.0
C2125 C 0.97905 0.92515 0.33516 0.0
C2126 C 0.9795 0.90068 0.3481 0.0
C2127 C 0.00306 0.8915 0.35858 0.0
H2128 H 0.42909 0.32524 0.17388 0.0
H2129 H 0.43146 0.25878 0.22708 0.0
H2130 H 0.4024 0.34929 0.20544 0.0
H2131 H 0.40609 0.28325 0.25941 0.0
H2132 H 0.35334 0.32654 0.31205 0.0
H2133 H 0.36658 0.30214 0.27283 0.0
H2134 H 0.41009 0.37138 0.24535 0.0
H2135 H 0.39548 0.39598 0.28382 0.0
C2136 C 0.42381 0.31579 0.19238 0.0
C2137 C 0.43251 0.29031 0.19827 0.0
C2138 C 0.40863 0.3296 0.21052 0.0
C2139 C 0.40233 0.31843 0.23517 0.0
C2140 C 0.41018 0.29241 0.24051 0.0
C2141 C 0.42491 0.2784 0.2221 0.0
C2142 C 0.36521 0.33662 0.2972 0.0
C2143 C 0.37365 0.36299 0.30094 0.0
C2144 C 0.37299 0.32262 0.27487 0.0
C2145 C 0.38988 0.33455 0.25615 0.0
C2146 C 0.39688 0.36153 0.25916 0.0
C2147 C 0.38861 0.37569 0.28126 0.0
H2148 H 0.4809 0.69342 0.9274 0.0
H2149 H 0.39795 0.71043 0.91918 0.0
H2150 H 0.47086 0.66684 0.96672 0.0
H2151 H 0.38808 0.68465 0.95823 0.0
H2152 H 0.3714 0.63012 0.0226 0.0
H2153 H 0.38648 0.6418 0.97842 0.0
H2154 H 0.45685 0.67891 0.01172 0.0
H2155 H 0.44213 0.66634 0.05597 0.0
C2156 C 0.46052 0.69101 0.93365 0.0
C2157 C 0.44023 0.7042 0.92046 0.0
C2158 C 0.45481 0.676 0.95621 0.0
C2159 C 0.42871 0.67376 0.96566 0.0
C2160 C 0.40834 0.68564 0.95137 0.0
C2161 C 0.41404 0.70066 0.92906 0.0
C2162 C 0.39025 0.6405 0.02044 0.0
C2163 C 0.40532 0.64791 0.04269 0.0
C2164 C 0.3989 0.64712 -0.00484 0.0
C2165 C 0.42262 0.66166 -0.00838 0.0
C2166 C 0.43856 0.66755 0.01377 0.0
C2167 C 0.43004 0.66059 0.03913 0.0
H2168 H 0.03961 0.67152 0.67063 0.0
H2169 H 0.07555 0.74677 0.6925 0.0
H2170 H 0.0637 0.65011 0.70573 0.0
H2171 H 0.10061 0.7251 0.72718 0.0
H2172 H 0.09767 0.68632 0.81011 0.0
H2173 H 0.08718 0.70798 0.76888 0.0
H2174 H 0.10327 0.63601 0.72609 0.0
H2175 H 0.11288 0.61394 0.7677 0.0
C2176 C 0.05328 0.68338 0.68245 0.0
C2177 C 0.0553 0.71092 0.67912 0.0
C2178 C 0.06728 0.67105 0.70254 0.0
C2179 C 0.08381 0.68594 0.71961 0.0
C2180 C 0.08756 0.71315 0.71478 0.0
C2181 C 0.07336 0.72555 0.69478 0.0
C2182 C 0.09928 0.67515 0.79191 0.0
C2183 C 0.10562 0.64824 0.79226 0.0
C2184 C 0.09352 0.68769 0.76815 0.0
C2185 C 0.0942 0.67372 0.7441 0.0
C2186 C 0.10208 0.64722 0.7443 0.0
C2187 C 0.10764 0.63459 0.76814 0.0
H2188 H 0.97548 0.32658 0.4278 0.0
H2189 H 0.05011 0.29496 0.40269 0.0
H2190 H -0.00269 0.34655 0.46624 0.0
H2191 H 0.07154 0.31396 0.44132 0.0
H2192 H 0.10763 0.35297 0.51134 0.0
H2193 H 0.08625 0.35033 0.46811 0.0
H2194 H 0.01301 0.32558 0.50547 0.0
H2195 H 0.034 0.32903 0.54844 0.0
C2196 C -0.00341 0.32432 0.43017 0.0
C2197 C 0.01093 0.30867 0.41253 0.0
C2198 C 0.00907 0.33562 0.45228 0.0
C2199 C 0.03604 0.33137 0.45715 0.0
C2200 C 0.05078 0.31774 0.4382 0.0
C2201 C 0.03838 0.3066 0.41609 0.0
C2202 C 0.08689 0.34722 0.51028 0.0
C2203 C 0.07264 0.34073 0.53326 0.0
C2204 C 0.07464 0.34575 0.48554 0.0
C2205 C 0.04795 0.33761 0.4833 0.0
C2206 C 0.03346 0.33231 0.50643 0.0
C2207 C 0.04563 0.33396 0.53111 0.0
H2208 H 0.38251 0.72794 0.31886 0.0
H2209 H 0.44122 0.66796 0.32907 0.0
H2210 H 0.36479 0.70403 0.28065 0.0
H2211 H 0.42412 0.64468 0.29053 0.0
H2212 H 0.38928 0.60587 0.21911 0.0
H2213 H 0.39064 0.62127 0.26491 0.0
H2214 H 0.38548 0.702 0.23791 0.0
H2215 H 0.38348 0.68673 0.19258 0.0
C2216 C 0.39126 0.70937 0.31335 0.0
C2217 C 0.41375 0.70025 0.32652 0.0
C2218 C 0.38117 0.69574 0.29139 0.0
C2219 C 0.39353 0.67289 0.28213 0.0
C2220 C 0.41414 0.66224 0.29708 0.0
C2221 C 0.42408 0.67574 0.31915 0.0
C2222 C 0.38815 0.62687 0.22303 0.0
C2223 C 0.38676 0.64512 0.20219 0.0
C2224 C 0.38888 0.63566 0.24925 0.0
C2225 C 0.38817 0.66283 0.25507 0.0
C2226 C 0.3856 0.68089 0.23422 0.0
C2227 C 0.38484 0.67215 0.20812 0.0
H2228 H -0.00369 0.65691 0.05296 0.0
H2229 H 0.06843 0.70332 0.06289 0.0
H2230 H 0.01799 0.62965 0.01999 0.0
H2231 H 0.08976 0.67686 0.02937 0.0
H2232 H 0.12636 0.62399 0.97086 0.0
H2233 H 0.10669 0.63624 0.01303 0.0
H2234 H 0.02994 0.63911 0.97553 0.0
H2235 H 0.04929 0.62609 0.93389 0.0
C2236 C 0.01691 0.66102 0.0484 0.0
C2237 C 0.03055 0.68251 0.06018 0.0
C2238 C 0.0293 0.6455 0.02942 0.0
C2239 C 0.05547 0.65134 0.02166 0.0
C2240 C 0.06966 0.67161 0.03494 0.0
C2241 C 0.05735 0.68696 0.05408 0.0
C2242 C 0.1052 0.62675 0.97177 0.0
C2243 C 0.08948 0.62454 0.9489 0.0
C2244 C 0.09395 0.63387 -0.00408 0.0
C2245 C 0.06678 0.63897 -0.00235 0.0
C2246 C 0.05087 0.63508 0.97509 0.0
C2247 C 0.06205 0.62785 0.95106 0.0
H2248 H 0.0409 0.32884 0.8126 0.0
H2249 H 0.04996 0.24426 0.80724 0.0
H2250 H 0.06775 0.33483 0.77343 0.0
H2251 H 0.07732 0.2503 0.76769 0.0
H2252 H 0.07436 0.27897 0.67719 0.0
H2253 H 0.06472 0.26458 0.7223 0.0
H2254 H 0.11091 0.33085 0.75282 0.0
H2255 H 0.1197 0.34563 0.70784 0.0
C2256 C 0.04915 0.31155 0.80334 0.0
C2257 C 0.04308 0.28609 0.81274 0.0
C2258 C 0.0648 0.31497 0.781 0.0
C2259 C 0.07464 0.29299 0.76744 0.0
C2260 C 0.06987 0.26755 0.77771 0.0
C2261 C 0.05434 0.26413 0.80035 0.0
C2262 C 0.08308 0.28992 0.69358 0.0
C2263 C 0.09718 0.3137 0.68925 0.0
C2264 C 0.0777 0.28164 0.7194 0.0
C2265 C 0.08662 0.29695 0.74106 0.0
C2266 C 0.10329 0.31903 0.7365 0.0
C2267 C 0.10832 0.32747 0.71081 0.0
H2268 H 0.48497 0.31226 0.54766 0.0
H2269 H 0.40811 0.27315 0.54795 0.0
H2270 H 0.4673 0.34762 0.52047 0.0
H2271 H 0.39075 0.30774 0.52028 0.0
H2272 H 0.35855 0.37531 0.48024 0.0
H2273 H 0.37879 0.35316 0.51761 0.0
H2274 H 0.45309 0.35167 0.4756 0.0
H2275 H 0.4333 0.37468 0.43891 0.0
C2276 C 0.46434 0.31122 0.54187 0.0
C2277 C 0.44794 0.2899 0.54972 0.0
C2278 C 0.45422 0.33146 0.52638 0.0
C2279 C 0.42757 0.3306 0.51836 0.0
C2280 C 0.41118 0.3094 0.52662 0.0
C2281 C 0.42123 0.28935 0.54219 0.0
C2282 C 0.37939 0.37091 0.47932 0.0
C2283 C 0.39411 0.37604 0.45634 0.0
C2284 C 0.39094 0.35808 0.50064 0.0
C2285 C 0.41732 0.34997 0.49923 0.0
C2286 C 0.43272 0.35758 0.47736 0.0
C2287 C 0.42127 0.37065 0.45619 0.0
H2288 H 0.14908 0.43588 0.31426 0.0
H2289 H 0.17203 0.38253 0.25191 0.0
H2290 H 0.18497 0.42069 0.34153 0.0
H2291 H 0.20762 0.36653 0.27978 0.0
H2292 H 0.25532 0.39624 0.38553 0.0
H2293 H 0.21163 0.39002 0.36545 0.0
H2294 H 0.24728 0.3926 0.28788 0.0
H2295 H 0.29055 0.39808 0.30774 0.0
C2296 C 0.16123 0.4202 0.30672 0.0
C2297 C 0.15844 0.41115 0.28055 0.0
C2298 C 0.18171 0.41126 0.32252 0.0
C2299 C 0.19965 0.393 0.31248 0.0
C2300 C 0.19451 0.3812 0.28772 0.0
C2301 C 0.17405 0.39027 0.2718 0.0
C2302 C 0.25377 0.3952 0.3642 0.0
C2303 C 0.27629 0.39833 0.34819 0.0
C2304 C 0.22879 0.39149 0.35273 0.0
C2305 C 0.22595 0.39085 0.32509 0.0
C2306 C 0.24871 0.39253 0.30924 0.0
C2307 C 0.27356 0.39617 0.32065 0.0
H2308 H 0.32018 0.45025 0.97362 0.0
H2309 H 0.29976 0.4238 0.05228 0.0
H2310 H 0.3462 0.48704 -0.00734 0.0
H2311 H 0.3247 0.46056 0.07108 0.0
H2312 H 0.37755 0.52114 0.10342 0.0
H2313 H 0.3669 0.48074 0.07888 0.0
H2314 H 0.33548 0.52729 0.01505 0.0
H2315 H 0.34716 0.56752 0.03897 0.0
C2316 C 0.32139 0.45221 -0.00509 0.0
C2317 C 0.3078 0.43434 0.01147 0.0
C2318 C 0.33623 0.47324 0.0058 0.0
C2319 C 0.33758 0.4767 0.03339 0.0
C2320 C 0.32461 0.45823 0.0498 0.0
C2321 C 0.30998 0.43728 0.03898 0.0
C2322 C 0.36885 0.5227 0.08392 0.0
C2323 C 0.3626 0.54741 0.07339 0.0
C2324 C 0.3627 0.49959 0.06989 0.0
C2325 C 0.34982 0.5008 0.04528 0.0
C2326 C 0.3455 0.52562 0.03388 0.0
C2327 C 0.35199 0.54872 0.04774 0.0
H2328 H 0.28797 0.55105 0.73311 0.0
H2329 H 0.33491 0.55332 0.80445 0.0
H2330 H 0.25272 0.57349 0.75571 0.0
H2331 H 0.3003 0.57749 0.82686 0.0
H2332 H 0.21875 0.57414 0.86704 0.0
H2333 H 0.25982 0.56505 0.84453 0.0
H2334 H 0.23309 0.6087 0.77642 0.0
H2335 H 0.19117 0.61626 0.79861 0.0
C2336 C 0.29112 0.55725 0.75341 0.0
C2337 C 0.31394 0.55008 0.76717 0.0
C2338 C 0.2709 0.5703 0.76643 0.0
C2339 C 0.27332 0.57695 0.79338 0.0
C2340 C 0.29734 0.57195 0.80637 0.0
C2341 C 0.31731 0.55833 0.79349 0.0
C2342 C 0.22182 0.58206 0.84738 0.0
C2343 C 0.20166 0.59551 0.83438 0.0
C2344 C 0.24554 0.57708 0.83448 0.0
C2345 C 0.24987 0.58593 0.80844 0.0
C2346 C 0.23026 0.60097 0.79617 0.0
C2347 C 0.20628 0.60543 0.80889 0.0
H2348 H 0.17498 0.54103 0.50609 0.0
H2349 H 0.14868 0.57597 0.57901 0.0
H2350 H 0.15336 0.49927 0.51806 0.0
H2351 H 0.12514 0.53501 0.59024 0.0
H2352 H 0.11033 0.42556 0.54347 0.0
H2353 H 0.11786 0.47057 0.52727 0.0
H2354 H 0.1399 0.4956 0.60634 0.0
H2355 H 0.13097 0.45152 0.62243 0.0
C2356 C 0.16364 0.53997 0.52422 0.0
C2357 C 0.16373 0.56139 0.54187 0.0
C2358 C 0.15111 0.51607 0.53109 0.0
C2359 C 0.13796 0.51345 0.55548 0.0
C2360 C 0.13589 0.53593 0.57178 0.0
C2361 C 0.1491 0.5595 0.56528 0.0
C2362 C 0.11639 0.44089 0.55734 0.0
C2363 C 0.1202 0.43499 0.58417 0.0
C2364 C 0.12083 0.46666 0.54808 0.0
C2365 C 0.12955 0.48689 0.56541 0.0
C2366 C 0.13258 0.48091 0.59238 0.0
C2367 C 0.12771 0.45541 0.60165 0.0
H2368 H 0.18701 0.53918 0.22974 0.0
H2369 H 0.19203 0.49411 0.15723 0.0
H2370 H 0.2242 0.56733 0.21527 0.0
H2371 H 0.22896 0.52211 0.14299 0.0
H2372 H 0.27728 0.5909 0.11329 0.0
H2373 H 0.23709 0.56943 0.12977 0.0
H2374 H 0.27335 0.56089 0.20649 0.0
H2375 H 0.31374 0.58254 0.19013 0.0
C2376 C 0.19594 0.53535 0.21071 0.0
C2377 C 0.1866 0.5144 0.19463 0.0
C2378 C 0.21724 0.5514 0.20251 0.0
C2379 C 0.22928 0.54697 0.17797 0.0
C2380 C 0.21978 0.5262 0.16184 0.0
C2381 C 0.19874 0.51005 0.17011 0.0
C2382 C 0.27665 0.58479 0.13378 0.0
C2383 C 0.29888 0.58805 0.15028 0.0
C2384 C 0.25364 0.57242 0.14315 0.0
C2385 C 0.2523 0.56322 0.16926 0.0
C2386 C 0.27389 0.56786 0.18627 0.0
C2387 C 0.29703 0.58013 0.17685 0.0
H2388 H 0.16878 0.41924 0.98428 0.0
H2389 H 0.20552 0.40904 0.90803 0.0
H2390 H 0.1419 0.45433 0.96617 0.0
H2391 H 0.17963 0.44457 0.89027 0.0
H2392 H 0.13094 0.50908 0.86077 0.0
H2393 H 0.13978 0.46504 0.87769 0.0
H2394 H 0.15472 0.49844 0.9552 0.0
H2395 H 0.14499 0.54201 0.93861 0.0
C2396 C 0.17072 0.42411 0.96353 0.0
C2397 C 0.18964 0.41179 0.94771 0.0
C2398 C 0.15545 0.44432 0.95319 0.0
C2399 C 0.15903 0.45271 0.92693 0.0
C2400 C 0.1762 0.43864 0.91053 0.0
C2401 C 0.19125 0.41831 0.9208 0.0
C2402 C 0.13572 0.5069 0.88152 0.0
C2403 C 0.1378 0.5291 0.89823 0.0
C2404 C 0.1408 0.48167 0.89121 0.0
C2405 C 0.14826 0.47818 0.91774 0.0
C2406 C 0.14872 0.50023 0.93475 0.0
C2407 C 0.14342 0.52536 0.92513 0.0
H2408 H 0.30684 0.44584 0.66374 0.0
H2409 H 0.28837 0.4153 0.74136 0.0
H2410 H 0.26953 0.42129 0.64532 0.0
H2411 H 0.2514 0.3895 0.72264 0.0
H2412 H 0.16757 0.38463 0.68604 0.0
H2413 H 0.20902 0.39888 0.70606 0.0
H2414 H 0.25015 0.38016 0.63374 0.0
H2415 H 0.20817 0.36706 0.6132 0.0
C2416 C 0.29505 0.43344 0.6768 0.0
C2417 C 0.3003 0.43269 0.70403 0.0
C2418 C 0.27377 0.41909 0.66617 0.0
C2419 C 0.25741 0.40337 0.68247 0.0
C2420 C 0.26337 0.40174 0.7096 0.0
C2421 C 0.28455 0.41643 0.72033 0.0
C2422 C 0.18548 0.38327 0.67446 0.0
C2423 C 0.18458 0.37523 0.64786 0.0
C2424 C 0.20936 0.39122 0.68606 0.0
C2425 C 0.23293 0.39095 0.67145 0.0
C2426 C 0.23224 0.38122 0.64535 0.0
C2427 C 0.20825 0.37364 0.63359 0.0
H2428 H 0.28784 0.5511 0.51993 0.0
H2429 H 0.28752 0.6013 0.45114 0.0
H2430 H 0.31302 0.51857 0.49576 0.0
H2431 H 0.31423 0.56969 0.42729 0.0
H2432 H 0.3145 0.48965 0.38338 0.0
H2433 H 0.30339 0.52926 0.40772 0.0
H2434 H 0.35019 0.50307 0.474 0.0
H2435 H 0.35995 0.46264 0.44996 0.0
C2436 C 0.29405 0.55554 0.49992 0.0
C2437 C 0.28543 0.57832 0.48716 0.0
C2438 C 0.30862 0.53699 0.48602 0.0
C2439 C 0.31526 0.54123 0.4593 0.0
C2440 C 0.30875 0.56537 0.44752 0.0
C2441 C 0.29364 0.58357 0.4612 0.0
C2442 C 0.32272 0.49261 0.40298 0.0
C2443 C 0.33763 0.47297 0.41502 0.0
C2444 C 0.31657 0.51545 0.41694 0.0
C2445 C 0.32567 0.51932 0.44304 0.0
C2446 C 0.34229 0.50045 0.45424 0.0
C2447 C 0.34798 0.47737 0.44046 0.0
H2448 H 0.3117 0.17276 0.40122 0.0
H2449 H 0.24004 0.20855 0.42859 0.0
H2450 H 0.32708 0.21521 0.38373 0.0
H2451 H 0.25589 0.2513 0.41255 0.0
H2452 H 0.28817 0.32648 0.37889 0.0
H2453 H 0.26926 0.28173 0.37967 0.0
H2454 H 0.3444 0.25238 0.40641 0.0
H2455 H 0.36343 0.29678 0.40445 0.0
C2456 C 0.29905 0.18968 0.403 0.0
C2457 C 0.27492 0.18762 0.41651 0.0
C2458 C 0.30792 0.21402 0.39324 0.0
C2459 C 0.29309 0.23682 0.39741 0.0
C2460 C 0.26783 0.23418 0.40887 0.0
C2461 C 0.25872 0.20968 0.41816 0.0
C2462 C 0.30063 0.31035 0.38473 0.0
C2463 C 0.32717 0.31508 0.39196 0.0
C2464 C 0.28981 0.28474 0.38517 0.0
C2465 C 0.30524 0.26342 0.39317 0.0
C2466 C 0.33202 0.26818 0.39962 0.0
C2467 C 0.34292 0.2937 0.3988 0.0
H2468 H 0.82215 0.33859 0.55378 0.0
H2469 H 0.7547 0.28825 0.53531 0.0
H2470 H 0.83723 0.30647 0.586 0.0
H2471 H 0.77062 0.25498 0.56577 0.0
H2472 H 0.80373 0.19521 0.61815 0.0
H2473 H 0.7828 0.23644 0.60595 0.0
H2474 H 0.85844 0.26735 0.57872 0.0
H2475 H 0.87924 0.22713 0.5922 0.0
C2476 C 0.81039 0.32073 0.55705 0.0
C2477 C 0.78754 0.31552 0.54211 0.0
C2478 C 0.81908 0.30222 0.57527 0.0
C2479 C 0.80564 0.27771 0.57796 0.0
C2480 C 0.78148 0.27361 0.56445 0.0
C2481 C 0.77237 0.29255 0.54683 0.0
C2482 C 0.81586 0.21113 0.61006 0.0
C2483 C 0.84301 0.20782 0.60567 0.0
C2484 C 0.80388 0.23471 0.60297 0.0
C2485 C 0.81876 0.25519 0.59097 0.0
C2486 C 0.84625 0.25234 0.58825 0.0
C2487 C 0.85825 0.22904 0.59574 0.0
H2488 H 0.42336 0.04021 0.2892 0.0
H2489 H 0.44107 0.96677 0.32829 0.0
H2490 H 0.46037 0.06184 0.31149 0.0
H2491 H 0.478 0.9888 0.35126 0.0
H2492 H 0.56263 0.02765 0.34733 0.0
H2493 H 0.52096 0.00531 0.33664 0.0
H2494 H 0.47933 0.07727 0.35267 0.0
H2495 H 0.52121 0.09995 0.36271 0.0
C2496 C 0.43488 0.02875 0.30293 0.0
C2497 C 0.42949 0.00164 0.30667 0.0
C2498 C 0.456 0.04127 0.31593 0.0
C2499 C 0.47222 0.02702 0.33307 0.0
C2500 C 0.46604 0.00021 0.33789 0.0
C2501 C 0.44484 0.98764 0.32483 0.0
C2502 C 0.54459 0.03868 0.34888 0.0
C2503 C 0.5453 0.06574 0.35535 0.0
C2504 C 0.52063 0.02576 0.34299 0.0
C2505 C 0.49685 0.03957 0.34358 0.0
C2506 C 0.49739 0.06622 0.35159 0.0
C2507 C 0.52138 0.07919 0.35739 0.0
H2508 H 0.66622 0.65417 0.02035 0.0
H2509 H 0.73976 0.6668 0.0626 0.0
H2510 H 0.64549 0.68727 0.04768 0.0
H2511 H 0.71871 0.69931 0.0908 0.0
H2512 H 0.68657 0.78456 0.09471 0.0
H2513 H 0.70604 0.74326 0.08161 0.0
H2514 H 0.62986 0.70343 0.08893 0.0
H2515 H 0.61007 0.74524 0.10118 0.0
C2516 C 0.67775 0.6635 0.03599 0.0
C2517 C 0.70474 0.65833 0.03899 0.0
C2518 C 0.6658 0.68237 0.05186 0.0
C2519 C 0.68055 0.69626 0.07122 0.0
C2520 C 0.70697 0.6894 0.07566 0.0
C2521 C 0.71901 0.67072 0.05958 0.0
C2522 C 0.674 0.76695 0.09394 0.0
C2523 C 0.64666 0.7683 0.09839 0.0
C2524 C 0.68524 0.74312 0.08666 0.0
C2525 C 0.66945 0.72003 0.08393 0.0
C2526 C 0.64245 0.72098 0.09034 0.0
C2527 C 0.63114 0.74492 0.09742 0.0
H2528 H 0.55536 0.44099 0.29833 0.0
H2529 H 0.5384 0.52352 0.31041 0.0
H2530 H 0.51747 0.42833 0.32468 0.0
H2531 H 0.50033 0.51071 0.33783 0.0
H2532 H 0.41495 0.47105 0.34169 0.0
H2533 H 0.45731 0.49061 0.32851 0.0
H2534 H 0.4978 0.42706 0.3673 0.0
H2535 H 0.45534 0.4069 0.37941 0.0
C2536 C 0.54374 0.45648 0.30705 0.0
C2537 C 0.54963 0.48324 0.30206 0.0
C2538 C 0.52213 0.44921 0.32248 0.0
C2539 C 0.50589 0.46852 0.33347 0.0
C2540 C 0.5124 0.4954 0.32945 0.0
C2541 C 0.53417 0.50273 0.31386 0.0
C2542 C 0.43294 0.46155 0.3478 0.0
C2543 C 0.43196 0.43714 0.36096 0.0
C2544 C 0.45723 0.47287 0.34044 0.0
C2545 C 0.48089 0.46011 0.34645 0.0
C2546 C 0.47986 0.43698 0.36179 0.0
C2547 C 0.4556 0.42545 0.36874 0.0
H2548 H 0.26093 0.77654 0.93559 0.0
H2549 H 0.19058 0.8228 0.92883 0.0
H2550 H 0.23796 0.7392 0.91477 0.0
H2551 H 0.16791 0.78609 0.90645 0.0
H2552 H 0.12557 0.70497 0.90908 0.0
H2553 H 0.14906 0.74605 0.91969 0.0
H2554 H 0.21814 0.71818 0.87868 0.0
H2555 H 0.19492 0.67642 0.8695 0.0
C2556 C 0.24079 0.77895 0.92884 0.0
C2557 C 0.22739 0.80234 0.93409 0.0
C2558 C 0.22758 0.75758 0.91677 0.0
C2559 C 0.20085 0.75941 0.90923 0.0
C2560 C 0.1882 0.78365 0.91269 0.0
C2561 C 0.20123 0.80478 0.9253 0.0
C2562 C 0.14567 0.7078 0.9021 0.0
C2563 C 0.15856 0.68746 0.88879 0.0
C2564 C 0.15915 0.73146 0.90798 0.0
C2565 C 0.18566 0.73551 0.90019 0.0
C2566 C 0.198 0.71558 0.88556 0.0
C2567 C 0.18467 0.69171 0.88016 0.0
H2568 H 0.44738 0.96707 0.19316 0.0
H2569 H 0.40024 0.89616 0.18002 0.0
H2570 H 0.48152 0.95035 0.16418 0.0
H2571 H 0.43315 0.88014 0.14909 0.0
H2572 H 0.51398 0.8415 0.14329 0.0
H2573 H 0.47313 0.86126 0.15642 0.0
H2574 H 0.50057 0.93657 0.1251 0.0
H2575 H 0.54255 0.91677 0.11343 0.0
C2576 C 0.444 0.94831 0.18318 0.0
C2577 C 0.42168 0.93256 0.18903 0.0
C2578 C 0.46343 0.93874 0.16636 0.0
C2579 C 0.46046 0.91352 0.15465 0.0
C2580 C 0.43661 0.89916 0.15849 0.0
C2581 C 0.41765 0.90836 0.17599 0.0
C2582 C 0.51116 0.86217 0.13878 0.0
C2583 C 0.53162 0.87773 0.12783 0.0
C2584 C 0.48749 0.87356 0.14609 0.0
C2585 C 0.48346 0.90072 0.14211 0.0
C2586 C 0.5032 0.91579 0.12911 0.0
C2587 C 0.52719 0.90445 0.12229 0.0
H2588 H 0.06932 0.07808 0.72016 0.0
H2589 H 0.06129 0.00754 0.67217 0.0
H2590 H 0.03521 0.09895 0.69403 0.0
H2591 H 0.02771 0.0287 0.64548 0.0
H2592 H 0.97755 0.13493 0.63928 0.0
H2593 H 0.01964 0.11638 0.65251 0.0
H2594 H 0.98263 0.03859 0.65579 0.0
H2595 H 0.94094 0.05689 0.64197 0.0
C2596 C 0.06076 0.0673 0.70358 0.0
C2597 C 0.06759 0.04103 0.6985 0.0
C2598 C 0.04131 0.07932 0.68847 0.0
C2599 C 0.02848 0.06533 0.66789 0.0
C2600 C 0.03684 0.03978 0.66155 0.0
C2601 C 0.05614 0.02771 0.67678 0.0
C2602 C 0.97853 0.11379 0.6424 0.0
C2603 C 0.95579 0.09744 0.64001 0.0
C2604 C 0.00262 0.1032 0.65005 0.0
C2605 C 0.00443 0.07607 0.65546 0.0
C2606 C 0.98204 0.05954 0.65152 0.0
C2607 C 0.95802 0.07009 0.64382 0.0
loop_
_geom_bond_atom_site_label_1
_geom_bond_atom_site_label_2
_geom_bond_distance
_geom_bond_site_symmetry_2
_ccdc_geom_bond_type
C0 O1 1.306 . S
C0 O3 1.160 . S
O1 C0 1.306 . S
O1 Cd2 2.228 . S
Cd2 O1 2.228 . S
Cd2 O6 2.273 . S
Cd2 O10 2.277 . S
O3 C0 1.160 . S
O3 Cd4 2.203 1_655 S
Cd4 O3 2.203 1_455 S
Cd4 O6 2.411 1_455 S
Cd4 O7 2.333 . S
Cd4 O8 2.352 . S
Cd4 O12 2.277 . S
Cd4 O13 2.356 . S
C5 O10 1.209 1_455 S
C5 O12 1.226 . S
O6 Cd2 2.273 . S
O6 Cd4 2.411 1_655 S
O6 C9 1.320 . S
O7 Cd4 2.333 . S
O7 C9 1.214 1_455 S
O8 Cd4 2.352 . S
O8 C11 1.258 . S
C9 O6 1.320 . S
C9 O7 1.214 1_655 S
O10 Cd2 2.277 . S
O10 C5 1.209 1_655 S
C11 O8 1.258 . S
C11 O13 1.282 . S
O12 Cd4 2.277 . S
O12 C5 1.226 . S
O13 Cd4 2.356 . S
O13 C11 1.282 . S
C14 O15 1.306 . S
C14 O17 1.160 . S
O15 C14 1.306 . S
O15 Cd16 2.228 1_455 S
Cd16 O15 2.228 1_655 S
Cd16 O20 2.273 . S
Cd16 O24 2.277 . S
O17 C14 1.160 . S
O17 Cd18 2.203 . S
Cd18 O17 2.203 . S
Cd18 O20 2.411 1_455 S
Cd18 O21 2.333 1_455 S
Cd18 O22 2.352 . S
Cd18 O26 2.277 1_455 S
Cd18 O27 2.356 . S
C19 O24 1.209 . S
C19 O26 1.226 . S
O20 Cd16 2.273 . S
O20 Cd18 2.411 1_655 S
O20 C23 1.320 . S
O21 Cd18 2.333 1_655 S
O21 C23 1.214 . S
O22 Cd18 2.352 . S
O22 C25 1.258 . S
C23 O20 1.320 . S
C23 O21 1.214 . S
O24 Cd16 2.277 . S
O24 C19 1.209 . S
C25 O22 1.258 . S
C25 O27 1.282 . S
O26 Cd18 2.277 1_655 S
O26 C19 1.226 . S
O27 Cd18 2.356 . S
O27 C25 1.282 . S
C28 O29 1.306 . S
C28 O31 1.160 . S
O29 C28 1.306 . S
O29 Cd30 2.228 . S
Cd30 O29 2.228 . S
Cd30 O34 2.273 . S
Cd30 O38 2.277 . S
O31 C28 1.160 . S
O31 Cd32 2.203 . S
Cd32 O31 2.203 . S
Cd32 O34 2.411 . S
Cd32 O35 2.333 . S
Cd32 O36 2.352 . S
Cd32 O40 2.277 . S
Cd32 O41 2.356 . S
C33 O38 1.209 . S
C33 O40 1.226 . S
O34 Cd30 2.273 . S
O34 Cd32 2.411 . S
O34 C37 1.320 . S
O35 Cd32 2.333 . S
O35 C37 1.214 . S
O36 Cd32 2.352 . S
O36 C39 1.258 . S
C37 O34 1.320 . S
C37 O35 1.214 . S
O38 Cd30 2.277 . S
O38 C33 1.209 . S
C39 O36 1.258 . S
C39 O41 1.282 . S
O40 Cd32 2.277 . S
O40 C33 1.226 . S
O41 Cd32 2.356 . S
O41 C39 1.282 . S
C42 O43 1.306 . S
C42 O45 1.160 . S
O43 C42 1.306 . S
O43 Cd44 2.228 . S
Cd44 O43 2.228 . S
Cd44 O48 2.273 . S
Cd44 O52 2.277 . S
O45 C42 1.160 . S
O45 Cd46 2.203 . S
Cd46 O45 2.203 . S
Cd46 O48 2.411 . S
Cd46 O49 2.333 . S
Cd46 O50 2.352 . S
Cd46 O54 2.277 . S
Cd46 O55 2.356 . S
C47 O52 1.209 . S
C47 O54 1.226 . S
O48 Cd44 2.273 . S
O48 Cd46 2.411 . S
O48 C51 1.320 . S
O49 Cd46 2.333 . S
O49 C51 1.214 . S
O50 Cd46 2.352 . S
O50 C53 1.258 . S
C51 O48 1.320 . S
C51 O49 1.214 . S
O52 Cd44 2.277 . S
O52 C47 1.209 . S
C53 O50 1.258 . S
C53 O55 1.282 . S
O54 Cd46 2.277 . S
O54 C47 1.226 . S
O55 Cd46 2.356 . S
O55 C53 1.282 . S
C56 O57 1.306 . S
C56 O59 1.160 . S
O57 C56 1.306 . S
O57 Cd58 2.228 . S
Cd58 O57 2.228 . S
Cd58 O62 2.273 . S
Cd58 O66 2.277 . S
O59 C56 1.160 . S
O59 Cd60 2.203 1_655 S
Cd60 O59 2.203 1_455 S
Cd60 O62 2.411 1_455 S
Cd60 O63 2.333 . S
Cd60 O64 2.352 . S
Cd60 O68 2.277 . S
Cd60 O69 2.356 . S
C61 O66 1.209 1_455 S
C61 O68 1.226 . S
O62 Cd58 2.273 . S
O62 Cd60 2.411 1_655 S
O62 C65 1.320 . S
O63 Cd60 2.333 . S
O63 C65 1.214 1_455 S
O64 Cd60 2.352 . S
O64 C67 1.258 . S
C65 O62 1.320 . S
C65 O63 1.214 1_655 S
O66 Cd58 2.277 . S
O66 C61 1.209 1_655 S
C67 O64 1.258 . S
C67 O69 1.282 . S
O68 Cd60 2.277 . S
O68 C61 1.226 . S
O69 Cd60 2.356 . S
O69 C67 1.282 . S
C70 O71 1.306 . S
C70 O73 1.160 . S
O71 C70 1.306 . S
O71 Cd72 2.228 . S
Cd72 O71 2.228 . S
Cd72 O76 2.273 . S
Cd72 O80 2.277 . S
O73 C70 1.160 . S
O73 Cd74 2.203 . S
Cd74 O73 2.203 . S
Cd74 O76 2.411 . S
Cd74 O77 2.333 . S
Cd74 O78 2.352 . S
Cd74 O82 2.277 . S
Cd74 O83 2.356 . S
C75 O80 1.209 . S
C75 O82 1.226 . S
O76 Cd72 2.273 . S
O76 Cd74 2.411 . S
O76 C79 1.320 . S
O77 Cd74 2.333 . S
O77 C79 1.214 . S
O78 Cd74 2.352 . S
O78 C81 1.258 . S
C79 O76 1.320 . S
C79 O77 1.214 . S
O80 Cd72 2.277 . S
O80 C75 1.209 . S
C81 O78 1.258 . S
C81 O83 1.282 . S
O82 Cd74 2.277 . S
O82 C75 1.226 . S
O83 Cd74 2.356 . S
O83 C81 1.282 . S
C84 O85 1.306 . S
C84 O87 1.160 . S
O85 C84 1.306 . S
O85 Cd86 2.228 . S
Cd86 O85 2.228 . S
Cd86 O90 2.273 . S
Cd86 O94 2.277 . S
O87 C84 1.160 . S
O87 Cd88 2.203 . S
Cd88 O87 2.203 . S
Cd88 O90 2.411 . S
Cd88 O91 2.333 . S
Cd88 O92 2.352 . S
Cd88 O96 2.277 . S
Cd88 O97 2.356 . S
C89 O94 1.209 . S
C89 O96 1.226 . S
O90 Cd86 2.273 . S
O90 Cd88 2.411 . S
O90 C93 1.320 . S
O91 Cd88 2.333 . S
O91 C93 1.214 . S
O92 Cd88 2.352 . S
O92 C95 1.258 . S
C93 O90 1.320 . S
C93 O91 1.214 . S
O94 Cd86 2.277 . S
O94 C89 1.209 . S
C95 O92 1.258 . S
C95 O97 1.282 . S
O96 Cd88 2.277 . S
O96 C89 1.226 . S
O97 Cd88 2.356 . S
O97 C95 1.282 . S
C98 O99 1.306 . S
C98 O101 1.160 . S
O99 C98 1.306 . S
O99 Cd100 2.228 1_455 S
Cd100 O99 2.228 1_655 S
Cd100 O104 2.273 . S
Cd100 O108 2.277 . S
O101 C98 1.160 . S
O101 Cd102 2.203 . S
Cd102 O101 2.203 . S
Cd102 O104 2.411 1_455 S
Cd102 O105 2.333 1_455 S
Cd102 O106 2.352 . S
Cd102 O110 2.277 1_455 S
Cd102 O111 2.356 . S
C103 O108 1.209 . S
C103 O110 1.226 . S
O104 Cd100 2.273 . S
O104 Cd102 2.411 1_655 S
O104 C107 1.320 . S
O105 Cd102 2.333 1_655 S
O105 C107 1.214 . S
O106 Cd102 2.352 . S
O106 C109 1.258 . S
C107 O104 1.320 . S
C107 O105 1.214 . S
O108 Cd100 2.277 . S
O108 C103 1.209 . S
C109 O106 1.258 . S
C109 O111 1.282 . S
O110 Cd102 2.277 1_655 S
O110 C103 1.226 . S
O111 Cd102 2.356 . S
O111 C109 1.282 . S
C112 O113 1.306 . S
C112 O115 1.160 . S
O113 C112 1.306 . S
O113 Cd114 2.228 . S
Cd114 O113 2.228 . S
Cd114 O118 2.273 . S
Cd114 O122 2.277 . S
O115 C112 1.160 . S
O115 Cd116 2.203 1_565 S
Cd116 O115 2.203 1_545 S
Cd116 O118 2.411 1_545 S
Cd116 O119 2.333 . S
Cd116 O120 2.352 . S
Cd116 O124 2.277 . S
Cd116 O125 2.356 . S
C117 O122 1.209 1_545 S
C117 O124 1.226 . S
O118 Cd114 2.273 . S
O118 Cd116 2.411 1_565 S
O118 C121 1.320 . S
O119 Cd116 2.333 . S
O119 C121 1.214 1_545 S
O120 Cd116 2.352 . S
O120 C123 1.258 . S
C121 O118 1.320 . S
C121 O119 1.214 1_565 S
O122 Cd114 2.277 . S
O122 C117 1.209 1_565 S
C123 O120 1.258 . S
C123 O125 1.282 . S
O124 Cd116 2.277 . S
O124 C117 1.226 . S
O125 Cd116 2.356 . S
O125 C123 1.282 . S
C126 O127 1.306 . S
C126 O129 1.160 . S
O127 C126 1.306 . S
O127 Cd128 2.228 . S
Cd128 O127 2.228 . S
Cd128 O132 2.273 . S
Cd128 O136 2.277 . S
O129 C126 1.160 . S
O129 Cd130 2.203 . S
Cd130 O129 2.203 . S
Cd130 O132 2.411 . S
Cd130 O133 2.333 . S
Cd130 O134 2.352 . S
Cd130 O138 2.277 . S
Cd130 O139 2.356 . S
C131 O136 1.209 . S
C131 O138 1.226 . S
O132 Cd128 2.273 . S
O132 Cd130 2.411 . S
O132 C135 1.320 . S
O133 Cd130 2.333 . S
O133 C135 1.214 . S
O134 Cd130 2.352 . S
O134 C137 1.258 . S
C135 O132 1.320 . S
C135 O133 1.214 . S
O136 Cd128 2.277 . S
O136 C131 1.209 . S
C137 O134 1.258 . S
C137 O139 1.282 . S
O138 Cd130 2.277 . S
O138 C131 1.226 . S
O139 Cd130 2.356 . S
O139 C137 1.282 . S
C140 O141 1.306 . S
C140 O143 1.160 . S
O141 C140 1.306 . S
O141 Cd142 2.228 . S
Cd142 O141 2.228 . S
Cd142 O146 2.273 . S
Cd142 O150 2.277 . S
O143 C140 1.160 . S
O143 Cd144 2.203 1_565 S
Cd144 O143 2.203 1_545 S
Cd144 O146 2.411 1_545 S
Cd144 O147 2.333 . S
Cd144 O148 2.352 . S
Cd144 O152 2.277 . S
Cd144 O153 2.356 . S
C145 O150 1.209 1_545 S
C145 O152 1.226 . S
O146 Cd142 2.273 . S
O146 Cd144 2.411 1_565 S
O146 C149 1.320 . S
O147 Cd144 2.333 . S
O147 C149 1.214 1_545 S
O148 Cd144 2.352 . S
O148 C151 1.258 . S
C149 O146 1.320 . S
C149 O147 1.214 1_565 S
O150 Cd142 2.277 . S
O150 C145 1.209 1_565 S
C151 O148 1.258 . S
C151 O153 1.282 . S
O152 Cd144 2.277 . S
O152 C145 1.226 . S
O153 Cd144 2.356 . S
O153 C151 1.282 . S
C154 O155 1.306 . S
C154 O157 1.160 . S
O155 C154 1.306 . S
O155 Cd156 2.228 1_554 S
Cd156 O155 2.228 1_556 S
Cd156 O160 2.273 . S
Cd156 O164 2.277 . S
O157 C154 1.160 . S
O157 Cd158 2.203 . S
Cd158 O157 2.203 . S
Cd158 O160 2.411 1_554 S
Cd158 O161 2.333 1_554 S
Cd158 O162 2.352 . S
Cd158 O166 2.277 1_554 S
Cd158 O167 2.356 . S
C159 O164 1.209 . S
C159 O166 1.226 . S
O160 Cd156 2.273 . S
O160 Cd158 2.411 1_556 S
O160 C163 1.320 . S
O161 Cd158 2.333 1_556 S
O161 C163 1.214 . S
O162 Cd158 2.352 . S
O162 C165 1.258 . S
C163 O160 1.320 . S
C163 O161 1.214 . S
O164 Cd156 2.277 . S
O164 C159 1.209 . S
C165 O162 1.258 . S
C165 O167 1.282 . S
O166 Cd158 2.277 1_556 S
O166 C159 1.226 . S
O167 Cd158 2.356 . S
O167 C165 1.282 . S
C168 O169 1.306 . S
C168 O171 1.160 . S
O169 C168 1.306 . S
O169 Cd170 2.228 . S
Cd170 O169 2.228 . S
Cd170 O174 2.273 . S
Cd170 O178 2.277 . S
O171 C168 1.160 . S
O171 Cd172 2.203 1_554 S
Cd172 O171 2.203 1_556 S
Cd172 O174 2.411 1_556 S
Cd172 O175 2.337 . S
Cd172 O176 2.349 1_556 S
Cd172 O180 2.277 . S
Cd172 O181 2.356 . S
C173 O178 1.209 1_556 S
C173 O180 1.226 . S
O174 Cd170 2.273 . S
O174 Cd172 2.411 1_554 S
O174 C177 1.320 . S
O175 Cd172 2.337 . S
O175 C177 1.174 1_556 S
O176 Cd172 2.349 1_554 S
O176 C179 1.236 1_554 S
C177 O174 1.320 . S
C177 O175 1.174 1_554 S
O178 Cd170 2.277 . S
O178 C173 1.209 1_554 S
C179 O176 1.236 1_556 S
C179 O181 1.282 . S
O180 Cd172 2.277 . S
O180 C173 1.226 . S
O181 Cd172 2.356 . S
O181 C179 1.282 . S
C182 O183 1.306 . S
C182 O185 1.160 . S
O183 C182 1.306 . S
O183 Cd184 2.228 . S
Cd184 O183 2.228 . S
Cd184 O188 2.273 . S
Cd184 O192 2.277 . S
O185 C182 1.160 . S
O185 Cd186 2.203 1_554 S
Cd186 O185 2.203 1_556 S
Cd186 O188 2.411 1_556 S
Cd186 O189 2.333 . S
Cd186 O190 2.352 . S
Cd186 O194 2.277 . S
Cd186 O195 2.356 . S
C187 O192 1.209 1_556 S
C187 O194 1.226 . S
O188 Cd184 2.273 . S
O188 Cd186 2.411 1_554 S
O188 C191 1.320 . S
O189 Cd186 2.333 . S
O189 C191 1.214 1_556 S
O190 Cd186 2.352 . S
O190 C193 1.258 . S
C191 O188 1.320 . S
C191 O189 1.214 1_554 S
O192 Cd184 2.277 . S
O192 C187 1.209 1_554 S
C193 O190 1.258 . S
C193 O195 1.282 . S
O194 Cd186 2.277 . S
O194 C187 1.226 . S
O195 Cd186 2.356 . S
O195 C193 1.282 . S
C196 O197 1.306 . S
C196 O199 1.160 . S
O197 C196 1.306 . S
O197 Cd198 2.228 . S
Cd198 O197 2.228 . S
Cd198 O202 2.273 . S
Cd198 O206 2.277 . S
O199 C196 1.160 . S
O199 Cd200 2.203 . S
Cd200 O199 2.203 . S
Cd200 O202 2.411 . S
Cd200 O203 2.333 . S
Cd200 O204 2.352 . S
Cd200 O208 2.277 . S
Cd200 O209 2.356 . S
C201 O206 1.209 . S
C201 O208 1.226 . S
O202 Cd198 2.273 . S
O202 Cd200 2.411 . S
O202 C205 1.320 . S
O203 Cd200 2.333 . S
O203 C205 1.214 . S
O204 Cd200 2.352 . S
O204 C207 1.258 . S
C205 O202 1.320 . S
C205 O203 1.214 . S
O206 Cd198 2.277 . S
O206 C201 1.209 . S
C207 O204 1.258 . S
C207 O209 1.282 . S
O208 Cd200 2.277 . S
O208 C201 1.226 . S
O209 Cd200 2.356 . S
O209 C207 1.282 . S
C210 O211 1.306 . S
C210 O213 1.160 . S
O211 C210 1.306 . S
O211 Cd212 2.228 . S
Cd212 O211 2.228 . S
Cd212 O216 2.273 . S
Cd212 O220 2.277 . S
O213 C210 1.160 . S
O213 Cd214 2.203 . S
Cd214 O213 2.203 . S
Cd214 O216 2.411 . S
Cd214 O217 2.333 . S
Cd214 O218 2.352 . S
Cd214 O222 2.277 . S
Cd214 O223 2.356 . S
C215 O220 1.209 . S
C215 O222 1.226 . S
O216 Cd212 2.273 . S
O216 Cd214 2.411 . S
O216 C219 1.320 . S
O217 Cd214 2.333 . S
O217 C219 1.214 . S
O218 Cd214 2.352 . S
O218 C221 1.258 . S
C219 O216 1.320 . S
C219 O217 1.214 . S
O220 Cd212 2.277 . S
O220 C215 1.209 . S
C221 O218 1.258 . S
C221 O223 1.282 . S
O222 Cd214 2.277 . S
O222 C215 1.226 . S
O223 Cd214 2.356 . S
O223 C221 1.282 . S
C224 O225 1.306 . S
C224 O227 1.160 . S
O225 C224 1.306 . S
O225 Cd226 2.228 1_545 S
Cd226 O225 2.228 1_565 S
Cd226 O230 2.273 . S
Cd226 O234 2.277 . S
O227 C224 1.160 . S
O227 Cd228 2.203 . S
Cd228 O227 2.203 . S
Cd228 O230 2.411 1_545 S
Cd228 O231 2.333 1_545 S
Cd228 O232 2.352 . S
Cd228 O236 2.277 1_545 S
Cd228 O237 2.356 . S
C229 O234 1.209 . S
C229 O236 1.226 . S
O230 Cd226 2.273 . S
O230 Cd228 2.411 1_565 S
O230 C233 1.320 . S
O231 Cd228 2.333 1_565 S
O231 C233 1.214 . S
O232 Cd228 2.352 . S
O232 C235 1.258 . S
C233 O230 1.320 . S
C233 O231 1.214 . S
O234 Cd226 2.277 . S
O234 C229 1.209 . S
C235 O232 1.258 . S
C235 O237 1.282 . S
O236 Cd228 2.277 1_565 S
O236 C229 1.226 . S
O237 Cd228 2.356 . S
O237 C235 1.282 . S
C238 O239 1.306 . S
C238 O241 1.160 . S
O239 C238 1.306 . S
O239 Cd240 2.228 . S
Cd240 O239 2.228 . S
Cd240 O244 2.273 . S
Cd240 O248 2.277 . S
O241 C238 1.160 . S
O241 Cd242 2.203 . S
Cd242 O241 2.203 . S
Cd242 O244 2.411 . S
Cd242 O245 2.333 . S
Cd242 O246 2.352 . S
Cd242 O250 2.277 . S
Cd242 O251 2.356 . S
C243 O248 1.209 . S
C243 O250 1.226 . S
O244 Cd240 2.273 . S
O244 Cd242 2.411 . S
O244 C247 1.320 . S
O245 Cd242 2.333 . S
O245 C247 1.214 . S
O246 Cd242 2.352 . S
O246 C249 1.258 . S
C247 O244 1.320 . S
C247 O245 1.214 . S
O248 Cd240 2.277 . S
O248 C243 1.209 . S
C249 O246 1.258 . S
C249 O251 1.282 . S
O250 Cd242 2.277 . S
O250 C243 1.226 . S
O251 Cd242 2.356 . S
O251 C249 1.282 . S
C252 O253 1.306 . S
C252 O255 1.160 . S
O253 C252 1.306 . S
O253 Cd254 2.228 . S
Cd254 O253 2.228 . S
Cd254 O258 2.273 . S
Cd254 O262 2.277 . S
O255 C252 1.160 . S
O255 Cd256 2.203 . S
Cd256 O255 2.203 . S
Cd256 O258 2.411 . S
Cd256 O259 2.333 . S
Cd256 O260 2.352 . S
Cd256 O264 2.277 . S
Cd256 O265 2.356 . S
C257 O262 1.209 . S
C257 O264 1.226 . S
O258 Cd254 2.273 . S
O258 Cd256 2.411 . S
O258 C261 1.320 . S
O259 Cd256 2.333 . S
O259 C261 1.214 . S
O260 Cd256 2.352 . S
O260 C263 1.258 . S
C261 O258 1.320 . S
C261 O259 1.214 . S
O262 Cd254 2.277 . S
O262 C257 1.209 . S
C263 O260 1.258 . S
C263 O265 1.282 . S
O264 Cd256 2.277 . S
O264 C257 1.226 . S
O265 Cd256 2.356 . S
O265 C263 1.282 . S
C266 O267 1.306 . S
C266 O269 1.160 . S
O267 C266 1.306 . S
O267 Cd268 2.228 1_545 S
Cd268 O267 2.228 1_565 S
Cd268 O272 2.273 . S
Cd268 O276 2.277 . S
O269 C266 1.160 . S
O269 Cd270 2.203 . S
Cd270 O269 2.203 . S
Cd270 O272 2.411 1_545 S
Cd270 O273 2.333 1_545 S
Cd270 O274 2.352 . S
Cd270 O278 2.277 1_545 S
Cd270 O279 2.356 . S
C271 O276 1.209 . S
C271 O278 1.226 . S
O272 Cd268 2.273 . S
O272 Cd270 2.411 1_565 S
O272 C275 1.320 . S
O273 Cd270 2.333 1_565 S
O273 C275 1.214 . S
O274 Cd270 2.352 . S
O274 C277 1.258 . S
C275 O272 1.320 . S
C275 O273 1.214 . S
O276 Cd268 2.277 . S
O276 C271 1.209 . S
C277 O274 1.258 . S
C277 O279 1.282 . S
O278 Cd270 2.277 1_565 S
O278 C271 1.226 . S
O279 Cd270 2.356 . S
O279 C277 1.282 . S
C280 O281 1.306 . S
C280 O283 1.160 . S
O281 C280 1.306 . S
O281 Cd282 2.228 1_554 S
Cd282 O281 2.228 1_556 S
Cd282 O286 2.273 . S
Cd282 O290 2.277 . S
O283 C280 1.160 . S
O283 Cd284 2.203 . S
Cd284 O283 2.203 . S
Cd284 O286 2.411 1_554 S
Cd284 O287 2.333 1_554 S
Cd284 O288 2.352 . S
Cd284 O292 2.277 1_554 S
Cd284 O293 2.356 . S
C285 O290 1.209 . S
C285 O292 1.226 . S
O286 Cd282 2.273 . S
O286 Cd284 2.411 1_556 S
O286 C289 1.320 . S
O287 Cd284 2.333 1_556 S
O287 C289 1.214 . S
O288 Cd284 2.352 . S
O288 C291 1.258 . S
C289 O286 1.320 . S
C289 O287 1.214 . S
O290 Cd282 2.277 . S
O290 C285 1.209 . S
C291 O288 1.258 . S
C291 O293 1.282 . S
O292 Cd284 2.277 1_556 S
O292 C285 1.226 . S
O293 Cd284 2.356 . S
O293 C291 1.282 . S
C294 O295 1.306 . S
C294 O297 1.160 . S
O295 C294 1.306 . S
O295 Cd296 2.228 . S
Cd296 O295 2.228 . S
Cd296 O300 2.273 . S
Cd296 O304 2.277 . S
O297 C294 1.160 . S
O297 Cd298 2.203 . S
Cd298 O297 2.203 . S
Cd298 O300 2.411 . S
Cd298 O301 2.333 . S
Cd298 O302 2.352 . S
Cd298 O306 2.277 . S
Cd298 O307 2.356 . S
C299 O304 1.209 . S
C299 O306 1.226 . S
O300 Cd296 2.273 . S
O300 Cd298 2.411 . S
O300 C303 1.320 . S
O301 Cd298 2.333 . S
O301 C303 1.214 . S
O302 Cd298 2.352 . S
O302 C305 1.258 . S
C303 O300 1.320 . S
C303 O301 1.214 . S
O304 Cd296 2.277 . S
O304 C299 1.209 . S
C305 O302 1.258 . S
C305 O307 1.282 . S
O306 Cd298 2.277 . S
O306 C299 1.226 . S
O307 Cd298 2.356 . S
O307 C305 1.282 . S
C308 O309 1.306 . S
C308 O311 1.160 . S
O309 C308 1.306 . S
O309 Cd310 2.228 . S
Cd310 O309 2.228 . S
Cd310 O314 2.273 . S
Cd310 O318 2.277 . S
O311 C308 1.160 . S
O311 Cd312 2.203 . S
Cd312 O311 2.203 . S
Cd312 O314 2.411 . S
Cd312 O315 2.333 . S
Cd312 O316 2.352 . S
Cd312 O320 2.277 . S
Cd312 O321 2.356 . S
C313 O318 1.209 . S
C313 O320 1.226 . S
O314 Cd310 2.273 . S
O314 Cd312 2.411 . S
O314 C317 1.320 . S
O315 Cd312 2.333 . S
O315 C317 1.214 . S
O316 Cd312 2.352 . S
O316 C319 1.258 . S
C317 O314 1.320 . S
C317 O315 1.214 . S
O318 Cd310 2.277 . S
O318 C313 1.209 . S
C319 O316 1.258 . S
C319 O321 1.282 . S
O320 Cd312 2.277 . S
O320 C313 1.226 . S
O321 Cd312 2.356 . S
O321 C319 1.282 . S
C322 O323 1.306 . S
C322 O325 1.160 . S
O323 C322 1.306 . S
O323 Cd324 2.228 . S
Cd324 O323 2.228 . S
Cd324 O328 2.273 . S
Cd324 O332 2.277 . S
O325 C322 1.160 . S
O325 Cd326 2.203 . S
Cd326 O325 2.203 . S
Cd326 O328 2.411 . S
Cd326 O329 2.333 . S
Cd326 O330 2.352 . S
Cd326 O334 2.277 . S
Cd326 O335 2.356 . S
C327 O332 1.209 . S
C327 O334 1.226 . S
O328 Cd324 2.273 . S
O328 Cd326 2.411 . S
O328 C331 1.320 . S
O329 Cd326 2.333 . S
O329 C331 1.214 . S
O330 Cd326 2.352 . S
O330 C333 1.258 . S
C331 O328 1.320 . S
C331 O329 1.214 . S
O332 Cd324 2.277 . S
O332 C327 1.209 . S
C333 O330 1.258 . S
C333 O335 1.282 . S
O334 Cd326 2.277 . S
O334 C327 1.226 . S
O335 Cd326 2.356 . S
O335 C333 1.282 . S
Fe336 O338 1.918 . S
Fe336 O341 1.997 . S
Fe336 O342 2.002 . S
Fe336 O347 1.976 . S
Fe336 O350 1.996 . S
Fe337 O338 1.918 . S
Fe337 O345 1.997 . S
Fe337 O348 1.996 . S
Fe337 O352 1.976 . S
Fe337 O355 2.002 . S
O338 Fe336 1.918 . S
O338 Fe337 1.918 . S
O338 Fe339 1.918 . S
Fe339 O338 1.918 . S
Fe339 O340 2.002 . S
Fe339 O349 1.976 . S
Fe339 O353 1.996 . S
Fe339 O356 1.997 . S
O340 Fe339 2.002 . S
O340 C357 1.295 . S
O341 Fe336 1.997 . S
O341 C357 1.235 . S
O342 Fe336 2.002 . S
O342 C343 1.295 . S
C343 O342 1.295 . S
C343 O345 1.235 . S
C344 O349 1.287 . S
C344 O350 1.255 . S
O345 Fe337 1.997 . S
O345 C343 1.235 . S
C346 O352 1.287 . S
C346 O353 1.255 . S
O347 Fe336 1.976 . S
O347 C354 1.287 . S
O348 Fe337 1.996 . S
O348 C354 1.255 . S
O349 Fe339 1.976 . S
O349 C344 1.287 . S
O350 Fe336 1.996 . S
O350 C344 1.255 . S
C351 O355 1.295 . S
C351 O356 1.235 . S
O352 Fe337 1.976 . S
O352 C346 1.287 . S
O353 Fe339 1.996 . S
O353 C346 1.255 . S
C354 O347 1.287 . S
C354 O348 1.255 . S
O355 Fe337 2.002 . S
O355 C351 1.295 . S
O356 Fe339 1.997 . S
O356 C351 1.235 . S
C357 O340 1.295 . S
C357 O341 1.235 . S
Fe358 O360 1.918 . S
Fe358 O363 1.997 . S
Fe358 O364 2.002 . S
Fe358 O369 1.976 . S
Fe358 O372 1.996 . S
Fe359 O360 1.918 . S
Fe359 O367 1.997 . S
Fe359 O370 1.996 . S
Fe359 O374 1.976 . S
Fe359 O377 2.002 . S
O360 Fe358 1.918 . S
O360 Fe359 1.918 . S
O360 Fe361 1.918 . S
Fe361 O360 1.918 . S
Fe361 O362 2.002 . S
Fe361 O371 1.976 . S
Fe361 O375 1.996 . S
Fe361 O378 1.997 . S
O362 Fe361 2.002 . S
O362 C379 1.295 . S
O363 Fe358 1.997 . S
O363 C379 1.235 . S
O364 Fe358 2.002 . S
O364 C365 1.295 . S
C365 O364 1.295 . S
C365 O367 1.235 . S
C366 O371 1.287 . S
C366 O372 1.255 . S
O367 Fe359 1.997 . S
O367 C365 1.235 . S
C368 O374 1.287 . S
C368 O375 1.255 . S
O369 Fe358 1.976 . S
O369 C376 1.287 . S
O370 Fe359 1.996 . S
O370 C376 1.255 . S
O371 Fe361 1.976 . S
O371 C366 1.287 . S
O372 Fe358 1.996 . S
O372 C366 1.255 . S
C373 O377 1.295 . S
C373 O378 1.235 . S
O374 Fe359 1.976 . S
O374 C368 1.287 . S
O375 Fe361 1.996 . S
O375 C368 1.255 . S
C376 O369 1.287 . S
C376 O370 1.255 . S
O377 Fe359 2.002 . S
O377 C373 1.295 . S
O378 Fe361 1.997 . S
O378 C373 1.235 . S
C379 O362 1.295 . S
C379 O363 1.235 . S
Fe380 O382 1.918 . S
Fe380 O385 1.997 . S
Fe380 O386 2.002 . S
Fe380 O391 1.976 . S
Fe380 O394 1.996 . S
Fe381 O382 1.918 . S
Fe381 O389 1.997 . S
Fe381 O392 1.996 . S
Fe381 O396 1.976 . S
Fe381 O399 2.002 . S
O382 Fe380 1.918 . S
O382 Fe381 1.918 . S
O382 Fe383 1.918 . S
Fe383 O382 1.918 . S
Fe383 O384 2.002 . S
Fe383 O393 1.976 . S
Fe383 O397 1.996 . S
Fe383 O400 1.997 . S
O384 Fe383 2.002 . S
O384 C401 1.295 . S
O385 Fe380 1.997 . S
O385 C401 1.235 . S
O386 Fe380 2.002 . S
O386 C387 1.295 . S
C387 O386 1.295 . S
C387 O389 1.235 . S
C388 O393 1.287 . S
C388 O394 1.255 . S
O389 Fe381 1.997 . S
O389 C387 1.235 . S
C390 O396 1.287 . S
C390 O397 1.255 . S
O391 Fe380 1.976 . S
O391 C398 1.287 . S
O392 Fe381 1.996 . S
O392 C398 1.255 . S
O393 Fe383 1.976 . S
O393 C388 1.287 . S
O394 Fe380 1.996 . S
O394 C388 1.255 . S
C395 O399 1.295 . S
C395 O400 1.235 . S
O396 Fe381 1.976 . S
O396 C390 1.287 . S
O397 Fe383 1.996 . S
O397 C390 1.255 . S
C398 O391 1.287 . S
C398 O392 1.255 . S
O399 Fe381 2.002 . S
O399 C395 1.295 . S
O400 Fe383 1.997 . S
O400 C395 1.235 . S
C401 O384 1.295 . S
C401 O385 1.235 . S
Fe402 O404 1.918 . S
Fe402 O407 1.997 . S
Fe402 O408 2.002 . S
Fe402 O413 1.976 . S
Fe402 O416 1.996 . S
Fe403 O404 1.918 . S
Fe403 O411 1.997 . S
Fe403 O414 1.996 . S
Fe403 O418 1.976 . S
Fe403 O421 2.002 . S
O404 Fe402 1.918 . S
O404 Fe403 1.918 . S
O404 Fe405 1.918 . S
Fe405 O404 1.918 . S
Fe405 O406 2.002 . S
Fe405 O415 1.976 . S
Fe405 O419 1.996 . S
Fe405 O422 1.997 . S
O406 Fe405 2.002 . S
O406 C423 1.295 . S
O407 Fe402 1.997 . S
O407 C423 1.235 . S
O408 Fe402 2.002 . S
O408 C409 1.295 . S
C409 O408 1.295 . S
C409 O411 1.235 . S
C410 O415 1.287 . S
C410 O416 1.255 . S
O411 Fe403 1.997 . S
O411 C409 1.235 . S
C412 O418 1.287 . S
C412 O419 1.255 . S
O413 Fe402 1.976 . S
O413 C420 1.287 . S
O414 Fe403 1.996 . S
O414 C420 1.255 . S
O415 Fe405 1.976 . S
O415 C410 1.287 . S
O416 Fe402 1.996 . S
O416 C410 1.255 . S
C417 O421 1.295 . S
C417 O422 1.235 . S
O418 Fe403 1.976 . S
O418 C412 1.287 . S
O419 Fe405 1.996 . S
O419 C412 1.255 . S
C420 O413 1.287 . S
C420 O414 1.255 . S
O421 Fe403 2.002 . S
O421 C417 1.295 . S
O422 Fe405 1.997 . S
O422 C417 1.235 . S
C423 O406 1.295 . S
C423 O407 1.235 . S
Fe424 O426 1.918 . S
Fe424 O429 1.997 . S
Fe424 O430 2.002 . S
Fe424 O435 1.976 . S
Fe424 O438 1.996 . S
Fe425 O426 1.918 . S
Fe425 O433 1.997 . S
Fe425 O436 1.996 . S
Fe425 O440 1.976 . S
Fe425 O443 2.002 . S
O426 Fe424 1.918 . S
O426 Fe425 1.918 . S
O426 Fe427 1.918 . S
Fe427 O426 1.918 . S
Fe427 O428 2.002 . S
Fe427 O437 1.976 . S
Fe427 O441 1.996 . S
Fe427 O444 1.997 . S
O428 Fe427 2.002 . S
O428 C445 1.295 . S
O429 Fe424 1.997 . S
O429 C445 1.235 . S
O430 Fe424 2.002 . S
O430 C431 1.295 . S
C431 O430 1.295 . S
C431 O433 1.235 . S
C432 O437 1.287 . S
C432 O438 1.255 . S
O433 Fe425 1.997 . S
O433 C431 1.235 . S
C434 O440 1.287 . S
C434 O441 1.255 . S
O435 Fe424 1.976 . S
O435 C442 1.287 . S
O436 Fe425 1.996 . S
O436 C442 1.255 . S
O437 Fe427 1.976 . S
O437 C432 1.287 . S
O438 Fe424 1.996 . S
O438 C432 1.255 . S
C439 O443 1.295 . S
C439 O444 1.235 . S
O440 Fe425 1.976 . S
O440 C434 1.287 . S
O441 Fe427 1.996 . S
O441 C434 1.255 . S
C442 O435 1.287 . S
C442 O436 1.255 . S
O443 Fe425 2.002 . S
O443 C439 1.295 . S
O444 Fe427 1.997 . S
O444 C439 1.235 . S
C445 O428 1.295 . S
C445 O429 1.235 . S
Fe446 O448 1.918 . S
Fe446 O451 1.997 . S
Fe446 O452 2.002 . S
Fe446 O457 1.976 . S
Fe446 O460 1.996 . S
Fe447 O448 1.918 . S
Fe447 O455 1.997 . S
Fe447 O458 1.996 . S
Fe447 O462 1.976 . S
Fe447 O465 2.002 . S
O448 Fe446 1.918 . S
O448 Fe447 1.918 . S
O448 Fe449 1.918 . S
Fe449 O448 1.918 . S
Fe449 O450 2.002 . S
Fe449 O459 1.976 . S
Fe449 O463 1.996 . S
Fe449 O466 1.997 . S
O450 Fe449 2.002 . S
O450 C467 1.295 . S
O451 Fe446 1.997 . S
O451 C467 1.235 . S
O452 Fe446 2.002 . S
O452 C453 1.295 . S
C453 O452 1.295 . S
C453 O455 1.235 . S
C454 O459 1.287 . S
C454 O460 1.255 . S
O455 Fe447 1.997 . S
O455 C453 1.235 . S
C456 O462 1.287 . S
C456 O463 1.255 . S
O457 Fe446 1.976 . S
O457 C464 1.287 . S
O458 Fe447 1.996 . S
O458 C464 1.255 . S
O459 Fe449 1.976 . S
O459 C454 1.287 . S
O460 Fe446 1.996 . S
O460 C454 1.255 . S
C461 O465 1.295 . S
C461 O466 1.235 . S
O462 Fe447 1.976 . S
O462 C456 1.287 . S
O463 Fe449 1.996 . S
O463 C456 1.255 . S
C464 O457 1.287 . S
C464 O458 1.255 . S
O465 Fe447 2.002 . S
O465 C461 1.295 . S
O466 Fe449 1.997 . S
O466 C461 1.235 . S
C467 O450 1.295 . S
C467 O451 1.235 . S
Fe468 O470 1.918 . S
Fe468 O473 1.997 . S
Fe468 O474 2.002 . S
Fe468 O479 1.976 . S
Fe468 O482 1.996 . S
Fe469 O470 1.918 . S
Fe469 O477 1.997 . S
Fe469 O480 1.996 . S
Fe469 O484 1.976 . S
Fe469 O487 2.002 . S
O470 Fe468 1.918 . S
O470 Fe469 1.918 . S
O470 Fe471 1.918 . S
Fe471 O470 1.918 . S
Fe471 O472 2.002 . S
Fe471 O481 1.976 . S
Fe471 O485 1.996 . S
Fe471 O488 1.997 . S
O472 Fe471 2.002 . S
O472 C489 1.295 . S
O473 Fe468 1.997 . S
O473 C489 1.235 . S
O474 Fe468 2.002 . S
O474 C475 1.295 . S
C475 O474 1.295 . S
C475 O477 1.235 . S
C476 O481 1.287 . S
C476 O482 1.255 . S
O477 Fe469 1.997 . S
O477 C475 1.235 . S
C478 O484 1.287 . S
C478 O485 1.255 . S
O479 Fe468 1.976 . S
O479 C486 1.287 . S
O480 Fe469 1.996 . S
O480 C486 1.255 . S
O481 Fe471 1.976 . S
O481 C476 1.287 . S
O482 Fe468 1.996 . S
O482 C476 1.255 . S
C483 O487 1.295 . S
C483 O488 1.235 . S
O484 Fe469 1.976 . S
O484 C478 1.287 . S
O485 Fe471 1.996 . S
O485 C478 1.255 . S
C486 O479 1.287 . S
C486 O480 1.255 . S
O487 Fe469 2.002 . S
O487 C483 1.295 . S
O488 Fe471 1.997 . S
O488 C483 1.235 . S
C489 O472 1.295 . S
C489 O473 1.235 . S
Fe490 O492 1.918 . S
Fe490 O495 1.997 . S
Fe490 O496 2.002 . S
Fe490 O501 1.976 . S
Fe490 O504 1.996 . S
Fe491 O492 1.918 . S
Fe491 O499 1.997 . S
Fe491 O502 1.996 . S
Fe491 O506 1.976 . S
Fe491 O509 2.002 . S
O492 Fe490 1.918 . S
O492 Fe491 1.918 . S
O492 Fe493 1.918 . S
Fe493 O492 1.918 . S
Fe493 O494 2.002 . S
Fe493 O503 1.976 . S
Fe493 O507 1.996 . S
Fe493 O510 1.997 . S
O494 Fe493 2.002 . S
O494 C511 1.295 . S
O495 Fe490 1.997 . S
O495 C511 1.235 . S
O496 Fe490 2.002 . S
O496 C497 1.295 . S
C497 O496 1.295 . S
C497 O499 1.235 . S
C498 O503 1.287 . S
C498 O504 1.255 . S
O499 Fe491 1.997 . S
O499 C497 1.235 . S
C500 O506 1.287 . S
C500 O507 1.255 . S
O501 Fe490 1.976 . S
O501 C508 1.287 . S
O502 Fe491 1.996 . S
O502 C508 1.255 . S
O503 Fe493 1.976 . S
O503 C498 1.287 . S
O504 Fe490 1.996 . S
O504 C498 1.255 . S
C505 O509 1.295 . S
C505 O510 1.235 . S
O506 Fe491 1.976 . S
O506 C500 1.287 . S
O507 Fe493 1.996 . S
O507 C500 1.255 . S
C508 O501 1.287 . S
C508 O502 1.255 . S
O509 Fe491 2.002 . S
O509 C505 1.295 . S
O510 Fe493 1.997 . S
O510 C505 1.235 . S
C511 O494 1.295 . S
C511 O495 1.235 . S
Fe512 O514 1.918 . S
Fe512 O517 1.997 . S
Fe512 O518 2.002 . S
Fe512 O523 1.976 . S
Fe512 O526 1.996 . S
Fe513 O514 1.918 . S
Fe513 O521 1.997 . S
Fe513 O524 1.996 . S
Fe513 O528 1.976 . S
Fe513 O531 2.002 . S
O514 Fe512 1.918 . S
O514 Fe513 1.918 . S
O514 Fe515 1.918 . S
Fe515 O514 1.918 . S
Fe515 O516 2.002 . S
Fe515 O525 1.976 . S
Fe515 O529 1.996 . S
Fe515 O532 1.997 . S
O516 Fe515 2.002 . S
O516 C533 1.295 . S
O517 Fe512 1.997 . S
O517 C533 1.235 . S
O518 Fe512 2.002 . S
O518 C519 1.295 . S
C519 O518 1.295 . S
C519 O521 1.235 . S
C520 O525 1.287 . S
C520 O526 1.255 . S
O521 Fe513 1.997 . S
O521 C519 1.235 . S
C522 O528 1.287 . S
C522 O529 1.255 . S
O523 Fe512 1.976 . S
O523 C530 1.287 . S
O524 Fe513 1.996 . S
O524 C530 1.255 . S
O525 Fe515 1.976 . S
O525 C520 1.287 . S
O526 Fe512 1.996 . S
O526 C520 1.255 . S
C527 O531 1.295 . S
C527 O532 1.235 . S
O528 Fe513 1.976 . S
O528 C522 1.287 . S
O529 Fe515 1.996 . S
O529 C522 1.255 . S
C530 O523 1.287 . S
C530 O524 1.255 . S
O531 Fe513 2.002 . S
O531 C527 1.295 . S
O532 Fe515 1.997 . S
O532 C527 1.235 . S
C533 O516 1.295 . S
C533 O517 1.235 . S
Fe534 O536 1.918 . S
Fe534 O539 1.997 . S
Fe534 O540 2.002 . S
Fe534 O545 1.976 . S
Fe534 O548 1.996 . S
Fe535 O536 1.918 . S
Fe535 O543 1.997 . S
Fe535 O546 1.996 . S
Fe535 O550 1.976 . S
Fe535 O553 2.002 . S
O536 Fe534 1.918 . S
O536 Fe535 1.918 . S
O536 Fe537 1.918 . S
Fe537 O536 1.918 . S
Fe537 O538 2.002 . S
Fe537 O547 1.976 . S
Fe537 O551 1.996 . S
Fe537 O554 1.997 . S
O538 Fe537 2.002 . S
O538 C555 1.295 . S
O539 Fe534 1.997 . S
O539 C555 1.235 . S
O540 Fe534 2.002 . S
O540 C541 1.295 . S
C541 O540 1.295 . S
C541 O543 1.235 . S
C542 O547 1.287 . S
C542 O548 1.255 . S
O543 Fe535 1.997 . S
O543 C541 1.235 . S
C544 O550 1.287 . S
C544 O551 1.255 . S
O545 Fe534 1.976 . S
O545 C552 1.287 . S
O546 Fe535 1.996 . S
O546 C552 1.255 . S
O547 Fe537 1.976 . S
O547 C542 1.287 . S
O548 Fe534 1.996 . S
O548 C542 1.255 . S
C549 O553 1.295 . S
C549 O554 1.235 . S
O550 Fe535 1.976 . S
O550 C544 1.287 . S
O551 Fe537 1.996 . S
O551 C544 1.255 . S
C552 O545 1.287 . S
C552 O546 1.255 . S
O553 Fe535 2.002 . S
O553 C549 1.295 . S
O554 Fe537 1.997 . S
O554 C549 1.235 . S
C555 O538 1.295 . S
C555 O539 1.235 . S
Fe556 O558 1.918 . S
Fe556 O561 1.997 . S
Fe556 O562 2.002 . S
Fe556 O567 1.976 . S
Fe556 O570 1.996 . S
Fe557 O558 1.918 . S
Fe557 O565 1.997 . S
Fe557 O568 1.996 . S
Fe557 O572 1.976 . S
Fe557 O575 2.002 . S
O558 Fe556 1.918 . S
O558 Fe557 1.918 . S
O558 Fe559 1.918 . S
Fe559 O558 1.918 . S
Fe559 O560 2.002 . S
Fe559 O569 1.976 . S
Fe559 O573 1.996 . S
Fe559 O576 1.997 . S
O560 Fe559 2.002 . S
O560 C577 1.295 . S
O561 Fe556 1.997 . S
O561 C577 1.235 . S
O562 Fe556 2.002 . S
O562 C563 1.295 . S
C563 O562 1.295 . S
C563 O565 1.235 . S
C564 O569 1.287 . S
C564 O570 1.255 . S
O565 Fe557 1.997 . S
O565 C563 1.235 . S
C566 O572 1.287 . S
C566 O573 1.255 . S
O567 Fe556 1.976 . S
O567 C574 1.287 . S
O568 Fe557 1.996 . S
O568 C574 1.255 . S
O569 Fe559 1.976 . S
O569 C564 1.287 . S
O570 Fe556 1.996 . S
O570 C564 1.255 . S
C571 O575 1.295 . S
C571 O576 1.235 . S
O572 Fe557 1.976 . S
O572 C566 1.287 . S
O573 Fe559 1.996 . S
O573 C566 1.255 . S
C574 O567 1.287 . S
C574 O568 1.255 . S
O575 Fe557 2.002 . S
O575 C571 1.295 . S
O576 Fe559 1.997 . S
O576 C571 1.235 . S
C577 O560 1.295 . S
C577 O561 1.235 . S
Fe578 O580 1.918 . S
Fe578 O583 1.997 . S
Fe578 O584 2.002 . S
Fe578 O589 1.976 . S
Fe578 O592 1.996 . S
Fe579 O580 1.918 . S
Fe579 O587 1.997 . S
Fe579 O590 1.996 . S
Fe579 O594 1.976 . S
Fe579 O597 2.002 . S
O580 Fe578 1.918 . S
O580 Fe579 1.918 . S
O580 Fe581 1.918 . S
Fe581 O580 1.918 . S
Fe581 O582 2.002 . S
Fe581 O591 1.976 . S
Fe581 O595 1.996 . S
Fe581 O598 1.997 . S
O582 Fe581 2.002 . S
O582 C599 1.295 . S
O583 Fe578 1.997 . S
O583 C599 1.235 . S
O584 Fe578 2.002 . S
O584 C585 1.295 . S
C585 O584 1.295 . S
C585 O587 1.235 . S
C586 O591 1.287 . S
C586 O592 1.255 . S
O587 Fe579 1.997 . S
O587 C585 1.235 . S
C588 O594 1.287 . S
C588 O595 1.255 . S
O589 Fe578 1.976 . S
O589 C596 1.287 . S
O590 Fe579 1.996 . S
O590 C596 1.255 . S
O591 Fe581 1.976 . S
O591 C586 1.287 . S
O592 Fe578 1.996 . S
O592 C586 1.255 . S
C593 O597 1.295 . S
C593 O598 1.235 . S
O594 Fe579 1.976 . S
O594 C588 1.287 . S
O595 Fe581 1.996 . S
O595 C588 1.255 . S
C596 O589 1.287 . S
C596 O590 1.255 . S
O597 Fe579 2.002 . S
O597 C593 1.295 . S
O598 Fe581 1.997 . S
O598 C593 1.235 . S
C599 O582 1.295 . S
C599 O583 1.235 . S
Fe600 O602 1.918 . S
Fe600 O605 1.997 . S
Fe600 O606 2.002 . S
Fe600 O611 1.976 . S
Fe600 O614 1.996 . S
Fe601 O602 1.918 . S
Fe601 O609 1.997 . S
Fe601 O612 1.996 . S
Fe601 O616 1.976 . S
Fe601 O619 2.002 . S
O602 Fe600 1.918 . S
O602 Fe601 1.918 . S
O602 Fe603 1.918 . S
Fe603 O602 1.918 . S
Fe603 O604 2.002 . S
Fe603 O613 1.976 . S
Fe603 O617 1.996 . S
Fe603 O620 1.997 . S
O604 Fe603 2.002 . S
O604 C621 1.295 . S
O605 Fe600 1.997 . S
O605 C621 1.235 . S
O606 Fe600 2.002 . S
O606 C607 1.295 . S
C607 O606 1.295 . S
C607 O609 1.235 . S
C608 O613 1.287 . S
C608 O614 1.255 . S
O609 Fe601 1.997 . S
O609 C607 1.235 . S
C610 O616 1.287 . S
C610 O617 1.255 . S
O611 Fe600 1.976 . S
O611 C618 1.287 . S
O612 Fe601 1.996 . S
O612 C618 1.255 . S
O613 Fe603 1.976 . S
O613 C608 1.287 . S
O614 Fe600 1.996 . S
O614 C608 1.255 . S
C615 O619 1.295 . S
C615 O620 1.235 . S
O616 Fe601 1.976 . S
O616 C610 1.287 . S
O617 Fe603 1.996 . S
O617 C610 1.255 . S
C618 O611 1.287 . S
C618 O612 1.255 . S
O619 Fe601 2.002 . S
O619 C615 1.295 . S
O620 Fe603 1.997 . S
O620 C615 1.235 . S
C621 O604 1.295 . S
C621 O605 1.235 . S
Fe622 O624 1.918 . S
Fe622 O627 1.997 . S
Fe622 O628 2.002 . S
Fe622 O633 1.976 . S
Fe622 O636 1.996 . S
Fe623 O624 1.918 . S
Fe623 O631 1.997 . S
Fe623 O634 1.996 . S
Fe623 O638 1.976 . S
Fe623 O641 2.002 . S
O624 Fe622 1.918 . S
O624 Fe623 1.918 . S
O624 Fe625 1.918 . S
Fe625 O624 1.918 . S
Fe625 O626 2.002 . S
Fe625 O635 1.976 . S
Fe625 O639 1.996 . S
Fe625 O642 1.997 . S
O626 Fe625 2.002 . S
O626 C643 1.295 . S
O627 Fe622 1.997 . S
O627 C643 1.235 . S
O628 Fe622 2.002 . S
O628 C629 1.295 . S
C629 O628 1.295 . S
C629 O631 1.235 . S
C630 O635 1.287 . S
C630 O636 1.255 . S
O631 Fe623 1.997 . S
O631 C629 1.235 . S
C632 O638 1.287 . S
C632 O639 1.255 . S
O633 Fe622 1.976 . S
O633 C640 1.287 . S
O634 Fe623 1.996 . S
O634 C640 1.255 . S
O635 Fe625 1.976 . S
O635 C630 1.287 . S
O636 Fe622 1.996 . S
O636 C630 1.255 . S
C637 O641 1.295 . S
C637 O642 1.235 . S
O638 Fe623 1.976 . S
O638 C632 1.287 . S
O639 Fe625 1.996 . S
O639 C632 1.255 . S
C640 O633 1.287 . S
C640 O634 1.255 . S
O641 Fe623 2.002 . S
O641 C637 1.295 . S
O642 Fe625 1.997 . S
O642 C637 1.235 . S
C643 O626 1.295 . S
C643 O627 1.235 . S
Fe644 O646 1.918 . S
Fe644 O649 1.997 . S
Fe644 O650 2.002 . S
Fe644 O655 1.976 . S
Fe644 O658 1.996 . S
Fe645 O646 1.918 . S
Fe645 O653 1.997 . S
Fe645 O656 1.996 . S
Fe645 O660 1.976 . S
Fe645 O663 2.002 . S
O646 Fe644 1.918 . S
O646 Fe645 1.918 . S
O646 Fe647 1.918 . S
Fe647 O646 1.918 . S
Fe647 O648 2.002 . S
Fe647 O657 1.976 . S
Fe647 O661 1.996 . S
Fe647 O664 1.997 . S
O648 Fe647 2.002 . S
O648 C665 1.295 . S
O649 Fe644 1.997 . S
O649 C665 1.235 . S
O650 Fe644 2.002 . S
O650 C651 1.295 . S
C651 O650 1.295 . S
C651 O653 1.235 . S
C652 O657 1.287 . S
C652 O658 1.255 . S
O653 Fe645 1.997 . S
O653 C651 1.235 . S
C654 O660 1.287 . S
C654 O661 1.255 . S
O655 Fe644 1.976 . S
O655 C662 1.287 . S
O656 Fe645 1.996 . S
O656 C662 1.255 . S
O657 Fe647 1.976 . S
O657 C652 1.287 . S
O658 Fe644 1.996 . S
O658 C652 1.255 . S
C659 O663 1.295 . S
C659 O664 1.235 . S
O660 Fe645 1.976 . S
O660 C654 1.287 . S
O661 Fe647 1.996 . S
O661 C654 1.255 . S
C662 O655 1.287 . S
C662 O656 1.255 . S
O663 Fe645 2.002 . S
O663 C659 1.295 . S
O664 Fe647 1.997 . S
O664 C659 1.235 . S
C665 O648 1.295 . S
C665 O649 1.235 . S
Fe666 O668 1.918 . S
Fe666 O671 1.997 . S
Fe666 O672 2.002 . S
Fe666 O677 1.976 . S
Fe666 O680 1.996 . S
Fe667 O668 1.918 . S
Fe667 O675 1.997 . S
Fe667 O678 1.996 . S
Fe667 O682 1.976 . S
Fe667 O685 2.002 . S
O668 Fe666 1.918 . S
O668 Fe667 1.918 . S
O668 Fe669 1.918 . S
Fe669 O668 1.918 . S
Fe669 O670 2.002 . S
Fe669 O679 1.976 . S
Fe669 O683 1.996 . S
Fe669 O686 1.997 . S
O670 Fe669 2.002 . S
O670 C687 1.295 . S
O671 Fe666 1.997 . S
O671 C687 1.235 . S
O672 Fe666 2.002 . S
O672 C673 1.295 . S
C673 O672 1.295 . S
C673 O675 1.235 . S
C674 O679 1.287 . S
C674 O680 1.255 . S
O675 Fe667 1.997 . S
O675 C673 1.235 . S
C676 O682 1.287 . S
C676 O683 1.255 . S
O677 Fe666 1.976 . S
O677 C684 1.287 . S
O678 Fe667 1.996 . S
O678 C684 1.255 . S
O679 Fe669 1.976 . S
O679 C674 1.287 . S
O680 Fe666 1.996 . S
O680 C674 1.255 . S
C681 O685 1.295 . S
C681 O686 1.235 . S
O682 Fe667 1.976 . S
O682 C676 1.287 . S
O683 Fe669 1.996 . S
O683 C676 1.255 . S
C684 O677 1.287 . S
C684 O678 1.255 . S
O685 Fe667 2.002 . S
O685 C681 1.295 . S
O686 Fe669 1.997 . S
O686 C681 1.235 . S
C687 O670 1.295 . S
C687 O671 1.235 . S
H688 C696 0.950 . S
H689 C701 0.950 . S
H690 C698 0.950 . S
H691 C700 0.950 . S
H692 C702 0.950 . S
H693 C704 0.950 . S
H694 C706 0.950 . S
H695 C707 0.950 . S
C696 H688 0.950 . S
C696 C697 1.386 . S
C696 C698 1.391 . S
C697 C696 1.386 . S
C697 C701 1.393 . S
C698 H690 0.950 . S
C698 C696 1.391 . S
C698 C699 1.400 . S
C699 C698 1.400 . S
C699 C700 1.398 . S
C699 C705 1.491 . S
C700 H691 0.950 . S
C700 C699 1.398 . S
C700 C701 1.391 . S
C701 H689 0.950 . S
C701 C697 1.393 . S
C701 C700 1.391 . S
C702 H692 0.950 . S
C702 C703 1.386 . S
C702 C704 1.391 . S
C703 C702 1.386 . S
C703 C707 1.393 . S
C704 H693 0.950 . S
C704 C702 1.391 . S
C704 C705 1.400 . S
C705 C699 1.491 . S
C705 C704 1.400 . S
C705 C706 1.398 . S
C706 H694 0.950 . S
C706 C705 1.398 . S
C706 C707 1.391 . S
C707 H695 0.950 . S
C707 C703 1.393 . S
C707 C706 1.391 . S
H708 C716 0.950 . S
H709 C721 0.950 . S
H710 C718 0.950 . S
H711 C720 0.950 . S
H712 C722 0.950 . S
H713 C724 0.950 . S
H714 C726 0.950 . S
H715 C727 0.950 . S
C716 H708 0.950 . S
C716 C717 1.386 . S
C716 C718 1.391 . S
C717 C716 1.386 . S
C717 C721 1.393 . S
C718 H710 0.950 . S
C718 C716 1.391 . S
C718 C719 1.400 . S
C719 C718 1.400 . S
C719 C720 1.398 . S
C719 C725 1.491 . S
C720 H711 0.950 . S
C720 C719 1.398 . S
C720 C721 1.391 . S
C721 H709 0.950 . S
C721 C717 1.393 . S
C721 C720 1.391 . S
C722 H712 0.950 . S
C722 C723 1.386 . S
C722 C724 1.391 . S
C723 C722 1.386 . S
C723 C727 1.393 . S
C724 H713 0.950 . S
C724 C722 1.391 . S
C724 C725 1.400 . S
C725 C719 1.491 . S
C725 C724 1.400 . S
C725 C726 1.398 . S
C726 H714 0.950 . S
C726 C725 1.398 . S
C726 C727 1.391 . S
C727 H715 0.950 . S
C727 C723 1.393 . S
C727 C726 1.391 . S
H728 C736 0.950 . S
H729 C741 0.950 . S
H730 C738 0.950 . S
H731 C740 0.950 . S
H732 C742 0.950 . S
H733 C744 0.950 . S
H734 C746 0.950 . S
H735 C747 0.950 . S
C736 H728 0.950 . S
C736 C737 1.386 . S
C736 C738 1.391 . S
C737 C736 1.386 . S
C737 C741 1.393 . S
C738 H730 0.950 . S
C738 C736 1.391 . S
C738 C739 1.400 . S
C739 C738 1.400 . S
C739 C740 1.398 . S
C739 C745 1.491 . S
C740 H731 0.950 . S
C740 C739 1.398 . S
C740 C741 1.391 . S
C741 H729 0.950 . S
C741 C737 1.393 . S
C741 C740 1.391 . S
C742 H732 0.950 . S
C742 C743 1.386 . S
C742 C744 1.391 . S
C743 C742 1.386 . S
C743 C747 1.393 . S
C744 H733 0.950 . S
C744 C742 1.391 . S
C744 C745 1.400 . S
C745 C739 1.491 . S
C745 C744 1.400 . S
C745 C746 1.398 . S
C746 H734 0.950 . S
C746 C745 1.398 . S
C746 C747 1.391 . S
C747 H735 0.950 . S
C747 C743 1.393 . S
C747 C746 1.391 . S
H748 C756 0.950 . S
H749 C761 0.950 . S
H750 C758 0.950 . S
H751 C760 0.950 . S
H752 C762 0.950 . S
H753 C764 0.950 . S
H754 C766 0.950 . S
H755 C767 0.950 . S
C756 H748 0.950 . S
C756 C757 1.386 . S
C756 C758 1.391 . S
C757 C756 1.386 . S
C757 C761 1.393 . S
C758 H750 0.950 . S
C758 C756 1.391 . S
C758 C759 1.400 . S
C759 C758 1.400 . S
C759 C760 1.398 . S
C759 C765 1.491 . S
C760 H751 0.950 . S
C760 C759 1.398 . S
C760 C761 1.391 . S
C761 H749 0.950 . S
C761 C757 1.393 . S
C761 C760 1.391 . S
C762 H752 0.950 . S
C762 C763 1.386 . S
C762 C764 1.391 1_556 S
C763 C762 1.386 . S
C763 C767 1.393 . S
C764 H753 0.950 . S
C764 C762 1.391 1_554 S
C764 C765 1.400 . S
C765 C759 1.491 . S
C765 C764 1.400 . S
C765 C766 1.398 1_554 S
C766 H754 0.950 . S
C766 C765 1.398 1_556 S
C766 C767 1.391 . S
C767 H755 0.950 . S
C767 C763 1.393 . S
C767 C766 1.391 . S
H768 C776 0.950 . S
H769 C781 0.950 . S
H770 C778 0.950 . S
H771 C780 0.950 . S
H772 C782 0.950 . S
H773 C784 0.950 . S
H774 C786 0.950 . S
H775 C787 0.950 . S
C776 H768 0.950 . S
C776 C777 1.386 . S
C776 C778 1.391 . S
C777 C776 1.386 . S
C777 C781 1.393 . S
C778 H770 0.950 . S
C778 C776 1.391 . S
C778 C779 1.400 . S
C779 C778 1.400 . S
C779 C780 1.398 . S
C779 C785 1.491 . S
C780 H771 0.950 . S
C780 C779 1.398 . S
C780 C781 1.391 . S
C781 H769 0.950 . S
C781 C777 1.393 . S
C781 C780 1.391 . S
C782 H772 0.950 . S
C782 C783 1.386 . S
C782 C784 1.391 . S
C783 C782 1.386 . S
C783 C787 1.393 . S
C784 H773 0.950 . S
C784 C782 1.391 . S
C784 C785 1.400 . S
C785 C779 1.491 . S
C785 C784 1.400 . S
C785 C786 1.398 . S
C786 H774 0.950 . S
C786 C785 1.398 . S
C786 C787 1.391 . S
C787 H775 0.950 . S
C787 C783 1.393 . S
C787 C786 1.391 . S
H788 C796 0.950 . S
H789 C801 0.950 . S
H790 C798 0.950 . S
H791 C800 0.950 . S
H792 C802 0.950 . S
H793 C804 0.950 . S
H794 C806 0.950 . S
H795 C807 0.950 . S
C796 H788 0.950 . S
C796 C797 1.386 . S
C796 C798 1.391 . S
C797 C796 1.386 . S
C797 C801 1.393 . S
C798 H790 0.950 . S
C798 C796 1.391 . S
C798 C799 1.400 . S
C799 C798 1.400 . S
C799 C800 1.398 . S
C799 C805 1.491 . S
C800 H791 0.950 . S
C800 C799 1.398 . S
C800 C801 1.391 . S
C801 H789 0.950 . S
C801 C797 1.393 . S
C801 C800 1.391 . S
C802 H792 0.950 . S
C802 C803 1.386 . S
C802 C804 1.391 . S
C803 C802 1.386 . S
C803 C807 1.393 . S
C804 H793 0.950 . S
C804 C802 1.391 . S
C804 C805 1.400 . S
C805 C799 1.491 . S
C805 C804 1.400 . S
C805 C806 1.398 . S
C806 H794 0.950 . S
C806 C805 1.398 . S
C806 C807 1.391 . S
C807 H795 0.950 . S
C807 C803 1.393 . S
C807 C806 1.391 . S
H808 C816 0.950 . S
H809 C821 0.950 . S
H810 C818 0.950 . S
H811 C820 0.950 . S
H812 C822 0.950 . S
H813 C824 0.950 . S
H814 C826 0.950 . S
H815 C827 0.950 . S
C816 H808 0.950 . S
C816 C817 1.386 . S
C816 C818 1.391 . S
C817 C816 1.386 . S
C817 C821 1.393 . S
C818 H810 0.950 . S
C818 C816 1.391 . S
C818 C819 1.400 . S
C819 C818 1.400 . S
C819 C820 1.398 . S
C819 C825 1.491 . S
C820 H811 0.950 . S
C820 C819 1.398 . S
C820 C821 1.391 . S
C821 H809 0.950 . S
C821 C817 1.393 . S
C821 C820 1.391 . S
C822 H812 0.950 . S
C822 C823 1.386 . S
C822 C824 1.391 . S
C823 C822 1.386 . S
C823 C827 1.393 . S
C824 H813 0.950 . S
C824 C822 1.391 . S
C824 C825 1.400 . S
C825 C819 1.491 . S
C825 C824 1.400 . S
C825 C826 1.398 . S
C826 H814 0.950 . S
C826 C825 1.398 . S
C826 C827 1.391 . S
C827 H815 0.950 . S
C827 C823 1.393 . S
C827 C826 1.391 . S
H828 C836 0.950 . S
H829 C841 0.950 . S
H830 C838 0.950 . S
H831 C840 0.950 . S
H832 C842 0.950 . S
H833 C844 0.950 1_556 S
H834 C846 0.950 . S
H835 C847 0.950 . S
C836 H828 0.950 . S
C836 C837 1.386 . S
C836 C838 1.391 . S
C837 C836 1.386 . S
C837 C841 1.393 . S
C838 H830 0.950 . S
C838 C836 1.391 . S
C838 C839 1.400 . S
C839 C838 1.400 . S
C839 C840 1.398 . S
C839 C845 1.491 1_556 S
C840 H831 0.950 . S
C840 C839 1.398 . S
C840 C841 1.391 . S
C841 H829 0.950 . S
C841 C837 1.393 . S
C841 C840 1.391 . S
C842 H832 0.950 . S
C842 C843 1.386 . S
C842 C844 1.391 . S
C843 C842 1.386 . S
C843 C847 1.393 . S
C844 H833 0.950 1_554 S
C844 C842 1.391 . S
C844 C845 1.400 . S
C845 C839 1.491 1_554 S
C845 C844 1.400 . S
C845 C846 1.398 . S
C846 H834 0.950 . S
C846 C845 1.398 . S
C846 C847 1.391 . S
C847 H835 0.950 . S
C847 C843 1.393 . S
C847 C846 1.391 . S
H848 C856 0.950 . S
H849 C861 0.950 . S
H850 C858 0.950 . S
H851 C860 0.950 . S
H852 C862 0.950 . S
H853 C864 0.950 . S
H854 C866 0.950 . S
H855 C867 0.950 . S
C856 H848 0.950 . S
C856 C857 1.386 . S
C856 C858 1.391 . S
C857 C856 1.386 . S
C857 C861 1.393 . S
C858 H850 0.950 . S
C858 C856 1.391 . S
C858 C859 1.400 . S
C859 C858 1.400 . S
C859 C860 1.398 . S
C859 C865 1.491 . S
C860 H851 0.950 . S
C860 C859 1.398 . S
C860 C861 1.391 . S
C861 H849 0.950 . S
C861 C857 1.393 . S
C861 C860 1.391 . S
C862 H852 0.950 . S
C862 C863 1.386 . S
C862 C864 1.391 . S
C863 C862 1.386 . S
C863 C867 1.393 . S
C864 H853 0.950 . S
C864 C862 1.391 . S
C864 C865 1.400 . S
C865 C859 1.491 . S
C865 C864 1.400 . S
C865 C866 1.398 . S
C866 H854 0.950 . S
C866 C865 1.398 . S
C866 C867 1.391 . S
C867 H855 0.950 . S
C867 C863 1.393 . S
C867 C866 1.391 . S
H868 C876 0.950 . S
H869 C881 0.950 . S
H870 C878 0.950 . S
H871 C880 0.950 . S
H872 C882 0.950 . S
H873 C884 0.950 . S
H874 C886 0.950 . S
H875 C887 0.950 . S
C876 H868 0.950 . S
C876 C877 1.386 . S
C876 C878 1.391 . S
C877 C876 1.386 . S
C877 C881 1.393 . S
C878 H870 0.950 . S
C878 C876 1.391 . S
C878 C879 1.400 . S
C879 C878 1.400 . S
C879 C880 1.398 . S
C879 C885 1.491 . S
C880 H871 0.950 . S
C880 C879 1.398 . S
C880 C881 1.391 . S
C881 H869 0.950 . S
C881 C877 1.393 . S
C881 C880 1.391 . S
C882 H872 0.950 . S
C882 C883 1.386 . S
C882 C884 1.391 . S
C883 C882 1.386 . S
C883 C887 1.393 . S
C884 H873 0.950 . S
C884 C882 1.391 . S
C884 C885 1.400 1_565 S
C885 C879 1.491 . S
C885 C884 1.400 1_545 S
C885 C886 1.398 . S
C886 H874 0.950 . S
C886 C885 1.398 . S
C886 C887 1.391 1_545 S
C887 H875 0.950 . S
C887 C883 1.393 . S
C887 C886 1.391 1_565 S
H888 C896 0.950 . S
H889 C901 0.950 . S
H890 C898 0.950 . S
H891 C900 0.950 . S
H892 C902 0.950 . S
H893 C904 0.950 . S
H894 C906 0.950 . S
H895 C907 0.950 . S
C896 H888 0.950 . S
C896 C897 1.386 . S
C896 C898 1.391 . S
C897 C896 1.386 . S
C897 C901 1.393 . S
C898 H890 0.950 . S
C898 C896 1.391 . S
C898 C899 1.400 . S
C899 C898 1.400 . S
C899 C900 1.398 . S
C899 C905 1.491 . S
C900 H891 0.950 . S
C900 C899 1.398 . S
C900 C901 1.391 . S
C901 H889 0.950 . S
C901 C897 1.393 . S
C901 C900 1.391 . S
C902 H892 0.950 . S
C902 C903 1.386 . S
C902 C904 1.391 . S
C903 C902 1.386 . S
C903 C907 1.393 . S
C904 H893 0.950 . S
C904 C902 1.391 . S
C904 C905 1.400 . S
C905 C899 1.491 . S
C905 C904 1.400 . S
C905 C906 1.398 . S
C906 H894 0.950 . S
C906 C905 1.398 . S
C906 C907 1.391 . S
C907 H895 0.950 . S
C907 C903 1.393 . S
C907 C906 1.391 . S
H908 C916 0.950 . S
H909 C921 0.950 . S
H910 C918 0.950 . S
H911 C920 0.950 . S
H912 C922 0.950 . S
H913 C924 0.950 . S
H914 C926 0.950 . S
H915 C927 0.950 . S
C916 H908 0.950 . S
C916 C917 1.386 . S
C916 C918 1.391 . S
C917 C916 1.386 . S
C917 C921 1.393 . S
C918 H910 0.950 . S
C918 C916 1.391 . S
C918 C919 1.400 . S
C919 C918 1.400 . S
C919 C920 1.398 . S
C919 C925 1.498 . S
C920 H911 0.950 . S
C920 C919 1.398 . S
C920 C921 1.391 . S
C921 H909 0.950 . S
C921 C917 1.393 . S
C921 C920 1.391 . S
C922 H912 0.950 . S
C922 C923 1.386 . S
C922 C924 1.391 . S
C923 C922 1.386 . S
C923 C927 1.393 . S
C924 H913 0.950 . S
C924 C922 1.391 . S
C924 C925 1.396 1_545 S
C925 C919 1.498 . S
C925 C924 1.396 1_565 S
C925 C926 1.394 1_565 S
C926 H914 0.950 . S
C926 C925 1.394 1_545 S
C926 C927 1.391 . S
C927 H915 0.950 . S
C927 C923 1.393 . S
C927 C926 1.391 . S
H928 C936 0.950 . S
H929 C941 0.950 . S
H930 C938 0.950 . S
H931 C940 0.950 . S
H932 C942 0.950 . S
H933 C944 0.950 . S
H934 C946 0.950 . S
H935 C947 0.950 . S
C936 H928 0.950 . S
C936 C937 1.386 . S
C936 C938 1.391 . S
C937 C936 1.386 . S
C937 C941 1.393 . S
C938 H930 0.950 . S
C938 C936 1.391 . S
C938 C939 1.400 . S
C939 C938 1.400 . S
C939 C940 1.398 . S
C939 C945 1.491 . S
C940 H931 0.950 . S
C940 C939 1.398 . S
C940 C941 1.391 . S
C941 H929 0.950 . S
C941 C937 1.393 . S
C941 C940 1.391 . S
C942 H932 0.950 . S
C942 C943 1.386 . S
C942 C944 1.391 . S
C943 C942 1.386 . S
C943 C947 1.393 . S
C944 H933 0.950 . S
C944 C942 1.391 . S
C944 C945 1.400 . S
C945 C939 1.491 . S
C945 C944 1.400 . S
C945 C946 1.398 . S
C946 H934 0.950 . S
C946 C945 1.398 . S
C946 C947 1.391 . S
C947 H935 0.950 . S
C947 C943 1.393 . S
C947 C946 1.391 . S
H948 C956 0.950 . S
H949 C961 0.950 . S
H950 C958 0.950 . S
H951 C960 0.950 . S
H952 C962 0.950 . S
H953 C964 0.950 1_545 S
H954 C966 0.935 1_545 S
H955 C967 0.950 . S
C956 H948 0.950 . S
C956 C957 1.386 . S
C956 C958 1.391 . S
C957 C956 1.386 . S
C957 C961 1.393 . S
C958 H950 0.950 . S
C958 C956 1.391 . S
C958 C959 1.400 . S
C959 C958 1.400 . S
C959 C960 1.398 . S
C959 C965 1.491 . S
C960 H951 0.950 . S
C960 C959 1.398 . S
C960 C961 1.391 . S
C961 H949 0.950 . S
C961 C957 1.393 . S
C961 C960 1.391 . S
C962 H952 0.950 . S
C962 C963 1.386 . S
C962 C964 1.391 . S
C963 C962 1.386 . S
C963 C967 1.393 . S
C964 H953 0.950 1_565 S
C964 C962 1.391 . S
C964 C965 1.400 1_565 S
C965 C959 1.491 . S
C965 C964 1.400 1_545 S
C965 C966 1.398 1_545 S
C966 H954 0.935 1_565 S
C966 C965 1.398 1_565 S
C966 C967 1.391 . S
C967 H955 0.950 . S
C967 C963 1.393 . S
C967 C966 1.391 . S
H968 C976 0.950 . S
H969 C981 0.950 . S
H970 C978 0.950 . S
H971 C980 0.950 . S
H972 C982 0.950 . S
H973 C984 0.950 . S
H974 C986 0.950 . S
H975 C987 0.950 . S
C976 H968 0.950 . S
C976 C977 1.386 . S
C976 C978 1.391 . S
C977 C976 1.386 . S
C977 C981 1.393 . S
C978 H970 0.950 . S
C978 C976 1.391 . S
C978 C979 1.400 . S
C979 C978 1.400 . S
C979 C980 1.398 . S
C979 C985 1.491 . S
C980 H971 0.950 . S
C980 C979 1.398 . S
C980 C981 1.391 . S
C981 H969 0.950 . S
C981 C977 1.393 . S
C981 C980 1.391 . S
C982 H972 0.950 . S
C982 C983 1.386 . S
C982 C984 1.391 . S
C983 C982 1.386 . S
C983 C987 1.393 . S
C984 H973 0.950 . S
C984 C982 1.391 . S
C984 C985 1.400 . S
C985 C979 1.491 . S
C985 C984 1.400 . S
C985 C986 1.398 . S
C986 H974 0.950 . S
C986 C985 1.398 . S
C986 C987 1.391 . S
C987 H975 0.950 . S
C987 C983 1.393 . S
C987 C986 1.391 . S
H988 C996 0.950 . S
H989 C1001 0.950 . S
H990 C998 0.950 . S
H991 C1000 0.950 . S
H992 C1002 0.950 . S
H993 C1004 0.950 1_565 S
H994 C1006 0.950 . S
H995 C1007 0.950 . S
C996 H988 0.950 . S
C996 C997 1.386 . S
C996 C998 1.391 . S
C997 C996 1.386 . S
C997 C1001 1.393 . S
C998 H990 0.950 . S
C998 C996 1.391 . S
C998 C999 1.400 . S
C999 C998 1.400 . S
C999 C1000 1.398 . S
C999 C1005 1.491 1_565 S
C1000 H991 0.950 . S
C1000 C999 1.398 . S
C1000 C1001 1.391 . S
C1001 H989 0.950 . S
C1001 C997 1.393 . S
C1001 C1000 1.391 . S
C1002 H992 0.950 . S
C1002 C1003 1.386 . S
C1002 C1004 1.391 . S
C1003 C1002 1.386 . S
C1003 C1007 1.393 . S
C1004 H993 0.950 1_545 S
C1004 C1002 1.391 . S
C1004 C1005 1.400 . S
C1005 C999 1.491 1_545 S
C1005 C1004 1.400 . S
C1005 C1006 1.398 . S
C1006 H994 0.950 . S
C1006 C1005 1.398 . S
C1006 C1007 1.391 . S
C1007 H995 0.950 . S
C1007 C1003 1.393 . S
C1007 C1006 1.391 . S
H1008 C1016 0.950 . S
H1009 C1021 0.950 . S
H1010 C1018 0.950 . S
H1011 C1020 0.950 . S
H1012 C1022 0.950 . S
H1013 C1024 0.950 . S
H1014 C1026 0.950 . S
H1015 C1027 0.950 . S
C1016 H1008 0.950 . S
C1016 C1017 1.386 . S
C1016 C1018 1.391 . S
C1017 C1016 1.386 . S
C1017 C1021 1.393 . S
C1018 H1010 0.950 . S
C1018 C1016 1.391 . S
C1018 C1019 1.400 . S
C1019 C1018 1.400 . S
C1019 C1020 1.398 . S
C1019 C1025 1.491 . S
C1020 H1011 0.950 . S
C1020 C1019 1.398 . S
C1020 C1021 1.391 . S
C1021 H1009 0.950 . S
C1021 C1017 1.393 . S
C1021 C1020 1.391 . S
C1022 H1012 0.950 . S
C1022 C1023 1.386 . S
C1022 C1024 1.391 . S
C1023 C1022 1.386 . S
C1023 C1027 1.393 . S
C1024 H1013 0.950 . S
C1024 C1022 1.391 . S
C1024 C1025 1.400 . S
C1025 C1019 1.491 . S
C1025 C1024 1.400 . S
C1025 C1026 1.398 . S
C1026 H1014 0.950 . S
C1026 C1025 1.398 . S
C1026 C1027 1.391 . S
C1027 H1015 0.950 . S
C1027 C1023 1.393 . S
C1027 C1026 1.391 . S
H1028 C1036 0.950 . S
H1029 C1041 0.950 . S
H1030 C1038 0.950 . S
H1031 C1040 0.950 . S
H1032 C1042 0.950 . S
H1033 C1044 0.950 . S
H1034 C1046 0.950 . S
H1035 C1047 0.950 . S
C1036 H1028 0.950 . S
C1036 C1037 1.386 . S
C1036 C1038 1.391 . S
C1037 C1036 1.386 . S
C1037 C1041 1.393 . S
C1038 H1030 0.950 . S
C1038 C1036 1.391 . S
C1038 C1039 1.400 . S
C1039 C1038 1.400 . S
C1039 C1040 1.398 . S
C1039 C1045 1.491 . S
C1040 H1031 0.950 . S
C1040 C1039 1.398 . S
C1040 C1041 1.391 . S
C1041 H1029 0.950 . S
C1041 C1037 1.393 . S
C1041 C1040 1.391 . S
C1042 H1032 0.950 . S
C1042 C1043 1.386 . S
C1042 C1044 1.391 . S
C1043 C1042 1.386 . S
C1043 C1047 1.393 . S
C1044 H1033 0.950 . S
C1044 C1042 1.391 . S
C1044 C1045 1.400 . S
C1045 C1039 1.491 . S
C1045 C1044 1.400 . S
C1045 C1046 1.398 . S
C1046 H1034 0.950 . S
C1046 C1045 1.398 . S
C1046 C1047 1.391 . S
C1047 H1035 0.950 . S
C1047 C1043 1.393 . S
C1047 C1046 1.391 . S
H1048 C1056 0.950 . S
H1049 C1061 0.950 . S
H1050 C1058 0.950 . S
H1051 C1060 0.950 . S
H1052 C1062 0.950 . S
H1053 C1064 0.950 . S
H1054 C1066 0.950 . S
H1055 C1067 0.950 . S
C1056 H1048 0.950 . S
C1056 C1057 1.386 . S
C1056 C1058 1.391 . S
C1057 C1056 1.386 . S
C1057 C1061 1.393 . S
C1058 H1050 0.950 . S
C1058 C1056 1.391 . S
C1058 C1059 1.400 . S
C1059 C1058 1.400 . S
C1059 C1060 1.398 . S
C1059 C1065 1.491 . S
C1060 H1051 0.950 . S
C1060 C1059 1.398 . S
C1060 C1061 1.391 . S
C1061 H1049 0.950 . S
C1061 C1057 1.393 . S
C1061 C1060 1.391 . S
C1062 H1052 0.950 . S
C1062 C1063 1.386 . S
C1062 C1064 1.391 . S
C1063 C1062 1.386 . S
C1063 C1067 1.393 . S
C1064 H1053 0.950 . S
C1064 C1062 1.391 . S
C1064 C1065 1.400 1_655 S
C1065 C1059 1.491 . S
C1065 C1064 1.400 1_455 S
C1065 C1066 1.398 . S
C1066 H1054 0.950 . S
C1066 C1065 1.398 . S
C1066 C1067 1.391 1_455 S
C1067 H1055 0.950 . S
C1067 C1063 1.393 . S
C1067 C1066 1.391 1_655 S
H1068 C1076 0.950 . S
H1069 C1081 0.950 . S
H1070 C1078 0.950 . S
H1071 C1080 0.950 . S
H1072 C1082 0.950 . S
H1073 C1084 0.950 . S
H1074 C1086 0.950 . S
H1075 C1087 0.950 . S
C1076 H1068 0.950 . S
C1076 C1077 1.386 . S
C1076 C1078 1.391 . S
C1077 C1076 1.386 . S
C1077 C1081 1.393 . S
C1078 H1070 0.950 . S
C1078 C1076 1.391 . S
C1078 C1079 1.400 . S
C1079 C1078 1.400 . S
C1079 C1080 1.398 . S
C1079 C1085 1.491 . S
C1080 H1071 0.950 . S
C1080 C1079 1.398 . S
C1080 C1081 1.391 . S
C1081 H1069 0.950 . S
C1081 C1077 1.393 . S
C1081 C1080 1.391 . S
C1082 H1072 0.950 . S
C1082 C1083 1.386 . S
C1082 C1084 1.391 . S
C1083 C1082 1.386 . S
C1083 C1087 1.393 . S
C1084 H1073 0.950 . S
C1084 C1082 1.391 . S
C1084 C1085 1.400 . S
C1085 C1079 1.491 . S
C1085 C1084 1.400 . S
C1085 C1086 1.398 . S
C1086 H1074 0.950 . S
C1086 C1085 1.398 . S
C1086 C1087 1.391 . S
C1087 H1075 0.950 . S
C1087 C1083 1.393 . S
C1087 C1086 1.391 . S
H1088 C1096 0.950 . S
H1089 C1101 0.950 . S
H1090 C1098 0.950 . S
H1091 C1100 0.950 . S
H1092 C1102 0.950 . S
H1093 C1104 0.950 . S
H1094 C1106 0.950 . S
H1095 C1107 0.950 . S
C1096 H1088 0.950 . S
C1096 C1097 1.386 . S
C1096 C1098 1.391 . S
C1097 C1096 1.386 . S
C1097 C1101 1.393 . S
C1098 H1090 0.950 . S
C1098 C1096 1.391 . S
C1098 C1099 1.400 . S
C1099 C1098 1.400 . S
C1099 C1100 1.398 . S
C1099 C1105 1.491 1_655 S
C1100 H1091 0.950 . S
C1100 C1099 1.398 . S
C1100 C1101 1.391 . S
C1101 H1089 0.950 . S
C1101 C1097 1.393 . S
C1101 C1100 1.391 . S
C1102 H1092 0.950 . S
C1102 C1103 1.386 . S
C1102 C1104 1.391 . S
C1103 C1102 1.386 . S
C1103 C1107 1.393 . S
C1104 H1093 0.950 . S
C1104 C1102 1.391 . S
C1104 C1105 1.400 . S
C1105 C1099 1.491 1_455 S
C1105 C1104 1.400 . S
C1105 C1106 1.398 . S
C1106 H1094 0.950 . S
C1106 C1105 1.398 . S
C1106 C1107 1.391 . S
C1107 H1095 0.950 . S
C1107 C1103 1.393 . S
C1107 C1106 1.391 . S
H1108 C1116 0.950 . S
H1109 C1121 0.950 . S
H1110 C1118 0.950 . S
H1111 C1120 0.950 . S
H1112 C1122 0.950 . S
H1113 C1124 0.950 . S
H1114 C1126 0.950 . S
H1115 C1127 0.950 . S
C1116 H1108 0.950 . S
C1116 C1117 1.386 . S
C1116 C1118 1.391 . S
C1117 C1116 1.386 . S
C1117 C1121 1.393 . S
C1118 H1110 0.950 . S
C1118 C1116 1.391 . S
C1118 C1119 1.400 . S
C1119 C1118 1.400 . S
C1119 C1120 1.398 . S
C1119 C1125 1.491 . S
C1120 H1111 0.950 . S
C1120 C1119 1.398 . S
C1120 C1121 1.391 . S
C1121 H1109 0.950 . S
C1121 C1117 1.393 . S
C1121 C1120 1.391 . S
C1122 H1112 0.950 . S
C1122 C1123 1.386 . S
C1122 C1124 1.391 . S
C1123 C1122 1.386 . S
C1123 C1127 1.393 . S
C1124 H1113 0.950 . S
C1124 C1122 1.391 . S
C1124 C1125 1.400 . S
C1125 C1119 1.491 . S
C1125 C1124 1.400 . S
C1125 C1126 1.398 . S
C1126 H1114 0.950 . S
C1126 C1125 1.398 . S
C1126 C1127 1.391 . S
C1127 H1115 0.950 . S
C1127 C1123 1.393 . S
C1127 C1126 1.391 . S
H1128 C1136 0.950 . S
H1129 C1141 0.950 . S
H1130 C1138 0.950 . S
H1131 C1140 0.950 . S
H1132 C1142 0.950 . S
H1133 C1144 0.950 . S
H1134 C1146 0.950 . S
H1135 C1147 0.950 . S
C1136 H1128 0.950 . S
C1136 C1137 1.386 . S
C1136 C1138 1.391 . S
C1137 C1136 1.386 . S
C1137 C1141 1.393 . S
C1138 H1130 0.950 . S
C1138 C1136 1.391 . S
C1138 C1139 1.400 . S
C1139 C1138 1.400 . S
C1139 C1140 1.398 . S
C1139 C1145 1.491 . S
C1140 H1131 0.950 . S
C1140 C1139 1.398 . S
C1140 C1141 1.391 . S
C1141 H1129 0.950 . S
C1141 C1137 1.393 . S
C1141 C1140 1.391 . S
C1142 H1132 0.950 . S
C1142 C1143 1.386 . S
C1142 C1144 1.391 1_655 S
C1143 C1142 1.386 . S
C1143 C1147 1.393 . S
C1144 H1133 0.950 . S
C1144 C1142 1.391 1_455 S
C1144 C1145 1.400 . S
C1145 C1139 1.491 . S
C1145 C1144 1.400 . S
C1145 C1146 1.398 1_455 S
C1146 H1134 0.950 . S
C1146 C1145 1.398 1_655 S
C1146 C1147 1.391 . S
C1147 H1135 0.950 . S
C1147 C1143 1.393 . S
C1147 C1146 1.391 . S
H1148 C1156 0.950 . S
H1149 C1161 0.950 . S
H1150 C1158 0.950 . S
H1151 C1160 0.950 . S
H1152 C1162 0.950 . S
H1153 C1164 0.950 . S
H1154 C1166 0.950 . S
H1155 C1167 0.950 . S
C1156 H1148 0.950 . S
C1156 C1157 1.386 . S
C1156 C1158 1.391 . S
C1157 C1156 1.386 . S
C1157 C1161 1.393 . S
C1158 H1150 0.950 . S
C1158 C1156 1.391 . S
C1158 C1159 1.400 . S
C1159 C1158 1.400 . S
C1159 C1160 1.398 . S
C1159 C1165 1.491 . S
C1160 H1151 0.950 . S
C1160 C1159 1.398 . S
C1160 C1161 1.391 . S
C1161 H1149 0.950 . S
C1161 C1157 1.393 . S
C1161 C1160 1.391 . S
C1162 H1152 0.950 . S
C1162 C1163 1.386 . S
C1162 C1164 1.391 . S
C1163 C1162 1.386 . S
C1163 C1167 1.393 . S
C1164 H1153 0.950 . S
C1164 C1162 1.391 . S
C1164 C1165 1.400 . S
C1165 C1159 1.491 . S
C1165 C1164 1.400 . S
C1165 C1166 1.398 . S
C1166 H1154 0.950 . S
C1166 C1165 1.398 . S
C1166 C1167 1.391 . S
C1167 H1155 0.950 . S
C1167 C1163 1.393 . S
C1167 C1166 1.391 . S
H1168 C1176 0.950 . S
H1169 C1181 0.950 . S
H1170 C1178 0.950 . S
H1171 C1180 0.950 . S
H1172 C1182 0.950 . S
H1173 C1184 0.950 . S
H1174 C1186 0.950 . S
H1175 C1187 0.950 . S
C1176 H1168 0.950 . S
C1176 C1177 1.386 . S
C1176 C1178 1.391 . S
C1177 C1176 1.386 . S
C1177 C1181 1.393 . S
C1178 H1170 0.950 . S
C1178 C1176 1.391 . S
C1178 C1179 1.400 . S
C1179 C1178 1.400 . S
C1179 C1180 1.398 . S
C1179 C1185 1.491 . S
C1180 H1171 0.950 . S
C1180 C1179 1.398 . S
C1180 C1181 1.391 . S
C1181 H1169 0.950 . S
C1181 C1177 1.393 . S
C1181 C1180 1.391 . S
C1182 H1172 0.950 . S
C1182 C1183 1.386 . S
C1182 C1184 1.391 . S
C1183 C1182 1.386 . S
C1183 C1187 1.393 . S
C1184 H1173 0.950 . S
C1184 C1182 1.391 . S
C1184 C1185 1.400 . S
C1185 C1179 1.491 . S
C1185 C1184 1.400 . S
C1185 C1186 1.398 . S
C1186 H1174 0.950 . S
C1186 C1185 1.398 . S
C1186 C1187 1.391 . S
C1187 H1175 0.950 . S
C1187 C1183 1.393 . S
C1187 C1186 1.391 . S
H1188 C1196 0.950 1_455 S
H1189 C1201 0.950 . S
H1190 C1198 0.950 . S
H1191 C1200 0.950 . S
H1192 C1202 0.950 . S
H1193 C1204 0.950 . S
H1194 C1206 0.950 . S
H1195 C1207 0.950 . S
C1196 H1188 0.950 1_655 S
C1196 C1197 1.386 . S
C1196 C1198 1.391 . S
C1197 C1196 1.386 . S
C1197 C1201 1.393 . S
C1198 H1190 0.950 . S
C1198 C1196 1.391 . S
C1198 C1199 1.400 . S
C1199 C1198 1.400 . S
C1199 C1200 1.398 . S
C1199 C1205 1.491 . S
C1200 H1191 0.950 . S
C1200 C1199 1.398 . S
C1200 C1201 1.391 . S
C1201 H1189 0.950 . S
C1201 C1197 1.393 . S
C1201 C1200 1.391 . S
C1202 H1192 0.950 . S
C1202 C1203 1.386 . S
C1202 C1204 1.391 . S
C1203 C1202 1.386 . S
C1203 C1207 1.393 . S
C1204 H1193 0.950 . S
C1204 C1202 1.391 . S
C1204 C1205 1.400 . S
C1205 C1199 1.491 . S
C1205 C1204 1.400 . S
C1205 C1206 1.398 . S
C1206 H1194 0.950 . S
C1206 C1205 1.398 . S
C1206 C1207 1.391 . S
C1207 H1195 0.950 . S
C1207 C1203 1.393 . S
C1207 C1206 1.391 . S
H1208 C1216 0.950 . S
H1209 C1221 0.950 . S
H1210 C1218 0.950 . S
H1211 C1220 0.950 . S
H1212 C1222 0.950 . S
H1213 C1224 0.950 . S
H1214 C1226 0.950 . S
H1215 C1227 0.950 . S
C1216 H1208 0.950 . S
C1216 C1217 1.386 . S
C1216 C1218 1.391 . S
C1217 C1216 1.386 . S
C1217 C1221 1.393 . S
C1218 H1210 0.950 . S
C1218 C1216 1.391 . S
C1218 C1219 1.400 . S
C1219 C1218 1.400 . S
C1219 C1220 1.398 . S
C1219 C1225 1.491 . S
C1220 H1211 0.950 . S
C1220 C1219 1.398 . S
C1220 C1221 1.391 . S
C1221 H1209 0.950 . S
C1221 C1217 1.393 . S
C1221 C1220 1.391 . S
C1222 H1212 0.950 . S
C1222 C1223 1.386 . S
C1222 C1224 1.391 . S
C1223 C1222 1.386 . S
C1223 C1227 1.393 . S
C1224 H1213 0.950 . S
C1224 C1222 1.391 . S
C1224 C1225 1.400 . S
C1225 C1219 1.491 . S
C1225 C1224 1.400 . S
C1225 C1226 1.398 . S
C1226 H1214 0.950 . S
C1226 C1225 1.398 . S
C1226 C1227 1.391 . S
C1227 H1215 0.950 . S
C1227 C1223 1.393 . S
C1227 C1226 1.391 . S
H1228 C1236 0.950 . S
H1229 C1241 0.950 . S
H1230 C1238 0.950 . S
H1231 C1240 0.954 1_554 S
H1232 C1242 0.950 . S
H1233 C1244 0.950 . S
H1234 C1246 0.950 1_556 S
H1235 C1247 0.950 . S
C1236 H1228 0.950 . S
C1236 C1237 1.386 . S
C1236 C1238 1.391 . S
C1237 C1236 1.386 . S
C1237 C1241 1.393 . S
C1238 H1230 0.950 . S
C1238 C1236 1.391 . S
C1238 C1239 1.400 . S
C1239 C1238 1.400 . S
C1239 C1240 1.398 . S
C1239 C1245 1.491 1_556 S
C1240 H1231 0.954 1_556 S
C1240 C1239 1.398 . S
C1240 C1241 1.391 . S
C1241 H1229 0.950 . S
C1241 C1237 1.393 . S
C1241 C1240 1.391 . S
C1242 H1232 0.950 . S
C1242 C1243 1.386 . S
C1242 C1244 1.391 . S
C1243 C1242 1.386 . S
C1243 C1247 1.393 . S
C1244 H1233 0.950 . S
C1244 C1242 1.391 . S
C1244 C1245 1.400 . S
C1245 C1239 1.491 1_554 S
C1245 C1244 1.400 . S
C1245 C1246 1.398 . S
C1246 H1234 0.950 1_554 S
C1246 C1245 1.398 . S
C1246 C1247 1.391 . S
C1247 H1235 0.950 . S
C1247 C1243 1.393 . S
C1247 C1246 1.391 . S
H1248 C1256 0.950 . S
H1249 C1261 0.950 . S
H1250 C1258 0.950 . S
H1251 C1260 0.950 . S
H1252 C1262 0.950 . S
H1253 C1264 0.950 . S
H1254 C1266 0.950 . S
H1255 C1267 0.950 . S
C1256 H1248 0.950 . S
C1256 C1257 1.386 . S
C1256 C1258 1.391 . S
C1257 C1256 1.386 . S
C1257 C1261 1.393 . S
C1258 H1250 0.950 . S
C1258 C1256 1.391 . S
C1258 C1259 1.400 . S
C1259 C1258 1.400 . S
C1259 C1260 1.398 . S
C1259 C1265 1.491 . S
C1260 H1251 0.950 . S
C1260 C1259 1.398 . S
C1260 C1261 1.391 . S
C1261 H1249 0.950 . S
C1261 C1257 1.393 . S
C1261 C1260 1.391 . S
C1262 H1252 0.950 . S
C1262 C1263 1.386 . S
C1262 C1264 1.391 . S
C1263 C1262 1.386 . S
C1263 C1267 1.393 . S
C1264 H1253 0.950 . S
C1264 C1262 1.391 . S
C1264 C1265 1.400 . S
C1265 C1259 1.491 . S
C1265 C1264 1.400 . S
C1265 C1266 1.398 . S
C1266 H1254 0.950 . S
C1266 C1265 1.398 . S
C1266 C1267 1.391 . S
C1267 H1255 0.950 . S
C1267 C1263 1.393 . S
C1267 C1266 1.391 . S
H1268 C1276 0.950 . S
H1269 C1281 0.950 . S
H1270 C1278 0.950 . S
H1271 C1280 0.950 . S
H1272 C1282 0.950 . S
H1273 C1284 0.950 . S
H1274 C1286 0.950 . S
H1275 C1287 0.950 . S
C1276 H1268 0.950 . S
C1276 C1277 1.386 . S
C1276 C1278 1.391 . S
C1277 C1276 1.386 . S
C1277 C1281 1.393 . S
C1278 H1270 0.950 . S
C1278 C1276 1.391 . S
C1278 C1279 1.400 . S
C1279 C1278 1.400 . S
C1279 C1280 1.398 . S
C1279 C1285 1.491 . S
C1280 H1271 0.950 . S
C1280 C1279 1.398 . S
C1280 C1281 1.391 . S
C1281 H1269 0.950 . S
C1281 C1277 1.393 . S
C1281 C1280 1.391 . S
C1282 H1272 0.950 . S
C1282 C1283 1.386 . S
C1282 C1284 1.391 . S
C1283 C1282 1.386 . S
C1283 C1287 1.393 . S
C1284 H1273 0.950 . S
C1284 C1282 1.391 . S
C1284 C1285 1.400 . S
C1285 C1279 1.491 . S
C1285 C1284 1.400 . S
C1285 C1286 1.398 . S
C1286 H1274 0.950 . S
C1286 C1285 1.398 . S
C1286 C1287 1.391 . S
C1287 H1275 0.950 . S
C1287 C1283 1.393 . S
C1287 C1286 1.391 . S
H1288 C1296 0.950 . S
H1289 C1301 0.950 . S
H1290 C1298 0.950 . S
H1291 C1300 0.950 . S
H1292 C1302 0.950 . S
H1293 C1304 0.950 . S
H1294 C1306 0.950 . S
H1295 C1307 0.950 . S
C1296 H1288 0.950 . S
C1296 C1297 1.386 . S
C1296 C1298 1.391 . S
C1297 C1296 1.386 . S
C1297 C1301 1.393 . S
C1298 H1290 0.950 . S
C1298 C1296 1.391 . S
C1298 C1299 1.400 . S
C1299 C1298 1.400 . S
C1299 C1300 1.398 . S
C1299 C1305 1.491 . S
C1300 H1291 0.950 . S
C1300 C1299 1.398 . S
C1300 C1301 1.391 . S
C1301 H1289 0.950 . S
C1301 C1297 1.393 . S
C1301 C1300 1.391 . S
C1302 H1292 0.950 . S
C1302 C1303 1.386 . S
C1302 C1304 1.391 . S
C1303 C1302 1.386 . S
C1303 C1307 1.393 . S
C1304 H1293 0.950 . S
C1304 C1302 1.391 . S
C1304 C1305 1.400 . S
C1305 C1299 1.491 . S
C1305 C1304 1.400 . S
C1305 C1306 1.398 . S
C1306 H1294 0.950 . S
C1306 C1305 1.398 . S
C1306 C1307 1.391 . S
C1307 H1295 0.950 . S
C1307 C1303 1.393 . S
C1307 C1306 1.391 . S
H1308 C1316 0.950 . S
H1309 C1321 0.950 . S
H1310 C1318 0.950 . S
H1311 C1320 0.950 . S
H1312 C1322 0.950 . S
H1313 C1324 0.950 . S
H1314 C1326 0.950 . S
H1315 C1327 0.950 . S
C1316 H1308 0.950 . S
C1316 C1317 1.386 . S
C1316 C1318 1.391 . S
C1317 C1316 1.386 . S
C1317 C1321 1.393 . S
C1318 H1310 0.950 . S
C1318 C1316 1.391 . S
C1318 C1319 1.400 . S
C1319 C1318 1.400 . S
C1319 C1320 1.398 . S
C1319 C1325 1.491 . S
C1320 H1311 0.950 . S
C1320 C1319 1.398 . S
C1320 C1321 1.391 . S
C1321 H1309 0.950 . S
C1321 C1317 1.393 . S
C1321 C1320 1.391 . S
C1322 H1312 0.950 . S
C1322 C1323 1.386 . S
C1322 C1324 1.391 1_556 S
C1323 C1322 1.386 . S
C1323 C1327 1.393 . S
C1324 H1313 0.950 . S
C1324 C1322 1.391 1_554 S
C1324 C1325 1.400 . S
C1325 C1319 1.491 . S
C1325 C1324 1.400 . S
C1325 C1326 1.398 1_554 S
C1326 H1314 0.950 . S
C1326 C1325 1.398 1_556 S
C1326 C1327 1.391 . S
C1327 H1315 0.950 . S
C1327 C1323 1.393 . S
C1327 C1326 1.391 . S
H1328 C1336 0.950 . S
H1329 C1341 0.950 . S
H1330 C1338 0.950 . S
H1331 C1340 0.950 . S
H1332 C1342 0.950 . S
H1333 C1344 0.950 . S
H1334 C1346 0.950 . S
H1335 C1347 0.950 . S
C1336 H1328 0.950 . S
C1336 C1337 1.386 . S
C1336 C1338 1.391 . S
C1337 C1336 1.386 . S
C1337 C1341 1.393 . S
C1338 H1330 0.950 . S
C1338 C1336 1.391 . S
C1338 C1339 1.400 . S
C1339 C1338 1.400 . S
C1339 C1340 1.398 . S
C1339 C1345 1.491 . S
C1340 H1331 0.950 . S
C1340 C1339 1.398 . S
C1340 C1341 1.391 . S
C1341 H1329 0.950 . S
C1341 C1337 1.393 . S
C1341 C1340 1.391 . S
C1342 H1332 0.950 . S
C1342 C1343 1.386 . S
C1342 C1344 1.391 . S
C1343 C1342 1.386 . S
C1343 C1347 1.393 . S
C1344 H1333 0.950 . S
C1344 C1342 1.391 . S
C1344 C1345 1.400 . S
C1345 C1339 1.491 . S
C1345 C1344 1.400 . S
C1345 C1346 1.398 . S
C1346 H1334 0.950 . S
C1346 C1345 1.398 . S
C1346 C1347 1.391 . S
C1347 H1335 0.950 . S
C1347 C1343 1.393 . S
C1347 C1346 1.391 . S
H1348 C1356 0.950 . S
H1349 C1361 0.950 . S
H1350 C1358 0.950 . S
H1351 C1360 0.950 . S
H1352 C1362 0.950 . S
H1353 C1364 0.939 1_565 S
H1354 C1366 0.950 . S
H1355 C1367 0.950 . S
C1356 H1348 0.950 . S
C1356 C1357 1.386 . S
C1356 C1358 1.391 . S
C1357 C1356 1.386 . S
C1357 C1361 1.393 . S
C1358 H1350 0.950 . S
C1358 C1356 1.391 . S
C1358 C1359 1.400 . S
C1359 C1358 1.400 . S
C1359 C1360 1.398 . S
C1359 C1365 1.491 . S
C1360 H1351 0.950 . S
C1360 C1359 1.398 . S
C1360 C1361 1.391 . S
C1361 H1349 0.950 . S
C1361 C1357 1.393 . S
C1361 C1360 1.391 . S
C1362 H1352 0.950 . S
C1362 C1363 1.386 . S
C1362 C1364 1.403 . S
C1363 C1362 1.386 . S
C1363 C1367 1.393 . S
C1364 H1353 0.939 1_545 S
C1364 C1362 1.403 . S
C1364 C1365 1.399 1_545 S
C1365 C1359 1.491 . S
C1365 C1364 1.399 1_565 S
C1365 C1366 1.398 1_565 S
C1366 H1354 0.950 . S
C1366 C1365 1.398 1_545 S
C1366 C1367 1.391 . S
C1367 H1355 0.950 . S
C1367 C1363 1.393 . S
C1367 C1366 1.391 . S
H1368 C1376 0.950 . S
H1369 C1381 0.950 . S
H1370 C1378 0.950 . S
H1371 C1380 0.950 . S
H1372 C1382 0.950 . S
H1373 C1384 0.950 . S
H1374 C1386 0.950 . S
H1375 C1387 0.950 . S
C1376 H1368 0.950 . S
C1376 C1377 1.386 . S
C1376 C1378 1.391 . S
C1377 C1376 1.386 . S
C1377 C1381 1.393 . S
C1378 H1370 0.950 . S
C1378 C1376 1.391 . S
C1378 C1379 1.400 . S
C1379 C1378 1.400 . S
C1379 C1380 1.398 . S
C1379 C1385 1.491 . S
C1380 H1371 0.950 . S
C1380 C1379 1.398 . S
C1380 C1381 1.391 . S
C1381 H1369 0.950 . S
C1381 C1377 1.393 . S
C1381 C1380 1.391 . S
C1382 H1372 0.950 . S
C1382 C1383 1.386 . S
C1382 C1384 1.391 . S
C1383 C1382 1.386 . S
C1383 C1387 1.393 . S
C1384 H1373 0.950 . S
C1384 C1382 1.391 . S
C1384 C1385 1.400 . S
C1385 C1379 1.491 . S
C1385 C1384 1.400 . S
C1385 C1386 1.398 . S
C1386 H1374 0.950 . S
C1386 C1385 1.398 . S
C1386 C1387 1.391 . S
C1387 H1375 0.950 . S
C1387 C1383 1.393 . S
C1387 C1386 1.391 . S
H1388 C1396 0.950 . S
H1389 C1401 0.950 . S
H1390 C1398 0.950 . S
H1391 C1400 0.950 . S
H1392 C1402 0.950 . S
H1393 C1404 0.950 . S
H1394 C1406 0.950 . S
H1395 C1407 0.950 . S
C1396 H1388 0.950 . S
C1396 C1397 1.386 . S
C1396 C1398 1.391 . S
C1397 C1396 1.386 . S
C1397 C1401 1.393 . S
C1398 H1390 0.950 . S
C1398 C1396 1.391 . S
C1398 C1399 1.400 . S
C1399 C1398 1.400 . S
C1399 C1400 1.398 . S
C1399 C1405 1.491 . S
C1400 H1391 0.950 . S
C1400 C1399 1.398 . S
C1400 C1401 1.391 . S
C1401 H1389 0.950 . S
C1401 C1397 1.393 . S
C1401 C1400 1.391 . S
C1402 H1392 0.950 . S
C1402 C1403 1.386 . S
C1402 C1404 1.391 . S
C1403 C1402 1.386 . S
C1403 C1407 1.393 . S
C1404 H1393 0.950 . S
C1404 C1402 1.391 . S
C1404 C1405 1.400 1_565 S
C1405 C1399 1.491 . S
C1405 C1404 1.400 1_545 S
C1405 C1406 1.398 . S
C1406 H1394 0.950 . S
C1406 C1405 1.398 . S
C1406 C1407 1.391 1_545 S
C1407 H1395 0.950 . S
C1407 C1403 1.393 . S
C1407 C1406 1.391 1_565 S
H1408 C1416 0.950 . S
H1409 C1421 0.950 . S
H1410 C1418 0.950 . S
H1411 C1420 0.950 . S
H1412 C1422 0.950 . S
H1413 C1424 0.950 . S
H1414 C1426 0.950 . S
H1415 C1427 0.950 . S
C1416 H1408 0.950 . S
C1416 C1417 1.386 . S
C1416 C1418 1.391 . S
C1417 C1416 1.386 . S
C1417 C1421 1.393 . S
C1418 H1410 0.950 . S
C1418 C1416 1.391 . S
C1418 C1419 1.400 . S
C1419 C1418 1.400 . S
C1419 C1420 1.398 . S
C1419 C1425 1.491 . S
C1420 H1411 0.950 . S
C1420 C1419 1.398 . S
C1420 C1421 1.391 . S
C1421 H1409 0.950 . S
C1421 C1417 1.393 . S
C1421 C1420 1.391 . S
C1422 H1412 0.950 . S
C1422 C1423 1.386 . S
C1422 C1424 1.391 . S
C1423 C1422 1.386 . S
C1423 C1427 1.393 . S
C1424 H1413 0.950 . S
C1424 C1422 1.391 . S
C1424 C1425 1.400 . S
C1425 C1419 1.491 . S
C1425 C1424 1.400 . S
C1425 C1426 1.398 . S
C1426 H1414 0.950 . S
C1426 C1425 1.398 . S
C1426 C1427 1.391 . S
C1427 H1415 0.950 . S
C1427 C1423 1.393 . S
C1427 C1426 1.391 . S
H1428 C1436 0.950 . S
H1429 C1441 0.950 . S
H1430 C1438 0.950 . S
H1431 C1440 0.950 . S
H1432 C1442 0.950 . S
H1433 C1444 0.950 . S
H1434 C1446 0.945 1_565 S
H1435 C1447 0.950 . S
C1436 H1428 0.950 . S
C1436 C1437 1.386 . S
C1436 C1438 1.391 . S
C1437 C1436 1.386 . S
C1437 C1441 1.393 . S
C1438 H1430 0.950 . S
C1438 C1436 1.391 . S
C1438 C1439 1.400 . S
C1439 C1438 1.400 . S
C1439 C1440 1.398 . S
C1439 C1445 1.491 1_565 S
C1440 H1431 0.950 . S
C1440 C1439 1.398 . S
C1440 C1441 1.391 . S
C1441 H1429 0.950 . S
C1441 C1437 1.393 . S
C1441 C1440 1.391 . S
C1442 H1432 0.950 . S
C1442 C1443 1.386 . S
C1442 C1444 1.391 . S
C1443 C1442 1.386 . S
C1443 C1447 1.393 . S
C1444 H1433 0.950 . S
C1444 C1442 1.391 . S
C1444 C1445 1.400 . S
C1445 C1439 1.491 1_545 S
C1445 C1444 1.400 . S
C1445 C1446 1.398 . S
C1446 H1434 0.945 1_545 S
C1446 C1445 1.398 . S
C1446 C1447 1.391 . S
C1447 H1435 0.950 . S
C1447 C1443 1.393 . S
C1447 C1446 1.391 . S
H1448 C1456 0.950 . S
H1449 C1461 0.950 . S
H1450 C1458 0.950 . S
H1451 C1460 0.950 . S
H1452 C1462 0.950 . S
H1453 C1464 0.950 . S
H1454 C1466 0.950 . S
H1455 C1467 0.950 . S
C1456 H1448 0.950 . S
C1456 C1457 1.386 . S
C1456 C1458 1.391 . S
C1457 C1456 1.386 . S
C1457 C1461 1.393 . S
C1458 H1450 0.950 . S
C1458 C1456 1.391 . S
C1458 C1459 1.400 . S
C1459 C1458 1.400 . S
C1459 C1460 1.398 . S
C1459 C1465 1.491 . S
C1460 H1451 0.950 . S
C1460 C1459 1.398 . S
C1460 C1461 1.391 . S
C1461 H1449 0.950 . S
C1461 C1457 1.393 . S
C1461 C1460 1.391 . S
C1462 H1452 0.950 . S
C1462 C1463 1.386 . S
C1462 C1464 1.391 . S
C1463 C1462 1.386 . S
C1463 C1467 1.393 . S
C1464 H1453 0.950 . S
C1464 C1462 1.391 . S
C1464 C1465 1.400 . S
C1465 C1459 1.491 . S
C1465 C1464 1.400 . S
C1465 C1466 1.398 . S
C1466 H1454 0.950 . S
C1466 C1465 1.398 . S
C1466 C1467 1.391 . S
C1467 H1455 0.950 . S
C1467 C1463 1.393 . S
C1467 C1466 1.391 . S
H1468 C1476 0.950 . S
H1469 C1481 0.950 1_554 S
H1470 C1478 0.950 . S
H1471 C1480 0.950 . S
H1472 C1482 0.950 . S
H1473 C1484 0.950 . S
H1474 C1486 0.964 . S
H1475 C1487 0.950 . S
C1476 H1468 0.950 . S
C1476 C1477 1.386 . S
C1476 C1478 1.391 . S
C1477 C1476 1.386 . S
C1477 C1481 1.393 . S
C1478 H1470 0.950 . S
C1478 C1476 1.391 . S
C1478 C1479 1.400 . S
C1479 C1478 1.400 . S
C1479 C1480 1.398 . S
C1479 C1485 1.491 . S
C1480 H1471 0.950 . S
C1480 C1479 1.398 . S
C1480 C1481 1.391 . S
C1481 H1469 0.950 1_556 S
C1481 C1477 1.393 . S
C1481 C1480 1.391 . S
C1482 H1472 0.950 . S
C1482 C1483 1.386 . S
C1482 C1484 1.391 . S
C1483 C1482 1.386 . S
C1483 C1487 1.393 . S
C1484 H1473 0.950 . S
C1484 C1482 1.391 . S
C1484 C1485 1.400 1_565 S
C1485 C1479 1.491 . S
C1485 C1484 1.400 1_545 S
C1485 C1486 1.399 . S
C1486 H1474 0.964 . S
C1486 C1485 1.399 . S
C1486 C1487 1.376 1_545 S
C1487 H1475 0.950 . S
C1487 C1483 1.393 . S
C1487 C1486 1.376 1_565 S
H1488 C1496 0.950 . S
H1489 C1501 0.950 . S
H1490 C1498 0.950 . S
H1491 C1500 0.950 . S
H1492 C1502 0.950 . S
H1493 C1504 0.950 . S
H1494 C1506 0.950 . S
H1495 C1507 0.950 . S
C1496 H1488 0.950 . S
C1496 C1497 1.386 . S
C1496 C1498 1.391 . S
C1497 C1496 1.386 . S
C1497 C1501 1.393 . S
C1498 H1490 0.950 . S
C1498 C1496 1.391 . S
C1498 C1499 1.400 . S
C1499 C1498 1.400 . S
C1499 C1500 1.398 . S
C1499 C1505 1.491 . S
C1500 H1491 0.950 . S
C1500 C1499 1.398 . S
C1500 C1501 1.391 . S
C1501 H1489 0.950 . S
C1501 C1497 1.393 . S
C1501 C1500 1.391 . S
C1502 H1492 0.950 . S
C1502 C1503 1.386 . S
C1502 C1504 1.391 . S
C1503 C1502 1.386 . S
C1503 C1507 1.393 . S
C1504 H1493 0.950 . S
C1504 C1502 1.391 . S
C1504 C1505 1.400 . S
C1505 C1499 1.491 . S
C1505 C1504 1.400 . S
C1505 C1506 1.398 . S
C1506 H1494 0.950 . S
C1506 C1505 1.398 . S
C1506 C1507 1.391 . S
C1507 H1495 0.950 . S
C1507 C1503 1.393 . S
C1507 C1506 1.391 . S
H1508 C1516 0.950 . S
H1509 C1521 0.950 . S
H1510 C1518 0.950 . S
H1511 C1520 0.950 . S
H1512 C1522 0.950 . S
H1513 C1524 0.950 . S
H1514 C1526 0.950 . S
H1515 C1527 0.950 . S
C1516 H1508 0.950 . S
C1516 C1517 1.386 . S
C1516 C1518 1.391 . S
C1517 C1516 1.386 . S
C1517 C1521 1.393 . S
C1518 H1510 0.950 . S
C1518 C1516 1.391 . S
C1518 C1519 1.400 . S
C1519 C1518 1.400 . S
C1519 C1520 1.398 . S
C1519 C1525 1.491 . S
C1520 H1511 0.950 . S
C1520 C1519 1.398 . S
C1520 C1521 1.391 . S
C1521 H1509 0.950 . S
C1521 C1517 1.393 . S
C1521 C1520 1.391 . S
C1522 H1512 0.950 . S
C1522 C1523 1.386 . S
C1522 C1524 1.391 . S
C1523 C1522 1.386 . S
C1523 C1527 1.393 . S
C1524 H1513 0.950 . S
C1524 C1522 1.391 . S
C1524 C1525 1.400 . S
C1525 C1519 1.491 . S
C1525 C1524 1.400 . S
C1525 C1526 1.398 . S
C1526 H1514 0.950 . S
C1526 C1525 1.398 . S
C1526 C1527 1.391 . S
C1527 H1515 0.950 . S
C1527 C1523 1.393 . S
C1527 C1526 1.391 . S
H1528 C1536 0.950 . S
H1529 C1541 0.950 . S
H1530 C1538 0.950 . S
H1531 C1540 0.950 . S
H1532 C1542 0.950 . S
H1533 C1544 0.950 . S
H1534 C1546 0.950 . S
H1535 C1547 0.950 . S
C1536 H1528 0.950 . S
C1536 C1537 1.386 . S
C1536 C1538 1.391 . S
C1537 C1536 1.386 . S
C1537 C1541 1.393 . S
C1538 H1530 0.950 . S
C1538 C1536 1.391 . S
C1538 C1539 1.400 . S
C1539 C1538 1.400 . S
C1539 C1540 1.398 . S
C1539 C1545 1.491 . S
C1540 H1531 0.950 . S
C1540 C1539 1.398 . S
C1540 C1541 1.391 . S
C1541 H1529 0.950 . S
C1541 C1537 1.393 . S
C1541 C1540 1.391 . S
C1542 H1532 0.950 . S
C1542 C1543 1.386 . S
C1542 C1544 1.391 1_455 S
C1543 C1542 1.386 . S
C1543 C1547 1.393 . S
C1544 H1533 0.950 . S
C1544 C1542 1.391 1_655 S
C1544 C1545 1.400 . S
C1545 C1539 1.491 . S
C1545 C1544 1.400 . S
C1545 C1546 1.398 1_655 S
C1546 H1534 0.950 . S
C1546 C1545 1.398 1_455 S
C1546 C1547 1.391 . S
C1547 H1535 0.950 . S
C1547 C1543 1.393 . S
C1547 C1546 1.391 . S
H1548 C1556 0.950 . S
H1549 C1561 0.950 . S
H1550 C1558 0.950 . S
H1551 C1560 0.950 . S
H1552 C1562 0.950 . S
H1553 C1564 0.950 . S
H1554 C1566 0.950 . S
H1555 C1567 0.950 . S
C1556 H1548 0.950 . S
C1556 C1557 1.386 . S
C1556 C1558 1.391 . S
C1557 C1556 1.386 . S
C1557 C1561 1.393 . S
C1558 H1550 0.950 . S
C1558 C1556 1.391 . S
C1558 C1559 1.400 . S
C1559 C1558 1.400 . S
C1559 C1560 1.398 . S
C1559 C1565 1.491 . S
C1560 H1551 0.950 . S
C1560 C1559 1.398 . S
C1560 C1561 1.391 . S
C1561 H1549 0.950 . S
C1561 C1557 1.393 . S
C1561 C1560 1.391 . S
C1562 H1552 0.950 . S
C1562 C1563 1.386 . S
C1562 C1564 1.391 . S
C1563 C1562 1.386 . S
C1563 C1567 1.393 . S
C1564 H1553 0.950 . S
C1564 C1562 1.391 . S
C1564 C1565 1.400 . S
C1565 C1559 1.491 . S
C1565 C1564 1.400 . S
C1565 C1566 1.398 . S
C1566 H1554 0.950 . S
C1566 C1565 1.398 . S
C1566 C1567 1.391 . S
C1567 H1555 0.950 . S
C1567 C1563 1.393 . S
C1567 C1566 1.391 . S
H1568 C1576 0.950 . S
H1569 C1581 0.950 . S
H1570 C1578 0.950 . S
H1571 C1580 0.950 . S
H1572 C1582 0.950 . S
H1573 C1584 0.950 . S
H1574 C1586 0.950 . S
H1575 C1587 0.950 . S
C1576 H1568 0.950 . S
C1576 C1577 1.386 . S
C1576 C1578 1.391 . S
C1577 C1576 1.386 . S
C1577 C1581 1.393 . S
C1578 H1570 0.950 . S
C1578 C1576 1.391 . S
C1578 C1579 1.400 . S
C1579 C1578 1.400 . S
C1579 C1580 1.398 . S
C1579 C1585 1.491 . S
C1580 H1571 0.950 . S
C1580 C1579 1.398 . S
C1580 C1581 1.391 . S
C1581 H1569 0.950 . S
C1581 C1577 1.393 . S
C1581 C1580 1.391 . S
C1582 H1572 0.950 . S
C1582 C1583 1.386 . S
C1582 C1584 1.391 . S
C1583 C1582 1.386 . S
C1583 C1587 1.393 . S
C1584 H1573 0.950 . S
C1584 C1582 1.391 . S
C1584 C1585 1.400 1_655 S
C1585 C1579 1.491 . S
C1585 C1584 1.400 1_455 S
C1585 C1586 1.398 . S
C1586 H1574 0.950 . S
C1586 C1585 1.398 . S
C1586 C1587 1.391 1_455 S
C1587 H1575 0.950 . S
C1587 C1583 1.393 . S
C1587 C1586 1.391 1_655 S
H1588 C1596 0.950 . S
H1589 C1601 0.950 . S
H1590 C1598 0.950 . S
H1591 C1600 0.950 . S
H1592 C1602 0.950 . S
H1593 C1604 0.950 . S
H1594 C1606 0.950 . S
H1595 C1607 0.950 . S
C1596 H1588 0.950 . S
C1596 C1597 1.386 . S
C1596 C1598 1.391 . S
C1597 C1596 1.386 . S
C1597 C1601 1.393 . S
C1598 H1590 0.950 . S
C1598 C1596 1.391 . S
C1598 C1599 1.400 . S
C1599 C1598 1.400 . S
C1599 C1600 1.398 . S
C1599 C1605 1.491 . S
C1600 H1591 0.950 . S
C1600 C1599 1.398 . S
C1600 C1601 1.391 . S
C1601 H1589 0.950 . S
C1601 C1597 1.393 . S
C1601 C1600 1.391 . S
C1602 H1592 0.950 . S
C1602 C1603 1.386 . S
C1602 C1604 1.391 . S
C1603 C1602 1.386 . S
C1603 C1607 1.393 . S
C1604 H1593 0.950 . S
C1604 C1602 1.391 . S
C1604 C1605 1.400 . S
C1605 C1599 1.491 . S
C1605 C1604 1.400 . S
C1605 C1606 1.398 . S
C1606 H1594 0.950 . S
C1606 C1605 1.398 . S
C1606 C1607 1.391 . S
C1607 H1595 0.950 . S
C1607 C1603 1.393 . S
C1607 C1606 1.391 . S
H1608 C1616 0.950 . S
H1609 C1621 0.950 . S
H1610 C1618 0.950 . S
H1611 C1620 0.950 . S
H1612 C1622 0.950 . S
H1613 C1624 0.950 . S
H1614 C1626 0.950 . S
H1615 C1627 0.950 . S
C1616 H1608 0.950 . S
C1616 C1617 1.386 . S
C1616 C1618 1.391 . S
C1617 C1616 1.386 . S
C1617 C1621 1.393 . S
C1618 H1610 0.950 . S
C1618 C1616 1.391 . S
C1618 C1619 1.400 . S
C1619 C1618 1.400 . S
C1619 C1620 1.398 . S
C1619 C1625 1.519 . S
C1620 H1611 0.950 . S
C1620 C1619 1.398 . S
C1620 C1621 1.391 . S
C1621 H1609 0.950 . S
C1621 C1617 1.393 . S
C1621 C1620 1.391 . S
C1622 H1612 0.950 . S
C1622 C1623 1.386 . S
C1622 C1624 1.391 . S
C1623 C1622 1.386 . S
C1623 C1627 1.393 . S
C1624 H1613 0.950 . S
C1624 C1622 1.391 . S
C1624 C1625 1.385 1_455 S
C1625 C1619 1.519 . S
C1625 C1624 1.385 1_655 S
C1625 C1626 1.385 1_655 S
C1626 H1614 0.950 . S
C1626 C1625 1.385 1_455 S
C1626 C1627 1.391 . S
C1627 H1615 0.950 . S
C1627 C1623 1.393 . S
C1627 C1626 1.391 . S
H1628 C1636 0.950 . S
H1629 C1641 0.950 . S
H1630 C1638 0.950 . S
H1631 C1640 0.950 . S
H1632 C1642 0.950 . S
H1633 C1644 0.950 . S
H1634 C1646 0.950 . S
H1635 C1647 0.950 . S
C1636 H1628 0.950 . S
C1636 C1637 1.386 . S
C1636 C1638 1.391 . S
C1637 C1636 1.386 . S
C1637 C1641 1.393 . S
C1638 H1630 0.950 . S
C1638 C1636 1.391 . S
C1638 C1639 1.400 . S
C1639 C1638 1.400 . S
C1639 C1640 1.398 . S
C1639 C1645 1.491 . S
C1640 H1631 0.950 . S
C1640 C1639 1.398 . S
C1640 C1641 1.391 . S
C1641 H1629 0.950 . S
C1641 C1637 1.393 . S
C1641 C1640 1.391 . S
C1642 H1632 0.950 . S
C1642 C1643 1.386 . S
C1642 C1644 1.391 . S
C1643 C1642 1.386 . S
C1643 C1647 1.393 . S
C1644 H1633 0.950 . S
C1644 C1642 1.391 . S
C1644 C1645 1.400 . S
C1645 C1639 1.491 . S
C1645 C1644 1.400 . S
C1645 C1646 1.398 . S
C1646 H1634 0.950 . S
C1646 C1645 1.398 . S
C1646 C1647 1.391 . S
C1647 H1635 0.950 . S
C1647 C1643 1.393 . S
C1647 C1646 1.391 . S
H1648 C1656 0.950 . S
H1649 C1661 0.950 . S
H1650 C1658 0.950 . S
H1651 C1660 0.950 . S
H1652 C1662 0.950 . S
H1653 C1664 0.950 . S
H1654 C1666 0.950 . S
H1655 C1667 0.950 . S
C1656 H1648 0.950 . S
C1656 C1657 1.386 . S
C1656 C1658 1.391 . S
C1657 C1656 1.386 . S
C1657 C1661 1.393 . S
C1658 H1650 0.950 . S
C1658 C1656 1.391 . S
C1658 C1659 1.400 . S
C1659 C1658 1.400 . S
C1659 C1660 1.398 . S
C1659 C1665 1.491 . S
C1660 H1651 0.950 . S
C1660 C1659 1.398 . S
C1660 C1661 1.391 . S
C1661 H1649 0.950 . S
C1661 C1657 1.393 . S
C1661 C1660 1.391 . S
C1662 H1652 0.950 . S
C1662 C1663 1.386 . S
C1662 C1664 1.391 . S
C1663 C1662 1.386 . S
C1663 C1667 1.393 . S
C1664 H1653 0.950 . S
C1664 C1662 1.391 . S
C1664 C1665 1.400 . S
C1665 C1659 1.491 . S
C1665 C1664 1.400 . S
C1665 C1666 1.398 . S
C1666 H1654 0.950 . S
C1666 C1665 1.398 . S
C1666 C1667 1.391 . S
C1667 H1655 0.950 . S
C1667 C1663 1.393 . S
C1667 C1666 1.391 . S
H1668 C1676 0.950 . S
H1669 C1681 0.950 . S
H1670 C1678 0.950 . S
H1671 C1680 0.950 . S
H1672 C1682 0.950 . S
H1673 C1684 0.950 . S
H1674 C1686 0.950 . S
H1675 C1687 0.950 . S
C1676 H1668 0.950 . S
C1676 C1677 1.386 . S
C1676 C1678 1.391 . S
C1677 C1676 1.386 . S
C1677 C1681 1.393 . S
C1678 H1670 0.950 . S
C1678 C1676 1.391 . S
C1678 C1679 1.400 . S
C1679 C1678 1.400 . S
C1679 C1680 1.398 . S
C1679 C1685 1.491 . S
C1680 H1671 0.950 . S
C1680 C1679 1.398 . S
C1680 C1681 1.391 . S
C1681 H1669 0.950 . S
C1681 C1677 1.393 . S
C1681 C1680 1.391 . S
C1682 H1672 0.950 . S
C1682 C1683 1.386 . S
C1682 C1684 1.391 . S
C1683 C1682 1.386 . S
C1683 C1687 1.393 . S
C1684 H1673 0.950 . S
C1684 C1682 1.391 . S
C1684 C1685 1.400 1_556 S
C1685 C1679 1.491 . S
C1685 C1684 1.400 1_554 S
C1685 C1686 1.398 . S
C1686 H1674 0.950 . S
C1686 C1685 1.398 . S
C1686 C1687 1.391 1_554 S
C1687 H1675 0.950 . S
C1687 C1683 1.393 . S
C1687 C1686 1.391 1_556 S
H1688 C1696 0.950 . S
H1689 C1701 0.950 1_455 S
H1690 C1698 0.950 . S
H1691 C1700 0.950 . S
H1692 C1702 0.950 . S
H1693 C1704 0.950 . S
H1694 C1706 0.950 . S
H1695 C1707 0.950 . S
C1696 H1688 0.950 . S
C1696 C1697 1.386 . S
C1696 C1698 1.391 . S
C1697 C1696 1.386 . S
C1697 C1701 1.393 . S
C1698 H1690 0.950 . S
C1698 C1696 1.391 . S
C1698 C1699 1.400 . S
C1699 C1698 1.400 . S
C1699 C1700 1.398 . S
C1699 C1705 1.491 . S
C1700 H1691 0.950 . S
C1700 C1699 1.398 . S
C1700 C1701 1.391 . S
C1701 H1689 0.950 1_655 S
C1701 C1697 1.393 . S
C1701 C1700 1.391 . S
C1702 H1692 0.950 . S
C1702 C1703 1.386 . S
C1702 C1704 1.391 . S
C1703 C1702 1.386 . S
C1703 C1707 1.393 . S
C1704 H1693 0.950 . S
C1704 C1702 1.391 . S
C1704 C1705 1.400 . S
C1705 C1699 1.491 . S
C1705 C1704 1.400 . S
C1705 C1706 1.398 . S
C1706 H1694 0.950 . S
C1706 C1705 1.398 . S
C1706 C1707 1.391 . S
C1707 H1695 0.950 . S
C1707 C1703 1.393 . S
C1707 C1706 1.391 . S
H1708 C1716 0.950 . S
H1709 C1721 0.950 . S
H1710 C1718 0.950 . S
H1711 C1720 0.950 . S
H1712 C1722 0.950 . S
H1713 C1724 0.950 . S
H1714 C1726 0.950 . S
H1715 C1727 0.950 . S
C1716 H1708 0.950 . S
C1716 C1717 1.386 . S
C1716 C1718 1.391 . S
C1717 C1716 1.386 . S
C1717 C1721 1.393 . S
C1718 H1710 0.950 . S
C1718 C1716 1.391 . S
C1718 C1719 1.400 . S
C1719 C1718 1.400 . S
C1719 C1720 1.398 . S
C1719 C1725 1.491 . S
C1720 H1711 0.950 . S
C1720 C1719 1.398 . S
C1720 C1721 1.391 . S
C1721 H1709 0.950 . S
C1721 C1717 1.393 . S
C1721 C1720 1.391 . S
C1722 H1712 0.950 . S
C1722 C1723 1.386 . S
C1722 C1724 1.391 . S
C1723 C1722 1.386 . S
C1723 C1727 1.393 . S
C1724 H1713 0.950 . S
C1724 C1722 1.391 . S
C1724 C1725 1.400 . S
C1725 C1719 1.491 . S
C1725 C1724 1.400 . S
C1725 C1726 1.398 . S
C1726 H1714 0.950 . S
C1726 C1725 1.398 . S
C1726 C1727 1.391 . S
C1727 H1715 0.950 . S
C1727 C1723 1.393 . S
C1727 C1726 1.391 . S
H1728 C1736 0.950 . S
H1729 C1741 0.950 . S
H1730 C1738 0.950 . S
H1731 C1740 0.950 . S
H1732 C1742 0.950 . S
H1733 C1744 0.950 . S
H1734 C1746 0.950 . S
H1735 C1747 0.950 . S
C1736 H1728 0.950 . S
C1736 C1737 1.386 . S
C1736 C1738 1.391 . S
C1737 C1736 1.386 . S
C1737 C1741 1.393 . S
C1738 H1730 0.950 . S
C1738 C1736 1.391 . S
C1738 C1739 1.400 . S
C1739 C1738 1.400 . S
C1739 C1740 1.398 . S
C1739 C1745 1.491 . S
C1740 H1731 0.950 . S
C1740 C1739 1.398 . S
C1740 C1741 1.391 . S
C1741 H1729 0.950 . S
C1741 C1737 1.393 . S
C1741 C1740 1.391 . S
C1742 H1732 0.950 . S
C1742 C1743 1.386 . S
C1742 C1744 1.391 . S
C1743 C1742 1.386 . S
C1743 C1747 1.393 . S
C1744 H1733 0.950 . S
C1744 C1742 1.391 . S
C1744 C1745 1.400 . S
C1745 C1739 1.491 . S
C1745 C1744 1.400 . S
C1745 C1746 1.398 . S
C1746 H1734 0.950 . S
C1746 C1745 1.398 . S
C1746 C1747 1.391 . S
C1747 H1735 0.950 . S
C1747 C1743 1.393 . S
C1747 C1746 1.391 . S
H1748 C1756 0.950 . S
H1749 C1761 0.950 . S
H1750 C1758 0.950 . S
H1751 C1760 0.950 . S
H1752 C1762 0.950 . S
H1753 C1764 0.955 . S
H1754 C1766 0.950 . S
H1755 C1767 0.950 . S
C1756 H1748 0.950 . S
C1756 C1757 1.386 . S
C1756 C1758 1.391 . S
C1757 C1756 1.386 . S
C1757 C1761 1.393 . S
C1758 H1750 0.950 . S
C1758 C1756 1.391 . S
C1758 C1759 1.400 . S
C1759 C1758 1.400 . S
C1759 C1760 1.398 . S
C1759 C1765 1.491 1_556 S
C1760 H1751 0.950 . S
C1760 C1759 1.398 . S
C1760 C1761 1.391 . S
C1761 H1749 0.950 . S
C1761 C1757 1.393 . S
C1761 C1760 1.391 . S
C1762 H1752 0.950 . S
C1762 C1763 1.386 . S
C1762 C1764 1.387 1_554 S
C1763 C1762 1.386 . S
C1763 C1767 1.393 . S
C1764 H1753 0.955 . S
C1764 C1762 1.387 1_556 S
C1764 C1765 1.400 1_556 S
C1765 C1759 1.491 1_554 S
C1765 C1764 1.400 1_554 S
C1765 C1766 1.398 . S
C1766 H1754 0.950 . S
C1766 C1765 1.398 . S
C1766 C1767 1.391 . S
C1767 H1755 0.950 . S
C1767 C1763 1.393 . S
C1767 C1766 1.391 . S
H1768 C1776 0.950 . S
H1769 C1781 0.950 . S
H1770 C1778 0.950 . S
H1771 C1780 0.950 . S
H1772 C1782 0.950 . S
H1773 C1784 0.950 . S
H1774 C1786 0.950 . S
H1775 C1787 0.950 . S
C1776 H1768 0.950 . S
C1776 C1777 1.386 . S
C1776 C1778 1.391 . S
C1777 C1776 1.386 . S
C1777 C1781 1.393 . S
C1778 H1770 0.950 . S
C1778 C1776 1.391 . S
C1778 C1779 1.400 . S
C1779 C1778 1.400 . S
C1779 C1780 1.398 . S
C1779 C1785 1.491 . S
C1780 H1771 0.950 . S
C1780 C1779 1.398 . S
C1780 C1781 1.391 . S
C1781 H1769 0.950 . S
C1781 C1777 1.393 . S
C1781 C1780 1.391 . S
C1782 H1772 0.950 . S
C1782 C1783 1.386 . S
C1782 C1784 1.391 . S
C1783 C1782 1.386 . S
C1783 C1787 1.393 . S
C1784 H1773 0.950 . S
C1784 C1782 1.391 . S
C1784 C1785 1.400 . S
C1785 C1779 1.491 . S
C1785 C1784 1.400 . S
C1785 C1786 1.398 . S
C1786 H1774 0.950 . S
C1786 C1785 1.398 . S
C1786 C1787 1.391 . S
C1787 H1775 0.950 . S
C1787 C1783 1.393 . S
C1787 C1786 1.391 . S
H1788 C1796 0.950 . S
H1789 C1801 0.950 . S
H1790 C1798 0.950 . S
H1791 C1800 0.950 . S
H1792 C1802 0.950 . S
H1793 C1804 0.950 . S
H1794 C1806 0.950 . S
H1795 C1807 0.950 . S
C1796 H1788 0.950 . S
C1796 C1797 1.386 . S
C1796 C1798 1.391 . S
C1797 C1796 1.386 . S
C1797 C1801 1.393 . S
C1798 H1790 0.950 . S
C1798 C1796 1.391 . S
C1798 C1799 1.400 . S
C1799 C1798 1.400 . S
C1799 C1800 1.398 . S
C1799 C1805 1.491 . S
C1800 H1791 0.950 . S
C1800 C1799 1.398 . S
C1800 C1801 1.391 . S
C1801 H1789 0.950 . S
C1801 C1797 1.393 . S
C1801 C1800 1.391 . S
C1802 H1792 0.950 . S
C1802 C1803 1.386 . S
C1802 C1804 1.391 . S
C1803 C1802 1.386 . S
C1803 C1807 1.393 . S
C1804 H1793 0.950 . S
C1804 C1802 1.391 . S
C1804 C1805 1.400 . S
C1805 C1799 1.491 . S
C1805 C1804 1.400 . S
C1805 C1806 1.398 . S
C1806 H1794 0.950 . S
C1806 C1805 1.398 . S
C1806 C1807 1.391 . S
C1807 H1795 0.950 . S
C1807 C1803 1.393 . S
C1807 C1806 1.391 . S
H1808 C1816 0.950 . S
H1809 C1821 0.950 . S
H1810 C1818 0.950 . S
H1811 C1820 0.950 . S
H1812 C1822 0.950 . S
H1813 C1824 0.950 . S
H1814 C1826 0.950 . S
H1815 C1827 0.950 . S
C1816 H1808 0.950 . S
C1816 C1817 1.386 . S
C1816 C1818 1.391 . S
C1817 C1816 1.386 . S
C1817 C1821 1.393 . S
C1818 H1810 0.950 . S
C1818 C1816 1.391 . S
C1818 C1819 1.400 . S
C1819 C1818 1.400 . S
C1819 C1820 1.398 . S
C1819 C1825 1.491 . S
C1820 H1811 0.950 . S
C1820 C1819 1.398 . S
C1820 C1821 1.391 . S
C1821 H1809 0.950 . S
C1821 C1817 1.393 . S
C1821 C1820 1.391 . S
C1822 H1812 0.950 . S
C1822 C1823 1.386 . S
C1822 C1824 1.391 . S
C1823 C1822 1.386 . S
C1823 C1827 1.393 . S
C1824 H1813 0.950 . S
C1824 C1822 1.391 . S
C1824 C1825 1.400 . S
C1825 C1819 1.491 . S
C1825 C1824 1.400 . S
C1825 C1826 1.398 . S
C1826 H1814 0.950 . S
C1826 C1825 1.398 . S
C1826 C1827 1.391 . S
C1827 H1815 0.950 . S
C1827 C1823 1.393 . S
C1827 C1826 1.391 . S
H1828 C1836 0.950 . S
H1829 C1841 0.950 . S
H1830 C1838 0.950 . S
H1831 C1840 0.950 . S
H1832 C1842 0.950 . S
H1833 C1844 0.950 . S
H1834 C1846 0.950 . S
H1835 C1847 0.950 . S
C1836 H1828 0.950 . S
C1836 C1837 1.386 . S
C1836 C1838 1.391 . S
C1837 C1836 1.386 . S
C1837 C1841 1.393 . S
C1838 H1830 0.950 . S
C1838 C1836 1.391 . S
C1838 C1839 1.400 . S
C1839 C1838 1.400 . S
C1839 C1840 1.398 . S
C1839 C1845 1.491 . S
C1840 H1831 0.950 . S
C1840 C1839 1.398 . S
C1840 C1841 1.391 . S
C1841 H1829 0.950 . S
C1841 C1837 1.393 . S
C1841 C1840 1.391 . S
C1842 H1832 0.950 . S
C1842 C1843 1.386 . S
C1842 C1844 1.391 . S
C1843 C1842 1.386 . S
C1843 C1847 1.393 . S
C1844 H1833 0.950 . S
C1844 C1842 1.391 . S
C1844 C1845 1.400 . S
C1845 C1839 1.491 . S
C1845 C1844 1.400 . S
C1845 C1846 1.398 . S
C1846 H1834 0.950 . S
C1846 C1845 1.398 . S
C1846 C1847 1.391 . S
C1847 H1835 0.950 . S
C1847 C1843 1.393 . S
C1847 C1846 1.391 . S
H1848 C1856 0.950 . S
H1849 C1861 0.950 . S
H1850 C1858 0.950 . S
H1851 C1860 0.950 . S
H1852 C1862 0.950 . S
H1853 C1864 0.950 . S
H1854 C1866 0.950 . S
H1855 C1867 0.950 . S
C1856 H1848 0.950 . S
C1856 C1857 1.386 . S
C1856 C1858 1.391 . S
C1857 C1856 1.386 . S
C1857 C1861 1.393 . S
C1858 H1850 0.950 . S
C1858 C1856 1.391 . S
C1858 C1859 1.400 . S
C1859 C1858 1.400 . S
C1859 C1860 1.398 . S
C1859 C1865 1.491 . S
C1860 H1851 0.950 . S
C1860 C1859 1.398 . S
C1860 C1861 1.391 . S
C1861 H1849 0.950 . S
C1861 C1857 1.393 . S
C1861 C1860 1.391 . S
C1862 H1852 0.950 . S
C1862 C1863 1.386 . S
C1862 C1864 1.391 . S
C1863 C1862 1.386 . S
C1863 C1867 1.393 . S
C1864 H1853 0.950 . S
C1864 C1862 1.391 . S
C1864 C1865 1.400 . S
C1865 C1859 1.491 . S
C1865 C1864 1.400 . S
C1865 C1866 1.398 . S
C1866 H1854 0.950 . S
C1866 C1865 1.398 . S
C1866 C1867 1.391 . S
C1867 H1855 0.950 . S
C1867 C1863 1.393 . S
C1867 C1866 1.391 . S
H1868 C1876 0.950 . S
H1869 C1881 0.950 . S
H1870 C1878 0.950 . S
H1871 C1880 0.950 . S
H1872 C1882 0.950 . S
H1873 C1884 0.950 . S
H1874 C1886 0.950 . S
H1875 C1887 0.950 . S
C1876 H1868 0.950 . S
C1876 C1877 1.386 . S
C1876 C1878 1.391 . S
C1877 C1876 1.386 . S
C1877 C1881 1.393 . S
C1878 H1870 0.950 . S
C1878 C1876 1.391 . S
C1878 C1879 1.400 . S
C1879 C1878 1.400 . S
C1879 C1880 1.398 . S
C1879 C1885 1.491 . S
C1880 H1871 0.950 . S
C1880 C1879 1.398 . S
C1880 C1881 1.391 . S
C1881 H1869 0.950 . S
C1881 C1877 1.393 . S
C1881 C1880 1.391 . S
C1882 H1872 0.950 . S
C1882 C1883 1.386 . S
C1882 C1884 1.391 . S
C1883 C1882 1.386 . S
C1883 C1887 1.393 . S
C1884 H1873 0.950 . S
C1884 C1882 1.391 . S
C1884 C1885 1.400 . S
C1885 C1879 1.491 . S
C1885 C1884 1.400 . S
C1885 C1886 1.398 . S
C1886 H1874 0.950 . S
C1886 C1885 1.398 . S
C1886 C1887 1.391 . S
C1887 H1875 0.950 . S
C1887 C1883 1.393 . S
C1887 C1886 1.391 . S
H1888 C1896 0.950 . S
H1889 C1901 0.950 . S
H1890 C1898 0.950 . S
H1891 C1900 0.950 . S
H1892 C1902 0.950 . S
H1893 C1904 0.950 . S
H1894 C1906 0.950 . S
H1895 C1907 0.950 . S
C1896 H1888 0.950 . S
C1896 C1897 1.386 . S
C1896 C1898 1.391 . S
C1897 C1896 1.386 . S
C1897 C1901 1.393 . S
C1898 H1890 0.950 . S
C1898 C1896 1.391 . S
C1898 C1899 1.400 . S
C1899 C1898 1.400 . S
C1899 C1900 1.398 . S
C1899 C1905 1.491 . S
C1900 H1891 0.950 . S
C1900 C1899 1.398 . S
C1900 C1901 1.391 . S
C1901 H1889 0.950 . S
C1901 C1897 1.393 . S
C1901 C1900 1.391 . S
C1902 H1892 0.950 . S
C1902 C1903 1.386 . S
C1902 C1904 1.391 . S
C1903 C1902 1.386 . S
C1903 C1907 1.393 . S
C1904 H1893 0.950 . S
C1904 C1902 1.391 . S
C1904 C1905 1.400 . S
C1905 C1899 1.491 . S
C1905 C1904 1.400 . S
C1905 C1906 1.398 . S
C1906 H1894 0.950 . S
C1906 C1905 1.398 . S
C1906 C1907 1.391 . S
C1907 H1895 0.950 . S
C1907 C1903 1.393 . S
C1907 C1906 1.391 . S
H1908 C1916 0.950 . S
H1909 C1921 0.950 . S
H1910 C1918 0.950 . S
H1911 C1920 0.950 . S
H1912 C1922 0.950 . S
H1913 C1924 0.950 . S
H1914 C1926 0.950 . S
H1915 C1927 0.950 . S
C1916 H1908 0.950 . S
C1916 C1917 1.386 . S
C1916 C1918 1.391 . S
C1917 C1916 1.386 . S
C1917 C1921 1.393 . S
C1918 H1910 0.950 . S
C1918 C1916 1.391 . S
C1918 C1919 1.400 . S
C1919 C1918 1.400 . S
C1919 C1920 1.398 . S
C1919 C1925 1.491 . S
C1920 H1911 0.950 . S
C1920 C1919 1.398 . S
C1920 C1921 1.391 . S
C1921 H1909 0.950 . S
C1921 C1917 1.393 . S
C1921 C1920 1.391 . S
C1922 H1912 0.950 . S
C1922 C1923 1.386 . S
C1922 C1924 1.391 . S
C1923 C1922 1.386 . S
C1923 C1927 1.393 . S
C1924 H1913 0.950 . S
C1924 C1922 1.391 . S
C1924 C1925 1.400 . S
C1925 C1919 1.491 . S
C1925 C1924 1.400 . S
C1925 C1926 1.398 . S
C1926 H1914 0.950 . S
C1926 C1925 1.398 . S
C1926 C1927 1.391 . S
C1927 H1915 0.950 . S
C1927 C1923 1.393 . S
C1927 C1926 1.391 . S
H1928 C1936 0.950 . S
H1929 C1941 0.950 . S
H1930 C1938 0.950 . S
H1931 C1940 0.950 . S
H1932 C1942 0.950 . S
H1933 C1944 0.950 . S
H1934 C1946 0.950 . S
H1935 C1947 0.950 . S
C1936 H1928 0.950 . S
C1936 C1937 1.386 . S
C1936 C1938 1.391 . S
C1937 C1936 1.386 . S
C1937 C1941 1.393 . S
C1938 H1930 0.950 . S
C1938 C1936 1.391 . S
C1938 C1939 1.400 . S
C1939 C1938 1.400 . S
C1939 C1940 1.398 . S
C1939 C1945 1.491 . S
C1940 H1931 0.950 . S
C1940 C1939 1.398 . S
C1940 C1941 1.391 . S
C1941 H1929 0.950 . S
C1941 C1937 1.393 . S
C1941 C1940 1.391 . S
C1942 H1932 0.950 . S
C1942 C1943 1.386 . S
C1942 C1944 1.391 . S
C1943 C1942 1.386 . S
C1943 C1947 1.393 . S
C1944 H1933 0.950 . S
C1944 C1942 1.391 . S
C1944 C1945 1.400 . S
C1945 C1939 1.491 . S
C1945 C1944 1.400 . S
C1945 C1946 1.398 . S
C1946 H1934 0.950 . S
C1946 C1945 1.398 . S
C1946 C1947 1.391 . S
C1947 H1935 0.950 . S
C1947 C1943 1.393 . S
C1947 C1946 1.391 . S
H1948 C1956 0.950 . S
H1949 C1961 0.950 . S
H1950 C1958 0.950 . S
H1951 C1960 0.950 . S
H1952 C1962 0.950 . S
H1953 C1964 0.950 . S
H1954 C1966 0.950 . S
H1955 C1967 0.950 . S
C1956 H1948 0.950 . S
C1956 C1957 1.386 . S
C1956 C1958 1.391 . S
C1957 C1956 1.386 . S
C1957 C1961 1.393 . S
C1958 H1950 0.950 . S
C1958 C1956 1.391 . S
C1958 C1959 1.400 . S
C1959 C1958 1.400 . S
C1959 C1960 1.398 . S
C1959 C1965 1.491 . S
C1960 H1951 0.950 . S
C1960 C1959 1.398 . S
C1960 C1961 1.391 . S
C1961 H1949 0.950 . S
C1961 C1957 1.393 . S
C1961 C1960 1.391 . S
C1962 H1952 0.950 . S
C1962 C1963 1.386 . S
C1962 C1964 1.391 . S
C1963 C1962 1.386 . S
C1963 C1967 1.393 . S
C1964 H1953 0.950 . S
C1964 C1962 1.391 . S
C1964 C1965 1.400 . S
C1965 C1959 1.491 . S
C1965 C1964 1.400 . S
C1965 C1966 1.398 . S
C1966 H1954 0.950 . S
C1966 C1965 1.398 . S
C1966 C1967 1.391 . S
C1967 H1955 0.950 . S
C1967 C1963 1.393 . S
C1967 C1966 1.391 . S
H1968 C1976 0.950 . S
H1969 C1981 0.950 . S
H1970 C1978 0.950 . S
H1971 C1980 0.950 . S
H1972 C1982 0.950 . S
H1973 C1984 0.950 . S
H1974 C1986 0.950 . S
H1975 C1987 0.950 . S
C1976 H1968 0.950 . S
C1976 C1977 1.386 . S
C1976 C1978 1.391 . S
C1977 C1976 1.386 . S
C1977 C1981 1.393 . S
C1978 H1970 0.950 . S
C1978 C1976 1.391 . S
C1978 C1979 1.400 . S
C1979 C1978 1.400 . S
C1979 C1980 1.398 . S
C1979 C1985 1.491 . S
C1980 H1971 0.950 . S
C1980 C1979 1.398 . S
C1980 C1981 1.391 . S
C1981 H1969 0.950 . S
C1981 C1977 1.393 . S
C1981 C1980 1.391 . S
C1982 H1972 0.950 . S
C1982 C1983 1.386 . S
C1982 C1984 1.391 . S
C1983 C1982 1.386 . S
C1983 C1987 1.393 . S
C1984 H1973 0.950 . S
C1984 C1982 1.391 . S
C1984 C1985 1.400 . S
C1985 C1979 1.491 . S
C1985 C1984 1.400 . S
C1985 C1986 1.398 . S
C1986 H1974 0.950 . S
C1986 C1985 1.398 . S
C1986 C1987 1.391 . S
C1987 H1975 0.950 . S
C1987 C1983 1.393 . S
C1987 C1986 1.391 . S
H1988 C1996 0.950 . S
H1989 C2001 0.950 . S
H1990 C1998 0.950 . S
H1991 C2000 0.950 . S
H1992 C2002 0.950 . S
H1993 C2004 0.950 . S
H1994 C2006 0.950 . S
H1995 C2007 0.950 . S
C1996 H1988 0.950 . S
C1996 C1997 1.386 . S
C1996 C1998 1.391 . S
C1997 C1996 1.386 . S
C1997 C2001 1.393 . S
C1998 H1990 0.950 . S
C1998 C1996 1.391 . S
C1998 C1999 1.400 . S
C1999 C1998 1.400 . S
C1999 C2000 1.398 . S
C1999 C2005 1.491 . S
C2000 H1991 0.950 . S
C2000 C1999 1.398 . S
C2000 C2001 1.391 . S
C2001 H1989 0.950 . S
C2001 C1997 1.393 . S
C2001 C2000 1.391 . S
C2002 H1992 0.950 . S
C2002 C2003 1.386 . S
C2002 C2004 1.391 . S
C2003 C2002 1.386 . S
C2003 C2007 1.393 . S
C2004 H1993 0.950 . S
C2004 C2002 1.391 . S
C2004 C2005 1.400 . S
C2005 C1999 1.491 . S
C2005 C2004 1.400 . S
C2005 C2006 1.398 . S
C2006 H1994 0.950 . S
C2006 C2005 1.398 . S
C2006 C2007 1.391 . S
C2007 H1995 0.950 . S
C2007 C2003 1.393 . S
C2007 C2006 1.391 . S
H2008 C2016 0.950 . S
H2009 C2021 0.950 . S
H2010 C2018 0.950 . S
H2011 C2020 0.950 . S
H2012 C2022 0.950 . S
H2013 C2024 0.950 . S
H2014 C2026 0.950 . S
H2015 C2027 0.950 . S
C2016 H2008 0.950 . S
C2016 C2017 1.386 . S
C2016 C2018 1.391 . S
C2017 C2016 1.386 . S
C2017 C2021 1.393 . S
C2018 H2010 0.950 . S
C2018 C2016 1.391 . S
C2018 C2019 1.400 . S
C2019 C2018 1.400 . S
C2019 C2020 1.398 . S
C2019 C2025 1.491 . S
C2020 H2011 0.950 . S
C2020 C2019 1.398 . S
C2020 C2021 1.391 . S
C2021 H2009 0.950 . S
C2021 C2017 1.393 . S
C2021 C2020 1.391 . S
C2022 H2012 0.950 . S
C2022 C2023 1.386 . S
C2022 C2024 1.391 . S
C2023 C2022 1.386 . S
C2023 C2027 1.393 . S
C2024 H2013 0.950 . S
C2024 C2022 1.391 . S
C2024 C2025 1.400 . S
C2025 C2019 1.491 . S
C2025 C2024 1.400 . S
C2025 C2026 1.398 . S
C2026 H2014 0.950 . S
C2026 C2025 1.398 . S
C2026 C2027 1.391 . S
C2027 H2015 0.950 . S
C2027 C2023 1.393 . S
C2027 C2026 1.391 . S
H2028 C2036 0.950 . S
H2029 C2041 0.950 . S
H2030 C2038 0.950 . S
H2031 C2040 0.950 . S
H2032 C2042 0.950 . S
H2033 C2044 0.950 . S
H2034 C2046 0.950 . S
H2035 C2047 0.950 . S
C2036 H2028 0.950 . S
C2036 C2037 1.386 . S
C2036 C2038 1.391 . S
C2037 C2036 1.386 . S
C2037 C2041 1.393 . S
C2038 H2030 0.950 . S
C2038 C2036 1.391 . S
C2038 C2039 1.400 . S
C2039 C2038 1.400 . S
C2039 C2040 1.398 . S
C2039 C2045 1.491 . S
C2040 H2031 0.950 . S
C2040 C2039 1.398 . S
C2040 C2041 1.391 . S
C2041 H2029 0.950 . S
C2041 C2037 1.393 . S
C2041 C2040 1.391 . S
C2042 H2032 0.950 . S
C2042 C2043 1.386 . S
C2042 C2044 1.391 . S
C2043 C2042 1.386 . S
C2043 C2047 1.393 . S
C2044 H2033 0.950 . S
C2044 C2042 1.391 . S
C2044 C2045 1.400 . S
C2045 C2039 1.491 . S
C2045 C2044 1.400 . S
C2045 C2046 1.398 . S
C2046 H2034 0.950 . S
C2046 C2045 1.398 . S
C2046 C2047 1.391 . S
C2047 H2035 0.950 . S
C2047 C2043 1.393 . S
C2047 C2046 1.391 . S
H2048 C2056 0.950 . S
H2049 C2061 0.950 . S
H2050 C2058 0.950 . S
H2051 C2060 0.950 . S
H2052 C2062 0.950 . S
H2053 C2064 0.950 . S
H2054 C2066 0.950 . S
H2055 C2067 0.950 . S
C2056 H2048 0.950 . S
C2056 C2057 1.386 . S
C2056 C2058 1.391 . S
C2057 C2056 1.386 . S
C2057 C2061 1.393 . S
C2058 H2050 0.950 . S
C2058 C2056 1.391 . S
C2058 C2059 1.400 . S
C2059 C2058 1.400 . S
C2059 C2060 1.398 . S
C2059 C2065 1.491 . S
C2060 H2051 0.950 . S
C2060 C2059 1.398 . S
C2060 C2061 1.391 . S
C2061 H2049 0.950 . S
C2061 C2057 1.393 . S
C2061 C2060 1.391 . S
C2062 H2052 0.950 . S
C2062 C2063 1.386 . S
C2062 C2064 1.391 . S
C2063 C2062 1.386 . S
C2063 C2067 1.393 . S
C2064 H2053 0.950 . S
C2064 C2062 1.391 . S
C2064 C2065 1.400 . S
C2065 C2059 1.491 . S
C2065 C2064 1.400 . S
C2065 C2066 1.398 . S
C2066 H2054 0.950 . S
C2066 C2065 1.398 . S
C2066 C2067 1.391 . S
C2067 H2055 0.950 . S
C2067 C2063 1.393 . S
C2067 C2066 1.391 . S
H2068 C2076 0.950 . S
H2069 C2081 0.950 . S
H2070 C2078 0.950 . S
H2071 C2080 0.950 . S
H2072 C2082 0.950 . S
H2073 C2084 0.950 . S
H2074 C2086 0.950 . S
H2075 C2087 0.950 . S
C2076 H2068 0.950 . S
C2076 C2077 1.386 . S
C2076 C2078 1.391 . S
C2077 C2076 1.386 . S
C2077 C2081 1.393 . S
C2078 H2070 0.950 . S
C2078 C2076 1.391 . S
C2078 C2079 1.400 . S
C2079 C2078 1.400 . S
C2079 C2080 1.398 . S
C2079 C2085 1.491 . S
C2080 H2071 0.950 . S
C2080 C2079 1.398 . S
C2080 C2081 1.391 . S
C2081 H2069 0.950 . S
C2081 C2077 1.393 . S
C2081 C2080 1.391 . S
C2082 H2072 0.950 . S
C2082 C2083 1.386 . S
C2082 C2084 1.391 . S
C2083 C2082 1.386 . S
C2083 C2087 1.393 . S
C2084 H2073 0.950 . S
C2084 C2082 1.391 . S
C2084 C2085 1.400 . S
C2085 C2079 1.491 . S
C2085 C2084 1.400 . S
C2085 C2086 1.398 . S
C2086 H2074 0.950 . S
C2086 C2085 1.398 . S
C2086 C2087 1.391 . S
C2087 H2075 0.950 . S
C2087 C2083 1.393 . S
C2087 C2086 1.391 . S
H2088 C2096 0.950 . S
H2089 C2101 0.950 . S
H2090 C2098 0.950 . S
H2091 C2100 0.950 . S
H2092 C2102 0.950 . S
H2093 C2104 0.950 . S
H2094 C2106 0.950 . S
H2095 C2107 0.950 . S
C2096 H2088 0.950 . S
C2096 C2097 1.386 . S
C2096 C2098 1.391 . S
C2097 C2096 1.386 . S
C2097 C2101 1.393 . S
C2098 H2090 0.950 . S
C2098 C2096 1.391 . S
C2098 C2099 1.400 . S
C2099 C2098 1.400 . S
C2099 C2100 1.398 . S
C2099 C2105 1.491 . S
C2100 H2091 0.950 . S
C2100 C2099 1.398 . S
C2100 C2101 1.391 . S
C2101 H2089 0.950 . S
C2101 C2097 1.393 . S
C2101 C2100 1.391 . S
C2102 H2092 0.950 . S
C2102 C2103 1.386 . S
C2102 C2104 1.391 . S
C2103 C2102 1.386 . S
C2103 C2107 1.393 . S
C2104 H2093 0.950 . S
C2104 C2102 1.391 . S
C2104 C2105 1.400 . S
C2105 C2099 1.491 . S
C2105 C2104 1.400 . S
C2105 C2106 1.398 . S
C2106 H2094 0.950 . S
C2106 C2105 1.398 . S
C2106 C2107 1.391 . S
C2107 H2095 0.950 . S
C2107 C2103 1.393 . S
C2107 C2106 1.391 . S
H2108 C2116 0.950 . S
H2109 C2121 0.950 . S
H2110 C2118 0.950 . S
H2111 C2120 0.950 . S
H2112 C2122 0.950 . S
H2113 C2124 0.950 . S
H2114 C2126 0.949 . S
H2115 C2127 0.950 . S
C2116 H2108 0.950 . S
C2116 C2117 1.386 . S
C2116 C2118 1.391 . S
C2117 C2116 1.386 . S
C2117 C2121 1.393 . S
C2118 H2110 0.950 . S
C2118 C2116 1.391 . S
C2118 C2119 1.400 . S
C2119 C2118 1.400 . S
C2119 C2120 1.398 . S
C2119 C2125 1.481 1_655 S
C2120 H2111 0.950 . S
C2120 C2119 1.398 . S
C2120 C2121 1.391 . S
C2121 H2109 0.950 . S
C2121 C2117 1.393 . S
C2121 C2120 1.391 . S
C2122 H2112 0.950 . S
C2122 C2123 1.386 . S
C2122 C2124 1.391 . S
C2123 C2122 1.386 . S
C2123 C2127 1.393 . S
C2124 H2113 0.950 . S
C2124 C2122 1.391 . S
C2124 C2125 1.410 . S
C2125 C2119 1.481 1_455 S
C2125 C2124 1.410 . S
C2125 C2126 1.398 1_455 S
C2126 H2114 0.949 . S
C2126 C2125 1.398 1_655 S
C2126 C2127 1.391 1_655 S
C2127 H2115 0.950 . S
C2127 C2123 1.393 . S
C2127 C2126 1.391 1_455 S
H2128 C2136 0.950 . S
H2129 C2141 0.950 . S
H2130 C2138 0.950 . S
H2131 C2140 0.950 . S
H2132 C2142 0.950 . S
H2133 C2144 0.950 . S
H2134 C2146 0.950 . S
H2135 C2147 0.950 . S
C2136 H2128 0.950 . S
C2136 C2137 1.386 . S
C2136 C2138 1.391 . S
C2137 C2136 1.386 . S
C2137 C2141 1.393 . S
C2138 H2130 0.950 . S
C2138 C2136 1.391 . S
C2138 C2139 1.400 . S
C2139 C2138 1.400 . S
C2139 C2140 1.398 . S
C2139 C2145 1.491 . S
C2140 H2131 0.950 . S
C2140 C2139 1.398 . S
C2140 C2141 1.391 . S
C2141 H2129 0.950 . S
C2141 C2137 1.393 . S
C2141 C2140 1.391 . S
C2142 H2132 0.950 . S
C2142 C2143 1.386 . S
C2142 C2144 1.391 . S
C2143 C2142 1.386 . S
C2143 C2147 1.393 . S
C2144 H2133 0.950 . S
C2144 C2142 1.391 . S
C2144 C2145 1.400 . S
C2145 C2139 1.491 . S
C2145 C2144 1.400 . S
C2145 C2146 1.398 . S
C2146 H2134 0.950 . S
C2146 C2145 1.398 . S
C2146 C2147 1.391 . S
C2147 H2135 0.950 . S
C2147 C2143 1.393 . S
C2147 C2146 1.391 . S
H2148 C2156 0.950 . S
H2149 C2161 0.950 . S
H2150 C2158 0.950 . S
H2151 C2160 0.950 . S
H2152 C2162 0.950 . S
H2153 C2164 0.950 . S
H2154 C2166 0.950 . S
H2155 C2167 0.950 . S
C2156 H2148 0.950 . S
C2156 C2157 1.386 . S
C2156 C2158 1.391 . S
C2157 C2156 1.386 . S
C2157 C2161 1.393 . S
C2158 H2150 0.950 . S
C2158 C2156 1.391 . S
C2158 C2159 1.400 . S
C2159 C2158 1.400 . S
C2159 C2160 1.398 . S
C2159 C2165 1.491 1_556 S
C2160 H2151 0.950 . S
C2160 C2159 1.398 . S
C2160 C2161 1.391 . S
C2161 H2149 0.950 . S
C2161 C2157 1.393 . S
C2161 C2160 1.391 . S
C2162 H2152 0.950 . S
C2162 C2163 1.386 . S
C2162 C2164 1.391 . S
C2163 C2162 1.386 . S
C2163 C2167 1.393 . S
C2164 H2153 0.950 . S
C2164 C2162 1.391 . S
C2164 C2165 1.400 . S
C2165 C2159 1.491 1_554 S
C2165 C2164 1.400 . S
C2165 C2166 1.398 . S
C2166 H2154 0.950 . S
C2166 C2165 1.398 . S
C2166 C2167 1.391 . S
C2167 H2155 0.950 . S
C2167 C2163 1.393 . S
C2167 C2166 1.391 . S
H2168 C2176 0.950 . S
H2169 C2181 0.950 . S
H2170 C2178 0.950 . S
H2171 C2180 0.950 . S
H2172 C2182 0.950 . S
H2173 C2184 0.950 . S
H2174 C2186 0.950 . S
H2175 C2187 0.950 . S
C2176 H2168 0.950 . S
C2176 C2177 1.386 . S
C2176 C2178 1.391 . S
C2177 C2176 1.386 . S
C2177 C2181 1.393 . S
C2178 H2170 0.950 . S
C2178 C2176 1.391 . S
C2178 C2179 1.400 . S
C2179 C2178 1.400 . S
C2179 C2180 1.398 . S
C2179 C2185 1.491 . S
C2180 H2171 0.950 . S
C2180 C2179 1.398 . S
C2180 C2181 1.391 . S
C2181 H2169 0.950 . S
C2181 C2177 1.393 . S
C2181 C2180 1.391 . S
C2182 H2172 0.950 . S
C2182 C2183 1.386 . S
C2182 C2184 1.391 . S
C2183 C2182 1.386 . S
C2183 C2187 1.393 . S
C2184 H2173 0.950 . S
C2184 C2182 1.391 . S
C2184 C2185 1.400 . S
C2185 C2179 1.491 . S
C2185 C2184 1.400 . S
C2185 C2186 1.398 . S
C2186 H2174 0.950 . S
C2186 C2185 1.398 . S
C2186 C2187 1.391 . S
C2187 H2175 0.950 . S
C2187 C2183 1.393 . S
C2187 C2186 1.391 . S
H2188 C2196 0.950 . S
H2189 C2201 0.950 . S
H2190 C2198 0.950 . S
H2191 C2200 0.950 . S
H2192 C2202 0.950 . S
H2193 C2204 0.950 . S
H2194 C2206 0.950 . S
H2195 C2207 0.950 . S
C2196 H2188 0.950 . S
C2196 C2197 1.386 . S
C2196 C2198 1.391 . S
C2197 C2196 1.386 . S
C2197 C2201 1.393 . S
C2198 H2190 0.950 . S
C2198 C2196 1.391 . S
C2198 C2199 1.400 . S
C2199 C2198 1.400 . S
C2199 C2200 1.398 . S
C2199 C2205 1.491 . S
C2200 H2191 0.950 . S
C2200 C2199 1.398 . S
C2200 C2201 1.391 . S
C2201 H2189 0.950 . S
C2201 C2197 1.393 . S
C2201 C2200 1.391 . S
C2202 H2192 0.950 . S
C2202 C2203 1.386 . S
C2202 C2204 1.391 . S
C2203 C2202 1.386 . S
C2203 C2207 1.393 . S
C2204 H2193 0.950 . S
C2204 C2202 1.391 . S
C2204 C2205 1.400 . S
C2205 C2199 1.491 . S
C2205 C2204 1.400 . S
C2205 C2206 1.398 . S
C2206 H2194 0.950 . S
C2206 C2205 1.398 . S
C2206 C2207 1.391 . S
C2207 H2195 0.950 . S
C2207 C2203 1.393 . S
C2207 C2206 1.391 . S
H2208 C2216 0.950 . S
H2209 C2221 0.950 . S
H2210 C2218 0.950 . S
H2211 C2220 0.950 . S
H2212 C2222 0.950 . S
H2213 C2224 0.950 . S
H2214 C2226 0.950 . S
H2215 C2227 0.950 . S
C2216 H2208 0.950 . S
C2216 C2217 1.386 . S
C2216 C2218 1.391 . S
C2217 C2216 1.386 . S
C2217 C2221 1.393 . S
C2218 H2210 0.950 . S
C2218 C2216 1.391 . S
C2218 C2219 1.400 . S
C2219 C2218 1.400 . S
C2219 C2220 1.398 . S
C2219 C2225 1.491 . S
C2220 H2211 0.950 . S
C2220 C2219 1.398 . S
C2220 C2221 1.391 . S
C2221 H2209 0.950 . S
C2221 C2217 1.393 . S
C2221 C2220 1.391 . S
C2222 H2212 0.950 . S
C2222 C2223 1.386 . S
C2222 C2224 1.391 . S
C2223 C2222 1.386 . S
C2223 C2227 1.393 . S
C2224 H2213 0.950 . S
C2224 C2222 1.391 . S
C2224 C2225 1.400 . S
C2225 C2219 1.491 . S
C2225 C2224 1.400 . S
C2225 C2226 1.398 . S
C2226 H2214 0.950 . S
C2226 C2225 1.398 . S
C2226 C2227 1.391 . S
C2227 H2215 0.950 . S
C2227 C2223 1.393 . S
C2227 C2226 1.391 . S
H2228 C2236 0.968 . S
H2229 C2241 0.950 . S
H2230 C2238 0.950 . S
H2231 C2240 0.950 . S
H2232 C2242 0.950 . S
H2233 C2244 0.950 1_554 S
H2234 C2246 0.950 . S
H2235 C2247 0.950 . S
C2236 H2228 0.968 . S
C2236 C2237 1.386 . S
C2236 C2238 1.391 . S
C2237 C2236 1.386 . S
C2237 C2241 1.393 . S
C2238 H2230 0.950 . S
C2238 C2236 1.391 . S
C2238 C2239 1.400 . S
C2239 C2238 1.400 . S
C2239 C2240 1.398 . S
C2239 C2245 1.491 . S
C2240 H2231 0.950 . S
C2240 C2239 1.398 . S
C2240 C2241 1.391 . S
C2241 H2229 0.950 . S
C2241 C2237 1.393 . S
C2241 C2240 1.391 . S
C2242 H2232 0.950 . S
C2242 C2243 1.386 . S
C2242 C2244 1.391 . S
C2243 C2242 1.386 . S
C2243 C2247 1.393 . S
C2244 H2233 0.950 1_556 S
C2244 C2242 1.391 . S
C2244 C2245 1.400 1_556 S
C2245 C2239 1.491 . S
C2245 C2244 1.400 1_554 S
C2245 C2246 1.398 1_554 S
C2246 H2234 0.950 . S
C2246 C2245 1.398 1_556 S
C2246 C2247 1.391 . S
C2247 H2235 0.950 . S
C2247 C2243 1.393 . S
C2247 C2246 1.391 . S
H2248 C2256 0.950 . S
H2249 C2261 0.950 . S
H2250 C2258 0.950 . S
H2251 C2260 0.950 . S
H2252 C2262 0.950 . S
H2253 C2264 0.950 . S
H2254 C2266 0.950 . S
H2255 C2267 0.950 . S
C2256 H2248 0.950 . S
C2256 C2257 1.386 . S
C2256 C2258 1.391 . S
C2257 C2256 1.386 . S
C2257 C2261 1.393 . S
C2258 H2250 0.950 . S
C2258 C2256 1.391 . S
C2258 C2259 1.400 . S
C2259 C2258 1.400 . S
C2259 C2260 1.398 . S
C2259 C2265 1.491 . S
C2260 H2251 0.950 . S
C2260 C2259 1.398 . S
C2260 C2261 1.391 . S
C2261 H2249 0.950 . S
C2261 C2257 1.393 . S
C2261 C2260 1.391 . S
C2262 H2252 0.950 . S
C2262 C2263 1.386 . S
C2262 C2264 1.391 . S
C2263 C2262 1.386 . S
C2263 C2267 1.393 . S
C2264 H2253 0.950 . S
C2264 C2262 1.391 . S
C2264 C2265 1.400 . S
C2265 C2259 1.491 . S
C2265 C2264 1.400 . S
C2265 C2266 1.398 . S
C2266 H2254 0.950 . S
C2266 C2265 1.398 . S
C2266 C2267 1.391 . S
C2267 H2255 0.950 . S
C2267 C2263 1.393 . S
C2267 C2266 1.391 . S
H2268 C2276 0.950 . S
H2269 C2281 0.950 . S
H2270 C2278 0.950 . S
H2271 C2280 0.950 . S
H2272 C2282 0.950 . S
H2273 C2284 0.950 . S
H2274 C2286 0.950 . S
H2275 C2287 0.950 . S
C2276 H2268 0.950 . S
C2276 C2277 1.386 . S
C2276 C2278 1.391 . S
C2277 C2276 1.386 . S
C2277 C2281 1.393 . S
C2278 H2270 0.950 . S
C2278 C2276 1.391 . S
C2278 C2279 1.400 . S
C2279 C2278 1.400 . S
C2279 C2280 1.398 . S
C2279 C2285 1.491 . S
C2280 H2271 0.950 . S
C2280 C2279 1.398 . S
C2280 C2281 1.391 . S
C2281 H2269 0.950 . S
C2281 C2277 1.393 . S
C2281 C2280 1.391 . S
C2282 H2272 0.950 . S
C2282 C2283 1.386 . S
C2282 C2284 1.391 . S
C2283 C2282 1.386 . S
C2283 C2287 1.393 . S
C2284 H2273 0.950 . S
C2284 C2282 1.391 . S
C2284 C2285 1.400 . S
C2285 C2279 1.491 . S
C2285 C2284 1.400 . S
C2285 C2286 1.398 . S
C2286 H2274 0.950 . S
C2286 C2285 1.398 . S
C2286 C2287 1.391 . S
C2287 H2275 0.950 . S
C2287 C2283 1.393 . S
C2287 C2286 1.391 . S
H2288 C2296 0.950 . S
H2289 C2301 0.950 . S
H2290 C2298 0.950 . S
H2291 C2300 0.950 . S
H2292 C2302 0.950 . S
H2293 C2304 0.950 . S
H2294 C2306 0.950 . S
H2295 C2307 0.950 . S
C2296 H2288 0.950 . S
C2296 C2297 1.386 . S
C2296 C2298 1.391 . S
C2297 C2296 1.386 . S
C2297 C2301 1.393 . S
C2298 H2290 0.950 . S
C2298 C2296 1.391 . S
C2298 C2299 1.400 . S
C2299 C2298 1.400 . S
C2299 C2300 1.398 . S
C2299 C2305 1.491 . S
C2300 H2291 0.950 . S
C2300 C2299 1.398 . S
C2300 C2301 1.391 . S
C2301 H2289 0.950 . S
C2301 C2297 1.393 . S
C2301 C2300 1.391 . S
C2302 H2292 0.950 . S
C2302 C2303 1.386 . S
C2302 C2304 1.391 . S
C2303 C2302 1.386 . S
C2303 C2307 1.393 . S
C2304 H2293 0.950 . S
C2304 C2302 1.391 . S
C2304 C2305 1.400 . S
C2305 C2299 1.491 . S
C2305 C2304 1.400 . S
C2305 C2306 1.398 . S
C2306 H2294 0.950 . S
C2306 C2305 1.398 . S
C2306 C2307 1.391 . S
C2307 H2295 0.950 . S
C2307 C2303 1.393 . S
C2307 C2306 1.391 . S
H2308 C2316 0.950 . S
H2309 C2321 0.950 . S
H2310 C2318 0.950 . S
H2311 C2320 0.950 . S
H2312 C2322 0.950 . S
H2313 C2324 0.950 . S
H2314 C2326 0.950 . S
H2315 C2327 0.950 . S
C2316 H2308 0.950 . S
C2316 C2317 1.386 . S
C2316 C2318 1.391 . S
C2317 C2316 1.386 . S
C2317 C2321 1.393 . S
C2318 H2310 0.950 . S
C2318 C2316 1.391 . S
C2318 C2319 1.400 . S
C2319 C2318 1.400 . S
C2319 C2320 1.398 . S
C2319 C2325 1.491 . S
C2320 H2311 0.950 . S
C2320 C2319 1.398 . S
C2320 C2321 1.391 . S
C2321 H2309 0.950 . S
C2321 C2317 1.393 . S
C2321 C2320 1.391 . S
C2322 H2312 0.950 . S
C2322 C2323 1.386 . S
C2322 C2324 1.391 . S
C2323 C2322 1.386 . S
C2323 C2327 1.393 . S
C2324 H2313 0.950 . S
C2324 C2322 1.391 . S
C2324 C2325 1.400 . S
C2325 C2319 1.491 . S
C2325 C2324 1.400 . S
C2325 C2326 1.398 . S
C2326 H2314 0.950 . S
C2326 C2325 1.398 . S
C2326 C2327 1.391 . S
C2327 H2315 0.950 . S
C2327 C2323 1.393 . S
C2327 C2326 1.391 . S
H2328 C2336 0.950 . S
H2329 C2341 0.950 . S
H2330 C2338 0.950 . S
H2331 C2340 0.950 . S
H2332 C2342 0.950 . S
H2333 C2344 0.950 . S
H2334 C2346 0.950 . S
H2335 C2347 0.950 . S
C2336 H2328 0.950 . S
C2336 C2337 1.386 . S
C2336 C2338 1.391 . S
C2337 C2336 1.386 . S
C2337 C2341 1.393 . S
C2338 H2330 0.950 . S
C2338 C2336 1.391 . S
C2338 C2339 1.400 . S
C2339 C2338 1.400 . S
C2339 C2340 1.398 . S
C2339 C2345 1.491 . S
C2340 H2331 0.950 . S
C2340 C2339 1.398 . S
C2340 C2341 1.391 . S
C2341 H2329 0.950 . S
C2341 C2337 1.393 . S
C2341 C2340 1.391 . S
C2342 H2332 0.950 . S
C2342 C2343 1.386 . S
C2342 C2344 1.391 . S
C2343 C2342 1.386 . S
C2343 C2347 1.393 . S
C2344 H2333 0.950 . S
C2344 C2342 1.391 . S
C2344 C2345 1.400 . S
C2345 C2339 1.491 . S
C2345 C2344 1.400 . S
C2345 C2346 1.398 . S
C2346 H2334 0.950 . S
C2346 C2345 1.398 . S
C2346 C2347 1.391 . S
C2347 H2335 0.950 . S
C2347 C2343 1.393 . S
C2347 C2346 1.391 . S
H2348 C2356 0.950 . S
H2349 C2361 0.950 . S
H2350 C2358 0.950 . S
H2351 C2360 0.950 . S
H2352 C2362 0.950 . S
H2353 C2364 0.950 . S
H2354 C2366 0.950 . S
H2355 C2367 0.950 . S
C2356 H2348 0.950 . S
C2356 C2357 1.386 . S
C2356 C2358 1.391 . S
C2357 C2356 1.386 . S
C2357 C2361 1.393 . S
C2358 H2350 0.950 . S
C2358 C2356 1.391 . S
C2358 C2359 1.400 . S
C2359 C2358 1.400 . S
C2359 C2360 1.398 . S
C2359 C2365 1.491 . S
C2360 H2351 0.950 . S
C2360 C2359 1.398 . S
C2360 C2361 1.391 . S
C2361 H2349 0.950 . S
C2361 C2357 1.393 . S
C2361 C2360 1.391 . S
C2362 H2352 0.950 . S
C2362 C2363 1.386 . S
C2362 C2364 1.391 . S
C2363 C2362 1.386 . S
C2363 C2367 1.393 . S
C2364 H2353 0.950 . S
C2364 C2362 1.391 . S
C2364 C2365 1.400 . S
C2365 C2359 1.491 . S
C2365 C2364 1.400 . S
C2365 C2366 1.398 . S
C2366 H2354 0.950 . S
C2366 C2365 1.398 . S
C2366 C2367 1.391 . S
C2367 H2355 0.950 . S
C2367 C2363 1.393 . S
C2367 C2366 1.391 . S
H2368 C2376 0.950 . S
H2369 C2381 0.950 . S
H2370 C2378 0.950 . S
H2371 C2380 0.950 . S
H2372 C2382 0.950 . S
H2373 C2384 0.950 . S
H2374 C2386 0.950 . S
H2375 C2387 0.950 . S
C2376 H2368 0.950 . S
C2376 C2377 1.386 . S
C2376 C2378 1.391 . S
C2377 C2376 1.386 . S
C2377 C2381 1.393 . S
C2378 H2370 0.950 . S
C2378 C2376 1.391 . S
C2378 C2379 1.400 . S
C2379 C2378 1.400 . S
C2379 C2380 1.398 . S
C2379 C2385 1.491 . S
C2380 H2371 0.950 . S
C2380 C2379 1.398 . S
C2380 C2381 1.391 . S
C2381 H2369 0.950 . S
C2381 C2377 1.393 . S
C2381 C2380 1.391 . S
C2382 H2372 0.950 . S
C2382 C2383 1.386 . S
C2382 C2384 1.391 . S
C2383 C2382 1.386 . S
C2383 C2387 1.393 . S
C2384 H2373 0.950 . S
C2384 C2382 1.391 . S
C2384 C2385 1.400 . S
C2385 C2379 1.491 . S
C2385 C2384 1.400 . S
C2385 C2386 1.398 . S
C2386 H2374 0.950 . S
C2386 C2385 1.398 . S
C2386 C2387 1.391 . S
C2387 H2375 0.950 . S
C2387 C2383 1.393 . S
C2387 C2386 1.391 . S
H2388 C2396 0.950 1_554 S
H2389 C2401 0.950 . S
H2390 C2398 0.950 . S
H2391 C2400 0.950 . S
H2392 C2402 0.950 . S
H2393 C2404 0.950 . S
H2394 C2406 0.950 . S
H2395 C2407 0.950 . S
C2396 H2388 0.950 1_556 S
C2396 C2397 1.386 . S
C2396 C2398 1.391 . S
C2397 C2396 1.386 . S
C2397 C2401 1.393 . S
C2398 H2390 0.950 . S
C2398 C2396 1.391 . S
C2398 C2399 1.400 . S
C2399 C2398 1.400 . S
C2399 C2400 1.398 . S
C2399 C2405 1.491 . S
C2400 H2391 0.950 . S
C2400 C2399 1.398 . S
C2400 C2401 1.391 . S
C2401 H2389 0.950 . S
C2401 C2397 1.393 . S
C2401 C2400 1.391 . S
C2402 H2392 0.950 . S
C2402 C2403 1.386 . S
C2402 C2404 1.391 . S
C2403 C2402 1.386 . S
C2403 C2407 1.393 . S
C2404 H2393 0.950 . S
C2404 C2402 1.391 . S
C2404 C2405 1.400 . S
C2405 C2399 1.491 . S
C2405 C2404 1.400 . S
C2405 C2406 1.398 . S
C2406 H2394 0.950 . S
C2406 C2405 1.398 . S
C2406 C2407 1.391 . S
C2407 H2395 0.950 . S
C2407 C2403 1.393 . S
C2407 C2406 1.391 . S
H2408 C2416 0.950 . S
H2409 C2421 0.950 . S
H2410 C2418 0.950 . S
H2411 C2420 0.950 . S
H2412 C2422 0.950 . S
H2413 C2424 0.950 . S
H2414 C2426 0.950 . S
H2415 C2427 0.950 . S
C2416 H2408 0.950 . S
C2416 C2417 1.386 . S
C2416 C2418 1.391 . S
C2417 C2416 1.386 . S
C2417 C2421 1.393 . S
C2418 H2410 0.950 . S
C2418 C2416 1.391 . S
C2418 C2419 1.400 . S
C2419 C2418 1.400 . S
C2419 C2420 1.398 . S
C2419 C2425 1.491 . S
C2420 H2411 0.950 . S
C2420 C2419 1.398 . S
C2420 C2421 1.391 . S
C2421 H2409 0.950 . S
C2421 C2417 1.393 . S
C2421 C2420 1.391 . S
C2422 H2412 0.950 . S
C2422 C2423 1.386 . S
C2422 C2424 1.391 . S
C2423 C2422 1.386 . S
C2423 C2427 1.393 . S
C2424 H2413 0.950 . S
C2424 C2422 1.391 . S
C2424 C2425 1.400 . S
C2425 C2419 1.491 . S
C2425 C2424 1.400 . S
C2425 C2426 1.398 . S
C2426 H2414 0.950 . S
C2426 C2425 1.398 . S
C2426 C2427 1.391 . S
C2427 H2415 0.950 . S
C2427 C2423 1.393 . S
C2427 C2426 1.391 . S
H2428 C2436 0.950 . S
H2429 C2441 0.950 . S
H2430 C2438 0.950 . S
H2431 C2440 0.950 . S
H2432 C2442 0.950 . S
H2433 C2444 0.950 . S
H2434 C2446 0.950 . S
H2435 C2447 0.950 . S
C2436 H2428 0.950 . S
C2436 C2437 1.386 . S
C2436 C2438 1.391 . S
C2437 C2436 1.386 . S
C2437 C2441 1.393 . S
C2438 H2430 0.950 . S
C2438 C2436 1.391 . S
C2438 C2439 1.400 . S
C2439 C2438 1.400 . S
C2439 C2440 1.398 . S
C2439 C2445 1.491 . S
C2440 H2431 0.950 . S
C2440 C2439 1.398 . S
C2440 C2441 1.391 . S
C2441 H2429 0.950 . S
C2441 C2437 1.393 . S
C2441 C2440 1.391 . S
C2442 H2432 0.950 . S
C2442 C2443 1.386 . S
C2442 C2444 1.391 . S
C2443 C2442 1.386 . S
C2443 C2447 1.393 . S
C2444 H2433 0.950 . S
C2444 C2442 1.391 . S
C2444 C2445 1.400 . S
C2445 C2439 1.491 . S
C2445 C2444 1.400 . S
C2445 C2446 1.398 . S
C2446 H2434 0.950 . S
C2446 C2445 1.398 . S
C2446 C2447 1.391 . S
C2447 H2435 0.950 . S
C2447 C2443 1.393 . S
C2447 C2446 1.391 . S
H2448 C2456 0.950 . S
H2449 C2461 0.950 . S
H2450 C2458 0.950 . S
H2451 C2460 0.950 . S
H2452 C2462 0.950 . S
H2453 C2464 0.950 . S
H2454 C2466 0.950 . S
H2455 C2467 0.950 . S
C2456 H2448 0.950 . S
C2456 C2457 1.386 . S
C2456 C2458 1.391 . S
C2457 C2456 1.386 . S
C2457 C2461 1.393 . S
C2458 H2450 0.950 . S
C2458 C2456 1.391 . S
C2458 C2459 1.400 . S
C2459 C2458 1.400 . S
C2459 C2460 1.398 . S
C2459 C2465 1.491 . S
C2460 H2451 0.950 . S
C2460 C2459 1.398 . S
C2460 C2461 1.391 . S
C2461 H2449 0.950 . S
C2461 C2457 1.393 . S
C2461 C2460 1.391 . S
C2462 H2452 0.950 . S
C2462 C2463 1.386 . S
C2462 C2464 1.391 . S
C2463 C2462 1.386 . S
C2463 C2467 1.393 . S
C2464 H2453 0.950 . S
C2464 C2462 1.391 . S
C2464 C2465 1.400 . S
C2465 C2459 1.491 . S
C2465 C2464 1.400 . S
C2465 C2466 1.398 . S
C2466 H2454 0.950 . S
C2466 C2465 1.398 . S
C2466 C2467 1.391 . S
C2467 H2455 0.950 . S
C2467 C2463 1.393 . S
C2467 C2466 1.391 . S
H2468 C2476 0.950 . S
H2469 C2481 0.950 . S
H2470 C2478 0.950 . S
H2471 C2480 0.950 . S
H2472 C2482 0.950 . S
H2473 C2484 0.950 . S
H2474 C2486 0.950 . S
H2475 C2487 0.950 . S
C2476 H2468 0.950 . S
C2476 C2477 1.386 . S
C2476 C2478 1.391 . S
C2477 C2476 1.386 . S
C2477 C2481 1.393 . S
C2478 H2470 0.950 . S
C2478 C2476 1.391 . S
C2478 C2479 1.400 . S
C2479 C2478 1.400 . S
C2479 C2480 1.398 . S
C2479 C2485 1.491 . S
C2480 H2471 0.950 . S
C2480 C2479 1.398 . S
C2480 C2481 1.391 . S
C2481 H2469 0.950 . S
C2481 C2477 1.393 . S
C2481 C2480 1.391 . S
C2482 H2472 0.950 . S
C2482 C2483 1.386 . S
C2482 C2484 1.391 . S
C2483 C2482 1.386 . S
C2483 C2487 1.393 . S
C2484 H2473 0.950 . S
C2484 C2482 1.391 . S
C2484 C2485 1.400 . S
C2485 C2479 1.491 . S
C2485 C2484 1.400 . S
C2485 C2486 1.398 . S
C2486 H2474 0.950 . S
C2486 C2485 1.398 . S
C2486 C2487 1.391 . S
C2487 H2475 0.950 . S
C2487 C2483 1.393 . S
C2487 C2486 1.391 . S
H2488 C2496 0.950 . S
H2489 C2501 0.950 1_565 S
H2490 C2498 0.950 . S
H2491 C2500 0.950 . S
H2492 C2502 0.950 . S
H2493 C2504 0.950 . S
H2494 C2506 0.950 . S
H2495 C2507 0.950 . S
C2496 H2488 0.950 . S
C2496 C2497 1.386 . S
C2496 C2498 1.391 . S
C2497 C2496 1.386 . S
C2497 C2501 1.393 . S
C2498 H2490 0.950 . S
C2498 C2496 1.391 . S
C2498 C2499 1.400 . S
C2499 C2498 1.400 . S
C2499 C2500 1.398 . S
C2499 C2505 1.491 . S
C2500 H2491 0.950 . S
C2500 C2499 1.398 . S
C2500 C2501 1.391 . S
C2501 H2489 0.950 1_545 S
C2501 C2497 1.393 . S
C2501 C2500 1.391 . S
C2502 H2492 0.950 . S
C2502 C2503 1.386 . S
C2502 C2504 1.391 . S
C2503 C2502 1.386 . S
C2503 C2507 1.393 . S
C2504 H2493 0.950 . S
C2504 C2502 1.391 . S
C2504 C2505 1.400 . S
C2505 C2499 1.491 . S
C2505 C2504 1.400 . S
C2505 C2506 1.398 . S
C2506 H2494 0.950 . S
C2506 C2505 1.398 . S
C2506 C2507 1.391 . S
C2507 H2495 0.950 . S
C2507 C2503 1.393 . S
C2507 C2506 1.391 . S
H2508 C2516 0.950 . S
H2509 C2521 0.950 . S
H2510 C2518 0.950 . S
H2511 C2520 0.950 . S
H2512 C2522 0.950 . S
H2513 C2524 0.950 . S
H2514 C2526 0.950 . S
H2515 C2527 0.950 . S
C2516 H2508 0.950 . S
C2516 C2517 1.386 . S
C2516 C2518 1.391 . S
C2517 C2516 1.386 . S
C2517 C2521 1.393 . S
C2518 H2510 0.950 . S
C2518 C2516 1.391 . S
C2518 C2519 1.400 . S
C2519 C2518 1.400 . S
C2519 C2520 1.398 . S
C2519 C2525 1.491 . S
C2520 H2511 0.950 . S
C2520 C2519 1.398 . S
C2520 C2521 1.391 . S
C2521 H2509 0.950 . S
C2521 C2517 1.393 . S
C2521 C2520 1.391 . S
C2522 H2512 0.950 . S
C2522 C2523 1.386 . S
C2522 C2524 1.391 . S
C2523 C2522 1.386 . S
C2523 C2527 1.393 . S
C2524 H2513 0.950 . S
C2524 C2522 1.391 . S
C2524 C2525 1.400 . S
C2525 C2519 1.491 . S
C2525 C2524 1.400 . S
C2525 C2526 1.398 . S
C2526 H2514 0.950 . S
C2526 C2525 1.398 . S
C2526 C2527 1.391 . S
C2527 H2515 0.950 . S
C2527 C2523 1.393 . S
C2527 C2526 1.391 . S
H2528 C2536 0.950 . S
H2529 C2541 0.950 . S
H2530 C2538 0.950 . S
H2531 C2540 0.950 . S
H2532 C2542 0.950 . S
H2533 C2544 0.950 . S
H2534 C2546 0.950 . S
H2535 C2547 0.950 . S
C2536 H2528 0.950 . S
C2536 C2537 1.386 . S
C2536 C2538 1.391 . S
C2537 C2536 1.386 . S
C2537 C2541 1.393 . S
C2538 H2530 0.950 . S
C2538 C2536 1.391 . S
C2538 C2539 1.400 . S
C2539 C2538 1.400 . S
C2539 C2540 1.398 . S
C2539 C2545 1.491 . S
C2540 H2531 0.950 . S
C2540 C2539 1.398 . S
C2540 C2541 1.391 . S
C2541 H2529 0.950 . S
C2541 C2537 1.393 . S
C2541 C2540 1.391 . S
C2542 H2532 0.950 . S
C2542 C2543 1.386 . S
C2542 C2544 1.391 . S
C2543 C2542 1.386 . S
C2543 C2547 1.393 . S
C2544 H2533 0.950 . S
C2544 C2542 1.391 . S
C2544 C2545 1.400 . S
C2545 C2539 1.491 . S
C2545 C2544 1.400 . S
C2545 C2546 1.398 . S
C2546 H2534 0.950 . S
C2546 C2545 1.398 . S
C2546 C2547 1.391 . S
C2547 H2535 0.950 . S
C2547 C2543 1.393 . S
C2547 C2546 1.391 . S
H2548 C2556 0.950 . S
H2549 C2561 0.950 . S
H2550 C2558 0.950 . S
H2551 C2560 0.950 . S
H2552 C2562 0.950 . S
H2553 C2564 0.950 . S
H2554 C2566 0.950 . S
H2555 C2567 0.950 . S
C2556 H2548 0.950 . S
C2556 C2557 1.386 . S
C2556 C2558 1.391 . S
C2557 C2556 1.386 . S
C2557 C2561 1.393 . S
C2558 H2550 0.950 . S
C2558 C2556 1.391 . S
C2558 C2559 1.400 . S
C2559 C2558 1.400 . S
C2559 C2560 1.398 . S
C2559 C2565 1.491 . S
C2560 H2551 0.950 . S
C2560 C2559 1.398 . S
C2560 C2561 1.391 . S
C2561 H2549 0.950 . S
C2561 C2557 1.393 . S
C2561 C2560 1.391 . S
C2562 H2552 0.950 . S
C2562 C2563 1.386 . S
C2562 C2564 1.391 . S
C2563 C2562 1.386 . S
C2563 C2567 1.393 . S
C2564 H2553 0.950 . S
C2564 C2562 1.391 . S
C2564 C2565 1.400 . S
C2565 C2559 1.491 . S
C2565 C2564 1.400 . S
C2565 C2566 1.398 . S
C2566 H2554 0.950 . S
C2566 C2565 1.398 . S
C2566 C2567 1.391 . S
C2567 H2555 0.950 . S
C2567 C2563 1.393 . S
C2567 C2566 1.391 . S
H2568 C2576 0.950 . S
H2569 C2581 0.950 . S
H2570 C2578 0.950 . S
H2571 C2580 0.950 . S
H2572 C2582 0.950 . S
H2573 C2584 0.950 . S
H2574 C2586 0.950 . S
H2575 C2587 0.950 . S
C2576 H2568 0.950 . S
C2576 C2577 1.386 . S
C2576 C2578 1.391 . S
C2577 C2576 1.386 . S
C2577 C2581 1.393 . S
C2578 H2570 0.950 . S
C2578 C2576 1.391 . S
C2578 C2579 1.400 . S
C2579 C2578 1.400 . S
C2579 C2580 1.398 . S
C2579 C2585 1.491 . S
C2580 H2571 0.950 . S
C2580 C2579 1.398 . S
C2580 C2581 1.391 . S
C2581 H2569 0.950 . S
C2581 C2577 1.393 . S
C2581 C2580 1.391 . S
C2582 H2572 0.950 . S
C2582 C2583 1.386 . S
C2582 C2584 1.391 . S
C2583 C2582 1.386 . S
C2583 C2587 1.393 . S
C2584 H2573 0.950 . S
C2584 C2582 1.391 . S
C2584 C2585 1.400 . S
C2585 C2579 1.491 . S
C2585 C2584 1.400 . S
C2585 C2586 1.398 . S
C2586 H2574 0.950 . S
C2586 C2585 1.398 . S
C2586 C2587 1.391 . S
C2587 H2575 0.950 . S
C2587 C2583 1.393 . S
C2587 C2586 1.391 . S
H2588 C2596 0.950 . S
H2589 C2601 0.950 . S
H2590 C2598 0.950 . S
H2591 C2600 0.950 . S
H2592 C2602 0.950 . S
H2593 C2604 0.974 . S
H2594 C2606 0.950 . S
H2595 C2607 0.950 . S
C2596 H2588 0.950 . S
C2596 C2597 1.386 . S
C2596 C2598 1.391 . S
C2597 C2596 1.386 . S
C2597 C2601 1.393 . S
C2598 H2590 0.950 . S
C2598 C2596 1.391 . S
C2598 C2599 1.400 . S
C2599 C2598 1.400 . S
C2599 C2600 1.398 . S
C2599 C2605 1.491 . S
C2600 H2591 0.950 . S
C2600 C2599 1.398 . S
C2600 C2601 1.391 . S
C2601 H2589 0.950 . S
C2601 C2597 1.393 . S
C2601 C2600 1.391 . S
C2602 H2592 0.950 . S
C2602 C2603 1.386 . S
C2602 C2604 1.366 1_655 S
C2603 C2602 1.386 . S
C2603 C2607 1.393 . S
C2604 H2593 0.974 . S
C2604 C2602 1.366 1_455 S
C2604 C2605 1.402 . S
C2605 C2599 1.491 . S
C2605 C2604 1.402 . S
C2605 C2606 1.398 1_455 S
C2606 H2594 0.950 . S
C2606 C2605 1.398 1_655 S
C2606 C2607 1.391 . S
C2607 H2595 0.950 . S
C2607 C2603 1.393 . S
C2607 C2606 1.391 . S
C703 C354 1.047 . S
C697 C11 1.046 . S
C717 C14 1.167 . S
C723 C366 1.170 . S
C743 C401 1.221 . S
C737 C37 1.229 . S
C763 C410 1.131 . S
C757 C47 1.150 . S
C783 C365 1.145 . S
C777 C61 1.173 . S
C797 C79 1.205 . S
C803 C390 1.227 . S
C823 C409 1.172 . S
C817 C84 1.158 . S
C837 C109 1.071 . S
C843 C351 1.064 . S
C857 C123 1.086 . S
C863 C344 1.092 . S
C883 C368 1.154 . S
C877 C131 1.145 . S
C903 C387 1.227 . S
C897 C140 1.237 . S
C923 C412 1.153 . S
C917 C163 1.165 . S
C943 C373 1.143 . S
C937 C121 1.169 . S
C963 C398 1.229 . S
C957 C126 1.196 . S
C977 C145 1.143 . S
C983 C417 1.117 . S
C1003 C357 1.050 . S
C997 C165 1.063 . S
C1017 C168 1.102 . S
C1023 C346 1.094 . S
C1037 C193 1.125 . S
C1043 C445 1.133 . S
C1063 C461 1.191 . S
C1057 C205 1.180 . S
C1083 C475 1.183 . S
C1077 C215 1.189 . S
C1097 C224 1.121 . S
C1103 C343 1.099 . S
C1117 C247 1.209 . S
C1123 C395 1.176 . S
C1143 C478 1.116 . S
C1137 C207 1.107 . S
C1163 C442 1.224 . S
C1157 C257 1.227 . S
C1183 C498 1.181 . S
C1177 C23 1.155 . S
C1203 C522 1.103 . S
C1197 C0 1.069 . S
C1217 C53 1.047 . S
C1223 C555 1.049 . S
C1237 C33 1.218 . S
C1243 C563 1.194 . S
C1257 C103 1.208 . S
C1263 C533 1.203 . S
C1277 C95 1.045 . S
C1283 C544 1.026 . S
C1303 C564 1.102 . S
C1297 C70 1.109 . S
C1317 C65 1.204 . S
C1323 C497 1.220 . S
C1337 C271 1.196 . S
C1343 C500 1.179 . S
C1363 C530 1.163 . S
C1357 C219 1.128 . S
C1383 C541 1.075 . S
C1377 C235 1.054 . S
C1403 C571 1.110 . S
C1397 C182 1.133 . S
C1423 C519 1.114 . S
C1417 C266 1.121 . S
C1443 C552 1.023 . S
C1437 C221 1.042 . S
C1463 C566 1.147 . S
C1457 C233 1.158 . S
C1477 C187 1.251 . S
C1483 C505 1.211 . S
C1503 C508 1.121 . S
C1497 C289 1.092 . S
C1517 C154 1.175 . S
C1523 C596 1.168 . S
C1543 C608 1.115 . S
C1537 C299 1.106 . S
C1557 C137 1.127 . S
C1563 C629 1.147 . S
C1583 C511 1.164 . S
C1577 C149 1.170 . S
C1603 C549 1.106 . S
C1597 C313 1.104 . S
C1623 C632 1.118 . S
C1617 C294 1.128 . S
C1637 C333 1.117 . S
C1643 C599 1.116 . S
C1657 C39 1.067 . S
C1663 C654 1.056 . S
C1677 C42 1.165 . S
C1683 C432 1.164 . S
C1703 C456 1.196 . S
C1697 C9 1.199 . S
C1717 C19 1.165 . S
C1723 C486 1.160 . S
C1737 C89 1.167 . S
C1743 C431 1.127 . S
C1757 C107 1.230 . S
C1763 C467 1.214 . S
C1783 C483 1.204 . S
C1777 C56 1.201 . S
C1803 C665 1.035 . S
C1797 C81 1.058 . S
C1823 C662 1.046 . S
C1817 C305 1.045 . S
C1843 C434 1.132 . S
C1837 C285 1.133 . S
C1863 C464 1.233 . S
C1857 C322 1.216 . S
C1877 C317 1.181 . S
C1883 C476 1.172 . S
C1903 C439 1.145 . S
C1897 C303 1.139 . S
C1917 C280 1.192 . S
C1923 C453 1.193 . S
C1943 C489 1.111 . S
C1937 C327 1.153 . S
C1957 C319 1.083 . S
C1963 C651 1.066 . S
C1983 C652 1.093 . S
C1977 C210 1.087 . S
C1997 C249 1.136 . S
C2003 C379 1.123 . S
C2023 C388 1.168 . S
C2017 C275 1.139 . S
C2037 C173 1.190 . S
C2043 C423 1.186 . S
C2063 C659 1.109 . S
C2057 C252 1.092 . S
C2083 C454 1.179 . S
C2077 C191 1.192 . S
C2103 C420 1.127 . S
C2097 C277 1.119 . S
C2123 C376 1.199 . S
C2117 C229 1.213 . S
C2137 C51 1.211 . S
C2143 C673 1.187 . S
C2157 C28 1.107 . S
C2163 C585 1.123 . S
C2177 C25 1.056 . S
C2183 C621 1.041 . S
C2203 C640 1.170 . S
C2197 C5 1.155 . S
C2223 C586 1.176 . S
C2217 C75 1.161 . S
C2237 C67 1.028 . S
C2243 C610 1.051 . S
C2263 C637 1.130 . S
C2257 C98 1.137 . S
C2277 C93 1.176 . S
C2283 C674 1.208 . S
C2303 C681 1.218 . S
C2297 C201 1.240 . S
C2317 C177 1.139 . S
C2323 C593 1.168 . S
C2337 C263 1.052 . S
C2343 C607 1.069 . S
C2363 C630 1.095 . S
C2357 C238 1.093 . S
C2383 C588 1.107 . S
C2377 C196 1.092 . S
C2397 C179 1.018 . S
C2403 C618 1.044 . S
C2423 C643 1.157 . S
C2417 C261 1.179 . S
C2443 C676 1.230 . S
C2437 C243 1.220 . S
C2463 C687 1.124 . S
C2457 C135 1.143 . S
C2483 C527 1.196 . S
C2477 C308 1.219 . S
C2497 C117 1.119 . S
C2503 C542 1.094 . S
C2517 C291 1.119 . S
C2523 C574 1.117 . S
C2543 C684 1.146 . S
C2537 C331 1.153 . S
C2563 C615 1.103 . S
C2557 C159 1.092 . S
C2583 C577 1.176 . S
C2577 C112 1.151 . S
C2603 C520 1.100 . S
C2597 C151 1.097 . S
