# Generated by pormake.
# Topology ocu, (6,8)-cn, num edge types: 1
# Building blocks:
#     Node 0, Type 0, BuildingBlock: VOLQOD_clean_sbu_1, # of connection points: 6
#     Node 1, Type 0, BuildingBlock: VOLQOD_clean_sbu_1, # of connection points: 6
#     Node 2, Type 0, BuildingBlock: VOLQOD_clean_sbu_1, # of connection points: 6
#     Node 3, Type 0, BuildingBlock: VOLQOD_clean_sbu_1, # of connection points: 6
#     Node 4, Type 0, BuildingBlock: VOLQOD_clean_sbu_1, # of connection points: 6
#     Node 5, Type 0, BuildingBlock: VOLQOD_clean_sbu_1, # of connection points: 6
#     Node 6, Type 0, BuildingBlock: VOLQOD_clean_sbu_1, # of connection points: 6
#     Node 7, Type 0, BuildingBlock: VOLQOD_clean_sbu_1, # of connection points: 6
#     Node 8, Type 1, BuildingBlock: TAGTUT_clean_sbu_1, # of connection points: 8
#     Node 9, Type 1, BuildingBlock: TAGTUT_clean_sbu_1, # of connection points: 8
#     Node 10, Type 1, BuildingBlock: TAGTUT_clean_sbu_1, # of connection points: 8
#     Node 11, Type 1, BuildingBlock: TAGTUT_clean_sbu_1, # of connection points: 8
#     Node 12, Type 1, BuildingBlock: TAGTUT_clean_sbu_1, # of connection points: 8
#     Node 13, Type 1, BuildingBlock: TAGTUT_clean_sbu_1, # of connection points: 8
#     Edge 14, Type (0, 1), BuildingBlock: AJUNOK_clean_linker_0, # of connection points: 2
#     Edge 15, Type (0, 1), BuildingBlock: AJUNOK_clean_linker_0, # of connection points: 2
#     Edge 16, Type (0, 1), BuildingBlock: AJUNOK_clean_linker_0, # of connection points: 2
#     Edge 17, Type (0, 1), BuildingBlock: AJUNOK_clean_linker_0, # of connection points: 2
#     Edge 18, Type (0, 1), BuildingBlock: AJUNOK_clean_linker_0, # of connection points: 2
#     Edge 19, Type (0, 1), BuildingBlock: AJUNOK_clean_linker_0, # of connection points: 2
#     Edge 20, Type (0, 1), BuildingBlock: AJUNOK_clean_linker_0, # of connection points: 2
#     Edge 21, Type (0, 1), BuildingBlock: AJUNOK_clean_linker_0, # of connection points: 2
#     Edge 22, Type (0, 1), BuildingBlock: AJUNOK_clean_linker_0, # of connection points: 2
#     Edge 23, Type (0, 1), BuildingBlock: AJUNOK_clean_linker_0, # of connection points: 2
#     Edge 24, Type (0, 1), BuildingBlock: AJUNOK_clean_linker_0, # of connection points: 2
#     Edge 25, Type (0, 1), BuildingBlock: AJUNOK_clean_linker_0, # of connection points: 2
#     Edge 26, Type (0, 1), BuildingBlock: AJUNOK_clean_linker_0, # of connection points: 2
#     Edge 27, Type (0, 1), BuildingBlock: AJUNOK_clean_linker_0, # of connection points: 2
#     Edge 28, Type (0, 1), BuildingBlock: AJUNOK_clean_linker_0, # of connection points: 2
#     Edge 29, Type (0, 1), BuildingBlock: AJUNOK_clean_linker_0, # of connection points: 2
#     Edge 30, Type (0, 1), BuildingBlock: AJUNOK_clean_linker_0, # of connection points: 2
#     Edge 31, Type (0, 1), BuildingBlock: AJUNOK_clean_linker_0, # of connection points: 2
#     Edge 32, Type (0, 1), BuildingBlock: AJUNOK_clean_linker_0, # of connection points: 2
#     Edge 33, Type (0, 1), BuildingBlock: AJUNOK_clean_linker_0, # of connection points: 2
#     Edge 34, Type (0, 1), BuildingBlock: AJUNOK_clean_linker_0, # of connection points: 2
#     Edge 35, Type (0, 1), BuildingBlock: AJUNOK_clean_linker_0, # of connection points: 2
#     Edge 36, Type (0, 1), BuildingBlock: AJUNOK_clean_linker_0, # of connection points: 2
#     Edge 37, Type (0, 1), BuildingBlock: AJUNOK_clean_linker_0, # of connection points: 2
#     Edge 38, Type (0, 1), BuildingBlock: AJUNOK_clean_linker_0, # of connection points: 2
#     Edge 39, Type (0, 1), BuildingBlock: AJUNOK_clean_linker_0, # of connection points: 2
#     Edge 40, Type (0, 1), BuildingBlock: AJUNOK_clean_linker_0, # of connection points: 2
#     Edge 41, Type (0, 1), BuildingBlock: AJUNOK_clean_linker_0, # of connection points: 2
#     Edge 42, Type (0, 1), BuildingBlock: AJUNOK_clean_linker_0, # of connection points: 2
#     Edge 43, Type (0, 1), BuildingBlock: AJUNOK_clean_linker_0, # of connection points: 2
#     Edge 44, Type (0, 1), BuildingBlock: AJUNOK_clean_linker_0, # of connection points: 2
#     Edge 45, Type (0, 1), BuildingBlock: AJUNOK_clean_linker_0, # of connection points: 2
#     Edge 46, Type (0, 1), BuildingBlock: AJUNOK_clean_linker_0, # of connection points: 2
#     Edge 47, Type (0, 1), BuildingBlock: AJUNOK_clean_linker_0, # of connection points: 2
#     Edge 48, Type (0, 1), BuildingBlock: AJUNOK_clean_linker_0, # of connection points: 2
#     Edge 49, Type (0, 1), BuildingBlock: AJUNOK_clean_linker_0, # of connection points: 2
#     Edge 50, Type (0, 1), BuildingBlock: AJUNOK_clean_linker_0, # of connection points: 2
#     Edge 51, Type (0, 1), BuildingBlock: AJUNOK_clean_linker_0, # of connection points: 2
#     Edge 52, Type (0, 1), BuildingBlock: AJUNOK_clean_linker_0, # of connection points: 2
#     Edge 53, Type (0, 1), BuildingBlock: AJUNOK_clean_linker_0, # of connection points: 2
#     Edge 54, Type (0, 1), BuildingBlock: AJUNOK_clean_linker_0, # of connection points: 2
#     Edge 55, Type (0, 1), BuildingBlock: AJUNOK_clean_linker_0, # of connection points: 2
#     Edge 56, Type (0, 1), BuildingBlock: AJUNOK_clean_linker_0, # of connection points: 2
#     Edge 57, Type (0, 1), BuildingBlock: AJUNOK_clean_linker_0, # of connection points: 2
#     Edge 58, Type (0, 1), BuildingBlock: AJUNOK_clean_linker_0, # of connection points: 2
#     Edge 59, Type (0, 1), BuildingBlock: AJUNOK_clean_linker_0, # of connection points: 2
#     Edge 60, Type (0, 1), BuildingBlock: AJUNOK_clean_linker_0, # of connection points: 2
#     Edge 61, Type (0, 1), BuildingBlock: AJUNOK_clean_linker_0, # of connection points: 2
# Relax obj value: 0.186
# Max RMSD: 0.335
# Mean RMSD: 0.219
data_MOF--net-ocu--node1-VOLQOD_clean_sbu_1--node2-TAGTUT_clean_sbu_1--edge1-AJUNOK_clean_linker_0
_symmetry_space_group_name_H-M    P1
_symmetry_Int_Tables_number       1
_symmetry_cell_setting            triclinic
loop_
_symmetry_equiv_pos_as_xyz
'x, y, z'
_cell_length_a     29.764172
_cell_length_b     28.462228
_cell_length_c     30.866732
_cell_angle_alpha  91.56376
_cell_angle_beta   91.560767
_cell_angle_gamma 101.75651
loop_
_atom_site_label
_atom_site_type_symbol
_atom_site_fract_x
_atom_site_fract_y
_atom_site_fract_z
_atom_type_partial_charge
O0 O 0.33136 0.32438 0.24104 0.0
Zn1 Zn 0.2941 0.2753 0.28098 0.0
O2 O 0.23687 0.24128 0.25125 0.0
Zn3 Zn 0.18395 0.25547 0.27841 0.0
Zn4 Zn 0.23398 0.2632 0.19372 0.0
Zn5 Zn 0.232 0.17202 0.24761 0.0
O6 O 0.14238 0.19664 0.29683 0.0
O7 O 0.17208 0.13602 0.27254 0.0
O8 O 0.27957 0.30936 0.33717 0.0
O9 O 0.20319 0.29263 0.33186 0.0
O10 O 0.14758 0.29163 0.24188 0.0
O11 O 0.172 0.2754 0.17686 0.0
O12 O 0.25594 0.21841 0.15283 0.0
O13 O 0.33086 0.22589 0.29859 0.0
O14 O 0.24747 0.15011 0.18751 0.0
O15 O 0.28275 0.15621 0.28418 0.0
C16 C 0.31784 0.34167 0.20642 0.0
C17 C 0.14104 0.15188 0.29283 0.0
C18 C 0.14401 0.29138 0.20087 0.0
C19 C 0.24039 0.31134 0.35209 0.0
C20 C 0.26018 0.17499 0.15458 0.0
C21 C 0.32084 0.18009 0.29971 0.0
O22 O 0.27901 0.32424 0.18815 0.0
O23 O 0.77417 0.16763 0.15603 0.0
Zn24 Zn 0.80241 0.21332 0.20726 0.0
O25 O 0.7535 0.238 0.23776 0.0
Zn26 Zn 0.76083 0.30721 0.23696 0.0
Zn27 Zn 0.69393 0.21223 0.21161 0.0
Zn28 Zn 0.75327 0.21937 0.29713 0.0
O29 O 0.78765 0.33577 0.29449 0.0
O30 O 0.77031 0.27525 0.33869 0.0
O31 O 0.84344 0.26957 0.18003 0.0
O32 O 0.8087 0.3304 0.19482 0.0
O33 O 0.70288 0.33048 0.21675 0.0
O34 O 0.65759 0.26151 0.19613 0.0
O35 O 0.65577 0.16337 0.2474 0.0
O36 O 0.84174 0.1815 0.24935 0.0
O37 O 0.6945 0.17674 0.31073 0.0
O38 O 0.80251 0.18337 0.30939 0.0
C39 C 0.73357 0.16242 0.13951 0.0
C40 C 0.78859 0.31877 0.33217 0.0
C41 C 0.66499 0.30701 0.19985 0.0
C42 C 0.84008 0.31328 0.17688 0.0
C43 C 0.66038 0.15524 0.28725 0.0
C44 C 0.83556 0.17208 0.28925 0.0
O45 O 0.70254 0.17956 0.15767 0.0
O46 O 0.70753 0.66024 0.23443 0.0
Zn47 Zn 0.75443 0.70673 0.27185 0.0
O48 O 0.78572 0.75823 0.23592 0.0
Zn49 Zn 0.85073 0.76457 0.23623 0.0
Zn50 Zn 0.76426 0.7446 0.17753 0.0
Zn51 Zn 0.77153 0.81847 0.25371 0.0
O52 O 0.87888 0.82432 0.27048 0.0
O53 O 0.82692 0.86974 0.26618 0.0
O54 O 0.80215 0.67204 0.29621 0.0
O55 O 0.86721 0.7126 0.27045 0.0
O56 O 0.87341 0.75343 0.17676 0.0
O57 O 0.81313 0.75522 0.13363 0.0
O58 O 0.71272 0.77857 0.16459 0.0
O59 O 0.72131 0.73316 0.32146 0.0
O60 O 0.72455 0.83776 0.21454 0.0
O61 O 0.74127 0.81115 0.30967 0.0
C62 C 0.71052 0.64925 0.19446 0.0
C63 C 0.86493 0.86233 0.28127 0.0
C64 C 0.85439 0.75033 0.13906 0.0
C65 C 0.84564 0.6788 0.29251 0.0
C66 C 0.70165 0.81539 0.18223 0.0
C67 C 0.7217 0.77683 0.33226 0.0
O68 O 0.73856 0.67539 0.1706 0.0
O69 O 0.29697 0.7772 0.33462 0.0
Zn70 Zn 0.26358 0.73225 0.28624 0.0
O71 O 0.23101 0.76955 0.25038 0.0
Zn72 Zn 0.16722 0.74391 0.24533 0.0
Zn73 Zn 0.2452 0.83617 0.26439 0.0
Zn74 Zn 0.25661 0.76985 0.19556 0.0
O75 O 0.15216 0.70574 0.18798 0.0
O76 O 0.22124 0.71614 0.15905 0.0
O77 O 0.21823 0.68188 0.31547 0.0
O78 O 0.15149 0.69579 0.29042 0.0
O79 O 0.13471 0.79528 0.26692 0.0
O80 O 0.18811 0.86197 0.26416 0.0
O81 O 0.29441 0.87019 0.22603 0.0
O82 O 0.30364 0.69986 0.24676 0.0
O83 O 0.26352 0.83153 0.16663 0.0
O84 O 0.31994 0.76138 0.20425 0.0
C85 C 0.29296 0.81955 0.34658 0.0
C86 C 0.17934 0.6949 0.15961 0.0
C87 C 0.14979 0.83955 0.27747 0.0
C88 C 0.17456 0.67382 0.31494 0.0
C89 C 0.29414 0.86395 0.18515 0.0
C90 C 0.32645 0.72111 0.216 0.0
O91 O 0.2716 0.84454 0.32339 0.0
O92 O 0.26324 0.68285 0.66612 0.0
Zn93 Zn 0.29939 0.72744 0.71541 0.0
O94 O 0.25541 0.75473 0.74981 0.0
Zn95 Zn 0.26488 0.82383 0.75049 0.0
Zn96 Zn 0.19209 0.72832 0.73405 0.0
Zn97 Zn 0.26315 0.73728 0.80786 0.0
O98 O 0.28388 0.85008 0.81121 0.0
O99 O 0.25614 0.78799 0.85068 0.0
O100 O 0.34248 0.78378 0.68856 0.0
O101 O 0.31818 0.84814 0.7134 0.0
O102 O 0.20839 0.84607 0.7263 0.0
O103 O 0.15583 0.77849 0.7211 0.0
O104 O 0.1604 0.67935 0.77496 0.0
O105 O 0.34022 0.69348 0.75522 0.0
O106 O 0.2194 0.67779 0.81984 0.0
O107 O 0.32497 0.72371 0.81898 0.0
C108 C 0.22018 0.6753 0.6564 0.0
C109 C 0.27626 0.83154 0.84813 0.0
C110 C 0.16741 0.82366 0.71689 0.0
C111 C 0.34594 0.82932 0.69131 0.0
C112 C 0.17901 0.66014 0.80546 0.0
C113 C 0.34916 0.70158 0.79592 0.0
O114 O 0.19213 0.69213 0.6794 0.0
O115 O 0.20127 0.15189 0.73314 0.0
Zn116 Zn 0.24513 0.19753 0.7753 0.0
O117 O 0.27244 0.25602 0.74529 0.0
Zn118 Zn 0.33848 0.27214 0.75052 0.0
Zn119 Zn 0.25576 0.24878 0.68478 0.0
Zn120 Zn 0.24861 0.30924 0.76784 0.0
O121 O 0.35876 0.33551 0.78418 0.0
O122 O 0.29621 0.36675 0.78245 0.0
O123 O 0.29734 0.16675 0.79676 0.0
O124 O 0.35946 0.22274 0.78551 0.0
O125 O 0.36721 0.26479 0.69265 0.0
O126 O 0.30856 0.25931 0.64575 0.0
O127 O 0.20695 0.28513 0.66938 0.0
O128 O 0.20964 0.21353 0.82833 0.0
O129 O 0.19957 0.32575 0.73024 0.0
O130 O 0.22012 0.29273 0.82341 0.0
C131 C 0.20202 0.14924 0.69179 0.0
C132 C 0.33787 0.36914 0.79388 0.0
C133 C 0.35057 0.25893 0.65392 0.0
C134 C 0.34081 0.18227 0.79993 0.0
C135 C 0.18673 0.31243 0.69157 0.0
C136 C 0.20554 0.25463 0.84335 0.0
O137 O 0.2261 0.18201 0.67053 0.0
O138 O 0.78146 0.27328 0.81438 0.0
Zn139 Zn 0.74189 0.23011 0.76878 0.0
O140 O 0.70664 0.26782 0.73714 0.0
Zn141 Zn 0.64248 0.2495 0.74499 0.0
Zn142 Zn 0.72961 0.33535 0.74511 0.0
Zn143 Zn 0.7145 0.25406 0.67881 0.0
O144 O 0.61028 0.22013 0.68977 0.0
O145 O 0.65909 0.25782 0.64357 0.0
O146 O 0.69874 0.17948 0.79977 0.0
O147 O 0.6305 0.19803 0.78798 0.0
O148 O 0.62246 0.30643 0.7701 0.0
O149 O 0.67916 0.36942 0.76008 0.0
O150 O 0.77535 0.36239 0.69992 0.0
O151 O 0.77815 0.19778 0.72612 0.0
O152 O 0.77045 0.29675 0.6585 0.0
O153 O 0.72609 0.18847 0.67232 0.0
C154 C 0.78591 0.31826 0.82248 0.0
C155 C 0.62158 0.22932 0.65101 0.0
C156 C 0.63998 0.35111 0.77474 0.0
C157 C 0.65567 0.17223 0.80549 0.0
C158 C 0.79067 0.33923 0.66965 0.0
C159 C 0.76189 0.17828 0.68968 0.0
O160 O 0.7672 0.34475 0.79854 0.0
O161 O 0.83373 0.81884 0.74867 0.0
Zn162 Zn 0.79458 0.76424 0.78205 0.0
O163 O 0.74541 0.72602 0.74389 0.0
Zn164 Zn 0.68486 0.7329 0.76059 0.0
Zn165 Zn 0.7536 0.74759 0.68655 0.0
Zn166 Zn 0.74429 0.65824 0.74417 0.0
O167 O 0.64014 0.67116 0.76835 0.0
O168 O 0.6921 0.62742 0.78152 0.0
O169 O 0.76601 0.79093 0.83518 0.0
O170 O 0.6918 0.76379 0.8185 0.0
O171 O 0.65767 0.77618 0.7227 0.0
O172 O 0.7086 0.78755 0.6708 0.0
O173 O 0.75338 0.69431 0.6442 0.0
O174 O 0.83769 0.72043 0.80082 0.0
O175 O 0.74601 0.62929 0.68347 0.0
O176 O 0.80234 0.64929 0.773 0.0
C177 C 0.83999 0.81931 0.70789 0.0
C178 C 0.6521 0.63601 0.78658 0.0
C179 C 0.67293 0.79628 0.68837 0.0
C180 C 0.72364 0.78536 0.8444 0.0
C181 C 0.75217 0.64963 0.64714 0.0
C182 C 0.83623 0.67567 0.7936 0.0
O183 O 0.81398 0.79038 0.68159 0.0
C184 C 0.87397 0.10375 0.56572 0.0
C185 C 0.92291 0.09785 0.43182 0.0
C186 C 0.91605 0.91322 0.46019 0.0
Mg187 Mg 0.96945 0.11074 0.52428 0.0
O188 O 0.95088 0.04446 0.5295 0.0
Mg189 Mg 0.89043 0.01005 0.50432 0.0
Mg190 Mg 0.98876 -0.00086 0.5091 0.0
O191 O 0.02559 0.95281 0.49014 0.0
Mg192 Mg 0.00544 0.88819 0.50368 0.0
Mg193 Mg 0.08771 0.9864 0.51145 0.0
C194 C 0.06174 0.08277 0.56368 0.0
C195 C 0.05504 0.04646 0.43316 0.0
O196 O 0.85896 0.06378 0.54481 0.0
O197 O 0.91526 0.12745 0.56292 0.0
O198 O 0.89743 0.0594 0.44514 0.0
O199 O 0.95545 0.12263 0.45595 0.0
O200 O 0.03682 0.11433 0.55783 0.0
O201 O 0.05016 0.03995 0.54759 0.0
C202 C 0.92118 0.94805 0.58263 0.0
O203 O 0.96174 0.9548 0.56789 0.0
O204 O 0.88889 0.96405 0.56366 0.0
O205 O 0.11127 0.92876 0.46737 0.0
O206 O 0.05093 0.86668 0.45834 0.0
O207 O 0.08693 0.94109 0.57156 0.0
C208 C 0.09085 0.8891 0.44805 0.0
O209 O 0.02793 0.87884 0.57002 0.0
O210 O 0.93429 0.8816 0.47924 0.0
C211 C 0.06353 0.90449 0.58928 0.0
O212 O 0.92924 0.95814 0.46915 0.0
O213 O 0.01522 0.04272 0.4491 0.0
O214 O 0.08671 0.02961 0.45193 0.0
C215 C 0.38866 0.10024 0.04717 0.0
C216 C 0.43832 0.08598 0.92042 0.0
C217 C 0.43091 0.90277 0.95957 0.0
Mg218 Mg 0.48646 0.10275 0.01154 0.0
O219 O 0.46809 0.03694 0.02122 0.0
Mg220 Mg 0.40811 0.00207 -0.00643 0.0
Mg221 Mg 0.5068 0.98998 0.0045 0.0
O222 O 0.54488 0.94302 0.98699 0.0
Mg223 Mg 0.52447 0.87754 -0.00319 0.0
Mg224 Mg 0.60475 0.97676 0.01467 0.0
C225 C 0.58367 0.07792 0.04368 0.0
C226 C 0.58061 0.03789 0.93434 0.0
O227 O 0.3753 0.05871 0.02842 0.0
O228 O 0.43061 0.12335 0.04703 0.0
O229 O 0.4152 0.04689 0.93411 0.0
O230 O 0.47005 0.11256 0.94395 0.0
O231 O 0.55954 0.1093 0.03375 0.0
O232 O 0.56659 0.03277 0.04319 0.0
C233 C 0.4327 0.94265 0.07425 0.0
O234 O 0.47485 0.94761 0.06374 0.0
O235 O 0.40324 0.95955 0.05225 0.0
O236 O 0.63709 0.91863 0.98089 0.0
O237 O 0.58061 0.85434 0.96489 0.0
O238 O 0.59509 0.9303 0.07365 0.0
C239 C 0.62286 0.87624 0.9641 0.0
O240 O 0.53639 0.86779 0.06473 0.0
O241 O 0.45389 0.87047 0.96927 0.0
C242 C 0.56988 0.89231 0.08759 0.0
O243 O 0.44759 0.94769 0.96505 0.0
O244 O 0.53885 0.03244 0.94625 0.0
O245 O 0.61063 0.02049 0.95537 0.0
C246 C 0.9229 0.62237 0.02123 0.0
C247 C 0.95573 0.58585 0.89459 0.0
C248 C 0.92525 0.40155 0.94699 0.0
Mg249 Mg 0.00907 0.598 0.98008 0.0
O250 O 0.9805 0.5375 -0.00039 0.0
Mg251 Mg 0.91732 0.51114 0.97562 0.0
Mg252 Mg 0.01064 0.48287 0.98638 0.0
O253 O 0.04065 0.42827 0.97256 0.0
Mg254 Mg 0.01112 0.36721 -0.01097 0.0
Mg255 Mg 0.10177 0.45436 0.00122 0.0
C256 C 0.09436 0.56531 0.0261 0.0
C257 C 0.08868 0.51556 0.91638 0.0
O258 O 0.90004 0.57999 0.00989 0.0
O259 O 0.96547 0.63667 0.01352 0.0
O260 O 0.92793 0.55317 0.91334 0.0
O261 O 0.99358 0.6069 0.91298 0.0
O262 O 0.07703 0.59752 0.00711 0.0
O263 O 0.07362 0.5209 0.02626 0.0
C264 C 0.93365 0.44599 0.05641 0.0
O265 O 0.97482 0.44677 0.04512 0.0
O266 O 0.90711 0.46858 0.03609 0.0
O267 O 0.12251 0.38446 0.97219 0.0
O268 O 0.05788 0.32799 0.96092 0.0
O269 O 0.08406 0.41487 0.06415 0.0
C270 C 0.10148 0.34201 0.95905 0.0
O271 O 0.01722 0.36271 0.05744 0.0
O272 O 0.9445 0.36803 0.96062 0.0
C273 C 0.05223 0.38378 0.0801 0.0
O274 O 0.94604 0.44593 0.94782 0.0
O275 O 0.04776 0.51727 0.92755 0.0
O276 O 0.11445 0.49379 0.93885 0.0
C277 C 0.39948 0.63842 0.06779 0.0
C278 C 0.44136 0.62274 0.93102 0.0
C279 C 0.41271 0.43897 0.95932 0.0
Mg280 Mg 0.48913 0.62929 0.02192 0.0
O281 O 0.46071 0.56558 0.03218 0.0
Mg282 Mg 0.39889 0.54003 0.0049 0.0
Mg283 Mg 0.49187 0.51433 0.01277 0.0
O284 O 0.52342 0.4639 -0.00669 0.0
Mg285 Mg 0.49738 0.39899 0.00018 0.0
Mg286 Mg 0.58733 0.49043 0.01514 0.0
C287 C 0.57247 0.5888 0.0658 0.0
C288 C 0.56651 0.56303 0.94288 0.0
O289 O 0.37747 0.59997 0.04772 0.0
O290 O 0.44175 0.65631 0.06125 0.0
O291 O 0.412 0.58841 0.94601 0.0
O292 O 0.47679 0.64369 0.95372 0.0
O293 O 0.55436 0.62449 0.05521 0.0
O294 O 0.55448 0.54535 0.05469 0.0
C295 C 0.41496 0.46913 0.08216 0.0
O296 O 0.45614 0.4702 0.07004 0.0
O297 O 0.38861 0.49192 0.06187 0.0
O298 O 0.60578 0.43544 0.96491 0.0
O299 O 0.54049 0.38022 0.95183 0.0
O300 O 0.5816 0.43777 0.06984 0.0
C301 C 0.58108 0.40066 0.94188 0.0
O302 O 0.52024 0.37811 0.06376 0.0
O303 O 0.42888 0.40294 0.97263 0.0
C304 C 0.55696 0.39985 0.08426 0.0
O305 O 0.4313 0.48229 0.97024 0.0
O306 O 0.52505 0.55863 0.95476 0.0
O307 O 0.59442 0.54161 0.962 0.0
C308 C 0.87259 0.57558 0.53457 0.0
C309 C 0.93748 0.57783 0.41376 0.0
C310 C 0.94613 0.39769 0.44283 0.0
Mg311 Mg 0.97548 0.59262 0.50783 0.0
O312 O 0.96202 0.52611 0.51524 0.0
Mg313 Mg 0.9078 0.48692 0.48085 0.0
Mg314 Mg 0.00837 0.48674 0.50137 0.0
O315 O 0.05368 0.44694 0.48611 0.0
Mg316 Mg 0.03689 0.38018 0.49095 0.0
Mg317 Mg 0.10709 0.48326 0.52216 0.0
C318 C 0.07232 0.57837 0.55111 0.0
C319 C 0.08697 0.547 0.44247 0.0
O320 O 0.86463 0.53438 0.51475 0.0
O321 O 0.91253 0.60348 0.53711 0.0
O322 O 0.91579 0.53704 0.42514 0.0
O323 O 0.96657 0.60503 0.4394 0.0
O324 O 0.04561 0.60634 0.53873 0.0
O325 O 0.06011 0.53241 0.54773 0.0
C326 C 0.93038 0.42566 0.56109 0.0
O327 O 0.97378 0.43757 0.55555 0.0
O328 O 0.90092 0.43937 0.53649 0.0
O329 O 0.1498 0.43264 0.49094 0.0
O330 O 0.1006 0.36474 0.46814 0.0
O331 O 0.09211 0.43121 0.57744 0.0
C332 C 0.14134 0.39051 0.47279 0.0
O333 O 0.03729 0.36727 0.5588 0.0
O334 O 0.97088 0.36739 0.45361 0.0
C335 C 0.06623 0.39127 0.58648 0.0
O336 O 0.9573 0.44223 0.45394 0.0
O337 O 0.04373 0.53651 0.4493 0.0
O338 O 0.11675 0.53128 0.46545 0.0
C339 C 0.43425 0.13502 0.54444 0.0
C340 C 0.43269 0.08997 0.41285 0.0
C341 C 0.4283 0.90867 0.46949 0.0
Mg342 Mg 0.50734 0.10973 0.48599 0.0
O343 O 0.48481 0.05009 0.51194 0.0
Mg344 Mg 0.41904 0.02037 0.49985 0.0
Mg345 Mg 0.51479 -0.00443 0.49464 0.0
O346 O 0.5452 0.94335 0.47482 0.0
Mg347 Mg 0.52537 0.88113 0.49358 0.0
Mg348 Mg 0.60986 0.97584 0.48963 0.0
C349 C 0.59234 0.08375 0.51526 0.0
C350 C 0.57225 0.02849 0.40859 0.0
O351 O 0.40868 0.09337 0.53412 0.0
O352 O 0.47579 0.1479 0.53243 0.0
O353 O 0.4112 0.05465 0.43362 0.0
O354 O 0.4704 0.11503 0.42741 0.0
O355 O 0.57582 0.09514 0.4799 0.0
O356 O 0.58419 0.03914 0.52448 0.0
C357 C 0.45385 0.9611 0.57844 0.0
O358 O 0.49136 0.96001 0.55919 0.0
O359 O 0.42433 0.98401 0.56358 0.0
O360 O 0.63003 0.9096 0.45615 0.0
O361 O 0.57066 0.84653 0.45593 0.0
O362 O 0.61094 0.93857 0.55407 0.0
C363 C 0.61197 0.86544 0.44642 0.0
O364 O 0.54814 0.88172 0.55966 0.0
O365 O 0.45306 0.87756 0.47757 0.0
C366 C 0.58591 0.90613 0.57555 0.0
O367 O 0.44552 0.95402 0.46893 0.0
O368 O 0.53456 0.02727 0.42803 0.0
O369 O 0.60523 0.01184 0.42549 0.0
C370 C 0.07972 0.13984 0.348 0.0
C371 C 0.10822 0.11972 0.31996 0.0
C372 C 0.05875 0.11447 0.38296 0.0
C373 C 0.06559 0.06821 0.39092 0.0
H374 H 0.07623 0.17677 0.34505 0.0
H375 H 0.04024 0.13251 0.40564 0.0
S376 S 0.12606 -0.00543 0.32128 0.0
N377 N 0.13405 0.04709 0.29814 0.0
N378 N 0.09487 -0.00033 0.36391 0.0
C379 C 0.08931 0.04569 0.36048 0.0
C380 C 0.11046 0.07132 0.32486 0.0
C381 C 0.85909 0.10272 0.3241 0.0
C382 C 0.8688 0.15184 0.3155 0.0
C383 C 0.87988 0.08501 0.35987 0.0
C384 C 0.91055 0.11586 0.38894 0.0
H385 H 0.83284 0.07833 0.30491 0.0
H386 H 0.86969 0.0472 0.36619 0.0
S387 S 0.95 0.24737 0.37795 0.0
N388 N 0.91337 0.23066 0.33653 0.0
N389 N 0.95253 0.19781 0.40372 0.0
C390 C 0.92305 0.16465 0.37862 0.0
C391 C 0.90193 0.18253 0.34206 0.0
C392 C 0.92046 0.87142 0.34394 0.0
C393 C 0.88285 0.88587 0.32354 0.0
C394 C 0.92947 0.87888 0.38844 0.0
C395 C 0.90187 0.90194 0.41446 0.0
H396 H 0.94178 0.85174 0.32588 0.0
H397 H 0.95867 0.86666 0.40251 0.0
S398 S 0.80385 0.95376 0.37696 0.0
N399 N 0.82055 0.92915 0.33272 0.0
N400 N 0.83909 0.94434 0.41654 0.0
C401 C 0.86651 0.92006 0.39437 0.0
C402 C 0.85676 0.91197 0.34888 0.0
C403 C 0.09146 0.83344 0.33494 0.0
C404 C 0.13364 0.857 0.31898 0.0
C405 C 0.07919 0.84207 0.37745 0.0
C406 C 0.10851 0.87478 0.40614 0.0
H407 H 0.06796 0.8073 0.31464 0.0
H408 H 0.04585 0.82342 0.38746 0.0
S409 S 0.22378 0.94482 0.38147 0.0
N410 N 0.20546 0.91415 0.33607 0.0
N411 N 0.18223 0.9299 0.41582 0.0
C412 C 0.15096 0.89837 0.39084 0.0
C413 C 0.16344 0.88984 0.34738 0.0
C414 C 0.09497 0.82037 0.67248 0.0
C415 C 0.1348 0.8482 0.69333 0.0
C416 C 0.06948 0.83988 0.64138 0.0
C417 C 0.08266 0.88806 0.62988 0.0
H418 H 0.08498 0.78228 0.67789 0.0
H419 H 0.04123 0.81604 0.62415 0.0
S420 S 0.17702 0.97927 0.68261 0.0
N421 N 0.18106 0.9286 0.70575 0.0
N422 N 0.13294 0.96543 0.64773 0.0
C423 C 0.11926 0.91759 0.65394 0.0
C424 C 0.14535 0.89764 0.68552 0.0
C425 C 0.12032 0.12275 0.67211 0.0
C426 C 0.16553 0.11728 0.66609 0.0
C427 C 0.08709 0.11111 0.63852 0.0
C428 C 0.09769 0.09259 0.59821 0.0
H429 H 0.11162 0.14037 0.70137 0.0
H430 H 0.05308 0.11789 0.64376 0.0
S431 S 0.20934 0.0652 0.56841 0.0
N432 N 0.21837 0.08852 0.61829 0.0
N433 N 0.1548 0.06407 0.5558 0.0
C434 C 0.14154 0.08287 0.59308 0.0
C435 C 0.17577 0.09585 0.62695 0.0
C436 C 0.83759 0.16708 0.66429 0.0
C437 C 0.78954 0.15298 0.66207 0.0
C438 C 0.86439 0.15138 0.63261 0.0
C439 C 0.8442 0.1205 0.59781 0.0
H440 H 0.85458 0.19226 0.68947 0.0
H441 H 0.90129 0.16376 0.63546 0.0
S442 S 0.7196 0.07031 0.57934 0.0
N443 N 0.72272 0.10454 0.62381 0.0
N444 N 0.7731 0.07437 0.56447 0.0
C445 C 0.79619 0.10454 0.59625 0.0
C446 C 0.76888 0.12092 0.62834 0.0
C447 C 0.9032 0.844 0.65778 0.0
C448 C 0.87313 0.85742 0.68802 0.0
C449 C 0.92204 0.87526 0.6256 0.0
C450 C 0.91037 0.92039 0.62207 0.0
H451 H 0.9092 0.8077 0.65685 0.0
H452 H 0.94248 0.86239 0.6012 0.0
S453 S 0.8384 0.97493 0.69683 0.0
N454 N 0.83698 0.92079 0.71548 0.0
N455 N 0.87154 0.97934 0.65443 0.0
C456 C 0.88334 0.93565 0.65415 0.0
C457 C 0.86499 0.9042 0.6874 0.0
C458 C 0.28549 0.1072 0.11513 0.0
C459 C 0.28916 0.1568 0.12234 0.0
C460 C 0.31711 0.08941 0.08975 0.0
C461 C 0.35431 0.1205 0.07146 0.0
H462 H 0.25855 0.08188 0.12995 0.0
H463 H 0.31325 0.05084 0.08573 0.0
S464 S 0.37923 0.25358 0.07996 0.0
N465 N 0.33257 0.23699 0.10806 0.0
N466 N 0.3922 0.20328 0.06123 0.0
C467 C 0.35799 0.17018 0.07776 0.0
C468 C 0.32533 0.18838 0.10288 0.0
C469 C 0.84612 0.35104 0.10658 0.0
C470 C 0.86763 0.34321 0.14583 0.0
C471 C 0.86828 0.38447 0.07809 0.0
C472 C 0.91268 0.4113 0.08796 0.0
H473 H 0.81146 0.33187 0.0983 0.0
H474 H 0.85037 0.38937 0.04801 0.0
S475 S 0.983 0.40457 0.18757 0.0
N476 N 0.93506 0.36463 0.19397 0.0
N477 N 0.97744 0.42797 0.13974 0.0
C478 C 0.93503 0.40318 0.12684 0.0
C479 C 0.91219 0.36901 0.1561 0.0
C480 C 0.65801 0.88059 0.17205 0.0
C481 C 0.66102 0.83229 0.16542 0.0
C482 C 0.62318 0.89897 0.15147 0.0
C483 C 0.59013 0.86965 0.12363 0.0
H484 H 0.68443 0.90519 0.19084 0.0
H485 H 0.62473 0.93733 0.15412 0.0
S486 S 0.5758 0.73789 0.10548 0.0
N487 N 0.62282 0.75339 0.13654 0.0
N488 N 0.55719 0.78794 0.09784 0.0
C489 C 0.58923 0.82001 0.12154 0.0
C490 C 0.62502 0.80137 0.14213 0.0
C491 C 0.18064 0.65867 0.08537 0.0
C492 C 0.16297 0.65568 0.12724 0.0
C493 C 0.16266 0.62419 0.05286 0.0
C494 C 0.12725 0.58506 0.06148 0.0
H495 H 0.2064 0.68946 0.07688 0.0
H496 H 0.17359 0.63044 0.01993 0.0
S497 S 0.0766 0.55542 0.16828 0.0
N498 N 0.11351 0.60677 0.17741 0.0
N499 N 0.08023 0.54138 0.1164 0.0
C500 C 0.11322 0.57876 0.10443 0.0
C501 C 0.13073 0.61445 0.13729 0.0
C502 C 0.33031 0.90162 0.88262 0.0
C503 C 0.30445 0.85475 0.88612 0.0
C504 C 0.36966 0.91816 0.90888 0.0
C505 C 0.38458 0.88834 0.93939 0.0
H506 H 0.3225 0.92424 0.85696 0.0
H507 H 0.39041 0.9531 0.90273 0.0
S508 S 0.32245 0.76808 0.96983 0.0
N509 N 0.29131 0.78275 0.92924 0.0
N510 N 0.366 0.81399 0.97786 0.0
C511 C 0.3562 0.84386 0.94695 0.0
C512 C 0.31568 0.82717 0.92068 0.0
C513 C 0.13105 0.25295 0.87665 0.0
C514 C 0.17896 0.2602 0.88181 0.0
C515 C 0.10566 0.27706 0.90398 0.0
C516 C 0.12753 0.30963 0.93703 0.0
H517 H 0.11364 0.23231 0.84884 0.0
H518 H 0.06921 0.27299 0.89688 0.0
S519 S 0.25087 0.33151 0.96991 0.0
N520 N 0.24634 0.2954 0.92648 0.0
N521 N 0.19865 0.3405 0.97826 0.0
C522 C 0.17476 0.31309 0.94522 0.0
C523 C 0.20048 0.28838 0.91748 0.0
C524 C 0.5934 0.13785 0.85485 0.0
C525 C 0.63448 0.13442 0.83462 0.0
C526 C 0.57467 0.10492 0.88562 0.0
C527 C 0.59631 0.06743 0.89709 0.0
H528 H 0.57654 0.16731 0.84819 0.0
H529 H 0.54436 0.11024 0.90194 0.0
S530 S 0.70043 0.0381 0.84833 0.0
N531 N 0.69339 0.08748 0.82459 0.0
N532 N 0.65801 0.02526 0.88217 0.0
C533 C 0.63587 0.06186 0.87514 0.0
C534 C 0.65504 0.09548 0.84399 0.0
C535 C 0.91077 0.68043 0.83541 0.0
C536 C 0.8734 0.65284 0.8111 0.0
C537 C 0.94198 0.65852 0.85815 0.0
C538 C 0.93662 0.60822 0.85771 0.0
H539 H 0.91452 0.71901 0.83905 0.0
H540 H 0.96767 0.68089 0.87946 0.0
S541 S 0.85087 0.52022 0.7922 0.0
N542 N 0.8379 0.57266 0.78226 0.0
N543 N 0.89605 0.53205 0.82588 0.0
C544 C 0.90255 0.58068 0.83003 0.0
C545 C 0.87097 0.60281 0.80659 0.0
C546 C 0.0761 0.28903 0.1526 0.0
C547 C 0.11066 0.31543 0.18036 0.0
C548 C 0.05175 0.31244 0.12385 0.0
C549 C 0.0628 0.36276 0.12107 0.0
H550 H 0.07006 0.25015 0.15106 0.0
H551 H 0.02794 0.29066 0.10052 0.0
S552 S 0.1452 0.4477 0.19254 0.0
N553 N 0.14998 0.39395 0.20858 0.0
N554 N 0.10553 0.43827 0.15301 0.0
C555 C 0.09407 0.38952 0.15183 0.0
C556 C 0.11794 0.36566 0.18183 0.0
C557 C 0.10665 0.6113 0.83254 0.0
C558 C 0.15381 0.61704 0.82569 0.0
C559 C 0.08457 0.57535 0.85924 0.0
C560 C 0.10906 0.54441 0.88 0.0
H561 H 0.08737 0.63643 0.81947 0.0
H562 H 0.04871 0.57348 0.86533 0.0
S563 S 0.2306 0.53726 0.86206 0.0
N564 N 0.2223 0.58354 0.83415 0.0
N565 N 0.18106 0.51595 0.88424 0.0
C566 C 0.15509 0.54654 0.86909 0.0
C567 C 0.17746 0.58307 0.84206 0.0
C568 C 0.35086 0.10814 0.83718 0.0
C569 C 0.37017 0.15424 0.82334 0.0
C570 C 0.37534 0.084 0.86516 0.0
C571 C 0.41991 0.10534 0.88116 0.0
H572 H 0.31577 0.09131 0.82799 0.0
H573 H 0.35761 0.04976 0.87669 0.0
S574 S 0.49008 0.22033 0.8469 0.0
N575 N 0.43991 0.21651 0.82141 0.0
N576 N 0.48517 0.17135 0.87519 0.0
C577 C 0.44133 0.14919 0.8642 0.0
C578 C 0.41662 0.17362 0.83509 0.0
C579 C 0.83959 0.38944 0.85483 0.0
C580 C 0.81547 0.34182 0.85879 0.0
C581 C 0.87215 0.41126 0.88643 0.0
C582 C 0.88134 0.38607 0.92293 0.0
H583 H 0.83537 0.409 0.82587 0.0
H584 H 0.89272 0.44634 0.88039 0.0
S585 S 0.81854 0.26578 0.95378 0.0
N586 N 0.79666 0.27369 0.90542 0.0
N587 N 0.85748 0.31503 0.96562 0.0
C588 C 0.85368 0.3406 0.9296 0.0
C589 C 0.82096 0.3182 0.89715 0.0
C590 C 0.67003 0.78015 0.90441 0.0
C591 C 0.70849 0.80647 0.88412 0.0
C592 C 0.64417 0.80265 0.9323 0.0
C593 C 0.6557 0.85246 0.94101 0.0
H594 H 0.6579 0.74231 0.89624 0.0
H595 H 0.61359 0.78109 0.94539 0.0
S596 S 0.757 0.93643 0.90023 0.0
N597 N 0.75978 0.88378 0.87779 0.0
N598 N 0.71145 0.92664 0.93068 0.0
C599 C 0.69653 0.87854 0.9239 0.0
C600 C 0.72294 0.85537 0.89537 0.0
C601 C 0.8971 0.73661 0.07217 0.0
C602 C 0.87052 0.71887 0.10719 0.0
C603 C 0.91273 0.70487 0.04323 0.0
C604 C 0.90131 0.65468 0.04811 0.0
H605 H 0.90651 0.77493 0.06766 0.0
H606 H 0.93435 0.71965 0.01718 0.0
S607 S 0.83353 0.5914 0.13576 0.0
N608 N 0.83408 0.64877 0.14587 0.0
N609 N 0.86257 0.58938 0.09118 0.0
C610 C 0.87397 0.63686 0.08263 0.0
C611 C 0.85884 0.66898 0.11228 0.0
C612 C 0.34973 0.85364 0.12866 0.0
C613 C 0.33637 0.88238 0.16186 0.0
C614 C 0.38833 0.87062 0.10442 0.0
C615 C 0.41455 0.91704 0.11224 0.0
H616 H 0.32932 0.81834 0.12023 0.0
H617 H 0.39471 0.84935 0.07643 0.0
S618 S 0.39803 0.00382 0.19905 0.0
N619 N 0.35587 0.95693 0.20488 0.0
N620 N 0.42776 0.98953 0.15803 0.0
C621 C 0.40414 0.94432 0.1478 0.0
C622 C 0.36502 0.92691 0.17283 0.0
C623 C 0.69573 0.08583 0.10658 0.0
C624 C 0.71794 0.13345 0.10008 0.0
C625 C 0.65357 0.06637 0.08527 0.0
C626 C 0.63279 0.09394 0.05661 0.0
H627 H 0.7071 0.06628 0.13298 0.0
H628 H 0.63519 0.03147 0.09471 0.0
S629 S 0.6861 0.21376 0.01742 0.0
N630 N 0.72285 0.20252 0.05488 0.0
N631 N 0.64374 0.16607 0.01436 0.0
C632 C 0.65871 0.13824 0.0444 0.0
C633 C 0.70178 0.15764 0.06581 0.0
C634 C 0.58093 0.59874 0.82593 0.0
C635 C 0.6282 0.61919 0.82623 0.0
C636 C 0.5591 0.58393 0.86473 0.0
C637 C 0.58395 0.59018 0.90468 0.0
H638 H 0.56122 0.59284 0.79555 0.0
H639 H 0.52347 0.56542 0.86318 0.0
S640 S 0.70562 0.65176 0.92337 0.0
N641 N 0.69706 0.65141 0.87031 0.0
N642 N 0.65619 0.62475 0.94269 0.0
C643 C 0.6301 0.61437 0.90543 0.0
C644 C 0.65224 0.62851 0.86633 0.0
C645 C 0.41381 0.71121 0.85038 0.0
C646 C 0.38447 0.68142 0.81969 0.0
C647 C 0.4365 0.69189 0.88396 0.0
C648 C 0.42969 0.64198 0.88875 0.0
H649 H 0.41654 0.74976 0.85033 0.0
H650 H 0.45598 0.71625 0.9085 0.0
S651 S 0.36132 0.54843 0.81377 0.0
N652 N 0.35414 0.59964 0.79346 0.0
N653 N 0.396 0.56315 0.85687 0.0
C654 C 0.40357 0.61186 0.85617 0.0
C655 C 0.38113 0.63161 0.82155 0.0
C656 C 0.32643 0.39508 0.86882 0.0
C657 C 0.35464 0.39945 0.83247 0.0
C658 C 0.34452 0.41081 0.91022 0.0
C659 C 0.39084 0.43225 0.91608 0.0
H660 H 0.29106 0.37578 0.86593 0.0
H661 H 0.32295 0.40431 0.93792 0.0
S662 S 0.47649 0.46107 0.8306 0.0
N663 N 0.42938 0.43218 0.8043 0.0
N664 N 0.46318 0.46375 0.88211 0.0
C665 C 0.41826 0.44116 0.87955 0.0
C666 C 0.40017 0.42415 0.8376 0.0
C667 C 0.65531 0.39776 0.84415 0.0
C668 C 0.62329 0.37585 0.81146 0.0
C669 C 0.64161 0.40523 0.88642 0.0
C670 C 0.59546 0.39095 0.89751 0.0
H671 H 0.69171 0.40583 0.83801 0.0
H672 H 0.66758 0.42094 0.91082 0.0
S673 S 0.49733 0.34114 0.82081 0.0
N674 N 0.5432 0.34618 0.79108 0.0
N675 N 0.51668 0.36058 0.87005 0.0
C676 C 0.56266 0.37241 0.86403 0.0
C677 C 0.57676 0.36501 0.82112 0.0
C678 C 0.59405 0.30543 0.15319 0.0
C679 C 0.63137 0.33229 0.17846 0.0
C680 C 0.56723 0.32771 0.12539 0.0
C681 C 0.57642 0.37782 0.12178 0.0
H682 H 0.587 0.26656 0.15276 0.0
H683 H 0.5412 0.30522 0.1045 0.0
S684 S 0.66349 0.46538 0.18728 0.0
N685 N 0.67129 0.41239 0.20257 0.0
N686 N 0.62067 0.45418 0.15089 0.0
C687 C 0.61063 0.40536 0.14989 0.0
C688 C 0.63811 0.38267 0.17806 0.0
C689 C 0.62897 0.63034 0.17412 0.0
C690 C 0.6721 0.61807 0.17094 0.0
C691 C 0.5968 0.62011 0.13969 0.0
C692 C 0.6065 0.59651 0.10158 0.0
H693 H 0.62184 0.65237 0.20125 0.0
H694 H 0.56466 0.63213 0.14235 0.0
S695 S 0.71052 0.54822 0.0812 0.0
N696 N 0.72043 0.57546 0.12952 0.0
N697 N 0.65869 0.55443 0.06519 0.0
C698 C 0.64721 0.57928 0.09994 0.0
C699 C 0.68036 0.59042 0.13472 0.0
C700 C 0.38691 0.72032 0.1633 0.0
C701 C 0.34845 0.69493 0.18402 0.0
C702 C 0.40188 0.70251 0.12491 0.0
C703 C 0.37877 0.65862 0.10531 0.0
H704 H 0.40461 0.75525 0.17609 0.0
H705 H 0.43183 0.72366 0.11044 0.0
S706 S 0.27476 0.57905 0.14631 0.0
N707 N 0.28661 0.62442 0.18207 0.0
N708 N 0.3149 0.59016 0.10991 0.0
C709 C 0.34013 0.63266 0.12588 0.0
C710 C 0.3251 0.65085 0.16534 0.0
C711 C 0.32801 0.41511 0.16385 0.0
C712 C 0.34799 0.3802 0.18357 0.0
C713 C 0.35119 0.44498 0.13298 0.0
C714 C 0.39532 0.4409 0.11974 0.0
H715 H 0.29314 0.4179 0.17089 0.0
H716 H 0.33319 0.47022 0.11816 0.0
S717 S 0.46458 0.35826 0.16554 0.0
N718 N 0.41571 0.34553 0.19099 0.0
N719 N 0.45982 0.40193 0.1326 0.0
C720 C 0.417 0.4082 0.14146 0.0
C721 C 0.39321 0.3778 0.17343 0.0
C722 C 0.79697 0.65468 0.57996 0.0
C723 C 0.77173 0.62561 0.61103 0.0
C724 C 0.82847 0.63765 0.55421 0.0
C725 C 0.83471 0.59043 0.55725 0.0
H726 H 0.79537 0.69222 0.57772 0.0
H727 H 0.84922 0.66212 0.53281 0.0
S728 S 0.77132 0.49671 0.6267 0.0
N729 N 0.75124 0.54522 0.6391 0.0
N730 N 0.80931 0.51264 0.58901 0.0
C731 C 0.80656 0.55938 0.58468 0.0
C732 C 0.77518 0.57706 0.61187 0.0
C733 C 0.38818 0.912 0.6749 0.0
C734 C 0.38157 0.86191 0.66722 0.0
C735 C 0.4158 0.94436 0.64843 0.0
C736 C 0.43851 0.92807 0.61358 0.0
H737 H 0.37011 0.92663 0.70029 0.0
H738 H 0.4172 0.98244 0.65367 0.0
S739 S 0.43603 0.80102 0.5814 0.0
N740 N 0.40329 0.79779 0.62397 0.0
N741 N 0.45447 0.85885 0.57389 0.0
C742 C 0.43483 0.8783 0.60724 0.0
C743 C 0.40659 0.84516 0.63417 0.0
C744 C 0.141 0.37545 0.68096 0.0
C745 C 0.14724 0.3286 0.67215 0.0
C746 C 0.10866 0.39419 0.65689 0.0
C747 C 0.08148 0.36643 0.62363 0.0
H748 H 0.16361 0.39895 0.70408 0.0
H749 H 0.10813 0.43198 0.66142 0.0
S750 S 0.07623 0.23718 0.59739 0.0
N751 N 0.11769 0.25174 0.63494 0.0
N752 N 0.05624 0.28649 0.58997 0.0
C753 C 0.08297 0.31738 0.61913 0.0
C754 C 0.11643 0.29865 0.6431 0.0
C755 C 0.58983 0.14507 0.62585 0.0
C756 C 0.6026 0.19406 0.61617 0.0
C757 C 0.58651 0.10903 0.59335 0.0
C758 C 0.59553 0.12094 0.55015 0.0
H759 H 0.58546 0.1343 0.65912 0.0
H760 H 0.57775 0.07182 0.6023 0.0
S761 S 0.62526 0.24419 0.50767 0.0
N762 N 0.61989 0.25256 0.56021 0.0
N763 N 0.61481 0.18546 0.49911 0.0
C764 C 0.60587 0.16996 0.53991 0.0
C765 C 0.60877 0.20633 0.57285 0.0
C766 C 0.83389 0.31979 0.40163 0.0
C767 C 0.8219 0.34488 0.36564 0.0
C768 C 0.87385 0.33732 0.42693 0.0
C769 C 0.90277 0.38102 0.41779 0.0
H770 H 0.81391 0.2848 0.40887 0.0
H771 H 0.88265 0.31607 0.45325 0.0
S772 S 0.88577 0.46278 0.33008 0.0
N773 N 0.84108 0.41774 0.32454 0.0
N774 N 0.91616 0.45035 0.37217 0.0
C775 C 0.88998 0.40797 0.38383 0.0
C776 C 0.84944 0.39011 0.35787 0.0
C777 C 0.71493 0.83177 0.39384 0.0
C778 C 0.69583 0.78998 0.36912 0.0
C779 C 0.68783 0.85443 0.42024 0.0
C780 C 0.64031 0.83634 0.4229 0.0
H781 H 0.75076 0.8486 0.39086 0.0
H782 H 0.70415 0.88754 0.4373 0.0
S783 S 0.57479 0.72443 0.36806 0.0
N784 N 0.62776 0.72872 0.35157 0.0
N785 N 0.57625 0.77107 0.40152 0.0
C786 C 0.62141 0.7924 0.4008 0.0
C787 C 0.64933 0.76922 0.37386 0.0
C788 C 0.1562 0.59374 0.34727 0.0
C789 C 0.14984 0.6411 0.34586 0.0
C790 C 0.13363 0.5626 0.37763 0.0
C791 C 0.10422 0.5781 0.40727 0.0
H792 H 0.17891 0.58089 0.32502 0.0
H793 H 0.1399 0.52643 0.37858 0.0
S794 S 0.08162 0.70069 0.42034 0.0
N795 N 0.11515 0.70333 0.37829 0.0
N796 N 0.07292 0.64451 0.43581 0.0
C797 C 0.09785 0.62544 0.40635 0.0
C798 C 0.12074 0.65713 0.37543 0.0
C799 C 0.39346 0.18071 0.34227 0.0
C800 C 0.35296 0.15432 0.322 0.0
C801 C 0.42112 0.15853 0.36877 0.0
C802 C 0.4092 0.10904 0.37652 0.0
H803 H 0.40304 0.21929 0.33933 0.0
H804 H 0.45047 0.18118 0.38548 0.0
S805 S 0.31274 0.02175 0.32337 0.0
N806 N 0.30668 0.07432 0.30549 0.0
N807 N 0.35852 0.03297 0.35636 0.0
C808 C 0.37112 0.08143 0.35357 0.0
C809 C 0.34304 0.10394 0.32605 0.0
C810 C 0.60172 0.8214 0.66303 0.0
C811 C 0.64966 0.83126 0.66849 0.0
C812 C 0.58008 0.84966 0.63638 0.0
C813 C 0.6059 0.88868 0.61477 0.0
H814 H 0.58121 0.78969 0.67666 0.0
H815 H 0.54341 0.83851 0.63006 0.0
S816 S 0.73146 0.93634 0.62928 0.0
N817 N 0.72147 0.88734 0.65787 0.0
N818 N 0.68103 0.94143 0.60861 0.0
C819 C 0.65328 0.90244 0.625 0.0
C820 C 0.67522 0.87321 0.65149 0.0
C821 C 0.62849 0.07171 0.30575 0.0
C822 C 0.62578 0.12033 0.30775 0.0
C823 C 0.60687 0.0403 0.33651 0.0
C824 C 0.58196 0.05689 0.36966 0.0
H825 H 0.6506 0.05896 0.28282 0.0
H826 H 0.61245 0.00384 0.33629 0.0
S827 S 0.5632 0.18112 0.38578 0.0
N828 N 0.59448 0.1832 0.34235 0.0
N829 N 0.55437 0.12477 0.40051 0.0
C830 C 0.57634 0.10474 0.36942 0.0
C831 C 0.59829 0.13647 0.33826 0.0
C832 C 0.84928 0.60647 0.33485 0.0
C833 C 0.87227 0.64906 0.31685 0.0
C834 C 0.87214 0.58134 0.36327 0.0
C835 C 0.91886 0.59806 0.37529 0.0
H836 H 0.81285 0.59337 0.32839 0.0
H837 H 0.85192 0.55032 0.37816 0.0
S838 S -0.0032 0.7029 0.33123 0.0
N839 N 0.94614 0.70341 0.30833 0.0
N840 N 0.98875 0.65592 0.36245 0.0
C841 C 0.94319 0.63836 0.3549 0.0
C842 C 0.92001 0.66389 0.32546 0.0
C843 C 0.33303 0.89354 0.3868 0.0
C844 C 0.31786 0.84326 0.38558 0.0
C845 C 0.36481 0.91645 0.41858 0.0
C846 C 0.38231 0.88969 0.45003 0.0
H847 H 0.32337 0.915 0.36104 0.0
H848 H 0.37912 0.95433 0.41557 0.0
S849 S 0.34152 0.75999 0.46927 0.0
N850 N 0.31405 0.76935 0.42412 0.0
N851 N 0.3733 0.81262 0.4848 0.0
C852 C 0.36199 0.84068 0.45302 0.0
C853 C 0.33009 0.81725 0.42027 0.0
C854 C 0.23723 0.38317 0.39742 0.0
C855 C 0.23504 0.33343 0.39451 0.0
C856 C 0.20991 0.40259 0.42659 0.0
C857 C 0.1792 0.37251 0.45282 0.0
H858 H 0.25587 0.40632 0.37377 0.0
H859 H 0.20933 0.44047 0.42529 0.0
S860 S 0.16829 0.24142 0.46331 0.0
N861 N 0.20614 0.25592 0.42524 0.0
N862 N 0.15413 0.29217 0.47934 0.0
C863 C 0.18089 0.3237 0.4537 0.0
C864 C 0.20926 0.30424 0.42477 0.0
C865 C 0.34905 0.2046 0.58899 0.0
C866 C 0.37519 0.23598 0.62084 0.0
C867 C 0.36841 0.17209 0.56459 0.0
C868 C 0.41495 0.17035 0.57015 0.0
H869 H 0.31251 0.20283 0.58454 0.0
H870 H 0.34657 0.14779 0.54149 0.0
S871 S 0.49975 0.24795 0.64559 0.0
N872 N 0.45096 0.26521 0.65434 0.0
N873 N 0.48781 0.20512 0.60734 0.0
C874 C 0.44228 0.20342 0.59983 0.0
C875 C 0.42232 0.23599 0.62537 0.0
C876 C 0.85079 0.33233 0.61615 0.0
C877 C 0.83378 0.36017 0.64796 0.0
C878 C 0.88865 0.35194 0.59185 0.0
C879 C 0.91126 0.39985 0.59875 0.0
H880 H 0.83335 0.29575 0.60816 0.0
H881 H 0.89747 0.33092 0.56474 0.0
S882 S 0.88582 0.48605 0.68198 0.0
N883 N 0.84676 0.43668 0.68849 0.0
N884 N 0.91779 0.47331 0.64217 0.0
C885 C 0.89762 0.42669 0.63298 0.0
C886 C 0.85882 0.40697 0.65767 0.0
C887 C 0.17953 0.59774 0.62422 0.0
C888 C 0.19928 0.64625 0.61825 0.0
C889 C 0.14018 0.57472 0.59994 0.0
C890 C 0.11885 0.59984 0.56949 0.0
H891 H 0.19156 0.57901 0.65086 0.0
H892 H 0.12428 0.53835 0.60776 0.0
S893 S 0.16297 0.72459 0.53606 0.0
N894 N 0.19905 0.71628 0.57536 0.0
N895 N 0.12522 0.67343 0.52971 0.0
C896 C 0.14124 0.64675 0.56012 0.0
C897 C 0.18153 0.66981 0.58445 0.0
loop_
_geom_bond_atom_site_label_1
_geom_bond_atom_site_label_2
_geom_bond_distance
_geom_bond_site_symmetry_2
_ccdc_geom_bond_type
O0 Zn1 1.953 . S
O0 C16 1.225 . S
Zn1 O0 1.953 . S
Zn1 O2 1.949 . S
Zn1 O8 1.919 . S
Zn1 O13 1.924 . S
O2 Zn1 1.949 . S
O2 Zn3 1.923 . S
O2 Zn4 1.950 . S
O2 Zn5 1.945 . S
Zn3 O2 1.923 . S
Zn3 O6 1.933 . S
Zn3 O9 1.941 . S
Zn3 O10 1.965 . S
Zn4 O2 1.950 . S
Zn4 O11 1.938 . S
Zn4 O12 1.906 . S
Zn4 O22 1.953 . S
Zn5 O2 1.945 . S
Zn5 O7 1.932 . S
Zn5 O14 1.977 . S
Zn5 O15 1.910 . S
O6 Zn3 1.933 . S
O6 C17 1.226 . S
O7 Zn5 1.932 . S
O7 C17 1.307 . S
O8 Zn1 1.919 . S
O8 C19 1.253 . S
O9 Zn3 1.941 . S
O9 C19 1.283 . S
O10 Zn3 1.965 . S
O10 C18 1.303 . S
O11 Zn4 1.938 . S
O11 C18 1.247 . S
O12 Zn4 1.906 . S
O12 C20 1.304 . S
O13 Zn1 1.924 . S
O13 C21 1.311 . S
O14 Zn5 1.977 . S
O14 C20 1.272 . S
O15 Zn5 1.910 . S
O15 C21 1.231 . S
C16 O0 1.225 . S
C16 O22 1.298 . S
C17 O6 1.226 . S
C17 O7 1.307 . S
C18 O10 1.303 . S
C18 O11 1.247 . S
C19 O8 1.253 . S
C19 O9 1.283 . S
C20 O12 1.304 . S
C20 O14 1.272 . S
C21 O13 1.311 . S
C21 O15 1.231 . S
O22 Zn4 1.953 . S
O22 C16 1.298 . S
O23 Zn24 1.953 . S
O23 C39 1.225 . S
Zn24 O23 1.953 . S
Zn24 O25 1.949 . S
Zn24 O31 1.919 . S
Zn24 O36 1.924 . S
O25 Zn24 1.949 . S
O25 Zn26 1.923 . S
O25 Zn27 1.950 . S
O25 Zn28 1.945 . S
Zn26 O25 1.923 . S
Zn26 O29 1.933 . S
Zn26 O32 1.941 . S
Zn26 O33 1.965 . S
Zn27 O25 1.950 . S
Zn27 O34 1.938 . S
Zn27 O35 1.906 . S
Zn27 O45 1.953 . S
Zn28 O25 1.945 . S
Zn28 O30 1.932 . S
Zn28 O37 1.977 . S
Zn28 O38 1.910 . S
O29 Zn26 1.933 . S
O29 C40 1.226 . S
O30 Zn28 1.932 . S
O30 C40 1.307 . S
O31 Zn24 1.919 . S
O31 C42 1.253 . S
O32 Zn26 1.941 . S
O32 C42 1.283 . S
O33 Zn26 1.965 . S
O33 C41 1.303 . S
O34 Zn27 1.938 . S
O34 C41 1.247 . S
O35 Zn27 1.906 . S
O35 C43 1.304 . S
O36 Zn24 1.924 . S
O36 C44 1.311 . S
O37 Zn28 1.977 . S
O37 C43 1.272 . S
O38 Zn28 1.910 . S
O38 C44 1.231 . S
C39 O23 1.225 . S
C39 O45 1.298 . S
C40 O29 1.226 . S
C40 O30 1.307 . S
C41 O33 1.303 . S
C41 O34 1.247 . S
C42 O31 1.253 . S
C42 O32 1.283 . S
C43 O35 1.304 . S
C43 O37 1.272 . S
C44 O36 1.311 . S
C44 O38 1.231 . S
O45 Zn27 1.953 . S
O45 C39 1.298 . S
O46 Zn47 1.953 . S
O46 C62 1.225 . S
Zn47 O46 1.953 . S
Zn47 O48 1.949 . S
Zn47 O54 1.919 . S
Zn47 O59 1.924 . S
O48 Zn47 1.949 . S
O48 Zn49 1.923 . S
O48 Zn50 1.950 . S
O48 Zn51 1.945 . S
Zn49 O48 1.923 . S
Zn49 O52 1.933 . S
Zn49 O55 1.941 . S
Zn49 O56 1.965 . S
Zn50 O48 1.950 . S
Zn50 O57 1.938 . S
Zn50 O58 1.906 . S
Zn50 O68 1.953 . S
Zn51 O48 1.945 . S
Zn51 O53 1.932 . S
Zn51 O60 1.977 . S
Zn51 O61 1.910 . S
O52 Zn49 1.933 . S
O52 C63 1.226 . S
O53 Zn51 1.932 . S
O53 C63 1.307 . S
O54 Zn47 1.919 . S
O54 C65 1.253 . S
O55 Zn49 1.941 . S
O55 C65 1.283 . S
O56 Zn49 1.965 . S
O56 C64 1.303 . S
O57 Zn50 1.938 . S
O57 C64 1.247 . S
O58 Zn50 1.906 . S
O58 C66 1.304 . S
O59 Zn47 1.924 . S
O59 C67 1.311 . S
O60 Zn51 1.977 . S
O60 C66 1.272 . S
O61 Zn51 1.910 . S
O61 C67 1.231 . S
C62 O46 1.225 . S
C62 O68 1.298 . S
C63 O52 1.226 . S
C63 O53 1.307 . S
C64 O56 1.303 . S
C64 O57 1.247 . S
C65 O54 1.253 . S
C65 O55 1.283 . S
C66 O58 1.304 . S
C66 O60 1.272 . S
C67 O59 1.311 . S
C67 O61 1.231 . S
O68 Zn50 1.953 . S
O68 C62 1.298 . S
O69 Zn70 1.953 . S
O69 C85 1.225 . S
Zn70 O69 1.953 . S
Zn70 O71 1.949 . S
Zn70 O77 1.919 . S
Zn70 O82 1.924 . S
O71 Zn70 1.949 . S
O71 Zn72 1.923 . S
O71 Zn73 1.950 . S
O71 Zn74 1.945 . S
Zn72 O71 1.923 . S
Zn72 O75 1.933 . S
Zn72 O78 1.941 . S
Zn72 O79 1.965 . S
Zn73 O71 1.950 . S
Zn73 O80 1.938 . S
Zn73 O81 1.906 . S
Zn73 O91 1.953 . S
Zn74 O71 1.945 . S
Zn74 O76 1.932 . S
Zn74 O83 1.977 . S
Zn74 O84 1.910 . S
O75 Zn72 1.933 . S
O75 C86 1.226 . S
O76 Zn74 1.932 . S
O76 C86 1.307 . S
O77 Zn70 1.919 . S
O77 C88 1.253 . S
O78 Zn72 1.941 . S
O78 C88 1.283 . S
O79 Zn72 1.965 . S
O79 C87 1.303 . S
O80 Zn73 1.938 . S
O80 C87 1.247 . S
O81 Zn73 1.906 . S
O81 C89 1.304 . S
O82 Zn70 1.924 . S
O82 C90 1.311 . S
O83 Zn74 1.977 . S
O83 C89 1.272 . S
O84 Zn74 1.910 . S
O84 C90 1.231 . S
C85 O69 1.225 . S
C85 O91 1.298 . S
C86 O75 1.226 . S
C86 O76 1.307 . S
C87 O79 1.303 . S
C87 O80 1.247 . S
C88 O77 1.253 . S
C88 O78 1.283 . S
C89 O81 1.304 . S
C89 O83 1.272 . S
C90 O82 1.311 . S
C90 O84 1.231 . S
O91 Zn73 1.953 . S
O91 C85 1.298 . S
O92 Zn93 1.953 . S
O92 C108 1.225 . S
Zn93 O92 1.953 . S
Zn93 O94 1.949 . S
Zn93 O100 1.919 . S
Zn93 O105 1.924 . S
O94 Zn93 1.949 . S
O94 Zn95 1.923 . S
O94 Zn96 1.950 . S
O94 Zn97 1.945 . S
Zn95 O94 1.923 . S
Zn95 O98 1.933 . S
Zn95 O101 1.941 . S
Zn95 O102 1.965 . S
Zn96 O94 1.950 . S
Zn96 O103 1.938 . S
Zn96 O104 1.906 . S
Zn96 O114 1.953 . S
Zn97 O94 1.945 . S
Zn97 O99 1.932 . S
Zn97 O106 1.977 . S
Zn97 O107 1.910 . S
O98 Zn95 1.933 . S
O98 C109 1.226 . S
O99 Zn97 1.932 . S
O99 C109 1.307 . S
O100 Zn93 1.919 . S
O100 C111 1.253 . S
O101 Zn95 1.941 . S
O101 C111 1.283 . S
O102 Zn95 1.965 . S
O102 C110 1.303 . S
O103 Zn96 1.938 . S
O103 C110 1.247 . S
O104 Zn96 1.906 . S
O104 C112 1.304 . S
O105 Zn93 1.924 . S
O105 C113 1.311 . S
O106 Zn97 1.977 . S
O106 C112 1.272 . S
O107 Zn97 1.910 . S
O107 C113 1.231 . S
C108 O92 1.225 . S
C108 O114 1.298 . S
C109 O98 1.226 . S
C109 O99 1.307 . S
C110 O102 1.303 . S
C110 O103 1.247 . S
C111 O100 1.253 . S
C111 O101 1.283 . S
C112 O104 1.304 . S
C112 O106 1.272 . S
C113 O105 1.311 . S
C113 O107 1.231 . S
O114 Zn96 1.953 . S
O114 C108 1.298 . S
O115 Zn116 1.953 . S
O115 C131 1.225 . S
Zn116 O115 1.953 . S
Zn116 O117 1.949 . S
Zn116 O123 1.919 . S
Zn116 O128 1.924 . S
O117 Zn116 1.949 . S
O117 Zn118 1.923 . S
O117 Zn119 1.950 . S
O117 Zn120 1.945 . S
Zn118 O117 1.923 . S
Zn118 O121 1.933 . S
Zn118 O124 1.941 . S
Zn118 O125 1.965 . S
Zn119 O117 1.950 . S
Zn119 O126 1.938 . S
Zn119 O127 1.906 . S
Zn119 O137 1.953 . S
Zn120 O117 1.945 . S
Zn120 O122 1.932 . S
Zn120 O129 1.977 . S
Zn120 O130 1.910 . S
O121 Zn118 1.933 . S
O121 C132 1.226 . S
O122 Zn120 1.932 . S
O122 C132 1.307 . S
O123 Zn116 1.919 . S
O123 C134 1.253 . S
O124 Zn118 1.941 . S
O124 C134 1.283 . S
O125 Zn118 1.965 . S
O125 C133 1.303 . S
O126 Zn119 1.938 . S
O126 C133 1.247 . S
O127 Zn119 1.906 . S
O127 C135 1.304 . S
O128 Zn116 1.924 . S
O128 C136 1.311 . S
O129 Zn120 1.977 . S
O129 C135 1.272 . S
O130 Zn120 1.910 . S
O130 C136 1.231 . S
C131 O115 1.225 . S
C131 O137 1.298 . S
C132 O121 1.226 . S
C132 O122 1.307 . S
C133 O125 1.303 . S
C133 O126 1.247 . S
C134 O123 1.253 . S
C134 O124 1.283 . S
C135 O127 1.304 . S
C135 O129 1.272 . S
C136 O128 1.311 . S
C136 O130 1.231 . S
O137 Zn119 1.953 . S
O137 C131 1.298 . S
O138 Zn139 1.953 . S
O138 C154 1.225 . S
Zn139 O138 1.953 . S
Zn139 O140 1.949 . S
Zn139 O146 1.919 . S
Zn139 O151 1.924 . S
O140 Zn139 1.949 . S
O140 Zn141 1.923 . S
O140 Zn142 1.950 . S
O140 Zn143 1.945 . S
Zn141 O140 1.923 . S
Zn141 O144 1.933 . S
Zn141 O147 1.941 . S
Zn141 O148 1.965 . S
Zn142 O140 1.950 . S
Zn142 O149 1.938 . S
Zn142 O150 1.906 . S
Zn142 O160 1.953 . S
Zn143 O140 1.945 . S
Zn143 O145 1.932 . S
Zn143 O152 1.977 . S
Zn143 O153 1.910 . S
O144 Zn141 1.933 . S
O144 C155 1.226 . S
O145 Zn143 1.932 . S
O145 C155 1.307 . S
O146 Zn139 1.919 . S
O146 C157 1.253 . S
O147 Zn141 1.941 . S
O147 C157 1.283 . S
O148 Zn141 1.965 . S
O148 C156 1.303 . S
O149 Zn142 1.938 . S
O149 C156 1.247 . S
O150 Zn142 1.906 . S
O150 C158 1.304 . S
O151 Zn139 1.924 . S
O151 C159 1.311 . S
O152 Zn143 1.977 . S
O152 C158 1.272 . S
O153 Zn143 1.910 . S
O153 C159 1.231 . S
C154 O138 1.225 . S
C154 O160 1.298 . S
C155 O144 1.226 . S
C155 O145 1.307 . S
C156 O148 1.303 . S
C156 O149 1.247 . S
C157 O146 1.253 . S
C157 O147 1.283 . S
C158 O150 1.304 . S
C158 O152 1.272 . S
C159 O151 1.311 . S
C159 O153 1.231 . S
O160 Zn142 1.953 . S
O160 C154 1.298 . S
O161 Zn162 1.953 . S
O161 C177 1.225 . S
Zn162 O161 1.953 . S
Zn162 O163 1.949 . S
Zn162 O169 1.919 . S
Zn162 O174 1.924 . S
O163 Zn162 1.949 . S
O163 Zn164 1.923 . S
O163 Zn165 1.950 . S
O163 Zn166 1.945 . S
Zn164 O163 1.923 . S
Zn164 O167 1.933 . S
Zn164 O170 1.941 . S
Zn164 O171 1.965 . S
Zn165 O163 1.950 . S
Zn165 O172 1.938 . S
Zn165 O173 1.906 . S
Zn165 O183 1.953 . S
Zn166 O163 1.945 . S
Zn166 O168 1.932 . S
Zn166 O175 1.977 . S
Zn166 O176 1.910 . S
O167 Zn164 1.933 . S
O167 C178 1.226 . S
O168 Zn166 1.932 . S
O168 C178 1.307 . S
O169 Zn162 1.919 . S
O169 C180 1.253 . S
O170 Zn164 1.941 . S
O170 C180 1.283 . S
O171 Zn164 1.965 . S
O171 C179 1.303 . S
O172 Zn165 1.938 . S
O172 C179 1.247 . S
O173 Zn165 1.906 . S
O173 C181 1.304 . S
O174 Zn162 1.924 . S
O174 C182 1.311 . S
O175 Zn166 1.977 . S
O175 C181 1.272 . S
O176 Zn166 1.910 . S
O176 C182 1.231 . S
C177 O161 1.225 . S
C177 O183 1.298 . S
C178 O167 1.226 . S
C178 O168 1.307 . S
C179 O171 1.303 . S
C179 O172 1.247 . S
C180 O169 1.253 . S
C180 O170 1.283 . S
C181 O173 1.304 . S
C181 O175 1.272 . S
C182 O174 1.311 . S
C182 O176 1.231 . S
O183 Zn165 1.953 . S
O183 C177 1.298 . S
C184 O196 1.241 . S
C184 O197 1.280 . S
C185 O198 1.277 . S
C185 O199 1.245 . S
C186 O210 1.247 . S
C186 O212 1.289 . S
Mg187 O188 1.926 . S
Mg187 O197 1.984 . S
Mg187 O199 1.988 . S
Mg187 O200 2.061 1_655 S
O188 Mg187 1.926 . S
O188 Mg189 1.986 . S
O188 Mg190 1.917 1_655 S
Mg189 O188 1.986 . S
Mg189 O196 2.042 . S
Mg189 O198 2.041 . S
Mg189 O204 2.038 1_545 S
Mg189 O212 2.238 1_545 S
Mg190 O188 1.917 1_455 S
Mg190 O191 1.917 1_545 S
Mg190 O201 2.106 . S
Mg190 O203 2.079 1_445 S
Mg190 O212 2.106 1_445 S
Mg190 O213 2.079 . S
O191 Mg190 1.917 1_565 S
O191 Mg192 1.926 . S
O191 Mg193 1.986 . S
Mg192 O191 1.926 . S
Mg192 O206 1.984 . S
Mg192 O209 1.988 . S
Mg192 O210 2.061 1_455 S
Mg193 O191 1.986 . S
Mg193 O201 2.238 1_565 S
Mg193 O205 2.042 . S
Mg193 O207 2.041 . S
Mg193 O214 2.038 1_565 S
C194 O200 1.247 . S
C194 O201 1.289 . S
C195 O213 1.245 . S
C195 O214 1.274 . S
O196 C184 1.241 . S
O196 Mg189 2.042 . S
O197 C184 1.280 . S
O197 Mg187 1.984 . S
O198 C185 1.277 . S
O198 Mg189 2.041 . S
O199 C185 1.245 . S
O199 Mg187 1.988 . S
O200 Mg187 2.061 1_455 S
O200 C194 1.247 . S
O201 Mg190 2.106 . S
O201 Mg193 2.238 1_545 S
O201 C194 1.289 . S
C202 O203 1.245 . S
C202 O204 1.274 . S
O203 Mg190 2.079 1_665 S
O203 C202 1.245 . S
O204 Mg189 2.038 1_565 S
O204 C202 1.274 . S
O205 Mg193 2.042 . S
O205 C208 1.241 . S
O206 Mg192 1.984 . S
O206 C208 1.280 . S
O207 Mg193 2.041 . S
O207 C211 1.277 . S
C208 O205 1.241 . S
C208 O206 1.280 . S
O209 Mg192 1.988 . S
O209 C211 1.245 . S
O210 C186 1.247 . S
O210 Mg192 2.061 1_655 S
C211 O207 1.277 . S
C211 O209 1.245 . S
O212 C186 1.289 . S
O212 Mg189 2.238 1_565 S
O212 Mg190 2.106 1_665 S
O213 Mg190 2.079 . S
O213 C195 1.245 . S
O214 Mg193 2.038 1_545 S
O214 C195 1.274 . S
C215 O227 1.241 . S
C215 O228 1.280 . S
C216 O229 1.277 . S
C216 O230 1.245 . S
C217 O241 1.247 . S
C217 O243 1.289 . S
Mg218 O219 1.926 . S
Mg218 O228 1.984 . S
Mg218 O230 1.988 1_554 S
Mg218 O231 2.061 . S
O219 Mg218 1.926 . S
O219 Mg220 1.986 . S
O219 Mg221 1.917 . S
Mg220 O219 1.986 . S
Mg220 O227 2.042 . S
Mg220 O229 2.041 1_554 S
Mg220 O235 2.038 1_545 S
Mg220 O243 2.238 1_544 S
Mg221 O219 1.917 . S
Mg221 O222 1.917 1_544 S
Mg221 O232 2.106 . S
Mg221 O234 2.079 1_545 S
Mg221 O243 2.106 1_544 S
Mg221 O244 2.079 1_554 S
O222 Mg221 1.917 1_566 S
O222 Mg223 1.926 . S
O222 Mg224 1.986 1_556 S
Mg223 O222 1.926 . S
Mg223 O237 1.984 . S
Mg223 O240 1.988 1_556 S
Mg223 O241 2.061 . S
Mg224 O222 1.986 1_554 S
Mg224 O232 2.238 1_565 S
Mg224 O236 2.042 1_554 S
Mg224 O238 2.041 . S
Mg224 O245 2.038 1_564 S
C225 O231 1.247 . S
C225 O232 1.289 . S
C226 O244 1.245 . S
C226 O245 1.274 . S
O227 C215 1.241 . S
O227 Mg220 2.042 . S
O228 C215 1.280 . S
O228 Mg218 1.984 . S
O229 C216 1.277 . S
O229 Mg220 2.041 1_556 S
O230 C216 1.245 . S
O230 Mg218 1.988 1_556 S
O231 Mg218 2.061 . S
O231 C225 1.247 . S
O232 Mg221 2.106 . S
O232 Mg224 2.238 1_545 S
O232 C225 1.289 . S
C233 O234 1.245 . S
C233 O235 1.274 . S
O234 Mg221 2.079 1_565 S
O234 C233 1.245 . S
O235 Mg220 2.038 1_565 S
O235 C233 1.274 . S
O236 Mg224 2.042 1_556 S
O236 C239 1.241 . S
O237 Mg223 1.984 . S
O237 C239 1.280 . S
O238 Mg224 2.041 . S
O238 C242 1.277 . S
C239 O236 1.241 . S
C239 O237 1.280 . S
O240 Mg223 1.988 1_554 S
O240 C242 1.245 . S
O241 C217 1.247 . S
O241 Mg223 2.061 . S
C242 O238 1.277 . S
C242 O240 1.245 . S
O243 C217 1.289 . S
O243 Mg220 2.238 1_566 S
O243 Mg221 2.106 1_566 S
O244 Mg221 2.079 1_556 S
O244 C226 1.245 . S
O245 Mg224 2.038 1_546 S
O245 C226 1.274 . S
C246 O258 1.241 . S
C246 O259 1.280 . S
C247 O260 1.277 . S
C247 O261 1.245 . S
C248 O272 1.247 . S
C248 O274 1.289 . S
Mg249 O250 1.926 . S
Mg249 O259 1.984 . S
Mg249 O261 1.988 1_554 S
Mg249 O262 2.061 1_655 S
O250 Mg249 1.926 . S
O250 Mg251 1.986 . S
O250 Mg252 1.917 1_655 S
Mg251 O250 1.986 . S
Mg251 O258 2.042 . S
Mg251 O260 2.041 1_554 S
Mg251 O266 2.038 . S
Mg251 O274 2.238 1_554 S
Mg252 O250 1.917 1_455 S
Mg252 O253 1.917 1_554 S
Mg252 O263 2.106 . S
Mg252 O265 2.079 1_455 S
Mg252 O274 2.106 1_454 S
Mg252 O275 2.079 1_554 S
O253 Mg252 1.917 1_556 S
O253 Mg254 1.926 . S
O253 Mg255 1.986 1_556 S
Mg254 O253 1.926 . S
Mg254 O268 1.984 . S
Mg254 O271 1.988 1_556 S
Mg254 O272 2.061 1_455 S
Mg255 O253 1.986 1_554 S
Mg255 O263 2.238 . S
Mg255 O267 2.042 1_554 S
Mg255 O269 2.041 . S
Mg255 O276 2.038 1_554 S
C256 O262 1.247 . S
C256 O263 1.289 . S
C257 O275 1.245 . S
C257 O276 1.274 . S
O258 C246 1.241 . S
O258 Mg251 2.042 . S
O259 C246 1.280 . S
O259 Mg249 1.984 . S
O260 C247 1.277 . S
O260 Mg251 2.041 1_556 S
O261 C247 1.245 . S
O261 Mg249 1.988 1_556 S
O262 Mg249 2.061 1_455 S
O262 C256 1.247 . S
O263 Mg252 2.106 . S
O263 Mg255 2.238 . S
O263 C256 1.289 . S
C264 O265 1.245 . S
C264 O266 1.274 . S
O265 Mg252 2.079 1_655 S
O265 C264 1.245 . S
O266 Mg251 2.038 . S
O266 C264 1.274 . S
O267 Mg255 2.042 1_556 S
O267 C270 1.241 . S
O268 Mg254 1.984 . S
O268 C270 1.280 . S
O269 Mg255 2.041 . S
O269 C273 1.277 . S
C270 O267 1.241 . S
C270 O268 1.280 . S
O271 Mg254 1.988 1_554 S
O271 C273 1.245 . S
O272 C248 1.247 . S
O272 Mg254 2.061 1_655 S
C273 O269 1.277 . S
C273 O271 1.245 . S
O274 C248 1.289 . S
O274 Mg251 2.238 1_556 S
O274 Mg252 2.106 1_656 S
O275 Mg252 2.079 1_556 S
O275 C257 1.245 . S
O276 Mg255 2.038 1_556 S
O276 C257 1.274 . S
C277 O289 1.241 . S
C277 O290 1.280 . S
C278 O291 1.277 . S
C278 O292 1.245 . S
C279 O303 1.247 . S
C279 O305 1.289 . S
Mg280 O281 1.926 . S
Mg280 O290 1.984 . S
Mg280 O292 1.988 1_554 S
Mg280 O293 2.061 . S
O281 Mg280 1.926 . S
O281 Mg282 1.986 . S
O281 Mg283 1.917 . S
Mg282 O281 1.986 . S
Mg282 O289 2.042 . S
Mg282 O291 2.041 1_554 S
Mg282 O297 2.038 . S
Mg282 O305 2.238 1_554 S
Mg283 O281 1.917 . S
Mg283 O284 1.917 1_554 S
Mg283 O294 2.106 . S
Mg283 O296 2.079 . S
Mg283 O305 2.106 1_554 S
Mg283 O306 2.079 1_554 S
O284 Mg283 1.917 1_556 S
O284 Mg285 1.926 . S
O284 Mg286 1.986 1_556 S
Mg285 O284 1.926 . S
Mg285 O299 1.984 . S
Mg285 O302 1.988 1_556 S
Mg285 O303 2.061 . S
Mg286 O284 1.986 1_554 S
Mg286 O294 2.238 . S
Mg286 O298 2.042 1_554 S
Mg286 O300 2.041 . S
Mg286 O307 2.038 1_554 S
C287 O293 1.247 . S
C287 O294 1.289 . S
C288 O306 1.245 . S
C288 O307 1.274 . S
O289 C277 1.241 . S
O289 Mg282 2.042 . S
O290 C277 1.280 . S
O290 Mg280 1.984 . S
O291 C278 1.277 . S
O291 Mg282 2.041 1_556 S
O292 C278 1.245 . S
O292 Mg280 1.988 1_556 S
O293 Mg280 2.061 . S
O293 C287 1.247 . S
O294 Mg283 2.106 . S
O294 Mg286 2.238 . S
O294 C287 1.289 . S
C295 O296 1.245 . S
C295 O297 1.274 . S
O296 Mg283 2.079 . S
O296 C295 1.245 . S
O297 Mg282 2.038 . S
O297 C295 1.274 . S
O298 Mg286 2.042 1_556 S
O298 C301 1.241 . S
O299 Mg285 1.984 . S
O299 C301 1.280 . S
O300 Mg286 2.041 . S
O300 C304 1.277 . S
C301 O298 1.241 . S
C301 O299 1.280 . S
O302 Mg285 1.988 1_554 S
O302 C304 1.245 . S
O303 C279 1.247 . S
O303 Mg285 2.061 . S
C304 O300 1.277 . S
C304 O302 1.245 . S
O305 C279 1.289 . S
O305 Mg282 2.238 1_556 S
O305 Mg283 2.106 1_556 S
O306 Mg283 2.079 1_556 S
O306 C288 1.245 . S
O307 Mg286 2.038 1_556 S
O307 C288 1.274 . S
C308 O320 1.241 . S
C308 O321 1.280 . S
C309 O322 1.277 . S
C309 O323 1.245 . S
C310 O334 1.247 . S
C310 O336 1.289 . S
Mg311 O312 1.926 . S
Mg311 O321 1.984 . S
Mg311 O323 1.988 . S
Mg311 O324 2.061 1_655 S
O312 Mg311 1.926 . S
O312 Mg313 1.986 . S
O312 Mg314 1.917 1_655 S
Mg313 O312 1.986 . S
Mg313 O320 2.042 . S
Mg313 O322 2.041 . S
Mg313 O328 2.038 . S
Mg313 O336 2.238 . S
Mg314 O312 1.917 1_455 S
Mg314 O315 1.917 . S
Mg314 O325 2.106 . S
Mg314 O327 2.079 1_455 S
Mg314 O336 2.106 1_455 S
Mg314 O337 2.079 . S
O315 Mg314 1.917 . S
O315 Mg316 1.926 . S
O315 Mg317 1.986 . S
Mg316 O315 1.926 . S
Mg316 O330 1.984 . S
Mg316 O333 1.988 . S
Mg316 O334 2.061 1_455 S
Mg317 O315 1.986 . S
Mg317 O325 2.238 . S
Mg317 O329 2.042 . S
Mg317 O331 2.041 . S
Mg317 O338 2.038 . S
C318 O324 1.247 . S
C318 O325 1.289 . S
C319 O337 1.245 . S
C319 O338 1.274 . S
O320 C308 1.241 . S
O320 Mg313 2.042 . S
O321 C308 1.280 . S
O321 Mg311 1.984 . S
O322 C309 1.277 . S
O322 Mg313 2.041 . S
O323 C309 1.245 . S
O323 Mg311 1.988 . S
O324 Mg311 2.061 1_455 S
O324 C318 1.247 . S
O325 Mg314 2.106 . S
O325 Mg317 2.238 . S
O325 C318 1.289 . S
C326 O327 1.245 . S
C326 O328 1.274 . S
O327 Mg314 2.079 1_655 S
O327 C326 1.245 . S
O328 Mg313 2.038 . S
O328 C326 1.274 . S
O329 Mg317 2.042 . S
O329 C332 1.241 . S
O330 Mg316 1.984 . S
O330 C332 1.280 . S
O331 Mg317 2.041 . S
O331 C335 1.277 . S
C332 O329 1.241 . S
C332 O330 1.280 . S
O333 Mg316 1.988 . S
O333 C335 1.245 . S
O334 C310 1.247 . S
O334 Mg316 2.061 1_655 S
C335 O331 1.277 . S
C335 O333 1.245 . S
O336 C310 1.289 . S
O336 Mg313 2.238 . S
O336 Mg314 2.106 1_655 S
O337 Mg314 2.079 . S
O337 C319 1.245 . S
O338 Mg317 2.038 . S
O338 C319 1.274 . S
C339 O351 1.241 . S
C339 O352 1.280 . S
C340 O353 1.277 . S
C340 O354 1.245 . S
C341 O365 1.247 . S
C341 O367 1.289 . S
Mg342 O343 1.926 . S
Mg342 O352 1.984 . S
Mg342 O354 1.988 . S
Mg342 O355 2.061 . S
O343 Mg342 1.926 . S
O343 Mg344 1.986 . S
O343 Mg345 1.917 . S
Mg344 O343 1.986 . S
Mg344 O351 2.042 . S
Mg344 O353 2.041 . S
Mg344 O359 2.038 1_545 S
Mg344 O367 2.238 1_545 S
Mg345 O343 1.917 . S
Mg345 O346 1.917 1_545 S
Mg345 O356 2.106 . S
Mg345 O358 2.079 1_545 S
Mg345 O367 2.106 1_545 S
Mg345 O368 2.079 . S
O346 Mg345 1.917 1_565 S
O346 Mg347 1.926 . S
O346 Mg348 1.986 1_565 S
Mg347 O346 1.926 . S
Mg347 O361 1.984 . S
Mg347 O364 1.988 . S
Mg347 O365 2.061 . S
Mg348 O346 1.986 1_545 S
Mg348 O356 2.238 . S
Mg348 O360 2.042 1_545 S
Mg348 O362 2.041 1_545 S
Mg348 O369 2.038 . S
C349 O355 1.247 . S
C349 O356 1.289 . S
C350 O368 1.245 . S
C350 O369 1.274 . S
O351 C339 1.241 . S
O351 Mg344 2.042 . S
O352 C339 1.280 . S
O352 Mg342 1.984 . S
O353 C340 1.277 . S
O353 Mg344 2.041 . S
O354 C340 1.245 . S
O354 Mg342 1.988 . S
O355 Mg342 2.061 . S
O355 C349 1.247 . S
O356 Mg345 2.106 . S
O356 Mg348 2.238 . S
O356 C349 1.289 . S
C357 O358 1.245 . S
C357 O359 1.274 . S
O358 Mg345 2.079 1_565 S
O358 C357 1.245 . S
O359 Mg344 2.038 1_565 S
O359 C357 1.274 . S
O360 Mg348 2.042 1_565 S
O360 C363 1.241 . S
O361 Mg347 1.984 . S
O361 C363 1.280 . S
O362 Mg348 2.041 1_565 S
O362 C366 1.277 . S
C363 O360 1.241 . S
C363 O361 1.280 . S
O364 Mg347 1.988 . S
O364 C366 1.245 . S
O365 C341 1.247 . S
O365 Mg347 2.061 . S
C366 O362 1.277 . S
C366 O364 1.245 . S
O367 C341 1.289 . S
O367 Mg344 2.238 1_565 S
O367 Mg345 2.106 1_565 S
O368 Mg345 2.079 . S
O368 C350 1.245 . S
O369 Mg348 2.038 . S
O369 C350 1.274 . S
C370 C371 1.369 . S
C370 C372 1.419 . S
C370 H374 0.930 . S
C371 C370 1.369 . S
C371 C380 1.429 . S
C372 C370 1.419 . S
C372 C373 1.363 . S
C372 H375 0.929 . S
C373 C372 1.363 . S
C373 C379 1.428 . S
H374 C370 0.930 . S
H375 C372 0.929 . S
S376 N377 1.613 . S
S376 N378 1.610 . S
N377 S376 1.613 . S
N377 C380 1.350 . S
N378 S376 1.610 . S
N378 C379 1.351 . S
C379 C373 1.428 . S
C379 N378 1.351 . S
C379 C380 1.434 . S
C380 C371 1.429 . S
C380 N377 1.350 . S
C380 C379 1.434 . S
C381 C382 1.369 . S
C381 C383 1.419 . S
C381 H385 0.930 . S
C382 C381 1.369 . S
C382 C391 1.429 . S
C383 C381 1.419 . S
C383 C384 1.363 . S
C383 H386 0.929 . S
C384 C383 1.363 . S
C384 C390 1.428 . S
H385 C381 0.930 . S
H386 C383 0.929 . S
S387 N388 1.613 . S
S387 N389 1.610 . S
N388 S387 1.613 . S
N388 C391 1.350 . S
N389 S387 1.610 . S
N389 C390 1.351 . S
C390 C384 1.428 . S
C390 N389 1.351 . S
C390 C391 1.434 . S
C391 C382 1.429 . S
C391 N388 1.350 . S
C391 C390 1.434 . S
C392 C393 1.369 . S
C392 C394 1.419 . S
C392 H396 0.930 . S
C393 C392 1.369 . S
C393 C402 1.429 . S
C394 C392 1.419 . S
C394 C395 1.363 . S
C394 H397 0.929 . S
C395 C394 1.363 . S
C395 C401 1.428 . S
H396 C392 0.930 . S
H397 C394 0.929 . S
S398 N399 1.613 . S
S398 N400 1.610 . S
N399 S398 1.613 . S
N399 C402 1.350 . S
N400 S398 1.610 . S
N400 C401 1.351 . S
C401 C395 1.428 . S
C401 N400 1.351 . S
C401 C402 1.434 . S
C402 C393 1.429 . S
C402 N399 1.350 . S
C402 C401 1.434 . S
C403 C404 1.369 . S
C403 C405 1.419 . S
C403 H407 0.930 . S
C404 C403 1.369 . S
C404 C413 1.429 . S
C405 C403 1.419 . S
C405 C406 1.363 . S
C405 H408 0.929 . S
C406 C405 1.363 . S
C406 C412 1.428 . S
H407 C403 0.930 . S
H408 C405 0.929 . S
S409 N410 1.613 . S
S409 N411 1.610 . S
N410 S409 1.613 . S
N410 C413 1.350 . S
N411 S409 1.610 . S
N411 C412 1.351 . S
C412 C406 1.428 . S
C412 N411 1.351 . S
C412 C413 1.434 . S
C413 C404 1.429 . S
C413 N410 1.350 . S
C413 C412 1.434 . S
C414 C415 1.369 . S
C414 C416 1.419 . S
C414 H418 0.930 . S
C415 C414 1.369 . S
C415 C424 1.429 . S
C416 C414 1.419 . S
C416 C417 1.363 . S
C416 H419 0.929 . S
C417 C416 1.363 . S
C417 C423 1.428 . S
H418 C414 0.930 . S
H419 C416 0.929 . S
S420 N421 1.613 . S
S420 N422 1.610 . S
N421 S420 1.613 . S
N421 C424 1.350 . S
N422 S420 1.610 . S
N422 C423 1.351 . S
C423 C417 1.428 . S
C423 N422 1.351 . S
C423 C424 1.434 . S
C424 C415 1.429 . S
C424 N421 1.350 . S
C424 C423 1.434 . S
C425 C426 1.369 . S
C425 C427 1.419 . S
C425 H429 0.930 . S
C426 C425 1.369 . S
C426 C435 1.429 . S
C427 C425 1.419 . S
C427 C428 1.363 . S
C427 H430 0.929 . S
C428 C427 1.363 . S
C428 C434 1.428 . S
H429 C425 0.930 . S
H430 C427 0.929 . S
S431 N432 1.613 . S
S431 N433 1.610 . S
N432 S431 1.613 . S
N432 C435 1.350 . S
N433 S431 1.610 . S
N433 C434 1.351 . S
C434 C428 1.428 . S
C434 N433 1.351 . S
C434 C435 1.434 . S
C435 C426 1.429 . S
C435 N432 1.350 . S
C435 C434 1.434 . S
C436 C437 1.369 . S
C436 C438 1.419 . S
C436 H440 0.930 . S
C437 C436 1.369 . S
C437 C446 1.429 . S
C438 C436 1.419 . S
C438 C439 1.363 . S
C438 H441 0.929 . S
C439 C438 1.363 . S
C439 C445 1.428 . S
H440 C436 0.930 . S
H441 C438 0.929 . S
S442 N443 1.613 . S
S442 N444 1.610 . S
N443 S442 1.613 . S
N443 C446 1.350 . S
N444 S442 1.610 . S
N444 C445 1.351 . S
C445 C439 1.428 . S
C445 N444 1.351 . S
C445 C446 1.434 . S
C446 C437 1.429 . S
C446 N443 1.350 . S
C446 C445 1.434 . S
C447 C448 1.369 . S
C447 C449 1.419 . S
C447 H451 0.930 . S
C448 C447 1.369 . S
C448 C457 1.429 . S
C449 C447 1.419 . S
C449 C450 1.363 . S
C449 H452 0.929 . S
C450 C449 1.363 . S
C450 C456 1.428 . S
H451 C447 0.930 . S
H452 C449 0.929 . S
S453 N454 1.613 . S
S453 N455 1.610 . S
N454 S453 1.613 . S
N454 C457 1.350 . S
N455 S453 1.610 . S
N455 C456 1.351 . S
C456 C450 1.428 . S
C456 N455 1.351 . S
C456 C457 1.434 . S
C457 C448 1.429 . S
C457 N454 1.350 . S
C457 C456 1.434 . S
C458 C459 1.369 . S
C458 C460 1.419 . S
C458 H462 0.930 . S
C459 C458 1.369 . S
C459 C468 1.429 . S
C460 C458 1.419 . S
C460 C461 1.363 . S
C460 H463 0.929 . S
C461 C460 1.363 . S
C461 C467 1.428 . S
H462 C458 0.930 . S
H463 C460 0.929 . S
S464 N465 1.613 . S
S464 N466 1.610 . S
N465 S464 1.613 . S
N465 C468 1.350 . S
N466 S464 1.610 . S
N466 C467 1.351 . S
C467 C461 1.428 . S
C467 N466 1.351 . S
C467 C468 1.434 . S
C468 C459 1.429 . S
C468 N465 1.350 . S
C468 C467 1.434 . S
C469 C470 1.369 . S
C469 C471 1.419 . S
C469 H473 0.930 . S
C470 C469 1.369 . S
C470 C479 1.429 . S
C471 C469 1.419 . S
C471 C472 1.363 . S
C471 H474 0.929 . S
C472 C471 1.363 . S
C472 C478 1.428 . S
H473 C469 0.930 . S
H474 C471 0.929 . S
S475 N476 1.613 1_455 S
S475 N477 1.610 1_455 S
N476 S475 1.613 1_655 S
N476 C479 1.350 . S
N477 S475 1.610 1_655 S
N477 C478 1.351 . S
C478 C472 1.428 . S
C478 N477 1.351 . S
C478 C479 1.434 . S
C479 C470 1.429 . S
C479 N476 1.350 . S
C479 C478 1.434 . S
C480 C481 1.369 . S
C480 C482 1.419 . S
C480 H484 0.930 . S
C481 C480 1.369 . S
C481 C490 1.429 . S
C482 C480 1.419 . S
C482 C483 1.363 . S
C482 H485 0.929 . S
C483 C482 1.363 . S
C483 C489 1.428 . S
H484 C480 0.930 . S
H485 C482 0.929 . S
S486 N487 1.613 . S
S486 N488 1.610 . S
N487 S486 1.613 . S
N487 C490 1.350 . S
N488 S486 1.610 . S
N488 C489 1.351 . S
C489 C483 1.428 . S
C489 N488 1.351 . S
C489 C490 1.434 . S
C490 C481 1.429 . S
C490 N487 1.350 . S
C490 C489 1.434 . S
C491 C492 1.369 . S
C491 C493 1.419 . S
C491 H495 0.930 . S
C492 C491 1.369 . S
C492 C501 1.429 . S
C493 C491 1.419 . S
C493 C494 1.363 . S
C493 H496 0.929 . S
C494 C493 1.363 . S
C494 C500 1.428 . S
H495 C491 0.930 . S
H496 C493 0.929 . S
S497 N498 1.613 . S
S497 N499 1.610 . S
N498 S497 1.613 . S
N498 C501 1.350 . S
N499 S497 1.610 . S
N499 C500 1.351 . S
C500 C494 1.428 . S
C500 N499 1.351 . S
C500 C501 1.434 . S
C501 C492 1.429 . S
C501 N498 1.350 . S
C501 C500 1.434 . S
C502 C503 1.369 . S
C502 C504 1.419 . S
C502 H506 0.930 . S
C503 C502 1.369 . S
C503 C512 1.429 . S
C504 C502 1.419 . S
C504 C505 1.363 . S
C504 H507 0.929 . S
C505 C504 1.363 . S
C505 C511 1.428 . S
H506 C502 0.930 . S
H507 C504 0.929 . S
S508 N509 1.613 . S
S508 N510 1.610 . S
N509 S508 1.613 . S
N509 C512 1.350 . S
N510 S508 1.610 . S
N510 C511 1.351 . S
C511 C505 1.428 . S
C511 N510 1.351 . S
C511 C512 1.434 . S
C512 C503 1.429 . S
C512 N509 1.350 . S
C512 C511 1.434 . S
C513 C514 1.369 . S
C513 C515 1.419 . S
C513 H517 0.930 . S
C514 C513 1.369 . S
C514 C523 1.429 . S
C515 C513 1.419 . S
C515 C516 1.363 . S
C515 H518 0.929 . S
C516 C515 1.363 . S
C516 C522 1.428 . S
H517 C513 0.930 . S
H518 C515 0.929 . S
S519 N520 1.613 . S
S519 N521 1.610 . S
N520 S519 1.613 . S
N520 C523 1.350 . S
N521 S519 1.610 . S
N521 C522 1.351 . S
C522 C516 1.428 . S
C522 N521 1.351 . S
C522 C523 1.434 . S
C523 C514 1.429 . S
C523 N520 1.350 . S
C523 C522 1.434 . S
C524 C525 1.369 . S
C524 C526 1.419 . S
C524 H528 0.930 . S
C525 C524 1.369 . S
C525 C534 1.429 . S
C526 C524 1.419 . S
C526 C527 1.363 . S
C526 H529 0.929 . S
C527 C526 1.363 . S
C527 C533 1.428 . S
H528 C524 0.930 . S
H529 C526 0.929 . S
S530 N531 1.613 1_565 S
S530 N532 1.610 1_565 S
N531 S530 1.613 1_545 S
N531 C534 1.350 . S
N532 S530 1.610 1_545 S
N532 C533 1.351 . S
C533 C527 1.428 . S
C533 N532 1.351 . S
C533 C534 1.434 . S
C534 C525 1.429 . S
C534 N531 1.350 . S
C534 C533 1.434 . S
C535 C536 1.369 . S
C535 C537 1.419 . S
C535 H539 0.930 . S
C536 C535 1.369 . S
C536 C545 1.429 . S
C537 C535 1.419 . S
C537 C538 1.363 . S
C537 H540 0.929 . S
C538 C537 1.363 . S
C538 C544 1.428 . S
H539 C535 0.930 . S
H540 C537 0.929 . S
S541 N542 1.613 . S
S541 N543 1.610 . S
N542 S541 1.613 . S
N542 C545 1.350 . S
N543 S541 1.610 . S
N543 C544 1.351 . S
C544 C538 1.428 . S
C544 N543 1.351 . S
C544 C545 1.434 . S
C545 C536 1.429 . S
C545 N542 1.350 . S
C545 C544 1.434 . S
C546 C547 1.369 . S
C546 C548 1.419 . S
C546 H550 0.930 . S
C547 C546 1.369 . S
C547 C556 1.429 . S
C548 C546 1.419 . S
C548 C549 1.363 . S
C548 H551 0.929 . S
C549 C548 1.363 . S
C549 C555 1.428 . S
H550 C546 0.930 . S
H551 C548 0.929 . S
S552 N553 1.613 . S
S552 N554 1.610 . S
N553 S552 1.613 . S
N553 C556 1.350 . S
N554 S552 1.610 . S
N554 C555 1.351 . S
C555 C549 1.428 . S
C555 N554 1.351 . S
C555 C556 1.434 . S
C556 C547 1.429 . S
C556 N553 1.350 . S
C556 C555 1.434 . S
C557 C558 1.369 . S
C557 C559 1.419 . S
C557 H561 0.930 . S
C558 C557 1.369 . S
C558 C567 1.429 . S
C559 C557 1.419 . S
C559 C560 1.363 . S
C559 H562 0.929 . S
C560 C559 1.363 . S
C560 C566 1.428 . S
H561 C557 0.930 . S
H562 C559 0.929 . S
S563 N564 1.613 . S
S563 N565 1.610 . S
N564 S563 1.613 . S
N564 C567 1.350 . S
N565 S563 1.610 . S
N565 C566 1.351 . S
C566 C560 1.428 . S
C566 N565 1.351 . S
C566 C567 1.434 . S
C567 C558 1.429 . S
C567 N564 1.350 . S
C567 C566 1.434 . S
C568 C569 1.369 . S
C568 C570 1.419 . S
C568 H572 0.930 . S
C569 C568 1.369 . S
C569 C578 1.429 . S
C570 C568 1.419 . S
C570 C571 1.363 . S
C570 H573 0.929 . S
C571 C570 1.363 . S
C571 C577 1.428 . S
H572 C568 0.930 . S
H573 C570 0.929 . S
S574 N575 1.613 . S
S574 N576 1.610 . S
N575 S574 1.613 . S
N575 C578 1.350 . S
N576 S574 1.610 . S
N576 C577 1.351 . S
C577 C571 1.428 . S
C577 N576 1.351 . S
C577 C578 1.434 . S
C578 C569 1.429 . S
C578 N575 1.350 . S
C578 C577 1.434 . S
C579 C580 1.369 . S
C579 C581 1.419 . S
C579 H583 0.930 . S
C580 C579 1.369 . S
C580 C589 1.429 . S
C581 C579 1.419 . S
C581 C582 1.363 . S
C581 H584 0.929 . S
C582 C581 1.363 . S
C582 C588 1.428 . S
H583 C579 0.930 . S
H584 C581 0.929 . S
S585 N586 1.613 . S
S585 N587 1.610 . S
N586 S585 1.613 . S
N586 C589 1.350 . S
N587 S585 1.610 . S
N587 C588 1.351 . S
C588 C582 1.428 . S
C588 N587 1.351 . S
C588 C589 1.434 . S
C589 C580 1.429 . S
C589 N586 1.350 . S
C589 C588 1.434 . S
C590 C591 1.369 . S
C590 C592 1.419 . S
C590 H594 0.930 . S
C591 C590 1.369 . S
C591 C600 1.429 . S
C592 C590 1.419 . S
C592 C593 1.363 . S
C592 H595 0.929 . S
C593 C592 1.363 . S
C593 C599 1.428 . S
H594 C590 0.930 . S
H595 C592 0.929 . S
S596 N597 1.613 . S
S596 N598 1.610 . S
N597 S596 1.613 . S
N597 C600 1.350 . S
N598 S596 1.610 . S
N598 C599 1.351 . S
C599 C593 1.428 . S
C599 N598 1.351 . S
C599 C600 1.434 . S
C600 C591 1.429 . S
C600 N597 1.350 . S
C600 C599 1.434 . S
C601 C602 1.369 . S
C601 C603 1.419 . S
C601 H605 0.930 . S
C602 C601 1.369 . S
C602 C611 1.429 . S
C603 C601 1.419 . S
C603 C604 1.363 . S
C603 H606 0.929 . S
C604 C603 1.363 . S
C604 C610 1.428 . S
H605 C601 0.930 . S
H606 C603 0.929 . S
S607 N608 1.613 . S
S607 N609 1.610 . S
N608 S607 1.613 . S
N608 C611 1.350 . S
N609 S607 1.610 . S
N609 C610 1.351 . S
C610 C604 1.428 . S
C610 N609 1.351 . S
C610 C611 1.434 . S
C611 C602 1.429 . S
C611 N608 1.350 . S
C611 C610 1.434 . S
C612 C613 1.369 . S
C612 C614 1.419 . S
C612 H616 0.930 . S
C613 C612 1.369 . S
C613 C622 1.429 . S
C614 C612 1.419 . S
C614 C615 1.363 . S
C614 H617 0.929 . S
C615 C614 1.363 . S
C615 C621 1.428 . S
H616 C612 0.930 . S
H617 C614 0.929 . S
S618 N619 1.613 . S
S618 N620 1.610 . S
N619 S618 1.613 . S
N619 C622 1.350 . S
N620 S618 1.610 . S
N620 C621 1.351 . S
C621 C615 1.428 . S
C621 N620 1.351 . S
C621 C622 1.434 . S
C622 C613 1.429 . S
C622 N619 1.350 . S
C622 C621 1.434 . S
C623 C624 1.369 . S
C623 C625 1.419 . S
C623 H627 0.930 . S
C624 C623 1.369 . S
C624 C633 1.429 . S
C625 C623 1.419 . S
C625 C626 1.363 . S
C625 H628 0.929 . S
C626 C625 1.363 . S
C626 C632 1.428 . S
H627 C623 0.930 . S
H628 C625 0.929 . S
S629 N630 1.613 . S
S629 N631 1.610 . S
N630 S629 1.613 . S
N630 C633 1.350 . S
N631 S629 1.610 . S
N631 C632 1.351 . S
C632 C626 1.428 . S
C632 N631 1.351 . S
C632 C633 1.434 . S
C633 C624 1.429 . S
C633 N630 1.350 . S
C633 C632 1.434 . S
C634 C635 1.369 . S
C634 C636 1.419 . S
C634 H638 0.930 . S
C635 C634 1.369 . S
C635 C644 1.429 . S
C636 C634 1.419 . S
C636 C637 1.363 . S
C636 H639 0.929 . S
C637 C636 1.363 . S
C637 C643 1.428 . S
H638 C634 0.930 . S
H639 C636 0.929 . S
S640 N641 1.613 . S
S640 N642 1.610 . S
N641 S640 1.613 . S
N641 C644 1.350 . S
N642 S640 1.610 . S
N642 C643 1.351 . S
C643 C637 1.428 . S
C643 N642 1.351 . S
C643 C644 1.434 . S
C644 C635 1.429 . S
C644 N641 1.350 . S
C644 C643 1.434 . S
C645 C646 1.369 . S
C645 C647 1.419 . S
C645 H649 0.930 . S
C646 C645 1.369 . S
C646 C655 1.429 . S
C647 C645 1.419 . S
C647 C648 1.363 . S
C647 H650 0.929 . S
C648 C647 1.363 . S
C648 C654 1.428 . S
H649 C645 0.930 . S
H650 C647 0.929 . S
S651 N652 1.613 . S
S651 N653 1.610 . S
N652 S651 1.613 . S
N652 C655 1.350 . S
N653 S651 1.610 . S
N653 C654 1.351 . S
C654 C648 1.428 . S
C654 N653 1.351 . S
C654 C655 1.434 . S
C655 C646 1.429 . S
C655 N652 1.350 . S
C655 C654 1.434 . S
C656 C657 1.369 . S
C656 C658 1.419 . S
C656 H660 0.930 . S
C657 C656 1.369 . S
C657 C666 1.429 . S
C658 C656 1.419 . S
C658 C659 1.363 . S
C658 H661 0.929 . S
C659 C658 1.363 . S
C659 C665 1.428 . S
H660 C656 0.930 . S
H661 C658 0.929 . S
S662 N663 1.613 . S
S662 N664 1.610 . S
N663 S662 1.613 . S
N663 C666 1.350 . S
N664 S662 1.610 . S
N664 C665 1.351 . S
C665 C659 1.428 . S
C665 N664 1.351 . S
C665 C666 1.434 . S
C666 C657 1.429 . S
C666 N663 1.350 . S
C666 C665 1.434 . S
C667 C668 1.369 . S
C667 C669 1.419 . S
C667 H671 0.930 . S
C668 C667 1.369 . S
C668 C677 1.429 . S
C669 C667 1.419 . S
C669 C670 1.363 . S
C669 H672 0.929 . S
C670 C669 1.363 . S
C670 C676 1.428 . S
H671 C667 0.930 . S
H672 C669 0.929 . S
S673 N674 1.613 . S
S673 N675 1.610 . S
N674 S673 1.613 . S
N674 C677 1.350 . S
N675 S673 1.610 . S
N675 C676 1.351 . S
C676 C670 1.428 . S
C676 N675 1.351 . S
C676 C677 1.434 . S
C677 C668 1.429 . S
C677 N674 1.350 . S
C677 C676 1.434 . S
C678 C679 1.369 . S
C678 C680 1.419 . S
C678 H682 0.930 . S
C679 C678 1.369 . S
C679 C688 1.429 . S
C680 C678 1.419 . S
C680 C681 1.363 . S
C680 H683 0.929 . S
C681 C680 1.363 . S
C681 C687 1.428 . S
H682 C678 0.930 . S
H683 C680 0.929 . S
S684 N685 1.613 . S
S684 N686 1.610 . S
N685 S684 1.613 . S
N685 C688 1.350 . S
N686 S684 1.610 . S
N686 C687 1.351 . S
C687 C681 1.428 . S
C687 N686 1.351 . S
C687 C688 1.434 . S
C688 C679 1.429 . S
C688 N685 1.350 . S
C688 C687 1.434 . S
C689 C690 1.369 . S
C689 C691 1.419 . S
C689 H693 0.930 . S
C690 C689 1.369 . S
C690 C699 1.429 . S
C691 C689 1.419 . S
C691 C692 1.363 . S
C691 H694 0.929 . S
C692 C691 1.363 . S
C692 C698 1.428 . S
H693 C689 0.930 . S
H694 C691 0.929 . S
S695 N696 1.613 . S
S695 N697 1.610 . S
N696 S695 1.613 . S
N696 C699 1.350 . S
N697 S695 1.610 . S
N697 C698 1.351 . S
C698 C692 1.428 . S
C698 N697 1.351 . S
C698 C699 1.434 . S
C699 C690 1.429 . S
C699 N696 1.350 . S
C699 C698 1.434 . S
C700 C701 1.369 . S
C700 C702 1.419 . S
C700 H704 0.930 . S
C701 C700 1.369 . S
C701 C710 1.429 . S
C702 C700 1.419 . S
C702 C703 1.363 . S
C702 H705 0.929 . S
C703 C702 1.363 . S
C703 C709 1.428 . S
H704 C700 0.930 . S
H705 C702 0.929 . S
S706 N707 1.613 . S
S706 N708 1.610 . S
N707 S706 1.613 . S
N707 C710 1.350 . S
N708 S706 1.610 . S
N708 C709 1.351 . S
C709 C703 1.428 . S
C709 N708 1.351 . S
C709 C710 1.434 . S
C710 C701 1.429 . S
C710 N707 1.350 . S
C710 C709 1.434 . S
C711 C712 1.369 . S
C711 C713 1.419 . S
C711 H715 0.930 . S
C712 C711 1.369 . S
C712 C721 1.429 . S
C713 C711 1.419 . S
C713 C714 1.363 . S
C713 H716 0.929 . S
C714 C713 1.363 . S
C714 C720 1.428 . S
H715 C711 0.930 . S
H716 C713 0.929 . S
S717 N718 1.613 . S
S717 N719 1.610 . S
N718 S717 1.613 . S
N718 C721 1.350 . S
N719 S717 1.610 . S
N719 C720 1.351 . S
C720 C714 1.428 . S
C720 N719 1.351 . S
C720 C721 1.434 . S
C721 C712 1.429 . S
C721 N718 1.350 . S
C721 C720 1.434 . S
C722 C723 1.369 . S
C722 C724 1.419 . S
C722 H726 0.930 . S
C723 C722 1.369 . S
C723 C732 1.429 . S
C724 C722 1.419 . S
C724 C725 1.363 . S
C724 H727 0.929 . S
C725 C724 1.363 . S
C725 C731 1.428 . S
H726 C722 0.930 . S
H727 C724 0.929 . S
S728 N729 1.613 . S
S728 N730 1.610 . S
N729 S728 1.613 . S
N729 C732 1.350 . S
N730 S728 1.610 . S
N730 C731 1.351 . S
C731 C725 1.428 . S
C731 N730 1.351 . S
C731 C732 1.434 . S
C732 C723 1.429 . S
C732 N729 1.350 . S
C732 C731 1.434 . S
C733 C734 1.369 . S
C733 C735 1.419 . S
C733 H737 0.930 . S
C734 C733 1.369 . S
C734 C743 1.429 . S
C735 C733 1.419 . S
C735 C736 1.363 . S
C735 H738 0.929 . S
C736 C735 1.363 . S
C736 C742 1.428 . S
H737 C733 0.930 . S
H738 C735 0.929 . S
S739 N740 1.613 . S
S739 N741 1.610 . S
N740 S739 1.613 . S
N740 C743 1.350 . S
N741 S739 1.610 . S
N741 C742 1.351 . S
C742 C736 1.428 . S
C742 N741 1.351 . S
C742 C743 1.434 . S
C743 C734 1.429 . S
C743 N740 1.350 . S
C743 C742 1.434 . S
C744 C745 1.369 . S
C744 C746 1.419 . S
C744 H748 0.930 . S
C745 C744 1.369 . S
C745 C754 1.429 . S
C746 C744 1.419 . S
C746 C747 1.363 . S
C746 H749 0.929 . S
C747 C746 1.363 . S
C747 C753 1.428 . S
H748 C744 0.930 . S
H749 C746 0.929 . S
S750 N751 1.613 . S
S750 N752 1.610 . S
N751 S750 1.613 . S
N751 C754 1.350 . S
N752 S750 1.610 . S
N752 C753 1.351 . S
C753 C747 1.428 . S
C753 N752 1.351 . S
C753 C754 1.434 . S
C754 C745 1.429 . S
C754 N751 1.350 . S
C754 C753 1.434 . S
C755 C756 1.369 . S
C755 C757 1.419 . S
C755 H759 0.930 . S
C756 C755 1.369 . S
C756 C765 1.429 . S
C757 C755 1.419 . S
C757 C758 1.363 . S
C757 H760 0.929 . S
C758 C757 1.363 . S
C758 C764 1.428 . S
H759 C755 0.930 . S
H760 C757 0.929 . S
S761 N762 1.613 . S
S761 N763 1.610 . S
N762 S761 1.613 . S
N762 C765 1.350 . S
N763 S761 1.610 . S
N763 C764 1.351 . S
C764 C758 1.428 . S
C764 N763 1.351 . S
C764 C765 1.434 . S
C765 C756 1.429 . S
C765 N762 1.350 . S
C765 C764 1.434 . S
C766 C767 1.369 . S
C766 C768 1.419 . S
C766 H770 0.930 . S
C767 C766 1.369 . S
C767 C776 1.429 . S
C768 C766 1.419 . S
C768 C769 1.363 . S
C768 H771 0.929 . S
C769 C768 1.363 . S
C769 C775 1.428 . S
H770 C766 0.930 . S
H771 C768 0.929 . S
S772 N773 1.613 . S
S772 N774 1.610 . S
N773 S772 1.613 . S
N773 C776 1.350 . S
N774 S772 1.610 . S
N774 C775 1.351 . S
C775 C769 1.428 . S
C775 N774 1.351 . S
C775 C776 1.434 . S
C776 C767 1.429 . S
C776 N773 1.350 . S
C776 C775 1.434 . S
C777 C778 1.369 . S
C777 C779 1.419 . S
C777 H781 0.930 . S
C778 C777 1.369 . S
C778 C787 1.429 . S
C779 C777 1.419 . S
C779 C780 1.363 . S
C779 H782 0.929 . S
C780 C779 1.363 . S
C780 C786 1.428 . S
H781 C777 0.930 . S
H782 C779 0.929 . S
S783 N784 1.613 . S
S783 N785 1.610 . S
N784 S783 1.613 . S
N784 C787 1.350 . S
N785 S783 1.610 . S
N785 C786 1.351 . S
C786 C780 1.428 . S
C786 N785 1.351 . S
C786 C787 1.434 . S
C787 C778 1.429 . S
C787 N784 1.350 . S
C787 C786 1.434 . S
C788 C789 1.369 . S
C788 C790 1.419 . S
C788 H792 0.930 . S
C789 C788 1.369 . S
C789 C798 1.429 . S
C790 C788 1.419 . S
C790 C791 1.363 . S
C790 H793 0.929 . S
C791 C790 1.363 . S
C791 C797 1.428 . S
H792 C788 0.930 . S
H793 C790 0.929 . S
S794 N795 1.613 . S
S794 N796 1.610 . S
N795 S794 1.613 . S
N795 C798 1.350 . S
N796 S794 1.610 . S
N796 C797 1.351 . S
C797 C791 1.428 . S
C797 N796 1.351 . S
C797 C798 1.434 . S
C798 C789 1.429 . S
C798 N795 1.350 . S
C798 C797 1.434 . S
C799 C800 1.369 . S
C799 C801 1.419 . S
C799 H803 0.930 . S
C800 C799 1.369 . S
C800 C809 1.429 . S
C801 C799 1.419 . S
C801 C802 1.363 . S
C801 H804 0.929 . S
C802 C801 1.363 . S
C802 C808 1.428 . S
H803 C799 0.930 . S
H804 C801 0.929 . S
S805 N806 1.613 . S
S805 N807 1.610 . S
N806 S805 1.613 . S
N806 C809 1.350 . S
N807 S805 1.610 . S
N807 C808 1.351 . S
C808 C802 1.428 . S
C808 N807 1.351 . S
C808 C809 1.434 . S
C809 C800 1.429 . S
C809 N806 1.350 . S
C809 C808 1.434 . S
C810 C811 1.369 . S
C810 C812 1.419 . S
C810 H814 0.930 . S
C811 C810 1.369 . S
C811 C820 1.429 . S
C812 C810 1.419 . S
C812 C813 1.363 . S
C812 H815 0.929 . S
C813 C812 1.363 . S
C813 C819 1.428 . S
H814 C810 0.930 . S
H815 C812 0.929 . S
S816 N817 1.613 . S
S816 N818 1.610 . S
N817 S816 1.613 . S
N817 C820 1.350 . S
N818 S816 1.610 . S
N818 C819 1.351 . S
C819 C813 1.428 . S
C819 N818 1.351 . S
C819 C820 1.434 . S
C820 C811 1.429 . S
C820 N817 1.350 . S
C820 C819 1.434 . S
C821 C822 1.369 . S
C821 C823 1.419 . S
C821 H825 0.930 . S
C822 C821 1.369 . S
C822 C831 1.429 . S
C823 C821 1.419 . S
C823 C824 1.363 . S
C823 H826 0.929 . S
C824 C823 1.363 . S
C824 C830 1.428 . S
H825 C821 0.930 . S
H826 C823 0.929 . S
S827 N828 1.613 . S
S827 N829 1.610 . S
N828 S827 1.613 . S
N828 C831 1.350 . S
N829 S827 1.610 . S
N829 C830 1.351 . S
C830 C824 1.428 . S
C830 N829 1.351 . S
C830 C831 1.434 . S
C831 C822 1.429 . S
C831 N828 1.350 . S
C831 C830 1.434 . S
C832 C833 1.369 . S
C832 C834 1.419 . S
C832 H836 0.930 . S
C833 C832 1.369 . S
C833 C842 1.429 . S
C834 C832 1.419 . S
C834 C835 1.363 . S
C834 H837 0.929 . S
C835 C834 1.363 . S
C835 C841 1.428 . S
H836 C832 0.930 . S
H837 C834 0.929 . S
S838 N839 1.613 . S
S838 N840 1.610 . S
N839 S838 1.613 . S
N839 C842 1.350 . S
N840 S838 1.610 . S
N840 C841 1.351 . S
C841 C835 1.428 . S
C841 N840 1.351 . S
C841 C842 1.434 . S
C842 C833 1.429 . S
C842 N839 1.350 . S
C842 C841 1.434 . S
C843 C844 1.369 . S
C843 C845 1.419 . S
C843 H847 0.930 . S
C844 C843 1.369 . S
C844 C853 1.429 . S
C845 C843 1.419 . S
C845 C846 1.363 . S
C845 H848 0.929 . S
C846 C845 1.363 . S
C846 C852 1.428 . S
H847 C843 0.930 . S
H848 C845 0.929 . S
S849 N850 1.613 . S
S849 N851 1.610 . S
N850 S849 1.613 . S
N850 C853 1.350 . S
N851 S849 1.610 . S
N851 C852 1.351 . S
C852 C846 1.428 . S
C852 N851 1.351 . S
C852 C853 1.434 . S
C853 C844 1.429 . S
C853 N850 1.350 . S
C853 C852 1.434 . S
C854 C855 1.369 . S
C854 C856 1.419 . S
C854 H858 0.930 . S
C855 C854 1.369 . S
C855 C864 1.429 . S
C856 C854 1.419 . S
C856 C857 1.363 . S
C856 H859 0.929 . S
C857 C856 1.363 . S
C857 C863 1.428 . S
H858 C854 0.930 . S
H859 C856 0.929 . S
S860 N861 1.613 . S
S860 N862 1.610 . S
N861 S860 1.613 . S
N861 C864 1.350 . S
N862 S860 1.610 . S
N862 C863 1.351 . S
C863 C857 1.428 . S
C863 N862 1.351 . S
C863 C864 1.434 . S
C864 C855 1.429 . S
C864 N861 1.350 . S
C864 C863 1.434 . S
C865 C866 1.369 . S
C865 C867 1.419 . S
C865 H869 0.930 . S
C866 C865 1.369 . S
C866 C875 1.429 . S
C867 C865 1.419 . S
C867 C868 1.363 . S
C867 H870 0.929 . S
C868 C867 1.363 . S
C868 C874 1.428 . S
H869 C865 0.930 . S
H870 C867 0.929 . S
S871 N872 1.613 . S
S871 N873 1.610 . S
N872 S871 1.613 . S
N872 C875 1.350 . S
N873 S871 1.610 . S
N873 C874 1.351 . S
C874 C868 1.428 . S
C874 N873 1.351 . S
C874 C875 1.434 . S
C875 C866 1.429 . S
C875 N872 1.350 . S
C875 C874 1.434 . S
C876 C877 1.369 . S
C876 C878 1.419 . S
C876 H880 0.930 . S
C877 C876 1.369 . S
C877 C886 1.429 . S
C878 C876 1.419 . S
C878 C879 1.363 . S
C878 H881 0.929 . S
C879 C878 1.363 . S
C879 C885 1.428 . S
H880 C876 0.930 . S
H881 C878 0.929 . S
S882 N883 1.613 . S
S882 N884 1.610 . S
N883 S882 1.613 . S
N883 C886 1.350 . S
N884 S882 1.610 . S
N884 C885 1.351 . S
C885 C879 1.428 . S
C885 N884 1.351 . S
C885 C886 1.434 . S
C886 C877 1.429 . S
C886 N883 1.350 . S
C886 C885 1.434 . S
C887 C888 1.369 . S
C887 C889 1.419 . S
C887 H891 0.930 . S
C888 C887 1.369 . S
C888 C897 1.429 . S
C889 C887 1.419 . S
C889 C890 1.363 . S
C889 H892 0.929 . S
C890 C889 1.363 . S
C890 C896 1.428 . S
H891 C887 0.930 . S
H892 C889 0.929 . S
S893 N894 1.613 . S
S893 N895 1.610 . S
N894 S893 1.613 . S
N894 C897 1.350 . S
N895 S893 1.610 . S
N895 C896 1.351 . S
C896 C890 1.428 . S
C896 N895 1.351 . S
C896 C897 1.434 . S
C897 C888 1.429 . S
C897 N894 1.350 . S
C897 C896 1.434 . S
C373 C195 1.398 . S
C371 C17 1.405 . S
C384 C185 1.796 . S
C382 C44 1.570 . S
C395 C186 1.179 . S
C393 C63 1.165 . S
C404 C87 1.437 . S
C406 C208 1.419 . S
C415 C110 1.447 . S
C417 C211 1.430 . S
C428 C194 1.203 . S
C426 C131 1.179 . S
C437 C159 1.513 . S
C439 C184 1.720 . S
C448 C177 1.418 . S
C450 C202 1.416 . S
C461 C215 1.536 . S
C459 C20 1.396 . S
C470 C42 1.450 . S
C472 C264 1.449 . S
C483 C242 1.727 . S
C481 C66 1.536 . S
C494 C256 1.046 . S
C492 C86 1.086 . S
C503 C109 1.083 . S
C505 C217 1.069 . S
C516 C270 1.627 . S
C514 C136 1.518 . S
C525 C157 1.454 . S
C527 C226 1.426 . S
C536 C182 1.477 . S
C538 C247 1.581 . S
C547 C18 1.488 . S
C549 C273 1.432 . S
C558 C112 1.374 . S
C560 C257 1.456 . S
C571 C216 1.434 . S
C569 C134 1.448 . S
C582 C248 1.130 . S
C580 C154 1.208 . S
C591 C180 1.374 . S
C593 C239 1.348 . S
C602 C64 1.440 . S
C604 C246 1.367 . S
C615 C233 1.423 . S
C613 C89 1.409 . S
C624 C39 1.210 . S
C626 C225 1.190 . S
C635 C178 1.401 . S
C637 C288 1.399 . S
C646 C113 1.584 . S
C648 C278 1.796 . S
C659 C279 1.177 . S
C657 C132 1.169 . S
C670 C301 1.422 . S
C668 C156 1.438 . S
C679 C41 1.447 . S
C681 C304 1.429 . S
C692 C287 1.203 . S
C690 C62 1.179 . S
C701 C90 1.506 . S
C703 C277 1.720 . S
C712 C16 1.417 . S
C714 C295 1.417 . S
C723 C181 1.385 . S
C725 C308 1.542 . S
C736 C357 1.447 . S
C734 C111 1.449 . S
C745 C135 1.535 . S
C747 C335 1.727 . S
C756 C155 1.095 . S
C758 C349 1.034 . S
C769 C310 1.073 . S
C767 C40 1.076 . S
C778 C67 1.527 . S
C780 C363 1.628 . S
C791 C319 1.427 . S
C789 C88 1.445 . S
C802 C340 1.578 . S
C800 C21 1.480 . S
C813 C366 1.433 . S
C811 C179 1.487 . S
C822 C43 1.387 . S
C824 C350 1.449 . S
C833 C65 1.456 . S
C835 C309 1.426 . S
C846 C341 1.141 . S
C844 C85 1.201 . S
C855 C19 1.373 . S
C857 C332 1.350 . S
C866 C133 1.440 . S
C868 C339 1.360 . S
C879 C326 1.426 . S
C877 C158 1.407 . S
C890 C318 1.190 . S
C888 C108 1.212 . S
