# Generated by pormake.
# Topology nia, (6,6)-cn, num edge types: 1
# Building blocks:
#     Node 0, Type 0, BuildingBlock: CUKXOW_clean_sbu_0, # of connection points: 6
#     Node 1, Type 0, BuildingBlock: CUKXOW_clean_sbu_0, # of connection points: 6
#     Node 2, Type 1, BuildingBlock: MIDCAF_clean_sbu_0, # of connection points: 6
#     Node 3, Type 1, BuildingBlock: MIDCAF_clean_sbu_0, # of connection points: 6
#     Edge 4, Type (0, 1), BuildingBlock: XUDNAN_clean_linker_2, # of connection points: 2
#     Edge 5, Type (0, 1), BuildingBlock: XUDNAN_clean_linker_2, # of connection points: 2
#     Edge 6, Type (0, 1), BuildingBlock: XUDNAN_clean_linker_2, # of connection points: 2
#     Edge 7, Type (0, 1), BuildingBlock: XUDNAN_clean_linker_2, # of connection points: 2
#     Edge 8, Type (0, 1), BuildingBlock: XUDNAN_clean_linker_2, # of connection points: 2
#     Edge 9, Type (0, 1), BuildingBlock: XUDNAN_clean_linker_2, # of connection points: 2
#     Edge 10, Type (0, 1), BuildingBlock: XUDNAN_clean_linker_2, # of connection points: 2
#     Edge 11, Type (0, 1), BuildingBlock: XUDNAN_clean_linker_2, # of connection points: 2
#     Edge 12, Type (0, 1), BuildingBlock: XUDNAN_clean_linker_2, # of connection points: 2
#     Edge 13, Type (0, 1), BuildingBlock: XUDNAN_clean_linker_2, # of connection points: 2
#     Edge 14, Type (0, 1), BuildingBlock: XUDNAN_clean_linker_2, # of connection points: 2
#     Edge 15, Type (0, 1), BuildingBlock: XUDNAN_clean_linker_2, # of connection points: 2
# Relax obj value: 0.197
# Max RMSD: 0.253
# Mean RMSD: 0.209
data_MOF--net-nia--node1-CUKXOW_clean_sbu_0--node2-MIDCAF_clean_sbu_0--edge1-XUDNAN_clean_linker_2
_symmetry_space_group_name_H-M    P1
_symmetry_Int_Tables_number       1
_symmetry_cell_setting            triclinic
loop_
_symmetry_equiv_pos_as_xyz
'x, y, z'
_cell_length_a     24.4902
_cell_length_b     24.446807
_cell_length_c     30.154093
_cell_angle_alpha  87.842565
_cell_angle_beta   87.924305
_cell_angle_gamma 125.64279
loop_
_atom_site_label
_atom_site_type_symbol
_atom_site_fract_x
_atom_site_fract_y
_atom_site_fract_z
_atom_type_partial_charge
Tb0 Tb 0.02593 0.07569 0.03688 0.0
C1 C 0.11219 0.07029 0.96097 0.0
Tb2 Tb 0.96638 0.94317 0.99987 0.0
O3 O 0.10279 0.07053 0.06725 0.0
O4 O 0.00696 0.98312 0.06052 0.0
O5 O 0.10225 0.11082 0.98208 0.0
C6 C 0.94038 0.82949 0.97076 0.0
O7 O 0.06859 0.00347 0.96625 0.0
C8 C 0.92735 0.01349 0.96438 0.0
C9 C 0.88024 0.95173 0.07284 0.0
O10 O 0.91403 0.85954 0.9572 0.0
O11 O 0.98075 0.86269 1.00144 0.0
O12 O 0.88933 0.94821 0.97018 0.0
O13 O 0.98547 0.03603 0.97567 0.0
O14 O 0.89534 0.91145 0.05765 0.0
O15 O 0.91881 0.01731 0.06064 0.0
C16 C 0.04707 0.18288 0.07377 0.0
O17 O 0.02252 0.12494 0.09429 0.0
O18 O 0.06093 0.18147 0.03205 0.0
C19 C 0.06487 0.00518 0.07179 0.0
Tb20 Tb 0.93235 0.98588 0.50201 0.0
C21 C 0.94968 0.89893 0.57136 0.0
Tb22 Tb 0.0756 0.04771 0.53252 0.0
O23 O 0.93162 0.92744 0.44825 0.0
O24 O 0.01511 0.98577 0.4837 0.0
O25 O 0.90533 0.90351 0.55038 0.0
C26 C 0.18567 0.0669 0.56165 0.0
O27 O 0.01594 0.94635 0.56656 0.0
C28 C 0.00987 0.09214 0.56786 0.0
C29 C 0.06012 0.12754 0.45923 0.0
O30 O 0.14388 0.0728 0.58456 0.0
O31 O 0.16686 0.0521 0.52152 0.0
O32 O 0.07497 0.12937 0.56035 0.0
O33 O 0.98623 0.03318 0.55794 0.0
O34 O 0.10154 0.11332 0.47318 0.0
O35 O -0.00455 0.09141 0.47387 0.0
C36 C 0.81905 0.9693 0.48384 0.0
O37 O 0.86809 0.98682 0.45525 0.0
O38 O 0.83301 0.96024 0.52348 0.0
C39 C -0.0064 0.94869 0.45166 0.0
Zn40 Zn 0.34255 0.75719 0.19084 0.0
Zn41 Zn 0.25243 0.68665 0.35256 0.0
Zn42 Zn 0.30613 0.72207 0.27462 0.0
C43 C 0.39563 0.77676 0.35351 0.0
C44 C 0.21522 0.56766 0.32594 0.0
O45 O 0.26093 0.77088 0.24477 0.0
O46 O 0.30847 0.81049 0.17636 0.0
C47 C 0.46155 0.8071 0.22959 0.0
O48 O 0.39628 0.77544 0.31091 0.0
O49 O 0.3407 0.74152 0.37706 0.0
O50 O 0.20354 0.58884 0.35983 0.0
O51 O 0.25054 0.60914 0.29168 0.0
O52 O 0.43973 0.80495 0.19203 0.0
O53 O 0.42032 0.78049 0.26485 0.0
O54 O 0.25832 0.62693 0.24489 0.0
O55 O 0.28778 0.66203 0.17366 0.0
C56 C 0.2554 0.6144 0.2037 0.0
O57 O 0.25007 0.76679 0.29234 0.0
O58 O 0.20347 0.72585 0.36076 0.0
C59 C 0.2682 0.80273 0.20736 0.0
C60 C 0.21516 0.76366 0.32683 0.0
Zn61 Zn 0.66534 0.26542 0.84518 0.0
Zn62 Zn 0.73113 0.33405 0.6858 0.0
Zn63 Zn 0.69707 0.30725 0.76429 0.0
C64 C 0.75814 0.45122 0.71182 0.0
C65 C 0.59495 0.22719 0.69601 0.0
O66 O 0.74113 0.25363 0.78707 0.0
O67 O 0.68565 0.19897 0.85126 0.0
C68 C 0.76244 0.40893 0.83564 0.0
O69 O 0.75272 0.41974 0.74896 0.0
O70 O 0.7421 0.42042 0.67669 0.0
O71 O 0.64605 0.25106 0.66942 0.0
O72 O 0.60163 0.24984 0.73471 0.0
O73 O 0.73634 0.35797 0.86301 0.0
O74 O 0.7489 0.40192 0.79463 0.0
O75 O 0.58379 0.25235 0.77933 0.0
O76 O 0.57025 0.23154 0.8524 0.0
C77 C 0.54577 0.23 0.81604 0.0
O78 O 0.75435 0.26775 0.73941 0.0
O79 O 0.81098 0.33232 0.67818 0.0
C80 C 0.72873 0.21242 0.82043 0.0
C81 C 0.79836 0.28635 0.70651 0.0
H82 H 0.18673 0.04729 0.10162 0.0
H83 H 0.98092 0.87061 0.09632 0.0
H84 H 0.00874 0.80131 0.13717 0.0
H85 H 0.26474 0.96508 0.08332 0.0
H86 H 0.33022 0.01334 0.12056 0.0
H87 H 0.29273 0.04962 0.09363 0.0
H88 H 0.26222 0.07281 0.17059 0.0
H89 H 0.29934 0.03616 0.19775 0.0
H90 H 0.21316 0.00412 0.21267 0.0
H91 H 0.0603 0.75017 0.17408 0.0
H92 H 0.13368 0.71992 0.2026 0.0
H93 H 0.30525 0.92957 0.18521 0.0
C94 C 0.1475 0.99412 0.10942 0.0
C95 C 0.08174 0.96411 0.09598 0.0
C96 C 0.03169 0.89438 0.10632 0.0
C97 C 0.04689 0.85477 0.12972 0.0
C98 C 0.11223 0.88585 0.14264 0.0
C99 C 0.16181 0.95387 0.1328 0.0
C100 C 0.22884 0.97409 0.1485 0.0
C101 C 0.28226 0.00216 0.10916 0.0
C102 C 0.25224 0.0248 0.18452 0.0
C103 C 0.20956 0.90651 0.1678 0.0
C104 C 0.14185 0.85643 0.16456 0.0
C105 C 0.11303 0.78911 0.17768 0.0
C106 C 0.15479 0.77243 0.19401 0.0
C107 C 0.22398 0.82295 0.19765 0.0
C108 C 0.25177 0.89068 0.18429 0.0
H109 H 0.23504 0.11188 0.64129 0.0
H110 H 0.26364 0.03295 0.52318 0.0
H111 H 0.36114 0.04371 0.55461 0.0
H112 H 0.39995 0.23726 0.64996 0.0
H113 H 0.39757 0.23247 0.70989 0.0
H114 H 0.32253 0.20507 0.68263 0.0
H115 H 0.2606 0.08835 0.72651 0.0
H116 H 0.33629 0.11524 0.75333 0.0
H117 H 0.29472 0.0401 0.72326 0.0
H118 H 0.46225 0.07748 0.59279 0.0
H119 H 0.56719 0.14249 0.63099 0.0
H120 H 0.47483 0.20268 0.72344 0.0
C121 C 0.26105 0.09547 0.62258 0.0
C122 C 0.24239 0.07148 0.58006 0.0
C123 C 0.27776 0.05156 0.55588 0.0
C124 C 0.3324 0.05665 0.57371 0.0
C125 C 0.35019 0.08129 0.61569 0.0
C126 C 0.31573 0.10064 0.6398 0.0
C127 C 0.35076 0.13476 0.68091 0.0
C128 C 0.3688 0.20663 0.68078 0.0
C129 C 0.30802 0.09203 0.72351 0.0
C130 C 0.41269 0.1356 0.67455 0.0
C131 C 0.41012 0.10234 0.63764 0.0
C132 C 0.46438 0.10246 0.62223 0.0
C133 C 0.5238 0.13982 0.64399 0.0
C134 C 0.52855 0.17717 0.68028 0.0
C135 C 0.47165 0.17293 0.69673 0.0
H136 H 0.14067 0.31554 0.04718 0.0
H137 H 0.98707 0.18083 0.15143 0.0
H138 H 0.01931 0.27831 0.19445 0.0
H139 H 0.26338 0.41965 0.11884 0.0
H140 H 0.29944 0.49724 0.08512 0.0
H141 H 0.25831 0.41846 0.05934 0.0
H142 H 0.17838 0.44129 0.02305 0.0
H143 H 0.21987 0.52067 0.0483 0.0
H144 H 0.12996 0.45952 0.05759 0.0
H145 H 0.07198 0.38868 0.22776 0.0
H146 H 0.14301 0.50576 0.24964 0.0
H147 H 0.2685 0.56688 0.12674 0.0
C148 C 0.11281 0.30707 0.07849 0.0
C149 C 0.06112 0.24141 0.09603 0.0
C150 C 0.02668 0.23129 0.13758 0.0
C151 C 0.04449 0.28615 0.16214 0.0
C152 C 0.09709 0.35038 0.14463 0.0
C153 C 0.13078 0.36121 0.10378 0.0
C154 C 0.18925 0.43454 0.09443 0.0
C155 C 0.25655 0.44292 0.08914 0.0
C156 C 0.1787 0.46585 0.05341 0.0
C157 C 0.18372 0.46284 0.13668 0.0
C158 C 0.12978 0.41366 0.16494 0.0
C159 C 0.11474 0.42762 0.20609 0.0
C160 C 0.1561 0.4939 0.21866 0.0
C161 C 0.21259 0.54463 0.19069 0.0
C162 C 0.226 0.52886 0.14902 0.0
H163 H 0.04063 0.21824 0.57704 0.0
H164 H 0.8927 0.00642 0.6182 0.0
H165 H 0.8294 0.03535 0.66509 0.0
H166 H 0.03648 0.28745 0.68146 0.0
H167 H 0.0424 0.35785 0.65429 0.0
H168 H 0.07982 0.32155 0.62707 0.0
H169 H 0.01118 0.30214 0.55863 0.0
H170 H 0.97392 0.33876 0.58537 0.0
H171 H 0.92081 0.25514 0.5662 0.0
H172 H 0.78149 0.08663 0.70683 0.0
H173 H 0.74274 0.15456 0.73151 0.0
H174 H 0.91776 0.33259 0.66022 0.0
C175 C -0.00474 0.17824 0.59633 0.0
C176 C 0.97181 0.11028 0.59457 0.0
C177 C 0.91151 0.05887 0.61932 0.0
C178 C 0.87552 0.07483 0.64628 0.0
C179 C 0.90008 0.14237 0.64765 0.0
C180 C 0.95787 0.19319 0.62275 0.0
C181 C 0.96984 0.2609 0.62711 0.0
C182 C 0.03608 0.30981 0.64878 0.0
C183 C 0.96883 0.29097 0.58163 0.0
C184 C 0.90936 0.24 0.65789 0.0
C185 C 0.87065 0.17166 0.67014 0.0
C186 C 0.81154 0.14028 0.69765 0.0
C187 C 0.79023 0.17938 0.71186 0.0
C188 C 0.82765 0.24892 0.69824 0.0
C189 C 0.88852 0.27963 0.6715 0.0
H190 H 0.81028 0.00507 0.09208 0.0
H191 H 0.81731 0.83598 0.12805 0.0
H192 H 0.72176 0.79169 0.18407 0.0
H193 H 0.75851 0.02425 0.20368 0.0
H194 H 0.703 0.04285 0.18192 0.0
H195 H 0.77721 0.06576 0.14884 0.0
H196 H 0.70378 -0.002 0.0847 0.0
H197 H 0.63 0.97636 0.1173 0.0
H198 H 0.63397 0.91064 0.0962 0.0
H199 H 0.6202 0.76217 0.2336 0.0
H200 H 0.51224 0.74043 0.26138 0.0
H201 H 0.56919 0.92602 0.19106 0.0
C202 C 0.7923 0.95918 0.11215 0.0
C203 C 0.8217 0.92427 0.10581 0.0
C204 C 0.79564 0.86362 0.13218 0.0
C205 C 0.74178 0.83845 0.16448 0.0
C206 C 0.71406 0.87423 0.17004 0.0
C207 C 0.73794 0.93284 0.14407 0.0
C208 C 0.69492 0.95785 0.15298 0.0
C209 C 0.73588 0.02678 0.17305 0.0
C210 C 0.66381 0.96083 0.11028 0.0
C211 C 0.64183 0.90314 0.18697 0.0
C212 C 0.65475 0.85634 0.19745 0.0
C213 C 0.61016 0.79902 0.22602 0.0
C214 C 0.54927 0.78741 0.24222 0.0
C215 C 0.53312 0.83233 0.22926 0.0
C216 C 0.58129 0.89204 0.20268 0.0
H217 H 0.82807 0.77225 0.57576 0.0
H218 H 0.01807 0.89038 0.63758 0.0
H219 H 0.98297 0.7916 0.68765 0.0
H220 H 0.72275 0.66697 0.67737 0.0
H221 H 0.67231 0.59229 0.64746 0.0
H222 H 0.70875 0.67439 0.61986 0.0
H223 H 0.76681 0.6495 0.55845 0.0
H224 H 0.73013 0.56735 0.58566 0.0
H225 H 0.82012 0.62456 0.57414 0.0
H226 H 0.93117 0.67704 0.72745 0.0
H227 H 0.86924 0.55495 0.74963 0.0
H228 H 0.71509 0.51109 0.66105 0.0
C229 C 0.86174 0.77764 0.60035 0.0
C230 C 0.92576 0.83936 0.60267 0.0
C231 C 0.9688 0.84375 0.63489 0.0
C232 C 0.94916 0.78793 0.66382 0.0
C233 C 0.88618 0.72761 0.66034 0.0
C234 C 0.84316 0.72204 0.62932 0.0
C235 C 0.78067 0.65004 0.62994 0.0
C236 C 0.71737 0.64569 0.64453 0.0
C237 C 0.7741 0.62118 0.58435 0.0
C238 C 0.79625 0.61583 0.66508 0.0
C239 C 0.85672 0.66156 0.68292 0.0
C240 C 0.88318 0.64092 0.71425 0.0
C241 C 0.84749 0.57161 0.72701 0.0
C242 C 0.78699 0.52392 0.70762 0.0
C243 C 0.76068 0.54673 0.677 0.0
H244 H 0.11253 0.96263 0.46289 0.0
H245 H 0.95359 0.89406 0.37314 0.0
H246 H 0.00549 0.85601 0.32371 0.0
H247 H 0.25103 0.01542 0.37428 0.0
H248 H 0.28808 0.9855 0.40917 0.0
H249 H 0.24504 0.0179 0.43384 0.0
H250 H 0.16777 0.90643 0.48318 0.0
H251 H 0.21034 0.87376 0.45872 0.0
H252 H 0.12026 0.82744 0.45729 0.0
H253 H 0.06108 0.80774 0.29139 0.0
H254 H 0.11804 0.75256 0.27907 0.0
H255 H 0.2468 0.85771 0.38489 0.0
C256 C 0.0901 0.9415 0.4322 0.0
C257 C 0.02953 0.9317 0.42161 0.0
C258 C 0.00016 0.90202 0.38181 0.0
C259 C 0.0295 0.8807 0.35331 0.0
C260 C 0.08857 0.8898 0.36489 0.0
C261 C 0.1189 0.91976 0.40325 0.0
C262 C 0.17818 0.9169 0.41016 0.0
C263 C 0.24452 0.98818 0.40664 0.0
C264 C 0.16849 0.87883 0.45497 0.0
C265 C 0.17398 0.87763 0.37104 0.0
C266 C 0.1227 0.86365 0.34486 0.0
C267 C 0.10349 0.82095 0.31021 0.0
C268 C 0.13689 0.79086 0.30261 0.0
C269 C 0.18961 0.80488 0.32871 0.0
C270 C 0.20868 0.84911 0.36309 0.0
H271 H 0.18457 0.01964 0.94267 0.0
H272 H 0.1774 0.18916 0.9091 0.0
H273 H 0.27886 0.23947 0.8573 0.0
H274 H 0.35942 0.11633 0.94826 0.0
H275 H 0.36895 0.05453 0.92632 0.0
H276 H 0.29069 0.02788 0.95506 0.0
H277 H 0.22727 0.96618 0.8862 0.0
H278 H 0.30585 0.9936 0.85712 0.0
H279 H 0.25216 0.01265 0.83267 0.0
H280 H 0.38528 0.27393 0.81129 0.0
H281 H 0.49579 0.29867 0.78658 0.0
H282 H 0.43754 0.11121 0.85479 0.0
C283 C 0.20369 0.06675 0.92377 0.0
C284 C 0.17263 0.10013 0.9295 0.0
C285 C 0.20028 0.16264 0.90515 0.0
C286 C 0.25755 0.19127 0.87533 0.0
C287 C 0.28721 0.15718 0.87049 0.0
C288 C 0.26169 0.09672 0.89464 0.0
C289 C 0.30722 0.07419 0.88761 0.0
C290 C 0.33312 0.06791 0.93193 0.0
C291 C 0.27094 0.0077 0.86453 0.0
C292 C 0.36342 0.13232 0.85689 0.0
C293 C 0.34999 0.17865 0.84611 0.0
C294 C 0.39597 0.23768 0.81932 0.0
C295 C 0.45836 0.25111 0.80502 0.0
C296 C 0.47458 0.20633 0.81818 0.0
C297 C 0.4257 0.14551 0.84344 0.0
H298 H 0.01362 0.20527 0.45145 0.0
H299 H 0.16959 0.18797 0.3987 0.0
H300 H 0.21707 0.29155 0.34934 0.0
H301 H -0.00623 0.27762 0.34867 0.0
H302 H 0.98307 0.33349 0.37874 0.0
H303 H 0.95608 0.25314 0.4049 0.0
H304 H 0.03029 0.3132 0.47028 0.0
H305 H 0.05708 0.39346 0.44459 0.0
H306 H 0.11884 0.37906 0.45874 0.0
H307 H 0.25116 0.40176 0.30848 0.0
H308 H 0.27738 0.51456 0.28858 0.0
H309 H 0.10244 0.4611 0.37156 0.0
C310 C 0.05693 0.22246 0.42883 0.0
C311 C 0.08748 0.18817 0.4285 0.0
C312 C 0.14528 0.2134 0.39937 0.0
C313 C 0.17225 0.27188 0.37097 0.0
C314 C 0.14113 0.30485 0.37231 0.0
C315 C 0.08508 0.28125 0.40091 0.0
C316 C 0.06536 0.32953 0.39982 0.0
C317 C -0.00458 0.29645 0.38196 0.0
C318 C 0.06812 0.35536 0.44609 0.0
C319 C 0.12012 0.38499 0.36712 0.0
C320 C 0.16237 0.36922 0.35057 0.0
C321 C 0.21811 0.41435 0.32106 0.0
C322 C 0.23247 0.47814 0.3097 0.0
C323 C 0.19198 0.49642 0.32856 0.0
C324 C 0.13411 0.44831 0.35649 0.0
H325 H 0.80281 0.97682 0.9469 0.0
H326 H 0.01535 0.136 0.91839 0.0
H327 H 0.98681 0.19729 0.86832 0.0
H328 H 0.74618 0.98263 0.83711 0.0
H329 H 0.66979 0.96883 0.86015 0.0
H330 H 0.70714 0.93416 0.88958 0.0
H331 H 0.7116 -0.00507 0.95958 0.0
H332 H 0.67337 0.02873 0.93058 0.0
H333 H 0.75269 0.0848 0.95459 0.0
H334 H 0.93424 0.24269 0.82342 0.0
H335 H 0.86281 0.27706 0.79762 0.0
H336 H 0.68557 0.0902 0.85872 0.0
C337 C 0.84325 0.02425 0.9297 0.0
C338 C 0.9111 0.0516 0.93596 0.0
C339 C 0.96293 0.11434 0.91379 0.0
C340 C 0.94723 0.14907 0.88502 0.0
C341 C 0.87956 0.12041 0.87918 0.0
C342 C 0.82845 0.05989 0.90149 0.0
C343 C 0.75993 0.04312 0.89323 0.0
C344 C 0.71833 0.97834 0.86854 0.0
C345 C 0.72222 0.03763 0.93709 0.0
C346 C 0.78038 0.10447 0.86371 0.0
C347 C 0.84946 0.14766 0.85491 0.0
C348 C 0.88008 0.20903 0.82983 0.0
C349 C 0.8392 0.22794 0.81504 0.0
C350 C 0.76891 0.18595 0.82605 0.0
C351 C 0.73919 0.12279 0.84955 0.0
H352 H 0.77688 0.9528 0.401 0.0
H353 H 0.71813 0.9527 0.53845 0.0
H354 H 0.60701 0.92003 0.51613 0.0
H355 H 0.6796 0.00739 0.34595 0.0
H356 H 0.65753 0.95001 0.30286 0.0
H357 H 0.73655 0.98722 0.32793 0.0
H358 H 0.70551 0.86776 0.34763 0.0
H359 H 0.62627 0.83035 0.32335 0.0
H360 H 0.62801 0.80662 0.38028 0.0
H361 H 0.5009 0.87531 0.48125 0.0
H362 H 0.40186 0.81375 0.43773 0.0
H363 H 0.52756 0.83661 0.32291 0.0
C364 C 0.74126 0.94786 0.42616 0.0
C365 C 0.75554 0.95582 0.47129 0.0
C366 C 0.70759 0.94709 0.50369 0.0
C367 C 0.64491 0.92913 0.49123 0.0
C368 C 0.63173 0.92014 0.44643 0.0
C369 C 0.67843 0.92898 0.41436 0.0
C370 C 0.64855 0.90659 0.36987 0.0
C371 C 0.68259 0.9664 0.33458 0.0
C372 C 0.6523 0.84944 0.35443 0.0
C373 C 0.5769 0.88153 0.38233 0.0
C374 C 0.56892 0.89136 0.42635 0.0
C375 C 0.50661 0.86812 0.44664 0.0
C376 C 0.45063 0.83269 0.42161 0.0
C377 C 0.45714 0.82004 0.37685 0.0
C378 C 0.52131 0.84619 0.35671 0.0
H379 H 0.86251 0.76331 0.90316 0.0
H380 H 0.99194 0.76092 0.99648 0.0
H381 H 0.97058 0.65862 0.96483 0.0
H382 H 0.73938 0.58887 0.90957 0.0
H383 H 0.72241 0.58493 0.85166 0.0
H384 H 0.75312 0.66111 0.87885 0.0
H385 H 0.85439 0.72967 0.8194 0.0
H386 H 0.82133 0.65312 0.79202 0.0
H387 H 0.90691 0.70164 0.80825 0.0
H388 H 0.9261 0.55182 0.9289 0.0
H389 H 0.86034 0.44558 0.8914 0.0
H390 H 0.76343 0.51988 0.81911 0.0
C391 C 0.88692 0.74161 0.91655 0.0
C392 C 0.92883 0.76947 0.95209 0.0
C393 C 0.95968 0.73989 0.96915 0.0
C394 C 0.94817 0.68225 0.95124 0.0
C395 C 0.90636 0.6558 0.91615 0.0
C396 C 0.87628 0.68451 0.89894 0.0
C397 C 0.82983 0.64368 0.86335 0.0
C398 C 0.75689 0.61813 0.87669 0.0
C399 C 0.8547 0.68448 0.81805 0.0
C400 C 0.83727 0.58649 0.86386 0.0
C401 C 0.88197 0.59474 0.89443 0.0
C402 C 0.89218 0.5454 0.9042 0.0
C403 C 0.85464 0.48539 0.8829 0.0
C404 C 0.80811 0.47575 0.85205 0.0
C405 C 0.80037 0.52734 0.84162 0.0
loop_
_geom_bond_atom_site_label_1
_geom_bond_atom_site_label_2
_geom_bond_distance
_geom_bond_site_symmetry_2
_ccdc_geom_bond_type
Tb0 O3 2.453 1_545 S
Tb0 O4 2.596 1_545 S
Tb0 O5 2.354 1_554 S
Tb0 O13 2.343 1_454 S
Tb0 O15 2.353 1_455 S
Tb0 O17 2.427 . S
Tb0 O18 2.513 . S
C1 O5 1.273 . S
C1 O7 1.263 . S
Tb2 O4 2.343 1_656 S
Tb2 O7 2.353 1_665 S
Tb2 O10 2.427 . S
Tb2 O11 2.513 . S
Tb2 O12 2.453 1_565 S
Tb2 O13 2.596 1_565 S
Tb2 O14 2.374 1_556 S
O3 Tb0 2.453 1_565 S
O3 C19 1.245 . S
O4 Tb0 2.596 1_565 S
O4 Tb2 2.343 1_454 S
O4 C19 1.259 . S
O5 Tb0 2.354 1_556 S
O5 C1 1.273 . S
C6 O10 1.275 . S
C6 O11 1.246 . S
O7 C1 1.263 . S
O7 Tb2 2.353 1_445 S
C8 O12 1.245 . S
C8 O13 1.259 . S
C9 O14 1.250 . S
C9 O15 1.263 1_565 S
O10 Tb2 2.427 . S
O10 C6 1.275 . S
O11 Tb2 2.513 . S
O11 C6 1.246 . S
O12 Tb2 2.453 1_545 S
O12 C8 1.245 . S
O13 Tb0 2.343 1_656 S
O13 Tb2 2.596 1_545 S
O13 C8 1.259 . S
O14 Tb2 2.374 1_554 S
O14 C9 1.250 . S
O15 Tb0 2.353 1_655 S
O15 C9 1.263 1_545 S
C16 O17 1.275 . S
C16 O18 1.246 . S
O17 Tb0 2.427 . S
O17 C16 1.275 . S
O18 Tb0 2.513 . S
O18 C16 1.246 . S
C19 O3 1.245 . S
C19 O4 1.259 . S
Tb20 O23 2.453 1_655 S
Tb20 O24 2.596 1_665 S
Tb20 O25 2.374 . S
Tb20 O33 2.343 1_565 S
Tb20 O35 2.353 1_665 S
Tb20 O37 2.427 1_565 S
Tb20 O38 2.513 . S
C21 O25 1.251 . S
C21 O27 1.263 . S
Tb22 O24 2.343 . S
Tb22 O27 2.353 1_445 S
Tb22 O30 2.427 . S
Tb22 O31 2.513 . S
Tb22 O32 2.453 1_455 S
Tb22 O33 2.596 1_455 S
Tb22 O34 2.374 . S
O23 Tb20 2.453 1_455 S
O23 C39 1.245 . S
O24 Tb20 2.596 1_445 S
O24 Tb22 2.343 . S
O24 C39 1.259 1_545 S
O25 Tb20 2.374 . S
O25 C21 1.251 . S
C26 O30 1.275 . S
C26 O31 1.246 . S
O27 C21 1.263 . S
O27 Tb22 2.353 1_665 S
C28 O32 1.245 . S
C28 O33 1.259 . S
C29 O34 1.250 . S
C29 O35 1.263 . S
O30 Tb22 2.427 . S
O30 C26 1.275 . S
O31 Tb22 2.513 . S
O31 C26 1.246 . S
O32 Tb22 2.453 1_655 S
O32 C28 1.245 . S
O33 Tb20 2.343 1_545 S
O33 Tb22 2.596 1_655 S
O33 C28 1.259 . S
O34 Tb22 2.374 . S
O34 C29 1.250 . S
O35 Tb20 2.353 1_445 S
O35 C29 1.263 . S
C36 O37 1.275 1_565 S
C36 O38 1.246 . S
O37 Tb20 2.427 1_545 S
O37 C36 1.275 1_545 S
O38 Tb20 2.513 . S
O38 C36 1.246 . S
C39 O23 1.245 . S
C39 O24 1.259 1_565 S
Zn40 O46 1.920 . S
Zn40 O52 1.898 . S
Zn40 O55 1.905 . S
Zn41 O49 1.905 . S
Zn41 O50 1.898 . S
Zn41 O58 1.920 . S
Zn42 O45 2.080 . S
Zn42 O48 2.114 . S
Zn42 O51 2.120 . S
Zn42 O53 2.120 . S
Zn42 O54 2.114 . S
Zn42 O57 2.080 . S
C43 O48 1.166 . S
C43 O49 1.182 . S
C44 O50 1.167 . S
C44 O51 1.299 . S
O45 Zn42 2.080 . S
O45 C59 1.305 . S
O46 Zn40 1.920 . S
O46 C59 1.234 . S
C47 O52 1.167 . S
C47 O53 1.299 . S
O48 Zn42 2.114 . S
O48 C43 1.166 . S
O49 Zn41 1.905 . S
O49 C43 1.182 . S
O50 Zn41 1.898 . S
O50 C44 1.167 . S
O51 Zn42 2.120 . S
O51 C44 1.299 . S
O52 Zn40 1.898 . S
O52 C47 1.167 . S
O53 Zn42 2.120 . S
O53 C47 1.299 . S
O54 Zn42 2.114 . S
O54 C56 1.166 . S
O55 Zn40 1.905 . S
O55 C56 1.182 . S
C56 O54 1.166 . S
C56 O55 1.182 . S
O57 Zn42 2.080 . S
O57 C60 1.305 . S
O58 Zn41 1.920 . S
O58 C60 1.234 . S
C59 O45 1.305 . S
C59 O46 1.234 . S
C60 O57 1.305 . S
C60 O58 1.234 . S
Zn61 O67 1.920 . S
Zn61 O73 1.898 . S
Zn61 O76 1.905 . S
Zn62 O70 1.905 . S
Zn62 O71 1.898 . S
Zn62 O79 1.920 . S
Zn63 O66 2.080 . S
Zn63 O69 2.114 . S
Zn63 O72 2.120 . S
Zn63 O74 2.120 . S
Zn63 O75 2.114 . S
Zn63 O78 2.080 . S
C64 O69 1.166 . S
C64 O70 1.182 . S
C65 O71 1.167 . S
C65 O72 1.299 . S
O66 Zn63 2.080 . S
O66 C80 1.305 . S
O67 Zn61 1.920 . S
O67 C80 1.234 . S
C68 O73 1.167 . S
C68 O74 1.299 . S
O69 Zn63 2.114 . S
O69 C64 1.166 . S
O70 Zn62 1.905 . S
O70 C64 1.182 . S
O71 Zn62 1.898 . S
O71 C65 1.167 . S
O72 Zn63 2.120 . S
O72 C65 1.299 . S
O73 Zn61 1.898 . S
O73 C68 1.167 . S
O74 Zn63 2.120 . S
O74 C68 1.299 . S
O75 Zn63 2.114 . S
O75 C77 1.166 . S
O76 Zn61 1.905 . S
O76 C77 1.182 . S
C77 O75 1.166 . S
C77 O76 1.182 . S
O78 Zn63 2.080 . S
O78 C81 1.305 . S
O79 Zn62 1.920 . S
O79 C81 1.234 . S
C80 O66 1.305 . S
C80 O67 1.234 . S
C81 O78 1.305 . S
C81 O79 1.234 . S
H82 C94 0.930 . S
H83 C96 0.930 1_655 S
H84 C97 0.930 1_655 S
H85 C101 0.959 . S
H86 C101 0.959 . S
H87 C101 0.961 1_545 S
H88 C102 0.960 . S
H89 C102 0.961 . S
H90 C102 0.959 . S
H91 C105 0.929 . S
H92 C106 0.931 . S
H93 C108 0.930 . S
C94 H82 0.930 . S
C94 C95 1.399 . S
C94 C99 1.399 . S
C95 C94 1.399 . S
C95 C96 1.376 . S
C96 H83 0.930 1_455 S
C96 C95 1.376 . S
C96 C97 1.388 . S
C97 H84 0.930 1_455 S
C97 C96 1.388 . S
C97 C98 1.390 . S
C98 C97 1.390 . S
C98 C99 1.394 . S
C98 C104 1.465 . S
C99 C94 1.399 . S
C99 C98 1.394 . S
C99 C100 1.516 . S
C100 C99 1.516 . S
C100 C101 1.502 . S
C100 C102 1.561 . S
C100 C103 1.526 . S
C101 H85 0.959 . S
C101 H86 0.959 . S
C101 H87 0.961 1_565 S
C101 C100 1.502 . S
C102 H88 0.960 . S
C102 H89 0.961 . S
C102 H90 0.959 . S
C102 C100 1.561 . S
C103 C100 1.526 . S
C103 C104 1.396 . S
C103 C108 1.390 . S
C104 C98 1.465 . S
C104 C103 1.396 . S
C104 C105 1.399 . S
C105 H91 0.929 . S
C105 C104 1.399 . S
C105 C106 1.385 . S
C106 H92 0.931 . S
C106 C105 1.385 . S
C106 C107 1.389 . S
C107 C106 1.389 . S
C107 C108 1.387 . S
C108 H93 0.930 . S
C108 C103 1.390 . S
C108 C107 1.387 . S
H109 C121 0.930 . S
H110 C123 0.930 . S
H111 C124 0.930 . S
H112 C128 0.959 . S
H113 C128 0.959 . S
H114 C128 0.961 . S
H115 C129 0.960 . S
H116 C129 0.961 . S
H117 C129 0.959 . S
H118 C132 0.929 . S
H119 C133 0.931 . S
H120 C135 0.930 . S
C121 H109 0.930 . S
C121 C122 1.399 . S
C121 C126 1.399 . S
C122 C121 1.399 . S
C122 C123 1.376 . S
C123 H110 0.930 . S
C123 C122 1.376 . S
C123 C124 1.388 . S
C124 H111 0.930 . S
C124 C123 1.388 . S
C124 C125 1.390 . S
C125 C124 1.390 . S
C125 C126 1.394 . S
C125 C131 1.465 . S
C126 C121 1.399 . S
C126 C125 1.394 . S
C126 C127 1.516 . S
C127 C126 1.516 . S
C127 C128 1.502 . S
C127 C129 1.561 . S
C127 C130 1.526 . S
C128 H112 0.959 . S
C128 H113 0.959 . S
C128 H114 0.961 . S
C128 C127 1.502 . S
C129 H115 0.960 . S
C129 H116 0.961 . S
C129 H117 0.959 . S
C129 C127 1.561 . S
C130 C127 1.526 . S
C130 C131 1.396 . S
C130 C135 1.390 . S
C131 C125 1.465 . S
C131 C130 1.396 . S
C131 C132 1.399 . S
C132 H118 0.929 . S
C132 C131 1.399 . S
C132 C133 1.385 . S
C133 H119 0.931 . S
C133 C132 1.385 . S
C133 C134 1.389 . S
C134 C133 1.389 . S
C134 C135 1.387 . S
C135 H120 0.930 . S
C135 C130 1.390 . S
C135 C134 1.387 . S
H136 C148 0.930 . S
H137 C150 0.930 . S
H138 C151 0.930 . S
H139 C155 0.959 . S
H140 C155 0.959 . S
H141 C155 0.961 . S
H142 C156 0.960 . S
H143 C156 0.961 . S
H144 C156 0.959 . S
H145 C159 0.929 . S
H146 C160 0.931 . S
H147 C162 0.930 . S
C148 H136 0.930 . S
C148 C149 1.399 . S
C148 C153 1.399 . S
C149 C148 1.399 . S
C149 C150 1.376 . S
C150 H137 0.930 . S
C150 C149 1.376 . S
C150 C151 1.388 . S
C151 H138 0.930 . S
C151 C150 1.388 . S
C151 C152 1.390 . S
C152 C151 1.390 . S
C152 C153 1.394 . S
C152 C158 1.465 . S
C153 C148 1.399 . S
C153 C152 1.394 . S
C153 C154 1.516 . S
C154 C153 1.516 . S
C154 C155 1.502 . S
C154 C156 1.561 . S
C154 C157 1.526 . S
C155 H139 0.959 . S
C155 H140 0.959 . S
C155 H141 0.961 . S
C155 C154 1.502 . S
C156 H142 0.960 . S
C156 H143 0.961 . S
C156 H144 0.959 . S
C156 C154 1.561 . S
C157 C154 1.526 . S
C157 C158 1.396 . S
C157 C162 1.390 . S
C158 C152 1.465 . S
C158 C157 1.396 . S
C158 C159 1.399 . S
C159 H145 0.929 . S
C159 C158 1.399 . S
C159 C160 1.385 . S
C160 H146 0.931 . S
C160 C159 1.385 . S
C160 C161 1.389 . S
C161 C160 1.389 . S
C161 C162 1.387 . S
C162 H147 0.930 . S
C162 C157 1.390 . S
C162 C161 1.387 . S
H163 C175 0.930 . S
H164 C177 0.930 . S
H165 C178 0.930 . S
H166 C182 0.959 . S
H167 C182 0.959 . S
H168 C182 0.961 . S
H169 C183 0.960 . S
H170 C183 0.961 . S
H171 C183 0.959 . S
H172 C186 0.929 . S
H173 C187 0.931 . S
H174 C189 0.930 . S
C175 H163 0.930 . S
C175 C176 1.399 . S
C175 C180 1.399 . S
C176 C175 1.399 . S
C176 C177 1.376 . S
C177 H164 0.930 . S
C177 C176 1.376 . S
C177 C178 1.388 . S
C178 H165 0.930 . S
C178 C177 1.388 . S
C178 C179 1.390 . S
C179 C178 1.390 . S
C179 C180 1.394 . S
C179 C185 1.465 . S
C180 C175 1.399 . S
C180 C179 1.394 . S
C180 C181 1.516 . S
C181 C180 1.516 . S
C181 C182 1.502 . S
C181 C183 1.561 . S
C181 C184 1.526 . S
C182 H166 0.959 . S
C182 H167 0.959 . S
C182 H168 0.961 . S
C182 C181 1.502 . S
C183 H169 0.960 . S
C183 H170 0.961 . S
C183 H171 0.959 . S
C183 C181 1.561 . S
C184 C181 1.526 . S
C184 C185 1.396 . S
C184 C189 1.390 . S
C185 C179 1.465 . S
C185 C184 1.396 . S
C185 C186 1.399 . S
C186 H172 0.929 . S
C186 C185 1.399 . S
C186 C187 1.385 . S
C187 H173 0.931 . S
C187 C186 1.385 . S
C187 C188 1.389 . S
C188 C187 1.389 . S
C188 C189 1.387 . S
C189 H174 0.930 . S
C189 C184 1.390 . S
C189 C188 1.387 . S
H190 C202 0.930 1_545 S
H191 C204 0.930 . S
H192 C205 0.930 . S
H193 C209 0.959 . S
H194 C209 0.959 . S
H195 C209 0.961 . S
H196 C210 0.961 . S
H197 C210 0.964 . S
H198 C210 0.957 1_565 S
H199 C213 0.929 . S
H200 C214 0.931 . S
H201 C216 0.930 . S
C202 H190 0.930 1_565 S
C202 C203 1.399 . S
C202 C207 1.399 . S
C203 C202 1.399 . S
C203 C204 1.376 . S
C204 H191 0.930 . S
C204 C203 1.376 . S
C204 C205 1.388 . S
C205 H192 0.930 . S
C205 C204 1.388 . S
C205 C206 1.390 . S
C206 C205 1.390 . S
C206 C207 1.394 . S
C206 C212 1.465 . S
C207 C202 1.399 . S
C207 C206 1.394 . S
C207 C208 1.516 . S
C208 C207 1.516 . S
C208 C209 1.502 1_565 S
C208 C210 1.559 1_565 S
C208 C211 1.526 . S
C209 H193 0.959 . S
C209 H194 0.959 . S
C209 H195 0.961 . S
C209 C208 1.502 1_545 S
C210 H196 0.961 . S
C210 H197 0.964 . S
C210 H198 0.957 1_545 S
C210 C208 1.559 1_545 S
C211 C208 1.526 . S
C211 C212 1.396 . S
C211 C216 1.390 . S
C212 C206 1.465 . S
C212 C211 1.396 . S
C212 C213 1.399 . S
C213 H199 0.929 . S
C213 C212 1.399 . S
C213 C214 1.385 . S
C214 H200 0.931 . S
C214 C213 1.385 . S
C214 C215 1.389 . S
C215 C214 1.389 . S
C215 C216 1.387 . S
C216 H201 0.930 . S
C216 C211 1.390 . S
C216 C215 1.387 . S
H217 C229 0.930 . S
H218 C231 0.930 . S
H219 C232 0.930 . S
H220 C236 0.959 . S
H221 C236 0.959 . S
H222 C236 0.961 . S
H223 C237 0.960 . S
H224 C237 0.961 . S
H225 C237 0.959 . S
H226 C240 0.929 . S
H227 C241 0.931 . S
H228 C243 0.930 . S
C229 H217 0.930 . S
C229 C230 1.399 . S
C229 C234 1.399 . S
C230 C229 1.399 . S
C230 C231 1.376 . S
C231 H218 0.930 . S
C231 C230 1.376 . S
C231 C232 1.388 . S
C232 H219 0.930 . S
C232 C231 1.388 . S
C232 C233 1.390 . S
C233 C232 1.390 . S
C233 C234 1.394 . S
C233 C239 1.465 . S
C234 C229 1.399 . S
C234 C233 1.394 . S
C234 C235 1.516 . S
C235 C234 1.516 . S
C235 C236 1.502 . S
C235 C237 1.561 . S
C235 C238 1.526 . S
C236 H220 0.959 . S
C236 H221 0.959 . S
C236 H222 0.961 . S
C236 C235 1.502 . S
C237 H223 0.960 . S
C237 H224 0.961 . S
C237 H225 0.959 . S
C237 C235 1.561 . S
C238 C235 1.526 . S
C238 C239 1.396 . S
C238 C243 1.390 . S
C239 C233 1.465 . S
C239 C238 1.396 . S
C239 C240 1.399 . S
C240 H226 0.929 . S
C240 C239 1.399 . S
C240 C241 1.385 . S
C241 H227 0.931 . S
C241 C240 1.385 . S
C241 C242 1.389 . S
C242 C241 1.389 . S
C242 C243 1.387 . S
C243 H228 0.930 . S
C243 C238 1.390 . S
C243 C242 1.387 . S
H244 C256 0.930 . S
H245 C258 0.930 . S
H246 C259 0.930 . S
H247 C263 0.959 . S
H248 C263 0.959 . S
H249 C263 0.961 . S
H250 C264 0.960 . S
H251 C264 0.961 . S
H252 C264 0.959 . S
H253 C267 0.929 . S
H254 C268 0.931 . S
H255 C270 0.930 . S
C256 H244 0.930 . S
C256 C257 1.399 . S
C256 C261 1.399 . S
C257 C256 1.399 . S
C257 C258 1.376 . S
C258 H245 0.930 . S
C258 C257 1.376 . S
C258 C259 1.388 . S
C259 H246 0.930 . S
C259 C258 1.388 . S
C259 C260 1.390 . S
C260 C259 1.390 . S
C260 C261 1.394 . S
C260 C266 1.465 . S
C261 C256 1.399 . S
C261 C260 1.394 . S
C261 C262 1.516 . S
C262 C261 1.516 . S
C262 C263 1.502 . S
C262 C264 1.561 . S
C262 C265 1.526 . S
C263 H247 0.959 . S
C263 H248 0.959 . S
C263 H249 0.961 . S
C263 C262 1.502 . S
C264 H250 0.960 . S
C264 H251 0.961 . S
C264 H252 0.959 . S
C264 C262 1.561 . S
C265 C262 1.526 . S
C265 C266 1.396 . S
C265 C270 1.390 . S
C266 C260 1.465 . S
C266 C265 1.396 . S
C266 C267 1.399 . S
C267 H253 0.929 . S
C267 C266 1.399 . S
C267 C268 1.385 . S
C268 H254 0.931 . S
C268 C267 1.385 . S
C268 C269 1.389 . S
C269 C268 1.389 . S
C269 C270 1.387 . S
C270 H255 0.930 . S
C270 C265 1.390 . S
C270 C269 1.387 . S
H271 C283 0.930 . S
H272 C285 0.930 . S
H273 C286 0.930 . S
H274 C290 0.959 . S
H275 C290 0.959 . S
H276 C290 0.961 . S
H277 C291 0.960 . S
H278 C291 0.961 . S
H279 C291 0.959 . S
H280 C294 0.929 . S
H281 C295 0.931 . S
H282 C297 0.930 . S
C283 H271 0.930 . S
C283 C284 1.399 . S
C283 C288 1.399 . S
C284 C283 1.399 . S
C284 C285 1.376 . S
C285 H272 0.930 . S
C285 C284 1.376 . S
C285 C286 1.388 . S
C286 H273 0.930 . S
C286 C285 1.388 . S
C286 C287 1.390 . S
C287 C286 1.390 . S
C287 C288 1.394 . S
C287 C293 1.465 . S
C288 C283 1.399 . S
C288 C287 1.394 . S
C288 C289 1.516 . S
C289 C288 1.516 . S
C289 C290 1.502 . S
C289 C291 1.561 . S
C289 C292 1.526 . S
C290 H274 0.959 . S
C290 H275 0.959 . S
C290 H276 0.961 . S
C290 C289 1.502 . S
C291 H277 0.960 . S
C291 H278 0.961 . S
C291 H279 0.959 . S
C291 C289 1.561 . S
C292 C289 1.526 . S
C292 C293 1.396 . S
C292 C297 1.390 . S
C293 C287 1.465 . S
C293 C292 1.396 . S
C293 C294 1.399 . S
C294 H280 0.929 . S
C294 C293 1.399 . S
C294 C295 1.385 . S
C295 H281 0.931 . S
C295 C294 1.385 . S
C295 C296 1.389 . S
C296 C295 1.389 . S
C296 C297 1.387 . S
C297 H282 0.930 . S
C297 C292 1.390 . S
C297 C296 1.387 . S
H298 C310 0.930 . S
H299 C312 0.930 . S
H300 C313 0.930 . S
H301 C317 0.959 1_455 S
H302 C317 0.959 . S
H303 C317 0.961 . S
H304 C318 0.960 . S
H305 C318 0.961 . S
H306 C318 0.959 . S
H307 C321 0.929 . S
H308 C322 0.931 . S
H309 C324 0.930 . S
C310 H298 0.930 . S
C310 C311 1.399 . S
C310 C315 1.399 . S
C311 C310 1.399 . S
C311 C312 1.376 . S
C312 H299 0.930 . S
C312 C311 1.376 . S
C312 C313 1.388 . S
C313 H300 0.930 . S
C313 C312 1.388 . S
C313 C314 1.390 . S
C314 C313 1.390 . S
C314 C315 1.394 . S
C314 C320 1.465 . S
C315 C310 1.399 . S
C315 C314 1.394 . S
C315 C316 1.516 . S
C316 C315 1.516 . S
C316 C317 1.502 1_455 S
C316 C318 1.561 . S
C316 C319 1.526 . S
C317 H301 0.959 1_655 S
C317 H302 0.959 . S
C317 H303 0.961 . S
C317 C316 1.502 1_655 S
C318 H304 0.960 . S
C318 H305 0.961 . S
C318 H306 0.959 . S
C318 C316 1.561 . S
C319 C316 1.526 . S
C319 C320 1.396 . S
C319 C324 1.390 . S
C320 C314 1.465 . S
C320 C319 1.396 . S
C320 C321 1.399 . S
C321 H307 0.929 . S
C321 C320 1.399 . S
C321 C322 1.385 . S
C322 H308 0.931 . S
C322 C321 1.385 . S
C322 C323 1.389 . S
C323 C322 1.389 . S
C323 C324 1.387 . S
C324 H309 0.930 . S
C324 C319 1.390 . S
C324 C323 1.387 . S
H325 C337 0.930 . S
H326 C339 0.930 1_554 S
H327 C340 0.930 . S
H328 C344 0.959 . S
H329 C344 0.959 . S
H330 C344 0.961 . S
H331 C345 0.964 . S
H332 C345 0.961 . S
H333 C345 0.959 . S
H334 C348 0.929 . S
H335 C349 0.931 . S
H336 C351 0.930 . S
C337 H325 0.930 . S
C337 C338 1.399 . S
C337 C342 1.399 . S
C338 C337 1.399 . S
C338 C339 1.376 . S
C339 H326 0.930 1_556 S
C339 C338 1.376 . S
C339 C340 1.388 . S
C340 H327 0.930 . S
C340 C339 1.388 . S
C340 C341 1.390 . S
C341 C340 1.390 . S
C341 C342 1.394 . S
C341 C347 1.465 . S
C342 C337 1.399 . S
C342 C341 1.394 . S
C342 C343 1.516 . S
C343 C342 1.516 . S
C343 C344 1.502 . S
C343 C345 1.561 . S
C343 C346 1.526 . S
C344 H328 0.959 . S
C344 H329 0.959 . S
C344 H330 0.961 . S
C344 C343 1.502 . S
C345 H331 0.964 . S
C345 H332 0.961 . S
C345 H333 0.959 . S
C345 C343 1.561 . S
C346 C343 1.526 . S
C346 C347 1.396 . S
C346 C351 1.390 . S
C347 C341 1.465 . S
C347 C346 1.396 . S
C347 C348 1.399 . S
C348 H334 0.929 . S
C348 C347 1.399 . S
C348 C349 1.385 . S
C349 H335 0.931 . S
C349 C348 1.385 . S
C349 C350 1.389 . S
C350 C349 1.389 . S
C350 C351 1.387 . S
C351 H336 0.930 . S
C351 C346 1.390 . S
C351 C350 1.387 . S
H352 C364 0.930 . S
H353 C366 0.930 . S
H354 C367 0.930 . S
H355 C371 0.959 . S
H356 C371 0.959 . S
H357 C371 0.961 . S
H358 C372 0.960 . S
H359 C372 0.961 . S
H360 C372 0.959 . S
H361 C375 0.929 . S
H362 C376 0.931 . S
H363 C378 0.930 . S
C364 H352 0.930 . S
C364 C365 1.399 . S
C364 C369 1.399 . S
C365 C364 1.399 . S
C365 C366 1.376 . S
C366 H353 0.930 . S
C366 C365 1.376 . S
C366 C367 1.388 . S
C367 H354 0.930 . S
C367 C366 1.388 . S
C367 C368 1.390 . S
C368 C367 1.390 . S
C368 C369 1.394 . S
C368 C374 1.465 . S
C369 C364 1.399 . S
C369 C368 1.394 . S
C369 C370 1.516 . S
C370 C369 1.516 . S
C370 C371 1.502 . S
C370 C372 1.561 . S
C370 C373 1.526 . S
C371 H355 0.959 . S
C371 H356 0.959 . S
C371 H357 0.961 . S
C371 C370 1.502 . S
C372 H358 0.960 . S
C372 H359 0.961 . S
C372 H360 0.959 . S
C372 C370 1.561 . S
C373 C370 1.526 . S
C373 C374 1.396 . S
C373 C378 1.390 . S
C374 C368 1.465 . S
C374 C373 1.396 . S
C374 C375 1.399 . S
C375 H361 0.929 . S
C375 C374 1.399 . S
C375 C376 1.385 . S
C376 H362 0.931 . S
C376 C375 1.385 . S
C376 C377 1.389 . S
C377 C376 1.389 . S
C377 C378 1.387 . S
C378 H363 0.930 . S
C378 C373 1.390 . S
C378 C377 1.387 . S
H379 C391 0.930 . S
H380 C393 0.930 1_554 S
H381 C394 0.930 . S
H382 C398 0.959 . S
H383 C398 0.959 . S
H384 C398 0.961 . S
H385 C399 0.960 . S
H386 C399 0.961 . S
H387 C399 0.959 . S
H388 C402 0.929 . S
H389 C403 0.931 . S
H390 C405 0.930 . S
C391 H379 0.930 . S
C391 C392 1.399 . S
C391 C396 1.399 . S
C392 C391 1.399 . S
C392 C393 1.376 . S
C393 H380 0.930 1_556 S
C393 C392 1.376 . S
C393 C394 1.388 . S
C394 H381 0.930 . S
C394 C393 1.388 . S
C394 C395 1.390 . S
C395 C394 1.390 . S
C395 C396 1.394 . S
C395 C401 1.465 . S
C396 C391 1.399 . S
C396 C395 1.394 . S
C396 C397 1.516 . S
C397 C396 1.516 . S
C397 C398 1.502 . S
C397 C399 1.561 1_655 S
C397 C400 1.526 . S
C398 H382 0.959 . S
C398 H383 0.959 . S
C398 H384 0.961 . S
C398 C397 1.502 . S
C399 H385 0.960 . S
C399 H386 0.961 . S
C399 H387 0.959 . S
C399 C397 1.561 1_455 S
C400 C397 1.526 . S
C400 C401 1.396 . S
C400 C405 1.390 . S
C401 C395 1.465 . S
C401 C400 1.396 . S
C401 C402 1.399 . S
C402 H388 0.929 . S
C402 C401 1.399 . S
C402 C403 1.385 . S
C403 H389 0.931 . S
C403 C402 1.385 . S
C403 C404 1.389 . S
C404 C403 1.389 . S
C404 C405 1.387 . S
C405 H390 0.930 . S
C405 C400 1.390 . S
C405 C404 1.387 . S
C95 C19 1.486 . S
C107 C59 1.460 . S
C122 C26 1.302 . S
C134 C65 1.137 . S
C149 C16 1.212 . S
C161 C56 1.208 . S
C176 C28 1.534 . S
C188 C81 1.524 . S
C203 C9 1.813 . S
C215 C47 1.628 . S
C242 C64 1.601 . S
C230 C21 1.671 . S
C257 C39 1.434 . S
C269 C60 1.480 . S
C296 C77 1.572 . S
C284 C1 1.637 . S
C323 C44 1.633 . S
C311 C29 1.812 . S
C350 C80 1.449 . S
C338 C8 1.575 . S
C377 C43 1.101 . S
C365 C36 1.215 . S
C404 C68 1.107 . S
C392 C6 1.288 . S
