# Generated by pormake.
# Topology ocu, (6,8)-cn, num edge types: 1
# Building blocks:
#     Node 0, Type 0, BuildingBlock: KUMJIN_clean_sbu_0, # of connection points: 6
#     Node 1, Type 0, BuildingBlock: KUMJIN_clean_sbu_0, # of connection points: 6
#     Node 2, Type 0, BuildingBlock: KUMJIN_clean_sbu_0, # of connection points: 6
#     Node 3, Type 0, BuildingBlock: KUMJIN_clean_sbu_0, # of connection points: 6
#     Node 4, Type 0, BuildingBlock: KUMJIN_clean_sbu_0, # of connection points: 6
#     Node 5, Type 0, BuildingBlock: KUMJIN_clean_sbu_0, # of connection points: 6
#     Node 6, Type 0, BuildingBlock: KUMJIN_clean_sbu_0, # of connection points: 6
#     Node 7, Type 0, BuildingBlock: KUMJIN_clean_sbu_0, # of connection points: 6
#     Node 8, Type 1, BuildingBlock: AJUNOK_clean_sbu_0, # of connection points: 8
#     Node 9, Type 1, BuildingBlock: AJUNOK_clean_sbu_0, # of connection points: 8
#     Node 10, Type 1, BuildingBlock: AJUNOK_clean_sbu_0, # of connection points: 8
#     Node 11, Type 1, BuildingBlock: AJUNOK_clean_sbu_0, # of connection points: 8
#     Node 12, Type 1, BuildingBlock: AJUNOK_clean_sbu_0, # of connection points: 8
#     Node 13, Type 1, BuildingBlock: AJUNOK_clean_sbu_0, # of connection points: 8
#     Edge 14, Type (0, 1), BuildingBlock: AJUNOK_clean_linker_0, # of connection points: 2
#     Edge 15, Type (0, 1), BuildingBlock: AJUNOK_clean_linker_0, # of connection points: 2
#     Edge 16, Type (0, 1), BuildingBlock: AJUNOK_clean_linker_0, # of connection points: 2
#     Edge 17, Type (0, 1), BuildingBlock: AJUNOK_clean_linker_0, # of connection points: 2
#     Edge 18, Type (0, 1), BuildingBlock: AJUNOK_clean_linker_0, # of connection points: 2
#     Edge 19, Type (0, 1), BuildingBlock: AJUNOK_clean_linker_0, # of connection points: 2
#     Edge 20, Type (0, 1), BuildingBlock: AJUNOK_clean_linker_0, # of connection points: 2
#     Edge 21, Type (0, 1), BuildingBlock: AJUNOK_clean_linker_0, # of connection points: 2
#     Edge 22, Type (0, 1), BuildingBlock: AJUNOK_clean_linker_0, # of connection points: 2
#     Edge 23, Type (0, 1), BuildingBlock: AJUNOK_clean_linker_0, # of connection points: 2
#     Edge 24, Type (0, 1), BuildingBlock: AJUNOK_clean_linker_0, # of connection points: 2
#     Edge 25, Type (0, 1), BuildingBlock: AJUNOK_clean_linker_0, # of connection points: 2
#     Edge 26, Type (0, 1), BuildingBlock: AJUNOK_clean_linker_0, # of connection points: 2
#     Edge 27, Type (0, 1), BuildingBlock: AJUNOK_clean_linker_0, # of connection points: 2
#     Edge 28, Type (0, 1), BuildingBlock: AJUNOK_clean_linker_0, # of connection points: 2
#     Edge 29, Type (0, 1), BuildingBlock: AJUNOK_clean_linker_0, # of connection points: 2
#     Edge 30, Type (0, 1), BuildingBlock: AJUNOK_clean_linker_0, # of connection points: 2
#     Edge 31, Type (0, 1), BuildingBlock: AJUNOK_clean_linker_0, # of connection points: 2
#     Edge 32, Type (0, 1), BuildingBlock: AJUNOK_clean_linker_0, # of connection points: 2
#     Edge 33, Type (0, 1), BuildingBlock: AJUNOK_clean_linker_0, # of connection points: 2
#     Edge 34, Type (0, 1), BuildingBlock: AJUNOK_clean_linker_0, # of connection points: 2
#     Edge 35, Type (0, 1), BuildingBlock: AJUNOK_clean_linker_0, # of connection points: 2
#     Edge 36, Type (0, 1), BuildingBlock: AJUNOK_clean_linker_0, # of connection points: 2
#     Edge 37, Type (0, 1), BuildingBlock: AJUNOK_clean_linker_0, # of connection points: 2
#     Edge 38, Type (0, 1), BuildingBlock: AJUNOK_clean_linker_0, # of connection points: 2
#     Edge 39, Type (0, 1), BuildingBlock: AJUNOK_clean_linker_0, # of connection points: 2
#     Edge 40, Type (0, 1), BuildingBlock: AJUNOK_clean_linker_0, # of connection points: 2
#     Edge 41, Type (0, 1), BuildingBlock: AJUNOK_clean_linker_0, # of connection points: 2
#     Edge 42, Type (0, 1), BuildingBlock: AJUNOK_clean_linker_0, # of connection points: 2
#     Edge 43, Type (0, 1), BuildingBlock: AJUNOK_clean_linker_0, # of connection points: 2
#     Edge 44, Type (0, 1), BuildingBlock: AJUNOK_clean_linker_0, # of connection points: 2
#     Edge 45, Type (0, 1), BuildingBlock: AJUNOK_clean_linker_0, # of connection points: 2
#     Edge 46, Type (0, 1), BuildingBlock: AJUNOK_clean_linker_0, # of connection points: 2
#     Edge 47, Type (0, 1), BuildingBlock: AJUNOK_clean_linker_0, # of connection points: 2
#     Edge 48, Type (0, 1), BuildingBlock: AJUNOK_clean_linker_0, # of connection points: 2
#     Edge 49, Type (0, 1), BuildingBlock: AJUNOK_clean_linker_0, # of connection points: 2
#     Edge 50, Type (0, 1), BuildingBlock: AJUNOK_clean_linker_0, # of connection points: 2
#     Edge 51, Type (0, 1), BuildingBlock: AJUNOK_clean_linker_0, # of connection points: 2
#     Edge 52, Type (0, 1), BuildingBlock: AJUNOK_clean_linker_0, # of connection points: 2
#     Edge 53, Type (0, 1), BuildingBlock: AJUNOK_clean_linker_0, # of connection points: 2
#     Edge 54, Type (0, 1), BuildingBlock: AJUNOK_clean_linker_0, # of connection points: 2
#     Edge 55, Type (0, 1), BuildingBlock: AJUNOK_clean_linker_0, # of connection points: 2
#     Edge 56, Type (0, 1), BuildingBlock: AJUNOK_clean_linker_0, # of connection points: 2
#     Edge 57, Type (0, 1), BuildingBlock: AJUNOK_clean_linker_0, # of connection points: 2
#     Edge 58, Type (0, 1), BuildingBlock: AJUNOK_clean_linker_0, # of connection points: 2
#     Edge 59, Type (0, 1), BuildingBlock: AJUNOK_clean_linker_0, # of connection points: 2
#     Edge 60, Type (0, 1), BuildingBlock: AJUNOK_clean_linker_0, # of connection points: 2
#     Edge 61, Type (0, 1), BuildingBlock: AJUNOK_clean_linker_0, # of connection points: 2
# Relax obj value: 0.172
# Max RMSD: 0.268
# Mean RMSD: 0.197
data_MOF--net-ocu--node1-KUMJIN_clean_sbu_0--node2-AJUNOK_clean_sbu_0--edge1-AJUNOK_clean_linker_0
_symmetry_space_group_name_H-M    P1
_symmetry_Int_Tables_number       1
_symmetry_cell_setting            triclinic
loop_
_symmetry_equiv_pos_as_xyz
'x, y, z'
_cell_length_a     34.991131
_cell_length_b     34.453141
_cell_length_c     30.983506
_cell_angle_alpha  86.404318
_cell_angle_beta   107.40258
_cell_angle_gamma 119.09005
loop_
_atom_site_label
_atom_site_type_symbol
_atom_site_fract_x
_atom_site_fract_y
_atom_site_fract_z
_atom_type_partial_charge
Eu0 Eu 0.24951 0.20452 0.19754 0.0
C1 C 0.38902 0.33816 0.36416 0.0
C2 C 0.39316 0.28781 0.42142 0.0
C3 C 0.45937 0.36115 0.42718 0.0
C4 C 0.36886 0.29692 0.38051 0.0
C5 C 0.43408 0.37115 0.38808 0.0
C6 C 0.4389 0.3196 0.44389 0.0
C7 C 0.42373 0.42339 0.33661 0.0
N8 N 0.36343 0.34724 0.32688 0.0
C9 C 0.37905 0.38977 0.3144 0.0
C10 C 0.4517 0.41382 0.3731 0.0
Eu11 Eu 0.28909 0.28766 0.29007 0.0
N12 N 0.32443 0.26702 0.35841 0.0
C13 C 0.30115 0.22915 0.37746 0.0
C14 C 0.37022 0.24777 0.43956 0.0
C15 C 0.32378 0.21869 0.41785 0.0
H16 H 0.35704 0.39731 0.28666 0.0
H17 H 0.30531 0.18826 0.43227 0.0
H18 H 0.45825 0.31293 0.47502 0.0
H19 H 0.43644 0.45669 0.32578 0.0
H20 H 0.26518 0.20634 0.36149 0.0
H21 H 0.23797 0.30884 0.05823 0.0
H22 H 0.3876 0.2397 0.47103 0.0
H23 H 0.18228 0.09538 0.19805 0.0
H24 H 0.27514 0.29019 0.12982 0.0
H25 H 0.10589 0.03465 0.15439 0.0
H26 H 0.49422 0.38587 0.44568 0.0
H27 H 0.15872 0.25483 0.01289 0.0
H28 H 0.0901 0.17859 0.00241 0.0
H29 H 0.48619 0.44001 0.39052 0.0
H30 H 0.05385 0.10407 0.02868 0.0
N31 N 0.21735 0.22592 0.12743 0.0
C32 C 0.24063 0.26579 0.11118 0.0
C33 C 0.17485 0.24629 0.04482 0.0
C34 C 0.15197 0.20464 0.06025 0.0
C35 C 0.21957 0.27679 0.07021 0.0
C36 C 0.17443 0.19525 0.10216 0.0
H37 H 0.05954 0.04997 0.08508 0.0
N38 N 0.17732 0.14502 0.1563 0.0
C39 C 0.11862 0.06805 0.1438 0.0
C40 C 0.15376 0.15354 0.1171 0.0
C41 C 0.16154 0.10258 0.1688 0.0
C42 C 0.09261 0.07683 0.10472 0.0
C43 C 0.11049 0.11976 0.09038 0.0
O44 O 0.26463 0.14965 0.19458 0.0
O45 O 0.30044 0.23291 0.26824 0.0
O46 O 0.34678 0.31783 0.25868 0.0
O47 O 0.3115 0.26778 0.19403 0.0
O48 O 0.25609 0.16506 0.25681 0.0
O49 O 0.28822 0.20411 0.15423 0.0
O50 O 0.25704 0.32906 0.28875 0.0
O51 O 0.23784 0.25903 0.21977 0.0
O52 O 0.18855 0.17962 0.22254 0.0
O53 O 0.22658 0.22328 0.29228 0.0
O54 O 0.28032 0.3276 0.23159 0.0
O55 O 0.26863 0.29647 0.34809 0.0
C56 C 0.29245 0.19586 0.28536 0.0
C57 C 0.27647 0.13536 0.12686 0.0
C58 C 0.29899 0.09228 0.08904 0.0
C59 C 0.30565 0.11744 0.12791 0.0
C60 C 0.26354 0.08737 0.04925 0.0
C61 C 0.23939 0.12618 0.08783 0.0
C62 C 0.23316 0.10251 0.04932 0.0
C63 C 0.34528 0.30483 0.21877 0.0
C64 C 0.28643 0.16625 0.16487 0.0
C65 C 0.08728 0.12945 0.0495 0.0
C66 C 0.10795 0.17185 0.03452 0.0
C67 C 0.24464 0.29602 0.20267 0.0
C68 C 0.26426 0.36266 0.35668 0.0
C69 C 0.22898 0.36892 0.36277 0.0
C70 C 0.23896 0.41046 0.38218 0.0
C71 C 0.28538 0.44492 0.39491 0.0
C72 C 0.3099 0.39663 0.37328 0.0
C73 C 0.3203 0.43757 0.39183 0.0
C74 C 0.19043 0.19052 0.2634 0.0
C75 C 0.25289 0.32268 0.32909 0.0
H76 H 0.33346 0.1235 0.15871 0.0
H77 H 0.2593 0.07246 0.01732 0.0
H78 H 0.21629 0.13892 0.08647 0.0
H79 H 0.20525 0.09693 0.01887 0.0
H80 H 0.19439 0.34115 0.35234 0.0
H81 H 0.29541 0.47824 0.40718 0.0
H82 H 0.33751 0.3919 0.37108 0.0
H83 H 0.35565 0.4642 0.40305 0.0
Eu84 Eu 0.80069 0.22868 0.23929 0.0
C85 C 0.6694 0.26372 0.30493 0.0
C86 C 0.5897 0.21508 0.26121 0.0
C87 C 0.60822 0.24197 0.33912 0.0
C88 C 0.63702 0.23802 0.26474 0.0
C89 C 0.65474 0.26714 0.3418 0.0
C90 C 0.5758 0.21601 0.29894 0.0
C91 C 0.73063 0.3279 0.37749 0.0
N92 N 0.71404 0.28965 0.30612 0.0
C93 C 0.74306 0.32431 0.33979 0.0
C94 C 0.68654 0.29839 0.37907 0.0
Eu95 Eu 0.73201 0.28192 0.23947 0.0
N96 N 0.6509 0.23918 0.22781 0.0
C97 C 0.61852 0.222 0.18578 0.0
C98 C 0.55723 0.19387 0.21912 0.0
C99 C 0.57172 0.19786 0.18115 0.0
H100 H 0.77624 0.34952 0.33794 0.0
H101 H 0.54676 0.18324 0.14801 0.0
H102 H 0.53972 0.19844 0.29669 0.0
H103 H 0.75469 0.35429 0.40466 0.0
H104 H 0.62825 0.22744 0.15503 0.0
H105 H 0.97811 0.37287 0.29617 0.0
H106 H 0.52077 0.17602 0.21518 0.0
H107 H 0.75199 0.15284 0.14799 0.0
H108 H 0.90109 0.32639 0.29934 0.0
H109 H 0.77089 0.13762 0.08339 0.0
H110 H 0.59662 0.24419 0.36716 0.0
H111 H 1.00141 0.35939 0.23365 0.0
H112 H 0.98104 0.3158 0.16194 0.0
H113 H 0.6765 0.30203 0.40778 0.0
H114 H 0.92457 0.25392 0.10324 0.0
N115 N 0.8777 0.2821 0.23985 0.0
C116 C 0.90923 0.31737 0.27228 0.0
C117 C 0.96685 0.33748 0.23509 0.0
C118 C 0.93485 0.30255 0.20129 0.0
C119 C 0.95386 0.34509 0.27046 0.0
C120 C 0.88981 0.27517 0.20415 0.0
H121 H 0.84669 0.18816 0.07351 0.0
N122 N 0.81409 0.21469 0.17246 0.0
C123 C 0.79526 0.16722 0.10684 0.0
C124 C 0.85736 0.24085 0.16986 0.0
C125 C 0.78438 0.17652 0.14324 0.0
C126 C 0.83809 0.19566 0.10158 0.0
C127 C 0.87006 0.23237 0.13364 0.0
O128 O 0.76652 0.15608 0.23217 0.0
O129 O 0.7349 0.21904 0.24811 0.0
O130 O 0.78301 0.29073 0.30915 0.0
O131 O 0.83632 0.26866 0.30712 0.0
O132 O 0.77192 0.19658 0.29782 0.0
O133 O 0.84148 0.19586 0.25756 0.0
O134 O 0.76179 0.3543 0.24874 0.0
O135 O 0.79827 0.29215 0.23137 0.0
O136 O 0.75352 0.22399 0.16919 0.0
O137 O 0.69468 0.22355 0.1872 0.0
O138 O 0.7597 0.31188 0.18008 0.0
O139 O 0.69337 0.313 0.2018 0.0
C140 C 0.73469 0.19923 0.2838 0.0
C141 C 0.80644 0.1269 0.28482 0.0
C142 C 0.84116 0.12028 0.36268 0.0
C143 C 0.83051 0.14565 0.32975 0.0
C144 C 0.82406 0.07449 0.35064 0.0
C145 C 0.78802 0.08136 0.27334 0.0
C146 C 0.79636 0.05498 0.30659 0.0
C147 C 0.82219 0.29007 0.32666 0.0
C148 C 0.80531 0.15593 0.24941 0.0
C149 C 0.91455 0.25983 0.13098 0.0
C150 C 0.94677 0.29486 0.16457 0.0
C151 C 0.79793 0.31145 0.19537 0.0
C152 C 0.7341 0.38797 0.18705 0.0
C153 C 0.71074 0.37548 0.1406 0.0
C154 C 0.6934 0.40159 0.11518 0.0
C155 C 0.71058 0.44559 0.13354 0.0
C156 C 0.75191 0.4318 0.20483 0.0
C157 C 0.74145 0.46111 0.17744 0.0
C158 C 0.71046 0.21401 0.15854 0.0
C159 C 0.7264 0.35338 0.21838 0.0
H160 H 0.84422 0.18095 0.33837 0.0
H161 H 0.83371 0.054 0.37436 0.0
H162 H 0.76894 0.06675 0.23851 0.0
H163 H 0.78351 0.01999 0.29771 0.0
H164 H 0.69988 0.34247 0.12646 0.0
H165 H 0.69801 0.4671 0.11559 0.0
H166 H 0.77051 0.44211 0.24066 0.0
H167 H 0.75358 0.49445 0.1917 0.0
Eu168 Eu 0.7308 0.73031 0.28192 0.0
C169 C 0.85171 0.85171 0.16188 0.0
C170 C 0.79472 0.84731 0.09185 0.0
C171 C 0.8712 0.91212 0.11312 0.0
C172 C 0.8076 0.82918 0.13217 0.0
C173 C 0.88428 0.89314 0.15235 0.0
C174 C 0.82649 0.88923 0.08291 0.0
C175 C 0.94117 0.89249 0.21937 0.0
N176 N 0.8634 0.83221 0.19911 0.0
C177 C 0.9077 0.85126 0.22719 0.0
C178 C 0.92932 0.91374 0.18199 0.0
Eu179 Eu 0.80506 0.76291 0.21086 0.0
N180 N 0.77795 0.78854 0.14155 0.0
C181 C 0.73571 0.76312 0.11056 0.0
C182 C 0.75072 0.82225 0.06111 0.0
C183 C 0.72129 0.77974 0.07031 0.0
H184 H 0.91716 0.83496 0.25605 0.0
H185 H 0.68753 0.75962 0.04631 0.0
H186 H 0.81712 0.90381 0.05228 0.0
H187 H 0.97608 0.90778 0.24208 0.0
H188 H 0.7125 0.72999 0.11658 0.0
H189 H 0.82695 0.72514 0.45478 0.0
H190 H 0.73956 0.83495 0.02974 0.0
H191 H 0.61799 0.6625 0.22762 0.0
H192 H 0.80753 0.75807 0.38454 0.0
H193 H 0.55462 0.59014 0.23484 0.0
H194 H 0.89564 0.94405 0.10537 0.0
H195 H 0.77321 0.64688 0.46268 0.0
H196 H 0.69648 0.57812 0.43062 0.0
H197 H 0.95535 0.94557 0.17586 0.0
H198 H 0.62137 0.54187 0.37113 0.0
N199 N 0.74787 0.69974 0.35124 0.0
C200 C 0.78607 0.72399 0.38671 0.0
C201 C 0.76572 0.66133 0.43133 0.0
C202 C 0.7246 0.63752 0.39615 0.0
C203 C 0.79618 0.70532 0.42696 0.0
C204 C 0.71641 0.65821 0.35624 0.0
H205 H 0.56754 0.54704 0.29911 0.0
N206 N 0.66728 0.66083 0.28697 0.0
C207 C 0.58825 0.60319 0.25987 0.0
C208 C 0.67444 0.63816 0.32313 0.0
C209 C 0.62452 0.64432 0.25585 0.0
C210 C 0.59566 0.57892 0.29613 0.0
C211 C 0.63911 0.59643 0.32853 0.0
O212 O 0.67993 0.75153 0.2762 0.0
O213 O 0.74958 0.77212 0.2244 0.0
O214 O 0.82951 0.82563 0.25458 0.0
O215 O 0.8004 0.79074 0.31333 0.0
O216 O 0.68146 0.72685 0.21397 0.0
O217 O 0.73995 0.77619 0.33513 0.0
O218 O 0.8543 0.73972 0.21503 0.0
O219 O 0.78837 0.72327 0.26991 0.0
O220 O 0.71331 0.6663 0.2449 0.0
O221 O 0.73649 0.70082 0.18433 0.0
O222 O 0.85668 0.76623 0.27693 0.0
O223 O 0.79728 0.72157 0.15429 0.0
C224 C 0.70915 0.76027 0.19763 0.0
C225 C 0.67426 0.77738 0.34156 0.0
C226 C 0.64006 0.81428 0.36957 0.0
C227 C 0.6684 0.81484 0.3449 0.0
C228 C 0.6179 0.77571 0.39054 0.0
C229 C 0.65163 0.73949 0.36273 0.0
C230 C 0.62365 0.73877 0.38711 0.0
C231 C 0.82775 0.82602 0.2966 0.0
C232 C 0.70222 0.77733 0.31415 0.0
C233 C 0.64787 0.57426 0.36673 0.0
C234 C 0.69063 0.59481 0.40053 0.0
C235 C 0.82927 0.73543 0.29604 0.0
C236 C 0.8627 0.7197 0.14822 0.0
C237 C 0.87079 0.68362 0.14513 0.0
C238 C 0.90131 0.68667 0.12207 0.0
C239 C 0.92268 0.72586 0.10162 0.0
C240 C 0.8846 0.7583 0.12755 0.0
C241 C 0.91425 0.76118 0.10423 0.0
C242 C 0.7163 0.66437 0.20366 0.0
C243 C 0.83334 0.71762 0.17503 0.0
H244 H 0.68591 0.84421 0.32852 0.0
H245 H 0.59545 0.77385 0.4092 0.0
H246 H 0.65534 0.71036 0.36007 0.0
H247 H 0.60605 0.70931 0.40321 0.0
H248 H 0.85458 0.65401 0.16178 0.0
H249 H 0.94619 0.72923 0.08364 0.0
H250 H 0.8791 0.78635 0.12985 0.0
H251 H 0.9312 0.79116 0.08846 0.0
Eu252 Eu 0.30211 0.71157 0.2651 0.0
C253 C 0.23114 0.82627 0.14628 0.0
C254 C 0.29784 0.89863 0.15067 0.0
C255 C 0.2306 0.87269 0.08392 0.0
C256 C 0.27559 0.8587 0.16995 0.0
C257 C 0.20769 0.83384 0.10378 0.0
C258 C 0.27552 0.90486 0.10743 0.0
C259 C 0.13829 0.76781 0.1069 0.0
N260 N 0.20936 0.78912 0.16627 0.0
C261 C 0.16294 0.76162 0.14881 0.0
C262 C 0.16106 0.80345 0.08367 0.0
Eu263 Eu 0.25235 0.78268 0.23831 0.0
N264 N 0.29568 0.85286 0.2129 0.0
C265 C 0.33699 0.88694 0.23876 0.0
C266 C 0.34117 0.93224 0.17606 0.0
C267 C 0.36052 0.92656 0.22051 0.0
H268 H 0.14549 0.73325 0.16623 0.0
H269 H 0.39345 0.9529 0.241 0.0
H270 H 0.29233 0.93555 0.09313 0.0
H271 H 0.10192 0.74481 0.09242 0.0
H272 H 0.35287 0.8848 0.27364 0.0
H273 H 0.14711 0.54968 0.25437 0.0
H274 H 0.35924 0.96328 0.16218 0.0
H275 H 0.40566 0.75631 0.34464 0.0
H276 H 0.1936 0.61947 0.2267 0.0
H277 H 0.44383 0.73675 0.41595 0.0
H278 H 0.21324 0.87895 0.05123 0.0
H279 H 0.17812 0.53094 0.33032 0.0
H280 H 0.2439 0.55078 0.40108 0.0
H281 H 0.14193 0.80824 0.05115 0.0
H282 H 0.32393 0.60141 0.44515 0.0
N283 N 0.25217 0.6419 0.28643 0.0
C284 C 0.20877 0.61237 0.25969 0.0
C285 C 0.19917 0.56209 0.31837 0.0
C286 C 0.24385 0.59169 0.34519 0.0
C287 C 0.18165 0.57243 0.27542 0.0
C288 C 0.26986 0.63209 0.32839 0.0
H289 H 0.3987 0.67006 0.45061 0.0
N290 N 0.3393 0.70053 0.33801 0.0
C291 C 0.4074 0.71566 0.39938 0.0
C292 C 0.31467 0.66175 0.3544 0.0
C293 C 0.38559 0.72643 0.35878 0.0
C294 C 0.38177 0.67807 0.4188 0.0
C295 C 0.33506 0.65027 0.39612 0.0
O296 O 0.37082 0.73202 0.26369 0.0
O297 O 0.31465 0.77946 0.24365 0.0
O298 O 0.22445 0.73479 0.17435 0.0
O299 O 0.24471 0.68012 0.1997 0.0
O300 O 0.32136 0.73935 0.20245 0.0
O301 O 0.31434 0.6617 0.24201 0.0
O302 O 0.18901 0.76353 0.2516 0.0
O303 O 0.23929 0.71437 0.25838 0.0
O304 O 0.32617 0.75744 0.33001 0.0
O305 O 0.31897 0.8151 0.29461 0.0
O306 O 0.23538 0.75481 0.3016 0.0
O307 O 0.24447 0.83319 0.26793 0.0
C308 C 0.32426 0.77725 0.2081 0.0
C309 C 0.38919 0.68048 0.23902 0.0
C310 C 0.40703 0.64981 0.18539 0.0
C311 C 0.37503 0.65482 0.19864 0.0
C312 C 0.45301 0.66929 0.21317 0.0
C313 C 0.43499 0.70021 0.26693 0.0
C314 C 0.46682 0.69418 0.25413 0.0
C315 C 0.22395 0.69685 0.16767 0.0
C316 C 0.3576 0.6916 0.24828 0.0
C317 C 0.30892 0.61052 0.41301 0.0
C318 C 0.26338 0.58156 0.38781 0.0
C319 C 0.23061 0.71631 0.29456 0.0
C320 C 0.16798 0.81707 0.2575 0.0
C321 C 0.17581 0.85104 0.28649 0.0
C322 C 0.14031 0.85946 0.28407 0.0
C323 C 0.09722 0.83507 0.25103 0.0
C324 C 0.12471 0.79211 0.22492 0.0
C325 C 0.08968 0.8017 0.22127 0.0
C326 C 0.33094 0.79784 0.33188 0.0
C327 C 0.20274 0.8037 0.26782 0.0
H328 H 0.33982 0.64069 0.17644 0.0
H329 H 0.47806 0.66522 0.2031 0.0
H330 H 0.44615 0.7208 0.29801 0.0
H331 H 0.50226 0.70942 0.2755 0.0
H332 H 0.20897 0.8697 0.3122 0.0
H333 H 0.06911 0.84106 0.24905 0.0
H334 H 0.11705 0.76407 0.20366 0.0
H335 H 0.05627 0.78228 0.19647 0.0
Eu336 Eu 0.31 0.72932 0.75489 0.0
C337 C 0.1753 0.75467 0.82275 0.0
C338 C 0.10147 0.68841 0.79197 0.0
C339 C 0.11865 0.72692 0.86378 0.0
C340 C 0.14528 0.72023 0.78843 0.0
C341 C 0.1615 0.75899 0.86004 0.0
C342 C 0.08877 0.69163 0.82991 0.0
C343 C 0.23118 0.82911 0.88555 0.0
N344 N 0.21687 0.78534 0.8188 0.0
C345 C 0.24296 0.82373 0.84806 0.0
C346 C 0.19053 0.7962 0.89204 0.0
Eu347 Eu 0.23417 0.77619 0.75194 0.0
N348 N 0.15765 0.71876 0.75093 0.0
C349 C 0.12548 0.6875 0.71504 0.0
C350 C 0.07106 0.65437 0.75698 0.0
C351 C 0.08296 0.65425 0.71817 0.0
H352 H 0.27301 0.85089 0.84269 0.0
H353 H 0.05883 0.6291 0.68991 0.0
H354 H 0.05551 0.6673 0.83304 0.0
H355 H 0.25312 0.85913 0.90891 0.0
H356 H 0.13046 0.68754 0.68273 0.0
H357 H 0.48396 0.87341 0.78363 0.0
H358 H 0.03771 0.62894 0.75895 0.0
H359 H 0.25329 0.64054 0.67266 0.0
H360 H 0.41263 0.8273 0.80041 0.0
H361 H 0.26056 0.61993 0.60263 0.0
H362 H 0.10799 0.72949 0.89243 0.0
H363 H 0.49477 0.85584 0.7138 0.0
H364 H 0.46368 0.80715 0.64235 0.0
H365 H 0.18115 0.80055 0.92098 0.0
H366 H 0.40207 0.74035 0.59188 0.0
N367 N 0.37993 0.7816 0.74008 0.0
C368 C 0.41523 0.8178 0.76954 0.0
C369 C 0.46266 0.83464 0.72093 0.0
C370 C 0.42718 0.79759 0.69104 0.0
C371 C 0.45667 0.84465 0.76033 0.0
C372 C 0.38567 0.77099 0.7016 0.0
H373 H 0.32655 0.67115 0.57646 0.0
N374 N 0.31177 0.70633 0.68423 0.0
C375 C 0.28574 0.65216 0.62145 0.0
C376 C 0.35058 0.73306 0.67273 0.0
C377 C 0.28162 0.66449 0.66111 0.0
C378 C 0.32301 0.6811 0.60691 0.0
C379 C 0.35673 0.72129 0.63327 0.0
O380 O 0.29448 0.66049 0.75669 0.0
O381 O 0.24449 0.71729 0.7668 0.0
O382 O 0.28855 0.79283 0.82029 0.0
O383 O 0.34681 0.7799 0.81538 0.0
O384 O 0.28615 0.69936 0.81625 0.0
O385 O 0.36443 0.71402 0.78895 0.0
O386 O 0.26451 0.84785 0.76 0.0
O387 O 0.30125 0.78924 0.74224 0.0
O388 O 0.24879 0.70471 0.69188 0.0
O389 O 0.20221 0.73689 0.6839 0.0
O390 O 0.25884 0.80524 0.69086 0.0
O391 O 0.19101 0.80695 0.72822 0.0
C392 C 0.24856 0.70102 0.80457 0.0
C393 C 0.34004 0.64351 0.81679 0.0
C394 C 0.3455 0.62852 0.89445 0.0
C395 C 0.34775 0.65777 0.86118 0.0
C396 C 0.33523 0.58325 0.88449 0.0
C397 C 0.3331 0.60142 0.80607 0.0
C398 C 0.33198 0.57215 0.83919 0.0
C399 C 0.33027 0.7978 0.83576 0.0
C400 C 0.33652 0.67093 0.78019 0.0
C401 C 0.39715 0.74878 0.62217 0.0
C402 C 0.43232 0.78666 0.65105 0.0
C403 C 0.2977 0.80574 0.70449 0.0
C404 C 0.22859 0.87953 0.7067 0.0
C405 C 0.21131 0.86524 0.66045 0.0
C406 C 0.20152 0.89227 0.62868 0.0
C407 C 0.21764 0.93712 0.64361 0.0
C408 C 0.24482 0.9239 0.72129 0.0
C409 C 0.24055 0.95307 0.68948 0.0
C410 C 0.21391 0.71043 0.6691 0.0
C411 C 0.2261 0.84745 0.73988 0.0
H412 H 0.35561 0.69136 0.87005 0.0
H413 H 0.33554 0.54219 0.95384 0.0
H414 H 0.32819 0.59097 0.77163 0.0
H415 H 0.32801 0.54055 0.82909 0.0
H416 H 0.20214 0.83177 0.6498 0.0
H417 H 0.21051 0.95942 0.62067 0.0
H418 H 0.25948 0.93551 0.75719 0.0
H419 H 0.25236 0.98728 0.70066 0.0
Eu420 Eu 0.23348 0.23472 0.7826 0.0
C421 C 0.34943 0.34864 0.65812 0.0
C422 C 0.29146 0.34285 0.58822 0.0
C423 C 0.36802 0.4076 0.60767 0.0
C424 C 0.30485 0.32567 0.62904 0.0
C425 C 0.38175 0.38945 0.64731 0.0
C426 C 0.32299 0.38431 0.57816 0.0
C427 C 0.43993 0.3892 0.71323 0.0
N428 N 0.36188 0.32995 0.69579 0.0
C429 C 0.40678 0.34843 0.72218 0.0
C430 C 0.42725 0.41013 0.67595 0.0
Eu431 Eu 0.30362 0.26157 0.70891 0.0
N432 N 0.27526 0.28549 0.63946 0.0
C433 C 0.23279 0.2595 0.60923 0.0
C434 C 0.24717 0.31726 0.55811 0.0
C435 C 0.21792 0.27516 0.56844 0.0
H436 H 0.41693 0.33186 0.75037 0.0
H437 H 0.18399 0.25465 0.5449 0.0
H438 H 0.31319 0.39819 0.54714 0.0
H439 H 0.47528 0.40427 0.73485 0.0
H440 H 0.21005 0.22663 0.61641 0.0
H441 H 0.35241 0.2443 0.94888 0.0
H442 H 0.23563 0.32923 0.52636 0.0
H443 H 0.12081 0.16312 0.7401 0.0
H444 H 0.32743 0.27065 0.87629 0.0
H445 H 0.06216 0.092 0.75702 0.0
H446 H 0.39226 0.43908 0.59898 0.0
H447 H 0.30014 0.17087 0.96897 0.0
H448 H 0.22281 0.10179 0.94825 0.0
H449 H 0.45307 0.44154 0.66886 0.0
H450 H 0.14376 0.06058 0.89656 0.0
N451 N 0.26121 0.21252 0.85394 0.0
C452 C 0.30389 0.2385 0.88397 0.0
C453 C 0.28884 0.18225 0.93671 0.0
C454 C 0.24462 0.1565 0.90662 0.0
C455 C 0.31839 0.22369 0.92553 0.0
C456 C 0.23145 0.17298 0.8652 0.0
H457 H 0.08343 0.05684 0.8254 0.0
N458 N 0.17503 0.16769 0.79767 0.0
C459 C 0.09717 0.10784 0.77952 0.0
C460 C 0.18702 0.14982 0.83614 0.0
C461 C 0.13055 0.14815 0.77002 0.0
C462 C 0.10934 0.08806 0.81809 0.0
C463 C 0.15456 0.10935 0.84733 0.0
O464 O 0.18178 0.25479 0.77586 0.0
O465 O 0.24829 0.27254 0.72158 0.0
O466 O 0.32997 0.32647 0.74825 0.0
O467 O 0.30116 0.29745 0.80855 0.0
O468 O 0.18221 0.2236 0.71393 0.0
O469 O 0.24135 0.2812 0.83473 0.0
O470 O 0.35007 0.23478 0.71481 0.0
O471 O 0.28831 0.22488 0.76918 0.0
O472 O 0.21301 0.16828 0.74857 0.0
O473 O 0.2363 0.19673 0.68545 0.0
O474 O 0.35623 0.2658 0.77552 0.0
O475 O 0.30113 0.22727 0.64988 0.0
C476 C 0.20675 0.2579 0.696 0.0
C477 C 0.17402 0.2805 0.83971 0.0
C478 C 0.13936 0.31662 0.86836 0.0
C479 C 0.16975 0.31859 0.84558 0.0
C480 C 0.11273 0.27583 0.88377 0.0
C481 C 0.14757 0.24072 0.85629 0.0
C482 C 0.117 0.23844 0.87797 0.0
C483 C 0.32747 0.33038 0.78917 0.0
C484 C 0.20317 0.28127 0.81319 0.0
C485 C 0.16803 0.09186 0.88759 0.0
C486 C 0.21299 0.11539 0.91712 0.0
C487 C 0.32876 0.23566 0.79511 0.0
C488 C 0.36684 0.2219 0.65078 0.0
C489 C 0.37032 0.18371 0.64407 0.0
C490 C 0.40405 0.18668 0.62592 0.0
C491 C 0.43398 0.22853 0.61466 0.0
C492 C 0.39687 0.26298 0.63901 0.0
C493 C 0.43025 0.26617 0.62102 0.0
C494 C 0.21549 0.16282 0.70778 0.0
C495 C 0.33356 0.21863 0.67263 0.0
H496 H 0.18987 0.34941 0.83256 0.0
H497 H 0.08812 0.27272 0.90011 0.0
H498 H 0.14995 0.21116 0.85174 0.0
H499 H 0.09618 0.20738 0.89007 0.0
H500 H 0.34673 0.15191 0.65289 0.0
H501 H 0.46083 0.23234 0.60139 0.0
H502 H 0.3948 0.2926 0.64415 0.0
H503 H 0.45367 0.29807 0.61231 0.0
Eu504 Eu 0.79453 0.21226 0.75779 0.0
C505 C 0.73334 0.33324 0.64255 0.0
C506 C 0.80177 0.40388 0.64603 0.0
C507 C 0.73622 0.37689 0.57753 0.0
C508 C 0.77793 0.36505 0.66622 0.0
C509 C 0.71143 0.33993 0.59874 0.0
C510 C 0.78135 0.40873 0.6011 0.0
C511 C 0.63989 0.27768 0.60306 0.0
N512 N 0.70977 0.29817 0.664 0.0
C513 C 0.66294 0.27275 0.64653 0.0
C514 C 0.66448 0.31072 0.57853 0.0
Eu515 Eu 0.7524 0.29056 0.73637 0.0
N516 N 0.79614 0.36032 0.71029 0.0
C517 C 0.83573 0.3954 0.73707 0.0
C518 C 0.84436 0.43791 0.67233 0.0
C519 C 0.86083 0.43407 0.71832 0.0
H520 H 0.64383 0.24676 0.66526 0.0
H521 H 0.8927 0.46111 0.73954 0.0
H522 H 0.79937 0.43803 0.585 0.0
H523 H 0.60323 0.25595 0.58853 0.0
H524 H 0.84869 0.39451 0.77309 0.0
H525 H 0.63855 0.04831 0.74316 0.0
H526 H 0.86365 0.46818 0.65805 0.0
H527 H 0.89728 0.24652 0.83491 0.0
H528 H 0.6892 0.11382 0.71423 0.0
H529 H 0.93156 0.22895 0.91015 0.0
H530 H 0.72013 0.3822 0.54367 0.0
H531 H 0.66219 0.03494 0.82347 0.0
H532 H 0.72335 0.05742 0.89821 0.0
H533 H 0.64649 0.31473 0.54494 0.0
H534 H 0.80349 0.10604 0.94383 0.0
N535 N 0.74252 0.14198 0.77837 0.0
C536 C 0.70106 0.11052 0.74974 0.0
C537 C 0.68498 0.06485 0.8112 0.0
C538 C 0.72852 0.09498 0.83958 0.0
C539 C 0.67162 0.07224 0.76589 0.0
C540 C 0.75696 0.13367 0.8221 0.0
H541 H 0.88161 0.16918 0.94811 0.0
N542 N 0.82894 0.19775 0.83053 0.0
C543 C 0.89483 0.21028 0.89368 0.0
C544 C 0.80159 0.16204 0.84865 0.0
C545 C 0.87539 0.21991 0.85099 0.0
C546 C 0.86652 0.17662 0.91496 0.0
C547 C 0.81948 0.15131 0.89208 0.0
O548 O 0.86052 0.23057 0.75104 0.0
O549 O 0.81002 0.281 0.73678 0.0
O550 O 0.71955 0.24196 0.67204 0.0
O551 O 0.7321 0.18288 0.697 0.0
O552 O 0.80958 0.23794 0.69271 0.0
O553 O 0.80266 0.16199 0.72879 0.0
O554 O 0.6892 0.27419 0.74883 0.0
O555 O 0.73666 0.22169 0.75647 0.0
O556 O 0.82772 0.26186 0.82167 0.0
O557 O 0.82154 0.32197 0.79 0.0
O558 O 0.73973 0.26488 0.80231 0.0
O559 O 0.74892 0.34182 0.7701 0.0
C560 C 0.81654 0.27743 0.6997 0.0
C561 C 0.878 0.17526 0.73915 0.0
C562 C 0.90548 0.13921 0.70322 0.0
C563 C 0.87135 0.14859 0.70305 0.0
C564 C 0.94588 0.1548 0.74007 0.0
C565 C 0.91845 0.19159 0.77623 0.0
C566 C 0.95207 0.18069 0.77691 0.0
C567 C 0.71367 0.20162 0.66557 0.0
C568 C 0.84552 0.1909 0.73223 0.0
C569 C 0.79054 0.11431 0.91027 0.0
C570 C 0.74501 0.08649 0.88422 0.0
C571 C 0.73123 0.22505 0.79415 0.0
C572 C 0.67549 0.33034 0.76685 0.0
C573 C 0.68322 0.35379 0.80613 0.0
C574 C 0.65028 0.36349 0.80988 0.0
C575 C 0.60961 0.35069 0.77376 0.0
C576 C 0.63519 0.31753 0.73029 0.0
C577 C 0.60238 0.32808 0.73372 0.0
C578 C 0.83674 0.30374 0.82486 0.0
C579 C 0.70661 0.31377 0.76927 0.0
H580 H 0.84086 0.13729 0.67353 0.0
H581 H 0.97264 0.14748 0.73988 0.0
H582 H 0.92519 0.21394 0.80362 0.0
H583 H 0.98343 0.19345 0.80523 0.0
H584 H 0.71394 0.36264 0.83483 0.0
H585 H 0.58372 0.35818 0.77661 0.0
H586 H 0.62838 0.29836 0.69999 0.0
H587 H 0.57101 0.3179 0.70583 0.0
Eu588 Eu 0.75272 0.7117 0.69638 0.0
C589 C 0.89181 0.84809 0.86625 0.0
C590 C 0.89765 0.80033 0.92613 0.0
C591 C 0.96033 0.87602 0.93226 0.0
C592 C 0.87311 0.80702 0.88376 0.0
C593 C 0.93507 0.88333 0.89112 0.0
C594 C 0.94172 0.83463 0.94966 0.0
C595 C 0.92342 0.93196 0.83535 0.0
N596 N 0.86674 0.85445 0.82635 0.0
C597 C 0.88121 0.89586 0.81122 0.0
C598 C 0.95093 0.92544 0.87487 0.0
Eu599 Eu 0.79394 0.79272 0.79147 0.0
N600 N 0.83009 0.77448 0.86073 0.0
C601 C 0.80856 0.7359 0.87962 0.0
C602 C 0.87664 0.75985 0.94439 0.0
C603 C 0.83168 0.72776 0.92129 0.0
H604 H 0.86 0.90125 0.78085 0.0
H605 H 0.81465 0.69685 0.93572 0.0
H606 H 0.96117 0.82988 0.98201 0.0
H607 H 0.9348 0.96472 0.82329 0.0
H608 H 0.77354 0.71099 0.86283 0.0
H609 H 0.72992 0.80276 0.54849 0.0
H610 H 0.89433 0.75355 0.97689 0.0
H611 H 0.68605 0.60391 0.71131 0.0
H612 H 0.77041 0.79212 0.62366 0.0
H613 H 0.61033 0.54029 0.67202 0.0
H614 H 0.99383 0.90257 0.95151 0.0
H615 H 0.65221 0.74315 0.50624 0.0
H616 H 0.58665 0.6663 0.50226 0.0
H617 H 0.98376 0.95342 0.89327 0.0
H618 H 0.55387 0.59554 0.53609 0.0
N619 N 0.71574 0.72723 0.62569 0.0
C620 C 0.73626 0.76586 0.60645 0.0
C621 C 0.66967 0.73829 0.5397 0.0
C622 C 0.64926 0.69833 0.55895 0.0
C623 C 0.71348 0.77204 0.56345 0.0
C624 C 0.67355 0.69347 0.6025 0.0
H625 H 0.56238 0.54836 0.59907 0.0
N626 N 0.67993 0.64879 0.66272 0.0
C627 C 0.62229 0.572 0.6577 0.0
C628 C 0.65505 0.65336 0.62161 0.0
C629 C 0.66505 0.60833 0.6801 0.0
C630 C 0.59535 0.57669 0.61651 0.0
C631 C 0.6119 0.61741 0.59756 0.0
O632 O 0.79573 0.68071 0.70052 0.0
O633 O 0.80112 0.7359 0.76814 0.0
O634 O 0.85531 0.81457 0.76624 0.0
O635 O 0.81026 0.77953 0.69422 0.0
O636 O 0.75774 0.66811 0.75316 0.0
O637 O 0.76869 0.69924 0.63665 0.0
O638 O 0.75083 0.82325 0.78856 0.0
O639 O 0.74492 0.76845 0.71993 0.0
O640 O 0.69131 0.69064 0.72024 0.0
O641 O 0.73363 0.72625 0.79321 0.0
O642 O 0.78873 0.83618 0.73477 0.0
O643 O 0.78163 0.80767 0.85267 0.0
C644 C 0.79271 0.6983 0.78397 0.0
C645 C 0.78107 0.63697 0.63593 0.0
C646 C 0.80577 0.5875 0.61305 0.0
C647 C 0.81589 0.63031 0.62916 0.0
C648 C 0.76033 0.55206 0.60506 0.0
C649 C 0.73598 0.60144 0.62414 0.0
C650 C 0.72582 0.55926 0.6095 0.0
C651 C 0.85083 0.80385 0.72414 0.0
C652 C 0.7919 0.67984 0.65772 0.0
C653 C 0.58714 0.62272 0.55488 0.0
C654 C 0.60582 0.66301 0.5356 0.0
C655 C 0.75283 0.80618 0.70437 0.0
C656 C 0.76621 0.8681 0.85259 0.0
C657 C 0.73039 0.87306 0.85909 0.0
C658 C 0.73865 0.91529 0.87422 0.0
C659 C 0.78314 0.95213 0.88111 0.0
C660 C 0.81055 0.90483 0.86372 0.0
C661 C 0.81878 0.94667 0.87696 0.0
C662 C 0.69435 0.70029 0.76206 0.0
C663 C 0.75678 0.82553 0.83176 0.0
H664 H 0.85012 0.65857 0.63594 0.0
H665 H 0.75094 0.51826 0.59513 0.0
H666 H 0.70849 0.6061 0.62652 0.0
H667 H 0.69095 0.53181 0.60186 0.0
H668 H 0.69681 0.84397 0.85291 0.0
H669 H 0.79091 0.98557 0.89023 0.0
H670 H 0.83888 0.90131 0.86209 0.0
H671 H 0.853 0.97512 0.88396 0.0
Cd672 Cd 0.9753 0.9475 0.53448 0.0
Cd673 Cd 0.06175 0.04674 0.45207 0.0
C674 C 1.01054 0.88276 0.55138 0.0
N675 N 0.9989 0.90353 0.51559 0.0
C676 C 0.03187 0.88108 0.47246 0.0
C677 C 0.04687 0.86177 0.51006 0.0
C678 C 0.03465 0.86154 0.54943 0.0
C679 C 1.0082 0.90277 0.47633 0.0
H680 H 1.00442 0.88576 0.58278 0.0
H681 H 0.99831 0.91997 0.44891 0.0
C682 C 0.95655 0.97873 0.42279 0.0
C683 C 0.02045 0.10445 0.42781 0.0
C684 C 0.99731 0.12726 0.42724 0.0
C685 C 0.99506 0.13951 0.46828 0.0
C686 C 0.01905 0.1312 0.50959 0.0
C687 C 0.04244 0.10821 0.50849 0.0
N688 N 0.04059 0.09395 0.46771 0.0
H689 H 0.02001 0.09263 0.39611 0.0
H690 H 0.06015 0.10012 0.53956 0.0
C691 C 0.05707 0.96832 0.40633 0.0
N692 N 0.08526 -0.00157 0.44321 0.0
C693 C 0.1487 0.99025 0.44196 0.0
C694 C 0.1202 0.9598 0.40326 0.0
C695 C 0.0736 0.94756 0.38643 0.0
C696 C 0.13017 0.00955 0.4617 0.0
H697 H 0.02257 0.96274 0.3905 0.0
H698 H 0.15236 0.03631 0.48874 0.0
C699 C 0.0882 0.02422 0.57182 0.0
C700 C 0.94272 0.90128 0.60192 0.0
N701 N 0.949 0.99261 0.54232 0.0
C702 C 0.98142 0.03146 0.56812 0.0
C703 C 0.9685 0.05642 0.58726 0.0
C704 C 0.92173 0.0407 0.57995 0.0
C705 C 0.88881 -0.00032 0.55414 0.0
C706 C 0.90341 0.97615 0.53477 0.0
C707 C 0.10169 0.09496 0.38895 0.0
O708 O 0.97401 0.97849 0.46469 0.0
O709 O 0.98305 0.00694 0.40298 0.0
O710 O 0.09035 0.04066 0.534 0.0
O711 O 0.05145 0.99268 0.5765 0.0
O712 O 0.91936 0.8861 0.56029 0.0
O713 O 0.97993 0.93824 0.6106 0.0
O714 O 0.12092 0.11109 0.43047 0.0
O715 O 0.06583 0.05729 0.3786 0.0
H716 H 1.0173 0.04147 0.57646 0.0
H717 H 0.87898 0.94357 0.51644 0.0
H718 H 0.04131 0.88204 0.44209 0.0
H719 H 0.04742 0.84911 0.58023 0.0
H720 H 0.97835 0.1322 0.39466 0.0
H721 H 1.01802 0.14051 0.5417 0.0
H722 H 0.18507 0.00096 0.4548 0.0
H723 H 0.05084 0.92411 0.35645 0.0
H724 H 0.99486 0.08654 0.60926 0.0
H725 H 0.85246 0.98613 0.54912 0.0
Cd726 Cd 0.50751 0.93995 0.0625 0.0
Cd727 Cd 0.53519 0.05749 0.9283 0.0
C728 C 0.60063 0.92867 0.12423 0.0
N729 N 0.56155 0.90918 0.08784 0.0
C730 C 0.57622 0.84822 0.08156 0.0
C731 C 0.61664 0.86704 0.11936 0.0
C732 C 0.62837 0.90825 0.14053 0.0
C733 C 0.54933 0.86944 0.06673 0.0
H734 H 0.60992 0.95972 0.14166 0.0
H735 H 0.51802 0.85354 0.03845 0.0
C736 C 0.47176 0.9512 0.94478 0.0
C737 C 0.44391 0.06957 0.86377 0.0
C738 C 0.41536 0.08897 0.84657 0.0
C739 C 0.42355 0.12881 0.86828 0.0
C740 C 0.46201 0.14624 0.90852 0.0
C741 C 0.4894 0.12558 0.92466 0.0
N742 N 0.48038 0.08772 0.90246 0.0
H743 H 0.4371 0.04009 0.84534 0.0
H744 H 0.5187 0.14067 0.9549 0.0
C745 C 0.5544 0.99224 0.8727 0.0
N746 N 0.56483 0.01233 0.91425 0.0
C747 C 0.62047 0.98874 0.94654 0.0
C748 C 0.61192 0.96885 0.9039 0.0
C749 C 0.57813 0.97092 0.86659 0.0
C750 C 0.59735 0.01106 0.95068 0.0
H751 H 0.52897 0.99424 0.84389 0.0
H752 H 0.60622 0.02828 0.98307 0.0
C753 C 0.57312 0.05025 0.05363 0.0
C754 C 0.44232 0.88636 0.10633 0.0
N755 N 0.47278 0.98287 0.07167 0.0
C756 C 0.48064 0.00289 0.11239 0.0
C757 C 0.45447 0.02241 0.11624 0.0
C758 C 0.4203 0.02203 0.07771 0.0
C759 C 0.41532 0.00359 0.03581 0.0
C760 C 0.44088 0.98317 0.03384 0.0
C761 C 0.5989 0.11199 0.88302 0.0
O762 O 0.49997 0.96014 0.98436 0.0
O763 O 0.47936 0.98047 0.91634 0.0
O764 O 0.55419 0.0445 0.01077 0.0
O765 O 0.56275 0.01731 0.0778 0.0
O766 O 0.43269 0.8787 0.0634 0.0
O767 O 0.48323 0.91562 0.12797 0.0
O768 O 0.60888 0.11879 0.92605 0.0
O769 O 0.55817 0.08241 0.86156 0.0
H770 H 0.50606 0.00237 0.14229 0.0
H771 H 0.43426 0.96658 0.00201 0.0
H772 H 0.56495 0.8169 0.06326 0.0
H773 H 0.65783 0.92414 0.17055 0.0
H774 H 0.38769 0.07168 0.81607 0.0
H775 H 0.47242 0.17622 0.92836 0.0
H776 H 0.64552 0.98799 0.97667 0.0
H777 H 0.57121 0.95801 0.83257 0.0
H778 H 0.45996 0.03629 0.14934 0.0
H779 H 0.39135 0.00418 0.00455 0.0
Cd780 Cd 1.01365 0.44897 0.0691 0.0
Cd781 Cd 0.03067 0.55536 0.92684 0.0
C782 C 0.10138 0.42947 0.12744 0.0
N783 N 0.06239 0.41132 0.09099 0.0
C784 C 0.07468 0.34848 0.08362 0.0
C785 C 0.11529 0.36655 0.1211 0.0
C786 C 0.12796 0.4079 0.14283 0.0
C787 C 0.04887 0.37115 0.06938 0.0
H788 H 0.11187 0.46076 0.14528 0.0
H789 H 1.01762 0.35618 0.04098 0.0
C790 C 0.95917 0.45151 0.9487 0.0
C791 C 0.93965 0.56837 0.86452 0.0
C792 C 0.91144 0.58808 0.84768 0.0
C793 C 0.92325 0.6301 0.86702 0.0
C794 C 0.96449 0.65073 0.90358 0.0
C795 C 0.99186 0.62993 0.91929 0.0
N796 N 0.97925 0.58914 0.90006 0.0
H797 H 0.92985 0.5364 0.84871 0.0
H798 H 0.02345 0.64668 0.94712 0.0
C799 C 0.02847 0.47253 0.87006 0.0
N800 N 0.05114 0.50347 0.90693 0.0
C801 C 0.10963 0.48211 0.9309 0.0
C802 C 0.08669 0.4491 0.89394 0.0
C803 C 0.04572 0.44485 0.86305 0.0
C804 C 0.09112 0.50861 0.93686 0.0
H805 H 0.997 0.46913 0.84624 0.0
H806 H 0.1091 0.5339 0.96543 0.0
C807 C 0.08501 0.55337 0.04727 0.0
C808 C 0.94386 0.39413 0.10978 0.0
N809 N 0.99247 0.50056 0.08787 0.0
C810 C 1.01413 0.52894 0.1266 0.0
C811 C 0.99779 0.55694 0.13479 0.0
C812 C 0.95889 0.55612 0.10281 0.0
C813 C 0.93773 0.52668 0.06304 0.0
C814 C 0.95466 0.49882 0.05663 0.0
C815 C 0.10444 0.61217 0.89175 0.0
O816 O 0.98793 0.46292 0.98832 0.0
O817 O 0.96461 0.47929 0.91859 0.0
O818 O 0.05517 0.54244 0.00822 0.0
O819 O 0.07974 0.52535 0.07723 0.0
O820 O 0.93743 0.38691 0.06754 0.0
O821 O 0.98361 0.42444 0.13291 0.0
O822 O 0.10837 0.61923 0.93326 0.0
O823 O 0.06559 0.58171 0.86716 0.0
H824 H 0.04389 0.52968 0.1513 0.0
H825 H 0.93741 0.47562 0.02639 0.0
H826 H 0.06312 0.31739 0.06471 0.0
H827 H 0.15826 0.42358 0.17221 0.0
H828 H 0.88065 0.57047 0.81914 0.0
H829 H 0.97536 0.68243 0.92081 0.0
H830 H 0.14194 0.4878 0.95499 0.0
H831 H 0.02685 0.41975 0.83429 0.0
H832 H 1.01536 0.57884 0.1661 0.0
H833 H 0.90881 0.52555 0.03647 0.0
Cd834 Cd 0.46368 0.45895 0.02863 0.0
Cd835 Cd 0.57064 0.5519 0.9476 0.0
C836 C 0.495 0.39436 0.06068 0.0
N837 N 0.46838 0.39758 0.02033 0.0
C838 C 0.48741 0.35688 0.97973 0.0
C839 C 0.51933 0.35803 0.02042 0.0
C840 C 0.52055 0.37389 0.06164 0.0
C841 C 0.46078 0.37629 0.98083 0.0
H842 H 0.50073 0.41248 0.09129 0.0
H843 H 0.43749 0.378 0.95013 0.0
C844 C 0.47171 0.47414 0.91716 0.0
C845 C 0.49874 0.58315 0.9114 0.0
C846 C 0.46742 0.59662 0.91164 0.0
C847 C 0.47275 0.61775 0.95174 0.0
C848 C 0.51168 0.62863 0.98946 0.0
C849 C 0.54112 0.61264 0.98836 0.0
N850 N 0.53261 0.58868 0.95027 0.0
H851 H 0.49473 0.56647 0.88068 0.0
H852 H 0.5692 0.61736 0.01829 0.0
C853 C 0.57861 0.47338 0.92231 0.0
N854 N 0.60475 0.50932 0.95363 0.0
C855 C 0.66826 0.49605 0.9708 0.0
C856 C 0.64128 0.45867 0.9384 0.0
C857 C 0.59599 0.44743 0.91422 0.0
C858 C 0.64884 0.52124 0.97819 0.0
H859 H 0.54534 0.46644 0.90106 0.0
H860 H 0.6694 0.5513 0.00146 0.0
C861 C 0.57712 0.52739 0.06759 0.0
C862 C 0.42008 0.42098 0.0919 0.0
N863 N 0.43383 0.50377 0.01564 0.0
C864 C 0.46472 0.54376 0.03987 0.0
C865 C 0.44963 0.56897 0.05513 0.0
C866 C 0.4023 0.55208 0.04612 0.0
C867 C 0.37107 0.51069 0.02043 0.0
C868 C 0.38781 0.48701 0.00467 0.0
C869 C 0.6068 0.60018 0.88411 0.0
O870 O 0.48193 0.4819 0.95962 0.0
O871 O 0.50045 0.49905 0.89776 0.0
O872 O 0.57495 0.53579 0.02663 0.0
O873 O 0.54084 0.50112 0.0774 0.0
O874 O 0.40014 0.40634 0.04985 0.0
O875 O 0.45907 0.45635 0.10342 0.0
O876 O 0.62542 0.61728 0.92553 0.0
O877 O 0.57441 0.5602 0.87471 0.0
H878 H 0.50087 0.55373 0.05136 0.0
H879 H 0.36457 0.45348 0.98817 0.0
H880 H 0.48594 0.3447 0.94757 0.0
H881 H 0.54559 0.37595 0.09347 0.0
H882 H 0.43873 0.58952 0.88138 0.0
H883 H 0.5171 0.64601 0.0205 0.0
H884 H 0.70385 0.50614 0.98896 0.0
H885 H 0.57478 0.42009 0.88744 0.0
H886 H 0.47481 0.59956 0.07696 0.0
H887 H 0.3344 0.49623 0.014 0.0
Cd888 Cd 1.00679 0.43924 0.55816 0.0
Cd889 Cd 0.03241 0.55732 0.42454 0.0
C890 C 0.10171 0.42969 0.61794 0.0
N891 N 0.06119 0.40867 0.5833 0.0
C892 C 0.07341 0.34541 0.58114 0.0
C893 C 0.11508 0.366 0.61706 0.0
C894 C 0.12923 0.40914 0.63503 0.0
C895 C 0.04725 0.36719 0.5648 0.0
H896 H 0.11229 0.46205 0.63347 0.0
H897 H 1.01482 0.35012 0.53804 0.0
C898 C 0.96644 0.44901 0.43708 0.0
C899 C 0.94559 0.57609 0.36039 0.0
C900 C 0.91838 0.59721 0.34577 0.0
C901 C 0.92437 0.63181 0.37385 0.0
C902 C 0.95754 0.64246 0.41726 0.0
C903 C 0.98428 0.62091 0.43032 0.0
N904 N 0.97838 0.58829 0.40205 0.0
H905 H 0.94114 0.55058 0.33768 0.0
H906 H 1.01041 0.63089 0.46315 0.0
C907 C 0.05353 0.4911 0.3724 0.0
N908 N 0.06392 0.51227 0.41334 0.0
C909 C 0.12084 0.49031 0.44667 0.0
C910 C 0.11215 0.46907 0.40471 0.0
C911 C 0.07779 0.46997 0.36713 0.0
C912 C 0.09729 0.5125 0.4499 0.0
H913 H 0.02762 0.49204 0.34333 0.0
H914 H 0.10661 0.53074 0.48175 0.0
C915 C 0.07487 0.55377 0.54894 0.0
C916 C 0.94206 0.38644 0.60317 0.0
N917 N 0.976 0.48419 0.57289 0.0
C918 C 0.9853 0.50274 0.61492 0.0
C919 C 0.96165 0.52406 0.62144 0.0
C920 C 0.92884 0.52763 0.58422 0.0
C921 C 0.9209 0.50886 0.54122 0.0
C922 C 0.94408 0.48668 0.53654 0.0
C923 C 0.09598 0.61037 0.38029 0.0
O924 O 0.9888 0.455 0.47891 0.0
O925 O 0.97751 0.48142 0.4127 0.0
O926 O 0.06006 0.55452 0.50634 0.0
O927 O 0.06125 0.51729 0.56752 0.0
O928 O 0.93186 0.37868 0.56018 0.0
O929 O 0.98335 0.41504 0.62439 0.0
O930 O 0.10488 0.61814 0.42289 0.0
O931 O 0.05531 0.58135 0.35792 0.0
H932 H 1.00972 0.49951 0.64385 0.0
H933 H 0.93556 0.47048 0.50372 0.0
H934 H 0.06051 0.31204 0.56634 0.0
H935 H 0.16037 0.42616 0.66336 0.0
H936 H 0.89376 0.58728 0.31203 0.0
H937 H 0.96308 0.66737 0.44148 0.0
H938 H 0.1462 0.4906 0.47712 0.0
H939 H 0.07063 0.45622 0.33344 0.0
H940 H 0.96794 0.53593 0.65569 0.0
H941 H 0.89636 0.51054 0.51117 0.0
Cd942 Cd 0.51084 0.94719 0.57168 0.0
Cd943 Cd 0.52975 0.05218 0.42339 0.0
C944 C 0.5987 0.93058 0.63654 0.0
N945 N 0.56325 0.91407 0.59679 0.0
C946 C 0.58285 0.85709 0.58711 0.0
C947 C 0.61985 0.87345 0.62792 0.0
C948 C 0.62716 0.911 0.6525 0.0
C949 C 0.55517 0.87768 0.57235 0.0
H950 H 0.60493 0.95898 0.65638 0.0
H951 H 0.52704 0.86429 0.54107 0.0
C952 C 0.45808 0.94736 0.4492 0.0
C953 C 0.44173 0.06794 0.36141 0.0
C954 C 0.41405 0.08805 0.34439 0.0
C955 C 0.42344 0.12775 0.36669 0.0
C956 C 0.46236 0.14642 0.40568 0.0
C957 C 0.48937 0.12521 0.42158 0.0
N958 N 0.47866 0.08622 0.39976 0.0
H959 H 0.43393 0.03781 0.34335 0.0
H960 H 0.51927 0.14033 0.45136 0.0
C961 C 0.52618 0.96848 0.36906 0.0
N962 N 0.5508 0.00082 0.40471 0.0
C963 C 0.60942 0.97969 0.42652 0.0
C964 C 0.58507 0.94603 0.39005 0.0
C965 C 0.54263 0.94043 0.36127 0.0
C966 C 0.59165 0.00666 0.4332 0.0
H967 H 0.49369 0.96422 0.34681 0.0
H968 H 0.61068 0.03265 0.46121 0.0
C969 C 0.58017 0.0533 0.5464 0.0
C970 C 0.44091 0.89472 0.61486 0.0
N971 N 0.48887 -0.0017 0.58844 0.0
C972 C 0.50515 0.02219 0.62939 0.0
C973 C 0.48663 0.04843 0.63664 0.0
C974 C 0.45162 0.05066 0.60144 0.0
C975 C 0.43564 0.0256 0.55973 0.0
C976 C 0.4544 -0.0007 0.55416 0.0
C977 C 0.5953 0.10974 0.37751 0.0
O978 O 0.48659 0.95814 0.48909 0.0
O979 O 0.46495 0.97541 0.41921 0.0
O980 O 0.55371 0.04101 0.50571 0.0
O981 O 0.57415 0.02582 0.57694 0.0
O982 O 0.43354 0.8858 0.57273 0.0
O983 O 0.48141 0.92454 0.6368 0.0
O984 O 0.60498 0.11601 0.4206 0.0
O985 O 0.55536 0.07815 0.35673 0.0
H986 H 0.53195 0.02037 0.65658 0.0
H987 H 0.4407 0.97896 0.52246 0.0
H988 H 0.5757 0.82907 0.56595 0.0
H989 H 0.65461 0.92514 0.68437 0.0
H990 H 0.38545 0.07256 0.31355 0.0
H991 H 0.4715 0.17685 0.42427 0.0
H992 H 0.64218 0.98538 0.44963 0.0
H993 H 0.52191 0.91416 0.33349 0.0
H994 H 0.49982 0.06724 0.66919 0.0
H995 H 0.40841 0.02587 0.53174 0.0
C996 C 0.13846 0.17888 0.30662 0.0
C997 C 0.15551 0.16039 0.28325 0.0
C998 C 0.12086 0.15751 0.34147 0.0
C999 C 0.12021 0.11742 0.35337 0.0
H1000 H 0.14184 0.21151 0.30008 0.0
H1001 H 0.10874 0.17274 0.35977 0.0
S1002 S 0.1583 0.05473 0.30107 0.0
N1003 N 0.16877 0.09925 0.27316 0.0
N1004 N 0.13461 0.05835 0.33827 0.0
C1005 C 0.13431 0.09724 0.32852 0.0
C1006 C 0.15218 0.11894 0.29323 0.0
C1007 C 0.91916 0.18027 0.40585 0.0
C1008 C 0.87711 0.14297 0.40636 0.0
C1009 C 0.96047 0.18595 0.43636 0.0
C1010 C 0.96018 0.15238 0.4647 0.0
H1011 H 0.92111 0.20096 0.37791 0.0
H1012 H 0.99238 0.21108 0.43102 0.0
S1013 S 0.85723 0.05802 0.48577 0.0
N1014 N 0.83689 0.08499 0.44903 0.0
N1015 N 0.91352 0.08547 0.49572 0.0
C1016 C 0.91813 0.12001 0.47032 0.0
C1017 C 0.87663 0.1184 0.44369 0.0
C1018 C 0.86828 0.90835 0.3163 0.0
C1019 C 0.8601 0.86586 0.32877 0.0
C1020 C 0.89578 0.94553 0.34881 0.0
C1021 C 0.91409 0.94076 0.39479 0.0
H1022 H 0.85402 0.91291 0.28143 0.0
H1023 H 0.90465 0.97841 0.33757 0.0
S1024 S 0.89736 0.83556 0.44461 0.0
N1025 N 0.87523 0.82227 0.38927 0.0
N1026 N 0.91364 0.88902 0.45178 0.0
C1027 C 0.9013 0.89779 0.408 0.0
C1028 C 0.87837 0.86119 0.37445 0.0
C1029 C 0.1326 0.92333 0.30037 0.0
C1030 C 0.14726 0.89261 0.31686 0.0
C1031 C 0.12729 0.94768 0.32967 0.0
C1032 C 0.13849 0.94365 0.37651 0.0
H1033 H 0.12152 0.9258 0.26418 0.0
H1034 H 0.11022 0.96657 0.31501 0.0
S1035 S 0.1862 0.87352 0.43758 0.0
N1036 N 0.17765 0.86227 0.38334 0.0
N1037 N 0.17096 0.91174 0.43908 0.0
C1038 C 0.1584 0.91705 0.3942 0.0
C1039 C 0.16223 0.89064 0.36409 0.0
C1040 C 0.16764 0.89973 0.54774 0.0
C1041 C 0.16717 0.87201 0.58311 0.0
C1042 C 0.12671 0.89118 0.51452 0.0
C1043 C 0.08514 0.85356 0.51462 0.0
H1044 H 0.19812 0.93139 0.54938 0.0
H1045 H 0.12664 0.91786 0.49424 0.0
S1046 S 0.06788 0.76064 0.58579 0.0
N1047 N 0.12243 0.79855 0.60763 0.0
N1048 N 0.04801 0.78077 0.54025 0.0
C1049 C 0.08668 0.8197 0.54094 0.0
C1050 C 0.12718 0.8296 0.57731 0.0
C1051 C 0.14618 0.08759 0.68677 0.0
C1052 C 0.18919 0.1185 0.68244 0.0
C1053 C 0.11446 0.05296 0.65247 0.0
C1054 C 0.12533 0.04885 0.61327 0.0
H1055 H 0.13533 0.09244 0.71418 0.0
H1056 H 0.07996 0.03236 0.65464 0.0
S1057 S 0.2388 0.11105 0.59485 0.0
N1058 N 0.2452 0.13476 0.64305 0.0
N1059 N 0.18492 0.07054 0.57787 0.0
C1060 C 0.1703 0.07506 0.61229 0.0
C1061 C 0.20258 0.10978 0.64729 0.0
C1062 C 0.87412 0.06845 0.65853 0.0
C1063 C 0.89996 0.11501 0.66362 0.0
C1064 C 0.87806 0.04406 0.62768 0.0
C1065 C 0.9082 0.06614 0.60199 0.0
H1066 H 0.85364 0.05096 0.68076 0.0
H1067 H 0.86067 0.00802 0.62697 0.0
S1068 S 0.97081 0.18828 0.59386 0.0
N1069 N 0.94657 0.18269 0.6338 0.0
N1070 N 0.95653 0.13723 0.57715 0.0
C1071 C 0.92964 0.11299 0.60323 0.0
C1072 C 0.92475 0.13751 0.63387 0.0
C1073 C 0.88207 0.80516 0.66334 0.0
C1074 C 0.88832 0.82647 0.70415 0.0
C1075 C 0.9009 0.82968 0.63072 0.0
C1076 C 0.92862 0.87598 0.63899 0.0
H1077 H 0.85837 0.76981 0.65434 0.0
H1078 H 0.89209 0.81244 0.59819 0.0
S1079 S 0.97154 0.94468 0.74789 0.0
N1080 N 0.9348 0.89404 0.7564 0.0
N1081 N 0.97207 0.94086 0.69525 0.0
C1082 C 0.94187 0.8967 0.68266 0.0
C1083 C 0.92162 0.87156 0.71565 0.0
C1084 C 0.37638 0.09408 0.11331 0.0
C1085 C 0.32906 0.07228 0.08854 0.0
C1086 C 0.40543 0.07758 0.11009 0.0
C1087 C 0.38884 0.03895 0.08129 0.0
H1088 H 0.39166 0.12493 0.13448 0.0
H1089 H 0.44154 0.09612 0.12938 0.0
S1090 S 0.26733 0.96752 0.01063 0.0
N1091 N 0.26657 0.00688 0.03737 0.0
N1092 N 0.32135 0.97876 0.02817 0.0
C1093 C 0.34158 0.01654 0.05673 0.0
C1094 C 0.31177 0.03232 0.06126 0.0
C1095 C 0.87696 0.36818 0.19473 0.0
C1096 C 0.83452 0.33071 0.17302 0.0
C1097 C 0.91206 0.38796 0.1742 0.0
C1098 C 0.90614 0.3712 0.13088 0.0
H1099 H 0.8831 0.38243 0.22793 0.0
H1100 H 0.94411 0.41677 0.19255 0.0
S1101 S 0.79952 0.27586 0.05798 0.0
N1102 N 0.78692 0.27991 0.10419 0.0
N1103 N 0.85322 0.31568 0.06626 0.0
C1104 C 0.86321 0.33444 0.10824 0.0
C1105 C 0.82724 0.31478 0.12898 0.0
C1106 C 0.64268 0.76997 0.15076 0.0
C1107 C 0.69049 0.7901 0.17313 0.0
C1108 C 0.6201 0.79489 0.13399 0.0
C1109 C 0.64372 0.84203 0.13739 0.0
H1110 H 0.62167 0.73397 0.14758 0.0
H1111 H 0.5831 0.77645 0.11937 0.0
S1112 S 0.77064 0.91229 0.18928 0.0
N1113 N 0.76144 0.86084 0.19614 0.0
N1114 N 0.71987 0.90787 0.16274 0.0
C1115 C 0.6922 0.86294 0.15825 0.0
C1116 C 0.71527 0.83715 0.17617 0.0
C1117 C 0.15741 0.67066 0.09549 0.0
C1118 C 0.19654 0.6692 0.12341 0.0
C1119 C 0.12263 0.63475 0.06351 0.0
C1120 C 0.12666 0.59684 0.05879 0.0
H1121 H 0.15103 0.69696 0.10121 0.0
H1122 H 0.0904 0.63435 0.0469 0.0
S1123 S 0.23 0.58496 0.109 0.0
N1124 N 0.24334 0.63323 0.13296 0.0
N1125 N 0.17731 0.56523 0.07366 0.0
C1126 C 0.16895 0.59876 0.07985 0.0
C1127 C 0.20429 0.63525 0.1121 0.0
C1128 C 0.39131 0.83065 0.91104 0.0
C1129 C 0.36245 0.83472 0.87055 0.0
C1130 C 0.42473 0.86889 0.94111 0.0
C1131 C 0.42749 0.9105 0.93154 0.0
H1132 H 0.38993 0.79885 0.91788 0.0
H1133 H 0.45069 0.86666 0.96917 0.0
S1134 S 0.35741 0.93693 0.83286 0.0
N1135 N 0.34302 0.88461 0.82191 0.0
N1136 N 0.39228 0.95116 0.88536 0.0
C1137 C 0.39339 0.91254 0.89547 0.0
C1138 C 0.36506 0.87617 0.86224 0.0
C1139 C 0.11979 0.37727 0.83947 0.0
C1140 C 0.13358 0.35575 0.8761 0.0
C1141 C 0.10551 0.40797 0.84551 0.0
C1142 C 0.1047 0.41858 0.88845 0.0
H1143 H 0.11799 0.36882 0.80557 0.0
H1144 H 0.09432 0.42299 0.81615 0.0
S1145 S 0.14082 0.37355 -0.00413 0.0
N1146 N 0.14889 0.34983 0.95731 0.0
N1147 N 0.1207 0.40566 0.96841 0.0
C1148 C 0.12027 0.39852 0.92556 0.0
C1149 C 0.13505 0.3677 0.91945 0.0
C1150 C 0.71246 0.19112 0.86266 0.0
C1151 C 0.70058 0.18885 0.8151 0.0
C1152 C 0.67961 0.16509 0.88432 0.0
C1153 C 0.63357 0.13635 0.85907 0.0
H1154 H 0.74696 0.21469 0.88324 0.0
H1155 H 0.69014 0.16867 0.92112 0.0
S1156 S 0.58657 0.11665 0.73311 0.0
N1157 N 0.64098 0.15489 0.74318 0.0
N1158 N 0.57898 0.10461 0.78337 0.0
C1159 C 0.622 0.13203 0.81124 0.0
C1160 C 0.65558 0.15877 0.78935 0.0
C1161 C 0.81292 0.6396 0.81767 0.0
C1162 C 0.82809 0.68525 0.8116 0.0
C1163 C 0.84356 0.62287 0.83575 0.0
C1164 C 0.89176 0.65065 0.84984 0.0
H1165 H 0.77646 0.6158 0.80686 0.0
H1166 H 0.82893 0.58735 0.83853 0.0
S1167 S 0.95071 0.77385 0.84411 0.0
N1168 N 0.89558 0.75848 0.82257 0.0
N1169 N 0.9531 0.72778 0.85798 0.0
C1170 C 0.90772 0.69696 0.84581 0.0
C1171 C 0.87616 0.71397 0.82647 0.0
C1172 C 0.22413 0.35459 0.16954 0.0
C1173 C 0.2087 0.30874 0.175 0.0
C1174 C 0.19401 0.37188 0.15174 0.0
C1175 C 0.14581 0.34464 0.13691 0.0
H1176 H 0.26059 0.37835 0.18071 0.0
H1177 H 0.20915 0.40757 0.14981 0.0
S1178 S 0.08572 0.22075 0.13756 0.0
N1179 N 0.1406 0.23549 0.1607 0.0
N1180 N 0.08394 0.26737 0.12521 0.0
C1181 C 0.12938 0.298 0.13932 0.0
C1182 C 0.16053 0.28031 0.15873 0.0
C1183 C 0.17423 0.63921 0.81023 0.0
C1184 C 0.21353 0.68003 0.82882 0.0
C1185 C 0.13958 0.61781 0.83083 0.0
C1186 C 0.1434 0.63582 0.87241 0.0
H1187 H 0.17102 0.62298 0.78022 0.0
H1188 H 0.10965 0.5866 0.81397 0.0
S1189 S 0.24557 0.73708 0.94162 0.0
N1190 N 0.25853 0.73412 0.8953 0.0
N1191 N 0.19368 0.69416 0.9352 0.0
C1192 C 0.18472 0.6749 0.89387 0.0
C1193 C 0.21995 0.69677 0.87214 0.0
C1194 C 0.38154 0.21726 0.85735 0.0
C1195 C 0.34421 0.20298 0.81723 0.0
C1196 C 0.40499 0.19278 0.87361 0.0
C1197 C 0.39416 0.1526 0.85013 0.0
H1198 H 0.39401 0.24887 0.87592 0.0
H1199 H 0.43292 0.20743 0.90472 0.0
S1200 S 0.29875 0.10195 0.73996 0.0
N1201 N 0.29711 0.14649 0.7534 0.0
N1202 N 0.3407 0.10117 0.78153 0.0
C1203 C 0.35594 0.13801 0.8093 0.0
C1204 C 0.33144 0.16282 0.79356 0.0
C1205 C 0.84848 0.36156 0.87812 0.0
C1206 C 0.86269 0.33215 0.86839 0.0
C1207 C 0.87811 0.39826 0.9106 0.0
C1208 C 0.92223 0.40573 0.93499 0.0
H1209 H 0.81588 0.35855 0.85765 0.0
H1210 H 0.86833 0.42321 0.91327 0.0
S1211 S 0.97278 0.33464 0.92949 0.0
N1212 N 0.92191 0.31057 0.89037 0.0
N1213 N 0.97601 0.37773 0.95395 0.0
C1214 C 0.93412 0.3732 0.93081 0.0
C1215 C 0.9047 0.3367 0.89654 0.0
C1216 C 0.71715 0.95579 0.91884 0.0
C1217 C 0.70286 0.92278 0.88394 0.0
C1218 C 0.68757 0.96962 0.92516 0.0
C1219 C 0.64112 0.94992 0.89836 0.0
H1220 H 0.75224 0.97238 0.94117 0.0
H1221 H 0.70229 0.99735 0.95056 0.0
S1222 S 0.58236 0.85426 0.80957 0.0
N1223 N 0.63678 0.86663 0.82557 0.0
N1224 N 0.58003 0.8896 0.8409 0.0
C1225 C 0.62487 0.91376 0.86623 0.0
C1226 C 0.65573 0.90066 0.85849 0.0
C1227 C 0.96042 0.66253 0.13423 0.0
C1228 C 0.91372 0.65094 0.12074 0.0
C1229 C 0.97429 0.6316 0.12896 0.0
C1230 C 0.94215 0.58731 0.11003 0.0
H1231 H 0.98674 0.69632 0.14827 0.0
H1232 H 1.0108 0.64312 0.13864 0.0
S1233 S 0.81494 0.53909 0.0711 0.0
N1234 N 0.83492 0.59167 0.08863 0.0
N1235 N 0.86056 0.53295 0.0797 0.0
C1236 C 0.89498 0.5748 0.09747 0.0
C1237 C 0.88089 0.60659 0.1028 0.0
C1238 C 0.39161 0.84821 0.20372 0.0
C1239 C 0.34708 0.81375 0.18216 0.0
C1240 C 0.42142 0.87291 0.17848 0.0
C1241 C 0.40788 0.8634 0.13091 0.0
H1242 H 0.4047 0.85376 0.24049 0.0
H1243 H 0.45612 0.89799 0.19683 0.0
S1244 S 0.29122 0.78175 0.05844 0.0
N1245 N 0.28837 0.77536 0.11081 0.0
N1246 N 0.34413 0.82159 0.06296 0.0
C1247 C 0.36189 0.83171 0.10877 0.0
C1248 C 0.3316 0.80685 0.13457 0.0
C1249 C 0.66855 0.13406 0.14705 0.0
C1250 C 0.67815 0.17438 0.12835 0.0
C1251 C 0.63594 0.09425 0.12139 0.0
C1252 C 0.61036 0.09347 0.0765 0.0
H1253 H 0.68601 0.13326 0.18212 0.0
H1254 H 0.63017 0.06397 0.1377 0.0
S1255 S 0.62186 0.19173 0.01339 0.0
N1256 N 0.66077 0.21305 0.06379 0.0
N1257 N 0.59636 0.13691 0.01451 0.0
C1258 C 0.61958 0.13396 0.05723 0.0
C1259 C 0.65407 0.17494 0.08365 0.0
C1260 C 0.63497 0.62789 0.77498 0.0
C1261 C 0.65605 0.6745 0.7797 0.0
C1262 C 0.61712 0.6035 0.80844 0.0
C1263 C 0.62063 0.62554 0.84728 0.0
H1264 H 0.63646 0.61051 0.7484 0.0
H1265 H 0.6036 0.56769 0.80546 0.0
S1266 S 0.65938 0.74537 0.86725 0.0
N1267 N 0.66844 0.74032 0.81909 0.0
N1268 N 0.63698 0.69464 0.88365 0.0
C1269 C 0.636 0.67127 0.8492 0.0
C1270 C 0.65271 0.69572 0.81447 0.0
C1271 C 0.40697 0.67666 0.96082 0.0
C1272 C 0.36039 0.64346 0.94329 0.0
C1273 C 0.44359 0.66792 0.96539 0.0
C1274 C 0.43599 0.62493 0.95557 0.0
H1275 H 0.41497 0.711 0.96507 0.0
H1276 H 0.47822 0.69594 0.97371 0.0
S1277 S 0.29079 0.50707 0.89608 0.0
N1278 N 0.29317 0.56099 0.93208 0.0
N1279 N 0.36635 0.54078 0.91588 0.0
C1280 C 0.39191 0.58961 0.9492 0.0
C1281 C 0.34822 0.60237 0.95834 0.0
C1282 C 0.40724 0.37299 0.83552 0.0
C1283 C 0.36356 0.36892 0.81976 0.0
C1284 C 0.44138 0.40557 0.87011 0.0
C1285 C 0.43248 0.43434 0.89049 0.0
H1286 H 0.41478 0.35023 0.82193 0.0
H1287 H 0.47492 0.40806 0.88111 0.0
S1288 S 0.32257 0.43488 0.86225 0.0
N1289 N 0.31177 0.3939 0.82744 0.0
N1290 N 0.37714 0.45644 0.89324 0.0
C1291 C 0.38859 0.42977 0.87593 0.0
C1292 C 0.35366 0.39649 0.84033 0.0
C1293 C 0.6311 0.36368 0.88011 0.0
C1294 C 0.65843 0.38636 0.85222 0.0
C1295 C 0.63261 0.38713 0.91614 0.0
C1296 C 0.65989 0.43396 0.92338 0.0
H1297 H 0.60638 0.32838 0.87216 0.0
H1298 H 0.60754 0.36955 0.934 0.0
S1299 S 0.74537 0.50588 0.86577 0.0
N1300 N 0.72065 0.45531 0.83972 0.0
N1301 N 0.72104 0.50048 0.90563 0.0
C1302 C 0.69183 0.45572 0.89958 0.0
C1303 C 0.69125 0.43157 0.86379 0.0
C1304 C 0.64184 0.40656 0.04203 0.0
C1305 C 0.65051 0.38019 0.07584 0.0
C1306 C 0.59686 0.39452 0.01589 0.0
C1307 C 0.55957 0.35486 0.02116 0.0
H1308 H 0.66919 0.4392 0.03974 0.0
H1309 H 0.59069 0.41955 -0.00265 0.0
S1310 S 0.56289 0.26839 0.09544 0.0
N1311 N 0.61693 0.30833 0.1075 0.0
N1312 N 0.53356 0.28503 0.05418 0.0
C1313 C 0.56813 0.32442 0.04811 0.0
C1314 C 0.61345 0.33732 0.07681 0.0
C1315 C 0.6906 0.62389 0.12853 0.0
C1316 C 0.68873 0.62239 0.17349 0.0
C1317 C 0.65661 0.59016 0.09468 0.0
C1318 C 0.6198 0.55358 0.10472 0.0
H1319 H 0.71627 0.65291 0.11815 0.0
H1320 H 0.65725 0.59491 0.05995 0.0
S1321 S 0.6111 0.52402 0.22005 0.0
N1322 N 0.65596 0.57476 0.22869 0.0
N1323 N 0.59151 0.51044 0.16459 0.0
C1324 C 0.62213 0.54765 0.15071 0.0
C1325 C 0.65686 0.58239 0.18538 0.0
C1326 C 0.41279 0.64669 0.10867 0.0
C1327 C 0.39282 0.62477 0.14213 0.0
C1328 C 0.40982 0.62221 0.07263 0.0
C1329 C 0.38762 0.57531 0.06989 0.0
H1330 H 0.43376 0.68273 0.11235 0.0
H1331 H 0.42942 0.64004 0.04989 0.0
S1332 S 0.32169 0.50322 0.1446 0.0
N1333 N 0.343 0.55475 0.16647 0.0
N1334 N 0.33895 0.50809 0.09945 0.0
C1335 C 0.36256 0.55324 0.10006 0.0
C1336 C 0.365 0.57831 0.13637 0.0
C1337 C 0.39314 0.38233 0.20113 0.0
C1338 C 0.37618 0.33612 0.19417 0.0
C1339 C 0.40789 0.4104 0.16794 0.0
C1340 C 0.40424 0.3925 0.12648 0.0
H1341 H 0.39244 0.39656 0.23073 0.0
H1342 H 0.42029 0.44579 0.17385 0.0
S1343 S 0.37154 0.27596 0.09556 0.0
N1344 N 0.36633 0.27611 0.1467 0.0
N1345 N 0.38857 0.32767 0.08247 0.0
C1346 C 0.39041 0.34721 0.12045 0.0
C1347 C 0.37816 0.3194 0.15502 0.0
C1348 C 0.8255 0.54434 0.56904 0.0
C1349 C 0.84059 0.57783 0.60386 0.0
C1350 C 0.85409 0.52891 0.56306 0.0
C1351 C 0.90038 0.54741 0.59007 0.0
H1352 H 0.79058 0.52877 0.54633 0.0
H1353 H 0.83887 0.50115 0.53755 0.0
S1354 S 0.96105 0.64272 0.67957 0.0
N1355 N 0.90726 0.63235 0.66298 0.0
N1356 N 0.96218 0.60648 0.64828 0.0
C1357 C 0.9174 0.58364 0.62244 0.0
C1358 C 0.88754 0.59834 0.62985 0.0
C1359 C 0.32786 0.81247 0.63836 0.0
C1360 C 0.33397 0.82901 0.68175 0.0
C1361 C 0.36228 0.83383 0.61676 0.0
C1362 C 0.40377 0.87319 0.63727 0.0
H1363 H 0.2969 0.7819 0.62168 0.0
H1364 H 0.35672 0.81879 0.58423 0.0
S1365 S 0.43114 0.93573 0.74588 0.0
N1366 N 0.38099 0.89075 0.74094 0.0
N1367 N 0.44516 0.93131 0.70074 0.0
C1368 C 0.40841 0.89186 0.67913 0.0
C1369 C 0.37357 0.86985 0.70111 0.0
C1370 C 0.20811 0.32852 0.65895 0.0
C1371 C 0.18477 0.2868 0.67538 0.0
C1372 C 0.18618 0.35436 0.64039 0.0
C1373 C 0.14014 0.34024 0.63822 0.0
H1374 H 0.24347 0.34136 0.66026 0.0
H1375 H 0.20535 0.38549 0.62734 0.0
S1376 S 0.06649 0.23925 0.68503 0.0
N1377 N 0.11307 0.23574 0.69143 0.0
N1378 N 0.0749 0.28524 0.66026 0.0
C1379 C 0.11752 0.30014 0.65662 0.0
C1380 C 0.13892 0.27339 0.67416 0.0
C1381 C 0.64057 0.16847 0.60114 0.0
C1382 C 0.68485 0.17433 0.62183 0.0
C1383 C 0.60727 0.13129 0.57002 0.0
C1384 C 0.61752 0.09902 0.5597 0.0
H1385 H 0.62978 0.18925 0.6127 0.0
H1386 H 0.57214 0.12505 0.5584 0.0
S1387 S 0.7311 0.10501 0.59579 0.0
N1388 N 0.73972 0.15013 0.6221 0.0
N1389 N 0.67622 0.07898 0.56535 0.0
C1390 C 0.66292 0.10748 0.57542 0.0
C1391 C 0.69697 0.14566 0.6062 0.0
C1392 C 0.88364 0.32607 0.40213 0.0
C1393 C 0.85724 0.32857 0.35898 0.0
C1394 C 0.91782 0.36558 0.43028 0.0
C1395 C 0.92454 0.40745 0.41584 0.0
H1396 H 0.87881 0.29404 0.41335 0.0
H1397 H 0.94022 0.36354 0.4621 0.0
S1398 S 0.86275 0.43004 0.3061 0.0
N1399 N 0.84379 0.37595 0.30213 0.0
N1400 N 0.89756 0.44783 0.35835 0.0
C1401 C 0.89522 0.40919 0.37439 0.0
C1402 C 0.86471 0.37031 0.34473 0.0
C1403 C 0.63519 0.86736 0.41683 0.0
C1404 C 0.63223 0.85274 0.37388 0.0
C1405 C 0.62101 0.89816 0.42169 0.0
C1406 C 0.60306 0.91584 0.38378 0.0
H1407 H 0.64741 0.85383 0.447 0.0
H1408 H 0.62259 0.90689 0.4554 0.0
S1409 S 0.59287 0.89256 0.26418 0.0
N1410 N 0.6132 0.86104 0.29294 0.0
N1411 N 0.58725 0.91949 0.30208 0.0
C1412 C 0.60208 0.90329 0.34081 0.0
C1413 C 0.61669 0.87187 0.33589 0.0
C1414 C 0.15303 0.65491 0.28849 0.0
C1415 C 0.19962 0.67922 0.3139 0.0
C1416 C 0.11959 0.63138 0.31017 0.0
C1417 C 0.13192 0.63216 0.35787 0.0
H1418 H 0.14216 0.65677 0.25214 0.0
H1419 H 0.08379 0.61442 0.2896 0.0
S1420 S 0.2506 0.68491 0.43807 0.0
N1421 N 0.25717 0.69901 0.38781 0.0
N1422 N 0.19465 0.65363 0.42885 0.0
C1423 C 0.17885 0.65342 0.38305 0.0
C1424 C 0.21267 0.67741 0.36093 0.0
C1425 C 0.37586 0.2104 0.32611 0.0
C1426 C 0.32757 0.18215 0.31278 0.0
C1427 C 0.40692 0.19352 0.34495 0.0
C1428 C 0.39123 0.14744 0.35032 0.0
H1429 H 0.38979 0.24541 0.32072 0.0
H1430 H 0.44349 0.21648 0.35373 0.0
S1431 S 0.26879 0.0601 0.32499 0.0
N1432 N 0.26675 0.1061 0.31065 0.0
N1433 N 0.32385 0.07527 0.34384 0.0
C1434 C 0.34333 0.11966 0.33876 0.0
C1435 C 0.3121 0.13672 0.32073 0.0
C1436 C 0.73085 0.86587 0.68014 0.0
C1437 C 0.71688 0.81973 0.67945 0.0
C1438 C 0.69964 0.88213 0.66366 0.0
C1439 C 0.65203 0.85358 0.64408 0.0
H1440 H 0.76674 0.89037 0.6949 0.0
H1441 H 0.7134 0.91794 0.6662 0.0
S1442 S 0.59594 0.72937 0.63142 0.0
N1443 N 0.65077 0.74538 0.65698 0.0
N1444 N 0.5925 0.77561 0.62351 0.0
C1445 C 0.63728 0.80712 0.64149 0.0
C1446 C 0.66932 0.79039 0.65967 0.0
C1447 C 0.70971 0.18634 0.35412 0.0
C1448 C 0.69806 0.18051 0.30645 0.0
C1449 C 0.67616 0.16494 0.37669 0.0
C1450 C 0.62962 0.1359 0.35264 0.0
H1451 H 0.74522 0.20724 0.37422 0.0
H1452 H 0.68715 0.17013 0.41344 0.0
S1453 S 0.58199 0.10692 0.22733 0.0
N1454 N 0.63718 0.14226 0.23619 0.0
N1455 N 0.57426 0.10229 0.27782 0.0
C1456 C 0.61767 0.12998 0.30479 0.0
C1457 C 0.65181 0.15203 0.28196 0.0
C1458 C 0.82692 0.66019 0.31231 0.0
C1459 C 0.84782 0.7067 0.32311 0.0
C1460 C 0.85116 0.6362 0.32924 0.0
C1461 C 0.89766 0.65739 0.35767 0.0
H1462 H 0.79244 0.64254 0.28877 0.0
H1463 H 0.83337 0.6007 0.31922 0.0
S1464 S 0.96875 0.77947 0.39389 0.0
N1465 N 0.91798 0.7728 0.36376 0.0
N1466 N 0.9633 0.72916 0.39365 0.0
C1467 C 0.91842 0.70391 0.3688 0.0
C1468 C 0.89368 0.72795 0.35214 0.0
C1469 C 0.34587 0.86478 0.37382 0.0
C1470 C 0.35243 0.82746 0.37469 0.0
C1471 C 0.37728 0.90262 0.40413 0.0
C1472 C 0.41586 0.90406 0.43644 0.0
H1473 H 0.31916 0.8668 0.34663 0.0
H1474 H 0.3743 0.93255 0.39865 0.0
S1475 S 0.43382 0.80757 0.46849 0.0
N1476 N 0.3889 0.78822 0.42206 0.0
N1477 N 0.44947 0.86054 0.47883 0.0
C1478 C 0.41692 0.86402 0.44434 0.0
C1479 C 0.38457 0.82511 0.41328 0.0
C1480 C 0.21662 0.45312 0.42384 0.0
C1481 C 0.20298 0.41986 0.38937 0.0
C1482 C 0.18737 0.46837 0.42817 0.0
C1483 C 0.14135 0.4495 0.40027 0.0
H1484 H 0.25087 0.46871 0.44784 0.0
H1485 H 0.20209 0.49635 0.45322 0.0
S1486 S 0.08308 0.35326 0.31221 0.0
N1487 N 0.13719 0.36465 0.32979 0.0
N1488 N 0.08079 0.38937 0.34244 0.0
C1489 C 0.12538 0.41304 0.36863 0.0
C1490 C 0.15614 0.39889 0.36245 0.0
C1491 C 0.41747 0.14105 0.57834 0.0
C1492 C 0.40931 0.1472 0.61858 0.0
C1493 C 0.4296 0.1089 0.5727 0.0
C1494 C 0.43387 0.08111 0.60691 0.0
H1495 H 0.41577 0.16223 0.55131 0.0
H1496 H 0.43746 0.10709 0.54186 0.0
S1497 S 0.40937 0.07854 0.71601 0.0
N1498 N 0.4021 0.11954 0.69164 0.0
N1499 N 0.42352 0.05811 0.6803 0.0
C1500 C 0.42288 0.08475 0.64614 0.0
C1501 C 0.41068 0.11779 0.65204 0.0
C1502 C 0.83119 0.30555 0.62798 0.0
C1503 C 0.8431 0.31349 0.67533 0.0
C1504 C 0.8627 0.33052 0.60451 0.0
C1505 C 0.90743 0.36415 0.62769 0.0
H1506 H 0.7982 0.27787 0.60936 0.0
H1507 H 0.85258 0.3219 0.56832 0.0
S1508 S 0.95268 0.40242 0.75097 0.0
N1509 N 0.9008 0.35959 0.74413 0.0
N1510 N 0.9594 0.40853 0.70002 0.0
C1511 C 0.91821 0.37505 0.67458 0.0
C1512 C 0.8862 0.34916 0.69846 0.0
C1513 C 0.16744 0.67427 0.58931 0.0
C1514 C 0.1781 0.67271 0.63652 0.0
C1515 C 0.13361 0.63543 0.56019 0.0
C1516 C 0.10994 0.59495 0.57815 0.0
H1517 H 0.18561 0.70501 0.57512 0.0
H1518 H 0.12627 0.63699 0.52379 0.0
S1519 S 0.12748 0.57536 0.69972 0.0
N1520 N 0.16514 0.62814 0.69954 0.0
N1521 N 0.09965 0.55686 0.64604 0.0
C1522 C 0.12077 0.59396 0.62539 0.0
C1523 C 0.15558 0.63245 0.65427 0.0
loop_
_geom_bond_atom_site_label_1
_geom_bond_atom_site_label_2
_geom_bond_distance
_geom_bond_site_symmetry_2
_ccdc_geom_bond_type
Eu0 N31 2.657 . S
Eu0 N38 2.609 . S
Eu0 O44 2.558 . S
Eu0 O45 2.612 . S
Eu0 O47 2.339 . S
Eu0 O48 2.563 . S
Eu0 O49 2.419 . S
Eu0 O51 2.380 . S
Eu0 O52 2.432 . S
Eu0 C64 2.848 . S
C1 C4 1.429 . S
C1 C5 1.411 . S
C1 N8 1.377 . S
C2 C4 1.420 . S
C2 C6 1.423 . S
C2 C14 1.392 . S
C3 C5 1.420 . S
C3 C6 1.351 . S
C3 H26 0.931 . S
C4 C1 1.429 . S
C4 C2 1.420 . S
C4 N12 1.362 . S
C5 C1 1.411 . S
C5 C3 1.420 . S
C5 C10 1.395 . S
C6 C2 1.423 . S
C6 C3 1.351 . S
C6 H18 0.930 . S
C7 C9 1.400 . S
C7 C10 1.386 . S
C7 H19 0.930 . S
N8 C1 1.377 . S
N8 C9 1.321 . S
N8 Eu11 2.609 . S
C9 C7 1.400 . S
C9 N8 1.321 . S
C9 H16 0.930 . S
C10 C5 1.395 . S
C10 C7 1.386 . S
C10 H29 0.930 . S
Eu11 N8 2.609 . S
Eu11 N12 2.657 . S
Eu11 O45 2.380 . S
Eu11 O46 2.432 . S
Eu11 O50 2.558 . S
Eu11 O51 2.612 . S
Eu11 O53 2.339 . S
Eu11 O54 2.563 . S
Eu11 O55 2.419 . S
Eu11 C75 2.848 . S
N12 C4 1.362 . S
N12 Eu11 2.657 . S
N12 C13 1.334 . S
C13 N12 1.334 . S
C13 C15 1.413 . S
C13 H20 0.929 . S
C14 C2 1.392 . S
C14 C15 1.367 . S
C14 H22 0.930 . S
C15 C13 1.413 . S
C15 C14 1.367 . S
C15 H17 0.930 . S
H16 C9 0.930 . S
H17 C15 0.930 . S
H18 C6 0.930 . S
H19 C7 0.930 . S
H20 C13 0.929 . S
H21 C35 0.930 . S
H22 C14 0.930 . S
H23 C41 0.930 . S
H24 C32 0.929 . S
H25 C39 0.930 . S
H26 C3 0.931 . S
H27 C33 0.930 . S
H28 C66 0.930 . S
H29 C10 0.930 . S
H30 C65 0.931 . S
N31 Eu0 2.657 . S
N31 C32 1.334 . S
N31 C36 1.362 . S
C32 H24 0.929 . S
C32 N31 1.334 . S
C32 C35 1.413 . S
C33 H27 0.930 . S
C33 C34 1.392 . S
C33 C35 1.367 . S
C34 C33 1.392 . S
C34 C36 1.420 . S
C34 C66 1.423 . S
C35 H21 0.930 . S
C35 C32 1.413 . S
C35 C33 1.367 . S
C36 N31 1.362 . S
C36 C34 1.420 . S
C36 C40 1.429 . S
H37 C42 0.930 . S
N38 Eu0 2.609 . S
N38 C40 1.377 . S
N38 C41 1.321 . S
C39 H25 0.930 . S
C39 C41 1.400 . S
C39 C42 1.386 . S
C40 C36 1.429 . S
C40 N38 1.377 . S
C40 C43 1.411 . S
C41 H23 0.930 . S
C41 N38 1.321 . S
C41 C39 1.400 . S
C42 H37 0.930 . S
C42 C39 1.386 . S
C42 C43 1.395 . S
C43 C40 1.411 . S
C43 C42 1.395 . S
C43 C65 1.420 . S
O44 Eu0 2.558 . S
O44 C64 1.257 . S
O45 Eu0 2.612 . S
O45 Eu11 2.380 . S
O45 C56 1.276 . S
O46 Eu11 2.432 . S
O46 C63 1.264 . S
O47 Eu0 2.339 . S
O47 C63 1.254 . S
O48 Eu0 2.563 . S
O48 C56 1.235 . S
O49 Eu0 2.419 . S
O49 C64 1.249 . S
O50 Eu11 2.558 . S
O50 C75 1.257 . S
O51 Eu0 2.380 . S
O51 Eu11 2.612 . S
O51 C67 1.276 . S
O52 Eu0 2.432 . S
O52 C74 1.264 . S
O53 Eu11 2.339 . S
O53 C74 1.254 . S
O54 Eu11 2.563 . S
O54 C67 1.235 . S
O55 Eu11 2.419 . S
O55 C75 1.249 . S
C56 O45 1.276 . S
C56 O48 1.235 . S
C57 C59 1.393 . S
C57 C61 1.395 . S
C57 C64 1.492 . S
C58 C59 1.392 . S
C58 C60 1.386 . S
C59 C57 1.393 . S
C59 C58 1.392 . S
C59 H76 0.930 . S
C60 C58 1.386 . S
C60 C62 1.395 . S
C60 H77 0.930 . S
C61 C57 1.395 . S
C61 C62 1.379 . S
C61 H78 0.930 . S
C62 C60 1.395 . S
C62 C61 1.379 . S
C62 H79 0.930 . S
C63 O46 1.264 . S
C63 O47 1.254 . S
C64 Eu0 2.848 . S
C64 O44 1.257 . S
C64 O49 1.249 . S
C64 C57 1.492 . S
C65 H30 0.931 . S
C65 C43 1.420 . S
C65 C66 1.351 . S
C66 H28 0.930 . S
C66 C34 1.423 . S
C66 C65 1.351 . S
C67 O51 1.276 . S
C67 O54 1.235 . S
C68 C69 1.393 . S
C68 C72 1.395 . S
C68 C75 1.492 . S
C69 C68 1.393 . S
C69 C70 1.392 . S
C69 H80 0.930 . S
C70 C69 1.392 . S
C70 C71 1.386 . S
C71 C70 1.386 . S
C71 C73 1.395 . S
C71 H81 0.930 . S
C72 C68 1.395 . S
C72 C73 1.379 . S
C72 H82 0.930 . S
C73 C71 1.395 . S
C73 C72 1.379 . S
C73 H83 0.930 . S
C74 O52 1.264 . S
C74 O53 1.254 . S
C75 Eu11 2.848 . S
C75 O50 1.257 . S
C75 O55 1.249 . S
C75 C68 1.492 . S
H76 C59 0.930 . S
H77 C60 0.930 . S
H78 C61 0.930 . S
H79 C62 0.930 . S
H80 C69 0.930 . S
H81 C71 0.930 . S
H82 C72 0.930 . S
H83 C73 0.930 . S
Eu84 N115 2.657 . S
Eu84 N122 2.609 . S
Eu84 O128 2.558 . S
Eu84 O129 2.612 . S
Eu84 O131 2.339 . S
Eu84 O132 2.563 . S
Eu84 O133 2.419 . S
Eu84 O135 2.380 . S
Eu84 O136 2.432 . S
Eu84 C148 2.848 . S
C85 C88 1.429 . S
C85 C89 1.411 . S
C85 N92 1.377 . S
C86 C88 1.420 . S
C86 C90 1.423 . S
C86 C98 1.392 . S
C87 C89 1.420 . S
C87 C90 1.351 . S
C87 H110 0.931 . S
C88 C85 1.429 . S
C88 C86 1.420 . S
C88 N96 1.362 . S
C89 C85 1.411 . S
C89 C87 1.420 . S
C89 C94 1.395 . S
C90 C86 1.423 . S
C90 C87 1.351 . S
C90 H102 0.930 . S
C91 C93 1.400 . S
C91 C94 1.386 . S
C91 H103 0.930 . S
N92 C85 1.377 . S
N92 C93 1.321 . S
N92 Eu95 2.609 . S
C93 C91 1.400 . S
C93 N92 1.321 . S
C93 H100 0.930 . S
C94 C89 1.395 . S
C94 C91 1.386 . S
C94 H113 0.930 . S
Eu95 N92 2.609 . S
Eu95 N96 2.657 . S
Eu95 O129 2.380 . S
Eu95 O130 2.432 . S
Eu95 O134 2.558 . S
Eu95 O135 2.612 . S
Eu95 O137 2.339 . S
Eu95 O138 2.563 . S
Eu95 O139 2.419 . S
Eu95 C159 2.848 . S
N96 C88 1.362 . S
N96 Eu95 2.657 . S
N96 C97 1.334 . S
C97 N96 1.334 . S
C97 C99 1.413 . S
C97 H104 0.929 . S
C98 C86 1.392 . S
C98 C99 1.367 . S
C98 H106 0.930 . S
C99 C97 1.413 . S
C99 C98 1.367 . S
C99 H101 0.930 . S
H100 C93 0.930 . S
H101 C99 0.930 . S
H102 C90 0.930 . S
H103 C91 0.930 . S
H104 C97 0.929 . S
H105 C119 0.930 . S
H106 C98 0.930 . S
H107 C125 0.930 . S
H108 C116 0.929 . S
H109 C123 0.930 . S
H110 C87 0.931 . S
H111 C117 0.930 . S
H112 C150 0.930 . S
H113 C94 0.930 . S
H114 C149 0.931 . S
N115 Eu84 2.657 . S
N115 C116 1.334 . S
N115 C120 1.362 . S
C116 H108 0.929 . S
C116 N115 1.334 . S
C116 C119 1.413 . S
C117 H111 0.930 . S
C117 C118 1.392 . S
C117 C119 1.367 . S
C118 C117 1.392 . S
C118 C120 1.420 . S
C118 C150 1.423 . S
C119 H105 0.930 . S
C119 C116 1.413 . S
C119 C117 1.367 . S
C120 N115 1.362 . S
C120 C118 1.420 . S
C120 C124 1.429 . S
H121 C126 0.930 . S
N122 Eu84 2.609 . S
N122 C124 1.377 . S
N122 C125 1.321 . S
C123 H109 0.930 . S
C123 C125 1.400 . S
C123 C126 1.386 . S
C124 C120 1.429 . S
C124 N122 1.377 . S
C124 C127 1.411 . S
C125 H107 0.930 . S
C125 N122 1.321 . S
C125 C123 1.400 . S
C126 H121 0.930 . S
C126 C123 1.386 . S
C126 C127 1.395 . S
C127 C124 1.411 . S
C127 C126 1.395 . S
C127 C149 1.420 . S
O128 Eu84 2.558 . S
O128 C148 1.257 . S
O129 Eu84 2.612 . S
O129 Eu95 2.380 . S
O129 C140 1.276 . S
O130 Eu95 2.432 . S
O130 C147 1.264 . S
O131 Eu84 2.339 . S
O131 C147 1.254 . S
O132 Eu84 2.563 . S
O132 C140 1.235 . S
O133 Eu84 2.419 . S
O133 C148 1.249 . S
O134 Eu95 2.558 . S
O134 C159 1.257 . S
O135 Eu84 2.380 . S
O135 Eu95 2.612 . S
O135 C151 1.276 . S
O136 Eu84 2.432 . S
O136 C158 1.264 . S
O137 Eu95 2.339 . S
O137 C158 1.254 . S
O138 Eu95 2.563 . S
O138 C151 1.235 . S
O139 Eu95 2.419 . S
O139 C159 1.249 . S
C140 O129 1.276 . S
C140 O132 1.235 . S
C141 C143 1.393 . S
C141 C145 1.395 . S
C141 C148 1.492 . S
C142 C143 1.392 . S
C142 C144 1.386 . S
C143 C141 1.393 . S
C143 C142 1.392 . S
C143 H160 0.930 . S
C144 C142 1.386 . S
C144 C146 1.395 . S
C144 H161 0.930 . S
C145 C141 1.395 . S
C145 C146 1.379 . S
C145 H162 0.930 . S
C146 C144 1.395 . S
C146 C145 1.379 . S
C146 H163 0.930 . S
C147 O130 1.264 . S
C147 O131 1.254 . S
C148 Eu84 2.848 . S
C148 O128 1.257 . S
C148 O133 1.249 . S
C148 C141 1.492 . S
C149 H114 0.931 . S
C149 C127 1.420 . S
C149 C150 1.351 . S
C150 H112 0.930 . S
C150 C118 1.423 . S
C150 C149 1.351 . S
C151 O135 1.276 . S
C151 O138 1.235 . S
C152 C153 1.393 . S
C152 C156 1.395 . S
C152 C159 1.492 . S
C153 C152 1.393 . S
C153 C154 1.392 . S
C153 H164 0.930 . S
C154 C153 1.392 . S
C154 C155 1.386 . S
C155 C154 1.386 . S
C155 C157 1.395 . S
C155 H165 0.930 . S
C156 C152 1.395 . S
C156 C157 1.379 . S
C156 H166 0.930 . S
C157 C155 1.395 . S
C157 C156 1.379 . S
C157 H167 0.930 . S
C158 O136 1.264 . S
C158 O137 1.254 . S
C159 Eu95 2.848 . S
C159 O134 1.257 . S
C159 O139 1.249 . S
C159 C152 1.492 . S
H160 C143 0.930 . S
H161 C144 0.930 . S
H162 C145 0.930 . S
H163 C146 0.930 . S
H164 C153 0.930 . S
H165 C155 0.930 . S
H166 C156 0.930 . S
H167 C157 0.930 . S
Eu168 N199 2.657 . S
Eu168 N206 2.609 . S
Eu168 O212 2.558 . S
Eu168 O213 2.612 . S
Eu168 O215 2.339 . S
Eu168 O216 2.563 . S
Eu168 O217 2.419 . S
Eu168 O219 2.380 . S
Eu168 O220 2.432 . S
Eu168 C232 2.848 . S
C169 C172 1.429 . S
C169 C173 1.411 . S
C169 N176 1.377 . S
C170 C172 1.420 . S
C170 C174 1.423 . S
C170 C182 1.392 . S
C171 C173 1.420 . S
C171 C174 1.351 . S
C171 H194 0.931 . S
C172 C169 1.429 . S
C172 C170 1.420 . S
C172 N180 1.362 . S
C173 C169 1.411 . S
C173 C171 1.420 . S
C173 C178 1.395 . S
C174 C170 1.423 . S
C174 C171 1.351 . S
C174 H186 0.930 . S
C175 C177 1.400 . S
C175 C178 1.386 . S
C175 H187 0.930 . S
N176 C169 1.377 . S
N176 C177 1.321 . S
N176 Eu179 2.609 . S
C177 C175 1.400 . S
C177 N176 1.321 . S
C177 H184 0.930 . S
C178 C173 1.395 . S
C178 C175 1.386 . S
C178 H197 0.930 . S
Eu179 N176 2.609 . S
Eu179 N180 2.657 . S
Eu179 O213 2.380 . S
Eu179 O214 2.432 . S
Eu179 O218 2.558 . S
Eu179 O219 2.612 . S
Eu179 O221 2.339 . S
Eu179 O222 2.563 . S
Eu179 O223 2.419 . S
Eu179 C243 2.848 . S
N180 C172 1.362 . S
N180 Eu179 2.657 . S
N180 C181 1.334 . S
C181 N180 1.334 . S
C181 C183 1.413 . S
C181 H188 0.929 . S
C182 C170 1.392 . S
C182 C183 1.367 . S
C182 H190 0.930 . S
C183 C181 1.413 . S
C183 C182 1.367 . S
C183 H185 0.930 . S
H184 C177 0.930 . S
H185 C183 0.930 . S
H186 C174 0.930 . S
H187 C175 0.930 . S
H188 C181 0.929 . S
H189 C203 0.930 . S
H190 C182 0.930 . S
H191 C209 0.930 . S
H192 C200 0.929 . S
H193 C207 0.930 . S
H194 C171 0.931 . S
H195 C201 0.930 . S
H196 C234 0.930 . S
H197 C178 0.930 . S
H198 C233 0.931 . S
N199 Eu168 2.657 . S
N199 C200 1.334 . S
N199 C204 1.362 . S
C200 H192 0.929 . S
C200 N199 1.334 . S
C200 C203 1.413 . S
C201 H195 0.930 . S
C201 C202 1.392 . S
C201 C203 1.367 . S
C202 C201 1.392 . S
C202 C204 1.420 . S
C202 C234 1.423 . S
C203 H189 0.930 . S
C203 C200 1.413 . S
C203 C201 1.367 . S
C204 N199 1.362 . S
C204 C202 1.420 . S
C204 C208 1.429 . S
H205 C210 0.930 . S
N206 Eu168 2.609 . S
N206 C208 1.377 . S
N206 C209 1.321 . S
C207 H193 0.930 . S
C207 C209 1.400 . S
C207 C210 1.386 . S
C208 C204 1.429 . S
C208 N206 1.377 . S
C208 C211 1.411 . S
C209 H191 0.930 . S
C209 N206 1.321 . S
C209 C207 1.400 . S
C210 H205 0.930 . S
C210 C207 1.386 . S
C210 C211 1.395 . S
C211 C208 1.411 . S
C211 C210 1.395 . S
C211 C233 1.420 . S
O212 Eu168 2.558 . S
O212 C232 1.257 . S
O213 Eu168 2.612 . S
O213 Eu179 2.380 . S
O213 C224 1.276 . S
O214 Eu179 2.432 . S
O214 C231 1.264 . S
O215 Eu168 2.339 . S
O215 C231 1.254 . S
O216 Eu168 2.563 . S
O216 C224 1.235 . S
O217 Eu168 2.419 . S
O217 C232 1.249 . S
O218 Eu179 2.558 . S
O218 C243 1.257 . S
O219 Eu168 2.380 . S
O219 Eu179 2.612 . S
O219 C235 1.276 . S
O220 Eu168 2.432 . S
O220 C242 1.264 . S
O221 Eu179 2.339 . S
O221 C242 1.254 . S
O222 Eu179 2.563 . S
O222 C235 1.235 . S
O223 Eu179 2.419 . S
O223 C243 1.249 . S
C224 O213 1.276 . S
C224 O216 1.235 . S
C225 C227 1.393 . S
C225 C229 1.395 . S
C225 C232 1.492 . S
C226 C227 1.392 . S
C226 C228 1.386 . S
C227 C225 1.393 . S
C227 C226 1.392 . S
C227 H244 0.930 . S
C228 C226 1.386 . S
C228 C230 1.395 . S
C228 H245 0.930 . S
C229 C225 1.395 . S
C229 C230 1.379 . S
C229 H246 0.930 . S
C230 C228 1.395 . S
C230 C229 1.379 . S
C230 H247 0.930 . S
C231 O214 1.264 . S
C231 O215 1.254 . S
C232 Eu168 2.848 . S
C232 O212 1.257 . S
C232 O217 1.249 . S
C232 C225 1.492 . S
C233 H198 0.931 . S
C233 C211 1.420 . S
C233 C234 1.351 . S
C234 H196 0.930 . S
C234 C202 1.423 . S
C234 C233 1.351 . S
C235 O219 1.276 . S
C235 O222 1.235 . S
C236 C237 1.393 . S
C236 C240 1.395 . S
C236 C243 1.492 . S
C237 C236 1.393 . S
C237 C238 1.392 . S
C237 H248 0.930 . S
C238 C237 1.392 . S
C238 C239 1.386 . S
C239 C238 1.386 . S
C239 C241 1.395 . S
C239 H249 0.930 . S
C240 C236 1.395 . S
C240 C241 1.379 . S
C240 H250 0.930 . S
C241 C239 1.395 . S
C241 C240 1.379 . S
C241 H251 0.930 . S
C242 O220 1.264 . S
C242 O221 1.254 . S
C243 Eu179 2.848 . S
C243 O218 1.257 . S
C243 O223 1.249 . S
C243 C236 1.492 . S
H244 C227 0.930 . S
H245 C228 0.930 . S
H246 C229 0.930 . S
H247 C230 0.930 . S
H248 C237 0.930 . S
H249 C239 0.930 . S
H250 C240 0.930 . S
H251 C241 0.930 . S
Eu252 N283 2.657 . S
Eu252 N290 2.609 . S
Eu252 O296 2.558 . S
Eu252 O297 2.612 . S
Eu252 O299 2.339 . S
Eu252 O300 2.563 . S
Eu252 O301 2.419 . S
Eu252 O303 2.380 . S
Eu252 O304 2.432 . S
Eu252 C316 2.848 . S
C253 C256 1.429 . S
C253 C257 1.411 . S
C253 N260 1.377 . S
C254 C256 1.420 . S
C254 C258 1.423 . S
C254 C266 1.392 . S
C255 C257 1.420 . S
C255 C258 1.351 . S
C255 H278 0.931 . S
C256 C253 1.429 . S
C256 C254 1.420 . S
C256 N264 1.362 . S
C257 C253 1.411 . S
C257 C255 1.420 . S
C257 C262 1.395 . S
C258 C254 1.423 . S
C258 C255 1.351 . S
C258 H270 0.930 . S
C259 C261 1.400 . S
C259 C262 1.386 . S
C259 H271 0.930 . S
N260 C253 1.377 . S
N260 C261 1.321 . S
N260 Eu263 2.609 . S
C261 C259 1.400 . S
C261 N260 1.321 . S
C261 H268 0.930 . S
C262 C257 1.395 . S
C262 C259 1.386 . S
C262 H281 0.930 . S
Eu263 N260 2.609 . S
Eu263 N264 2.657 . S
Eu263 O297 2.380 . S
Eu263 O298 2.432 . S
Eu263 O302 2.558 . S
Eu263 O303 2.612 . S
Eu263 O305 2.339 . S
Eu263 O306 2.563 . S
Eu263 O307 2.419 . S
Eu263 C327 2.848 . S
N264 C256 1.362 . S
N264 Eu263 2.657 . S
N264 C265 1.334 . S
C265 N264 1.334 . S
C265 C267 1.413 . S
C265 H272 0.929 . S
C266 C254 1.392 . S
C266 C267 1.367 . S
C266 H274 0.930 . S
C267 C265 1.413 . S
C267 C266 1.367 . S
C267 H269 0.930 . S
H268 C261 0.930 . S
H269 C267 0.930 . S
H270 C258 0.930 . S
H271 C259 0.930 . S
H272 C265 0.929 . S
H273 C287 0.930 . S
H274 C266 0.930 . S
H275 C293 0.930 . S
H276 C284 0.929 . S
H277 C291 0.930 . S
H278 C255 0.931 . S
H279 C285 0.930 . S
H280 C318 0.930 . S
H281 C262 0.930 . S
H282 C317 0.931 . S
N283 Eu252 2.657 . S
N283 C284 1.334 . S
N283 C288 1.362 . S
C284 H276 0.929 . S
C284 N283 1.334 . S
C284 C287 1.413 . S
C285 H279 0.930 . S
C285 C286 1.392 . S
C285 C287 1.367 . S
C286 C285 1.392 . S
C286 C288 1.420 . S
C286 C318 1.423 . S
C287 H273 0.930 . S
C287 C284 1.413 . S
C287 C285 1.367 . S
C288 N283 1.362 . S
C288 C286 1.420 . S
C288 C292 1.429 . S
H289 C294 0.930 . S
N290 Eu252 2.609 . S
N290 C292 1.377 . S
N290 C293 1.321 . S
C291 H277 0.930 . S
C291 C293 1.400 . S
C291 C294 1.386 . S
C292 C288 1.429 . S
C292 N290 1.377 . S
C292 C295 1.411 . S
C293 H275 0.930 . S
C293 N290 1.321 . S
C293 C291 1.400 . S
C294 H289 0.930 . S
C294 C291 1.386 . S
C294 C295 1.395 . S
C295 C292 1.411 . S
C295 C294 1.395 . S
C295 C317 1.420 . S
O296 Eu252 2.558 . S
O296 C316 1.257 . S
O297 Eu252 2.612 . S
O297 Eu263 2.380 . S
O297 C308 1.276 . S
O298 Eu263 2.432 . S
O298 C315 1.264 . S
O299 Eu252 2.339 . S
O299 C315 1.254 . S
O300 Eu252 2.563 . S
O300 C308 1.235 . S
O301 Eu252 2.419 . S
O301 C316 1.249 . S
O302 Eu263 2.558 . S
O302 C327 1.257 . S
O303 Eu252 2.380 . S
O303 Eu263 2.612 . S
O303 C319 1.276 . S
O304 Eu252 2.432 . S
O304 C326 1.264 . S
O305 Eu263 2.339 . S
O305 C326 1.254 . S
O306 Eu263 2.563 . S
O306 C319 1.235 . S
O307 Eu263 2.419 . S
O307 C327 1.249 . S
C308 O297 1.276 . S
C308 O300 1.235 . S
C309 C311 1.393 . S
C309 C313 1.395 . S
C309 C316 1.492 . S
C310 C311 1.392 . S
C310 C312 1.386 . S
C311 C309 1.393 . S
C311 C310 1.392 . S
C311 H328 0.930 . S
C312 C310 1.386 . S
C312 C314 1.395 . S
C312 H329 0.930 . S
C313 C309 1.395 . S
C313 C314 1.379 . S
C313 H330 0.930 . S
C314 C312 1.395 . S
C314 C313 1.379 . S
C314 H331 0.930 . S
C315 O298 1.264 . S
C315 O299 1.254 . S
C316 Eu252 2.848 . S
C316 O296 1.257 . S
C316 O301 1.249 . S
C316 C309 1.492 . S
C317 H282 0.931 . S
C317 C295 1.420 . S
C317 C318 1.351 . S
C318 H280 0.930 . S
C318 C286 1.423 . S
C318 C317 1.351 . S
C319 O303 1.276 . S
C319 O306 1.235 . S
C320 C321 1.393 . S
C320 C324 1.395 . S
C320 C327 1.492 . S
C321 C320 1.393 . S
C321 C322 1.392 . S
C321 H332 0.930 . S
C322 C321 1.392 . S
C322 C323 1.386 . S
C323 C322 1.386 . S
C323 C325 1.395 . S
C323 H333 0.930 . S
C324 C320 1.395 . S
C324 C325 1.379 . S
C324 H334 0.930 . S
C325 C323 1.395 . S
C325 C324 1.379 . S
C325 H335 0.930 . S
C326 O304 1.264 . S
C326 O305 1.254 . S
C327 Eu263 2.848 . S
C327 O302 1.257 . S
C327 O307 1.249 . S
C327 C320 1.492 . S
H328 C311 0.930 . S
H329 C312 0.930 . S
H330 C313 0.930 . S
H331 C314 0.930 . S
H332 C321 0.930 . S
H333 C323 0.930 . S
H334 C324 0.930 . S
H335 C325 0.930 . S
Eu336 N367 2.657 . S
Eu336 N374 2.609 . S
Eu336 O380 2.558 . S
Eu336 O381 2.612 . S
Eu336 O383 2.339 . S
Eu336 O384 2.563 . S
Eu336 O385 2.419 . S
Eu336 O387 2.380 . S
Eu336 O388 2.432 . S
Eu336 C400 2.848 . S
C337 C340 1.429 . S
C337 C341 1.411 . S
C337 N344 1.377 . S
C338 C340 1.420 . S
C338 C342 1.423 . S
C338 C350 1.392 . S
C339 C341 1.420 . S
C339 C342 1.351 . S
C339 H362 0.931 . S
C340 C337 1.429 . S
C340 C338 1.420 . S
C340 N348 1.362 . S
C341 C337 1.411 . S
C341 C339 1.420 . S
C341 C346 1.395 . S
C342 C338 1.423 . S
C342 C339 1.351 . S
C342 H354 0.930 . S
C343 C345 1.400 . S
C343 C346 1.386 . S
C343 H355 0.930 . S
N344 C337 1.377 . S
N344 C345 1.321 . S
N344 Eu347 2.609 . S
C345 C343 1.400 . S
C345 N344 1.321 . S
C345 H352 0.930 . S
C346 C341 1.395 . S
C346 C343 1.386 . S
C346 H365 0.930 . S
Eu347 N344 2.609 . S
Eu347 N348 2.657 . S
Eu347 O381 2.380 . S
Eu347 O382 2.432 . S
Eu347 O386 2.558 . S
Eu347 O387 2.612 . S
Eu347 O389 2.339 . S
Eu347 O390 2.563 . S
Eu347 O391 2.419 . S
Eu347 C411 2.848 . S
N348 C340 1.362 . S
N348 Eu347 2.657 . S
N348 C349 1.334 . S
C349 N348 1.334 . S
C349 C351 1.413 . S
C349 H356 0.929 . S
C350 C338 1.392 . S
C350 C351 1.367 . S
C350 H358 0.930 . S
C351 C349 1.413 . S
C351 C350 1.367 . S
C351 H353 0.930 . S
H352 C345 0.930 . S
H353 C351 0.930 . S
H354 C342 0.930 . S
H355 C343 0.930 . S
H356 C349 0.929 . S
H357 C371 0.930 . S
H358 C350 0.930 . S
H359 C377 0.930 . S
H360 C368 0.929 . S
H361 C375 0.930 . S
H362 C339 0.931 . S
H363 C369 0.930 . S
H364 C402 0.930 . S
H365 C346 0.930 . S
H366 C401 0.931 . S
N367 Eu336 2.657 . S
N367 C368 1.334 . S
N367 C372 1.362 . S
C368 H360 0.929 . S
C368 N367 1.334 . S
C368 C371 1.413 . S
C369 H363 0.930 . S
C369 C370 1.392 . S
C369 C371 1.367 . S
C370 C369 1.392 . S
C370 C372 1.420 . S
C370 C402 1.423 . S
C371 H357 0.930 . S
C371 C368 1.413 . S
C371 C369 1.367 . S
C372 N367 1.362 . S
C372 C370 1.420 . S
C372 C376 1.429 . S
H373 C378 0.930 . S
N374 Eu336 2.609 . S
N374 C376 1.377 . S
N374 C377 1.321 . S
C375 H361 0.930 . S
C375 C377 1.400 . S
C375 C378 1.386 . S
C376 C372 1.429 . S
C376 N374 1.377 . S
C376 C379 1.411 . S
C377 H359 0.930 . S
C377 N374 1.321 . S
C377 C375 1.400 . S
C378 H373 0.930 . S
C378 C375 1.386 . S
C378 C379 1.395 . S
C379 C376 1.411 . S
C379 C378 1.395 . S
C379 C401 1.420 . S
O380 Eu336 2.558 . S
O380 C400 1.257 . S
O381 Eu336 2.612 . S
O381 Eu347 2.380 . S
O381 C392 1.276 . S
O382 Eu347 2.432 . S
O382 C399 1.264 . S
O383 Eu336 2.339 . S
O383 C399 1.254 . S
O384 Eu336 2.563 . S
O384 C392 1.235 . S
O385 Eu336 2.419 . S
O385 C400 1.249 . S
O386 Eu347 2.558 . S
O386 C411 1.257 . S
O387 Eu336 2.380 . S
O387 Eu347 2.612 . S
O387 C403 1.276 . S
O388 Eu336 2.432 . S
O388 C410 1.264 . S
O389 Eu347 2.339 . S
O389 C410 1.254 . S
O390 Eu347 2.563 . S
O390 C403 1.235 . S
O391 Eu347 2.419 . S
O391 C411 1.249 . S
C392 O381 1.276 . S
C392 O384 1.235 . S
C393 C395 1.393 . S
C393 C397 1.395 . S
C393 C400 1.492 . S
C394 C395 1.392 . S
C394 C396 1.386 . S
C395 C393 1.393 . S
C395 C394 1.392 . S
C395 H412 0.930 . S
C396 C394 1.386 . S
C396 C398 1.395 . S
C396 H413 0.930 . S
C397 C393 1.395 . S
C397 C398 1.379 . S
C397 H414 0.930 . S
C398 C396 1.395 . S
C398 C397 1.379 . S
C398 H415 0.930 . S
C399 O382 1.264 . S
C399 O383 1.254 . S
C400 Eu336 2.848 . S
C400 O380 1.257 . S
C400 O385 1.249 . S
C400 C393 1.492 . S
C401 H366 0.931 . S
C401 C379 1.420 . S
C401 C402 1.351 . S
C402 H364 0.930 . S
C402 C370 1.423 . S
C402 C401 1.351 . S
C403 O387 1.276 . S
C403 O390 1.235 . S
C404 C405 1.393 . S
C404 C408 1.395 . S
C404 C411 1.492 . S
C405 C404 1.393 . S
C405 C406 1.392 . S
C405 H416 0.930 . S
C406 C405 1.392 . S
C406 C407 1.386 . S
C407 C406 1.386 . S
C407 C409 1.395 . S
C407 H417 0.930 . S
C408 C404 1.395 . S
C408 C409 1.379 . S
C408 H418 0.930 . S
C409 C407 1.395 . S
C409 C408 1.379 . S
C409 H419 0.930 . S
C410 O388 1.264 . S
C410 O389 1.254 . S
C411 Eu347 2.848 . S
C411 O386 1.257 . S
C411 O391 1.249 . S
C411 C404 1.492 . S
H412 C395 0.930 . S
H413 C396 0.930 . S
H414 C397 0.930 . S
H415 C398 0.930 . S
H416 C405 0.930 . S
H417 C407 0.930 . S
H418 C408 0.930 . S
H419 C409 0.930 . S
Eu420 N451 2.657 . S
Eu420 N458 2.609 . S
Eu420 O464 2.558 . S
Eu420 O465 2.612 . S
Eu420 O467 2.339 . S
Eu420 O468 2.563 . S
Eu420 O469 2.419 . S
Eu420 O471 2.380 . S
Eu420 O472 2.432 . S
Eu420 C484 2.848 . S
C421 C424 1.429 . S
C421 C425 1.411 . S
C421 N428 1.377 . S
C422 C424 1.420 . S
C422 C426 1.423 . S
C422 C434 1.392 . S
C423 C425 1.420 . S
C423 C426 1.351 . S
C423 H446 0.931 . S
C424 C421 1.429 . S
C424 C422 1.420 . S
C424 N432 1.362 . S
C425 C421 1.411 . S
C425 C423 1.420 . S
C425 C430 1.395 . S
C426 C422 1.423 . S
C426 C423 1.351 . S
C426 H438 0.930 . S
C427 C429 1.400 . S
C427 C430 1.386 . S
C427 H439 0.930 . S
N428 C421 1.377 . S
N428 C429 1.321 . S
N428 Eu431 2.609 . S
C429 C427 1.400 . S
C429 N428 1.321 . S
C429 H436 0.930 . S
C430 C425 1.395 . S
C430 C427 1.386 . S
C430 H449 0.930 . S
Eu431 N428 2.609 . S
Eu431 N432 2.657 . S
Eu431 O465 2.380 . S
Eu431 O466 2.432 . S
Eu431 O470 2.558 . S
Eu431 O471 2.612 . S
Eu431 O473 2.339 . S
Eu431 O474 2.563 . S
Eu431 O475 2.419 . S
Eu431 C495 2.848 . S
N432 C424 1.362 . S
N432 Eu431 2.657 . S
N432 C433 1.334 . S
C433 N432 1.334 . S
C433 C435 1.413 . S
C433 H440 0.929 . S
C434 C422 1.392 . S
C434 C435 1.367 . S
C434 H442 0.930 . S
C435 C433 1.413 . S
C435 C434 1.367 . S
C435 H437 0.930 . S
H436 C429 0.930 . S
H437 C435 0.930 . S
H438 C426 0.930 . S
H439 C427 0.930 . S
H440 C433 0.929 . S
H441 C455 0.930 . S
H442 C434 0.930 . S
H443 C461 0.930 . S
H444 C452 0.929 . S
H445 C459 0.930 . S
H446 C423 0.931 . S
H447 C453 0.930 . S
H448 C486 0.930 . S
H449 C430 0.930 . S
H450 C485 0.931 . S
N451 Eu420 2.657 . S
N451 C452 1.334 . S
N451 C456 1.362 . S
C452 H444 0.929 . S
C452 N451 1.334 . S
C452 C455 1.413 . S
C453 H447 0.930 . S
C453 C454 1.392 . S
C453 C455 1.367 . S
C454 C453 1.392 . S
C454 C456 1.420 . S
C454 C486 1.423 . S
C455 H441 0.930 . S
C455 C452 1.413 . S
C455 C453 1.367 . S
C456 N451 1.362 . S
C456 C454 1.420 . S
C456 C460 1.429 . S
H457 C462 0.930 . S
N458 Eu420 2.609 . S
N458 C460 1.377 . S
N458 C461 1.321 . S
C459 H445 0.930 . S
C459 C461 1.400 . S
C459 C462 1.386 . S
C460 C456 1.429 . S
C460 N458 1.377 . S
C460 C463 1.411 . S
C461 H443 0.930 . S
C461 N458 1.321 . S
C461 C459 1.400 . S
C462 H457 0.930 . S
C462 C459 1.386 . S
C462 C463 1.395 . S
C463 C460 1.411 . S
C463 C462 1.395 . S
C463 C485 1.420 . S
O464 Eu420 2.558 . S
O464 C484 1.257 . S
O465 Eu420 2.612 . S
O465 Eu431 2.380 . S
O465 C476 1.276 . S
O466 Eu431 2.432 . S
O466 C483 1.264 . S
O467 Eu420 2.339 . S
O467 C483 1.254 . S
O468 Eu420 2.563 . S
O468 C476 1.235 . S
O469 Eu420 2.419 . S
O469 C484 1.249 . S
O470 Eu431 2.558 . S
O470 C495 1.257 . S
O471 Eu420 2.380 . S
O471 Eu431 2.612 . S
O471 C487 1.276 . S
O472 Eu420 2.432 . S
O472 C494 1.264 . S
O473 Eu431 2.339 . S
O473 C494 1.254 . S
O474 Eu431 2.563 . S
O474 C487 1.235 . S
O475 Eu431 2.419 . S
O475 C495 1.249 . S
C476 O465 1.276 . S
C476 O468 1.235 . S
C477 C479 1.393 . S
C477 C481 1.395 . S
C477 C484 1.492 . S
C478 C479 1.392 . S
C478 C480 1.386 . S
C479 C477 1.393 . S
C479 C478 1.392 . S
C479 H496 0.930 . S
C480 C478 1.386 . S
C480 C482 1.395 . S
C480 H497 0.930 . S
C481 C477 1.395 . S
C481 C482 1.379 . S
C481 H498 0.930 . S
C482 C480 1.395 . S
C482 C481 1.379 . S
C482 H499 0.930 . S
C483 O466 1.264 . S
C483 O467 1.254 . S
C484 Eu420 2.848 . S
C484 O464 1.257 . S
C484 O469 1.249 . S
C484 C477 1.492 . S
C485 H450 0.931 . S
C485 C463 1.420 . S
C485 C486 1.351 . S
C486 H448 0.930 . S
C486 C454 1.423 . S
C486 C485 1.351 . S
C487 O471 1.276 . S
C487 O474 1.235 . S
C488 C489 1.393 . S
C488 C492 1.395 . S
C488 C495 1.492 . S
C489 C488 1.393 . S
C489 C490 1.392 . S
C489 H500 0.930 . S
C490 C489 1.392 . S
C490 C491 1.386 . S
C491 C490 1.386 . S
C491 C493 1.395 . S
C491 H501 0.930 . S
C492 C488 1.395 . S
C492 C493 1.379 . S
C492 H502 0.930 . S
C493 C491 1.395 . S
C493 C492 1.379 . S
C493 H503 0.930 . S
C494 O472 1.264 . S
C494 O473 1.254 . S
C495 Eu431 2.848 . S
C495 O470 1.257 . S
C495 O475 1.249 . S
C495 C488 1.492 . S
H496 C479 0.930 . S
H497 C480 0.930 . S
H498 C481 0.930 . S
H499 C482 0.930 . S
H500 C489 0.930 . S
H501 C491 0.930 . S
H502 C492 0.930 . S
H503 C493 0.930 . S
Eu504 N535 2.657 . S
Eu504 N542 2.609 . S
Eu504 O548 2.558 . S
Eu504 O549 2.612 . S
Eu504 O551 2.339 . S
Eu504 O552 2.563 . S
Eu504 O553 2.419 . S
Eu504 O555 2.380 . S
Eu504 O556 2.432 . S
Eu504 C568 2.848 . S
C505 C508 1.429 . S
C505 C509 1.411 . S
C505 N512 1.377 . S
C506 C508 1.420 . S
C506 C510 1.423 . S
C506 C518 1.392 . S
C507 C509 1.420 . S
C507 C510 1.351 . S
C507 H530 0.931 . S
C508 C505 1.429 . S
C508 C506 1.420 . S
C508 N516 1.362 . S
C509 C505 1.411 . S
C509 C507 1.420 . S
C509 C514 1.395 . S
C510 C506 1.423 . S
C510 C507 1.351 . S
C510 H522 0.930 . S
C511 C513 1.400 . S
C511 C514 1.386 . S
C511 H523 0.930 . S
N512 C505 1.377 . S
N512 C513 1.321 . S
N512 Eu515 2.609 . S
C513 C511 1.400 . S
C513 N512 1.321 . S
C513 H520 0.930 . S
C514 C509 1.395 . S
C514 C511 1.386 . S
C514 H533 0.930 . S
Eu515 N512 2.609 . S
Eu515 N516 2.657 . S
Eu515 O549 2.380 . S
Eu515 O550 2.432 . S
Eu515 O554 2.558 . S
Eu515 O555 2.612 . S
Eu515 O557 2.339 . S
Eu515 O558 2.563 . S
Eu515 O559 2.419 . S
Eu515 C579 2.848 . S
N516 C508 1.362 . S
N516 Eu515 2.657 . S
N516 C517 1.334 . S
C517 N516 1.334 . S
C517 C519 1.413 . S
C517 H524 0.929 . S
C518 C506 1.392 . S
C518 C519 1.367 . S
C518 H526 0.930 . S
C519 C517 1.413 . S
C519 C518 1.367 . S
C519 H521 0.930 . S
H520 C513 0.930 . S
H521 C519 0.930 . S
H522 C510 0.930 . S
H523 C511 0.930 . S
H524 C517 0.929 . S
H525 C539 0.930 . S
H526 C518 0.930 . S
H527 C545 0.930 . S
H528 C536 0.929 . S
H529 C543 0.930 . S
H530 C507 0.931 . S
H531 C537 0.930 . S
H532 C570 0.930 . S
H533 C514 0.930 . S
H534 C569 0.931 . S
N535 Eu504 2.657 . S
N535 C536 1.334 . S
N535 C540 1.362 . S
C536 H528 0.929 . S
C536 N535 1.334 . S
C536 C539 1.413 . S
C537 H531 0.930 . S
C537 C538 1.392 . S
C537 C539 1.367 . S
C538 C537 1.392 . S
C538 C540 1.420 . S
C538 C570 1.423 . S
C539 H525 0.930 . S
C539 C536 1.413 . S
C539 C537 1.367 . S
C540 N535 1.362 . S
C540 C538 1.420 . S
C540 C544 1.429 . S
H541 C546 0.930 . S
N542 Eu504 2.609 . S
N542 C544 1.377 . S
N542 C545 1.321 . S
C543 H529 0.930 . S
C543 C545 1.400 . S
C543 C546 1.386 . S
C544 C540 1.429 . S
C544 N542 1.377 . S
C544 C547 1.411 . S
C545 H527 0.930 . S
C545 N542 1.321 . S
C545 C543 1.400 . S
C546 H541 0.930 . S
C546 C543 1.386 . S
C546 C547 1.395 . S
C547 C544 1.411 . S
C547 C546 1.395 . S
C547 C569 1.420 . S
O548 Eu504 2.558 . S
O548 C568 1.257 . S
O549 Eu504 2.612 . S
O549 Eu515 2.380 . S
O549 C560 1.276 . S
O550 Eu515 2.432 . S
O550 C567 1.264 . S
O551 Eu504 2.339 . S
O551 C567 1.254 . S
O552 Eu504 2.563 . S
O552 C560 1.235 . S
O553 Eu504 2.419 . S
O553 C568 1.249 . S
O554 Eu515 2.558 . S
O554 C579 1.257 . S
O555 Eu504 2.380 . S
O555 Eu515 2.612 . S
O555 C571 1.276 . S
O556 Eu504 2.432 . S
O556 C578 1.264 . S
O557 Eu515 2.339 . S
O557 C578 1.254 . S
O558 Eu515 2.563 . S
O558 C571 1.235 . S
O559 Eu515 2.419 . S
O559 C579 1.249 . S
C560 O549 1.276 . S
C560 O552 1.235 . S
C561 C563 1.393 . S
C561 C565 1.395 . S
C561 C568 1.492 . S
C562 C563 1.392 . S
C562 C564 1.386 . S
C563 C561 1.393 . S
C563 C562 1.392 . S
C563 H580 0.930 . S
C564 C562 1.386 . S
C564 C566 1.395 . S
C564 H581 0.930 . S
C565 C561 1.395 . S
C565 C566 1.379 . S
C565 H582 0.930 . S
C566 C564 1.395 . S
C566 C565 1.379 . S
C566 H583 0.930 . S
C567 O550 1.264 . S
C567 O551 1.254 . S
C568 Eu504 2.848 . S
C568 O548 1.257 . S
C568 O553 1.249 . S
C568 C561 1.492 . S
C569 H534 0.931 . S
C569 C547 1.420 . S
C569 C570 1.351 . S
C570 H532 0.930 . S
C570 C538 1.423 . S
C570 C569 1.351 . S
C571 O555 1.276 . S
C571 O558 1.235 . S
C572 C573 1.393 . S
C572 C576 1.395 . S
C572 C579 1.492 . S
C573 C572 1.393 . S
C573 C574 1.392 . S
C573 H584 0.930 . S
C574 C573 1.392 . S
C574 C575 1.386 . S
C575 C574 1.386 . S
C575 C577 1.395 . S
C575 H585 0.930 . S
C576 C572 1.395 . S
C576 C577 1.379 . S
C576 H586 0.930 . S
C577 C575 1.395 . S
C577 C576 1.379 . S
C577 H587 0.930 . S
C578 O556 1.264 . S
C578 O557 1.254 . S
C579 Eu515 2.848 . S
C579 O554 1.257 . S
C579 O559 1.249 . S
C579 C572 1.492 . S
H580 C563 0.930 . S
H581 C564 0.930 . S
H582 C565 0.930 . S
H583 C566 0.930 . S
H584 C573 0.930 . S
H585 C575 0.930 . S
H586 C576 0.930 . S
H587 C577 0.930 . S
Eu588 N619 2.657 . S
Eu588 N626 2.609 . S
Eu588 O632 2.558 . S
Eu588 O633 2.612 . S
Eu588 O635 2.339 . S
Eu588 O636 2.563 . S
Eu588 O637 2.419 . S
Eu588 O639 2.380 . S
Eu588 O640 2.432 . S
Eu588 C652 2.848 . S
C589 C592 1.429 . S
C589 C593 1.411 . S
C589 N596 1.377 . S
C590 C592 1.420 . S
C590 C594 1.423 . S
C590 C602 1.392 . S
C591 C593 1.420 . S
C591 C594 1.351 . S
C591 H614 0.931 . S
C592 C589 1.429 . S
C592 C590 1.420 . S
C592 N600 1.362 . S
C593 C589 1.411 . S
C593 C591 1.420 . S
C593 C598 1.395 . S
C594 C590 1.423 . S
C594 C591 1.351 . S
C594 H606 0.930 . S
C595 C597 1.400 . S
C595 C598 1.386 . S
C595 H607 0.930 . S
N596 C589 1.377 . S
N596 C597 1.321 . S
N596 Eu599 2.609 . S
C597 C595 1.400 . S
C597 N596 1.321 . S
C597 H604 0.930 . S
C598 C593 1.395 . S
C598 C595 1.386 . S
C598 H617 0.930 . S
Eu599 N596 2.609 . S
Eu599 N600 2.657 . S
Eu599 O633 2.380 . S
Eu599 O634 2.432 . S
Eu599 O638 2.558 . S
Eu599 O639 2.612 . S
Eu599 O641 2.339 . S
Eu599 O642 2.563 . S
Eu599 O643 2.419 . S
Eu599 C663 2.848 . S
N600 C592 1.362 . S
N600 Eu599 2.657 . S
N600 C601 1.334 . S
C601 N600 1.334 . S
C601 C603 1.413 . S
C601 H608 0.929 . S
C602 C590 1.392 . S
C602 C603 1.367 . S
C602 H610 0.930 . S
C603 C601 1.413 . S
C603 C602 1.367 . S
C603 H605 0.930 . S
H604 C597 0.930 . S
H605 C603 0.930 . S
H606 C594 0.930 . S
H607 C595 0.930 . S
H608 C601 0.929 . S
H609 C623 0.930 . S
H610 C602 0.930 . S
H611 C629 0.930 . S
H612 C620 0.929 . S
H613 C627 0.930 . S
H614 C591 0.931 . S
H615 C621 0.930 . S
H616 C654 0.930 . S
H617 C598 0.930 . S
H618 C653 0.931 . S
N619 Eu588 2.657 . S
N619 C620 1.334 . S
N619 C624 1.362 . S
C620 H612 0.929 . S
C620 N619 1.334 . S
C620 C623 1.413 . S
C621 H615 0.930 . S
C621 C622 1.392 . S
C621 C623 1.367 . S
C622 C621 1.392 . S
C622 C624 1.420 . S
C622 C654 1.423 . S
C623 H609 0.930 . S
C623 C620 1.413 . S
C623 C621 1.367 . S
C624 N619 1.362 . S
C624 C622 1.420 . S
C624 C628 1.429 . S
H625 C630 0.930 . S
N626 Eu588 2.609 . S
N626 C628 1.377 . S
N626 C629 1.321 . S
C627 H613 0.930 . S
C627 C629 1.400 . S
C627 C630 1.386 . S
C628 C624 1.429 . S
C628 N626 1.377 . S
C628 C631 1.411 . S
C629 H611 0.930 . S
C629 N626 1.321 . S
C629 C627 1.400 . S
C630 H625 0.930 . S
C630 C627 1.386 . S
C630 C631 1.395 . S
C631 C628 1.411 . S
C631 C630 1.395 . S
C631 C653 1.420 . S
O632 Eu588 2.558 . S
O632 C652 1.257 . S
O633 Eu588 2.612 . S
O633 Eu599 2.380 . S
O633 C644 1.276 . S
O634 Eu599 2.432 . S
O634 C651 1.264 . S
O635 Eu588 2.339 . S
O635 C651 1.254 . S
O636 Eu588 2.563 . S
O636 C644 1.235 . S
O637 Eu588 2.419 . S
O637 C652 1.249 . S
O638 Eu599 2.558 . S
O638 C663 1.257 . S
O639 Eu588 2.380 . S
O639 Eu599 2.612 . S
O639 C655 1.276 . S
O640 Eu588 2.432 . S
O640 C662 1.264 . S
O641 Eu599 2.339 . S
O641 C662 1.254 . S
O642 Eu599 2.563 . S
O642 C655 1.235 . S
O643 Eu599 2.419 . S
O643 C663 1.249 . S
C644 O633 1.276 . S
C644 O636 1.235 . S
C645 C647 1.393 . S
C645 C649 1.395 . S
C645 C652 1.492 . S
C646 C647 1.392 . S
C646 C648 1.386 . S
C647 C645 1.393 . S
C647 C646 1.392 . S
C647 H664 0.930 . S
C648 C646 1.386 . S
C648 C650 1.395 . S
C648 H665 0.930 . S
C649 C645 1.395 . S
C649 C650 1.379 . S
C649 H666 0.930 . S
C650 C648 1.395 . S
C650 C649 1.379 . S
C650 H667 0.930 . S
C651 O634 1.264 . S
C651 O635 1.254 . S
C652 Eu588 2.848 . S
C652 O632 1.257 . S
C652 O637 1.249 . S
C652 C645 1.492 . S
C653 H618 0.931 . S
C653 C631 1.420 . S
C653 C654 1.351 . S
C654 H616 0.930 . S
C654 C622 1.423 . S
C654 C653 1.351 . S
C655 O639 1.276 . S
C655 O642 1.235 . S
C656 C657 1.393 . S
C656 C660 1.395 . S
C656 C663 1.492 . S
C657 C656 1.393 . S
C657 C658 1.392 . S
C657 H668 0.930 . S
C658 C657 1.392 . S
C658 C659 1.386 . S
C659 C658 1.386 . S
C659 C661 1.395 . S
C659 H669 0.930 . S
C660 C656 1.395 . S
C660 C661 1.379 . S
C660 H670 0.930 . S
C661 C659 1.395 . S
C661 C660 1.379 . S
C661 H671 0.930 . S
C662 O640 1.264 . S
C662 O641 1.254 . S
C663 Eu599 2.848 . S
C663 O638 1.257 . S
C663 O643 1.249 . S
C663 C656 1.492 . S
H664 C647 0.930 . S
H665 C648 0.930 . S
H666 C649 0.930 . S
H667 C650 0.930 . S
H668 C657 0.930 . S
H669 C659 0.930 . S
H670 C660 0.930 . S
H671 C661 0.930 . S
Cd672 N675 2.334 1_655 S
Cd672 N701 2.304 1_565 S
Cd672 O708 2.268 . S
Cd672 O711 2.273 1_665 S
Cd672 O712 2.417 . S
Cd672 O713 2.330 . S
Cd673 N688 2.304 1_455 S
Cd673 N692 2.334 1_545 S
Cd673 O709 2.273 1_445 S
Cd673 O710 2.268 . S
Cd673 O714 2.417 . S
Cd673 O715 2.330 . S
C674 N675 1.332 . S
C674 C678 1.381 . S
C674 H680 0.931 . S
N675 Cd672 2.334 1_455 S
N675 C674 1.332 . S
N675 C679 1.328 . S
C676 C677 1.396 . S
C676 C679 1.378 . S
C676 H718 0.931 . S
C677 C676 1.396 . S
C677 C678 1.382 . S
C678 C674 1.381 . S
C678 C677 1.382 . S
C678 H719 0.930 . S
C679 N675 1.328 . S
C679 C676 1.378 . S
C679 H681 0.930 1_455 S
H680 C674 0.931 . S
H681 C679 0.930 1_655 S
C682 O708 1.238 . S
C682 O709 1.253 . S
C683 C684 1.379 . S
C683 N688 1.337 . S
C683 H689 0.929 . S
C684 C683 1.379 . S
C684 C685 1.380 . S
C684 H720 0.929 . S
C685 C684 1.380 . S
C685 C686 1.399 . S
C686 C685 1.399 . S
C686 C687 1.376 1_655 S
C686 H721 0.931 . S
C687 C686 1.376 1_455 S
C687 N688 1.338 1_455 S
C687 H690 0.930 . S
N688 Cd673 2.304 1_655 S
N688 C683 1.337 . S
N688 C687 1.338 1_655 S
H689 C683 0.929 . S
H690 C687 0.930 . S
C691 N692 1.332 . S
C691 C695 1.381 . S
C691 H697 0.931 . S
N692 Cd673 2.334 1_565 S
N692 C691 1.332 . S
N692 C696 1.328 1_565 S
C693 C694 1.396 . S
C693 C696 1.378 1_565 S
C693 H722 0.931 . S
C694 C693 1.396 . S
C694 C695 1.382 . S
C695 C691 1.381 . S
C695 C694 1.382 . S
C695 H723 0.930 . S
C696 N692 1.328 1_545 S
C696 C693 1.378 1_545 S
C696 H698 0.930 . S
H697 C691 0.931 . S
H698 C696 0.930 . S
C699 O710 1.238 . S
C699 O711 1.253 . S
C700 O712 1.239 . S
C700 O713 1.230 . S
N701 Cd672 2.304 1_545 S
N701 C702 1.337 . S
N701 C706 1.338 1_545 S
C702 N701 1.337 . S
C702 C703 1.379 . S
C702 H716 0.929 . S
C703 C702 1.379 . S
C703 C704 1.380 . S
C703 H724 0.929 . S
C704 C703 1.380 . S
C704 C705 1.399 . S
C705 C704 1.399 . S
C705 C706 1.376 1_545 S
C705 H725 0.931 . S
C706 N701 1.338 1_565 S
C706 C705 1.376 1_565 S
C706 H717 0.930 . S
C707 O714 1.239 . S
C707 O715 1.230 . S
O708 Cd672 2.268 . S
O708 C682 1.238 . S
O709 Cd673 2.273 1_665 S
O709 C682 1.253 . S
O710 Cd673 2.268 . S
O710 C699 1.238 . S
O711 Cd672 2.273 1_445 S
O711 C699 1.253 . S
O712 Cd672 2.417 . S
O712 C700 1.239 . S
O713 Cd672 2.330 . S
O713 C700 1.230 . S
O714 Cd673 2.417 . S
O714 C707 1.239 . S
O715 Cd673 2.330 . S
O715 C707 1.230 . S
H716 C702 0.929 . S
H717 C706 0.930 . S
H718 C676 0.931 . S
H719 C678 0.930 . S
H720 C684 0.929 . S
H721 C686 0.931 . S
H722 C693 0.931 . S
H723 C695 0.930 . S
H724 C703 0.929 . S
H725 C705 0.931 . S
Cd726 N729 2.334 . S
Cd726 N755 2.304 1_565 S
Cd726 O762 2.268 1_554 S
Cd726 O765 2.273 1_565 S
Cd726 O766 2.417 . S
Cd726 O767 2.330 . S
Cd727 N742 2.304 . S
Cd727 N746 2.334 1_545 S
Cd727 O763 2.273 1_545 S
Cd727 O764 2.268 1_556 S
Cd727 O768 2.417 . S
Cd727 O769 2.330 . S
C728 N729 1.332 . S
C728 C732 1.381 . S
C728 H734 0.931 . S
N729 Cd726 2.334 . S
N729 C728 1.332 . S
N729 C733 1.328 . S
C730 C731 1.396 . S
C730 C733 1.378 . S
C730 H772 0.931 . S
C731 C730 1.396 . S
C731 C732 1.382 . S
C732 C728 1.381 . S
C732 C731 1.382 . S
C732 H773 0.930 . S
C733 N729 1.328 . S
C733 C730 1.378 . S
C733 H735 0.921 1_554 S
H734 C728 0.931 . S
H735 C733 0.921 1_556 S
C736 O762 1.238 . S
C736 O763 1.253 . S
C737 C738 1.379 . S
C737 N742 1.337 . S
C737 H743 0.929 . S
C738 C737 1.379 . S
C738 C739 1.380 . S
C738 H774 0.929 . S
C739 C738 1.380 . S
C739 C740 1.399 . S
C740 C739 1.399 . S
C740 C741 1.376 . S
C740 H775 0.931 . S
C741 C740 1.376 . S
C741 N742 1.338 . S
C741 H744 0.930 1_556 S
N742 Cd727 2.304 . S
N742 C737 1.337 . S
N742 C741 1.338 . S
H743 C737 0.929 . S
H744 C741 0.930 1_554 S
C745 N746 1.332 . S
C745 C749 1.381 . S
C745 H751 0.931 . S
N746 Cd727 2.334 1_565 S
N746 C745 1.332 . S
N746 C750 1.328 1_565 S
C747 C748 1.396 1_554 S
C747 C750 1.378 1_564 S
C747 H776 0.931 . S
C748 C747 1.396 1_556 S
C748 C749 1.382 . S
C749 C745 1.381 . S
C749 C748 1.382 . S
C749 H777 0.930 . S
C750 N746 1.328 1_545 S
C750 C747 1.378 1_546 S
C750 H752 0.930 1_556 S
H751 C745 0.931 . S
H752 C750 0.930 1_554 S
C753 O764 1.238 . S
C753 O765 1.253 . S
C754 O766 1.239 . S
C754 O767 1.230 . S
N755 Cd726 2.304 1_545 S
N755 C756 1.337 . S
N755 C760 1.338 1_545 S
C756 N755 1.337 . S
C756 C757 1.379 . S
C756 H770 0.929 . S
C757 C756 1.379 . S
C757 C758 1.380 . S
C757 H778 0.929 . S
C758 C757 1.380 . S
C758 C759 1.399 1_554 S
C759 C758 1.399 1_556 S
C759 C760 1.376 1_546 S
C759 H779 0.931 . S
C760 N755 1.338 1_565 S
C760 C759 1.376 1_564 S
C760 H771 0.930 1_554 S
C761 O768 1.239 . S
C761 O769 1.230 . S
O762 Cd726 2.268 1_556 S
O762 C736 1.238 . S
O763 Cd727 2.273 1_565 S
O763 C736 1.253 . S
O764 Cd727 2.268 1_554 S
O764 C753 1.238 . S
O765 Cd726 2.273 1_545 S
O765 C753 1.253 . S
O766 Cd726 2.417 . S
O766 C754 1.239 . S
O767 Cd726 2.330 . S
O767 C754 1.230 . S
O768 Cd727 2.417 . S
O768 C761 1.239 . S
O769 Cd727 2.330 . S
O769 C761 1.230 . S
H770 C756 0.929 . S
H771 C760 0.930 1_556 S
H772 C730 0.931 . S
H773 C732 0.930 . S
H774 C738 0.929 . S
H775 C740 0.931 . S
H776 C747 0.931 . S
H777 C749 0.930 . S
H778 C757 0.929 . S
H779 C759 0.931 . S
Cd780 N783 2.334 1_655 S
Cd780 N809 2.304 . S
Cd780 O816 2.268 1_554 S
Cd780 O819 2.273 1_655 S
Cd780 O820 2.417 . S
Cd780 O821 2.330 . S
Cd781 N796 2.304 1_455 S
Cd781 N800 2.334 . S
Cd781 O817 2.273 1_455 S
Cd781 O818 2.268 1_556 S
Cd781 O822 2.417 . S
Cd781 O823 2.330 . S
C782 N783 1.332 . S
C782 C786 1.381 . S
C782 H788 0.931 . S
N783 Cd780 2.334 1_455 S
N783 C782 1.332 . S
N783 C787 1.328 . S
C784 C785 1.396 . S
C784 C787 1.378 . S
C784 H826 0.931 . S
C785 C784 1.396 . S
C785 C786 1.382 . S
C786 C782 1.381 . S
C786 C785 1.382 . S
C786 H827 0.930 . S
C787 N783 1.328 . S
C787 C784 1.378 . S
C787 H789 0.920 1_454 S
H788 C782 0.931 . S
H789 C787 0.920 1_656 S
C790 O816 1.238 . S
C790 O817 1.253 . S
C791 C792 1.379 . S
C791 N796 1.337 . S
C791 H797 0.929 . S
C792 C791 1.379 . S
C792 C793 1.380 . S
C792 H828 0.929 . S
C793 C792 1.380 . S
C793 C794 1.399 . S
C794 C793 1.399 . S
C794 C795 1.376 1_655 S
C794 H829 0.931 . S
C795 C794 1.376 1_455 S
C795 N796 1.338 1_455 S
C795 H798 0.930 1_556 S
N796 Cd781 2.304 1_655 S
N796 C791 1.337 . S
N796 C795 1.338 1_655 S
H797 C791 0.929 . S
H798 C795 0.930 1_554 S
C799 N800 1.332 . S
C799 C803 1.381 . S
C799 H805 0.931 . S
N800 Cd781 2.334 . S
N800 C799 1.332 . S
N800 C804 1.328 . S
C801 C802 1.396 1_554 S
C801 C804 1.378 1_554 S
C801 H830 0.931 . S
C802 C801 1.396 1_556 S
C802 C803 1.382 . S
C803 C799 1.381 . S
C803 C802 1.382 . S
C803 H831 0.930 . S
C804 N800 1.328 . S
C804 C801 1.378 1_556 S
C804 H806 0.930 1_556 S
H805 C799 0.931 . S
H806 C804 0.930 1_554 S
C807 O818 1.238 . S
C807 O819 1.253 . S
C808 O820 1.239 . S
C808 O821 1.230 . S
N809 Cd780 2.304 . S
N809 C810 1.337 . S
N809 C814 1.338 . S
C810 N809 1.337 . S
C810 C811 1.379 . S
C810 H824 0.929 . S
C811 C810 1.379 . S
C811 C812 1.380 . S
C811 H832 0.929 . S
C812 C811 1.380 . S
C812 C813 1.399 1_554 S
C813 C812 1.399 1_556 S
C813 C814 1.376 1_556 S
C813 H833 0.931 . S
C814 N809 1.338 . S
C814 C813 1.376 1_554 S
C814 H825 0.930 1_554 S
C815 O822 1.239 . S
C815 O823 1.230 . S
O816 Cd780 2.268 1_556 S
O816 C790 1.238 . S
O817 Cd781 2.273 1_655 S
O817 C790 1.253 . S
O818 Cd781 2.268 1_554 S
O818 C807 1.238 . S
O819 Cd780 2.273 1_455 S
O819 C807 1.253 . S
O820 Cd780 2.417 . S
O820 C808 1.239 . S
O821 Cd780 2.330 . S
O821 C808 1.230 . S
O822 Cd781 2.417 . S
O822 C815 1.239 . S
O823 Cd781 2.330 . S
O823 C815 1.230 . S
H824 C810 0.929 . S
H825 C814 0.930 1_556 S
H826 C784 0.931 . S
H827 C786 0.930 . S
H828 C792 0.929 . S
H829 C794 0.931 . S
H830 C801 0.931 . S
H831 C803 0.930 . S
H832 C811 0.929 . S
H833 C813 0.931 . S
Cd834 N837 2.334 . S
Cd834 N863 2.304 . S
Cd834 O870 2.268 1_554 S
Cd834 O873 2.273 . S
Cd834 O874 2.417 . S
Cd834 O875 2.330 . S
Cd835 N850 2.304 . S
Cd835 N854 2.334 . S
Cd835 O871 2.273 . S
Cd835 O872 2.268 1_556 S
Cd835 O876 2.417 . S
Cd835 O877 2.330 . S
C836 N837 1.332 . S
C836 C840 1.381 . S
C836 H842 0.931 . S
N837 Cd834 2.334 . S
N837 C836 1.332 . S
N837 C841 1.328 . S
C838 C839 1.396 . S
C838 C841 1.378 . S
C838 H880 0.931 . S
C839 C838 1.396 . S
C839 C840 1.382 . S
C840 C836 1.381 . S
C840 C839 1.382 . S
C840 H881 0.930 . S
C841 N837 1.328 . S
C841 C838 1.378 . S
C841 H843 0.920 1_554 S
H842 C836 0.931 . S
H843 C841 0.920 1_556 S
C844 O870 1.238 . S
C844 O871 1.253 . S
C845 C846 1.379 . S
C845 N850 1.337 . S
C845 H851 0.929 . S
C846 C845 1.379 . S
C846 C847 1.380 . S
C846 H882 0.929 . S
C847 C846 1.380 . S
C847 C848 1.399 . S
C848 C847 1.399 . S
C848 C849 1.376 . S
C848 H883 0.931 . S
C849 C848 1.376 . S
C849 N850 1.338 . S
C849 H852 0.930 1_556 S
N850 Cd835 2.304 . S
N850 C845 1.337 . S
N850 C849 1.338 . S
H851 C845 0.929 . S
H852 C849 0.930 1_554 S
C853 N854 1.332 . S
C853 C857 1.381 . S
C853 H859 0.931 . S
N854 Cd835 2.334 . S
N854 C853 1.332 . S
N854 C858 1.328 . S
C855 C856 1.396 1_554 S
C855 C858 1.378 1_554 S
C855 H884 0.931 . S
C856 C855 1.396 1_556 S
C856 C857 1.382 . S
C857 C853 1.381 . S
C857 C856 1.382 . S
C857 H885 0.930 . S
C858 N854 1.328 . S
C858 C855 1.378 1_556 S
C858 H860 0.930 1_556 S
H859 C853 0.931 . S
H860 C858 0.930 1_554 S
C861 O872 1.238 . S
C861 O873 1.253 . S
C862 O874 1.239 . S
C862 O875 1.230 . S
N863 Cd834 2.304 . S
N863 C864 1.337 . S
N863 C868 1.338 . S
C864 N863 1.337 . S
C864 C865 1.379 . S
C864 H878 0.929 . S
C865 C864 1.379 . S
C865 C866 1.380 . S
C865 H886 0.929 . S
C866 C865 1.380 . S
C866 C867 1.399 1_554 S
C867 C866 1.399 1_556 S
C867 C868 1.376 1_556 S
C867 H887 0.931 . S
C868 N863 1.338 . S
C868 C867 1.376 1_554 S
C868 H879 0.930 1_554 S
C869 O876 1.239 . S
C869 O877 1.230 . S
O870 Cd834 2.268 1_556 S
O870 C844 1.238 . S
O871 Cd835 2.273 . S
O871 C844 1.253 . S
O872 Cd835 2.268 1_554 S
O872 C861 1.238 . S
O873 Cd834 2.273 . S
O873 C861 1.253 . S
O874 Cd834 2.417 . S
O874 C862 1.239 . S
O875 Cd834 2.330 . S
O875 C862 1.230 . S
O876 Cd835 2.417 . S
O876 C869 1.239 . S
O877 Cd835 2.330 . S
O877 C869 1.230 . S
H878 C864 0.929 . S
H879 C868 0.930 1_556 S
H880 C838 0.931 . S
H881 C840 0.930 . S
H882 C846 0.929 . S
H883 C848 0.931 . S
H884 C855 0.931 . S
H885 C857 0.930 . S
H886 C865 0.929 . S
H887 C867 0.931 . S
Cd888 N891 2.334 1_655 S
Cd888 N917 2.304 . S
Cd888 O924 2.268 . S
Cd888 O927 2.273 1_655 S
Cd888 O928 2.417 . S
Cd888 O929 2.330 . S
Cd889 N904 2.304 1_455 S
Cd889 N908 2.334 . S
Cd889 O925 2.273 1_455 S
Cd889 O926 2.268 . S
Cd889 O930 2.417 . S
Cd889 O931 2.330 . S
C890 N891 1.332 . S
C890 C894 1.381 . S
C890 H896 0.931 . S
N891 Cd888 2.334 1_455 S
N891 C890 1.332 . S
N891 C895 1.328 . S
C892 C893 1.396 . S
C892 C895 1.378 . S
C892 H934 0.931 . S
C893 C892 1.396 . S
C893 C894 1.382 . S
C894 C890 1.381 . S
C894 C893 1.382 . S
C894 H935 0.930 . S
C895 N891 1.328 . S
C895 C892 1.378 . S
C895 H897 0.930 1_455 S
H896 C890 0.931 . S
H897 C895 0.930 1_655 S
C898 O924 1.238 . S
C898 O925 1.253 . S
C899 C900 1.379 . S
C899 N904 1.337 . S
C899 H905 0.929 . S
C900 C899 1.379 . S
C900 C901 1.380 . S
C900 H936 0.929 . S
C901 C900 1.380 . S
C901 C902 1.399 . S
C902 C901 1.399 . S
C902 C903 1.376 1_655 S
C902 H937 0.931 . S
C903 C902 1.376 1_455 S
C903 N904 1.338 1_455 S
C903 H906 0.930 . S
N904 Cd889 2.304 1_655 S
N904 C899 1.337 . S
N904 C903 1.338 1_655 S
H905 C899 0.929 . S
H906 C903 0.930 . S
C907 N908 1.332 . S
C907 C911 1.381 . S
C907 H913 0.931 . S
N908 Cd889 2.334 . S
N908 C907 1.332 . S
N908 C912 1.328 . S
C909 C910 1.396 . S
C909 C912 1.378 . S
C909 H938 0.931 . S
C910 C909 1.396 . S
C910 C911 1.382 . S
C911 C907 1.381 . S
C911 C910 1.382 . S
C911 H939 0.930 . S
C912 N908 1.328 . S
C912 C909 1.378 . S
C912 H914 0.930 . S
H913 C907 0.931 . S
H914 C912 0.930 . S
C915 O926 1.238 . S
C915 O927 1.253 . S
C916 O928 1.239 . S
C916 O929 1.230 . S
N917 Cd888 2.304 . S
N917 C918 1.337 . S
N917 C922 1.338 . S
C918 N917 1.337 . S
C918 C919 1.379 . S
C918 H932 0.929 . S
C919 C918 1.379 . S
C919 C920 1.380 . S
C919 H940 0.929 . S
C920 C919 1.380 . S
C920 C921 1.399 . S
C921 C920 1.399 . S
C921 C922 1.376 . S
C921 H941 0.931 . S
C922 N917 1.338 . S
C922 C921 1.376 . S
C922 H933 0.930 . S
C923 O930 1.239 . S
C923 O931 1.230 . S
O924 Cd888 2.268 . S
O924 C898 1.238 . S
O925 Cd889 2.273 1_655 S
O925 C898 1.253 . S
O926 Cd889 2.268 . S
O926 C915 1.238 . S
O927 Cd888 2.273 1_455 S
O927 C915 1.253 . S
O928 Cd888 2.417 . S
O928 C916 1.239 . S
O929 Cd888 2.330 . S
O929 C916 1.230 . S
O930 Cd889 2.417 . S
O930 C923 1.239 . S
O931 Cd889 2.330 . S
O931 C923 1.230 . S
H932 C918 0.929 . S
H933 C922 0.930 . S
H934 C892 0.931 . S
H935 C894 0.930 . S
H936 C900 0.929 . S
H937 C902 0.931 . S
H938 C909 0.931 . S
H939 C911 0.930 . S
H940 C919 0.929 . S
H941 C921 0.931 . S
Cd942 N945 2.334 . S
Cd942 N971 2.304 1_565 S
Cd942 O978 2.268 . S
Cd942 O981 2.273 1_565 S
Cd942 O982 2.417 . S
Cd942 O983 2.330 . S
Cd943 N958 2.304 . S
Cd943 N962 2.334 1_545 S
Cd943 O979 2.273 1_545 S
Cd943 O980 2.268 . S
Cd943 O984 2.417 . S
Cd943 O985 2.330 . S
C944 N945 1.332 . S
C944 C948 1.381 . S
C944 H950 0.931 . S
N945 Cd942 2.334 . S
N945 C944 1.332 . S
N945 C949 1.328 . S
C946 C947 1.396 . S
C946 C949 1.378 . S
C946 H988 0.931 . S
C947 C946 1.396 . S
C947 C948 1.382 . S
C948 C944 1.381 . S
C948 C947 1.382 . S
C948 H989 0.930 . S
C949 N945 1.328 . S
C949 C946 1.378 . S
C949 H951 0.930 . S
H950 C944 0.931 . S
H951 C949 0.930 . S
C952 O978 1.238 . S
C952 O979 1.253 . S
C953 C954 1.379 . S
C953 N958 1.337 . S
C953 H959 0.929 . S
C954 C953 1.379 . S
C954 C955 1.380 . S
C954 H990 0.929 . S
C955 C954 1.380 . S
C955 C956 1.399 . S
C956 C955 1.399 . S
C956 C957 1.376 . S
C956 H991 0.931 . S
C957 C956 1.376 . S
C957 N958 1.338 . S
C957 H960 0.930 . S
N958 Cd943 2.304 . S
N958 C953 1.337 . S
N958 C957 1.338 . S
H959 C953 0.929 . S
H960 C957 0.930 . S
C961 N962 1.332 . S
C961 C965 1.381 . S
C961 H967 0.931 . S
N962 Cd943 2.334 1_565 S
N962 C961 1.332 . S
N962 C966 1.328 1_565 S
C963 C964 1.396 . S
C963 C966 1.378 1_565 S
C963 H992 0.931 . S
C964 C963 1.396 . S
C964 C965 1.382 . S
C965 C961 1.381 . S
C965 C964 1.382 . S
C965 H993 0.930 . S
C966 N962 1.328 1_545 S
C966 C963 1.378 1_545 S
C966 H968 0.930 . S
H967 C961 0.931 . S
H968 C966 0.930 . S
C969 O980 1.238 . S
C969 O981 1.253 . S
C970 O982 1.239 . S
C970 O983 1.230 . S
N971 Cd942 2.304 1_545 S
N971 C972 1.337 . S
N971 C976 1.338 1_545 S
C972 N971 1.337 . S
C972 C973 1.379 . S
C972 H986 0.929 . S
C973 C972 1.379 . S
C973 C974 1.380 . S
C973 H994 0.929 . S
C974 C973 1.380 . S
C974 C975 1.399 . S
C975 C974 1.399 . S
C975 C976 1.376 1_545 S
C975 H995 0.931 . S
C976 N971 1.338 1_565 S
C976 C975 1.376 1_565 S
C976 H987 0.930 . S
C977 O984 1.239 . S
C977 O985 1.230 . S
O978 Cd942 2.268 . S
O978 C952 1.238 . S
O979 Cd943 2.273 1_565 S
O979 C952 1.253 . S
O980 Cd943 2.268 . S
O980 C969 1.238 . S
O981 Cd942 2.273 1_545 S
O981 C969 1.253 . S
O982 Cd942 2.417 . S
O982 C970 1.239 . S
O983 Cd942 2.330 . S
O983 C970 1.230 . S
O984 Cd943 2.417 . S
O984 C977 1.239 . S
O985 Cd943 2.330 . S
O985 C977 1.230 . S
H986 C972 0.929 . S
H987 C976 0.930 . S
H988 C946 0.931 . S
H989 C948 0.930 . S
H990 C954 0.929 . S
H991 C956 0.931 . S
H992 C963 0.931 . S
H993 C965 0.930 . S
H994 C973 0.929 . S
H995 C975 0.931 . S
C996 C997 1.369 . S
C996 C998 1.419 . S
C996 H1000 0.930 . S
C997 C996 1.369 . S
C997 C1006 1.429 . S
C998 C996 1.419 . S
C998 C999 1.363 . S
C998 H1001 0.929 . S
C999 C998 1.363 . S
C999 C1005 1.428 . S
H1000 C996 0.930 . S
H1001 C998 0.929 . S
S1002 N1003 1.613 . S
S1002 N1004 1.610 . S
N1003 S1002 1.613 . S
N1003 C1006 1.350 . S
N1004 S1002 1.610 . S
N1004 C1005 1.351 . S
C1005 C999 1.428 . S
C1005 N1004 1.351 . S
C1005 C1006 1.434 . S
C1006 C997 1.429 . S
C1006 N1003 1.350 . S
C1006 C1005 1.434 . S
C1007 C1008 1.369 . S
C1007 C1009 1.419 . S
C1007 H1011 0.930 . S
C1008 C1007 1.369 . S
C1008 C1017 1.429 . S
C1009 C1007 1.419 . S
C1009 C1010 1.363 . S
C1009 H1012 0.929 . S
C1010 C1009 1.363 . S
C1010 C1016 1.428 . S
H1011 C1007 0.930 . S
H1012 C1009 0.929 . S
S1013 N1014 1.613 . S
S1013 N1015 1.610 . S
N1014 S1013 1.613 . S
N1014 C1017 1.350 . S
N1015 S1013 1.610 . S
N1015 C1016 1.351 . S
C1016 C1010 1.428 . S
C1016 N1015 1.351 . S
C1016 C1017 1.434 . S
C1017 C1008 1.429 . S
C1017 N1014 1.350 . S
C1017 C1016 1.434 . S
C1018 C1019 1.369 . S
C1018 C1020 1.419 . S
C1018 H1022 0.930 . S
C1019 C1018 1.369 . S
C1019 C1028 1.429 . S
C1020 C1018 1.419 . S
C1020 C1021 1.363 . S
C1020 H1023 0.929 . S
C1021 C1020 1.363 . S
C1021 C1027 1.428 . S
H1022 C1018 0.930 . S
H1023 C1020 0.929 . S
S1024 N1025 1.613 . S
S1024 N1026 1.610 . S
N1025 S1024 1.613 . S
N1025 C1028 1.350 . S
N1026 S1024 1.610 . S
N1026 C1027 1.351 . S
C1027 C1021 1.428 . S
C1027 N1026 1.351 . S
C1027 C1028 1.434 . S
C1028 C1019 1.429 . S
C1028 N1025 1.350 . S
C1028 C1027 1.434 . S
C1029 C1030 1.369 . S
C1029 C1031 1.419 . S
C1029 H1033 0.930 . S
C1030 C1029 1.369 . S
C1030 C1039 1.429 . S
C1031 C1029 1.419 . S
C1031 C1032 1.363 . S
C1031 H1034 0.929 . S
C1032 C1031 1.363 . S
C1032 C1038 1.428 . S
H1033 C1029 0.930 . S
H1034 C1031 0.929 . S
S1035 N1036 1.613 . S
S1035 N1037 1.610 . S
N1036 S1035 1.613 . S
N1036 C1039 1.350 . S
N1037 S1035 1.610 . S
N1037 C1038 1.351 . S
C1038 C1032 1.428 . S
C1038 N1037 1.351 . S
C1038 C1039 1.434 . S
C1039 C1030 1.429 . S
C1039 N1036 1.350 . S
C1039 C1038 1.434 . S
C1040 C1041 1.369 . S
C1040 C1042 1.419 . S
C1040 H1044 0.930 . S
C1041 C1040 1.369 . S
C1041 C1050 1.429 . S
C1042 C1040 1.419 . S
C1042 C1043 1.363 . S
C1042 H1045 0.929 . S
C1043 C1042 1.363 . S
C1043 C1049 1.428 . S
H1044 C1040 0.930 . S
H1045 C1042 0.929 . S
S1046 N1047 1.613 . S
S1046 N1048 1.610 . S
N1047 S1046 1.613 . S
N1047 C1050 1.350 . S
N1048 S1046 1.610 . S
N1048 C1049 1.351 . S
C1049 C1043 1.428 . S
C1049 N1048 1.351 . S
C1049 C1050 1.434 . S
C1050 C1041 1.429 . S
C1050 N1047 1.350 . S
C1050 C1049 1.434 . S
C1051 C1052 1.369 . S
C1051 C1053 1.419 . S
C1051 H1055 0.930 . S
C1052 C1051 1.369 . S
C1052 C1061 1.429 . S
C1053 C1051 1.419 . S
C1053 C1054 1.363 . S
C1053 H1056 0.929 . S
C1054 C1053 1.363 . S
C1054 C1060 1.428 . S
H1055 C1051 0.930 . S
H1056 C1053 0.929 . S
S1057 N1058 1.613 . S
S1057 N1059 1.610 . S
N1058 S1057 1.613 . S
N1058 C1061 1.350 . S
N1059 S1057 1.610 . S
N1059 C1060 1.351 . S
C1060 C1054 1.428 . S
C1060 N1059 1.351 . S
C1060 C1061 1.434 . S
C1061 C1052 1.429 . S
C1061 N1058 1.350 . S
C1061 C1060 1.434 . S
C1062 C1063 1.369 . S
C1062 C1064 1.419 . S
C1062 H1066 0.930 . S
C1063 C1062 1.369 . S
C1063 C1072 1.429 . S
C1064 C1062 1.419 . S
C1064 C1065 1.363 . S
C1064 H1067 0.929 . S
C1065 C1064 1.363 . S
C1065 C1071 1.428 . S
H1066 C1062 0.930 . S
H1067 C1064 0.929 . S
S1068 N1069 1.613 . S
S1068 N1070 1.610 . S
N1069 S1068 1.613 . S
N1069 C1072 1.350 . S
N1070 S1068 1.610 . S
N1070 C1071 1.351 . S
C1071 C1065 1.428 . S
C1071 N1070 1.351 . S
C1071 C1072 1.434 . S
C1072 C1063 1.429 . S
C1072 N1069 1.350 . S
C1072 C1071 1.434 . S
C1073 C1074 1.369 . S
C1073 C1075 1.419 . S
C1073 H1077 0.930 . S
C1074 C1073 1.369 . S
C1074 C1083 1.429 . S
C1075 C1073 1.419 . S
C1075 C1076 1.363 . S
C1075 H1078 0.929 . S
C1076 C1075 1.363 . S
C1076 C1082 1.428 . S
H1077 C1073 0.930 . S
H1078 C1075 0.929 . S
S1079 N1080 1.613 . S
S1079 N1081 1.610 . S
N1080 S1079 1.613 . S
N1080 C1083 1.350 . S
N1081 S1079 1.610 . S
N1081 C1082 1.351 . S
C1082 C1076 1.428 . S
C1082 N1081 1.351 . S
C1082 C1083 1.434 . S
C1083 C1074 1.429 . S
C1083 N1080 1.350 . S
C1083 C1082 1.434 . S
C1084 C1085 1.369 . S
C1084 C1086 1.419 . S
C1084 H1088 0.930 . S
C1085 C1084 1.369 . S
C1085 C1094 1.429 . S
C1086 C1084 1.419 . S
C1086 C1087 1.363 . S
C1086 H1089 0.929 . S
C1087 C1086 1.363 . S
C1087 C1093 1.428 . S
H1088 C1084 0.930 . S
H1089 C1086 0.929 . S
S1090 N1091 1.613 1_565 S
S1090 N1092 1.610 . S
N1091 S1090 1.613 1_545 S
N1091 C1094 1.350 . S
N1092 S1090 1.610 . S
N1092 C1093 1.351 1_565 S
C1093 C1087 1.428 . S
C1093 N1092 1.351 1_545 S
C1093 C1094 1.434 . S
C1094 C1085 1.429 . S
C1094 N1091 1.350 . S
C1094 C1093 1.434 . S
C1095 C1096 1.369 . S
C1095 C1097 1.419 . S
C1095 H1099 0.930 . S
C1096 C1095 1.369 . S
C1096 C1105 1.429 . S
C1097 C1095 1.419 . S
C1097 C1098 1.363 . S
C1097 H1100 0.929 . S
C1098 C1097 1.363 . S
C1098 C1104 1.428 . S
H1099 C1095 0.930 . S
H1100 C1097 0.929 . S
S1101 N1102 1.613 . S
S1101 N1103 1.610 . S
N1102 S1101 1.613 . S
N1102 C1105 1.350 . S
N1103 S1101 1.610 . S
N1103 C1104 1.351 . S
C1104 C1098 1.428 . S
C1104 N1103 1.351 . S
C1104 C1105 1.434 . S
C1105 C1096 1.429 . S
C1105 N1102 1.350 . S
C1105 C1104 1.434 . S
C1106 C1107 1.369 . S
C1106 C1108 1.419 . S
C1106 H1110 0.930 . S
C1107 C1106 1.369 . S
C1107 C1116 1.429 . S
C1108 C1106 1.419 . S
C1108 C1109 1.363 . S
C1108 H1111 0.929 . S
C1109 C1108 1.363 . S
C1109 C1115 1.428 . S
H1110 C1106 0.930 . S
H1111 C1108 0.929 . S
S1112 N1113 1.613 . S
S1112 N1114 1.610 . S
N1113 S1112 1.613 . S
N1113 C1116 1.350 . S
N1114 S1112 1.610 . S
N1114 C1115 1.351 . S
C1115 C1109 1.428 . S
C1115 N1114 1.351 . S
C1115 C1116 1.434 . S
C1116 C1107 1.429 . S
C1116 N1113 1.350 . S
C1116 C1115 1.434 . S
C1117 C1118 1.369 . S
C1117 C1119 1.419 . S
C1117 H1121 0.930 . S
C1118 C1117 1.369 . S
C1118 C1127 1.429 . S
C1119 C1117 1.419 . S
C1119 C1120 1.363 . S
C1119 H1122 0.929 . S
C1120 C1119 1.363 . S
C1120 C1126 1.428 . S
H1121 C1117 0.930 . S
H1122 C1119 0.929 . S
S1123 N1124 1.613 . S
S1123 N1125 1.610 . S
N1124 S1123 1.613 . S
N1124 C1127 1.350 . S
N1125 S1123 1.610 . S
N1125 C1126 1.351 . S
C1126 C1120 1.428 . S
C1126 N1125 1.351 . S
C1126 C1127 1.434 . S
C1127 C1118 1.429 . S
C1127 N1124 1.350 . S
C1127 C1126 1.434 . S
C1128 C1129 1.369 . S
C1128 C1130 1.419 . S
C1128 H1132 0.930 . S
C1129 C1128 1.369 . S
C1129 C1138 1.429 . S
C1130 C1128 1.419 . S
C1130 C1131 1.363 . S
C1130 H1133 0.929 . S
C1131 C1130 1.363 . S
C1131 C1137 1.428 . S
H1132 C1128 0.930 . S
H1133 C1130 0.929 . S
S1134 N1135 1.613 . S
S1134 N1136 1.610 . S
N1135 S1134 1.613 . S
N1135 C1138 1.350 . S
N1136 S1134 1.610 . S
N1136 C1137 1.351 . S
C1137 C1131 1.428 . S
C1137 N1136 1.351 . S
C1137 C1138 1.434 . S
C1138 C1129 1.429 . S
C1138 N1135 1.350 . S
C1138 C1137 1.434 . S
C1139 C1140 1.369 . S
C1139 C1141 1.419 . S
C1139 H1143 0.930 . S
C1140 C1139 1.369 . S
C1140 C1149 1.429 . S
C1141 C1139 1.419 . S
C1141 C1142 1.363 . S
C1141 H1144 0.929 . S
C1142 C1141 1.363 . S
C1142 C1148 1.428 . S
H1143 C1139 0.930 . S
H1144 C1141 0.929 . S
S1145 N1146 1.613 1_554 S
S1145 N1147 1.610 . S
N1146 S1145 1.613 1_556 S
N1146 C1149 1.350 . S
N1147 S1145 1.610 . S
N1147 C1148 1.351 1_554 S
C1148 C1142 1.428 . S
C1148 N1147 1.351 1_556 S
C1148 C1149 1.434 . S
C1149 C1140 1.429 . S
C1149 N1146 1.350 . S
C1149 C1148 1.434 . S
C1150 C1151 1.369 . S
C1150 C1152 1.419 . S
C1150 H1154 0.930 . S
C1151 C1150 1.369 . S
C1151 C1160 1.429 . S
C1152 C1150 1.419 . S
C1152 C1153 1.363 . S
C1152 H1155 0.929 . S
C1153 C1152 1.363 . S
C1153 C1159 1.428 . S
H1154 C1150 0.930 . S
H1155 C1152 0.929 . S
S1156 N1157 1.613 . S
S1156 N1158 1.610 . S
N1157 S1156 1.613 . S
N1157 C1160 1.350 . S
N1158 S1156 1.610 . S
N1158 C1159 1.351 . S
C1159 C1153 1.428 . S
C1159 N1158 1.351 . S
C1159 C1160 1.434 . S
C1160 C1151 1.429 . S
C1160 N1157 1.350 . S
C1160 C1159 1.434 . S
C1161 C1162 1.369 . S
C1161 C1163 1.419 . S
C1161 H1165 0.930 . S
C1162 C1161 1.369 . S
C1162 C1171 1.429 . S
C1163 C1161 1.419 . S
C1163 C1164 1.363 . S
C1163 H1166 0.929 . S
C1164 C1163 1.363 . S
C1164 C1170 1.428 . S
H1165 C1161 0.930 . S
H1166 C1163 0.929 . S
S1167 N1168 1.613 . S
S1167 N1169 1.610 . S
N1168 S1167 1.613 . S
N1168 C1171 1.350 . S
N1169 S1167 1.610 . S
N1169 C1170 1.351 . S
C1170 C1164 1.428 . S
C1170 N1169 1.351 . S
C1170 C1171 1.434 . S
C1171 C1162 1.429 . S
C1171 N1168 1.350 . S
C1171 C1170 1.434 . S
C1172 C1173 1.369 . S
C1172 C1174 1.419 . S
C1172 H1176 0.930 . S
C1173 C1172 1.369 . S
C1173 C1182 1.429 . S
C1174 C1172 1.419 . S
C1174 C1175 1.363 . S
C1174 H1177 0.929 . S
C1175 C1174 1.363 . S
C1175 C1181 1.428 . S
H1176 C1172 0.930 . S
H1177 C1174 0.929 . S
S1178 N1179 1.613 . S
S1178 N1180 1.610 . S
N1179 S1178 1.613 . S
N1179 C1182 1.350 . S
N1180 S1178 1.610 . S
N1180 C1181 1.351 . S
C1181 C1175 1.428 . S
C1181 N1180 1.351 . S
C1181 C1182 1.434 . S
C1182 C1173 1.429 . S
C1182 N1179 1.350 . S
C1182 C1181 1.434 . S
C1183 C1184 1.369 . S
C1183 C1185 1.419 . S
C1183 H1187 0.930 . S
C1184 C1183 1.369 . S
C1184 C1193 1.429 . S
C1185 C1183 1.419 . S
C1185 C1186 1.363 . S
C1185 H1188 0.929 . S
C1186 C1185 1.363 . S
C1186 C1192 1.428 . S
H1187 C1183 0.930 . S
H1188 C1185 0.929 . S
S1189 N1190 1.613 . S
S1189 N1191 1.610 . S
N1190 S1189 1.613 . S
N1190 C1193 1.350 . S
N1191 S1189 1.610 . S
N1191 C1192 1.351 . S
C1192 C1186 1.428 . S
C1192 N1191 1.351 . S
C1192 C1193 1.434 . S
C1193 C1184 1.429 . S
C1193 N1190 1.350 . S
C1193 C1192 1.434 . S
C1194 C1195 1.369 . S
C1194 C1196 1.419 . S
C1194 H1198 0.930 . S
C1195 C1194 1.369 . S
C1195 C1204 1.429 . S
C1196 C1194 1.419 . S
C1196 C1197 1.363 . S
C1196 H1199 0.929 . S
C1197 C1196 1.363 . S
C1197 C1203 1.428 . S
H1198 C1194 0.930 . S
H1199 C1196 0.929 . S
S1200 N1201 1.613 . S
S1200 N1202 1.610 . S
N1201 S1200 1.613 . S
N1201 C1204 1.350 . S
N1202 S1200 1.610 . S
N1202 C1203 1.351 . S
C1203 C1197 1.428 . S
C1203 N1202 1.351 . S
C1203 C1204 1.434 . S
C1204 C1195 1.429 . S
C1204 N1201 1.350 . S
C1204 C1203 1.434 . S
C1205 C1206 1.369 . S
C1205 C1207 1.419 . S
C1205 H1209 0.930 . S
C1206 C1205 1.369 . S
C1206 C1215 1.429 . S
C1207 C1205 1.419 . S
C1207 C1208 1.363 . S
C1207 H1210 0.929 . S
C1208 C1207 1.363 . S
C1208 C1214 1.428 . S
H1209 C1205 0.930 . S
H1210 C1207 0.929 . S
S1211 N1212 1.613 . S
S1211 N1213 1.610 . S
N1212 S1211 1.613 . S
N1212 C1215 1.350 . S
N1213 S1211 1.610 . S
N1213 C1214 1.351 . S
C1214 C1208 1.428 . S
C1214 N1213 1.351 . S
C1214 C1215 1.434 . S
C1215 C1206 1.429 . S
C1215 N1212 1.350 . S
C1215 C1214 1.434 . S
C1216 C1217 1.369 . S
C1216 C1218 1.419 . S
C1216 H1220 0.930 . S
C1217 C1216 1.369 . S
C1217 C1226 1.429 . S
C1218 C1216 1.419 . S
C1218 C1219 1.363 . S
C1218 H1221 0.929 . S
C1219 C1218 1.363 . S
C1219 C1225 1.428 . S
H1220 C1216 0.930 . S
H1221 C1218 0.929 . S
S1222 N1223 1.613 . S
S1222 N1224 1.610 . S
N1223 S1222 1.613 . S
N1223 C1226 1.350 . S
N1224 S1222 1.610 . S
N1224 C1225 1.351 . S
C1225 C1219 1.428 . S
C1225 N1224 1.351 . S
C1225 C1226 1.434 . S
C1226 C1217 1.429 . S
C1226 N1223 1.350 . S
C1226 C1225 1.434 . S
C1227 C1228 1.369 . S
C1227 C1229 1.419 . S
C1227 H1231 0.930 . S
C1228 C1227 1.369 . S
C1228 C1237 1.429 . S
C1229 C1227 1.419 . S
C1229 C1230 1.363 . S
C1229 H1232 0.929 . S
C1230 C1229 1.363 . S
C1230 C1236 1.428 . S
H1231 C1227 0.930 . S
H1232 C1229 0.929 . S
S1233 N1234 1.613 . S
S1233 N1235 1.610 . S
N1234 S1233 1.613 . S
N1234 C1237 1.350 . S
N1235 S1233 1.610 . S
N1235 C1236 1.351 . S
C1236 C1230 1.428 . S
C1236 N1235 1.351 . S
C1236 C1237 1.434 . S
C1237 C1228 1.429 . S
C1237 N1234 1.350 . S
C1237 C1236 1.434 . S
C1238 C1239 1.369 . S
C1238 C1240 1.419 . S
C1238 H1242 0.930 . S
C1239 C1238 1.369 . S
C1239 C1248 1.429 . S
C1240 C1238 1.419 . S
C1240 C1241 1.363 . S
C1240 H1243 0.929 . S
C1241 C1240 1.363 . S
C1241 C1247 1.428 . S
H1242 C1238 0.930 . S
H1243 C1240 0.929 . S
S1244 N1245 1.613 . S
S1244 N1246 1.610 . S
N1245 S1244 1.613 . S
N1245 C1248 1.350 . S
N1246 S1244 1.610 . S
N1246 C1247 1.351 . S
C1247 C1241 1.428 . S
C1247 N1246 1.351 . S
C1247 C1248 1.434 . S
C1248 C1239 1.429 . S
C1248 N1245 1.350 . S
C1248 C1247 1.434 . S
C1249 C1250 1.369 . S
C1249 C1251 1.419 . S
C1249 H1253 0.930 . S
C1250 C1249 1.369 . S
C1250 C1259 1.429 . S
C1251 C1249 1.419 . S
C1251 C1252 1.363 . S
C1251 H1254 0.929 . S
C1252 C1251 1.363 . S
C1252 C1258 1.428 . S
H1253 C1249 0.930 . S
H1254 C1251 0.929 . S
S1255 N1256 1.613 . S
S1255 N1257 1.610 . S
N1256 S1255 1.613 . S
N1256 C1259 1.350 . S
N1257 S1255 1.610 . S
N1257 C1258 1.351 . S
C1258 C1252 1.428 . S
C1258 N1257 1.351 . S
C1258 C1259 1.434 . S
C1259 C1250 1.429 . S
C1259 N1256 1.350 . S
C1259 C1258 1.434 . S
C1260 C1261 1.369 . S
C1260 C1262 1.419 . S
C1260 H1264 0.930 . S
C1261 C1260 1.369 . S
C1261 C1270 1.429 . S
C1262 C1260 1.419 . S
C1262 C1263 1.363 . S
C1262 H1265 0.929 . S
C1263 C1262 1.363 . S
C1263 C1269 1.428 . S
H1264 C1260 0.930 . S
H1265 C1262 0.929 . S
S1266 N1267 1.613 . S
S1266 N1268 1.610 . S
N1267 S1266 1.613 . S
N1267 C1270 1.350 . S
N1268 S1266 1.610 . S
N1268 C1269 1.351 . S
C1269 C1263 1.428 . S
C1269 N1268 1.351 . S
C1269 C1270 1.434 . S
C1270 C1261 1.429 . S
C1270 N1267 1.350 . S
C1270 C1269 1.434 . S
C1271 C1272 1.369 . S
C1271 C1273 1.419 . S
C1271 H1275 0.930 . S
C1272 C1271 1.369 . S
C1272 C1281 1.429 . S
C1273 C1271 1.419 . S
C1273 C1274 1.363 . S
C1273 H1276 0.929 . S
C1274 C1273 1.363 . S
C1274 C1280 1.428 . S
H1275 C1271 0.930 . S
H1276 C1273 0.929 . S
S1277 N1278 1.613 . S
S1277 N1279 1.610 . S
N1278 S1277 1.613 . S
N1278 C1281 1.350 . S
N1279 S1277 1.610 . S
N1279 C1280 1.351 . S
C1280 C1274 1.428 . S
C1280 N1279 1.351 . S
C1280 C1281 1.434 . S
C1281 C1272 1.429 . S
C1281 N1278 1.350 . S
C1281 C1280 1.434 . S
C1282 C1283 1.369 . S
C1282 C1284 1.419 . S
C1282 H1286 0.930 . S
C1283 C1282 1.369 . S
C1283 C1292 1.429 . S
C1284 C1282 1.419 . S
C1284 C1285 1.363 . S
C1284 H1287 0.929 . S
C1285 C1284 1.363 . S
C1285 C1291 1.428 . S
H1286 C1282 0.930 . S
H1287 C1284 0.929 . S
S1288 N1289 1.613 . S
S1288 N1290 1.610 . S
N1289 S1288 1.613 . S
N1289 C1292 1.350 . S
N1290 S1288 1.610 . S
N1290 C1291 1.351 . S
C1291 C1285 1.428 . S
C1291 N1290 1.351 . S
C1291 C1292 1.434 . S
C1292 C1283 1.429 . S
C1292 N1289 1.350 . S
C1292 C1291 1.434 . S
C1293 C1294 1.369 . S
C1293 C1295 1.419 . S
C1293 H1297 0.930 . S
C1294 C1293 1.369 . S
C1294 C1303 1.429 . S
C1295 C1293 1.419 . S
C1295 C1296 1.363 . S
C1295 H1298 0.929 . S
C1296 C1295 1.363 . S
C1296 C1302 1.428 . S
H1297 C1293 0.930 . S
H1298 C1295 0.929 . S
S1299 N1300 1.613 . S
S1299 N1301 1.610 . S
N1300 S1299 1.613 . S
N1300 C1303 1.350 . S
N1301 S1299 1.610 . S
N1301 C1302 1.351 . S
C1302 C1296 1.428 . S
C1302 N1301 1.351 . S
C1302 C1303 1.434 . S
C1303 C1294 1.429 . S
C1303 N1300 1.350 . S
C1303 C1302 1.434 . S
C1304 C1305 1.369 . S
C1304 C1306 1.419 . S
C1304 H1308 0.930 . S
C1305 C1304 1.369 . S
C1305 C1314 1.429 . S
C1306 C1304 1.419 . S
C1306 C1307 1.363 . S
C1306 H1309 0.929 . S
C1307 C1306 1.363 . S
C1307 C1313 1.428 . S
H1308 C1304 0.930 . S
H1309 C1306 0.929 . S
S1310 N1311 1.613 . S
S1310 N1312 1.610 . S
N1311 S1310 1.613 . S
N1311 C1314 1.350 . S
N1312 S1310 1.610 . S
N1312 C1313 1.351 . S
C1313 C1307 1.428 . S
C1313 N1312 1.351 . S
C1313 C1314 1.434 . S
C1314 C1305 1.429 . S
C1314 N1311 1.350 . S
C1314 C1313 1.434 . S
C1315 C1316 1.369 . S
C1315 C1317 1.419 . S
C1315 H1319 0.930 . S
C1316 C1315 1.369 . S
C1316 C1325 1.429 . S
C1317 C1315 1.419 . S
C1317 C1318 1.363 . S
C1317 H1320 0.929 . S
C1318 C1317 1.363 . S
C1318 C1324 1.428 . S
H1319 C1315 0.930 . S
H1320 C1317 0.929 . S
S1321 N1322 1.613 . S
S1321 N1323 1.610 . S
N1322 S1321 1.613 . S
N1322 C1325 1.350 . S
N1323 S1321 1.610 . S
N1323 C1324 1.351 . S
C1324 C1318 1.428 . S
C1324 N1323 1.351 . S
C1324 C1325 1.434 . S
C1325 C1316 1.429 . S
C1325 N1322 1.350 . S
C1325 C1324 1.434 . S
C1326 C1327 1.369 . S
C1326 C1328 1.419 . S
C1326 H1330 0.930 . S
C1327 C1326 1.369 . S
C1327 C1336 1.429 . S
C1328 C1326 1.419 . S
C1328 C1329 1.363 . S
C1328 H1331 0.929 . S
C1329 C1328 1.363 . S
C1329 C1335 1.428 . S
H1330 C1326 0.930 . S
H1331 C1328 0.929 . S
S1332 N1333 1.613 . S
S1332 N1334 1.610 . S
N1333 S1332 1.613 . S
N1333 C1336 1.350 . S
N1334 S1332 1.610 . S
N1334 C1335 1.351 . S
C1335 C1329 1.428 . S
C1335 N1334 1.351 . S
C1335 C1336 1.434 . S
C1336 C1327 1.429 . S
C1336 N1333 1.350 . S
C1336 C1335 1.434 . S
C1337 C1338 1.369 . S
C1337 C1339 1.419 . S
C1337 H1341 0.930 . S
C1338 C1337 1.369 . S
C1338 C1347 1.429 . S
C1339 C1337 1.419 . S
C1339 C1340 1.363 . S
C1339 H1342 0.929 . S
C1340 C1339 1.363 . S
C1340 C1346 1.428 . S
H1341 C1337 0.930 . S
H1342 C1339 0.929 . S
S1343 N1344 1.613 . S
S1343 N1345 1.610 . S
N1344 S1343 1.613 . S
N1344 C1347 1.350 . S
N1345 S1343 1.610 . S
N1345 C1346 1.351 . S
C1346 C1340 1.428 . S
C1346 N1345 1.351 . S
C1346 C1347 1.434 . S
C1347 C1338 1.429 . S
C1347 N1344 1.350 . S
C1347 C1346 1.434 . S
C1348 C1349 1.369 . S
C1348 C1350 1.419 . S
C1348 H1352 0.930 . S
C1349 C1348 1.369 . S
C1349 C1358 1.429 . S
C1350 C1348 1.419 . S
C1350 C1351 1.363 . S
C1350 H1353 0.929 . S
C1351 C1350 1.363 . S
C1351 C1357 1.428 . S
H1352 C1348 0.930 . S
H1353 C1350 0.929 . S
S1354 N1355 1.613 . S
S1354 N1356 1.610 . S
N1355 S1354 1.613 . S
N1355 C1358 1.350 . S
N1356 S1354 1.610 . S
N1356 C1357 1.351 . S
C1357 C1351 1.428 . S
C1357 N1356 1.351 . S
C1357 C1358 1.434 . S
C1358 C1349 1.429 . S
C1358 N1355 1.350 . S
C1358 C1357 1.434 . S
C1359 C1360 1.369 . S
C1359 C1361 1.419 . S
C1359 H1363 0.930 . S
C1360 C1359 1.369 . S
C1360 C1369 1.429 . S
C1361 C1359 1.419 . S
C1361 C1362 1.363 . S
C1361 H1364 0.929 . S
C1362 C1361 1.363 . S
C1362 C1368 1.428 . S
H1363 C1359 0.930 . S
H1364 C1361 0.929 . S
S1365 N1366 1.613 . S
S1365 N1367 1.610 . S
N1366 S1365 1.613 . S
N1366 C1369 1.350 . S
N1367 S1365 1.610 . S
N1367 C1368 1.351 . S
C1368 C1362 1.428 . S
C1368 N1367 1.351 . S
C1368 C1369 1.434 . S
C1369 C1360 1.429 . S
C1369 N1366 1.350 . S
C1369 C1368 1.434 . S
C1370 C1371 1.369 . S
C1370 C1372 1.419 . S
C1370 H1374 0.930 . S
C1371 C1370 1.369 . S
C1371 C1380 1.429 . S
C1372 C1370 1.419 . S
C1372 C1373 1.363 . S
C1372 H1375 0.929 . S
C1373 C1372 1.363 . S
C1373 C1379 1.428 . S
H1374 C1370 0.930 . S
H1375 C1372 0.929 . S
S1376 N1377 1.613 . S
S1376 N1378 1.610 . S
N1377 S1376 1.613 . S
N1377 C1380 1.350 . S
N1378 S1376 1.610 . S
N1378 C1379 1.351 . S
C1379 C1373 1.428 . S
C1379 N1378 1.351 . S
C1379 C1380 1.434 . S
C1380 C1371 1.429 . S
C1380 N1377 1.350 . S
C1380 C1379 1.434 . S
C1381 C1382 1.369 . S
C1381 C1383 1.419 . S
C1381 H1385 0.930 . S
C1382 C1381 1.369 . S
C1382 C1391 1.429 . S
C1383 C1381 1.419 . S
C1383 C1384 1.363 . S
C1383 H1386 0.929 . S
C1384 C1383 1.363 . S
C1384 C1390 1.428 . S
H1385 C1381 0.930 . S
H1386 C1383 0.929 . S
S1387 N1388 1.613 . S
S1387 N1389 1.610 . S
N1388 S1387 1.613 . S
N1388 C1391 1.350 . S
N1389 S1387 1.610 . S
N1389 C1390 1.351 . S
C1390 C1384 1.428 . S
C1390 N1389 1.351 . S
C1390 C1391 1.434 . S
C1391 C1382 1.429 . S
C1391 N1388 1.350 . S
C1391 C1390 1.434 . S
C1392 C1393 1.369 . S
C1392 C1394 1.419 . S
C1392 H1396 0.930 . S
C1393 C1392 1.369 . S
C1393 C1402 1.429 . S
C1394 C1392 1.419 . S
C1394 C1395 1.363 . S
C1394 H1397 0.929 . S
C1395 C1394 1.363 . S
C1395 C1401 1.428 . S
H1396 C1392 0.930 . S
H1397 C1394 0.929 . S
S1398 N1399 1.613 . S
S1398 N1400 1.610 . S
N1399 S1398 1.613 . S
N1399 C1402 1.350 . S
N1400 S1398 1.610 . S
N1400 C1401 1.351 . S
C1401 C1395 1.428 . S
C1401 N1400 1.351 . S
C1401 C1402 1.434 . S
C1402 C1393 1.429 . S
C1402 N1399 1.350 . S
C1402 C1401 1.434 . S
C1403 C1404 1.369 . S
C1403 C1405 1.419 . S
C1403 H1407 0.930 . S
C1404 C1403 1.369 . S
C1404 C1413 1.429 . S
C1405 C1403 1.419 . S
C1405 C1406 1.363 . S
C1405 H1408 0.929 . S
C1406 C1405 1.363 . S
C1406 C1412 1.428 . S
H1407 C1403 0.930 . S
H1408 C1405 0.929 . S
S1409 N1410 1.613 . S
S1409 N1411 1.610 . S
N1410 S1409 1.613 . S
N1410 C1413 1.350 . S
N1411 S1409 1.610 . S
N1411 C1412 1.351 . S
C1412 C1406 1.428 . S
C1412 N1411 1.351 . S
C1412 C1413 1.434 . S
C1413 C1404 1.429 . S
C1413 N1410 1.350 . S
C1413 C1412 1.434 . S
C1414 C1415 1.369 . S
C1414 C1416 1.419 . S
C1414 H1418 0.930 . S
C1415 C1414 1.369 . S
C1415 C1424 1.429 . S
C1416 C1414 1.419 . S
C1416 C1417 1.363 . S
C1416 H1419 0.929 . S
C1417 C1416 1.363 . S
C1417 C1423 1.428 . S
H1418 C1414 0.930 . S
H1419 C1416 0.929 . S
S1420 N1421 1.613 . S
S1420 N1422 1.610 . S
N1421 S1420 1.613 . S
N1421 C1424 1.350 . S
N1422 S1420 1.610 . S
N1422 C1423 1.351 . S
C1423 C1417 1.428 . S
C1423 N1422 1.351 . S
C1423 C1424 1.434 . S
C1424 C1415 1.429 . S
C1424 N1421 1.350 . S
C1424 C1423 1.434 . S
C1425 C1426 1.369 . S
C1425 C1427 1.419 . S
C1425 H1429 0.930 . S
C1426 C1425 1.369 . S
C1426 C1435 1.429 . S
C1427 C1425 1.419 . S
C1427 C1428 1.363 . S
C1427 H1430 0.929 . S
C1428 C1427 1.363 . S
C1428 C1434 1.428 . S
H1429 C1425 0.930 . S
H1430 C1427 0.929 . S
S1431 N1432 1.613 . S
S1431 N1433 1.610 . S
N1432 S1431 1.613 . S
N1432 C1435 1.350 . S
N1433 S1431 1.610 . S
N1433 C1434 1.351 . S
C1434 C1428 1.428 . S
C1434 N1433 1.351 . S
C1434 C1435 1.434 . S
C1435 C1426 1.429 . S
C1435 N1432 1.350 . S
C1435 C1434 1.434 . S
C1436 C1437 1.369 . S
C1436 C1438 1.419 . S
C1436 H1440 0.930 . S
C1437 C1436 1.369 . S
C1437 C1446 1.429 . S
C1438 C1436 1.419 . S
C1438 C1439 1.363 . S
C1438 H1441 0.929 . S
C1439 C1438 1.363 . S
C1439 C1445 1.428 . S
H1440 C1436 0.930 . S
H1441 C1438 0.929 . S
S1442 N1443 1.613 . S
S1442 N1444 1.610 . S
N1443 S1442 1.613 . S
N1443 C1446 1.350 . S
N1444 S1442 1.610 . S
N1444 C1445 1.351 . S
C1445 C1439 1.428 . S
C1445 N1444 1.351 . S
C1445 C1446 1.434 . S
C1446 C1437 1.429 . S
C1446 N1443 1.350 . S
C1446 C1445 1.434 . S
C1447 C1448 1.369 . S
C1447 C1449 1.419 . S
C1447 H1451 0.930 . S
C1448 C1447 1.369 . S
C1448 C1457 1.429 . S
C1449 C1447 1.419 . S
C1449 C1450 1.363 . S
C1449 H1452 0.929 . S
C1450 C1449 1.363 . S
C1450 C1456 1.428 . S
H1451 C1447 0.930 . S
H1452 C1449 0.929 . S
S1453 N1454 1.613 . S
S1453 N1455 1.610 . S
N1454 S1453 1.613 . S
N1454 C1457 1.350 . S
N1455 S1453 1.610 . S
N1455 C1456 1.351 . S
C1456 C1450 1.428 . S
C1456 N1455 1.351 . S
C1456 C1457 1.434 . S
C1457 C1448 1.429 . S
C1457 N1454 1.350 . S
C1457 C1456 1.434 . S
C1458 C1459 1.369 . S
C1458 C1460 1.419 . S
C1458 H1462 0.930 . S
C1459 C1458 1.369 . S
C1459 C1468 1.429 . S
C1460 C1458 1.419 . S
C1460 C1461 1.363 . S
C1460 H1463 0.929 . S
C1461 C1460 1.363 . S
C1461 C1467 1.428 . S
H1462 C1458 0.930 . S
H1463 C1460 0.929 . S
S1464 N1465 1.613 . S
S1464 N1466 1.610 . S
N1465 S1464 1.613 . S
N1465 C1468 1.350 . S
N1466 S1464 1.610 . S
N1466 C1467 1.351 . S
C1467 C1461 1.428 . S
C1467 N1466 1.351 . S
C1467 C1468 1.434 . S
C1468 C1459 1.429 . S
C1468 N1465 1.350 . S
C1468 C1467 1.434 . S
C1469 C1470 1.369 . S
C1469 C1471 1.419 . S
C1469 H1473 0.930 . S
C1470 C1469 1.369 . S
C1470 C1479 1.429 . S
C1471 C1469 1.419 . S
C1471 C1472 1.363 . S
C1471 H1474 0.929 . S
C1472 C1471 1.363 . S
C1472 C1478 1.428 . S
H1473 C1469 0.930 . S
H1474 C1471 0.929 . S
S1475 N1476 1.613 . S
S1475 N1477 1.610 . S
N1476 S1475 1.613 . S
N1476 C1479 1.350 . S
N1477 S1475 1.610 . S
N1477 C1478 1.351 . S
C1478 C1472 1.428 . S
C1478 N1477 1.351 . S
C1478 C1479 1.434 . S
C1479 C1470 1.429 . S
C1479 N1476 1.350 . S
C1479 C1478 1.434 . S
C1480 C1481 1.369 . S
C1480 C1482 1.419 . S
C1480 H1484 0.930 . S
C1481 C1480 1.369 . S
C1481 C1490 1.429 . S
C1482 C1480 1.419 . S
C1482 C1483 1.363 . S
C1482 H1485 0.929 . S
C1483 C1482 1.363 . S
C1483 C1489 1.428 . S
H1484 C1480 0.930 . S
H1485 C1482 0.929 . S
S1486 N1487 1.613 . S
S1486 N1488 1.610 . S
N1487 S1486 1.613 . S
N1487 C1490 1.350 . S
N1488 S1486 1.610 . S
N1488 C1489 1.351 . S
C1489 C1483 1.428 . S
C1489 N1488 1.351 . S
C1489 C1490 1.434 . S
C1490 C1481 1.429 . S
C1490 N1487 1.350 . S
C1490 C1489 1.434 . S
C1491 C1492 1.369 . S
C1491 C1493 1.419 . S
C1491 H1495 0.930 . S
C1492 C1491 1.369 . S
C1492 C1501 1.429 . S
C1493 C1491 1.419 . S
C1493 C1494 1.363 . S
C1493 H1496 0.929 . S
C1494 C1493 1.363 . S
C1494 C1500 1.428 . S
H1495 C1491 0.930 . S
H1496 C1493 0.929 . S
S1497 N1498 1.613 . S
S1497 N1499 1.610 . S
N1498 S1497 1.613 . S
N1498 C1501 1.350 . S
N1499 S1497 1.610 . S
N1499 C1500 1.351 . S
C1500 C1494 1.428 . S
C1500 N1499 1.351 . S
C1500 C1501 1.434 . S
C1501 C1492 1.429 . S
C1501 N1498 1.350 . S
C1501 C1500 1.434 . S
C1502 C1503 1.369 . S
C1502 C1504 1.419 . S
C1502 H1506 0.930 . S
C1503 C1502 1.369 . S
C1503 C1512 1.429 . S
C1504 C1502 1.419 . S
C1504 C1505 1.363 . S
C1504 H1507 0.929 . S
C1505 C1504 1.363 . S
C1505 C1511 1.428 . S
H1506 C1502 0.930 . S
H1507 C1504 0.929 . S
S1508 N1509 1.613 . S
S1508 N1510 1.610 . S
N1509 S1508 1.613 . S
N1509 C1512 1.350 . S
N1510 S1508 1.610 . S
N1510 C1511 1.351 . S
C1511 C1505 1.428 . S
C1511 N1510 1.351 . S
C1511 C1512 1.434 . S
C1512 C1503 1.429 . S
C1512 N1509 1.350 . S
C1512 C1511 1.434 . S
C1513 C1514 1.369 . S
C1513 C1515 1.419 . S
C1513 H1517 0.930 . S
C1514 C1513 1.369 . S
C1514 C1523 1.429 . S
C1515 C1513 1.419 . S
C1515 C1516 1.363 . S
C1515 H1518 0.929 . S
C1516 C1515 1.363 . S
C1516 C1522 1.428 . S
H1517 C1513 0.930 . S
H1518 C1515 0.929 . S
S1519 N1520 1.613 . S
S1519 N1521 1.610 . S
N1520 S1519 1.613 . S
N1520 C1523 1.350 . S
N1521 S1519 1.610 . S
N1521 C1522 1.351 . S
C1522 C1516 1.428 . S
C1522 N1521 1.351 . S
C1522 C1523 1.434 . S
C1523 C1514 1.429 . S
C1523 N1520 1.350 . S
C1523 C1522 1.434 . S
C999 C707 1.375 . S
C997 C74 1.278 . S
C1010 C685 0.280 . S
C1008 C142 0.868 . S
C1021 C682 1.054 . S
C1019 C231 1.000 . S
C1030 C322 1.589 . S
C1032 C694 1.542 . S
C1041 C406 0.868 . S
C1043 C677 0.290 . S
C1054 C699 1.053 . S
C1052 C494 1.003 . S
C1063 C562 1.594 . S
C1065 C704 1.550 . S
C1074 C651 1.285 . S
C1076 C700 1.377 . S
C1087 C758 1.576 . S
C1085 C58 1.545 . S
C1096 C151 1.473 . S
C1098 C808 1.519 . S
C1109 C731 2.774 . S
C1107 C224 2.648 . S
C1120 C807 1.056 . S
C1118 C315 0.996 . S
C1129 C399 1.011 . S
C1131 C736 1.096 . S
C1142 C802 1.595 . S
C1140 C478 1.588 . S
C1151 C571 1.357 . S
C1153 C761 1.484 . S
C1162 C644 2.659 . S
C1164 C793 2.752 . S
C1173 C67 2.657 . S
C1175 C785 2.756 . S
C1184 C392 1.478 . S
C1186 C815 1.517 . S
C1197 C739 2.793 . S
C1195 C487 2.658 . S
C1208 C790 1.067 . S
C1206 C578 1.011 . S
C1217 C658 1.560 . S
C1219 C748 1.581 . S
C1228 C238 1.612 . S
C1230 C812 1.611 . S
C1241 C754 1.493 . S
C1239 C308 1.376 . S
C1250 C158 1.032 . S
C1252 C753 1.102 . S
C1261 C662 1.278 . S
C1263 C869 1.376 . S
C1272 C394 0.845 . S
C1274 C847 0.274 . S
C1285 C844 1.050 . S
C1283 C483 1.015 . S
C1296 C856 1.538 . S
C1294 C574 1.587 . S
C1305 C154 0.865 . S
C1307 C839 0.291 . S
C1318 C861 1.045 . S
C1316 C242 1.014 . S
C1327 C310 1.590 . S
C1329 C866 1.545 . S
C1338 C63 1.282 . S
C1340 C862 1.377 . S
C1349 C646 1.554 . S
C1351 C920 1.580 . S
C1362 C970 1.518 . S
C1360 C403 1.467 . S
C1371 C476 2.641 . S
C1373 C893 2.775 . S
C1382 C567 1.003 . S
C1384 C969 1.057 . S
C1395 C898 1.096 . S
C1393 C147 1.010 . S
C1404 C226 1.592 . S
C1406 C964 1.589 . S
C1417 C923 1.481 . S
C1415 C319 1.370 . S
C1428 C955 2.754 . S
C1426 C56 2.653 . S
C1439 C947 2.756 . S
C1437 C655 2.657 . S
C1448 C140 1.475 . S
C1450 C977 1.521 . S
C1459 C235 2.652 . S
C1461 C901 2.794 . S
C1472 C952 1.067 . S
C1470 C326 1.014 . S
C1481 C70 1.560 . S
C1483 C910 1.581 . S
C1492 C490 1.608 . S
C1494 C974 1.607 . S
C1505 C916 1.496 . S
C1503 C560 1.374 . S
C1516 C915 1.102 . S
C1514 C410 1.016 . S
