# Generated by pormake.
# Topology anh, (6,3)-cn, num edge types: 1
# Building blocks:
#     Node 0, Type 0, BuildingBlock: PAMTOO_clean_sbu_0, # of connection points: 6
#     Node 1, Type 0, BuildingBlock: PAMTOO_clean_sbu_0, # of connection points: 6
#     Node 2, Type 0, BuildingBlock: PAMTOO_clean_sbu_0, # of connection points: 6
#     Node 3, Type 1, BuildingBlock: WUSLED_clean_sbu_0, # of connection points: 3
#     Node 4, Type 1, BuildingBlock: WUSLED_clean_sbu_0, # of connection points: 3
#     Node 5, Type 1, BuildingBlock: WUSLED_clean_sbu_0, # of connection points: 3
#     Node 6, Type 1, BuildingBlock: WUSLED_clean_sbu_0, # of connection points: 3
#     Node 7, Type 1, BuildingBlock: WUSLED_clean_sbu_0, # of connection points: 3
#     Node 8, Type 1, BuildingBlock: WUSLED_clean_sbu_0, # of connection points: 3
#     Edge 9, Type (0, 1), BuildingBlock: CIFDUS_clean_linker_0, # of connection points: 2
#     Edge 10, Type (0, 1), BuildingBlock: CIFDUS_clean_linker_0, # of connection points: 2
#     Edge 11, Type (0, 1), BuildingBlock: CIFDUS_clean_linker_0, # of connection points: 2
#     Edge 12, Type (0, 1), BuildingBlock: CIFDUS_clean_linker_0, # of connection points: 2
#     Edge 13, Type (0, 1), BuildingBlock: CIFDUS_clean_linker_0, # of connection points: 2
#     Edge 14, Type (0, 1), BuildingBlock: CIFDUS_clean_linker_0, # of connection points: 2
#     Edge 15, Type (0, 1), BuildingBlock: CIFDUS_clean_linker_0, # of connection points: 2
#     Edge 16, Type (0, 1), BuildingBlock: CIFDUS_clean_linker_0, # of connection points: 2
#     Edge 17, Type (0, 1), BuildingBlock: CIFDUS_clean_linker_0, # of connection points: 2
#     Edge 18, Type (0, 1), BuildingBlock: CIFDUS_clean_linker_0, # of connection points: 2
#     Edge 19, Type (0, 1), BuildingBlock: CIFDUS_clean_linker_0, # of connection points: 2
#     Edge 20, Type (0, 1), BuildingBlock: CIFDUS_clean_linker_0, # of connection points: 2
#     Edge 21, Type (0, 1), BuildingBlock: CIFDUS_clean_linker_0, # of connection points: 2
#     Edge 22, Type (0, 1), BuildingBlock: CIFDUS_clean_linker_0, # of connection points: 2
#     Edge 23, Type (0, 1), BuildingBlock: CIFDUS_clean_linker_0, # of connection points: 2
#     Edge 24, Type (0, 1), BuildingBlock: CIFDUS_clean_linker_0, # of connection points: 2
#     Edge 25, Type (0, 1), BuildingBlock: CIFDUS_clean_linker_0, # of connection points: 2
#     Edge 26, Type (0, 1), BuildingBlock: CIFDUS_clean_linker_0, # of connection points: 2
# Relax obj value: 0.176
# Max RMSD: 0.192
# Mean RMSD: 0.152
data_MOF--net-anh--node1-PAMTOO_clean_sbu_0--node2-WUSLED_clean_sbu_0--edge1-CIFDUS_clean_linker_0
_symmetry_space_group_name_H-M    P1
_symmetry_Int_Tables_number       1
_symmetry_cell_setting            triclinic
loop_
_symmetry_equiv_pos_as_xyz
'x, y, z'
_cell_length_a     34.866794
_cell_length_b     34.204729
_cell_length_c     63.073167
_cell_angle_alpha  89.758404
_cell_angle_beta   95.836771
_cell_angle_gamma 105.90186
loop_
_atom_site_label
_atom_site_type_symbol
_atom_site_fract_x
_atom_site_fract_y
_atom_site_fract_z
_atom_type_partial_charge
Dy0 Dy 1.067 0.57949 0.16204 0.0
Dy1 Dy 1.03593 0.4797 0.15355 0.0
C2 C 1.04925 0.54062 0.11551 0.0
O3 O 0.99917 0.56508 0.16141 0.0
O4 O 0.98096 0.50061 0.14616 0.0
O5 O 0.09855 0.63884 0.15161 0.0
O6 O 1.073 0.63286 0.18175 0.0
O7 O 1.0234 0.49436 0.18607 0.0
O8 O 1.07676 0.54977 0.19294 0.0
O9 O 0.10277 0.49279 0.16021 0.0
O10 O 0.12206 0.56166 0.15464 0.0
O11 O 1.03304 0.41976 0.1656 0.0
O12 O 1.00249 0.42637 0.13471 0.0
C13 C 0.97161 0.5331 0.15252 0.0
O14 O 1.04204 0.56767 0.12806 0.0
O15 O 1.05683 0.50736 0.12309 0.0
C16 C 0.13369 0.68449 0.17942 0.0
C17 C 0.20664 0.7375 0.19803 0.0
C18 C 0.18136 0.75166 0.18289 0.0
C19 C 0.14525 0.72541 0.17371 0.0
C20 C 0.15893 0.67003 0.19435 0.0
C21 C 0.19496 0.6963 0.20361 0.0
C22 C 0.09589 0.65715 0.16926 0.0
C23 C 1.0496 0.51908 0.19969 0.0
C24 C 0.13057 0.52651 0.15697 0.0
C25 C 0.97008 0.37312 0.15608 0.0
C26 C 0.89945 0.31891 0.16863 0.0
C27 C 0.90379 0.36106 0.16815 0.0
C28 C 0.9388 0.38787 0.16203 0.0
C29 C 0.96603 0.33121 0.15657 0.0
C30 C 0.93109 0.30433 0.16283 0.0
C31 C 1.00716 0.40147 0.14988 0.0
H32 H 0.18916 0.78322 0.17838 0.0
H33 H 0.12629 0.7371 0.16214 0.0
H34 H 0.15081 0.63841 0.19879 0.0
H35 H 0.21391 0.68422 0.21499 0.0
H36 H 0.88033 0.37341 0.1728 0.0
H37 H 0.94154 0.42019 0.16203 0.0
H38 H 0.98992 0.31926 0.15213 0.0
H39 H 0.9286 0.27207 0.16284 0.0
Dy40 Dy 0.54141 0.04343 0.53674 0.0
Dy41 Dy 0.64089 0.07448 0.54136 0.0
C42 C 0.59303 0.05597 0.58225 0.0
O43 O 0.5569 0.11094 0.53325 0.0
O44 O 0.62127 0.12864 0.5498 0.0
O45 O 0.48566 0.01296 0.54907 0.0
O46 O 0.48508 0.04089 0.5182 0.0
O47 O 0.61698 0.08547 0.50828 0.0
O48 O 0.56242 0.0306 0.50593 0.0
O49 O 0.62666 1.00667 0.5381 0.0
O50 O 0.55959 0.98681 0.54341 0.0
O51 O 0.69586 0.07476 0.52836 0.0
O52 O 0.69781 0.11039 0.55697 0.0
C53 C 0.58835 0.13804 0.54264 0.0
O54 O 0.56172 0.0625 0.57085 0.0
O55 O 0.62416 0.0516 0.57333 0.0
C56 C 0.4337 0.98122 0.52278 0.0
C57 C 0.37503 0.91118 0.50572 0.0
C58 C 0.36383 0.94434 0.51373 0.0
C59 C 0.39291 0.97901 0.52217 0.0
C60 C 0.44521 0.94826 0.51493 0.0
C61 C 0.41611 0.9135 0.50648 0.0
C62 C 0.46384 0.01789 0.53175 0.0
C63 C 0.58966 0.05752 0.49672 0.0
C64 C 0.59364 0.97848 0.54134 0.0
C65 C 0.74627 0.13737 0.53329 0.0
C66 C 0.8015 0.20425 0.51684 0.0
C67 C 0.76372 0.18682 0.50554 0.0
C68 C 0.73628 0.15381 0.51373 0.0
C69 C 0.7838 0.15474 0.54464 0.0
C70 C 0.81113 0.18791 0.53654 0.0
C71 C 0.71803 0.10225 0.54208 0.0
H72 H 0.33251 0.94337 0.51368 0.0
H73 H 0.38353 1.00411 0.52827 0.0
H74 H 0.47666 0.94951 0.51529 0.0
H75 H 0.4258 0.88875 0.50024 0.0
H76 H 0.7552 0.19899 0.49046 0.0
H77 H 0.70731 0.14112 0.50477 0.0
H78 H 0.79205 0.14252 0.55977 0.0
H79 H 0.8401 0.20033 0.54553 0.0
Dy80 Dy 0.63556 0.50138 0.8528 0.0
Dy81 Dy 0.53981 0.47172 0.83617 0.0
C82 C 0.60461 0.49131 0.80282 0.0
O83 O 0.6134 0.55596 0.85759 0.0
O84 O 0.55937 0.53878 0.83227 0.0
O85 O 0.69228 0.54725 0.85571 0.0
O86 O 0.68796 0.4877 0.86892 0.0
O87 O 0.54492 0.49255 0.87033 0.0
O88 O 0.60528 0.48194 0.88214 0.0
O89 O 0.55648 0.41387 0.84216 0.0
O90 O 0.62391 0.43838 0.83931 0.0
O91 O 0.4788 0.44015 0.84135 0.0
O92 O 0.49128 0.47319 0.81231 0.0
C93 C 0.58551 0.56589 0.84486 0.0
O94 O 0.63084 0.51255 0.81783 0.0
O95 O 0.57031 0.46683 0.80722 0.0
C96 C 0.74654 0.51933 0.85306 0.0
C97 C 0.81481 0.51592 0.83371 0.0
C98 C 0.7846 0.52981 0.82229 0.0
C99 C 0.75055 0.53122 0.83184 0.0
C100 C 0.77611 0.50436 0.86423 0.0
C101 C 0.80991 0.50253 0.85463 0.0
C102 C 0.71177 0.52214 0.86372 0.0
C103 C 0.57109 0.48799 0.88601 0.0
C104 C 0.59139 0.40798 0.83954 0.0
C105 C 0.43886 0.48343 0.82964 0.0
C106 C 0.40462 0.54741 0.8363 0.0
C107 C 0.42738 0.53425 0.85307 0.0
C108 C 0.44443 0.50276 0.84976 0.0
C109 C 0.41469 0.49525 0.81306 0.0
C110 C 0.39753 0.52695 0.81639 0.0
C111 C 0.46423 0.45718 0.82501 0.0
H112 H 0.78769 0.54025 0.80616 0.0
H113 H 0.72778 0.54228 0.82274 0.0
H114 H 0.77341 0.49479 0.88055 0.0
H115 H 0.83306 0.49232 0.86391 0.0
H116 H 0.43252 0.5487 0.86875 0.0
H117 H 0.46336 0.49476 0.86279 0.0
H118 H 0.41065 0.48126 0.79732 0.0
H119 H 0.38003 0.53643 0.80319 0.0
C120 C 0.64917 0.0951 0.22653 0.0
C121 C 0.68253 0.11053 0.24153 0.0
C122 C 0.71943 0.15023 0.21412 0.0
C123 C 0.71735 0.13771 0.23538 0.0
C124 C 0.68565 0.13508 0.19923 0.0
C125 C 0.65091 0.10772 0.20538 0.0
U126 U 0.58454 0.04352 0.26936 0.0
O127 O 0.5192 0.02623 0.27057 0.0
O128 O 0.55152 0.9793 0.27294 0.0
C129 C 0.51651 0.98715 0.27162 0.0
C130 C 0.61264 0.06576 0.23274 0.0
C131 C 0.48315 0.95877 0.25822 0.0
C132 C 0.42633 0.94503 0.23075 0.0
C133 C 0.46033 0.9722 0.24153 0.0
C134 C 0.43801 0.89046 0.25274 0.0
C135 C 0.41435 0.90389 0.23644 0.0
C136 C 0.47186 0.91758 0.26351 0.0
C137 C 0.6237 0.07653 0.32779 0.0
C138 C 0.58513 0.06655 0.3584 0.0
C139 C 0.65771 0.08699 0.36375 0.0
C140 C 0.65913 0.08662 0.34169 0.0
C141 C 0.62071 0.07742 0.37243 0.0
C142 C 0.58661 0.06605 0.33628 0.0
C143 C 0.62644 0.07839 0.30461 0.0
O144 O 0.61843 0.03415 0.24316 0.0
O145 O 0.58708 0.08172 0.241 0.0
O146 O 0.60023 0.09339 0.2933 0.0
O147 O 0.63222 0.04625 0.29556 0.0
H148 H 0.6817 0.10142 0.25799 0.0
H149 H 0.74255 0.14918 0.24733 0.0
H150 H 0.68632 0.14375 0.18271 0.0
H151 H 0.62546 0.09619 0.19357 0.0
H152 H 0.40872 0.95659 0.2184 0.0
H153 H 0.46815 1.00382 0.23713 0.0
H154 H 0.43025 0.85894 0.25732 0.0
H155 H 0.48883 0.90647 0.27636 0.0
H156 H 0.55612 0.05933 0.36448 0.0
H157 H 0.68569 0.09473 0.37402 0.0
H158 H 0.68805 0.09459 0.33545 0.0
H159 H 0.55885 0.05805 0.32582 0.0
C160 C 0.62876 0.67491 0.55025 0.0
C161 C 0.60858 0.69108 0.56464 0.0
C162 C 0.63167 0.75817 0.54955 0.0
C163 C 0.60991 0.73235 0.56423 0.0
C164 C 0.65251 0.74193 0.53551 0.0
C165 C 0.65096 0.70068 0.53585 0.0
U166 U 0.62131 0.57106 0.57599 0.0
O167 O 0.58663 0.51055 0.56314 0.0
O168 O 0.65246 0.52637 0.56762 0.0
C169 C 0.61889 0.49809 0.562 0.0
C170 C 0.62634 0.63128 0.54949 0.0
C171 C 0.61717 0.4558 0.56808 0.0
C172 C 0.65086 0.4021 0.57151 0.0
C173 C 0.65253 0.4433 0.57026 0.0
C174 C 0.57845 0.38488 0.56936 0.0
C175 C 0.61376 0.37229 0.57051 0.0
C176 C 0.58012 0.42617 0.56808 0.0
C177 C 0.6181 0.56492 0.63747 0.0
C178 C 0.59361 0.50698 0.65973 0.0
C179 C 0.63211 0.57174 0.67598 0.0
C180 C 0.63577 0.58848 0.65583 0.0
C181 C 0.61066 0.5309 0.67825 0.0
C182 C 0.59736 0.52385 0.63947 0.0
C183 C 0.62004 0.58506 0.61678 0.0
O184 O 0.65783 0.62119 0.55847 0.0
O185 O 0.59213 0.60607 0.55356 0.0
O186 O 0.58757 0.57468 0.60316 0.0
O187 O 0.6534 0.58985 0.60781 0.0
H188 H 0.59151 0.67178 0.57603 0.0
H189 H 0.59394 0.74409 0.57541 0.0
H190 H 0.66919 0.76089 0.52388 0.0
H191 H 0.66671 0.68873 0.52461 0.0
H192 H 0.67864 0.39355 0.57211 0.0
H193 H 0.68153 0.46519 0.56988 0.0
H194 H 0.54941 0.36275 0.56885 0.0
H195 H 0.55225 0.43465 0.56615 0.0
H196 H 0.5772 0.47534 0.66091 0.0
H197 H 0.64501 0.5913 0.68983 0.0
H198 H 0.65168 0.62029 0.6546 0.0
H199 H 0.58356 0.50509 0.62546 0.0
C200 C 0.11623 0.63421 0.85266 0.0
C201 C 0.08893 0.60032 0.86026 0.0
C202 C 1.04185 0.59918 0.82894 0.0
C203 C 1.05225 0.58292 0.84852 0.0
C204 C 1.07015 0.63193 0.82082 0.0
C205 C 0.10715 0.64937 0.83265 0.0
U206 U 0.164 0.65963 0.90843 0.0
O207 O 0.20573 0.71583 0.92303 0.0
O208 O 0.22248 0.65843 0.92438 0.0
C209 C 0.23481 0.69818 0.92685 0.0
C210 C 0.15173 0.65595 0.86674 0.0
C211 C 0.27162 0.71592 0.91682 0.0
C212 C 0.29939 0.7268 0.88286 0.0
C213 C 0.26864 0.72693 0.89536 0.0
C214 C 0.3385 0.71005 0.91377 0.0
C215 C 0.33313 0.71509 0.89161 0.0
C216 C 0.30779 0.71036 0.92631 0.0
C217 C 0.10155 0.60929 0.95258 0.0
C218 C 0.12968 0.59574 0.98775 0.0
C219 C 1.05789 0.58483 0.98021 0.0
C220 C 1.06311 0.59756 0.95937 0.0
C221 C 0.0911 0.58337 0.99454 0.0
C222 C 0.1349 0.60878 0.96695 0.0
C223 C 0.10614 0.6193 0.93017 0.0
O224 O 0.14649 0.68571 0.87822 0.0
O225 O 0.17001 0.63248 0.87787 0.0
O226 O 0.13035 0.60239 0.92131 0.0
O227 O 0.11105 0.65768 0.92528 0.0
H228 H 0.09511 0.58847 0.87581 0.0
H229 H 1.031 0.55846 0.8556 0.0
H230 H 1.06305 0.64507 0.80578 0.0
H231 H 0.12788 0.67567 0.82662 0.0
H232 H 0.29478 0.73139 0.86589 0.0
H233 H 0.24087 0.73112 0.88766 0.0
H234 H 0.36413 0.70089 0.921 0.0
H235 H 0.31048 0.70153 0.94279 0.0
H236 H 0.15583 0.59546 0.99855 0.0
H237 H 1.02781 0.57526 0.985 0.0
H238 H 1.03705 0.59755 0.94842 0.0
H239 H 0.16486 0.61783 0.96198 0.0
C240 C 1.029 0.4695 0.47345 0.0
C241 C 0.99328 0.45136 0.46056 0.0
C242 C 0.97047 0.40366 0.48855 0.0
C243 C 0.96423 0.41882 0.46806 0.0
C244 C 1.0067 0.42163 0.5012 0.0
C245 C 1.03557 0.45424 0.49373 0.0
U246 U 0.08208 0.53256 0.42924 0.0
O247 O 0.10339 0.59874 0.42594 0.0
O248 O 0.14635 0.56213 0.42759 0.0
C249 C 0.1413 0.59886 0.42718 0.0
C250 C 1.0597 0.50432 0.46614 0.0
C251 C 0.1703 0.63042 0.44122 0.0
C252 C 0.18684 0.69347 0.4623 0.0
C253 C 0.15833 0.66107 0.45134 0.0
C254 C 0.23978 0.66476 0.45382 0.0
C255 C 0.22795 0.69603 0.4634 0.0
C256 C 0.2113 0.63246 0.44277 0.0
C257 C 1.04968 0.50212 0.37085 0.0
C258 C 0.09045 0.5294 0.3423 0.0
C259 C 1.01975 0.49546 0.3341 0.0
C260 C 1.01622 0.48864 0.35578 0.0
C261 C 1.05696 0.51575 0.32704 0.0
C262 C 0.0868 0.5228 0.364 0.0
C263 C 1.04525 0.49497 0.39362 0.0
O264 O 0.08868 0.49518 0.45719 0.0
O265 O 1.0463 0.53242 0.45601 0.0
O266 O 1.03246 0.52196 0.4035 0.0
O267 O 1.07496 0.48488 0.40474 0.0
H268 H 0.9877 0.46257 0.44478 0.0
H269 H 0.93661 0.40605 0.45795 0.0
H270 H 1.01296 0.41034 0.51687 0.0
H271 H 1.06309 0.46761 0.50384 0.0
H272 H 0.17672 0.71682 0.46973 0.0
H273 H 0.12703 0.66067 0.45038 0.0
H274 H 0.27122 0.66604 0.45415 0.0
H275 H 0.2215 0.60967 0.43487 0.0
H276 H 0.11963 0.54472 0.33747 0.0
H277 H 0.99316 0.48521 0.3229 0.0
H278 H 0.98725 0.47298 0.36079 0.0
H279 H 0.11299 0.53374 0.37542 0.0
C280 C 0.60265 0.88565 0.83796 0.0
C281 C 0.5887 0.85754 0.82083 0.0
C282 C 0.60958 0.80547 0.84186 0.0
C283 C 0.59203 0.81777 0.8228 0.0
C284 C 0.62439 0.83408 0.85873 0.0
C285 C 0.62085 0.87371 0.8568 0.0
U286 U 0.59731 0.98511 0.80977 0.0
O287 O 0.55393 0.02005 0.81394 0.0
O288 O 0.61826 0.04723 0.82349 0.0
C289 C 0.58196 0.05215 0.82188 0.0
C290 C 0.59677 0.92675 0.8371 0.0
C291 C 0.57712 0.09264 0.81624 0.0
C292 C 0.53879 0.14146 0.81989 0.0
C293 C 0.5419 0.10165 0.82082 0.0
C294 C 0.60552 0.16403 0.80866 0.0
C295 C 0.57091 0.17342 0.81432 0.0
C296 C 0.60868 0.12404 0.80968 0.0
C297 C 0.61784 0.99402 0.7498 0.0
C298 C 0.59743 0.03363 0.72082 0.0
C299 C 0.64757 0.99821 0.71638 0.0
C300 C 0.64466 0.98408 0.7371 0.0
C301 C 0.62371 0.0228 0.70783 0.0
C302 C 0.59452 0.01935 0.74166 0.0
C303 C 0.61317 0.97476 0.77068 0.0
O304 O 0.62876 0.95693 0.83497 0.0
O305 O 0.56451 0.93051 0.82551 0.0
O306 O 0.57679 0.96347 0.77669 0.0
O307 O 0.64109 0.99036 0.7863 0.0
H308 H 0.57473 0.86611 0.80607 0.0
H309 H 0.58084 0.79661 0.80941 0.0
H310 H 0.63772 0.82553 0.87368 0.0
H311 H 0.63167 0.8949 0.87022 0.0
H312 H 0.51191 0.14739 0.82467 0.0
H313 H 0.51739 0.07813 0.82624 0.0
H314 H 0.6306 0.18774 0.80396 0.0
H315 H 0.63632 0.11806 0.80614 0.0
H316 H 0.57894 0.05288 0.71484 0.0
H317 H 0.66759 0.98859 0.70681 0.0
H318 H 0.66269 0.96431 0.74302 0.0
H319 H 0.5736 0.02743 0.75123 0.0
C320 C 0.66103 0.55 0.13181 0.0
C321 C 0.68946 0.58551 0.12628 0.0
C322 C 0.74484 0.55515 0.13601 0.0
C323 C 0.73067 0.58797 0.12826 0.0
C324 C 0.71616 0.51931 0.14095 0.0
C325 C 0.67505 0.51685 0.13893 0.0
U326 U 0.54517 0.54333 0.11573 0.0
O327 O 0.4961 0.51217 0.13473 0.0
O328 O 0.51131 0.57828 0.13174 0.0
C329 C 0.48689 0.54583 0.13907 0.0
C330 C 0.61845 0.54939 0.13396 0.0
C331 C 0.44339 0.54398 0.13793 0.0
C332 C 0.38013 0.52177 0.15397 0.0
C333 C 0.41998 0.52098 0.15291 0.0
C334 C 0.38562 0.568 0.12467 0.0
C335 C 0.36233 0.54571 0.14007 0.0
C336 C 0.42558 0.56721 0.12364 0.0
C337 C 0.5449 0.53097 0.05348 0.0
C338 C 0.54629 0.54992 0.01621 0.0
C339 C 0.57268 0.49446 0.02858 0.0
C340 C 0.56334 0.50046 0.04925 0.0
C341 C 0.56348 0.51859 0.01169 0.0
C342 C 0.5371 0.55595 0.03682 0.0
C343 C 0.52873 0.53437 0.07406 0.0
O344 O 0.60587 0.58087 0.12761 0.0
O345 O 0.59047 0.51467 0.13075 0.0
O346 O 0.52502 0.50369 0.08706 0.0
O347 O 0.54004 0.57005 0.08399 0.0
H348 H 0.68008 0.61197 0.12107 0.0
H349 H 0.75148 0.61592 0.12397 0.0
H350 H 0.72548 0.49352 0.14729 0.0
H351 H 0.65431 0.48938 0.14386 0.0
H352 H 0.36376 0.50459 0.16624 0.0
H353 H 0.43294 0.50314 0.1643 0.0
H354 H 0.37306 0.58632 0.11342 0.0
H355 H 0.44271 0.58534 0.1119 0.0
H356 H 0.53946 0.56959 1.00374 0.0
H357 H 0.58573 0.46992 0.02568 0.0
H358 H 0.56946 0.48046 0.06171 0.0
H359 H 0.52262 0.57948 0.03959 0.0
H360 H 0.19614 0.5872 0.1469 0.0
H361 H 0.16006 0.4603 0.16266 0.0
H362 H 0.22724 0.45493 0.15867 0.0
H363 H 0.29643 0.48555 0.15023 0.0
H364 H 0.33314 0.61262 0.13492 0.0
H365 H 0.2659 0.61812 0.13884 0.0
C366 C 0.20291 0.55836 0.14956 0.0
C367 C 0.17256 0.52425 0.15514 0.0
C368 C 0.24195 0.55528 0.14712 0.0
C369 C 0.18237 0.48719 0.15838 0.0
C370 C 0.22098 0.48401 0.15607 0.0
C371 C 0.29 0.51462 0.1479 0.0
C372 C 0.32039 0.54854 0.14216 0.0
C373 C 0.25106 0.51778 0.15039 0.0
C374 C 0.31065 0.58566 0.13894 0.0
C375 C 0.27207 0.58898 0.14137 0.0
H376 H 0.848 0.27283 0.53805 0.0
H377 H 0.82111 0.21391 0.47587 0.0
H378 H 0.87035 0.27036 0.46154 0.0
H379 H 0.92244 0.33566 0.46691 0.0
H380 H 0.94805 0.39506 0.52904 0.0
H381 H 0.89866 0.33887 0.54318 0.0
C382 C 0.85308 0.27223 0.52139 0.0
C383 C 0.83094 0.2391 0.50808 0.0
C384 C 0.88147 0.30478 0.51325 0.0
C385 C 0.83744 0.23917 0.48643 0.0
C386 C 0.86577 0.27136 0.47825 0.0
C387 C 0.91694 0.3366 0.48348 0.0
C388 C 0.93933 0.36959 0.49687 0.0
C389 C 0.88806 0.30429 0.49152 0.0
C390 C 0.93198 0.36982 0.5184 0.0
C391 C 0.90347 0.33778 0.52651 0.0
H392 H 0.64364 0.63472 0.85906 0.0
H393 H 0.5224 0.59306 0.82866 0.0
H394 H 0.51919 0.66305 0.82513 0.0
H395 H 0.55101 0.73627 0.82991 0.0
H396 H 0.6724 0.77866 0.85978 0.0
H397 H 0.67523 0.70844 0.86435 0.0
C398 C 0.61646 0.64098 0.85179 0.0
C399 C 0.58346 0.60862 0.84403 0.0
C400 C 0.61486 0.68151 0.84959 0.0
C401 C 0.54846 0.61731 0.83459 0.0
C402 C 0.54653 0.65739 0.83256 0.0
C403 C 0.57823 0.73016 0.83723 0.0
C404 C 0.6115 0.76272 0.84438 0.0
C405 C 0.57967 0.68974 0.83977 0.0
C406 C 0.64625 0.75419 0.85425 0.0
C407 C 0.64794 0.71402 0.85681 0.0
H408 H 0.93527 0.59508 0.15801 0.0
H409 H 0.90879 0.46861 0.13868 0.0
H410 H 0.83829 0.46469 0.13164 0.0
H411 H 0.78316 0.49624 0.13036 0.0
H412 H 0.80719 0.62193 0.15019 0.0
H413 H 0.87867 0.62693 0.15706 0.0
C414 C 0.91409 0.56665 0.15232 0.0
C415 C 0.92807 0.5323 0.14894 0.0
C416 C 0.87268 0.56434 0.14812 0.0
C417 C 0.89967 0.49581 0.14147 0.0
C418 C 0.85894 0.49338 0.13737 0.0
C419 C 0.8038 0.52473 0.13638 0.0
C420 C 0.78915 0.55858 0.13967 0.0
C421 C 0.84501 0.52736 0.14058 0.0
C422 C 0.81712 0.59535 0.14711 0.0
C423 C 0.85822 0.5982 0.15125 0.0
H424 H 0.37301 0.83123 0.51074 0.0
H425 H 0.30696 0.90899 0.47958 0.0
H426 H 0.2553 0.84954 0.46446 0.0
H427 H 0.22941 0.77558 0.45941 0.0
H428 H 0.29552 0.69746 0.49003 0.0
H429 H 0.34692 0.75692 0.50569 0.0
C430 C 0.34749 0.83519 0.5005 0.0
C431 C 0.3439 0.87462 0.49639 0.0
C432 C 0.31791 0.80079 0.4917 0.0
C433 C 0.31027 0.87907 0.4833 0.0
C434 C 0.28078 0.84507 0.47453 0.0
C435 C 0.2548 0.77151 0.46973 0.0
C436 C 0.2585 0.73209 0.47359 0.0
C437 C 0.28426 0.8058 0.47863 0.0
C438 C 0.29206 0.72746 0.48666 0.0
C439 C 0.32141 0.76145 0.49568 0.0
H440 H 0.53185 0.34245 0.82338 0.0
H441 H 0.65741 0.37994 0.84677 0.0
H442 H 0.66259 0.31129 0.84029 0.0
H443 H 0.63104 0.24016 0.82899 0.0
H444 H 0.50634 0.20352 0.80367 0.0
H445 H 0.5013 0.27216 0.80997 0.0
C446 C 0.56029 0.33552 0.82714 0.0
C447 C 0.59409 0.36616 0.83574 0.0
C448 C 0.56326 0.29613 0.823 0.0
C449 C 0.63091 0.35689 0.84017 0.0
C450 C 0.63391 0.31763 0.83646 0.0
C451 C 0.60292 0.24726 0.82444 0.0
C452 C 0.56908 0.21639 0.81599 0.0
C453 C 0.60027 0.28698 0.82791 0.0
C454 C 0.53276 0.22632 0.81054 0.0
C455 C 0.52984 0.26567 0.81408 0.0
H456 H 0.65833 0.94789 0.54093 0.0
H457 H 0.53069 0.91187 0.54564 0.0
H458 H 0.53152 0.84123 0.54907 0.0
H459 H 0.56802 0.78924 0.55043 0.0
H460 H 0.69541 0.82452 0.54571 0.0
H461 H 0.69501 0.89568 0.54249 0.0
C462 C 0.63066 0.92463 0.54267 0.0
C463 C 0.59456 0.93543 0.54304 0.0
C464 C 0.63124 0.8838 0.54465 0.0
C465 C 0.55902 0.90469 0.54534 0.0
C466 C 0.5594 0.86415 0.54732 0.0
C467 C 0.59578 0.81256 0.54894 0.0
C468 C 0.63169 0.80159 0.54836 0.0
C469 C 0.5953 0.85335 0.54703 0.0
C470 C 0.66729 0.83211 0.54603 0.0
C471 C 0.6671 0.87283 0.54425 0.0
H472 H 0.85996 0.58197 0.81559 0.0
H473 H 0.85678 0.45929 0.83322 0.0
H474 H 0.92754 0.47215 0.82768 0.0
H475 H 0.99224 0.52211 0.82502 0.0
H476 H 0.99596 0.6469 0.81168 0.0
H477 H 0.92303 0.62892 0.80709 0.0
C478 C 0.87443 0.55766 0.8175 0.0
C479 C 0.85357 0.51997 0.82511 0.0
C480 C 0.91538 0.5658 0.81511 0.0
C481 C 0.8726 0.48875 0.82767 0.0
C482 C 0.91299 0.49612 0.82453 0.0
C483 C 0.97704 0.5452 0.82069 0.0
C484 C 0.99954 0.58595 0.81929 0.0
C485 C 0.93511 0.53517 0.8194 0.0
C486 C 0.97952 0.6153 0.81297 0.0
C487 C 0.9377 0.60515 0.81063 0.0
H488 H 0.26207 0.79613 0.17915 0.0
H489 H 0.23665 0.74245 0.23999 0.0
H490 H 0.29836 0.78856 0.25702 0.0
H491 H 0.35888 0.84498 0.25491 0.0
H492 H 0.38511 0.89848 0.19411 0.0
H493 H 0.32339 0.85232 0.17697 0.0
C494 C 0.26989 0.79469 0.19616 0.0
C495 C 0.24464 0.76569 0.20822 0.0
C496 C 0.30551 0.82147 0.20592 0.0
C497 C 0.25566 0.76399 0.23022 0.0
C498 C 0.29088 0.79055 0.24002 0.0
C499 C 0.35145 0.84629 0.23785 0.0
C500 C 0.37686 0.8753 0.22587 0.0
C501 C 0.31604 0.81941 0.22805 0.0
C502 C 0.36605 0.87691 0.20384 0.0
C503 C 0.3308 0.85032 0.19398 0.0
H504 H 0.63769 0.19586 0.56978 0.0
H505 H 0.53469 0.17529 0.52282 0.0
H506 H 0.53247 0.24543 0.52797 0.0
H507 H 0.56126 0.31319 0.54492 0.0
H508 H 0.66297 0.33274 0.59267 0.0
H509 H 0.66426 0.26234 0.58798 0.0
C510 C 0.61477 0.20668 0.56061 0.0
C511 C 0.5866 0.1804 0.54579 0.0
C512 C 0.61343 0.24686 0.56379 0.0
C513 C 0.55679 0.19485 0.53429 0.0
C514 C 0.5555 0.23497 0.53723 0.0
C515 C 0.58327 0.3019 0.5546 0.0
C516 C 0.61208 0.32839 0.56909 0.0
C517 C 0.58377 0.26128 0.55188 0.0
C518 C 0.64079 0.31327 0.5812 0.0
C519 C 0.64149 0.27296 0.57858 0.0
H520 H 0.44305 0.61879 0.85724 0.0
H521 H 0.3295 0.554 0.82351 0.0
H522 H 0.29948 0.6064 0.83437 0.0
H523 H 0.30271 0.66332 0.85822 0.0
H524 H 0.41447 0.72529 0.89451 0.0
H525 H 0.44822 0.68128 0.87778 0.0
C526 C 0.41178 0.61633 0.85216 0.0
C527 C 0.38825 0.58217 0.83998 0.0
C528 C 0.39445 0.64587 0.85902 0.0
C529 C 0.34817 0.57991 0.83295 0.0
C530 C 0.33095 0.60974 0.83926 0.0
C531 C 0.33479 0.66832 0.86191 0.0
C532 C 0.3561 0.69749 0.87762 0.0
C533 C 0.35344 0.64195 0.85292 0.0
C534 C 0.39747 0.70293 0.88252 0.0
C535 C 0.41664 0.67761 0.87307 0.0
H536 H 0.89249 0.25392 0.19476 0.0
H537 H 0.82199 0.31989 0.15699 0.0
H538 H 0.76044 0.27396 0.16767 0.0
H539 H 0.72639 0.21504 0.18784 0.0
H540 H 0.79688 0.14888 0.22549 0.0
H541 H 0.85843 0.19478 0.21478 0.0
C542 C 0.86365 0.25804 0.18871 0.0
C543 C 0.86199 0.2904 0.17507 0.0
C544 C 0.82826 0.23151 0.19497 0.0
C545 C 0.82428 0.29559 0.16768 0.0
C546 C 0.78899 0.26918 0.17371 0.0
C547 C 0.7552 0.21046 0.19358 0.0
C548 C 0.75687 0.17848 0.20749 0.0
C549 C 0.79059 0.23704 0.18736 0.0
C550 C 0.79461 0.17347 0.21499 0.0
C551 C 0.82987 0.1996 0.20878 0.0
H552 H 0.08887 0.51149 0.08701 0.0
H553 H 1.01172 0.5895 0.09274 0.0
H554 H 1.01662 0.60832 0.05558 0.0
H555 H 1.04537 0.60535 0.02199 0.0
H556 H 0.12455 0.52959 0.01631 0.0
H557 H 0.11661 0.50739 0.05293 0.0
C558 C 1.07279 0.53221 0.08002 0.0
C559 C 1.04999 0.54907 0.09257 0.0
C560 C 1.07644 0.54364 0.05873 0.0
C561 C 1.02965 0.57627 0.08341 0.0
C562 C 1.03243 0.58708 0.06217 0.0
C563 C 1.06053 0.58365 0.02871 0.0
C564 C 0.08552 0.56916 0.01653 0.0
C565 C 1.05614 0.57138 0.04977 0.0
C566 C 0.10547 0.5415 0.02551 0.0
C567 C 0.1008 0.52865 0.04638 0.0
H568 H 0.63987 0.10967 0.47227 0.0
H569 H 0.53956 1.00191 0.46818 0.0
H570 H 0.54012 0.99863 0.42957 0.0
H571 H 0.56972 0.02564 0.39692 0.0
H572 H 0.66894 0.13434 0.40102 0.0
H573 H 0.66837 0.13754 0.43959 0.0
C574 C 0.61805 0.08548 0.46296 0.0
C575 C 0.58974 0.05609 0.4732 0.0
C576 C 0.61845 0.08375 0.4407 0.0
C577 C 0.56172 0.025 0.46079 0.0
C578 C 0.56201 0.02305 0.43867 0.0
C579 C 0.59096 0.05029 0.4062 0.0
C580 C 0.61948 0.07953 0.39598 0.0
C581 C 0.59027 0.05222 0.42844 0.0
C582 C 0.64709 0.11094 0.40841 0.0
C583 C 0.64664 0.11299 0.4305 0.0
H584 H 0.55332 0.4651 0.76681 0.0
H585 H 0.6757 0.53062 0.78812 0.0
H586 H 0.68913 0.54556 0.75136 0.0
H587 H 0.66526 0.54388 0.7134 0.0
H588 H 0.54226 0.48121 0.692 0.0
H589 H 0.53034 0.4605 0.72841 0.0
C590 C 0.58305 0.48228 0.76341 0.0
C591 C 0.61333 0.49696 0.78029 0.0
C592 C 0.59053 0.49129 0.74217 0.0
C593 C 0.65168 0.51919 0.77553 0.0
C594 C 0.65944 0.52778 0.75447 0.0
C595 C 0.63581 0.52568 0.71668 0.0
C596 C 0.60465 0.51446 0.69995 0.0
C597 C 0.62891 0.51466 0.73772 0.0
C598 C 0.56694 0.49006 0.70447 0.0
C599 C 0.55998 0.47848 0.72536 0.0
H600 H 0.65659 0.06126 0.61212 0.0
H601 H 0.52841 0.04292 0.6051 0.0
H602 H 0.5268 0.03336 0.64341 0.0
H603 H 0.5612 0.02621 0.67863 0.0
H604 H 0.68972 0.04697 0.68581 0.0
H605 H 0.69165 0.0594 0.64779 0.0
C606 C 0.62831 0.05529 0.61897 0.0
C607 C 0.59266 0.05249 0.60569 0.0
C608 C 0.62759 0.05006 0.64107 0.0
C609 C 0.55635 0.04524 0.61491 0.0
C610 C 0.55536 0.03968 0.63684 0.0
C611 C 0.58975 0.03422 0.672 0.0
C612 C 0.62518 0.03513 0.68513 0.0
C613 C 0.59073 0.04159 0.65006 0.0
C614 C 0.66183 0.04519 0.67608 0.0
C615 C 0.66302 0.05248 0.65431 0.0
H616 H 0.61905 0.48337 0.92263 0.0
H617 H 0.50495 0.50348 0.90015 0.0
H618 H 0.49263 0.51428 0.93675 0.0
H619 H 0.51434 0.51899 0.97516 0.0
H620 H 0.62856 0.49971 0.99784 0.0
H621 H 0.64039 0.4872 0.96124 0.0
C622 C 0.59137 0.48993 0.92569 0.0
C623 C 0.56302 0.49259 0.9085 0.0
C624 C 0.58444 0.4963 0.94688 0.0
C625 C 0.52737 0.50116 0.91293 0.0
C626 C 0.52028 0.50744 0.93392 0.0
C627 C 0.54202 0.51241 0.97212 0.0
C628 C 0.57061 0.51057 0.98933 0.0
C629 C 0.5487 0.50537 0.95101 0.0
C630 C 0.60588 0.50107 0.98501 0.0
C631 C 0.61275 0.49409 0.96403 0.0
H632 H 0.08896 0.5705 0.23281 0.0
H633 H 1.00578 0.45223 0.2186 0.0
H634 H 1.0014 0.44064 0.25653 0.0
H635 H 1.02091 0.46378 0.29371 0.0
H636 H 0.10171 0.5831 0.30819 0.0
H637 H 0.10779 0.59413 0.27026 0.0
C638 C 1.06997 0.54215 0.23802 0.0
C639 C 1.04774 0.51233 0.22284 0.0
C640 C 1.06724 0.53573 0.25993 0.0
C641 C 1.02313 0.47583 0.22989 0.0
C642 C 1.02061 0.46909 0.25161 0.0
C643 C 1.03951 0.49243 0.28861 0.0
C644 C 1.06075 0.52252 0.30389 0.0
C645 C 1.04238 0.49887 0.26676 0.0
C646 C 0.08539 0.5591 0.29688 0.0
C647 C 0.08869 0.56559 0.27515 0.0
loop_
_geom_bond_atom_site_label_1
_geom_bond_atom_site_label_2
_geom_bond_distance
_geom_bond_site_symmetry_2
_ccdc_geom_bond_type
Dy0 O3 2.307 1_455 S
Dy0 O5 2.395 . S
Dy0 O6 2.379 . S
Dy0 O8 2.339 . S
Dy0 O10 2.298 . S
Dy0 O14 2.275 . S
Dy0 C22 2.738 . S
Dy1 O4 2.298 . S
Dy1 O7 2.275 1_655 S
Dy1 O9 2.307 1_655 S
Dy1 O11 2.395 . S
Dy1 O12 2.379 . S
Dy1 O15 2.339 . S
Dy1 C31 2.738 . S
C2 O14 1.254 . S
C2 O15 1.257 1_455 S
O3 Dy0 2.307 1_655 S
O3 C13 1.266 . S
O4 Dy1 2.298 . S
O4 C13 1.236 . S
O5 Dy0 2.395 . S
O5 C22 1.255 . S
O6 Dy0 2.379 . S
O6 C22 1.249 . S
O7 Dy1 2.275 1_455 S
O7 C23 1.254 . S
O8 Dy0 2.339 . S
O8 C23 1.257 . S
O9 Dy1 2.307 1_455 S
O9 C24 1.266 . S
O10 Dy0 2.298 . S
O10 C24 1.236 . S
O11 Dy1 2.395 . S
O11 C31 1.255 . S
O12 Dy1 2.379 . S
O12 C31 1.249 . S
C13 O3 1.266 . S
C13 O4 1.236 . S
O14 Dy0 2.275 . S
O14 C2 1.254 . S
O15 Dy1 2.339 . S
O15 C2 1.257 1_655 S
C16 C19 1.344 . S
C16 C20 1.328 . S
C16 C22 1.516 . S
C17 C18 1.304 . S
C17 C21 1.323 . S
C18 C17 1.304 . S
C18 C19 1.371 . S
C18 H32 0.930 . S
C19 C16 1.344 . S
C19 C18 1.371 . S
C19 H33 0.931 . S
C20 C16 1.328 . S
C20 C21 1.433 . S
C20 H34 0.931 . S
C21 C17 1.323 . S
C21 C20 1.433 . S
C21 H35 0.933 . S
C22 Dy0 2.738 . S
C22 O5 1.255 . S
C22 O6 1.249 . S
C22 C16 1.516 . S
C23 O7 1.254 . S
C23 O8 1.257 . S
C24 O9 1.266 . S
C24 O10 1.236 . S
C25 C28 1.344 . S
C25 C29 1.328 . S
C25 C31 1.516 . S
C26 C27 1.304 . S
C26 C30 1.323 . S
C27 C26 1.304 . S
C27 C28 1.371 . S
C27 H36 0.930 . S
C28 C25 1.344 . S
C28 C27 1.371 . S
C28 H37 0.931 . S
C29 C25 1.328 . S
C29 C30 1.433 . S
C29 H38 0.931 . S
C30 C26 1.323 . S
C30 C29 1.433 . S
C30 H39 0.933 . S
C31 Dy1 2.738 . S
C31 O11 1.255 . S
C31 O12 1.249 . S
C31 C25 1.516 . S
H32 C18 0.930 . S
H33 C19 0.931 . S
H34 C20 0.931 . S
H35 C21 0.933 . S
H36 C27 0.930 . S
H37 C28 0.931 . S
H38 C29 0.931 . S
H39 C30 0.933 . S
Dy40 O43 2.307 . S
Dy40 O45 2.395 1_545 S
Dy40 O46 2.379 1_545 S
Dy40 O48 2.339 . S
Dy40 O50 2.298 1_545 S
Dy40 O54 2.275 . S
Dy40 C62 2.738 1_545 S
Dy41 O44 2.298 . S
Dy41 O47 2.275 . S
Dy41 O49 2.307 1_545 S
Dy41 O51 2.395 . S
Dy41 O52 2.379 . S
Dy41 O55 2.339 . S
Dy41 C71 2.738 . S
C42 O54 1.254 . S
C42 O55 1.257 . S
O43 Dy40 2.307 . S
O43 C53 1.266 . S
O44 Dy41 2.298 . S
O44 C53 1.236 . S
O45 Dy40 2.395 1_565 S
O45 C62 1.255 . S
O46 Dy40 2.379 1_565 S
O46 C62 1.249 . S
O47 Dy41 2.275 . S
O47 C63 1.254 . S
O48 Dy40 2.339 . S
O48 C63 1.257 . S
O49 Dy41 2.307 1_565 S
O49 C64 1.266 . S
O50 Dy40 2.298 1_565 S
O50 C64 1.236 . S
O51 Dy41 2.395 . S
O51 C71 1.255 . S
O52 Dy41 2.379 . S
O52 C71 1.249 . S
C53 O43 1.266 . S
C53 O44 1.236 . S
O54 Dy40 2.275 . S
O54 C42 1.254 . S
O55 Dy41 2.339 . S
O55 C42 1.257 . S
C56 C59 1.344 . S
C56 C60 1.328 . S
C56 C62 1.516 . S
C57 C58 1.304 . S
C57 C61 1.323 . S
C58 C57 1.304 . S
C58 C59 1.371 . S
C58 H72 0.930 . S
C59 C56 1.344 . S
C59 C58 1.371 . S
C59 H73 0.931 . S
C60 C56 1.328 . S
C60 C61 1.433 . S
C60 H74 0.931 . S
C61 C57 1.323 . S
C61 C60 1.433 . S
C61 H75 0.933 . S
C62 Dy40 2.738 1_565 S
C62 O45 1.255 . S
C62 O46 1.249 . S
C62 C56 1.516 . S
C63 O47 1.254 . S
C63 O48 1.257 . S
C64 O49 1.266 . S
C64 O50 1.236 . S
C65 C68 1.344 . S
C65 C69 1.328 . S
C65 C71 1.516 . S
C66 C67 1.304 . S
C66 C70 1.323 . S
C67 C66 1.304 . S
C67 C68 1.371 . S
C67 H76 0.930 . S
C68 C65 1.344 . S
C68 C67 1.371 . S
C68 H77 0.931 . S
C69 C65 1.328 . S
C69 C70 1.433 . S
C69 H78 0.931 . S
C70 C66 1.323 . S
C70 C69 1.433 . S
C70 H79 0.933 . S
C71 Dy41 2.738 . S
C71 O51 1.255 . S
C71 O52 1.249 . S
C71 C65 1.516 . S
H72 C58 0.930 . S
H73 C59 0.931 . S
H74 C60 0.931 . S
H75 C61 0.933 . S
H76 C67 0.930 . S
H77 C68 0.931 . S
H78 C69 0.931 . S
H79 C70 0.933 . S
Dy80 O83 2.307 . S
Dy80 O85 2.395 . S
Dy80 O86 2.379 . S
Dy80 O88 2.339 . S
Dy80 O90 2.298 . S
Dy80 O94 2.275 . S
Dy80 C102 2.738 . S
Dy81 O84 2.298 . S
Dy81 O87 2.275 . S
Dy81 O89 2.307 . S
Dy81 O91 2.395 . S
Dy81 O92 2.379 . S
Dy81 O95 2.339 . S
Dy81 C111 2.738 . S
C82 O94 1.254 . S
C82 O95 1.257 . S
O83 Dy80 2.307 . S
O83 C93 1.266 . S
O84 Dy81 2.298 . S
O84 C93 1.236 . S
O85 Dy80 2.395 . S
O85 C102 1.255 . S
O86 Dy80 2.379 . S
O86 C102 1.249 . S
O87 Dy81 2.275 . S
O87 C103 1.254 . S
O88 Dy80 2.339 . S
O88 C103 1.257 . S
O89 Dy81 2.307 . S
O89 C104 1.266 . S
O90 Dy80 2.298 . S
O90 C104 1.236 . S
O91 Dy81 2.395 . S
O91 C111 1.255 . S
O92 Dy81 2.379 . S
O92 C111 1.249 . S
C93 O83 1.266 . S
C93 O84 1.236 . S
O94 Dy80 2.275 . S
O94 C82 1.254 . S
O95 Dy81 2.339 . S
O95 C82 1.257 . S
C96 C99 1.344 . S
C96 C100 1.328 . S
C96 C102 1.516 . S
C97 C98 1.304 . S
C97 C101 1.323 . S
C98 C97 1.304 . S
C98 C99 1.371 . S
C98 H112 0.930 . S
C99 C96 1.344 . S
C99 C98 1.371 . S
C99 H113 0.931 . S
C100 C96 1.328 . S
C100 C101 1.433 . S
C100 H114 0.931 . S
C101 C97 1.323 . S
C101 C100 1.433 . S
C101 H115 0.933 . S
C102 Dy80 2.738 . S
C102 O85 1.255 . S
C102 O86 1.249 . S
C102 C96 1.516 . S
C103 O87 1.254 . S
C103 O88 1.257 . S
C104 O89 1.266 . S
C104 O90 1.236 . S
C105 C108 1.344 . S
C105 C109 1.328 . S
C105 C111 1.516 . S
C106 C107 1.304 . S
C106 C110 1.323 . S
C107 C106 1.304 . S
C107 C108 1.371 . S
C107 H116 0.930 . S
C108 C105 1.344 . S
C108 C107 1.371 . S
C108 H117 0.931 . S
C109 C105 1.328 . S
C109 C110 1.433 . S
C109 H118 0.931 . S
C110 C106 1.323 . S
C110 C109 1.433 . S
C110 H119 0.933 . S
C111 Dy81 2.738 . S
C111 O91 1.255 . S
C111 O92 1.249 . S
C111 C105 1.516 . S
H112 C98 0.930 . S
H113 C99 0.931 . S
H114 C100 0.931 . S
H115 C101 0.933 . S
H116 C107 0.930 . S
H117 C108 0.931 . S
H118 C109 0.931 . S
H119 C110 0.933 . S
C120 C121 1.264 . S
C120 C125 1.479 . S
C120 C130 1.465 . S
C121 C120 1.264 . S
C121 C123 1.339 . S
C121 H148 0.931 . S
C122 C123 1.395 . S
C122 C124 1.320 . S
C123 C121 1.339 . S
C123 C122 1.395 . S
C123 H149 0.929 . S
C124 C122 1.320 . S
C124 C125 1.405 . S
C124 H150 0.930 . S
C125 C120 1.479 . S
C125 C124 1.405 . S
C125 H151 0.931 . S
U126 O127 2.454 . S
U126 O128 2.458 . S
U126 C129 2.990 . S
U126 C130 2.847 . S
U126 C143 2.882 . S
U126 O144 2.441 . S
U126 O145 2.420 . S
U126 O146 2.455 . S
U126 O147 2.449 . S
O127 U126 2.454 . S
O127 C129 1.359 . S
O128 U126 2.458 . S
O128 C129 1.286 . S
C129 U126 2.990 . S
C129 O127 1.359 . S
C129 O128 1.286 . S
C129 C131 1.357 1_545 S
C130 C120 1.465 . S
C130 U126 2.847 . S
C130 O144 1.249 . S
C130 O145 1.202 . S
C131 C129 1.357 1_565 S
C131 C133 1.408 . S
C131 C136 1.342 . S
C132 C133 1.310 . S
C132 C135 1.461 . S
C132 H152 0.932 . S
C133 C131 1.408 . S
C133 C132 1.310 . S
C133 H153 0.930 . S
C134 C135 1.474 . S
C134 C136 1.285 . S
C134 H154 0.929 . S
C135 C132 1.461 . S
C135 C134 1.474 . S
C136 C131 1.342 . S
C136 C134 1.285 . S
C136 H155 0.930 . S
C137 C140 1.424 . S
C137 C142 1.245 . S
C137 C143 1.428 . S
C138 C141 1.260 . S
C138 C142 1.477 . S
C138 H156 0.932 . S
C139 C140 1.384 . S
C139 C141 1.479 . S
C139 H157 0.929 . S
C140 C137 1.424 . S
C140 C139 1.384 . S
C140 H158 0.928 . S
C141 C138 1.260 . S
C141 C139 1.479 . S
C142 C137 1.245 . S
C142 C138 1.477 . S
C142 H159 0.932 . S
C143 U126 2.882 . S
C143 C137 1.428 . S
C143 O146 1.301 . S
C143 O147 1.282 . S
O144 U126 2.441 . S
O144 C130 1.249 . S
O145 U126 2.420 . S
O145 C130 1.202 . S
O146 U126 2.455 . S
O146 C143 1.301 . S
O147 U126 2.449 . S
O147 C143 1.282 . S
H148 C121 0.931 . S
H149 C123 0.929 . S
H150 C124 0.930 . S
H151 C125 0.931 . S
H152 C132 0.932 . S
H153 C133 0.930 . S
H154 C134 0.929 . S
H155 C136 0.930 . S
H156 C138 0.932 . S
H157 C139 0.929 . S
H158 C140 0.928 . S
H159 C142 0.932 . S
C160 C161 1.264 . S
C160 C165 1.479 . S
C160 C170 1.465 . S
C161 C160 1.264 . S
C161 C163 1.339 . S
C161 H188 0.931 . S
C162 C163 1.395 . S
C162 C164 1.320 . S
C163 C161 1.339 . S
C163 C162 1.395 . S
C163 H189 0.929 . S
C164 C162 1.320 . S
C164 C165 1.405 . S
C164 H190 0.930 . S
C165 C160 1.479 . S
C165 C164 1.405 . S
C165 H191 0.931 . S
U166 O167 2.454 . S
U166 O168 2.458 . S
U166 C169 2.984 . S
U166 C170 2.847 . S
U166 C183 2.882 . S
U166 O184 2.441 . S
U166 O185 2.420 . S
U166 O186 2.455 . S
U166 O187 2.449 . S
O167 U166 2.454 . S
O167 C169 1.353 . S
O168 U166 2.458 . S
O168 C169 1.286 . S
C169 U166 2.984 . S
C169 O167 1.353 . S
C169 O168 1.286 . S
C169 C171 1.363 . S
C170 C160 1.465 . S
C170 U166 2.847 . S
C170 O184 1.249 . S
C170 O185 1.202 . S
C171 C169 1.363 . S
C171 C173 1.408 . S
C171 C176 1.342 . S
C172 C173 1.310 . S
C172 C175 1.461 . S
C172 H192 0.932 . S
C173 C171 1.408 . S
C173 C172 1.310 . S
C173 H193 0.930 . S
C174 C175 1.474 . S
C174 C176 1.285 . S
C174 H194 0.929 . S
C175 C172 1.461 . S
C175 C174 1.474 . S
C176 C171 1.342 . S
C176 C174 1.285 . S
C176 H195 0.930 . S
C177 C180 1.424 . S
C177 C182 1.245 . S
C177 C183 1.428 . S
C178 C181 1.260 . S
C178 C182 1.477 . S
C178 H196 0.932 . S
C179 C180 1.384 . S
C179 C181 1.479 . S
C179 H197 0.929 . S
C180 C177 1.424 . S
C180 C179 1.384 . S
C180 H198 0.928 . S
C181 C178 1.260 . S
C181 C179 1.479 . S
C182 C177 1.245 . S
C182 C178 1.477 . S
C182 H199 0.932 . S
C183 U166 2.882 . S
C183 C177 1.428 . S
C183 O186 1.301 . S
C183 O187 1.282 . S
O184 U166 2.441 . S
O184 C170 1.249 . S
O185 U166 2.420 . S
O185 C170 1.202 . S
O186 U166 2.455 . S
O186 C183 1.301 . S
O187 U166 2.449 . S
O187 C183 1.282 . S
H188 C161 0.931 . S
H189 C163 0.929 . S
H190 C164 0.930 . S
H191 C165 0.931 . S
H192 C172 0.932 . S
H193 C173 0.930 . S
H194 C174 0.929 . S
H195 C176 0.930 . S
H196 C178 0.932 . S
H197 C179 0.929 . S
H198 C180 0.928 . S
H199 C182 0.932 . S
C200 C201 1.264 . S
C200 C205 1.479 . S
C200 C210 1.465 . S
C201 C200 1.264 . S
C201 C203 1.339 . S
C201 H228 0.931 . S
C202 C203 1.395 . S
C202 C204 1.320 . S
C203 C201 1.339 . S
C203 C202 1.395 . S
C203 H229 0.929 . S
C204 C202 1.320 . S
C204 C205 1.405 . S
C204 H230 0.930 . S
C205 C200 1.479 . S
C205 C204 1.405 . S
C205 H231 0.931 . S
U206 O207 2.454 . S
U206 O208 2.458 . S
U206 C209 2.984 . S
U206 C210 2.847 1_455 S
U206 C223 2.882 . S
U206 O224 2.441 1_455 S
U206 O225 2.420 1_455 S
U206 O226 2.455 . S
U206 O227 2.449 1_455 S
O207 U206 2.454 . S
O207 C209 1.353 . S
O208 U206 2.458 . S
O208 C209 1.286 . S
C209 U206 2.984 . S
C209 O207 1.353 . S
C209 O208 1.286 . S
C209 C211 1.363 . S
C210 C200 1.465 . S
C210 U206 2.847 1_655 S
C210 O224 1.249 . S
C210 O225 1.202 . S
C211 C209 1.363 . S
C211 C213 1.408 . S
C211 C216 1.342 . S
C212 C213 1.310 . S
C212 C215 1.461 . S
C212 H232 0.932 . S
C213 C211 1.408 . S
C213 C212 1.310 . S
C213 H233 0.930 . S
C214 C215 1.474 . S
C214 C216 1.285 . S
C214 H234 0.929 . S
C215 C212 1.461 . S
C215 C214 1.474 . S
C216 C211 1.342 . S
C216 C214 1.285 . S
C216 H235 0.930 . S
C217 C220 1.424 1_455 S
C217 C222 1.245 . S
C217 C223 1.428 . S
C218 C221 1.260 . S
C218 C222 1.477 1_554 S
C218 H236 0.932 . S
C219 C220 1.384 1_554 S
C219 C221 1.479 1_655 S
C219 H237 0.929 . S
C220 C217 1.424 1_655 S
C220 C219 1.384 1_556 S
C220 H238 0.928 . S
C221 C218 1.260 . S
C221 C219 1.479 1_455 S
C222 C217 1.245 . S
C222 C218 1.477 1_556 S
C222 H239 0.932 . S
C223 U206 2.882 . S
C223 C217 1.428 . S
C223 O226 1.301 . S
C223 O227 1.282 1_455 S
O224 U206 2.441 1_655 S
O224 C210 1.249 . S
O225 U206 2.420 1_655 S
O225 C210 1.202 . S
O226 U206 2.455 . S
O226 C223 1.301 . S
O227 U206 2.449 1_655 S
O227 C223 1.282 1_655 S
H228 C201 0.931 . S
H229 C203 0.929 . S
H230 C204 0.930 . S
H231 C205 0.931 . S
H232 C212 0.932 . S
H233 C213 0.930 . S
H234 C214 0.929 . S
H235 C216 0.930 . S
H236 C218 0.932 . S
H237 C219 0.929 . S
H238 C220 0.928 . S
H239 C222 0.932 . S
C240 C241 1.264 . S
C240 C245 1.479 . S
C240 C250 1.465 . S
C241 C240 1.264 . S
C241 C243 1.339 . S
C241 H268 0.931 . S
C242 C243 1.395 . S
C242 C244 1.320 . S
C243 C241 1.339 . S
C243 C242 1.395 . S
C243 H269 0.929 . S
C244 C242 1.320 . S
C244 C245 1.405 . S
C244 H270 0.930 . S
C245 C240 1.479 . S
C245 C244 1.405 . S
C245 H271 0.931 . S
U246 O247 2.454 . S
U246 O248 2.458 . S
U246 C249 2.984 . S
U246 C250 2.847 1_455 S
U246 C263 2.882 1_455 S
U246 O264 2.441 1_455 S
U246 O265 2.420 1_455 S
U246 O266 2.455 . S
U246 O267 2.449 1_455 S
O247 U246 2.454 . S
O247 C249 1.353 . S
O248 U246 2.458 . S
O248 C249 1.286 . S
C249 U246 2.984 . S
C249 O247 1.353 . S
C249 O248 1.286 . S
C249 C251 1.363 . S
C250 C240 1.465 . S
C250 U246 2.847 1_655 S
C250 O264 1.249 . S
C250 O265 1.202 . S
C251 C249 1.363 . S
C251 C253 1.408 . S
C251 C256 1.342 . S
C252 C253 1.310 . S
C252 C255 1.461 . S
C252 H272 0.932 . S
C253 C251 1.408 . S
C253 C252 1.310 . S
C253 H273 0.930 . S
C254 C255 1.474 . S
C254 C256 1.285 . S
C254 H274 0.929 . S
C255 C252 1.461 . S
C255 C254 1.474 . S
C256 C251 1.342 . S
C256 C254 1.285 . S
C256 H275 0.930 . S
C257 C260 1.424 . S
C257 C262 1.245 1_655 S
C257 C263 1.428 . S
C258 C261 1.260 1_455 S
C258 C262 1.477 . S
C258 H276 0.932 . S
C259 C260 1.384 . S
C259 C261 1.479 . S
C259 H277 0.929 . S
C260 C257 1.424 . S
C260 C259 1.384 . S
C260 H278 0.928 . S
C261 C258 1.260 1_655 S
C261 C259 1.479 . S
C262 C257 1.245 1_455 S
C262 C258 1.477 . S
C262 H279 0.932 . S
C263 U246 2.882 1_655 S
C263 C257 1.428 . S
C263 O266 1.301 1_655 S
C263 O267 1.282 . S
O264 U246 2.441 1_655 S
O264 C250 1.249 . S
O265 U246 2.420 1_655 S
O265 C250 1.202 . S
O266 U246 2.455 . S
O266 C263 1.301 1_455 S
O267 U246 2.449 1_655 S
O267 C263 1.282 . S
H268 C241 0.931 . S
H269 C243 0.929 . S
H270 C244 0.930 . S
H271 C245 0.931 . S
H272 C252 0.932 . S
H273 C253 0.930 . S
H274 C254 0.929 . S
H275 C256 0.930 . S
H276 C258 0.932 . S
H277 C259 0.929 . S
H278 C260 0.928 . S
H279 C262 0.932 . S
C280 C281 1.264 . S
C280 C285 1.479 . S
C280 C290 1.465 . S
C281 C280 1.264 . S
C281 C283 1.339 . S
C281 H308 0.931 . S
C282 C283 1.395 . S
C282 C284 1.320 . S
C283 C281 1.339 . S
C283 C282 1.395 . S
C283 H309 0.929 . S
C284 C282 1.320 . S
C284 C285 1.405 . S
C284 H310 0.930 . S
C285 C280 1.479 . S
C285 C284 1.405 . S
C285 H311 0.931 . S
U286 O287 2.438 1_565 S
U286 O288 2.430 1_565 S
U286 C289 2.960 1_565 S
U286 C290 2.871 . S
U286 C303 2.883 . S
U286 O304 2.457 . S
U286 O305 2.448 . S
U286 O306 2.442 1_565 S
U286 O307 2.461 . S
O287 U286 2.438 1_545 S
O287 C289 1.353 . S
O288 U286 2.430 1_545 S
O288 C289 1.286 . S
C289 U286 2.960 1_545 S
C289 O287 1.353 . S
C289 O288 1.286 . S
C289 C291 1.363 . S
C290 C280 1.465 . S
C290 U286 2.871 . S
C290 O304 1.249 . S
C290 O305 1.202 . S
C291 C289 1.363 . S
C291 C293 1.408 . S
C291 C296 1.342 . S
C292 C293 1.310 . S
C292 C295 1.461 . S
C292 H312 0.932 . S
C293 C291 1.408 . S
C293 C292 1.310 . S
C293 H313 0.930 . S
C294 C295 1.474 . S
C294 C296 1.285 . S
C294 H314 0.929 . S
C295 C292 1.461 . S
C295 C294 1.474 . S
C296 C291 1.342 . S
C296 C294 1.285 . S
C296 H315 0.930 . S
C297 C300 1.424 1_545 S
C297 C302 1.245 . S
C297 C303 1.428 1_545 S
C298 C301 1.260 . S
C298 C302 1.477 . S
C298 H316 0.932 . S
C299 C300 1.384 . S
C299 C301 1.479 1_565 S
C299 H317 0.929 . S
C300 C297 1.424 1_565 S
C300 C299 1.384 . S
C300 H318 0.928 . S
C301 C298 1.260 . S
C301 C299 1.479 1_545 S
C302 C297 1.245 . S
C302 C298 1.477 . S
C302 H319 0.932 . S
C303 U286 2.883 . S
C303 C297 1.428 1_565 S
C303 O306 1.302 1_565 S
C303 O307 1.281 . S
O304 U286 2.457 . S
O304 C290 1.249 . S
O305 U286 2.448 . S
O305 C290 1.202 . S
O306 U286 2.442 1_545 S
O306 C303 1.302 1_545 S
O307 U286 2.461 . S
O307 C303 1.281 . S
H308 C281 0.931 . S
H309 C283 0.929 . S
H310 C284 0.930 . S
H311 C285 0.931 . S
H312 C292 0.932 . S
H313 C293 0.930 . S
H314 C294 0.929 . S
H315 C296 0.930 . S
H316 C298 0.932 . S
H317 C299 0.929 . S
H318 C300 0.928 . S
H319 C302 0.932 . S
C320 C321 1.264 . S
C320 C325 1.479 . S
C320 C330 1.465 . S
C321 C320 1.264 . S
C321 C323 1.339 . S
C321 H348 0.931 . S
C322 C323 1.395 . S
C322 C324 1.320 . S
C323 C321 1.339 . S
C323 C322 1.395 . S
C323 H349 0.929 . S
C324 C322 1.320 . S
C324 C325 1.405 . S
C324 H350 0.930 . S
C325 C320 1.479 . S
C325 C324 1.405 . S
C325 H351 0.931 . S
U326 O327 2.454 . S
U326 O328 2.458 . S
U326 C329 2.984 . S
U326 C330 2.847 . S
U326 C343 2.882 . S
U326 O344 2.441 . S
U326 O345 2.420 . S
U326 O346 2.455 . S
U326 O347 2.449 . S
O327 U326 2.454 . S
O327 C329 1.353 . S
O328 U326 2.458 . S
O328 C329 1.286 . S
C329 U326 2.984 . S
C329 O327 1.353 . S
C329 O328 1.286 . S
C329 C331 1.363 . S
C330 C320 1.465 . S
C330 U326 2.847 . S
C330 O344 1.249 . S
C330 O345 1.202 . S
C331 C329 1.363 . S
C331 C333 1.408 . S
C331 C336 1.342 . S
C332 C333 1.310 . S
C332 C335 1.461 . S
C332 H352 0.932 . S
C333 C331 1.408 . S
C333 C332 1.310 . S
C333 H353 0.930 . S
C334 C335 1.474 . S
C334 C336 1.285 . S
C334 H354 0.929 . S
C335 C332 1.461 . S
C335 C334 1.474 . S
C336 C331 1.342 . S
C336 C334 1.285 . S
C336 H355 0.930 . S
C337 C340 1.424 . S
C337 C342 1.245 . S
C337 C343 1.428 . S
C338 C341 1.249 1_554 S
C338 C342 1.477 . S
C338 H356 0.932 . S
C339 C340 1.384 . S
C339 C341 1.470 1_554 S
C339 H357 0.929 . S
C340 C337 1.424 . S
C340 C339 1.384 . S
C340 H358 0.928 . S
C341 C338 1.249 1_556 S
C341 C339 1.470 1_556 S
C342 C337 1.245 . S
C342 C338 1.477 . S
C342 H359 0.932 . S
C343 U326 2.882 . S
C343 C337 1.428 . S
C343 O346 1.301 . S
C343 O347 1.282 . S
O344 U326 2.441 . S
O344 C330 1.249 . S
O345 U326 2.420 . S
O345 C330 1.202 . S
O346 U326 2.455 . S
O346 C343 1.301 . S
O347 U326 2.449 . S
O347 C343 1.282 . S
H348 C321 0.931 . S
H349 C323 0.929 . S
H350 C324 0.930 . S
H351 C325 0.931 . S
H352 C332 0.932 . S
H353 C333 0.930 . S
H354 C334 0.929 . S
H355 C336 0.930 . S
H356 C338 0.932 . S
H357 C339 0.929 . S
H358 C340 0.928 . S
H359 C342 0.932 . S
H360 C366 0.930 . S
H361 C369 0.930 . S
H362 C370 0.930 . S
H363 C371 0.930 . S
H364 C374 0.930 . S
H365 C375 0.930 . S
C366 H360 0.930 . S
C366 C367 1.355 . S
C366 C368 1.415 . S
C367 C366 1.355 . S
C367 C369 1.419 . S
C368 C366 1.415 . S
C368 C373 1.425 . S
C368 C375 1.409 . S
C369 H361 0.930 . S
C369 C367 1.419 . S
C369 C370 1.362 . S
C370 H362 0.930 . S
C370 C369 1.362 . S
C370 C373 1.409 . S
C371 H363 0.930 . S
C371 C372 1.355 . S
C371 C373 1.415 . S
C372 C371 1.355 . S
C372 C374 1.419 . S
C373 C368 1.425 . S
C373 C370 1.409 . S
C373 C371 1.415 . S
C374 H364 0.930 . S
C374 C372 1.419 . S
C374 C375 1.362 . S
C375 H365 0.930 . S
C375 C368 1.409 . S
C375 C374 1.362 . S
H376 C382 0.930 . S
H377 C385 0.930 . S
H378 C386 0.930 . S
H379 C387 0.930 . S
H380 C390 0.930 . S
H381 C391 0.930 . S
C382 H376 0.930 . S
C382 C383 1.355 . S
C382 C384 1.415 . S
C383 C382 1.355 . S
C383 C385 1.419 . S
C384 C382 1.415 . S
C384 C389 1.425 . S
C384 C391 1.409 . S
C385 H377 0.930 . S
C385 C383 1.419 . S
C385 C386 1.362 . S
C386 H378 0.930 . S
C386 C385 1.362 . S
C386 C389 1.409 . S
C387 H379 0.930 . S
C387 C388 1.355 . S
C387 C389 1.415 . S
C388 C387 1.355 . S
C388 C390 1.419 . S
C389 C384 1.425 . S
C389 C386 1.409 . S
C389 C387 1.415 . S
C390 H380 0.930 . S
C390 C388 1.419 . S
C390 C391 1.362 . S
C391 H381 0.930 . S
C391 C384 1.409 . S
C391 C390 1.362 . S
H392 C398 0.930 . S
H393 C401 0.930 . S
H394 C402 0.930 . S
H395 C403 0.930 . S
H396 C406 0.930 . S
H397 C407 0.930 . S
C398 H392 0.930 . S
C398 C399 1.355 . S
C398 C400 1.415 . S
C399 C398 1.355 . S
C399 C401 1.419 . S
C400 C398 1.415 . S
C400 C405 1.425 . S
C400 C407 1.409 . S
C401 H393 0.930 . S
C401 C399 1.419 . S
C401 C402 1.362 . S
C402 H394 0.930 . S
C402 C401 1.362 . S
C402 C405 1.409 . S
C403 H395 0.930 . S
C403 C404 1.355 . S
C403 C405 1.415 . S
C404 C403 1.355 . S
C404 C406 1.419 . S
C405 C400 1.425 . S
C405 C402 1.409 . S
C405 C403 1.415 . S
C406 H396 0.930 . S
C406 C404 1.419 . S
C406 C407 1.362 . S
C407 H397 0.930 . S
C407 C400 1.409 . S
C407 C406 1.362 . S
H408 C414 0.930 . S
H409 C417 0.930 . S
H410 C418 0.930 . S
H411 C419 0.930 . S
H412 C422 0.930 . S
H413 C423 0.930 . S
C414 H408 0.930 . S
C414 C415 1.355 . S
C414 C416 1.415 . S
C415 C414 1.355 . S
C415 C417 1.419 . S
C416 C414 1.415 . S
C416 C421 1.425 . S
C416 C423 1.409 . S
C417 H409 0.930 . S
C417 C415 1.419 . S
C417 C418 1.362 . S
C418 H410 0.930 . S
C418 C417 1.362 . S
C418 C421 1.409 . S
C419 H411 0.930 . S
C419 C420 1.355 . S
C419 C421 1.415 . S
C420 C419 1.355 . S
C420 C422 1.419 . S
C421 C416 1.425 . S
C421 C418 1.409 . S
C421 C419 1.415 . S
C422 H412 0.930 . S
C422 C420 1.419 . S
C422 C423 1.362 . S
C423 H413 0.930 . S
C423 C416 1.409 . S
C423 C422 1.362 . S
H424 C430 0.930 . S
H425 C433 0.930 . S
H426 C434 0.930 . S
H427 C435 0.930 . S
H428 C438 0.930 . S
H429 C439 0.930 . S
C430 H424 0.930 . S
C430 C431 1.355 . S
C430 C432 1.415 . S
C431 C430 1.355 . S
C431 C433 1.419 . S
C432 C430 1.415 . S
C432 C437 1.425 . S
C432 C439 1.409 . S
C433 H425 0.930 . S
C433 C431 1.419 . S
C433 C434 1.362 . S
C434 H426 0.930 . S
C434 C433 1.362 . S
C434 C437 1.409 . S
C435 H427 0.930 . S
C435 C436 1.355 . S
C435 C437 1.415 . S
C436 C435 1.355 . S
C436 C438 1.419 . S
C437 C432 1.425 . S
C437 C434 1.409 . S
C437 C435 1.415 . S
C438 H428 0.930 . S
C438 C436 1.419 . S
C438 C439 1.362 . S
C439 H429 0.930 . S
C439 C432 1.409 . S
C439 C438 1.362 . S
H440 C446 0.930 . S
H441 C449 0.930 . S
H442 C450 0.930 . S
H443 C451 0.930 . S
H444 C454 0.930 . S
H445 C455 0.930 . S
C446 H440 0.930 . S
C446 C447 1.355 . S
C446 C448 1.415 . S
C447 C446 1.355 . S
C447 C449 1.419 . S
C448 C446 1.415 . S
C448 C453 1.425 . S
C448 C455 1.409 . S
C449 H441 0.930 . S
C449 C447 1.419 . S
C449 C450 1.362 . S
C450 H442 0.930 . S
C450 C449 1.362 . S
C450 C453 1.409 . S
C451 H443 0.930 . S
C451 C452 1.355 . S
C451 C453 1.415 . S
C452 C451 1.355 . S
C452 C454 1.419 . S
C453 C448 1.425 . S
C453 C450 1.409 . S
C453 C451 1.415 . S
C454 H444 0.930 . S
C454 C452 1.419 . S
C454 C455 1.362 . S
C455 H445 0.930 . S
C455 C448 1.409 . S
C455 C454 1.362 . S
H456 C462 0.930 . S
H457 C465 0.930 . S
H458 C466 0.930 . S
H459 C467 0.930 . S
H460 C470 0.930 . S
H461 C471 0.930 . S
C462 H456 0.930 . S
C462 C463 1.355 . S
C462 C464 1.415 . S
C463 C462 1.355 . S
C463 C465 1.419 . S
C464 C462 1.415 . S
C464 C469 1.425 . S
C464 C471 1.409 . S
C465 H457 0.930 . S
C465 C463 1.419 . S
C465 C466 1.362 . S
C466 H458 0.930 . S
C466 C465 1.362 . S
C466 C469 1.409 . S
C467 H459 0.930 . S
C467 C468 1.355 . S
C467 C469 1.415 . S
C468 C467 1.355 . S
C468 C470 1.419 . S
C469 C464 1.425 . S
C469 C466 1.409 . S
C469 C467 1.415 . S
C470 H460 0.930 . S
C470 C468 1.419 . S
C470 C471 1.362 . S
C471 H461 0.930 . S
C471 C464 1.409 . S
C471 C470 1.362 . S
H472 C478 0.930 . S
H473 C481 0.930 . S
H474 C482 0.930 . S
H475 C483 0.930 . S
H476 C486 0.930 . S
H477 C487 0.930 . S
C478 H472 0.930 . S
C478 C479 1.355 . S
C478 C480 1.415 . S
C479 C478 1.355 . S
C479 C481 1.419 . S
C480 C478 1.415 . S
C480 C485 1.425 . S
C480 C487 1.409 . S
C481 H473 0.930 . S
C481 C479 1.419 . S
C481 C482 1.362 . S
C482 H474 0.930 . S
C482 C481 1.362 . S
C482 C485 1.409 . S
C483 H475 0.930 . S
C483 C484 1.355 . S
C483 C485 1.415 . S
C484 C483 1.355 . S
C484 C486 1.419 . S
C485 C480 1.425 . S
C485 C482 1.409 . S
C485 C483 1.415 . S
C486 H476 0.930 . S
C486 C484 1.419 . S
C486 C487 1.362 . S
C487 H477 0.930 . S
C487 C480 1.409 . S
C487 C486 1.362 . S
H488 C494 0.930 . S
H489 C497 0.930 . S
H490 C498 0.930 . S
H491 C499 0.930 . S
H492 C502 0.930 . S
H493 C503 0.930 . S
C494 H488 0.930 . S
C494 C495 1.355 . S
C494 C496 1.415 . S
C495 C494 1.355 . S
C495 C497 1.419 . S
C496 C494 1.415 . S
C496 C501 1.425 . S
C496 C503 1.409 . S
C497 H489 0.930 . S
C497 C495 1.419 . S
C497 C498 1.362 . S
C498 H490 0.930 . S
C498 C497 1.362 . S
C498 C501 1.409 . S
C499 H491 0.930 . S
C499 C500 1.355 . S
C499 C501 1.415 . S
C500 C499 1.355 . S
C500 C502 1.419 . S
C501 C496 1.425 . S
C501 C498 1.409 . S
C501 C499 1.415 . S
C502 H492 0.930 . S
C502 C500 1.419 . S
C502 C503 1.362 . S
C503 H493 0.930 . S
C503 C496 1.409 . S
C503 C502 1.362 . S
H504 C510 0.930 . S
H505 C513 0.930 . S
H506 C514 0.930 . S
H507 C515 0.930 . S
H508 C518 0.930 . S
H509 C519 0.930 . S
C510 H504 0.930 . S
C510 C511 1.355 . S
C510 C512 1.415 . S
C511 C510 1.355 . S
C511 C513 1.419 . S
C512 C510 1.415 . S
C512 C517 1.425 . S
C512 C519 1.409 . S
C513 H505 0.930 . S
C513 C511 1.419 . S
C513 C514 1.362 . S
C514 H506 0.930 . S
C514 C513 1.362 . S
C514 C517 1.409 . S
C515 H507 0.930 . S
C515 C516 1.355 . S
C515 C517 1.415 . S
C516 C515 1.355 . S
C516 C518 1.419 . S
C517 C512 1.425 . S
C517 C514 1.409 . S
C517 C515 1.415 . S
C518 H508 0.930 . S
C518 C516 1.419 . S
C518 C519 1.362 . S
C519 H509 0.930 . S
C519 C512 1.409 . S
C519 C518 1.362 . S
H520 C526 0.930 . S
H521 C529 0.930 . S
H522 C530 0.930 . S
H523 C531 0.930 . S
H524 C534 0.930 . S
H525 C535 0.930 . S
C526 H520 0.930 . S
C526 C527 1.355 . S
C526 C528 1.415 . S
C527 C526 1.355 . S
C527 C529 1.419 . S
C528 C526 1.415 . S
C528 C533 1.425 . S
C528 C535 1.409 . S
C529 H521 0.930 . S
C529 C527 1.419 . S
C529 C530 1.362 . S
C530 H522 0.930 . S
C530 C529 1.362 . S
C530 C533 1.409 . S
C531 H523 0.930 . S
C531 C532 1.355 . S
C531 C533 1.415 . S
C532 C531 1.355 . S
C532 C534 1.419 . S
C533 C528 1.425 . S
C533 C530 1.409 . S
C533 C531 1.415 . S
C534 H524 0.930 . S
C534 C532 1.419 . S
C534 C535 1.362 . S
C535 H525 0.930 . S
C535 C528 1.409 . S
C535 C534 1.362 . S
H536 C542 0.930 . S
H537 C545 0.930 . S
H538 C546 0.930 . S
H539 C547 0.930 . S
H540 C550 0.930 . S
H541 C551 0.930 . S
C542 H536 0.930 . S
C542 C543 1.355 . S
C542 C544 1.415 . S
C543 C542 1.355 . S
C543 C545 1.419 . S
C544 C542 1.415 . S
C544 C549 1.425 . S
C544 C551 1.409 . S
C545 H537 0.930 . S
C545 C543 1.419 . S
C545 C546 1.362 . S
C546 H538 0.930 . S
C546 C545 1.362 . S
C546 C549 1.409 . S
C547 H539 0.930 . S
C547 C548 1.355 . S
C547 C549 1.415 . S
C548 C547 1.355 . S
C548 C550 1.419 . S
C549 C544 1.425 . S
C549 C546 1.409 . S
C549 C547 1.415 . S
C550 H540 0.930 . S
C550 C548 1.419 . S
C550 C551 1.362 . S
C551 H541 0.930 . S
C551 C544 1.409 . S
C551 C550 1.362 . S
H552 C558 0.930 . S
H553 C561 0.930 . S
H554 C562 0.930 . S
H555 C563 0.930 . S
H556 C566 0.930 . S
H557 C567 0.930 . S
C558 H552 0.930 . S
C558 C559 1.355 . S
C558 C560 1.415 . S
C559 C558 1.355 . S
C559 C561 1.419 . S
C560 C558 1.415 . S
C560 C565 1.425 . S
C560 C567 1.409 . S
C561 H553 0.930 . S
C561 C559 1.419 . S
C561 C562 1.362 . S
C562 H554 0.930 . S
C562 C561 1.362 . S
C562 C565 1.409 . S
C563 H555 0.930 . S
C563 C564 1.355 . S
C563 C565 1.415 . S
C564 C563 1.355 . S
C564 C566 1.419 . S
C565 C560 1.425 . S
C565 C562 1.409 . S
C565 C563 1.415 . S
C566 H556 0.930 . S
C566 C564 1.419 . S
C566 C567 1.362 . S
C567 H557 0.930 . S
C567 C560 1.409 . S
C567 C566 1.362 . S
H568 C574 0.930 . S
H569 C577 0.930 . S
H570 C578 0.930 . S
H571 C579 0.955 . S
H572 C582 0.930 . S
H573 C583 0.930 . S
C574 H568 0.930 . S
C574 C575 1.355 . S
C574 C576 1.415 . S
C575 C574 1.355 . S
C575 C577 1.419 1_545 S
C576 C574 1.415 . S
C576 C581 1.425 . S
C576 C583 1.409 . S
C577 H569 0.930 . S
C577 C575 1.419 1_565 S
C577 C578 1.362 . S
C578 H570 0.930 . S
C578 C577 1.362 . S
C578 C581 1.409 1_565 S
C579 H571 0.955 . S
C579 C580 1.355 . S
C579 C581 1.415 . S
C580 C579 1.355 . S
C580 C582 1.419 . S
C581 C576 1.425 . S
C581 C578 1.409 1_545 S
C581 C579 1.415 . S
C582 H572 0.930 . S
C582 C580 1.419 . S
C582 C583 1.362 . S
C583 H573 0.930 . S
C583 C576 1.409 . S
C583 C582 1.362 . S
H584 C590 0.930 . S
H585 C593 0.930 . S
H586 C594 0.930 . S
H587 C595 0.930 . S
H588 C598 0.930 . S
H589 C599 0.930 . S
C590 H584 0.930 . S
C590 C591 1.355 . S
C590 C592 1.415 . S
C591 C590 1.355 . S
C591 C593 1.419 . S
C592 C590 1.415 . S
C592 C597 1.425 . S
C592 C599 1.409 . S
C593 H585 0.930 . S
C593 C591 1.419 . S
C593 C594 1.362 . S
C594 H586 0.930 . S
C594 C593 1.362 . S
C594 C597 1.409 . S
C595 H587 0.930 . S
C595 C596 1.355 . S
C595 C597 1.415 . S
C596 C595 1.355 . S
C596 C598 1.419 . S
C597 C592 1.425 . S
C597 C594 1.409 . S
C597 C595 1.415 . S
C598 H588 0.930 . S
C598 C596 1.419 . S
C598 C599 1.362 . S
C599 H589 0.930 . S
C599 C592 1.409 . S
C599 C598 1.362 . S
H600 C606 0.930 . S
H601 C609 0.930 . S
H602 C610 0.930 . S
H603 C611 0.930 . S
H604 C614 0.930 . S
H605 C615 0.930 . S
C606 H600 0.930 . S
C606 C607 1.355 1_565 S
C606 C608 1.420 . S
C607 C606 1.355 1_545 S
C607 C609 1.419 . S
C608 C606 1.420 . S
C608 C613 1.404 1_565 S
C608 C615 1.425 . S
C609 H601 0.930 . S
C609 C607 1.419 . S
C609 C610 1.362 . S
C610 H602 0.930 . S
C610 C609 1.362 . S
C610 C613 1.409 . S
C611 H603 0.930 . S
C611 C612 1.355 . S
C611 C613 1.415 . S
C612 C611 1.355 . S
C612 C614 1.419 1_545 S
C613 C608 1.404 1_545 S
C613 C610 1.409 . S
C613 C611 1.415 . S
C614 H604 0.930 . S
C614 C612 1.419 1_565 S
C614 C615 1.362 . S
C615 H605 0.930 . S
C615 C608 1.425 . S
C615 C614 1.362 . S
H616 C622 0.930 . S
H617 C625 0.930 . S
H618 C626 0.930 . S
H619 C627 0.930 . S
H620 C630 0.930 . S
H621 C631 0.930 . S
C622 H616 0.930 . S
C622 C623 1.355 . S
C622 C624 1.415 . S
C623 C622 1.355 . S
C623 C625 1.419 . S
C624 C622 1.415 . S
C624 C629 1.425 . S
C624 C631 1.409 . S
C625 H617 0.930 . S
C625 C623 1.419 . S
C625 C626 1.362 . S
C626 H618 0.930 . S
C626 C625 1.362 . S
C626 C629 1.409 . S
C627 H619 0.930 . S
C627 C628 1.355 . S
C627 C629 1.415 . S
C628 C627 1.355 . S
C628 C630 1.419 . S
C629 C624 1.425 . S
C629 C626 1.409 . S
C629 C627 1.415 . S
C630 H620 0.930 . S
C630 C628 1.419 . S
C630 C631 1.362 . S
C631 H621 0.930 . S
C631 C624 1.409 . S
C631 C630 1.362 . S
H632 C638 0.930 . S
H633 C641 0.930 . S
H634 C642 0.930 . S
H635 C643 0.930 . S
H636 C646 0.930 . S
H637 C647 0.930 . S
C638 H632 0.930 . S
C638 C639 1.355 . S
C638 C640 1.415 . S
C639 C638 1.355 . S
C639 C641 1.419 1_455 S
C640 C638 1.415 . S
C640 C645 1.425 1_455 S
C640 C647 1.409 . S
C641 H633 0.930 . S
C641 C639 1.419 1_655 S
C641 C642 1.362 . S
C642 H634 0.930 . S
C642 C641 1.362 . S
C642 C645 1.409 . S
C643 H635 0.930 . S
C643 C644 1.355 . S
C643 C645 1.415 . S
C644 C643 1.355 . S
C644 C646 1.419 1_655 S
C645 C640 1.425 1_655 S
C645 C642 1.409 . S
C645 C643 1.415 . S
C646 H636 0.930 . S
C646 C644 1.419 1_455 S
C646 C647 1.362 . S
C647 H637 0.930 . S
C647 C640 1.409 . S
C647 C646 1.362 . S
C367 C24 3.025 . S
C372 C335 2.959 . S
C383 C66 1.122 . S
C388 C242 1.173 . S
C399 C93 1.947 . S
C404 C282 1.908 . S
C415 C13 3.192 . S
C420 C322 3.128 . S
C436 C255 1.306 . S
C431 C57 1.333 . S
C452 C295 2.055 . S
C447 C104 2.123 . S
C463 C64 2.061 . S
C468 C162 2.017 . S
C479 C97 0.678 . S
C484 C202 0.683 . S
C495 C17 1.317 . S
C500 C135 1.351 . S
C516 C175 1.926 . S
C511 C53 1.976 . S
C532 C215 0.273 . S
C527 C106 0.492 . S
C543 C26 1.159 . S
C548 C122 1.195 . S
C564 C221 1.029 . S
C559 C2 1.113 . S
C575 C63 1.452 . S
C580 C141 1.495 . S
C591 C82 1.389 . S
C596 C181 1.342 . S
C612 C301 1.412 . S
C607 C42 1.394 . S
C628 C341 1.801 . S
C623 C103 1.742 . S
C639 C23 1.512 . S
C644 C261 1.502 . S
