# Generated by pormake.
# Topology anh, (6,3)-cn, num edge types: 1
# Building blocks:
#     Node 0, Type 0, BuildingBlock: PAMTOO_clean_sbu_0, # of connection points: 6
#     Node 1, Type 0, BuildingBlock: PAMTOO_clean_sbu_0, # of connection points: 6
#     Node 2, Type 0, BuildingBlock: PAMTOO_clean_sbu_0, # of connection points: 6
#     Node 3, Type 1, BuildingBlock: OLANEW_clean_sbu_2, # of connection points: 3
#     Node 4, Type 1, BuildingBlock: OLANEW_clean_sbu_2, # of connection points: 3
#     Node 5, Type 1, BuildingBlock: OLANEW_clean_sbu_2, # of connection points: 3
#     Node 6, Type 1, BuildingBlock: OLANEW_clean_sbu_2, # of connection points: 3
#     Node 7, Type 1, BuildingBlock: OLANEW_clean_sbu_2, # of connection points: 3
#     Node 8, Type 1, BuildingBlock: OLANEW_clean_sbu_2, # of connection points: 3
#     Edge 9, Type (0, 1), BuildingBlock: KIFKEQ_clean_linker_1, # of connection points: 2
#     Edge 10, Type (0, 1), BuildingBlock: KIFKEQ_clean_linker_1, # of connection points: 2
#     Edge 11, Type (0, 1), BuildingBlock: KIFKEQ_clean_linker_1, # of connection points: 2
#     Edge 12, Type (0, 1), BuildingBlock: KIFKEQ_clean_linker_1, # of connection points: 2
#     Edge 13, Type (0, 1), BuildingBlock: KIFKEQ_clean_linker_1, # of connection points: 2
#     Edge 14, Type (0, 1), BuildingBlock: KIFKEQ_clean_linker_1, # of connection points: 2
#     Edge 15, Type (0, 1), BuildingBlock: KIFKEQ_clean_linker_1, # of connection points: 2
#     Edge 16, Type (0, 1), BuildingBlock: KIFKEQ_clean_linker_1, # of connection points: 2
#     Edge 17, Type (0, 1), BuildingBlock: KIFKEQ_clean_linker_1, # of connection points: 2
#     Edge 18, Type (0, 1), BuildingBlock: KIFKEQ_clean_linker_1, # of connection points: 2
#     Edge 19, Type (0, 1), BuildingBlock: KIFKEQ_clean_linker_1, # of connection points: 2
#     Edge 20, Type (0, 1), BuildingBlock: KIFKEQ_clean_linker_1, # of connection points: 2
#     Edge 21, Type (0, 1), BuildingBlock: KIFKEQ_clean_linker_1, # of connection points: 2
#     Edge 22, Type (0, 1), BuildingBlock: KIFKEQ_clean_linker_1, # of connection points: 2
#     Edge 23, Type (0, 1), BuildingBlock: KIFKEQ_clean_linker_1, # of connection points: 2
#     Edge 24, Type (0, 1), BuildingBlock: KIFKEQ_clean_linker_1, # of connection points: 2
#     Edge 25, Type (0, 1), BuildingBlock: KIFKEQ_clean_linker_1, # of connection points: 2
#     Edge 26, Type (0, 1), BuildingBlock: KIFKEQ_clean_linker_1, # of connection points: 2
# Relax obj value: 0.140
# Max RMSD: 0.144
# Mean RMSD: 0.115
data_MOF--net-anh--node1-PAMTOO_clean_sbu_0--node2-OLANEW_clean_sbu_2--edge1-KIFKEQ_clean_linker_1
_symmetry_space_group_name_H-M    P1
_symmetry_Int_Tables_number       1
_symmetry_cell_setting            triclinic
loop_
_symmetry_equiv_pos_as_xyz
'x, y, z'
_cell_length_a     37.615745
_cell_length_b     33.688082
_cell_length_c     51.5818
_cell_angle_alpha  90.397093
_cell_angle_beta   95.033722
_cell_angle_gamma 107.82864
loop_
_atom_site_label
_atom_site_type_symbol
_atom_site_fract_x
_atom_site_fract_y
_atom_site_fract_z
_atom_type_partial_charge
Dy0 Dy 0.04604 0.57887 0.13753 0.0
Dy1 Dy 0.01424 0.47608 0.13553 0.0
C2 C 0.02533 0.5268 0.08433 0.0
O3 O 0.98529 0.56368 0.14493 0.0
O4 O 0.96302 0.49655 0.12782 0.0
O5 O 0.07022 0.63589 0.11809 0.0
O6 O 0.05582 0.63837 0.15771 0.0
O7 O 0.00936 0.49949 0.17516 0.0
O8 O 0.06037 0.55743 0.17675 0.0
O9 O 0.07689 0.49036 0.14176 0.0
O10 O 0.09656 0.55936 0.13065 0.0
O11 O 0.00956 0.41759 0.15412 0.0
O12 O 0.98172 0.41817 0.11558 0.0
C13 C 0.95721 0.5306 0.13658 0.0
O14 O 0.01961 0.55741 0.09742 0.0
O15 O 0.03229 0.49547 0.09636 0.0
C16 C 0.10789 0.69202 0.14539 0.0
C17 C 0.17652 0.75588 0.15669 0.0
C18 C 0.176 0.71458 0.15165 0.0
C19 C 0.14194 0.68287 0.14612 0.0
C20 C 0.10825 0.733 0.15059 0.0
C21 C 0.14223 0.76466 0.15623 0.0
C22 C 0.0719 0.65956 0.13856 0.0
C23 C 0.0361 0.52856 0.18861 0.0
C24 C 0.10348 0.52407 0.13597 0.0
C25 C 0.95054 0.36753 0.14385 0.0
C26 C 0.88307 0.3129 0.15914 0.0
C27 C 0.88822 0.35599 0.15779 0.0
C28 C 0.9217 0.38307 0.15028 0.0
C29 C 0.94568 0.32472 0.14525 0.0
C30 C 0.91226 0.29761 0.15286 0.0
C31 C 0.98556 0.39579 0.13556 0.0
H32 H 0.2019 0.70674 0.15218 0.0
H33 H 0.14217 0.6513 0.14226 0.0
H34 H 0.08221 0.74059 0.15003 0.0
H35 H 0.14168 0.79619 0.15976 0.0
H36 H 0.86652 0.36885 0.16282 0.0
H37 H 0.92508 0.41615 0.14946 0.0
H38 H 0.96767 0.31223 0.14032 0.0
H39 H 0.90904 0.26457 0.15343 0.0
Dy40 Dy 0.49645 0.02717 0.52885 0.0
Dy41 Dy 0.58923 0.06005 0.538 0.0
C42 C 0.53901 0.04563 0.58474 0.0
O43 O 0.51109 0.09528 0.52179 0.0
O44 O 0.57226 0.11789 0.54046 0.0
O45 O 0.44423 0.00027 0.54564 0.0
O46 O 0.44392 0.01665 0.50504 0.0
O47 O 0.57304 0.07061 0.49658 0.0
O48 O 0.51844 0.01646 0.49149 0.0
O49 O 0.57431 0.99154 0.52941 0.0
O50 O 0.51283 0.97045 0.5389 0.0
O51 O 0.64328 0.06182 0.52609 0.0
O52 O 0.63969 0.09452 0.56162 0.0
C53 C 0.54155 0.12523 0.53053 0.0
O54 O 0.5142 0.05552 0.56885 0.0
O55 O 0.56705 0.03635 0.57562 0.0
C56 C 0.39442 0.95814 0.51703 0.0
C57 C 0.33683 0.88175 0.50593 0.0
C58 C 0.34019 0.90377 0.52975 0.0
C59 C 0.36853 0.94158 0.53515 0.0
C60 C 0.39144 0.93617 0.49327 0.0
C61 C 0.36286 0.89839 0.48776 0.0
C62 C 0.42397 -0.00177 0.52354 0.0
C63 C 0.54649 0.04364 0.48156 0.0
C64 C 0.54363 0.96214 0.5342 0.0
C65 C 0.69007 0.12541 0.53701 0.0
C66 C 0.74485 0.19572 0.52042 0.0
C67 C 0.70643 0.19102 0.5149 0.0
C68 C 0.67927 0.15613 0.52312 0.0
C69 C 0.72821 0.13011 0.54289 0.0
C70 C 0.75543 0.16502 0.53468 0.0
C71 C 0.66166 0.08808 0.54494 0.0
H72 H 0.32113 0.89162 0.5444 0.0
H73 H 0.37031 0.95791 0.55363 0.0
H74 H 0.41104 0.94817 0.47891 0.0
H75 H 0.36087 0.88255 0.4691 0.0
H76 H 0.69734 0.21434 0.50425 0.0
H77 H 0.64984 0.15294 0.51847 0.0
H78 H 0.73695 0.10656 0.55355 0.0
H79 H 0.78474 0.16742 0.53896 0.0
Dy80 Dy 0.53697 0.52663 0.86709 0.0
Dy81 Dy 0.44558 0.48394 0.86438 0.0
C82 C 0.48811 0.502 0.81355 0.0
O83 O 0.51306 0.57771 0.85626 0.0
O84 O 0.4552 0.55199 0.87145 0.0
O85 O 0.58475 0.56906 0.85119 0.0
O86 O 0.59235 0.53673 0.88654 0.0
O87 O 0.46885 0.47767 0.90494 0.0
O88 O 0.51802 0.53749 0.90554 0.0
O89 O 0.46693 0.43044 0.85752 0.0
O90 O 0.52982 0.45873 0.87104 0.0
O91 O 0.3931 0.47351 0.88117 0.0
O92 O 0.39411 0.44597 0.84325 0.0
C93 C 0.48201 0.58289 0.8632 0.0
O94 O 0.51783 0.49822 0.82725 0.0
O95 O 0.46034 0.50788 0.82513 0.0
C96 C 0.63846 0.54764 0.85663 0.0
C97 C 0.69409 0.52517 0.83235 0.0
C98 C 0.69331 0.56667 0.83241 0.0
C99 C 0.66581 0.57778 0.84453 0.0
C100 C 0.63873 0.50606 0.85633 0.0
C101 C 0.66642 0.49497 0.84443 0.0
C102 C 0.60862 0.55964 0.868 0.0
C103 C 0.49395 0.50903 0.91785 0.0
C104 C 0.50047 0.42677 0.86325 0.0
C105 C 0.34476 0.47283 0.8489 0.0
C106 C 0.29064 0.5076 0.82666 0.0
C107 C 0.32602 0.53356 0.83685 0.0
C108 C 0.35295 0.51629 0.84771 0.0
C109 C 0.30971 0.44677 0.83844 0.0
C110 C 0.28281 0.46404 0.82732 0.0
C111 C 0.37338 0.45482 0.85998 0.0
H112 H 0.71382 0.59057 0.82295 0.0
H113 H 0.66566 0.60989 0.84422 0.0
H114 H 0.61757 0.48213 0.86527 0.0
H115 H 0.66648 0.46287 0.84509 0.0
H116 H 0.33284 0.5672 0.8364 0.0
H117 H 0.38016 0.5369 0.85523 0.0
H118 H 0.30314 0.41316 0.83895 0.0
H119 H 0.25558 0.44336 0.81983 0.0
O120 O 0.57308 0.05979 0.27392 0.0
Cd121 Cd 0.57353 0.05982 0.22649 0.0
O122 O 0.51161 0.03315 0.27258 0.0
Cd123 Cd 0.49765 0.01903 0.2309 0.0
O124 O 0.45109 0.97723 0.20591 0.0
C125 C 0.41971 0.98433 0.20517 0.0
O126 O 0.41798 0.01799 0.21735 0.0
C127 C 0.54337 0.04802 0.28558 0.0
C128 C 0.64024 0.11465 0.21143 0.0
O129 O 0.61197 0.12719 0.21468 0.0
O130 O 0.63694 0.07617 0.21522 0.0
O131 O 0.51066 0.49526 0.60666 0.0
Cd132 Cd 0.52558 0.4979 0.56143 0.0
O133 O 0.4942 0.55256 0.60899 0.0
Cd134 Cd 0.50511 0.57589 0.57018 0.0
O135 O 0.51289 0.63438 0.54998 0.0
C136 C 0.54084 0.66515 0.55845 0.0
O137 O 0.56473 0.65908 0.57698 0.0
C138 C 0.49899 0.52034 0.61951 0.0
C139 C 0.53277 0.42058 0.54748 0.0
O140 O 0.56056 0.4495 0.55874 0.0
O141 O 0.50177 0.42853 0.54215 0.0
O142 O 0.99681 0.55394 0.8758 0.0
Cd143 Cd 0.98847 0.56749 0.829 0.0
O144 O 0.01709 0.49886 0.87564 0.0
Cd145 Cd 0.99846 0.48504 0.83474 0.0
O146 O 0.95017 0.48199 0.80767 0.0
C147 C 0.92096 0.45096 0.80871 0.0
O148 O 0.92321 0.41963 0.8231 0.0
C149 C 0.00981 0.52782 0.88801 0.0
C150 C 0.05442 0.57286 0.80645 0.0
O151 O 0.05133 0.60413 0.8193 0.0
O152 O 0.02574 0.54035 0.80306 0.0
O153 O 0.06732 0.53538 0.39899 0.0
Cd154 Cd 0.07136 0.53842 0.44647 0.0
O155 O 1.00634 0.52451 0.39417 0.0
Cd156 Cd 0.99672 0.51003 0.43462 0.0
O157 O 0.96067 0.46394 0.45833 0.0
C158 C 0.94303 0.42993 0.44586 0.0
O159 O 0.94892 0.42595 0.42137 0.0
C160 C 0.0374 0.53148 0.38432 0.0
C161 C 0.12783 0.61128 0.46389 0.0
O162 O 0.13491 0.57661 0.46162 0.0
O163 O 0.09389 0.61122 0.45856 0.0
O164 O 0.45661 0.95514 0.77378 0.0
Cd165 Cd 0.43822 0.93978 0.81771 0.0
O166 O 0.4984 0.01187 0.79047 0.0
Cd167 Cd 0.5373 0.07509 0.79122 0.0
O168 O 0.54827 0.1401 0.80342 0.0
C169 C 0.52382 0.15669 0.79455 0.0
O170 O 0.49627 0.13495 0.77779 0.0
C171 C 0.48262 0.98863 0.77058 0.0
C172 C 0.44578 0.86343 0.83248 0.0
O173 O 0.41488 0.86582 0.82104 0.0
O174 O 0.47295 0.8973 0.83714 0.0
O175 O 0.56976 0.52659 0.1198 0.0
Cd176 Cd 0.61341 0.52686 0.159 0.0
O177 O 0.51302 0.52402 0.13025 0.0
Cd178 Cd 0.45346 0.52577 0.12493 0.0
O179 O 0.39589 0.53192 0.12718 0.0
C180 C 0.36581 0.50215 0.12076 0.0
O181 O 0.36863 0.46655 0.11212 0.0
C182 C 0.53593 0.5257 0.11305 0.0
C183 C 0.68744 0.52792 0.15009 0.0
O184 O 0.66119 0.49357 0.15204 0.0
O185 O 0.67879 0.56177 0.1517 0.0
H186 H 0.1663 0.58607 0.1238 0.0
H187 H 0.12972 0.45735 0.14563 0.0
H188 H 0.22931 0.58174 0.12042 0.0
H189 H 0.19281 0.45331 0.14284 0.0
H190 H 0.29722 0.44448 0.10775 0.0
H191 H 0.23525 0.45072 0.1118 0.0
H192 H 0.2856 0.57615 0.14402 0.0
H193 H 0.34798 0.57014 0.13938 0.0
C194 C 0.17165 0.55687 0.12806 0.0
C195 C 0.14256 0.52199 0.13487 0.0
C196 C 0.20802 0.55446 0.12627 0.0
C197 C 0.21648 0.51709 0.1312 0.0
C198 C 0.18746 0.48245 0.13839 0.0
C199 C 0.15114 0.48484 0.14018 0.0
C200 C 0.29525 0.47349 0.1157 0.0
C201 C 0.32788 0.50678 0.12325 0.0
C202 C 0.25949 0.47697 0.11822 0.0
C203 C 0.25502 0.51386 0.12843 0.0
C204 C 0.28769 0.54735 0.13583 0.0
C205 C 0.32359 0.54385 0.1333 0.0
H206 H 0.74336 0.22968 0.47257 0.0
H207 H 0.81174 0.24304 0.54585 0.0
H208 H 0.79122 0.28733 0.45573 0.0
H209 H 0.86035 0.29996 0.52861 0.0
H210 H 0.92142 0.42809 0.49548 0.0
H211 H 0.87327 0.3725 0.51431 0.0
H212 H 0.85406 0.29927 0.44245 0.0
H213 H 0.90145 0.35468 0.42358 0.0
C214 C 0.76851 0.24511 0.48516 0.0
C215 C 0.77373 0.23173 0.51056 0.0
C216 C 0.79615 0.27784 0.47539 0.0
C217 C 0.82972 0.29803 0.49076 0.0
C218 C 0.83472 0.2852 0.51633 0.0
C219 C 0.80705 0.25233 0.52611 0.0
C220 C 0.90696 0.40005 0.48376 0.0
C221 C 0.91516 0.39591 0.45799 0.0
C222 C 0.8795 0.36817 0.49457 0.0
C223 C 0.85964 0.33162 0.47979 0.0
C224 C 0.86834 0.32733 0.45419 0.0
C225 C 0.89572 0.35905 0.44343 0.0
H226 H 0.53073 0.65374 0.84622 0.0
H227 H 0.42147 0.60644 0.87489 0.0
H228 H 0.52136 0.72153 0.84063 0.0
H229 H 0.41239 0.67466 0.86956 0.0
H230 H 0.39389 0.78632 0.82445 0.0
H231 H 0.40259 0.71884 0.83368 0.0
H232 H 0.51637 0.78088 0.86585 0.0
H233 H 0.50794 0.84833 0.85621 0.0
C234 C 0.5048 0.65782 0.85152 0.0
C235 C 0.47678 0.62453 0.86089 0.0
C236 C 0.49955 0.69681 0.84845 0.0
C237 C 0.46615 0.70346 0.85468 0.0
C238 C 0.43826 0.67035 0.86433 0.0
C239 C 0.44355 0.6313 0.86746 0.0
C240 C 0.42069 0.78557 0.83362 0.0
C241 C 0.4503 0.82265 0.83946 0.0
C242 C 0.42559 0.74692 0.83905 0.0
C243 C 0.46021 0.74454 0.8504 0.0
C244 C 0.48954 0.78168 0.85675 0.0
C245 C 0.48464 0.82033 0.85135 0.0
H246 H 0.93231 0.59152 0.15753 0.0
H247 H 0.89212 0.47056 0.11787 0.0
H248 H 0.86778 0.5909 0.16037 0.0
H249 H 0.82774 0.4705 0.11989 0.0
H250 H 0.71606 0.46212 0.15149 0.0
H251 H 0.78055 0.46332 0.14809 0.0
H252 H 0.81249 0.59627 0.13726 0.0
H253 H 0.74811 0.59513 0.14158 0.0
C254 C 0.90976 0.56493 0.14918 0.0
C255 C 0.9177 0.5311 0.13749 0.0
C256 C 0.87256 0.56466 0.15066 0.0
C257 C 0.84209 0.53062 0.14039 0.0
C258 C 0.85016 0.49701 0.12846 0.0
C259 C 0.8873 0.49718 0.12711 0.0
C260 C 0.7368 0.49162 0.14831 0.0
C261 C 0.72671 0.52852 0.14684 0.0
C262 C 0.77394 0.49231 0.14619 0.0
C263 C 0.80219 0.52991 0.14236 0.0
C264 C 0.79191 0.56676 0.14063 0.0
C265 C 0.75479 0.56609 0.14291 0.0
H266 H 0.33991 0.81093 0.48078 0.0
H267 H 0.26403 0.86191 0.5179 0.0
H268 H 0.28935 0.74593 0.47097 0.0
H269 H 0.21419 0.79621 0.50947 0.0
H270 H 0.12306 0.69055 0.46453 0.0
H271 H 0.17352 0.75543 0.4746 0.0
H272 H 0.25162 0.68571 0.49108 0.0
H273 H 0.20128 0.62081 0.48015 0.0
C274 C 0.31248 0.80832 0.48685 0.0
C275 C 0.30612 0.84177 0.50012 0.0
C276 C 0.28358 0.77079 0.48156 0.0
C277 C 0.24764 0.76569 0.48948 0.0
C278 C 0.24135 0.79912 0.5028 0.0
C279 C 0.27015 0.83668 0.50796 0.0
C280 C 0.15097 0.68903 0.47041 0.0
C281 C 0.15815 0.65051 0.4715 0.0
C282 C 0.17991 0.72628 0.47632 0.0
C283 C 0.21673 0.7259 0.48364 0.0
C284 C 0.22376 0.68725 0.4851 0.0
C285 C 0.19483 0.65 0.47903 0.0
H286 H 0.44639 0.35172 0.85359 0.0
H287 H 0.56665 0.40935 0.8601 0.0
H288 H 0.45423 0.28685 0.83819 0.0
H289 H 0.57438 0.34435 0.84417 0.0
H290 H 0.57115 0.20588 0.83383 0.0
H291 H 0.56683 0.27051 0.85321 0.0
H292 H 0.47236 0.26492 0.79769 0.0
H293 H 0.47619 0.20031 0.7787 0.0
C294 C 0.47455 0.35048 0.85197 0.0
C295 C 0.50586 0.38589 0.85786 0.0
C296 C 0.47902 0.31335 0.84294 0.0
C297 C 0.51487 0.31071 0.83947 0.0
C298 C 0.54639 0.34539 0.84667 0.0
C299 C 0.54193 0.38263 0.85581 0.0
C300 C 0.54965 0.21865 0.82567 0.0
C301 C 0.52383 0.19779 0.80485 0.0
C302 C 0.54722 0.25568 0.83676 0.0
C303 C 0.5189 0.27247 0.82724 0.0
C304 C 0.49393 0.25225 0.80589 0.0
C305 C 0.49633 0.21537 0.79485 0.0
H306 H 0.60278 0.93231 0.52864 0.0
H307 H 0.4849 0.89224 0.54066 0.0
H308 H 0.60332 0.86019 0.53067 0.0
H309 H 0.48571 0.8204 0.54308 0.0
H310 H 0.49082 0.69065 0.52612 0.0
H311 H 0.4924 0.76222 0.51718 0.0
H312 H 0.59847 0.80825 0.56415 0.0
H313 H 0.59723 0.73692 0.57277 0.0
C314 C 0.57696 0.90819 0.53166 0.0
C315 C 0.54385 0.91819 0.53465 0.0
C316 C 0.57733 0.86685 0.53291 0.0
C317 C 0.54458 0.83454 0.53706 0.0
C318 C 0.51131 0.84445 0.53952 0.0
C319 C 0.51095 0.88576 0.53836 0.0
C320 C 0.51474 0.71602 0.53422 0.0
C321 C 0.54377 0.70806 0.55032 0.0
C322 C 0.5155 0.75704 0.52925 0.0
C323 C 0.54539 0.79095 0.54015 0.0
C324 C 0.57518 0.78288 0.55529 0.0
C325 C 0.57436 0.74193 0.56033 0.0
H326 H 0.76816 0.57056 0.83456 0.0
H327 H 0.68919 0.45378 0.80421 0.0
H328 H 0.81918 0.54979 0.81928 0.0
H329 H 0.74084 0.43257 0.78931 0.0
H330 H 0.90621 0.51587 0.7832 0.0
H331 H 0.8474 0.5325 0.78086 0.0
H332 H 0.79333 0.41404 0.81367 0.0
H333 H 0.85185 0.39705 0.81569 0.0
C334 C 0.76152 0.54084 0.82408 0.0
C335 C 0.72456 0.51376 0.82077 0.0
C336 C 0.79083 0.52894 0.81525 0.0
C337 C 0.78398 0.48958 0.80301 0.0
C338 C 0.74692 0.46299 0.79882 0.0
C339 C 0.71745 0.47505 0.80752 0.0
C340 C 0.88151 0.4928 0.78917 0.0
C341 C 0.88391 0.4556 0.80027 0.0
C342 C 0.84789 0.50244 0.78793 0.0
C343 C 0.81608 0.47501 0.79766 0.0
C344 C 0.8174 0.43585 0.80604 0.0
C345 C 0.85104 0.42619 0.8073 0.0
H346 H 0.19394 0.81838 0.19408 0.0
H347 H 0.24064 0.77003 0.13203 0.0
H348 H 0.25275 0.8744 0.20322 0.0
H349 H 0.29954 0.82645 0.14098 0.0
H350 H 0.41114 0.90526 0.18648 0.0
H351 H 0.35253 0.85054 0.17344 0.0
H352 H 0.29073 0.93717 0.18528 0.0
H353 H 0.34916 0.99149 0.19896 0.0
C354 C 0.21668 0.81998 0.18222 0.0
C355 C 0.2126 0.78979 0.16232 0.0
C356 C 0.25039 0.85219 0.18739 0.0
C357 C 0.28086 0.85514 0.17272 0.0
C358 C 0.27681 0.82486 0.15284 0.0
C359 C 0.24307 0.79251 0.14772 0.0
C360 C 0.38508 0.91275 0.18601 0.0
C361 C 0.38482 0.95265 0.19399 0.0
C362 C 0.35145 0.88139 0.17845 0.0
C363 C 0.31684 0.88928 0.17861 0.0
C364 C 0.3168 0.92973 0.18549 0.0
C365 C 0.35036 0.961 0.19314 0.0
H366 H 0.48032 0.15295 0.52741 0.0
H367 H 0.60139 0.19632 0.53256 0.0
H368 H 0.4793 0.22471 0.52959 0.0
H369 H 0.60048 0.26827 0.53345 0.0
H370 H 0.58724 0.3882 0.56713 0.0
H371 H 0.58973 0.31752 0.56119 0.0
H372 H 0.48846 0.28772 0.50849 0.0
H373 H 0.48509 0.35803 0.51559 0.0
C374 C 0.50673 0.17788 0.52858 0.0
C375 C 0.54093 0.16894 0.53 0.0
C376 C 0.50618 0.21916 0.52966 0.0
C377 C 0.53982 0.2526 0.53179 0.0
C378 C 0.57401 0.24349 0.5324 0.0
C379 C 0.57456 0.20218 0.53174 0.0
C380 C 0.56565 0.36662 0.55414 0.0
C381 C 0.53586 0.37864 0.54194 0.0
C382 C 0.56718 0.32603 0.55057 0.0
C383 C 0.53924 0.29656 0.53438 0.0
C384 C 0.51007 0.30914 0.52153 0.0
C385 C 0.50825 0.34959 0.52543 0.0
H386 H 0.27017 0.56861 0.85006 0.0
H387 H 0.2446 0.4874 0.78135 0.0
H388 H 0.21642 0.59202 0.83741 0.0
H389 H 0.19121 0.5119 0.76797 0.0
H390 H 0.07032 0.5074 0.78449 0.0
H391 H 0.13165 0.49884 0.78309 0.0
H392 H 0.18361 0.62732 0.80972 0.0
H393 H 0.12167 0.63529 0.81222 0.0
C394 C 0.25358 0.55668 0.83182 0.0
C395 C 0.26116 0.52582 0.81685 0.0
C396 C 0.22284 0.57031 0.82442 0.0
C397 C 0.1992 0.55368 0.80171 0.0
C398 C 0.20837 0.52477 0.78584 0.0
C399 C 0.23889 0.51073 0.79345 0.0
C400 C 0.09478 0.53418 0.78947 0.0
C401 C 0.09115 0.57173 0.79906 0.0
C402 C 0.13014 0.52936 0.78848 0.0
C403 C 0.1627 0.56215 0.7968 0.0
C404 C 0.15907 0.60108 0.80384 0.0
C405 C 0.12359 0.60577 0.80508 0.0
H406 H 0.81142 0.31271 0.14397 0.0
H407 H 0.87392 0.24773 0.19195 0.0
H408 H 0.75285 0.26496 0.1564 0.0
H409 H 0.81542 0.20021 0.20462 0.0
H410 H 0.70336 0.09641 0.20022 0.0
H411 H 0.76158 0.14416 0.18735 0.0
H412 H 0.71594 0.24675 0.19283 0.0
H413 H 0.65735 0.19877 0.20504 0.0
C414 C 0.81266 0.28847 0.15738 0.0
C415 C 0.84735 0.28401 0.16694 0.0
C416 C 0.77907 0.26109 0.16454 0.0
C417 C 0.77934 0.22865 0.18152 0.0
C418 C 0.81408 0.22435 0.19116 0.0
C419 C 0.84766 0.25163 0.18393 0.0
C420 C 0.70572 0.12915 0.19865 0.0
C421 C 0.67568 0.14375 0.20365 0.0
C422 C 0.73922 0.15661 0.19142 0.0
C423 C 0.74356 0.19938 0.18909 0.0
C424 C 0.71344 0.21394 0.19408 0.0
C425 C 0.67989 0.18645 0.20123 0.0
H426 H 0.02006 0.46264 0.05006 0.0
H427 H 0.0282 0.59333 0.05379 0.0
H428 H 0.01767 0.46422 0.00278 0.0
H429 H 0.02738 0.59544 0.0066 0.0
H430 H 0.98247 0.57278 0.92089 0.0
H431 H 0.98687 0.57284 0.96819 0.0
H432 H 0.05402 0.48915 0.96771 0.0
H433 H 0.04824 0.48778 0.92028 0.0
C434 C 0.02165 0.49181 0.04078 0.0
C435 C 0.02414 0.5278 0.05564 0.0
C436 C 0.02057 0.49282 0.01365 0.0
C437 C 0.02241 0.53 0.00078 0.0
C438 C 0.02525 0.56609 0.01576 0.0
C439 C 0.02588 0.56494 0.04286 0.0
C440 C 0.99836 0.55456 0.93088 0.0
C441 C 0.01486 0.53011 0.91681 0.0
C442 C 1.00105 0.55476 0.95806 0.0
C443 C 0.0207 0.53089 0.97186 0.0
C444 C 0.03801 0.50726 0.95775 0.0
C445 C 0.03495 0.50668 0.93055 0.0
H446 H 0.5963 0.09964 0.45353 0.0
H447 H 0.49946 0.9893 0.44477 0.0
H448 H 0.59657 0.10225 0.40629 0.0
H449 H 0.50036 0.99132 0.39772 0.0
H450 H 0.48493 0.033 0.31568 0.0
H451 H 0.48703 0.03294 0.36283 0.0
H452 H 0.60796 0.06646 0.36826 0.0
H453 H 0.60594 0.06754 0.32078 0.0
C454 C 0.57525 0.07576 0.44156 0.0
C455 C 0.54772 0.0444 0.45294 0.0
C456 C 0.57553 0.07714 0.41447 0.0
C457 C 0.54834 0.04716 0.39819 0.0
C458 C 0.52127 0.01539 0.40965 0.0
C459 C 0.5209 0.01409 0.43667 0.0
C460 C 0.51205 0.04053 0.32686 0.0
C461 C 0.54528 0.0501 0.3144 0.0
C462 C 0.5132 0.04019 0.35395 0.0
C463 C 0.54761 0.0492 0.36936 0.0
C464 C 0.58097 0.05963 0.35697 0.0
C465 C 0.57983 0.06012 0.32976 0.0
H466 H 0.43334 0.51344 0.77849 0.0
H467 H 0.53956 0.48793 0.78348 0.0
H468 H 0.43227 0.51372 0.7311 0.0
H469 H 0.53867 0.48886 0.73628 0.0
H470 H 0.51146 0.45851 0.64979 0.0
H471 H 0.50548 0.45039 0.69633 0.0
H472 H 0.46721 0.55875 0.69876 0.0
H473 H 0.47257 0.56657 0.65228 0.0
C474 C 0.45641 0.50781 0.76951 0.0
C475 C 0.48662 0.50087 0.78479 0.0
C476 C 0.45584 0.50813 0.74237 0.0
C477 C 0.48539 0.50135 0.72994 0.0
C478 C 0.51523 0.49365 0.74522 0.0
C479 C 0.51587 0.49344 0.77232 0.0
C480 C 0.50141 0.48036 0.66019 0.0
C481 C 0.49271 0.51333 0.6473 0.0
C482 C 0.49819 0.47584 0.68688 0.0
C483 C 0.48607 0.50407 0.70125 0.0
C484 C 0.47626 0.53624 0.68821 0.0
C485 C 0.47958 0.54084 0.66156 0.0
H486 H 0.58443 0.02672 0.62418 0.0
H487 H 0.48116 0.05728 0.60891 0.0
H488 H 0.57229 0.01625 0.66985 0.0
H489 H 0.46935 0.0471 0.65437 0.0
H490 H 0.43707 0.96729 0.72563 0.0
H491 H 0.45273 0.98455 0.68141 0.0
H492 H 0.56603 0.05384 0.71093 0.0
H493 H 0.55047 0.0358 0.75535 0.0
C494 C 0.55939 0.03162 0.63058 0.0
C495 C 0.53365 0.04253 0.61284 0.0
C496 C 0.55254 0.02582 0.65676 0.0
C497 C 0.51972 0.03055 0.66562 0.0
C498 C 0.49461 0.04265 0.64803 0.0
C499 C 0.50152 0.04867 0.62198 0.0
C500 C 0.46529 0.98638 0.72272 0.0
C501 C 0.49238 0.00076 0.744 0.0
C502 C 0.47419 0.99649 0.6974 0.0
C503 C 0.51053 0.02085 0.69272 0.0
C504 C 0.53779 0.03504 0.71397 0.0
C505 C 0.52874 0.0252 0.73941 0.0
H506 H 0.52997 0.57805 0.94855 0.0
H507 H 0.45956 0.45034 0.95192 0.0
H508 H 0.53457 0.58529 0.99568 0.0
H509 H 0.46522 0.45721 -0.00051 0.0
H510 H 0.46622 0.49219 0.0858 0.0
H511 H 0.4514 0.49063 0.03845 0.0
H512 H 0.56715 0.55903 0.0298 0.0
H513 H 0.58139 0.56183 0.07655 0.0
C514 C 0.51552 0.55141 0.95937 0.0
C515 C 0.49488 0.51339 0.9465 0.0
C516 C 0.51819 0.55557 0.98644 0.0
C517 C 0.50069 0.52167 0.00143 0.0
C518 C 0.47882 0.48404 0.98853 0.0
C519 C 0.47584 0.47998 0.9613 0.0
C520 C 0.48812 0.50786 0.07377 0.0
C521 C 0.52488 0.5275 0.08494 0.0
C522 C 0.4798 0.50644 0.04664 0.0
C523 C 0.50805 0.52483 0.03031 0.0
C524 C 0.5445 0.54518 0.04171 0.0
C525 C 0.55276 0.54649 0.06859 0.0
H526 H 0.08716 0.58393 0.22325 0.0
H527 H 0.98855 0.47553 0.2191 0.0
H528 H 0.08818 0.58641 0.27067 0.0
H529 H 0.98995 0.47778 0.26632 0.0
H530 H 0.97827 0.52177 0.34755 0.0
H531 H 0.97904 0.52246 0.30044 0.0
H532 H 0.09908 0.54621 0.30896 0.0
H533 H 0.0985 0.54612 0.35626 0.0
C534 C 0.06582 0.56054 0.23243 0.0
C535 C 0.0377 0.52961 0.21738 0.0
C536 C 0.06653 0.56188 0.25959 0.0
C537 C 0.03903 0.53244 0.27221 0.0
C538 C 0.01118 0.50132 0.25715 0.0
C539 C 0.01053 0.49989 0.23007 0.0
C540 C 1.00489 0.52733 0.33944 0.0
C541 C 0.03831 0.53371 0.3557 0.0
C542 C 1.00529 0.52748 0.31242 0.0
C543 C 0.03909 0.53407 0.30098 0.0
C544 C 0.07264 0.54133 0.3172 0.0
C545 C 0.07225 0.54108 0.34429 0.0
loop_
_geom_bond_atom_site_label_1
_geom_bond_atom_site_label_2
_geom_bond_distance
_geom_bond_site_symmetry_2
_ccdc_geom_bond_type
Dy0 O3 2.307 1_455 S
Dy0 O5 2.395 . S
Dy0 O6 2.379 . S
Dy0 O8 2.339 . S
Dy0 O10 2.298 . S
Dy0 O14 2.275 . S
Dy0 C22 2.738 . S
Dy1 O4 2.298 . S
Dy1 O7 2.275 1_655 S
Dy1 O9 2.307 1_655 S
Dy1 O11 2.395 . S
Dy1 O12 2.379 . S
Dy1 O15 2.339 . S
Dy1 C31 2.738 . S
C2 O14 1.254 . S
C2 O15 1.257 1_455 S
O3 Dy0 2.307 1_655 S
O3 C13 1.266 . S
O4 Dy1 2.298 . S
O4 C13 1.236 . S
O5 Dy0 2.395 . S
O5 C22 1.255 . S
O6 Dy0 2.379 . S
O6 C22 1.249 . S
O7 Dy1 2.275 1_455 S
O7 C23 1.254 . S
O8 Dy0 2.339 . S
O8 C23 1.257 . S
O9 Dy1 2.307 1_455 S
O9 C24 1.266 . S
O10 Dy0 2.298 . S
O10 C24 1.236 . S
O11 Dy1 2.395 . S
O11 C31 1.255 . S
O12 Dy1 2.379 . S
O12 C31 1.249 . S
C13 O3 1.266 . S
C13 O4 1.236 . S
O14 Dy0 2.275 . S
O14 C2 1.254 . S
O15 Dy1 2.339 . S
O15 C2 1.257 1_655 S
C16 C19 1.344 . S
C16 C20 1.328 . S
C16 C22 1.516 . S
C17 C18 1.304 . S
C17 C21 1.323 . S
C18 C17 1.304 . S
C18 C19 1.371 . S
C18 H32 0.930 . S
C19 C16 1.344 . S
C19 C18 1.371 . S
C19 H33 0.931 . S
C20 C16 1.328 . S
C20 C21 1.433 . S
C20 H34 0.931 . S
C21 C17 1.323 . S
C21 C20 1.433 . S
C21 H35 0.933 . S
C22 Dy0 2.738 . S
C22 O5 1.255 . S
C22 O6 1.249 . S
C22 C16 1.516 . S
C23 O7 1.254 . S
C23 O8 1.257 . S
C24 O9 1.266 . S
C24 O10 1.236 . S
C25 C28 1.344 . S
C25 C29 1.328 . S
C25 C31 1.516 . S
C26 C27 1.304 . S
C26 C30 1.323 . S
C27 C26 1.304 . S
C27 C28 1.371 . S
C27 H36 0.930 . S
C28 C25 1.344 . S
C28 C27 1.371 . S
C28 H37 0.931 . S
C29 C25 1.328 . S
C29 C30 1.433 . S
C29 H38 0.931 . S
C30 C26 1.323 . S
C30 C29 1.433 . S
C30 H39 0.933 . S
C31 Dy1 2.738 . S
C31 O11 1.255 . S
C31 O12 1.249 . S
C31 C25 1.516 . S
H32 C18 0.930 . S
H33 C19 0.931 . S
H34 C20 0.931 . S
H35 C21 0.933 . S
H36 C27 0.930 . S
H37 C28 0.931 . S
H38 C29 0.931 . S
H39 C30 0.933 . S
Dy40 O43 2.307 . S
Dy40 O45 2.395 1_545 S
Dy40 O46 2.379 1_545 S
Dy40 O48 2.339 . S
Dy40 O50 2.298 1_545 S
Dy40 O54 2.275 . S
Dy40 C62 2.738 1_545 S
Dy41 O44 2.298 . S
Dy41 O47 2.275 . S
Dy41 O49 2.307 1_545 S
Dy41 O51 2.395 . S
Dy41 O52 2.379 . S
Dy41 O55 2.339 . S
Dy41 C71 2.738 . S
C42 O54 1.254 . S
C42 O55 1.257 . S
O43 Dy40 2.307 . S
O43 C53 1.266 . S
O44 Dy41 2.298 . S
O44 C53 1.236 . S
O45 Dy40 2.395 1_565 S
O45 C62 1.255 . S
O46 Dy40 2.379 1_565 S
O46 C62 1.249 . S
O47 Dy41 2.275 . S
O47 C63 1.254 . S
O48 Dy40 2.339 . S
O48 C63 1.257 . S
O49 Dy41 2.307 1_565 S
O49 C64 1.266 . S
O50 Dy40 2.298 1_565 S
O50 C64 1.236 . S
O51 Dy41 2.395 . S
O51 C71 1.255 . S
O52 Dy41 2.379 . S
O52 C71 1.249 . S
C53 O43 1.266 . S
C53 O44 1.236 . S
O54 Dy40 2.275 . S
O54 C42 1.254 . S
O55 Dy41 2.339 . S
O55 C42 1.257 . S
C56 C59 1.344 . S
C56 C60 1.328 . S
C56 C62 1.516 . S
C57 C58 1.304 . S
C57 C61 1.323 . S
C58 C57 1.304 . S
C58 C59 1.371 . S
C58 H72 0.930 . S
C59 C56 1.344 . S
C59 C58 1.371 . S
C59 H73 0.931 . S
C60 C56 1.328 . S
C60 C61 1.433 . S
C60 H74 0.931 . S
C61 C57 1.323 . S
C61 C60 1.433 . S
C61 H75 0.933 . S
C62 Dy40 2.738 1_565 S
C62 O45 1.255 . S
C62 O46 1.249 . S
C62 C56 1.516 . S
C63 O47 1.254 . S
C63 O48 1.257 . S
C64 O49 1.266 . S
C64 O50 1.236 . S
C65 C68 1.344 . S
C65 C69 1.328 . S
C65 C71 1.516 . S
C66 C67 1.304 . S
C66 C70 1.323 . S
C67 C66 1.304 . S
C67 C68 1.371 . S
C67 H76 0.930 . S
C68 C65 1.344 . S
C68 C67 1.371 . S
C68 H77 0.931 . S
C69 C65 1.328 . S
C69 C70 1.433 . S
C69 H78 0.931 . S
C70 C66 1.323 . S
C70 C69 1.433 . S
C70 H79 0.933 . S
C71 Dy41 2.738 . S
C71 O51 1.255 . S
C71 O52 1.249 . S
C71 C65 1.516 . S
H72 C58 0.930 . S
H73 C59 0.931 . S
H74 C60 0.931 . S
H75 C61 0.933 . S
H76 C67 0.930 . S
H77 C68 0.931 . S
H78 C69 0.931 . S
H79 C70 0.933 . S
Dy80 O83 2.307 . S
Dy80 O85 2.395 . S
Dy80 O86 2.379 . S
Dy80 O88 2.339 . S
Dy80 O90 2.298 . S
Dy80 O94 2.275 . S
Dy80 C102 2.738 . S
Dy81 O84 2.298 . S
Dy81 O87 2.275 . S
Dy81 O89 2.307 . S
Dy81 O91 2.395 . S
Dy81 O92 2.379 . S
Dy81 O95 2.339 . S
Dy81 C111 2.738 . S
C82 O94 1.254 . S
C82 O95 1.257 . S
O83 Dy80 2.307 . S
O83 C93 1.266 . S
O84 Dy81 2.298 . S
O84 C93 1.236 . S
O85 Dy80 2.395 . S
O85 C102 1.255 . S
O86 Dy80 2.379 . S
O86 C102 1.249 . S
O87 Dy81 2.275 . S
O87 C103 1.254 . S
O88 Dy80 2.339 . S
O88 C103 1.257 . S
O89 Dy81 2.307 . S
O89 C104 1.266 . S
O90 Dy80 2.298 . S
O90 C104 1.236 . S
O91 Dy81 2.395 . S
O91 C111 1.255 . S
O92 Dy81 2.379 . S
O92 C111 1.249 . S
C93 O83 1.266 . S
C93 O84 1.236 . S
O94 Dy80 2.275 . S
O94 C82 1.254 . S
O95 Dy81 2.339 . S
O95 C82 1.257 . S
C96 C99 1.344 . S
C96 C100 1.328 . S
C96 C102 1.516 . S
C97 C98 1.304 . S
C97 C101 1.323 . S
C98 C97 1.304 . S
C98 C99 1.371 . S
C98 H112 0.930 . S
C99 C96 1.344 . S
C99 C98 1.371 . S
C99 H113 0.931 . S
C100 C96 1.328 . S
C100 C101 1.433 . S
C100 H114 0.931 . S
C101 C97 1.323 . S
C101 C100 1.433 . S
C101 H115 0.933 . S
C102 Dy80 2.738 . S
C102 O85 1.255 . S
C102 O86 1.249 . S
C102 C96 1.516 . S
C103 O87 1.254 . S
C103 O88 1.257 . S
C104 O89 1.266 . S
C104 O90 1.236 . S
C105 C108 1.344 . S
C105 C109 1.328 . S
C105 C111 1.516 . S
C106 C107 1.304 . S
C106 C110 1.323 . S
C107 C106 1.304 . S
C107 C108 1.371 . S
C107 H116 0.930 . S
C108 C105 1.344 . S
C108 C107 1.371 . S
C108 H117 0.931 . S
C109 C105 1.328 . S
C109 C110 1.433 . S
C109 H118 0.931 . S
C110 C106 1.323 . S
C110 C109 1.433 . S
C110 H119 0.933 . S
C111 Dy81 2.738 . S
C111 O91 1.255 . S
C111 O92 1.249 . S
C111 C105 1.516 . S
H112 C98 0.930 . S
H113 C99 0.931 . S
H114 C100 0.931 . S
H115 C101 0.933 . S
H116 C107 0.930 . S
H117 C108 0.931 . S
H118 C109 0.931 . S
H119 C110 0.933 . S
O120 Cd121 2.300 . S
O120 C127 1.275 . S
Cd121 O120 2.300 . S
Cd121 O129 2.381 . S
Cd121 O130 2.378 . S
O122 Cd123 2.385 1_545 S
O122 C127 1.255 . S
Cd123 O122 2.385 1_565 S
Cd123 O124 2.317 . S
O124 Cd123 2.317 . S
O124 C125 1.232 . S
C125 O124 1.232 . S
C125 O126 1.218 . S
O126 C125 1.218 . S
C127 O120 1.275 . S
C127 O122 1.255 . S
C128 O129 1.258 . S
C128 O130 1.256 . S
O129 Cd121 2.381 . S
O129 C128 1.258 . S
O130 Cd121 2.378 . S
O130 C128 1.256 . S
O131 Cd132 2.300 . S
O131 C138 1.275 . S
Cd132 O131 2.300 . S
Cd132 O140 2.381 . S
Cd132 O141 2.378 . S
O133 Cd134 2.385 . S
O133 C138 1.255 . S
Cd134 O133 2.385 . S
Cd134 O135 2.317 . S
O135 Cd134 2.317 . S
O135 C136 1.232 . S
C136 O135 1.232 . S
C136 O137 1.218 . S
O137 C136 1.218 . S
C138 O131 1.275 . S
C138 O133 1.255 . S
C139 O140 1.258 . S
C139 O141 1.256 . S
O140 Cd132 2.381 . S
O140 C139 1.258 . S
O141 Cd132 2.378 . S
O141 C139 1.256 . S
O142 Cd143 2.300 . S
O142 C149 1.275 . S
Cd143 O142 2.300 . S
Cd143 O151 2.381 . S
Cd143 O152 2.378 . S
O144 Cd145 2.385 . S
O144 C149 1.255 1_655 S
Cd145 O144 2.385 . S
Cd145 O146 2.317 . S
O146 Cd145 2.317 . S
O146 C147 1.232 . S
C147 O146 1.232 . S
C147 O148 1.218 . S
O148 C147 1.218 . S
C149 O142 1.275 . S
C149 O144 1.255 1_455 S
C150 O151 1.258 . S
C150 O152 1.256 . S
O151 Cd143 2.381 . S
O151 C150 1.258 . S
O152 Cd143 2.378 . S
O152 C150 1.256 . S
O153 Cd154 2.300 . S
O153 C160 1.275 . S
Cd154 O153 2.300 . S
Cd154 O162 2.381 . S
Cd154 O163 2.378 . S
O155 Cd156 2.385 . S
O155 C160 1.255 1_655 S
Cd156 O155 2.385 . S
Cd156 O157 2.317 . S
O157 Cd156 2.317 . S
O157 C158 1.232 . S
C158 O157 1.232 . S
C158 O159 1.218 . S
O159 C158 1.218 . S
C160 O153 1.275 . S
C160 O155 1.255 1_455 S
C161 O162 1.258 . S
C161 O163 1.256 . S
O162 Cd154 2.381 . S
O162 C161 1.258 . S
O163 Cd154 2.378 . S
O163 C161 1.256 . S
O164 Cd165 2.300 . S
O164 C171 1.275 1_565 S
Cd165 O164 2.300 . S
Cd165 O173 2.381 . S
Cd165 O174 2.378 . S
O166 Cd167 2.385 . S
O166 C171 1.255 . S
Cd167 O166 2.385 . S
Cd167 O168 2.317 . S
O168 Cd167 2.317 . S
O168 C169 1.232 . S
C169 O168 1.232 . S
C169 O170 1.218 . S
O170 C169 1.218 . S
C171 O164 1.275 1_545 S
C171 O166 1.255 . S
C172 O173 1.258 . S
C172 O174 1.256 . S
O173 Cd165 2.381 . S
O173 C172 1.258 . S
O174 Cd165 2.378 . S
O174 C172 1.256 . S
O175 Cd176 2.300 . S
O175 C182 1.275 . S
Cd176 O175 2.300 . S
Cd176 O184 2.381 . S
Cd176 O185 2.378 . S
O177 Cd178 2.385 . S
O177 C182 1.255 . S
Cd178 O177 2.385 . S
Cd178 O179 2.317 . S
O179 Cd178 2.317 . S
O179 C180 1.232 . S
C180 O179 1.232 . S
C180 O181 1.218 . S
O181 C180 1.218 . S
C182 O175 1.275 . S
C182 O177 1.255 . S
C183 O184 1.258 . S
C183 O185 1.256 . S
O184 Cd176 2.381 . S
O184 C183 1.258 . S
O185 Cd176 2.378 . S
O185 C183 1.256 . S
H186 C194 0.950 . S
H187 C199 0.950 . S
H188 C196 0.950 . S
H189 C198 0.950 . S
H190 C200 0.950 . S
H191 C202 0.950 . S
H192 C204 0.950 . S
H193 C205 0.950 . S
C194 H186 0.950 . S
C194 C195 1.386 . S
C194 C196 1.391 . S
C195 C194 1.386 . S
C195 C199 1.393 . S
C196 H188 0.950 . S
C196 C194 1.391 . S
C196 C197 1.400 . S
C197 C196 1.400 . S
C197 C198 1.398 . S
C197 C203 1.491 . S
C198 H189 0.950 . S
C198 C197 1.398 . S
C198 C199 1.391 . S
C199 H187 0.950 . S
C199 C195 1.393 . S
C199 C198 1.391 . S
C200 H190 0.950 . S
C200 C201 1.386 . S
C200 C202 1.391 . S
C201 C200 1.386 . S
C201 C205 1.393 . S
C202 H191 0.950 . S
C202 C200 1.391 . S
C202 C203 1.400 . S
C203 C197 1.491 . S
C203 C202 1.400 . S
C203 C204 1.398 . S
C204 H192 0.950 . S
C204 C203 1.398 . S
C204 C205 1.391 . S
C205 H193 0.950 . S
C205 C201 1.393 . S
C205 C204 1.391 . S
H206 C214 0.950 . S
H207 C219 0.950 . S
H208 C216 0.950 . S
H209 C218 0.950 . S
H210 C220 0.950 . S
H211 C222 0.950 . S
H212 C224 0.950 . S
H213 C225 0.950 . S
C214 H206 0.950 . S
C214 C215 1.386 . S
C214 C216 1.391 . S
C215 C214 1.386 . S
C215 C219 1.393 . S
C216 H208 0.950 . S
C216 C214 1.391 . S
C216 C217 1.400 . S
C217 C216 1.400 . S
C217 C218 1.398 . S
C217 C223 1.491 . S
C218 H209 0.950 . S
C218 C217 1.398 . S
C218 C219 1.391 . S
C219 H207 0.950 . S
C219 C215 1.393 . S
C219 C218 1.391 . S
C220 H210 0.950 . S
C220 C221 1.386 . S
C220 C222 1.391 . S
C221 C220 1.386 . S
C221 C225 1.393 . S
C222 H211 0.950 . S
C222 C220 1.391 . S
C222 C223 1.400 . S
C223 C217 1.491 . S
C223 C222 1.400 . S
C223 C224 1.398 . S
C224 H212 0.950 . S
C224 C223 1.398 . S
C224 C225 1.391 . S
C225 H213 0.950 . S
C225 C221 1.393 . S
C225 C224 1.391 . S
H226 C234 0.950 . S
H227 C239 0.950 . S
H228 C236 0.950 . S
H229 C238 0.950 . S
H230 C240 0.950 . S
H231 C242 0.950 . S
H232 C244 0.950 . S
H233 C245 0.950 . S
C234 H226 0.950 . S
C234 C235 1.386 . S
C234 C236 1.391 . S
C235 C234 1.386 . S
C235 C239 1.393 . S
C236 H228 0.950 . S
C236 C234 1.391 . S
C236 C237 1.400 . S
C237 C236 1.400 . S
C237 C238 1.398 . S
C237 C243 1.491 . S
C238 H229 0.950 . S
C238 C237 1.398 . S
C238 C239 1.391 . S
C239 H227 0.950 . S
C239 C235 1.393 . S
C239 C238 1.391 . S
C240 H230 0.950 . S
C240 C241 1.386 . S
C240 C242 1.391 . S
C241 C240 1.386 . S
C241 C245 1.393 . S
C242 H231 0.950 . S
C242 C240 1.391 . S
C242 C243 1.400 . S
C243 C237 1.491 . S
C243 C242 1.400 . S
C243 C244 1.398 . S
C244 H232 0.950 . S
C244 C243 1.398 . S
C244 C245 1.391 . S
C245 H233 0.950 . S
C245 C241 1.393 . S
C245 C244 1.391 . S
H246 C254 0.950 . S
H247 C259 0.950 . S
H248 C256 0.950 . S
H249 C258 0.950 . S
H250 C260 0.950 . S
H251 C262 0.950 . S
H252 C264 0.950 . S
H253 C265 0.950 . S
C254 H246 0.950 . S
C254 C255 1.386 . S
C254 C256 1.391 . S
C255 C254 1.386 . S
C255 C259 1.393 . S
C256 H248 0.950 . S
C256 C254 1.391 . S
C256 C257 1.400 . S
C257 C256 1.400 . S
C257 C258 1.398 . S
C257 C263 1.491 . S
C258 H249 0.950 . S
C258 C257 1.398 . S
C258 C259 1.391 . S
C259 H247 0.950 . S
C259 C255 1.393 . S
C259 C258 1.391 . S
C260 H250 0.950 . S
C260 C261 1.386 . S
C260 C262 1.391 . S
C261 C260 1.386 . S
C261 C265 1.393 . S
C262 H251 0.950 . S
C262 C260 1.391 . S
C262 C263 1.400 . S
C263 C257 1.491 . S
C263 C262 1.400 . S
C263 C264 1.398 . S
C264 H252 0.950 . S
C264 C263 1.398 . S
C264 C265 1.391 . S
C265 H253 0.950 . S
C265 C261 1.393 . S
C265 C264 1.391 . S
H266 C274 0.950 . S
H267 C279 0.950 . S
H268 C276 0.950 . S
H269 C278 0.950 . S
H270 C280 0.950 . S
H271 C282 0.950 . S
H272 C284 0.950 . S
H273 C285 0.950 . S
C274 H266 0.950 . S
C274 C275 1.386 . S
C274 C276 1.391 . S
C275 C274 1.386 . S
C275 C279 1.393 . S
C276 H268 0.950 . S
C276 C274 1.391 . S
C276 C277 1.400 . S
C277 C276 1.400 . S
C277 C278 1.398 . S
C277 C283 1.491 . S
C278 H269 0.950 . S
C278 C277 1.398 . S
C278 C279 1.391 . S
C279 H267 0.950 . S
C279 C275 1.393 . S
C279 C278 1.391 . S
C280 H270 0.950 . S
C280 C281 1.386 . S
C280 C282 1.391 . S
C281 C280 1.386 . S
C281 C285 1.393 . S
C282 H271 0.950 . S
C282 C280 1.391 . S
C282 C283 1.400 . S
C283 C277 1.491 . S
C283 C282 1.400 . S
C283 C284 1.398 . S
C284 H272 0.950 . S
C284 C283 1.398 . S
C284 C285 1.391 . S
C285 H273 0.950 . S
C285 C281 1.393 . S
C285 C284 1.391 . S
H286 C294 0.950 . S
H287 C299 0.950 . S
H288 C296 0.950 . S
H289 C298 0.950 . S
H290 C300 0.950 . S
H291 C302 0.950 . S
H292 C304 0.950 . S
H293 C305 0.950 . S
C294 H286 0.950 . S
C294 C295 1.386 . S
C294 C296 1.391 . S
C295 C294 1.386 . S
C295 C299 1.393 . S
C296 H288 0.950 . S
C296 C294 1.391 . S
C296 C297 1.400 . S
C297 C296 1.400 . S
C297 C298 1.398 . S
C297 C303 1.491 . S
C298 H289 0.950 . S
C298 C297 1.398 . S
C298 C299 1.391 . S
C299 H287 0.950 . S
C299 C295 1.393 . S
C299 C298 1.391 . S
C300 H290 0.950 . S
C300 C301 1.386 . S
C300 C302 1.391 . S
C301 C300 1.386 . S
C301 C305 1.393 . S
C302 H291 0.950 . S
C302 C300 1.391 . S
C302 C303 1.400 . S
C303 C297 1.491 . S
C303 C302 1.400 . S
C303 C304 1.398 . S
C304 H292 0.950 . S
C304 C303 1.398 . S
C304 C305 1.391 . S
C305 H293 0.950 . S
C305 C301 1.393 . S
C305 C304 1.391 . S
H306 C314 0.950 . S
H307 C319 0.950 . S
H308 C316 0.950 . S
H309 C318 0.950 . S
H310 C320 0.950 . S
H311 C322 0.950 . S
H312 C324 0.950 . S
H313 C325 0.950 . S
C314 H306 0.950 . S
C314 C315 1.386 . S
C314 C316 1.391 . S
C315 C314 1.386 . S
C315 C319 1.393 . S
C316 H308 0.950 . S
C316 C314 1.391 . S
C316 C317 1.400 . S
C317 C316 1.400 . S
C317 C318 1.398 . S
C317 C323 1.491 . S
C318 H309 0.950 . S
C318 C317 1.398 . S
C318 C319 1.391 . S
C319 H307 0.950 . S
C319 C315 1.393 . S
C319 C318 1.391 . S
C320 H310 0.950 . S
C320 C321 1.386 . S
C320 C322 1.391 . S
C321 C320 1.386 . S
C321 C325 1.393 . S
C322 H311 0.950 . S
C322 C320 1.391 . S
C322 C323 1.400 . S
C323 C317 1.491 . S
C323 C322 1.400 . S
C323 C324 1.398 . S
C324 H312 0.950 . S
C324 C323 1.398 . S
C324 C325 1.391 . S
C325 H313 0.950 . S
C325 C321 1.393 . S
C325 C324 1.391 . S
H326 C334 0.950 . S
H327 C339 0.950 . S
H328 C336 0.950 . S
H329 C338 0.950 . S
H330 C340 0.950 . S
H331 C342 0.950 . S
H332 C344 0.950 . S
H333 C345 0.950 . S
C334 H326 0.950 . S
C334 C335 1.386 . S
C334 C336 1.391 . S
C335 C334 1.386 . S
C335 C339 1.393 . S
C336 H328 0.950 . S
C336 C334 1.391 . S
C336 C337 1.400 . S
C337 C336 1.400 . S
C337 C338 1.398 . S
C337 C343 1.491 . S
C338 H329 0.950 . S
C338 C337 1.398 . S
C338 C339 1.391 . S
C339 H327 0.950 . S
C339 C335 1.393 . S
C339 C338 1.391 . S
C340 H330 0.950 . S
C340 C341 1.386 . S
C340 C342 1.391 . S
C341 C340 1.386 . S
C341 C345 1.393 . S
C342 H331 0.950 . S
C342 C340 1.391 . S
C342 C343 1.400 . S
C343 C337 1.491 . S
C343 C342 1.400 . S
C343 C344 1.398 . S
C344 H332 0.950 . S
C344 C343 1.398 . S
C344 C345 1.391 . S
C345 H333 0.950 . S
C345 C341 1.393 . S
C345 C344 1.391 . S
H346 C354 0.950 . S
H347 C359 0.950 . S
H348 C356 0.950 . S
H349 C358 0.950 . S
H350 C360 0.950 . S
H351 C362 0.950 . S
H352 C364 0.950 . S
H353 C365 0.950 . S
C354 H346 0.950 . S
C354 C355 1.386 . S
C354 C356 1.391 . S
C355 C354 1.386 . S
C355 C359 1.393 . S
C356 H348 0.950 . S
C356 C354 1.391 . S
C356 C357 1.400 . S
C357 C356 1.400 . S
C357 C358 1.398 . S
C357 C363 1.491 . S
C358 H349 0.950 . S
C358 C357 1.398 . S
C358 C359 1.391 . S
C359 H347 0.950 . S
C359 C355 1.393 . S
C359 C358 1.391 . S
C360 H350 0.950 . S
C360 C361 1.386 . S
C360 C362 1.391 . S
C361 C360 1.386 . S
C361 C365 1.393 . S
C362 H351 0.950 . S
C362 C360 1.391 . S
C362 C363 1.400 . S
C363 C357 1.491 . S
C363 C362 1.400 . S
C363 C364 1.398 . S
C364 H352 0.950 . S
C364 C363 1.398 . S
C364 C365 1.391 . S
C365 H353 0.950 . S
C365 C361 1.393 . S
C365 C364 1.391 . S
H366 C374 0.950 . S
H367 C379 0.950 . S
H368 C376 0.950 . S
H369 C378 0.950 . S
H370 C380 0.950 . S
H371 C382 0.950 . S
H372 C384 0.950 . S
H373 C385 0.950 . S
C374 H366 0.950 . S
C374 C375 1.386 . S
C374 C376 1.391 . S
C375 C374 1.386 . S
C375 C379 1.393 . S
C376 H368 0.950 . S
C376 C374 1.391 . S
C376 C377 1.400 . S
C377 C376 1.400 . S
C377 C378 1.398 . S
C377 C383 1.491 . S
C378 H369 0.950 . S
C378 C377 1.398 . S
C378 C379 1.391 . S
C379 H367 0.950 . S
C379 C375 1.393 . S
C379 C378 1.391 . S
C380 H370 0.950 . S
C380 C381 1.386 . S
C380 C382 1.391 . S
C381 C380 1.386 . S
C381 C385 1.393 . S
C382 H371 0.950 . S
C382 C380 1.391 . S
C382 C383 1.400 . S
C383 C377 1.491 . S
C383 C382 1.400 . S
C383 C384 1.398 . S
C384 H372 0.950 . S
C384 C383 1.398 . S
C384 C385 1.391 . S
C385 H373 0.950 . S
C385 C381 1.393 . S
C385 C384 1.391 . S
H386 C394 0.950 . S
H387 C399 0.950 . S
H388 C396 0.950 . S
H389 C398 0.950 . S
H390 C400 0.950 . S
H391 C402 0.950 . S
H392 C404 0.950 . S
H393 C405 0.950 . S
C394 H386 0.950 . S
C394 C395 1.386 . S
C394 C396 1.391 . S
C395 C394 1.386 . S
C395 C399 1.393 . S
C396 H388 0.950 . S
C396 C394 1.391 . S
C396 C397 1.400 . S
C397 C396 1.400 . S
C397 C398 1.398 . S
C397 C403 1.491 . S
C398 H389 0.950 . S
C398 C397 1.398 . S
C398 C399 1.391 . S
C399 H387 0.950 . S
C399 C395 1.393 . S
C399 C398 1.391 . S
C400 H390 0.950 . S
C400 C401 1.386 . S
C400 C402 1.391 . S
C401 C400 1.386 . S
C401 C405 1.393 . S
C402 H391 0.950 . S
C402 C400 1.391 . S
C402 C403 1.400 . S
C403 C397 1.491 . S
C403 C402 1.400 . S
C403 C404 1.398 . S
C404 H392 0.950 . S
C404 C403 1.398 . S
C404 C405 1.391 . S
C405 H393 0.950 . S
C405 C401 1.393 . S
C405 C404 1.391 . S
H406 C414 0.950 . S
H407 C419 0.950 . S
H408 C416 0.950 . S
H409 C418 0.950 . S
H410 C420 0.950 . S
H411 C422 0.950 . S
H412 C424 0.950 . S
H413 C425 0.950 . S
C414 H406 0.950 . S
C414 C415 1.386 . S
C414 C416 1.391 . S
C415 C414 1.386 . S
C415 C419 1.393 . S
C416 H408 0.950 . S
C416 C414 1.391 . S
C416 C417 1.400 . S
C417 C416 1.400 . S
C417 C418 1.398 . S
C417 C423 1.491 . S
C418 H409 0.950 . S
C418 C417 1.398 . S
C418 C419 1.391 . S
C419 H407 0.950 . S
C419 C415 1.393 . S
C419 C418 1.391 . S
C420 H410 0.950 . S
C420 C421 1.386 . S
C420 C422 1.391 . S
C421 C420 1.386 . S
C421 C425 1.393 . S
C422 H411 0.950 . S
C422 C420 1.391 . S
C422 C423 1.400 . S
C423 C417 1.491 . S
C423 C422 1.400 . S
C423 C424 1.398 . S
C424 H412 0.950 . S
C424 C423 1.398 . S
C424 C425 1.391 . S
C425 H413 0.950 . S
C425 C421 1.393 . S
C425 C424 1.391 . S
H426 C434 0.950 . S
H427 C439 0.950 . S
H428 C436 0.950 . S
H429 C438 0.950 . S
H430 C440 0.936 1_655 S
H431 C442 0.948 1_554 S
H432 C444 0.950 1_554 S
H433 C445 0.950 . S
C434 H426 0.950 . S
C434 C435 1.386 . S
C434 C436 1.391 . S
C435 C434 1.386 . S
C435 C439 1.393 1_455 S
C436 H428 0.950 . S
C436 C434 1.391 . S
C436 C437 1.400 . S
C437 C436 1.400 . S
C437 C438 1.398 1_455 S
C437 C443 1.491 . S
C438 H429 0.950 . S
C438 C437 1.398 1_655 S
C438 C439 1.391 . S
C439 H427 0.950 . S
C439 C435 1.393 1_655 S
C439 C438 1.391 . S
C440 H430 0.936 1_455 S
C440 C441 1.402 . S
C440 C442 1.389 1_455 S
C441 C440 1.402 . S
C441 C445 1.393 . S
C442 H431 0.948 1_556 S
C442 C440 1.389 1_655 S
C442 C443 1.402 1_656 S
C443 C437 1.491 . S
C443 C442 1.402 1_454 S
C443 C444 1.398 1_554 S
C444 H432 0.950 1_556 S
C444 C443 1.398 1_556 S
C444 C445 1.391 . S
C445 H433 0.950 . S
C445 C441 1.393 . S
C445 C444 1.391 . S
H446 C454 0.950 . S
H447 C459 0.950 . S
H448 C456 0.950 . S
H449 C458 0.928 1_565 S
H450 C460 0.950 1_565 S
H451 C462 0.950 1_565 S
H452 C464 0.950 . S
H453 C465 0.950 . S
C454 H446 0.950 . S
C454 C455 1.386 . S
C454 C456 1.391 . S
C455 C454 1.386 . S
C455 C459 1.393 1_545 S
C456 H448 0.950 . S
C456 C454 1.391 . S
C456 C457 1.400 . S
C457 C456 1.400 . S
C457 C458 1.422 . S
C457 C463 1.491 . S
C458 H449 0.928 1_545 S
C458 C457 1.422 . S
C458 C459 1.389 1_545 S
C459 H447 0.950 . S
C459 C455 1.393 1_565 S
C459 C458 1.389 1_565 S
C460 H450 0.950 1_545 S
C460 C461 1.386 . S
C460 C462 1.391 . S
C461 C460 1.386 . S
C461 C465 1.393 . S
C462 H451 0.950 1_545 S
C462 C460 1.391 . S
C462 C463 1.400 . S
C463 C457 1.491 . S
C463 C462 1.400 . S
C463 C464 1.398 . S
C464 H452 0.950 . S
C464 C463 1.398 . S
C464 C465 1.391 . S
C465 H453 0.950 . S
C465 C461 1.393 . S
C465 C464 1.391 . S
H466 C474 0.950 . S
H467 C479 0.950 . S
H468 C476 0.950 . S
H469 C478 0.950 . S
H470 C480 0.950 . S
H471 C482 0.950 . S
H472 C484 0.950 . S
H473 C485 0.950 . S
C474 H466 0.950 . S
C474 C475 1.386 . S
C474 C476 1.391 . S
C475 C474 1.386 . S
C475 C479 1.393 . S
C476 H468 0.950 . S
C476 C474 1.391 . S
C476 C477 1.400 . S
C477 C476 1.400 . S
C477 C478 1.398 . S
C477 C483 1.491 . S
C478 H469 0.950 . S
C478 C477 1.398 . S
C478 C479 1.391 . S
C479 H467 0.950 . S
C479 C475 1.393 . S
C479 C478 1.391 . S
C480 H470 0.950 . S
C480 C481 1.386 . S
C480 C482 1.391 . S
C481 C480 1.386 . S
C481 C485 1.393 . S
C482 H471 0.950 . S
C482 C480 1.391 . S
C482 C483 1.400 . S
C483 C477 1.491 . S
C483 C482 1.400 . S
C483 C484 1.398 . S
C484 H472 0.950 . S
C484 C483 1.398 . S
C484 C485 1.391 . S
C485 H473 0.950 . S
C485 C481 1.393 . S
C485 C484 1.391 . S
H486 C494 0.950 . S
H487 C499 0.950 . S
H488 C496 0.950 . S
H489 C498 0.950 . S
H490 C500 0.950 . S
H491 C502 0.950 . S
H492 C504 0.950 . S
H493 C505 0.950 . S
C494 H486 0.950 . S
C494 C495 1.386 . S
C494 C496 1.391 . S
C495 C494 1.386 . S
C495 C499 1.393 . S
C496 H488 0.950 . S
C496 C494 1.391 . S
C496 C497 1.400 . S
C497 C496 1.400 . S
C497 C498 1.398 . S
C497 C503 1.491 . S
C498 H489 0.950 . S
C498 C497 1.398 . S
C498 C499 1.391 . S
C499 H487 0.950 . S
C499 C495 1.393 . S
C499 C498 1.391 . S
C500 H490 0.950 . S
C500 C501 1.386 . S
C500 C502 1.391 . S
C501 C500 1.386 . S
C501 C505 1.393 . S
C502 H491 0.950 . S
C502 C500 1.391 . S
C502 C503 1.400 . S
C503 C497 1.491 . S
C503 C502 1.400 . S
C503 C504 1.398 . S
C504 H492 0.950 . S
C504 C503 1.398 . S
C504 C505 1.391 . S
C505 H493 0.950 . S
C505 C501 1.393 . S
C505 C504 1.391 . S
H506 C514 0.950 . S
H507 C519 0.950 . S
H508 C516 0.950 . S
H509 C518 0.950 . S
H510 C520 0.950 . S
H511 C522 0.950 1_556 S
H512 C524 0.950 . S
H513 C525 0.950 . S
C514 H506 0.950 . S
C514 C515 1.386 . S
C514 C516 1.391 . S
C515 C514 1.386 . S
C515 C519 1.393 . S
C516 H508 0.950 . S
C516 C514 1.391 . S
C516 C517 1.400 . S
C517 C516 1.400 . S
C517 C518 1.398 . S
C517 C523 1.491 . S
C518 H509 0.950 . S
C518 C517 1.398 . S
C518 C519 1.391 . S
C519 H507 0.950 . S
C519 C515 1.393 . S
C519 C518 1.391 . S
C520 H510 0.950 . S
C520 C521 1.386 . S
C520 C522 1.391 . S
C521 C520 1.386 . S
C521 C525 1.393 . S
C522 H511 0.950 1_554 S
C522 C520 1.391 . S
C522 C523 1.400 1_554 S
C523 C517 1.491 . S
C523 C522 1.400 1_556 S
C523 C524 1.398 1_556 S
C524 H512 0.950 . S
C524 C523 1.398 1_554 S
C524 C525 1.391 . S
C525 H513 0.950 . S
C525 C521 1.393 . S
C525 C524 1.391 . S
H526 C534 0.950 . S
H527 C539 0.950 . S
H528 C536 0.950 . S
H529 C538 0.950 . S
H530 C540 0.950 . S
H531 C542 0.950 . S
H532 C544 0.950 . S
H533 C545 0.950 . S
C534 H526 0.950 . S
C534 C535 1.386 . S
C534 C536 1.391 . S
C535 C534 1.386 . S
C535 C539 1.393 1_455 S
C536 H528 0.950 . S
C536 C534 1.391 . S
C536 C537 1.400 . S
C537 C536 1.400 . S
C537 C538 1.398 1_455 S
C537 C543 1.491 . S
C538 H529 0.950 . S
C538 C537 1.398 1_655 S
C538 C539 1.391 . S
C539 H527 0.950 . S
C539 C535 1.393 1_655 S
C539 C538 1.391 . S
C540 H530 0.950 . S
C540 C541 1.386 1_655 S
C540 C542 1.391 . S
C541 C540 1.386 1_455 S
C541 C545 1.393 . S
C542 H531 0.950 . S
C542 C540 1.391 . S
C542 C543 1.400 1_655 S
C543 C537 1.491 . S
C543 C542 1.400 1_455 S
C543 C544 1.398 . S
C544 H532 0.950 . S
C544 C543 1.398 . S
C544 C545 1.391 . S
C545 H533 0.950 . S
C545 C541 1.393 . S
C545 C544 1.391 . S
C195 C24 3.147 . S
C201 C180 2.825 . S
C215 C66 1.267 . S
C221 C158 1.157 . S
C235 C93 1.680 . S
C241 C172 1.624 . S
C255 C13 2.951 . S
C261 C183 2.876 . S
C281 C161 1.007 . S
C275 C57 1.039 . S
C301 C169 1.772 . S
C295 C104 2.087 . S
C315 C64 2.076 . S
C321 C136 1.773 . S
C335 C97 0.565 . S
C341 C147 0.784 . S
C355 C17 1.382 . S
C361 C125 1.254 . S
C381 C139 1.628 . S
C375 C53 1.680 . S
C401 C150 0.217 . S
C395 C106 0.269 . S
C415 C26 1.026 . S
C421 C128 1.001 . S
C441 C149 1.165 . S
C435 C2 1.183 . S
C455 C63 1.474 . S
C461 C127 1.466 . S
C475 C82 1.446 . S
C481 C138 1.374 . S
C501 C171 1.398 . S
C495 C42 1.451 . S
C521 C182 1.671 . S
C515 C103 1.725 . S
C535 C23 1.531 . S
C541 C160 1.478 . S
