# Generated by pormake.
# Topology nia, (6,6)-cn, num edge types: 1
# Building blocks:
#     Node 0, Type 0, BuildingBlock: KUMJIN_clean_sbu_0, # of connection points: 6
#     Node 1, Type 0, BuildingBlock: KUMJIN_clean_sbu_0, # of connection points: 6
#     Node 2, Type 1, BuildingBlock: MIDCAF_clean_sbu_0, # of connection points: 6
#     Node 3, Type 1, BuildingBlock: MIDCAF_clean_sbu_0, # of connection points: 6
#     Edge 4, Type (0, 1), BuildingBlock: AJUNOK_clean_linker_0, # of connection points: 2
#     Edge 5, Type (0, 1), BuildingBlock: AJUNOK_clean_linker_0, # of connection points: 2
#     Edge 6, Type (0, 1), BuildingBlock: AJUNOK_clean_linker_0, # of connection points: 2
#     Edge 7, Type (0, 1), BuildingBlock: AJUNOK_clean_linker_0, # of connection points: 2
#     Edge 8, Type (0, 1), BuildingBlock: AJUNOK_clean_linker_0, # of connection points: 2
#     Edge 9, Type (0, 1), BuildingBlock: AJUNOK_clean_linker_0, # of connection points: 2
#     Edge 10, Type (0, 1), BuildingBlock: AJUNOK_clean_linker_0, # of connection points: 2
#     Edge 11, Type (0, 1), BuildingBlock: AJUNOK_clean_linker_0, # of connection points: 2
#     Edge 12, Type (0, 1), BuildingBlock: AJUNOK_clean_linker_0, # of connection points: 2
#     Edge 13, Type (0, 1), BuildingBlock: AJUNOK_clean_linker_0, # of connection points: 2
#     Edge 14, Type (0, 1), BuildingBlock: AJUNOK_clean_linker_0, # of connection points: 2
#     Edge 15, Type (0, 1), BuildingBlock: AJUNOK_clean_linker_0, # of connection points: 2
# Relax obj value: 0.175
# Max RMSD: 0.299
# Mean RMSD: 0.209
data_MOF--net-nia--node1-KUMJIN_clean_sbu_0--node2-MIDCAF_clean_sbu_0--edge1-AJUNOK_clean_linker_0
_symmetry_space_group_name_H-M    P1
_symmetry_Int_Tables_number       1
_symmetry_cell_setting            triclinic
loop_
_symmetry_equiv_pos_as_xyz
'x, y, z'
_cell_length_a     21.805098
_cell_length_b     21.852322
_cell_length_c     24.808726
_cell_angle_alpha  90.500102
_cell_angle_beta   89.527538
_cell_angle_gamma 140.50279
loop_
_atom_site_label
_atom_site_type_symbol
_atom_site_fract_x
_atom_site_fract_y
_atom_site_fract_z
_atom_type_partial_charge
Eu0 Eu 0.06273 0.98693 0.05964 0.0
C1 C 0.9867 0.06575 0.84067 0.0
C2 C 0.12884 0.23872 0.82963 0.0
C3 C 0.01831 0.13965 0.7549 0.0
C4 C 0.06898 0.15588 0.86223 0.0
C5 C 0.9611 0.05693 0.78654 0.0
C6 C 0.10235 0.23015 0.77622 0.0
C7 C 0.81654 0.88647 0.80054 0.0
N8 N 0.92792 0.98773 0.87347 0.0
C9 C 0.84198 0.89963 0.85452 0.0
C10 C 0.87624 0.96558 0.76643 0.0
Eu11 Eu 0.9615 0.02196 0.96688 0.0
N12 N 0.08712 0.16347 0.91572 0.0
C13 C 0.16535 0.2516 0.93847 0.0
C14 C 0.21121 0.3285 0.8524 0.0
C15 C 0.22979 0.33483 0.90703 0.0
H16 H 0.79157 0.83998 0.88192 0.0
H17 H 0.29244 0.40414 0.92534 0.0
H18 H 0.14584 0.29328 0.75119 0.0
H19 H 0.74875 0.81616 0.78597 0.0
H20 H 0.17936 0.25898 0.98087 0.0
H21 H 0.84883 0.60956 0.0616 0.0
H22 H 0.25958 0.3935 0.82847 0.0
H23 H 0.09959 0.10328 0.17294 0.0
H24 H 0.98739 0.78117 0.03782 0.0
H25 H 0.00863 0.06671 0.25247 0.0
H26 H 0.99818 0.13445 0.71383 0.0
H27 H 0.72923 0.55385 0.12884 0.0
H28 H 0.68151 0.59656 0.19807 0.0
H29 H 0.85449 0.95556 0.72521 0.0
H30 H 0.72562 0.72255 0.25052 0.0
N31 N 0.94378 0.82235 0.08806 0.0
C32 C 0.93522 0.75797 0.06667 0.0
C33 C 0.78983 0.62936 0.11829 0.0
C34 C 0.80509 0.69711 0.14455 0.0
C35 C 0.85707 0.6605 0.08035 0.0
C36 C 0.88558 0.7946 0.12944 0.0
H37 H 0.85119 0.89815 0.27311 0.0
N38 N 0.99236 0.95801 0.14525 0.0
C39 C 0.97905 0.00922 0.22587 0.0
C40 C 0.91131 0.86499 0.15941 0.0
C41 C 0.02986 0.02982 0.17976 0.0
C42 C 0.89035 0.91411 0.23754 0.0
C43 C 0.85602 0.84029 0.20472 0.0
O44 O 0.1999 0.09385 0.10337 0.0
O45 O 0.0954 0.07323 0.98857 0.0
O46 O 0.94257 0.91554 0.92518 0.0
O47 O 0.97887 0.87314 0.99283 0.0
O48 O 0.13926 0.0159 0.98375 0.0
O49 O 0.1417 0.96317 0.07597 0.0
O50 O 0.8235 0.95952 0.98522 0.0
O51 O 0.94853 0.96934 0.04829 0.0
O52 O 0.13011 0.13081 0.08017 0.0
O53 O 0.03631 0.13035 0.03493 0.0
O54 O 0.83016 0.87095 0.9979 0.0
O55 O 0.93404 0.09807 0.94846 0.0
C56 C 0.13785 0.06638 0.95906 0.0
C57 C 0.24737 0.0405 0.15155 0.0
C58 C 0.28678 0.97709 0.20054 0.0
C59 C 0.24733 0.97598 0.1552 0.0
C60 C 0.32529 0.04237 0.24249 0.0
C61 C 0.29191 0.10909 0.19266 0.0
C62 C 0.32948 0.10908 0.23803 0.0
C63 C 0.94595 0.86197 0.94437 0.0
C64 C 0.21061 0.04292 0.10253 0.0
C65 C 0.77021 0.74291 0.21665 0.0
C66 C 0.74505 0.67124 0.18675 0.0
C67 C 0.86013 0.88715 0.04692 0.0
C68 C 0.77252 0.98993 0.91945 0.0
C69 C 0.77009 0.04858 0.90084 0.0
C70 C 0.70697 0.01668 0.85868 0.0
C71 C 0.65309 0.92909 0.83269 0.0
C72 C 0.70671 0.89673 0.89784 0.0
C73 C 0.65074 0.86833 0.8533 0.0
C74 C 0.10046 0.16474 0.07203 0.0
C75 C 0.84305 0.02517 0.96095 0.0
H76 H 0.21881 0.92646 0.12237 0.0
H77 H 0.35597 0.04459 0.27765 0.0
H78 H 0.29747 0.16269 0.18993 0.0
H79 H 0.36272 0.16159 0.26976 0.0
H80 H 0.81509 0.11724 0.92043 0.0
H81 H 0.61018 0.9058 0.79741 0.0
H82 H 0.69985 0.84614 0.91448 0.0
H83 H 0.60477 0.79859 0.83497 0.0
Eu84 Eu 0.98547 0.04749 0.56822 0.0
C85 C 0.99029 0.89452 0.354 0.0
C86 C 0.839 0.72251 0.3596 0.0
C87 C 0.932 0.79139 0.27669 0.0
C88 C 0.91121 0.81446 0.3841 0.0
C89 C 0.00083 0.88342 0.29986 0.0
C90 C 0.85033 0.71145 0.30606 0.0
C91 C 0.15398 0.05355 0.29742 0.0
N92 N 0.0625 0.98114 0.37926 0.0
C93 C 0.14578 0.05866 0.35245 0.0
C94 C 0.08259 0.96479 0.2712 0.0
Eu95 Eu 0.05432 0.97798 0.47404 0.0
N96 N 0.90846 0.82508 0.43793 0.0
C97 C 0.83264 0.7467 0.46844 0.0
C98 C 0.76018 0.64314 0.3905 0.0
C99 C 0.75671 0.65552 0.44507 0.0
H100 H 0.20692 0.12386 0.3741 0.0
H101 H 0.69651 0.59437 0.46956 0.0
H102 H 0.79722 0.64095 0.28729 0.0
H103 H 0.21728 0.11764 0.27621 0.0
H104 H 0.82815 0.75299 0.51085 0.0
H105 H 0.1645 0.40691 0.53551 0.0
H106 H 0.70283 0.57173 0.37293 0.0
H107 H 0.00119 0.97911 0.68681 0.0
H108 H 0.03277 0.23016 0.52876 0.0
H109 H 0.11629 0.05139 0.75893 0.0
H110 H 0.94112 0.78134 0.23588 0.0
H111 H 0.30493 0.49452 0.59386 0.0
H112 H 0.38088 0.48743 0.66438 0.0
H113 H 0.09168 0.95936 0.22915 0.0
H114 H 0.36702 0.38978 0.72609 0.0
N115 N 0.10204 0.21766 0.57858 0.0
C116 C 0.09484 0.26762 0.55343 0.0
C117 C 0.24801 0.41693 0.59032 0.0
C118 C 0.2494 0.36469 0.62107 0.0
C119 C 0.16891 0.36781 0.55744 0.0
C120 C 0.17351 0.26362 0.61486 0.0
H121 H 0.26726 0.22771 0.76277 0.0
N122 N 0.08757 0.11136 0.64501 0.0
C123 C 0.13244 0.09662 0.72777 0.0
C124 C 0.16545 0.20875 0.64963 0.0
C125 C 0.06753 0.05552 0.68549 0.0
C126 C 0.2173 0.19593 0.72987 0.0
C127 C 0.23366 0.25358 0.69133 0.0
O128 O 0.85109 0.94052 0.61432 0.0
O129 O 0.93159 0.94295 0.50203 0.0
O130 O 0.08945 0.09291 0.43 0.0
O131 O 0.05079 0.14051 0.49238 0.0
O132 O 0.8945 0.00691 0.49782 0.0
O133 O 0.92544 0.08363 0.60693 0.0
O134 O 0.15701 -0.00622 0.51115 0.0
O135 O 0.0922 0.05701 0.54985 0.0
O136 O 0.93379 0.91723 0.60329 0.0
O137 O 0.98668 0.88044 0.54484 0.0
O138 O 0.19718 0.13475 0.49027 0.0
O139 O 0.09567 0.92247 0.43551 0.0
C140 C 0.88727 0.94858 0.47434 0.0
C141 C 0.75631 0.95862 0.62585 0.0
C142 C 0.66382 0.9817 0.64241 0.0
C143 C 0.75291 0.01966 0.63642 0.0
C144 C 0.57826 0.88143 0.63908 0.0
C145 C 0.66937 0.85896 0.62168 0.0
C146 C 0.5812 0.82092 0.62834 0.0
C147 C 0.08424 0.14699 0.44506 0.0
C148 C 0.84989 -0.00219 0.62565 0.0
C149 C 0.31335 0.35433 0.69488 0.0
C150 C 0.32128 0.40987 0.65972 0.0
C151 C 0.1799 0.1356 0.5403 0.0
C152 C 0.25522 0.01302 0.45037 0.0
C153 C 0.2674 0.96316 0.42926 0.0
C154 C 0.3588 0.01268 0.41206 0.0
C155 C 0.43755 0.11376 0.41503 0.0
C156 C 0.33452 0.11396 0.45219 0.0
C157 C 0.42497 0.16383 0.43433 0.0
C158 C 0.94676 0.8689 0.59017 0.0
C159 C 0.15963 0.95793 0.47098 0.0
H160 H 0.81953 0.09656 0.64013 0.0
H161 H 0.50875 0.84944 0.64533 0.0
H162 H 0.6693 0.80993 0.61454 0.0
H163 H 0.51472 0.74391 0.62586 0.0
H164 H 0.20553 0.88527 0.42708 0.0
H165 H 0.50944 0.15426 0.40407 0.0
H166 H 0.32717 0.15434 0.46797 0.0
H167 H 0.48608 0.24161 0.43655 0.0
Zn168 Zn 0.38505 0.67766 0.17221 0.0
Zn169 Zn 0.3747 0.64971 0.36156 0.0
Zn170 Zn 0.40952 0.67738 0.26861 0.0
C171 C 0.55445 0.72768 0.34454 0.0
C172 C 0.24106 0.47302 0.33392 0.0
O173 O 0.37074 0.74759 0.24914 0.0
O174 O 0.37768 0.75982 0.16042 0.0
C175 C 0.56427 0.75419 0.18609 0.0
O176 O 0.55001 0.75 0.29801 0.0
O177 O 0.48229 0.67549 0.37554 0.0
O178 O 0.24444 0.51565 0.37065 0.0
O179 O 0.29944 0.52184 0.29344 0.0
O180 O 0.50356 0.72458 0.15159 0.0
O181 O 0.54916 0.75234 0.23666 0.0
O182 O 0.30452 0.52982 0.23404 0.0
O183 O 0.26772 0.54134 0.15537 0.0
C184 C 0.2571 0.4913 0.18942 0.0
O185 O 0.39266 0.76006 0.30418 0.0
O186 O 0.39445 0.74594 0.3919 0.0
C187 C 0.36325 0.77395 0.20553 0.0
C188 C 0.39515 0.78309 0.35312 0.0
Zn189 Zn 0.6361 0.33644 0.85914 0.0
Zn190 Zn 0.66897 0.36801 0.66289 0.0
Zn191 Zn 0.62421 0.33944 0.75807 0.0
C192 C 0.79755 0.54411 0.69598 0.0
C193 C 0.49361 0.29881 0.67439 0.0
O194 O 0.64809 0.26061 0.78265 0.0
O195 O 0.63913 0.25086 0.87186 0.0
C196 C 0.77599 0.52429 0.83931 0.0
O197 O 0.73676 0.49364 0.73517 0.0
O198 O 0.79833 0.50381 0.65982 0.0
O199 O 0.56504 0.34603 0.64349 0.0
O200 O 0.49386 0.27621 0.72209 0.0
O201 O 0.75517 0.4724 0.87702 0.0
O202 O 0.73172 0.48604 0.79384 0.0
O203 O 0.48016 0.26462 0.78214 0.0
O204 O 0.51387 0.2886 0.86913 0.0
C205 C 0.45798 0.26078 0.83135 0.0
O206 O 0.64701 0.25907 0.7267 0.0
O207 O 0.65306 0.2707 0.63806 0.0
C208 C 0.65032 0.23238 0.82734 0.0
C209 C 0.65065 0.23605 0.6795 0.0
C210 C 0.36215 0.93991 0.16426 0.0
C211 C 0.29936 0.9194 0.2015 0.0
C212 C 0.38254 0.8929 0.16664 0.0
C213 C 0.34079 0.82318 0.20627 0.0
H214 H 0.39763 -0.00551 0.1338 0.0
H215 H 0.43267 0.9124 0.13745 0.0
S216 S 0.16193 0.73539 0.309 0.0
N217 N 0.19102 0.82138 0.27726 0.0
N218 N 0.22554 0.72909 0.2801 0.0
C219 C 0.27491 0.79943 0.24257 0.0
C220 C 0.25537 0.8487 0.24067 0.0
C221 C 0.34442 0.27735 0.57874 0.0
C222 C 0.25498 0.17867 0.58054 0.0
C223 C 0.41953 0.31786 0.61317 0.0
C224 C 0.40775 0.26097 0.65046 0.0
H225 H 0.35697 0.32299 0.54977 0.0
H226 H 0.48884 0.39361 0.60899 0.0
S227 S 0.19005 -0.00131 0.66969 0.0
N228 N 0.16054 0.02461 0.62194 0.0
N229 N 0.30139 0.10206 0.6869 0.0
C230 C 0.3184 0.16308 0.65364 0.0
C231 C 0.24229 0.12142 0.61828 0.0
C232 C 0.09152 0.26529 0.10693 0.0
C233 C 0.13793 0.24365 0.10715 0.0
C234 C 0.1252 0.34021 0.13823 0.0
C235 C 0.20654 0.39665 0.17126 0.0
H236 H 0.02944 0.22538 0.08152 0.0
H237 H 0.09003 0.35717 0.13452 0.0
S238 S 0.35488 0.37105 0.18725 0.0
N239 N 0.26965 0.28503 0.14437 0.0
N240 N 0.33276 0.42623 0.20304 0.0
C241 C 0.25182 0.37408 0.1737 0.0
C242 C 0.21786 0.29782 0.14151 0.0
C243 C 0.71943 0.12061 0.69071 0.0
C244 C 0.65929 0.04582 0.65217 0.0
C245 C 0.71539 0.18111 0.70023 0.0
C246 C 0.65011 0.16813 0.67236 0.0
H247 H 0.77011 0.13263 0.71363 0.0
H248 H 0.76585 0.24042 0.72821 0.0
S249 S 0.48151 0.98773 0.56499 0.0
N250 N 0.53651 0.96673 0.58367 0.0
N251 N 0.52684 0.07772 0.6032 0.0
C252 C 0.5905 0.09456 0.63344 0.0
C253 C 0.59518 0.0338 0.62321 0.0
C254 C 0.70368 0.75555 0.09578 0.0
C255 C 0.79257 0.85407 0.0906 0.0
C256 C 0.63346 0.7227 0.13223 0.0
C257 C 0.64925 0.7871 0.16474 0.0
H258 H 0.68725 0.70375 0.07032 0.0
H259 H 0.56382 0.64656 0.13271 0.0
S260 S 0.86711 0.05204 0.16519 0.0
N261 N 0.89087 0.01606 0.12036 0.0
N262 N 0.75892 0.9531 0.18926 0.0
C263 C 0.7383 0.88526 0.16112 0.0
C264 C 0.80973 0.91913 0.12367 0.0
C265 C 0.96602 0.77845 0.62484 0.0
C266 C 0.91782 0.798 0.62795 0.0
C267 C 0.93329 0.7025 0.65313 0.0
C268 C 0.84985 0.64164 0.68498 0.0
H269 H 0.02744 0.81949 0.59828 0.0
H270 H 0.96923 0.68669 0.64656 0.0
S271 S 0.70251 0.66723 0.71122 0.0
N272 N 0.78851 0.7568 0.67007 0.0
N273 N 0.72367 0.61022 0.72178 0.0
C274 C 0.80508 0.66463 0.69206 0.0
C275 C 0.83969 0.74362 0.66369 0.0
C276 C 0.3247 0.87528 0.42468 0.0
C277 C 0.3719 0.95757 0.39528 0.0
C278 C 0.33314 0.82011 0.41029 0.0
C279 C 0.38928 0.84462 0.36588 0.0
H280 H 0.28116 0.85331 0.45961 0.0
H281 H 0.29428 0.75683 0.43401 0.0
S282 S 0.53597 0.05804 0.27857 0.0
N283 N 0.48156 0.06367 0.32088 0.0
N284 N 0.49984 0.96089 0.29533 0.0
C285 C 0.43985 0.92828 0.33709 0.0
C286 C 0.43076 0.98461 0.35149 0.0
C287 C 0.19664 0.08334 0.86763 0.0
C288 C 0.20489 0.1279 0.91358 0.0
C289 C 0.27742 0.13115 0.83519 0.0
C290 C 0.3689 0.22529 0.84775 0.0
H291 H 0.1296 0.00771 0.86001 0.0
H292 H 0.27004 0.09091 0.80392 0.0
S293 S 0.42769 0.3765 0.96055 0.0
N294 N 0.31183 0.27254 0.96828 0.0
N295 N 0.46048 0.36518 0.90499 0.0
C296 C 0.37541 0.27377 0.88991 0.0
C297 C 0.29433 0.22436 0.92364 0.0
C298 C 0.06365 0.23316 0.4023 0.0
C299 C 0.11646 0.21918 0.40678 0.0
C300 C 0.09964 0.31042 0.37285 0.0
C301 C 0.18939 0.37606 0.34647 0.0
H302 H 0.99597 0.18653 0.42371 0.0
H303 H 0.05999 0.32262 0.3737 0.0
S304 S 0.35568 0.37133 0.34577 0.0
N305 N 0.2625 0.27691 0.38198 0.0
N306 N 0.3293 0.42094 0.32594 0.0
C307 C 0.24019 0.35957 0.348 0.0
C308 C 0.20397 0.28142 0.37844 0.0
C309 C 0.77106 0.17268 0.84597 0.0
C310 C 0.69279 0.07129 0.84426 0.0
C311 C 0.75726 0.22497 0.83872 0.0
C312 C 0.66549 0.17789 0.82755 0.0
H313 H 0.84333 0.21213 0.85401 0.0
H314 H 0.81851 0.30265 0.84243 0.0
S315 S 0.43685 0.9159 0.81773 0.0
N316 N 0.51879 0.92665 0.83143 0.0
N317 N 0.49601 0.02679 0.81389 0.0
C318 C 0.58739 0.07774 0.82362 0.0
C319 C 0.60033 0.02392 0.83261 0.0
C320 C 0.81826 0.91492 0.38336 0.0
C321 C 0.81168 0.88015 0.43345 0.0
C322 C 0.73593 0.8612 0.35115 0.0
C323 C 0.64439 0.77061 0.36793 0.0
H324 H 0.88616 0.98726 0.37095 0.0
H325 H 0.74295 0.8941 0.31523 0.0
S326 S 0.58953 0.64717 0.49564 0.0
N327 N 0.70593 0.75171 0.49891 0.0
N328 N 0.55467 0.64517 0.43619 0.0
C329 C 0.63899 0.73224 0.41607 0.0
C330 C 0.72153 0.78864 0.44961 0.0
C331 C 0.82898 0.72681 0.87875 0.0
C332 C 0.91377 0.78636 0.90919 0.0
C333 C 0.79004 0.64676 0.85085 0.0
C334 C 0.83409 0.62298 0.85295 0.0
H335 H 0.78801 0.73708 0.87968 0.0
H336 H 0.72039 0.59835 0.83176 0.0
S337 S 0.0636 0.76195 0.92089 0.0
N338 N 0.04683 0.82245 0.93427 0.0
N339 N 0.97058 0.66863 0.88388 0.0
C340 C 0.92157 0.68456 0.88062 0.0
C341 C 0.96216 0.76708 0.90831 0.0
loop_
_geom_bond_atom_site_label_1
_geom_bond_atom_site_label_2
_geom_bond_distance
_geom_bond_site_symmetry_2
_ccdc_geom_bond_type
Eu0 N31 2.657 1_455 S
Eu0 N38 2.609 . S
Eu0 O44 2.558 1_565 S
Eu0 O45 2.612 1_564 S
Eu0 O47 2.339 1_454 S
Eu0 O48 2.563 1_565 S
Eu0 O49 2.419 . S
Eu0 O51 2.380 1_455 S
Eu0 O52 2.432 1_565 S
Eu0 C64 2.848 . S
C1 C4 1.429 . S
C1 C5 1.411 . S
C1 N8 1.377 1_455 S
C2 C4 1.420 . S
C2 C6 1.423 . S
C2 C14 1.392 . S
C3 C5 1.420 . S
C3 C6 1.351 . S
C3 H26 0.931 . S
C4 C1 1.429 . S
C4 C2 1.420 . S
C4 N12 1.362 . S
C5 C1 1.411 . S
C5 C3 1.420 . S
C5 C10 1.395 1_455 S
C6 C2 1.423 . S
C6 C3 1.351 . S
C6 H18 0.930 . S
C7 C9 1.400 . S
C7 C10 1.386 1_565 S
C7 H19 0.930 . S
N8 C1 1.377 1_655 S
N8 C9 1.321 1_545 S
N8 Eu11 2.609 . S
C9 C7 1.400 . S
C9 N8 1.321 1_565 S
C9 H16 0.930 . S
C10 C5 1.395 1_655 S
C10 C7 1.386 1_545 S
C10 H29 0.930 . S
Eu11 N8 2.609 . S
Eu11 N12 2.657 1_655 S
Eu11 O45 2.380 1_655 S
Eu11 O46 2.432 1_545 S
Eu11 O50 2.558 1_545 S
Eu11 O51 2.612 1_546 S
Eu11 O53 2.339 1_656 S
Eu11 O54 2.563 1_545 S
Eu11 O55 2.419 . S
Eu11 C75 2.848 . S
N12 C4 1.362 . S
N12 Eu11 2.657 1_455 S
N12 C13 1.334 . S
C13 N12 1.334 . S
C13 C15 1.413 . S
C13 H20 0.929 . S
C14 C2 1.392 . S
C14 C15 1.367 . S
C14 H22 0.930 . S
C15 C13 1.413 . S
C15 C14 1.367 . S
C15 H17 0.930 . S
H16 C9 0.930 . S
H17 C15 0.930 . S
H18 C6 0.930 . S
H19 C7 0.930 . S
H20 C13 0.929 . S
H21 C35 0.930 . S
H22 C14 0.930 . S
H23 C41 0.930 . S
H24 C32 0.929 . S
H25 C39 0.930 . S
H26 C3 0.931 . S
H27 C33 0.930 . S
H28 C66 0.930 . S
H29 C10 0.930 . S
H30 C65 0.931 . S
N31 Eu0 2.657 1_655 S
N31 C32 1.334 . S
N31 C36 1.362 . S
C32 H24 0.929 . S
C32 N31 1.334 . S
C32 C35 1.413 . S
C33 H27 0.930 . S
C33 C34 1.392 . S
C33 C35 1.367 . S
C34 C33 1.392 . S
C34 C36 1.420 . S
C34 C66 1.423 . S
C35 H21 0.930 . S
C35 C32 1.413 . S
C35 C33 1.367 . S
C36 N31 1.362 . S
C36 C34 1.420 . S
C36 C40 1.429 . S
H37 C42 0.930 . S
N38 Eu0 2.609 . S
N38 C40 1.377 1_455 S
N38 C41 1.321 1_565 S
C39 H25 0.930 . S
C39 C41 1.400 . S
C39 C42 1.386 1_545 S
C40 C36 1.429 . S
C40 N38 1.377 1_655 S
C40 C43 1.411 . S
C41 H23 0.930 . S
C41 N38 1.321 1_545 S
C41 C39 1.400 . S
C42 H37 0.930 . S
C42 C39 1.386 1_565 S
C42 C43 1.395 1_455 S
C43 C40 1.411 . S
C43 C42 1.395 1_655 S
C43 C65 1.420 . S
O44 Eu0 2.558 1_545 S
O44 C64 1.257 1_545 S
O45 Eu0 2.612 1_546 S
O45 Eu11 2.380 1_455 S
O45 C56 1.276 . S
O46 Eu11 2.432 1_565 S
O46 C63 1.264 . S
O47 Eu0 2.339 1_656 S
O47 C63 1.254 . S
O48 Eu0 2.563 1_545 S
O48 C56 1.235 1_554 S
O49 Eu0 2.419 . S
O49 C64 1.249 . S
O50 Eu11 2.558 1_565 S
O50 C75 1.257 1_565 S
O51 Eu0 2.380 1_655 S
O51 Eu11 2.612 1_564 S
O51 C67 1.276 . S
O52 Eu0 2.432 1_545 S
O52 C74 1.264 . S
O53 Eu11 2.339 1_454 S
O53 C74 1.254 . S
O54 Eu11 2.563 1_565 S
O54 C67 1.236 1_556 S
O55 Eu11 2.419 . S
O55 C75 1.249 . S
C56 O45 1.276 . S
C56 O48 1.235 1_556 S
C57 C59 1.393 . S
C57 C61 1.395 . S
C57 C64 1.492 . S
C58 C59 1.392 . S
C58 C60 1.386 . S
C59 C57 1.393 . S
C59 C58 1.392 . S
C59 H76 0.930 . S
C60 C58 1.386 . S
C60 C62 1.395 . S
C60 H77 0.930 . S
C61 C57 1.395 . S
C61 C62 1.379 . S
C61 H78 0.923 1_565 S
C62 C60 1.395 . S
C62 C61 1.379 . S
C62 H79 0.930 . S
C63 O46 1.264 . S
C63 O47 1.254 . S
C64 Eu0 2.848 . S
C64 O44 1.257 1_565 S
C64 O49 1.249 . S
C64 C57 1.492 . S
C65 H30 0.931 . S
C65 C43 1.420 . S
C65 C66 1.351 . S
C66 H28 0.930 . S
C66 C34 1.423 . S
C66 C65 1.351 . S
C67 O51 1.276 . S
C67 O54 1.236 1_554 S
C68 C69 1.393 . S
C68 C72 1.395 . S
C68 C75 1.492 . S
C69 C68 1.393 . S
C69 C70 1.392 . S
C69 H80 0.930 . S
C70 C69 1.392 . S
C70 C71 1.386 . S
C71 C70 1.386 . S
C71 C73 1.395 . S
C71 H81 0.930 . S
C72 C68 1.395 . S
C72 C73 1.379 . S
C72 H82 0.930 . S
C73 C71 1.395 . S
C73 C72 1.379 . S
C73 H83 0.930 . S
C74 O52 1.264 . S
C74 O53 1.254 . S
C75 Eu11 2.848 . S
C75 O50 1.257 1_545 S
C75 O55 1.249 . S
C75 C68 1.492 . S
H76 C59 0.930 . S
H77 C60 0.930 . S
H78 C61 0.923 1_545 S
H79 C62 0.930 . S
H80 C69 0.930 . S
H81 C71 0.930 . S
H82 C72 0.930 . S
H83 C73 0.930 . S
Eu84 N115 2.657 1_655 S
Eu84 N122 2.609 1_655 S
Eu84 O128 2.558 . S
Eu84 O129 2.612 1_545 S
Eu84 O131 2.339 1_655 S
Eu84 O132 2.563 1_545 S
Eu84 O133 2.419 . S
Eu84 O135 2.380 1_655 S
Eu84 O136 2.432 1_545 S
Eu84 C148 2.848 . S
C85 C88 1.429 . S
C85 C89 1.411 . S
C85 N92 1.377 1_665 S
C86 C88 1.420 . S
C86 C90 1.423 . S
C86 C98 1.392 . S
C87 C89 1.420 . S
C87 C90 1.351 . S
C87 H110 0.931 . S
C88 C85 1.429 . S
C88 C86 1.420 . S
C88 N96 1.362 . S
C89 C85 1.411 . S
C89 C87 1.420 . S
C89 C94 1.395 1_665 S
C90 C86 1.423 . S
C90 C87 1.351 . S
C90 H102 0.930 . S
C91 C93 1.400 . S
C91 C94 1.386 . S
C91 H103 0.930 . S
N92 C85 1.377 1_445 S
N92 C93 1.321 . S
N92 Eu95 2.609 1_545 S
C93 C91 1.400 . S
C93 N92 1.321 . S
C93 H100 0.930 . S
C94 C89 1.395 1_445 S
C94 C91 1.386 . S
C94 H113 0.930 . S
Eu95 N92 2.609 1_565 S
Eu95 N96 2.657 1_455 S
Eu95 O129 2.380 1_455 S
Eu95 O130 2.432 1_565 S
Eu95 O134 2.558 1_565 S
Eu95 O135 2.612 1_565 S
Eu95 O137 2.339 1_455 S
Eu95 O138 2.563 1_565 S
Eu95 O139 2.419 . S
Eu95 C159 2.848 . S
N96 C88 1.362 . S
N96 Eu95 2.657 1_655 S
N96 C97 1.334 . S
C97 N96 1.334 . S
C97 C99 1.413 . S
C97 H104 0.929 . S
C98 C86 1.392 . S
C98 C99 1.367 . S
C98 H106 0.930 . S
C99 C97 1.413 . S
C99 C98 1.367 . S
C99 H101 0.930 . S
H100 C93 0.930 . S
H101 C99 0.930 . S
H102 C90 0.930 . S
H103 C91 0.930 . S
H104 C97 0.929 . S
H105 C119 0.930 . S
H106 C98 0.930 . S
H107 C125 0.930 . S
H108 C116 0.929 . S
H109 C123 0.930 . S
H110 C87 0.931 . S
H111 C117 0.930 . S
H112 C150 0.930 . S
H113 C94 0.930 . S
H114 C149 0.931 . S
N115 Eu84 2.657 1_455 S
N115 C116 1.334 . S
N115 C120 1.362 . S
C116 H108 0.929 . S
C116 N115 1.334 . S
C116 C119 1.413 . S
C117 H111 0.930 . S
C117 C118 1.392 . S
C117 C119 1.367 . S
C118 C117 1.392 . S
C118 C120 1.420 . S
C118 C150 1.423 . S
C119 H105 0.930 . S
C119 C116 1.413 . S
C119 C117 1.367 . S
C120 N115 1.362 . S
C120 C118 1.420 . S
C120 C124 1.429 . S
H121 C126 0.930 . S
N122 Eu84 2.609 1_455 S
N122 C124 1.377 . S
N122 C125 1.321 1_445 S
C123 H109 0.930 . S
C123 C125 1.400 . S
C123 C126 1.386 1_665 S
C124 C120 1.429 . S
C124 N122 1.377 . S
C124 C127 1.411 . S
C125 H107 0.930 . S
C125 N122 1.321 1_665 S
C125 C123 1.400 . S
C126 H121 0.930 . S
C126 C123 1.386 1_445 S
C126 C127 1.395 . S
C127 C124 1.411 . S
C127 C126 1.395 . S
C127 C149 1.420 . S
O128 Eu84 2.558 . S
O128 C148 1.257 . S
O129 Eu84 2.612 1_565 S
O129 Eu95 2.380 1_655 S
O129 C140 1.276 . S
O130 Eu95 2.432 1_545 S
O130 C147 1.264 . S
O131 Eu84 2.339 1_455 S
O131 C147 1.254 . S
O132 Eu84 2.563 1_565 S
O132 C140 1.235 . S
O133 Eu84 2.419 . S
O133 C148 1.249 . S
O134 Eu95 2.558 1_545 S
O134 C159 1.257 1_545 S
O135 Eu84 2.380 1_455 S
O135 Eu95 2.612 1_545 S
O135 C151 1.276 . S
O136 Eu84 2.432 1_565 S
O136 C158 1.264 . S
O137 Eu95 2.339 1_655 S
O137 C158 1.254 . S
O138 Eu95 2.563 1_545 S
O138 C151 1.235 . S
O139 Eu95 2.419 . S
O139 C159 1.249 . S
C140 O129 1.276 . S
C140 O132 1.235 . S
C141 C143 1.393 . S
C141 C145 1.395 . S
C141 C148 1.492 . S
C142 C143 1.392 . S
C142 C144 1.386 . S
C143 C141 1.393 . S
C143 C142 1.392 . S
C143 H160 0.930 . S
C144 C142 1.386 . S
C144 C146 1.395 . S
C144 H161 0.930 . S
C145 C141 1.395 . S
C145 C146 1.379 . S
C145 H162 0.930 . S
C146 C144 1.395 . S
C146 C145 1.379 . S
C146 H163 0.930 . S
C147 O130 1.264 . S
C147 O131 1.254 . S
C148 Eu84 2.848 . S
C148 O128 1.257 . S
C148 O133 1.249 . S
C148 C141 1.492 . S
C149 H114 0.931 . S
C149 C127 1.420 . S
C149 C150 1.351 . S
C150 H112 0.930 . S
C150 C118 1.423 . S
C150 C149 1.351 . S
C151 O135 1.276 . S
C151 O138 1.235 . S
C152 C153 1.393 . S
C152 C156 1.395 . S
C152 C159 1.492 . S
C153 C152 1.393 . S
C153 C154 1.392 . S
C153 H164 0.930 . S
C154 C153 1.392 . S
C154 C155 1.386 . S
C155 C154 1.386 . S
C155 C157 1.395 . S
C155 H165 0.930 . S
C156 C152 1.395 . S
C156 C157 1.379 . S
C156 H166 0.930 1_565 S
C157 C155 1.395 . S
C157 C156 1.379 . S
C157 H167 0.930 . S
C158 O136 1.264 . S
C158 O137 1.254 . S
C159 Eu95 2.848 . S
C159 O134 1.257 1_565 S
C159 O139 1.249 . S
C159 C152 1.492 . S
H160 C143 0.930 . S
H161 C144 0.930 . S
H162 C145 0.930 . S
H163 C146 0.930 . S
H164 C153 0.930 . S
H165 C155 0.930 . S
H166 C156 0.930 1_545 S
H167 C157 0.930 . S
Zn168 O174 1.920 . S
Zn168 O180 1.898 . S
Zn168 O183 1.905 . S
Zn169 O177 1.905 . S
Zn169 O178 1.898 . S
Zn169 O186 1.920 . S
Zn170 O173 2.080 . S
Zn170 O176 2.114 . S
Zn170 O179 2.120 . S
Zn170 O181 2.120 . S
Zn170 O182 2.114 . S
Zn170 O185 2.080 . S
C171 O176 1.166 . S
C171 O177 1.182 . S
C172 O178 1.167 . S
C172 O179 1.299 . S
O173 Zn170 2.080 . S
O173 C187 1.305 . S
O174 Zn168 1.920 . S
O174 C187 1.234 . S
C175 O180 1.167 . S
C175 O181 1.299 . S
O176 Zn170 2.114 . S
O176 C171 1.166 . S
O177 Zn169 1.905 . S
O177 C171 1.182 . S
O178 Zn169 1.898 . S
O178 C172 1.167 . S
O179 Zn170 2.120 . S
O179 C172 1.299 . S
O180 Zn168 1.898 . S
O180 C175 1.167 . S
O181 Zn170 2.120 . S
O181 C175 1.299 . S
O182 Zn170 2.114 . S
O182 C184 1.166 . S
O183 Zn168 1.905 . S
O183 C184 1.182 . S
C184 O182 1.166 . S
C184 O183 1.182 . S
O185 Zn170 2.080 . S
O185 C188 1.305 . S
O186 Zn169 1.920 . S
O186 C188 1.234 . S
C187 O173 1.305 . S
C187 O174 1.234 . S
C188 O185 1.305 . S
C188 O186 1.234 . S
Zn189 O195 1.920 . S
Zn189 O201 1.898 . S
Zn189 O204 1.905 . S
Zn190 O198 1.905 . S
Zn190 O199 1.898 . S
Zn190 O207 1.920 . S
Zn191 O194 2.080 . S
Zn191 O197 2.114 . S
Zn191 O200 2.120 . S
Zn191 O202 2.120 . S
Zn191 O203 2.114 . S
Zn191 O206 2.080 . S
C192 O197 1.166 . S
C192 O198 1.182 . S
C193 O199 1.167 . S
C193 O200 1.299 . S
O194 Zn191 2.080 . S
O194 C208 1.305 . S
O195 Zn189 1.920 . S
O195 C208 1.234 . S
C196 O201 1.167 . S
C196 O202 1.299 . S
O197 Zn191 2.114 . S
O197 C192 1.166 . S
O198 Zn190 1.905 . S
O198 C192 1.182 . S
O199 Zn190 1.898 . S
O199 C193 1.167 . S
O200 Zn191 2.120 . S
O200 C193 1.299 . S
O201 Zn189 1.898 . S
O201 C196 1.167 . S
O202 Zn191 2.120 . S
O202 C196 1.299 . S
O203 Zn191 2.114 . S
O203 C205 1.166 . S
O204 Zn189 1.905 . S
O204 C205 1.182 . S
C205 O203 1.166 . S
C205 O204 1.182 . S
O206 Zn191 2.080 . S
O206 C209 1.305 . S
O207 Zn190 1.920 . S
O207 C209 1.234 . S
C208 O194 1.305 . S
C208 O195 1.234 . S
C209 O206 1.305 . S
C209 O207 1.234 . S
C210 C211 1.369 . S
C210 C212 1.419 . S
C210 H214 0.930 . S
C211 C210 1.369 . S
C211 C220 1.429 . S
C212 C210 1.419 . S
C212 C213 1.363 . S
C212 H215 0.929 . S
C213 C212 1.363 . S
C213 C219 1.428 . S
H214 C210 0.930 . S
H215 C212 0.929 . S
S216 N217 1.613 1_655 S
S216 N218 1.610 1_655 S
N217 S216 1.613 1_455 S
N217 C220 1.350 . S
N218 S216 1.610 1_455 S
N218 C219 1.351 . S
C219 C213 1.428 . S
C219 N218 1.351 . S
C219 C220 1.434 . S
C220 C211 1.429 . S
C220 N217 1.350 . S
C220 C219 1.434 . S
C221 C222 1.369 . S
C221 C223 1.419 . S
C221 H225 0.930 . S
C222 C221 1.369 . S
C222 C231 1.429 . S
C223 C221 1.419 . S
C223 C224 1.363 . S
C223 H226 0.929 . S
C224 C223 1.363 . S
C224 C230 1.428 . S
H225 C221 0.930 . S
H226 C223 0.929 . S
S227 N228 1.613 . S
S227 N229 1.610 . S
N228 S227 1.613 . S
N228 C231 1.350 1_565 S
N229 S227 1.610 . S
N229 C230 1.351 1_565 S
C230 C224 1.428 . S
C230 N229 1.351 1_545 S
C230 C231 1.434 . S
C231 C222 1.429 . S
C231 N228 1.350 1_545 S
C231 C230 1.434 . S
C232 C233 1.369 . S
C232 C234 1.419 . S
C232 H236 0.930 . S
C233 C232 1.369 . S
C233 C242 1.429 . S
C234 C232 1.419 . S
C234 C235 1.363 . S
C234 H237 0.929 . S
C235 C234 1.363 . S
C235 C241 1.428 . S
H236 C232 0.930 . S
H237 C234 0.929 . S
S238 N239 1.613 . S
S238 N240 1.610 . S
N239 S238 1.613 . S
N239 C242 1.350 . S
N240 S238 1.610 . S
N240 C241 1.351 . S
C241 C235 1.428 . S
C241 N240 1.351 . S
C241 C242 1.434 . S
C242 C233 1.429 . S
C242 N239 1.350 . S
C242 C241 1.434 . S
C243 C244 1.369 . S
C243 C245 1.419 . S
C243 H247 0.930 . S
C244 C243 1.369 . S
C244 C253 1.429 . S
C245 C243 1.419 . S
C245 C246 1.363 . S
C245 H248 0.929 . S
C246 C245 1.363 . S
C246 C252 1.428 . S
H247 C243 0.930 . S
H248 C245 0.929 . S
S249 N250 1.613 . S
S249 N251 1.610 . S
N250 S249 1.613 . S
N250 C253 1.350 . S
N251 S249 1.610 . S
N251 C252 1.351 . S
C252 C246 1.428 . S
C252 N251 1.351 . S
C252 C253 1.434 . S
C253 C244 1.429 . S
C253 N250 1.350 . S
C253 C252 1.434 . S
C254 C255 1.369 . S
C254 C256 1.419 . S
C254 H258 0.930 . S
C255 C254 1.369 . S
C255 C264 1.429 . S
C256 C254 1.419 . S
C256 C257 1.363 . S
C256 H259 0.929 . S
C257 C256 1.363 . S
C257 C263 1.428 . S
H258 C254 0.930 . S
H259 C256 0.929 . S
S260 N261 1.613 . S
S260 N262 1.610 . S
N261 S260 1.613 . S
N261 C264 1.350 1_545 S
N262 S260 1.610 . S
N262 C263 1.351 1_545 S
C263 C257 1.428 . S
C263 N262 1.351 1_565 S
C263 C264 1.434 . S
C264 C255 1.429 . S
C264 N261 1.350 1_565 S
C264 C263 1.434 . S
C265 C266 1.369 . S
C265 C267 1.419 . S
C265 H269 0.930 . S
C266 C265 1.369 . S
C266 C275 1.429 . S
C267 C265 1.419 . S
C267 C268 1.363 . S
C267 H270 0.929 . S
C268 C267 1.363 . S
C268 C274 1.428 . S
H269 C265 0.930 . S
H270 C267 0.929 . S
S271 N272 1.613 . S
S271 N273 1.610 . S
N272 S271 1.613 . S
N272 C275 1.350 . S
N273 S271 1.610 . S
N273 C274 1.351 . S
C274 C268 1.428 . S
C274 N273 1.351 . S
C274 C275 1.434 . S
C275 C266 1.429 . S
C275 N272 1.350 . S
C275 C274 1.434 . S
C276 C277 1.369 . S
C276 C278 1.419 . S
C276 H280 0.930 . S
C277 C276 1.369 . S
C277 C286 1.429 . S
C278 C276 1.419 . S
C278 C279 1.363 . S
C278 H281 0.929 . S
C279 C278 1.363 . S
C279 C285 1.428 . S
H280 C276 0.930 . S
H281 C278 0.929 . S
S282 N283 1.613 . S
S282 N284 1.610 . S
N283 S282 1.613 . S
N283 C286 1.350 . S
N284 S282 1.610 . S
N284 C285 1.351 . S
C285 C279 1.428 . S
C285 N284 1.351 . S
C285 C286 1.434 . S
C286 C277 1.429 . S
C286 N283 1.350 . S
C286 C285 1.434 . S
C287 C288 1.369 . S
C287 C289 1.419 . S
C287 H291 0.930 . S
C288 C287 1.369 . S
C288 C297 1.429 . S
C289 C287 1.419 . S
C289 C290 1.363 . S
C289 H292 0.929 . S
C290 C289 1.363 . S
C290 C296 1.428 . S
H291 C287 0.930 . S
H292 C289 0.929 . S
S293 N294 1.613 . S
S293 N295 1.610 . S
N294 S293 1.613 . S
N294 C297 1.350 . S
N295 S293 1.610 . S
N295 C296 1.351 . S
C296 C290 1.428 . S
C296 N295 1.351 . S
C296 C297 1.434 . S
C297 C288 1.429 . S
C297 N294 1.350 . S
C297 C296 1.434 . S
C298 C299 1.369 . S
C298 C300 1.419 . S
C298 H302 0.930 . S
C299 C298 1.369 . S
C299 C308 1.429 . S
C300 C298 1.419 . S
C300 C301 1.363 . S
C300 H303 0.929 . S
C301 C300 1.363 . S
C301 C307 1.428 . S
H302 C298 0.930 . S
H303 C300 0.929 . S
S304 N305 1.613 . S
S304 N306 1.610 . S
N305 S304 1.613 . S
N305 C308 1.350 . S
N306 S304 1.610 . S
N306 C307 1.351 . S
C307 C301 1.428 . S
C307 N306 1.351 . S
C307 C308 1.434 . S
C308 C299 1.429 . S
C308 N305 1.350 . S
C308 C307 1.434 . S
C309 C310 1.369 . S
C309 C311 1.419 . S
C309 H313 0.930 . S
C310 C309 1.369 . S
C310 C319 1.429 . S
C311 C309 1.419 . S
C311 C312 1.363 . S
C311 H314 0.929 . S
C312 C311 1.363 . S
C312 C318 1.428 . S
H313 C309 0.930 . S
H314 C311 0.929 . S
S315 N316 1.613 1_565 S
S315 N317 1.610 1_565 S
N316 S315 1.613 1_545 S
N316 C319 1.350 . S
N317 S315 1.610 1_545 S
N317 C318 1.351 . S
C318 C312 1.428 . S
C318 N317 1.351 . S
C318 C319 1.434 . S
C319 C310 1.429 . S
C319 N316 1.350 . S
C319 C318 1.434 . S
C320 C321 1.369 . S
C320 C322 1.419 . S
C320 H324 0.930 . S
C321 C320 1.369 . S
C321 C330 1.429 . S
C322 C320 1.419 . S
C322 C323 1.363 . S
C322 H325 0.929 . S
C323 C322 1.363 . S
C323 C329 1.428 . S
H324 C320 0.930 . S
H325 C322 0.929 . S
S326 N327 1.613 . S
S326 N328 1.610 . S
N327 S326 1.613 . S
N327 C330 1.350 . S
N328 S326 1.610 . S
N328 C329 1.351 . S
C329 C323 1.428 . S
C329 N328 1.351 . S
C329 C330 1.434 . S
C330 C321 1.429 . S
C330 N327 1.350 . S
C330 C329 1.434 . S
C331 C332 1.369 . S
C331 C333 1.419 . S
C331 H335 0.930 . S
C332 C331 1.369 . S
C332 C341 1.429 . S
C333 C331 1.419 . S
C333 C334 1.363 . S
C333 H336 0.929 . S
C334 C333 1.363 . S
C334 C340 1.428 . S
H335 C331 0.930 . S
H336 C333 0.929 . S
S337 N338 1.613 . S
S337 N339 1.610 . S
N338 S337 1.613 . S
N338 C341 1.350 1_455 S
N339 S337 1.610 . S
N339 C340 1.351 1_455 S
C340 C334 1.428 . S
C340 N339 1.351 1_655 S
C340 C341 1.434 . S
C341 C332 1.429 . S
C341 N338 1.350 1_655 S
C341 C340 1.434 . S
C211 C58 1.185 . S
C213 C187 1.295 . S
C222 C151 1.619 . S
C224 C193 1.466 . S
C233 C74 1.576 . S
C235 C184 1.494 . S
C244 C142 1.194 . S
C246 C209 1.290 . S
C255 C67 1.619 . S
C257 C175 1.466 . S
C268 C192 1.494 . S
C266 C158 1.578 . S
C277 C154 1.138 . S
C279 C188 1.302 . S
C290 C205 1.499 . S
C288 C56 1.632 . S
C301 C172 1.433 . S
C299 C147 1.623 . S
C312 C208 1.301 . S
C310 C70 1.139 . S
C323 C171 1.497 . S
C321 C140 1.631 . S
C334 C196 1.436 . S
C332 C63 1.626 . S
