# Generated by pormake.
# Topology ocu, (6,8)-cn, num edge types: 1
# Building blocks:
#     Node 0, Type 0, BuildingBlock: BETDEL_clean_sbu_0, # of connection points: 6
#     Node 1, Type 0, BuildingBlock: BETDEL_clean_sbu_0, # of connection points: 6
#     Node 2, Type 0, BuildingBlock: BETDEL_clean_sbu_0, # of connection points: 6
#     Node 3, Type 0, BuildingBlock: BETDEL_clean_sbu_0, # of connection points: 6
#     Node 4, Type 0, BuildingBlock: BETDEL_clean_sbu_0, # of connection points: 6
#     Node 5, Type 0, BuildingBlock: BETDEL_clean_sbu_0, # of connection points: 6
#     Node 6, Type 0, BuildingBlock: BETDEL_clean_sbu_0, # of connection points: 6
#     Node 7, Type 0, BuildingBlock: BETDEL_clean_sbu_0, # of connection points: 6
#     Node 8, Type 1, BuildingBlock: AJUNOK_clean_sbu_0, # of connection points: 8
#     Node 9, Type 1, BuildingBlock: AJUNOK_clean_sbu_0, # of connection points: 8
#     Node 10, Type 1, BuildingBlock: AJUNOK_clean_sbu_0, # of connection points: 8
#     Node 11, Type 1, BuildingBlock: AJUNOK_clean_sbu_0, # of connection points: 8
#     Node 12, Type 1, BuildingBlock: AJUNOK_clean_sbu_0, # of connection points: 8
#     Node 13, Type 1, BuildingBlock: AJUNOK_clean_sbu_0, # of connection points: 8
#     Edge 14, Type (0, 1), BuildingBlock: XIVTED_clean_linker_0, # of connection points: 2
#     Edge 15, Type (0, 1), BuildingBlock: XIVTED_clean_linker_0, # of connection points: 2
#     Edge 16, Type (0, 1), BuildingBlock: XIVTED_clean_linker_0, # of connection points: 2
#     Edge 17, Type (0, 1), BuildingBlock: XIVTED_clean_linker_0, # of connection points: 2
#     Edge 18, Type (0, 1), BuildingBlock: XIVTED_clean_linker_0, # of connection points: 2
#     Edge 19, Type (0, 1), BuildingBlock: XIVTED_clean_linker_0, # of connection points: 2
#     Edge 20, Type (0, 1), BuildingBlock: XIVTED_clean_linker_0, # of connection points: 2
#     Edge 21, Type (0, 1), BuildingBlock: XIVTED_clean_linker_0, # of connection points: 2
#     Edge 22, Type (0, 1), BuildingBlock: XIVTED_clean_linker_0, # of connection points: 2
#     Edge 23, Type (0, 1), BuildingBlock: XIVTED_clean_linker_0, # of connection points: 2
#     Edge 24, Type (0, 1), BuildingBlock: XIVTED_clean_linker_0, # of connection points: 2
#     Edge 25, Type (0, 1), BuildingBlock: XIVTED_clean_linker_0, # of connection points: 2
#     Edge 26, Type (0, 1), BuildingBlock: XIVTED_clean_linker_0, # of connection points: 2
#     Edge 27, Type (0, 1), BuildingBlock: XIVTED_clean_linker_0, # of connection points: 2
#     Edge 28, Type (0, 1), BuildingBlock: XIVTED_clean_linker_0, # of connection points: 2
#     Edge 29, Type (0, 1), BuildingBlock: XIVTED_clean_linker_0, # of connection points: 2
#     Edge 30, Type (0, 1), BuildingBlock: XIVTED_clean_linker_0, # of connection points: 2
#     Edge 31, Type (0, 1), BuildingBlock: XIVTED_clean_linker_0, # of connection points: 2
#     Edge 32, Type (0, 1), BuildingBlock: XIVTED_clean_linker_0, # of connection points: 2
#     Edge 33, Type (0, 1), BuildingBlock: XIVTED_clean_linker_0, # of connection points: 2
#     Edge 34, Type (0, 1), BuildingBlock: XIVTED_clean_linker_0, # of connection points: 2
#     Edge 35, Type (0, 1), BuildingBlock: XIVTED_clean_linker_0, # of connection points: 2
#     Edge 36, Type (0, 1), BuildingBlock: XIVTED_clean_linker_0, # of connection points: 2
#     Edge 37, Type (0, 1), BuildingBlock: XIVTED_clean_linker_0, # of connection points: 2
#     Edge 38, Type (0, 1), BuildingBlock: XIVTED_clean_linker_0, # of connection points: 2
#     Edge 39, Type (0, 1), BuildingBlock: XIVTED_clean_linker_0, # of connection points: 2
#     Edge 40, Type (0, 1), BuildingBlock: XIVTED_clean_linker_0, # of connection points: 2
#     Edge 41, Type (0, 1), BuildingBlock: XIVTED_clean_linker_0, # of connection points: 2
#     Edge 42, Type (0, 1), BuildingBlock: XIVTED_clean_linker_0, # of connection points: 2
#     Edge 43, Type (0, 1), BuildingBlock: XIVTED_clean_linker_0, # of connection points: 2
#     Edge 44, Type (0, 1), BuildingBlock: XIVTED_clean_linker_0, # of connection points: 2
#     Edge 45, Type (0, 1), BuildingBlock: XIVTED_clean_linker_0, # of connection points: 2
#     Edge 46, Type (0, 1), BuildingBlock: XIVTED_clean_linker_0, # of connection points: 2
#     Edge 47, Type (0, 1), BuildingBlock: XIVTED_clean_linker_0, # of connection points: 2
#     Edge 48, Type (0, 1), BuildingBlock: XIVTED_clean_linker_0, # of connection points: 2
#     Edge 49, Type (0, 1), BuildingBlock: XIVTED_clean_linker_0, # of connection points: 2
#     Edge 50, Type (0, 1), BuildingBlock: XIVTED_clean_linker_0, # of connection points: 2
#     Edge 51, Type (0, 1), BuildingBlock: XIVTED_clean_linker_0, # of connection points: 2
#     Edge 52, Type (0, 1), BuildingBlock: XIVTED_clean_linker_0, # of connection points: 2
#     Edge 53, Type (0, 1), BuildingBlock: XIVTED_clean_linker_0, # of connection points: 2
#     Edge 54, Type (0, 1), BuildingBlock: XIVTED_clean_linker_0, # of connection points: 2
#     Edge 55, Type (0, 1), BuildingBlock: XIVTED_clean_linker_0, # of connection points: 2
#     Edge 56, Type (0, 1), BuildingBlock: XIVTED_clean_linker_0, # of connection points: 2
#     Edge 57, Type (0, 1), BuildingBlock: XIVTED_clean_linker_0, # of connection points: 2
#     Edge 58, Type (0, 1), BuildingBlock: XIVTED_clean_linker_0, # of connection points: 2
#     Edge 59, Type (0, 1), BuildingBlock: XIVTED_clean_linker_0, # of connection points: 2
#     Edge 60, Type (0, 1), BuildingBlock: XIVTED_clean_linker_0, # of connection points: 2
#     Edge 61, Type (0, 1), BuildingBlock: XIVTED_clean_linker_0, # of connection points: 2
# Relax obj value: 0.128
# Max RMSD: 0.249
# Mean RMSD: 0.191
data_MOF--net-ocu--node1-BETDEL_clean_sbu_0--node2-AJUNOK_clean_sbu_0--edge1-XIVTED_clean_linker_0
_symmetry_space_group_name_H-M    P1
_symmetry_Int_Tables_number       1
_symmetry_cell_setting            triclinic
loop_
_symmetry_equiv_pos_as_xyz
'x, y, z'
_cell_length_a     42.036265
_cell_length_b     43.093855
_cell_length_c     35.16674
_cell_angle_alpha  97.880277
_cell_angle_beta   97.959952
_cell_angle_gamma 102.9294
loop_
_atom_site_label
_atom_site_type_symbol
_atom_site_fract_x
_atom_site_fract_y
_atom_site_fract_z
_atom_type_partial_charge
Dy0 Dy 0.26691 0.22472 0.27722 0.0
C1 C 0.19595 0.25057 0.13826 0.0
C2 C 0.29477 0.20076 0.33823 0.0
Dy3 Dy 0.22297 0.22555 0.19878 0.0
O4 O 0.30682 0.22881 0.32918 0.0
O5 O 0.26732 0.18637 0.31449 0.0
O6 O 0.30017 0.27277 0.27328 0.0
O7 O 0.27553 0.24014 0.22242 0.0
C8 C 0.29321 0.2683 0.23536 0.0
C9 C 0.1967 0.18185 0.24051 0.0
O10 O 0.2542 0.19404 0.17517 0.0
O11 O 0.27586 0.18391 0.23553 0.0
O12 O 0.18375 0.22215 0.14628 0.0
O13 O 0.2231 0.26466 0.16266 0.0
O14 O 0.18947 0.17755 0.2026 0.0
O15 O 0.2144 0.21001 0.25343 0.0
O16 O 0.23562 0.25604 0.30098 0.0
O17 O 0.21372 0.26609 0.24069 0.0
C18 C 0.27107 0.17801 0.19674 0.0
C19 C 0.2186 0.27198 0.27949 0.0
Dy20 Dy 0.77731 0.20684 0.24467 0.0
C21 C 0.67915 0.26836 0.18057 0.0
C22 C 0.82533 0.19119 0.29251 0.0
Dy23 Dy 0.72336 0.24271 0.22151 0.0
O24 O 0.81929 0.18272 0.25471 0.0
O25 O 0.80515 0.20782 0.30382 0.0
O26 O 0.75969 0.16969 0.18919 0.0
O27 O 0.72696 0.19302 0.21384 0.0
C28 C 0.73011 0.17482 0.18428 0.0
C29 C 0.76948 0.27246 0.28352 0.0
O30 O 0.69685 0.21411 0.2611 0.0
O31 O 0.74148 0.19421 0.28529 0.0
O32 O 0.70461 0.28483 0.20627 0.0
O33 O 0.67711 0.2376 0.178 0.0
O34 O 0.73911 0.2754 0.27997 0.0
O35 O 0.77383 0.25652 0.25276 0.0
O36 O 0.80346 0.23952 0.20923 0.0
O37 O 0.75589 0.2486 0.17567 0.0
C38 C 0.71098 0.19805 0.28535 0.0
C39 C 0.78805 0.24987 0.17994 0.0
Dy40 Dy 0.73246 0.73371 0.27459 0.0
C41 C 0.7768 0.68292 0.13654 0.0
C42 C 0.71451 0.76776 0.33644 0.0
Dy43 Dy 0.75817 0.71648 0.19816 0.0
O44 O 0.70067 0.7378 0.32084 0.0
O45 O 0.73887 0.77879 0.31898 0.0
O46 O 0.69968 0.68353 0.26513 0.0
O47 O 0.71048 0.70519 0.21695 0.0
C48 C 0.69671 0.67941 0.22736 0.0
C49 C 0.79296 0.77111 0.24516 0.0
O50 O 0.72095 0.7422 0.17429 0.0
O51 O 0.71431 0.76594 0.23528 0.0
O52 O 0.79102 0.71258 0.1531 0.0
O53 O 0.75164 0.67197 0.15284 0.0
O54 O 0.79003 0.76718 0.20739 0.0
O55 O 0.77985 0.74511 0.25553 0.0
O56 O 0.76992 0.7082 0.29843 0.0
O57 O 0.7767 0.68448 0.23755 0.0
C58 C 0.70965 0.7633 0.19663 0.0
C59 C 0.78152 0.68729 0.27621 0.0
Dy60 Dy 0.26986 0.69325 0.22613 0.0
C61 C 0.21133 0.78239 0.31347 0.0
C62 C 0.27964 0.64731 0.17119 0.0
Dy63 Dy 0.23542 0.74292 0.26397 0.0
O64 O 0.29123 0.65126 0.20827 0.0
O65 O 0.26314 0.66858 0.1642 0.0
O66 O 0.31524 0.70868 0.27299 0.0
O67 O 0.28637 0.74118 0.26121 0.0
C68 C 0.30912 0.73633 0.28519 0.0
C69 C 0.19864 0.69842 0.20392 0.0
O70 O 0.25726 0.77167 0.22167 0.0
O71 O 0.27384 0.73007 0.1862 0.0
O72 O 0.19608 0.75301 0.29714 0.0
O73 O 0.23963 0.79076 0.30201 0.0
O74 O 0.19466 0.72762 0.2108 0.0
O75 O 0.21957 0.69444 0.23063 0.0
O76 O 0.24434 0.66634 0.26759 0.0
O77 O 0.2425 0.71199 0.30938 0.0
C78 C 0.26936 0.75983 0.1915 0.0
C79 C 0.24021 0.68052 0.30181 0.0
Dy80 Dy 0.26744 0.71076 0.75346 0.0
C81 C 0.18716 0.77181 0.65755 0.0
C82 C 0.30439 0.68653 0.80613 0.0
Dy83 Dy 0.22277 0.7484 0.71232 0.0
O84 O 0.27626 0.67067 0.78477 0.0
O85 O 0.31277 0.71545 0.79819 0.0
O86 O 0.25422 0.67176 0.69974 0.0
O87 O 0.22024 0.69813 0.71458 0.0
C88 C 0.22547 0.67743 0.68903 0.0
C89 C 0.26309 0.78184 0.77749 0.0
O90 O 0.18883 0.72687 0.75022 0.0
O91 O 0.23055 0.71592 0.79313 0.0
O92 O 0.21509 0.78775 0.67928 0.0
O93 O 0.17794 0.74334 0.66661 0.0
O94 O 0.23436 0.78706 0.76548 0.0
O95 O 0.26975 0.76155 0.75237 0.0
O96 O 0.30121 0.73189 0.71527 0.0
O97 O 0.25931 0.74251 0.67255 0.0
C98 C 0.19952 0.71801 0.78333 0.0
C99 C 0.2903 0.74042 0.6821 0.0
Dy100 Dy 0.2358 0.23891 0.76935 0.0
C101 C 0.27941 0.18515 0.63186 0.0
C102 C 0.21933 0.27597 0.82973 0.0
Dy103 Dy 0.26203 0.22044 0.69302 0.0
O104 O 0.20441 0.24593 0.81548 0.0
O105 O 0.24394 0.28523 0.81189 0.0
O106 O 0.20196 0.18924 0.75998 0.0
O107 O 0.21435 0.21045 0.71182 0.0
C108 C 0.20002 0.18493 0.72228 0.0
C109 C 0.29829 0.27399 0.74119 0.0
O110 O 0.22579 0.2469 0.66853 0.0
O111 O 0.2185 0.27089 0.7291 0.0
O112 O 0.29397 0.21502 0.64725 0.0
O113 O 0.25468 0.17493 0.64915 0.0
O114 O 0.2964 0.2702 0.70352 0.0
O115 O 0.2834 0.24831 0.75069 0.0
O116 O 0.27168 0.21196 0.79372 0.0
O117 O 0.2793 0.1883 0.73308 0.0
C118 C 0.21437 0.26814 0.69047 0.0
C119 C 0.28329 0.19087 0.77173 0.0
Dy120 Dy 0.7526 0.2099 0.71518 0.0
C121 C 0.70496 0.30386 0.80677 0.0
C122 C 0.77662 0.17034 0.66578 0.0
Dy123 Dy 0.7168 0.25871 0.75241 0.0
O124 O 0.79174 0.19988 0.68161 0.0
O125 O 0.74852 0.16191 0.67765 0.0
O126 O 0.79342 0.22548 0.76821 0.0
O127 O 0.76752 0.25821 0.74921 0.0
C128 C 0.78864 0.25432 0.77582 0.0
C129 C 0.67883 0.21537 0.69243 0.0
O130 O 0.74367 0.28644 0.71243 0.0
O131 O 0.74609 0.24132 0.67018 0.0
O132 O 0.69469 0.30038 0.76943 0.0
O133 O 0.72127 0.28256 0.81431 0.0
O134 O 0.67211 0.24277 0.70438 0.0
O135 O 0.70139 0.21096 0.71702 0.0
O136 O 0.73074 0.18084 0.75716 0.0
O137 O 0.71303 0.22184 0.79224 0.0
C138 C 0.74862 0.2728 0.67833 0.0
C139 C 0.71806 0.19229 0.78701 0.0
Dy140 Dy 0.76575 0.7274 0.77647 0.0
C141 C 0.69457 0.74791 0.63414 0.0
C142 C 0.79264 0.70505 0.83933 0.0
Dy143 Dy 0.72167 0.72541 0.69681 0.0
O144 O 0.80523 0.73249 0.82913 0.0
O145 O 0.76525 0.69038 0.81563 0.0
O146 O 0.7978 0.7757 0.77161 0.0
O147 O 0.77403 0.74186 0.72125 0.0
C148 C 0.79096 0.77041 0.73362 0.0
C149 C 0.69645 0.68272 0.7402 0.0
O150 O 0.75324 0.69364 0.67484 0.0
O151 O 0.77766 0.68749 0.73615 0.0
O152 O 0.68139 0.72102 0.64517 0.0
O153 O 0.72266 0.76187 0.65684 0.0
O154 O 0.68943 0.67719 0.70221 0.0
O155 O 0.71346 0.71126 0.75207 0.0
O156 O 0.73363 0.75857 0.79822 0.0
O157 O 0.71097 0.76626 0.73696 0.0
C158 C 0.77215 0.67998 0.69739 0.0
C159 C 0.71583 0.77321 0.77574 0.0
Cd160 Cd 0.96046 0.9475 0.52855 0.0
Cd161 Cd 0.02982 0.00721 0.44989 0.0
C162 C 0.0208 0.91938 0.5529 0.0
N163 N -0.00263 0.91572 0.52084 0.0
C164 C 0.01904 0.87551 0.4867 0.0
C165 C 0.04408 0.87978 0.51918 0.0
C166 C 0.04479 0.90199 0.55248 0.0
C167 C -0.00414 0.89429 0.48799 0.0
H168 H 0.0206 0.93545 0.57921 0.0
H169 H 0.97657 0.89155 0.46311 0.0
C170 C 0.95957 0.95196 0.42447 0.0
C171 C 0.97189 0.04182 0.4627 0.0
C172 C 0.95525 0.06616 0.45961 0.0
C173 C 0.9735 0.09775 0.45969 0.0
C174 C 0.00824 0.10487 0.4678 0.0
C175 C 0.02386 0.07982 0.47119 0.0
N176 N 0.00544 0.04889 0.46657 0.0
H177 H 0.95791 0.01695 0.4585 0.0
H178 H 0.05051 0.08474 0.47406 0.0
C179 C 0.046 0.9396 0.43266 0.0
N180 N 0.05814 0.96791 0.458 0.0
C181 C 0.1066 0.95129 0.48159 0.0
C182 C 0.09526 0.92238 0.45437 0.0
C183 C 0.06416 0.91637 0.43042 0.0
C184 C 0.08744 0.97397 0.48292 0.0
H185 H 0.02295 0.9357 0.41272 0.0
H186 H 0.0966 -0.00304 0.50242 0.0
C187 C 0.02771 0.00357 0.55256 0.0
C188 C 0.91745 0.90914 0.56992 0.0
N189 N 0.93142 -0.01346 0.52147 0.0
C190 C 0.94388 0.01612 0.54415 0.0
C191 C 0.92497 0.03873 0.54573 0.0
C192 C 0.89271 0.03073 0.52409 0.0
C193 C 0.88098 0.00051 0.49945 0.0
C194 C 0.90094 -0.02144 0.49862 0.0
C195 C 0.07288 0.04144 0.40486 0.0
O196 O 0.96483 0.9546 0.46135 0.0
O197 O 0.98007 0.97027 0.40869 0.0
O198 O 0.02133 -0.00097 0.51556 0.0
O199 O 0.00739 -0.01297 0.57012 0.0
O200 O 0.91393 0.90198 0.53291 0.0
O201 O 0.94046 0.93367 0.5866 0.0
O202 O 0.08091 0.04538 0.44184 0.0
O203 O 0.04553 0.02141 0.38945 0.0
H204 H 0.96785 0.02178 0.5626 0.0
H205 H 0.89161 0.95467 0.48116 0.0
H206 H 0.01763 0.85815 0.46077 0.0
H207 H 0.06312 0.90511 0.57851 0.0
H208 H 0.9284 0.05966 0.45312 0.0
H209 H 0.02305 0.12902 0.46828 0.0
H210 H 0.13046 0.95673 0.50057 0.0
H211 H 0.05473 0.89473 0.40853 0.0
H212 H 0.93484 0.06143 0.56573 0.0
H213 H 0.85628 -0.0065 0.48219 0.0
Cd214 Cd 0.46874 0.951 0.03943 0.0
Cd215 Cd 0.51775 -0.00152 0.93501 0.0
C216 C 0.51306 0.91819 0.09642 0.0
N217 N 0.50993 0.92432 0.05937 0.0
C218 C 0.55325 0.89838 0.04681 0.0
C219 C 0.55699 0.89157 0.08501 0.0
C220 C 0.53637 0.90179 0.10982 0.0
C221 C 0.52948 0.91486 0.03456 0.0
H222 H 0.49722 0.92587 0.1156 0.0
H223 H 0.52657 0.92006 0.00521 0.0
C224 C 0.45305 0.94385 0.93528 0.0
C225 C 0.46267 0.01821 0.87563 0.0
C226 C 0.44001 0.03481 0.86097 0.0
C227 C 0.43301 0.0603 0.88535 0.0
C228 C 0.44871 0.06754 0.92472 0.0
C229 C 0.47102 0.05001 0.9383 0.0
N230 N 0.47773 0.02603 0.91365 0.0
H231 H 0.46849 -0.00086 0.85652 0.0
H232 H 0.4835 0.05597 0.96837 0.0
C233 C 0.5312 0.93741 0.88107 0.0
N234 N 0.54107 0.95505 0.91765 0.0
C235 C 0.58544 0.92919 0.92958 0.0
C236 C 0.57674 0.91158 0.89129 0.0
C237 C 0.5486 0.91534 0.86735 0.0
C238 C 0.56724 0.95096 0.94216 0.0
H239 H 0.51064 0.94149 0.86193 0.0
H240 H 0.57492 0.9657 0.97089 0.0
C241 C 0.53194 0.00892 0.04125 0.0
C242 C 0.41629 0.9085 0.06282 0.0
N243 N 0.44419 -0.00621 0.05619 0.0
C244 C 0.45309 0.01102 0.09303 0.0
C245 C 0.43536 0.03295 0.10621 0.0
C246 C 0.40782 0.03699 0.08146 0.0
C247 C 0.40002 0.01975 0.043 0.0
C248 C 0.41856 -0.00192 0.03096 0.0
C249 C 0.57003 0.04115 0.91166 0.0
O250 O 0.4677 0.9528 0.97037 0.0
O251 O 0.46632 0.95687 0.90921 0.0
O252 O 0.52036 -0.00144 0.00531 0.0
O253 O 0.51742 -0.0048 0.06613 0.0
O254 O 0.42134 0.90358 0.02784 0.0
O255 O 0.43607 0.93228 0.08612 0.0
O256 O 0.56419 0.04646 0.94622 0.0
O257 O 0.55104 0.01677 0.88852 0.0
H258 H 0.4732 0.00681 0.11277 0.0
H259 H 0.41159 -0.01636 0.00203 0.0
H260 H 0.56874 0.89137 0.0267 0.0
H261 H 0.53778 0.89672 0.13924 0.0
H262 H 0.42817 0.02768 0.83068 0.0
H263 H 0.44458 0.08713 0.94467 0.0
H264 H 0.60706 0.92742 0.94903 0.0
H265 H 0.54052 0.90195 0.83789 0.0
H266 H 0.44274 0.04605 0.13585 0.0
H267 H 0.37888 0.02175 0.02295 0.0
Cd268 Cd 0.97168 0.44884 0.01635 0.0
Cd269 Cd 0.01775 0.5093 0.93281 0.0
C270 C 0.042 0.4292 0.00821 0.0
N271 N 0.00944 0.41629 0.00855 0.0
C272 C 0.02001 0.36428 0.01173 0.0
C273 C 0.05412 0.37722 0.01344 0.0
C274 C 0.06479 0.41002 0.0104 0.0
C275 C -0.0019 0.38428 0.00922 0.0
H276 H 0.05066 0.45463 0.00779 0.0
H277 H 0.97218 0.37447 0.00968 0.0
C278 C 0.9604 0.44894 0.91435 0.0
C279 C 0.94678 0.52745 0.9171 0.0
C280 C 0.92351 0.54583 0.91952 0.0
C281 C 0.92946 0.57248 0.94968 0.0
C282 C 0.95825 0.57891 0.97799 0.0
C283 C 0.98061 0.55939 0.9749 0.0
N284 N 0.97487 0.53458 0.94436 0.0
H285 H 0.94304 0.50861 0.89216 0.0
H286 H 0.00327 0.56502 -0.00411 0.0
C287 C 0.0399 0.44151 0.90875 0.0
N288 N 0.05165 0.47204 0.92952 0.0
C289 C 0.10499 0.46161 0.94731 0.0
C290 C 0.09328 0.42987 0.92637 0.0
C291 C 0.06021 0.41997 0.90708 0.0
C292 C 0.0836 0.48232 0.94865 0.0
H293 H 0.0149 0.43362 0.89286 0.0
H294 H 0.0925 0.50669 0.96495 0.0
C295 C 0.0329 0.50941 0.03886 0.0
C296 C 0.92658 0.40328 0.04591 0.0
N297 N 0.94259 0.48981 0.02084 0.0
C298 C 0.95184 0.51455 0.05178 0.0
C299 C 0.93359 0.53781 0.05603 0.0
C300 C 0.90505 0.53536 0.02866 0.0
C301 C 0.89599 0.50956 -0.00302 0.0
C302 C 0.91533 0.48705 -0.00649 0.0
C303 C 0.05545 0.56102 0.90341 0.0
O304 O 0.97281 0.45712 0.95023 0.0
O305 O 0.97329 0.46614 0.89126 0.0
O306 O 0.02355 0.50503 0.00216 0.0
O307 O 0.01789 0.48931 0.05771 0.0
O308 O 0.92159 0.40545 0.00997 0.0
O309 O 0.95189 0.42272 0.06751 0.0
O310 O 0.06112 0.55862 0.93915 0.0
O311 O 0.03295 0.5387 0.88118 0.0
H312 H 0.97293 0.51594 0.07386 0.0
H313 H 0.90825 0.467 0.96936 0.0
H314 H 0.0104 0.33938 0.01455 0.0
H315 H 0.09066 0.42109 0.01088 0.0
H316 H 0.90207 0.54042 0.89652 0.0
H317 H 0.96386 0.59928 0.00166 0.0
H318 H 0.13029 0.47024 0.96276 0.0
H319 H 0.05027 0.39599 0.88989 0.0
H320 H 0.94114 0.55693 0.08129 0.0
H321 H 0.87426 0.50687 0.97512 0.0
Cd322 Cd 0.45338 0.44674 0.02301 0.0
Cd323 Cd 0.53453 0.50901 0.95482 0.0
C324 C 0.51847 0.4271 0.05083 0.0
N325 N 0.49157 0.41605 0.02208 0.0
C326 C 0.5098 0.36887 0.0013 0.0
C327 C 0.53755 0.37956 0.03135 0.0
C328 C 0.54193 0.4093 0.05588 0.0
C329 C 0.48685 0.38772 -0.00286 0.0
H330 H 0.52114 0.4492 0.07088 0.0
H331 H 0.4649 0.37936 0.97487 0.0
C332 C 0.47407 0.44503 0.92503 0.0
C333 C 0.46946 0.52853 0.92685 0.0
C334 C 0.44534 0.54566 0.92232 0.0
C335 C 0.44892 0.57487 0.94756 0.0
C336 C 0.47672 0.58585 0.97753 0.0
C337 C 0.50036 0.56769 0.98113 0.0
N338 N 0.49628 0.53974 0.95572 0.0
H339 H 0.46724 0.5067 0.90651 0.0
H340 H 0.52219 0.57621 0.00354 0.0
C341 C 0.56563 0.45275 0.97864 0.0
N342 N 0.57425 0.48542 0.98197 0.0
C343 C 0.63169 0.48627 -0.00841 0.0
C344 C 0.62338 0.45231 0.98336 0.0
C345 C 0.59004 0.43554 0.97968 0.0
C346 C 0.60645 0.50252 -0.00948 0.0
H347 H 0.5398 0.43987 0.97095 0.0
H348 H 0.6125 0.52849 -0.00752 0.0
C349 C 0.51384 0.50986 0.05106 0.0
C350 C 0.41345 0.4072 0.06641 0.0
N351 N 0.41358 0.47051 -0.0035 0.0
C352 C 0.42149 0.50326 0.00089 0.0
C353 C 0.39648 0.51975 -0.00035 0.0
C354 C 0.36327 0.50216 -0.0054 0.0
C355 C 0.35583 0.46827 -0.01459 0.0
C356 C 0.38165 0.45277 -0.01332 0.0
C357 C 0.57406 0.5469 0.91 0.0
O358 O 0.47372 0.45176 0.96126 0.0
O359 O 0.49723 0.46186 0.91127 0.0
O360 O 0.51236 0.50193 0.01464 0.0
O361 O 0.49133 0.49403 0.06664 0.0
O362 O 0.4122 0.39803 0.03006 0.0
O363 O 0.43289 0.43449 0.08186 0.0
O364 O 0.57563 0.55703 0.94622 0.0
O365 O 0.55439 0.51953 0.89544 0.0
H366 H 0.44712 0.51664 0.00942 0.0
H367 H 0.37616 0.42674 0.98378 0.0
H368 H 0.50555 0.34598 0.98192 0.0
H369 H 0.56243 0.41808 0.08008 0.0
H370 H 0.42478 0.53672 0.89821 0.0
H371 H 0.48033 0.60834 -0.00252 0.0
H372 H 0.65715 0.5 -0.00521 0.0
H373 H 0.5825 0.40939 0.97287 0.0
H374 H 0.40332 0.54588 0.00722 0.0
H375 H 0.3305 0.45394 0.9812 0.0
Cd376 Cd 0.96822 0.45217 0.53839 0.0
Cd377 Cd 0.02257 0.50008 0.43811 0.0
C378 C 0.01434 0.42112 0.5956 0.0
N379 N 0.00975 0.42586 0.55801 0.0
C380 C 0.05286 0.39987 0.54468 0.0
C381 C 0.05817 0.39456 0.58344 0.0
C382 C 0.03836 0.40545 0.60891 0.0
C383 C 0.02843 0.41566 0.53254 0.0
H384 H -0.00078 0.42945 0.61531 0.0
H385 H 0.02438 0.41982 0.5028 0.0
C386 C 0.95974 0.44159 0.4331 0.0
C387 C 0.96093 0.53513 0.43741 0.0
C388 C 0.93758 0.55158 0.42379 0.0
C389 C 0.93693 0.5606 0.38672 0.0
C390 C 0.9603 0.55265 0.36447 0.0
C391 C 0.98305 0.53609 0.37914 0.0
N392 N 0.98301 0.52766 0.41501 0.0
H393 H 0.96147 0.52827 0.46589 0.0
H394 H 0.00089 0.53005 0.36187 0.0
C395 C 0.03887 0.44115 0.38367 0.0
N396 N 0.04651 0.45676 0.42131 0.0
C397 C 0.08898 0.42882 0.43492 0.0
C398 C 0.08255 0.41332 0.39573 0.0
C399 C 0.0564 0.41912 0.37034 0.0
C400 C 0.07064 0.45065 0.44711 0.0
H401 H 0.02 0.44682 0.3635 0.0
H402 H 0.07665 0.46378 0.47672 0.0
C403 C 0.03089 0.51004 0.5429 0.0
C404 C 0.91484 0.4098 0.56036 0.0
N405 N 0.94399 0.49517 0.55531 0.0
C406 C 0.94822 0.50734 0.59392 0.0
C407 C 0.93084 0.52955 0.60712 0.0
C408 C 0.90886 0.53973 0.58039 0.0
C409 C 0.90574 0.52735 0.54044 0.0
C410 C 0.92339 0.50479 0.52853 0.0
C411 C 0.0786 0.54148 0.42026 0.0
O412 O 0.96944 0.45291 0.46912 0.0
O413 O 0.975 0.45538 0.40884 0.0
O414 O 0.02032 0.49859 0.50704 0.0
O415 O 0.0156 0.49712 0.56772 0.0
O416 O 0.91901 0.40642 0.525 0.0
O417 O 0.93628 0.43148 0.58476 0.0
O418 O 0.07139 0.54617 0.45423 0.0
O419 O 0.05896 0.51887 0.39518 0.0
H420 H 0.9642 0.49878 0.61471 0.0
H421 H 0.91992 0.49424 0.49805 0.0
H422 H 0.06769 0.39231 0.52404 0.0
H423 H 0.041 0.40152 0.63882 0.0
H424 H 0.91995 0.55676 0.44195 0.0
H425 H 0.96137 0.5595 0.3361 0.0
H426 H 0.109 0.42539 0.45554 0.0
H427 H 0.05001 0.40736 0.3401 0.0
H428 H 0.93372 0.53758 0.63821 0.0
H429 H 0.88953 0.53462 0.51856 0.0
Cd430 Cd 0.47157 0.94606 0.52955 0.0
Cd431 Cd 0.52087 0.00276 0.44617 0.0
C432 C 0.54261 0.92904 0.54971 0.0
N433 N 0.51487 0.92094 0.52187 0.0
C434 C 0.53184 0.87556 0.49156 0.0
C435 C 0.56013 0.88269 0.52076 0.0
C436 C 0.56576 0.91033 0.54953 0.0
C437 C 0.5094 0.8951 0.49271 0.0
H438 H 0.54606 0.94903 0.57329 0.0
H439 H 0.48676 0.88869 0.47147 0.0
C440 C 0.46534 0.94054 0.42529 0.0
C441 C 0.45006 0.02011 0.42075 0.0
C442 C 0.4264 0.03828 0.42024 0.0
C443 C 0.43097 0.06564 0.4491 0.0
C444 C 0.45885 0.07321 0.47891 0.0
C445 C 0.48171 0.05407 0.47859 0.0
N446 N 0.47723 0.0284 0.44945 0.0
H447 H 0.44727 0.00023 0.39725 0.0
H448 H 0.50376 0.06047 0.50076 0.0
C449 C 0.54781 0.94133 0.41537 0.0
N450 N 0.55357 0.96459 0.44759 0.0
C451 C 0.59809 0.94425 0.47659 0.0
C452 C 0.59192 0.91953 0.44398 0.0
C453 C 0.5663 0.91824 0.41325 0.0
C454 C 0.57823 0.96647 0.478 0.0
H455 H 0.52927 0.94094 0.39071 0.0
H456 H 0.58275 -0.01462 0.50314 0.0
C457 C 0.52648 0.00908 0.55084 0.0
C458 C 0.43292 0.89477 0.55824 0.0
N459 N 0.43874 -0.016 0.53016 0.0
C460 C 0.44338 0.00613 0.56325 0.0
C461 C 0.42565 0.0299 0.56502 0.0
C462 C 0.40203 0.03039 0.53292 0.0
C463 C 0.39684 0.0067 0.4995 0.0
C464 C 0.41592 -0.01616 0.49854 0.0
C465 C 0.56323 0.05063 0.41656 0.0
O466 O 0.47299 0.95061 0.46174 0.0
O467 O 0.4794 0.95815 0.40333 0.0
O468 O 0.51946 -0.00099 0.51434 0.0
O469 O 0.51221 -0.00872 0.57251 0.0
O470 O 0.42676 0.89768 0.52267 0.0
O471 O 0.45606 0.9165 0.58041 0.0
O472 O 0.56187 0.05403 0.4527 0.0
O473 O 0.54512 0.02508 0.39476 0.0
H474 H 0.46076 0.00533 0.58854 0.0
H475 H 0.41248 0.966 0.47257 0.0
H476 H 0.52657 0.85454 0.4688 0.0
H477 H 0.58688 0.91644 0.57302 0.0
H478 H 0.40561 0.03191 0.39631 0.0
H479 H 0.46329 0.09408 0.50171 0.0
H480 H 0.61777 0.94615 0.50082 0.0
H481 H 0.56128 0.90012 0.38714 0.0
H482 H 0.42985 0.04733 0.59164 0.0
H483 H 0.37869 0.00625 0.47424 0.0
H484 H 0.20401 0.19178 0.32002 0.0
H485 H 0.06533 0.03236 0.32536 0.0
H486 H 0.15334 0.12226 0.21736 0.0
H487 H 0.12721 0.09316 0.42899 0.0
H488 H 0.09724 0.06501 0.28549 0.0
H489 H 0.17633 0.15622 0.36047 0.0
C490 C 0.18724 0.16888 0.306 0.0
C491 C 0.18103 0.15989 0.26525 0.0
C492 C 0.10401 0.07115 0.31693 0.0
C493 C 0.14882 0.11922 0.3114 0.0
C494 C 0.08576 0.05251 0.33977 0.0
C495 C 0.09353 0.06005 0.38065 0.0
C496 C 0.13013 0.09783 0.33498 0.0
C497 C 0.12035 0.08642 0.39761 0.0
C498 C 0.17139 0.1486 0.32913 0.0
C499 C 0.15882 0.13011 0.24866 0.0
N500 N 0.13753 0.10448 0.37471 0.0
N501 N 0.1434 0.11093 0.27176 0.0
H502 H 0.87744 0.16732 0.27492 0.0
H503 H 0.91696 0.11402 0.47666 0.0
H504 H 0.83036 0.19583 0.37088 0.0
H505 H 0.99061 0.13175 0.40298 0.0
H506 H 0.88358 0.14261 0.43853 0.0
H507 H 0.91804 0.15155 0.32063 0.0
C508 C 0.8758 0.17033 0.30562 0.0
C509 C 0.8506 0.18262 0.3193 0.0
C510 C 0.90742 0.14085 0.43133 0.0
C511 C 0.8964 0.16462 0.37134 0.0
C512 C 0.92644 0.12464 0.45314 0.0
C513 C 0.95657 0.12067 0.44311 0.0
C514 C 0.91831 0.15233 0.39871 0.0
C515 C 0.96768 0.1346 0.412 0.0
C516 C 0.89901 0.16159 0.33167 0.0
C517 C 0.84948 0.18631 0.3593 0.0
N518 N 0.94824 0.14931 0.3904 0.0
N519 N 0.87184 0.17692 0.38395 0.0
H520 H 0.8248 0.82801 0.22697 0.0
H521 H 0.91523 0.9036 0.44679 0.0
H522 H 0.80807 0.77965 0.32462 0.0
H523 H 0.93902 0.94509 0.34614 0.0
H524 H 0.871 0.86121 0.40398 0.0
H525 H 0.86194 0.87442 0.27173 0.0
C526 C 0.82883 0.82729 0.25791 0.0
C527 C 0.81361 0.79998 0.27217 0.0
C528 C 0.8858 0.87974 0.39137 0.0
C529 C 0.85607 0.85284 0.32358 0.0
C530 C 0.91097 0.90396 0.41578 0.0
C531 C 0.93102 0.92773 0.39995 0.0
C532 C 0.88063 0.87944 0.35094 0.0
C533 C 0.92437 0.92709 0.35959 0.0
C534 C 0.85003 0.85375 0.28346 0.0
C535 C 0.81946 0.80029 0.31249 0.0
N536 N 0.89988 0.90327 0.33651 0.0
N537 N 0.84041 0.82626 0.33683 0.0
H538 H 0.23898 0.84512 0.3494 0.0
H539 H 0.07809 0.85625 0.44079 0.0
H540 H 0.15476 0.76482 0.34234 0.0
H541 H 0.16121 0.93808 0.44971 0.0
H542 H 0.11053 0.82074 0.41507 0.0
H543 H 0.21511 0.87821 0.3946 0.0
C544 C 0.21556 0.83449 0.35754 0.0
C545 C 0.19847 0.80248 0.34178 0.0
C546 C 0.12194 0.8464 0.42318 0.0
C547 C 0.17128 0.83977 0.39339 0.0
C548 C 0.10343 0.86668 0.43803 0.0
C549 C 0.11685 0.9002 0.44707 0.0
C550 C 0.15389 0.85979 0.41644 0.0
C551 C 0.1499 0.91236 0.44316 0.0
C552 C 0.20203 0.85326 0.38341 0.0
C553 C 0.16846 0.78959 0.35346 0.0
N554 N 0.16713 0.89221 0.4274 0.0
N555 N 0.1557 0.80835 0.37833 0.0
H556 H 0.2084 0.82751 0.63071 0.0
H557 H 0.03186 0.81395 0.50602 0.0
H558 H 0.12629 0.74346 0.6128 0.0
H559 H 0.11103 0.90079 0.53758 0.0
H560 H 0.07083 0.78279 0.52831 0.0
H561 H 0.17761 0.8496 0.58162 0.0
C562 C 0.18386 0.81368 0.61626 0.0
C563 C 0.16943 0.78406 0.6263 0.0
C564 C 0.07985 0.80854 0.5294 0.0
C565 C 0.13404 0.80909 0.57022 0.0
C566 C 0.05771 0.82621 0.51639 0.0
C567 C 0.06832 0.85991 0.52077 0.0
C568 C 0.11255 0.8249 0.54679 0.0
C569 C 0.10192 0.87484 0.53445 0.0
C570 C 0.16637 0.82617 0.58809 0.0
C571 C 0.13794 0.76671 0.60624 0.0
N572 N 0.12276 0.85729 0.54756 0.0
N573 N 0.121 0.77974 0.57947 0.0
H574 H 0.1853 0.17625 0.64266 0.0
H575 H 0.05252 0.00889 0.62915 0.0
H576 H 0.16698 0.12869 0.74055 0.0
H577 H 0.0701 0.05258 0.52821 0.0
H578 H 0.0981 0.05065 0.66885 0.0
H579 H 0.14696 0.12964 0.59895 0.0
C580 C 0.17341 0.15585 0.65487 0.0
C581 C 0.17901 0.1563 0.69524 0.0
C582 C 0.0922 0.05118 0.63802 0.0
C583 C 0.13522 0.10319 0.64565 0.0
C584 C 0.06607 0.02732 0.61528 0.0
C585 C 0.05718 0.02758 0.57542 0.0
C586 C 0.10956 0.07583 0.62099 0.0
C587 C 0.07598 0.05174 0.55894 0.0
C588 C 0.15154 0.12931 0.62995 0.0
C589 C 0.1631 0.12937 0.70962 0.0
N590 N 0.10116 0.07519 0.58194 0.0
N591 N 0.14178 0.10401 0.68488 0.0
H592 H 0.74929 0.10725 0.6313 0.0
H593 H 0.90793 0.09676 0.53467 0.0
H594 H 0.83257 0.18787 0.63567 0.0
H595 H 0.82756 0.01394 0.5325 0.0
H596 H 0.87532 0.13192 0.56076 0.0
H597 H 0.77286 0.07389 0.58609 0.0
C598 C 0.77245 0.11789 0.62257 0.0
C599 C 0.78936 0.15009 0.63755 0.0
C600 C 0.86451 0.10609 0.55396 0.0
C601 C 0.81618 0.11248 0.58591 0.0
C602 C 0.88308 0.08602 0.53877 0.0
C603 C 0.87056 0.05236 0.53152 0.0
C604 C 0.83336 0.0924 0.56267 0.0
C605 C 0.83818 0.03976 0.53752 0.0
C606 C 0.7858 0.09896 0.5967 0.0
C607 C 0.81901 0.16297 0.62513 0.0
N608 N 0.82089 0.05977 0.55343 0.0
N609 N 0.8316 0.14406 0.60024 0.0
H610 H 0.78719 0.75747 0.65461 0.0
H611 H 0.91745 0.92261 0.64797 0.0
H612 H 0.83116 0.83159 0.75528 0.0
H613 H 0.8697 0.85175 0.54525 0.0
H614 H 0.88478 0.8901 0.68708 0.0
H615 H 0.81558 0.79203 0.61365 0.0
C616 C 0.80262 0.78117 0.66805 0.0
C617 C 0.80679 0.79175 0.70841 0.0
C618 C 0.88128 0.88164 0.65599 0.0
C619 C 0.83973 0.83128 0.66174 0.0
C620 C 0.89999 0.90021 0.63356 0.0
C621 C 0.89644 0.88985 0.59321 0.0
C622 C 0.85883 0.85227 0.63814 0.0
C623 C 0.87329 0.86065 0.57625 0.0
C624 C 0.8189 0.80084 0.64464 0.0
C625 C 0.82729 0.8225 0.7243 0.0
N626 N 0.85548 0.8428 0.59883 0.0
N627 N 0.84309 0.84113 0.70096 0.0
H628 H 0.30063 0.13571 0.23037 0.0
H629 H 0.37618 0.07705 0.04385 0.0
H630 H 0.28081 0.16761 0.12033 0.0
H631 H 0.38969 0.04322 0.15355 0.0
H632 H 0.34059 0.10966 0.06994 0.0
H633 H 0.33239 0.101 0.20138 0.0
C634 C 0.30277 0.13533 0.19997 0.0
C635 C 0.28801 0.15481 0.17786 0.0
C636 C 0.35139 0.09509 0.08824 0.0
C637 C 0.32488 0.11491 0.14428 0.0
C638 C 0.37166 0.07636 0.07334 0.0
C639 C 0.38633 0.05746 0.09657 0.0
C640 C 0.34563 0.0949 0.12666 0.0
C641 C 0.37966 0.05785 0.1347 0.0
C642 C 0.32102 0.11543 0.18339 0.0
C643 C 0.29166 0.153 0.13852 0.0
N644 N 0.35993 0.07621 0.14844 0.0
N645 N 0.30989 0.13357 0.12305 0.0
H646 H 0.85526 0.26375 0.18563 0.0
H647 H 0.86388 0.36665 0.01366 0.0
H648 H 0.76674 0.2751 0.11615 0.0
H649 H 0.94096 0.38264 0.11421 0.0
H650 H 0.82936 0.32486 0.0419 0.0
H651 H 0.88873 0.29813 0.14909 0.0
C652 C 0.84279 0.27313 0.16238 0.0
C653 C 0.8081 0.26689 0.15431 0.0
C654 C 0.85388 0.33758 0.05758 0.0
C655 C 0.84644 0.30639 0.11249 0.0
C656 C 0.87351 0.36132 0.04157 0.0
C657 C 0.90514 0.37823 0.06186 0.0
C658 C 0.86639 0.33045 0.0936 0.0
C659 C 0.91658 0.37041 0.0978 0.0
C660 C 0.86197 0.29289 0.14167 0.0
C661 C 0.79343 0.27958 0.12361 0.0
N662 N 0.89726 0.34702 0.11245 0.0
N663 N 0.81272 0.29898 0.10389 0.0
H664 H 0.69107 0.81478 0.2333 0.0
H665 H 0.57592 0.84082 0.04476 0.0
H666 H 0.6824 0.75877 0.11909 0.0
H667 H 0.59534 0.90179 0.15773 0.0
H668 H 0.61499 0.81085 0.07008 0.0
H669 H 0.65614 0.84674 0.20509 0.0
C670 C 0.68191 0.80918 0.20218 0.0
C671 C 0.68973 0.78383 0.17863 0.0
C672 C 0.61074 0.83086 0.08924 0.0
C673 C 0.64918 0.82067 0.14588 0.0
C674 C 0.58853 0.84815 0.07475 0.0
C675 C 0.58193 0.87385 0.09915 0.0
C676 C 0.62654 0.83924 0.12847 0.0
C677 C 0.59891 0.88183 0.13791 0.0
C678 C 0.6619 0.82757 0.18603 0.0
C679 C 0.67712 0.77805 0.13842 0.0
N680 N 0.62019 0.86458 0.15128 0.0
N681 N 0.65732 0.79618 0.12336 0.0
H682 H 0.1509 0.7006 0.14303 0.0
H683 H 0.07006 0.51401 0.11 0.0
H684 H 0.19825 0.63503 0.19793 0.0
H685 H 0.0591 0.5663 0.01479 0.0
H686 H 0.11334 0.56027 0.14635 0.0
H687 H 0.11303 0.65382 0.09821 0.0
C688 C 0.15345 0.67645 0.14542 0.0
C689 C 0.17739 0.67155 0.17439 0.0
C690 C 0.10158 0.56155 0.11738 0.0
C691 C 0.13435 0.61849 0.12409 0.0
C692 C 0.0768 0.53523 0.09668 0.0
C693 C 0.06073 0.53647 0.05945 0.0
C694 C 0.10987 0.58963 0.10115 0.0
C695 C 0.07069 0.56449 0.0435 0.0
C696 C 0.13202 0.6499 0.11987 0.0
C697 C 0.17992 0.63986 0.17624 0.0
N698 N 0.09434 0.59028 0.06471 0.0
N699 N 0.15835 0.61451 0.15183 0.0
H700 H 0.32527 0.77613 0.80371 0.0
H701 H 0.39564 0.95362 0.90037 0.0
H702 H 0.25769 0.83612 0.82378 0.0
H703 H 0.43857 0.88073 0.9439 0.0
H704 H 0.34493 0.91189 0.87081 0.0
H705 H 0.36795 0.81395 0.85337 0.0
C706 C 0.31917 0.79684 0.81922 0.0
C707 C 0.28788 0.80289 0.80987 0.0
C708 C 0.36513 0.90513 0.88761 0.0
C709 C 0.33686 0.84679 0.86554 0.0
C710 C 0.39394 0.92884 0.90434 0.0
C711 C 0.42092 0.9203 0.92444 0.0
C712 C 0.36399 0.87266 0.88987 0.0
C713 C 0.41799 0.88802 0.92868 0.0
C714 C 0.34354 0.81844 0.84749 0.0
C715 C 0.28157 0.83062 0.83014 0.0
N716 N 0.3902 0.86508 0.91067 0.0
N717 N 0.30611 0.85197 0.85654 0.0
H718 H 0.24482 0.34072 0.85529 0.0
H719 H 0.07936 0.36512 0.93037 0.0
H720 H 0.16286 0.26198 0.86127 0.0
H721 H 0.1577 0.44337 0.91421 0.0
H722 H 0.11349 0.32738 0.91582 0.0
H723 H 0.21747 0.37869 0.88767 0.0
C724 C 0.22132 0.33137 0.86408 0.0
C725 C 0.20595 0.29819 0.85534 0.0
C726 C 0.12335 0.35284 0.91577 0.0
C727 C 0.17424 0.34155 0.89197 0.0
C728 C 0.10383 0.3744 0.92397 0.0
C729 C 0.11545 0.40744 0.92289 0.0
C730 C 0.15474 0.36428 0.90619 0.0
C731 C 0.14768 0.41816 0.91536 0.0
C732 C 0.20563 0.35308 0.88241 0.0
C733 C 0.17551 0.2874 0.86735 0.0
N734 N 0.166 0.39661 0.90684 0.0
N735 N 0.16048 0.30904 0.88466 0.0
H736 H 0.69732 0.20744 0.85619 0.0
H737 H 0.59658 0.02754 0.84707 0.0
H738 H 0.70819 0.12649 0.77628 0.0
H739 H 0.60604 0.10236 0.94602 0.0
H740 H 0.63942 0.06338 0.82249 0.0
H741 H 0.66669 0.16965 0.89197 0.0
C742 C 0.69371 0.18173 0.84648 0.0
C743 C 0.70491 0.1701 0.8128 0.0
C744 C 0.63243 0.07194 0.84978 0.0
C745 C 0.66957 0.12681 0.85339 0.0
C746 C 0.60781 0.05154 0.86372 0.0
C747 C 0.59748 0.0622 0.89836 0.0
C748 C 0.64652 0.10346 0.87028 0.0
C749 C 0.61317 0.09334 0.91901 0.0
C750 C 0.67625 0.16018 0.86698 0.0
C751 C 0.69981 0.13657 0.80187 0.0
N752 N 0.63665 0.1131 0.90436 0.0
N753 N 0.68205 0.11611 0.82175 0.0
H754 H 0.76837 0.64788 0.86226 0.0
H755 H 0.9474 0.63868 0.96188 0.0
H756 H 0.85549 0.72705 0.88186 0.0
H757 H 0.86146 0.55782 0.93425 0.0
H758 H 0.91177 0.6746 0.94644 0.0
H759 H 0.79953 0.61821 0.90134 0.0
C760 C 0.79395 0.65924 0.87538 0.0
C761 C 0.80955 0.68977 0.86846 0.0
C762 C 0.9006 0.64908 0.94434 0.0
C763 C 0.84553 0.6558 0.91283 0.0
C764 C 0.92092 0.62857 0.95346 0.0
C765 C 0.90746 0.59509 0.94856 0.0
C766 C 0.8666 0.63602 0.93017 0.0
C767 C 0.87297 0.58337 0.93743 0.0
C768 C 0.81177 0.64226 0.89764 0.0
C769 C 0.84264 0.70345 0.88631 0.0
N770 N 0.85381 0.60372 0.92809 0.0
N771 N 0.8597 0.68617 0.90723 0.0
H772 H 0.21727 0.31187 0.12503 0.0
H773 H 0.04712 0.3116 -0.00945 0.0
H774 H 0.13574 0.22717 0.08939 0.0
H775 H 0.11693 0.39754 0.05718 0.0
H776 H 0.08414 0.27918 0.01409 0.0
H777 H 0.18574 0.34195 0.08705 0.0
C778 C 0.19289 0.29946 0.1087 0.0
C779 C 0.17894 0.26707 0.11062 0.0
C780 C 0.09141 0.30519 0.02312 0.0
C781 C 0.14262 0.30143 0.06722 0.0
C782 C 0.07022 0.32378 0.00988 0.0
C783 C 0.07845 0.3575 0.02229 0.0
C784 C 0.12127 0.32038 0.04865 0.0
C785 C 0.10934 0.37179 0.04643 0.0
C786 C 0.17486 0.31669 0.08715 0.0
C787 C 0.1473 0.25217 0.0888 0.0
N788 N 0.12941 0.35317 0.05898 0.0
N789 N 0.13005 0.26955 0.06822 0.0
H790 H 0.21192 0.70873 0.85874 0.0
H791 H 0.04208 0.57762 0.8318 0.0
H792 H 0.13231 0.69603 0.76176 0.0
H793 H 0.11033 0.6077 0.94125 0.0
H794 H 0.07371 0.62283 0.80692 0.0
H795 H 0.17379 0.67512 0.89179 0.0
C796 C 0.18623 0.69943 0.84476 0.0
C797 C 0.17535 0.7048 0.80723 0.0
C798 C 0.08161 0.61974 0.83651 0.0
C799 C 0.13183 0.6658 0.84448 0.0
C800 C 0.06371 0.59379 0.85062 0.0
C801 C 0.07387 0.58871 0.88846 0.0
C802 C 0.11011 0.64051 0.86025 0.0
C803 C 0.10182 0.61061 0.91176 0.0
C804 C 0.16449 0.68018 0.86361 0.0
C805 C 0.14178 0.69239 0.7906 0.0
N806 N 0.11921 0.63538 0.89712 0.0
N807 N 0.12132 0.67292 0.80904 0.0
H808 H 0.2971 0.18542 0.8496 0.0
H809 H 0.42517 0.07681 0.81239 0.0
H810 H 0.31643 0.15072 0.73605 0.0
H811 H 0.38938 0.0888 0.92151 0.0
H812 H 0.38791 0.10732 0.78593 0.0
H813 H 0.33294 0.15359 0.87837 0.0
C814 C 0.3087 0.1711 0.83068 0.0
C815 C 0.30363 0.17089 0.79026 0.0
C816 C 0.38806 0.10323 0.81565 0.0
C817 C 0.34492 0.13469 0.82308 0.0
C818 C 0.40928 0.08551 0.83082 0.0
C819 C 0.4104 0.07966 0.8693 0.0
C820 C 0.36777 0.11575 0.83902 0.0
C821 C 0.38974 0.09276 0.89184 0.0
C822 C 0.32915 0.15293 0.84715 0.0
C823 C 0.31942 0.15181 0.76731 0.0
N824 N 0.36934 0.11017 0.8764 0.0
N825 N 0.33935 0.13473 0.78401 0.0
H826 H 0.84336 0.25448 0.829 0.0
H827 H 0.9106 0.44296 0.85411 0.0
H828 H 0.78377 0.31636 0.78694 0.0
H829 H 0.94651 0.39136 0.94071 0.0
H830 H 0.86563 0.39515 0.82645 0.0
H831 H 0.88313 0.30257 0.86907 0.0
C832 C 0.83845 0.27807 0.82863 0.0
C833 C 0.8106 0.2816 0.80426 0.0
C834 C 0.8831 0.39433 0.85178 0.0
C835 C 0.85575 0.33622 0.8492 0.0
C836 C 0.9088 0.42152 0.86739 0.0
C837 C 0.93209 0.42092 0.89964 0.0
C838 C 0.88115 0.36605 0.86792 0.0
C839 C 0.92873 0.39267 0.91596 0.0
C840 C 0.86104 0.3054 0.85145 0.0
C841 C 0.80519 0.31261 0.8049 0.0
N842 N 0.90392 0.36603 0.89953 0.0
N843 N 0.82781 0.33874 0.82651 0.0
H844 H 0.68221 0.812 0.7402 0.0
H845 H 0.61009 0.87266 0.92866 0.0
H846 H 0.70798 0.78572 0.85248 0.0
H847 H 0.59253 0.90413 0.81795 0.0
H848 H 0.64581 0.8406 0.90199 0.0
H849 H 0.64934 0.84583 0.76883 0.0
C850 C 0.68115 0.81344 0.77098 0.0
C851 C 0.69795 0.79584 0.79389 0.0
C852 C 0.63409 0.85452 0.88357 0.0
C853 C 0.65986 0.83463 0.827 0.0
C854 C 0.61373 0.87293 0.89881 0.0
C855 C 0.59795 0.89108 0.87554 0.0
C856 C 0.6388 0.85419 0.84472 0.0
C857 C 0.60348 0.8901 0.8369 0.0
C858 C 0.66227 0.83282 0.78734 0.0
C859 C 0.69557 0.79888 0.83366 0.0
N860 N 0.62333 0.87203 0.82281 0.0
N861 N 0.67675 0.81773 0.8489 0.0
H862 H 0.75189 0.61933 0.10279 0.0
H863 H 0.92551 0.60128 0.05015 0.0
H864 H 0.83537 0.70041 0.11048 0.0
H865 H 0.83729 0.52295 0.0211 0.0
H866 H 0.89175 0.63863 0.06735 0.0
H867 H 0.78093 0.58432 0.06783 0.0
C868 C 0.77609 0.62986 0.09649 0.0
C869 C 0.79136 0.66275 0.10976 0.0
C870 C 0.87965 0.61335 0.05681 0.0
C871 C 0.825 0.6228 0.07039 0.0
C872 C 0.89897 0.59197 0.0471 0.0
C873 C 0.88428 0.55885 0.03455 0.0
C874 C 0.84536 0.60151 0.05475 0.0
C875 C 0.84967 0.54827 0.03064 0.0
C876 C 0.79271 0.60986 0.0766 0.0
C877 C 0.82275 0.67514 0.10088 0.0
N878 N 0.83146 0.56942 0.04128 0.0
N879 N 0.83871 0.6551 0.08225 0.0
H880 H 0.28902 0.74383 0.12184 0.0
H881 H 0.39038 0.92298 0.12756 0.0
H882 H 0.28001 0.82571 0.20167 0.0
H883 H 0.37967 0.84722 0.02929 0.0
H884 H 0.34784 0.88776 0.1532 0.0
H885 H 0.31927 0.78097 0.08502 0.0
C886 C 0.29297 0.76961 0.13134 0.0
C887 C 0.2824 0.78168 0.16528 0.0
C888 C 0.35447 0.87885 0.12583 0.0
C889 C 0.31728 0.82423 0.12347 0.0
C890 C 0.37893 0.8989 0.11128 0.0
C891 C 0.38883 0.8878 0.07652 0.0
C892 C 0.34011 0.84721 0.10585 0.0
C893 C 0.37285 0.85658 0.05634 0.0
C894 C 0.31021 0.79078 0.11024 0.0
C895 C 0.2879 0.81528 0.1759 0.0
N896 N 0.34954 0.83713 0.07161 0.0
N897 N 0.30542 0.83537 0.15542 0.0
H898 H 0.66599 0.17617 0.18257 0.0
H899 H 0.58927 0.02458 0.01114 0.0
H900 H 0.72848 0.12747 0.1221 0.0
H901 H 0.53932 0.05621 0.10272 0.0
H902 H 0.63852 0.06906 0.03995 0.0
H903 H 0.61742 0.13999 0.14075 0.0
C904 C 0.66954 0.15818 0.15996 0.0
C905 C 0.70131 0.15476 0.15584 0.0
C906 C 0.61658 0.06635 0.05333 0.0
C907 C 0.64549 0.11251 0.10831 0.0
C908 C 0.58853 0.04127 0.03681 0.0
C909 C 0.56044 0.03693 0.05476 0.0
C910 C 0.61597 0.08725 0.08746 0.0
C911 C 0.56066 0.05869 0.08823 0.0
C912 C 0.64171 0.13731 0.13626 0.0
C913 C 0.70432 0.1307 0.1263 0.0
N914 N 0.58796 0.08287 0.10347 0.0
N915 N 0.67662 0.11015 0.10374 0.0
H916 H 0.70072 0.69685 0.81906 0.0
H917 H 0.57505 0.53048 0.83238 0.0
H918 H 0.65599 0.62143 0.71991 0.0
H919 H 0.61788 0.60678 0.93126 0.0
H920 H 0.6063 0.56245 0.79145 0.0
H921 H 0.67274 0.66327 0.86111 0.0
C922 C 0.68517 0.67308 0.80617 0.0
C923 C 0.68069 0.66186 0.76592 0.0
C924 C 0.60896 0.57222 0.8221 0.0
C925 C 0.64825 0.62335 0.81391 0.0
C926 C 0.5911 0.55396 0.84556 0.0
C927 C 0.59373 0.566 0.88537 0.0
C928 C 0.6297 0.60285 0.83843 0.0
C929 C 0.61501 0.59656 0.90073 0.0
C930 C 0.6691 0.65395 0.83021 0.0
C931 C 0.66008 0.631 0.75078 0.0
N932 N 0.6321 0.61396 0.87722 0.0
N933 N 0.64455 0.61285 0.77477 0.0
H934 H 0.36491 0.71599 0.8508 0.0
H935 H 0.38169 0.55411 0.9277 0.0
H936 H 0.28749 0.62768 0.82748 0.0
H937 H 0.46176 0.64019 0.94842 0.0
H938 H 0.3438 0.58444 0.90194 0.0
H939 H 0.398 0.69212 0.89611 0.0
C940 C 0.35486 0.69165 0.85547 0.0
C941 C 0.32378 0.67349 0.83508 0.0
C942 C 0.36954 0.59691 0.91263 0.0
C943 C 0.36111 0.64622 0.88672 0.0
C944 C 0.39115 0.57961 0.92745 0.0
C945 C 0.42493 0.59459 0.93982 0.0
C946 C 0.38192 0.62933 0.90946 0.0
C947 C 0.43586 0.62772 0.93922 0.0
C948 C 0.37364 0.6781 0.88137 0.0
C949 C 0.31159 0.64227 0.84232 0.0
N950 N 0.41449 0.6439 0.92355 0.0
N951 N 0.33042 0.62951 0.86733 0.0
H952 H 0.30904 0.28166 0.82061 0.0
H953 H 0.4676 0.42876 0.84635 0.0
H954 H 0.34082 0.32653 0.72533 0.0
H955 H 0.42023 0.40395 0.94326 0.0
H956 H 0.4232 0.38862 0.8021 0.0
H957 H 0.35074 0.32407 0.8665 0.0
C958 C 0.32457 0.30066 0.8094 0.0
C959 C 0.32153 0.3007 0.76916 0.0
C960 C 0.42245 0.39192 0.83302 0.0
C961 C 0.36957 0.34877 0.82131 0.0
C962 C 0.44793 0.41473 0.85841 0.0
C963 C 0.44776 0.41959 0.89866 0.0
C964 C 0.39661 0.37352 0.84787 0.0
C965 C 0.42145 0.40079 0.91247 0.0
C966 C 0.34838 0.32478 0.83559 0.0
C967 C 0.34241 0.32564 0.75613 0.0
N968 N 0.39694 0.37843 0.88708 0.0
N969 N 0.36575 0.34856 0.78214 0.0
H970 H 0.68724 0.35935 0.79593 0.0
H971 H 0.63492 0.39429 -0.00165 0.0
H972 H 0.70985 0.30398 0.88482 0.0
H973 H 0.66393 0.4699 0.93213 0.0
H974 H 0.66184 0.36006 0.95891 0.0
H975 H 0.67643 0.39939 0.84569 0.0
C976 C 0.68997 0.35573 0.82598 0.0
C977 C 0.69918 0.32841 0.83645 0.0
C978 C 0.66303 0.38448 0.95382 0.0
C979 C 0.68675 0.37372 0.89324 0.0
C980 C 0.64774 0.40401 0.97635 0.0
C981 C 0.64702 0.43492 0.96846 0.0
C982 C 0.6769 0.39578 0.92271 0.0
C983 C 0.66402 0.44634 0.93948 0.0
C984 C 0.6841 0.37865 0.85437 0.0
C985 C 0.70267 0.32482 0.87575 0.0
N986 N 0.67762 0.4265 0.91708 0.0
N987 N 0.69594 0.34703 0.90279 0.0
H988 H 0.69051 0.33128 0.17308 0.0
H989 H 0.52177 0.31449 0.03266 0.0
H990 H 0.6225 0.23829 0.12809 0.0
H991 H 0.6048 0.39794 0.05233 0.0
H992 H 0.55806 0.28445 0.06352 0.0
H993 H 0.65863 0.35544 0.12769 0.0
C994 C 0.66867 0.31599 0.1537 0.0
C995 C 0.65882 0.28289 0.15444 0.0
C996 C 0.56844 0.30911 0.06027 0.0
C997 C 0.62229 0.31026 0.1022 0.0
C998 C 0.54784 0.32618 0.04237 0.0
C999 C 0.56027 0.35889 0.04048 0.0
C1000 C 0.60145 0.32507 0.07654 0.0
C1001 C 0.59412 0.37292 0.05384 0.0
C1002 C 0.65067 0.32971 0.1275 0.0
C1003 C 0.63064 0.26403 0.12846 0.0
N1004 N 0.61342 0.3561 0.07187 0.0
N1005 N 0.61306 0.27807 0.10349 0.0
H1006 H 0.65595 0.62758 0.24669 0.0
H1007 H 0.56632 0.5489 0.02784 0.0
H1008 H 0.68224 0.67011 0.14768 0.0
H1009 H 0.52504 0.52797 0.12997 0.0
H1010 H 0.61304 0.5891 0.07003 0.0
H1011 H 0.61243 0.58559 0.20286 0.0
C1012 C 0.65271 0.6279 0.21565 0.0
C1013 C 0.67252 0.6524 0.20076 0.0
C1014 C 0.59364 0.57574 0.08307 0.0
C1015 C 0.62276 0.60453 0.15043 0.0
C1016 C 0.56696 0.55288 0.05904 0.0
C1017 C 0.54159 0.53525 0.07537 0.0
C1018 C 0.5951 0.58059 0.12368 0.0
C1019 C 0.54388 0.54113 0.11603 0.0
C1020 C 0.62779 0.60403 0.19066 0.0
C1021 C 0.66738 0.65163 0.16029 0.0
N1022 N 0.57018 0.56318 0.13873 0.0
N1023 N 0.6429 0.6281 0.13646 0.0
H1024 H 0.2976 0.59185 0.18149 0.0
H1025 H 0.35001 0.55952 0.97971 0.0
H1026 H 0.27282 0.64679 0.09299 0.0
H1027 H 0.3222 0.48272 0.04457 0.0
H1028 H 0.32155 0.5923 0.01869 0.0
H1029 H 0.30806 0.55195 0.13127 0.0
C1030 C 0.29427 0.59536 0.15141 0.0
C1031 C 0.28465 0.62257 0.14119 0.0
C1032 C 0.32093 0.56791 0.02356 0.0
C1033 C 0.2967 0.57747 0.0839 0.0
C1034 C 0.33712 0.54921 0.00128 0.0
C1035 C 0.33869 0.51845 0.009 0.0
C1036 C 0.30701 0.55595 0.05429 0.0
C1037 C 0.32152 0.50623 0.03744 0.0
C1038 C 0.29992 0.57253 0.12277 0.0
C1039 C 0.28035 0.62605 0.10187 0.0
N1040 N 0.30706 0.52531 0.05969 0.0
N1041 N 0.28697 0.60397 0.07458 0.0
H1042 H 0.33431 0.32904 0.25822 0.0
H1043 H 0.36934 0.34769 0.04259 0.0
H1044 H 0.28857 0.25693 0.15615 0.0
H1045 H 0.41274 0.42077 0.14454 0.0
H1046 H 0.33848 0.31458 0.08324 0.0
H1047 H 0.3622 0.3636 0.21673 0.0
C1048 C 0.33005 0.32056 0.22706 0.0
C1049 C 0.30914 0.2901 0.21062 0.0
C1050 C 0.35469 0.3379 0.09669 0.0
C1051 C 0.34103 0.32938 0.16288 0.0
C1052 C 0.37233 0.35682 0.07347 0.0
C1053 C 0.39376 0.38704 0.09014 0.0
C1054 C 0.35854 0.34922 0.13694 0.0
C1055 C 0.39657 0.39762 0.13037 0.0
C1056 C 0.34596 0.34027 0.20335 0.0
C1057 C 0.30445 0.28029 0.17004 0.0
N1058 N 0.37929 0.37874 0.15234 0.0
N1059 N 0.32033 0.2998 0.1476 0.0
H1060 H 0.82527 0.66147 0.73263 0.0
H1061 H 0.84497 0.54122 0.5496 0.0
H1062 H 0.76244 0.64921 0.62084 0.0
H1063 H 0.92576 0.58909 0.64399 0.0
H1064 H 0.81118 0.5754 0.57633 0.0
H1065 H 0.85825 0.6285 0.70261 0.0
C1066 C 0.81817 0.65166 0.70178 0.0
C1067 C 0.79091 0.65822 0.67927 0.0
C1068 C 0.83637 0.57841 0.59098 0.0
C1069 C 0.82891 0.6202 0.64461 0.0
C1070 C 0.85587 0.55905 0.57562 0.0
C1071 C 0.88845 0.56187 0.59459 0.0
C1072 C 0.84925 0.60047 0.62589 0.0
C1073 C 0.90066 0.58521 0.62869 0.0
C1074 C 0.83724 0.63298 0.6846 0.0
C1075 C 0.78324 0.64487 0.63932 0.0
N1076 N 0.88102 0.60329 0.64334 0.0
N1077 N 0.80205 0.62634 0.62327 0.0
H1078 H 0.27676 0.74894 0.60654 0.0
H1079 H 0.4479 0.87704 0.62871 0.0
H1080 H 0.35778 0.76114 0.70173 0.0
H1081 H 0.37668 0.84915 0.52154 0.0
H1082 H 0.4166 0.83201 0.654 0.0
H1083 H 0.31445 0.78143 0.57202 0.0
C1084 C 0.30265 0.7579 0.61983 0.0
C1085 C 0.31407 0.7528 0.65734 0.0
C1086 C 0.40794 0.83552 0.62482 0.0
C1087 C 0.35713 0.79048 0.61835 0.0
C1088 C 0.42566 0.86139 0.61048 0.0
C1089 C 0.41456 0.86708 0.5732 0.0
C1090 C 0.37866 0.81542 0.60192 0.0
C1091 C 0.38588 0.84578 0.55061 0.0
C1092 C 0.32415 0.7765 0.60012 0.0
C1093 C 0.34788 0.76466 0.67298 0.0
N1094 N 0.36867 0.82107 0.56552 0.0
N1095 N 0.36812 0.78352 0.65372 0.0
H1096 H 0.18652 0.26205 0.61293 0.0
H1097 H 0.09909 0.408 0.65479 0.0
H1098 H 0.19624 0.32038 0.72594 0.0
H1099 H 0.07661 0.34294 0.54442 0.0
H1100 H 0.13867 0.37871 0.67902 0.0
H1101 H 0.15043 0.29399 0.58506 0.0
C1102 C 0.18136 0.28169 0.63183 0.0
C1103 C 0.19441 0.28837 0.67193 0.0
C1104 C 0.12516 0.37079 0.64945 0.0
C1105 C 0.1531 0.32499 0.64022 0.0
C1106 C 0.10232 0.38746 0.63559 0.0
C1107 C 0.08399 0.37781 0.59754 0.0
C1108 C 0.13006 0.34414 0.62521 0.0
C1109 C 0.09018 0.35145 0.57387 0.0
C1110 C 0.16063 0.29983 0.61591 0.0
C1111 C 0.18667 0.31408 0.69495 0.0
N1112 N 0.11252 0.33546 0.58812 0.0
N1113 N 0.1666 0.3313 0.67882 0.0
H1114 H 0.69411 0.16967 0.6419 0.0
H1115 H 0.51968 0.04931 0.6138 0.0
H1116 H 0.61136 0.20048 0.68017 0.0
H1117 H 0.58098 0.04241 0.52586 0.0
H1118 H 0.55535 0.10276 0.64284 0.0
H1119 H 0.65558 0.12087 0.60227 0.0
C1120 C 0.6678 0.16613 0.6417 0.0
C1121 C 0.65578 0.18867 0.6645 0.0
C1122 C 0.56084 0.08965 0.61701 0.0
C1123 C 0.61186 0.13326 0.61996 0.0
C1124 C 0.54073 0.0591 0.60066 0.0
C1125 C 0.54765 0.04149 0.56761 0.0
C1126 C 0.58856 0.10229 0.60077 0.0
C1127 C 0.57491 0.05535 0.55136 0.0
C1128 C 0.64587 0.13854 0.61895 0.0
C1129 C 0.62149 0.18355 0.66287 0.0
N1130 N 0.5948 0.08485 0.5685 0.0
N1131 N 0.60069 0.15601 0.64151 0.0
H1132 H 0.76695 0.31672 0.34622 0.0
H1133 H 0.96018 0.39188 0.37789 0.0
H1134 H 0.83444 0.27209 0.28997 0.0
H1135 H 0.8994 0.42488 0.45589 0.0
H1136 H 0.91437 0.3454 0.34881 0.0
H1137 H 0.81454 0.35393 0.39066 0.0
C1138 C 0.79175 0.31447 0.34366 0.0
C1139 C 0.79694 0.29178 0.31407 0.0
C1140 C 0.91102 0.36244 0.37266 0.0
C1141 C 0.85114 0.33406 0.3643 0.0
C1142 C 0.93713 0.389 0.3891 0.0
C1143 C 0.93329 0.41201 0.41912 0.0
C1144 C 0.88051 0.35931 0.38565 0.0
C1145 C 0.90317 0.40732 0.43292 0.0
C1146 C 0.81885 0.33563 0.369 0.0
C1147 C 0.82942 0.28957 0.31207 0.0
N1148 N 0.87759 0.38165 0.41559 0.0
N1149 N 0.8553 0.31074 0.3365 0.0
H1150 H 0.65738 0.74986 0.36533 0.0
H1151 H 0.65978 0.93154 0.45659 0.0
H1152 H 0.73906 0.83173 0.36883 0.0
H1153 H 0.57127 0.85383 0.42256 0.0
H1154 H 0.69294 0.89306 0.43978 0.0
H1155 H 0.62973 0.78554 0.40141 0.0
C1156 C 0.66977 0.77526 0.37433 0.0
C1157 C 0.70041 0.78794 0.36379 0.0
C1158 C 0.6663 0.88438 0.43652 0.0
C1159 C 0.66882 0.82895 0.40484 0.0
C1160 C 0.64741 0.90627 0.44635 0.0
C1161 C 0.61271 0.89591 0.44042 0.0
C1162 C 0.65036 0.85187 0.42107 0.0
C1163 C 0.59792 0.86291 0.42693 0.0
C1164 C 0.65391 0.79564 0.39476 0.0
C1165 C 0.71534 0.82103 0.37619 0.0
N1166 N 0.61677 0.84214 0.41747 0.0
N1167 N 0.69928 0.84046 0.39577 0.0
H1168 H 0.22053 0.69948 0.37074 0.0
H1169 H 0.10963 0.52417 0.36131 0.0
H1170 H 0.22894 0.61492 0.2951 0.0
H1171 H 0.11628 0.60191 0.45583 0.0
H1172 H 0.15709 0.55669 0.34066 0.0
H1173 H 0.18733 0.66429 0.40717 0.0
C1174 C 0.21601 0.67354 0.36226 0.0
C1175 C 0.2269 0.66012 0.32924 0.0
C1176 C 0.1485 0.56666 0.36617 0.0
C1177 C 0.18868 0.61986 0.37052 0.0
C1178 C 0.12121 0.54816 0.37779 0.0
C1179 C 0.10873 0.56066 0.40988 0.0
C1180 C 0.16313 0.59821 0.38629 0.0
C1181 C 0.12504 0.59159 0.43066 0.0
C1182 C 0.197 0.65347 0.38308 0.0
C1183 C 0.22057 0.62637 0.31989 0.0
N1184 N 0.15117 0.60962 0.41809 0.0
N1185 N 0.2014 0.60743 0.34001 0.0
H1186 H 0.35687 0.22373 0.38251 0.0
H1187 H 0.36302 0.0495 0.43149 0.0
H1188 H 0.27263 0.14124 0.35662 0.0
H1189 H 0.44758 0.13172 0.458 0.0
H1190 H 0.32744 0.08506 0.4142 0.0
H1191 H 0.3883 0.19306 0.42006 0.0
C1192 C 0.34483 0.19936 0.38533 0.0
C1193 C 0.31226 0.18486 0.36615 0.0
C1194 C 0.35371 0.09545 0.42428 0.0
C1195 C 0.34807 0.14949 0.4086 0.0
C1196 C 0.37403 0.07512 0.43409 0.0
C1197 C 0.40839 0.08756 0.44555 0.0
C1198 C 0.36789 0.12845 0.42547 0.0
C1199 C 0.42123 0.12106 0.4492 0.0
C1200 C 0.36278 0.18181 0.40666 0.0
C1201 C 0.2978 0.15323 0.37071 0.0
N1202 N 0.40108 0.14024 0.43858 0.0
N1203 N 0.31591 0.13649 0.39107 0.0
H1204 H 0.7196 0.80477 0.61094 0.0
H1205 H 0.54151 0.81657 0.51045 0.0
H1206 H 0.63118 0.72721 0.59284 0.0
H1207 H 0.6281 0.89678 0.53921 0.0
H1208 H 0.5763 0.78034 0.52745 0.0
H1209 H 0.68891 0.83518 0.57242 0.0
C1210 C 0.69382 0.79391 0.59827 0.0
C1211 C 0.67776 0.7636 0.60541 0.0
C1212 C 0.58779 0.80579 0.52953 0.0
C1213 C 0.64234 0.79842 0.56166 0.0
C1214 C 0.56796 0.82649 0.51952 0.0
C1215 C 0.58181 0.85989 0.52405 0.0
C1216 C 0.62174 0.81855 0.54422 0.0
C1217 C 0.61625 0.87133 0.53619 0.0
C1218 C 0.67628 0.81133 0.57636 0.0
C1219 C 0.64441 0.7506 0.58819 0.0
N1220 N 0.63495 0.85077 0.54628 0.0
N1221 N 0.62767 0.76827 0.56751 0.0
H1222 H 0.7214 0.14533 0.31432 0.0
H1223 H 0.58238 0.11622 0.44097 0.0
H1224 H 0.65506 0.20879 0.31199 0.0
H1225 H 0.59405 0.03959 0.35534 0.0
H1226 H 0.61923 0.15575 0.41171 0.0
H1227 H 0.68564 0.11149 0.34938 0.0
C1228 C 0.6996 0.1525 0.32173 0.0
C1229 C 0.69102 0.17983 0.31003 0.0
C1230 C 0.61352 0.13024 0.39956 0.0
C1231 C 0.65049 0.14134 0.35047 0.0
C1232 C 0.59284 0.1078 0.41621 0.0
C1233 C 0.58535 0.07478 0.40035 0.0
C1234 C 0.62738 0.11916 0.36794 0.0
C1235 C 0.59919 0.0649 0.36821 0.0
C1236 C 0.67923 0.13307 0.34153 0.0
C1237 C 0.66233 0.18775 0.32027 0.0
N1238 N 0.61993 0.087 0.35331 0.0
N1239 N 0.64293 0.16851 0.34012 0.0
H1240 H 0.80518 0.68979 0.35437 0.0
H1241 H 0.90488 0.55368 0.31116 0.0
H1242 H 0.80566 0.63953 0.23957 0.0
H1243 H 0.91201 0.60734 0.42637 0.0
H1244 H 0.86637 0.58351 0.28552 0.0
H1245 H 0.84166 0.65828 0.38229 0.0
C1246 C 0.81273 0.67207 0.33502 0.0
C1247 C 0.80226 0.66748 0.29446 0.0
C1248 C 0.87627 0.58879 0.31645 0.0
C1249 C 0.84415 0.63133 0.3263 0.0
C1250 C 0.89856 0.57185 0.33116 0.0
C1251 C 0.91219 0.57804 0.37109 0.0
C1252 C 0.8672 0.61227 0.34167 0.0
C1253 C 0.9021 0.60143 0.39547 0.0
C1254 C 0.83365 0.65413 0.35101 0.0
C1255 C 0.81303 0.64414 0.27096 0.0
N1256 N 0.88037 0.61772 0.38039 0.0
N1257 N 0.8333 0.62711 0.28716 0.0
H1258 H 0.295 0.78316 0.33509 0.0
H1259 H 0.47145 0.8993 0.36293 0.0
H1260 H 0.37653 0.74924 0.29794 0.0
H1261 H 0.41014 0.90889 0.45034 0.0
H1262 H 0.43482 0.84617 0.33447 0.0
H1263 H 0.33451 0.83137 0.3746 0.0
C1264 C 0.32125 0.78588 0.33554 0.0
C1265 C 0.33266 0.76267 0.31306 0.0
C1266 C 0.42955 0.85979 0.36009 0.0
C1267 C 0.37768 0.81738 0.35743 0.0
C1268 C 0.45021 0.89015 0.37608 0.0
C1269 C 0.44356 0.9084 0.40883 0.0
C1270 C 0.40159 0.84802 0.37636 0.0
C1271 C 0.41602 0.8954 0.42513 0.0
C1272 C 0.34372 0.81313 0.35821 0.0
C1273 C 0.36687 0.76674 0.31497 0.0
N1274 N 0.39562 0.86609 0.40832 0.0
N1275 N 0.38825 0.79398 0.33623 0.0
H1276 H 0.18979 0.31503 0.24646 0.0
H1277 H 0.11138 0.37062 0.43177 0.0
H1278 H 0.20819 0.28149 0.35565 0.0
H1279 H 0.10361 0.40978 0.32521 0.0
H1280 H 0.1468 0.33787 0.40552 0.0
H1281 H 0.15825 0.34986 0.27579 0.0
C1282 C 0.18738 0.31507 0.27674 0.0
C1283 C 0.2017 0.29513 0.29853 0.0
C1284 C 0.1373 0.35365 0.38795 0.0
C1285 C 0.16508 0.33513 0.33248 0.0
C1286 C 0.11713 0.37246 0.40296 0.0
C1287 C 0.10406 0.39287 0.3806 0.0
C1288 C 0.14453 0.35525 0.3503 0.0
C1289 C 0.11231 0.39394 0.3433 0.0
C1290 C 0.16928 0.33505 0.29352 0.0
C1291 C 0.1977 0.29648 0.33773 0.0
N1292 N 0.13184 0.37543 0.32942 0.0
N1293 N 0.1796 0.31596 0.35338 0.0
H1294 H 0.25266 0.12167 0.59881 0.0
H1295 H 0.42518 0.09577 0.55425 0.0
H1296 H 0.33809 0.20055 0.60549 0.0
H1297 H 0.3345 0.02099 0.51816 0.0
H1298 H 0.39282 0.13527 0.56819 0.0
H1299 H 0.2805 0.08505 0.56451 0.0
C1300 C 0.27704 0.13138 0.59239 0.0
C1301 C 0.29323 0.16411 0.60525 0.0
C1302 C 0.37988 0.11034 0.55671 0.0
C1303 C 0.32546 0.12233 0.56666 0.0
C1304 C 0.39837 0.0878 0.54883 0.0
C1305 C 0.38246 0.05507 0.53548 0.0
C1306 C 0.34519 0.09998 0.55209 0.0
C1307 C 0.34768 0.04602 0.52854 0.0
C1308 C 0.29294 0.11047 0.57284 0.0
C1309 C 0.32478 0.17544 0.59622 0.0
N1310 N 0.3302 0.06824 0.53761 0.0
N1311 N 0.34007 0.1545 0.57803 0.0
H1312 H 0.76668 0.25449 0.60813 0.0
H1313 H 0.89125 0.42431 0.62667 0.0
H1314 H 0.76566 0.33881 0.6896 0.0
H1315 H 0.87199 0.35237 0.52249 0.0
H1316 H 0.84409 0.39277 0.64889 0.0
H1317 H 0.80257 0.28934 0.57375 0.0
C1318 C 0.7734 0.28036 0.61835 0.0
C1319 C 0.76365 0.29369 0.65228 0.0
C1320 C 0.84991 0.3839 0.621 0.0
C1321 C 0.80499 0.33346 0.61342 0.0
C1322 C 0.87706 0.40177 0.60845 0.0
C1323 C 0.88576 0.39067 0.57293 0.0
C1324 C 0.83154 0.35435 0.59824 0.0
C1325 C 0.86618 0.36159 0.55022 0.0
C1326 C 0.79393 0.30021 0.5987 0.0
C1327 C 0.77292 0.32737 0.66393 0.0
N1328 N 0.84014 0.34411 0.56353 0.0
N1329 N 0.79353 0.34602 0.64494 0.0
H1330 H 0.22781 0.62536 0.63535 0.0
H1331 H 0.0331 0.56242 0.59546 0.0
H1332 H 0.16191 0.68171 0.67447 0.0
H1333 H 0.09204 0.52128 0.52132 0.0
H1334 H 0.08117 0.60691 0.62379 0.0
H1335 H 0.17998 0.58727 0.59168 0.0
C1336 C 0.20344 0.62999 0.63423 0.0
C1337 C 0.19869 0.65652 0.65869 0.0
C1338 C 0.08365 0.58848 0.60093 0.0
C1339 C 0.14433 0.61335 0.60951 0.0
C1340 C 0.05623 0.5631 0.5849 0.0
C1341 C 0.05884 0.53846 0.55612 0.0
C1342 C 0.1142 0.58875 0.58888 0.0
C1343 C 0.08922 0.54019 0.5433 0.0
C1344 C 0.17625 0.60837 0.60934 0.0
C1345 C 0.16672 0.66158 0.65616 0.0
N1346 N 0.11606 0.56476 0.56027 0.0
N1347 N 0.14077 0.64001 0.63243 0.0
loop_
_geom_bond_atom_site_label_1
_geom_bond_atom_site_label_2
_geom_bond_distance
_geom_bond_site_symmetry_2
_ccdc_geom_bond_type
Dy0 O4 2.398 . S
Dy0 O5 2.491 . S
Dy0 O6 2.403 . S
Dy0 O7 2.664 . S
Dy0 O11 2.326 . S
Dy0 O15 2.310 . S
Dy0 O16 2.351 . S
C1 O12 1.185 . S
C1 O13 1.355 . S
C2 O4 1.185 . S
C2 O5 1.355 . S
Dy3 O7 2.310 . S
Dy3 O10 2.351 . S
Dy3 O12 2.398 . S
Dy3 O13 2.491 . S
Dy3 O14 2.403 . S
Dy3 O15 2.664 . S
Dy3 O17 2.326 . S
O4 Dy0 2.398 . S
O4 C2 1.185 . S
O5 Dy0 2.491 . S
O5 C2 1.355 . S
O6 Dy0 2.403 . S
O6 C8 1.254 . S
O7 Dy0 2.664 . S
O7 Dy3 2.310 . S
O7 C8 1.268 . S
C8 O6 1.254 . S
C8 O7 1.268 . S
C9 O14 1.254 . S
C9 O15 1.268 . S
O10 Dy3 2.351 . S
O10 C18 1.249 . S
O11 Dy0 2.326 . S
O11 C18 1.267 . S
O12 C1 1.185 . S
O12 Dy3 2.398 . S
O13 C1 1.355 . S
O13 Dy3 2.491 . S
O14 Dy3 2.403 . S
O14 C9 1.254 . S
O15 Dy0 2.310 . S
O15 Dy3 2.664 . S
O15 C9 1.268 . S
O16 Dy0 2.351 . S
O16 C19 1.249 . S
O17 Dy3 2.326 . S
O17 C19 1.267 . S
C18 O10 1.249 . S
C18 O11 1.267 . S
C19 O16 1.249 . S
C19 O17 1.267 . S
Dy20 O24 2.398 . S
Dy20 O25 2.491 . S
Dy20 O26 2.403 . S
Dy20 O27 2.664 . S
Dy20 O31 2.326 . S
Dy20 O35 2.310 . S
Dy20 O36 2.351 . S
C21 O32 1.185 . S
C21 O33 1.355 . S
C22 O24 1.185 . S
C22 O25 1.355 . S
Dy23 O27 2.310 . S
Dy23 O30 2.351 . S
Dy23 O32 2.398 . S
Dy23 O33 2.491 . S
Dy23 O34 2.403 . S
Dy23 O35 2.664 . S
Dy23 O37 2.326 . S
O24 Dy20 2.398 . S
O24 C22 1.185 . S
O25 Dy20 2.491 . S
O25 C22 1.355 . S
O26 Dy20 2.403 . S
O26 C28 1.254 . S
O27 Dy20 2.664 . S
O27 Dy23 2.310 . S
O27 C28 1.268 . S
C28 O26 1.254 . S
C28 O27 1.268 . S
C29 O34 1.254 . S
C29 O35 1.268 . S
O30 Dy23 2.351 . S
O30 C38 1.249 . S
O31 Dy20 2.326 . S
O31 C38 1.267 . S
O32 C21 1.185 . S
O32 Dy23 2.398 . S
O33 C21 1.355 . S
O33 Dy23 2.491 . S
O34 Dy23 2.403 . S
O34 C29 1.254 . S
O35 Dy20 2.310 . S
O35 Dy23 2.664 . S
O35 C29 1.268 . S
O36 Dy20 2.351 . S
O36 C39 1.249 . S
O37 Dy23 2.326 . S
O37 C39 1.267 . S
C38 O30 1.249 . S
C38 O31 1.267 . S
C39 O36 1.249 . S
C39 O37 1.267 . S
Dy40 O44 2.398 . S
Dy40 O45 2.491 . S
Dy40 O46 2.403 . S
Dy40 O47 2.664 . S
Dy40 O51 2.326 . S
Dy40 O55 2.310 . S
Dy40 O56 2.351 . S
C41 O52 1.185 . S
C41 O53 1.355 . S
C42 O44 1.185 . S
C42 O45 1.355 . S
Dy43 O47 2.310 . S
Dy43 O50 2.351 . S
Dy43 O52 2.398 . S
Dy43 O53 2.491 . S
Dy43 O54 2.403 . S
Dy43 O55 2.664 . S
Dy43 O57 2.326 . S
O44 Dy40 2.398 . S
O44 C42 1.185 . S
O45 Dy40 2.491 . S
O45 C42 1.355 . S
O46 Dy40 2.403 . S
O46 C48 1.254 . S
O47 Dy40 2.664 . S
O47 Dy43 2.310 . S
O47 C48 1.268 . S
C48 O46 1.254 . S
C48 O47 1.268 . S
C49 O54 1.254 . S
C49 O55 1.268 . S
O50 Dy43 2.351 . S
O50 C58 1.249 . S
O51 Dy40 2.326 . S
O51 C58 1.267 . S
O52 C41 1.185 . S
O52 Dy43 2.398 . S
O53 C41 1.355 . S
O53 Dy43 2.491 . S
O54 Dy43 2.403 . S
O54 C49 1.254 . S
O55 Dy40 2.310 . S
O55 Dy43 2.664 . S
O55 C49 1.268 . S
O56 Dy40 2.351 . S
O56 C59 1.249 . S
O57 Dy43 2.326 . S
O57 C59 1.267 . S
C58 O50 1.249 . S
C58 O51 1.267 . S
C59 O56 1.249 . S
C59 O57 1.267 . S
Dy60 O64 2.398 . S
Dy60 O65 2.491 . S
Dy60 O66 2.403 . S
Dy60 O67 2.664 . S
Dy60 O71 2.326 . S
Dy60 O75 2.310 . S
Dy60 O76 2.351 . S
C61 O72 1.185 . S
C61 O73 1.355 . S
C62 O64 1.185 . S
C62 O65 1.355 . S
Dy63 O67 2.310 . S
Dy63 O70 2.351 . S
Dy63 O72 2.398 . S
Dy63 O73 2.491 . S
Dy63 O74 2.403 . S
Dy63 O75 2.664 . S
Dy63 O77 2.326 . S
O64 Dy60 2.398 . S
O64 C62 1.185 . S
O65 Dy60 2.491 . S
O65 C62 1.355 . S
O66 Dy60 2.403 . S
O66 C68 1.254 . S
O67 Dy60 2.664 . S
O67 Dy63 2.310 . S
O67 C68 1.268 . S
C68 O66 1.254 . S
C68 O67 1.268 . S
C69 O74 1.254 . S
C69 O75 1.268 . S
O70 Dy63 2.351 . S
O70 C78 1.249 . S
O71 Dy60 2.326 . S
O71 C78 1.267 . S
O72 C61 1.185 . S
O72 Dy63 2.398 . S
O73 C61 1.355 . S
O73 Dy63 2.491 . S
O74 Dy63 2.403 . S
O74 C69 1.254 . S
O75 Dy60 2.310 . S
O75 Dy63 2.664 . S
O75 C69 1.268 . S
O76 Dy60 2.351 . S
O76 C79 1.249 . S
O77 Dy63 2.326 . S
O77 C79 1.267 . S
C78 O70 1.249 . S
C78 O71 1.267 . S
C79 O76 1.249 . S
C79 O77 1.267 . S
Dy80 O84 2.398 . S
Dy80 O85 2.491 . S
Dy80 O86 2.403 . S
Dy80 O87 2.664 . S
Dy80 O91 2.326 . S
Dy80 O95 2.310 . S
Dy80 O96 2.351 . S
C81 O92 1.185 . S
C81 O93 1.355 . S
C82 O84 1.185 . S
C82 O85 1.355 . S
Dy83 O87 2.310 . S
Dy83 O90 2.351 . S
Dy83 O92 2.398 . S
Dy83 O93 2.491 . S
Dy83 O94 2.403 . S
Dy83 O95 2.664 . S
Dy83 O97 2.326 . S
O84 Dy80 2.398 . S
O84 C82 1.185 . S
O85 Dy80 2.491 . S
O85 C82 1.355 . S
O86 Dy80 2.403 . S
O86 C88 1.254 . S
O87 Dy80 2.664 . S
O87 Dy83 2.310 . S
O87 C88 1.268 . S
C88 O86 1.254 . S
C88 O87 1.268 . S
C89 O94 1.254 . S
C89 O95 1.268 . S
O90 Dy83 2.351 . S
O90 C98 1.249 . S
O91 Dy80 2.326 . S
O91 C98 1.267 . S
O92 C81 1.185 . S
O92 Dy83 2.398 . S
O93 C81 1.355 . S
O93 Dy83 2.491 . S
O94 Dy83 2.403 . S
O94 C89 1.254 . S
O95 Dy80 2.310 . S
O95 Dy83 2.664 . S
O95 C89 1.268 . S
O96 Dy80 2.351 . S
O96 C99 1.249 . S
O97 Dy83 2.326 . S
O97 C99 1.267 . S
C98 O90 1.249 . S
C98 O91 1.267 . S
C99 O96 1.249 . S
C99 O97 1.267 . S
Dy100 O104 2.398 . S
Dy100 O105 2.491 . S
Dy100 O106 2.403 . S
Dy100 O107 2.664 . S
Dy100 O111 2.326 . S
Dy100 O115 2.310 . S
Dy100 O116 2.351 . S
C101 O112 1.185 . S
C101 O113 1.355 . S
C102 O104 1.185 . S
C102 O105 1.355 . S
Dy103 O107 2.310 . S
Dy103 O110 2.351 . S
Dy103 O112 2.398 . S
Dy103 O113 2.491 . S
Dy103 O114 2.403 . S
Dy103 O115 2.664 . S
Dy103 O117 2.326 . S
O104 Dy100 2.398 . S
O104 C102 1.185 . S
O105 Dy100 2.491 . S
O105 C102 1.355 . S
O106 Dy100 2.403 . S
O106 C108 1.254 . S
O107 Dy100 2.664 . S
O107 Dy103 2.310 . S
O107 C108 1.268 . S
C108 O106 1.254 . S
C108 O107 1.268 . S
C109 O114 1.254 . S
C109 O115 1.268 . S
O110 Dy103 2.351 . S
O110 C118 1.249 . S
O111 Dy100 2.326 . S
O111 C118 1.267 . S
O112 C101 1.185 . S
O112 Dy103 2.398 . S
O113 C101 1.355 . S
O113 Dy103 2.491 . S
O114 Dy103 2.403 . S
O114 C109 1.254 . S
O115 Dy100 2.310 . S
O115 Dy103 2.664 . S
O115 C109 1.268 . S
O116 Dy100 2.351 . S
O116 C119 1.249 . S
O117 Dy103 2.326 . S
O117 C119 1.267 . S
C118 O110 1.249 . S
C118 O111 1.267 . S
C119 O116 1.249 . S
C119 O117 1.267 . S
Dy120 O124 2.398 . S
Dy120 O125 2.491 . S
Dy120 O126 2.403 . S
Dy120 O127 2.664 . S
Dy120 O131 2.326 . S
Dy120 O135 2.310 . S
Dy120 O136 2.351 . S
C121 O132 1.185 . S
C121 O133 1.355 . S
C122 O124 1.185 . S
C122 O125 1.355 . S
Dy123 O127 2.310 . S
Dy123 O130 2.351 . S
Dy123 O132 2.398 . S
Dy123 O133 2.491 . S
Dy123 O134 2.403 . S
Dy123 O135 2.664 . S
Dy123 O137 2.326 . S
O124 Dy120 2.398 . S
O124 C122 1.185 . S
O125 Dy120 2.491 . S
O125 C122 1.355 . S
O126 Dy120 2.403 . S
O126 C128 1.254 . S
O127 Dy120 2.664 . S
O127 Dy123 2.310 . S
O127 C128 1.268 . S
C128 O126 1.254 . S
C128 O127 1.268 . S
C129 O134 1.254 . S
C129 O135 1.268 . S
O130 Dy123 2.351 . S
O130 C138 1.249 . S
O131 Dy120 2.326 . S
O131 C138 1.267 . S
O132 C121 1.185 . S
O132 Dy123 2.398 . S
O133 C121 1.355 . S
O133 Dy123 2.491 . S
O134 Dy123 2.403 . S
O134 C129 1.254 . S
O135 Dy120 2.310 . S
O135 Dy123 2.664 . S
O135 C129 1.268 . S
O136 Dy120 2.351 . S
O136 C139 1.249 . S
O137 Dy123 2.326 . S
O137 C139 1.267 . S
C138 O130 1.249 . S
C138 O131 1.267 . S
C139 O136 1.249 . S
C139 O137 1.267 . S
Dy140 O144 2.398 . S
Dy140 O145 2.491 . S
Dy140 O146 2.403 . S
Dy140 O147 2.664 . S
Dy140 O151 2.326 . S
Dy140 O155 2.310 . S
Dy140 O156 2.351 . S
C141 O152 1.185 . S
C141 O153 1.355 . S
C142 O144 1.185 . S
C142 O145 1.355 . S
Dy143 O147 2.310 . S
Dy143 O150 2.351 . S
Dy143 O152 2.398 . S
Dy143 O153 2.491 . S
Dy143 O154 2.403 . S
Dy143 O155 2.664 . S
Dy143 O157 2.326 . S
O144 Dy140 2.398 . S
O144 C142 1.185 . S
O145 Dy140 2.491 . S
O145 C142 1.355 . S
O146 Dy140 2.403 . S
O146 C148 1.254 . S
O147 Dy140 2.664 . S
O147 Dy143 2.310 . S
O147 C148 1.268 . S
C148 O146 1.254 . S
C148 O147 1.268 . S
C149 O154 1.254 . S
C149 O155 1.268 . S
O150 Dy143 2.351 . S
O150 C158 1.249 . S
O151 Dy140 2.326 . S
O151 C158 1.267 . S
O152 C141 1.185 . S
O152 Dy143 2.398 . S
O153 C141 1.355 . S
O153 Dy143 2.491 . S
O154 Dy143 2.403 . S
O154 C149 1.254 . S
O155 Dy140 2.310 . S
O155 Dy143 2.664 . S
O155 C149 1.268 . S
O156 Dy140 2.351 . S
O156 C159 1.249 . S
O157 Dy143 2.326 . S
O157 C159 1.267 . S
C158 O150 1.249 . S
C158 O151 1.267 . S
C159 O156 1.249 . S
C159 O157 1.267 . S
Cd160 N163 2.334 1_655 S
Cd160 N189 2.304 1_565 S
Cd160 O196 2.268 . S
Cd160 O199 2.273 1_665 S
Cd160 O200 2.417 . S
Cd160 O201 2.330 . S
Cd161 N176 2.304 1_455 S
Cd161 N180 2.334 1_545 S
Cd161 O197 2.273 1_445 S
Cd161 O198 2.268 . S
Cd161 O202 2.417 . S
Cd161 O203 2.330 . S
C162 N163 1.332 . S
C162 C166 1.381 . S
C162 H168 0.931 . S
N163 Cd160 2.334 1_455 S
N163 C162 1.332 . S
N163 C167 1.328 . S
C164 C165 1.396 . S
C164 C167 1.378 . S
C164 H206 0.931 . S
C165 C164 1.396 . S
C165 C166 1.382 . S
C166 C162 1.381 . S
C166 C165 1.382 . S
C166 H207 0.930 . S
C167 N163 1.328 . S
C167 C164 1.378 . S
C167 H169 0.930 1_455 S
H168 C162 0.931 . S
H169 C167 0.930 1_655 S
C170 O196 1.238 . S
C170 O197 1.253 . S
C171 C172 1.379 . S
C171 N176 1.337 . S
C171 H177 0.929 . S
C172 C171 1.379 . S
C172 C173 1.380 . S
C172 H208 0.929 . S
C173 C172 1.380 . S
C173 C174 1.399 . S
C174 C173 1.399 . S
C174 C175 1.376 . S
C174 H209 0.931 . S
C175 C174 1.376 . S
C175 N176 1.338 . S
C175 H178 0.930 1_655 S
N176 Cd161 2.304 1_655 S
N176 C171 1.337 . S
N176 C175 1.338 . S
H177 C171 0.929 . S
H178 C175 0.930 1_455 S
C179 N180 1.332 . S
C179 C183 1.381 . S
C179 H185 0.931 . S
N180 Cd161 2.334 1_565 S
N180 C179 1.332 . S
N180 C184 1.328 . S
C181 C182 1.396 . S
C181 C184 1.378 . S
C181 H210 0.931 . S
C182 C181 1.396 . S
C182 C183 1.382 . S
C183 C179 1.381 . S
C183 C182 1.382 . S
C183 H211 0.930 . S
C184 N180 1.328 . S
C184 C181 1.378 . S
C184 H186 0.930 1_565 S
H185 C179 0.931 . S
H186 C184 0.930 1_545 S
C187 O198 1.238 . S
C187 O199 1.253 . S
C188 O200 1.239 . S
C188 O201 1.230 . S
N189 Cd160 2.304 1_545 S
N189 C190 1.337 . S
N189 C194 1.338 . S
C190 N189 1.337 . S
C190 C191 1.379 . S
C190 H204 0.929 . S
C191 C190 1.379 . S
C191 C192 1.380 . S
C191 H212 0.929 . S
C192 C191 1.380 . S
C192 C193 1.399 . S
C193 C192 1.399 . S
C193 C194 1.376 . S
C193 H213 0.931 . S
C194 N189 1.338 . S
C194 C193 1.376 . S
C194 H205 0.930 1_545 S
C195 O202 1.239 . S
C195 O203 1.230 . S
O196 Cd160 2.268 . S
O196 C170 1.238 . S
O197 Cd161 2.273 1_665 S
O197 C170 1.253 . S
O198 Cd161 2.268 . S
O198 C187 1.238 . S
O199 Cd160 2.273 1_445 S
O199 C187 1.253 . S
O200 Cd160 2.417 . S
O200 C188 1.239 . S
O201 Cd160 2.330 . S
O201 C188 1.230 . S
O202 Cd161 2.417 . S
O202 C195 1.239 . S
O203 Cd161 2.330 . S
O203 C195 1.230 . S
H204 C190 0.929 . S
H205 C194 0.930 1_565 S
H206 C164 0.931 . S
H207 C166 0.930 . S
H208 C172 0.929 . S
H209 C174 0.931 . S
H210 C181 0.931 . S
H211 C183 0.930 . S
H212 C191 0.929 . S
H213 C193 0.931 . S
Cd214 N217 2.334 . S
Cd214 N243 2.304 1_565 S
Cd214 O250 2.268 1_554 S
Cd214 O253 2.273 1_565 S
Cd214 O254 2.417 . S
Cd214 O255 2.330 . S
Cd215 N230 2.304 . S
Cd215 N234 2.334 1_545 S
Cd215 O251 2.273 1_545 S
Cd215 O252 2.268 1_556 S
Cd215 O256 2.417 . S
Cd215 O257 2.330 . S
C216 N217 1.332 . S
C216 C220 1.381 . S
C216 H222 0.931 . S
N217 Cd214 2.334 . S
N217 C216 1.332 . S
N217 C221 1.328 . S
C218 C219 1.396 . S
C218 C221 1.378 . S
C218 H260 0.931 1_554 S
C219 C218 1.396 . S
C219 C220 1.382 . S
C220 C216 1.381 . S
C220 C219 1.382 . S
C220 H261 0.930 . S
C221 N217 1.328 . S
C221 C218 1.378 . S
C221 H223 0.930 1_554 S
H222 C216 0.931 . S
H223 C221 0.930 1_556 S
C224 O250 1.238 . S
C224 O251 1.253 . S
C225 C226 1.379 . S
C225 N230 1.337 . S
C225 H231 0.929 . S
C226 C225 1.379 . S
C226 C227 1.380 . S
C226 H262 0.929 . S
C227 C226 1.380 . S
C227 C228 1.399 . S
C228 C227 1.399 . S
C228 C229 1.376 . S
C228 H263 0.931 1_556 S
C229 C228 1.376 . S
C229 N230 1.338 . S
C229 H232 0.930 1_556 S
N230 Cd215 2.304 . S
N230 C225 1.337 . S
N230 C229 1.338 . S
H231 C225 0.929 . S
H232 C229 0.930 1_554 S
C233 N234 1.332 . S
C233 C237 1.381 . S
C233 H239 0.931 . S
N234 Cd215 2.334 1_565 S
N234 C233 1.332 . S
N234 C238 1.328 . S
C235 C236 1.396 . S
C235 C238 1.378 . S
C235 H264 0.931 1_556 S
C236 C235 1.396 . S
C236 C237 1.382 . S
C237 C233 1.381 . S
C237 C236 1.382 . S
C237 H265 0.930 . S
C238 N234 1.328 . S
C238 C235 1.378 . S
C238 H240 0.930 1_566 S
H239 C233 0.931 . S
H240 C238 0.930 1_544 S
C241 O252 1.238 . S
C241 O253 1.253 . S
C242 O254 1.239 . S
C242 O255 1.230 . S
N243 Cd214 2.304 1_545 S
N243 C244 1.337 . S
N243 C248 1.338 . S
C244 N243 1.337 . S
C244 C245 1.379 . S
C244 H258 0.929 . S
C245 C244 1.379 . S
C245 C246 1.380 . S
C245 H266 0.929 . S
C246 C245 1.380 . S
C246 C247 1.399 . S
C247 C246 1.399 . S
C247 C248 1.376 . S
C247 H267 0.931 1_554 S
C248 N243 1.338 . S
C248 C247 1.376 . S
C248 H259 0.930 1_544 S
C249 O256 1.239 . S
C249 O257 1.230 . S
O250 Cd214 2.268 1_556 S
O250 C224 1.238 . S
O251 Cd215 2.273 1_565 S
O251 C224 1.253 . S
O252 Cd215 2.268 1_554 S
O252 C241 1.238 . S
O253 Cd214 2.273 1_545 S
O253 C241 1.253 . S
O254 Cd214 2.417 . S
O254 C242 1.239 . S
O255 Cd214 2.330 . S
O255 C242 1.230 . S
O256 Cd215 2.417 . S
O256 C249 1.239 . S
O257 Cd215 2.330 . S
O257 C249 1.230 . S
H258 C244 0.929 . S
H259 C248 0.930 1_566 S
H260 C218 0.931 1_556 S
H261 C220 0.930 . S
H262 C226 0.929 . S
H263 C228 0.931 1_554 S
H264 C235 0.931 1_554 S
H265 C237 0.930 . S
H266 C245 0.929 . S
H267 C247 0.931 1_556 S
Cd268 N271 2.334 1_655 S
Cd268 N297 2.304 . S
Cd268 O304 2.268 1_554 S
Cd268 O307 2.273 1_655 S
Cd268 O308 2.417 . S
Cd268 O309 2.330 . S
Cd269 N284 2.304 1_455 S
Cd269 N288 2.334 . S
Cd269 O305 2.273 1_455 S
Cd269 O306 2.268 1_556 S
Cd269 O310 2.417 . S
Cd269 O311 2.330 . S
C270 N271 1.332 . S
C270 C274 1.381 . S
C270 H276 0.931 . S
N271 Cd268 2.334 1_455 S
N271 C270 1.332 . S
N271 C275 1.328 . S
C272 C273 1.396 . S
C272 C275 1.378 . S
C272 H314 0.931 1_554 S
C273 C272 1.396 . S
C273 C274 1.382 . S
C274 C270 1.381 . S
C274 C273 1.382 . S
C274 H315 0.930 . S
C275 N271 1.328 . S
C275 C272 1.378 . S
C275 H277 0.930 1_454 S
H276 C270 0.931 . S
H277 C275 0.930 1_656 S
C278 O304 1.238 . S
C278 O305 1.253 . S
C279 C280 1.379 . S
C279 N284 1.337 . S
C279 H285 0.929 . S
C280 C279 1.379 . S
C280 C281 1.380 . S
C280 H316 0.929 . S
C281 C280 1.380 . S
C281 C282 1.399 . S
C282 C281 1.399 . S
C282 C283 1.376 . S
C282 H317 0.931 1_556 S
C283 C282 1.376 . S
C283 N284 1.338 . S
C283 H286 0.930 1_656 S
N284 Cd269 2.304 1_655 S
N284 C279 1.337 . S
N284 C283 1.338 . S
H285 C279 0.929 . S
H286 C283 0.930 1_454 S
C287 N288 1.332 . S
C287 C291 1.381 . S
C287 H293 0.931 . S
N288 Cd269 2.334 . S
N288 C287 1.332 . S
N288 C292 1.328 . S
C289 C290 1.396 . S
C289 C292 1.378 . S
C289 H318 0.931 1_556 S
C290 C289 1.396 . S
C290 C291 1.382 . S
C291 C287 1.381 . S
C291 C290 1.382 . S
C291 H319 0.930 . S
C292 N288 1.328 . S
C292 C289 1.378 . S
C292 H294 0.930 1_556 S
H293 C287 0.931 . S
H294 C292 0.930 1_554 S
C295 O306 1.238 . S
C295 O307 1.253 . S
C296 O308 1.239 . S
C296 O309 1.230 . S
N297 Cd268 2.304 . S
N297 C298 1.337 . S
N297 C302 1.338 . S
C298 N297 1.337 . S
C298 C299 1.379 . S
C298 H312 0.929 . S
C299 C298 1.379 . S
C299 C300 1.380 . S
C299 H320 0.929 . S
C300 C299 1.380 . S
C300 C301 1.399 . S
C301 C300 1.399 . S
C301 C302 1.376 . S
C301 H321 0.931 1_554 S
C302 N297 1.338 . S
C302 C301 1.376 . S
C302 H313 0.930 1_554 S
C303 O310 1.239 . S
C303 O311 1.230 . S
O304 Cd268 2.268 1_556 S
O304 C278 1.238 . S
O305 Cd269 2.273 1_655 S
O305 C278 1.253 . S
O306 Cd269 2.268 1_554 S
O306 C295 1.238 . S
O307 Cd268 2.273 1_455 S
O307 C295 1.253 . S
O308 Cd268 2.417 . S
O308 C296 1.239 . S
O309 Cd268 2.330 . S
O309 C296 1.230 . S
O310 Cd269 2.417 . S
O310 C303 1.239 . S
O311 Cd269 2.330 . S
O311 C303 1.230 . S
H312 C298 0.929 . S
H313 C302 0.930 1_556 S
H314 C272 0.931 1_556 S
H315 C274 0.930 . S
H316 C280 0.929 . S
H317 C282 0.931 1_554 S
H318 C289 0.931 1_554 S
H319 C291 0.930 . S
H320 C299 0.929 . S
H321 C301 0.931 1_556 S
Cd322 N325 2.334 . S
Cd322 N351 2.304 . S
Cd322 O358 2.268 1_554 S
Cd322 O361 2.273 . S
Cd322 O362 2.417 . S
Cd322 O363 2.330 . S
Cd323 N338 2.304 . S
Cd323 N342 2.334 . S
Cd323 O359 2.273 . S
Cd323 O360 2.268 1_556 S
Cd323 O364 2.417 . S
Cd323 O365 2.330 . S
C324 N325 1.332 . S
C324 C328 1.381 . S
C324 H330 0.931 . S
N325 Cd322 2.334 . S
N325 C324 1.332 . S
N325 C329 1.328 . S
C326 C327 1.396 . S
C326 C329 1.378 . S
C326 H368 0.931 1_554 S
C327 C326 1.396 . S
C327 C328 1.382 . S
C328 C324 1.381 . S
C328 C327 1.382 . S
C328 H369 0.930 . S
C329 N325 1.328 . S
C329 C326 1.378 . S
C329 H331 0.930 1_554 S
H330 C324 0.931 . S
H331 C329 0.930 1_556 S
C332 O358 1.238 . S
C332 O359 1.253 . S
C333 C334 1.379 . S
C333 N338 1.337 . S
C333 H339 0.929 . S
C334 C333 1.379 . S
C334 C335 1.380 . S
C334 H370 0.929 . S
C335 C334 1.380 . S
C335 C336 1.399 . S
C336 C335 1.399 . S
C336 C337 1.376 . S
C336 H371 0.931 1_556 S
C337 C336 1.376 . S
C337 N338 1.338 . S
C337 H340 0.930 1_556 S
N338 Cd323 2.304 . S
N338 C333 1.337 . S
N338 C337 1.338 . S
H339 C333 0.929 . S
H340 C337 0.930 1_554 S
C341 N342 1.332 . S
C341 C345 1.381 . S
C341 H347 0.931 . S
N342 Cd323 2.334 . S
N342 C341 1.332 . S
N342 C346 1.328 . S
C343 C344 1.396 . S
C343 C346 1.378 . S
C343 H372 0.931 1_556 S
C344 C343 1.396 . S
C344 C345 1.382 . S
C345 C341 1.381 . S
C345 C344 1.382 . S
C345 H373 0.930 . S
C346 N342 1.328 . S
C346 C343 1.378 . S
C346 H348 0.930 1_556 S
H347 C341 0.931 . S
H348 C346 0.930 1_554 S
C349 O360 1.238 . S
C349 O361 1.253 . S
C350 O362 1.239 . S
C350 O363 1.230 . S
N351 Cd322 2.304 . S
N351 C352 1.337 . S
N351 C356 1.338 . S
C352 N351 1.337 . S
C352 C353 1.379 . S
C352 H366 0.929 . S
C353 C352 1.379 . S
C353 C354 1.380 . S
C353 H374 0.929 . S
C354 C353 1.380 . S
C354 C355 1.399 . S
C355 C354 1.399 . S
C355 C356 1.376 . S
C355 H375 0.931 1_554 S
C356 N351 1.338 . S
C356 C355 1.376 . S
C356 H367 0.930 1_554 S
C357 O364 1.239 . S
C357 O365 1.230 . S
O358 Cd322 2.268 1_556 S
O358 C332 1.238 . S
O359 Cd323 2.273 . S
O359 C332 1.253 . S
O360 Cd323 2.268 1_554 S
O360 C349 1.238 . S
O361 Cd322 2.273 . S
O361 C349 1.253 . S
O362 Cd322 2.417 . S
O362 C350 1.239 . S
O363 Cd322 2.330 . S
O363 C350 1.230 . S
O364 Cd323 2.417 . S
O364 C357 1.239 . S
O365 Cd323 2.330 . S
O365 C357 1.230 . S
H366 C352 0.929 . S
H367 C356 0.930 1_556 S
H368 C326 0.931 1_556 S
H369 C328 0.930 . S
H370 C334 0.929 . S
H371 C336 0.931 1_554 S
H372 C343 0.931 1_554 S
H373 C345 0.930 . S
H374 C353 0.929 . S
H375 C355 0.931 1_556 S
Cd376 N379 2.334 1_655 S
Cd376 N405 2.304 . S
Cd376 O412 2.268 . S
Cd376 O415 2.273 1_655 S
Cd376 O416 2.417 . S
Cd376 O417 2.330 . S
Cd377 N392 2.304 1_455 S
Cd377 N396 2.334 . S
Cd377 O413 2.273 1_455 S
Cd377 O414 2.268 . S
Cd377 O418 2.417 . S
Cd377 O419 2.330 . S
C378 N379 1.332 . S
C378 C382 1.381 . S
C378 H384 0.931 . S
N379 Cd376 2.334 1_455 S
N379 C378 1.332 . S
N379 C383 1.328 . S
C380 C381 1.396 . S
C380 C383 1.378 . S
C380 H422 0.931 . S
C381 C380 1.396 . S
C381 C382 1.382 . S
C382 C378 1.381 . S
C382 C381 1.382 . S
C382 H423 0.930 . S
C383 N379 1.328 . S
C383 C380 1.378 . S
C383 H385 0.930 1_455 S
H384 C378 0.931 . S
H385 C383 0.930 1_655 S
C386 O412 1.238 . S
C386 O413 1.253 . S
C387 C388 1.379 . S
C387 N392 1.337 . S
C387 H393 0.929 . S
C388 C387 1.379 . S
C388 C389 1.380 . S
C388 H424 0.929 . S
C389 C388 1.380 . S
C389 C390 1.399 . S
C390 C389 1.399 . S
C390 C391 1.376 . S
C390 H425 0.931 . S
C391 C390 1.376 . S
C391 N392 1.338 . S
C391 H394 0.930 1_655 S
N392 Cd377 2.304 1_655 S
N392 C387 1.337 . S
N392 C391 1.338 . S
H393 C387 0.929 . S
H394 C391 0.930 1_455 S
C395 N396 1.332 . S
C395 C399 1.381 . S
C395 H401 0.931 . S
N396 Cd377 2.334 . S
N396 C395 1.332 . S
N396 C400 1.328 . S
C397 C398 1.396 . S
C397 C400 1.378 . S
C397 H426 0.931 . S
C398 C397 1.396 . S
C398 C399 1.382 . S
C399 C395 1.381 . S
C399 C398 1.382 . S
C399 H427 0.930 . S
C400 N396 1.328 . S
C400 C397 1.378 . S
C400 H402 0.930 . S
H401 C395 0.931 . S
H402 C400 0.930 . S
C403 O414 1.238 . S
C403 O415 1.253 . S
C404 O416 1.239 . S
C404 O417 1.230 . S
N405 Cd376 2.304 . S
N405 C406 1.337 . S
N405 C410 1.338 . S
C406 N405 1.337 . S
C406 C407 1.379 . S
C406 H420 0.929 . S
C407 C406 1.379 . S
C407 C408 1.380 . S
C407 H428 0.929 . S
C408 C407 1.380 . S
C408 C409 1.399 . S
C409 C408 1.399 . S
C409 C410 1.376 . S
C409 H429 0.931 . S
C410 N405 1.338 . S
C410 C409 1.376 . S
C410 H421 0.930 . S
C411 O418 1.239 . S
C411 O419 1.230 . S
O412 Cd376 2.268 . S
O412 C386 1.238 . S
O413 Cd377 2.273 1_655 S
O413 C386 1.253 . S
O414 Cd377 2.268 . S
O414 C403 1.238 . S
O415 Cd376 2.273 1_455 S
O415 C403 1.253 . S
O416 Cd376 2.417 . S
O416 C404 1.239 . S
O417 Cd376 2.330 . S
O417 C404 1.230 . S
O418 Cd377 2.417 . S
O418 C411 1.239 . S
O419 Cd377 2.330 . S
O419 C411 1.230 . S
H420 C406 0.929 . S
H421 C410 0.930 . S
H422 C380 0.931 . S
H423 C382 0.930 . S
H424 C388 0.929 . S
H425 C390 0.931 . S
H426 C397 0.931 . S
H427 C399 0.930 . S
H428 C407 0.929 . S
H429 C409 0.931 . S
Cd430 N433 2.334 . S
Cd430 N459 2.304 1_565 S
Cd430 O466 2.268 . S
Cd430 O469 2.273 1_565 S
Cd430 O470 2.417 . S
Cd430 O471 2.330 . S
Cd431 N446 2.304 . S
Cd431 N450 2.334 1_545 S
Cd431 O467 2.273 1_545 S
Cd431 O468 2.268 . S
Cd431 O472 2.417 . S
Cd431 O473 2.330 . S
C432 N433 1.332 . S
C432 C436 1.381 . S
C432 H438 0.931 . S
N433 Cd430 2.334 . S
N433 C432 1.332 . S
N433 C437 1.328 . S
C434 C435 1.396 . S
C434 C437 1.378 . S
C434 H476 0.931 . S
C435 C434 1.396 . S
C435 C436 1.382 . S
C436 C432 1.381 . S
C436 C435 1.382 . S
C436 H477 0.930 . S
C437 N433 1.328 . S
C437 C434 1.378 . S
C437 H439 0.930 . S
H438 C432 0.931 . S
H439 C437 0.930 . S
C440 O466 1.238 . S
C440 O467 1.253 . S
C441 C442 1.379 . S
C441 N446 1.337 . S
C441 H447 0.929 . S
C442 C441 1.379 . S
C442 C443 1.380 . S
C442 H478 0.929 . S
C443 C442 1.380 . S
C443 C444 1.399 . S
C444 C443 1.399 . S
C444 C445 1.376 . S
C444 H479 0.931 . S
C445 C444 1.376 . S
C445 N446 1.338 . S
C445 H448 0.930 . S
N446 Cd431 2.304 . S
N446 C441 1.337 . S
N446 C445 1.338 . S
H447 C441 0.929 . S
H448 C445 0.930 . S
C449 N450 1.332 . S
C449 C453 1.381 . S
C449 H455 0.931 . S
N450 Cd431 2.334 1_565 S
N450 C449 1.332 . S
N450 C454 1.328 . S
C451 C452 1.396 . S
C451 C454 1.378 . S
C451 H480 0.931 . S
C452 C451 1.396 . S
C452 C453 1.382 . S
C453 C449 1.381 . S
C453 C452 1.382 . S
C453 H481 0.930 . S
C454 N450 1.328 . S
C454 C451 1.378 . S
C454 H456 0.930 1_565 S
H455 C449 0.931 . S
H456 C454 0.930 1_545 S
C457 O468 1.238 . S
C457 O469 1.253 . S
C458 O470 1.239 . S
C458 O471 1.230 . S
N459 Cd430 2.304 1_545 S
N459 C460 1.337 . S
N459 C464 1.338 . S
C460 N459 1.337 . S
C460 C461 1.379 . S
C460 H474 0.929 . S
C461 C460 1.379 . S
C461 C462 1.380 . S
C461 H482 0.929 . S
C462 C461 1.380 . S
C462 C463 1.399 . S
C463 C462 1.399 . S
C463 C464 1.376 . S
C463 H483 0.931 . S
C464 N459 1.338 . S
C464 C463 1.376 . S
C464 H475 0.930 1_545 S
C465 O472 1.239 . S
C465 O473 1.230 . S
O466 Cd430 2.268 . S
O466 C440 1.238 . S
O467 Cd431 2.273 1_565 S
O467 C440 1.253 . S
O468 Cd431 2.268 . S
O468 C457 1.238 . S
O469 Cd430 2.273 1_545 S
O469 C457 1.253 . S
O470 Cd430 2.417 . S
O470 C458 1.239 . S
O471 Cd430 2.330 . S
O471 C458 1.230 . S
O472 Cd431 2.417 . S
O472 C465 1.239 . S
O473 Cd431 2.330 . S
O473 C465 1.230 . S
H474 C460 0.929 . S
H475 C464 0.930 1_565 S
H476 C434 0.931 . S
H477 C436 0.930 . S
H478 C442 0.929 . S
H479 C444 0.931 . S
H480 C451 0.931 . S
H481 C453 0.930 . S
H482 C461 0.929 . S
H483 C463 0.931 . S
H484 C490 0.930 . S
H485 C494 0.930 . S
H486 C499 0.929 . S
H487 C497 0.929 . S
H488 C492 0.929 . S
H489 C498 0.929 . S
C490 H484 0.930 . S
C490 C491 1.367 . S
C490 C498 1.378 . S
C491 C490 1.367 . S
C491 C499 1.433 . S
C492 H488 0.929 . S
C492 C494 1.378 . S
C492 C496 1.350 . S
C493 C496 1.463 . S
C493 C498 1.350 . S
C493 N501 1.427 . S
C494 H485 0.930 . S
C494 C492 1.378 . S
C494 C495 1.367 . S
C495 C494 1.367 . S
C495 C497 1.433 . S
C496 C492 1.350 . S
C496 C493 1.463 . S
C496 N500 1.427 . S
C497 H487 0.929 . S
C497 C495 1.433 . S
C497 N500 1.384 . S
C498 H489 0.929 . S
C498 C490 1.378 . S
C498 C493 1.350 . S
C499 H486 0.929 . S
C499 C491 1.433 . S
C499 N501 1.384 . S
N500 C496 1.427 . S
N500 C497 1.384 . S
N501 C493 1.427 . S
N501 C499 1.384 . S
H502 C508 0.930 . S
H503 C512 0.930 . S
H504 C517 0.929 . S
H505 C515 0.929 . S
H506 C510 0.929 . S
H507 C516 0.929 . S
C508 H502 0.930 . S
C508 C509 1.367 . S
C508 C516 1.378 . S
C509 C508 1.367 . S
C509 C517 1.433 . S
C510 H506 0.929 . S
C510 C512 1.378 . S
C510 C514 1.350 . S
C511 C514 1.463 . S
C511 C516 1.350 . S
C511 N519 1.427 . S
C512 H503 0.930 . S
C512 C510 1.378 . S
C512 C513 1.367 . S
C513 C512 1.367 . S
C513 C515 1.433 . S
C514 C510 1.350 . S
C514 C511 1.463 . S
C514 N518 1.427 . S
C515 H505 0.929 . S
C515 C513 1.433 . S
C515 N518 1.384 . S
C516 H507 0.929 . S
C516 C508 1.378 . S
C516 C511 1.350 . S
C517 H504 0.929 . S
C517 C509 1.433 . S
C517 N519 1.384 . S
N518 C514 1.427 . S
N518 C515 1.384 . S
N519 C511 1.427 . S
N519 C517 1.384 . S
H520 C526 0.930 . S
H521 C530 0.930 . S
H522 C535 0.929 . S
H523 C533 0.929 . S
H524 C528 0.929 . S
H525 C534 0.929 . S
C526 H520 0.930 . S
C526 C527 1.367 . S
C526 C534 1.378 . S
C527 C526 1.367 . S
C527 C535 1.433 . S
C528 H524 0.929 . S
C528 C530 1.378 . S
C528 C532 1.350 . S
C529 C532 1.463 . S
C529 C534 1.350 . S
C529 N537 1.427 . S
C530 H521 0.930 . S
C530 C528 1.378 . S
C530 C531 1.367 . S
C531 C530 1.367 . S
C531 C533 1.433 . S
C532 C528 1.350 . S
C532 C529 1.463 . S
C532 N536 1.427 . S
C533 H523 0.929 . S
C533 C531 1.433 . S
C533 N536 1.384 . S
C534 H525 0.929 . S
C534 C526 1.378 . S
C534 C529 1.350 . S
C535 H522 0.929 . S
C535 C527 1.433 . S
C535 N537 1.384 . S
N536 C532 1.427 . S
N536 C533 1.384 . S
N537 C529 1.427 . S
N537 C535 1.384 . S
H538 C544 0.930 . S
H539 C548 0.930 . S
H540 C553 0.929 . S
H541 C551 0.929 . S
H542 C546 0.929 . S
H543 C552 0.929 . S
C544 H538 0.930 . S
C544 C545 1.367 . S
C544 C552 1.378 . S
C545 C544 1.367 . S
C545 C553 1.433 . S
C546 H542 0.929 . S
C546 C548 1.378 . S
C546 C550 1.350 . S
C547 C550 1.463 . S
C547 C552 1.350 . S
C547 N555 1.427 . S
C548 H539 0.930 . S
C548 C546 1.378 . S
C548 C549 1.367 . S
C549 C548 1.367 . S
C549 C551 1.433 . S
C550 C546 1.350 . S
C550 C547 1.463 . S
C550 N554 1.427 . S
C551 H541 0.929 . S
C551 C549 1.433 . S
C551 N554 1.384 . S
C552 H543 0.929 . S
C552 C544 1.378 . S
C552 C547 1.350 . S
C553 H540 0.929 . S
C553 C545 1.433 . S
C553 N555 1.384 . S
N554 C550 1.427 . S
N554 C551 1.384 . S
N555 C547 1.427 . S
N555 C553 1.384 . S
H556 C562 0.930 . S
H557 C566 0.930 . S
H558 C571 0.929 . S
H559 C569 0.929 . S
H560 C564 0.929 . S
H561 C570 0.929 . S
C562 H556 0.930 . S
C562 C563 1.367 . S
C562 C570 1.378 . S
C563 C562 1.367 . S
C563 C571 1.433 . S
C564 H560 0.929 . S
C564 C566 1.378 . S
C564 C568 1.350 . S
C565 C568 1.463 . S
C565 C570 1.350 . S
C565 N573 1.427 . S
C566 H557 0.930 . S
C566 C564 1.378 . S
C566 C567 1.367 . S
C567 C566 1.367 . S
C567 C569 1.433 . S
C568 C564 1.350 . S
C568 C565 1.463 . S
C568 N572 1.427 . S
C569 H559 0.929 . S
C569 C567 1.433 . S
C569 N572 1.384 . S
C570 H561 0.929 . S
C570 C562 1.378 . S
C570 C565 1.350 . S
C571 H558 0.929 . S
C571 C563 1.433 . S
C571 N573 1.384 . S
N572 C568 1.427 . S
N572 C569 1.384 . S
N573 C565 1.427 . S
N573 C571 1.384 . S
H574 C580 0.930 . S
H575 C584 0.930 . S
H576 C589 0.929 . S
H577 C587 0.929 . S
H578 C582 0.929 . S
H579 C588 0.929 . S
C580 H574 0.930 . S
C580 C581 1.367 . S
C580 C588 1.378 . S
C581 C580 1.367 . S
C581 C589 1.433 . S
C582 H578 0.929 . S
C582 C584 1.378 . S
C582 C586 1.350 . S
C583 C586 1.463 . S
C583 C588 1.350 . S
C583 N591 1.427 . S
C584 H575 0.930 . S
C584 C582 1.378 . S
C584 C585 1.367 . S
C585 C584 1.367 . S
C585 C587 1.433 . S
C586 C582 1.350 . S
C586 C583 1.463 . S
C586 N590 1.427 . S
C587 H577 0.929 . S
C587 C585 1.433 . S
C587 N590 1.384 . S
C588 H579 0.929 . S
C588 C580 1.378 . S
C588 C583 1.350 . S
C589 H576 0.929 . S
C589 C581 1.433 . S
C589 N591 1.384 . S
N590 C586 1.427 . S
N590 C587 1.384 . S
N591 C583 1.427 . S
N591 C589 1.384 . S
H592 C598 0.930 . S
H593 C602 0.930 . S
H594 C607 0.929 . S
H595 C605 0.929 . S
H596 C600 0.929 . S
H597 C606 0.929 . S
C598 H592 0.930 . S
C598 C599 1.367 . S
C598 C606 1.378 . S
C599 C598 1.367 . S
C599 C607 1.433 . S
C600 H596 0.929 . S
C600 C602 1.378 . S
C600 C604 1.350 . S
C601 C604 1.463 . S
C601 C606 1.350 . S
C601 N609 1.427 . S
C602 H593 0.930 . S
C602 C600 1.378 . S
C602 C603 1.367 . S
C603 C602 1.367 . S
C603 C605 1.433 . S
C604 C600 1.350 . S
C604 C601 1.463 . S
C604 N608 1.427 . S
C605 H595 0.929 . S
C605 C603 1.433 . S
C605 N608 1.384 . S
C606 H597 0.929 . S
C606 C598 1.378 . S
C606 C601 1.350 . S
C607 H594 0.929 . S
C607 C599 1.433 . S
C607 N609 1.384 . S
N608 C604 1.427 . S
N608 C605 1.384 . S
N609 C601 1.427 . S
N609 C607 1.384 . S
H610 C616 0.930 . S
H611 C620 0.930 . S
H612 C625 0.929 . S
H613 C623 0.929 . S
H614 C618 0.929 . S
H615 C624 0.929 . S
C616 H610 0.930 . S
C616 C617 1.367 . S
C616 C624 1.378 . S
C617 C616 1.367 . S
C617 C625 1.433 . S
C618 H614 0.929 . S
C618 C620 1.378 . S
C618 C622 1.350 . S
C619 C622 1.463 . S
C619 C624 1.350 . S
C619 N627 1.427 . S
C620 H611 0.930 . S
C620 C618 1.378 . S
C620 C621 1.367 . S
C621 C620 1.367 . S
C621 C623 1.433 . S
C622 C618 1.350 . S
C622 C619 1.463 . S
C622 N626 1.427 . S
C623 H613 0.929 . S
C623 C621 1.433 . S
C623 N626 1.384 . S
C624 H615 0.929 . S
C624 C616 1.378 . S
C624 C619 1.350 . S
C625 H612 0.929 . S
C625 C617 1.433 . S
C625 N627 1.384 . S
N626 C622 1.427 . S
N626 C623 1.384 . S
N627 C619 1.427 . S
N627 C625 1.384 . S
H628 C634 0.930 . S
H629 C638 0.930 . S
H630 C643 0.929 . S
H631 C641 0.929 . S
H632 C636 0.929 . S
H633 C642 0.929 . S
C634 H628 0.930 . S
C634 C635 1.367 . S
C634 C642 1.378 . S
C635 C634 1.367 . S
C635 C643 1.433 . S
C636 H632 0.929 . S
C636 C638 1.378 . S
C636 C640 1.350 . S
C637 C640 1.463 . S
C637 C642 1.350 . S
C637 N645 1.427 . S
C638 H629 0.930 . S
C638 C636 1.378 . S
C638 C639 1.367 . S
C639 C638 1.367 . S
C639 C641 1.433 . S
C640 C636 1.350 . S
C640 C637 1.463 . S
C640 N644 1.427 . S
C641 H631 0.929 . S
C641 C639 1.433 . S
C641 N644 1.384 . S
C642 H633 0.929 . S
C642 C634 1.378 . S
C642 C637 1.350 . S
C643 H630 0.929 . S
C643 C635 1.433 . S
C643 N645 1.384 . S
N644 C640 1.427 . S
N644 C641 1.384 . S
N645 C637 1.427 . S
N645 C643 1.384 . S
H646 C652 0.930 . S
H647 C656 0.930 . S
H648 C661 0.929 . S
H649 C659 0.929 . S
H650 C654 0.929 . S
H651 C660 0.929 . S
C652 H646 0.930 . S
C652 C653 1.367 . S
C652 C660 1.378 . S
C653 C652 1.367 . S
C653 C661 1.433 . S
C654 H650 0.929 . S
C654 C656 1.378 . S
C654 C658 1.350 . S
C655 C658 1.463 . S
C655 C660 1.350 . S
C655 N663 1.427 . S
C656 H647 0.930 . S
C656 C654 1.378 . S
C656 C657 1.367 . S
C657 C656 1.367 . S
C657 C659 1.433 . S
C658 C654 1.350 . S
C658 C655 1.463 . S
C658 N662 1.427 . S
C659 H649 0.929 . S
C659 C657 1.433 . S
C659 N662 1.384 . S
C660 H651 0.929 . S
C660 C652 1.378 . S
C660 C655 1.350 . S
C661 H648 0.929 . S
C661 C653 1.433 . S
C661 N663 1.384 . S
N662 C658 1.427 . S
N662 C659 1.384 . S
N663 C655 1.427 . S
N663 C661 1.384 . S
H664 C670 0.930 . S
H665 C674 0.930 . S
H666 C679 0.929 . S
H667 C677 0.929 . S
H668 C672 0.929 . S
H669 C678 0.929 . S
C670 H664 0.930 . S
C670 C671 1.367 . S
C670 C678 1.378 . S
C671 C670 1.367 . S
C671 C679 1.433 . S
C672 H668 0.929 . S
C672 C674 1.378 . S
C672 C676 1.350 . S
C673 C676 1.463 . S
C673 C678 1.350 . S
C673 N681 1.427 . S
C674 H665 0.930 . S
C674 C672 1.378 . S
C674 C675 1.367 . S
C675 C674 1.367 . S
C675 C677 1.433 . S
C676 C672 1.350 . S
C676 C673 1.463 . S
C676 N680 1.427 . S
C677 H667 0.929 . S
C677 C675 1.433 . S
C677 N680 1.384 . S
C678 H669 0.929 . S
C678 C670 1.378 . S
C678 C673 1.350 . S
C679 H666 0.929 . S
C679 C671 1.433 . S
C679 N681 1.384 . S
N680 C676 1.427 . S
N680 C677 1.384 . S
N681 C673 1.427 . S
N681 C679 1.384 . S
H682 C688 0.930 . S
H683 C692 0.930 . S
H684 C697 0.929 . S
H685 C695 0.929 . S
H686 C690 0.929 . S
H687 C696 0.929 . S
C688 H682 0.930 . S
C688 C689 1.367 . S
C688 C696 1.378 . S
C689 C688 1.367 . S
C689 C697 1.433 . S
C690 H686 0.929 . S
C690 C692 1.378 . S
C690 C694 1.350 . S
C691 C694 1.463 . S
C691 C696 1.350 . S
C691 N699 1.427 . S
C692 H683 0.930 . S
C692 C690 1.378 . S
C692 C693 1.367 . S
C693 C692 1.367 . S
C693 C695 1.433 . S
C694 C690 1.350 . S
C694 C691 1.463 . S
C694 N698 1.427 . S
C695 H685 0.929 . S
C695 C693 1.433 . S
C695 N698 1.384 . S
C696 H687 0.929 . S
C696 C688 1.378 . S
C696 C691 1.350 . S
C697 H684 0.929 . S
C697 C689 1.433 . S
C697 N699 1.384 . S
N698 C694 1.427 . S
N698 C695 1.384 . S
N699 C691 1.427 . S
N699 C697 1.384 . S
H700 C706 0.930 . S
H701 C710 0.930 . S
H702 C715 0.929 . S
H703 C713 0.929 . S
H704 C708 0.929 . S
H705 C714 0.929 . S
C706 H700 0.930 . S
C706 C707 1.367 . S
C706 C714 1.378 . S
C707 C706 1.367 . S
C707 C715 1.433 . S
C708 H704 0.929 . S
C708 C710 1.378 . S
C708 C712 1.350 . S
C709 C712 1.463 . S
C709 C714 1.350 . S
C709 N717 1.427 . S
C710 H701 0.930 . S
C710 C708 1.378 . S
C710 C711 1.367 . S
C711 C710 1.367 . S
C711 C713 1.433 . S
C712 C708 1.350 . S
C712 C709 1.463 . S
C712 N716 1.427 . S
C713 H703 0.929 . S
C713 C711 1.433 . S
C713 N716 1.384 . S
C714 H705 0.929 . S
C714 C706 1.378 . S
C714 C709 1.350 . S
C715 H702 0.929 . S
C715 C707 1.433 . S
C715 N717 1.384 . S
N716 C712 1.427 . S
N716 C713 1.384 . S
N717 C709 1.427 . S
N717 C715 1.384 . S
H718 C724 0.930 . S
H719 C728 0.930 . S
H720 C733 0.929 . S
H721 C731 0.929 . S
H722 C726 0.929 . S
H723 C732 0.929 . S
C724 H718 0.930 . S
C724 C725 1.367 . S
C724 C732 1.378 . S
C725 C724 1.367 . S
C725 C733 1.433 . S
C726 H722 0.929 . S
C726 C728 1.378 . S
C726 C730 1.350 . S
C727 C730 1.463 . S
C727 C732 1.350 . S
C727 N735 1.427 . S
C728 H719 0.930 . S
C728 C726 1.378 . S
C728 C729 1.367 . S
C729 C728 1.367 . S
C729 C731 1.433 . S
C730 C726 1.350 . S
C730 C727 1.463 . S
C730 N734 1.427 . S
C731 H721 0.929 . S
C731 C729 1.433 . S
C731 N734 1.384 . S
C732 H723 0.929 . S
C732 C724 1.378 . S
C732 C727 1.350 . S
C733 H720 0.929 . S
C733 C725 1.433 . S
C733 N735 1.384 . S
N734 C730 1.427 . S
N734 C731 1.384 . S
N735 C727 1.427 . S
N735 C733 1.384 . S
H736 C742 0.930 . S
H737 C746 0.930 . S
H738 C751 0.929 . S
H739 C749 0.929 . S
H740 C744 0.929 . S
H741 C750 0.929 . S
C742 H736 0.930 . S
C742 C743 1.367 . S
C742 C750 1.378 . S
C743 C742 1.367 . S
C743 C751 1.433 . S
C744 H740 0.929 . S
C744 C746 1.378 . S
C744 C748 1.350 . S
C745 C748 1.463 . S
C745 C750 1.350 . S
C745 N753 1.427 . S
C746 H737 0.930 . S
C746 C744 1.378 . S
C746 C747 1.367 . S
C747 C746 1.367 . S
C747 C749 1.433 . S
C748 C744 1.350 . S
C748 C745 1.463 . S
C748 N752 1.427 . S
C749 H739 0.929 . S
C749 C747 1.433 . S
C749 N752 1.384 . S
C750 H741 0.929 . S
C750 C742 1.378 . S
C750 C745 1.350 . S
C751 H738 0.929 . S
C751 C743 1.433 . S
C751 N753 1.384 . S
N752 C748 1.427 . S
N752 C749 1.384 . S
N753 C745 1.427 . S
N753 C751 1.384 . S
H754 C760 0.930 . S
H755 C764 0.930 . S
H756 C769 0.929 . S
H757 C767 0.929 . S
H758 C762 0.929 . S
H759 C768 0.929 . S
C760 H754 0.930 . S
C760 C761 1.367 . S
C760 C768 1.378 . S
C761 C760 1.367 . S
C761 C769 1.433 . S
C762 H758 0.929 . S
C762 C764 1.378 . S
C762 C766 1.350 . S
C763 C766 1.463 . S
C763 C768 1.350 . S
C763 N771 1.427 . S
C764 H755 0.930 . S
C764 C762 1.378 . S
C764 C765 1.367 . S
C765 C764 1.367 . S
C765 C767 1.433 . S
C766 C762 1.350 . S
C766 C763 1.463 . S
C766 N770 1.427 . S
C767 H757 0.929 . S
C767 C765 1.433 . S
C767 N770 1.384 . S
C768 H759 0.929 . S
C768 C760 1.378 . S
C768 C763 1.350 . S
C769 H756 0.929 . S
C769 C761 1.433 . S
C769 N771 1.384 . S
N770 C766 1.427 . S
N770 C767 1.384 . S
N771 C763 1.427 . S
N771 C769 1.384 . S
H772 C778 0.930 . S
H773 C782 0.930 . S
H774 C787 0.929 . S
H775 C785 0.929 . S
H776 C780 0.929 . S
H777 C786 0.929 . S
C778 H772 0.930 . S
C778 C779 1.367 . S
C778 C786 1.378 . S
C779 C778 1.367 . S
C779 C787 1.433 . S
C780 H776 0.929 . S
C780 C782 1.378 . S
C780 C784 1.350 . S
C781 C784 1.463 . S
C781 C786 1.350 . S
C781 N789 1.427 . S
C782 H773 0.930 . S
C782 C780 1.378 . S
C782 C783 1.367 . S
C783 C782 1.367 . S
C783 C785 1.433 . S
C784 C780 1.350 . S
C784 C781 1.463 . S
C784 N788 1.427 . S
C785 H775 0.929 . S
C785 C783 1.433 . S
C785 N788 1.384 . S
C786 H777 0.929 . S
C786 C778 1.378 . S
C786 C781 1.350 . S
C787 H774 0.929 . S
C787 C779 1.433 . S
C787 N789 1.384 . S
N788 C784 1.427 . S
N788 C785 1.384 . S
N789 C781 1.427 . S
N789 C787 1.384 . S
H790 C796 0.930 . S
H791 C800 0.930 . S
H792 C805 0.929 . S
H793 C803 0.929 . S
H794 C798 0.929 . S
H795 C804 0.929 . S
C796 H790 0.930 . S
C796 C797 1.367 . S
C796 C804 1.378 . S
C797 C796 1.367 . S
C797 C805 1.433 . S
C798 H794 0.929 . S
C798 C800 1.378 . S
C798 C802 1.350 . S
C799 C802 1.463 . S
C799 C804 1.350 . S
C799 N807 1.427 . S
C800 H791 0.930 . S
C800 C798 1.378 . S
C800 C801 1.367 . S
C801 C800 1.367 . S
C801 C803 1.433 . S
C802 C798 1.350 . S
C802 C799 1.463 . S
C802 N806 1.427 . S
C803 H793 0.929 . S
C803 C801 1.433 . S
C803 N806 1.384 . S
C804 H795 0.929 . S
C804 C796 1.378 . S
C804 C799 1.350 . S
C805 H792 0.929 . S
C805 C797 1.433 . S
C805 N807 1.384 . S
N806 C802 1.427 . S
N806 C803 1.384 . S
N807 C799 1.427 . S
N807 C805 1.384 . S
H808 C814 0.930 . S
H809 C818 0.930 . S
H810 C823 0.929 . S
H811 C821 0.929 . S
H812 C816 0.929 . S
H813 C822 0.929 . S
C814 H808 0.930 . S
C814 C815 1.367 . S
C814 C822 1.378 . S
C815 C814 1.367 . S
C815 C823 1.433 . S
C816 H812 0.929 . S
C816 C818 1.378 . S
C816 C820 1.350 . S
C817 C820 1.463 . S
C817 C822 1.350 . S
C817 N825 1.427 . S
C818 H809 0.930 . S
C818 C816 1.378 . S
C818 C819 1.367 . S
C819 C818 1.367 . S
C819 C821 1.433 . S
C820 C816 1.350 . S
C820 C817 1.463 . S
C820 N824 1.427 . S
C821 H811 0.929 . S
C821 C819 1.433 . S
C821 N824 1.384 . S
C822 H813 0.929 . S
C822 C814 1.378 . S
C822 C817 1.350 . S
C823 H810 0.929 . S
C823 C815 1.433 . S
C823 N825 1.384 . S
N824 C820 1.427 . S
N824 C821 1.384 . S
N825 C817 1.427 . S
N825 C823 1.384 . S
H826 C832 0.930 . S
H827 C836 0.930 . S
H828 C841 0.929 . S
H829 C839 0.929 . S
H830 C834 0.929 . S
H831 C840 0.929 . S
C832 H826 0.930 . S
C832 C833 1.367 . S
C832 C840 1.378 . S
C833 C832 1.367 . S
C833 C841 1.433 . S
C834 H830 0.929 . S
C834 C836 1.378 . S
C834 C838 1.350 . S
C835 C838 1.463 . S
C835 C840 1.350 . S
C835 N843 1.427 . S
C836 H827 0.930 . S
C836 C834 1.378 . S
C836 C837 1.367 . S
C837 C836 1.367 . S
C837 C839 1.433 . S
C838 C834 1.350 . S
C838 C835 1.463 . S
C838 N842 1.427 . S
C839 H829 0.929 . S
C839 C837 1.433 . S
C839 N842 1.384 . S
C840 H831 0.929 . S
C840 C832 1.378 . S
C840 C835 1.350 . S
C841 H828 0.929 . S
C841 C833 1.433 . S
C841 N843 1.384 . S
N842 C838 1.427 . S
N842 C839 1.384 . S
N843 C835 1.427 . S
N843 C841 1.384 . S
H844 C850 0.930 . S
H845 C854 0.930 . S
H846 C859 0.929 . S
H847 C857 0.929 . S
H848 C852 0.929 . S
H849 C858 0.929 . S
C850 H844 0.930 . S
C850 C851 1.367 . S
C850 C858 1.378 . S
C851 C850 1.367 . S
C851 C859 1.433 . S
C852 H848 0.929 . S
C852 C854 1.378 . S
C852 C856 1.350 . S
C853 C856 1.463 . S
C853 C858 1.350 . S
C853 N861 1.427 . S
C854 H845 0.930 . S
C854 C852 1.378 . S
C854 C855 1.367 . S
C855 C854 1.367 . S
C855 C857 1.433 . S
C856 C852 1.350 . S
C856 C853 1.463 . S
C856 N860 1.427 . S
C857 H847 0.929 . S
C857 C855 1.433 . S
C857 N860 1.384 . S
C858 H849 0.929 . S
C858 C850 1.378 . S
C858 C853 1.350 . S
C859 H846 0.929 . S
C859 C851 1.433 . S
C859 N861 1.384 . S
N860 C856 1.427 . S
N860 C857 1.384 . S
N861 C853 1.427 . S
N861 C859 1.384 . S
H862 C868 0.930 . S
H863 C872 0.930 . S
H864 C877 0.929 . S
H865 C875 0.929 . S
H866 C870 0.929 . S
H867 C876 0.929 . S
C868 H862 0.930 . S
C868 C869 1.367 . S
C868 C876 1.378 . S
C869 C868 1.367 . S
C869 C877 1.433 . S
C870 H866 0.929 . S
C870 C872 1.378 . S
C870 C874 1.350 . S
C871 C874 1.463 . S
C871 C876 1.350 . S
C871 N879 1.427 . S
C872 H863 0.930 . S
C872 C870 1.378 . S
C872 C873 1.367 . S
C873 C872 1.367 . S
C873 C875 1.433 . S
C874 C870 1.350 . S
C874 C871 1.463 . S
C874 N878 1.427 . S
C875 H865 0.929 . S
C875 C873 1.433 . S
C875 N878 1.384 . S
C876 H867 0.929 . S
C876 C868 1.378 . S
C876 C871 1.350 . S
C877 H864 0.929 . S
C877 C869 1.433 . S
C877 N879 1.384 . S
N878 C874 1.427 . S
N878 C875 1.384 . S
N879 C871 1.427 . S
N879 C877 1.384 . S
H880 C886 0.930 . S
H881 C890 0.930 . S
H882 C895 0.929 . S
H883 C893 0.929 . S
H884 C888 0.929 . S
H885 C894 0.929 . S
C886 H880 0.930 . S
C886 C887 1.367 . S
C886 C894 1.378 . S
C887 C886 1.367 . S
C887 C895 1.433 . S
C888 H884 0.929 . S
C888 C890 1.378 . S
C888 C892 1.350 . S
C889 C892 1.463 . S
C889 C894 1.350 . S
C889 N897 1.427 . S
C890 H881 0.930 . S
C890 C888 1.378 . S
C890 C891 1.367 . S
C891 C890 1.367 . S
C891 C893 1.433 . S
C892 C888 1.350 . S
C892 C889 1.463 . S
C892 N896 1.427 . S
C893 H883 0.929 . S
C893 C891 1.433 . S
C893 N896 1.384 . S
C894 H885 0.929 . S
C894 C886 1.378 . S
C894 C889 1.350 . S
C895 H882 0.929 . S
C895 C887 1.433 . S
C895 N897 1.384 . S
N896 C892 1.427 . S
N896 C893 1.384 . S
N897 C889 1.427 . S
N897 C895 1.384 . S
H898 C904 0.930 . S
H899 C908 0.930 . S
H900 C913 0.929 . S
H901 C911 0.929 . S
H902 C906 0.929 . S
H903 C912 0.929 . S
C904 H898 0.930 . S
C904 C905 1.367 . S
C904 C912 1.378 . S
C905 C904 1.367 . S
C905 C913 1.433 . S
C906 H902 0.929 . S
C906 C908 1.378 . S
C906 C910 1.350 . S
C907 C910 1.463 . S
C907 C912 1.350 . S
C907 N915 1.427 . S
C908 H899 0.930 . S
C908 C906 1.378 . S
C908 C909 1.367 . S
C909 C908 1.367 . S
C909 C911 1.433 . S
C910 C906 1.350 . S
C910 C907 1.463 . S
C910 N914 1.427 . S
C911 H901 0.929 . S
C911 C909 1.433 . S
C911 N914 1.384 . S
C912 H903 0.929 . S
C912 C904 1.378 . S
C912 C907 1.350 . S
C913 H900 0.929 . S
C913 C905 1.433 . S
C913 N915 1.384 . S
N914 C910 1.427 . S
N914 C911 1.384 . S
N915 C907 1.427 . S
N915 C913 1.384 . S
H916 C922 0.930 . S
H917 C926 0.930 . S
H918 C931 0.929 . S
H919 C929 0.929 . S
H920 C924 0.929 . S
H921 C930 0.929 . S
C922 H916 0.930 . S
C922 C923 1.367 . S
C922 C930 1.378 . S
C923 C922 1.367 . S
C923 C931 1.433 . S
C924 H920 0.929 . S
C924 C926 1.378 . S
C924 C928 1.350 . S
C925 C928 1.463 . S
C925 C930 1.350 . S
C925 N933 1.427 . S
C926 H917 0.930 . S
C926 C924 1.378 . S
C926 C927 1.367 . S
C927 C926 1.367 . S
C927 C929 1.433 . S
C928 C924 1.350 . S
C928 C925 1.463 . S
C928 N932 1.427 . S
C929 H919 0.929 . S
C929 C927 1.433 . S
C929 N932 1.384 . S
C930 H921 0.929 . S
C930 C922 1.378 . S
C930 C925 1.350 . S
C931 H918 0.929 . S
C931 C923 1.433 . S
C931 N933 1.384 . S
N932 C928 1.427 . S
N932 C929 1.384 . S
N933 C925 1.427 . S
N933 C931 1.384 . S
H934 C940 0.930 . S
H935 C944 0.930 . S
H936 C949 0.929 . S
H937 C947 0.929 . S
H938 C942 0.929 . S
H939 C948 0.929 . S
C940 H934 0.930 . S
C940 C941 1.367 . S
C940 C948 1.378 . S
C941 C940 1.367 . S
C941 C949 1.433 . S
C942 H938 0.929 . S
C942 C944 1.378 . S
C942 C946 1.350 . S
C943 C946 1.463 . S
C943 C948 1.350 . S
C943 N951 1.427 . S
C944 H935 0.930 . S
C944 C942 1.378 . S
C944 C945 1.367 . S
C945 C944 1.367 . S
C945 C947 1.433 . S
C946 C942 1.350 . S
C946 C943 1.463 . S
C946 N950 1.427 . S
C947 H937 0.929 . S
C947 C945 1.433 . S
C947 N950 1.384 . S
C948 H939 0.929 . S
C948 C940 1.378 . S
C948 C943 1.350 . S
C949 H936 0.929 . S
C949 C941 1.433 . S
C949 N951 1.384 . S
N950 C946 1.427 . S
N950 C947 1.384 . S
N951 C943 1.427 . S
N951 C949 1.384 . S
H952 C958 0.930 . S
H953 C962 0.930 . S
H954 C967 0.929 . S
H955 C965 0.929 . S
H956 C960 0.929 . S
H957 C966 0.929 . S
C958 H952 0.930 . S
C958 C959 1.367 . S
C958 C966 1.378 . S
C959 C958 1.367 . S
C959 C967 1.433 . S
C960 H956 0.929 . S
C960 C962 1.378 . S
C960 C964 1.350 . S
C961 C964 1.463 . S
C961 C966 1.350 . S
C961 N969 1.427 . S
C962 H953 0.930 . S
C962 C960 1.378 . S
C962 C963 1.367 . S
C963 C962 1.367 . S
C963 C965 1.433 . S
C964 C960 1.350 . S
C964 C961 1.463 . S
C964 N968 1.427 . S
C965 H955 0.929 . S
C965 C963 1.433 . S
C965 N968 1.384 . S
C966 H957 0.929 . S
C966 C958 1.378 . S
C966 C961 1.350 . S
C967 H954 0.929 . S
C967 C959 1.433 . S
C967 N969 1.384 . S
N968 C964 1.427 . S
N968 C965 1.384 . S
N969 C961 1.427 . S
N969 C967 1.384 . S
H970 C976 0.930 . S
H971 C980 0.930 . S
H972 C985 0.929 . S
H973 C983 0.929 . S
H974 C978 0.929 . S
H975 C984 0.929 . S
C976 H970 0.930 . S
C976 C977 1.367 . S
C976 C984 1.378 . S
C977 C976 1.367 . S
C977 C985 1.433 . S
C978 H974 0.929 . S
C978 C980 1.378 . S
C978 C982 1.350 . S
C979 C982 1.463 . S
C979 C984 1.350 . S
C979 N987 1.427 . S
C980 H971 0.930 . S
C980 C978 1.378 . S
C980 C981 1.367 . S
C981 C980 1.367 . S
C981 C983 1.433 . S
C982 C978 1.350 . S
C982 C979 1.463 . S
C982 N986 1.427 . S
C983 H973 0.929 . S
C983 C981 1.433 . S
C983 N986 1.384 . S
C984 H975 0.929 . S
C984 C976 1.378 . S
C984 C979 1.350 . S
C985 H972 0.929 . S
C985 C977 1.433 . S
C985 N987 1.384 . S
N986 C982 1.427 . S
N986 C983 1.384 . S
N987 C979 1.427 . S
N987 C985 1.384 . S
H988 C994 0.930 . S
H989 C998 0.930 . S
H990 C1003 0.929 . S
H991 C1001 0.929 . S
H992 C996 0.929 . S
H993 C1002 0.929 . S
C994 H988 0.930 . S
C994 C995 1.367 . S
C994 C1002 1.378 . S
C995 C994 1.367 . S
C995 C1003 1.433 . S
C996 H992 0.929 . S
C996 C998 1.378 . S
C996 C1000 1.350 . S
C997 C1000 1.463 . S
C997 C1002 1.350 . S
C997 N1005 1.427 . S
C998 H989 0.930 . S
C998 C996 1.378 . S
C998 C999 1.367 . S
C999 C998 1.367 . S
C999 C1001 1.433 . S
C1000 C996 1.350 . S
C1000 C997 1.463 . S
C1000 N1004 1.427 . S
C1001 H991 0.929 . S
C1001 C999 1.433 . S
C1001 N1004 1.384 . S
C1002 H993 0.929 . S
C1002 C994 1.378 . S
C1002 C997 1.350 . S
C1003 H990 0.929 . S
C1003 C995 1.433 . S
C1003 N1005 1.384 . S
N1004 C1000 1.427 . S
N1004 C1001 1.384 . S
N1005 C997 1.427 . S
N1005 C1003 1.384 . S
H1006 C1012 0.930 . S
H1007 C1016 0.930 . S
H1008 C1021 0.929 . S
H1009 C1019 0.929 . S
H1010 C1014 0.929 . S
H1011 C1020 0.929 . S
C1012 H1006 0.930 . S
C1012 C1013 1.367 . S
C1012 C1020 1.378 . S
C1013 C1012 1.367 . S
C1013 C1021 1.433 . S
C1014 H1010 0.929 . S
C1014 C1016 1.378 . S
C1014 C1018 1.350 . S
C1015 C1018 1.463 . S
C1015 C1020 1.350 . S
C1015 N1023 1.427 . S
C1016 H1007 0.930 . S
C1016 C1014 1.378 . S
C1016 C1017 1.367 . S
C1017 C1016 1.367 . S
C1017 C1019 1.433 . S
C1018 C1014 1.350 . S
C1018 C1015 1.463 . S
C1018 N1022 1.427 . S
C1019 H1009 0.929 . S
C1019 C1017 1.433 . S
C1019 N1022 1.384 . S
C1020 H1011 0.929 . S
C1020 C1012 1.378 . S
C1020 C1015 1.350 . S
C1021 H1008 0.929 . S
C1021 C1013 1.433 . S
C1021 N1023 1.384 . S
N1022 C1018 1.427 . S
N1022 C1019 1.384 . S
N1023 C1015 1.427 . S
N1023 C1021 1.384 . S
H1024 C1030 0.930 . S
H1025 C1034 0.930 . S
H1026 C1039 0.929 . S
H1027 C1037 0.929 . S
H1028 C1032 0.929 . S
H1029 C1038 0.929 . S
C1030 H1024 0.930 . S
C1030 C1031 1.367 . S
C1030 C1038 1.378 . S
C1031 C1030 1.367 . S
C1031 C1039 1.433 . S
C1032 H1028 0.929 . S
C1032 C1034 1.378 . S
C1032 C1036 1.350 . S
C1033 C1036 1.463 . S
C1033 C1038 1.350 . S
C1033 N1041 1.427 . S
C1034 H1025 0.930 . S
C1034 C1032 1.378 . S
C1034 C1035 1.367 . S
C1035 C1034 1.367 . S
C1035 C1037 1.433 . S
C1036 C1032 1.350 . S
C1036 C1033 1.463 . S
C1036 N1040 1.427 . S
C1037 H1027 0.929 . S
C1037 C1035 1.433 . S
C1037 N1040 1.384 . S
C1038 H1029 0.929 . S
C1038 C1030 1.378 . S
C1038 C1033 1.350 . S
C1039 H1026 0.929 . S
C1039 C1031 1.433 . S
C1039 N1041 1.384 . S
N1040 C1036 1.427 . S
N1040 C1037 1.384 . S
N1041 C1033 1.427 . S
N1041 C1039 1.384 . S
H1042 C1048 0.930 . S
H1043 C1052 0.930 . S
H1044 C1057 0.929 . S
H1045 C1055 0.929 . S
H1046 C1050 0.929 . S
H1047 C1056 0.929 . S
C1048 H1042 0.930 . S
C1048 C1049 1.367 . S
C1048 C1056 1.378 . S
C1049 C1048 1.367 . S
C1049 C1057 1.433 . S
C1050 H1046 0.929 . S
C1050 C1052 1.378 . S
C1050 C1054 1.350 . S
C1051 C1054 1.463 . S
C1051 C1056 1.350 . S
C1051 N1059 1.427 . S
C1052 H1043 0.930 . S
C1052 C1050 1.378 . S
C1052 C1053 1.367 . S
C1053 C1052 1.367 . S
C1053 C1055 1.433 . S
C1054 C1050 1.350 . S
C1054 C1051 1.463 . S
C1054 N1058 1.427 . S
C1055 H1045 0.929 . S
C1055 C1053 1.433 . S
C1055 N1058 1.384 . S
C1056 H1047 0.929 . S
C1056 C1048 1.378 . S
C1056 C1051 1.350 . S
C1057 H1044 0.929 . S
C1057 C1049 1.433 . S
C1057 N1059 1.384 . S
N1058 C1054 1.427 . S
N1058 C1055 1.384 . S
N1059 C1051 1.427 . S
N1059 C1057 1.384 . S
H1060 C1066 0.930 . S
H1061 C1070 0.930 . S
H1062 C1075 0.929 . S
H1063 C1073 0.929 . S
H1064 C1068 0.929 . S
H1065 C1074 0.929 . S
C1066 H1060 0.930 . S
C1066 C1067 1.367 . S
C1066 C1074 1.378 . S
C1067 C1066 1.367 . S
C1067 C1075 1.433 . S
C1068 H1064 0.929 . S
C1068 C1070 1.378 . S
C1068 C1072 1.350 . S
C1069 C1072 1.463 . S
C1069 C1074 1.350 . S
C1069 N1077 1.427 . S
C1070 H1061 0.930 . S
C1070 C1068 1.378 . S
C1070 C1071 1.367 . S
C1071 C1070 1.367 . S
C1071 C1073 1.433 . S
C1072 C1068 1.350 . S
C1072 C1069 1.463 . S
C1072 N1076 1.427 . S
C1073 H1063 0.929 . S
C1073 C1071 1.433 . S
C1073 N1076 1.384 . S
C1074 H1065 0.929 . S
C1074 C1066 1.378 . S
C1074 C1069 1.350 . S
C1075 H1062 0.929 . S
C1075 C1067 1.433 . S
C1075 N1077 1.384 . S
N1076 C1072 1.427 . S
N1076 C1073 1.384 . S
N1077 C1069 1.427 . S
N1077 C1075 1.384 . S
H1078 C1084 0.930 . S
H1079 C1088 0.930 . S
H1080 C1093 0.929 . S
H1081 C1091 0.929 . S
H1082 C1086 0.929 . S
H1083 C1092 0.929 . S
C1084 H1078 0.930 . S
C1084 C1085 1.367 . S
C1084 C1092 1.378 . S
C1085 C1084 1.367 . S
C1085 C1093 1.433 . S
C1086 H1082 0.929 . S
C1086 C1088 1.378 . S
C1086 C1090 1.350 . S
C1087 C1090 1.463 . S
C1087 C1092 1.350 . S
C1087 N1095 1.427 . S
C1088 H1079 0.930 . S
C1088 C1086 1.378 . S
C1088 C1089 1.367 . S
C1089 C1088 1.367 . S
C1089 C1091 1.433 . S
C1090 C1086 1.350 . S
C1090 C1087 1.463 . S
C1090 N1094 1.427 . S
C1091 H1081 0.929 . S
C1091 C1089 1.433 . S
C1091 N1094 1.384 . S
C1092 H1083 0.929 . S
C1092 C1084 1.378 . S
C1092 C1087 1.350 . S
C1093 H1080 0.929 . S
C1093 C1085 1.433 . S
C1093 N1095 1.384 . S
N1094 C1090 1.427 . S
N1094 C1091 1.384 . S
N1095 C1087 1.427 . S
N1095 C1093 1.384 . S
H1096 C1102 0.930 . S
H1097 C1106 0.930 . S
H1098 C1111 0.929 . S
H1099 C1109 0.929 . S
H1100 C1104 0.929 . S
H1101 C1110 0.929 . S
C1102 H1096 0.930 . S
C1102 C1103 1.367 . S
C1102 C1110 1.378 . S
C1103 C1102 1.367 . S
C1103 C1111 1.433 . S
C1104 H1100 0.929 . S
C1104 C1106 1.378 . S
C1104 C1108 1.350 . S
C1105 C1108 1.463 . S
C1105 C1110 1.350 . S
C1105 N1113 1.427 . S
C1106 H1097 0.930 . S
C1106 C1104 1.378 . S
C1106 C1107 1.367 . S
C1107 C1106 1.367 . S
C1107 C1109 1.433 . S
C1108 C1104 1.350 . S
C1108 C1105 1.463 . S
C1108 N1112 1.427 . S
C1109 H1099 0.929 . S
C1109 C1107 1.433 . S
C1109 N1112 1.384 . S
C1110 H1101 0.929 . S
C1110 C1102 1.378 . S
C1110 C1105 1.350 . S
C1111 H1098 0.929 . S
C1111 C1103 1.433 . S
C1111 N1113 1.384 . S
N1112 C1108 1.427 . S
N1112 C1109 1.384 . S
N1113 C1105 1.427 . S
N1113 C1111 1.384 . S
H1114 C1120 0.930 . S
H1115 C1124 0.930 . S
H1116 C1129 0.929 . S
H1117 C1127 0.929 . S
H1118 C1122 0.929 . S
H1119 C1128 0.929 . S
C1120 H1114 0.930 . S
C1120 C1121 1.367 . S
C1120 C1128 1.378 . S
C1121 C1120 1.367 . S
C1121 C1129 1.433 . S
C1122 H1118 0.929 . S
C1122 C1124 1.378 . S
C1122 C1126 1.350 . S
C1123 C1126 1.463 . S
C1123 C1128 1.350 . S
C1123 N1131 1.427 . S
C1124 H1115 0.930 . S
C1124 C1122 1.378 . S
C1124 C1125 1.367 . S
C1125 C1124 1.367 . S
C1125 C1127 1.433 . S
C1126 C1122 1.350 . S
C1126 C1123 1.463 . S
C1126 N1130 1.427 . S
C1127 H1117 0.929 . S
C1127 C1125 1.433 . S
C1127 N1130 1.384 . S
C1128 H1119 0.929 . S
C1128 C1120 1.378 . S
C1128 C1123 1.350 . S
C1129 H1116 0.929 . S
C1129 C1121 1.433 . S
C1129 N1131 1.384 . S
N1130 C1126 1.427 . S
N1130 C1127 1.384 . S
N1131 C1123 1.427 . S
N1131 C1129 1.384 . S
H1132 C1138 0.930 . S
H1133 C1142 0.930 . S
H1134 C1147 0.929 . S
H1135 C1145 0.929 . S
H1136 C1140 0.929 . S
H1137 C1146 0.929 . S
C1138 H1132 0.930 . S
C1138 C1139 1.367 . S
C1138 C1146 1.378 . S
C1139 C1138 1.367 . S
C1139 C1147 1.433 . S
C1140 H1136 0.929 . S
C1140 C1142 1.378 . S
C1140 C1144 1.350 . S
C1141 C1144 1.463 . S
C1141 C1146 1.350 . S
C1141 N1149 1.427 . S
C1142 H1133 0.930 . S
C1142 C1140 1.378 . S
C1142 C1143 1.367 . S
C1143 C1142 1.367 . S
C1143 C1145 1.433 . S
C1144 C1140 1.350 . S
C1144 C1141 1.463 . S
C1144 N1148 1.427 . S
C1145 H1135 0.929 . S
C1145 C1143 1.433 . S
C1145 N1148 1.384 . S
C1146 H1137 0.929 . S
C1146 C1138 1.378 . S
C1146 C1141 1.350 . S
C1147 H1134 0.929 . S
C1147 C1139 1.433 . S
C1147 N1149 1.384 . S
N1148 C1144 1.427 . S
N1148 C1145 1.384 . S
N1149 C1141 1.427 . S
N1149 C1147 1.384 . S
H1150 C1156 0.930 . S
H1151 C1160 0.930 . S
H1152 C1165 0.929 . S
H1153 C1163 0.929 . S
H1154 C1158 0.929 . S
H1155 C1164 0.929 . S
C1156 H1150 0.930 . S
C1156 C1157 1.367 . S
C1156 C1164 1.378 . S
C1157 C1156 1.367 . S
C1157 C1165 1.433 . S
C1158 H1154 0.929 . S
C1158 C1160 1.378 . S
C1158 C1162 1.350 . S
C1159 C1162 1.463 . S
C1159 C1164 1.350 . S
C1159 N1167 1.427 . S
C1160 H1151 0.930 . S
C1160 C1158 1.378 . S
C1160 C1161 1.367 . S
C1161 C1160 1.367 . S
C1161 C1163 1.433 . S
C1162 C1158 1.350 . S
C1162 C1159 1.463 . S
C1162 N1166 1.427 . S
C1163 H1153 0.929 . S
C1163 C1161 1.433 . S
C1163 N1166 1.384 . S
C1164 H1155 0.929 . S
C1164 C1156 1.378 . S
C1164 C1159 1.350 . S
C1165 H1152 0.929 . S
C1165 C1157 1.433 . S
C1165 N1167 1.384 . S
N1166 C1162 1.427 . S
N1166 C1163 1.384 . S
N1167 C1159 1.427 . S
N1167 C1165 1.384 . S
H1168 C1174 0.930 . S
H1169 C1178 0.930 . S
H1170 C1183 0.929 . S
H1171 C1181 0.929 . S
H1172 C1176 0.929 . S
H1173 C1182 0.929 . S
C1174 H1168 0.930 . S
C1174 C1175 1.367 . S
C1174 C1182 1.378 . S
C1175 C1174 1.367 . S
C1175 C1183 1.433 . S
C1176 H1172 0.929 . S
C1176 C1178 1.378 . S
C1176 C1180 1.350 . S
C1177 C1180 1.463 . S
C1177 C1182 1.350 . S
C1177 N1185 1.427 . S
C1178 H1169 0.930 . S
C1178 C1176 1.378 . S
C1178 C1179 1.367 . S
C1179 C1178 1.367 . S
C1179 C1181 1.433 . S
C1180 C1176 1.350 . S
C1180 C1177 1.463 . S
C1180 N1184 1.427 . S
C1181 H1171 0.929 . S
C1181 C1179 1.433 . S
C1181 N1184 1.384 . S
C1182 H1173 0.929 . S
C1182 C1174 1.378 . S
C1182 C1177 1.350 . S
C1183 H1170 0.929 . S
C1183 C1175 1.433 . S
C1183 N1185 1.384 . S
N1184 C1180 1.427 . S
N1184 C1181 1.384 . S
N1185 C1177 1.427 . S
N1185 C1183 1.384 . S
H1186 C1192 0.930 . S
H1187 C1196 0.930 . S
H1188 C1201 0.929 . S
H1189 C1199 0.929 . S
H1190 C1194 0.929 . S
H1191 C1200 0.929 . S
C1192 H1186 0.930 . S
C1192 C1193 1.367 . S
C1192 C1200 1.378 . S
C1193 C1192 1.367 . S
C1193 C1201 1.433 . S
C1194 H1190 0.929 . S
C1194 C1196 1.378 . S
C1194 C1198 1.350 . S
C1195 C1198 1.463 . S
C1195 C1200 1.350 . S
C1195 N1203 1.427 . S
C1196 H1187 0.930 . S
C1196 C1194 1.378 . S
C1196 C1197 1.367 . S
C1197 C1196 1.367 . S
C1197 C1199 1.433 . S
C1198 C1194 1.350 . S
C1198 C1195 1.463 . S
C1198 N1202 1.427 . S
C1199 H1189 0.929 . S
C1199 C1197 1.433 . S
C1199 N1202 1.384 . S
C1200 H1191 0.929 . S
C1200 C1192 1.378 . S
C1200 C1195 1.350 . S
C1201 H1188 0.929 . S
C1201 C1193 1.433 . S
C1201 N1203 1.384 . S
N1202 C1198 1.427 . S
N1202 C1199 1.384 . S
N1203 C1195 1.427 . S
N1203 C1201 1.384 . S
H1204 C1210 0.930 . S
H1205 C1214 0.930 . S
H1206 C1219 0.929 . S
H1207 C1217 0.929 . S
H1208 C1212 0.929 . S
H1209 C1218 0.929 . S
C1210 H1204 0.930 . S
C1210 C1211 1.367 . S
C1210 C1218 1.378 . S
C1211 C1210 1.367 . S
C1211 C1219 1.433 . S
C1212 H1208 0.929 . S
C1212 C1214 1.378 . S
C1212 C1216 1.350 . S
C1213 C1216 1.463 . S
C1213 C1218 1.350 . S
C1213 N1221 1.427 . S
C1214 H1205 0.930 . S
C1214 C1212 1.378 . S
C1214 C1215 1.367 . S
C1215 C1214 1.367 . S
C1215 C1217 1.433 . S
C1216 C1212 1.350 . S
C1216 C1213 1.463 . S
C1216 N1220 1.427 . S
C1217 H1207 0.929 . S
C1217 C1215 1.433 . S
C1217 N1220 1.384 . S
C1218 H1209 0.929 . S
C1218 C1210 1.378 . S
C1218 C1213 1.350 . S
C1219 H1206 0.929 . S
C1219 C1211 1.433 . S
C1219 N1221 1.384 . S
N1220 C1216 1.427 . S
N1220 C1217 1.384 . S
N1221 C1213 1.427 . S
N1221 C1219 1.384 . S
H1222 C1228 0.930 . S
H1223 C1232 0.930 . S
H1224 C1237 0.929 . S
H1225 C1235 0.929 . S
H1226 C1230 0.929 . S
H1227 C1236 0.929 . S
C1228 H1222 0.930 . S
C1228 C1229 1.367 . S
C1228 C1236 1.378 . S
C1229 C1228 1.367 . S
C1229 C1237 1.433 . S
C1230 H1226 0.929 . S
C1230 C1232 1.378 . S
C1230 C1234 1.350 . S
C1231 C1234 1.463 . S
C1231 C1236 1.350 . S
C1231 N1239 1.427 . S
C1232 H1223 0.930 . S
C1232 C1230 1.378 . S
C1232 C1233 1.367 . S
C1233 C1232 1.367 . S
C1233 C1235 1.433 . S
C1234 C1230 1.350 . S
C1234 C1231 1.463 . S
C1234 N1238 1.427 . S
C1235 H1225 0.929 . S
C1235 C1233 1.433 . S
C1235 N1238 1.384 . S
C1236 H1227 0.929 . S
C1236 C1228 1.378 . S
C1236 C1231 1.350 . S
C1237 H1224 0.929 . S
C1237 C1229 1.433 . S
C1237 N1239 1.384 . S
N1238 C1234 1.427 . S
N1238 C1235 1.384 . S
N1239 C1231 1.427 . S
N1239 C1237 1.384 . S
H1240 C1246 0.930 . S
H1241 C1250 0.930 . S
H1242 C1255 0.929 . S
H1243 C1253 0.929 . S
H1244 C1248 0.929 . S
H1245 C1254 0.929 . S
C1246 H1240 0.930 . S
C1246 C1247 1.367 . S
C1246 C1254 1.378 . S
C1247 C1246 1.367 . S
C1247 C1255 1.433 . S
C1248 H1244 0.929 . S
C1248 C1250 1.378 . S
C1248 C1252 1.350 . S
C1249 C1252 1.463 . S
C1249 C1254 1.350 . S
C1249 N1257 1.427 . S
C1250 H1241 0.930 . S
C1250 C1248 1.378 . S
C1250 C1251 1.367 . S
C1251 C1250 1.367 . S
C1251 C1253 1.433 . S
C1252 C1248 1.350 . S
C1252 C1249 1.463 . S
C1252 N1256 1.427 . S
C1253 H1243 0.929 . S
C1253 C1251 1.433 . S
C1253 N1256 1.384 . S
C1254 H1245 0.929 . S
C1254 C1246 1.378 . S
C1254 C1249 1.350 . S
C1255 H1242 0.929 . S
C1255 C1247 1.433 . S
C1255 N1257 1.384 . S
N1256 C1252 1.427 . S
N1256 C1253 1.384 . S
N1257 C1249 1.427 . S
N1257 C1255 1.384 . S
H1258 C1264 0.930 . S
H1259 C1268 0.930 . S
H1260 C1273 0.929 . S
H1261 C1271 0.929 . S
H1262 C1266 0.929 . S
H1263 C1272 0.929 . S
C1264 H1258 0.930 . S
C1264 C1265 1.367 . S
C1264 C1272 1.378 . S
C1265 C1264 1.367 . S
C1265 C1273 1.433 . S
C1266 H1262 0.929 . S
C1266 C1268 1.378 . S
C1266 C1270 1.350 . S
C1267 C1270 1.463 . S
C1267 C1272 1.350 . S
C1267 N1275 1.427 . S
C1268 H1259 0.930 . S
C1268 C1266 1.378 . S
C1268 C1269 1.367 . S
C1269 C1268 1.367 . S
C1269 C1271 1.433 . S
C1270 C1266 1.350 . S
C1270 C1267 1.463 . S
C1270 N1274 1.427 . S
C1271 H1261 0.929 . S
C1271 C1269 1.433 . S
C1271 N1274 1.384 . S
C1272 H1263 0.929 . S
C1272 C1264 1.378 . S
C1272 C1267 1.350 . S
C1273 H1260 0.929 . S
C1273 C1265 1.433 . S
C1273 N1275 1.384 . S
N1274 C1270 1.427 . S
N1274 C1271 1.384 . S
N1275 C1267 1.427 . S
N1275 C1273 1.384 . S
H1276 C1282 0.930 . S
H1277 C1286 0.930 . S
H1278 C1291 0.929 . S
H1279 C1289 0.929 . S
H1280 C1284 0.929 . S
H1281 C1290 0.929 . S
C1282 H1276 0.930 . S
C1282 C1283 1.367 . S
C1282 C1290 1.378 . S
C1283 C1282 1.367 . S
C1283 C1291 1.433 . S
C1284 H1280 0.929 . S
C1284 C1286 1.378 . S
C1284 C1288 1.350 . S
C1285 C1288 1.463 . S
C1285 C1290 1.350 . S
C1285 N1293 1.427 . S
C1286 H1277 0.930 . S
C1286 C1284 1.378 . S
C1286 C1287 1.367 . S
C1287 C1286 1.367 . S
C1287 C1289 1.433 . S
C1288 C1284 1.350 . S
C1288 C1285 1.463 . S
C1288 N1292 1.427 . S
C1289 H1279 0.929 . S
C1289 C1287 1.433 . S
C1289 N1292 1.384 . S
C1290 H1281 0.929 . S
C1290 C1282 1.378 . S
C1290 C1285 1.350 . S
C1291 H1278 0.929 . S
C1291 C1283 1.433 . S
C1291 N1293 1.384 . S
N1292 C1288 1.427 . S
N1292 C1289 1.384 . S
N1293 C1285 1.427 . S
N1293 C1291 1.384 . S
H1294 C1300 0.930 . S
H1295 C1304 0.930 . S
H1296 C1309 0.929 . S
H1297 C1307 0.929 . S
H1298 C1302 0.929 . S
H1299 C1308 0.929 . S
C1300 H1294 0.930 . S
C1300 C1301 1.367 . S
C1300 C1308 1.378 . S
C1301 C1300 1.367 . S
C1301 C1309 1.433 . S
C1302 H1298 0.929 . S
C1302 C1304 1.378 . S
C1302 C1306 1.350 . S
C1303 C1306 1.463 . S
C1303 C1308 1.350 . S
C1303 N1311 1.427 . S
C1304 H1295 0.930 . S
C1304 C1302 1.378 . S
C1304 C1305 1.367 . S
C1305 C1304 1.367 . S
C1305 C1307 1.433 . S
C1306 C1302 1.350 . S
C1306 C1303 1.463 . S
C1306 N1310 1.427 . S
C1307 H1297 0.929 . S
C1307 C1305 1.433 . S
C1307 N1310 1.384 . S
C1308 H1299 0.929 . S
C1308 C1300 1.378 . S
C1308 C1303 1.350 . S
C1309 H1296 0.929 . S
C1309 C1301 1.433 . S
C1309 N1311 1.384 . S
N1310 C1306 1.427 . S
N1310 C1307 1.384 . S
N1311 C1303 1.427 . S
N1311 C1309 1.384 . S
H1312 C1318 0.930 . S
H1313 C1322 0.930 . S
H1314 C1327 0.929 . S
H1315 C1325 0.929 . S
H1316 C1320 0.929 . S
H1317 C1326 0.929 . S
C1318 H1312 0.930 . S
C1318 C1319 1.367 . S
C1318 C1326 1.378 . S
C1319 C1318 1.367 . S
C1319 C1327 1.433 . S
C1320 H1316 0.929 . S
C1320 C1322 1.378 . S
C1320 C1324 1.350 . S
C1321 C1324 1.463 . S
C1321 C1326 1.350 . S
C1321 N1329 1.427 . S
C1322 H1313 0.930 . S
C1322 C1320 1.378 . S
C1322 C1323 1.367 . S
C1323 C1322 1.367 . S
C1323 C1325 1.433 . S
C1324 C1320 1.350 . S
C1324 C1321 1.463 . S
C1324 N1328 1.427 . S
C1325 H1315 0.929 . S
C1325 C1323 1.433 . S
C1325 N1328 1.384 . S
C1326 H1317 0.929 . S
C1326 C1318 1.378 . S
C1326 C1321 1.350 . S
C1327 H1314 0.929 . S
C1327 C1319 1.433 . S
C1327 N1329 1.384 . S
N1328 C1324 1.427 . S
N1328 C1325 1.384 . S
N1329 C1321 1.427 . S
N1329 C1327 1.384 . S
H1330 C1336 0.930 . S
H1331 C1340 0.930 . S
H1332 C1345 0.929 . S
H1333 C1343 0.929 . S
H1334 C1338 0.929 . S
H1335 C1344 0.929 . S
C1336 H1330 0.930 . S
C1336 C1337 1.367 . S
C1336 C1344 1.378 . S
C1337 C1336 1.367 . S
C1337 C1345 1.433 . S
C1338 H1334 0.929 . S
C1338 C1340 1.378 . S
C1338 C1342 1.350 . S
C1339 C1342 1.463 . S
C1339 C1344 1.350 . S
C1339 N1347 1.427 . S
C1340 H1331 0.930 . S
C1340 C1338 1.378 . S
C1340 C1341 1.367 . S
C1341 C1340 1.367 . S
C1341 C1343 1.433 . S
C1342 C1338 1.350 . S
C1342 C1339 1.463 . S
C1342 N1346 1.427 . S
C1343 H1333 0.929 . S
C1343 C1341 1.433 . S
C1343 N1346 1.384 . S
C1344 H1335 0.929 . S
C1344 C1336 1.378 . S
C1344 C1339 1.350 . S
C1345 H1332 0.929 . S
C1345 C1337 1.433 . S
C1345 N1347 1.384 . S
N1346 C1342 1.427 . S
N1346 C1343 1.384 . S
N1347 C1339 1.427 . S
N1347 C1345 1.384 . S
C495 C195 1.342 . S
C491 C9 1.331 . S
C513 C173 1.487 . S
C509 C22 1.513 . S
C531 C170 0.576 . S
C527 C49 0.571 . S
C545 C61 1.523 . S
C549 C182 1.486 . S
C563 C81 1.520 . S
C567 C165 1.477 . S
C585 C187 0.563 . S
C581 C108 0.589 . S
C599 C122 1.526 . S
C603 C192 1.497 . S
C617 C148 1.330 . S
C621 C188 1.343 . S
C639 C246 2.348 . S
C635 C18 2.363 . S
C653 C39 1.258 . S
C657 C296 1.316 . S
C675 C219 2.332 . S
C671 C58 2.355 . S
C693 C295 0.601 . S
C689 C69 0.622 . S
C707 C89 0.631 . S
C711 C224 0.599 . S
C729 C290 1.474 . S
C725 C102 1.517 . S
C743 C139 1.280 . S
C747 C249 1.331 . S
C761 C142 1.529 . S
C765 C281 1.483 . S
C779 C1 1.540 . S
C783 C273 1.497 . S
C797 C98 1.284 . S
C801 C303 1.334 . S
C819 C227 2.342 . S
C815 C119 2.363 . S
C837 C278 0.619 . S
C833 C128 0.615 . S
C851 C159 2.364 . S
C855 C236 2.349 . S
C869 C41 1.532 . S
C873 C300 1.493 . S
C891 C242 1.339 . S
C887 C78 1.287 . S
C905 C28 0.619 . S
C909 C241 0.617 . S
C923 C149 1.331 . S
C927 C357 1.343 . S
C941 C82 1.514 . S
C945 C335 1.476 . S
C963 C332 0.570 . S
C959 C109 0.578 . S
C981 C344 1.500 . S
C977 C121 1.526 . S
C995 C21 1.518 . S
C999 C327 1.481 . S
C1017 C349 0.574 . S
C1013 C48 0.589 . S
C1031 C62 1.526 . S
C1035 C354 1.504 . S
C1049 C8 1.321 . S
C1053 C350 1.337 . S
C1067 C158 2.356 . S
C1071 C408 2.345 . S
C1089 C458 1.327 . S
C1085 C99 1.278 . S
C1103 C118 2.346 . S
C1107 C381 2.327 . S
C1121 C129 0.631 . S
C1125 C457 0.600 . S
C1143 C386 0.604 . S
C1139 C29 0.604 . S
C1157 C42 1.522 . S
C1161 C452 1.479 . S
C1179 C411 1.330 . S
C1175 C79 1.278 . S
C1197 C443 1.488 . S
C1193 C2 1.533 . S
C1215 C435 1.488 . S
C1211 C141 1.535 . S
C1229 C38 1.275 . S
C1233 C465 1.328 . S
C1247 C59 2.365 . S
C1251 C389 2.344 . S
C1269 C440 0.611 . S
C1265 C68 0.639 . S
C1283 C19 2.364 . S
C1287 C398 2.349 . S
C1301 C101 1.533 . S
C1305 C462 1.495 . S
C1323 C404 1.339 . S
C1319 C138 1.288 . S
C1341 C403 0.611 . S
C1337 C88 0.625 . S
