# Generated by pormake.
# Topology myd, (4,6)-cn, num edge types: 1
# Building blocks:
#     Node 0, Type 0, BuildingBlock: NAWXER_clean_sbu_0, # of connection points: 4
#     Node 1, Type 0, BuildingBlock: NAWXER_clean_sbu_0, # of connection points: 4
#     Node 2, Type 0, BuildingBlock: NAWXER_clean_sbu_0, # of connection points: 4
#     Node 3, Type 0, BuildingBlock: NAWXER_clean_sbu_0, # of connection points: 4
#     Node 4, Type 0, BuildingBlock: NAWXER_clean_sbu_0, # of connection points: 4
#     Node 5, Type 0, BuildingBlock: NAWXER_clean_sbu_0, # of connection points: 4
#     Node 6, Type 0, BuildingBlock: NAWXER_clean_sbu_0, # of connection points: 4
#     Node 7, Type 0, BuildingBlock: NAWXER_clean_sbu_0, # of connection points: 4
#     Node 8, Type 0, BuildingBlock: NAWXER_clean_sbu_0, # of connection points: 4
#     Node 9, Type 0, BuildingBlock: NAWXER_clean_sbu_0, # of connection points: 4
#     Node 10, Type 0, BuildingBlock: NAWXER_clean_sbu_0, # of connection points: 4
#     Node 11, Type 0, BuildingBlock: NAWXER_clean_sbu_0, # of connection points: 4
#     Node 12, Type 1, BuildingBlock: VOLQOD_clean_sbu_1, # of connection points: 6
#     Node 13, Type 1, BuildingBlock: VOLQOD_clean_sbu_1, # of connection points: 6
#     Node 14, Type 1, BuildingBlock: VOLQOD_clean_sbu_1, # of connection points: 6
#     Node 15, Type 1, BuildingBlock: VOLQOD_clean_sbu_1, # of connection points: 6
#     Node 16, Type 1, BuildingBlock: VOLQOD_clean_sbu_1, # of connection points: 6
#     Node 17, Type 1, BuildingBlock: VOLQOD_clean_sbu_1, # of connection points: 6
#     Node 18, Type 1, BuildingBlock: VOLQOD_clean_sbu_1, # of connection points: 6
#     Node 19, Type 1, BuildingBlock: VOLQOD_clean_sbu_1, # of connection points: 6
#     Edge 20, Type (0, 1), BuildingBlock: UVAHIK_clean_linker_0, # of connection points: 2
#     Edge 21, Type (0, 1), BuildingBlock: UVAHIK_clean_linker_0, # of connection points: 2
#     Edge 22, Type (0, 1), BuildingBlock: UVAHIK_clean_linker_0, # of connection points: 2
#     Edge 23, Type (0, 1), BuildingBlock: UVAHIK_clean_linker_0, # of connection points: 2
#     Edge 24, Type (0, 1), BuildingBlock: UVAHIK_clean_linker_0, # of connection points: 2
#     Edge 25, Type (0, 1), BuildingBlock: UVAHIK_clean_linker_0, # of connection points: 2
#     Edge 26, Type (0, 1), BuildingBlock: UVAHIK_clean_linker_0, # of connection points: 2
#     Edge 27, Type (0, 1), BuildingBlock: UVAHIK_clean_linker_0, # of connection points: 2
#     Edge 28, Type (0, 1), BuildingBlock: UVAHIK_clean_linker_0, # of connection points: 2
#     Edge 29, Type (0, 1), BuildingBlock: UVAHIK_clean_linker_0, # of connection points: 2
#     Edge 30, Type (0, 1), BuildingBlock: UVAHIK_clean_linker_0, # of connection points: 2
#     Edge 31, Type (0, 1), BuildingBlock: UVAHIK_clean_linker_0, # of connection points: 2
#     Edge 32, Type (0, 1), BuildingBlock: UVAHIK_clean_linker_0, # of connection points: 2
#     Edge 33, Type (0, 1), BuildingBlock: UVAHIK_clean_linker_0, # of connection points: 2
#     Edge 34, Type (0, 1), BuildingBlock: UVAHIK_clean_linker_0, # of connection points: 2
#     Edge 35, Type (0, 1), BuildingBlock: UVAHIK_clean_linker_0, # of connection points: 2
#     Edge 36, Type (0, 1), BuildingBlock: UVAHIK_clean_linker_0, # of connection points: 2
#     Edge 37, Type (0, 1), BuildingBlock: UVAHIK_clean_linker_0, # of connection points: 2
#     Edge 38, Type (0, 1), BuildingBlock: UVAHIK_clean_linker_0, # of connection points: 2
#     Edge 39, Type (0, 1), BuildingBlock: UVAHIK_clean_linker_0, # of connection points: 2
#     Edge 40, Type (0, 1), BuildingBlock: UVAHIK_clean_linker_0, # of connection points: 2
#     Edge 41, Type (0, 1), BuildingBlock: UVAHIK_clean_linker_0, # of connection points: 2
#     Edge 42, Type (0, 1), BuildingBlock: UVAHIK_clean_linker_0, # of connection points: 2
#     Edge 43, Type (0, 1), BuildingBlock: UVAHIK_clean_linker_0, # of connection points: 2
#     Edge 44, Type (0, 1), BuildingBlock: UVAHIK_clean_linker_0, # of connection points: 2
#     Edge 45, Type (0, 1), BuildingBlock: UVAHIK_clean_linker_0, # of connection points: 2
#     Edge 46, Type (0, 1), BuildingBlock: UVAHIK_clean_linker_0, # of connection points: 2
#     Edge 47, Type (0, 1), BuildingBlock: UVAHIK_clean_linker_0, # of connection points: 2
#     Edge 48, Type (0, 1), BuildingBlock: UVAHIK_clean_linker_0, # of connection points: 2
#     Edge 49, Type (0, 1), BuildingBlock: UVAHIK_clean_linker_0, # of connection points: 2
#     Edge 50, Type (0, 1), BuildingBlock: UVAHIK_clean_linker_0, # of connection points: 2
#     Edge 51, Type (0, 1), BuildingBlock: UVAHIK_clean_linker_0, # of connection points: 2
#     Edge 52, Type (0, 1), BuildingBlock: UVAHIK_clean_linker_0, # of connection points: 2
#     Edge 53, Type (0, 1), BuildingBlock: UVAHIK_clean_linker_0, # of connection points: 2
#     Edge 54, Type (0, 1), BuildingBlock: UVAHIK_clean_linker_0, # of connection points: 2
#     Edge 55, Type (0, 1), BuildingBlock: UVAHIK_clean_linker_0, # of connection points: 2
#     Edge 56, Type (0, 1), BuildingBlock: UVAHIK_clean_linker_0, # of connection points: 2
#     Edge 57, Type (0, 1), BuildingBlock: UVAHIK_clean_linker_0, # of connection points: 2
#     Edge 58, Type (0, 1), BuildingBlock: UVAHIK_clean_linker_0, # of connection points: 2
#     Edge 59, Type (0, 1), BuildingBlock: UVAHIK_clean_linker_0, # of connection points: 2
#     Edge 60, Type (0, 1), BuildingBlock: UVAHIK_clean_linker_0, # of connection points: 2
#     Edge 61, Type (0, 1), BuildingBlock: UVAHIK_clean_linker_0, # of connection points: 2
#     Edge 62, Type (0, 1), BuildingBlock: UVAHIK_clean_linker_0, # of connection points: 2
#     Edge 63, Type (0, 1), BuildingBlock: UVAHIK_clean_linker_0, # of connection points: 2
#     Edge 64, Type (0, 1), BuildingBlock: UVAHIK_clean_linker_0, # of connection points: 2
#     Edge 65, Type (0, 1), BuildingBlock: UVAHIK_clean_linker_0, # of connection points: 2
#     Edge 66, Type (0, 1), BuildingBlock: UVAHIK_clean_linker_0, # of connection points: 2
#     Edge 67, Type (0, 1), BuildingBlock: UVAHIK_clean_linker_0, # of connection points: 2
# Relax obj value: 0.200
# Max RMSD: 0.165
# Mean RMSD: 0.124
data_MOF--net-myd--node1-NAWXER_clean_sbu_0--node2-VOLQOD_clean_sbu_1--edge1-UVAHIK_clean_linker_0
_symmetry_space_group_name_H-M    P1
_symmetry_Int_Tables_number       1
_symmetry_cell_setting            triclinic
loop_
_symmetry_equiv_pos_as_xyz
'x, y, z'
_cell_length_a     59.797602
_cell_length_b     59.874231
_cell_length_c     59.869338
_cell_angle_alpha  91.029095
_cell_angle_beta   89.959687
_cell_angle_gamma 91.003393
loop_
_atom_site_label
_atom_site_type_symbol
_atom_site_fract_x
_atom_site_fract_y
_atom_site_fract_z
_atom_type_partial_charge
C0 C 0.02054 0.21301 0.29274 0.0
C1 C 0.01885 0.27353 0.34791 0.0
O2 O 0.037 0.22212 0.30301 0.0
Zn3 Zn 0.01985 0.24299 0.32048 0.0
O4 O 0.0006 0.21948 0.29693 0.0
Zn5 Zn 0.98447 0.2433 0.31871 0.0
O6 O 0.96944 0.26211 0.29784 0.0
O7 O 0.00626 0.26404 0.29515 0.0
O8 O -0.00083 0.26737 0.34155 0.0
O9 O 0.03577 0.26373 0.33985 0.0
O10 O 0.00287 0.22098 0.34299 0.0
O11 O 0.96657 0.22395 0.33735 0.0
C12 C 0.98688 0.26986 0.2884 0.0
C13 C 0.98269 0.21509 0.34754 0.0
C14 C -0.00077 0.77598 0.20879 0.0
C15 C -0.00143 0.71567 0.15279 0.0
O16 O 0.01866 0.76856 0.20402 0.0
Zn17 Zn 0.03363 0.74392 0.18302 0.0
O18 O 0.98205 0.76725 0.19936 0.0
Zn19 Zn -0.00211 0.7457 0.18081 0.0
O20 O 0.01022 0.72287 0.20477 0.0
O21 O 0.04711 0.72396 0.20415 0.0
O22 O 0.98159 0.72573 0.16054 0.0
O23 O 0.01816 0.72113 0.15987 0.0
O24 O 0.05232 0.76202 0.16397 0.0
O25 O 0.01619 0.76677 0.15847 0.0
C26 C 0.02898 0.71597 0.21206 0.0
C27 C 0.03661 0.77154 0.15368 0.0
C28 C 0.36214 0.0258 0.22211 0.0
C29 C 0.30055 0.01885 0.27541 0.0
O30 O 0.35656 0.00551 0.2262 0.0
Zn31 Zn 0.33321 0.98752 0.2464 0.0
O32 O 0.35244 0.04162 0.23249 0.0
Zn33 Zn 0.33184 0.0232 0.24953 0.0
O34 O 0.35278 0.00741 0.27338 0.0
O35 O 0.35197 0.97108 0.26633 0.0
O36 O 0.309 0.03695 0.26812 0.0
O37 O 0.30821 3e-05 0.26867 0.0
O38 O 0.31534 0.97174 0.22372 0.0
O39 O 0.31201 0.00838 0.22345 0.0
C40 C 0.35898 0.98764 0.27812 0.0
C41 C 0.30708 0.98906 0.21514 0.0
C42 C 0.72639 0.50395 0.21903 0.0
C43 C 0.67374 0.51014 0.28122 0.0
O44 O 0.71949 0.4851 0.22639 0.0
Zn45 Zn 0.6979 0.4722 0.25142 0.0
O46 O 0.71947 0.5219 0.22812 0.0
Zn47 Zn 0.69982 0.50794 0.25006 0.0
O48 O 0.72263 0.4928 0.27246 0.0
O49 O 0.71852 0.45602 0.2698 0.0
O50 O 0.68265 0.52615 0.27048 0.0
O51 O 0.67808 0.48989 0.27561 0.0
O52 O 0.67598 0.45585 0.23379 0.0
O53 O 0.67435 0.49242 0.22986 0.0
C54 C 0.72816 0.47319 0.27839 0.0
C55 C 0.66702 0.47268 0.22504 0.0
C56 C 0.23927 0.35426 0.00132 0.0
C57 C 0.29636 0.29765 0.99273 0.0
O58 O 0.24802 0.34705 0.98331 0.0
Zn59 Zn 0.26855 0.32663 0.99669 0.0
O60 O 0.24604 0.34694 0.02011 0.0
Zn61 Zn 0.26947 0.32327 0.03191 0.0
O62 O 0.29049 0.34057 0.04969 0.0
O63 O 0.2926 0.34778 0.0137 0.0
O64 O 0.29094 0.30137 0.01318 0.0
O65 O 0.28758 0.309 0.97738 0.0
O66 O 0.24639 0.30145 0.01017 0.0
O67 O 0.25008 0.3024 0.04691 0.0
C68 C 0.29945 0.35124 0.03377 0.0
C69 C 0.24093 0.29405 0.02944 0.0
C70 C 0.23285 0.71089 0.47968 0.0
C71 C 0.2908 0.6549 0.47928 0.0
O72 O 0.24181 0.70124 0.46296 0.0
Zn73 Zn 0.2616 0.6825 0.47933 0.0
O74 O 0.23852 0.70548 0.49951 0.0
Zn75 Zn 0.26079 0.68212 0.5147 0.0
O76 O 0.28028 0.70118 0.53232 0.0
O77 O 0.28359 0.7061 0.49596 0.0
O78 O 0.28411 0.65973 0.49911 0.0
O79 O 0.28239 0.66454 0.46262 0.0
O80 O 0.23904 0.65849 0.49362 0.0
O81 O 0.2408 0.66243 0.53035 0.0
C82 C 0.28925 0.71133 0.51607 0.0
C83 C 0.23265 0.65264 0.51315 0.0
C84 C 0.74008 0.84498 0.49392 0.0
C85 C 0.79433 0.78547 0.48845 0.0
O86 O 0.74791 0.836 0.47626 0.0
Zn87 Zn 0.76767 0.81567 0.49083 0.0
O88 O 0.74687 0.83864 0.51307 0.0
Zn89 Zn 0.76931 0.81468 0.52627 0.0
O90 O 0.79126 0.83265 0.5424 0.0
O91 O 0.79252 0.8372 0.50592 0.0
O92 O 0.7895 0.79068 0.50874 0.0
O93 O 0.78561 0.79608 0.47256 0.0
O94 O 0.74449 0.79288 0.50644 0.0
O95 O 0.74907 0.79593 0.543 0.0
C96 C 0.79995 0.84201 0.52554 0.0
C97 C 0.739 0.78711 0.52627 0.0
C98 C 0.51484 0.77589 0.78526 0.0
C99 C 0.5175 0.717 0.8407 0.0
O100 O 0.49548 0.76962 0.79219 0.0
Zn101 Zn 0.48115 0.74638 0.8151 0.0
O102 O 0.53217 0.76671 0.79294 0.0
Zn103 Zn 0.51683 0.74662 0.81326 0.0
O104 O 0.49999 0.7233 0.79124 0.0
O105 O 0.46349 0.72709 0.79529 0.0
O106 O 0.53396 0.72696 0.83149 0.0
O107 O 0.49749 0.72279 0.83606 0.0
O108 O 0.46628 0.76606 0.8362 0.0
O109 O 0.50308 0.76929 0.83724 0.0
C110 C 0.47993 0.71748 0.78596 0.0
C111 C 0.48384 0.77528 0.84436 0.0
C112 C 0.53547 0.21956 0.71176 0.0
C113 C 0.53264 0.28045 0.65848 0.0
O114 O 0.51563 0.2248 0.70608 0.0
Zn115 Zn 0.49919 0.24839 0.68595 0.0
O116 O 0.55217 0.23055 0.70426 0.0
Zn117 Zn 0.53528 0.25056 0.68553 0.0
O118 O 0.51949 0.27147 0.70944 0.0
O119 O 0.48289 0.26649 0.70777 0.0
O120 O 0.55027 0.27241 0.66685 0.0
O121 O 0.5134 0.27284 0.66439 0.0
O122 O 0.48354 0.22879 0.66491 0.0
O123 O 0.52035 0.2284 0.66131 0.0
C124 C 0.4999 0.27629 0.71646 0.0
C125 C 0.50089 0.22154 0.65501 0.0
C126 C 0.78923 0.48601 0.71948 0.0
C127 C 0.84961 0.48224 0.7738 0.0
O128 O 0.7974 0.50523 0.72504 0.0
Zn129 Zn 0.82215 0.51913 0.74718 0.0
O130 O 0.79668 0.46855 0.72842 0.0
Zn131 Zn 0.81949 0.48347 0.74657 0.0
O132 O 0.80014 0.49994 0.77166 0.0
O133 O 0.80419 0.53649 0.76798 0.0
O134 O 0.83916 0.46595 0.76439 0.0
O135 O 0.8448 0.50233 0.76875 0.0
O136 O 0.84199 0.53426 0.72678 0.0
O137 O 0.84169 0.49756 0.72236 0.0
C138 C 0.79562 0.51988 0.77801 0.0
C139 C 0.84882 0.51692 0.71649 0.0
C140 C 0.23099 0.01838 0.7175 0.0
C141 C 0.17048 0.02092 0.77248 0.0
O142 O 0.2239 -0.00097 0.72334 0.0
Zn143 Zn 0.19982 0.98474 0.74548 0.0
O144 O 0.22243 0.0358 0.72612 0.0
Zn145 Zn 0.20043 0.02051 0.7447 0.0
O146 O 0.22108 0.00608 0.76936 0.0
O147 O 0.21852 0.96931 0.76659 0.0
O148 O 0.18 0.03747 0.76312 0.0
O149 O 0.17631 0.001 0.76713 0.0
O150 O 0.18113 0.96775 0.72493 0.0
O151 O 0.17868 0.00427 0.7209 0.0
C152 C 0.22661 0.98678 0.77617 0.0
C153 C 0.17291 0.9843 0.71498 0.0
C154 C 0.74021 0.149 0.97356 0.0
C155 C 0.80026 0.20463 0.9678 0.0
O156 O 0.74628 0.1575 0.99244 0.0
Zn157 Zn 0.76962 0.18172 0.0053 0.0
O158 O 0.74963 0.15552 0.95571 0.0
Zn159 Zn 0.76982 0.17714 0.96968 0.0
O160 O 0.79239 0.15653 0.98784 0.0
O161 O 0.78862 0.16402 0.02389 0.0
O162 O 0.79034 0.19479 0.95151 0.0
O163 O 0.79383 0.20103 0.98784 0.0
O164 O 0.7507 0.20444 0.01865 0.0
O165 O 0.74712 0.20173 0.98201 0.0
C166 C 0.79807 0.15316 0.00815 0.0
C167 C 0.74145 0.21066 0.00075 0.0
O168 O 0.10843 0.02613 0.0855 0.0
Zn169 Zn 0.07614 0.03051 0.07943 0.0
O170 O 0.07163 0.04523 0.05136 0.0
Zn171 Zn 0.05798 0.07383 0.05746 0.0
Zn172 Zn 0.10081 0.0495 0.03743 0.0
Zn173 Zn 0.05187 0.0271 0.03177 0.0
O174 O 0.0282 0.07558 0.04242 0.0
O175 O 0.02096 0.04083 0.03043 0.0
O176 O 0.06341 0.04704 0.10596 0.0
O177 O 0.05158 0.07789 0.09014 0.0
O178 O 0.07836 0.09939 0.04897 0.0
O179 O 0.10885 0.08224 0.03684 0.0
O180 O 0.09949 0.03919 0.00555 0.0
O181 O 0.06422 -0.0005 0.07709 0.0
O182 O 0.06471 0.02645 0.00018 0.0
O183 O 0.04958 0.99513 0.04308 0.0
C184 C 0.12603 0.02649 0.0736 0.0
C185 C 0.01485 0.06091 0.03402 0.0
C186 C 0.0983 0.10002 0.04149 0.0
C187 C 0.0544 0.0661 0.10733 0.0
C188 C 0.08418 0.0313 0.99274 0.0
C189 C 0.05524 0.98727 0.06188 0.0
O190 O 0.1257 0.03373 0.05371 0.0
O191 O 0.92576 0.46159 0.08257 0.0
Zn192 Zn 0.9572 0.45318 0.07503 0.0
O193 O 0.95869 0.44052 0.04504 0.0
Zn194 Zn 0.97157 0.41104 0.04602 0.0
Zn195 Zn 0.92867 0.43857 0.03252 0.0
Zn196 Zn 0.97742 0.45949 0.02639 0.0
O197 O 0.00285 0.41153 0.03376 0.0
O198 O 0.00775 0.44597 0.02131 0.0
O199 O 0.96625 0.43104 0.0982 0.0
O200 O 0.97359 0.4006 0.07785 0.0
O201 O 0.95271 0.38893 0.02819 0.0
O202 O 0.92054 0.40665 0.02481 0.0
O203 O 0.92787 0.45364 0.00297 0.0
O204 O 0.97479 0.48207 0.07723 0.0
O205 O 0.96306 0.46394 0.99633 0.0
O206 O 0.982 0.48941 0.04161 0.0
C207 C 0.90703 0.46061 0.07251 0.0
C208 C 0.01514 0.42652 0.02485 0.0
C209 C 0.93231 0.38927 0.02207 0.0
C210 C 0.97155 0.41054 0.09673 0.0
C211 C 0.94278 0.46165 0.99006 0.0
C212 C 0.98163 0.49534 0.06216 0.0
O213 O 0.90531 0.45217 0.05289 0.0
O214 O 0.09921 0.91701 0.45175 0.0
Zn215 Zn 0.08984 0.94883 0.44981 0.0
O216 O 0.05863 0.95094 0.44121 0.0
Zn217 Zn 0.05641 0.96474 0.41191 0.0
Zn218 Zn 0.04542 0.92076 0.44008 0.0
Zn219 Zn 0.04319 0.96953 0.46344 0.0
O220 O 0.03781 0.99243 0.41386 0.0
O221 O 0.03238 -0.00176 0.45025 0.0
O222 O 0.10994 0.96395 0.42767 0.0
O223 O 0.08715 0.97402 0.40048 0.0
O224 O 0.0416 0.94366 0.38938 0.0
O225 O 0.03318 0.91387 0.4095 0.0
O226 O 0.01973 0.91831 0.46177 0.0
O227 O 0.09511 0.96166 0.48047 0.0
O228 O 0.01641 0.95285 0.47543 0.0
O229 O 0.06272 0.9765 0.49018 0.0
C230 C 0.089 0.89822 0.45049 0.0
C231 C 0.03032 0.0042 0.43004 0.0
C232 C 0.03295 0.92415 0.39107 0.0
C233 C 0.10672 0.97282 0.40879 0.0
C234 C 0.00968 0.93257 0.47405 0.0
C235 C 0.08292 0.97188 0.4946 0.0
O236 O 0.06811 0.89685 0.44641 0.0
O237 O 0.99125 0.58087 0.41157 0.0
Zn238 Zn 0.98012 0.57495 0.44243 0.0
O239 O 0.96736 0.54488 0.44414 0.0
Zn240 Zn 0.93643 0.54689 0.45391 0.0
Zn241 Zn 0.96887 0.53014 0.41473 0.0
Zn242 Zn 0.98388 0.52763 0.4659 0.0
O243 O 0.93224 0.5347 0.48457 0.0
O244 O 0.96566 0.52218 0.49362 0.0
O245 O 0.95753 0.59871 0.4494 0.0
O246 O 0.92668 0.57876 0.45605 0.0
O247 O 0.91595 0.53064 0.43254 0.0
O248 O 0.93794 0.52073 0.40424 0.0
O249 O 0.9864 0.50187 0.41654 0.0
O250 O 0.00655 0.57858 0.46287 0.0
O251 O 0.99375 0.49821 0.45265 0.0
O252 O 0.01124 0.54459 0.47617 0.0
C253 C 0.99143 0.57001 0.39311 0.0
C254 C 0.94532 0.52589 0.49851 0.0
C255 C 0.9187 0.52153 0.41337 0.0
C256 C 0.93681 0.5975 0.45419 0.0
C257 C 0.99443 0.49083 0.43257 0.0
C258 C 0.01751 0.56491 0.47447 0.0
O259 O 0.98324 0.55023 0.39155 0.0
O260 O 0.44112 0.97284 0.5929 0.0
Zn261 Zn 0.47222 0.96458 0.58281 0.0
O262 O 0.47106 0.94939 0.55362 0.0
Zn263 Zn 0.48397 0.92002 0.5561 0.0
Zn264 Zn 0.44015 0.94656 0.5435 0.0
Zn265 Zn 0.48813 0.96633 0.53164 0.0
O266 O 0.51163 0.9173 0.53739 0.0
O267 O 0.51719 0.95126 0.52395 0.0
O268 O 0.48623 0.94553 0.6068 0.0
O269 O 0.4934 0.91455 0.58747 0.0
O270 O 0.46183 0.89559 0.5482 0.0
O271 O 0.43084 0.91432 0.54155 0.0
O272 O 0.43652 0.95801 0.51231 0.0
O273 O 0.48879 0.99387 0.58021 0.0
O274 O 0.47084 0.96893 0.50291 0.0
O275 O 0.49484 0.99728 0.54372 0.0
C276 C 0.42184 0.97139 0.58387 0.0
C277 C 0.5235 0.93126 0.52653 0.0
C278 C 0.44114 0.89602 0.54332 0.0
C279 C 0.49362 0.92569 0.60576 0.0
C280 C 0.45034 0.96549 0.49796 0.0
C281 C 0.49531 0.00528 0.56359 0.0
O282 O 0.41903 0.96216 0.5647 0.0
O283 O 0.5819 0.53439 0.59388 0.0
Zn284 Zn 0.55103 0.54011 0.58216 0.0
O285 O 0.55251 0.55302 0.55261 0.0
Zn286 Zn 0.53776 0.58177 0.55285 0.0
Zn287 Zn 0.58357 0.55678 0.54372 0.0
Zn288 Zn 0.5375 0.53298 0.5313 0.0
O289 O 0.51244 0.58167 0.53055 0.0
O290 O 0.5078 0.54545 0.52245 0.0
O291 O 0.53419 0.55964 0.60405 0.0
O292 O 0.52379 0.58774 0.58288 0.0
O293 O 0.55978 0.6072 0.54738 0.0
O294 O 0.5917 0.58925 0.5424 0.0
O295 O 0.58868 0.54458 0.51272 0.0
O296 O 0.53669 0.50964 0.5806 0.0
O297 O 0.55556 0.5302 0.50299 0.0
O298 O 0.5329 0.50229 0.54427 0.0
C299 C 0.6013 0.53508 0.58509 0.0
C300 C 0.50127 0.56556 0.52153 0.0
C301 C 0.58079 0.60728 0.54379 0.0
C302 C 0.52393 0.57791 0.60156 0.0
C303 C 0.57578 0.53524 0.49831 0.0
C304 C 0.53202 0.49615 0.56453 0.0
O305 O 0.60441 0.54252 0.5655 0.0
O306 O 0.60589 0.4144 0.96767 0.0
Zn307 Zn 0.596 0.44582 0.96309 0.0
O308 O 0.56547 0.44641 0.95221 0.0
Zn309 Zn 0.56523 0.4573 0.92188 0.0
Zn310 Zn 0.55254 0.41627 0.95333 0.0
Zn311 Zn 0.5481 0.46679 0.97087 0.0
O312 O 0.55073 0.48715 0.92045 0.0
O313 O 0.54222 0.49599 0.95553 0.0
O314 O 0.61741 0.46041 0.94159 0.0
O315 O 0.59662 0.46338 0.91105 0.0
O316 O 0.5489 0.43574 0.90116 0.0
O317 O 0.5408 0.40698 0.92291 0.0
O318 O 0.52604 0.41589 0.97435 0.0
O319 O 0.59807 0.46003 0.99349 0.0
O320 O 0.51895 0.45204 0.97944 0.0
O321 O 0.56417 0.47329 -0.00018 0.0
C322 C 0.59602 0.3954 0.96754 0.0
C323 C 0.54345 0.50101 0.93496 0.0
C324 C 0.54022 0.4164 0.904 0.0
C325 C 0.61535 0.4654 0.9211 0.0
C326 C 0.51364 0.43151 0.98171 0.0
C327 C 0.58402 0.46959 0.00627 0.0
O328 O 0.57532 0.39333 0.96265 0.0
O329 O 0.48792 0.0893 0.91042 0.0
Zn330 Zn 0.47712 0.08376 0.94152 0.0
O331 O 0.46209 0.05488 0.94284 0.0
Zn332 Zn 0.43216 0.05812 0.95474 0.0
Zn333 Zn 0.46089 0.04115 0.91317 0.0
Zn334 Zn 0.4786 0.036 0.96265 0.0
O335 O 0.43039 0.04803 0.98659 0.0
O336 O 0.46436 0.03538 0.99321 0.0
O337 O 0.45627 0.10884 0.94966 0.0
O338 O 0.4242 0.09058 0.95588 0.0
O339 O 0.40961 0.04132 0.93548 0.0
O340 O 0.42891 0.03529 0.90424 0.0
O341 O 0.47405 0.01046 0.9138 0.0
O342 O 0.50523 0.08439 0.96 0.0
O343 O 0.48017 0.0047 0.94986 0.0
O344 O 0.50981 0.0483 0.96647 0.0
C345 C 0.48682 0.07886 0.89175 0.0
C346 C 0.4448 0.04028 -9e-05 0.0
C347 C 0.41067 0.03443 0.91523 0.0
C348 C 0.43544 0.10875 0.95423 0.0
C349 C 0.47922 0.99761 0.92967 0.0
C350 C 0.51726 0.06836 0.96646 0.0
O351 O 0.47666 0.06002 0.88982 0.0
C352 C 0.99431 0.19176 0.37941 0.0
C353 C 0.97884 0.19606 0.36243 0.0
C354 C 0.99364 0.17141 0.39045 0.0
C355 C 0.98464 0.11468 0.37648 0.0
H356 H 0.9874 0.10273 0.43982 0.0
C357 C 0.006 0.02694 0.40585 0.0
C358 C 0.01918 0.02532 0.42509 0.0
C359 C 0.99631 0.04717 0.40041 0.0
C360 C 0.98695 0.10576 0.42206 0.0
H361 H 0.94984 0.18305 0.34447 0.0
H362 H 0.94921 0.14701 0.3633 0.0
H363 H 0.97851 0.14021 0.42735 0.0
H364 H 0.03238 0.04335 0.45397 0.0
H365 H 0.01682 0.07909 0.44382 0.0
H366 H 0.99486 0.08121 0.3708 0.0
C367 C 0.96152 0.15961 0.36829 0.0
C368 C 0.98157 0.12717 0.41499 0.0
C369 C 0.96184 0.18021 0.35763 0.0
C370 C 0.02219 0.04418 0.43906 0.0
C371 C 0.01305 0.06464 0.43328 0.0
C372 C 0.99056 0.09349 0.38349 0.0
C373 C 0.97781 0.15485 0.38432 0.0
C374 C 0.98057 0.1318 0.39214 0.0
C375 C 0.00019 0.06653 0.41369 0.0
C376 C 0.99207 0.08872 0.4064 0.0
H377 H 0.00758 0.20372 0.3834 0.0
H378 H 0.00648 0.16801 0.40263 0.0
H379 H 0.98437 0.118 0.35875 0.0
H380 H 0.00314 0.01249 0.39499 0.0
H381 H 0.98596 0.0476 0.38561 0.0
C382 C 0.04267 0.3033 0.36659 0.0
C383 C 0.0216 0.29299 0.36328 0.0
C384 C 0.04463 0.32336 0.37884 0.0
C385 C 0.03896 0.3732 0.38764 0.0
H386 H 0.00123 0.3875 0.43845 0.0
C387 C 0.00639 0.461 0.40554 0.0
C388 C 0.00379 0.46852 0.42775 0.0
C389 C 0.0135 0.43936 0.40084 0.0
C390 C 0.0122 0.38375 0.42453 0.0
H391 H 0.98629 0.2949 0.37135 0.0
H392 H 0.98969 0.32978 0.39251 0.0
H393 H 0.0047 0.3487 0.426 0.0
H394 H 0.00747 0.45939 0.46247 0.0
H395 H 0.01985 0.42146 0.45417 0.0
H396 H 0.04598 0.4083 0.3858 0.0
C397 C 0.00473 0.3224 0.38579 0.0
C398 C 0.01401 0.36155 0.41727 0.0
C399 C 0.00276 0.30247 0.37347 0.0
C400 C 0.00921 0.45411 0.44517 0.0
C401 C 0.01623 0.43236 0.44044 0.0
C402 C 0.03711 0.3954 0.39487 0.0
C403 C 0.02559 0.33336 0.38814 0.0
C404 C 0.02685 0.35613 0.39832 0.0
C405 C 0.01813 0.42467 0.41821 0.0
C406 C 0.02314 0.40098 0.41294 0.0
H407 H 0.05753 0.29637 0.359 0.0
H408 H 0.06095 0.33133 0.38056 0.0
H409 H 0.04888 0.36962 0.37291 0.0
H410 H 0.00244 0.47166 0.39171 0.0
H411 H 0.01449 0.43387 0.38354 0.0
C412 C 0.02407 0.79756 0.12425 0.0
C413 C 0.04139 0.78941 0.13757 0.0
C414 C 0.0274 0.81667 0.11158 0.0
C415 C 0.05962 0.86819 0.11501 0.0
H416 H 0.03642 0.87948 0.05584 0.0
C417 C 0.0725 0.95356 0.07692 0.0
C418 C 0.05453 0.96303 0.06564 0.0
C419 C 0.07206 0.93108 0.08224 0.0
C420 C 0.04279 0.87661 0.07245 0.0
H421 H 0.07623 0.79401 0.14685 0.0
H422 H 0.08202 0.82758 0.12478 0.0
H423 H 0.03445 0.84158 0.07068 0.0
H424 H 0.02241 0.95629 0.05008 0.0
H425 H 0.02106 0.91668 0.06035 0.0
H426 H 0.06712 0.90302 0.11746 0.0
C427 C 0.06582 0.81919 0.12431 0.0
C428 C 0.04179 0.85492 0.08086 0.0
C429 C 0.06254 0.79994 0.13685 0.0
C430 C 0.03638 0.94933 0.05892 0.0
C431 C 0.03572 0.9267 0.0647 0.0
C432 C 0.0604 0.88977 0.10676 0.0
C433 C 0.04807 0.82811 0.11212 0.0
C434 C 0.05029 0.85054 0.10221 0.0
C435 C 0.05338 0.91749 0.07691 0.0
C436 C 0.05214 0.89429 0.08534 0.0
H437 H 0.00762 0.78968 0.12428 0.0
H438 H 0.01341 0.82322 0.10243 0.0
H439 H 0.06573 0.86545 0.13175 0.0
H440 H 0.08698 0.96365 0.08179 0.0
H441 H 0.0863 0.92444 0.09092 0.0
C442 C 0.97565 0.68518 0.13402 0.0
C443 C 0.99624 0.69646 0.13711 0.0
C444 C 0.97466 0.66483 0.12213 0.0
C445 C 0.97767 0.62506 0.08873 0.0
H446 H 0.02252 0.58405 0.10927 0.0
C447 C 0.98697 0.53552 0.05232 0.0
C448 C 0.98708 0.51875 0.06848 0.0
C449 C 0.98933 0.55799 0.05868 0.0
C450 C 0.00996 0.59534 0.10334 0.0
H451 H 0.03156 0.6963 0.12856 0.0
H452 H 0.02974 0.66102 0.10793 0.0
H453 H 0.02314 0.62265 0.12297 0.0
H454 H 0.99073 0.51234 0.10384 0.0
H455 H 0.99528 0.55157 0.11485 0.0
H456 H 0.96432 0.59747 0.06936 0.0
C457 C 0.01448 0.66761 0.11502 0.0
C458 C 0.0104 0.61745 0.11102 0.0
C459 C 0.01547 0.68785 0.12681 0.0
C460 C 0.99054 0.52486 0.091 0.0
C461 C 0.9932 0.54729 0.0973 0.0
C462 C 0.97739 0.60294 0.08082 0.0
C463 C 0.99425 0.65553 0.11322 0.0
C464 C 0.99416 0.63247 0.10395 0.0
C465 C 0.99219 0.56407 0.08126 0.0
C466 C 0.99339 0.58784 0.08829 0.0
H467 H 0.96056 0.69144 0.14174 0.0
H468 H 0.95884 0.6558 0.12099 0.0
H469 H 0.96502 0.63634 0.08299 0.0
H470 H 0.98424 0.53136 0.03484 0.0
H471 H 0.98871 0.57064 0.046 0.0
C472 C 0.38068 0.05184 0.19496 0.0
C473 C 0.3777 0.03024 0.20338 0.0
C474 C 0.39218 0.05509 0.17485 0.0
C475 C 0.42755 0.0261 0.13193 0.0
H476 H 0.39762 0.06533 0.09123 0.0
C477 C 0.41689 0.04072 0.03112 0.0
C478 C 0.43913 0.03859 0.02392 0.0
C479 C 0.41169 0.04091 0.05386 0.0
C480 C 0.4061 0.05416 0.10232 0.0
H481 H 0.38582 0.99533 0.19808 0.0
H482 H 0.40524 0.00088 0.16313 0.0
H483 H 0.3858 0.0641 0.13001 0.0
H484 H 0.47336 0.03475 0.03504 0.0
H485 H 0.46433 0.03552 0.07474 0.0
H486 H 0.44696 0.0152 0.1039 0.0
C487 C 0.39903 0.01543 0.17199 0.0
C488 C 0.39958 0.05377 0.12472 0.0
C489 C 0.38768 0.01221 0.19205 0.0
C490 C 0.45602 0.03625 0.04001 0.0
C491 C 0.45083 0.03666 0.0628 0.0
C492 C 0.43394 0.02634 0.10946 0.0
C493 C 0.40088 0.0368 0.16276 0.0
C494 C 0.40992 0.03941 0.13974 0.0
C495 C 0.42861 0.03922 0.07003 0.0
C496 C 0.42298 0.04006 0.09427 0.0
H497 H 0.37328 0.0661 0.20333 0.0
H498 H 0.39367 0.07185 0.16844 0.0
H499 H 0.43614 0.01508 0.14308 0.0
H500 H 0.40345 0.0424 0.01918 0.0
H501 H 0.39432 0.04233 0.05875 0.0
C502 C 0.65024 0.45139 0.19289 0.0
C503 C 0.64993 0.46992 0.20752 0.0
C504 C 0.63746 0.45122 0.17338 0.0
C505 C 0.61323 0.49193 0.13508 0.0
H506 H 0.59554 0.43799 0.10245 0.0
C507 C 0.5764 0.48637 0.04419 0.0
C508 C 0.5899 0.47331 0.03001 0.0
C509 C 0.58032 0.48713 0.06723 0.0
C510 C 0.60024 0.45318 0.11152 0.0
H511 H 0.63446 0.50174 0.21459 0.0
H512 H 0.61129 0.50098 0.18113 0.0
H513 H 0.60589 0.43575 0.14177 0.0
H514 H 0.61843 0.45133 0.02884 0.0
H515 H 0.62488 0.45243 0.06898 0.0
H516 H 0.60747 0.50921 0.10458 0.0
C517 C 0.62208 0.48701 0.1841 0.0
C518 C 0.60631 0.45192 0.13395 0.0
C519 C 0.63519 0.48737 0.20337 0.0
C520 C 0.60778 0.46164 0.03923 0.0
C521 C 0.61137 0.46206 0.06221 0.0
C522 C 0.60674 0.49321 0.11275 0.0
C523 C 0.62383 0.46942 0.16835 0.0
C524 C 0.61362 0.47117 0.14582 0.0
C525 C 0.59746 0.47448 0.07637 0.0
C526 C 0.60091 0.47375 0.10068 0.0
H527 H 0.66158 0.43779 0.19567 0.0
H528 H 0.63947 0.43747 0.1616 0.0
H529 H 0.61907 0.50709 0.14348 0.0
H530 H 0.5625 0.49553 0.03755 0.0
H531 H 0.56952 0.49693 0.07797 0.0
C532 C 0.37997 0.00291 0.31125 0.0
C533 C 0.37283 0.98434 0.29826 0.0
C534 C 0.39101 6e-05 0.33149 0.0
C535 C 0.42203 0.99032 0.36985 0.0
H536 H 0.39751 0.94475 0.40848 0.0
C537 C 0.45814 0.97361 0.45766 0.0
C538 C 0.44269 0.9688 0.47472 0.0
C539 C 0.4511 0.97504 0.43547 0.0
C540 C 0.40446 0.95765 0.39795 0.0
H541 H 0.37257 0.94814 0.29594 0.0
H542 H 0.39217 0.94314 0.33126 0.0
H543 H 0.38341 0.94774 0.37054 0.0
H544 H 0.4076 0.96235 0.48183 0.0
H545 H 0.3953 0.96532 0.44329 0.0
H546 H 0.44245 0.0008 0.39758 0.0
C547 C 0.38886 0.95994 0.3259 0.0
C548 C 0.39662 0.95914 0.37607 0.0
C549 C 0.37777 0.9628 0.30559 0.0
C550 C 0.41998 0.96596 0.46912 0.0
C551 C 0.41294 0.96747 0.44697 0.0
C552 C 0.42984 0.98887 0.39177 0.0
C553 C 0.39526 0.97854 0.33927 0.0
C554 C 0.40509 0.97569 0.36183 0.0
C555 C 0.42844 0.97176 0.42983 0.0
C556 C 0.42093 0.97271 0.40619 0.0
H557 H 0.37647 0.01976 0.30614 0.0
H558 H 0.39542 0.01475 0.34145 0.0
H559 H 0.42912 0.00309 0.35925 0.0
H560 H 0.47578 0.97579 0.46135 0.0
H561 H 0.46351 0.97818 0.42268 0.0
C562 C 0.65082 0.49631 0.31308 0.0
C563 C 0.65952 0.51441 0.30101 0.0
C564 C 0.63909 0.49987 0.33289 0.0
C565 C 0.60705 0.51107 0.37006 0.0
H566 H 0.63174 0.55555 0.41137 0.0
C567 C 0.569 0.52728 0.45761 0.0
C568 C 0.58403 0.53183 0.47522 0.0
C569 C 0.57659 0.52608 0.43555 0.0
C570 C 0.62474 0.54294 0.40009 0.0
H571 H 0.66193 0.55056 0.29986 0.0
H572 H 0.64101 0.55683 0.33446 0.0
H573 H 0.64715 0.55219 0.37387 0.0
H574 H 0.61895 0.53792 0.48352 0.0
H575 H 0.63227 0.53511 0.4452 0.0
H576 H 0.5854 0.50107 0.39663 0.0
C577 C 0.64366 0.53983 0.3287 0.0
C578 C 0.63333 0.54127 0.37844 0.0
C579 C 0.65552 0.53625 0.30882 0.0
C580 C 0.6069 0.53454 0.47034 0.0
C581 C 0.61451 0.53314 0.44832 0.0
C582 C 0.59857 0.51264 0.39176 0.0
C583 C 0.63561 0.52164 0.34114 0.0
C584 C 0.62484 0.52506 0.36328 0.0
C585 C 0.59942 0.52921 0.43062 0.0
C586 C 0.60755 0.52835 0.40715 0.0
H587 H 0.65358 0.47924 0.30758 0.0
H588 H 0.63348 0.48545 0.34216 0.0
H589 H 0.59989 0.49862 0.3587 0.0
H590 H 0.55124 0.52528 0.46077 0.0
H591 H 0.56447 0.52323 0.42232 0.0
C592 C 0.21272 0.37968 0.02076 0.0
C593 C 0.2197 0.36897 0.00095 0.0
C594 C 0.19204 0.39005 0.02184 0.0
C595 C 0.14339 0.40873 0.98888 0.0
H596 H 0.11055 0.3908 0.0417 0.0
C597 C 0.04706 0.40006 0.02364 0.0
C598 C 0.0387 0.42137 0.01942 0.0
C599 C 0.06956 0.39547 0.02002 0.0
C600 C 0.11944 0.39588 0.0268 0.0
H601 H 0.21122 0.36213 0.96626 0.0
H602 H 0.17481 0.37995 0.96825 0.0
H603 H 0.14963 0.38117 0.03782 0.0
H604 H 0.04739 0.45436 0.00729 0.0
H605 H 0.08686 0.44628 0.00105 0.0
H606 H 0.11273 0.42291 0.97769 0.0
C607 C 0.18544 0.3805 0.9829 0.0
C608 C 0.14196 0.39064 0.02472 0.0
C609 C 0.20628 0.37025 0.98177 0.0
C610 C 0.05328 0.43779 0.01078 0.0
C611 C 0.07587 0.43315 0.00711 0.0
C612 C 0.12076 0.41406 0.99102 0.0
C613 C 0.17775 0.38975 0.0032 0.0
C614 C 0.15419 0.39686 0.00569 0.0
C615 C 0.0843 0.41205 0.01207 0.0
C616 C 0.1085 0.40741 0.0099 0.0
H617 H 0.22283 0.37926 0.03575 0.0
H618 H 0.18684 0.39753 0.03757 0.0
H619 H 0.1524 0.41382 0.97406 0.0
H620 H 0.03631 0.38694 0.03011 0.0
H621 H 0.07548 0.37892 0.0236 0.0
C622 C 0.1997 0.63665 0.53344 0.0
C623 C 0.21439 0.63602 0.51513 0.0
C624 C 0.17961 0.62435 0.53273 0.0
C625 C 0.13855 0.59281 0.52731 0.0
H626 H 0.11077 0.60414 0.47015 0.0
C627 C 0.05222 0.55731 0.49634 0.0
C628 C 0.03883 0.5724 0.48481 0.0
C629 C 0.07364 0.56372 0.50355 0.0
C630 C 0.11827 0.60093 0.48623 0.0
H631 H 0.22114 0.6201 0.48308 0.0
H632 H 0.18638 0.59834 0.48205 0.0
H633 H 0.14957 0.615 0.47623 0.0
H634 H 0.03679 0.6065 0.47331 0.0
H635 H 0.07411 0.61755 0.48584 0.0
H636 H 0.10672 0.57902 0.53723 0.0
C637 C 0.18998 0.60879 0.49661 0.0
C638 C 0.14059 0.60682 0.48961 0.0
C639 C 0.20986 0.62122 0.49721 0.0
C640 C 0.04675 0.59438 0.48187 0.0
C641 C 0.06812 0.60071 0.48901 0.0
C642 C 0.1161 0.58669 0.52382 0.0
C643 C 0.17414 0.61118 0.51378 0.0
C644 C 0.15095 0.60296 0.51019 0.0
C645 C 0.082 0.58525 0.49926 0.0
C646 C 0.10575 0.59104 0.50333 0.0
H647 H 0.20288 0.64789 0.5475 0.0
H648 H 0.16768 0.62651 0.54618 0.0
H649 H 0.14618 0.5897 0.54333 0.0
H650 H 0.04653 0.5403 0.49904 0.0
H651 H 0.08407 0.5515 0.51141 0.0
C652 C 0.83345 0.85652 0.54683 0.0
C653 C 0.81957 0.85717 0.52793 0.0
C654 C 0.85382 0.86841 0.54729 0.0
C655 C 0.88678 0.91246 0.51845 0.0
H656 H 0.93751 0.87512 0.53069 0.0
C657 C 0.98179 0.90325 0.48559 0.0
C658 C 0.98937 0.9256 0.48647 0.0
C659 C 0.96192 0.89692 0.49617 0.0
C660 C 0.92352 0.8858 0.52735 0.0
H661 H 0.81531 0.87193 0.49542 0.0
H662 H 0.8506 0.89261 0.49625 0.0
H663 H 0.89982 0.86179 0.5396 0.0
H664 H 0.98237 0.95868 0.49991 0.0
H665 H 0.94764 0.94757 0.51834 0.0
H666 H 0.91032 0.93591 0.50502 0.0
C667 C 0.84589 0.883 0.51072 0.0
C668 C 0.90195 0.87829 0.53269 0.0
C669 C 0.82573 0.87098 0.51016 0.0
C670 C 0.97696 0.94134 0.49876 0.0
C671 C 0.95703 0.93501 0.50929 0.0
C672 C 0.90833 0.91999 0.51316 0.0
C673 C 0.86045 0.88136 0.52899 0.0
C674 C 0.88331 0.89122 0.52758 0.0
C675 C 0.94914 0.9128 0.50784 0.0
C676 C 0.92686 0.90641 0.51686 0.0
H677 H 0.82912 0.846 0.56077 0.0
H678 H 0.86468 0.86697 0.56165 0.0
H679 H 0.87272 0.92287 0.51453 0.0
H680 H 0.99095 0.89067 0.47634 0.0
H681 H 0.95614 0.87973 0.49447 0.0
C682 C 0.3106 0.6204 0.4894 0.0
C683 C 0.30952 0.63956 0.47639 0.0
C684 C 0.32994 0.60769 0.4895 0.0
C685 C 0.38721 0.60282 0.46367 0.0
H686 H 0.40141 0.58049 0.5223 0.0
C687 C 0.47543 0.59149 0.50244 0.0
C688 C 0.47962 0.57023 0.51092 0.0
C689 C 0.4543 0.59646 0.49411 0.0
C690 C 0.39752 0.58639 0.50577 0.0
H691 H 0.32722 0.66023 0.45272 0.0
H692 H 0.36155 0.63906 0.45388 0.0
H693 H 0.36465 0.5954 0.51551 0.0
H694 H 0.46523 0.53736 0.51686 0.0
H695 H 0.42797 0.54646 0.5031 0.0
H696 H 0.42114 0.59528 0.45485 0.0
C697 C 0.34732 0.63307 0.46336 0.0
C698 C 0.37635 0.59481 0.50172 0.0
C699 C 0.32767 0.64534 0.46272 0.0
C700 C 0.46249 0.55385 0.51035 0.0
C701 C 0.44122 0.55901 0.50252 0.0
C702 C 0.40864 0.5949 0.46795 0.0
C703 C 0.34897 0.61441 0.47727 0.0
C704 C 0.37089 0.60339 0.48068 0.0
C705 C 0.43695 0.58041 0.49459 0.0
C706 C 0.41394 0.58682 0.4891 0.0
H707 H 0.29664 0.61555 0.49992 0.0
H708 H 0.33014 0.59302 0.49978 0.0
H709 H 0.38363 0.6088 0.44713 0.0
H710 H 0.48837 0.60438 0.50258 0.0
H711 H 0.45124 0.61314 0.48824 0.0
C712 C 0.54263 0.6898 0.85935 0.0
C713 C 0.52104 0.6977 0.85534 0.0
C714 C 0.5456 0.67011 0.87114 0.0
C715 C 0.51643 0.62878 0.90736 0.0
H716 H 0.55848 0.58761 0.88065 0.0
C717 C 0.53523 0.54136 0.94346 0.0
C718 C 0.53822 0.5239 0.92777 0.0
C719 C 0.53292 0.56339 0.93641 0.0
C720 C 0.54657 0.59886 0.88826 0.0
H721 H 0.48568 0.6916 0.86146 0.0
H722 H 0.49084 0.65724 0.88163 0.0
H723 H 0.55556 0.62504 0.86603 0.0
H724 H 0.53994 0.51578 0.89232 0.0
H725 H 0.53553 0.5539 0.88013 0.0
H726 H 0.50692 0.60217 0.92908 0.0
C727 C 0.50552 0.66633 0.87593 0.0
C728 C 0.54515 0.62047 0.88008 0.0
C729 C 0.50257 0.686 0.8642 0.0
C730 C 0.53791 0.52882 0.9049 0.0
C731 C 0.53556 0.55073 0.89789 0.0
C732 C 0.51786 0.60711 0.91555 0.0
C733 C 0.52703 0.65788 0.87915 0.0
C734 C 0.52986 0.63562 0.88932 0.0
C735 C 0.53354 0.56835 0.91353 0.0
C736 C 0.5327 0.59179 0.90583 0.0
H737 H 0.55723 0.69848 0.85287 0.0
H738 H 0.56243 0.66424 0.87365 0.0
H739 H 0.50465 0.64012 0.91501 0.0
H740 H 0.53544 0.53816 0.96121 0.0
H741 H 0.53144 0.5766 0.94888 0.0
C742 C 0.46265 0.8061 0.86339 0.0
C743 C 0.4826 0.79437 0.86029 0.0
C744 C 0.46277 0.82645 0.8753 0.0
C745 C 0.50134 0.873 0.88655 0.0
H746 H 0.45497 0.89508 0.92605 0.0
C747 C 0.48635 0.96642 0.90244 0.0
C748 C 0.48256 0.97365 0.92456 0.0
C749 C 0.48765 0.94369 0.89719 0.0
C750 C 0.46815 0.88903 0.91522 0.0
H751 H 0.51786 0.79375 0.86889 0.0
H752 H 0.51795 0.82901 0.88966 0.0
H753 H 0.45395 0.85586 0.91348 0.0
H754 H 0.47744 0.96269 0.95857 0.0
H755 H 0.47951 0.92281 0.94923 0.0
H756 H 0.51528 0.90615 0.88782 0.0
C757 C 0.50236 0.82278 0.88253 0.0
C758 C 0.46746 0.86669 0.90791 0.0
C759 C 0.50225 0.80254 0.87067 0.0
C760 C 0.48049 0.95765 0.94139 0.0
C761 C 0.48149 0.93484 0.93605 0.0
C762 C 0.5019 0.8953 0.89365 0.0
C763 C 0.48282 0.83534 0.88427 0.0
C764 C 0.48399 0.85851 0.89338 0.0
C765 C 0.48495 0.92768 0.91387 0.0
C766 C 0.4852 0.9036 0.90785 0.0
H767 H 0.44725 0.80023 0.8556 0.0
H768 H 0.44746 0.83583 0.87635 0.0
H769 H 0.51417 0.86727 0.87512 0.0
H770 H 0.48802 0.97832 0.8891 0.0
H771 H 0.49016 0.93861 0.87992 0.0
C772 C 0.51429 0.30457 0.63076 0.0
C773 C 0.53359 0.29923 0.6428 0.0
C774 C 0.51368 0.32389 0.61819 0.0
C775 C 0.51126 0.37338 0.61098 0.0
H776 H 0.55943 0.39724 0.57464 0.0
C777 C 0.52147 0.46644 0.59143 0.0
C778 C 0.52784 0.47242 0.56972 0.0
C779 C 0.52049 0.44407 0.59745 0.0
C780 C 0.54574 0.39063 0.58452 0.0
H781 H 0.56787 0.30926 0.65001 0.0
H782 H 0.56673 0.3434 0.62808 0.0
H783 H 0.56228 0.35964 0.58982 0.0
H784 H 0.53753 0.45958 0.53708 0.0
H785 H 0.53595 0.42027 0.54775 0.0
H786 H 0.4949 0.40441 0.60612 0.0
C787 C 0.55212 0.33246 0.62834 0.0
C788 C 0.54747 0.36925 0.59337 0.0
C789 C 0.55276 0.31297 0.64094 0.0
C790 C 0.53244 0.45547 0.5539 0.0
C791 C 0.53175 0.43302 0.56004 0.0
C792 C 0.50961 0.39474 0.60231 0.0
C793 C 0.53232 0.33841 0.6174 0.0
C794 C 0.53031 0.3605 0.60685 0.0
C795 C 0.52607 0.42717 0.58197 0.0
C796 C 0.52693 0.40369 0.58923 0.0
H797 H 0.49934 0.29413 0.63152 0.0
H798 H 0.49836 0.32779 0.60956 0.0
H799 H 0.49786 0.36722 0.62152 0.0
H800 H 0.51782 0.47912 0.60399 0.0
H801 H 0.51621 0.44005 0.61452 0.0
C802 C 0.48031 0.19012 0.63523 0.0
C803 C 0.49938 0.204 0.63743 0.0
C804 C 0.48085 0.17105 0.62139 0.0
C805 C 0.48546 0.13408 0.58545 0.0
H806 H 0.5378 0.09929 0.5989 0.0
C807 C 0.49819 0.04458 0.5503 0.0
C808 C 0.50119 0.02907 0.56736 0.0
C809 C 0.50024 0.06748 0.55492 0.0
C810 C 0.52322 0.10891 0.59481 0.0
H811 H 0.53312 0.21011 0.62526 0.0
H812 H 0.53393 0.17703 0.60116 0.0
H813 H 0.5353 0.13755 0.61315 0.0
H814 H 0.51 0.02522 0.60219 0.0
H815 H 0.51409 0.06516 0.6101 0.0
H816 H 0.47311 0.10496 0.56775 0.0
C817 C 0.51879 0.18055 0.61043 0.0
C818 C 0.52183 0.13084 0.60282 0.0
C819 C 0.51828 0.1995 0.62423 0.0
C820 C 0.50754 0.0368 0.58875 0.0
C821 C 0.50996 0.05963 0.59325 0.0
C822 C 0.48697 0.11216 0.57721 0.0
C823 C 0.50043 0.16568 0.60955 0.0
C824 C 0.50273 0.14348 0.59862 0.0
C825 C 0.50577 0.07517 0.57654 0.0
C826 C 0.50564 0.09925 0.58231 0.0
H827 H 0.46551 0.19322 0.64517 0.0
H828 H 0.46646 0.15979 0.62106 0.0
H829 H 0.47061 0.14351 0.58191 0.0
H830 H 0.49317 0.03909 0.53368 0.0
H831 H 0.49706 0.0792 0.54176 0.0
C832 C 0.87 0.53959 0.68833 0.0
C833 C 0.8637 0.5187 0.69685 0.0
C834 C 0.88209 0.54092 0.66838 0.0
C835 C 0.91491 0.50719 0.62749 0.0
H836 H 0.8927 0.54965 0.58509 0.0
C837 C 0.91449 0.52454 0.52669 0.0
C838 C 0.93725 0.52209 0.52151 0.0
C839 C 0.90719 0.52384 0.5488 0.0
C840 C 0.899 0.53759 0.59669 0.0
H841 H 0.86604 0.48282 0.69166 0.0
H842 H 0.88663 0.48515 0.65689 0.0
H843 H 0.87812 0.5498 0.623 0.0
H844 H 0.97007 0.51614 0.53545 0.0
H845 H 0.9573 0.51515 0.5741 0.0
H846 H 0.93511 0.49438 0.60082 0.0
C847 C 0.88255 0.50053 0.66565 0.0
C848 C 0.89091 0.53793 0.61855 0.0
C849 C 0.87055 0.49921 0.68555 0.0
C850 C 0.9524 0.51801 0.53886 0.0
C851 C 0.94509 0.51743 0.56102 0.0
C852 C 0.92296 0.5068 0.60557 0.0
C853 C 0.88808 0.52137 0.65658 0.0
C854 C 0.89852 0.52252 0.63412 0.0
C855 C 0.92247 0.52081 0.56626 0.0
C856 C 0.91481 0.52177 0.58984 0.0
H857 H 0.86508 0.55492 0.69672 0.0
H858 H 0.88639 0.55724 0.66197 0.0
H859 H 0.92131 0.49526 0.63917 0.0
H860 H 0.90234 0.52751 0.51372 0.0
H861 H 0.88955 0.52593 0.55222 0.0
C862 C 0.1607 0.96229 0.6812 0.0
C863 C 0.1583 0.981 0.69537 0.0
C864 C 0.14963 0.96116 0.66065 0.0
C865 C 0.12424 -0.00113 0.61955 0.0
H866 H 0.10797 0.94291 0.58976 0.0
C867 C 0.0804 0.99 0.53264 0.0
C868 C 0.09154 0.97583 0.51749 0.0
C869 C 0.08717 0.9915 0.55499 0.0
C870 C 0.11245 0.95864 0.59796 0.0
H871 H 0.14125 0.01236 0.70011 0.0
H872 H 0.12104 0.0099 0.66485 0.0
H873 H 0.12024 0.9428 0.62862 0.0
H874 H 0.11879 0.95251 0.51381 0.0
H875 H 0.13023 0.95492 0.55283 0.0
H876 H 0.11597 0.01461 0.5888 0.0
C877 C 0.13216 0.99652 0.66902 0.0
C878 C 0.11959 0.9586 0.62015 0.0
C879 C 0.14356 0.99785 0.68934 0.0
C880 C 0.1099 0.96367 0.525 0.0
C881 C 0.11636 0.96487 0.54736 0.0
C882 C 0.11671 -0.00109 0.59748 0.0
C883 C 0.13563 0.97854 0.65405 0.0
C884 C 0.12599 0.97868 0.63113 0.0
C885 C 0.10486 0.97853 0.56258 0.0
C886 C 0.11117 0.97876 0.58641 0.0
H887 H 0.17212 0.94915 0.68539 0.0
H888 H 0.15297 0.94716 0.64952 0.0
H889 H 0.12941 0.01464 0.62722 0.0
H890 H 0.06621 -0.00044 0.52735 0.0
H891 H 0.07812 0.0022 0.56651 0.0
C892 C 0.87594 0.4968 0.80315 0.0
C893 C 0.86579 0.47845 0.79195 0.0
C894 C 0.88866 0.49374 0.82232 0.0
C895 C 0.92021 0.48308 0.86 0.0
H896 H 0.89202 0.4424 0.90154 0.0
C897 C 0.95303 0.46857 0.95007 0.0
C898 C 0.93658 0.4662 0.9667 0.0
C899 C 0.94692 0.46977 0.92756 0.0
C900 C 0.90005 0.45391 0.89016 0.0
H901 H 0.8624 0.44232 0.79115 0.0
H902 H 0.88499 0.43692 0.82452 0.0
H903 H 0.87816 0.44402 0.86352 0.0
H904 H 0.90082 0.46461 0.97288 0.0
H905 H 0.89024 0.46719 0.93388 0.0
H906 H 0.94142 0.49368 0.88716 0.0
C907 C 0.88266 0.45374 0.8187 0.0
C908 C 0.89234 0.45456 0.86823 0.0
C909 C 0.86983 0.45682 0.79952 0.0
C910 C 0.91393 0.46616 0.96048 0.0
C911 C 0.90786 0.46744 0.93809 0.0
C912 C 0.9279 0.48246 0.88203 0.0
C913 C 0.89165 0.47223 0.83069 0.0
C914 C 0.90201 0.46947 0.85299 0.0
C915 C 0.92426 0.46867 0.92133 0.0
C916 C 0.91753 0.46823 0.89747 0.0
H917 H 0.87327 0.51371 0.79772 0.0
H918 H 0.89512 0.50838 0.83122 0.0
H919 H 0.9282 0.49456 0.84859 0.0
H920 H 0.97064 0.46859 0.95431 0.0
H921 H 0.95995 0.4707 0.91502 0.0
C922 C 0.14483 0.00556 0.80158 0.0
C923 C 0.15434 0.02422 0.79098 0.0
C924 C 0.13232 0.00815 0.8211 0.0
C925 C 0.10137 0.01733 0.86004 0.0
H926 H 0.12878 0.05881 0.9027 0.0
C927 C 0.07188 0.02677 0.95264 0.0
C928 C 0.0891 0.02929 0.96853 0.0
C929 C 0.07676 0.02727 0.92974 0.0
C930 C 0.12094 0.04709 0.89101 0.0
H931 H 0.15678 0.0604 0.79172 0.0
H932 H 0.13454 0.06499 0.82569 0.0
H933 H 0.14163 0.05827 0.86424 0.0
H934 H 0.12502 0.03319 0.97278 0.0
H935 H 0.13347 0.03357 0.93319 0.0
H936 H 0.08151 0.00537 0.8873 0.0
C937 C 0.13721 0.04828 0.81913 0.0
C938 C 0.12807 0.04703 0.86881 0.0
C939 C 0.14984 0.04567 0.79958 0.0
C940 C 0.11129 0.03148 0.96104 0.0
C941 C 0.11614 0.03189 0.93829 0.0
C942 C 0.09428 0.01733 0.88233 0.0
C943 C 0.12888 0.02949 0.8305 0.0
C944 C 0.11878 0.03178 0.85315 0.0
C945 C 0.09894 0.03027 0.92234 0.0
C946 C 0.10445 0.0318 0.89819 0.0
H947 H 0.14785 0.98877 0.79538 0.0
H948 H 0.12642 0.99328 0.82946 0.0
H949 H 0.0936 0.00559 0.84833 0.0
H950 H 0.05459 0.02512 0.95786 0.0
H951 H 0.06312 0.02597 0.91786 0.0
C952 C 0.70748 0.86151 0.47416 0.0
C953 C 0.72154 0.86091 0.49294 0.0
C954 C 0.68737 0.87314 0.47521 0.0
C955 C 0.64642 0.88784 0.51775 0.0
H956 H 0.61682 0.9198 0.47071 0.0
C957 C 0.56055 0.93974 0.50831 0.0
C958 C 0.54566 0.9243 0.51813 0.0
C959 C 0.58233 0.93351 0.50266 0.0
C960 C 0.62499 0.911 0.484 0.0
H961 H 0.72681 0.87382 0.52664 0.0
H962 H 0.69208 0.89433 0.5283 0.0
H963 H 0.65581 0.90838 0.46575 0.0
H964 H 0.54162 0.88986 0.52843 0.0
H965 H 0.5794 0.87914 0.51859 0.0
H966 H 0.61584 0.89023 0.53597 0.0
C967 C 0.6962 0.88536 0.51302 0.0
C968 C 0.64719 0.90439 0.48113 0.0
C969 C 0.71612 0.87366 0.51203 0.0
C970 C 0.55268 0.90228 0.52116 0.0
C971 C 0.57436 0.89612 0.51559 0.0
C972 C 0.62433 0.89426 0.52053 0.0
C973 C 0.68114 0.8844 0.49501 0.0
C974 C 0.65809 0.89271 0.49801 0.0
C975 C 0.58958 0.91179 0.50683 0.0
C976 C 0.61329 0.90571 0.50364 0.0
H977 H 0.71125 0.85184 0.45921 0.0
H978 H 0.67609 0.87208 0.46108 0.0
H979 H 0.65419 0.87855 0.53093 0.0
H980 H 0.55565 0.95682 0.50566 0.0
H981 H 0.59376 0.94593 0.49595 0.0
C982 C 0.70896 0.12895 0.95317 0.0
C983 C 0.72101 0.13318 0.97297 0.0
C984 C 0.68854 0.11719 0.95377 0.0
C985 C 0.64812 0.08541 0.95979 0.0
H986 H 0.60942 0.10933 0.00615 0.0
C987 C 0.55647 0.05545 0.97145 0.0
C988 C 0.54101 0.0729 0.97183 0.0
C989 C 0.57935 0.06009 0.97359 0.0
C990 C 0.62007 0.10242 0.99321 0.0
H991 H 0.72223 0.12669 0.00852 0.0
H992 H 0.68682 0.10617 0.00947 0.0
H993 H 0.64862 0.12107 0.00492 0.0
H994 H 0.53731 0.10873 0.97584 0.0
H995 H 0.57722 0.11674 0.97995 0.0
H996 H 0.61923 0.06724 0.94776 0.0
C997 C 0.69285 0.11231 0.99361 0.0
C998 C 0.64254 0.10897 0.9926 0.0
C999 C 0.71315 0.12403 0.99302 0.0
C1000 C 0.5488 0.09494 0.97543 0.0
C1001 C 0.57163 0.09952 0.97786 0.0
C1002 C 0.62563 0.07868 0.96054 0.0
C1003 C 0.67995 0.1095 0.97417 0.0
C1004 C 0.65671 0.10079 0.9757 0.0
C1005 C 0.58712 0.08219 0.9765 0.0
C1006 C 0.61135 0.08745 0.97704 0.0
H1007 H 0.71463 0.13577 0.93748 0.0
H1008 H 0.67888 0.1153 0.93854 0.0
H1009 H 0.65872 0.07881 0.94665 0.0
H1010 H 0.55101 0.03829 0.96862 0.0
H1011 H 0.59099 0.04643 0.97267 0.0
C1012 C 0.32476 0.38265 0.02283 0.0
C1013 C 0.31955 0.36534 0.03758 0.0
C1014 C 0.34583 0.39304 0.02338 0.0
C1015 C 0.40168 0.37726 0.02963 0.0
H1016 H 0.4174 0.44033 0.02969 0.0
C1017 C 0.49045 0.40604 0.00529 0.0
C1018 C 0.49245 0.42569 0.99298 0.0
C1019 C 0.47025 0.40038 0.01564 0.0
C1020 C 0.4133 0.42265 0.02936 0.0
H1021 H 0.33173 0.3461 0.06524 0.0
H1022 H 0.369 0.3638 0.0656 0.0
H1023 H 0.37945 0.42846 0.03966 0.0
H1024 H 0.47506 0.45489 0.98185 0.0
H1025 H 0.43945 0.44442 -0.00143 0.0
H1026 H 0.43455 0.37118 0.01756 0.0
C1027 C 0.35657 0.36954 0.05397 0.0
C1028 C 0.39164 0.41592 0.03535 0.0
C1029 C 0.33528 0.35952 0.05379 0.0
C1030 C 0.47398 0.43968 0.99136 0.0
C1031 C 0.45359 0.43374 0.00119 0.0
C1032 C 0.42313 0.38396 0.02311 0.0
C1033 C 0.36216 0.38593 0.03835 0.0
C1034 C 0.38563 0.39319 0.03526 0.0
C1035 C 0.45137 0.41391 0.01338 0.0
C1036 C 0.42918 0.40679 0.0225 0.0
H1037 H 0.31289 0.38743 0.01018 0.0
H1038 H 0.34987 0.40553 0.01106 0.0
H1039 H 0.39726 0.35963 0.02909 0.0
H1040 H 0.50459 0.39514 0.00707 0.0
H1041 H 0.46948 0.3853 0.02533 0.0
C1042 C 0.82817 0.12771 0.99482 0.0
C1043 C 0.81687 0.13809 0.0127 0.0
C1044 C 0.84756 0.1157 -0.00148 0.0
C1045 C 0.89367 0.113 0.03888 0.0
H1046 H 0.91173 0.06314 0.00114 0.0
C1047 C 0.97428 0.0511 0.0271 0.0
C1048 C 0.99138 0.06732 0.02995 0.0
C1049 C 0.95188 0.05746 0.02568 0.0
C1050 C 0.90687 0.07688 0.01201 0.0
H1051 H 0.81642 0.14285 0.04869 0.0
H1052 H 0.85013 0.12145 0.05523 0.0
H1053 H 0.87357 0.07672 -0.00113 0.0
H1054 H -0.00156 0.10297 0.03239 0.0
H1055 H 0.95973 0.11397 0.02938 0.0
H1056 H 0.92681 0.11307 0.05218 0.0
C1057 C 0.84421 0.12305 0.03825 0.0
C1058 C 0.88505 0.08482 0.01056 0.0
C1059 C 0.8248 0.1352 0.03453 0.0
C1060 C 0.98569 0.09 0.03048 0.0
C1061 C 0.96343 0.09632 0.02894 0.0
C1062 C 0.9154 0.10501 0.04039 0.0
C1063 C 0.85613 0.11361 0.02022 0.0
C1064 C 0.87832 0.10329 0.02364 0.0
C1065 C 0.94618 0.08016 0.027 0.0
C1066 C 0.92245 0.08721 0.02661 0.0
H1067 H 0.82254 0.12954 0.97777 0.0
H1068 H 0.85638 0.10894 0.98419 0.0
H1069 H 0.88923 0.12737 0.04907 0.0
H1070 H 0.97809 0.03348 0.02671 0.0
H1071 H 0.939 0.04457 0.02423 0.0
C1072 C 0.04358 0.1824 0.27597 0.0
C1073 C 0.02402 0.19502 0.27599 0.0
C1074 C 0.0464 0.16508 0.26028 0.0
C1075 C 0.01462 0.12995 0.21837 0.0
H1076 H 0.07337 0.12133 0.19249 0.0
C1077 C 0.03179 0.09181 0.13112 0.0
C1078 C 0.04844 0.07561 0.12939 0.0
C1079 C 0.02781 0.10276 0.15146 0.0
C1080 C 0.05694 0.12334 0.19983 0.0
H1081 H 0.99226 0.19975 0.25943 0.0
H1082 H 0.99755 0.17043 0.23155 0.0
H1083 H 0.06886 0.14817 0.22317 0.0
H1084 H 0.07357 0.0577 0.14763 0.0
H1085 H 0.067 0.07747 0.18319 0.0
H1086 H 0.00264 0.10604 0.19389 0.0
C1087 C 0.0104 0.17316 0.24408 0.0
C1088 C 0.05432 0.13867 0.21746 0.0
C1089 C 0.00744 0.19016 0.25996 0.0
C1090 C 0.06056 0.07005 0.14854 0.0
C1091 C 0.0569 0.08138 0.16881 0.0
C1092 C 0.0172 0.11495 0.20047 0.0
C1093 C 0.02986 0.16028 0.24406 0.0
C1094 C 0.03305 0.14249 0.2267 0.0
C1095 C 0.0407 0.09802 0.17032 0.0
C1096 C 0.03832 0.11177 0.19087 0.0
H1097 H 0.05655 0.18567 0.28828 0.0
H1098 H 0.06146 0.15535 0.26101 0.0
H1099 H -0.00191 0.13196 0.22541 0.0
H1100 H 0.02216 0.09637 0.11662 0.0
H1101 H 0.01532 0.11566 0.15221 0.0
C1102 C 0.00248 0.28645 0.25366 0.0
C1103 C 0.98513 0.28515 0.2694 0.0
C1104 C 0.00103 0.30072 0.23555 0.0
C1105 C 0.96032 0.3346 0.20376 0.0
H1106 H 0.01476 0.36046 0.17921 0.0
C1107 C 0.96297 0.40395 0.13704 0.0
C1108 C 0.97433 0.3977 0.11739 0.0
C1109 C 0.9644 0.39099 0.15617 0.0
C1110 C -0.00054 0.35331 0.18593 0.0
H1111 H 0.95275 0.29798 0.27878 0.0
H1112 H 0.95061 0.32379 0.24782 0.0
H1113 H 0.0168 0.33702 0.21199 0.0
H1114 H 0.99659 0.37337 0.10255 0.0
H1115 H -0.00028 0.35117 0.13636 0.0
H1116 H 0.94306 0.35181 0.17797 0.0
C1117 C 0.96506 0.31323 0.24891 0.0
C1118 C 0.00057 0.3397 0.20461 0.0
C1119 C 0.96631 0.29854 0.26678 0.0
C1120 C 0.98762 0.37856 0.11743 0.0
C1121 C 0.98947 0.36592 0.13674 0.0
C1122 C 0.95919 0.34863 0.18538 0.0
C1123 C 0.98239 0.31449 0.23297 0.0
C1124 C 0.98105 0.32988 0.21364 0.0
C1125 C 0.97764 0.37188 0.15615 0.0
C1126 C 0.97877 0.35787 0.17618 0.0
H1127 H 0.01708 0.27611 0.25511 0.0
H1128 H 0.01446 0.30065 0.22343 0.0
H1129 H 0.94494 0.32712 0.20985 0.0
H1130 H 0.95249 0.41853 0.13745 0.0
H1131 H 0.9552 0.39591 0.171 0.0
C1132 C 0.97671 0.80198 0.23327 0.0
C1133 C 0.99747 0.79478 0.22505 0.0
C1134 C 0.97575 0.81944 0.24917 0.0
C1135 C 0.01002 0.86615 0.27369 0.0
H1136 H 0.97485 0.85652 0.32715 0.0
C1137 C 0.016 0.89029 0.37217 0.0
C1138 C 0.02302 0.91278 0.37115 0.0
C1139 C 0.00802 0.87898 0.35313 0.0
C1140 C 0.98474 0.85949 0.3123 0.0
H1141 H 0.0334 0.8006 0.22677 0.0
H1142 H 0.03171 0.83051 0.25431 0.0
H1143 H 0.97041 0.83095 0.29519 0.0
H1144 H 0.02607 0.94134 0.34948 0.0
H1145 H 0.01181 0.92164 0.31627 0.0
H1146 H 0.02545 0.89371 0.29115 0.0
C1147 C 0.01614 0.82302 0.2484 0.0
C1148 C 0.98197 0.84499 0.29389 0.0
C1149 C 0.0171 0.80563 0.23273 0.0
C1150 C 0.02104 0.92395 0.3508 0.0
C1151 C 0.01291 0.91264 0.33175 0.0
C1152 C 0.01286 0.88054 0.29209 0.0
C1153 C 0.99551 0.83011 0.2569 0.0
C1154 C 0.99519 0.84771 0.27469 0.0
C1155 C 0.00669 0.88989 0.33259 0.0
C1156 C 0.00081 0.87695 0.3119 0.0
H1157 H 0.96129 0.79397 0.22765 0.0
H1158 H 0.9596 0.82459 0.25541 0.0
H1159 H 0.02015 0.86892 0.25896 0.0
H1160 H 0.01726 0.88114 0.38755 0.0
H1161 H 0.00377 0.86139 0.35438 0.0
C1162 C 0.04901 0.68943 0.23711 0.0
C1163 C 0.029 0.69843 0.2292 0.0
C1164 C 0.04848 0.67256 0.25306 0.0
C1165 C 0.0415 0.64784 0.29706 0.0
H1166 H 0.99331 0.60364 0.2948 0.0
C1167 C 0.0093 0.60311 0.37492 0.0
C1168 C 0.00064 0.58116 0.37309 0.0
C1169 C 0.01654 0.61446 0.35603 0.0
C1170 C 0.00714 0.61555 0.29556 0.0
H1171 H 0.99279 0.6968 0.23199 0.0
H1172 H 0.99194 0.66792 0.25977 0.0
H1173 H -0.00107 0.62863 0.26365 0.0
H1174 H 0.99374 0.5536 0.34996 0.0
H1175 H 0.00664 0.57343 0.31689 0.0
H1176 H 0.04964 0.63478 0.32904 0.0
C1177 C 0.00803 0.67347 0.25342 0.0
C1178 C 0.01018 0.6301 0.2778 0.0
C1179 C 0.00855 0.69023 0.23759 0.0
C1180 C 0.00016 0.57054 0.35195 0.0
C1181 C 0.00748 0.58194 0.33299 0.0
C1182 C 0.03851 0.63321 0.31482 0.0
C1183 C 0.02794 0.66433 0.26131 0.0
C1184 C 0.02694 0.64688 0.27865 0.0
C1185 C 0.01543 0.60417 0.33478 0.0
C1186 C 0.02086 0.61733 0.31457 0.0
H1187 H 0.06504 0.69534 0.23093 0.0
H1188 H 0.06412 0.66581 0.25876 0.0
H1189 H 0.05456 0.66057 0.29827 0.0
H1190 H 0.00999 0.61184 0.39091 0.0
H1191 H 0.0222 0.63166 0.35805 0.0
C1192 C 0.28575 0.00742 0.18513 0.0
C1193 C 0.29202 0.98763 0.19553 0.0
C1194 C 0.27092 0.00686 0.16723 0.0
C1195 C 0.2457 0.0021 0.12414 0.0
H1196 H 0.19119 0.9674 0.13271 0.0
C1197 C 0.16672 0.01634 0.07076 0.0
C1198 C 0.14688 0.01779 0.08329 0.0
C1199 C 0.18619 0.00807 0.0804 0.0
C1200 C 0.20635 0.97715 0.13001 0.0
H1201 H 0.28807 0.95156 0.19481 0.0
H1202 H 0.26184 0.95056 0.16327 0.0
H1203 H 0.22314 0.96155 0.15698 0.0
H1204 H 0.13198 0.01141 0.11573 0.0
H1205 H 0.16569 0.99767 0.13246 0.0
H1206 H 0.22839 0.01889 0.09831 0.0
C1207 C 0.26846 0.96654 0.16919 0.0
C1208 C 0.22478 0.97357 0.14375 0.0
C1209 C 0.28348 0.9671 0.1872 0.0
C1210 C 0.1469 0.01054 0.1055 0.0
C1211 C 0.16625 0.00236 0.11508 0.0
C1212 C 0.22723 0.0058 0.11052 0.0
C1213 C 0.2619 0.98649 0.15913 0.0
C1214 C 0.24434 0.98668 0.14158 0.0
C1215 C 0.18618 0.00107 0.10273 0.0
C1216 C 0.20703 0.99402 0.11393 0.0
H1217 H 0.29204 0.02356 0.191 0.0
H1218 H 0.26592 0.02258 0.16028 0.0
H1219 H 0.26073 0.01213 0.12173 0.0
H1220 H 0.16724 0.02164 0.05356 0.0
H1221 H 0.20125 0.00719 0.07039 0.0
C1222 C 0.75265 0.524 0.19277 0.0
C1223 C 0.74241 0.50414 0.20014 0.0
C1224 C 0.7685 0.52339 0.17547 0.0
C1225 C 0.81229 0.51367 0.15069 0.0
H1226 H 0.8064 0.46919 0.10305 0.0
C1227 C 0.88846 0.47635 0.10664 0.0
C1228 C 0.88706 0.46954 0.08407 0.0
C1229 C 0.86974 0.48442 0.11787 0.0
C1230 C 0.80826 0.48201 0.11594 0.0
H1231 H 0.7404 0.46818 0.19473 0.0
H1232 H 0.76791 0.46714 0.1652 0.0
H1233 H 0.77462 0.47695 0.1271 0.0
H1234 H 0.86492 0.4665 0.05545 0.0
H1235 H 0.83221 0.48092 0.07505 0.0
H1236 H 0.84597 0.51871 0.13951 0.0
C1237 C 0.76361 0.48324 0.17237 0.0
C1238 C 0.79008 0.48627 0.12993 0.0
C1239 C 0.74794 0.48383 0.18956 0.0
C1240 C 0.86653 0.47141 0.07289 0.0
C1241 C 0.84778 0.47964 0.08414 0.0
C1242 C 0.83046 0.50952 0.13658 0.0
C1243 C 0.77422 0.50294 0.16517 0.0
C1244 C 0.79212 0.50154 0.14797 0.0
C1245 C 0.84911 0.48607 0.10684 0.0
C1246 C 0.8289 0.49307 0.11952 0.0
H1247 H 0.74871 0.53991 0.20055 0.0
H1248 H 0.77631 0.53888 0.17022 0.0
H1249 H 0.81446 0.52553 0.16442 0.0
H1250 H 0.90397 0.4751 0.11583 0.0
H1251 H 0.87135 0.48874 0.13545 0.0
C1252 C 0.28071 0.00206 0.30752 0.0
C1253 C 0.28186 0.01879 0.29146 0.0
C1254 C 0.26191 -0.00027 0.32108 0.0
C1255 C 0.20884 0.02657 0.33915 0.0
H1256 H 0.19231 0.96506 0.35145 0.0
C1257 C 0.12384 0.99514 0.37767 0.0
C1258 C 0.12635 0.98098 0.39599 0.0
C1259 C 0.14252 0.00194 0.3652 0.0
C1260 C 0.19677 0.98232 0.3482 0.0
H1261 H 0.26467 0.04677 0.2774 0.0
H1262 H 0.23114 0.0422 0.30058 0.0
H1263 H 0.22534 0.97301 0.32918 0.0
H1264 H 0.15048 0.96316 0.41571 0.0
H1265 H 0.18279 0.97459 0.39364 0.0
H1266 H 0.17947 0.03554 0.35778 0.0
C1267 C 0.24502 0.03116 0.30309 0.0
C1268 C 0.21583 0.98695 0.33559 0.0
C1269 C 0.26418 0.03379 0.28978 0.0
C1270 C 0.14791 0.97407 0.40173 0.0
C1271 C 0.16643 0.98054 0.38908 0.0
C1272 C 0.18946 0.02186 0.35153 0.0
C1273 C 0.24344 0.01369 0.31853 0.0
C1274 C 0.22243 0.00914 0.33123 0.0
C1275 C 0.1639 0.99435 0.37059 0.0
C1276 C 0.18352 -0.00031 0.35645 0.0
H1277 H 0.29429 0.99047 0.30937 0.0
H1278 H 0.26174 0.98662 0.33331 0.0
H1279 H 0.21341 0.04385 0.33623 0.0
H1280 H 0.10746 0.00084 0.3729 0.0
H1281 H 0.14018 0.01254 0.35094 0.0
C1282 C 0.74424 0.48482 0.31476 0.0
C1283 C 0.74549 0.47128 0.2955 0.0
C1284 C 0.76223 0.48644 0.32947 0.0
C1285 C 0.81806 0.46358 0.34328 0.0
H1286 H 0.82839 0.5245 0.36451 0.0
C1287 C 0.90136 0.49923 0.38171 0.0
C1288 C 0.89894 0.51227 0.40132 0.0
C1289 C 0.88251 0.49145 0.36991 0.0
C1290 C 0.82562 0.50737 0.35887 0.0
H1291 H 0.7658 0.44803 0.27674 0.0
H1292 H 0.79795 0.45154 0.30204 0.0
H1293 H 0.79554 0.51557 0.34217 0.0
H1294 H 0.87482 0.52681 0.42424 0.0
H1295 H 0.8421 0.51355 0.40345 0.0
H1296 H 0.84896 0.45587 0.35952 0.0
C1297 C 0.78286 0.46047 0.30617 0.0
C1298 C 0.8067 0.50217 0.34618 0.0
C1299 C 0.76453 0.45844 0.29166 0.0
C1300 C 0.87732 0.5169 0.40916 0.0
C1301 C 0.85856 0.50935 0.39726 0.0
C1302 C 0.83726 0.46891 0.35581 0.0
C1303 C 0.78216 0.47511 0.32484 0.0
C1304 C 0.80249 0.48017 0.33842 0.0
C1305 C 0.86098 0.49683 0.3774 0.0
C1306 C 0.84104 0.49083 0.36387 0.0
H1307 H 0.72955 0.49471 0.31808 0.0
H1308 H 0.76077 0.49726 0.34407 0.0
H1309 H 0.81531 0.44647 0.33765 0.0
H1310 H 0.9178 0.49525 0.37532 0.0
H1311 H 0.88476 0.48191 0.35456 0.0
C1312 C 0.22091 0.26104 0.01263 0.0
C1313 C 0.22441 0.27556 0.031 0.0
C1314 C 0.20549 0.24336 0.01388 0.0
C1315 C 0.17317 0.20954 0.05474 0.0
H1316 H 0.14215 0.189 0.00109 0.0
C1317 C 0.10415 0.14009 0.05284 0.0
C1318 C 0.10989 0.1218 0.03909 0.0
C1319 C 0.11635 0.16017 0.0518 0.0
C1320 C 0.15069 0.19466 0.01617 0.0
H1321 H 0.2143 0.2833 0.06497 0.0
H1322 H 0.18656 0.25301 0.06691 0.0
H1323 H 0.16632 0.22218 -0.0002 0.0
H1324 H 0.13226 0.11036 0.01292 0.0
H1325 H 0.15309 0.14579 0.01061 0.0
H1326 H 0.15686 0.18215 0.07109 0.0
C1327 C 0.19622 0.25477 0.05173 0.0
C1328 C 0.1647 0.21353 0.01545 0.0
C1329 C 0.21203 0.27222 0.05061 0.0
C1330 C 0.12754 0.12418 0.02376 0.0
C1331 C 0.13938 0.14441 0.02237 0.0
C1332 C 0.15877 0.19094 0.05553 0.0
C1333 C 0.19281 0.24003 0.03339 0.0
C1334 C 0.17651 0.22098 0.03462 0.0
C1335 C 0.13409 0.16242 0.03661 0.0
C1336 C 0.14774 0.18316 0.03617 0.0
H1337 H 0.23042 0.26306 0.99737 0.0
H1338 H 0.20385 0.2321 -0.00039 0.0
H1339 H 0.18218 0.21447 0.06975 0.0
H1340 H 0.0907 0.13867 0.06489 0.0
H1341 H 0.11202 0.17392 0.0629 0.0
C1342 C 0.20412 0.72999 0.45659 0.0
C1343 C 0.21652 0.7288 0.47647 0.0
C1344 C 0.18901 0.74728 0.45358 0.0
C1345 C 0.18053 0.80479 0.46719 0.0
H1346 H 0.11686 0.79476 0.4586 0.0
C1347 C 0.12086 0.87865 0.46784 0.0
C1348 C 0.10193 0.87777 0.454 0.0
C1349 C 0.13385 0.85978 0.47064 0.0
C1350 C 0.13463 0.79791 0.46057 0.0
H1351 H 0.22289 0.74475 0.50872 0.0
H1352 H 0.19707 0.77537 0.50304 0.0
H1353 H 0.14148 0.76288 0.46255 0.0
H1354 H 0.08159 0.85642 0.43231 0.0
H1355 H 0.1049 0.82361 0.43624 0.0
H1356 H 0.17428 0.83954 0.46432 0.0
C1357 C 0.19882 0.76271 0.49002 0.0
C1358 C 0.14866 0.77962 0.46296 0.0
C1359 C 0.2135 0.74518 0.49326 0.0
C1360 C 0.09606 0.85751 0.44317 0.0
C1361 C 0.1094 0.83868 0.44555 0.0
C1362 C 0.16666 0.82302 0.46431 0.0
C1363 C 0.18648 0.7639 0.47017 0.0
C1364 C 0.17165 0.78298 0.46658 0.0
C1365 C 0.12862 0.83961 0.45919 0.0
C1366 C 0.14343 0.81991 0.46131 0.0
H1367 H 0.20606 0.71753 0.44342 0.0
H1368 H 0.17969 0.74798 0.4381 0.0
H1369 H 0.19829 0.80771 0.4697 0.0
H1370 H 0.12559 0.89397 0.47668 0.0
H1371 H 0.14801 0.86109 0.48187 0.0
C1372 C 0.81274 0.75048 0.49986 0.0
C1373 C 0.8099 0.76708 0.48391 0.0
C1374 C 0.82769 0.73321 0.49606 0.0
C1375 C 0.86056 0.70493 0.4512 0.0
H1376 H 0.89035 0.67962 0.50217 0.0
C1377 C 0.93047 0.63796 0.44677 0.0
C1378 C 0.9241 0.6182 0.4576 0.0
C1379 C 0.91782 0.65727 0.44946 0.0
C1380 C 0.88217 0.68662 0.48782 0.0
H1381 H 0.82056 0.77878 0.45151 0.0
H1382 H 0.84749 0.74912 0.44519 0.0
H1383 H 0.86635 0.71172 0.50766 0.0
H1384 H 0.89991 0.60324 0.48011 0.0
H1385 H 0.87832 0.63725 0.4854 0.0
H1386 H 0.87715 0.67995 0.43141 0.0
C1387 C 0.83768 0.749 0.46039 0.0
C1388 C 0.86823 0.70487 0.49092 0.0
C1389 C 0.82233 0.76608 0.46402 0.0
C1390 C 0.90515 0.61821 0.47149 0.0
C1391 C 0.89286 0.63762 0.47459 0.0
C1392 C 0.87491 0.68694 0.44806 0.0
C1393 C 0.8406 0.73234 0.47641 0.0
C1394 C 0.85681 0.71399 0.47273 0.0
C1395 C 0.89899 0.65722 0.46347 0.0
C1396 C 0.88547 0.67743 0.46642 0.0
H1397 H 0.80317 0.75067 0.51524 0.0
H1398 H 0.8289 0.72041 0.50852 0.0
H1399 H 0.85191 0.71123 0.43681 0.0
H1400 H 0.94494 0.63837 0.43589 0.0
H1401 H 0.92281 0.67227 0.44077 0.0
C1402 C 0.31918 0.72964 0.53955 0.0
C1403 C 0.3063 0.72898 0.51996 0.0
C1404 C 0.3361 0.74585 0.54245 0.0
C1405 C 0.37006 0.78699 0.51023 0.0
H1406 H 0.38045 0.81455 0.5685 0.0
C1407 C 0.40983 0.87403 0.52592 0.0
C1408 C 0.42858 0.87489 0.54002 0.0
C1409 C 0.39733 0.85429 0.52337 0.0
C1410 C 0.37785 0.80674 0.55222 0.0
H1411 H 0.30035 0.74506 0.48841 0.0
H1412 H 0.32894 0.77385 0.49386 0.0
H1413 H 0.35318 0.78387 0.56462 0.0
H1414 H 0.44904 0.85595 0.56254 0.0
H1415 H 0.4265 0.82144 0.55861 0.0
H1416 H 0.3938 0.81092 0.49776 0.0
C1417 C 0.3268 0.76142 0.50663 0.0
C1418 C 0.36233 0.78915 0.54996 0.0
C1419 C 0.31023 0.74503 0.50357 0.0
C1420 C 0.43471 0.85564 0.55147 0.0
C1421 C 0.42185 0.83601 0.54932 0.0
C1422 C 0.38521 0.80484 0.51245 0.0
C1423 C 0.34016 0.76189 0.52596 0.0
C1424 C 0.35796 0.77931 0.52885 0.0
C1425 C 0.4031 0.83527 0.53526 0.0
C1426 C 0.38896 0.815 0.53339 0.0
H1427 H 0.31656 0.71733 0.55237 0.0
H1428 H 0.3462 0.74556 0.55744 0.0
H1429 H 0.36762 0.77943 0.49383 0.0
H1430 H 0.40483 0.88862 0.51685 0.0
H1431 H 0.38282 0.85401 0.51253 0.0
C1432 C 0.45899 0.7001 0.75356 0.0
C1433 C 0.47652 0.6995 0.76912 0.0
C1434 C 0.45787 0.68436 0.73595 0.0
C1435 C 0.47757 0.62944 0.71669 0.0
H1436 H 0.48298 0.65589 0.65829 0.0
C1437 C 0.51871 0.58343 0.64279 0.0
C1438 C 0.51252 0.58846 0.62086 0.0
C1439 C 0.50928 0.59486 0.66094 0.0
C1440 C 0.48092 0.64803 0.67432 0.0
H1441 H 0.50571 0.68139 0.77946 0.0
H1442 H 0.50337 0.65366 0.74922 0.0
H1443 H 0.47406 0.67935 0.69055 0.0
H1444 H 0.4906 0.60843 0.60078 0.0
H1445 H 0.47352 0.62774 0.6324 0.0
H1446 H 0.48461 0.59815 0.70066 0.0
C1447 C 0.49068 0.66632 0.75039 0.0
C1448 C 0.47583 0.66155 0.69282 0.0
C1449 C 0.4921 0.68227 0.76758 0.0
C1450 C 0.49596 0.60441 0.6175 0.0
C1451 C 0.48624 0.61557 0.63565 0.0
C1452 C 0.48231 0.61582 0.69814 0.0
C1453 C 0.4739 0.66751 0.73411 0.0
C1454 C 0.47481 0.6525 0.71425 0.0
C1455 C 0.49313 0.61133 0.65761 0.0
C1456 C 0.48481 0.62506 0.67681 0.0
H1457 H 0.44684 0.7133 0.75438 0.0
H1458 H 0.4448 0.6856 0.72354 0.0
H1459 H 0.47672 0.62207 0.73307 0.0
H1460 H 0.5315 0.57128 0.64592 0.0
H1461 H 0.51534 0.59134 0.67752 0.0
C1462 C 0.49689 0.80271 0.75966 0.0
C1463 C 0.51651 0.79398 0.76872 0.0
C1464 C 0.49795 0.81994 0.74432 0.0
C1465 C 0.53521 0.84657 0.70334 0.0
H1466 H 0.48835 0.89055 0.70338 0.0
C1467 C 0.49984 0.9248 0.6474 0.0
C1468 C 0.50164 0.91459 0.62616 0.0
C1469 C 0.50558 0.91315 0.66662 0.0
C1470 C 0.50184 0.87872 0.70329 0.0
H1471 H 0.55271 0.79666 0.76876 0.0
H1472 H 0.55458 0.82703 0.74192 0.0
H1473 H 0.49096 0.8648 0.73417 0.0
H1474 H 0.51184 0.88443 0.60849 0.0
H1475 H 0.5213 0.8642 0.64169 0.0
H1476 H 0.5461 0.86053 0.67244 0.0
C1477 C 0.53835 0.82032 0.74663 0.0
C1478 C 0.50314 0.8637 0.72081 0.0
C1479 C 0.53729 0.80295 0.76203 0.0
C1480 C 0.51013 0.89286 0.62455 0.0
C1481 C 0.5158 0.88126 0.64366 0.0
C1482 C 0.53399 0.86168 0.68585 0.0
C1483 C 0.51865 0.82905 0.73764 0.0
C1484 C 0.51938 0.84697 0.7207 0.0
C1485 C 0.51325 0.89107 0.66499 0.0
C1486 C 0.51685 0.87749 0.68525 0.0
H1487 H 0.48057 0.79617 0.76431 0.0
H1488 H 0.48245 0.82583 0.73738 0.0
H1489 H 0.54793 0.83392 0.70268 0.0
H1490 H 0.49348 0.94156 0.64925 0.0
H1491 H 0.50367 0.92132 0.68278 0.0
C1492 C 0.47767 0.29705 0.74587 0.0
C1493 C 0.49786 0.29346 0.73439 0.0
C1494 C 0.47675 0.31294 0.76337 0.0
C1495 C 0.50789 0.36211 0.787 0.0
H1496 H 0.4832 0.34418 0.84391 0.0
C1497 C 0.5252 0.3814 0.88551 0.0
C1498 C 0.52938 0.40455 0.88488 0.0
C1499 C 0.51611 0.36999 0.86699 0.0
C1500 C 0.49018 0.34945 0.82813 0.0
H1501 H 0.5327 0.30409 0.73197 0.0
H1502 H 0.5311 0.33126 0.76215 0.0
H1503 H 0.47715 0.32038 0.81082 0.0
H1504 H 0.52609 0.43409 0.86479 0.0
H1505 H 0.50968 0.41433 0.83272 0.0
H1506 H 0.52227 0.39026 0.80428 0.0
C1507 C 0.51591 0.32214 0.75766 0.0
C1508 C 0.48643 0.33595 0.80911 0.0
C1509 C 0.51686 0.30632 0.74044 0.0
C1510 C 0.52341 0.41619 0.86567 0.0
C1511 C 0.51403 0.40483 0.84726 0.0
C1512 C 0.51177 0.37547 0.80595 0.0
C1513 C 0.49593 0.32564 0.76941 0.0
C1514 C 0.49595 0.34177 0.78852 0.0
C1515 C 0.51071 0.38151 0.84748 0.0
C1516 C 0.50357 0.36898 0.82691 0.0
H1517 H 0.46276 0.28738 0.74159 0.0
H1518 H 0.46111 0.31531 0.77216 0.0
H1519 H 0.51512 0.36724 0.77126 0.0
H1520 H 0.52962 0.37193 0.90006 0.0
H1521 H 0.51416 0.35201 0.86771 0.0
C1522 C 0.52223 0.18339 0.72703 0.0
C1523 C 0.53817 0.20091 0.72725 0.0
C1524 C 0.52241 0.16716 0.74342 0.0
C1525 C 0.53551 0.16208 0.8017 0.0
H1526 H 0.52225 0.0991 0.79134 0.0
C1527 C 0.51505 0.10493 0.8752 0.0
C1528 C 0.49755 0.08921 0.87211 0.0
C1529 C 0.52435 0.11604 0.85703 0.0
C1530 C 0.52577 0.11667 0.79455 0.0
H1531 H 0.5674 0.21473 0.74418 0.0
H1532 H 0.5674 0.18643 0.77345 0.0
H1533 H 0.53166 0.1229 0.75984 0.0
H1534 H 0.47648 0.07233 0.84747 0.0
H1535 H 0.49202 0.09239 0.81574 0.0
H1536 H 0.52837 0.15644 0.83606 0.0
C1537 C 0.5549 0.18525 0.76037 0.0
C1538 C 0.53135 0.13023 0.77651 0.0
C1539 C 0.55498 0.20134 0.74362 0.0
C1540 C 0.48998 0.08433 0.85034 0.0
C1541 C 0.49903 0.09576 0.83214 0.0
C1542 C 0.52966 0.14862 0.81967 0.0
C1543 C 0.53832 0.16827 0.76063 0.0
C1544 C 0.53589 0.15316 0.77988 0.0
C1545 C 0.51611 0.11205 0.8353 0.0
C1546 C 0.52432 0.1258 0.81632 0.0
H1547 H 0.50915 0.18261 0.71451 0.0
H1548 H 0.50931 0.15442 0.7433 0.0
H1549 H 0.53855 0.17977 0.80475 0.0
H1550 H 0.52151 0.10878 0.89175 0.0
H1551 H 0.53785 0.12798 0.86011 0.0
C1552 C 0.7536 0.46893 0.70442 0.0
C1553 C 0.7711 0.48477 0.70284 0.0
C1554 C 0.73512 0.46993 0.69012 0.0
C1555 C 0.71572 0.49154 0.63678 0.0
H1556 H 0.65906 0.50135 0.66656 0.0
C1557 C 0.64248 0.5326 0.59199 0.0
C1558 C 0.62047 0.52644 0.59769 0.0
C1559 C 0.66055 0.52438 0.6039 0.0
C1560 C 0.67457 0.49816 0.65783 0.0
H1561 H 0.78375 0.51318 0.68445 0.0
H1562 H 0.7519 0.51447 0.65913 0.0
H1563 H 0.69148 0.49072 0.6883 0.0
H1564 H 0.60016 0.50635 0.61997 0.0
H1565 H 0.63165 0.49142 0.64024 0.0
H1566 H 0.69902 0.49887 0.60631 0.0
C1567 C 0.75227 0.5015 0.67151 0.0
C1568 C 0.69314 0.49209 0.67035 0.0
C1569 C 0.77041 0.50084 0.68606 0.0
C1570 C 0.61693 0.51164 0.61535 0.0
C1571 C 0.63502 0.50313 0.62703 0.0
C1572 C 0.69708 0.49725 0.62419 0.0
C1573 C 0.73424 0.4864 0.67371 0.0
C1574 C 0.71398 0.48926 0.66 0.0
C1575 C 0.65709 0.50949 0.62157 0.0
C1576 C 0.67638 0.50122 0.63463 0.0
H1577 H 0.75374 0.45647 0.71731 0.0
H1578 H 0.72136 0.45812 0.6921 0.0
H1579 H 0.73162 0.48931 0.62843 0.0
H1580 H 0.64574 0.54407 0.57853 0.0
H1581 H 0.67723 0.53008 0.59948 0.0
C1582 C 0.26608 0.03635 0.70257 0.0
C1583 C 0.24923 0.01976 0.70094 0.0
C1584 C 0.28476 0.03553 0.68841 0.0
C1585 C 0.30535 0.01279 0.63511 0.0
H1586 H 0.36252 0.00702 0.66473 0.0
C1587 C 0.38048 0.97348 0.59018 0.0
C1588 C 0.40228 0.98049 0.59598 0.0
C1589 C 0.36205 0.98155 0.602 0.0
C1590 C 0.34685 0.00908 0.65603 0.0
H1591 H 0.23801 0.99007 0.68264 0.0
H1592 H 0.27014 0.98911 0.65755 0.0
H1593 H 0.32957 0.01682 0.68654 0.0
H1594 H 0.42179 0.00203 0.61832 0.0
H1595 H 0.38966 0.01674 0.63842 0.0
H1596 H 0.32239 0.00522 0.6046 0.0
C1597 C 0.26912 0.00254 0.66986 0.0
C1598 C 0.32796 0.01467 0.66861 0.0
C1599 C 0.25081 0.00304 0.68428 0.0
C1600 C 0.40521 0.99611 0.61359 0.0
C1601 C 0.38675 0.00447 0.62519 0.0
C1602 C 0.32428 0.00759 0.62247 0.0
C1603 C 0.2865 0.01847 0.67208 0.0
C1604 C 0.30696 0.01603 0.65833 0.0
C1605 C 0.3649 0.99715 0.61971 0.0
C1606 C 0.3452 0.00505 0.63282 0.0
H1607 H 0.2653 0.04932 0.71538 0.0
H1608 H 0.29799 0.048 0.69041 0.0
H1609 H 0.28934 0.01391 0.62679 0.0
H1610 H 0.37765 0.96134 0.5768 0.0
H1611 H 0.34561 0.97509 0.59753 0.0
C1612 C 0.78504 0.51216 0.817 0.0
C1613 C 0.78035 0.52281 0.79695 0.0
C1614 C 0.76871 0.51031 0.83352 0.0
C1615 C 0.71074 0.52702 0.84965 0.0
H1616 H 0.7097 0.46811 0.87563 0.0
C1617 C 0.63214 0.48516 0.88841 0.0
C1618 C 0.63497 0.4743 0.90883 0.0
C1619 C 0.65062 0.49373 0.87688 0.0
C1620 C 0.70991 0.48473 0.86876 0.0
H1621 H 0.75552 0.54065 0.77847 0.0
H1622 H 0.72644 0.53669 0.80693 0.0
H1623 H 0.74088 0.47923 0.85216 0.0
H1624 H 0.6594 0.46408 0.93323 0.0
H1625 H 0.6917 0.47868 0.9128 0.0
H1626 H 0.67898 0.53182 0.86557 0.0
C1627 C 0.7429 0.53035 0.81037 0.0
C1628 C 0.72788 0.49122 0.85537 0.0
C1629 C 0.75951 0.53266 0.79403 0.0
C1630 C 0.65666 0.4723 0.91752 0.0
C1631 C 0.67515 0.48063 0.90583 0.0
C1632 C 0.69257 0.52036 0.86284 0.0
C1633 C 0.74707 0.51842 0.82998 0.0
C1634 C 0.72853 0.51242 0.84553 0.0
C1635 C 0.6723 0.49137 0.88539 0.0
C1636 C 0.69196 0.49909 0.8724 0.0
H1637 H 0.80109 0.50445 0.81951 0.0
H1638 H 0.77279 0.50164 0.84866 0.0
H1639 H 0.71077 0.54354 0.84259 0.0
H1640 H 0.61564 0.48711 0.88133 0.0
H1641 H 0.64798 0.50174 0.86104 0.0
C1642 C 0.24707 0.00492 0.8079 0.0
C1643 C 0.2424 0.98554 0.79505 0.0
C1644 C 0.26306 0.00486 0.82473 0.0
C1645 C 0.31438 0.97725 0.84002 0.0
H1646 H 0.30894 0.01604 0.89225 0.0
C1647 C 0.39046 0.02007 0.8812 0.0
C1648 C 0.39052 0.02456 0.90431 0.0
C1649 C 0.37159 0.01065 0.87079 0.0
C1650 C 0.31073 0.00477 0.87804 0.0
H1651 H 0.25029 0.95057 0.79037 0.0
H1652 H 0.27862 0.95046 0.82004 0.0
H1653 H 0.27601 0.00677 0.86998 0.0
H1654 H 0.37096 0.0221 0.93474 0.0
H1655 H 0.33809 0.00532 0.91659 0.0
H1656 H 0.34915 0.97538 0.848 0.0
C1657 C 0.26982 0.96574 0.81687 0.0
C1658 C 0.29186 -0.00036 0.86512 0.0
C1659 C 0.25359 0.96577 0.79997 0.0
C1660 C 0.37137 0.01908 0.91685 0.0
C1661 C 0.35253 0.00946 0.90644 0.0
C1662 C 0.33325 0.98224 0.85305 0.0
C1663 C 0.27489 0.9854 0.82923 0.0
C1664 C 0.29365 0.98661 0.84545 0.0
C1665 C 0.35235 0.00527 0.88324 0.0
C1666 C 0.33181 0.9968 0.8717 0.0
H1667 H 0.23865 0.02042 0.80468 0.0
H1668 H 0.26679 0.0204 0.8336 0.0
H1669 H 0.31634 0.96718 0.82496 0.0
H1670 H 0.4049 0.02412 0.87101 0.0
H1671 H 0.37193 0.00814 0.85283 0.0
C1672 C 0.70868 0.76933 0.54928 0.0
C1673 C 0.72089 0.77036 0.52927 0.0
C1674 C 0.69088 0.754 0.55142 0.0
C1675 C 0.65351 0.71629 0.517 0.0
H1676 H 0.64325 0.68662 0.57323 0.0
C1677 C 0.61196 0.62963 0.52737 0.0
C1678 C 0.59315 0.62862 0.5414 0.0
C1679 C 0.6247 0.64928 0.52598 0.0
C1680 C 0.64578 0.69505 0.55754 0.0
H1681 H 0.7246 0.75575 0.49611 0.0
H1682 H 0.69452 0.72846 0.50015 0.0
H1683 H 0.67184 0.71616 0.571 0.0
H1684 H 0.57279 0.64727 0.56491 0.0
H1685 H 0.59582 0.68166 0.56305 0.0
H1686 H 0.62841 0.69398 0.50334 0.0
C1687 C 0.69786 0.73999 0.51392 0.0
C1688 C 0.66209 0.71201 0.55622 0.0
C1689 C 0.71531 0.75553 0.51165 0.0
C1690 C 0.58715 0.64771 0.55387 0.0
C1691 C 0.60029 0.66726 0.5529 0.0
C1692 C 0.63757 0.69906 0.51825 0.0
C1693 C 0.68519 0.73917 0.53372 0.0
C1694 C 0.66648 0.72256 0.5358 0.0
C1695 C 0.61917 0.6681 0.53897 0.0
C1696 C 0.63383 0.68812 0.53843 0.0
H1697 H 0.71254 0.78069 0.56308 0.0
H1698 H 0.6814 0.75405 0.56683 0.0
H1699 H 0.6559 0.72442 0.50115 0.0
H1700 H 0.61689 0.61516 0.51754 0.0
H1701 H 0.63927 0.64959 0.51521 0.0
C1702 C 0.7083 0.2286 0.98384 0.0
C1703 C 0.72431 0.22818 0.00101 0.0
C1704 C 0.69287 0.24581 0.98296 0.0
C1705 C 0.68719 0.30424 0.99608 0.0
H1706 H 0.62345 0.29386 0.98831 0.0
C1707 C 0.62761 0.3781 0.98782 0.0
C1708 C 0.60902 0.37559 0.97362 0.0
C1709 C 0.64046 0.35973 0.99326 0.0
C1710 C 0.64122 0.29711 0.99013 0.0
H1711 H 0.73654 0.24526 0.0309 0.0
H1712 H 0.70987 0.27592 0.02892 0.0
H1713 H 0.64797 0.26231 0.99416 0.0
H1714 H 0.5892 0.35182 0.95405 0.0
H1715 H 0.61226 0.31983 0.96254 0.0
H1716 H 0.68099 0.33871 0.99083 0.0
C1717 C 0.70918 0.26268 0.01635 0.0
C1718 C 0.65521 0.27901 0.99369 0.0
C1719 C 0.72434 0.24514 0.01753 0.0
C1720 C 0.60339 0.35422 0.96512 0.0
C1721 C 0.61658 0.33585 0.97016 0.0
C1722 C 0.67331 0.32228 0.99208 0.0
C1723 C 0.69341 0.26321 -0.00103 0.0
C1724 C 0.67832 0.28242 0.99666 0.0
C1725 C 0.63542 0.33836 0.98422 0.0
C1726 C 0.6501 0.31902 0.98899 0.0
H1727 H 0.70781 0.21569 0.97093 0.0
H1728 H 0.68098 0.24591 0.96931 0.0
H1729 H 0.70501 0.30726 0.99797 0.0
H1730 H 0.63216 0.39432 0.99492 0.0
H1731 H 0.65435 0.36237 0.00463 0.0
C1732 C 0.31605 0.26302 0.00294 0.0
C1733 C 0.31248 0.2799 0.98744 0.0
C1734 C 0.33136 0.24624 -0.0015 0.0
C1735 C 0.3633 0.21903 0.95256 0.0
H1736 H 0.39444 0.19339 0.00256 0.0
C1737 C 0.4312 0.14958 0.94697 0.0
C1738 C 0.42388 0.1301 0.95776 0.0
C1739 C 0.41954 0.16951 0.94976 0.0
C1740 C 0.38593 0.20053 0.98847 0.0
H1741 H 0.32219 0.29253 0.9551 0.0
H1742 H 0.34969 0.26356 0.94758 0.0
H1743 H 0.37102 0.22581 0.0088 0.0
H1744 H 0.39905 0.11629 0.9803 0.0
H1745 H 0.37923 0.15132 0.98578 0.0
H1746 H 0.37882 0.1937 0.9323 0.0
C1747 C 0.34023 0.26299 0.96299 0.0
C1748 C 0.37233 0.21895 0.992 0.0
C1749 C 0.32455 0.27965 0.96731 0.0
C1750 C 0.40501 0.13102 0.97171 0.0
C1751 C 0.39373 0.15101 0.97491 0.0
C1752 C 0.37731 0.20083 0.94898 0.0
C1753 C 0.34388 0.24609 0.97859 0.0
C1754 C 0.36029 0.22806 0.97422 0.0
C1755 C 0.40079 0.17034 0.96384 0.0
C1756 C 0.38827 0.19116 0.96701 0.0
H1757 H 0.30678 0.26258 0.01848 0.0
H1758 H 0.33312 0.23321 0.01064 0.0
H1759 H 0.35419 0.22541 0.93849 0.0
H1760 H 0.44564 0.14928 0.93603 0.0
H1761 H 0.42522 0.1843 0.9411 0.0
C1762 C 0.82163 0.23301 0.94529 0.0
C1763 C 0.81941 0.22003 0.9645 0.0
C1764 C 0.83828 0.24977 0.94429 0.0
C1765 C 0.88938 0.27174 0.97385 0.0
H1766 H 0.86571 0.3298 0.96041 0.0
C1767 C 0.93586 0.35277 0.00133 0.0
C1768 C 0.92227 0.36951 0.0105 0.0
C1769 C 0.92634 0.33452 0.9897 0.0
C1770 C 0.8726 0.31371 0.96424 0.0
H1771 H 0.83376 0.21308 0.99685 0.0
H1772 H 0.86235 0.24198 0.99522 0.0
H1773 H 0.84443 0.29619 0.94997 0.0
H1774 H 0.88804 0.38025 0.01468 0.0
H1775 H 0.87141 0.34809 0.99533 0.0
H1776 H 0.91657 0.28914 0.98982 0.0
C1777 C 0.85153 0.23946 0.98086 0.0
C1778 C 0.86057 0.29441 0.95789 0.0
C1779 C 0.83491 0.22302 0.98193 0.0
C1780 C 0.89899 0.36765 0.00777 0.0
C1781 C 0.88946 0.34931 0.9964 0.0
C1782 C 0.90128 0.29101 0.98042 0.0
C1783 C 0.85309 0.25345 0.96233 0.0
C1784 C 0.86835 0.27325 0.96355 0.0
C1785 C 0.903 0.33248 0.98721 0.0
C1786 C 0.89255 0.31224 0.97655 0.0
H1787 H 0.80988 0.23097 0.93162 0.0
H1788 H 0.83917 0.26024 0.92975 0.0
H1789 H 0.89604 0.25564 0.97806 0.0
H1790 H 0.9539 0.35387 0.00288 0.0
H1791 H 0.9373 0.32203 0.98264 0.0
loop_
_geom_bond_atom_site_label_1
_geom_bond_atom_site_label_2
_geom_bond_distance
_geom_bond_site_symmetry_2
_ccdc_geom_bond_type
C0 O2 1.247 . S
C0 O4 1.258 1_455 S
C1 O8 1.247 . S
C1 O9 1.258 1_655 S
O2 C0 1.247 . S
O2 Zn3 2.028 . S
Zn3 O2 2.028 . S
Zn3 O7 2.035 . S
Zn3 O9 2.035 . S
Zn3 O10 2.028 . S
O4 C0 1.258 1_655 S
O4 Zn5 2.035 . S
Zn5 O4 2.035 . S
Zn5 O6 2.028 . S
Zn5 O8 2.028 . S
Zn5 O11 2.035 . S
O6 Zn5 2.028 . S
O6 C12 1.247 . S
O7 Zn3 2.035 . S
O7 C12 1.258 1_455 S
O8 C1 1.247 . S
O8 Zn5 2.028 . S
O9 C1 1.258 1_455 S
O9 Zn3 2.035 . S
O10 Zn3 2.028 . S
O10 C13 1.247 . S
O11 Zn5 2.035 . S
O11 C13 1.258 1_655 S
C12 O6 1.247 . S
C12 O7 1.258 1_655 S
C13 O10 1.247 . S
C13 O11 1.258 1_455 S
C14 O16 1.247 . S
C14 O18 1.258 . S
C15 O22 1.247 . S
C15 O23 1.258 . S
O16 C14 1.247 . S
O16 Zn17 2.028 . S
Zn17 O16 2.028 . S
Zn17 O21 2.035 . S
Zn17 O23 2.035 . S
Zn17 O24 2.028 . S
O18 C14 1.258 . S
O18 Zn19 2.035 . S
Zn19 O18 2.035 . S
Zn19 O20 2.028 . S
Zn19 O22 2.028 . S
Zn19 O25 2.035 . S
O20 Zn19 2.028 . S
O20 C26 1.247 . S
O21 Zn17 2.035 . S
O21 C26 1.258 . S
O22 C15 1.247 . S
O22 Zn19 2.028 . S
O23 C15 1.258 . S
O23 Zn17 2.035 . S
O24 Zn17 2.028 . S
O24 C27 1.247 . S
O25 Zn19 2.035 . S
O25 C27 1.258 . S
C26 O20 1.247 . S
C26 O21 1.258 . S
C27 O24 1.247 . S
C27 O25 1.258 . S
C28 O30 1.247 1_545 S
C28 O32 1.258 . S
C29 O36 1.247 1_565 S
C29 O37 1.258 . S
O30 C28 1.247 1_565 S
O30 Zn31 2.028 . S
Zn31 O30 2.028 . S
Zn31 O35 2.035 . S
Zn31 O37 2.035 . S
Zn31 O38 2.028 . S
O32 C28 1.258 . S
O32 Zn33 2.035 . S
Zn33 O32 2.035 . S
Zn33 O34 2.028 . S
Zn33 O36 2.028 . S
Zn33 O39 2.035 . S
O34 Zn33 2.028 . S
O34 C40 1.247 1_545 S
O35 Zn31 2.035 . S
O35 C40 1.258 . S
O36 C29 1.247 1_545 S
O36 Zn33 2.028 . S
O37 C29 1.258 . S
O37 Zn31 2.035 . S
O38 Zn31 2.028 . S
O38 C41 1.247 1_565 S
O39 Zn33 2.035 . S
O39 C41 1.258 . S
C40 O34 1.247 1_565 S
C40 O35 1.258 . S
C41 O38 1.247 1_545 S
C41 O39 1.258 . S
C42 O44 1.247 . S
C42 O46 1.258 . S
C43 O50 1.247 . S
C43 O51 1.258 . S
O44 C42 1.247 . S
O44 Zn45 2.028 . S
Zn45 O44 2.028 . S
Zn45 O49 2.035 . S
Zn45 O51 2.035 . S
Zn45 O52 2.028 . S
O46 C42 1.258 . S
O46 Zn47 2.035 . S
Zn47 O46 2.035 . S
Zn47 O48 2.028 . S
Zn47 O50 2.028 . S
Zn47 O53 2.035 . S
O48 Zn47 2.028 . S
O48 C54 1.247 . S
O49 Zn45 2.035 . S
O49 C54 1.258 . S
O50 C43 1.247 . S
O50 Zn47 2.028 . S
O51 C43 1.258 . S
O51 Zn45 2.035 . S
O52 Zn45 2.028 . S
O52 C55 1.247 . S
O53 Zn47 2.035 . S
O53 C55 1.258 . S
C54 O48 1.247 . S
C54 O49 1.258 . S
C55 O52 1.247 . S
C55 O53 1.258 . S
C56 O58 1.247 . S
C56 O60 1.258 . S
C57 O64 1.247 . S
C57 O65 1.258 1_554 S
O58 C56 1.247 . S
O58 Zn59 2.028 1_554 S
Zn59 O58 2.028 1_556 S
Zn59 O63 2.035 . S
Zn59 O65 2.035 . S
Zn59 O66 2.028 1_556 S
O60 C56 1.258 . S
O60 Zn61 2.035 . S
Zn61 O60 2.035 . S
Zn61 O62 2.028 . S
Zn61 O64 2.028 . S
Zn61 O67 2.035 . S
O62 Zn61 2.028 . S
O62 C68 1.247 . S
O63 Zn59 2.035 . S
O63 C68 1.258 1_556 S
O64 C57 1.247 . S
O64 Zn61 2.028 . S
O65 C57 1.258 1_556 S
O65 Zn59 2.035 . S
O66 Zn59 2.028 1_554 S
O66 C69 1.247 . S
O67 Zn61 2.035 . S
O67 C69 1.258 . S
C68 O62 1.247 . S
C68 O63 1.258 1_554 S
C69 O66 1.247 . S
C69 O67 1.258 . S
C70 O72 1.247 . S
C70 O74 1.258 . S
C71 O78 1.247 . S
C71 O79 1.258 . S
O72 C70 1.247 . S
O72 Zn73 2.028 . S
Zn73 O72 2.028 . S
Zn73 O77 2.035 . S
Zn73 O79 2.035 . S
Zn73 O80 2.028 . S
O74 C70 1.258 . S
O74 Zn75 2.035 . S
Zn75 O74 2.035 . S
Zn75 O76 2.028 . S
Zn75 O78 2.028 . S
Zn75 O81 2.035 . S
O76 Zn75 2.028 . S
O76 C82 1.247 . S
O77 Zn73 2.035 . S
O77 C82 1.258 . S
O78 C71 1.247 . S
O78 Zn75 2.028 . S
O79 C71 1.258 . S
O79 Zn73 2.035 . S
O80 Zn73 2.028 . S
O80 C83 1.247 . S
O81 Zn75 2.035 . S
O81 C83 1.258 . S
C82 O76 1.247 . S
C82 O77 1.258 . S
C83 O80 1.247 . S
C83 O81 1.258 . S
C84 O86 1.247 . S
C84 O88 1.258 . S
C85 O92 1.247 . S
C85 O93 1.258 . S
O86 C84 1.247 . S
O86 Zn87 2.028 . S
Zn87 O86 2.028 . S
Zn87 O91 2.035 . S
Zn87 O93 2.035 . S
Zn87 O94 2.028 . S
O88 C84 1.258 . S
O88 Zn89 2.035 . S
Zn89 O88 2.035 . S
Zn89 O90 2.028 . S
Zn89 O92 2.028 . S
Zn89 O95 2.035 . S
O90 Zn89 2.028 . S
O90 C96 1.247 . S
O91 Zn87 2.035 . S
O91 C96 1.258 . S
O92 C85 1.247 . S
O92 Zn89 2.028 . S
O93 C85 1.258 . S
O93 Zn87 2.035 . S
O94 Zn87 2.028 . S
O94 C97 1.247 . S
O95 Zn89 2.035 . S
O95 C97 1.258 . S
C96 O90 1.247 . S
C96 O91 1.258 . S
C97 O94 1.247 . S
C97 O95 1.258 . S
C98 O100 1.247 . S
C98 O102 1.258 . S
C99 O106 1.247 . S
C99 O107 1.258 . S
O100 C98 1.247 . S
O100 Zn101 2.028 . S
Zn101 O100 2.028 . S
Zn101 O105 2.035 . S
Zn101 O107 2.035 . S
Zn101 O108 2.028 . S
O102 C98 1.258 . S
O102 Zn103 2.035 . S
Zn103 O102 2.035 . S
Zn103 O104 2.028 . S
Zn103 O106 2.028 . S
Zn103 O109 2.035 . S
O104 Zn103 2.028 . S
O104 C110 1.247 . S
O105 Zn101 2.035 . S
O105 C110 1.258 . S
O106 C99 1.247 . S
O106 Zn103 2.028 . S
O107 C99 1.258 . S
O107 Zn101 2.035 . S
O108 Zn101 2.028 . S
O108 C111 1.247 . S
O109 Zn103 2.035 . S
O109 C111 1.258 . S
C110 O104 1.247 . S
C110 O105 1.258 . S
C111 O108 1.247 . S
C111 O109 1.258 . S
C112 O114 1.247 . S
C112 O116 1.258 . S
C113 O120 1.247 . S
C113 O121 1.258 . S
O114 C112 1.247 . S
O114 Zn115 2.028 . S
Zn115 O114 2.028 . S
Zn115 O119 2.035 . S
Zn115 O121 2.035 . S
Zn115 O122 2.028 . S
O116 C112 1.258 . S
O116 Zn117 2.035 . S
Zn117 O116 2.035 . S
Zn117 O118 2.028 . S
Zn117 O120 2.028 . S
Zn117 O123 2.035 . S
O118 Zn117 2.028 . S
O118 C124 1.247 . S
O119 Zn115 2.035 . S
O119 C124 1.258 . S
O120 C113 1.247 . S
O120 Zn117 2.028 . S
O121 C113 1.258 . S
O121 Zn115 2.035 . S
O122 Zn115 2.028 . S
O122 C125 1.247 . S
O123 Zn117 2.035 . S
O123 C125 1.258 . S
C124 O118 1.247 . S
C124 O119 1.258 . S
C125 O122 1.247 . S
C125 O123 1.258 . S
C126 O128 1.247 . S
C126 O130 1.258 . S
C127 O134 1.247 . S
C127 O135 1.258 . S
O128 C126 1.247 . S
O128 Zn129 2.028 . S
Zn129 O128 2.028 . S
Zn129 O133 2.035 . S
Zn129 O135 2.035 . S
Zn129 O136 2.028 . S
O130 C126 1.258 . S
O130 Zn131 2.035 . S
Zn131 O130 2.035 . S
Zn131 O132 2.028 . S
Zn131 O134 2.028 . S
Zn131 O137 2.035 . S
O132 Zn131 2.028 . S
O132 C138 1.247 . S
O133 Zn129 2.035 . S
O133 C138 1.258 . S
O134 C127 1.247 . S
O134 Zn131 2.028 . S
O135 C127 1.258 . S
O135 Zn129 2.035 . S
O136 Zn129 2.028 . S
O136 C139 1.247 . S
O137 Zn131 2.035 . S
O137 C139 1.258 . S
C138 O132 1.247 . S
C138 O133 1.258 . S
C139 O136 1.247 . S
C139 O137 1.258 . S
C140 O142 1.247 1_545 S
C140 O144 1.258 . S
C141 O148 1.247 . S
C141 O149 1.258 . S
O142 C140 1.247 1_565 S
O142 Zn143 2.028 . S
Zn143 O142 2.028 . S
Zn143 O147 2.035 1_565 S
Zn143 O149 2.035 1_565 S
Zn143 O150 2.028 . S
O144 C140 1.258 . S
O144 Zn145 2.035 . S
Zn145 O144 2.035 . S
Zn145 O146 2.028 . S
Zn145 O148 2.028 . S
Zn145 O151 2.035 . S
O146 Zn145 2.028 . S
O146 C152 1.247 . S
O147 Zn143 2.035 1_545 S
O147 C152 1.258 . S
O148 C141 1.247 . S
O148 Zn145 2.028 . S
O149 C141 1.258 . S
O149 Zn143 2.035 1_545 S
O150 Zn143 2.028 . S
O150 C153 1.247 1_565 S
O151 Zn145 2.035 . S
O151 C153 1.258 . S
C152 O146 1.247 . S
C152 O147 1.258 . S
C153 O150 1.247 1_545 S
C153 O151 1.258 . S
C154 O156 1.247 1_556 S
C154 O158 1.258 . S
C155 O162 1.247 1_554 S
C155 O163 1.258 . S
O156 C154 1.247 1_554 S
O156 Zn157 2.028 . S
Zn157 O156 2.028 . S
Zn157 O161 2.035 . S
Zn157 O163 2.035 . S
Zn157 O164 2.028 . S
O158 C154 1.258 . S
O158 Zn159 2.035 . S
Zn159 O158 2.035 . S
Zn159 O160 2.028 . S
Zn159 O162 2.028 . S
Zn159 O165 2.035 . S
O160 Zn159 2.028 . S
O160 C166 1.247 1_556 S
O161 Zn157 2.035 . S
O161 C166 1.258 . S
O162 C155 1.247 1_556 S
O162 Zn159 2.028 . S
O163 C155 1.258 . S
O163 Zn157 2.035 . S
O164 Zn157 2.028 . S
O164 C167 1.247 1_554 S
O165 Zn159 2.035 . S
O165 C167 1.258 . S
C166 O160 1.247 1_554 S
C166 O161 1.258 . S
C167 O164 1.247 1_556 S
C167 O165 1.258 . S
O168 Zn169 1.953 . S
O168 C184 1.225 . S
Zn169 O168 1.953 . S
Zn169 O170 1.949 . S
Zn169 O176 1.919 . S
Zn169 O181 1.924 . S
O170 Zn169 1.949 . S
O170 Zn171 1.923 . S
O170 Zn172 1.950 . S
O170 Zn173 1.945 . S
Zn171 O170 1.923 . S
Zn171 O174 1.933 . S
Zn171 O177 1.941 . S
Zn171 O178 1.965 . S
Zn172 O170 1.950 . S
Zn172 O179 1.938 . S
Zn172 O180 1.906 . S
Zn172 O190 1.953 . S
Zn173 O170 1.945 . S
Zn173 O175 1.932 . S
Zn173 O182 1.977 . S
Zn173 O183 1.881 1_545 S
O174 Zn171 1.933 . S
O174 C185 1.226 . S
O175 Zn173 1.932 . S
O175 C185 1.307 . S
O176 Zn169 1.919 . S
O176 C187 1.253 . S
O177 Zn171 1.941 . S
O177 C187 1.283 . S
O178 Zn171 1.965 . S
O178 C186 1.303 . S
O179 Zn172 1.938 . S
O179 C186 1.247 . S
O180 Zn172 1.906 . S
O180 C188 1.304 1_554 S
O181 Zn169 1.924 . S
O181 C189 1.311 1_545 S
O182 Zn173 1.977 . S
O182 C188 1.272 1_554 S
O183 Zn173 1.881 1_565 S
O183 C189 1.240 . S
C184 O168 1.225 . S
C184 O190 1.298 . S
C185 O174 1.226 . S
C185 O175 1.307 . S
C186 O178 1.303 . S
C186 O179 1.247 . S
C187 O176 1.253 . S
C187 O177 1.283 . S
C188 O180 1.304 1_556 S
C188 O182 1.272 1_556 S
C189 O181 1.311 1_565 S
C189 O183 1.240 . S
O190 Zn172 1.953 . S
O190 C184 1.298 . S
O191 Zn192 1.953 . S
O191 C207 1.225 . S
Zn192 O191 1.953 . S
Zn192 O193 1.949 . S
Zn192 O199 1.919 . S
Zn192 O204 1.924 . S
O193 Zn192 1.949 . S
O193 Zn194 1.923 . S
O193 Zn195 1.950 . S
O193 Zn196 1.945 . S
Zn194 O193 1.923 . S
Zn194 O197 1.933 1_655 S
Zn194 O200 1.941 . S
Zn194 O201 1.965 . S
Zn195 O193 1.950 . S
Zn195 O202 1.938 . S
Zn195 O203 1.906 . S
Zn195 O213 1.953 . S
Zn196 O193 1.945 . S
Zn196 O198 1.932 1_655 S
Zn196 O205 1.977 . S
Zn196 O206 1.910 . S
O197 Zn194 1.933 1_455 S
O197 C208 1.226 . S
O198 Zn196 1.932 1_455 S
O198 C208 1.307 . S
O199 Zn192 1.919 . S
O199 C210 1.253 . S
O200 Zn194 1.941 . S
O200 C210 1.283 . S
O201 Zn194 1.965 . S
O201 C209 1.303 . S
O202 Zn195 1.938 . S
O202 C209 1.247 . S
O203 Zn195 1.906 . S
O203 C211 1.304 1_554 S
O204 Zn192 1.924 . S
O204 C212 1.311 . S
O205 Zn196 1.977 . S
O205 C211 1.272 1_554 S
O206 Zn196 1.910 . S
O206 C212 1.231 . S
C207 O191 1.225 . S
C207 O213 1.298 . S
C208 O197 1.226 . S
C208 O198 1.307 . S
C209 O201 1.303 . S
C209 O202 1.247 . S
C210 O199 1.253 . S
C210 O200 1.283 . S
C211 O203 1.304 1_556 S
C211 O205 1.272 1_556 S
C212 O204 1.311 . S
C212 O206 1.231 . S
O213 Zn195 1.953 . S
O213 C207 1.298 . S
O214 Zn215 1.953 . S
O214 C230 1.225 . S
Zn215 O214 1.953 . S
Zn215 O216 1.949 . S
Zn215 O222 1.919 . S
Zn215 O227 1.924 . S
O216 Zn215 1.949 . S
O216 Zn217 1.923 . S
O216 Zn218 1.950 . S
O216 Zn219 1.945 . S
Zn217 O216 1.923 . S
Zn217 O220 1.933 . S
Zn217 O223 1.941 . S
Zn217 O224 1.965 . S
Zn218 O216 1.950 . S
Zn218 O225 1.938 . S
Zn218 O226 1.906 . S
Zn218 O236 1.953 . S
Zn219 O216 1.945 . S
Zn219 O221 1.932 . S
Zn219 O228 1.977 . S
Zn219 O229 1.910 . S
O220 Zn217 1.933 . S
O220 C231 1.226 1_565 S
O221 Zn219 1.932 . S
O221 C231 1.307 1_565 S
O222 Zn215 1.919 . S
O222 C233 1.253 . S
O223 Zn217 1.941 . S
O223 C233 1.283 . S
O224 Zn217 1.965 . S
O224 C232 1.303 . S
O225 Zn218 1.938 . S
O225 C232 1.247 . S
O226 Zn218 1.906 . S
O226 C234 1.304 . S
O227 Zn215 1.924 . S
O227 C235 1.311 . S
O228 Zn219 1.977 . S
O228 C234 1.272 . S
O229 Zn219 1.910 . S
O229 C235 1.231 . S
C230 O214 1.225 . S
C230 O236 1.298 . S
C231 O220 1.226 1_545 S
C231 O221 1.307 1_545 S
C232 O224 1.303 . S
C232 O225 1.247 . S
C233 O222 1.253 . S
C233 O223 1.283 . S
C234 O226 1.304 . S
C234 O228 1.272 . S
C235 O227 1.311 . S
C235 O229 1.231 . S
O236 Zn218 1.953 . S
O236 C230 1.298 . S
O237 Zn238 1.953 . S
O237 C253 1.225 . S
Zn238 O237 1.953 . S
Zn238 O239 1.949 . S
Zn238 O245 1.919 . S
Zn238 O250 1.924 1_655 S
O239 Zn238 1.949 . S
O239 Zn240 1.923 . S
O239 Zn241 1.950 . S
O239 Zn242 1.945 . S
Zn240 O239 1.923 . S
Zn240 O243 1.933 . S
Zn240 O246 1.941 . S
Zn240 O247 1.965 . S
Zn241 O239 1.950 . S
Zn241 O248 1.938 . S
Zn241 O249 1.906 . S
Zn241 O259 1.953 . S
Zn242 O239 1.945 . S
Zn242 O244 1.932 . S
Zn242 O251 1.977 . S
Zn242 O252 1.910 1_655 S
O243 Zn240 1.933 . S
O243 C254 1.226 . S
O244 Zn242 1.932 . S
O244 C254 1.307 . S
O245 Zn238 1.919 . S
O245 C256 1.253 . S
O246 Zn240 1.941 . S
O246 C256 1.283 . S
O247 Zn240 1.965 . S
O247 C255 1.303 . S
O248 Zn241 1.938 . S
O248 C255 1.247 . S
O249 Zn241 1.906 . S
O249 C257 1.304 . S
O250 Zn238 1.924 1_455 S
O250 C258 1.311 . S
O251 Zn242 1.977 . S
O251 C257 1.272 . S
O252 Zn242 1.910 1_455 S
O252 C258 1.231 . S
C253 O237 1.225 . S
C253 O259 1.298 . S
C254 O243 1.226 . S
C254 O244 1.307 . S
C255 O247 1.303 . S
C255 O248 1.247 . S
C256 O245 1.253 . S
C256 O246 1.283 . S
C257 O249 1.304 . S
C257 O251 1.272 . S
C258 O250 1.311 . S
C258 O252 1.231 . S
O259 Zn241 1.953 . S
O259 C253 1.298 . S
O260 Zn261 1.953 . S
O260 C276 1.225 . S
Zn261 O260 1.953 . S
Zn261 O262 1.949 . S
Zn261 O268 1.919 . S
Zn261 O273 1.924 . S
O262 Zn261 1.949 . S
O262 Zn263 1.923 . S
O262 Zn264 1.950 . S
O262 Zn265 1.945 . S
Zn263 O262 1.923 . S
Zn263 O266 1.933 . S
Zn263 O269 1.941 . S
Zn263 O270 1.965 . S
Zn264 O262 1.950 . S
Zn264 O271 1.938 . S
Zn264 O272 1.906 . S
Zn264 O282 1.953 . S
Zn265 O262 1.945 . S
Zn265 O267 1.932 . S
Zn265 O274 1.977 . S
Zn265 O275 1.910 . S
O266 Zn263 1.933 . S
O266 C277 1.226 . S
O267 Zn265 1.932 . S
O267 C277 1.307 . S
O268 Zn261 1.919 . S
O268 C279 1.253 . S
O269 Zn263 1.941 . S
O269 C279 1.283 . S
O270 Zn263 1.965 . S
O270 C278 1.303 . S
O271 Zn264 1.938 . S
O271 C278 1.247 . S
O272 Zn264 1.906 . S
O272 C280 1.304 . S
O273 Zn261 1.924 . S
O273 C281 1.298 1_565 S
O274 Zn265 1.977 . S
O274 C280 1.272 . S
O275 Zn265 1.910 . S
O275 C281 1.225 1_565 S
C276 O260 1.225 . S
C276 O282 1.298 . S
C277 O266 1.226 . S
C277 O267 1.307 . S
C278 O270 1.303 . S
C278 O271 1.247 . S
C279 O268 1.253 . S
C279 O269 1.283 . S
C280 O272 1.304 . S
C280 O274 1.272 . S
C281 O273 1.298 1_545 S
C281 O275 1.225 1_545 S
O282 Zn264 1.953 . S
O282 C276 1.298 . S
O283 Zn284 1.953 . S
O283 C299 1.225 . S
Zn284 O283 1.953 . S
Zn284 O285 1.949 . S
Zn284 O291 1.919 . S
Zn284 O296 1.924 . S
O285 Zn284 1.949 . S
O285 Zn286 1.923 . S
O285 Zn287 1.950 . S
O285 Zn288 1.945 . S
Zn286 O285 1.923 . S
Zn286 O289 1.933 . S
Zn286 O292 1.941 . S
Zn286 O293 1.965 . S
Zn287 O285 1.950 . S
Zn287 O294 1.938 . S
Zn287 O295 1.906 . S
Zn287 O305 1.953 . S
Zn288 O285 1.945 . S
Zn288 O290 1.932 . S
Zn288 O297 1.977 . S
Zn288 O298 1.910 . S
O289 Zn286 1.933 . S
O289 C300 1.226 . S
O290 Zn288 1.932 . S
O290 C300 1.307 . S
O291 Zn284 1.919 . S
O291 C302 1.253 . S
O292 Zn286 1.941 . S
O292 C302 1.283 . S
O293 Zn286 1.965 . S
O293 C301 1.303 . S
O294 Zn287 1.938 . S
O294 C301 1.247 . S
O295 Zn287 1.906 . S
O295 C303 1.304 . S
O296 Zn284 1.924 . S
O296 C304 1.311 . S
O297 Zn288 1.977 . S
O297 C303 1.272 . S
O298 Zn288 1.910 . S
O298 C304 1.231 . S
C299 O283 1.225 . S
C299 O305 1.298 . S
C300 O289 1.226 . S
C300 O290 1.307 . S
C301 O293 1.303 . S
C301 O294 1.247 . S
C302 O291 1.253 . S
C302 O292 1.283 . S
C303 O295 1.304 . S
C303 O297 1.272 . S
C304 O296 1.311 . S
C304 O298 1.231 . S
O305 Zn287 1.953 . S
O305 C299 1.298 . S
O306 Zn307 1.953 . S
O306 C322 1.225 . S
Zn307 O306 1.953 . S
Zn307 O308 1.949 . S
Zn307 O314 1.919 . S
Zn307 O319 1.924 . S
O308 Zn307 1.949 . S
O308 Zn309 1.923 . S
O308 Zn310 1.950 . S
O308 Zn311 1.945 . S
Zn309 O308 1.923 . S
Zn309 O312 1.933 . S
Zn309 O315 1.941 . S
Zn309 O316 1.965 . S
Zn310 O308 1.950 . S
Zn310 O317 1.938 . S
Zn310 O318 1.906 . S
Zn310 O328 1.953 . S
Zn311 O308 1.945 . S
Zn311 O313 1.932 . S
Zn311 O320 1.977 . S
Zn311 O321 1.910 . S
O312 Zn309 1.933 . S
O312 C323 1.226 . S
O313 Zn311 1.932 . S
O313 C323 1.307 . S
O314 Zn307 1.919 . S
O314 C325 1.253 . S
O315 Zn309 1.941 . S
O315 C325 1.283 . S
O316 Zn309 1.965 . S
O316 C324 1.303 . S
O317 Zn310 1.938 . S
O317 C324 1.247 . S
O318 Zn310 1.906 . S
O318 C326 1.304 . S
O319 Zn307 1.924 . S
O319 C327 1.297 1_556 S
O320 Zn311 1.977 . S
O320 C326 1.272 . S
O321 Zn311 1.910 . S
O321 C327 1.225 1_556 S
C322 O306 1.225 . S
C322 O328 1.298 . S
C323 O312 1.226 . S
C323 O313 1.307 . S
C324 O316 1.303 . S
C324 O317 1.247 . S
C325 O314 1.253 . S
C325 O315 1.283 . S
C326 O318 1.304 . S
C326 O320 1.272 . S
C327 O319 1.297 1_554 S
C327 O321 1.225 1_554 S
O328 Zn310 1.953 . S
O328 C322 1.298 . S
O329 Zn330 1.953 . S
O329 C345 1.225 . S
Zn330 O329 1.953 . S
Zn330 O331 1.949 . S
Zn330 O337 1.919 . S
Zn330 O342 1.924 . S
O331 Zn330 1.949 . S
O331 Zn332 1.923 . S
O331 Zn333 1.950 . S
O331 Zn334 1.945 . S
Zn332 O331 1.923 . S
Zn332 O335 1.933 . S
Zn332 O338 1.941 . S
Zn332 O339 1.965 . S
Zn333 O331 1.950 . S
Zn333 O340 1.938 . S
Zn333 O341 1.906 . S
Zn333 O351 1.953 . S
Zn334 O331 1.945 . S
Zn334 O336 1.932 . S
Zn334 O343 1.977 . S
Zn334 O344 1.910 . S
O335 Zn332 1.933 . S
O335 C346 1.226 1_556 S
O336 Zn334 1.932 . S
O336 C346 1.307 1_556 S
O337 Zn330 1.919 . S
O337 C348 1.253 . S
O338 Zn332 1.941 . S
O338 C348 1.283 . S
O339 Zn332 1.965 . S
O339 C347 1.303 . S
O340 Zn333 1.938 . S
O340 C347 1.247 . S
O341 Zn333 1.906 . S
O341 C349 1.304 1_545 S
O342 Zn330 1.924 . S
O342 C350 1.311 . S
O343 Zn334 1.977 . S
O343 C349 1.272 1_545 S
O344 Zn334 1.910 . S
O344 C350 1.231 . S
C345 O329 1.225 . S
C345 O351 1.298 . S
C346 O335 1.226 1_554 S
C346 O336 1.307 1_554 S
C347 O339 1.303 . S
C347 O340 1.247 . S
C348 O337 1.253 . S
C348 O338 1.283 . S
C349 O341 1.304 1_565 S
C349 O343 1.272 1_565 S
C350 O342 1.311 . S
C350 O344 1.231 . S
O351 Zn333 1.953 . S
O351 C345 1.298 . S
C352 C353 1.349 . S
C352 C354 1.327 . S
C352 H377 0.950 . S
C353 C352 1.349 . S
C353 C369 1.349 . S
C354 C352 1.327 . S
C354 C373 1.429 . S
C354 H378 0.950 . S
C355 C372 1.574 . S
C355 C374 1.368 . S
C355 H379 0.949 . S
H356 C360 0.949 . S
C357 C358 1.349 . S
C357 C359 1.327 . S
C357 H380 0.950 . S
C358 C357 1.349 . S
C358 C370 1.349 . S
C359 C357 1.327 . S
C359 C375 1.429 . S
C359 H381 0.950 . S
C360 H356 0.949 . S
C360 C368 1.574 . S
C360 C376 1.368 . S
H361 C369 0.950 . S
H362 C367 0.950 . S
H363 C368 0.949 . S
H364 C370 0.950 . S
H365 C371 0.950 . S
H366 C372 0.949 . S
C367 H362 0.950 . S
C367 C369 1.327 . S
C367 C373 1.429 . S
C368 C360 1.574 . S
C368 H363 0.949 . S
C368 C374 1.368 . S
C369 C353 1.349 . S
C369 H361 0.950 . S
C369 C367 1.327 . S
C370 C358 1.349 . S
C370 H364 0.950 . S
C370 C371 1.327 . S
C371 H365 0.950 . S
C371 C370 1.327 . S
C371 C375 1.429 . S
C372 C355 1.574 . S
C372 H366 0.949 . S
C372 C376 1.368 . S
C373 C354 1.429 . S
C373 C367 1.429 . S
C373 C374 1.523 . S
C374 C355 1.368 . S
C374 C368 1.368 . S
C374 C373 1.523 . S
C375 C359 1.429 . S
C375 C371 1.429 . S
C375 C376 1.523 . S
C376 C360 1.368 . S
C376 C372 1.368 . S
C376 C375 1.523 . S
H377 C352 0.950 . S
H378 C354 0.950 . S
H379 C355 0.949 . S
H380 C357 0.950 . S
H381 C359 0.950 . S
C382 C383 1.334 1_455 S
C382 C384 1.327 . S
C382 H407 0.967 . S
C383 C382 1.334 1_655 S
C383 C399 1.349 . S
C384 C382 1.327 . S
C384 C403 1.418 1_455 S
C384 H408 0.960 . S
C385 C402 1.574 . S
C385 C404 1.368 . S
C385 H409 0.949 . S
H386 C390 0.940 1_455 S
C387 C388 1.349 . S
C387 C389 1.327 . S
C387 H410 0.950 . S
C388 C387 1.349 . S
C388 C400 1.349 . S
C389 C387 1.327 . S
C389 C405 1.429 . S
C389 H411 0.950 . S
C390 H386 0.940 1_655 S
C390 C398 1.573 1_655 S
C390 C406 1.380 . S
H391 C399 0.950 . S
H392 C397 0.950 . S
H393 C398 0.947 . S
H394 C400 0.950 1_455 S
H395 C401 0.950 1_455 S
H396 C402 0.949 . S
C397 H392 0.950 . S
C397 C399 1.327 . S
C397 C403 1.429 . S
C398 C390 1.573 1_455 S
C398 H393 0.947 . S
C398 C404 1.370 1_455 S
C399 C383 1.349 . S
C399 H391 0.950 . S
C399 C397 1.327 . S
C400 C388 1.349 . S
C400 H394 0.950 1_655 S
C400 C401 1.327 . S
C401 H395 0.950 1_655 S
C401 C400 1.327 . S
C401 C405 1.429 . S
C402 C385 1.574 . S
C402 H396 0.949 . S
C402 C406 1.368 . S
C403 C384 1.418 1_655 S
C403 C397 1.429 . S
C403 C404 1.523 . S
C404 C385 1.368 . S
C404 C398 1.370 1_655 S
C404 C403 1.523 . S
C405 C389 1.429 . S
C405 C401 1.429 . S
C405 C406 1.523 . S
C406 C390 1.380 . S
C406 C402 1.368 . S
C406 C405 1.523 . S
H407 C382 0.967 . S
H408 C384 0.960 . S
H409 C385 0.949 . S
H410 C387 0.950 . S
H411 C389 0.950 . S
C412 C413 1.349 . S
C412 C414 1.327 . S
C412 H437 0.950 . S
C413 C412 1.349 . S
C413 C429 1.349 . S
C414 C412 1.327 . S
C414 C433 1.429 . S
C414 H438 0.950 . S
C415 C432 1.574 . S
C415 C434 1.368 . S
C415 H439 0.949 . S
H416 C420 0.949 . S
C417 C418 1.349 . S
C417 C419 1.327 . S
C417 H440 0.950 . S
C418 C417 1.349 . S
C418 C430 1.349 . S
C419 C417 1.327 . S
C419 C435 1.429 . S
C419 H441 0.950 . S
C420 H416 0.949 . S
C420 C428 1.574 . S
C420 C436 1.368 . S
H421 C429 0.950 . S
H422 C427 0.950 . S
H423 C428 0.949 . S
H424 C430 0.950 . S
H425 C431 0.950 . S
H426 C432 0.949 . S
C427 H422 0.950 . S
C427 C429 1.327 . S
C427 C433 1.429 . S
C428 C420 1.574 . S
C428 H423 0.949 . S
C428 C434 1.368 . S
C429 C413 1.349 . S
C429 H421 0.950 . S
C429 C427 1.327 . S
C430 C418 1.349 . S
C430 H424 0.950 . S
C430 C431 1.327 . S
C431 H425 0.950 . S
C431 C430 1.327 . S
C431 C435 1.429 . S
C432 C415 1.574 . S
C432 H426 0.949 . S
C432 C436 1.368 . S
C433 C414 1.429 . S
C433 C427 1.429 . S
C433 C434 1.523 . S
C434 C415 1.368 . S
C434 C428 1.368 . S
C434 C433 1.523 . S
C435 C419 1.429 . S
C435 C431 1.429 . S
C435 C436 1.523 . S
C436 C420 1.368 . S
C436 C432 1.368 . S
C436 C435 1.523 . S
H437 C412 0.950 . S
H438 C414 0.950 . S
H439 C415 0.949 . S
H440 C417 0.950 . S
H441 C419 0.950 . S
C442 C443 1.349 . S
C442 C444 1.327 . S
C442 H467 0.950 . S
C443 C442 1.349 . S
C443 C459 1.349 . S
C444 C442 1.327 . S
C444 C463 1.429 . S
C444 H468 0.950 1_455 S
C445 C462 1.574 . S
C445 C464 1.368 . S
C445 H469 0.949 . S
H446 C450 0.949 . S
C447 C448 1.349 . S
C447 C449 1.327 1_655 S
C447 H470 0.949 1_655 S
C448 C447 1.349 . S
C448 C460 1.349 . S
C449 C447 1.327 1_455 S
C449 C465 1.429 1_455 S
C449 H471 0.950 . S
C450 H446 0.949 . S
C450 C458 1.574 . S
C450 C466 1.351 1_655 S
H451 C459 0.950 . S
H452 C457 0.950 . S
H453 C458 0.949 . S
H454 C460 0.950 . S
H455 C461 0.950 . S
H456 C462 0.949 . S
C457 H452 0.950 . S
C457 C459 1.327 . S
C457 C463 1.429 . S
C458 C450 1.574 . S
C458 H453 0.949 . S
C458 C464 1.368 1_655 S
C459 C443 1.349 . S
C459 H451 0.950 . S
C459 C457 1.327 . S
C460 C448 1.349 . S
C460 H454 0.950 . S
C460 C461 1.327 . S
C461 H455 0.950 . S
C461 C460 1.327 . S
C461 C465 1.429 . S
C462 C445 1.574 . S
C462 H456 0.949 . S
C462 C466 1.393 . S
C463 C444 1.429 . S
C463 C457 1.429 . S
C463 C464 1.523 . S
C464 C445 1.368 . S
C464 C458 1.368 1_455 S
C464 C463 1.523 . S
C465 C449 1.429 1_655 S
C465 C461 1.429 . S
C465 C466 1.517 1_655 S
C466 C450 1.351 1_455 S
C466 C462 1.393 . S
C466 C465 1.517 1_455 S
H467 C442 0.950 . S
H468 C444 0.950 1_655 S
H469 C445 0.949 . S
H470 C447 0.949 1_455 S
H471 C449 0.950 . S
C472 C473 1.349 . S
C472 C474 1.327 . S
C472 H497 0.950 . S
C473 C472 1.349 . S
C473 C489 1.349 1_545 S
C474 C472 1.327 . S
C474 C493 1.429 . S
C474 H498 0.950 . S
C475 C492 1.574 . S
C475 C494 1.368 1_565 S
C475 H499 0.949 . S
H476 C480 0.949 . S
C477 C478 1.349 . S
C477 C479 1.327 . S
C477 H500 0.950 1_545 S
C478 C477 1.349 . S
C478 C490 1.349 . S
C479 C477 1.327 . S
C479 C495 1.429 . S
C479 H501 0.950 1_545 S
C480 H476 0.949 . S
C480 C488 1.574 . S
C480 C496 1.368 . S
H481 C489 0.950 . S
H482 C487 0.950 . S
H483 C488 0.949 . S
H484 C490 0.950 . S
H485 C491 0.950 . S
H486 C492 0.949 . S
C487 H482 0.950 . S
C487 C489 1.327 . S
C487 C493 1.429 1_565 S
C488 C480 1.574 . S
C488 H483 0.949 . S
C488 C494 1.368 . S
C489 C473 1.349 1_565 S
C489 H481 0.950 . S
C489 C487 1.327 . S
C490 C478 1.349 . S
C490 H484 0.950 . S
C490 C491 1.327 . S
C491 H485 0.950 . S
C491 C490 1.327 . S
C491 C495 1.429 . S
C492 C475 1.574 . S
C492 H486 0.949 . S
C492 C496 1.368 1_565 S
C493 C474 1.429 . S
C493 C487 1.429 1_545 S
C493 C494 1.523 . S
C494 C475 1.368 1_545 S
C494 C488 1.368 . S
C494 C493 1.523 . S
C495 C479 1.429 . S
C495 C491 1.429 . S
C495 C496 1.523 . S
C496 C480 1.368 . S
C496 C492 1.368 1_545 S
C496 C495 1.523 . S
H497 C472 0.950 . S
H498 C474 0.950 . S
H499 C475 0.949 . S
H500 C477 0.950 1_565 S
H501 C479 0.950 1_565 S
C502 C503 1.349 . S
C502 C504 1.327 . S
C502 H527 0.950 . S
C503 C502 1.349 . S
C503 C519 1.349 . S
C504 C502 1.327 . S
C504 C523 1.429 . S
C504 H528 0.950 . S
C505 C522 1.574 . S
C505 C524 1.368 . S
C505 H529 0.949 . S
H506 C510 0.949 . S
C507 C508 1.349 . S
C507 C509 1.327 . S
C507 H530 0.950 . S
C508 C507 1.349 . S
C508 C520 1.349 . S
C509 C507 1.327 . S
C509 C525 1.429 . S
C509 H531 0.950 . S
C510 H506 0.949 . S
C510 C518 1.574 . S
C510 C526 1.368 . S
H511 C519 0.950 . S
H512 C517 0.950 . S
H513 C518 0.949 . S
H514 C520 0.950 . S
H515 C521 0.950 . S
H516 C522 0.949 . S
C517 H512 0.950 . S
C517 C519 1.327 . S
C517 C523 1.429 . S
C518 C510 1.574 . S
C518 H513 0.949 . S
C518 C524 1.368 . S
C519 C503 1.349 . S
C519 H511 0.950 . S
C519 C517 1.327 . S
C520 C508 1.349 . S
C520 H514 0.950 . S
C520 C521 1.327 . S
C521 H515 0.950 . S
C521 C520 1.327 . S
C521 C525 1.429 . S
C522 C505 1.574 . S
C522 H516 0.949 . S
C522 C526 1.368 . S
C523 C504 1.429 . S
C523 C517 1.429 . S
C523 C524 1.523 . S
C524 C505 1.368 . S
C524 C518 1.368 . S
C524 C523 1.523 . S
C525 C509 1.429 . S
C525 C521 1.429 . S
C525 C526 1.523 . S
C526 C510 1.368 . S
C526 C522 1.368 . S
C526 C525 1.523 . S
H527 C502 0.950 . S
H528 C504 0.950 . S
H529 C505 0.949 . S
H530 C507 0.950 . S
H531 C509 0.950 . S
C532 C533 1.349 1_545 S
C532 C534 1.327 . S
C532 H557 0.950 . S
C533 C532 1.349 1_565 S
C533 C549 1.349 . S
C534 C532 1.327 . S
C534 C553 1.429 1_545 S
C534 H558 0.950 . S
C535 C552 1.574 . S
C535 C554 1.368 . S
C535 H559 0.949 . S
H536 C540 0.926 1_545 S
C537 C538 1.349 . S
C537 C539 1.327 . S
C537 H560 0.950 . S
C538 C537 1.349 . S
C538 C550 1.349 . S
C539 C537 1.327 . S
C539 C555 1.429 . S
C539 H561 0.950 . S
C540 H536 0.926 1_565 S
C540 C548 1.569 1_565 S
C540 C556 1.400 . S
H541 C549 0.950 . S
H542 C547 0.950 . S
H543 C548 0.949 . S
H544 C550 0.950 1_545 S
H545 C551 0.950 1_545 S
H546 C552 0.949 . S
C547 H542 0.950 . S
C547 C549 1.327 . S
C547 C553 1.429 . S
C548 C540 1.569 1_545 S
C548 H543 0.949 . S
C548 C554 1.368 1_545 S
C549 C533 1.349 . S
C549 H541 0.950 . S
C549 C547 1.327 . S
C550 C538 1.349 . S
C550 H544 0.950 1_565 S
C550 C551 1.327 . S
C551 H545 0.950 1_565 S
C551 C550 1.327 . S
C551 C555 1.429 . S
C552 C535 1.574 . S
C552 H546 0.949 . S
C552 C556 1.368 . S
C553 C534 1.429 1_565 S
C553 C547 1.429 . S
C553 C554 1.523 . S
C554 C535 1.368 . S
C554 C548 1.368 1_565 S
C554 C553 1.523 . S
C555 C539 1.429 . S
C555 C551 1.429 . S
C555 C556 1.523 . S
C556 C540 1.400 . S
C556 C552 1.368 . S
C556 C555 1.523 . S
H557 C532 0.950 . S
H558 C534 0.950 . S
H559 C535 0.949 . S
H560 C537 0.950 . S
H561 C539 0.950 . S
C562 C563 1.349 . S
C562 C564 1.327 . S
C562 H587 0.950 . S
C563 C562 1.349 . S
C563 C579 1.349 . S
C564 C562 1.327 . S
C564 C583 1.429 . S
C564 H588 0.950 . S
C565 C582 1.574 . S
C565 C584 1.368 . S
C565 H589 0.949 . S
H566 C570 0.949 . S
C567 C568 1.349 . S
C567 C569 1.327 . S
C567 H590 0.950 . S
C568 C567 1.349 . S
C568 C580 1.349 . S
C569 C567 1.327 . S
C569 C585 1.429 . S
C569 H591 0.950 . S
C570 H566 0.949 . S
C570 C578 1.574 . S
C570 C586 1.368 . S
H571 C579 0.950 . S
H572 C577 0.950 . S
H573 C578 0.949 . S
H574 C580 0.950 . S
H575 C581 0.950 . S
H576 C582 0.949 . S
C577 H572 0.950 . S
C577 C579 1.327 . S
C577 C583 1.429 . S
C578 C570 1.574 . S
C578 H573 0.949 . S
C578 C584 1.368 . S
C579 C563 1.349 . S
C579 H571 0.950 . S
C579 C577 1.327 . S
C580 C568 1.349 . S
C580 H574 0.950 . S
C580 C581 1.327 . S
C581 H575 0.950 . S
C581 C580 1.327 . S
C581 C585 1.429 . S
C582 C565 1.574 . S
C582 H576 0.949 . S
C582 C586 1.368 . S
C583 C564 1.429 . S
C583 C577 1.429 . S
C583 C584 1.523 . S
C584 C565 1.368 . S
C584 C578 1.368 . S
C584 C583 1.523 . S
C585 C569 1.429 . S
C585 C581 1.429 . S
C585 C586 1.523 . S
C586 C570 1.368 . S
C586 C582 1.368 . S
C586 C585 1.523 . S
H587 C562 0.950 . S
H588 C564 0.950 . S
H589 C565 0.949 . S
H590 C567 0.950 . S
H591 C569 0.950 . S
C592 C593 1.349 . S
C592 C594 1.327 . S
C592 H617 0.950 . S
C593 C592 1.349 . S
C593 C609 1.349 . S
C594 C592 1.327 . S
C594 C613 1.429 . S
C594 H618 0.950 . S
C595 C612 1.574 . S
C595 C614 1.368 . S
C595 H619 0.949 1_554 S
H596 C600 0.949 . S
C597 C598 1.349 . S
C597 C599 1.327 . S
C597 H620 0.950 1_554 S
C598 C597 1.349 . S
C598 C610 1.349 . S
C599 C597 1.327 . S
C599 C615 1.429 . S
C599 H621 0.950 1_554 S
C600 H596 0.949 . S
C600 C608 1.574 . S
C600 C616 1.368 . S
H601 C609 0.950 1_556 S
H602 C607 0.950 1_556 S
H603 C608 0.949 . S
H604 C610 0.950 . S
H605 C611 0.950 . S
H606 C612 0.949 1_556 S
C607 H602 0.950 1_554 S
C607 C609 1.327 . S
C607 C613 1.429 . S
C608 C600 1.574 . S
C608 H603 0.949 . S
C608 C614 1.368 . S
C609 C593 1.349 . S
C609 H601 0.950 1_554 S
C609 C607 1.327 . S
C610 C598 1.349 . S
C610 H604 0.950 . S
C610 C611 1.327 . S
C611 H605 0.950 . S
C611 C610 1.327 . S
C611 C615 1.429 . S
C612 C595 1.574 . S
C612 H606 0.949 1_554 S
C612 C616 1.368 . S
C613 C594 1.429 . S
C613 C607 1.429 . S
C613 C614 1.523 . S
C614 C595 1.368 . S
C614 C608 1.368 . S
C614 C613 1.523 . S
C615 C599 1.429 . S
C615 C611 1.429 . S
C615 C616 1.523 . S
C616 C600 1.368 . S
C616 C612 1.368 . S
C616 C615 1.523 . S
H617 C592 0.950 . S
H618 C594 0.950 . S
H619 C595 0.949 1_556 S
H620 C597 0.950 1_556 S
H621 C599 0.950 1_556 S
C622 C623 1.349 . S
C622 C624 1.327 . S
C622 H647 0.950 . S
C623 C622 1.349 . S
C623 C639 1.349 . S
C624 C622 1.327 . S
C624 C643 1.429 . S
C624 H648 0.950 . S
C625 C642 1.574 . S
C625 C644 1.368 . S
C625 H649 0.949 . S
H626 C630 0.949 . S
C627 C628 1.349 . S
C627 C629 1.327 . S
C627 H650 0.950 . S
C628 C627 1.349 . S
C628 C640 1.349 . S
C629 C627 1.327 . S
C629 C645 1.429 . S
C629 H651 0.950 . S
C630 H626 0.949 . S
C630 C638 1.574 . S
C630 C646 1.368 . S
H631 C639 0.950 . S
H632 C637 0.950 . S
H633 C638 0.949 . S
H634 C640 0.950 . S
H635 C641 0.950 . S
H636 C642 0.949 . S
C637 H632 0.950 . S
C637 C639 1.327 . S
C637 C643 1.429 . S
C638 C630 1.574 . S
C638 H633 0.949 . S
C638 C644 1.368 . S
C639 C623 1.349 . S
C639 H631 0.950 . S
C639 C637 1.327 . S
C640 C628 1.349 . S
C640 H634 0.950 . S
C640 C641 1.327 . S
C641 H635 0.950 . S
C641 C640 1.327 . S
C641 C645 1.429 . S
C642 C625 1.574 . S
C642 H636 0.949 . S
C642 C646 1.368 . S
C643 C624 1.429 . S
C643 C637 1.429 . S
C643 C644 1.523 . S
C644 C625 1.368 . S
C644 C638 1.368 . S
C644 C643 1.523 . S
C645 C629 1.429 . S
C645 C641 1.429 . S
C645 C646 1.523 . S
C646 C630 1.368 . S
C646 C642 1.368 . S
C646 C645 1.523 . S
H647 C622 0.950 . S
H648 C624 0.950 . S
H649 C625 0.949 . S
H650 C627 0.950 . S
H651 C629 0.950 . S
C652 C653 1.349 . S
C652 C654 1.327 . S
C652 H677 0.950 . S
C653 C652 1.349 . S
C653 C669 1.349 . S
C654 C652 1.327 . S
C654 C673 1.429 . S
C654 H678 0.950 . S
C655 C672 1.574 . S
C655 C674 1.368 . S
C655 H679 0.949 . S
H656 C660 0.949 . S
C657 C658 1.349 . S
C657 C659 1.327 . S
C657 H680 0.950 . S
C658 C657 1.349 . S
C658 C670 1.349 . S
C659 C657 1.327 . S
C659 C675 1.429 . S
C659 H681 0.950 . S
C660 H656 0.949 . S
C660 C668 1.574 . S
C660 C676 1.368 . S
H661 C669 0.950 . S
H662 C667 0.950 . S
H663 C668 0.949 . S
H664 C670 0.950 . S
H665 C671 0.950 . S
H666 C672 0.949 . S
C667 H662 0.950 . S
C667 C669 1.327 . S
C667 C673 1.429 . S
C668 C660 1.574 . S
C668 H663 0.949 . S
C668 C674 1.368 . S
C669 C653 1.349 . S
C669 H661 0.950 . S
C669 C667 1.327 . S
C670 C658 1.349 . S
C670 H664 0.950 . S
C670 C671 1.327 . S
C671 H665 0.950 . S
C671 C670 1.327 . S
C671 C675 1.429 . S
C672 C655 1.574 . S
C672 H666 0.949 . S
C672 C676 1.368 . S
C673 C654 1.429 . S
C673 C667 1.429 . S
C673 C674 1.523 . S
C674 C655 1.368 . S
C674 C668 1.368 . S
C674 C673 1.523 . S
C675 C659 1.429 . S
C675 C671 1.429 . S
C675 C676 1.523 . S
C676 C660 1.368 . S
C676 C672 1.368 . S
C676 C675 1.523 . S
H677 C652 0.950 . S
H678 C654 0.950 . S
H679 C655 0.949 . S
H680 C657 0.950 . S
H681 C659 0.950 . S
C682 C683 1.349 . S
C682 C684 1.327 . S
C682 H707 0.950 . S
C683 C682 1.349 . S
C683 C699 1.349 . S
C684 C682 1.327 . S
C684 C703 1.429 . S
C684 H708 0.950 . S
C685 C702 1.574 . S
C685 C704 1.368 . S
C685 H709 0.949 . S
H686 C690 0.949 . S
C687 C688 1.349 . S
C687 C689 1.327 . S
C687 H710 0.950 . S
C688 C687 1.349 . S
C688 C700 1.349 . S
C689 C687 1.327 . S
C689 C705 1.429 . S
C689 H711 0.950 . S
C690 H686 0.949 . S
C690 C698 1.574 . S
C690 C706 1.368 . S
H691 C699 0.950 . S
H692 C697 0.950 . S
H693 C698 0.949 . S
H694 C700 0.950 . S
H695 C701 0.950 . S
H696 C702 0.949 . S
C697 H692 0.950 . S
C697 C699 1.327 . S
C697 C703 1.429 . S
C698 C690 1.574 . S
C698 H693 0.949 . S
C698 C704 1.368 . S
C699 C683 1.349 . S
C699 H691 0.950 . S
C699 C697 1.327 . S
C700 C688 1.349 . S
C700 H694 0.950 . S
C700 C701 1.327 . S
C701 H695 0.950 . S
C701 C700 1.327 . S
C701 C705 1.429 . S
C702 C685 1.574 . S
C702 H696 0.949 . S
C702 C706 1.368 . S
C703 C684 1.429 . S
C703 C697 1.429 . S
C703 C704 1.523 . S
C704 C685 1.368 . S
C704 C698 1.368 . S
C704 C703 1.523 . S
C705 C689 1.429 . S
C705 C701 1.429 . S
C705 C706 1.523 . S
C706 C690 1.368 . S
C706 C702 1.368 . S
C706 C705 1.523 . S
H707 C682 0.950 . S
H708 C684 0.950 . S
H709 C685 0.949 . S
H710 C687 0.950 . S
H711 C689 0.950 . S
C712 C713 1.349 . S
C712 C714 1.327 . S
C712 H737 0.950 . S
C713 C712 1.349 . S
C713 C729 1.349 . S
C714 C712 1.327 . S
C714 C733 1.429 . S
C714 H738 0.950 . S
C715 C732 1.574 . S
C715 C734 1.368 . S
C715 H739 0.949 . S
H716 C720 0.949 . S
C717 C718 1.349 . S
C717 C719 1.327 . S
C717 H740 0.950 . S
C718 C717 1.349 . S
C718 C730 1.349 . S
C719 C717 1.327 . S
C719 C735 1.429 . S
C719 H741 0.950 . S
C720 H716 0.949 . S
C720 C728 1.574 . S
C720 C736 1.368 . S
H721 C729 0.950 . S
H722 C727 0.950 . S
H723 C728 0.949 . S
H724 C730 0.950 . S
H725 C731 0.950 . S
H726 C732 0.949 . S
C727 H722 0.950 . S
C727 C729 1.327 . S
C727 C733 1.429 . S
C728 C720 1.574 . S
C728 H723 0.949 . S
C728 C734 1.368 . S
C729 C713 1.349 . S
C729 H721 0.950 . S
C729 C727 1.327 . S
C730 C718 1.349 . S
C730 H724 0.950 . S
C730 C731 1.327 . S
C731 H725 0.950 . S
C731 C730 1.327 . S
C731 C735 1.429 . S
C732 C715 1.574 . S
C732 H726 0.949 . S
C732 C736 1.368 . S
C733 C714 1.429 . S
C733 C727 1.429 . S
C733 C734 1.523 . S
C734 C715 1.368 . S
C734 C728 1.368 . S
C734 C733 1.523 . S
C735 C719 1.429 . S
C735 C731 1.429 . S
C735 C736 1.523 . S
C736 C720 1.368 . S
C736 C732 1.368 . S
C736 C735 1.523 . S
H737 C712 0.950 . S
H738 C714 0.950 . S
H739 C715 0.949 . S
H740 C717 0.950 . S
H741 C719 0.950 . S
C742 C743 1.349 . S
C742 C744 1.327 . S
C742 H767 0.950 . S
C743 C742 1.349 . S
C743 C759 1.349 . S
C744 C742 1.327 . S
C744 C763 1.429 . S
C744 H768 0.950 . S
C745 C762 1.574 . S
C745 C764 1.368 . S
C745 H769 0.949 . S
H746 C750 0.949 . S
C747 C748 1.349 . S
C747 C749 1.327 . S
C747 H770 0.950 . S
C748 C747 1.349 . S
C748 C760 1.349 . S
C749 C747 1.327 . S
C749 C765 1.429 . S
C749 H771 0.950 . S
C750 H746 0.949 . S
C750 C758 1.574 . S
C750 C766 1.368 . S
H751 C759 0.950 . S
H752 C757 0.950 . S
H753 C758 0.949 . S
H754 C760 0.950 . S
H755 C761 0.950 . S
H756 C762 0.949 . S
C757 H752 0.950 . S
C757 C759 1.327 . S
C757 C763 1.429 . S
C758 C750 1.574 . S
C758 H753 0.949 . S
C758 C764 1.368 . S
C759 C743 1.349 . S
C759 H751 0.950 . S
C759 C757 1.327 . S
C760 C748 1.349 . S
C760 H754 0.950 . S
C760 C761 1.327 . S
C761 H755 0.950 . S
C761 C760 1.327 . S
C761 C765 1.429 . S
C762 C745 1.574 . S
C762 H756 0.949 . S
C762 C766 1.368 . S
C763 C744 1.429 . S
C763 C757 1.429 . S
C763 C764 1.523 . S
C764 C745 1.368 . S
C764 C758 1.368 . S
C764 C763 1.523 . S
C765 C749 1.429 . S
C765 C761 1.429 . S
C765 C766 1.523 . S
C766 C750 1.368 . S
C766 C762 1.368 . S
C766 C765 1.523 . S
H767 C742 0.950 . S
H768 C744 0.950 . S
H769 C745 0.949 . S
H770 C747 0.950 . S
H771 C749 0.950 . S
C772 C773 1.349 . S
C772 C774 1.327 . S
C772 H797 0.950 . S
C773 C772 1.349 . S
C773 C789 1.349 . S
C774 C772 1.327 . S
C774 C793 1.429 . S
C774 H798 0.950 . S
C775 C792 1.574 . S
C775 C794 1.368 . S
C775 H799 0.949 . S
H776 C780 0.949 . S
C777 C778 1.349 . S
C777 C779 1.327 . S
C777 H800 0.950 . S
C778 C777 1.349 . S
C778 C790 1.349 . S
C779 C777 1.327 . S
C779 C795 1.429 . S
C779 H801 0.950 . S
C780 H776 0.949 . S
C780 C788 1.574 . S
C780 C796 1.368 . S
H781 C789 0.950 . S
H782 C787 0.950 . S
H783 C788 0.949 . S
H784 C790 0.950 . S
H785 C791 0.950 . S
H786 C792 0.949 . S
C787 H782 0.950 . S
C787 C789 1.327 . S
C787 C793 1.429 . S
C788 C780 1.574 . S
C788 H783 0.949 . S
C788 C794 1.368 . S
C789 C773 1.349 . S
C789 H781 0.950 . S
C789 C787 1.327 . S
C790 C778 1.349 . S
C790 H784 0.950 . S
C790 C791 1.327 . S
C791 H785 0.950 . S
C791 C790 1.327 . S
C791 C795 1.429 . S
C792 C775 1.574 . S
C792 H786 0.949 . S
C792 C796 1.368 . S
C793 C774 1.429 . S
C793 C787 1.429 . S
C793 C794 1.523 . S
C794 C775 1.368 . S
C794 C788 1.368 . S
C794 C793 1.523 . S
C795 C779 1.429 . S
C795 C791 1.429 . S
C795 C796 1.523 . S
C796 C780 1.368 . S
C796 C792 1.368 . S
C796 C795 1.523 . S
H797 C772 0.950 . S
H798 C774 0.950 . S
H799 C775 0.949 . S
H800 C777 0.950 . S
H801 C779 0.950 . S
C802 C803 1.349 . S
C802 C804 1.327 . S
C802 H827 0.950 . S
C803 C802 1.349 . S
C803 C819 1.349 . S
C804 C802 1.327 . S
C804 C823 1.429 . S
C804 H828 0.950 . S
C805 C822 1.574 . S
C805 C824 1.368 . S
C805 H829 0.949 . S
H806 C810 0.949 . S
C807 C808 1.349 . S
C807 C809 1.327 . S
C807 H830 0.950 . S
C808 C807 1.349 . S
C808 C820 1.349 . S
C809 C807 1.327 . S
C809 C825 1.429 . S
C809 H831 0.950 . S
C810 H806 0.949 . S
C810 C818 1.574 . S
C810 C826 1.368 . S
H811 C819 0.950 . S
H812 C817 0.950 . S
H813 C818 0.949 . S
H814 C820 0.950 . S
H815 C821 0.950 . S
H816 C822 0.949 . S
C817 H812 0.950 . S
C817 C819 1.327 . S
C817 C823 1.429 . S
C818 C810 1.574 . S
C818 H813 0.949 . S
C818 C824 1.368 . S
C819 C803 1.349 . S
C819 H811 0.950 . S
C819 C817 1.327 . S
C820 C808 1.349 . S
C820 H814 0.950 . S
C820 C821 1.327 . S
C821 H815 0.950 . S
C821 C820 1.327 . S
C821 C825 1.429 . S
C822 C805 1.574 . S
C822 H816 0.949 . S
C822 C826 1.368 . S
C823 C804 1.429 . S
C823 C817 1.429 . S
C823 C824 1.523 . S
C824 C805 1.368 . S
C824 C818 1.368 . S
C824 C823 1.523 . S
C825 C809 1.429 . S
C825 C821 1.429 . S
C825 C826 1.523 . S
C826 C810 1.368 . S
C826 C822 1.368 . S
C826 C825 1.523 . S
H827 C802 0.950 . S
H828 C804 0.950 . S
H829 C805 0.949 . S
H830 C807 0.950 . S
H831 C809 0.950 . S
C832 C833 1.349 . S
C832 C834 1.327 . S
C832 H857 0.950 . S
C833 C832 1.349 . S
C833 C849 1.349 . S
C834 C832 1.327 . S
C834 C853 1.429 . S
C834 H858 0.950 . S
C835 C852 1.574 . S
C835 C854 1.368 . S
C835 H859 0.949 . S
H836 C840 0.949 . S
C837 C838 1.349 . S
C837 C839 1.327 . S
C837 H860 0.950 . S
C838 C837 1.349 . S
C838 C850 1.349 . S
C839 C837 1.327 . S
C839 C855 1.429 . S
C839 H861 0.950 . S
C840 H836 0.949 . S
C840 C848 1.574 . S
C840 C856 1.368 . S
H841 C849 0.950 . S
H842 C847 0.950 . S
H843 C848 0.949 . S
H844 C850 0.950 . S
H845 C851 0.950 . S
H846 C852 0.949 . S
C847 H842 0.950 . S
C847 C849 1.327 . S
C847 C853 1.429 . S
C848 C840 1.574 . S
C848 H843 0.949 . S
C848 C854 1.368 . S
C849 C833 1.349 . S
C849 H841 0.950 . S
C849 C847 1.327 . S
C850 C838 1.349 . S
C850 H844 0.950 . S
C850 C851 1.327 . S
C851 H845 0.950 . S
C851 C850 1.327 . S
C851 C855 1.429 . S
C852 C835 1.574 . S
C852 H846 0.949 . S
C852 C856 1.368 . S
C853 C834 1.429 . S
C853 C847 1.429 . S
C853 C854 1.523 . S
C854 C835 1.368 . S
C854 C848 1.368 . S
C854 C853 1.523 . S
C855 C839 1.429 . S
C855 C851 1.429 . S
C855 C856 1.523 . S
C856 C840 1.368 . S
C856 C852 1.368 . S
C856 C855 1.523 . S
H857 C832 0.950 . S
H858 C834 0.950 . S
H859 C835 0.949 . S
H860 C837 0.950 . S
H861 C839 0.950 . S
C862 C863 1.349 1_565 S
C862 C864 1.327 . S
C862 H887 0.950 . S
C863 C862 1.349 1_545 S
C863 C879 1.349 . S
C864 C862 1.327 . S
C864 C883 1.429 . S
C864 H888 0.950 . S
C865 C882 1.574 . S
C865 C884 1.368 1_545 S
C865 H889 0.949 . S
H866 C870 0.949 . S
C867 C868 1.349 . S
C867 C869 1.334 . S
C867 H890 0.950 1_565 S
C868 C867 1.349 . S
C868 C880 1.349 . S
C869 C867 1.334 . S
C869 C885 1.457 . S
C869 H891 0.914 1_565 S
C870 H866 0.949 . S
C870 C878 1.574 . S
C870 C886 1.368 . S
H871 C879 0.950 . S
H872 C877 0.950 . S
H873 C878 0.949 . S
H874 C880 0.950 . S
H875 C881 0.950 . S
H876 C882 0.949 . S
C877 H872 0.950 . S
C877 C879 1.327 . S
C877 C883 1.429 1_545 S
C878 C870 1.574 . S
C878 H873 0.949 . S
C878 C884 1.368 . S
C879 C863 1.349 . S
C879 H871 0.950 . S
C879 C877 1.327 . S
C880 C868 1.349 . S
C880 H874 0.950 . S
C880 C881 1.327 . S
C881 H875 0.950 . S
C881 C880 1.327 . S
C881 C885 1.429 . S
C882 C865 1.574 . S
C882 H876 0.949 . S
C882 C886 1.368 1_545 S
C883 C864 1.429 . S
C883 C877 1.429 1_565 S
C883 C884 1.523 . S
C884 C865 1.368 1_565 S
C884 C878 1.368 . S
C884 C883 1.523 . S
C885 C869 1.457 . S
C885 C881 1.429 . S
C885 C886 1.523 . S
C886 C870 1.368 . S
C886 C882 1.368 1_565 S
C886 C885 1.523 . S
H887 C862 0.950 . S
H888 C864 0.950 . S
H889 C865 0.949 . S
H890 C867 0.950 1_545 S
H891 C869 0.914 1_545 S
C892 C893 1.349 . S
C892 C894 1.327 . S
C892 H917 0.950 . S
C893 C892 1.349 . S
C893 C909 1.349 . S
C894 C892 1.327 . S
C894 C913 1.429 . S
C894 H918 0.950 . S
C895 C912 1.574 . S
C895 C914 1.368 . S
C895 H919 0.949 . S
H896 C900 0.949 . S
C897 C898 1.349 . S
C897 C899 1.327 . S
C897 H920 0.950 . S
C898 C897 1.349 . S
C898 C910 1.349 . S
C899 C897 1.327 . S
C899 C915 1.429 . S
C899 H921 0.950 . S
C900 H896 0.949 . S
C900 C908 1.574 . S
C900 C916 1.368 . S
H901 C909 0.950 . S
H902 C907 0.950 . S
H903 C908 0.949 . S
H904 C910 0.950 . S
H905 C911 0.950 . S
H906 C912 0.949 . S
C907 H902 0.950 . S
C907 C909 1.327 . S
C907 C913 1.429 . S
C908 C900 1.574 . S
C908 H903 0.949 . S
C908 C914 1.368 . S
C909 C893 1.349 . S
C909 H901 0.950 . S
C909 C907 1.327 . S
C910 C898 1.349 . S
C910 H904 0.950 . S
C910 C911 1.327 . S
C911 H905 0.950 . S
C911 C910 1.327 . S
C911 C915 1.429 . S
C912 C895 1.574 . S
C912 H906 0.949 . S
C912 C916 1.368 . S
C913 C894 1.429 . S
C913 C907 1.429 . S
C913 C914 1.523 . S
C914 C895 1.368 . S
C914 C908 1.368 . S
C914 C913 1.523 . S
C915 C899 1.429 . S
C915 C911 1.429 . S
C915 C916 1.523 . S
C916 C900 1.368 . S
C916 C912 1.368 . S
C916 C915 1.523 . S
H917 C892 0.950 . S
H918 C894 0.950 . S
H919 C895 0.949 . S
H920 C897 0.950 . S
H921 C899 0.950 . S
C922 C923 1.349 . S
C922 C924 1.327 . S
C922 H947 0.950 1_545 S
C923 C922 1.349 . S
C923 C939 1.349 . S
C924 C922 1.327 . S
C924 C943 1.429 . S
C924 H948 0.950 1_545 S
C925 C942 1.574 . S
C925 C944 1.368 . S
C925 H949 0.949 . S
H926 C930 0.949 1_565 S
C927 C928 1.349 . S
C927 C929 1.327 . S
C927 H950 0.950 . S
C928 C927 1.349 . S
C928 C940 1.349 . S
C929 C927 1.327 . S
C929 C945 1.429 . S
C929 H951 0.950 . S
C930 H926 0.949 1_545 S
C930 C938 1.574 . S
C930 C946 1.368 . S
H931 C939 0.950 . S
H932 C937 0.950 . S
H933 C938 0.949 1_565 S
H934 C940 0.950 1_565 S
H935 C941 0.950 1_565 S
H936 C942 0.949 . S
C937 H932 0.950 . S
C937 C939 1.327 . S
C937 C943 1.429 . S
C938 C930 1.574 . S
C938 H933 0.949 1_545 S
C938 C944 1.368 . S
C939 C923 1.349 . S
C939 H931 0.950 . S
C939 C937 1.327 . S
C940 C928 1.349 . S
C940 H934 0.950 1_545 S
C940 C941 1.327 . S
C941 H935 0.950 1_545 S
C941 C940 1.327 . S
C941 C945 1.429 . S
C942 C925 1.574 . S
C942 H936 0.949 . S
C942 C946 1.368 . S
C943 C924 1.429 . S
C943 C937 1.429 . S
C943 C944 1.523 . S
C944 C925 1.368 . S
C944 C938 1.368 . S
C944 C943 1.523 . S
C945 C929 1.429 . S
C945 C941 1.429 . S
C945 C946 1.523 . S
C946 C930 1.368 . S
C946 C942 1.368 . S
C946 C945 1.523 . S
H947 C922 0.950 1_565 S
H948 C924 0.950 1_565 S
H949 C925 0.949 . S
H950 C927 0.950 . S
H951 C929 0.950 . S
C952 C953 1.349 . S
C952 C954 1.327 . S
C952 H977 0.950 . S
C953 C952 1.349 . S
C953 C969 1.349 . S
C954 C952 1.327 . S
C954 C973 1.429 . S
C954 H978 0.950 . S
C955 C972 1.574 . S
C955 C974 1.368 . S
C955 H979 0.949 . S
H956 C960 0.949 . S
C957 C958 1.349 . S
C957 C959 1.327 . S
C957 H980 0.950 . S
C958 C957 1.349 . S
C958 C970 1.349 . S
C959 C957 1.327 . S
C959 C975 1.429 . S
C959 H981 0.950 . S
C960 H956 0.949 . S
C960 C968 1.574 . S
C960 C976 1.368 . S
H961 C969 0.950 . S
H962 C967 0.950 . S
H963 C968 0.949 . S
H964 C970 0.950 . S
H965 C971 0.950 . S
H966 C972 0.949 . S
C967 H962 0.950 . S
C967 C969 1.327 . S
C967 C973 1.429 . S
C968 C960 1.574 . S
C968 H963 0.949 . S
C968 C974 1.368 . S
C969 C953 1.349 . S
C969 H961 0.950 . S
C969 C967 1.327 . S
C970 C958 1.349 . S
C970 H964 0.950 . S
C970 C971 1.327 . S
C971 H965 0.950 . S
C971 C970 1.327 . S
C971 C975 1.429 . S
C972 C955 1.574 . S
C972 H966 0.949 . S
C972 C976 1.368 . S
C973 C954 1.429 . S
C973 C967 1.429 . S
C973 C974 1.523 . S
C974 C955 1.368 . S
C974 C968 1.368 . S
C974 C973 1.523 . S
C975 C959 1.429 . S
C975 C971 1.429 . S
C975 C976 1.523 . S
C976 C960 1.368 . S
C976 C972 1.368 . S
C976 C975 1.523 . S
H977 C952 0.950 . S
H978 C954 0.950 . S
H979 C955 0.949 . S
H980 C957 0.950 . S
H981 C959 0.950 . S
C982 C983 1.349 1_554 S
C982 C984 1.327 . S
C982 H1007 0.950 . S
C983 C982 1.349 1_556 S
C983 C999 1.349 . S
C984 C982 1.327 . S
C984 C1003 1.429 1_554 S
C984 H1008 0.950 . S
C985 C1002 1.574 . S
C985 C1004 1.368 . S
C985 H1009 0.949 . S
H986 C990 0.949 1_554 S
C987 C988 1.349 . S
C987 C989 1.327 . S
C987 H1010 0.950 . S
C988 C987 1.349 . S
C988 C1000 1.349 . S
C989 C987 1.327 . S
C989 C1005 1.429 . S
C989 H1011 0.950 . S
C990 H986 0.949 1_556 S
C990 C998 1.574 . S
C990 C1006 1.368 . S
H991 C999 0.950 . S
H992 C997 0.950 . S
H993 C998 0.949 1_554 S
H994 C1000 0.950 . S
H995 C1001 0.950 . S
H996 C1002 0.949 . S
C997 H992 0.950 . S
C997 C999 1.327 . S
C997 C1003 1.429 . S
C998 C990 1.574 . S
C998 H993 0.949 1_556 S
C998 C1004 1.368 . S
C999 C983 1.349 . S
C999 H991 0.950 . S
C999 C997 1.327 . S
C1000 C988 1.349 . S
C1000 H994 0.950 . S
C1000 C1001 1.327 . S
C1001 H995 0.950 . S
C1001 C1000 1.327 . S
C1001 C1005 1.429 . S
C1002 C985 1.574 . S
C1002 H996 0.949 . S
C1002 C1006 1.368 . S
C1003 C984 1.429 1_556 S
C1003 C997 1.429 . S
C1003 C1004 1.523 . S
C1004 C985 1.368 . S
C1004 C998 1.368 . S
C1004 C1003 1.523 . S
C1005 C989 1.429 . S
C1005 C1001 1.429 . S
C1005 C1006 1.523 . S
C1006 C990 1.368 . S
C1006 C1002 1.368 . S
C1006 C1005 1.523 . S
H1007 C982 0.950 . S
H1008 C984 0.950 . S
H1009 C985 0.949 . S
H1010 C987 0.950 . S
H1011 C989 0.950 . S
C1012 C1013 1.349 1_556 S
C1012 C1014 1.327 . S
C1012 H1037 0.950 . S
C1013 C1012 1.349 1_554 S
C1013 C1029 1.349 . S
C1014 C1012 1.327 . S
C1014 C1033 1.435 . S
C1014 H1038 0.950 . S
C1015 C1032 1.574 1_554 S
C1015 C1034 1.368 1_554 S
C1015 H1039 0.949 . S
H1016 C1020 0.949 . S
C1017 C1018 1.349 . S
C1017 C1019 1.327 . S
C1017 H1040 0.950 . S
C1018 C1017 1.349 . S
C1018 C1030 1.349 . S
C1019 C1017 1.327 . S
C1019 C1035 1.429 . S
C1019 H1041 0.950 . S
C1020 H1016 0.949 . S
C1020 C1028 1.574 . S
C1020 C1036 1.368 . S
H1021 C1029 0.950 . S
H1022 C1027 0.950 . S
H1023 C1028 0.949 . S
H1024 C1030 0.950 . S
H1025 C1031 0.950 . S
H1026 C1032 0.949 1_554 S
C1027 H1022 0.950 . S
C1027 C1029 1.327 . S
C1027 C1033 1.417 1_554 S
C1028 C1020 1.574 . S
C1028 H1023 0.949 . S
C1028 C1034 1.368 . S
C1029 C1013 1.349 . S
C1029 H1021 0.950 . S
C1029 C1027 1.327 . S
C1030 C1018 1.349 . S
C1030 H1024 0.950 . S
C1030 C1031 1.327 . S
C1031 H1025 0.950 . S
C1031 C1030 1.327 . S
C1031 C1035 1.429 . S
C1032 C1015 1.574 1_556 S
C1032 H1026 0.949 1_556 S
C1032 C1036 1.368 . S
C1033 C1014 1.435 . S
C1033 C1027 1.417 1_556 S
C1033 C1034 1.528 . S
C1034 C1015 1.368 1_556 S
C1034 C1028 1.368 . S
C1034 C1033 1.528 . S
C1035 C1019 1.429 . S
C1035 C1031 1.429 . S
C1035 C1036 1.523 . S
C1036 C1020 1.368 . S
C1036 C1032 1.368 . S
C1036 C1035 1.523 . S
H1037 C1012 0.950 . S
H1038 C1014 0.950 . S
H1039 C1015 0.949 . S
H1040 C1017 0.950 . S
H1041 C1019 0.950 . S
C1042 C1043 1.349 1_556 S
C1042 C1044 1.327 . S
C1042 H1067 0.950 . S
C1043 C1042 1.349 1_554 S
C1043 C1059 1.349 . S
C1044 C1042 1.327 . S
C1044 C1063 1.429 1_556 S
C1044 H1068 0.950 . S
C1045 C1062 1.574 . S
C1045 C1064 1.368 . S
C1045 H1069 0.949 . S
H1046 C1050 0.949 . S
C1047 C1048 1.349 . S
C1047 C1049 1.327 . S
C1047 H1070 0.950 . S
C1048 C1047 1.349 . S
C1048 C1060 1.349 . S
C1049 C1047 1.327 . S
C1049 C1065 1.429 . S
C1049 H1071 0.950 . S
C1050 H1046 0.949 . S
C1050 C1058 1.574 . S
C1050 C1066 1.368 1_556 S
H1051 C1059 0.950 . S
H1052 C1057 0.950 . S
H1053 C1058 0.949 . S
H1054 C1060 0.950 1_556 S
H1055 C1061 0.950 1_556 S
H1056 C1062 0.949 . S
C1057 H1052 0.950 . S
C1057 C1059 1.327 . S
C1057 C1063 1.429 . S
C1058 C1050 1.574 . S
C1058 H1053 0.949 . S
C1058 C1064 1.368 1_556 S
C1059 C1043 1.349 . S
C1059 H1051 0.950 . S
C1059 C1057 1.327 . S
C1060 C1048 1.349 . S
C1060 H1054 0.950 1_554 S
C1060 C1061 1.327 . S
C1061 H1055 0.950 1_554 S
C1061 C1060 1.327 . S
C1061 C1065 1.429 . S
C1062 C1045 1.574 . S
C1062 H1056 0.949 . S
C1062 C1066 1.368 . S
C1063 C1044 1.429 1_554 S
C1063 C1057 1.429 . S
C1063 C1064 1.523 . S
C1064 C1045 1.368 . S
C1064 C1058 1.368 1_554 S
C1064 C1063 1.523 . S
C1065 C1049 1.429 . S
C1065 C1061 1.429 . S
C1065 C1066 1.523 . S
C1066 C1050 1.368 1_554 S
C1066 C1062 1.368 . S
C1066 C1065 1.523 . S
H1067 C1042 0.950 . S
H1068 C1044 0.950 . S
H1069 C1045 0.949 . S
H1070 C1047 0.950 . S
H1071 C1049 0.950 . S
C1072 C1073 1.349 . S
C1072 C1074 1.327 . S
C1072 H1097 0.950 . S
C1073 C1072 1.349 . S
C1073 C1089 1.349 1_455 S
C1074 C1072 1.327 . S
C1074 C1093 1.429 . S
C1074 H1098 0.950 . S
C1075 C1092 1.569 1_655 S
C1075 C1094 1.337 1_655 S
C1075 H1099 0.983 . S
H1076 C1080 0.949 . S
C1077 C1078 1.349 . S
C1077 C1079 1.327 . S
C1077 H1100 0.983 . S
C1078 C1077 1.349 . S
C1078 C1090 1.349 . S
C1079 C1077 1.327 . S
C1079 C1095 1.429 . S
C1079 H1101 0.950 1_455 S
C1080 H1076 0.949 . S
C1080 C1088 1.574 . S
C1080 C1096 1.368 . S
H1081 C1089 0.950 . S
H1082 C1087 0.950 . S
H1083 C1088 0.949 . S
H1084 C1090 0.950 . S
H1085 C1091 0.950 . S
H1086 C1092 0.949 1_655 S
C1087 H1082 0.950 . S
C1087 C1089 1.327 . S
C1087 C1093 1.429 1_655 S
C1088 C1080 1.574 . S
C1088 H1083 0.949 . S
C1088 C1094 1.368 . S
C1089 C1073 1.349 1_655 S
C1089 H1081 0.950 . S
C1089 C1087 1.327 . S
C1090 C1078 1.349 . S
C1090 H1084 0.950 . S
C1090 C1091 1.327 . S
C1091 H1085 0.950 . S
C1091 C1090 1.327 . S
C1091 C1095 1.429 . S
C1092 C1075 1.569 1_455 S
C1092 H1086 0.949 1_455 S
C1092 C1096 1.368 . S
C1093 C1074 1.429 . S
C1093 C1087 1.429 1_455 S
C1093 C1094 1.523 . S
C1094 C1075 1.337 1_455 S
C1094 C1088 1.368 . S
C1094 C1093 1.523 . S
C1095 C1079 1.429 . S
C1095 C1091 1.429 . S
C1095 C1096 1.523 . S
C1096 C1080 1.368 . S
C1096 C1092 1.368 . S
C1096 C1095 1.523 . S
H1097 C1072 0.950 . S
H1098 C1074 0.950 . S
H1099 C1075 0.983 . S
H1100 C1077 0.983 . S
H1101 C1079 0.950 1_655 S
C1102 C1103 1.349 1_455 S
C1102 C1104 1.327 . S
C1102 H1127 0.950 . S
C1103 C1102 1.349 1_655 S
C1103 C1119 1.349 . S
C1104 C1102 1.327 . S
C1104 C1123 1.429 1_455 S
C1104 H1128 0.950 . S
C1105 C1122 1.574 . S
C1105 C1124 1.368 . S
C1105 H1129 0.949 . S
H1106 C1110 0.949 . S
C1107 C1108 1.349 . S
C1107 C1109 1.327 . S
C1107 H1130 0.950 . S
C1108 C1107 1.349 . S
C1108 C1120 1.349 1_655 S
C1109 C1107 1.327 . S
C1109 C1125 1.429 . S
C1109 H1131 0.950 . S
C1110 H1106 0.949 . S
C1110 C1118 1.574 . S
C1110 C1126 1.368 1_455 S
H1111 C1119 0.950 . S
H1112 C1117 0.950 . S
H1113 C1118 0.949 . S
H1114 C1120 0.950 . S
H1115 C1121 0.950 . S
H1116 C1122 0.949 . S
C1117 H1112 0.950 . S
C1117 C1119 1.327 . S
C1117 C1123 1.429 . S
C1118 C1110 1.574 . S
C1118 H1113 0.949 . S
C1118 C1124 1.368 1_455 S
C1119 C1103 1.349 . S
C1119 H1111 0.950 . S
C1119 C1117 1.327 . S
C1120 C1108 1.349 1_455 S
C1120 H1114 0.950 . S
C1120 C1121 1.327 . S
C1121 H1115 0.950 . S
C1121 C1120 1.327 . S
C1121 C1125 1.429 1_455 S
C1122 C1105 1.574 . S
C1122 H1116 0.949 . S
C1122 C1126 1.368 . S
C1123 C1104 1.429 1_655 S
C1123 C1117 1.429 . S
C1123 C1124 1.523 . S
C1124 C1105 1.368 . S
C1124 C1118 1.368 1_655 S
C1124 C1123 1.523 . S
C1125 C1109 1.429 . S
C1125 C1121 1.429 1_655 S
C1125 C1126 1.523 . S
C1126 C1110 1.368 1_655 S
C1126 C1122 1.368 . S
C1126 C1125 1.523 . S
H1127 C1102 0.950 . S
H1128 C1104 0.950 . S
H1129 C1105 0.949 . S
H1130 C1107 0.950 . S
H1131 C1109 0.950 . S
C1132 C1133 1.349 . S
C1132 C1134 1.327 . S
C1132 H1157 0.950 . S
C1133 C1132 1.349 . S
C1133 C1149 1.349 . S
C1134 C1132 1.327 . S
C1134 C1153 1.429 . S
C1134 H1158 0.950 . S
C1135 C1152 1.574 . S
C1135 C1154 1.368 . S
C1135 H1159 0.949 . S
H1136 C1140 0.949 . S
C1137 C1138 1.349 . S
C1137 C1139 1.327 . S
C1137 H1160 0.950 . S
C1138 C1137 1.349 . S
C1138 C1150 1.349 . S
C1139 C1137 1.327 . S
C1139 C1155 1.429 . S
C1139 H1161 0.950 . S
C1140 H1136 0.949 . S
C1140 C1148 1.574 . S
C1140 C1156 1.368 . S
H1141 C1149 0.950 . S
H1142 C1147 0.950 . S
H1143 C1148 0.949 . S
H1144 C1150 0.950 . S
H1145 C1151 0.950 . S
H1146 C1152 0.949 . S
C1147 H1142 0.950 . S
C1147 C1149 1.327 . S
C1147 C1153 1.429 . S
C1148 C1140 1.574 . S
C1148 H1143 0.949 . S
C1148 C1154 1.368 . S
C1149 C1133 1.349 . S
C1149 H1141 0.950 . S
C1149 C1147 1.327 . S
C1150 C1138 1.349 . S
C1150 H1144 0.950 . S
C1150 C1151 1.327 . S
C1151 H1145 0.950 . S
C1151 C1150 1.327 . S
C1151 C1155 1.429 . S
C1152 C1135 1.574 . S
C1152 H1146 0.949 . S
C1152 C1156 1.368 . S
C1153 C1134 1.429 . S
C1153 C1147 1.429 . S
C1153 C1154 1.523 . S
C1154 C1135 1.368 . S
C1154 C1148 1.368 . S
C1154 C1153 1.523 . S
C1155 C1139 1.429 . S
C1155 C1151 1.429 . S
C1155 C1156 1.523 . S
C1156 C1140 1.368 . S
C1156 C1152 1.368 . S
C1156 C1155 1.523 . S
H1157 C1132 0.950 . S
H1158 C1134 0.950 . S
H1159 C1135 0.949 . S
H1160 C1137 0.950 . S
H1161 C1139 0.950 . S
C1162 C1163 1.349 . S
C1162 C1164 1.327 . S
C1162 H1187 0.950 . S
C1163 C1162 1.349 . S
C1163 C1179 1.349 . S
C1164 C1162 1.327 . S
C1164 C1183 1.429 . S
C1164 H1188 0.950 . S
C1165 C1182 1.574 . S
C1165 C1184 1.368 1_655 S
C1165 H1189 0.949 . S
H1166 C1170 0.949 . S
C1167 C1168 1.349 . S
C1167 C1169 1.327 . S
C1167 H1190 0.950 . S
C1168 C1167 1.349 . S
C1168 C1180 1.349 1_655 S
C1169 C1167 1.327 . S
C1169 C1185 1.429 . S
C1169 H1191 0.950 . S
C1170 H1166 0.949 . S
C1170 C1178 1.574 . S
C1170 C1186 1.381 . S
H1171 C1179 0.950 1_655 S
H1172 C1177 0.977 . S
H1173 C1178 0.949 . S
H1174 C1180 0.950 . S
H1175 C1181 0.950 . S
H1176 C1182 0.949 . S
C1177 H1172 0.977 . S
C1177 C1179 1.321 1_655 S
C1177 C1183 1.409 1_655 S
C1178 C1170 1.574 . S
C1178 H1173 0.949 . S
C1178 C1184 1.368 . S
C1179 C1163 1.349 . S
C1179 H1171 0.950 1_455 S
C1179 C1177 1.321 1_455 S
C1180 C1168 1.349 1_455 S
C1180 H1174 0.950 . S
C1180 C1181 1.327 . S
C1181 H1175 0.950 . S
C1181 C1180 1.327 . S
C1181 C1185 1.429 1_455 S
C1182 C1165 1.574 . S
C1182 H1176 0.949 . S
C1182 C1186 1.358 1_655 S
C1183 C1164 1.429 . S
C1183 C1177 1.409 1_455 S
C1183 C1184 1.523 . S
C1184 C1165 1.368 1_455 S
C1184 C1178 1.368 . S
C1184 C1183 1.523 . S
C1185 C1169 1.429 . S
C1185 C1181 1.429 1_655 S
C1185 C1186 1.520 1_655 S
C1186 C1170 1.381 . S
C1186 C1182 1.358 1_455 S
C1186 C1185 1.520 1_455 S
H1187 C1162 0.950 . S
H1188 C1164 0.950 . S
H1189 C1165 0.949 . S
H1190 C1167 0.950 . S
H1191 C1169 0.950 . S
C1192 C1193 1.349 . S
C1192 C1194 1.327 . S
C1192 H1217 0.950 . S
C1193 C1192 1.349 . S
C1193 C1209 1.349 1_545 S
C1194 C1192 1.327 . S
C1194 C1213 1.429 . S
C1194 H1218 0.950 . S
C1195 C1212 1.574 . S
C1195 C1214 1.371 . S
C1195 H1219 0.946 1_545 S
H1196 C1200 0.949 . S
C1197 C1198 1.349 . S
C1197 C1199 1.327 . S
C1197 H1220 0.950 1_545 S
C1198 C1197 1.349 . S
C1198 C1210 1.349 . S
C1199 C1197 1.327 . S
C1199 C1215 1.429 . S
C1199 H1221 0.950 1_545 S
C1200 H1196 0.949 . S
C1200 C1208 1.574 . S
C1200 C1216 1.368 . S
H1201 C1209 0.950 . S
H1202 C1207 0.950 . S
H1203 C1208 0.949 . S
H1204 C1210 0.950 . S
H1205 C1211 0.950 . S
H1206 C1212 0.949 1_565 S
C1207 H1202 0.950 . S
C1207 C1209 1.327 . S
C1207 C1213 1.429 1_565 S
C1208 C1200 1.574 . S
C1208 H1203 0.949 . S
C1208 C1214 1.368 . S
C1209 C1193 1.349 1_565 S
C1209 H1201 0.950 . S
C1209 C1207 1.327 . S
C1210 C1198 1.349 . S
C1210 H1204 0.950 . S
C1210 C1211 1.327 . S
C1211 H1205 0.950 . S
C1211 C1210 1.327 . S
C1211 C1215 1.429 . S
C1212 C1195 1.574 . S
C1212 H1206 0.949 1_545 S
C1212 C1216 1.368 . S
C1213 C1194 1.429 . S
C1213 C1207 1.429 1_545 S
C1213 C1214 1.523 . S
C1214 C1195 1.371 . S
C1214 C1208 1.368 . S
C1214 C1213 1.523 . S
C1215 C1199 1.429 . S
C1215 C1211 1.429 . S
C1215 C1216 1.523 . S
C1216 C1200 1.368 . S
C1216 C1212 1.368 . S
C1216 C1215 1.523 . S
H1217 C1192 0.950 . S
H1218 C1194 0.950 . S
H1219 C1195 0.946 1_565 S
H1220 C1197 0.950 1_565 S
H1221 C1199 0.950 1_565 S
C1222 C1223 1.349 . S
C1222 C1224 1.327 . S
C1222 H1247 0.950 . S
C1223 C1222 1.349 . S
C1223 C1239 1.349 . S
C1224 C1222 1.327 . S
C1224 C1243 1.429 . S
C1224 H1248 0.950 . S
C1225 C1242 1.574 . S
C1225 C1244 1.368 . S
C1225 H1249 0.949 . S
H1226 C1230 0.949 . S
C1227 C1228 1.349 . S
C1227 C1229 1.327 . S
C1227 H1250 0.950 . S
C1228 C1227 1.349 . S
C1228 C1240 1.349 . S
C1229 C1227 1.327 . S
C1229 C1245 1.429 . S
C1229 H1251 0.950 . S
C1230 H1226 0.949 . S
C1230 C1238 1.574 . S
C1230 C1246 1.368 . S
H1231 C1239 0.950 . S
H1232 C1237 0.950 . S
H1233 C1238 0.949 . S
H1234 C1240 0.950 . S
H1235 C1241 0.950 . S
H1236 C1242 0.949 . S
C1237 H1232 0.950 . S
C1237 C1239 1.327 . S
C1237 C1243 1.429 . S
C1238 C1230 1.574 . S
C1238 H1233 0.949 . S
C1238 C1244 1.368 . S
C1239 C1223 1.349 . S
C1239 H1231 0.950 . S
C1239 C1237 1.327 . S
C1240 C1228 1.349 . S
C1240 H1234 0.950 . S
C1240 C1241 1.327 . S
C1241 H1235 0.950 . S
C1241 C1240 1.327 . S
C1241 C1245 1.429 . S
C1242 C1225 1.574 . S
C1242 H1236 0.949 . S
C1242 C1246 1.368 . S
C1243 C1224 1.429 . S
C1243 C1237 1.429 . S
C1243 C1244 1.523 . S
C1244 C1225 1.368 . S
C1244 C1238 1.368 . S
C1244 C1243 1.523 . S
C1245 C1229 1.429 . S
C1245 C1241 1.429 . S
C1245 C1246 1.523 . S
C1246 C1230 1.368 . S
C1246 C1242 1.368 . S
C1246 C1245 1.523 . S
H1247 C1222 0.950 . S
H1248 C1224 0.950 . S
H1249 C1225 0.949 . S
H1250 C1227 0.950 . S
H1251 C1229 0.950 . S
C1252 C1253 1.349 . S
C1252 C1254 1.327 . S
C1252 H1277 0.950 . S
C1253 C1252 1.349 . S
C1253 C1269 1.349 1_565 S
C1254 C1252 1.327 . S
C1254 C1273 1.429 . S
C1254 H1278 0.950 . S
C1255 C1272 1.574 . S
C1255 C1274 1.368 1_545 S
C1255 H1279 0.949 . S
H1256 C1260 0.949 . S
C1257 C1258 1.349 . S
C1257 C1259 1.327 . S
C1257 H1280 0.950 1_565 S
C1258 C1257 1.349 . S
C1258 C1270 1.349 . S
C1259 C1257 1.327 . S
C1259 C1275 1.426 . S
C1259 H1281 0.953 1_565 S
C1260 H1256 0.949 . S
C1260 C1268 1.574 . S
C1260 C1276 1.368 . S
H1261 C1269 0.950 . S
H1262 C1267 0.950 . S
H1263 C1268 0.949 . S
H1264 C1270 0.950 . S
H1265 C1271 0.950 . S
H1266 C1272 0.949 . S
C1267 H1262 0.950 . S
C1267 C1269 1.327 . S
C1267 C1273 1.429 1_545 S
C1268 C1260 1.574 . S
C1268 H1263 0.949 . S
C1268 C1274 1.368 . S
C1269 C1253 1.349 1_545 S
C1269 H1261 0.950 . S
C1269 C1267 1.327 . S
C1270 C1258 1.349 . S
C1270 H1264 0.950 . S
C1270 C1271 1.327 . S
C1271 H1265 0.950 . S
C1271 C1270 1.327 . S
C1271 C1275 1.429 . S
C1272 C1255 1.574 . S
C1272 H1266 0.949 . S
C1272 C1276 1.368 1_545 S
C1273 C1254 1.429 . S
C1273 C1267 1.429 1_565 S
C1273 C1274 1.523 . S
C1274 C1255 1.368 1_565 S
C1274 C1268 1.368 . S
C1274 C1273 1.523 . S
C1275 C1259 1.426 . S
C1275 C1271 1.429 . S
C1275 C1276 1.523 . S
C1276 C1260 1.368 . S
C1276 C1272 1.368 1_565 S
C1276 C1275 1.523 . S
H1277 C1252 0.950 . S
H1278 C1254 0.950 . S
H1279 C1255 0.949 . S
H1280 C1257 0.950 1_545 S
H1281 C1259 0.953 1_545 S
C1282 C1283 1.349 . S
C1282 C1284 1.327 . S
C1282 H1307 0.950 . S
C1283 C1282 1.349 . S
C1283 C1299 1.349 . S
C1284 C1282 1.327 . S
C1284 C1303 1.429 . S
C1284 H1308 0.950 . S
C1285 C1302 1.574 . S
C1285 C1304 1.368 . S
C1285 H1309 0.949 . S
H1286 C1290 0.949 . S
C1287 C1288 1.349 . S
C1287 C1289 1.327 . S
C1287 H1310 0.950 . S
C1288 C1287 1.349 . S
C1288 C1300 1.349 . S
C1289 C1287 1.327 . S
C1289 C1305 1.429 . S
C1289 H1311 0.950 . S
C1290 H1286 0.949 . S
C1290 C1298 1.574 . S
C1290 C1306 1.368 . S
H1291 C1299 0.950 . S
H1292 C1297 0.950 . S
H1293 C1298 0.949 . S
H1294 C1300 0.950 . S
H1295 C1301 0.950 . S
H1296 C1302 0.949 . S
C1297 H1292 0.950 . S
C1297 C1299 1.327 . S
C1297 C1303 1.429 . S
C1298 C1290 1.574 . S
C1298 H1293 0.949 . S
C1298 C1304 1.368 . S
C1299 C1283 1.349 . S
C1299 H1291 0.950 . S
C1299 C1297 1.327 . S
C1300 C1288 1.349 . S
C1300 H1294 0.950 . S
C1300 C1301 1.327 . S
C1301 H1295 0.950 . S
C1301 C1300 1.327 . S
C1301 C1305 1.429 . S
C1302 C1285 1.574 . S
C1302 H1296 0.949 . S
C1302 C1306 1.368 . S
C1303 C1284 1.429 . S
C1303 C1297 1.429 . S
C1303 C1304 1.523 . S
C1304 C1285 1.368 . S
C1304 C1298 1.368 . S
C1304 C1303 1.523 . S
C1305 C1289 1.429 . S
C1305 C1301 1.429 . S
C1305 C1306 1.523 . S
C1306 C1290 1.368 . S
C1306 C1302 1.368 . S
C1306 C1305 1.523 . S
H1307 C1282 0.950 . S
H1308 C1284 0.950 . S
H1309 C1285 0.949 . S
H1310 C1287 0.950 . S
H1311 C1289 0.950 . S
C1312 C1313 1.349 . S
C1312 C1314 1.327 . S
C1312 H1337 0.950 1_554 S
C1313 C1312 1.349 . S
C1313 C1329 1.349 . S
C1314 C1312 1.327 . S
C1314 C1333 1.429 . S
C1314 H1338 0.924 1_554 S
C1315 C1332 1.574 . S
C1315 C1334 1.368 . S
C1315 H1339 0.949 . S
H1316 C1320 0.949 . S
C1317 C1318 1.349 . S
C1317 C1319 1.327 . S
C1317 H1340 0.950 . S
C1318 C1317 1.349 . S
C1318 C1330 1.349 . S
C1319 C1317 1.327 . S
C1319 C1335 1.429 . S
C1319 H1341 0.950 . S
C1320 H1316 0.949 . S
C1320 C1328 1.574 . S
C1320 C1336 1.368 . S
H1321 C1329 0.950 . S
H1322 C1327 0.950 . S
H1323 C1328 0.949 . S
H1324 C1330 0.950 . S
H1325 C1331 0.950 . S
H1326 C1332 0.949 . S
C1327 H1322 0.950 . S
C1327 C1329 1.327 . S
C1327 C1333 1.429 . S
C1328 C1320 1.574 . S
C1328 H1323 0.949 . S
C1328 C1334 1.368 . S
C1329 C1313 1.349 . S
C1329 H1321 0.950 . S
C1329 C1327 1.327 . S
C1330 C1318 1.349 . S
C1330 H1324 0.950 . S
C1330 C1331 1.327 . S
C1331 H1325 0.950 . S
C1331 C1330 1.327 . S
C1331 C1335 1.429 . S
C1332 C1315 1.574 . S
C1332 H1326 0.949 . S
C1332 C1336 1.368 . S
C1333 C1314 1.429 . S
C1333 C1327 1.429 . S
C1333 C1334 1.523 . S
C1334 C1315 1.368 . S
C1334 C1328 1.368 . S
C1334 C1333 1.523 . S
C1335 C1319 1.429 . S
C1335 C1331 1.429 . S
C1335 C1336 1.523 . S
C1336 C1320 1.368 . S
C1336 C1332 1.368 . S
C1336 C1335 1.523 . S
H1337 C1312 0.950 1_556 S
H1338 C1314 0.924 1_556 S
H1339 C1315 0.949 . S
H1340 C1317 0.950 . S
H1341 C1319 0.950 . S
C1342 C1343 1.349 . S
C1342 C1344 1.327 . S
C1342 H1367 0.950 . S
C1343 C1342 1.349 . S
C1343 C1359 1.349 . S
C1344 C1342 1.327 . S
C1344 C1363 1.429 . S
C1344 H1368 0.950 . S
C1345 C1362 1.574 . S
C1345 C1364 1.368 . S
C1345 H1369 0.949 . S
H1346 C1350 0.949 . S
C1347 C1348 1.349 . S
C1347 C1349 1.327 . S
C1347 H1370 0.950 . S
C1348 C1347 1.349 . S
C1348 C1360 1.349 . S
C1349 C1347 1.327 . S
C1349 C1365 1.429 . S
C1349 H1371 0.950 . S
C1350 H1346 0.949 . S
C1350 C1358 1.574 . S
C1350 C1366 1.368 . S
H1351 C1359 0.950 . S
H1352 C1357 0.950 . S
H1353 C1358 0.949 . S
H1354 C1360 0.950 . S
H1355 C1361 0.950 . S
H1356 C1362 0.949 . S
C1357 H1352 0.950 . S
C1357 C1359 1.327 . S
C1357 C1363 1.429 . S
C1358 C1350 1.574 . S
C1358 H1353 0.949 . S
C1358 C1364 1.368 . S
C1359 C1343 1.349 . S
C1359 H1351 0.950 . S
C1359 C1357 1.327 . S
C1360 C1348 1.349 . S
C1360 H1354 0.950 . S
C1360 C1361 1.327 . S
C1361 H1355 0.950 . S
C1361 C1360 1.327 . S
C1361 C1365 1.429 . S
C1362 C1345 1.574 . S
C1362 H1356 0.949 . S
C1362 C1366 1.368 . S
C1363 C1344 1.429 . S
C1363 C1357 1.429 . S
C1363 C1364 1.523 . S
C1364 C1345 1.368 . S
C1364 C1358 1.368 . S
C1364 C1363 1.523 . S
C1365 C1349 1.429 . S
C1365 C1361 1.429 . S
C1365 C1366 1.523 . S
C1366 C1350 1.368 . S
C1366 C1362 1.368 . S
C1366 C1365 1.523 . S
H1367 C1342 0.950 . S
H1368 C1344 0.950 . S
H1369 C1345 0.949 . S
H1370 C1347 0.950 . S
H1371 C1349 0.950 . S
C1372 C1373 1.349 . S
C1372 C1374 1.327 . S
C1372 H1397 0.950 . S
C1373 C1372 1.349 . S
C1373 C1389 1.349 . S
C1374 C1372 1.327 . S
C1374 C1393 1.429 . S
C1374 H1398 0.950 . S
C1375 C1392 1.574 . S
C1375 C1394 1.368 . S
C1375 H1399 0.949 . S
H1376 C1380 0.949 . S
C1377 C1378 1.349 . S
C1377 C1379 1.327 . S
C1377 H1400 0.950 . S
C1378 C1377 1.349 . S
C1378 C1390 1.349 . S
C1379 C1377 1.327 . S
C1379 C1395 1.429 . S
C1379 H1401 0.950 . S
C1380 H1376 0.949 . S
C1380 C1388 1.574 . S
C1380 C1396 1.368 . S
H1381 C1389 0.950 . S
H1382 C1387 0.950 . S
H1383 C1388 0.949 . S
H1384 C1390 0.950 . S
H1385 C1391 0.950 . S
H1386 C1392 0.949 . S
C1387 H1382 0.950 . S
C1387 C1389 1.327 . S
C1387 C1393 1.429 . S
C1388 C1380 1.574 . S
C1388 H1383 0.949 . S
C1388 C1394 1.368 . S
C1389 C1373 1.349 . S
C1389 H1381 0.950 . S
C1389 C1387 1.327 . S
C1390 C1378 1.349 . S
C1390 H1384 0.950 . S
C1390 C1391 1.327 . S
C1391 H1385 0.950 . S
C1391 C1390 1.327 . S
C1391 C1395 1.429 . S
C1392 C1375 1.574 . S
C1392 H1386 0.949 . S
C1392 C1396 1.368 . S
C1393 C1374 1.429 . S
C1393 C1387 1.429 . S
C1393 C1394 1.523 . S
C1394 C1375 1.368 . S
C1394 C1388 1.368 . S
C1394 C1393 1.523 . S
C1395 C1379 1.429 . S
C1395 C1391 1.429 . S
C1395 C1396 1.523 . S
C1396 C1380 1.368 . S
C1396 C1392 1.368 . S
C1396 C1395 1.523 . S
H1397 C1372 0.950 . S
H1398 C1374 0.950 . S
H1399 C1375 0.949 . S
H1400 C1377 0.950 . S
H1401 C1379 0.950 . S
C1402 C1403 1.349 . S
C1402 C1404 1.327 . S
C1402 H1427 0.950 . S
C1403 C1402 1.349 . S
C1403 C1419 1.349 . S
C1404 C1402 1.327 . S
C1404 C1423 1.429 . S
C1404 H1428 0.950 . S
C1405 C1422 1.574 . S
C1405 C1424 1.368 . S
C1405 H1429 0.949 . S
H1406 C1410 0.949 . S
C1407 C1408 1.349 . S
C1407 C1409 1.327 . S
C1407 H1430 0.950 . S
C1408 C1407 1.349 . S
C1408 C1420 1.349 . S
C1409 C1407 1.327 . S
C1409 C1425 1.429 . S
C1409 H1431 0.950 . S
C1410 H1406 0.949 . S
C1410 C1418 1.574 . S
C1410 C1426 1.368 . S
H1411 C1419 0.950 . S
H1412 C1417 0.950 . S
H1413 C1418 0.949 . S
H1414 C1420 0.950 . S
H1415 C1421 0.950 . S
H1416 C1422 0.949 . S
C1417 H1412 0.950 . S
C1417 C1419 1.327 . S
C1417 C1423 1.429 . S
C1418 C1410 1.574 . S
C1418 H1413 0.949 . S
C1418 C1424 1.368 . S
C1419 C1403 1.349 . S
C1419 H1411 0.950 . S
C1419 C1417 1.327 . S
C1420 C1408 1.349 . S
C1420 H1414 0.950 . S
C1420 C1421 1.327 . S
C1421 H1415 0.950 . S
C1421 C1420 1.327 . S
C1421 C1425 1.429 . S
C1422 C1405 1.574 . S
C1422 H1416 0.949 . S
C1422 C1426 1.368 . S
C1423 C1404 1.429 . S
C1423 C1417 1.429 . S
C1423 C1424 1.523 . S
C1424 C1405 1.368 . S
C1424 C1418 1.368 . S
C1424 C1423 1.523 . S
C1425 C1409 1.429 . S
C1425 C1421 1.429 . S
C1425 C1426 1.523 . S
C1426 C1410 1.368 . S
C1426 C1422 1.368 . S
C1426 C1425 1.523 . S
H1427 C1402 0.950 . S
H1428 C1404 0.950 . S
H1429 C1405 0.949 . S
H1430 C1407 0.950 . S
H1431 C1409 0.950 . S
C1432 C1433 1.349 . S
C1432 C1434 1.327 . S
C1432 H1457 0.950 . S
C1433 C1432 1.349 . S
C1433 C1449 1.349 . S
C1434 C1432 1.327 . S
C1434 C1453 1.429 . S
C1434 H1458 0.950 . S
C1435 C1452 1.574 . S
C1435 C1454 1.368 . S
C1435 H1459 0.949 . S
H1436 C1440 0.949 . S
C1437 C1438 1.349 . S
C1437 C1439 1.327 . S
C1437 H1460 0.950 . S
C1438 C1437 1.349 . S
C1438 C1450 1.349 . S
C1439 C1437 1.327 . S
C1439 C1455 1.429 . S
C1439 H1461 0.950 . S
C1440 H1436 0.949 . S
C1440 C1448 1.574 . S
C1440 C1456 1.368 . S
H1441 C1449 0.950 . S
H1442 C1447 0.950 . S
H1443 C1448 0.949 . S
H1444 C1450 0.950 . S
H1445 C1451 0.950 . S
H1446 C1452 0.949 . S
C1447 H1442 0.950 . S
C1447 C1449 1.327 . S
C1447 C1453 1.429 . S
C1448 C1440 1.574 . S
C1448 H1443 0.949 . S
C1448 C1454 1.368 . S
C1449 C1433 1.349 . S
C1449 H1441 0.950 . S
C1449 C1447 1.327 . S
C1450 C1438 1.349 . S
C1450 H1444 0.950 . S
C1450 C1451 1.327 . S
C1451 H1445 0.950 . S
C1451 C1450 1.327 . S
C1451 C1455 1.429 . S
C1452 C1435 1.574 . S
C1452 H1446 0.949 . S
C1452 C1456 1.368 . S
C1453 C1434 1.429 . S
C1453 C1447 1.429 . S
C1453 C1454 1.523 . S
C1454 C1435 1.368 . S
C1454 C1448 1.368 . S
C1454 C1453 1.523 . S
C1455 C1439 1.429 . S
C1455 C1451 1.429 . S
C1455 C1456 1.523 . S
C1456 C1440 1.368 . S
C1456 C1452 1.368 . S
C1456 C1455 1.523 . S
H1457 C1432 0.950 . S
H1458 C1434 0.950 . S
H1459 C1435 0.949 . S
H1460 C1437 0.950 . S
H1461 C1439 0.950 . S
C1462 C1463 1.349 . S
C1462 C1464 1.327 . S
C1462 H1487 0.950 . S
C1463 C1462 1.349 . S
C1463 C1479 1.349 . S
C1464 C1462 1.327 . S
C1464 C1483 1.429 . S
C1464 H1488 0.950 . S
C1465 C1482 1.574 . S
C1465 C1484 1.368 . S
C1465 H1489 0.949 . S
H1466 C1470 0.949 . S
C1467 C1468 1.349 . S
C1467 C1469 1.327 . S
C1467 H1490 0.950 . S
C1468 C1467 1.349 . S
C1468 C1480 1.349 . S
C1469 C1467 1.327 . S
C1469 C1485 1.429 . S
C1469 H1491 0.950 . S
C1470 H1466 0.949 . S
C1470 C1478 1.574 . S
C1470 C1486 1.368 . S
H1471 C1479 0.950 . S
H1472 C1477 0.950 . S
H1473 C1478 0.949 . S
H1474 C1480 0.950 . S
H1475 C1481 0.950 . S
H1476 C1482 0.949 . S
C1477 H1472 0.950 . S
C1477 C1479 1.327 . S
C1477 C1483 1.429 . S
C1478 C1470 1.574 . S
C1478 H1473 0.949 . S
C1478 C1484 1.368 . S
C1479 C1463 1.349 . S
C1479 H1471 0.950 . S
C1479 C1477 1.327 . S
C1480 C1468 1.349 . S
C1480 H1474 0.950 . S
C1480 C1481 1.327 . S
C1481 H1475 0.950 . S
C1481 C1480 1.327 . S
C1481 C1485 1.429 . S
C1482 C1465 1.574 . S
C1482 H1476 0.949 . S
C1482 C1486 1.368 . S
C1483 C1464 1.429 . S
C1483 C1477 1.429 . S
C1483 C1484 1.523 . S
C1484 C1465 1.368 . S
C1484 C1478 1.368 . S
C1484 C1483 1.523 . S
C1485 C1469 1.429 . S
C1485 C1481 1.429 . S
C1485 C1486 1.523 . S
C1486 C1470 1.368 . S
C1486 C1482 1.368 . S
C1486 C1485 1.523 . S
H1487 C1462 0.950 . S
H1488 C1464 0.950 . S
H1489 C1465 0.949 . S
H1490 C1467 0.950 . S
H1491 C1469 0.950 . S
C1492 C1493 1.349 . S
C1492 C1494 1.327 . S
C1492 H1517 0.950 . S
C1493 C1492 1.349 . S
C1493 C1509 1.349 . S
C1494 C1492 1.327 . S
C1494 C1513 1.429 . S
C1494 H1518 0.950 . S
C1495 C1512 1.574 . S
C1495 C1514 1.368 . S
C1495 H1519 0.949 . S
H1496 C1500 0.949 . S
C1497 C1498 1.349 . S
C1497 C1499 1.327 . S
C1497 H1520 0.950 . S
C1498 C1497 1.349 . S
C1498 C1510 1.349 . S
C1499 C1497 1.327 . S
C1499 C1515 1.429 . S
C1499 H1521 0.950 . S
C1500 H1496 0.949 . S
C1500 C1508 1.574 . S
C1500 C1516 1.368 . S
H1501 C1509 0.950 . S
H1502 C1507 0.950 . S
H1503 C1508 0.949 . S
H1504 C1510 0.950 . S
H1505 C1511 0.950 . S
H1506 C1512 0.949 . S
C1507 H1502 0.950 . S
C1507 C1509 1.327 . S
C1507 C1513 1.429 . S
C1508 C1500 1.574 . S
C1508 H1503 0.949 . S
C1508 C1514 1.368 . S
C1509 C1493 1.349 . S
C1509 H1501 0.950 . S
C1509 C1507 1.327 . S
C1510 C1498 1.349 . S
C1510 H1504 0.950 . S
C1510 C1511 1.327 . S
C1511 H1505 0.950 . S
C1511 C1510 1.327 . S
C1511 C1515 1.429 . S
C1512 C1495 1.574 . S
C1512 H1506 0.949 . S
C1512 C1516 1.368 . S
C1513 C1494 1.429 . S
C1513 C1507 1.429 . S
C1513 C1514 1.523 . S
C1514 C1495 1.368 . S
C1514 C1508 1.368 . S
C1514 C1513 1.523 . S
C1515 C1499 1.429 . S
C1515 C1511 1.429 . S
C1515 C1516 1.523 . S
C1516 C1500 1.368 . S
C1516 C1512 1.368 . S
C1516 C1515 1.523 . S
H1517 C1492 0.950 . S
H1518 C1494 0.950 . S
H1519 C1495 0.949 . S
H1520 C1497 0.950 . S
H1521 C1499 0.950 . S
C1522 C1523 1.349 . S
C1522 C1524 1.327 . S
C1522 H1547 0.950 . S
C1523 C1522 1.349 . S
C1523 C1539 1.349 . S
C1524 C1522 1.327 . S
C1524 C1543 1.429 . S
C1524 H1548 0.950 . S
C1525 C1542 1.574 . S
C1525 C1544 1.368 . S
C1525 H1549 0.949 . S
H1526 C1530 0.949 . S
C1527 C1528 1.349 . S
C1527 C1529 1.327 . S
C1527 H1550 0.950 . S
C1528 C1527 1.349 . S
C1528 C1540 1.349 . S
C1529 C1527 1.327 . S
C1529 C1545 1.429 . S
C1529 H1551 0.950 . S
C1530 H1526 0.949 . S
C1530 C1538 1.574 . S
C1530 C1546 1.368 . S
H1531 C1539 0.950 . S
H1532 C1537 0.950 . S
H1533 C1538 0.949 . S
H1534 C1540 0.950 . S
H1535 C1541 0.950 . S
H1536 C1542 0.949 . S
C1537 H1532 0.950 . S
C1537 C1539 1.327 . S
C1537 C1543 1.429 . S
C1538 C1530 1.574 . S
C1538 H1533 0.949 . S
C1538 C1544 1.368 . S
C1539 C1523 1.349 . S
C1539 H1531 0.950 . S
C1539 C1537 1.327 . S
C1540 C1528 1.349 . S
C1540 H1534 0.950 . S
C1540 C1541 1.327 . S
C1541 H1535 0.950 . S
C1541 C1540 1.327 . S
C1541 C1545 1.429 . S
C1542 C1525 1.574 . S
C1542 H1536 0.949 . S
C1542 C1546 1.368 . S
C1543 C1524 1.429 . S
C1543 C1537 1.429 . S
C1543 C1544 1.523 . S
C1544 C1525 1.368 . S
C1544 C1538 1.368 . S
C1544 C1543 1.523 . S
C1545 C1529 1.429 . S
C1545 C1541 1.429 . S
C1545 C1546 1.523 . S
C1546 C1530 1.368 . S
C1546 C1542 1.368 . S
C1546 C1545 1.523 . S
H1547 C1522 0.950 . S
H1548 C1524 0.950 . S
H1549 C1525 0.949 . S
H1550 C1527 0.950 . S
H1551 C1529 0.950 . S
C1552 C1553 1.349 . S
C1552 C1554 1.327 . S
C1552 H1577 0.950 . S
C1553 C1552 1.349 . S
C1553 C1569 1.349 . S
C1554 C1552 1.327 . S
C1554 C1573 1.429 . S
C1554 H1578 0.950 . S
C1555 C1572 1.574 . S
C1555 C1574 1.368 . S
C1555 H1579 0.949 . S
H1556 C1560 0.949 . S
C1557 C1558 1.349 . S
C1557 C1559 1.327 . S
C1557 H1580 0.950 . S
C1558 C1557 1.349 . S
C1558 C1570 1.349 . S
C1559 C1557 1.327 . S
C1559 C1575 1.429 . S
C1559 H1581 0.950 . S
C1560 H1556 0.949 . S
C1560 C1568 1.574 . S
C1560 C1576 1.368 . S
H1561 C1569 0.950 . S
H1562 C1567 0.950 . S
H1563 C1568 0.949 . S
H1564 C1570 0.950 . S
H1565 C1571 0.950 . S
H1566 C1572 0.949 . S
C1567 H1562 0.950 . S
C1567 C1569 1.327 . S
C1567 C1573 1.429 . S
C1568 C1560 1.574 . S
C1568 H1563 0.949 . S
C1568 C1574 1.368 . S
C1569 C1553 1.349 . S
C1569 H1561 0.950 . S
C1569 C1567 1.327 . S
C1570 C1558 1.349 . S
C1570 H1564 0.950 . S
C1570 C1571 1.327 . S
C1571 H1565 0.950 . S
C1571 C1570 1.327 . S
C1571 C1575 1.429 . S
C1572 C1555 1.574 . S
C1572 H1566 0.949 . S
C1572 C1576 1.368 . S
C1573 C1554 1.429 . S
C1573 C1567 1.429 . S
C1573 C1574 1.523 . S
C1574 C1555 1.368 . S
C1574 C1568 1.368 . S
C1574 C1573 1.523 . S
C1575 C1559 1.429 . S
C1575 C1571 1.429 . S
C1575 C1576 1.523 . S
C1576 C1560 1.368 . S
C1576 C1572 1.368 . S
C1576 C1575 1.523 . S
H1577 C1552 0.950 . S
H1578 C1554 0.950 . S
H1579 C1555 0.949 . S
H1580 C1557 0.950 . S
H1581 C1559 0.950 . S
C1582 C1583 1.349 . S
C1582 C1584 1.327 . S
C1582 H1607 0.950 . S
C1583 C1582 1.349 . S
C1583 C1599 1.349 1_545 S
C1584 C1582 1.327 . S
C1584 C1603 1.429 1_545 S
C1584 H1608 0.950 . S
C1585 C1602 1.574 . S
C1585 C1604 1.368 . S
C1585 H1609 0.949 . S
H1586 C1590 0.949 . S
C1587 C1588 1.349 . S
C1587 C1589 1.327 . S
C1587 H1610 0.950 . S
C1588 C1587 1.349 . S
C1588 C1600 1.349 . S
C1589 C1587 1.327 . S
C1589 C1605 1.429 . S
C1589 H1611 0.950 . S
C1590 H1586 0.949 . S
C1590 C1598 1.574 . S
C1590 C1606 1.368 . S
H1591 C1599 0.950 . S
H1592 C1597 0.950 . S
H1593 C1598 0.949 1_545 S
H1594 C1600 0.950 . S
H1595 C1601 0.950 . S
H1596 C1602 0.949 . S
C1597 H1592 0.950 . S
C1597 C1599 1.327 . S
C1597 C1603 1.429 . S
C1598 C1590 1.574 . S
C1598 H1593 0.949 1_565 S
C1598 C1604 1.368 . S
C1599 C1583 1.349 1_565 S
C1599 H1591 0.950 . S
C1599 C1597 1.327 . S
C1600 C1588 1.349 . S
C1600 H1594 0.950 . S
C1600 C1601 1.327 . S
C1601 H1595 0.950 . S
C1601 C1600 1.327 . S
C1601 C1605 1.429 . S
C1602 C1585 1.574 . S
C1602 H1596 0.949 . S
C1602 C1606 1.368 . S
C1603 C1584 1.429 1_565 S
C1603 C1597 1.429 . S
C1603 C1604 1.523 . S
C1604 C1585 1.368 . S
C1604 C1598 1.368 . S
C1604 C1603 1.523 . S
C1605 C1589 1.429 . S
C1605 C1601 1.429 . S
C1605 C1606 1.523 . S
C1606 C1590 1.368 . S
C1606 C1602 1.368 . S
C1606 C1605 1.523 . S
H1607 C1582 0.950 . S
H1608 C1584 0.950 . S
H1609 C1585 0.949 . S
H1610 C1587 0.950 . S
H1611 C1589 0.950 . S
C1612 C1613 1.349 . S
C1612 C1614 1.327 . S
C1612 H1637 0.950 . S
C1613 C1612 1.349 . S
C1613 C1629 1.349 . S
C1614 C1612 1.327 . S
C1614 C1633 1.429 . S
C1614 H1638 0.950 . S
C1615 C1632 1.574 . S
C1615 C1634 1.368 . S
C1615 H1639 0.949 . S
H1616 C1620 0.949 . S
C1617 C1618 1.349 . S
C1617 C1619 1.327 . S
C1617 H1640 0.950 . S
C1618 C1617 1.349 . S
C1618 C1630 1.349 . S
C1619 C1617 1.327 . S
C1619 C1635 1.429 . S
C1619 H1641 0.950 . S
C1620 H1616 0.949 . S
C1620 C1628 1.574 . S
C1620 C1636 1.368 . S
H1621 C1629 0.950 . S
H1622 C1627 0.950 . S
H1623 C1628 0.949 . S
H1624 C1630 0.950 . S
H1625 C1631 0.950 . S
H1626 C1632 0.949 . S
C1627 H1622 0.950 . S
C1627 C1629 1.327 . S
C1627 C1633 1.429 . S
C1628 C1620 1.574 . S
C1628 H1623 0.949 . S
C1628 C1634 1.368 . S
C1629 C1613 1.349 . S
C1629 H1621 0.950 . S
C1629 C1627 1.327 . S
C1630 C1618 1.349 . S
C1630 H1624 0.950 . S
C1630 C1631 1.327 . S
C1631 H1625 0.950 . S
C1631 C1630 1.327 . S
C1631 C1635 1.429 . S
C1632 C1615 1.574 . S
C1632 H1626 0.949 . S
C1632 C1636 1.368 . S
C1633 C1614 1.429 . S
C1633 C1627 1.429 . S
C1633 C1634 1.523 . S
C1634 C1615 1.368 . S
C1634 C1628 1.368 . S
C1634 C1633 1.523 . S
C1635 C1619 1.429 . S
C1635 C1631 1.429 . S
C1635 C1636 1.523 . S
C1636 C1620 1.368 . S
C1636 C1632 1.368 . S
C1636 C1635 1.523 . S
H1637 C1612 0.950 . S
H1638 C1614 0.950 . S
H1639 C1615 0.949 . S
H1640 C1617 0.950 . S
H1641 C1619 0.950 . S
C1642 C1643 1.349 . S
C1642 C1644 1.327 . S
C1642 H1667 0.950 . S
C1643 C1642 1.349 . S
C1643 C1659 1.349 . S
C1644 C1642 1.327 . S
C1644 C1663 1.429 . S
C1644 H1668 0.950 . S
C1645 C1662 1.574 . S
C1645 C1664 1.368 . S
C1645 H1669 0.949 . S
H1646 C1650 0.949 . S
C1647 C1648 1.349 . S
C1647 C1649 1.327 . S
C1647 H1670 0.950 . S
C1648 C1647 1.349 . S
C1648 C1660 1.349 . S
C1649 C1647 1.327 . S
C1649 C1665 1.429 . S
C1649 H1671 0.950 . S
C1650 H1646 0.949 . S
C1650 C1658 1.574 . S
C1650 C1666 1.368 . S
H1651 C1659 0.950 . S
H1652 C1657 0.950 . S
H1653 C1658 0.949 . S
H1654 C1660 0.950 . S
H1655 C1661 0.950 . S
H1656 C1662 0.949 . S
C1657 H1652 0.950 . S
C1657 C1659 1.327 . S
C1657 C1663 1.429 . S
C1658 C1650 1.574 . S
C1658 H1653 0.949 . S
C1658 C1664 1.368 . S
C1659 C1643 1.349 . S
C1659 H1651 0.950 . S
C1659 C1657 1.327 . S
C1660 C1648 1.349 . S
C1660 H1654 0.950 . S
C1660 C1661 1.327 . S
C1661 H1655 0.950 . S
C1661 C1660 1.327 . S
C1661 C1665 1.429 . S
C1662 C1645 1.574 . S
C1662 H1656 0.949 . S
C1662 C1666 1.368 . S
C1663 C1644 1.429 . S
C1663 C1657 1.429 . S
C1663 C1664 1.523 . S
C1664 C1645 1.368 . S
C1664 C1658 1.368 . S
C1664 C1663 1.523 . S
C1665 C1649 1.429 . S
C1665 C1661 1.429 . S
C1665 C1666 1.523 . S
C1666 C1650 1.368 . S
C1666 C1662 1.368 . S
C1666 C1665 1.523 . S
H1667 C1642 0.950 . S
H1668 C1644 0.950 . S
H1669 C1645 0.949 . S
H1670 C1647 0.950 . S
H1671 C1649 0.950 . S
C1672 C1673 1.349 . S
C1672 C1674 1.327 . S
C1672 H1697 0.950 . S
C1673 C1672 1.349 . S
C1673 C1689 1.349 . S
C1674 C1672 1.327 . S
C1674 C1693 1.429 . S
C1674 H1698 0.950 . S
C1675 C1692 1.574 . S
C1675 C1694 1.368 . S
C1675 H1699 0.949 . S
H1676 C1680 0.949 . S
C1677 C1678 1.349 . S
C1677 C1679 1.327 . S
C1677 H1700 0.950 . S
C1678 C1677 1.349 . S
C1678 C1690 1.349 . S
C1679 C1677 1.327 . S
C1679 C1695 1.429 . S
C1679 H1701 0.950 . S
C1680 H1676 0.949 . S
C1680 C1688 1.574 . S
C1680 C1696 1.368 . S
H1681 C1689 0.950 . S
H1682 C1687 0.950 . S
H1683 C1688 0.949 . S
H1684 C1690 0.950 . S
H1685 C1691 0.950 . S
H1686 C1692 0.949 . S
C1687 H1682 0.950 . S
C1687 C1689 1.327 . S
C1687 C1693 1.429 . S
C1688 C1680 1.574 . S
C1688 H1683 0.949 . S
C1688 C1694 1.368 . S
C1689 C1673 1.349 . S
C1689 H1681 0.950 . S
C1689 C1687 1.327 . S
C1690 C1678 1.349 . S
C1690 H1684 0.950 . S
C1690 C1691 1.327 . S
C1691 H1685 0.950 . S
C1691 C1690 1.327 . S
C1691 C1695 1.429 . S
C1692 C1675 1.574 . S
C1692 H1686 0.949 . S
C1692 C1696 1.368 . S
C1693 C1674 1.429 . S
C1693 C1687 1.429 . S
C1693 C1694 1.523 . S
C1694 C1675 1.368 . S
C1694 C1688 1.368 . S
C1694 C1693 1.523 . S
C1695 C1679 1.429 . S
C1695 C1691 1.429 . S
C1695 C1696 1.523 . S
C1696 C1680 1.368 . S
C1696 C1692 1.368 . S
C1696 C1695 1.523 . S
H1697 C1672 0.950 . S
H1698 C1674 0.950 . S
H1699 C1675 0.949 . S
H1700 C1677 0.950 . S
H1701 C1679 0.950 . S
C1702 C1703 1.349 . S
C1702 C1704 1.327 . S
C1702 H1727 0.950 . S
C1703 C1702 1.349 . S
C1703 C1719 1.349 1_556 S
C1704 C1702 1.327 . S
C1704 C1723 1.429 . S
C1704 H1728 0.950 . S
C1705 C1722 1.574 . S
C1705 C1724 1.368 . S
C1705 H1729 0.949 1_556 S
H1706 C1710 0.949 . S
C1707 C1708 1.349 . S
C1707 C1709 1.327 . S
C1707 H1730 0.950 . S
C1708 C1707 1.349 . S
C1708 C1720 1.349 . S
C1709 C1707 1.327 . S
C1709 C1725 1.429 . S
C1709 H1731 0.950 1_556 S
C1710 H1706 0.949 . S
C1710 C1718 1.574 . S
C1710 C1726 1.368 . S
H1711 C1719 0.950 . S
H1712 C1717 0.950 . S
H1713 C1718 0.949 . S
H1714 C1720 0.950 . S
H1715 C1721 0.950 . S
H1716 C1722 0.949 1_554 S
C1717 H1712 0.950 . S
C1717 C1719 1.327 . S
C1717 C1723 1.429 1_554 S
C1718 C1710 1.574 . S
C1718 H1713 0.949 . S
C1718 C1724 1.368 . S
C1719 C1703 1.349 1_554 S
C1719 H1711 0.950 . S
C1719 C1717 1.327 . S
C1720 C1708 1.349 . S
C1720 H1714 0.950 . S
C1720 C1721 1.327 . S
C1721 H1715 0.950 . S
C1721 C1720 1.327 . S
C1721 C1725 1.429 . S
C1722 C1705 1.574 . S
C1722 H1716 0.949 1_556 S
C1722 C1726 1.368 . S
C1723 C1704 1.429 . S
C1723 C1717 1.429 1_556 S
C1723 C1724 1.523 . S
C1724 C1705 1.368 . S
C1724 C1718 1.368 . S
C1724 C1723 1.523 . S
C1725 C1709 1.429 . S
C1725 C1721 1.429 . S
C1725 C1726 1.523 . S
C1726 C1710 1.368 . S
C1726 C1722 1.368 . S
C1726 C1725 1.523 . S
H1727 C1702 0.950 . S
H1728 C1704 0.950 . S
H1729 C1705 0.949 1_554 S
H1730 C1707 0.950 . S
H1731 C1709 0.950 1_554 S
C1732 C1733 1.349 . S
C1732 C1734 1.327 . S
C1732 H1757 0.950 . S
C1733 C1732 1.349 . S
C1733 C1749 1.349 1_554 S
C1734 C1732 1.327 . S
C1734 C1753 1.429 . S
C1734 H1758 0.950 . S
C1735 C1752 1.574 . S
C1735 C1754 1.368 . S
C1735 H1759 0.949 . S
H1736 C1740 0.949 . S
C1737 C1738 1.349 . S
C1737 C1739 1.327 . S
C1737 H1760 0.950 . S
C1738 C1737 1.349 . S
C1738 C1750 1.353 . S
C1739 C1737 1.327 . S
C1739 C1755 1.429 . S
C1739 H1761 0.950 . S
C1740 H1736 0.949 . S
C1740 C1748 1.574 . S
C1740 C1756 1.368 1_554 S
H1741 C1749 0.950 . S
H1742 C1747 0.950 . S
H1743 C1748 0.949 . S
H1744 C1750 0.946 1_554 S
H1745 C1751 0.950 . S
H1746 C1752 0.949 . S
C1747 H1742 0.950 . S
C1747 C1749 1.327 . S
C1747 C1753 1.429 1_556 S
C1748 C1740 1.574 . S
C1748 H1743 0.949 . S
C1748 C1754 1.368 1_554 S
C1749 C1733 1.349 1_556 S
C1749 H1741 0.950 . S
C1749 C1747 1.327 . S
C1750 C1738 1.353 . S
C1750 H1744 0.946 1_556 S
C1750 C1751 1.326 1_556 S
C1751 H1745 0.950 . S
C1751 C1750 1.326 1_554 S
C1751 C1755 1.429 1_554 S
C1752 C1735 1.574 . S
C1752 H1746 0.949 . S
C1752 C1756 1.368 . S
C1753 C1734 1.429 . S
C1753 C1747 1.429 1_554 S
C1753 C1754 1.523 1_554 S
C1754 C1735 1.368 . S
C1754 C1748 1.368 1_556 S
C1754 C1753 1.523 1_556 S
C1755 C1739 1.429 . S
C1755 C1751 1.429 1_556 S
C1755 C1756 1.523 . S
C1756 C1740 1.368 1_556 S
C1756 C1752 1.368 . S
C1756 C1755 1.523 . S
H1757 C1732 0.950 . S
H1758 C1734 0.950 . S
H1759 C1735 0.949 . S
H1760 C1737 0.950 . S
H1761 C1739 0.950 . S
C1762 C1763 1.349 1_556 S
C1762 C1764 1.323 1_556 S
C1762 H1787 0.950 . S
C1763 C1762 1.349 1_554 S
C1763 C1779 1.349 . S
C1764 C1762 1.323 1_554 S
C1764 C1783 1.455 . S
C1764 H1788 0.928 1_554 S
C1765 C1782 1.574 . S
C1765 C1784 1.368 . S
C1765 H1789 0.949 . S
H1766 C1770 0.949 . S
C1767 C1768 1.349 . S
C1767 C1769 1.327 . S
C1767 H1790 0.950 . S
C1768 C1767 1.349 . S
C1768 C1780 1.349 . S
C1769 C1767 1.327 . S
C1769 C1785 1.429 . S
C1769 H1791 0.950 . S
C1770 H1766 0.949 . S
C1770 C1778 1.574 . S
C1770 C1786 1.368 . S
H1771 C1779 0.950 . S
H1772 C1777 0.950 . S
H1773 C1778 0.949 1_556 S
H1774 C1780 0.950 . S
H1775 C1781 0.950 . S
H1776 C1782 0.949 . S
C1777 H1772 0.950 . S
C1777 C1779 1.327 . S
C1777 C1783 1.429 . S
C1778 C1770 1.574 . S
C1778 H1773 0.949 1_554 S
C1778 C1784 1.368 . S
C1779 C1763 1.349 . S
C1779 H1771 0.950 . S
C1779 C1777 1.327 . S
C1780 C1768 1.349 . S
C1780 H1774 0.950 . S
C1780 C1781 1.327 . S
C1781 H1775 0.950 . S
C1781 C1780 1.327 . S
C1781 C1785 1.429 . S
C1782 C1765 1.574 . S
C1782 H1776 0.949 . S
C1782 C1786 1.368 . S
C1783 C1764 1.455 . S
C1783 C1777 1.429 . S
C1783 C1784 1.523 . S
C1784 C1765 1.368 . S
C1784 C1778 1.368 . S
C1784 C1783 1.523 . S
C1785 C1769 1.429 . S
C1785 C1781 1.429 . S
C1785 C1786 1.523 . S
C1786 C1770 1.368 . S
C1786 C1782 1.368 . S
C1786 C1785 1.523 . S
H1787 C1762 0.950 . S
H1788 C1764 0.928 1_556 S
H1789 C1765 0.949 . S
H1790 C1767 0.950 . S
H1791 C1769 0.950 . S
C353 C13 1.555 . S
C358 C231 1.548 . S
C388 C257 1.572 . S
C383 C1 1.597 . S
C418 C189 1.611 . S
C413 C27 1.602 . S
C443 C15 1.323 . S
C448 C212 1.327 . S
C473 C28 1.404 . S
C478 C346 1.399 . S
C503 C55 1.305 . S
C508 C327 1.335 . S
C538 C280 1.597 . S
C533 C40 1.632 . S
C563 C43 1.657 . S
C568 C303 1.634 . S
C598 C208 1.603 . S
C593 C56 1.613 . S
C628 C258 1.338 . S
C623 C83 1.334 . S
C653 C96 1.556 . S
C658 C234 1.527 1_655 S
C683 C71 1.667 . S
C688 C300 1.653 . S
C718 C323 1.550 . S
C713 C99 1.555 . S
C748 C349 1.572 . S
C743 C111 1.596 . S
C773 C113 1.602 . S
C778 C304 1.611 . S
C808 C281 1.349 . S
C803 C125 1.323 . S
C833 C139 1.405 . S
C838 C254 1.399 . S
C863 C153 1.305 . S
C868 C235 1.312 . S
C898 C211 1.597 . S
C893 C127 1.633 . S
C923 C141 1.657 . S
C928 C188 1.634 . S
C958 C277 1.603 . S
C953 C84 1.613 . S
C988 C350 1.338 . S
C983 C154 1.335 . S
C1013 C68 1.556 . S
C1018 C326 1.527 . S
C1043 C166 1.666 . S
C1048 C185 1.652 1_655 S
C1078 C187 1.203 . S
C1073 C0 1.252 . S
C1103 C12 1.412 . S
C1108 C210 1.344 . S
C1138 C232 1.135 . S
C1133 C14 1.133 . S
C1168 C253 1.260 . S
C1163 C26 1.262 . S
C1193 C41 1.358 . S
C1198 C184 1.354 . S
C1223 C42 1.350 . S
C1228 C207 1.347 . S
C1258 C233 1.320 . S
C1253 C29 1.387 . S
C1283 C54 1.285 . S
C1288 C255 1.289 . S
C1313 C69 1.199 . S
C1318 C186 1.200 . S
C1348 C230 1.275 . S
C1343 C70 1.278 . S
C1373 C85 1.354 . S
C1378 C256 1.300 . S
C1403 C82 1.095 . S
C1408 C278 1.096 . S
C1438 C302 1.204 . S
C1433 C110 1.253 . S
C1463 C98 1.413 . S
C1468 C279 1.342 . S
C1493 C124 1.133 . S
C1498 C324 1.135 . S
C1523 C112 1.262 . S
C1528 C345 1.260 . S
C1553 C126 1.358 . S
C1558 C299 1.354 . S
C1588 C276 1.347 . S
C1583 C140 1.350 . S
C1613 C138 1.388 . S
C1618 C325 1.320 . S
C1648 C347 1.289 . S
C1643 C152 1.285 . S
C1678 C301 1.200 . S
C1673 C97 1.199 . S
C1708 C322 1.275 . S
C1703 C167 1.279 . S
C1738 C348 1.300 . S
C1733 C57 1.354 . S
C1763 C155 1.095 . S
C1768 C209 1.096 . S
