# Generated by pormake.
# Topology pth, (4,4)-cn, num edge types: 1
# Building blocks:
#     Node 0, Type 0, BuildingBlock: AZAVOO_clean_sbu_0, # of connection points: 4
#     Node 1, Type 0, BuildingBlock: AZAVOO_clean_sbu_0, # of connection points: 4
#     Node 2, Type 0, BuildingBlock: AZAVOO_clean_sbu_0, # of connection points: 4
#     Node 3, Type 1, BuildingBlock: KOZSID_clean_sbu_0, # of connection points: 4
#     Node 4, Type 1, BuildingBlock: KOZSID_clean_sbu_0, # of connection points: 4
#     Node 5, Type 1, BuildingBlock: KOZSID_clean_sbu_0, # of connection points: 4
#     Edge 6, Type (0, 1), BuildingBlock: OJICUG_clean_linker_0, # of connection points: 2
#     Edge 7, Type (0, 1), BuildingBlock: OJICUG_clean_linker_0, # of connection points: 2
#     Edge 8, Type (0, 1), BuildingBlock: OJICUG_clean_linker_0, # of connection points: 2
#     Edge 9, Type (0, 1), BuildingBlock: OJICUG_clean_linker_0, # of connection points: 2
#     Edge 10, Type (0, 1), BuildingBlock: OJICUG_clean_linker_0, # of connection points: 2
#     Edge 11, Type (0, 1), BuildingBlock: OJICUG_clean_linker_0, # of connection points: 2
#     Edge 12, Type (0, 1), BuildingBlock: OJICUG_clean_linker_0, # of connection points: 2
#     Edge 13, Type (0, 1), BuildingBlock: OJICUG_clean_linker_0, # of connection points: 2
#     Edge 14, Type (0, 1), BuildingBlock: OJICUG_clean_linker_0, # of connection points: 2
#     Edge 15, Type (0, 1), BuildingBlock: OJICUG_clean_linker_0, # of connection points: 2
#     Edge 16, Type (0, 1), BuildingBlock: OJICUG_clean_linker_0, # of connection points: 2
#     Edge 17, Type (0, 1), BuildingBlock: OJICUG_clean_linker_0, # of connection points: 2
# Relax obj value: 0.067
# Max RMSD: 0.221
# Mean RMSD: 0.106
data_MOF--net-pth--node1-AZAVOO_clean_sbu_0--node2-KOZSID_clean_sbu_0--edge1-OJICUG_clean_linker_0
_symmetry_space_group_name_H-M    P1
_symmetry_Int_Tables_number       1
_symmetry_cell_setting            triclinic
loop_
_symmetry_equiv_pos_as_xyz
'x, y, z'
_cell_length_a     19.899562
_cell_length_b     20.425866
_cell_length_c     44.981692
_cell_angle_alpha  87.579337
_cell_angle_beta   89.607578
_cell_angle_gamma 122.5863
loop_
_atom_site_label
_atom_site_type_symbol
_atom_site_fract_x
_atom_site_fract_y
_atom_site_fract_z
_atom_type_partial_charge
Mg0 Mg 0.15076 0.09919 0.03775 0.0
O1 O 0.05045 0.01853 0.00789 0.0
O2 O 0.02831 0.08846 0.97485 0.0
Mg3 Mg 0.11987 0.21729 0.98246 0.0
C4 C 0.01247 0.02301 0.98609 0.0
C5 C 0.10653 0.93339 0.05739 0.0
O6 O 0.12107 0.93631 0.02867 0.0
O7 O 0.07355 0.13177 0.06284 0.0
O8 O 0.06827 0.21241 0.02901 0.0
O9 O 0.24365 0.1086 0.00632 0.0
O10 O 0.1997 0.18755 0.00417 0.0
C11 C 0.05464 0.18079 0.05533 0.0
C12 C 0.24524 0.16724 0.99335 0.0
O13 O 0.11411 0.9929 0.06886 0.0
Mg14 Mg 0.98443 0.06627 0.35777 0.0
O15 O 0.08643 0.08489 0.38695 0.0
O16 O 0.1175 0.18219 0.41614 0.0
Mg17 Mg 0.02859 0.21959 0.40876 0.0
C18 C 0.12926 0.13088 0.40678 0.0
C19 C 0.00927 0.93606 0.33776 0.0
O20 O 0.98301 0.91054 0.36533 0.0
O21 O 0.06481 0.17947 0.32994 0.0
O22 O 0.07683 0.26732 0.36119 0.0
O23 O 0.88952 0.98088 0.39162 0.0
O24 O 0.9435 0.10766 0.39007 0.0
C25 C 0.08757 0.24924 0.33551 0.0
C26 C 0.89418 0.04066 0.40268 0.0
O27 O 0.01429 0.99766 0.3276 0.0
Mg28 Mg 0.05884 0.02779 0.68636 0.0
O29 O 0.13289 0.11339 0.72121 0.0
O30 O 0.05496 0.1298 0.75148 0.0
Mg31 Mg 0.92582 0.04542 0.73754 0.0
C32 C 0.12379 0.1456 0.74313 0.0
C33 C 0.2076 0.11453 0.6386 0.0
O34 O 0.16661 0.13876 0.62455 0.0
O35 O 0.03579 0.11365 0.66147 0.0
O36 O 0.94487 0.11038 0.69222 0.0
O37 O 0.03554 0.92552 0.71562 0.0
O38 O 0.95726 0.97152 0.71454 0.0
C39 C 0.98452 0.1312 0.66741 0.0
C40 C 0.9719 0.92147 0.72525 0.0
O41 O 0.17772 0.07003 0.66198 0.0
C42 C 0.14757 0.69891 0.14033 0.0
C43 C 0.21707 0.75826 0.12557 0.0
C44 C 0.27934 0.77097 0.1425 0.0
C45 C 0.24489 0.71889 0.16651 0.0
N46 N 0.16474 0.67297 0.16558 0.0
Co47 Co 0.09256 0.59097 0.19619 0.0
N48 N 0.18329 0.59151 0.21467 0.0
C49 C 0.26111 0.64791 0.21099 0.0
C50 C 0.31013 0.63113 0.22614 0.0
C51 C 0.26002 0.55975 0.24031 0.0
C52 C 0.18297 0.53725 0.23307 0.0
N53 N 0.02116 0.50869 0.22669 0.0
C54 C 0.03453 0.46126 0.244 0.0
C55 C 0.96845 0.41149 0.26251 0.0
C56 C 0.91196 0.42863 0.2564 0.0
C57 C 0.94658 0.48774 0.23465 0.0
N58 N 1.00171 0.59129 0.17809 0.0
C59 C 0.92871 0.56059 0.19102 0.0
C60 C 0.87869 0.57193 0.1739 0.0
C61 C 0.92336 0.61374 0.14886 0.0
C62 C 0.99853 0.62585 0.1522 0.0
N63 N 0.07684 0.51016 0.16999 0.0
C64 C 0.05268 0.38854 0.13578 0.0
C65 C 0.9878 0.388 0.14806 0.0
C66 C 1.00116 0.44882 0.16537 0.0
C67 C 0.12993 0.45162 0.14046 0.0
C68 C 0.1407 0.51236 0.15732 0.0
N69 N 0.10647 0.67073 0.22272 0.0
C70 C 0.1082 0.71041 0.2725 0.0
C71 C 0.09564 0.7684 0.26175 0.0
C72 C 0.0944 0.77964 0.23086 0.0
C73 C 0.10077 0.73098 0.21185 0.0
C74 C 0.11356 0.66237 0.25264 0.0
H75 H 0.09702 0.74005 0.18841 0.0
H76 H 0.12014 0.61642 0.26165 0.0
H77 H 0.95001 0.44539 0.17535 0.0
H78 H 0.20067 0.56059 0.1604 0.0
C79 C 0.28626 0.70666 0.18868 0.0
C80 C 0.06746 0.67909 0.13236 0.0
C81 C 0.11081 0.46609 0.24505 0.0
C82 C 0.90709 0.51515 0.21774 0.0
H83 H 0.22233 0.79134 0.10529 0.0
H84 H 0.34223 0.81297 0.13778 0.0
H85 H 0.37472 0.66469 0.22564 0.0
H86 H 0.27827 0.52777 0.25416 0.0
H87 H 0.96187 0.36766 0.27877 0.0
H88 H 0.85182 0.39932 0.26586 0.0
H89 H 0.81699 0.55179 0.17889 0.0
H90 H 0.90378 0.63518 0.13066 0.0
H91 H 0.92727 0.34014 0.14483 0.0
H92 H 0.18152 0.45431 0.13089 0.0
H93 H 0.11195 0.70078 0.29612 0.0
H94 H 0.08454 0.82316 0.22126 0.0
C95 C 0.46945 0.0623 0.58518 0.0
C96 C 0.41455 1.00001 0.60417 0.0
C97 C 0.39509 0.93348 0.59082 0.0
C98 C 0.43903 0.95815 0.5646 0.0
N99 N 0.48683 0.0362 0.56083 0.0
Co100 Co 0.5602 0.09468 0.52578 0.0
N101 N 0.54869 0.99867 0.51118 0.0
C102 C 0.49098 0.92491 0.51952 0.0
C103 C 0.50219 0.87088 0.50739 0.0
C104 C 0.57137 0.91315 0.49046 0.0
C105 C 0.59795 0.99104 0.49281 0.0
N106 N 0.63476 0.15248 0.49124 0.0
C107 C 0.67618 0.13177 0.47429 0.0
C108 C 0.72246 0.18931 0.45236 0.0
C109 C 0.71014 0.24844 0.45612 0.0
C110 C 0.65689 0.22358 0.47992 0.0
N111 N 0.57067 0.19087 0.53982 0.0
C112 C 0.60235 0.25903 0.52376 0.0
C113 C 0.6 0.31495 0.53871 0.0
C114 C 0.56265 0.27937 0.56558 0.0
C115 C 0.54366 0.20325 0.56541 0.0
N116 N 0.65108 0.11416 0.54932 0.0
C117 C 0.78175 0.14289 0.58252 0.0
C118 C 0.78284 0.20375 0.56674 0.0
C119 C 0.71733 0.18801 0.54998 0.0
C120 C 0.71443 0.06741 0.5814 0.0
C121 C 0.64943 0.05437 0.56492 0.0
N122 N 0.46984 0.0768 0.50196 0.0
C123 C 0.41374 0.0722 0.45408 0.0
C124 C 0.35751 0.08437 0.46728 0.0
C125 C 0.35433 0.0854 0.49825 0.0
C126 C 0.41037 0.08128 0.51501 0.0
C127 C 0.4692 0.06802 0.47191 0.0
H128 H 0.40693 0.08513 0.53847 0.0
H129 H 0.51353 0.06104 0.46123 0.0
H130 H 0.72058 0.23585 0.53756 0.0
H131 H 0.59789 0.99591 0.56485 0.0
C132 C 0.44098 0.90976 0.54415 0.0
C133 C 0.48805 0.1422 0.58747 0.0
C134 C 0.66953 0.05664 0.47749 0.0
C135 C 0.6389 0.27008 0.49569 0.0
H136 H 0.38763 1.00139 0.62485 0.0
H137 H 0.35336 0.87417 0.59916 0.0
H138 H 0.46794 0.80857 0.51222 0.0
H139 H 0.59974 0.88875 0.47872 0.0
H140 H 0.7613 0.18877 0.43555 0.0
H141 H 0.73957 0.30433 0.44388 0.0
H142 H 0.62232 0.37432 0.53096 0.0
H143 H 0.54728 0.30509 0.58277 0.0
H144 H 0.83406 0.26284 0.56721 0.0
H145 H 0.71151 0.01908 0.59366 0.0
H146 H 0.41724 0.06952 0.43017 0.0
H147 H 0.31 0.09169 0.50955 0.0
C148 C 0.73358 0.6036 0.80687 0.0
C149 C 0.79146 0.59471 0.79365 0.0
C150 C 0.79986 0.54499 0.81212 0.0
C151 C 0.74703 0.52617 0.83548 0.0
N152 N 0.70428 0.55942 0.8327 0.0
Co153 Co 0.62357 0.54869 0.86232 0.0
N154 N 0.61883 0.45929 0.88393 0.0
C155 C 0.67216 0.43837 0.88143 0.0
C156 C 0.64904 0.36989 0.897 0.0
C157 C 0.57662 0.34607 0.91009 0.0
C158 C 0.56022 0.4025 0.90223 0.0
N159 N 0.54274 0.53698 0.89184 0.0
C160 C 0.49212 0.47502 0.91028 0.0
C161 C 0.44588 0.4915 0.92782 0.0
C162 C 0.46795 0.56614 0.91967 0.0
C163 C 0.52654 0.59115 0.89784 0.0
N164 N 0.62856 0.63876 0.84109 0.0
C165 C 0.60015 0.68032 0.8518 0.0
C166 C 0.61334 0.74038 0.83261 0.0
C167 C 0.65442 0.73788 0.80862 0.0
C168 C 0.66473 0.67663 0.81469 0.0
N169 N 0.53716 0.47711 0.83716 0.0
C170 C 0.40489 0.36879 0.80562 0.0
C171 C 0.40896 0.43368 0.81682 0.0
C172 C 0.47515 0.48676 0.83241 0.0
C173 C 0.46995 0.36061 0.80981 0.0
C174 C 0.53549 0.41543 0.82559 0.0
N175 N 0.70883 0.62133 0.88775 0.0
C176 C 0.74895 0.6722 0.9363 0.0
C177 C 0.80949 0.74418 0.92324 0.0
C178 C 0.82341 0.75043 0.89245 0.0
C179 C 0.77296 0.68852 0.87523 0.0
C180 C 0.69957 0.61118 0.91811 0.0
H181 H 0.78367 0.69734 0.85161 0.0
H182 H 0.65106 0.55746 0.92852 0.0
H183 H 0.47512 0.53495 0.84113 0.0
H184 H 0.58397 0.40701 0.82897 0.0
C185 C 0.73156 0.47279 0.85901 0.0
C186 C 0.71996 0.66509 0.79728 0.0
C187 C 0.49 0.40204 0.91286 0.0
C188 C 0.55602 0.65749 0.8788 0.0
H189 H 0.82693 0.6237 0.77348 0.0
H190 H 0.83995 0.52519 0.80892 0.0
H191 H 0.67824 0.33793 0.89697 0.0
H192 H 0.53971 0.2921 0.92315 0.0
H193 H 0.40088 0.45362 0.94469 0.0
H194 H 0.44175 0.597 0.92773 0.0
H195 H 0.59539 0.7812 0.83568 0.0
H196 H 0.67747 0.77871 0.78944 0.0
H197 H 0.36121 0.44365 0.8136 0.0
H198 H 0.4695 0.31126 0.80166 0.0
H199 H 0.73705 0.66434 0.96014 0.0
H200 H 0.87147 0.80396 0.8815 0.0
C201 C 0.99664 0.25627 0.07181 0.0
C202 C 0.03537 0.21714 0.07889 0.0
H203 H 0.97107 0.34089 0.0847 0.0
C204 C 0.07128 0.22797 0.10661 0.0
H205 H 0.96895 0.24946 0.05055 0.0
C206 C 0.07459 0.28197 0.12562 0.0
C207 C 0.04018 0.32444 0.11763 0.0
H208 H 0.10253 0.19955 0.11257 0.0
H209 H 0.10656 0.29269 0.14608 0.0
C210 C 0.99828 0.30887 0.09121 0.0
C211 C 0.7551 0.98648 0.42043 0.0
C212 C 0.83695 0.03327 0.42547 0.0
H213 H 0.63836 0.96096 0.43168 0.0
C214 C 0.86317 0.08457 0.44869 0.0
H215 H 0.73391 0.94869 0.40194 0.0
C216 C 0.8082 0.08953 0.46644 0.0
C217 C 0.7265 0.04484 0.46068 0.0
H218 H 0.9263 0.12247 0.4525 0.0
H219 H 0.82963 0.13027 0.48397 0.0
C220 C 0.70054 0.99358 0.43742 0.0
C221 C 0.90071 0.86426 0.77426 0.0
C222 C 0.91131 0.85541 0.74424 0.0
H223 H 0.83164 0.80976 0.81475 0.0
C224 C 0.85753 0.78515 0.73129 0.0
H225 H 0.94082 0.91876 0.78437 0.0
C226 C 0.79369 0.72398 0.74824 0.0
C227 C 0.78374 0.73196 0.77847 0.0
H228 H 0.86406 0.77821 0.7079 0.0
H229 H 0.7527 0.67009 0.73792 0.0
C230 C 0.83792 0.8025 0.79139 0.0
C231 C 0.07282 0.86033 0.10704 0.0
C232 C 0.0863 0.86339 0.07617 0.0
H233 H 0.05487 0.79818 0.14894 0.0
C234 C 0.0839 0.80023 0.06353 0.0
H235 H 0.0737 0.90764 0.11745 0.0
C236 C 0.07265 0.73742 0.08161 0.0
C237 C 0.06317 0.73661 0.11253 0.0
H238 H 0.09355 0.8005 0.03979 0.0
H239 H 0.07496 0.69128 0.07165 0.0
C240 C 0.06145 0.79752 0.12505 0.0
C241 C 0.2387 0.17104 0.44277 0.0
C242 C 0.19231 0.12241 0.42027 0.0
H243 H 0.32784 0.19783 0.47468 0.0
C244 C 0.20492 0.06407 0.41174 0.0
H245 H 0.23144 0.21703 0.44976 0.0
C246 C 0.26061 0.053 0.42617 0.0
C247 C 0.30426 0.0997 0.44951 0.0
H248 H 0.17052 0.02575 0.39437 0.0
H249 H 0.26739 0.00625 0.41982 0.0
C250 C 0.29387 0.15983 0.45716 0.0
C251 C 0.18828 0.23558 0.78487 0.0
C252 C 0.1955 0.20231 0.7593 0.0
H253 H 0.24805 0.31251 0.81982 0.0
C254 C 0.27226 0.2233 0.74937 0.0
H255 H 0.13024 0.22043 0.79332 0.0
C256 C 0.33999 0.27656 0.76448 0.0
C257 C 0.33281 0.31029 0.78992 0.0
H258 H 0.28031 0.19897 0.72973 0.0
H259 H 0.39813 0.29239 0.75589 0.0
C260 C 0.25602 0.28874 0.80001 0.0
C261 C 0.9111 0.19209 0.64911 0.0
C262 C 0.95369 0.15702 0.64277 0.0
H263 H 0.8235 0.21588 0.63444 0.0
C264 C 0.94873 0.12892 0.61431 0.0
H265 H 0.91338 0.21381 0.67088 0.0
C266 C 0.89567 0.1282 0.59388 0.0
C267 C 0.84862 0.1576 0.60126 0.0
H268 H 0.97992 0.10069 0.60884 0.0
H269 H 0.88818 0.10089 0.57298 0.0
C270 C 0.85939 0.19288 0.62839 0.0
C271 C 0.91915 0.95362 0.94512 0.0
C272 C 0.95355 0.95035 0.97184 0.0
H273 H 0.84627 0.89108 0.90911 0.0
C274 C 0.93567 0.87736 0.9836 0.0
H275 H 0.9311 0.00853 0.93546 0.0
C276 C 0.88713 0.80982 0.96834 0.0
C277 C 0.85591 0.81395 0.94095 0.0
H278 H 0.96082 0.87252 0.00423 0.0
H279 H 0.87639 0.75492 0.97746 0.0
C280 C 0.87103 0.8863 0.92986 0.0
C281 C 0.0116 0.81787 0.32713 0.0
C282 C 0.03401 0.89435 0.31896 0.0
H283 H 0.01193 0.71777 0.31537 0.0
C284 C 0.08054 0.9307 0.29272 0.0
H285 H 0.9757 0.78825 0.34723 0.0
C286 C 0.10311 0.891 0.27477 0.0
C287 C 0.07865 0.81348 0.28237 0.0
H288 H 0.09979 0.99004 0.28604 0.0
H289 H 0.13949 0.92115 0.25483 0.0
C290 C 0.03317 0.77772 0.30896 0.0
C291 C 0.30645 0.15564 0.59614 0.0
C292 C 0.28602 0.13425 0.62646 0.0
H293 H 0.38714 0.17596 0.56015 0.0
C294 C 0.33934 0.12758 0.64478 0.0
H295 H 0.26718 0.16223 0.58153 0.0
C296 C 0.40916 0.13707 0.63259 0.0
C297 C 0.42549 0.15092 0.60179 0.0
H298 H 0.32597 0.11281 0.6684 0.0
H299 H 0.44784 0.12881 0.64692 0.0
C300 C 0.3753 0.16351 0.5839 0.0
C301 C 0.38685 0.25245 0.97728 0.0
C302 C 0.30641 0.21796 0.9705 0.0
H303 H 0.50771 0.34155 0.96536 0.0
C304 C 0.2862 0.2422 0.94429 0.0
H305 H 0.4034 0.23643 -0.00206 0.0
C306 C 0.34619 0.29997 0.92489 0.0
C307 C 0.42679 0.33584 0.93203 0.0
H308 H 0.22421 0.21743 0.93912 0.0
H309 H 0.32975 0.31835 0.90478 0.0
C310 C 0.44639 0.31233 0.95862 0.0
C311 C 0.08866 0.2848 0.28141 0.0
C312 C 0.11164 0.30808 0.31058 0.0
H313 H 0.06959 0.31731 0.23767 0.0
C314 C 0.14337 0.38625 0.31674 0.0
H315 H 0.06324 0.22489 0.27598 0.0
C316 C 0.14623 0.43835 0.29495 0.0
C317 C 0.11832 0.41357 0.2665 0.0
H318 H 0.16158 0.40612 0.33894 0.0
H319 H 0.16686 0.49717 0.30067 0.0
C320 C 0.0915 0.3372 0.25956 0.0
loop_
_geom_bond_atom_site_label_1
_geom_bond_atom_site_label_2
_geom_bond_distance
_geom_bond_site_symmetry_2
_ccdc_geom_bond_type
Mg0 O1 2.028 . S
Mg0 O7 1.986 . S
Mg0 O9 2.114 . S
Mg0 O10 2.251 . S
Mg0 O13 2.010 . S
O1 Mg0 2.028 . S
O1 C4 1.250 1_554 S
O2 Mg3 2.028 . S
O2 C4 1.248 . S
Mg3 O2 2.028 . S
Mg3 O8 2.032 1_556 S
Mg3 O10 2.079 1_556 S
C4 O1 1.250 1_556 S
C4 O2 1.248 . S
C5 O6 1.264 . S
C5 O13 1.249 1_565 S
O6 C5 1.264 . S
O7 Mg0 1.986 . S
O7 C11 1.246 . S
O8 Mg3 2.032 1_554 S
O8 C11 1.259 . S
O9 Mg0 2.114 . S
O9 C12 1.252 1_554 S
O10 Mg0 2.251 . S
O10 Mg3 2.079 1_554 S
O10 C12 1.273 1_554 S
C11 O7 1.246 . S
C11 O8 1.259 . S
C12 O9 1.252 1_556 S
C12 O10 1.273 1_556 S
O13 Mg0 2.010 . S
O13 C5 1.249 1_545 S
Mg14 O15 2.028 1_655 S
Mg14 O21 1.986 1_655 S
Mg14 O23 2.114 . S
Mg14 O24 2.251 . S
Mg14 O27 2.010 1_545 S
O15 Mg14 2.028 1_455 S
O15 C18 1.250 . S
O16 Mg17 2.028 . S
O16 C18 1.248 . S
Mg17 O16 2.028 . S
Mg17 O22 2.032 . S
Mg17 O24 2.079 1_455 S
C18 O15 1.250 . S
C18 O16 1.248 . S
C19 O20 1.264 . S
C19 O27 1.249 . S
O20 C19 1.264 . S
O21 Mg14 1.986 1_455 S
O21 C25 1.246 . S
O22 Mg17 2.032 . S
O22 C25 1.259 . S
O23 Mg14 2.114 . S
O23 C26 1.252 . S
O24 Mg14 2.251 . S
O24 Mg17 2.079 1_655 S
O24 C26 1.273 . S
C25 O21 1.246 . S
C25 O22 1.259 . S
C26 O23 1.252 . S
C26 O24 1.273 . S
O27 Mg14 2.010 1_565 S
O27 C19 1.249 . S
Mg28 O29 2.028 . S
Mg28 O35 1.986 . S
Mg28 O37 2.114 1_545 S
Mg28 O38 2.251 1_445 S
Mg28 O41 2.010 . S
O29 Mg28 2.028 . S
O29 C32 1.250 . S
O30 Mg31 2.028 1_455 S
O30 C32 1.248 . S
Mg31 O30 2.028 1_655 S
Mg31 O36 2.032 . S
Mg31 O38 2.079 1_545 S
C32 O29 1.250 . S
C32 O30 1.248 . S
C33 O34 1.264 . S
C33 O41 1.249 1_565 S
O34 C33 1.264 . S
O35 Mg28 1.986 . S
O35 C39 1.246 1_455 S
O36 Mg31 2.032 . S
O36 C39 1.259 . S
O37 Mg28 2.114 1_565 S
O37 C40 1.252 1_455 S
O38 Mg28 2.251 1_665 S
O38 Mg31 2.079 1_565 S
O38 C40 1.273 . S
C39 O35 1.246 1_655 S
C39 O36 1.259 . S
C40 O37 1.252 1_655 S
C40 O38 1.273 . S
O41 Mg28 2.010 . S
O41 C33 1.249 1_545 S
C42 C43 1.443 . S
C42 N46 1.376 . S
C42 C80 1.389 . S
C43 C42 1.443 . S
C43 C44 1.340 . S
C43 H83 0.951 . S
C44 C43 1.340 . S
C44 C45 1.439 . S
C44 H84 0.950 . S
C45 C44 1.439 . S
C45 N46 1.374 . S
C45 C79 1.395 . S
N46 C42 1.376 . S
N46 C45 1.374 . S
N46 Co47 2.008 . S
Co47 N46 2.008 . S
Co47 N48 1.995 . S
Co47 N53 2.008 1_455 S
Co47 N58 1.995 1_455 S
Co47 N63 2.282 . S
Co47 N69 2.282 . S
N48 Co47 1.995 . S
N48 C49 1.376 . S
N48 C52 1.383 . S
C49 N48 1.376 . S
C49 C50 1.446 . S
C49 C79 1.391 . S
C50 C49 1.446 . S
C50 C51 1.339 . S
C50 H85 0.949 . S
C51 C50 1.339 . S
C51 C52 1.439 . S
C51 H86 0.950 . S
C52 N48 1.383 . S
C52 C51 1.439 . S
C52 C81 1.392 . S
N53 Co47 2.008 1_655 S
N53 C54 1.376 . S
N53 C57 1.374 . S
C54 N53 1.376 . S
C54 C55 1.443 . S
C54 C81 1.389 1_655 S
C55 C54 1.443 . S
C55 C56 1.340 . S
C55 H87 0.951 . S
C56 C55 1.340 . S
C56 C57 1.439 . S
C56 H88 0.950 . S
C57 N53 1.374 . S
C57 C56 1.439 . S
C57 C82 1.395 . S
N58 Co47 1.995 1_655 S
N58 C59 1.376 . S
N58 C62 1.383 . S
C59 N58 1.376 . S
C59 C60 1.446 . S
C59 C82 1.391 . S
C60 C59 1.446 . S
C60 C61 1.339 . S
C60 H89 0.949 . S
C61 C60 1.339 . S
C61 C62 1.439 . S
C61 H90 0.950 . S
C62 N58 1.383 . S
C62 C61 1.439 . S
C62 C80 1.392 1_655 S
N63 Co47 2.282 . S
N63 C66 1.332 . S
N63 C68 1.332 . S
C64 C65 1.386 . S
C64 C67 1.388 . S
C65 C64 1.386 . S
C65 C66 1.382 . S
C65 H91 0.950 1_455 S
C66 N63 1.332 . S
C66 C65 1.382 . S
C66 H77 0.952 1_455 S
C67 C64 1.388 . S
C67 C68 1.382 . S
C67 H92 0.950 . S
C68 N63 1.332 . S
C68 C67 1.382 . S
C68 H78 0.948 . S
N69 Co47 2.282 . S
N69 C73 1.332 . S
N69 C74 1.332 1_455 S
C70 C71 1.388 1_655 S
C70 C74 1.382 . S
C70 H93 0.950 . S
C71 C70 1.388 1_455 S
C71 C72 1.386 . S
C72 C71 1.386 . S
C72 C73 1.382 . S
C72 H94 0.950 . S
C73 N69 1.332 . S
C73 C72 1.382 . S
C73 H75 0.952 . S
C74 N69 1.332 1_655 S
C74 C70 1.382 . S
C74 H76 0.948 . S
H75 C73 0.952 . S
H76 C74 0.948 . S
H77 C66 0.952 1_655 S
H78 C68 0.948 . S
C79 C45 1.395 . S
C79 C49 1.391 . S
C80 C42 1.389 . S
C80 C62 1.392 1_455 S
C81 C52 1.392 . S
C81 C54 1.389 1_455 S
C82 C57 1.395 . S
C82 C59 1.391 . S
H83 C43 0.951 . S
H84 C44 0.950 . S
H85 C50 0.949 . S
H86 C51 0.950 . S
H87 C55 0.951 . S
H88 C56 0.950 . S
H89 C60 0.949 . S
H90 C61 0.950 . S
H91 C65 0.950 1_655 S
H92 C67 0.950 . S
H93 C70 0.950 . S
H94 C72 0.950 . S
C95 C96 1.443 1_545 S
C95 N99 1.376 . S
C95 C133 1.389 . S
C96 C95 1.443 1_565 S
C96 C97 1.340 . S
C96 H136 0.951 . S
C97 C96 1.340 . S
C97 C98 1.439 . S
C97 H137 0.950 . S
C98 C97 1.439 . S
C98 N99 1.374 1_565 S
C98 C132 1.395 . S
N99 C95 1.376 . S
N99 C98 1.374 1_545 S
N99 Co100 2.008 . S
Co100 N99 2.008 . S
Co100 N101 1.995 . S
Co100 N106 2.008 . S
Co100 N111 1.995 . S
Co100 N116 2.282 . S
Co100 N122 2.282 . S
N101 Co100 1.995 . S
N101 C102 1.376 1_545 S
N101 C105 1.383 . S
C102 N101 1.376 1_565 S
C102 C103 1.446 . S
C102 C132 1.391 . S
C103 C102 1.446 . S
C103 C104 1.339 . S
C103 H138 0.949 . S
C104 C103 1.339 . S
C104 C105 1.439 1_565 S
C104 H139 0.950 . S
C105 N101 1.383 . S
C105 C104 1.439 1_545 S
C105 C134 1.392 . S
N106 Co100 2.008 . S
N106 C107 1.376 . S
N106 C110 1.374 . S
C107 N106 1.376 . S
C107 C108 1.443 . S
C107 C134 1.389 . S
C108 C107 1.443 . S
C108 C109 1.340 . S
C108 H140 0.951 . S
C109 C108 1.340 . S
C109 C110 1.439 . S
C109 H141 0.950 . S
C110 N106 1.374 . S
C110 C109 1.439 . S
C110 C135 1.395 . S
N111 Co100 1.995 . S
N111 C112 1.376 . S
N111 C115 1.383 . S
C112 N111 1.376 . S
C112 C113 1.446 . S
C112 C135 1.391 . S
C113 C112 1.446 . S
C113 C114 1.339 . S
C113 H142 0.949 . S
C114 C113 1.339 . S
C114 C115 1.439 . S
C114 H143 0.950 . S
C115 N111 1.383 . S
C115 C114 1.439 . S
C115 C133 1.392 . S
N116 Co100 2.282 . S
N116 C119 1.332 . S
N116 C121 1.332 . S
C117 C118 1.386 . S
C117 C120 1.388 . S
C118 C117 1.386 . S
C118 C119 1.382 . S
C118 H144 0.950 . S
C119 N116 1.332 . S
C119 C118 1.382 . S
C119 H130 0.952 . S
C120 C117 1.388 . S
C120 C121 1.382 . S
C120 H145 0.950 . S
C121 N116 1.332 . S
C121 C120 1.382 . S
C121 H131 0.948 . S
N122 Co100 2.282 . S
N122 C126 1.332 . S
N122 C127 1.332 . S
C123 C124 1.388 . S
C123 C127 1.382 . S
C123 H146 0.950 . S
C124 C123 1.388 . S
C124 C125 1.386 . S
C125 C124 1.386 . S
C125 C126 1.382 . S
C125 H147 0.950 . S
C126 N122 1.332 . S
C126 C125 1.382 . S
C126 H128 0.952 . S
C127 N122 1.332 . S
C127 C123 1.382 . S
C127 H129 0.948 . S
H128 C126 0.952 . S
H129 C127 0.948 . S
H130 C119 0.952 . S
H131 C121 0.948 . S
C132 C98 1.395 . S
C132 C102 1.391 . S
C133 C95 1.389 . S
C133 C115 1.392 . S
C134 C105 1.392 . S
C134 C107 1.389 . S
C135 C110 1.395 . S
C135 C112 1.391 . S
H136 C96 0.951 . S
H137 C97 0.950 . S
H138 C103 0.949 . S
H139 C104 0.950 . S
H140 C108 0.951 . S
H141 C109 0.950 . S
H142 C113 0.949 . S
H143 C114 0.950 . S
H144 C118 0.950 . S
H145 C120 0.950 . S
H146 C123 0.950 . S
H147 C125 0.950 . S
C148 C149 1.443 . S
C148 N152 1.376 . S
C148 C186 1.389 . S
C149 C148 1.443 . S
C149 C150 1.340 . S
C149 H189 0.951 . S
C150 C149 1.340 . S
C150 C151 1.439 . S
C150 H190 0.950 . S
C151 C150 1.439 . S
C151 N152 1.374 . S
C151 C185 1.395 . S
N152 C148 1.376 . S
N152 C151 1.374 . S
N152 Co153 2.008 . S
Co153 N152 2.008 . S
Co153 N154 1.995 . S
Co153 N159 2.008 . S
Co153 N164 1.995 . S
Co153 N169 2.282 . S
Co153 N175 2.282 . S
N154 Co153 1.995 . S
N154 C155 1.376 . S
N154 C158 1.383 . S
C155 N154 1.376 . S
C155 C156 1.446 . S
C155 C185 1.391 . S
C156 C155 1.446 . S
C156 C157 1.339 . S
C156 H191 0.949 . S
C157 C156 1.339 . S
C157 C158 1.439 . S
C157 H192 0.950 . S
C158 N154 1.383 . S
C158 C157 1.439 . S
C158 C187 1.392 . S
N159 Co153 2.008 . S
N159 C160 1.376 . S
N159 C163 1.374 . S
C160 N159 1.376 . S
C160 C161 1.443 . S
C160 C187 1.389 . S
C161 C160 1.443 . S
C161 C162 1.340 . S
C161 H193 0.951 . S
C162 C161 1.340 . S
C162 C163 1.439 . S
C162 H194 0.950 . S
C163 N159 1.374 . S
C163 C162 1.439 . S
C163 C188 1.395 . S
N164 Co153 1.995 . S
N164 C165 1.376 . S
N164 C168 1.383 . S
C165 N164 1.376 . S
C165 C166 1.446 . S
C165 C188 1.391 . S
C166 C165 1.446 . S
C166 C167 1.339 . S
C166 H195 0.949 . S
C167 C166 1.339 . S
C167 C168 1.439 . S
C167 H196 0.950 . S
C168 N164 1.383 . S
C168 C167 1.439 . S
C168 C186 1.392 . S
N169 Co153 2.282 . S
N169 C172 1.332 . S
N169 C174 1.332 . S
C170 C171 1.386 . S
C170 C173 1.388 . S
C171 C170 1.386 . S
C171 C172 1.382 . S
C171 H197 0.950 . S
C172 N169 1.332 . S
C172 C171 1.382 . S
C172 H183 0.952 . S
C173 C170 1.388 . S
C173 C174 1.382 . S
C173 H198 0.950 . S
C174 N169 1.332 . S
C174 C173 1.382 . S
C174 H184 0.948 . S
N175 Co153 2.282 . S
N175 C179 1.332 . S
N175 C180 1.332 . S
C176 C177 1.388 . S
C176 C180 1.382 . S
C176 H199 0.950 . S
C177 C176 1.388 . S
C177 C178 1.386 . S
C178 C177 1.386 . S
C178 C179 1.382 . S
C178 H200 0.950 . S
C179 N175 1.332 . S
C179 C178 1.382 . S
C179 H181 0.952 . S
C180 N175 1.332 . S
C180 C176 1.382 . S
C180 H182 0.948 . S
H181 C179 0.952 . S
H182 C180 0.948 . S
H183 C172 0.952 . S
H184 C174 0.948 . S
C185 C151 1.395 . S
C185 C155 1.391 . S
C186 C148 1.389 . S
C186 C168 1.392 . S
C187 C158 1.392 . S
C187 C160 1.389 . S
C188 C163 1.395 . S
C188 C165 1.391 . S
H189 C149 0.951 . S
H190 C150 0.950 . S
H191 C156 0.949 . S
H192 C157 0.950 . S
H193 C161 0.951 . S
H194 C162 0.950 . S
H195 C166 0.949 . S
H196 C167 0.950 . S
H197 C171 0.950 . S
H198 C173 0.950 . S
H199 C176 0.950 . S
H200 C178 0.950 . S
C201 C202 1.387 . S
C201 H205 0.950 . S
C201 C210 1.390 . S
C202 C201 1.387 . S
C202 C204 1.387 . S
H203 C210 0.950 . S
C204 C202 1.387 . S
C204 C206 1.390 . S
C204 H208 0.950 . S
H205 C201 0.950 . S
C206 C204 1.390 . S
C206 C207 1.387 . S
C206 H209 0.950 . S
C207 C206 1.387 . S
C207 C210 1.387 . S
H208 C204 0.950 . S
H209 C206 0.950 . S
C210 C201 1.390 . S
C210 H203 0.950 . S
C210 C207 1.387 . S
C211 C212 1.387 . S
C211 H215 0.950 . S
C211 C220 1.390 . S
C212 C211 1.387 . S
C212 C214 1.387 . S
H213 C220 0.950 . S
C214 C212 1.387 . S
C214 C216 1.390 . S
C214 H218 0.950 . S
H215 C211 0.950 . S
C216 C214 1.390 . S
C216 C217 1.387 . S
C216 H219 0.950 . S
C217 C216 1.387 . S
C217 C220 1.387 . S
H218 C214 0.950 . S
H219 C216 0.950 . S
C220 C211 1.390 . S
C220 H213 0.950 . S
C220 C217 1.387 . S
C221 C222 1.387 . S
C221 H225 0.950 . S
C221 C230 1.390 . S
C222 C221 1.387 . S
C222 C224 1.387 . S
H223 C230 0.950 . S
C224 C222 1.387 . S
C224 C226 1.390 . S
C224 H228 0.950 . S
H225 C221 0.950 . S
C226 C224 1.390 . S
C226 C227 1.387 . S
C226 H229 0.950 . S
C227 C226 1.387 . S
C227 C230 1.387 . S
H228 C224 0.950 . S
H229 C226 0.950 . S
C230 C221 1.390 . S
C230 H223 0.950 . S
C230 C227 1.387 . S
C231 C232 1.387 . S
C231 H235 0.950 . S
C231 C240 1.390 . S
C232 C231 1.387 . S
C232 C234 1.387 . S
H233 C240 0.950 1_655 S
C234 C232 1.387 . S
C234 C236 1.390 . S
C234 H238 0.950 . S
H235 C231 0.950 . S
C236 C234 1.390 . S
C236 C237 1.387 . S
C236 H239 0.950 . S
C237 C236 1.387 . S
C237 C240 1.387 . S
H238 C234 0.950 . S
H239 C236 0.950 . S
C240 C231 1.390 . S
C240 H233 0.950 1_455 S
C240 C237 1.387 . S
C241 C242 1.387 . S
C241 H245 0.950 . S
C241 C250 1.390 . S
C242 C241 1.387 . S
C242 C244 1.387 . S
H243 C250 0.950 . S
C244 C242 1.387 . S
C244 C246 1.390 . S
C244 H248 0.950 . S
H245 C241 0.950 . S
C246 C244 1.390 . S
C246 C247 1.387 . S
C246 H249 0.950 . S
C247 C246 1.387 . S
C247 C250 1.387 . S
H248 C244 0.950 . S
H249 C246 0.950 . S
C250 C241 1.390 . S
C250 H243 0.950 . S
C250 C247 1.387 . S
C251 C252 1.387 . S
C251 H255 0.950 . S
C251 C260 1.390 . S
C252 C251 1.387 . S
C252 C254 1.387 . S
H253 C260 0.950 . S
C254 C252 1.387 . S
C254 C256 1.390 . S
C254 H258 0.950 . S
H255 C251 0.950 . S
C256 C254 1.390 . S
C256 C257 1.387 . S
C256 H259 0.950 . S
C257 C256 1.387 . S
C257 C260 1.387 . S
H258 C254 0.950 . S
H259 C256 0.950 . S
C260 C251 1.390 . S
C260 H253 0.950 . S
C260 C257 1.387 . S
C261 C262 1.387 . S
C261 H265 0.950 1_545 S
C261 C270 1.390 . S
C262 C261 1.387 . S
C262 C264 1.387 . S
H263 C270 0.950 1_565 S
C264 C262 1.387 . S
C264 C266 1.390 . S
C264 H268 0.950 1_655 S
H265 C261 0.950 1_565 S
C266 C264 1.390 . S
C266 C267 1.387 . S
C266 H269 0.950 . S
C267 C266 1.387 . S
C267 C270 1.387 . S
H268 C264 0.950 1_455 S
H269 C266 0.950 . S
C270 C261 1.390 . S
C270 H263 0.950 1_545 S
C270 C267 1.387 . S
C271 C272 1.387 . S
C271 H275 0.950 1_655 S
C271 C280 1.390 . S
C272 C271 1.387 . S
C272 C274 1.387 . S
H273 C280 0.950 . S
C274 C272 1.387 . S
C274 C276 1.390 . S
C274 H278 0.950 1_556 S
H275 C271 0.950 1_455 S
C276 C274 1.390 . S
C276 C277 1.387 . S
C276 H279 0.950 . S
C277 C276 1.387 . S
C277 C280 1.387 . S
H278 C274 0.950 1_554 S
H279 C276 0.950 . S
C280 C271 1.390 . S
C280 H273 0.950 . S
C280 C277 1.387 . S
C281 C282 1.387 . S
C281 H285 0.950 . S
C281 C290 1.390 . S
C282 C281 1.387 . S
C282 C284 1.395 . S
H283 C290 0.950 . S
C284 C282 1.395 . S
C284 C286 1.390 . S
C284 H288 0.950 1_455 S
H285 C281 0.950 . S
C286 C284 1.390 . S
C286 C287 1.387 . S
C286 H289 0.950 . S
C287 C286 1.387 . S
C287 C290 1.387 . S
H288 C284 0.950 1_655 S
H289 C286 0.950 . S
C290 C281 1.390 . S
C290 H283 0.950 . S
C290 C287 1.387 . S
C291 C292 1.387 1_565 S
C291 H295 0.950 . S
C291 C300 1.390 1_565 S
C292 C291 1.387 1_545 S
C292 C294 1.387 . S
H293 C300 0.950 1_565 S
C294 C292 1.387 . S
C294 C296 1.390 . S
C294 H298 0.950 . S
H295 C291 0.950 . S
C296 C294 1.390 . S
C296 C297 1.387 . S
C296 H299 0.950 . S
C297 C296 1.387 . S
C297 C300 1.387 . S
H298 C294 0.950 . S
H299 C296 0.950 . S
C300 C291 1.390 1_545 S
C300 H293 0.950 1_545 S
C300 C297 1.387 . S
C301 C302 1.387 . S
C301 H305 0.950 . S
C301 C310 1.390 . S
C302 C301 1.387 . S
C302 C304 1.387 . S
H303 C310 0.950 . S
C304 C302 1.387 . S
C304 C306 1.390 . S
C304 H308 0.950 . S
H305 C301 0.950 . S
C306 C304 1.390 . S
C306 C307 1.387 . S
C306 H309 0.950 . S
C307 C306 1.387 . S
C307 C310 1.387 . S
H308 C304 0.950 . S
H309 C306 0.950 . S
C310 C301 1.390 . S
C310 H303 0.950 . S
C310 C307 1.387 . S
C311 C312 1.387 . S
C311 H315 0.950 . S
C311 C320 1.390 . S
C312 C311 1.387 . S
C312 C314 1.387 . S
H313 C320 0.950 . S
C314 C312 1.387 . S
C314 C316 1.390 . S
C314 H318 0.950 . S
H315 C311 0.950 . S
C316 C314 1.390 . S
C316 C317 1.387 . S
C316 H319 0.950 . S
C317 C316 1.387 . S
C317 C320 1.387 . S
H318 C314 0.950 . S
H319 C316 0.950 . S
C320 C311 1.390 . S
C320 H313 0.950 . S
C320 C317 1.387 . S
C207 C64 1.437 . S
C202 C11 1.417 . S
C212 C26 1.583 . S
C217 C134 1.610 . S
C222 C40 1.462 . S
C227 C186 1.477 . S
C232 C5 1.356 . S
C237 C80 1.475 . S
C247 C124 1.555 . S
C242 C18 1.539 . S
C252 C32 1.430 . S
C257 C170 1.447 . S
C267 C117 1.348 . S
C262 C39 1.341 . S
C272 C4 1.440 1_665 S
C277 C177 1.456 . S
C287 C71 1.441 . S
C282 C19 1.262 1_455 S
C297 C133 1.417 . S
C292 C33 1.304 1_545 S
C307 C187 1.501 . S
C302 C12 1.476 . S
C312 C25 1.446 . S
C317 C81 1.473 . S
