# Generated by pormake.
# Topology ocu, (6,8)-cn, num edge types: 1
# Building blocks:
#     Node 0, Type 0, BuildingBlock: NUHQIS_clean_sbu_0, # of connection points: 6
#     Node 1, Type 0, BuildingBlock: NUHQIS_clean_sbu_0, # of connection points: 6
#     Node 2, Type 0, BuildingBlock: NUHQIS_clean_sbu_0, # of connection points: 6
#     Node 3, Type 0, BuildingBlock: NUHQIS_clean_sbu_0, # of connection points: 6
#     Node 4, Type 0, BuildingBlock: NUHQIS_clean_sbu_0, # of connection points: 6
#     Node 5, Type 0, BuildingBlock: NUHQIS_clean_sbu_0, # of connection points: 6
#     Node 6, Type 0, BuildingBlock: NUHQIS_clean_sbu_0, # of connection points: 6
#     Node 7, Type 0, BuildingBlock: NUHQIS_clean_sbu_0, # of connection points: 6
#     Node 8, Type 1, BuildingBlock: GIZVER_clean_sbu_0, # of connection points: 8
#     Node 9, Type 1, BuildingBlock: GIZVER_clean_sbu_0, # of connection points: 8
#     Node 10, Type 1, BuildingBlock: GIZVER_clean_sbu_0, # of connection points: 8
#     Node 11, Type 1, BuildingBlock: GIZVER_clean_sbu_0, # of connection points: 8
#     Node 12, Type 1, BuildingBlock: GIZVER_clean_sbu_0, # of connection points: 8
#     Node 13, Type 1, BuildingBlock: GIZVER_clean_sbu_0, # of connection points: 8
#     Edge 14, Type (0, 1), BuildingBlock: KIFKEQ_clean_linker_1, # of connection points: 2
#     Edge 15, Type (0, 1), BuildingBlock: KIFKEQ_clean_linker_1, # of connection points: 2
#     Edge 16, Type (0, 1), BuildingBlock: KIFKEQ_clean_linker_1, # of connection points: 2
#     Edge 17, Type (0, 1), BuildingBlock: KIFKEQ_clean_linker_1, # of connection points: 2
#     Edge 18, Type (0, 1), BuildingBlock: KIFKEQ_clean_linker_1, # of connection points: 2
#     Edge 19, Type (0, 1), BuildingBlock: KIFKEQ_clean_linker_1, # of connection points: 2
#     Edge 20, Type (0, 1), BuildingBlock: KIFKEQ_clean_linker_1, # of connection points: 2
#     Edge 21, Type (0, 1), BuildingBlock: KIFKEQ_clean_linker_1, # of connection points: 2
#     Edge 22, Type (0, 1), BuildingBlock: KIFKEQ_clean_linker_1, # of connection points: 2
#     Edge 23, Type (0, 1), BuildingBlock: KIFKEQ_clean_linker_1, # of connection points: 2
#     Edge 24, Type (0, 1), BuildingBlock: KIFKEQ_clean_linker_1, # of connection points: 2
#     Edge 25, Type (0, 1), BuildingBlock: KIFKEQ_clean_linker_1, # of connection points: 2
#     Edge 26, Type (0, 1), BuildingBlock: KIFKEQ_clean_linker_1, # of connection points: 2
#     Edge 27, Type (0, 1), BuildingBlock: KIFKEQ_clean_linker_1, # of connection points: 2
#     Edge 28, Type (0, 1), BuildingBlock: KIFKEQ_clean_linker_1, # of connection points: 2
#     Edge 29, Type (0, 1), BuildingBlock: KIFKEQ_clean_linker_1, # of connection points: 2
#     Edge 30, Type (0, 1), BuildingBlock: KIFKEQ_clean_linker_1, # of connection points: 2
#     Edge 31, Type (0, 1), BuildingBlock: KIFKEQ_clean_linker_1, # of connection points: 2
#     Edge 32, Type (0, 1), BuildingBlock: KIFKEQ_clean_linker_1, # of connection points: 2
#     Edge 33, Type (0, 1), BuildingBlock: KIFKEQ_clean_linker_1, # of connection points: 2
#     Edge 34, Type (0, 1), BuildingBlock: KIFKEQ_clean_linker_1, # of connection points: 2
#     Edge 35, Type (0, 1), BuildingBlock: KIFKEQ_clean_linker_1, # of connection points: 2
#     Edge 36, Type (0, 1), BuildingBlock: KIFKEQ_clean_linker_1, # of connection points: 2
#     Edge 37, Type (0, 1), BuildingBlock: KIFKEQ_clean_linker_1, # of connection points: 2
#     Edge 38, Type (0, 1), BuildingBlock: KIFKEQ_clean_linker_1, # of connection points: 2
#     Edge 39, Type (0, 1), BuildingBlock: KIFKEQ_clean_linker_1, # of connection points: 2
#     Edge 40, Type (0, 1), BuildingBlock: KIFKEQ_clean_linker_1, # of connection points: 2
#     Edge 41, Type (0, 1), BuildingBlock: KIFKEQ_clean_linker_1, # of connection points: 2
#     Edge 42, Type (0, 1), BuildingBlock: KIFKEQ_clean_linker_1, # of connection points: 2
#     Edge 43, Type (0, 1), BuildingBlock: KIFKEQ_clean_linker_1, # of connection points: 2
#     Edge 44, Type (0, 1), BuildingBlock: KIFKEQ_clean_linker_1, # of connection points: 2
#     Edge 45, Type (0, 1), BuildingBlock: KIFKEQ_clean_linker_1, # of connection points: 2
#     Edge 46, Type (0, 1), BuildingBlock: KIFKEQ_clean_linker_1, # of connection points: 2
#     Edge 47, Type (0, 1), BuildingBlock: KIFKEQ_clean_linker_1, # of connection points: 2
#     Edge 48, Type (0, 1), BuildingBlock: KIFKEQ_clean_linker_1, # of connection points: 2
#     Edge 49, Type (0, 1), BuildingBlock: KIFKEQ_clean_linker_1, # of connection points: 2
#     Edge 50, Type (0, 1), BuildingBlock: KIFKEQ_clean_linker_1, # of connection points: 2
#     Edge 51, Type (0, 1), BuildingBlock: KIFKEQ_clean_linker_1, # of connection points: 2
#     Edge 52, Type (0, 1), BuildingBlock: KIFKEQ_clean_linker_1, # of connection points: 2
#     Edge 53, Type (0, 1), BuildingBlock: KIFKEQ_clean_linker_1, # of connection points: 2
#     Edge 54, Type (0, 1), BuildingBlock: KIFKEQ_clean_linker_1, # of connection points: 2
#     Edge 55, Type (0, 1), BuildingBlock: KIFKEQ_clean_linker_1, # of connection points: 2
#     Edge 56, Type (0, 1), BuildingBlock: KIFKEQ_clean_linker_1, # of connection points: 2
#     Edge 57, Type (0, 1), BuildingBlock: KIFKEQ_clean_linker_1, # of connection points: 2
#     Edge 58, Type (0, 1), BuildingBlock: KIFKEQ_clean_linker_1, # of connection points: 2
#     Edge 59, Type (0, 1), BuildingBlock: KIFKEQ_clean_linker_1, # of connection points: 2
#     Edge 60, Type (0, 1), BuildingBlock: KIFKEQ_clean_linker_1, # of connection points: 2
#     Edge 61, Type (0, 1), BuildingBlock: KIFKEQ_clean_linker_1, # of connection points: 2
# Relax obj value: 0.231
# Max RMSD: 0.287
# Mean RMSD: 0.186
data_MOF--net-ocu--node1-NUHQIS_clean_sbu_0--node2-GIZVER_clean_sbu_0--edge1-KIFKEQ_clean_linker_1
_symmetry_space_group_name_H-M    P1
_symmetry_Int_Tables_number       1
_symmetry_cell_setting            triclinic
loop_
_symmetry_equiv_pos_as_xyz
'x, y, z'
_cell_length_a     43.491561
_cell_length_b     46.960667
_cell_length_c     34.55475
_cell_angle_alpha  96.061553
_cell_angle_beta   85.787588
_cell_angle_gamma 111.79679
loop_
_atom_site_label
_atom_site_type_symbol
_atom_site_fract_x
_atom_site_fract_y
_atom_site_fract_z
_atom_type_partial_charge
Tb0 Tb 0.2826 0.27784 0.25678 0.0
Eu1 Eu 0.32882 0.30329 0.32607 0.0
C2 C 0.34528 0.25076 0.26162 0.0
C3 C 0.26789 0.23792 0.33013 0.0
C4 C 0.24572 0.27629 0.16502 0.0
C5 C 0.24018 0.28183 0.09709 0.0
C6 C 0.24093 0.26362 0.12631 0.0
C7 C 0.24974 0.30715 0.17437 0.0
C8 C 0.24902 0.32523 0.14544 0.0
C9 C 0.24465 0.31295 0.1064 0.0
C10 C 0.25122 0.25901 0.19478 0.0
O11 O 0.25718 0.31016 0.28798 0.0
O12 O 0.29226 0.33096 0.33766 0.0
O13 O 0.35886 0.32641 0.27505 0.0
O14 O 0.31536 0.32371 0.24115 0.0
C15 C 0.26544 0.32997 0.32011 0.0
O16 O 0.33731 0.30908 0.38818 0.0
O17 O 0.37358 0.33876 0.34944 0.0
O18 O 0.35357 0.26872 0.29504 0.0
O19 O 0.31888 0.25159 0.24417 0.0
O20 O 0.25741 0.24341 0.29801 0.0
O21 O 0.29593 0.25664 0.34492 0.0
C22 C 0.34708 0.33597 0.24761 0.0
O23 O 0.28219 0.26294 0.1975 0.0
O24 O 0.23705 0.26128 0.22896 0.0
C25 C 0.3924 0.32665 0.40531 0.0
C26 C 0.42915 0.30328 0.44664 0.0
C27 C 0.41032 0.31912 0.46676 0.0
C28 C 0.39196 0.33078 0.44606 0.0
C29 C 0.41414 0.31401 0.3852 0.0
C30 C 0.43274 0.30267 0.40585 0.0
C31 C 0.3664 0.33074 0.3849 0.0
H32 H 0.23655 0.27176 0.06731 0.0
H33 H 0.23847 0.23992 0.11864 0.0
H34 H 0.25402 0.31746 0.20401 0.0
H35 H 0.2515 0.34884 0.15387 0.0
H36 H 0.4071 0.31972 0.49819 0.0
H37 H 0.37528 0.34062 0.46186 0.0
H38 H 0.41482 0.31069 0.35368 0.0
H39 H 0.44746 0.29079 0.38987 0.0
Tb40 Tb 0.83471 0.28278 0.29642 0.0
Eu41 Eu 0.78827 0.32397 0.29498 0.0
C42 C 0.78195 0.2677 0.23354 0.0
C43 C 0.86117 0.34448 0.25279 0.0
C44 C 0.88419 0.23875 0.32521 0.0
C45 C 0.88713 0.1927 0.34769 0.0
C46 C 0.87333 0.2066 0.32387 0.0
C47 C 0.90823 0.25682 0.35191 0.0
C48 C 0.9222 0.2429 0.37554 0.0
C49 C 0.91229 0.21076 0.37297 0.0
C50 C 0.8724 0.25308 0.29656 0.0
O51 O 0.83597 0.30447 0.35512 0.0
O52 O 0.82642 0.34658 0.33941 0.0
O53 O 0.75832 0.28611 0.33359 0.0
O54 O 0.78935 0.25511 0.32762 0.0
C55 C 0.83592 0.33225 0.36378 0.0
O56 O 0.76592 0.34847 0.26342 0.0
O57 O 0.76018 0.34971 0.32656 0.0
O58 O 0.76536 0.28135 0.25637 0.0
O59 O 0.8128 0.272 0.23963 0.0
O60 O 0.86767 0.32632 0.2747 0.0
O61 O 0.83087 0.34408 0.25145 0.0
C62 C 0.76282 0.26094 0.34088 0.0
O63 O 0.84126 0.24033 0.28792 0.0
O64 O 0.88246 0.28299 0.30022 0.0
C65 C 0.71623 0.35131 0.29195 0.0
C66 C 0.65167 0.34651 0.27753 0.0
C67 C 0.67256 0.37184 0.3007 0.0
C68 C 0.70456 0.37419 0.30776 0.0
C69 C 0.69478 0.32481 0.27139 0.0
C70 C 0.66267 0.32244 0.26416 0.0
C71 C 0.75141 0.35671 0.29465 0.0
H72 H 0.8794 0.16785 0.3447 0.0
H73 H 0.85503 0.1922 0.30337 0.0
H74 H 0.91713 0.28172 0.35371 0.0
H75 H 0.94147 0.25725 0.39495 0.0
H76 H 0.66522 0.39107 0.31095 0.0
H77 H 0.7208 0.3947 0.32385 0.0
H78 H 0.70335 0.30667 0.2594 0.0
H79 H 0.64709 0.30259 0.24648 0.0
Tb80 Tb 0.78391 0.78587 0.31558 0.0
Eu81 Eu 0.8306 0.79159 0.24147 0.0
C82 C 0.76281 0.73773 0.24384 0.0
C83 C 0.84125 0.75243 0.31133 0.0
C84 C 0.72295 0.78989 0.39594 0.0
C85 C 0.67235 0.79998 0.39426 0.0
C86 C 0.69292 0.78458 0.37857 0.0
C87 C 0.73086 0.80898 0.43068 0.0
C88 C 0.71057 0.82471 0.44603 0.0
C89 C 0.68172 0.82125 0.42714 0.0
C90 C 0.74756 0.77785 0.37714 0.0
O91 O 0.8226 0.83095 0.32699 0.0
O92 O 0.86322 0.82335 0.28706 0.0
O93 O 0.79643 0.81827 0.2283 0.0
O94 O 0.76439 0.81593 0.28419 0.0
C95 C 0.85403 0.8376 0.31745 0.0
O96 O 0.87593 0.81474 0.20764 0.0
O97 O 0.83429 0.77931 0.17942 0.0
O98 O 0.79423 0.74301 0.23702 0.0
O99 O 0.75383 0.75642 0.26871 0.0
O100 O 0.81451 0.75722 0.32805 0.0
O101 O 0.85237 0.76376 0.27698 0.0
C102 C 0.77218 0.82509 0.24805 0.0
O103 O 0.73977 0.76008 0.34498 0.0
O104 O 0.77757 0.798 0.3748 0.0
C105 C 0.88643 0.78052 0.15796 0.0
C106 C 0.91083 0.73429 0.13206 0.0
C107 C 0.92148 0.75233 0.1671 0.0
C108 C 0.90915 0.77516 0.18016 0.0
C109 C 0.87873 0.76492 0.12094 0.0
C110 C 0.89081 0.74179 0.10803 0.0
C111 C 0.86547 0.79674 0.1761 0.0
H112 H 0.64983 0.79627 0.37962 0.0
H113 H 0.68593 0.76957 0.35208 0.0
H114 H 0.75373 0.81306 0.44482 0.0
H115 H 0.71868 0.84102 0.47122 0.0
H116 H 0.9377 0.74748 0.18559 0.0
H117 H 0.91552 0.7869 0.20883 0.0
H118 H 0.86114 0.76879 0.10351 0.0
H119 H 0.88244 0.72829 0.08079 0.0
Tb120 Tb 0.31968 0.78871 0.30429 0.0
Eu121 Eu 0.27094 0.82364 0.28371 0.0
C122 C 0.32623 0.85293 0.35127 0.0
C123 C 0.2518 0.77408 0.34691 0.0
C124 C 0.36449 0.73828 0.28047 0.0
C125 C 0.39329 0.70399 0.25784 0.0
C126 C 0.3848 0.72248 0.28786 0.0
C127 C 0.35226 0.73509 0.24316 0.0
C128 C 0.36063 0.71667 0.2133 0.0
C129 C 0.38153 0.7012 0.22016 0.0
C130 C 0.35582 0.75842 0.31089 0.0
O131 O 0.28096 0.75513 0.26873 0.0
O132 O 0.27004 0.78824 0.23342 0.0
O133 O 0.32071 0.85175 0.26078 0.0
O134 O 0.33931 0.8119 0.25118 0.0
C135 C 0.26843 0.76035 0.23813 0.0
O136 O 0.23787 0.82855 0.24223 0.0
O137 O 0.24445 0.85478 0.29827 0.0
O138 O 0.29915 0.8527 0.33599 0.0
O139 O 0.3387 0.83146 0.34127 0.0
O140 O 0.28357 0.78244 0.35248 0.0
O141 O 0.24142 0.78381 0.31815 0.0
C142 C 0.34262 0.8403 0.24617 0.0
O143 O 0.36743 0.78745 0.30451 0.0
O144 O 0.32452 0.74904 0.3214 0.0
C145 C 0.19076 0.83197 0.27764 0.0
C146 C 0.14005 0.81432 0.33449 0.0
C147 C 0.1493 0.84331 0.3199 0.0
C148 C 0.17487 0.85221 0.29164 0.0
C149 C 0.17676 0.80105 0.28636 0.0
C150 C 0.15135 0.79224 0.3148 0.0
C151 C 0.2263 0.8449 0.26774 0.0
H152 H 0.40974 0.69256 0.26382 0.0
H153 H 0.39439 0.72474 0.31656 0.0
H154 H 0.33647 0.74714 0.23701 0.0
H155 H 0.35085 0.71466 0.18477 0.0
H156 H 0.14072 0.8607 0.33457 0.0
H157 H 0.18527 0.87611 0.28518 0.0
H158 H 0.18849 0.7849 0.27555 0.0
H159 H 0.14386 0.76958 0.32514 0.0
Tb160 Tb 0.34884 0.76526 0.76091 0.0
Eu161 Eu 0.29554 0.79382 0.79769 0.0
C162 C 0.27886 0.7432 0.72164 0.0
C163 C 0.34629 0.82524 0.72928 0.0
C164 C 0.40701 0.72449 0.7497 0.0
C165 C 0.40233 0.67918 0.78087 0.0
C166 C 0.38804 0.69485 0.76063 0.0
C167 C 0.44082 0.73757 0.75772 0.0
C168 C 0.45504 0.72197 0.77835 0.0
C169 C 0.43568 0.69293 0.79063 0.0
C170 C 0.39127 0.74305 0.73347 0.0
O171 O 0.36933 0.7881 0.81827 0.0
O172 O 0.34388 0.82314 0.82751 0.0
O173 O 0.29671 0.76048 0.83948 0.0
O174 O 0.31419 0.72964 0.79527 0.0
C175 C 0.3681 0.81434 0.83533 0.0
O176 O 0.27995 0.83222 0.81722 0.0
O177 O 0.24612 0.78559 0.82388 0.0
O178 O 0.26722 0.75481 0.75315 0.0
O179 O 0.31113 0.75047 0.71595 0.0
O180 O 0.36395 0.80945 0.73719 0.0
O181 O 0.31602 0.81922 0.7439 0.0
C182 C 0.29853 0.73361 0.8281 0.0
O183 O 0.35969 0.72995 0.72769 0.0
O184 O 0.39876 0.77092 0.74977 0.0
C185 C 0.22379 0.8205 0.80651 0.0
C186 C 0.17629 0.83507 0.77021 0.0
C187 C 0.17395 0.83244 0.81066 0.0
C188 C 0.19763 0.8253 0.82868 0.0
C189 C 0.22536 0.82159 0.76601 0.0
C190 C 0.20193 0.82894 0.74803 0.0
C191 C 0.24954 0.81443 0.82538 0.0
H192 H 0.38692 0.65685 0.79036 0.0
H193 H 0.36188 0.68415 0.7549 0.0
H194 H 0.45589 0.76035 0.74935 0.0
H195 H 0.48094 0.73277 0.78534 0.0
H196 H 0.15425 0.83656 0.82852 0.0
H197 H 0.19585 0.82406 0.85994 0.0
H198 H 0.24527 0.81756 0.74842 0.0
H199 H 0.20487 0.83118 0.71697 0.0
Tb200 Tb 0.31 0.30016 0.75613 0.0
Eu201 Eu 0.30018 0.25678 0.83004 0.0
C202 C 0.35895 0.32261 0.82439 0.0
C203 C 0.34722 0.25299 0.7556 0.0
C204 C 0.28584 0.34346 0.68596 0.0
C205 C 0.26686 0.38601 0.6825 0.0
C206 C 0.2887 0.37408 0.69649 0.0
C207 C 0.26064 0.32519 0.66063 0.0
C208 C 0.23883 0.33717 0.64651 0.0
C209 C 0.24155 0.36777 0.65729 0.0
C210 C 0.30973 0.33119 0.70038 0.0
O211 O 0.25935 0.26709 0.75742 0.0
O212 O 0.26829 0.22774 0.78166 0.0
O213 O 0.26214 0.27927 0.84194 0.0
O214 O 0.28833 0.32041 0.80525 0.0
C215 C 0.25181 0.23756 0.75951 0.0
O216 O 0.28827 0.21191 0.85234 0.0
O217 O 0.30406 0.25294 0.89198 0.0
O218 O 0.33586 0.30408 0.84622 0.0
O219 O 0.35699 0.32045 0.7862 0.0
O220 O 0.3317 0.26544 0.73516 0.0
O221 O 0.34454 0.25461 0.79384 0.0
C222 C 0.26697 0.30731 0.8331 0.0
O223 O 0.32297 0.34334 0.73376 0.0
O224 O 0.30179 0.30141 0.6971 0.0
C225 C 0.32215 0.21295 0.90429 0.0
C226 C 0.3686 0.19393 0.93735 0.0
C227 C 0.35896 0.18411 0.89863 0.0
C228 C 0.33618 0.19357 0.88229 0.0
C229 C 0.33139 0.22252 0.94307 0.0
C230 C 0.35437 0.2132 0.9594 0.0
C231 C 0.29824 0.22353 0.88724 0.0
H232 H 0.27027 0.40982 0.69095 0.0
H233 H 0.30803 0.389 0.71544 0.0
H234 H 0.25774 0.30157 0.65158 0.0
H235 H 0.21958 0.3223 0.62744 0.0
H236 H 0.36875 0.16878 0.88088 0.0
H237 H 0.32963 0.18565 0.85235 0.0
H238 H 0.32099 0.23746 0.96073 0.0
H239 H 0.36135 0.22151 0.98912 0.0
Tb240 Tb 0.83249 0.27377 0.76849 0.0
Eu241 Eu 0.79005 0.31335 0.80528 0.0
C242 C 0.85803 0.319 0.84245 0.0
C243 C 0.77748 0.24747 0.8376 0.0
C244 C 0.86694 0.23355 0.6915 0.0
C245 C 0.9046 0.23322 0.6364 0.0
C246 C 0.89923 0.24199 0.67533 0.0
C247 C 0.83994 0.21772 0.66748 0.0
C248 C 0.84533 0.20869 0.62861 0.0
C249 C 0.87774 0.21558 0.61307 0.0
C250 C 0.8618 0.24105 0.73333 0.0
O251 O 0.7991 0.27189 0.72378 0.0
O252 O 0.75751 0.27568 0.76461 0.0
O253 O 0.8178 0.33993 0.75326 0.0
O254 O 0.85788 0.31883 0.74323 0.0
C255 C 0.76755 0.26595 0.73112 0.0
O256 O 0.74163 0.31647 0.81959 0.0
O257 O 0.78616 0.3553 0.83483 0.0
O258 O 0.83779 0.33258 0.83591 0.0
O259 O 0.85627 0.29269 0.82364 0.0
O260 O 0.79286 0.24147 0.80503 0.0
O261 O 0.77931 0.27596 0.84738 0.0
C262 C 0.84654 0.34049 0.737 0.0
O263 O 0.87719 0.26952 0.74663 0.0
O264 O 0.83139 0.23008 0.74711 0.0
C265 C 0.74298 0.34085 0.88204 0.0
C266 C 0.71916 0.33369 0.95954 0.0
C267 C 0.70058 0.33954 0.93171 0.0
C268 C 0.71241 0.34306 0.89325 0.0
C269 C 0.7614 0.33448 0.9095 0.0
C270 C 0.74971 0.33121 0.94811 0.0
C271 C 0.75429 0.34221 0.84111 0.0
H272 H 0.9299 0.23836 0.62542 0.0
H273 H 0.92036 0.25441 0.69318 0.0
H274 H 0.81465 0.21132 0.67896 0.0
H275 H 0.82427 0.19501 0.61125 0.0
H276 H 0.67726 0.34231 0.93993 0.0
H277 H 0.6977 0.34747 0.8723 0.0
H278 H 0.78483 0.33197 0.90108 0.0
H279 H 0.76452 0.32688 0.969 0.0
Tb280 Tb 0.78285 0.7764 0.75185 0.0
Eu281 Eu 0.83717 0.78631 0.81837 0.0
C282 C 0.83834 0.74403 0.73481 0.0
C283 C 0.77062 0.72691 0.81452 0.0
C284 C 0.72532 0.79222 0.68867 0.0
C285 C 0.68387 0.79958 0.65114 0.0
C286 C 0.6979 0.78017 0.66475 0.0
C287 C 0.73857 0.82408 0.69875 0.0
C288 C 0.7246 0.84354 0.68508 0.0
C289 C 0.69698 0.83158 0.66109 0.0
C290 C 0.73924 0.77123 0.70352 0.0
O291 O 0.77767 0.8146 0.79302 0.0
O292 O 0.79948 0.80692 0.84755 0.0
O293 O 0.85782 0.83003 0.7876 0.0
O294 O 0.82579 0.81527 0.73353 0.0
C295 C 0.78134 0.81933 0.83122 0.0
O296 O 0.84697 0.78425 0.87889 0.0
O297 O 0.8879 0.79867 0.8369 0.0
O298 O 0.85367 0.75976 0.76645 0.0
O299 O 0.80927 0.74503 0.72648 0.0
O300 O 0.758 0.74092 0.79267 0.0
O301 O 0.80231 0.73748 0.82088 0.0
C302 C 0.85142 0.83455 0.75262 0.0
O303 O 0.77007 0.77564 0.69394 0.0
O304 O 0.73289 0.76634 0.74011 0.0
C305 C 0.89239 0.76963 0.88665 0.0
C306 C 0.91863 0.72924 0.91509 0.0
C307 C 0.92972 0.7606 0.92882 0.0
C308 C 0.91669 0.78056 0.91476 0.0
C309 C 0.88122 0.73842 0.8728 0.0
C310 C 0.89416 0.71844 0.88689 0.0
C311 C 0.87865 0.79077 0.87221 0.0
H312 H 0.66294 0.78951 0.63243 0.0
H313 H 0.68725 0.75565 0.65663 0.0
H314 H 0.75958 0.83389 0.7174 0.0
H315 H 0.73515 0.86794 0.69389 0.0
H316 H 0.94823 0.76969 0.95079 0.0
H317 H 0.92555 0.80454 0.92592 0.0
H318 H 0.86251 0.72954 0.85101 0.0
H319 H 0.88536 0.69459 0.87518 0.0
Co320 Co 0.08575 0.95972 0.54148 0.0
Co321 Co 0.09033 1.00114 0.60048 0.0
Co322 Co 0.06789 0.02293 0.5329 0.0
O323 O 0.09902 1.0044 0.5473 0.0
H324 H 0.12207 1.01598 0.54077 0.0
O325 O 1.03551 0.03899 0.5176 0.0
Co326 Co 0.03923 0.08031 0.52728 0.0
Co327 Co 0.04409 0.04437 0.46448 0.0
H328 H 1.0131 0.02484 0.52161 0.0
O329 O 0.11966 0.99576 0.63059 0.0
O330 O 0.07723 0.95868 0.59911 0.0
O331 O 0.05426 1.01134 0.62611 0.0
O332 O 1.03058 0.99766 0.56952 0.0
O333 O 0.08364 0.05643 0.57499 0.0
O334 O 1.03773 0.11766 0.53531 0.0
O335 O 0.99663 0.07248 0.51929 0.0
O336 O 0.08502 0.09376 0.53972 0.0
O337 O 0.10543 0.04993 0.49767 0.0
O338 O 0.08371 0.04078 0.43983 0.0
O339 O 0.05032 0.08573 0.47071 0.0
O340 O 1.0136 0.04803 0.43325 0.0
C341 C 0.10878 0.92916 0.54099 0.0
C342 C 1.03485 0.96281 0.49952 0.0
C343 C 1.02831 0.99897 0.6068 0.0
C344 C 0.10078 0.96697 0.62416 0.0
C345 C 1.00682 0.10217 0.52741 0.0
C346 C 0.09387 0.08488 0.56927 0.0
C347 C 0.10869 0.05255 0.46082 0.0
C348 C 1.02766 0.07702 0.44468 0.0
O349 O 0.07713 0.92034 0.53705 0.0
O350 O 0.1267 0.95852 0.54676 0.0
O351 O 0.05192 0.9899 0.49069 0.0
O352 O 0.04083 0.95321 0.53033 0.0
Co353 Co 0.6206 0.96441 0.03245 0.0
Co354 Co 0.62153 0.9826 0.10353 0.0
Co355 Co 0.58187 0.02624 0.06363 0.0
O356 O 0.62063 1.00635 0.06079 0.0
H357 H 0.64216 0.0223 0.05736 0.0
O358 O 0.54154 0.04513 0.07037 0.0
Co359 Co 0.53007 0.08252 0.1081 0.0
Co360 Co 0.55454 0.07852 0.04022 0.0
H361 H 0.52119 0.02964 0.0609 0.0
O362 O 0.65871 0.98091 0.12841 0.0
O363 O 0.62843 0.94495 0.08411 0.0
O364 O 0.58069 0.97327 0.13332 0.0
O365 O 0.55604 1.00092 0.10723 0.0
O366 O 0.6072 0.06193 0.10091 0.0
O367 O 0.52154 0.11699 0.14238 0.0
O368 O 0.48159 0.08263 0.11147 0.0
O369 O 0.57685 0.09289 0.11558 0.0
O370 O 0.61004 0.05314 0.01784 0.0
O371 O 0.59971 0.09659 0.02346 0.0
O372 O 0.53815 0.10733 0.0632 0.0
O373 O 0.52423 0.07732 1.00658 0.0
C374 C 0.6548 0.94409 1.00055 0.0
C375 C 0.55191 0.96057 0.02109 0.0
C376 C 0.55639 0.98182 0.13101 0.0
C377 C 0.65116 0.95315 0.11174 0.0
C378 C 0.49041 0.10819 0.135 0.0
C379 C 0.6038 0.08732 0.11492 0.0
C380 C 0.61798 0.08189 1.01068 0.0
C381 C 0.52131 0.09921 0.03118 0.0
O382 O 0.62298 0.92932 1.00413 0.0
O383 O 0.66627 0.97232 0.01758 0.0
O384 O 0.55565 0.98962 0.02546 0.0
O385 O 0.57131 0.94995 0.03689 0.0
Co386 Co 0.11835 0.46206 1.00224 0.0
Co387 Co 0.12653 0.48946 0.07402 0.0
Co388 Co 0.08996 0.52027 0.02429 0.0
O389 O 0.12575 0.50354 0.02566 0.0
H390 H 0.14731 0.51815 0.0186 0.0
O391 O 0.05322 0.53499 0.02048 0.0
Co392 Co 0.05235 0.57099 0.04803 0.0
Co393 Co 0.05307 0.55277 0.97546 0.0
H394 H 1.03216 0.51824 0.02312 0.0
O395 O 0.16492 0.48443 0.08795 0.0
O396 O 0.12277 0.45045 0.05375 0.0
O397 O 0.08846 0.48416 0.10896 0.0
O398 O 0.05867 0.49281 0.0649 0.0
O399 O 0.11235 0.55348 0.06669 0.0
O400 O 0.04738 0.60273 0.07552 0.0
O401 O 1.00834 0.55732 0.05484 0.0
O402 O 0.09879 0.5894 0.04428 0.0
O403 O 0.12097 0.54838 0.98488 0.0
O404 O 0.09319 0.56324 0.94422 0.0
O405 O 0.04946 0.5889 0.9989 0.0
O406 O 1.01452 0.55407 0.95699 0.0
C407 C 0.14728 0.4385 0.9758 0.0
C408 C 0.05723 0.45961 0.9884 0.0
C409 C 0.06079 0.4827 0.09747 0.0
C410 C 0.15123 0.45765 0.06923 0.0
C411 C 1.01645 0.58453 0.07335 0.0
C412 C 0.11688 0.58193 0.06526 0.0
C413 C 0.11999 0.56231 0.95517 0.0
C414 C 1.02379 0.58062 0.97714 0.0
O415 O 0.11536 0.42519 0.98048 0.0
O416 O 0.16151 0.4675 0.98847 0.0
O417 O 0.06792 0.48798 0.98232 0.0
O418 O 0.07224 0.45024 1.01132 0.0
Co419 Co 0.59035 0.46425 0.05036 0.0
Co420 Co 0.58582 0.50676 0.10445 0.0
Co421 Co 0.56736 0.52317 0.03202 0.0
O422 O 0.5994 0.50763 0.05025 0.0
H423 H 0.62229 0.52071 0.04595 0.0
O424 O 0.53335 0.53722 0.01712 0.0
Co425 Co 0.53535 0.57793 0.03036 0.0
Co426 Co 0.5397 0.5448 0.9665 0.0
H427 H 0.51128 0.52223 0.02088 0.0
O428 O 0.60701 0.49783 0.14329 0.0
O429 O 0.56904 0.46415 0.10336 0.0
O430 O 0.54754 0.51715 0.12346 0.0
O431 O 0.5301 0.4956 0.06609 0.0
O432 O 0.58119 0.55701 0.07402 0.0
O433 O 0.53236 0.6143 0.04258 0.0
O434 O 0.4915 0.56846 0.0286 0.0
O435 O 0.58211 0.59327 0.03762 0.0
O436 O 0.6044 0.55083 0.99632 0.0
O437 O 0.57949 0.54381 0.94032 0.0
O438 O 0.54159 0.5849 0.97416 0.0
O439 O 0.50547 0.5442 0.93911 0.0
C440 C 0.61582 0.43949 0.06772 0.0
C441 C 0.54268 0.46195 0.99438 0.0
C442 C 0.52396 0.50023 0.1024 0.0
C443 C 0.5853 0.47041 0.13525 0.0
C444 C 0.50095 0.59764 0.04032 0.0
C445 C 0.5927 0.58502 0.06635 0.0
C446 C 0.60567 0.55388 0.9595 0.0
C447 C 0.51743 0.57347 0.95006 0.0
O448 O 0.58674 0.42566 0.05306 0.0
O449 O 0.62897 0.46948 0.07117 0.0
O450 O 0.55486 0.49036 0.98907 0.0
O451 O 0.5484 0.45214 0.02517 0.0
Co452 Co 0.10207 0.51295 0.51826 0.0
Co453 Co 0.09133 0.50948 0.44898 0.0
Co454 Co 0.04196 0.54985 0.50322 0.0
O455 O 0.06119 0.51267 0.4931 0.0
H456 H 0.04338 0.49301 0.49521 0.0
O457 O 1.02263 0.58764 0.50869 0.0
Co458 Co 0.98056 0.59149 0.48165 0.0
Co459 Co 0.99063 0.58495 0.55036 0.0
H460 H 0.04064 0.60738 0.51117 0.0
O461 O 0.09588 0.47208 0.41989 0.0
O462 O 0.12877 0.50028 0.46668 0.0
O463 O 0.10545 0.54957 0.42774 0.0
O464 O 0.07168 0.57239 0.45944 0.0
O465 O 1.00421 0.52819 0.46807 0.0
O466 O 0.94433 0.59589 0.4555 0.0
O467 O 0.98946 0.63522 0.46986 0.0
O468 O 0.96322 0.54715 0.48422 0.0
O469 O 1.01179 0.52487 0.54844 0.0
O470 O 0.97404 0.54484 0.57269 0.0
O471 O 0.95714 0.59891 0.53505 0.0
O472 O 0.99287 0.62001 0.58335 0.0
C473 C 0.11622 0.48258 0.54535 0.0
C474 C 0.11126 0.57672 0.53763 0.0
C475 C 0.09531 0.57212 0.43464 0.0
C476 C 0.12248 0.47686 0.43853 0.0
C477 C 0.96022 0.62531 0.45378 0.0
C478 C 0.97378 0.5247 0.47705 0.0
C479 C 0.98563 0.52337 0.57043 0.0
C480 C 0.96657 0.61861 0.56637 0.0
O481 O 0.1346 0.51156 0.54498 0.0
O482 O 0.08781 0.47219 0.52806 0.0
O483 O 0.08019 0.57343 0.54 0.0
O484 O 0.12157 0.55777 0.51565 0.0
Co485 Co 0.59089 0.01995 0.56381 0.0
Co486 Co 0.58156 0.02936 0.49532 0.0
Co487 Co 0.53934 0.05918 0.55575 0.0
O488 O 0.55451 0.02438 0.53914 0.0
H489 H 0.53601 1.00503 0.53598 0.0
O490 O 0.52391 0.09311 0.57406 0.0
Co491 Co 0.48701 0.09832 0.55446 0.0
Co492 Co 0.50103 0.08976 0.62145 0.0
H493 H 0.54263 0.11238 0.57565 0.0
O494 O 0.57687 0.99541 0.46272 0.0
O495 O 0.61233 1.01608 0.51202 0.0
O496 O 0.60166 0.06948 0.47895 0.0
O497 O 0.57226 0.09083 0.51973 0.0
O498 O 0.50588 0.04319 0.51428 0.0
O499 O 0.45536 0.10793 0.53649 0.0
O500 O 0.50477 0.13912 0.5601 0.0
O501 O 0.46405 0.05429 0.54401 0.0
O502 O 0.50678 0.02816 0.59088 0.0
O503 O 0.48536 0.05025 0.64047 0.0
O504 O 0.46532 0.09867 0.60823 0.0
O505 O 0.50297 0.12428 0.65344 0.0
C506 C 0.60234 0.98426 0.58154 0.0
C507 C 0.60337 0.08187 0.58904 0.0
C508 C 0.59483 0.09262 0.49254 0.0
C509 C 0.59969 0.99442 0.48432 0.0
C510 C 0.47655 0.13548 0.54591 0.0
C511 C 0.47479 0.03715 0.51988 0.0
C512 C 0.48841 0.02657 0.62207 0.0
C513 C 0.47585 0.12051 0.6365 0.0
O514 O 0.6223 1.01281 0.58644 0.0
O515 O 0.57424 0.97785 0.5647 0.0
O516 O 0.57258 0.07525 0.59704 0.0
O517 O 0.61351 0.06326 0.56736 0.0
H518 H 0.28059 0.2173 0.39706 0.0
H519 H 0.20787 0.19441 0.3089 0.0
H520 H 0.2465 0.1712 0.4291 0.0
H521 H 0.17369 0.14901 0.34114 0.0
H522 H 0.12909 0.05566 0.38425 0.0
H523 H 0.16974 0.09912 0.35355 0.0
H524 H 0.1956 0.14801 0.46667 0.0
H525 H 0.15523 0.10392 0.49751 0.0
C526 C 0.25734 0.20253 0.38447 0.0
C527 C 0.2472 0.20977 0.35016 0.0
C528 C 0.23765 0.17607 0.40303 0.0
C529 C 0.20724 0.15595 0.38777 0.0
C530 C 0.19717 0.16335 0.35353 0.0
C531 C 0.21678 0.18972 0.33506 0.0
C532 C 0.14396 0.07538 0.40272 0.0
C533 C 0.13873 0.0761 0.44345 0.0
C534 C 0.16708 0.1006 0.38502 0.0
C535 C 0.18567 0.12764 0.40736 0.0
C536 C 0.18193 0.1277 0.44831 0.0
C537 C 0.15881 0.10226 0.46612 0.0
H538 H 0.88688 0.15992 0.41376 0.0
H539 H 0.97914 0.22797 0.37546 0.0
H540 H 0.91693 0.1295 0.43332 0.0
H541 H 1.00928 0.19758 0.39493 0.0
H542 H 0.05369 0.13992 0.45612 0.0
H543 H 1.02643 0.17537 0.44553 0.0
H544 H 0.94416 0.09922 0.39545 0.0
H545 H 0.97065 0.06392 0.40717 0.0
C546 C 0.91365 0.16858 0.41021 0.0
C547 C 0.93068 0.19599 0.39266 0.0
C548 C 0.93087 0.15117 0.42125 0.0
C549 C 0.96542 0.16087 0.41493 0.0
C550 C 0.9827 0.18953 0.40025 0.0
C551 C 0.96544 0.20697 0.3892 0.0
C552 C 1.02992 0.13089 0.44252 0.0
C553 C 1.01411 0.09913 0.43292 0.0
C554 C 1.01434 0.15116 0.43646 0.0
C555 C 0.98282 0.13997 0.42049 0.0
C556 C 0.96795 0.10843 0.409 0.0
C557 C 0.98341 0.08823 0.41515 0.0
H558 H 0.91731 0.84045 0.32058 0.0
H559 H 0.84863 0.88079 0.3752 0.0
H560 H 0.95837 0.87016 0.36807 0.0
H561 H 0.89059 0.91132 0.42241 0.0
H562 H 0.99894 0.98445 0.4574 0.0
H563 H 0.9531 0.95473 0.4153 0.0
H564 H 0.95913 0.87044 0.4465 0.0
H565 H 1.00464 0.90018 0.48964 0.0
C566 C 0.91111 0.85602 0.34235 0.0
C567 C 0.87972 0.85841 0.34395 0.0
C568 C 0.93455 0.87274 0.36978 0.0
C569 C 0.92744 0.89269 0.39903 0.0
C570 C 0.89651 0.89593 0.40013 0.0
C571 C 0.87264 0.8786 0.37309 0.0
C572 C 0.99026 0.95956 0.45566 0.0
C573 C 1.00548 0.94457 0.47661 0.0
C574 C 0.96393 0.94262 0.43174 0.0
C575 C 0.95277 0.91041 0.42766 0.0
C576 C 0.96745 0.89533 0.44918 0.0
C577 C 0.99334 0.91228 0.47386 0.0
H578 H 0.08475 0.81985 0.3719 0.0
H579 H 0.17597 0.80762 0.39056 0.0
H580 H 0.08192 0.83796 0.44054 0.0
H581 H 0.17398 0.82721 0.45866 0.0
H582 H 0.08045 0.87037 0.55986 0.0
H583 H 0.08782 0.82735 0.51978 0.0
H584 H 0.17624 0.89009 0.46616 0.0
H585 H 0.16822 0.93344 0.50523 0.0
C586 C 0.10314 0.81947 0.39116 0.0
C587 C 0.13045 0.81237 0.37615 0.0
C588 C 0.10166 0.82988 0.43034 0.0
C589 C 0.12792 0.83406 0.45453 0.0
C590 C 0.15342 0.82391 0.44054 0.0
C591 C 0.15437 0.81259 0.40167 0.0
C592 C 0.10251 0.87483 0.54107 0.0
C593 C 0.12322 0.90522 0.53454 0.0
C594 C 0.10666 0.85015 0.51824 0.0
C595 C 0.13213 0.85565 0.48958 0.0
C596 C 0.15639 0.88542 0.48825 0.0
C597 C 0.15191 0.91026 0.51071 0.0
H598 H 0.15487 0.88075 0.80068 0.0
H599 H 0.14944 0.81837 0.69771 0.0
H600 H 0.12936 0.90833 0.76657 0.0
H601 H 0.12525 0.84724 0.6629 0.0
H602 H 0.06753 0.90402 0.62006 0.0
H603 H 0.07826 0.86715 0.65742 0.0
H604 H 0.15786 0.94188 0.71408 0.0
H605 H 0.14747 0.97818 0.67743 0.0
C606 C 0.14747 0.87235 0.77111 0.0
C607 C 0.15475 0.84762 0.75177 0.0
C608 C 0.13316 0.88842 0.75142 0.0
C609 C 0.12606 0.88033 0.71187 0.0
C610 C 0.13061 0.85403 0.69336 0.0
C611 C 0.14481 0.83777 0.71318 0.0
C612 C 0.08726 0.91244 0.64055 0.0
C613 C 0.10656 0.94403 0.64584 0.0
C614 C 0.09335 0.89139 0.66188 0.0
C615 C 0.11846 0.90177 0.68915 0.0
C616 C 0.13776 0.93327 0.69404 0.0
C617 C 0.13192 0.95408 0.67271 0.0
H618 H 0.20884 0.24866 0.71444 0.0
H619 H 0.23748 0.17577 0.74666 0.0
H620 H 0.16964 0.21203 0.66925 0.0
H621 H 0.19946 0.13957 0.70059 0.0
H622 H 0.1072 0.07541 0.64153 0.0
H623 H 0.14294 0.11241 0.68892 0.0
H624 H 0.16817 0.18266 0.60808 0.0
H625 H 0.13118 0.14568 0.561 0.0
C626 C 0.20669 0.22481 0.712 0.0
C627 C 0.22617 0.21511 0.73432 0.0
C628 C 0.18445 0.20386 0.68579 0.0
C629 C 0.18141 0.17281 0.68109 0.0
C630 C 0.20066 0.16314 0.70384 0.0
C631 C 0.22261 0.18398 0.73025 0.0
C632 C 0.12038 0.09874 0.63377 0.0
C633 C 0.1164 0.10758 0.59742 0.0
C634 C 0.14104 0.11997 0.66095 0.0
C635 C 0.15861 0.15055 0.65237 0.0
C636 C 0.15464 0.15943 0.61595 0.0
C637 C 0.13364 0.13819 0.58882 0.0
H638 H 0.84993 0.15456 0.5924 0.0
H639 H 0.92104 0.23901 0.55235 0.0
H640 H 0.87764 0.12543 0.55246 0.0
H641 H 0.94831 0.20953 0.51044 0.0
H642 H 1.01997 0.16335 0.54349 0.0
H643 H 0.98237 0.19025 0.54221 0.0
H644 H 0.90507 0.10541 0.50149 0.0
H645 H 0.94293 0.0782 0.5036 0.0
C646 C 0.87034 0.16679 0.57318 0.0
C647 C 0.88422 0.19906 0.57655 0.0
C648 C 0.88633 0.14999 0.55005 0.0
C649 C 0.91623 0.16535 0.52982 0.0
C650 C 0.92612 0.19723 0.52717 0.0
C651 C 0.91043 0.2141 0.5509 0.0
C652 C 0.99502 0.15042 0.53403 0.0
C653 C 0.98412 0.11854 0.52472 0.0
C654 C 0.97354 0.16599 0.53248 0.0
C655 C 0.94056 0.15002 0.52164 0.0
C656 C 0.93019 0.11833 0.51033 0.0
C657 C 0.95177 0.10271 0.51188 0.0
H658 H 0.91342 0.87389 0.77448 0.0
H659 H 0.84265 0.8564 0.68521 0.0
H660 H 0.95307 0.91521 0.73928 0.0
H661 H 0.8819 0.89841 0.65056 0.0
H662 H 0.97577 0.9499 0.57623 0.0
H663 H 0.93165 0.91203 0.61201 0.0
H664 H 0.96748 0.96527 0.72033 0.0
H665 H 1.01211 1.00241 0.68462 0.0
C666 C 0.90606 0.87914 0.74765 0.0
C667 C 0.87474 0.8616 0.73279 0.0
C668 C 0.92884 0.90306 0.72741 0.0
C669 C 0.92095 0.91041 0.6918 0.0
C670 C 0.88928 0.89327 0.67744 0.0
C671 C 0.86658 0.8692 0.69755 0.0
C672 C 0.97383 0.95385 0.60762 0.0
C673 C 0.99767 0.97922 0.62747 0.0
C674 C 0.94845 0.93204 0.62829 0.0
C675 C 0.94603 0.93513 0.66936 0.0
C676 C 0.96886 0.96149 0.6889 0.0
C677 C 0.99433 0.98308 0.66832 0.0
H678 H 0.33464 0.20555 0.19465 0.0
H679 H 0.40562 0.24465 0.28367 0.0
H680 H 0.36581 0.17353 0.16638 0.0
H681 H 0.43699 0.21292 0.25545 0.0
H682 H 0.50346 0.15917 0.19296 0.0
H683 H 0.47152 0.19025 0.2208 0.0
H684 H 0.39113 0.13651 0.14741 0.0
H685 H 0.42337 0.1051 0.11972 0.0
C686 C 0.35687 0.2078 0.20889 0.0
C687 C 0.36602 0.22924 0.24291 0.0
C688 C 0.37549 0.18866 0.19206 0.0
C689 C 0.40569 0.18887 0.20701 0.0
C690 C 0.41481 0.21047 0.24101 0.0
C691 C 0.39604 0.2294 0.25801 0.0
C692 C 0.47889 0.15329 0.18228 0.0
C693 C 0.46753 0.12789 0.15299 0.0
C694 C 0.45974 0.17186 0.19896 0.0
C695 C 0.42691 0.16761 0.18807 0.0
C696 C 0.41556 0.14229 0.15836 0.0
C697 C 0.43469 0.12342 0.1419 0.0
H698 H 0.86038 0.38804 0.20474 0.0
H699 H 0.92627 0.34996 0.24788 0.0
H700 H 0.90702 0.42303 0.16795 0.0
H701 H 0.97223 0.38403 0.21081 0.0
H702 H 0.05655 0.46665 0.17217 0.0
H703 H 1.00829 0.43548 0.20902 0.0
H704 H 0.94637 0.42782 0.11337 0.0
H705 H 0.99506 0.45997 0.07655 0.0
C706 C 0.88471 0.38702 0.2064 0.0
C707 C 0.8893 0.3661 0.22972 0.0
C708 C 0.91155 0.40704 0.18504 0.0
C709 C 0.94385 0.40684 0.18638 0.0
C710 C 0.94815 0.38565 0.20945 0.0
C711 C 0.92149 0.36577 0.23069 0.0
C712 C 1.03268 0.4586 0.15889 0.0
C713 C 1.03004 0.46593 0.12107 0.0
C714 C 1.00481 0.44035 0.18007 0.0
C715 C 0.97309 0.4284 0.16425 0.0
C716 C 0.97017 0.43656 0.12687 0.0
C717 C 0.9982 0.45505 0.10561 0.0
H718 H 0.77021 0.83531 0.16866 0.0
H719 H 0.72947 0.85691 0.27977 0.0
H720 H 0.74144 0.86221 0.13673 0.0
H721 H 0.70132 0.88455 0.24803 0.0
H722 H 0.67383 0.95706 0.18655 0.0
H723 H 0.70004 0.92776 0.21707 0.0
H724 H 0.69322 0.8696 0.11087 0.0
H725 H 0.66585 0.89892 0.08023 0.0
C726 C 0.75529 0.84577 0.18691 0.0
C727 C 0.75329 0.84302 0.22799 0.0
C728 C 0.73817 0.86154 0.16801 0.0
C729 C 0.71799 0.87671 0.18848 0.0
C730 C 0.71618 0.87411 0.22968 0.0
C731 C 0.73271 0.85772 0.24849 0.0
C732 C 0.67732 0.93788 0.16909 0.0
C733 C 0.6664 0.93132 0.12991 0.0
C734 C 0.6928 0.9205 0.18726 0.0
C735 C 0.69983 0.89515 0.1678 0.0
C736 C 0.68917 0.88852 0.1283 0.0
C737 C 0.6728 0.90561 0.11024 0.0
H738 H 0.24706 0.76168 0.16571 0.0
H739 H 0.24788 0.69875 0.24773 0.0
H740 H 0.21434 0.71839 0.12228 0.0
H741 H 0.21378 0.65548 0.20531 0.0
H742 H 0.16734 0.57971 0.10841 0.0
H743 H 0.20707 0.62235 0.14756 0.0
H744 H 0.16068 0.68342 0.11679 0.0
H745 H 0.12262 0.64182 0.07709 0.0
C746 C 0.2402 0.7386 0.17455 0.0
C747 C 0.25002 0.73385 0.21039 0.0
C748 C 0.22112 0.71362 0.14973 0.0
C749 C 0.21074 0.68311 0.16025 0.0
C750 C 0.22139 0.67839 0.19573 0.0
C751 C 0.24086 0.70337 0.22031 0.0
C752 C 0.16589 0.60233 0.10989 0.0
C753 C 0.14178 0.60716 0.08929 0.0
C754 C 0.18857 0.62684 0.13253 0.0
C755 C 0.18753 0.65673 0.13535 0.0
C756 C 0.16319 0.66123 0.11479 0.0
C757 C 0.14096 0.63703 0.09207 0.0
H758 H 0.41446 0.80058 0.87409 0.0
H759 H 0.38277 0.87554 0.86121 0.0
H760 H 0.45616 0.83369 0.91916 0.0
H761 H 0.4254 0.90931 0.90404 0.0
H762 H 0.49477 0.967 0.99883 0.0
H763 H 0.45122 0.9323 0.9575 0.0
H764 H 0.50289 0.8688 0.94125 0.0
H765 H 0.54517 0.90296 0.98463 0.0
C766 C 0.41643 0.82425 0.8806 0.0
C767 C 0.39453 0.83485 0.86364 0.0
C768 C 0.44094 0.84376 0.90665 0.0
C769 C 0.44537 0.87519 0.91659 0.0
C770 C 0.42341 0.88561 0.89899 0.0
C771 C 0.39858 0.86596 0.87364 0.0
C772 C 0.4968 0.94552 0.98668 0.0
C773 C 0.52401 0.93824 0.9958 0.0
C774 C 0.47157 0.92528 0.96213 0.0
C775 C 0.47242 0.89682 0.94447 0.0
C776 C 0.49987 0.88969 0.95384 0.0
C777 C 0.52474 0.90969 0.97904 0.0
H778 H 0.22452 0.29255 0.89769 0.0
H779 H 0.27064 0.36511 0.82116 0.0
H780 H 0.19806 0.32475 0.93584 0.0
H781 H 0.24402 0.39679 0.85871 0.0
H782 H 0.21344 0.45782 0.95246 0.0
H783 H 0.24365 0.42605 0.92143 0.0
H784 H 0.15483 0.34486 0.92882 0.0
H785 H 0.12501 0.37626 0.95988 0.0
C786 C 0.22892 0.31522 0.88884 0.0
C787 C 0.24967 0.32604 0.85615 0.0
C788 C 0.21374 0.33372 0.91072 0.0
C789 C 0.21899 0.36351 0.9005 0.0
C790 C 0.23983 0.37427 0.86794 0.0
C791 C 0.25489 0.35584 0.84611 0.0
C792 C 0.20045 0.4332 0.9475 0.0
C793 C 0.16666 0.41975 0.95814 0.0
C794 C 0.21771 0.41496 0.92965 0.0
C795 C 0.20163 0.38282 0.92232 0.0
C796 C 0.16814 0.3694 0.93417 0.0
C797 C 0.15092 0.38758 0.95167 0.0
H798 H 0.76214 0.18383 0.82506 0.0
H799 H 0.74396 0.25118 0.90852 0.0
H800 H 0.72766 0.14265 0.86526 0.0
H801 H 0.70936 0.21035 0.94832 0.0
H802 H 0.66639 0.13655 0.03221 0.0
H803 H 0.70518 0.17449 0.99173 0.0
H804 H 0.67431 0.11057 0.8902 0.0
H805 H 0.6355 0.07219 0.93159 0.0
C806 C 0.75097 0.19009 0.85202 0.0
C807 C 0.75657 0.2215 0.86306 0.0
C808 C 0.73074 0.16614 0.87527 0.0
C809 C 0.7152 0.17232 0.911 0.0
C810 C 0.72092 0.20384 0.92185 0.0
C811 C 0.74092 0.22767 0.89856 0.0
C812 C 0.66852 0.13002 1.0014 0.0
C813 C 0.64802 0.10045 0.98596 0.0
C814 C 0.69057 0.15233 0.97766 0.0
C815 C 0.69324 0.14663 0.93675 0.0
C816 C 0.67371 0.11648 0.9213 0.0
C817 C 0.65146 0.09399 0.9453 0.0
H818 H 0.88605 0.66945 0.93282 0.0
H819 H 0.98349 0.74077 0.93032 0.0
H820 H 0.90971 0.63387 0.95279 0.0
H821 H 1.00714 0.70518 0.95017 0.0
H822 H 1.03794 0.63941 1.01166 0.0
H823 H 1.01097 0.67533 1.00194 0.0
H824 H 0.94386 0.60653 0.92327 0.0
H825 H 0.97018 0.57059 0.93361 0.0
C826 C 0.91254 0.67755 0.93641 0.0
C827 C 0.93285 0.70798 0.92955 0.0
C828 C 0.92612 0.65713 0.94794 0.0
C829 C 0.96042 0.66651 0.95286 0.0
C830 C 0.98059 0.6972 0.94716 0.0
C831 C 0.967 0.71764 0.93567 0.0
C832 C 1.01731 0.63191 0.99245 0.0
C833 C 1.00649 0.60215 0.97311 0.0
C834 C 1.00192 0.65256 0.98675 0.0
C835 C 0.97533 0.64397 0.96158 0.0
C836 C 0.96399 0.61392 0.94317 0.0
C837 C 0.97932 0.59332 0.94888 0.0
H838 H 0.28341 0.37274 0.09755 0.0
H839 H 0.20019 0.29748 0.04821 0.0
H840 H 0.26487 0.40907 0.07196 0.0
H841 H 0.18325 0.33386 0.01859 0.0
H842 H 0.12506 0.39561 0.06527 0.0
H843 H 0.15404 0.36027 0.05306 0.0
H844 H 0.2464 0.43714 0.03719 0.0
H845 H 0.21713 0.47248 0.05292 0.0
C846 C 0.26184 0.36396 0.07969 0.0
C847 C 0.24202 0.33252 0.07695 0.0
C848 C 0.25131 0.38487 0.0644 0.0
C849 C 0.22119 0.37451 0.04518 0.0
C850 C 0.20542 0.34267 0.03539 0.0
C851 C 0.21542 0.32173 0.05182 0.0
C852 C 0.15162 0.4048 0.05951 0.0
C853 C 0.16917 0.43659 0.06156 0.0
C854 C 0.1683 0.38455 0.05151 0.0
C855 C 0.20291 0.39566 0.04437 0.0
C856 C 0.22 0.42765 0.04373 0.0
C857 C 0.20337 0.44795 0.05301 0.0
H858 H 0.28059 0.67272 0.80235 0.0
H859 H 0.27075 0.73266 0.9023 0.0
H860 H 0.24144 0.62835 0.83346 0.0
H861 H 0.23196 0.68801 0.93364 0.0
H862 H 0.17919 0.59581 0.98874 0.0
H863 H 0.22688 0.63586 0.95987 0.0
H864 H 0.17867 0.61408 0.84998 0.0
H865 H 0.13087 0.5747 0.87894 0.0
C866 C 0.27067 0.67642 0.8313 0.0
C867 C 0.27878 0.70638 0.84972 0.0
C868 C 0.24808 0.65095 0.84902 0.0
C869 C 0.23351 0.65467 0.88594 0.0
C870 C 0.24294 0.68437 0.90529 0.0
C871 C 0.26508 0.70997 0.88726 0.0
C872 C 0.17918 0.59907 0.95816 0.0
C873 C 0.15132 0.58196 0.93603 0.0
C874 C 0.20632 0.6222 0.94177 0.0
C875 C 0.2065 0.62819 0.90268 0.0
C876 C 0.17942 0.6099 0.88007 0.0
C877 C 0.15202 0.58733 0.89665 0.0
H878 H 0.37005 0.17891 1.01228 0.0
H879 H 0.4238 0.18669 0.90117 0.0
H880 H 0.40868 0.15926 0.03793 0.0
H881 H 0.46151 0.16641 0.92654 0.0
H882 H 0.48653 0.08794 0.96548 0.0
H883 H 0.45181 0.11353 0.94606 0.0
H884 H 0.47126 0.17286 0.05279 0.0
H885 H 0.50725 0.14739 0.07237 0.0
C886 C 0.39026 0.17685 0.99342 0.0
C887 C 0.39334 0.18397 0.95433 0.0
C888 C 0.41238 0.16557 1.0082 0.0
C889 C 0.4379 0.16095 0.98414 0.0
C890 C 0.44174 0.1692 0.94563 0.0
C891 C 0.41991 0.18065 0.931 0.0
C892 C 0.48373 0.10649 0.98504 0.0
C893 C 0.49985 0.11548 0.02067 0.0
C894 C 0.46379 0.12127 0.97369 0.0
C895 C 0.45899 0.14542 0.99765 0.0
C896 C 0.47448 0.15426 0.03371 0.0
C897 C 0.49504 0.13965 0.04494 0.0
H898 H 0.91494 0.30818 0.8515 0.0
H899 H 0.86223 0.36779 0.89458 0.0
H900 H 0.96266 0.34108 0.88933 0.0
H901 H 0.90955 0.40024 0.93227 0.0
H902 H 1.03209 0.39688 0.98832 0.0
H903 H 0.98261 0.36052 0.95669 0.0
H904 H 0.96521 0.43611 0.91369 0.0
H905 H 1.01437 0.47248 0.94554 0.0
C906 C 0.91328 0.32791 0.86956 0.0
C907 C 0.88496 0.33558 0.86962 0.0
C908 C 0.94059 0.34674 0.8912 0.0
C909 C 0.94002 0.37354 0.91322 0.0
C910 C 0.91101 0.38017 0.91488 0.0
C911 C 0.88383 0.36143 0.89339 0.0
C912 C 1.01763 0.40575 0.97222 0.0
C913 C 1.02714 0.43759 0.96946 0.0
C914 C 0.98941 0.38488 0.95395 0.0
C915 C 0.96997 0.39544 0.93285 0.0
C916 C 0.97944 0.42728 0.93021 0.0
C917 C 1.00774 0.44812 0.94824 0.0
H918 H 0.7605 0.86538 0.81067 0.0
H919 H 0.76291 0.81862 0.91036 0.0
H920 H 0.73332 0.89628 0.85124 0.0
H921 H 0.73457 0.84855 0.95043 0.0
H922 H 0.64688 0.88271 0.99632 0.0
H923 H 0.67772 0.85462 0.95757 0.0
H924 H 0.74192 0.93875 0.91072 0.0
H925 H 0.71168 0.96726 0.95107 0.0
C926 C 0.75529 0.86148 0.8412 0.0
C927 C 0.76447 0.83904 0.85658 0.0
C928 C 0.73962 0.8795 0.86479 0.0
C929 C 0.73125 0.87544 0.90483 0.0
C930 C 0.74014 0.85277 0.92004 0.0
C931 C 0.7567 0.83545 0.89677 0.0
C932 C 0.66783 0.89556 0.97822 0.0
C933 C 0.67647 0.92776 0.97776 0.0
C934 C 0.68575 0.87921 0.9557 0.0
C935 C 0.71276 0.89385 0.93022 0.0
C936 C 0.72139 0.92612 0.92948 0.0
C937 C 0.70405 0.94272 0.9531 0.0
H938 H 0.93043 0.71206 0.06197 0.0
H939 H 0.90516 0.69179 0.18201 0.0
H940 H 0.94584 0.66667 0.04983 0.0
H941 H 0.92112 0.64703 0.16995 0.0
H942 H 1.01833 0.62299 0.13747 0.0
H943 H 0.983 0.65287 0.15256 0.0
H944 H 0.9236 0.60514 0.05405 0.0
H945 H 0.95844 0.57426 0.03973 0.0
C946 C 0.92769 0.69765 0.08548 0.0
C947 C 0.91761 0.70581 0.12315 0.0
C948 C 0.93617 0.67165 0.07848 0.0
C949 C 0.93463 0.65369 0.10912 0.0
C950 C 0.92257 0.66076 0.14608 0.0
C951 C 0.91397 0.68654 0.153 0.0
C952 C 0.99701 0.61817 0.11996 0.0
C953 C 0.99096 0.59662 0.08751 0.0
C954 C 0.97682 0.63513 0.12856 0.0
C955 C 0.95082 0.63117 0.10428 0.0
C956 C 0.94354 0.60835 0.07309 0.0
C957 C 0.96326 0.59071 0.06512 0.0
H958 H 0.39713 0.82778 0.21753 0.0
H959 H 0.35613 0.89941 0.23042 0.0
H960 H 0.44889 0.86398 0.19132 0.0
H961 H 0.4079 0.93552 0.20546 0.0
H962 H 0.49461 0.98173 0.12092 0.0
H963 H 0.44226 0.94707 0.14703 0.0
H964 H 0.49493 0.90939 0.21553 0.0
H965 H 0.54742 0.94354 0.18875 0.0
C966 C 0.39903 0.85111 0.21446 0.0
C967 C 0.37254 0.8607 0.22607 0.0
C968 C 0.42878 0.87193 0.19991 0.0
C969 C 0.43257 0.9027 0.19677 0.0
C970 C 0.4057 0.91196 0.20727 0.0
C971 C 0.37602 0.89119 0.22167 0.0
C972 C 0.49513 0.96649 0.1421 0.0
C973 C 0.52525 0.96529 0.15254 0.0
C974 C 0.46507 0.94654 0.15699 0.0
C975 C 0.46448 0.92515 0.18284 0.0
C976 C 0.4946 0.92509 0.19489 0.0
C977 C 0.52467 0.94493 0.17988 0.0
H978 H 0.7326 0.26855 0.19115 0.0
H979 H 0.78959 0.21343 0.21026 0.0
H980 H 0.69255 0.22438 0.15574 0.0
H981 H 0.74873 0.1687 0.17603 0.0
H982 H 0.66907 0.09673 0.09701 0.0
H983 H 0.71726 0.14224 0.11671 0.0
H984 H 0.65265 0.18022 0.18629 0.0
H985 H 0.60492 0.13548 0.16637 0.0
C986 C 0.73689 0.24711 0.18689 0.0
C987 C 0.76374 0.24409 0.20375 0.0
C988 C 0.71391 0.22181 0.16694 0.0
C989 C 0.71706 0.19295 0.16427 0.0
C990 C 0.74568 0.19067 0.17779 0.0
C991 C 0.76905 0.21623 0.19731 0.0
C992 C 0.66532 0.11469 0.11691 0.0
C993 C 0.63325 0.11264 0.1301 0.0
C994 C 0.69284 0.14075 0.12792 0.0
C995 C 0.68858 0.16502 0.15225 0.0
C996 C 0.65661 0.16232 0.16646 0.0
C997 C 0.62927 0.13652 0.15539 0.0
H998 H 0.70452 0.69247 0.8036 0.0
H999 H 0.78637 0.69945 0.87247 0.0
H1000 H 0.66833 0.64918 0.83907 0.0
H1001 H 0.7501 0.65629 0.90795 0.0
H1002 H 0.65937 0.60202 0.99107 0.0
H1003 H 0.70102 0.64289 0.95575 0.0
H1004 H 0.66058 0.595 0.84662 0.0
H1005 H 0.61957 0.55443 0.88147 0.0
C1006 C 0.7149 0.68473 0.8261 0.0
C1007 C 0.74851 0.69953 0.83484 0.0
C1008 C 0.69414 0.65979 0.84643 0.0
C1009 C 0.70625 0.6491 0.87645 0.0
C1010 C 0.73982 0.66395 0.88528 0.0
C1011 C 0.76069 0.68863 0.86462 0.0
C1012 C 0.66005 0.59977 0.95953 0.0
C1013 C 0.63594 0.57486 0.93926 0.0
C1014 C 0.68377 0.62334 0.93922 0.0
C1015 C 0.68375 0.62263 0.89826 0.0
C1016 C 0.66092 0.59678 0.87811 0.0
C1017 C 0.63754 0.57328 0.89822 0.0
H1018 H 0.43175 0.63374 0.78098 0.0
H1019 H 0.4698 0.71752 0.8565 0.0
H1020 H 0.45042 0.60682 0.82498 0.0
H1021 H 0.48801 0.69041 0.90125 0.0
H1022 H 0.54838 0.63457 0.94087 0.0
H1023 H 0.52834 0.66577 0.90468 0.0
H1024 H 0.43515 0.58929 0.88954 0.0
H1025 H 0.45565 0.55791 0.92426 0.0
C1026 C 0.44412 0.64629 0.80709 0.0
C1027 C 0.44943 0.67754 0.81554 0.0
C1028 C 0.45453 0.63091 0.83242 0.0
C1029 C 0.47015 0.64647 0.86682 0.0
C1030 C 0.47612 0.67796 0.87486 0.0
C1031 C 0.46587 0.69343 0.84929 0.0
C1032 C 0.52347 0.62469 0.9302 0.0
C1033 C 0.50379 0.59374 0.93428 0.0
C1034 C 0.51197 0.64253 0.90969 0.0
C1035 C 0.48053 0.62963 0.89357 0.0
C1036 C 0.4599 0.59944 0.90062 0.0
C1037 C 0.47155 0.58155 0.92055 0.0
H1038 H 0.35987 0.34228 0.90073 0.0
H1039 H 0.4221 0.35557 0.79558 0.0
H1040 H 0.40653 0.37506 0.93843 0.0
H1041 H 0.4696 0.38923 0.83421 0.0
H1042 H 0.53061 0.4739 0.92242 0.0
H1043 H 0.48836 0.44087 0.87773 0.0
H1044 H 0.45868 0.36949 0.9571 0.0
H1045 H 0.50076 0.40244 1.002 0.0
C1046 C 0.3836 0.35224 0.88551 0.0
C1047 C 0.38736 0.34587 0.8451 0.0
C1048 C 0.41041 0.37096 0.90733 0.0
C1049 C 0.44184 0.38407 0.88946 0.0
C1050 C 0.44558 0.37913 0.84872 0.0
C1051 C 0.41847 0.36004 0.82664 0.0
C1052 C 0.51524 0.45105 0.93026 0.0
C1053 C 0.51878 0.44092 0.96607 0.0
C1054 C 0.49126 0.4321 0.90444 0.0
C1055 C 0.47013 0.40276 0.91406 0.0
C1056 C 0.47445 0.3922 0.94916 0.0
C1057 C 0.49858 0.41102 0.97484 0.0
H1058 H 0.65762 0.30322 0.99029 0.0
H1059 H 0.75544 0.36487 0.02253 0.0
H1060 H 0.63394 0.32309 0.04666 0.0
H1061 H 0.73206 0.38379 0.08114 0.0
H1062 H 0.68235 0.45547 0.07182 0.0
H1063 H 0.71104 0.42052 0.07375 0.0
H1064 H 0.61787 0.3473 0.09902 0.0
H1065 H 0.58907 0.38193 0.0928 0.0
C1066 C 0.67419 0.32006 1.01068 0.0
C1067 C 0.70795 0.33404 1.00089 0.0
C1068 C 0.66067 0.33148 0.0436 0.0
C1069 C 0.68091 0.35718 0.06695 0.0
C1070 C 0.71552 0.36554 0.06222 0.0
C1071 C 0.72904 0.35446 0.02878 0.0
C1072 C 0.66815 0.43205 0.07855 0.0
C1073 C 0.6335 0.42099 0.0803 0.0
C1074 C 0.68464 0.41183 0.0803 0.0
C1075 C 0.66664 0.38025 0.08438 0.0
C1076 C 0.63245 0.37092 0.09357 0.0
C1077 C 0.61586 0.39082 0.09019 0.0
H1078 H 0.6054 0.36723 0.31578 0.0
H1079 H 0.63138 0.33178 0.20273 0.0
H1080 H 0.57324 0.39075 0.28457 0.0
H1081 H 0.59858 0.3544 0.17206 0.0
H1082 H 0.61176 0.47676 0.20593 0.0
H1083 H 0.60994 0.43622 0.24508 0.0
H1084 H 0.54661 0.36795 0.16265 0.0
H1085 H 0.54764 0.4089 0.12354 0.0
C1086 C 0.60307 0.36329 0.28449 0.0
C1087 C 0.62193 0.34867 0.26162 0.0
C1088 C 0.58452 0.3766 0.2667 0.0
C1089 C 0.58429 0.37505 0.22593 0.0
C1090 C 0.5985 0.35605 0.20355 0.0
C1091 C 0.61733 0.34302 0.22127 0.0
C1092 C 0.59687 0.45321 0.19645 0.0
C1093 C 0.58062 0.44595 0.16111 0.0
C1094 C 0.59544 0.42997 0.21919 0.0
C1095 C 0.57801 0.39896 0.20691 0.0
C1096 C 0.56007 0.39172 0.17278 0.0
C1097 C 0.56096 0.41513 0.15032 0.0
H1098 H 0.7708 0.6907 0.19536 0.0
H1099 H 0.69855 0.73122 0.23582 0.0
H1100 H 0.73051 0.65385 0.15106 0.0
H1101 H 0.6586 0.69463 0.19132 0.0
H1102 H 0.61237 0.64788 0.07356 0.0
H1103 H 0.65401 0.68442 0.1168 0.0
H1104 H 0.67432 0.60937 0.15682 0.0
H1105 H 0.63269 0.57288 0.11407 0.0
C1106 C 0.7463 0.69162 0.19499 0.0
C1107 C 0.73786 0.71383 0.21918 0.0
C1108 C 0.72328 0.67055 0.16964 0.0
C1109 C 0.69156 0.67159 0.16756 0.0
C1110 C 0.68302 0.69358 0.19199 0.0
C1111 C 0.70583 0.71432 0.21772 0.0
C1112 C 0.62589 0.63924 0.09141 0.0
C1113 C 0.61915 0.60752 0.09053 0.0
C1114 C 0.64954 0.6601 0.11629 0.0
C1115 C 0.66727 0.64967 0.14024 0.0
C1116 C 0.66115 0.61805 0.13855 0.0
C1117 C 0.63718 0.59718 0.1142 0.0
H1118 H 0.40118 0.71784 0.14647 0.0
H1119 H 0.38623 0.64473 0.22035 0.0
H1120 H 0.42267 0.69063 0.09403 0.0
H1121 H 0.40868 0.61794 0.16818 0.0
H1122 H 0.43634 0.56808 0.06311 0.0
H1123 H 0.40063 0.59143 0.10084 0.0
H1124 H 0.47532 0.68169 0.08815 0.0
H1125 H 0.51072 0.65851 0.0504 0.0
C1126 C 0.40199 0.69571 0.15129 0.0
C1127 C 0.39225 0.68347 0.1876 0.0
C1128 C 0.41445 0.68025 0.12133 0.0
C1129 C 0.41737 0.65223 0.12705 0.0
C1130 C 0.40633 0.63934 0.16279 0.0
C1131 C 0.39396 0.65486 0.19283 0.0
C1132 C 0.44465 0.59294 0.06741 0.0
C1133 C 0.47646 0.6115 0.05437 0.0
C1134 C 0.42434 0.60625 0.08924 0.0
C1135 C 0.43542 0.6383 0.09785 0.0
C1136 C 0.46604 0.65692 0.08185 0.0
C1137 C 0.4864 0.64364 0.06039 0.0
H1138 H 0.33558 0.35819 0.18114 0.0
H1139 H 0.41136 0.37108 0.26256 0.0
H1140 H 0.37501 0.39967 0.14459 0.0
H1141 H 0.4502 0.41184 0.22639 0.0
H1142 H 0.50461 0.50272 0.17936 0.0
H1143 H 0.45937 0.46455 0.21297 0.0
H1144 H 0.42828 0.41147 0.10341 0.0
H1145 H 0.47367 0.45 0.06943 0.0
C1146 C 0.36051 0.36985 0.19132 0.0
C1147 C 0.37018 0.36125 0.22492 0.0
C1148 C 0.38314 0.39352 0.17028 0.0
C1149 C 0.41575 0.40936 0.18271 0.0
C1150 C 0.42519 0.40064 0.21628 0.0
C1151 C 0.40285 0.37698 0.23695 0.0
C1152 C 0.48791 0.48319 0.16222 0.0
C1153 C 0.4931 0.47942 0.12163 0.0
C1154 C 0.46201 0.46114 0.18159 0.0
C1155 C 0.44042 0.43461 0.16104 0.0
C1156 C 0.44436 0.43163 0.12017 0.0
C1157 C 0.47044 0.45375 0.1007 0.0
H1158 H 0.89361 0.7309 0.74839 0.0
H1159 H 0.82218 0.71209 0.66018 0.0
H1160 H 0.92148 0.70153 0.7085 0.0
H1161 H 0.85099 0.68313 0.61885 0.0
H1162 H 0.90014 0.61443 0.5575 0.0
H1163 H 0.86893 0.64281 0.59585 0.0
H1164 H 0.95617 0.69508 0.66063 0.0
H1165 H 0.98619 0.66641 0.6238 0.0
C1166 C 0.88373 0.72073 0.7202 0.0
C1167 C 0.85511 0.7246 0.70836 0.0
C1168 C 0.90027 0.70371 0.69651 0.0
C1169 C 0.88968 0.6895 0.65891 0.0
C1170 C 0.86069 0.69307 0.64714 0.0
C1171 C 0.84389 0.71006 0.67116 0.0
C1172 C 0.91275 0.63204 0.57986 0.0
C1173 C 0.94626 0.63741 0.58695 0.0
C1174 C 0.89463 0.64867 0.60228 0.0
C1175 C 0.90899 0.67168 0.63298 0.0
C1176 C 0.94278 0.67737 0.63888 0.0
C1177 C 0.9606 0.66076 0.61691 0.0
H1178 H 0.40309 0.83737 0.6844 0.0
H1179 H 0.32824 0.87499 0.7235 0.0
H1180 H 0.43619 0.88502 0.65624 0.0
H1181 H 0.3613 0.92281 0.69431 0.0
H1182 H 0.44955 1.01473 0.68879 0.0
H1183 H 0.4127 0.9653 0.7096 0.0
H1184 H 0.44172 0.91931 0.60664 0.0
H1185 H 0.47923 0.969 0.58592 0.0
C1186 C 0.39336 0.85565 0.68641 0.0
C1187 C 0.36307 0.8524 0.70659 0.0
C1188 C 0.41236 0.883 0.66998 0.0
C1189 C 0.40168 0.90796 0.67329 0.0
C1190 C 0.37057 0.90422 0.6918 0.0
C1191 C 0.35142 0.87669 0.70818 0.0
C1192 C 0.44828 0.99413 0.67053 0.0
C1193 C 0.46762 0.99598 0.63569 0.0
C1194 C 0.42676 0.96572 0.68232 0.0
C1195 C 0.42388 0.93825 0.65967 0.0
C1196 C 0.44342 0.93998 0.62496 0.0
C1197 C 0.46502 0.9685 0.61311 0.0
H1198 H 0.21657 0.35845 0.58376 0.0
H1199 H 0.21378 0.40682 0.6966 0.0
H1200 H 0.18218 0.38284 0.55851 0.0
H1201 H 0.1796 0.43109 0.67143 0.0
H1202 H 0.16228 0.50036 0.60054 0.0
H1203 H 0.18884 0.47029 0.62772 0.0
H1204 H 0.12742 0.38876 0.56038 0.0
H1205 H 0.10068 0.41947 0.53243 0.0
C1206 C 0.20829 0.37392 0.6034 0.0
C1207 C 0.2185 0.3809 0.64221 0.0
C1208 C 0.18845 0.38789 0.58887 0.0
C1209 C 0.17829 0.40927 0.61272 0.0
C1210 C 0.18748 0.4153 0.65187 0.0
C1211 C 0.20723 0.40138 0.66635 0.0
C1212 C 0.15406 0.47595 0.59165 0.0
C1213 C 0.12919 0.46239 0.56429 0.0
C1214 C 0.16925 0.45857 0.60754 0.0
C1215 C 0.16032 0.42694 0.59652 0.0
C1216 C 0.13509 0.41309 0.56944 0.0
C1217 C 0.11951 0.4306 0.5537 0.0
H1218 H 0.7786 0.24191 0.65791 0.0
H1219 H 0.70076 0.24035 0.74389 0.0
H1220 H 0.73871 0.20042 0.61832 0.0
H1221 H 0.66141 0.19834 0.70545 0.0
H1222 H 0.59086 0.13219 0.62175 0.0
H1223 H 0.6303 0.18062 0.64941 0.0
H1224 H 0.70986 0.14684 0.62083 0.0
H1225 H 0.67055 0.09901 0.59148 0.0
C1226 C 0.75293 0.23295 0.66817 0.0
C1227 C 0.74291 0.24428 0.70418 0.0
C1228 C 0.7301 0.20898 0.64565 0.0
C1229 C 0.69683 0.1957 0.65882 0.0
C1230 C 0.68664 0.20814 0.69399 0.0
C1231 C 0.70934 0.23223 0.71625 0.0
C1232 C 0.61681 0.13519 0.62114 0.0
C1233 C 0.62753 0.11162 0.60482 0.0
C1234 C 0.63945 0.16296 0.63713 0.0
C1235 C 0.67331 0.16766 0.63774 0.0
C1236 C 0.6841 0.14432 0.62044 0.0
C1237 C 0.66149 0.11671 0.60394 0.0
H1238 H 0.89745 0.3439 0.38758 0.0
H1239 H 0.80763 0.36097 0.41851 0.0
H1240 H 0.92801 0.38766 0.43141 0.0
H1241 H 0.8374 0.40354 0.4649 0.0
H1242 H 0.90933 0.50468 0.45735 0.0
H1243 H 0.87161 0.45179 0.44691 0.0
H1244 H 0.94463 0.4206 0.48758 0.0
H1245 H 0.98305 0.47374 0.49565 0.0
C1246 C 0.88401 0.3561 0.40552 0.0
C1247 C 0.85061 0.34981 0.39949 0.0
C1248 C 0.90142 0.38119 0.43084 0.0
C1249 C 0.88534 0.39985 0.45078 0.0
C1250 C 0.85075 0.39037 0.44888 0.0
C1251 C 0.83361 0.36588 0.42272 0.0
C1252 C 0.91709 0.48651 0.4645 0.0
C1253 C 0.94936 0.49311 0.47605 0.0
C1254 C 0.8953 0.45608 0.45909 0.0
C1255 C 0.90518 0.43171 0.46594 0.0
C1256 C 0.93652 0.43869 0.48103 0.0
C1257 C 0.95856 0.4691 0.48554 0.0
H1258 H 0.65681 0.84867 0.3788 0.0
H1259 H 0.66842 0.84346 0.50087 0.0
H1260 H 0.63451 0.8887 0.39581 0.0
H1261 H 0.64676 0.88461 0.51776 0.0
H1262 H 0.65258 0.98731 0.51486 0.0
H1263 H 0.66825 0.94205 0.50511 0.0
H1264 H 0.58527 0.89612 0.43095 0.0
H1265 H 0.56949 0.9409 0.44067 0.0
C1266 C 0.6538 0.85545 0.40936 0.0
C1267 C 0.6642 0.84268 0.43849 0.0
C1268 C 0.64123 0.87858 0.41905 0.0
C1269 C 0.63899 0.88966 0.45804 0.0
C1270 C 0.64855 0.87654 0.48743 0.0
C1271 C 0.66089 0.85305 0.47774 0.0
C1272 C 0.63766 0.96749 0.49661 0.0
C1273 C 0.61001 0.96774 0.47825 0.0
C1274 C 0.64646 0.94157 0.49131 0.0
C1275 C 0.62793 0.91575 0.46724 0.0
C1276 C 0.60008 0.91589 0.44938 0.0
C1277 C 0.59121 0.94161 0.45481 0.0
H1278 H 0.26465 0.73423 0.38985 0.0
H1279 H 0.18461 0.75479 0.3483 0.0
H1280 H 0.22495 0.68552 0.41049 0.0
H1281 H 0.14499 0.70593 0.3682 0.0
H1282 H 0.08213 0.62518 0.4404 0.0
H1283 H 0.11947 0.67586 0.42363 0.0
H1284 H 0.19088 0.63693 0.37461 0.0
H1285 H 0.15393 0.58625 0.3919 0.0
C1286 C 0.23853 0.72869 0.38585 0.0
C1287 C 0.22774 0.74826 0.36715 0.0
C1288 C 0.21584 0.70058 0.39716 0.0
C1289 C 0.18193 0.6916 0.39019 0.0
C1290 C 0.17093 0.71213 0.3739 0.0
C1291 C 0.19362 0.74013 0.36249 0.0
C1292 C 0.10558 0.62725 0.42554 0.0
C1293 C 0.11503 0.60153 0.41775 0.0
C1294 C 0.127 0.65638 0.416 0.0
C1295 C 0.15837 0.66048 0.39851 0.0
C1296 C 0.16718 0.6346 0.38898 0.0
C1297 C 0.14575 0.60545 0.3984 0.0
H1298 H 0.46158 0.31345 0.5151 0.0
H1299 H 0.41406 0.24337 0.4242 0.0
H1300 H 0.47075 0.27427 0.54989 0.0
H1301 H 0.42333 0.205 0.45818 0.0
H1302 H 0.41562 0.13635 0.53567 0.0
H1303 H 0.40274 0.18029 0.52134 0.0
H1304 H 0.50548 0.23929 0.53357 0.0
H1305 H 0.51838 0.19547 0.54882 0.0
C1306 C 0.45344 0.28983 0.50255 0.0
C1307 C 0.43782 0.28142 0.46671 0.0
C1308 C 0.45848 0.26756 0.52239 0.0
C1309 C 0.44724 0.23673 0.50684 0.0
C1310 C 0.43165 0.22854 0.47111 0.0
C1311 C 0.42697 0.25062 0.45128 0.0
C1312 C 0.43537 0.15876 0.53575 0.0
C1313 C 0.46817 0.16244 0.54195 0.0
C1314 C 0.42795 0.18386 0.52793 0.0
C1315 C 0.4533 0.21285 0.52572 0.0
C1316 C 0.48557 0.2171 0.53521 0.0
C1317 C 0.49296 0.19199 0.54342 0.0
H1318 H 0.63087 0.8213 0.65357 0.0
H1319 H 0.72887 0.88907 0.63549 0.0
H1320 H 0.60661 0.85628 0.63275 0.0
H1321 H 0.70473 0.92384 0.61462 0.0
H1322 H 0.65364 0.99242 0.62722 0.0
H1323 H 0.67507 0.95477 0.64408 0.0
H1324 H 0.59871 0.88299 0.57886 0.0
H1325 H 0.57659 0.92117 0.56234 0.0
C1326 C 0.64731 0.84349 0.64474 0.0
C1327 C 0.68194 0.85239 0.64673 0.0
C1328 C 0.63334 0.86358 0.63272 0.0
C1329 C 0.65359 0.89314 0.62237 0.0
C1330 C 0.68821 0.9016 0.62324 0.0
C1331 C 0.70214 0.88161 0.63529 0.0
C1332 C 0.64117 0.96862 0.61646 0.0
C1333 C 0.61327 0.95993 0.59339 0.0
C1334 C 0.65374 0.94695 0.62592 0.0
C1335 C 0.63902 0.91575 0.6125 0.0
C1336 C 0.61062 0.90677 0.58997 0.0
C1337 C 0.59788 0.92863 0.58052 0.0
H1338 H 0.70265 0.26205 0.37194 0.0
H1339 H 0.7641 0.20749 0.36519 0.0
H1340 H 0.6614 0.2249 0.41197 0.0
H1341 H 0.72291 0.17034 0.40437 0.0
H1342 H 0.66045 0.12071 0.50264 0.0
H1343 H 0.70011 0.16285 0.46852 0.0
H1344 H 0.61969 0.17309 0.41249 0.0
H1345 H 0.57983 0.131 0.44785 0.0
C1346 C 0.70746 0.24217 0.37886 0.0
C1347 C 0.73706 0.23808 0.36518 0.0
C1348 C 0.68359 0.22067 0.40178 0.0
C1349 C 0.68861 0.19447 0.41202 0.0
C1350 C 0.71816 0.1904 0.39805 0.0
C1351 C 0.74187 0.21174 0.37512 0.0
C1352 C 0.65117 0.13251 0.48379 0.0
C1353 C 0.61694 0.12271 0.47837 0.0
C1354 C 0.674 0.15646 0.46365 0.0
C1355 C 0.66348 0.17128 0.43684 0.0
C1356 C 0.62895 0.16248 0.43288 0.0
C1357 C 0.60597 0.13843 0.45333 0.0
H1358 H 0.81897 0.71215 0.37265 0.0
H1359 H 0.906 0.74944 0.29933 0.0
H1360 H 0.84631 0.68408 0.40477 0.0
H1361 H 0.93385 0.72209 0.33229 0.0
H1362 H 0.98859 0.68446 0.42096 0.0
H1363 H 0.96207 0.71316 0.38801 0.0
H1364 H 0.86691 0.64248 0.4073 0.0
H1365 H 0.89341 0.61363 0.43888 0.0
C1366 C 0.84402 0.71472 0.36293 0.0
C1367 C 0.85917 0.73395 0.33206 0.0
C1368 C 0.86018 0.69809 0.38183 0.0
C1369 C 0.89341 0.69972 0.37246 0.0
C1370 C 0.90873 0.71933 0.34189 0.0
C1371 C 0.89225 0.73536 0.32229 0.0
C1372 C 0.96195 0.67471 0.41853 0.0
C1373 C 0.94408 0.64571 0.43392 0.0
C1374 C 0.94628 0.69152 0.3989 0.0
C1375 C 0.91123 0.68128 0.39377 0.0
C1376 C 0.89352 0.65253 0.40978 0.0
C1377 C 0.90922 0.63544 0.4284 0.0
H1378 H 0.37831 0.85766 0.39471 0.0
H1379 H 0.31668 0.90767 0.37245 0.0
H1380 H 0.41172 0.90109 0.43698 0.0
H1381 H 0.35085 0.95175 0.41452 0.0
H1382 H 0.48953 0.99501 0.46883 0.0
H1383 H 0.45221 0.95115 0.43059 0.0
H1384 H 0.3686 0.97253 0.48068 0.0
H1385 H 0.40637 1.01724 0.51877 0.0
C1386 C 0.37175 0.87791 0.39881 0.0
C1387 C 0.34475 0.87901 0.37972 0.0
C1388 C 0.39118 0.90305 0.42302 0.0
C1389 C 0.38447 0.93033 0.42893 0.0
C1390 C 0.35678 0.93116 0.41092 0.0
C1391 C 0.33718 0.90585 0.38663 0.0
C1392 C 0.46321 0.99052 0.47187 0.0
C1393 C 0.45114 1.00991 0.49707 0.0
C1394 C 0.44165 0.96505 0.45 0.0
C1395 C 0.40716 0.95792 0.45254 0.0
C1396 C 0.39497 0.97733 0.47764 0.0
C1397 C 0.41666 1.00292 0.4997 0.0
H1398 H 0.27518 0.37482 0.38679 0.0
H1399 H 0.20617 0.33741 0.29549 0.0
H1400 H 0.2447 0.40766 0.41389 0.0
H1401 H 0.17554 0.37014 0.3224 0.0
H1402 H 0.11451 0.43129 0.37504 0.0
H1403 H 0.14563 0.3993 0.34909 0.0
H1404 H 0.21613 0.44051 0.43856 0.0
H1405 H 0.18445 0.47293 0.46472 0.0
C1406 C 0.25349 0.37311 0.37179 0.0
C1407 C 0.24468 0.3518 0.33759 0.0
C1408 C 0.23526 0.39274 0.38798 0.0
C1409 C 0.2059 0.39345 0.37195 0.0
C1410 C 0.19714 0.37206 0.33763 0.0
C1411 C 0.21543 0.35244 0.32142 0.0
C1412 C 0.13666 0.43419 0.38992 0.0
C1413 C 0.14535 0.45647 0.42319 0.0
C1414 C 0.15533 0.41498 0.37432 0.0
C1415 C 0.18522 0.41544 0.39008 0.0
C1416 C 0.19406 0.43774 0.42367 0.0
C1417 C 0.17524 0.45718 0.43934 0.0
H1418 H 0.38548 0.22814 0.78905 0.0
H1419 H 0.35352 0.23662 0.67683 0.0
H1420 H 0.41544 0.19687 0.7582 0.0
H1421 H 0.38428 0.20531 0.64558 0.0
H1422 H 0.41568 0.11922 0.61272 0.0
H1423 H 0.38516 0.15223 0.63886 0.0
H1424 H 0.46388 0.20157 0.71757 0.0
H1425 H 0.49384 0.16882 0.69211 0.0
C1426 C 0.38504 0.22363 0.75766 0.0
C1427 C 0.36711 0.23526 0.73555 0.0
C1428 C 0.40246 0.20566 0.73984 0.0
C1429 C 0.4026 0.19856 0.69922 0.0
C1430 C 0.38461 0.21008 0.67693 0.0
C1431 C 0.3672 0.2283 0.69485 0.0
C1432 C 0.42645 0.13716 0.63555 0.0
C1433 C 0.45712 0.14096 0.65054 0.0
C1434 C 0.40902 0.15624 0.65042 0.0
C1435 C 0.42175 0.17943 0.68083 0.0
C1436 C 0.45281 0.18361 0.69487 0.0
C1437 C 0.47014 0.16476 0.68003 0.0
H1438 H 0.90137 0.3452 0.68693 0.0
H1439 H 0.83969 0.39614 0.72933 0.0
H1440 H 0.93421 0.38679 0.64696 0.0
H1441 H 0.87315 0.43835 0.69139 0.0
H1442 H 0.92204 0.50635 0.60174 0.0
H1443 H 0.88989 0.46345 0.6385 0.0
H1444 H 0.97245 0.4328 0.63115 0.0
H1445 H 1.00426 0.47565 0.59198 0.0
C1446 C 0.89473 0.36534 0.68801 0.0
C1447 C 0.8672 0.36658 0.7117 0.0
C1448 C 0.91402 0.38974 0.66495 0.0
C1449 C 0.90712 0.417 0.66465 0.0
C1450 C 0.87968 0.41815 0.68893 0.0
C1451 C 0.86018 0.3936 0.71145 0.0
C1452 C 0.93371 0.49065 0.60786 0.0
C1453 C 0.96645 0.49541 0.5936 0.0
C1454 C 0.91497 0.4656 0.62975 0.0
C1455 C 0.92785 0.44377 0.63953 0.0
C1456 C 0.96066 0.4483 0.62481 0.0
C1457 C 0.97938 0.47334 0.60218 0.0
H1458 H 0.21279 0.73312 0.71173 0.0
H1459 H 0.28974 0.70076 0.6657 0.0
H1460 H 0.17393 0.6958 0.66713 0.0
H1461 H 0.2507 0.66201 0.62263 0.0
H1462 H 0.17998 0.60154 0.53016 0.0
H1463 H 0.21944 0.64187 0.57118 0.0
H1464 H 0.13839 0.64982 0.64607 0.0
H1465 H 0.09925 0.61088 0.60341 0.0
C1466 C 0.22152 0.7179 0.69217 0.0
C1467 C 0.25489 0.72052 0.69265 0.0
C1468 C 0.19883 0.69587 0.66642 0.0
C1469 C 0.20811 0.67475 0.6403 0.0
C1470 C 0.24172 0.67758 0.641 0.0
C1471 C 0.26453 0.70004 0.66623 0.0
C1472 C 0.1705 0.61205 0.55524 0.0
C1473 C 0.13596 0.60256 0.56286 0.0
C1474 C 0.19345 0.63535 0.57947 0.0
C1475 C 0.18312 0.65002 0.61317 0.0
C1476 C 0.14837 0.64032 0.62059 0.0
C1477 C 0.12545 0.61744 0.5959 0.0
loop_
_geom_bond_atom_site_label_1
_geom_bond_atom_site_label_2
_geom_bond_distance
_geom_bond_site_symmetry_2
_ccdc_geom_bond_type
Tb0 C10 2.825 . S
Tb0 O11 2.347 . S
Tb0 O14 2.366 . S
Tb0 O19 2.418 . S
Tb0 O20 2.384 . S
Tb0 O23 2.479 . S
Tb0 O24 2.471 . S
Eu1 O12 2.418 . S
Eu1 O13 2.384 . S
Eu1 O16 2.479 . S
Eu1 O17 2.471 . S
Eu1 O18 2.347 . S
Eu1 O21 2.366 . S
Eu1 C31 2.825 . S
C2 O18 1.259 . S
C2 O19 1.265 . S
C3 O20 1.255 . S
C3 O21 1.265 . S
C4 C6 1.380 . S
C4 C7 1.374 . S
C4 C10 1.507 . S
C5 C6 1.384 . S
C5 C9 1.387 . S
C5 H32 0.930 . S
C6 C4 1.380 . S
C6 C5 1.384 . S
C6 H33 0.931 . S
C7 C4 1.374 . S
C7 C8 1.390 . S
C7 H34 0.930 . S
C8 C7 1.390 . S
C8 C9 1.391 . S
C8 H35 0.930 . S
C9 C5 1.387 . S
C9 C8 1.391 . S
C10 Tb0 2.825 . S
C10 C4 1.507 . S
C10 O23 1.238 . S
C10 O24 1.247 . S
O11 Tb0 2.347 . S
O11 C15 1.259 . S
O12 Eu1 2.418 . S
O12 C15 1.265 . S
O13 Eu1 2.384 . S
O13 C22 1.255 . S
O14 Tb0 2.366 . S
O14 C22 1.265 . S
C15 O11 1.259 . S
C15 O12 1.265 . S
O16 Eu1 2.479 . S
O16 C31 1.238 . S
O17 Eu1 2.471 . S
O17 C31 1.247 . S
O18 Eu1 2.347 . S
O18 C2 1.259 . S
O19 Tb0 2.418 . S
O19 C2 1.265 . S
O20 Tb0 2.384 . S
O20 C3 1.255 . S
O21 Eu1 2.366 . S
O21 C3 1.265 . S
C22 O13 1.255 . S
C22 O14 1.265 . S
O23 Tb0 2.479 . S
O23 C10 1.238 . S
O24 Tb0 2.471 . S
O24 C10 1.247 . S
C25 C28 1.380 . S
C25 C29 1.374 . S
C25 C31 1.507 . S
C26 C27 1.387 . S
C26 C30 1.391 . S
C27 C26 1.387 . S
C27 C28 1.384 . S
C27 H36 0.930 . S
C28 C25 1.380 . S
C28 C27 1.384 . S
C28 H37 0.931 . S
C29 C25 1.374 . S
C29 C30 1.390 . S
C29 H38 0.930 . S
C30 C26 1.391 . S
C30 C29 1.390 . S
C30 H39 0.930 . S
C31 Eu1 2.825 . S
C31 O16 1.238 . S
C31 O17 1.247 . S
C31 C25 1.507 . S
H32 C5 0.930 . S
H33 C6 0.931 . S
H34 C7 0.930 . S
H35 C8 0.930 . S
H36 C27 0.930 . S
H37 C28 0.931 . S
H38 C29 0.930 . S
H39 C30 0.930 . S
Tb40 C50 2.825 . S
Tb40 O51 2.347 . S
Tb40 O54 2.366 . S
Tb40 O59 2.418 . S
Tb40 O60 2.384 . S
Tb40 O63 2.479 . S
Tb40 O64 2.471 . S
Eu41 O52 2.418 . S
Eu41 O53 2.384 . S
Eu41 O56 2.479 . S
Eu41 O57 2.471 . S
Eu41 O58 2.347 . S
Eu41 O61 2.366 . S
Eu41 C71 2.825 . S
C42 O58 1.259 . S
C42 O59 1.265 . S
C43 O60 1.255 . S
C43 O61 1.265 . S
C44 C46 1.380 . S
C44 C47 1.374 . S
C44 C50 1.507 . S
C45 C46 1.384 . S
C45 C49 1.387 . S
C45 H72 0.930 . S
C46 C44 1.380 . S
C46 C45 1.384 . S
C46 H73 0.931 . S
C47 C44 1.374 . S
C47 C48 1.390 . S
C47 H74 0.930 . S
C48 C47 1.390 . S
C48 C49 1.391 . S
C48 H75 0.930 . S
C49 C45 1.387 . S
C49 C48 1.391 . S
C50 Tb40 2.825 . S
C50 C44 1.507 . S
C50 O63 1.238 . S
C50 O64 1.247 . S
O51 Tb40 2.347 . S
O51 C55 1.259 . S
O52 Eu41 2.418 . S
O52 C55 1.265 . S
O53 Eu41 2.384 . S
O53 C62 1.255 . S
O54 Tb40 2.366 . S
O54 C62 1.265 . S
C55 O51 1.259 . S
C55 O52 1.265 . S
O56 Eu41 2.479 . S
O56 C71 1.238 . S
O57 Eu41 2.471 . S
O57 C71 1.247 . S
O58 Eu41 2.347 . S
O58 C42 1.259 . S
O59 Tb40 2.418 . S
O59 C42 1.265 . S
O60 Tb40 2.384 . S
O60 C43 1.255 . S
O61 Eu41 2.366 . S
O61 C43 1.265 . S
C62 O53 1.255 . S
C62 O54 1.265 . S
O63 Tb40 2.479 . S
O63 C50 1.238 . S
O64 Tb40 2.471 . S
O64 C50 1.247 . S
C65 C68 1.380 . S
C65 C69 1.374 . S
C65 C71 1.507 . S
C66 C67 1.387 . S
C66 C70 1.391 . S
C67 C66 1.387 . S
C67 C68 1.384 . S
C67 H76 0.930 . S
C68 C65 1.380 . S
C68 C67 1.384 . S
C68 H77 0.931 . S
C69 C65 1.374 . S
C69 C70 1.390 . S
C69 H78 0.930 . S
C70 C66 1.391 . S
C70 C69 1.390 . S
C70 H79 0.930 . S
C71 Eu41 2.825 . S
C71 O56 1.238 . S
C71 O57 1.247 . S
C71 C65 1.507 . S
H72 C45 0.930 . S
H73 C46 0.931 . S
H74 C47 0.930 . S
H75 C48 0.930 . S
H76 C67 0.930 . S
H77 C68 0.931 . S
H78 C69 0.930 . S
H79 C70 0.930 . S
Tb80 C90 2.825 . S
Tb80 O91 2.347 . S
Tb80 O94 2.366 . S
Tb80 O99 2.418 . S
Tb80 O100 2.384 . S
Tb80 O103 2.479 . S
Tb80 O104 2.471 . S
Eu81 O92 2.418 . S
Eu81 O93 2.384 . S
Eu81 O96 2.479 . S
Eu81 O97 2.471 . S
Eu81 O98 2.347 . S
Eu81 O101 2.366 . S
Eu81 C111 2.825 . S
C82 O98 1.259 . S
C82 O99 1.265 . S
C83 O100 1.255 . S
C83 O101 1.265 . S
C84 C86 1.380 . S
C84 C87 1.374 . S
C84 C90 1.507 . S
C85 C86 1.384 . S
C85 C89 1.387 . S
C85 H112 0.930 . S
C86 C84 1.380 . S
C86 C85 1.384 . S
C86 H113 0.931 . S
C87 C84 1.374 . S
C87 C88 1.390 . S
C87 H114 0.930 . S
C88 C87 1.390 . S
C88 C89 1.391 . S
C88 H115 0.930 . S
C89 C85 1.387 . S
C89 C88 1.391 . S
C90 Tb80 2.825 . S
C90 C84 1.507 . S
C90 O103 1.238 . S
C90 O104 1.247 . S
O91 Tb80 2.347 . S
O91 C95 1.259 . S
O92 Eu81 2.418 . S
O92 C95 1.265 . S
O93 Eu81 2.384 . S
O93 C102 1.255 . S
O94 Tb80 2.366 . S
O94 C102 1.265 . S
C95 O91 1.259 . S
C95 O92 1.265 . S
O96 Eu81 2.479 . S
O96 C111 1.238 . S
O97 Eu81 2.471 . S
O97 C111 1.247 . S
O98 Eu81 2.347 . S
O98 C82 1.259 . S
O99 Tb80 2.418 . S
O99 C82 1.265 . S
O100 Tb80 2.384 . S
O100 C83 1.255 . S
O101 Eu81 2.366 . S
O101 C83 1.265 . S
C102 O93 1.255 . S
C102 O94 1.265 . S
O103 Tb80 2.479 . S
O103 C90 1.238 . S
O104 Tb80 2.471 . S
O104 C90 1.247 . S
C105 C108 1.380 . S
C105 C109 1.374 . S
C105 C111 1.507 . S
C106 C107 1.387 . S
C106 C110 1.391 . S
C107 C106 1.387 . S
C107 C108 1.384 . S
C107 H116 0.930 . S
C108 C105 1.380 . S
C108 C107 1.384 . S
C108 H117 0.931 . S
C109 C105 1.374 . S
C109 C110 1.390 . S
C109 H118 0.930 . S
C110 C106 1.391 . S
C110 C109 1.390 . S
C110 H119 0.930 . S
C111 Eu81 2.825 . S
C111 O96 1.238 . S
C111 O97 1.247 . S
C111 C105 1.507 . S
H112 C85 0.930 . S
H113 C86 0.931 . S
H114 C87 0.930 . S
H115 C88 0.930 . S
H116 C107 0.930 . S
H117 C108 0.931 . S
H118 C109 0.930 . S
H119 C110 0.930 . S
Tb120 C130 2.825 . S
Tb120 O131 2.347 . S
Tb120 O134 2.366 . S
Tb120 O139 2.418 . S
Tb120 O140 2.384 . S
Tb120 O143 2.479 . S
Tb120 O144 2.471 . S
Eu121 O132 2.418 . S
Eu121 O133 2.384 . S
Eu121 O136 2.479 . S
Eu121 O137 2.471 . S
Eu121 O138 2.347 . S
Eu121 O141 2.366 . S
Eu121 C151 2.825 . S
C122 O138 1.259 . S
C122 O139 1.265 . S
C123 O140 1.255 . S
C123 O141 1.265 . S
C124 C126 1.380 . S
C124 C127 1.374 . S
C124 C130 1.507 . S
C125 C126 1.384 . S
C125 C129 1.387 . S
C125 H152 0.930 . S
C126 C124 1.380 . S
C126 C125 1.384 . S
C126 H153 0.931 . S
C127 C124 1.374 . S
C127 C128 1.390 . S
C127 H154 0.930 . S
C128 C127 1.390 . S
C128 C129 1.391 . S
C128 H155 0.930 . S
C129 C125 1.387 . S
C129 C128 1.391 . S
C130 Tb120 2.825 . S
C130 C124 1.507 . S
C130 O143 1.238 . S
C130 O144 1.247 . S
O131 Tb120 2.347 . S
O131 C135 1.259 . S
O132 Eu121 2.418 . S
O132 C135 1.265 . S
O133 Eu121 2.384 . S
O133 C142 1.255 . S
O134 Tb120 2.366 . S
O134 C142 1.265 . S
C135 O131 1.259 . S
C135 O132 1.265 . S
O136 Eu121 2.479 . S
O136 C151 1.238 . S
O137 Eu121 2.471 . S
O137 C151 1.247 . S
O138 Eu121 2.347 . S
O138 C122 1.259 . S
O139 Tb120 2.418 . S
O139 C122 1.265 . S
O140 Tb120 2.384 . S
O140 C123 1.255 . S
O141 Eu121 2.366 . S
O141 C123 1.265 . S
C142 O133 1.255 . S
C142 O134 1.265 . S
O143 Tb120 2.479 . S
O143 C130 1.238 . S
O144 Tb120 2.471 . S
O144 C130 1.247 . S
C145 C148 1.380 . S
C145 C149 1.374 . S
C145 C151 1.507 . S
C146 C147 1.387 . S
C146 C150 1.391 . S
C147 C146 1.387 . S
C147 C148 1.384 . S
C147 H156 0.930 . S
C148 C145 1.380 . S
C148 C147 1.384 . S
C148 H157 0.931 . S
C149 C145 1.374 . S
C149 C150 1.390 . S
C149 H158 0.930 . S
C150 C146 1.391 . S
C150 C149 1.390 . S
C150 H159 0.930 . S
C151 Eu121 2.825 . S
C151 O136 1.238 . S
C151 O137 1.247 . S
C151 C145 1.507 . S
H152 C125 0.930 . S
H153 C126 0.931 . S
H154 C127 0.930 . S
H155 C128 0.930 . S
H156 C147 0.930 . S
H157 C148 0.931 . S
H158 C149 0.930 . S
H159 C150 0.930 . S
Tb160 C170 2.825 . S
Tb160 O171 2.347 . S
Tb160 O174 2.366 . S
Tb160 O179 2.418 . S
Tb160 O180 2.384 . S
Tb160 O183 2.479 . S
Tb160 O184 2.471 . S
Eu161 O172 2.418 . S
Eu161 O173 2.384 . S
Eu161 O176 2.479 . S
Eu161 O177 2.471 . S
Eu161 O178 2.347 . S
Eu161 O181 2.366 . S
Eu161 C191 2.825 . S
C162 O178 1.259 . S
C162 O179 1.265 . S
C163 O180 1.255 . S
C163 O181 1.265 . S
C164 C166 1.380 . S
C164 C167 1.374 . S
C164 C170 1.507 . S
C165 C166 1.384 . S
C165 C169 1.387 . S
C165 H192 0.930 . S
C166 C164 1.380 . S
C166 C165 1.384 . S
C166 H193 0.931 . S
C167 C164 1.374 . S
C167 C168 1.390 . S
C167 H194 0.930 . S
C168 C167 1.390 . S
C168 C169 1.391 . S
C168 H195 0.930 . S
C169 C165 1.387 . S
C169 C168 1.391 . S
C170 Tb160 2.825 . S
C170 C164 1.507 . S
C170 O183 1.238 . S
C170 O184 1.247 . S
O171 Tb160 2.347 . S
O171 C175 1.259 . S
O172 Eu161 2.418 . S
O172 C175 1.265 . S
O173 Eu161 2.384 . S
O173 C182 1.255 . S
O174 Tb160 2.366 . S
O174 C182 1.265 . S
C175 O171 1.259 . S
C175 O172 1.265 . S
O176 Eu161 2.479 . S
O176 C191 1.238 . S
O177 Eu161 2.471 . S
O177 C191 1.247 . S
O178 Eu161 2.347 . S
O178 C162 1.259 . S
O179 Tb160 2.418 . S
O179 C162 1.265 . S
O180 Tb160 2.384 . S
O180 C163 1.255 . S
O181 Eu161 2.366 . S
O181 C163 1.265 . S
C182 O173 1.255 . S
C182 O174 1.265 . S
O183 Tb160 2.479 . S
O183 C170 1.238 . S
O184 Tb160 2.471 . S
O184 C170 1.247 . S
C185 C188 1.380 . S
C185 C189 1.374 . S
C185 C191 1.507 . S
C186 C187 1.387 . S
C186 C190 1.391 . S
C187 C186 1.387 . S
C187 C188 1.384 . S
C187 H196 0.930 . S
C188 C185 1.380 . S
C188 C187 1.384 . S
C188 H197 0.931 . S
C189 C185 1.374 . S
C189 C190 1.390 . S
C189 H198 0.930 . S
C190 C186 1.391 . S
C190 C189 1.390 . S
C190 H199 0.930 . S
C191 Eu161 2.825 . S
C191 O176 1.238 . S
C191 O177 1.247 . S
C191 C185 1.507 . S
H192 C165 0.930 . S
H193 C166 0.931 . S
H194 C167 0.930 . S
H195 C168 0.930 . S
H196 C187 0.930 . S
H197 C188 0.931 . S
H198 C189 0.930 . S
H199 C190 0.930 . S
Tb200 C210 2.825 . S
Tb200 O211 2.347 . S
Tb200 O214 2.366 . S
Tb200 O219 2.418 . S
Tb200 O220 2.384 . S
Tb200 O223 2.479 . S
Tb200 O224 2.471 . S
Eu201 O212 2.418 . S
Eu201 O213 2.384 . S
Eu201 O216 2.479 . S
Eu201 O217 2.471 . S
Eu201 O218 2.347 . S
Eu201 O221 2.366 . S
Eu201 C231 2.825 . S
C202 O218 1.259 . S
C202 O219 1.265 . S
C203 O220 1.255 . S
C203 O221 1.265 . S
C204 C206 1.380 . S
C204 C207 1.374 . S
C204 C210 1.507 . S
C205 C206 1.384 . S
C205 C209 1.387 . S
C205 H232 0.930 . S
C206 C204 1.380 . S
C206 C205 1.384 . S
C206 H233 0.931 . S
C207 C204 1.374 . S
C207 C208 1.390 . S
C207 H234 0.930 . S
C208 C207 1.390 . S
C208 C209 1.391 . S
C208 H235 0.930 . S
C209 C205 1.387 . S
C209 C208 1.391 . S
C210 Tb200 2.825 . S
C210 C204 1.507 . S
C210 O223 1.238 . S
C210 O224 1.247 . S
O211 Tb200 2.347 . S
O211 C215 1.259 . S
O212 Eu201 2.418 . S
O212 C215 1.265 . S
O213 Eu201 2.384 . S
O213 C222 1.255 . S
O214 Tb200 2.366 . S
O214 C222 1.265 . S
C215 O211 1.259 . S
C215 O212 1.265 . S
O216 Eu201 2.479 . S
O216 C231 1.238 . S
O217 Eu201 2.471 . S
O217 C231 1.247 . S
O218 Eu201 2.347 . S
O218 C202 1.259 . S
O219 Tb200 2.418 . S
O219 C202 1.265 . S
O220 Tb200 2.384 . S
O220 C203 1.255 . S
O221 Eu201 2.366 . S
O221 C203 1.265 . S
C222 O213 1.255 . S
C222 O214 1.265 . S
O223 Tb200 2.479 . S
O223 C210 1.238 . S
O224 Tb200 2.471 . S
O224 C210 1.247 . S
C225 C228 1.380 . S
C225 C229 1.374 . S
C225 C231 1.507 . S
C226 C227 1.387 . S
C226 C230 1.391 . S
C227 C226 1.387 . S
C227 C228 1.384 . S
C227 H236 0.930 . S
C228 C225 1.380 . S
C228 C227 1.384 . S
C228 H237 0.931 . S
C229 C225 1.374 . S
C229 C230 1.390 . S
C229 H238 0.930 . S
C230 C226 1.391 . S
C230 C229 1.390 . S
C230 H239 0.930 . S
C231 Eu201 2.825 . S
C231 O216 1.238 . S
C231 O217 1.247 . S
C231 C225 1.507 . S
H232 C205 0.930 . S
H233 C206 0.931 . S
H234 C207 0.930 . S
H235 C208 0.930 . S
H236 C227 0.930 . S
H237 C228 0.931 . S
H238 C229 0.930 . S
H239 C230 0.930 . S
Tb240 C250 2.825 . S
Tb240 O251 2.347 . S
Tb240 O254 2.366 . S
Tb240 O259 2.418 . S
Tb240 O260 2.384 . S
Tb240 O263 2.479 . S
Tb240 O264 2.471 . S
Eu241 O252 2.418 . S
Eu241 O253 2.384 . S
Eu241 O256 2.479 . S
Eu241 O257 2.471 . S
Eu241 O258 2.347 . S
Eu241 O261 2.366 . S
Eu241 C271 2.825 . S
C242 O258 1.259 . S
C242 O259 1.265 . S
C243 O260 1.255 . S
C243 O261 1.265 . S
C244 C246 1.380 . S
C244 C247 1.374 . S
C244 C250 1.507 . S
C245 C246 1.384 . S
C245 C249 1.387 . S
C245 H272 0.930 . S
C246 C244 1.380 . S
C246 C245 1.384 . S
C246 H273 0.931 . S
C247 C244 1.374 . S
C247 C248 1.390 . S
C247 H274 0.930 . S
C248 C247 1.390 . S
C248 C249 1.391 . S
C248 H275 0.930 . S
C249 C245 1.387 . S
C249 C248 1.391 . S
C250 Tb240 2.825 . S
C250 C244 1.507 . S
C250 O263 1.238 . S
C250 O264 1.247 . S
O251 Tb240 2.347 . S
O251 C255 1.259 . S
O252 Eu241 2.418 . S
O252 C255 1.265 . S
O253 Eu241 2.384 . S
O253 C262 1.255 . S
O254 Tb240 2.366 . S
O254 C262 1.265 . S
C255 O251 1.259 . S
C255 O252 1.265 . S
O256 Eu241 2.479 . S
O256 C271 1.238 . S
O257 Eu241 2.471 . S
O257 C271 1.247 . S
O258 Eu241 2.347 . S
O258 C242 1.259 . S
O259 Tb240 2.418 . S
O259 C242 1.265 . S
O260 Tb240 2.384 . S
O260 C243 1.255 . S
O261 Eu241 2.366 . S
O261 C243 1.265 . S
C262 O253 1.255 . S
C262 O254 1.265 . S
O263 Tb240 2.479 . S
O263 C250 1.238 . S
O264 Tb240 2.471 . S
O264 C250 1.247 . S
C265 C268 1.380 . S
C265 C269 1.374 . S
C265 C271 1.507 . S
C266 C267 1.387 . S
C266 C270 1.391 . S
C267 C266 1.387 . S
C267 C268 1.384 . S
C267 H276 0.930 . S
C268 C265 1.380 . S
C268 C267 1.384 . S
C268 H277 0.931 . S
C269 C265 1.374 . S
C269 C270 1.390 . S
C269 H278 0.930 . S
C270 C266 1.391 . S
C270 C269 1.390 . S
C270 H279 0.930 . S
C271 Eu241 2.825 . S
C271 O256 1.238 . S
C271 O257 1.247 . S
C271 C265 1.507 . S
H272 C245 0.930 . S
H273 C246 0.931 . S
H274 C247 0.930 . S
H275 C248 0.930 . S
H276 C267 0.930 . S
H277 C268 0.931 . S
H278 C269 0.930 . S
H279 C270 0.930 . S
Tb280 C290 2.825 . S
Tb280 O291 2.347 . S
Tb280 O294 2.366 . S
Tb280 O299 2.418 . S
Tb280 O300 2.384 . S
Tb280 O303 2.479 . S
Tb280 O304 2.471 . S
Eu281 O292 2.418 . S
Eu281 O293 2.384 . S
Eu281 O296 2.479 . S
Eu281 O297 2.471 . S
Eu281 O298 2.347 . S
Eu281 O301 2.366 . S
Eu281 C311 2.825 . S
C282 O298 1.259 . S
C282 O299 1.265 . S
C283 O300 1.255 . S
C283 O301 1.265 . S
C284 C286 1.380 . S
C284 C287 1.374 . S
C284 C290 1.507 . S
C285 C286 1.384 . S
C285 C289 1.387 . S
C285 H312 0.930 . S
C286 C284 1.380 . S
C286 C285 1.384 . S
C286 H313 0.931 . S
C287 C284 1.374 . S
C287 C288 1.390 . S
C287 H314 0.930 . S
C288 C287 1.390 . S
C288 C289 1.391 . S
C288 H315 0.930 . S
C289 C285 1.387 . S
C289 C288 1.391 . S
C290 Tb280 2.825 . S
C290 C284 1.507 . S
C290 O303 1.238 . S
C290 O304 1.247 . S
O291 Tb280 2.347 . S
O291 C295 1.259 . S
O292 Eu281 2.418 . S
O292 C295 1.265 . S
O293 Eu281 2.384 . S
O293 C302 1.255 . S
O294 Tb280 2.366 . S
O294 C302 1.265 . S
C295 O291 1.259 . S
C295 O292 1.265 . S
O296 Eu281 2.479 . S
O296 C311 1.238 . S
O297 Eu281 2.471 . S
O297 C311 1.247 . S
O298 Eu281 2.347 . S
O298 C282 1.259 . S
O299 Tb280 2.418 . S
O299 C282 1.265 . S
O300 Tb280 2.384 . S
O300 C283 1.255 . S
O301 Eu281 2.366 . S
O301 C283 1.265 . S
C302 O293 1.255 . S
C302 O294 1.265 . S
O303 Tb280 2.479 . S
O303 C290 1.238 . S
O304 Tb280 2.471 . S
O304 C290 1.247 . S
C305 C308 1.380 . S
C305 C309 1.374 . S
C305 C311 1.507 . S
C306 C307 1.387 . S
C306 C310 1.391 . S
C307 C306 1.387 . S
C307 C308 1.384 . S
C307 H316 0.930 . S
C308 C305 1.380 . S
C308 C307 1.384 . S
C308 H317 0.931 . S
C309 C305 1.374 . S
C309 C310 1.390 . S
C309 H318 0.930 . S
C310 C306 1.391 . S
C310 C309 1.390 . S
C310 H319 0.930 . S
C311 Eu281 2.825 . S
C311 O296 1.238 . S
C311 O297 1.247 . S
C311 C305 1.507 . S
H312 C285 0.930 . S
H313 C286 0.931 . S
H314 C287 0.930 . S
H315 C288 0.930 . S
H316 C307 0.930 . S
H317 C308 0.931 . S
H318 C309 0.930 . S
H319 C310 0.930 . S
Co320 O323 2.042 . S
Co320 O330 2.264 . S
Co320 O349 2.286 . S
Co320 O350 2.069 . S
Co320 O352 2.015 1_455 S
Co321 O323 2.122 . S
Co321 O329 2.073 . S
Co321 O330 2.327 . S
Co321 O331 1.976 1_455 S
Co322 O323 2.087 1_545 S
Co322 O325 2.087 1_455 S
Co322 O332 2.111 1_445 S
Co322 O333 2.143 . S
Co322 O337 2.111 . S
Co322 O351 2.143 1_445 S
O323 Co320 2.042 . S
O323 Co321 2.122 . S
O323 Co322 2.087 1_565 S
O323 H324 0.980 1_565 S
H324 O323 0.980 1_545 S
O325 Co322 2.087 1_655 S
O325 Co326 2.042 . S
O325 Co327 2.122 . S
O325 H328 0.980 . S
Co326 O325 2.042 . S
Co326 O334 2.286 . S
Co326 O335 2.069 . S
Co326 O336 2.015 1_655 S
Co326 O339 2.264 . S
Co327 O325 2.122 . S
Co327 O338 1.976 1_655 S
Co327 O339 2.327 . S
Co327 O340 2.073 . S
H328 O325 0.980 . S
O329 Co321 2.073 . S
O329 C344 1.245 . S
O330 Co320 2.264 . S
O330 Co321 2.327 . S
O330 C344 1.257 . S
O331 Co321 1.976 1_655 S
O331 C343 1.251 . S
O332 Co322 2.111 1_665 S
O332 C343 1.274 . S
O333 Co322 2.143 . S
O333 C346 1.246 . S
O334 Co326 2.286 . S
O334 C345 1.259 . S
O335 Co326 2.069 . S
O335 C345 1.289 . S
O336 Co326 2.015 1_455 S
O336 C346 1.257 . S
O337 Co322 2.111 . S
O337 C347 1.274 . S
O338 Co327 1.976 1_455 S
O338 C347 1.251 . S
O339 Co326 2.264 . S
O339 Co327 2.327 . S
O339 C348 1.257 . S
O340 Co327 2.073 . S
O340 C348 1.245 . S
C341 O349 1.259 . S
C341 O350 1.289 . S
C342 O351 1.246 . S
C342 O352 1.257 . S
C343 O331 1.251 . S
C343 O332 1.274 . S
C344 O329 1.245 . S
C344 O330 1.257 . S
C345 O334 1.259 . S
C345 O335 1.289 . S
C346 O333 1.246 . S
C346 O336 1.257 . S
C347 O337 1.274 . S
C347 O338 1.251 . S
C348 O339 1.257 . S
C348 O340 1.245 . S
O349 Co320 2.286 . S
O349 C341 1.259 . S
O350 Co320 2.069 . S
O350 C341 1.289 . S
O351 Co322 2.143 1_665 S
O351 C342 1.246 . S
O352 Co320 2.015 1_655 S
O352 C342 1.257 . S
Co353 O356 2.042 . S
Co353 O363 2.264 . S
Co353 O382 2.286 1_554 S
Co353 O383 2.069 . S
Co353 O385 2.015 . S
Co354 O356 2.122 . S
Co354 O362 2.073 . S
Co354 O363 2.327 . S
Co354 O364 1.976 . S
Co355 O356 2.087 1_545 S
Co355 O358 2.087 . S
Co355 O365 2.111 1_545 S
Co355 O366 2.143 . S
Co355 O370 2.111 . S
Co355 O384 2.143 1_545 S
O356 Co353 2.042 . S
O356 Co354 2.122 . S
O356 Co355 2.087 1_565 S
O356 H357 0.980 . S
H357 O356 0.980 . S
O358 Co355 2.087 . S
O358 Co359 2.042 . S
O358 Co360 2.122 1_554 S
O358 H361 0.980 . S
Co359 O358 2.042 . S
Co359 O367 2.286 . S
Co359 O368 2.069 . S
Co359 O369 2.015 . S
Co359 O372 2.264 . S
Co360 O358 2.122 1_556 S
Co360 O371 1.976 . S
Co360 O372 2.327 1_556 S
Co360 O373 2.073 . S
H361 O358 0.980 . S
O362 Co354 2.073 . S
O362 C377 1.245 . S
O363 Co353 2.264 . S
O363 Co354 2.327 . S
O363 C377 1.257 . S
O364 Co354 1.976 . S
O364 C376 1.251 . S
O365 Co355 2.111 1_565 S
O365 C376 1.274 . S
O366 Co355 2.143 . S
O366 C379 1.246 . S
O367 Co359 2.286 . S
O367 C378 1.259 . S
O368 Co359 2.069 . S
O368 C378 1.289 . S
O369 Co359 2.015 . S
O369 C379 1.257 . S
O370 Co355 2.111 . S
O370 C380 1.273 1_554 S
O371 Co360 1.976 . S
O371 C380 1.252 . S
O372 Co359 2.264 . S
O372 Co360 2.327 1_554 S
O372 C381 1.257 . S
O373 Co360 2.073 . S
O373 C381 1.245 1_556 S
C374 O382 1.259 . S
C374 O383 1.289 1_556 S
C375 O384 1.246 1_556 S
C375 O385 1.257 1_556 S
C376 O364 1.251 . S
C376 O365 1.274 . S
C377 O362 1.245 . S
C377 O363 1.257 . S
C378 O367 1.259 . S
C378 O368 1.289 . S
C379 O366 1.246 . S
C379 O369 1.257 . S
C380 O370 1.273 1_556 S
C380 O371 1.252 . S
C381 O372 1.257 . S
C381 O373 1.245 1_554 S
O382 Co353 2.286 1_556 S
O382 C374 1.259 . S
O383 Co353 2.069 . S
O383 C374 1.289 1_554 S
O384 Co355 2.143 1_565 S
O384 C375 1.246 1_554 S
O385 Co353 2.015 . S
O385 C375 1.257 1_554 S
Co386 O389 2.042 1_556 S
Co386 O396 2.264 1_556 S
Co386 O415 2.286 . S
Co386 O416 2.069 . S
Co386 O418 2.015 . S
Co387 O389 2.122 . S
Co387 O395 2.073 . S
Co387 O396 2.327 . S
Co387 O397 1.976 . S
Co388 O389 2.087 . S
Co388 O391 2.087 1_554 S
Co388 O398 2.093 1_455 S
Co388 O399 2.143 . S
Co388 O403 2.111 1_554 S
Co388 O417 2.156 1_554 S
O389 Co386 2.042 1_554 S
O389 Co387 2.122 . S
O389 Co388 2.087 . S
O389 H390 0.980 . S
H390 O389 0.980 . S
O391 Co388 2.087 1_556 S
O391 Co392 2.042 1_556 S
O391 Co393 2.122 . S
O391 H394 0.980 1_455 S
Co392 O391 2.042 1_554 S
Co392 O400 2.286 . S
Co392 O401 2.069 1_455 S
Co392 O402 2.015 . S
Co392 O405 2.264 1_554 S
Co393 O391 2.122 . S
Co393 O404 1.976 . S
Co393 O405 2.327 . S
Co393 O406 2.073 1_455 S
H394 O391 0.980 1_655 S
O395 Co387 2.073 . S
O395 C410 1.245 . S
O396 Co386 2.264 1_554 S
O396 Co387 2.327 . S
O396 C410 1.257 . S
O397 Co387 1.976 . S
O397 C409 1.251 1_455 S
O398 Co388 2.093 1_655 S
O398 C409 1.272 . S
O399 Co388 2.143 . S
O399 C412 1.246 . S
O400 Co392 2.286 . S
O400 C411 1.259 1_455 S
O401 Co392 2.069 1_655 S
O401 C411 1.289 . S
O402 Co392 2.015 . S
O402 C412 1.257 . S
O403 Co388 2.111 1_556 S
O403 C413 1.274 . S
O404 Co393 1.976 . S
O404 C413 1.251 . S
O405 Co392 2.264 1_556 S
O405 Co393 2.327 . S
O405 C414 1.257 1_455 S
O406 Co393 2.073 1_655 S
O406 C414 1.245 . S
C407 O415 1.259 . S
C407 O416 1.289 . S
C408 O417 1.250 1_655 S
C408 O418 1.257 1_655 S
C409 O397 1.251 1_655 S
C409 O398 1.272 . S
C410 O395 1.245 . S
C410 O396 1.257 . S
C411 O400 1.259 1_655 S
C411 O401 1.289 . S
C412 O399 1.246 . S
C412 O402 1.257 . S
C413 O403 1.274 . S
C413 O404 1.251 . S
C414 O405 1.257 1_655 S
C414 O406 1.245 . S
O415 Co386 2.286 . S
O415 C407 1.259 . S
O416 Co386 2.069 . S
O416 C407 1.289 . S
O417 Co388 2.156 1_556 S
O417 C408 1.250 1_455 S
O418 Co386 2.015 . S
O418 C408 1.257 1_455 S
Co419 O422 2.042 1_556 S
Co419 O429 2.263 1_556 S
Co419 O448 2.287 . S
Co419 O449 2.069 . S
Co419 O451 2.015 . S
Co420 O422 2.122 . S
Co420 O428 2.073 . S
Co420 O429 2.327 . S
Co420 O430 1.976 . S
Co421 O422 2.087 . S
Co421 O424 2.087 . S
Co421 O431 2.111 . S
Co421 O432 2.143 . S
Co421 O436 2.111 1_554 S
Co421 O450 2.143 1_554 S
O422 Co419 2.042 1_554 S
O422 Co420 2.122 . S
O422 Co421 2.087 . S
O422 H423 0.980 . S
H423 O422 0.980 . S
O424 Co421 2.087 . S
O424 Co425 2.042 . S
O424 Co426 2.122 1_554 S
O424 H427 0.980 . S
Co425 O424 2.042 . S
Co425 O433 2.286 . S
Co425 O434 2.069 . S
Co425 O435 2.015 . S
Co425 O438 2.264 1_554 S
Co426 O424 2.122 1_556 S
Co426 O437 1.976 . S
Co426 O438 2.327 . S
Co426 O439 2.073 . S
H427 O424 0.980 . S
O428 Co420 2.073 . S
O428 C443 1.245 . S
O429 Co419 2.263 1_554 S
O429 Co420 2.327 . S
O429 C443 1.257 . S
O430 Co420 1.976 . S
O430 C442 1.251 . S
O431 Co421 2.111 . S
O431 C442 1.274 . S
O432 Co421 2.143 . S
O432 C445 1.246 . S
O433 Co425 2.286 . S
O433 C444 1.259 . S
O434 Co425 2.069 . S
O434 C444 1.289 . S
O435 Co425 2.015 . S
O435 C445 1.257 . S
O436 Co421 2.111 1_556 S
O436 C446 1.274 . S
O437 Co426 1.976 . S
O437 C446 1.251 . S
O438 Co425 2.264 1_556 S
O438 Co426 2.327 . S
O438 C447 1.257 . S
O439 Co426 2.073 . S
O439 C447 1.245 . S
C440 O448 1.259 . S
C440 O449 1.289 . S
C441 O450 1.246 . S
C441 O451 1.257 . S
C442 O430 1.251 . S
C442 O431 1.274 . S
C443 O428 1.245 . S
C443 O429 1.257 . S
C444 O433 1.259 . S
C444 O434 1.289 . S
C445 O432 1.246 . S
C445 O435 1.257 . S
C446 O436 1.274 . S
C446 O437 1.251 . S
C447 O438 1.257 . S
C447 O439 1.245 . S
O448 Co419 2.287 . S
O448 C440 1.259 . S
O449 Co419 2.069 . S
O449 C440 1.289 . S
O450 Co421 2.143 1_556 S
O450 C441 1.246 . S
O451 Co419 2.015 . S
O451 C441 1.257 . S
Co452 O455 2.042 . S
Co452 O462 2.264 . S
Co452 O481 2.286 . S
Co452 O482 2.069 . S
Co452 O484 2.015 . S
Co453 O455 2.122 . S
Co453 O461 2.073 . S
Co453 O462 2.327 . S
Co453 O463 1.976 . S
Co454 O455 2.087 . S
Co454 O457 2.087 1_455 S
Co454 O464 2.111 . S
Co454 O465 2.143 1_455 S
Co454 O469 2.111 1_455 S
Co454 O483 2.143 . S
O455 Co452 2.042 . S
O455 Co453 2.122 . S
O455 Co454 2.087 . S
O455 H456 0.980 . S
H456 O455 0.980 . S
O457 Co454 2.087 1_655 S
O457 Co458 2.042 . S
O457 Co459 2.122 . S
O457 H460 0.980 . S
Co458 O457 2.042 . S
Co458 O466 2.286 . S
Co458 O467 2.069 . S
Co458 O468 2.015 . S
Co458 O471 2.264 . S
Co459 O457 2.122 . S
Co459 O470 1.976 . S
Co459 O471 2.327 . S
Co459 O472 2.073 . S
H460 O457 0.980 . S
O461 Co453 2.073 . S
O461 C476 1.245 . S
O462 Co452 2.264 . S
O462 Co453 2.327 . S
O462 C476 1.257 . S
O463 Co453 1.976 . S
O463 C475 1.251 . S
O464 Co454 2.111 . S
O464 C475 1.274 . S
O465 Co454 2.143 1_655 S
O465 C478 1.246 . S
O466 Co458 2.286 . S
O466 C477 1.259 . S
O467 Co458 2.069 . S
O467 C477 1.289 . S
O468 Co458 2.015 . S
O468 C478 1.257 . S
O469 Co454 2.111 1_655 S
O469 C479 1.274 . S
O470 Co459 1.976 . S
O470 C479 1.251 . S
O471 Co458 2.264 . S
O471 Co459 2.327 . S
O471 C480 1.257 . S
O472 Co459 2.073 . S
O472 C480 1.245 . S
C473 O481 1.259 . S
C473 O482 1.289 . S
C474 O483 1.246 . S
C474 O484 1.257 . S
C475 O463 1.251 . S
C475 O464 1.274 . S
C476 O461 1.245 . S
C476 O462 1.257 . S
C477 O466 1.259 . S
C477 O467 1.289 . S
C478 O465 1.246 . S
C478 O468 1.257 . S
C479 O469 1.274 . S
C479 O470 1.251 . S
C480 O471 1.257 . S
C480 O472 1.245 . S
O481 Co452 2.286 . S
O481 C473 1.259 . S
O482 Co452 2.069 . S
O482 C473 1.289 . S
O483 Co454 2.143 . S
O483 C474 1.246 . S
O484 Co452 2.015 . S
O484 C474 1.257 . S
Co485 O488 2.042 . S
Co485 O495 2.264 . S
Co485 O514 2.286 . S
Co485 O515 2.069 1_545 S
Co485 O517 2.015 . S
Co486 O488 2.122 . S
Co486 O494 2.073 1_545 S
Co486 O495 2.327 . S
Co486 O496 1.976 . S
Co487 O488 2.087 . S
Co487 O490 2.087 . S
Co487 O497 2.111 . S
Co487 O498 2.143 1_545 S
Co487 O502 2.111 1_545 S
Co487 O516 2.143 . S
O488 Co485 2.042 . S
O488 Co486 2.122 . S
O488 Co487 2.087 . S
O488 H489 0.980 1_545 S
H489 O488 0.980 1_565 S
O490 Co487 2.087 . S
O490 Co491 2.042 . S
O490 Co492 2.122 . S
O490 H493 0.980 . S
Co491 O490 2.042 . S
Co491 O499 2.286 . S
Co491 O500 2.069 . S
Co491 O501 2.015 . S
Co491 O504 2.264 . S
Co492 O490 2.122 . S
Co492 O503 1.976 . S
Co492 O504 2.327 . S
Co492 O505 2.073 . S
H493 O490 0.980 . S
O494 Co486 2.073 1_565 S
O494 C509 1.245 . S
O495 Co485 2.264 . S
O495 Co486 2.327 . S
O495 C509 1.257 1_545 S
O496 Co486 1.976 . S
O496 C508 1.251 . S
O497 Co487 2.111 . S
O497 C508 1.274 . S
O498 Co487 2.143 1_565 S
O498 C511 1.246 . S
O499 Co491 2.286 . S
O499 C510 1.259 . S
O500 Co491 2.069 . S
O500 C510 1.289 . S
O501 Co491 2.015 . S
O501 C511 1.257 1_545 S
O502 Co487 2.111 1_565 S
O502 C512 1.274 . S
O503 Co492 1.976 . S
O503 C512 1.251 1_545 S
O504 Co491 2.264 . S
O504 Co492 2.327 . S
O504 C513 1.257 . S
O505 Co492 2.073 . S
O505 C513 1.245 . S
C506 O514 1.259 1_565 S
C506 O515 1.289 . S
C507 O516 1.246 . S
C507 O517 1.257 . S
C508 O496 1.251 . S
C508 O497 1.274 . S
C509 O494 1.245 . S
C509 O495 1.257 1_565 S
C510 O499 1.259 . S
C510 O500 1.289 . S
C511 O498 1.246 . S
C511 O501 1.257 1_565 S
C512 O502 1.274 . S
C512 O503 1.251 1_565 S
C513 O504 1.257 . S
C513 O505 1.245 . S
O514 Co485 2.286 . S
O514 C506 1.259 1_545 S
O515 Co485 2.069 1_565 S
O515 C506 1.289 . S
O516 Co487 2.143 . S
O516 C507 1.246 . S
O517 Co485 2.015 . S
O517 C507 1.257 . S
H518 C526 0.950 . S
H519 C531 0.950 . S
H520 C528 0.950 . S
H521 C530 0.950 . S
H522 C532 0.950 . S
H523 C534 0.950 . S
H524 C536 0.950 . S
H525 C537 0.950 . S
C526 H518 0.950 . S
C526 C527 1.386 . S
C526 C528 1.391 . S
C527 C526 1.386 . S
C527 C531 1.393 . S
C528 H520 0.950 . S
C528 C526 1.391 . S
C528 C529 1.400 . S
C529 C528 1.400 . S
C529 C530 1.398 . S
C529 C535 1.491 . S
C530 H521 0.950 . S
C530 C529 1.398 . S
C530 C531 1.391 . S
C531 H519 0.950 . S
C531 C527 1.393 . S
C531 C530 1.391 . S
C532 H522 0.950 . S
C532 C533 1.386 . S
C532 C534 1.391 . S
C533 C532 1.386 . S
C533 C537 1.393 . S
C534 H523 0.950 . S
C534 C532 1.391 . S
C534 C535 1.400 . S
C535 C529 1.491 . S
C535 C534 1.400 . S
C535 C536 1.398 . S
C536 H524 0.950 . S
C536 C535 1.398 . S
C536 C537 1.391 . S
C537 H525 0.950 . S
C537 C533 1.393 . S
C537 C536 1.391 . S
H538 C546 0.950 . S
H539 C551 0.950 . S
H540 C548 0.950 . S
H541 C550 0.950 . S
H542 C552 0.950 . S
H543 C554 0.950 . S
H544 C556 0.950 . S
H545 C557 0.950 . S
C546 H538 0.950 . S
C546 C547 1.386 . S
C546 C548 1.391 . S
C547 C546 1.386 . S
C547 C551 1.393 . S
C548 H540 0.950 . S
C548 C546 1.391 . S
C548 C549 1.400 . S
C549 C548 1.400 . S
C549 C550 1.398 . S
C549 C555 1.491 . S
C550 H541 0.950 . S
C550 C549 1.398 . S
C550 C551 1.391 . S
C551 H539 0.950 . S
C551 C547 1.393 . S
C551 C550 1.391 . S
C552 H542 0.950 . S
C552 C553 1.386 . S
C552 C554 1.391 . S
C553 C552 1.386 . S
C553 C557 1.393 . S
C554 H543 0.950 . S
C554 C552 1.391 . S
C554 C555 1.400 . S
C555 C549 1.491 . S
C555 C554 1.400 . S
C555 C556 1.398 . S
C556 H544 0.950 . S
C556 C555 1.398 . S
C556 C557 1.391 . S
C557 H545 0.950 . S
C557 C553 1.393 . S
C557 C556 1.391 . S
H558 C566 0.950 . S
H559 C571 0.950 . S
H560 C568 0.950 . S
H561 C570 0.950 . S
H562 C572 0.950 . S
H563 C574 0.950 . S
H564 C576 0.950 . S
H565 C577 0.950 . S
C566 H558 0.950 . S
C566 C567 1.386 . S
C566 C568 1.391 . S
C567 C566 1.386 . S
C567 C571 1.393 . S
C568 H560 0.950 . S
C568 C566 1.391 . S
C568 C569 1.400 . S
C569 C568 1.400 . S
C569 C570 1.398 . S
C569 C575 1.491 . S
C570 H561 0.950 . S
C570 C569 1.398 . S
C570 C571 1.391 . S
C571 H559 0.950 . S
C571 C567 1.393 . S
C571 C570 1.391 . S
C572 H562 0.950 . S
C572 C573 1.386 . S
C572 C574 1.391 . S
C573 C572 1.386 . S
C573 C577 1.393 . S
C574 H563 0.950 . S
C574 C572 1.391 . S
C574 C575 1.400 . S
C575 C569 1.491 . S
C575 C574 1.400 . S
C575 C576 1.398 . S
C576 H564 0.950 . S
C576 C575 1.398 . S
C576 C577 1.391 . S
C577 H565 0.950 . S
C577 C573 1.393 . S
C577 C576 1.391 . S
H578 C586 0.950 . S
H579 C591 0.950 . S
H580 C588 0.950 . S
H581 C590 0.950 . S
H582 C592 0.950 . S
H583 C594 0.950 . S
H584 C596 0.950 . S
H585 C597 0.950 . S
C586 H578 0.950 . S
C586 C587 1.386 . S
C586 C588 1.391 . S
C587 C586 1.386 . S
C587 C591 1.393 . S
C588 H580 0.950 . S
C588 C586 1.391 . S
C588 C589 1.400 . S
C589 C588 1.400 . S
C589 C590 1.398 . S
C589 C595 1.491 . S
C590 H581 0.950 . S
C590 C589 1.398 . S
C590 C591 1.391 . S
C591 H579 0.950 . S
C591 C587 1.393 . S
C591 C590 1.391 . S
C592 H582 0.950 . S
C592 C593 1.386 . S
C592 C594 1.391 . S
C593 C592 1.386 . S
C593 C597 1.393 . S
C594 H583 0.950 . S
C594 C592 1.391 . S
C594 C595 1.400 . S
C595 C589 1.491 . S
C595 C594 1.400 . S
C595 C596 1.398 . S
C596 H584 0.950 . S
C596 C595 1.398 . S
C596 C597 1.391 . S
C597 H585 0.950 . S
C597 C593 1.393 . S
C597 C596 1.391 . S
H598 C606 0.950 . S
H599 C611 0.950 . S
H600 C608 0.950 . S
H601 C610 0.950 . S
H602 C612 0.950 . S
H603 C614 0.950 . S
H604 C616 0.950 . S
H605 C617 0.950 . S
C606 H598 0.950 . S
C606 C607 1.386 . S
C606 C608 1.391 . S
C607 C606 1.386 . S
C607 C611 1.393 . S
C608 H600 0.950 . S
C608 C606 1.391 . S
C608 C609 1.400 . S
C609 C608 1.400 . S
C609 C610 1.398 . S
C609 C615 1.491 . S
C610 H601 0.950 . S
C610 C609 1.398 . S
C610 C611 1.391 . S
C611 H599 0.950 . S
C611 C607 1.393 . S
C611 C610 1.391 . S
C612 H602 0.950 . S
C612 C613 1.386 . S
C612 C614 1.391 . S
C613 C612 1.386 . S
C613 C617 1.393 . S
C614 H603 0.950 . S
C614 C612 1.391 . S
C614 C615 1.400 . S
C615 C609 1.491 . S
C615 C614 1.400 . S
C615 C616 1.398 . S
C616 H604 0.950 . S
C616 C615 1.398 . S
C616 C617 1.391 . S
C617 H605 0.950 . S
C617 C613 1.393 . S
C617 C616 1.391 . S
H618 C626 0.950 . S
H619 C631 0.950 . S
H620 C628 0.950 . S
H621 C630 0.950 . S
H622 C632 0.950 . S
H623 C634 0.950 . S
H624 C636 0.950 . S
H625 C637 0.950 . S
C626 H618 0.950 . S
C626 C627 1.386 . S
C626 C628 1.391 . S
C627 C626 1.386 . S
C627 C631 1.393 . S
C628 H620 0.950 . S
C628 C626 1.391 . S
C628 C629 1.400 . S
C629 C628 1.400 . S
C629 C630 1.398 . S
C629 C635 1.491 . S
C630 H621 0.950 . S
C630 C629 1.398 . S
C630 C631 1.391 . S
C631 H619 0.950 . S
C631 C627 1.393 . S
C631 C630 1.391 . S
C632 H622 0.950 . S
C632 C633 1.386 . S
C632 C634 1.391 . S
C633 C632 1.386 . S
C633 C637 1.393 . S
C634 H623 0.950 . S
C634 C632 1.391 . S
C634 C635 1.400 . S
C635 C629 1.491 . S
C635 C634 1.400 . S
C635 C636 1.398 . S
C636 H624 0.950 . S
C636 C635 1.398 . S
C636 C637 1.391 . S
C637 H625 0.950 . S
C637 C633 1.393 . S
C637 C636 1.391 . S
H638 C646 0.950 . S
H639 C651 0.950 . S
H640 C648 0.950 . S
H641 C650 0.950 . S
H642 C652 0.950 . S
H643 C654 0.950 . S
H644 C656 0.950 . S
H645 C657 0.950 . S
C646 H638 0.950 . S
C646 C647 1.386 . S
C646 C648 1.391 . S
C647 C646 1.386 . S
C647 C651 1.393 . S
C648 H640 0.950 . S
C648 C646 1.391 . S
C648 C649 1.400 . S
C649 C648 1.400 . S
C649 C650 1.398 . S
C649 C655 1.491 . S
C650 H641 0.950 . S
C650 C649 1.398 . S
C650 C651 1.391 . S
C651 H639 0.950 . S
C651 C647 1.393 . S
C651 C650 1.391 . S
C652 H642 0.950 . S
C652 C653 1.386 . S
C652 C654 1.391 . S
C653 C652 1.386 . S
C653 C657 1.393 . S
C654 H643 0.950 . S
C654 C652 1.391 . S
C654 C655 1.400 . S
C655 C649 1.491 . S
C655 C654 1.400 . S
C655 C656 1.398 . S
C656 H644 0.950 . S
C656 C655 1.398 . S
C656 C657 1.391 . S
C657 H645 0.950 . S
C657 C653 1.393 . S
C657 C656 1.391 . S
H658 C666 0.950 . S
H659 C671 0.950 . S
H660 C668 0.950 . S
H661 C670 0.950 . S
H662 C672 0.950 . S
H663 C674 0.950 . S
H664 C676 0.950 . S
H665 C677 0.950 . S
C666 H658 0.950 . S
C666 C667 1.386 . S
C666 C668 1.391 . S
C667 C666 1.386 . S
C667 C671 1.393 . S
C668 H660 0.950 . S
C668 C666 1.391 . S
C668 C669 1.400 . S
C669 C668 1.400 . S
C669 C670 1.398 . S
C669 C675 1.491 . S
C670 H661 0.950 . S
C670 C669 1.398 . S
C670 C671 1.391 . S
C671 H659 0.950 . S
C671 C667 1.393 . S
C671 C670 1.391 . S
C672 H662 0.950 . S
C672 C673 1.386 . S
C672 C674 1.391 . S
C673 C672 1.386 . S
C673 C677 1.393 . S
C674 H663 0.950 . S
C674 C672 1.391 . S
C674 C675 1.400 . S
C675 C669 1.491 . S
C675 C674 1.400 . S
C675 C676 1.398 . S
C676 H664 0.950 . S
C676 C675 1.398 . S
C676 C677 1.391 . S
C677 H665 0.950 . S
C677 C673 1.393 . S
C677 C676 1.391 . S
H678 C686 0.950 . S
H679 C691 0.950 . S
H680 C688 0.950 . S
H681 C690 0.950 . S
H682 C692 0.950 . S
H683 C694 0.950 . S
H684 C696 0.950 . S
H685 C697 0.950 . S
C686 H678 0.950 . S
C686 C687 1.386 . S
C686 C688 1.391 . S
C687 C686 1.386 . S
C687 C691 1.393 . S
C688 H680 0.950 . S
C688 C686 1.391 . S
C688 C689 1.400 . S
C689 C688 1.400 . S
C689 C690 1.398 . S
C689 C695 1.491 . S
C690 H681 0.950 . S
C690 C689 1.398 . S
C690 C691 1.391 . S
C691 H679 0.950 . S
C691 C687 1.393 . S
C691 C690 1.391 . S
C692 H682 0.950 . S
C692 C693 1.386 . S
C692 C694 1.391 . S
C693 C692 1.386 . S
C693 C697 1.393 . S
C694 H683 0.950 . S
C694 C692 1.391 . S
C694 C695 1.400 . S
C695 C689 1.491 . S
C695 C694 1.400 . S
C695 C696 1.398 . S
C696 H684 0.950 . S
C696 C695 1.398 . S
C696 C697 1.391 . S
C697 H685 0.950 . S
C697 C693 1.393 . S
C697 C696 1.391 . S
H698 C706 0.950 . S
H699 C711 0.950 . S
H700 C708 0.950 . S
H701 C710 0.950 . S
H702 C712 0.950 . S
H703 C714 0.950 . S
H704 C716 0.950 . S
H705 C717 0.950 . S
C706 H698 0.950 . S
C706 C707 1.386 . S
C706 C708 1.391 . S
C707 C706 1.386 . S
C707 C711 1.393 . S
C708 H700 0.950 . S
C708 C706 1.391 . S
C708 C709 1.400 . S
C709 C708 1.400 . S
C709 C710 1.398 . S
C709 C715 1.491 . S
C710 H701 0.950 . S
C710 C709 1.398 . S
C710 C711 1.391 . S
C711 H699 0.950 . S
C711 C707 1.393 . S
C711 C710 1.391 . S
C712 H702 0.950 . S
C712 C713 1.386 . S
C712 C714 1.391 . S
C713 C712 1.386 . S
C713 C717 1.393 . S
C714 H703 0.950 . S
C714 C712 1.391 . S
C714 C715 1.400 . S
C715 C709 1.491 . S
C715 C714 1.400 . S
C715 C716 1.398 . S
C716 H704 0.950 . S
C716 C715 1.398 . S
C716 C717 1.391 . S
C717 H705 0.950 . S
C717 C713 1.393 . S
C717 C716 1.391 . S
H718 C726 0.950 . S
H719 C731 0.950 . S
H720 C728 0.950 . S
H721 C730 0.950 . S
H722 C732 0.950 . S
H723 C734 0.950 . S
H724 C736 0.950 . S
H725 C737 0.950 . S
C726 H718 0.950 . S
C726 C727 1.386 . S
C726 C728 1.391 . S
C727 C726 1.386 . S
C727 C731 1.393 . S
C728 H720 0.950 . S
C728 C726 1.391 . S
C728 C729 1.400 . S
C729 C728 1.400 . S
C729 C730 1.398 . S
C729 C735 1.491 . S
C730 H721 0.950 . S
C730 C729 1.398 . S
C730 C731 1.391 . S
C731 H719 0.950 . S
C731 C727 1.393 . S
C731 C730 1.391 . S
C732 H722 0.950 . S
C732 C733 1.386 . S
C732 C734 1.391 . S
C733 C732 1.386 . S
C733 C737 1.393 . S
C734 H723 0.950 . S
C734 C732 1.391 . S
C734 C735 1.400 . S
C735 C729 1.491 . S
C735 C734 1.400 . S
C735 C736 1.398 . S
C736 H724 0.950 . S
C736 C735 1.398 . S
C736 C737 1.391 . S
C737 H725 0.950 . S
C737 C733 1.393 . S
C737 C736 1.391 . S
H738 C746 0.950 . S
H739 C751 0.950 . S
H740 C748 0.950 . S
H741 C750 0.950 . S
H742 C752 0.950 . S
H743 C754 0.950 . S
H744 C756 0.950 . S
H745 C757 0.950 . S
C746 H738 0.950 . S
C746 C747 1.386 . S
C746 C748 1.391 . S
C747 C746 1.386 . S
C747 C751 1.393 . S
C748 H740 0.950 . S
C748 C746 1.391 . S
C748 C749 1.400 . S
C749 C748 1.400 . S
C749 C750 1.398 . S
C749 C755 1.491 . S
C750 H741 0.950 . S
C750 C749 1.398 . S
C750 C751 1.391 . S
C751 H739 0.950 . S
C751 C747 1.393 . S
C751 C750 1.391 . S
C752 H742 0.950 . S
C752 C753 1.386 . S
C752 C754 1.391 . S
C753 C752 1.386 . S
C753 C757 1.393 . S
C754 H743 0.950 . S
C754 C752 1.391 . S
C754 C755 1.400 . S
C755 C749 1.491 . S
C755 C754 1.400 . S
C755 C756 1.398 . S
C756 H744 0.950 . S
C756 C755 1.398 . S
C756 C757 1.391 . S
C757 H745 0.950 . S
C757 C753 1.393 . S
C757 C756 1.391 . S
H758 C766 0.950 . S
H759 C771 0.950 . S
H760 C768 0.950 . S
H761 C770 0.950 . S
H762 C772 0.950 . S
H763 C774 0.950 . S
H764 C776 0.950 . S
H765 C777 0.950 1_554 S
C766 H758 0.950 . S
C766 C767 1.386 . S
C766 C768 1.391 . S
C767 C766 1.386 . S
C767 C771 1.393 . S
C768 H760 0.950 . S
C768 C766 1.391 . S
C768 C769 1.400 . S
C769 C768 1.400 . S
C769 C770 1.398 . S
C769 C775 1.491 . S
C770 H761 0.950 . S
C770 C769 1.398 . S
C770 C771 1.391 . S
C771 H759 0.950 . S
C771 C767 1.393 . S
C771 C770 1.391 . S
C772 H762 0.950 . S
C772 C773 1.386 . S
C772 C774 1.391 . S
C773 C772 1.386 . S
C773 C777 1.393 . S
C774 H763 0.950 . S
C774 C772 1.391 . S
C774 C775 1.400 . S
C775 C769 1.491 . S
C775 C774 1.400 . S
C775 C776 1.398 . S
C776 H764 0.950 . S
C776 C775 1.398 . S
C776 C777 1.391 . S
C777 H765 0.950 1_556 S
C777 C773 1.393 . S
C777 C776 1.391 . S
H778 C786 0.950 . S
H779 C791 0.950 . S
H780 C788 0.950 . S
H781 C790 0.950 . S
H782 C792 0.950 . S
H783 C794 0.950 . S
H784 C796 0.950 . S
H785 C797 0.950 . S
C786 H778 0.950 . S
C786 C787 1.386 . S
C786 C788 1.391 . S
C787 C786 1.386 . S
C787 C791 1.393 . S
C788 H780 0.950 . S
C788 C786 1.391 . S
C788 C789 1.400 . S
C789 C788 1.400 . S
C789 C790 1.398 . S
C789 C795 1.491 . S
C790 H781 0.950 . S
C790 C789 1.398 . S
C790 C791 1.391 . S
C791 H779 0.950 . S
C791 C787 1.393 . S
C791 C790 1.391 . S
C792 H782 0.950 . S
C792 C793 1.386 . S
C792 C794 1.391 . S
C793 C792 1.386 . S
C793 C797 1.393 . S
C794 H783 0.950 . S
C794 C792 1.391 . S
C794 C795 1.400 . S
C795 C789 1.491 . S
C795 C794 1.400 . S
C795 C796 1.398 . S
C796 H784 0.950 . S
C796 C795 1.398 . S
C796 C797 1.391 . S
C797 H785 0.950 . S
C797 C793 1.393 . S
C797 C796 1.391 . S
H798 C806 0.950 . S
H799 C811 0.950 . S
H800 C808 0.950 . S
H801 C810 0.950 . S
H802 C812 0.950 . S
H803 C814 0.950 . S
H804 C816 0.950 . S
H805 C817 0.950 . S
C806 H798 0.950 . S
C806 C807 1.386 . S
C806 C808 1.391 . S
C807 C806 1.386 . S
C807 C811 1.393 . S
C808 H800 0.950 . S
C808 C806 1.391 . S
C808 C809 1.400 . S
C809 C808 1.400 . S
C809 C810 1.398 . S
C809 C815 1.491 . S
C810 H801 0.950 . S
C810 C809 1.398 . S
C810 C811 1.391 . S
C811 H799 0.950 . S
C811 C807 1.393 . S
C811 C810 1.391 . S
C812 H802 0.950 . S
C812 C813 1.386 1_554 S
C812 C814 1.391 1_554 S
C813 C812 1.386 1_556 S
C813 C817 1.393 . S
C814 H803 0.950 . S
C814 C812 1.391 1_556 S
C814 C815 1.400 . S
C815 C809 1.491 . S
C815 C814 1.400 . S
C815 C816 1.398 . S
C816 H804 0.950 . S
C816 C815 1.398 . S
C816 C817 1.391 . S
C817 H805 0.950 . S
C817 C813 1.393 . S
C817 C816 1.391 . S
H818 C826 0.950 . S
H819 C831 0.950 . S
H820 C828 0.950 . S
H821 C830 0.950 . S
H822 C832 0.950 . S
H823 C834 0.950 . S
H824 C836 0.950 . S
H825 C837 0.950 . S
C826 H818 0.950 . S
C826 C827 1.386 . S
C826 C828 1.391 . S
C827 C826 1.386 . S
C827 C831 1.393 . S
C828 H820 0.950 . S
C828 C826 1.391 . S
C828 C829 1.400 . S
C829 C828 1.400 . S
C829 C830 1.398 . S
C829 C835 1.491 . S
C830 H821 0.950 . S
C830 C829 1.398 . S
C830 C831 1.391 . S
C831 H819 0.950 . S
C831 C827 1.393 . S
C831 C830 1.391 . S
C832 H822 0.950 . S
C832 C833 1.386 . S
C832 C834 1.391 . S
C833 C832 1.386 . S
C833 C837 1.393 . S
C834 H823 0.950 . S
C834 C832 1.391 . S
C834 C835 1.400 . S
C835 C829 1.491 . S
C835 C834 1.400 . S
C835 C836 1.398 . S
C836 H824 0.950 . S
C836 C835 1.398 . S
C836 C837 1.391 . S
C837 H825 0.950 . S
C837 C833 1.393 . S
C837 C836 1.391 . S
H838 C846 0.950 . S
H839 C851 0.950 . S
H840 C848 0.950 . S
H841 C850 0.950 . S
H842 C852 0.950 . S
H843 C854 0.950 . S
H844 C856 0.950 . S
H845 C857 0.950 . S
C846 H838 0.950 . S
C846 C847 1.386 . S
C846 C848 1.391 . S
C847 C846 1.386 . S
C847 C851 1.393 . S
C848 H840 0.950 . S
C848 C846 1.391 . S
C848 C849 1.400 . S
C849 C848 1.400 . S
C849 C850 1.398 . S
C849 C855 1.491 . S
C850 H841 0.950 . S
C850 C849 1.398 . S
C850 C851 1.391 . S
C851 H839 0.950 . S
C851 C847 1.393 . S
C851 C850 1.391 . S
C852 H842 0.950 . S
C852 C853 1.386 . S
C852 C854 1.391 . S
C853 C852 1.386 . S
C853 C857 1.393 . S
C854 H843 0.950 . S
C854 C852 1.391 . S
C854 C855 1.400 . S
C855 C849 1.491 . S
C855 C854 1.400 . S
C855 C856 1.398 . S
C856 H844 0.950 . S
C856 C855 1.398 . S
C856 C857 1.391 . S
C857 H845 0.950 . S
C857 C853 1.393 . S
C857 C856 1.391 . S
H858 C866 0.950 . S
H859 C871 0.950 . S
H860 C868 0.950 . S
H861 C870 0.950 . S
H862 C872 0.950 . S
H863 C874 0.950 . S
H864 C876 0.950 . S
H865 C877 0.950 . S
C866 H858 0.950 . S
C866 C867 1.386 . S
C866 C868 1.391 . S
C867 C866 1.386 . S
C867 C871 1.393 . S
C868 H860 0.950 . S
C868 C866 1.391 . S
C868 C869 1.400 . S
C869 C868 1.400 . S
C869 C870 1.398 . S
C869 C875 1.491 . S
C870 H861 0.950 . S
C870 C869 1.398 . S
C870 C871 1.391 . S
C871 H859 0.950 . S
C871 C867 1.393 . S
C871 C870 1.391 . S
C872 H862 0.950 . S
C872 C873 1.386 . S
C872 C874 1.391 . S
C873 C872 1.386 . S
C873 C877 1.393 . S
C874 H863 0.950 . S
C874 C872 1.391 . S
C874 C875 1.400 . S
C875 C869 1.491 . S
C875 C874 1.400 . S
C875 C876 1.398 . S
C876 H864 0.950 . S
C876 C875 1.398 . S
C876 C877 1.391 . S
C877 H865 0.950 . S
C877 C873 1.393 . S
C877 C876 1.391 . S
H878 C886 0.950 . S
H879 C891 0.950 . S
H880 C888 0.950 . S
H881 C890 0.950 . S
H882 C892 0.950 . S
H883 C894 0.950 . S
H884 C896 0.950 1_554 S
H885 C897 0.950 . S
C886 H878 0.950 . S
C886 C887 1.386 . S
C886 C888 1.391 . S
C887 C886 1.386 . S
C887 C891 1.393 . S
C888 H880 0.950 . S
C888 C886 1.391 . S
C888 C889 1.400 . S
C889 C888 1.400 . S
C889 C890 1.398 . S
C889 C895 1.491 . S
C890 H881 0.950 . S
C890 C889 1.398 . S
C890 C891 1.391 . S
C891 H879 0.950 . S
C891 C887 1.393 . S
C891 C890 1.391 . S
C892 H882 0.950 . S
C892 C893 1.386 . S
C892 C894 1.391 . S
C893 C892 1.386 . S
C893 C897 1.393 1_556 S
C894 H883 0.950 . S
C894 C892 1.391 . S
C894 C895 1.400 . S
C895 C889 1.491 . S
C895 C894 1.400 . S
C895 C896 1.398 . S
C896 H884 0.950 1_556 S
C896 C895 1.398 . S
C896 C897 1.391 1_556 S
C897 H885 0.950 . S
C897 C893 1.393 1_554 S
C897 C896 1.391 1_554 S
H898 C906 0.950 . S
H899 C911 0.950 . S
H900 C908 0.950 . S
H901 C910 0.950 . S
H902 C912 0.950 . S
H903 C914 0.950 . S
H904 C916 0.950 . S
H905 C917 0.950 . S
C906 H898 0.950 . S
C906 C907 1.386 . S
C906 C908 1.391 . S
C907 C906 1.386 . S
C907 C911 1.393 . S
C908 H900 0.950 . S
C908 C906 1.391 . S
C908 C909 1.400 . S
C909 C908 1.400 . S
C909 C910 1.398 . S
C909 C915 1.491 . S
C910 H901 0.950 . S
C910 C909 1.398 . S
C910 C911 1.391 . S
C911 H899 0.950 . S
C911 C907 1.393 . S
C911 C910 1.391 . S
C912 H902 0.950 . S
C912 C913 1.386 . S
C912 C914 1.391 . S
C913 C912 1.386 . S
C913 C917 1.393 . S
C914 H903 0.950 . S
C914 C912 1.391 . S
C914 C915 1.400 . S
C915 C909 1.491 . S
C915 C914 1.400 . S
C915 C916 1.398 . S
C916 H904 0.950 . S
C916 C915 1.398 . S
C916 C917 1.391 . S
C917 H905 0.950 . S
C917 C913 1.393 . S
C917 C916 1.391 . S
H918 C926 0.950 . S
H919 C931 0.950 . S
H920 C928 0.950 . S
H921 C930 0.950 . S
H922 C932 0.950 . S
H923 C934 0.950 . S
H924 C936 0.950 . S
H925 C937 0.950 . S
C926 H918 0.950 . S
C926 C927 1.386 . S
C926 C928 1.391 . S
C927 C926 1.386 . S
C927 C931 1.393 . S
C928 H920 0.950 . S
C928 C926 1.391 . S
C928 C929 1.400 . S
C929 C928 1.400 . S
C929 C930 1.398 . S
C929 C935 1.491 . S
C930 H921 0.950 . S
C930 C929 1.398 . S
C930 C931 1.391 . S
C931 H919 0.950 . S
C931 C927 1.393 . S
C931 C930 1.391 . S
C932 H922 0.950 . S
C932 C933 1.386 . S
C932 C934 1.391 . S
C933 C932 1.386 . S
C933 C937 1.393 . S
C934 H923 0.950 . S
C934 C932 1.391 . S
C934 C935 1.400 . S
C935 C929 1.491 . S
C935 C934 1.400 . S
C935 C936 1.398 . S
C936 H924 0.950 . S
C936 C935 1.398 . S
C936 C937 1.391 . S
C937 H925 0.950 . S
C937 C933 1.393 . S
C937 C936 1.391 . S
H938 C946 0.950 . S
H939 C951 0.950 . S
H940 C948 0.950 . S
H941 C950 0.950 . S
H942 C952 0.950 1_455 S
H943 C954 0.950 . S
H944 C956 0.950 . S
H945 C957 0.950 . S
C946 H938 0.950 . S
C946 C947 1.386 . S
C946 C948 1.391 . S
C947 C946 1.386 . S
C947 C951 1.393 . S
C948 H940 0.950 . S
C948 C946 1.391 . S
C948 C949 1.400 . S
C949 C948 1.400 . S
C949 C950 1.398 . S
C949 C955 1.491 . S
C950 H941 0.950 . S
C950 C949 1.398 . S
C950 C951 1.391 . S
C951 H939 0.950 . S
C951 C947 1.393 . S
C951 C950 1.391 . S
C952 H942 0.950 1_655 S
C952 C953 1.386 . S
C952 C954 1.391 . S
C953 C952 1.386 . S
C953 C957 1.393 . S
C954 H943 0.950 . S
C954 C952 1.391 . S
C954 C955 1.400 . S
C955 C949 1.491 . S
C955 C954 1.400 . S
C955 C956 1.398 . S
C956 H944 0.950 . S
C956 C955 1.398 . S
C956 C957 1.391 . S
C957 H945 0.950 . S
C957 C953 1.393 . S
C957 C956 1.391 . S
H958 C966 0.950 . S
H959 C971 0.950 . S
H960 C968 0.950 . S
H961 C970 0.950 . S
H962 C972 0.950 . S
H963 C974 0.950 . S
H964 C976 0.950 . S
H965 C977 0.950 . S
C966 H958 0.950 . S
C966 C967 1.386 . S
C966 C968 1.391 . S
C967 C966 1.386 . S
C967 C971 1.393 . S
C968 H960 0.950 . S
C968 C966 1.391 . S
C968 C969 1.400 . S
C969 C968 1.400 . S
C969 C970 1.398 . S
C969 C975 1.491 . S
C970 H961 0.950 . S
C970 C969 1.398 . S
C970 C971 1.391 . S
C971 H959 0.950 . S
C971 C967 1.393 . S
C971 C970 1.391 . S
C972 H962 0.950 . S
C972 C973 1.386 . S
C972 C974 1.391 . S
C973 C972 1.386 . S
C973 C977 1.393 . S
C974 H963 0.950 . S
C974 C972 1.391 . S
C974 C975 1.400 . S
C975 C969 1.491 . S
C975 C974 1.400 . S
C975 C976 1.398 . S
C976 H964 0.950 . S
C976 C975 1.398 . S
C976 C977 1.391 . S
C977 H965 0.950 . S
C977 C973 1.393 . S
C977 C976 1.391 . S
H978 C986 0.950 . S
H979 C991 0.950 . S
H980 C988 0.950 . S
H981 C990 0.950 . S
H982 C992 0.950 . S
H983 C994 0.950 . S
H984 C996 0.950 . S
H985 C997 0.950 . S
C986 H978 0.950 . S
C986 C987 1.386 . S
C986 C988 1.391 . S
C987 C986 1.386 . S
C987 C991 1.393 . S
C988 H980 0.950 . S
C988 C986 1.391 . S
C988 C989 1.400 . S
C989 C988 1.400 . S
C989 C990 1.398 . S
C989 C995 1.491 . S
C990 H981 0.950 . S
C990 C989 1.398 . S
C990 C991 1.391 . S
C991 H979 0.950 . S
C991 C987 1.393 . S
C991 C990 1.391 . S
C992 H982 0.950 . S
C992 C993 1.386 . S
C992 C994 1.391 . S
C993 C992 1.386 . S
C993 C997 1.393 . S
C994 H983 0.950 . S
C994 C992 1.391 . S
C994 C995 1.400 . S
C995 C989 1.491 . S
C995 C994 1.400 . S
C995 C996 1.398 . S
C996 H984 0.950 . S
C996 C995 1.398 . S
C996 C997 1.391 . S
C997 H985 0.950 . S
C997 C993 1.393 . S
C997 C996 1.391 . S
H998 C1006 0.950 . S
H999 C1011 0.950 . S
H1000 C1008 0.950 . S
H1001 C1010 0.950 . S
H1002 C1012 0.950 1_554 S
H1003 C1014 0.950 . S
H1004 C1016 0.950 . S
H1005 C1017 0.950 . S
C1006 H998 0.950 . S
C1006 C1007 1.386 . S
C1006 C1008 1.391 . S
C1007 C1006 1.386 . S
C1007 C1011 1.393 . S
C1008 H1000 0.950 . S
C1008 C1006 1.391 . S
C1008 C1009 1.400 . S
C1009 C1008 1.400 . S
C1009 C1010 1.398 . S
C1009 C1015 1.491 . S
C1010 H1001 0.950 . S
C1010 C1009 1.398 . S
C1010 C1011 1.391 . S
C1011 H999 0.950 . S
C1011 C1007 1.393 . S
C1011 C1010 1.391 . S
C1012 H1002 0.950 1_556 S
C1012 C1013 1.386 . S
C1012 C1014 1.391 . S
C1013 C1012 1.386 . S
C1013 C1017 1.393 . S
C1014 H1003 0.950 . S
C1014 C1012 1.391 . S
C1014 C1015 1.400 . S
C1015 C1009 1.491 . S
C1015 C1014 1.400 . S
C1015 C1016 1.398 . S
C1016 H1004 0.950 . S
C1016 C1015 1.398 . S
C1016 C1017 1.391 . S
C1017 H1005 0.950 . S
C1017 C1013 1.393 . S
C1017 C1016 1.391 . S
H1018 C1026 0.950 . S
H1019 C1031 0.950 . S
H1020 C1028 0.950 . S
H1021 C1030 0.950 . S
H1022 C1032 0.950 1_554 S
H1023 C1034 0.950 . S
H1024 C1036 0.950 . S
H1025 C1037 0.950 . S
C1026 H1018 0.950 . S
C1026 C1027 1.386 . S
C1026 C1028 1.391 . S
C1027 C1026 1.386 . S
C1027 C1031 1.393 . S
C1028 H1020 0.950 . S
C1028 C1026 1.391 . S
C1028 C1029 1.400 . S
C1029 C1028 1.400 . S
C1029 C1030 1.398 . S
C1029 C1035 1.491 . S
C1030 H1021 0.950 . S
C1030 C1029 1.398 . S
C1030 C1031 1.391 . S
C1031 H1019 0.950 . S
C1031 C1027 1.393 . S
C1031 C1030 1.391 . S
C1032 H1022 0.950 1_556 S
C1032 C1033 1.386 . S
C1032 C1034 1.391 . S
C1033 C1032 1.386 . S
C1033 C1037 1.393 . S
C1034 H1023 0.950 . S
C1034 C1032 1.391 . S
C1034 C1035 1.400 . S
C1035 C1029 1.491 . S
C1035 C1034 1.400 . S
C1035 C1036 1.398 . S
C1036 H1024 0.950 . S
C1036 C1035 1.398 . S
C1036 C1037 1.391 . S
C1037 H1025 0.950 . S
C1037 C1033 1.393 . S
C1037 C1036 1.391 . S
H1038 C1046 0.950 . S
H1039 C1051 0.950 . S
H1040 C1048 0.950 . S
H1041 C1050 0.950 . S
H1042 C1052 0.950 . S
H1043 C1054 0.950 . S
H1044 C1056 0.950 . S
H1045 C1057 0.950 . S
C1046 H1038 0.950 . S
C1046 C1047 1.386 . S
C1046 C1048 1.391 . S
C1047 C1046 1.386 . S
C1047 C1051 1.393 . S
C1048 H1040 0.950 . S
C1048 C1046 1.391 . S
C1048 C1049 1.400 . S
C1049 C1048 1.400 . S
C1049 C1050 1.398 . S
C1049 C1055 1.491 . S
C1050 H1041 0.950 . S
C1050 C1049 1.398 . S
C1050 C1051 1.391 . S
C1051 H1039 0.950 . S
C1051 C1047 1.393 . S
C1051 C1050 1.391 . S
C1052 H1042 0.950 . S
C1052 C1053 1.386 . S
C1052 C1054 1.391 . S
C1053 C1052 1.386 . S
C1053 C1057 1.393 . S
C1054 H1043 0.950 . S
C1054 C1052 1.391 . S
C1054 C1055 1.400 . S
C1055 C1049 1.491 . S
C1055 C1054 1.400 . S
C1055 C1056 1.398 . S
C1056 H1044 0.950 . S
C1056 C1055 1.398 . S
C1056 C1057 1.391 . S
C1057 H1045 0.950 . S
C1057 C1053 1.393 . S
C1057 C1056 1.391 . S
H1058 C1066 0.950 . S
H1059 C1071 0.950 . S
H1060 C1068 0.950 . S
H1061 C1070 0.950 . S
H1062 C1072 0.950 . S
H1063 C1074 0.950 . S
H1064 C1076 0.950 . S
H1065 C1077 0.950 . S
C1066 H1058 0.950 . S
C1066 C1067 1.386 . S
C1066 C1068 1.391 . S
C1067 C1066 1.386 . S
C1067 C1071 1.393 . S
C1068 H1060 0.950 . S
C1068 C1066 1.391 . S
C1068 C1069 1.400 . S
C1069 C1068 1.400 . S
C1069 C1070 1.398 . S
C1069 C1075 1.491 . S
C1070 H1061 0.950 . S
C1070 C1069 1.398 . S
C1070 C1071 1.391 . S
C1071 H1059 0.950 . S
C1071 C1067 1.393 . S
C1071 C1070 1.391 . S
C1072 H1062 0.950 . S
C1072 C1073 1.386 . S
C1072 C1074 1.391 . S
C1073 C1072 1.386 . S
C1073 C1077 1.393 . S
C1074 H1063 0.950 . S
C1074 C1072 1.391 . S
C1074 C1075 1.400 . S
C1075 C1069 1.491 . S
C1075 C1074 1.400 . S
C1075 C1076 1.398 . S
C1076 H1064 0.950 . S
C1076 C1075 1.398 . S
C1076 C1077 1.391 . S
C1077 H1065 0.950 . S
C1077 C1073 1.393 . S
C1077 C1076 1.391 . S
H1078 C1086 0.950 . S
H1079 C1091 0.950 . S
H1080 C1088 0.950 . S
H1081 C1090 0.950 . S
H1082 C1092 0.950 . S
H1083 C1094 0.950 . S
H1084 C1096 0.950 . S
H1085 C1097 0.950 . S
C1086 H1078 0.950 . S
C1086 C1087 1.386 . S
C1086 C1088 1.391 . S
C1087 C1086 1.386 . S
C1087 C1091 1.393 . S
C1088 H1080 0.950 . S
C1088 C1086 1.391 . S
C1088 C1089 1.400 . S
C1089 C1088 1.400 . S
C1089 C1090 1.398 . S
C1089 C1095 1.491 . S
C1090 H1081 0.950 . S
C1090 C1089 1.398 . S
C1090 C1091 1.391 . S
C1091 H1079 0.950 . S
C1091 C1087 1.393 . S
C1091 C1090 1.391 . S
C1092 H1082 0.950 . S
C1092 C1093 1.386 . S
C1092 C1094 1.391 . S
C1093 C1092 1.386 . S
C1093 C1097 1.393 . S
C1094 H1083 0.950 . S
C1094 C1092 1.391 . S
C1094 C1095 1.400 . S
C1095 C1089 1.491 . S
C1095 C1094 1.400 . S
C1095 C1096 1.398 . S
C1096 H1084 0.950 . S
C1096 C1095 1.398 . S
C1096 C1097 1.391 . S
C1097 H1085 0.950 . S
C1097 C1093 1.393 . S
C1097 C1096 1.391 . S
H1098 C1106 0.950 . S
H1099 C1111 0.950 . S
H1100 C1108 0.950 . S
H1101 C1110 0.950 . S
H1102 C1112 0.950 . S
H1103 C1114 0.950 . S
H1104 C1116 0.950 . S
H1105 C1117 0.950 . S
C1106 H1098 0.950 . S
C1106 C1107 1.386 . S
C1106 C1108 1.391 . S
C1107 C1106 1.386 . S
C1107 C1111 1.393 . S
C1108 H1100 0.950 . S
C1108 C1106 1.391 . S
C1108 C1109 1.400 . S
C1109 C1108 1.400 . S
C1109 C1110 1.398 . S
C1109 C1115 1.491 . S
C1110 H1101 0.950 . S
C1110 C1109 1.398 . S
C1110 C1111 1.391 . S
C1111 H1099 0.950 . S
C1111 C1107 1.393 . S
C1111 C1110 1.391 . S
C1112 H1102 0.950 . S
C1112 C1113 1.386 . S
C1112 C1114 1.391 . S
C1113 C1112 1.386 . S
C1113 C1117 1.393 . S
C1114 H1103 0.950 . S
C1114 C1112 1.391 . S
C1114 C1115 1.400 . S
C1115 C1109 1.491 . S
C1115 C1114 1.400 . S
C1115 C1116 1.398 . S
C1116 H1104 0.950 . S
C1116 C1115 1.398 . S
C1116 C1117 1.391 . S
C1117 H1105 0.950 . S
C1117 C1113 1.393 . S
C1117 C1116 1.391 . S
H1118 C1126 0.950 . S
H1119 C1131 0.950 . S
H1120 C1128 0.950 . S
H1121 C1130 0.950 . S
H1122 C1132 0.950 . S
H1123 C1134 0.950 . S
H1124 C1136 0.950 . S
H1125 C1137 0.950 . S
C1126 H1118 0.950 . S
C1126 C1127 1.386 . S
C1126 C1128 1.391 . S
C1127 C1126 1.386 . S
C1127 C1131 1.393 . S
C1128 H1120 0.950 . S
C1128 C1126 1.391 . S
C1128 C1129 1.400 . S
C1129 C1128 1.400 . S
C1129 C1130 1.398 . S
C1129 C1135 1.491 . S
C1130 H1121 0.950 . S
C1130 C1129 1.398 . S
C1130 C1131 1.391 . S
C1131 H1119 0.950 . S
C1131 C1127 1.393 . S
C1131 C1130 1.391 . S
C1132 H1122 0.950 . S
C1132 C1133 1.386 . S
C1132 C1134 1.391 . S
C1133 C1132 1.386 . S
C1133 C1137 1.393 . S
C1134 H1123 0.950 . S
C1134 C1132 1.391 . S
C1134 C1135 1.400 . S
C1135 C1129 1.491 . S
C1135 C1134 1.400 . S
C1135 C1136 1.398 . S
C1136 H1124 0.950 . S
C1136 C1135 1.398 . S
C1136 C1137 1.391 . S
C1137 H1125 0.950 . S
C1137 C1133 1.393 . S
C1137 C1136 1.391 . S
H1138 C1146 0.950 . S
H1139 C1151 0.950 . S
H1140 C1148 0.950 . S
H1141 C1150 0.950 . S
H1142 C1152 0.950 . S
H1143 C1154 0.950 . S
H1144 C1156 0.950 . S
H1145 C1157 0.950 . S
C1146 H1138 0.950 . S
C1146 C1147 1.386 . S
C1146 C1148 1.391 . S
C1147 C1146 1.386 . S
C1147 C1151 1.393 . S
C1148 H1140 0.950 . S
C1148 C1146 1.391 . S
C1148 C1149 1.400 . S
C1149 C1148 1.400 . S
C1149 C1150 1.398 . S
C1149 C1155 1.491 . S
C1150 H1141 0.950 . S
C1150 C1149 1.398 . S
C1150 C1151 1.391 . S
C1151 H1139 0.950 . S
C1151 C1147 1.393 . S
C1151 C1150 1.391 . S
C1152 H1142 0.950 . S
C1152 C1153 1.386 . S
C1152 C1154 1.391 . S
C1153 C1152 1.386 . S
C1153 C1157 1.393 . S
C1154 H1143 0.950 . S
C1154 C1152 1.391 . S
C1154 C1155 1.400 . S
C1155 C1149 1.491 . S
C1155 C1154 1.400 . S
C1155 C1156 1.398 . S
C1156 H1144 0.950 . S
C1156 C1155 1.398 . S
C1156 C1157 1.391 . S
C1157 H1145 0.950 . S
C1157 C1153 1.393 . S
C1157 C1156 1.391 . S
H1158 C1166 0.950 . S
H1159 C1171 0.950 . S
H1160 C1168 0.950 . S
H1161 C1170 0.950 . S
H1162 C1172 0.950 . S
H1163 C1174 0.950 . S
H1164 C1176 0.950 . S
H1165 C1177 0.950 . S
C1166 H1158 0.950 . S
C1166 C1167 1.386 . S
C1166 C1168 1.391 . S
C1167 C1166 1.386 . S
C1167 C1171 1.393 . S
C1168 H1160 0.950 . S
C1168 C1166 1.391 . S
C1168 C1169 1.400 . S
C1169 C1168 1.400 . S
C1169 C1170 1.398 . S
C1169 C1175 1.491 . S
C1170 H1161 0.950 . S
C1170 C1169 1.398 . S
C1170 C1171 1.391 . S
C1171 H1159 0.950 . S
C1171 C1167 1.393 . S
C1171 C1170 1.391 . S
C1172 H1162 0.950 . S
C1172 C1173 1.386 . S
C1172 C1174 1.391 . S
C1173 C1172 1.386 . S
C1173 C1177 1.393 . S
C1174 H1163 0.950 . S
C1174 C1172 1.391 . S
C1174 C1175 1.400 . S
C1175 C1169 1.491 . S
C1175 C1174 1.400 . S
C1175 C1176 1.398 . S
C1176 H1164 0.950 . S
C1176 C1175 1.398 . S
C1176 C1177 1.391 . S
C1177 H1165 0.950 . S
C1177 C1173 1.393 . S
C1177 C1176 1.391 . S
H1178 C1186 0.950 . S
H1179 C1191 0.950 . S
H1180 C1188 0.950 . S
H1181 C1190 0.950 . S
H1182 C1192 0.950 . S
H1183 C1194 0.950 . S
H1184 C1196 0.950 . S
H1185 C1197 0.950 . S
C1186 H1178 0.950 . S
C1186 C1187 1.386 . S
C1186 C1188 1.391 . S
C1187 C1186 1.386 . S
C1187 C1191 1.393 . S
C1188 H1180 0.950 . S
C1188 C1186 1.391 . S
C1188 C1189 1.400 . S
C1189 C1188 1.400 . S
C1189 C1190 1.398 . S
C1189 C1195 1.491 . S
C1190 H1181 0.950 . S
C1190 C1189 1.398 . S
C1190 C1191 1.391 . S
C1191 H1179 0.950 . S
C1191 C1187 1.393 . S
C1191 C1190 1.391 . S
C1192 H1182 0.950 . S
C1192 C1193 1.386 . S
C1192 C1194 1.391 . S
C1193 C1192 1.386 . S
C1193 C1197 1.393 . S
C1194 H1183 0.950 . S
C1194 C1192 1.391 . S
C1194 C1195 1.400 . S
C1195 C1189 1.491 . S
C1195 C1194 1.400 . S
C1195 C1196 1.398 . S
C1196 H1184 0.950 . S
C1196 C1195 1.398 . S
C1196 C1197 1.391 . S
C1197 H1185 0.950 . S
C1197 C1193 1.393 . S
C1197 C1196 1.391 . S
H1198 C1206 0.950 . S
H1199 C1211 0.950 . S
H1200 C1208 0.950 . S
H1201 C1210 0.950 . S
H1202 C1212 0.950 . S
H1203 C1214 0.950 . S
H1204 C1216 0.950 . S
H1205 C1217 0.950 . S
C1206 H1198 0.950 . S
C1206 C1207 1.386 . S
C1206 C1208 1.391 . S
C1207 C1206 1.386 . S
C1207 C1211 1.393 . S
C1208 H1200 0.950 . S
C1208 C1206 1.391 . S
C1208 C1209 1.400 . S
C1209 C1208 1.400 . S
C1209 C1210 1.398 . S
C1209 C1215 1.491 . S
C1210 H1201 0.950 . S
C1210 C1209 1.398 . S
C1210 C1211 1.391 . S
C1211 H1199 0.950 . S
C1211 C1207 1.393 . S
C1211 C1210 1.391 . S
C1212 H1202 0.950 . S
C1212 C1213 1.386 . S
C1212 C1214 1.391 . S
C1213 C1212 1.386 . S
C1213 C1217 1.393 . S
C1214 H1203 0.950 . S
C1214 C1212 1.391 . S
C1214 C1215 1.400 . S
C1215 C1209 1.491 . S
C1215 C1214 1.400 . S
C1215 C1216 1.398 . S
C1216 H1204 0.950 . S
C1216 C1215 1.398 . S
C1216 C1217 1.391 . S
C1217 H1205 0.950 . S
C1217 C1213 1.393 . S
C1217 C1216 1.391 . S
H1218 C1226 0.950 . S
H1219 C1231 0.950 . S
H1220 C1228 0.950 . S
H1221 C1230 0.950 . S
H1222 C1232 0.950 . S
H1223 C1234 0.950 . S
H1224 C1236 0.950 . S
H1225 C1237 0.950 . S
C1226 H1218 0.950 . S
C1226 C1227 1.386 . S
C1226 C1228 1.391 . S
C1227 C1226 1.386 . S
C1227 C1231 1.393 . S
C1228 H1220 0.950 . S
C1228 C1226 1.391 . S
C1228 C1229 1.400 . S
C1229 C1228 1.400 . S
C1229 C1230 1.398 . S
C1229 C1235 1.491 . S
C1230 H1221 0.950 . S
C1230 C1229 1.398 . S
C1230 C1231 1.391 . S
C1231 H1219 0.950 . S
C1231 C1227 1.393 . S
C1231 C1230 1.391 . S
C1232 H1222 0.950 . S
C1232 C1233 1.386 . S
C1232 C1234 1.391 . S
C1233 C1232 1.386 . S
C1233 C1237 1.393 . S
C1234 H1223 0.950 . S
C1234 C1232 1.391 . S
C1234 C1235 1.400 . S
C1235 C1229 1.491 . S
C1235 C1234 1.400 . S
C1235 C1236 1.398 . S
C1236 H1224 0.950 . S
C1236 C1235 1.398 . S
C1236 C1237 1.391 . S
C1237 H1225 0.950 . S
C1237 C1233 1.393 . S
C1237 C1236 1.391 . S
H1238 C1246 0.950 . S
H1239 C1251 0.950 . S
H1240 C1248 0.950 . S
H1241 C1250 0.950 . S
H1242 C1252 0.950 . S
H1243 C1254 0.950 . S
H1244 C1256 0.950 . S
H1245 C1257 0.950 . S
C1246 H1238 0.950 . S
C1246 C1247 1.386 . S
C1246 C1248 1.391 . S
C1247 C1246 1.386 . S
C1247 C1251 1.393 . S
C1248 H1240 0.950 . S
C1248 C1246 1.391 . S
C1248 C1249 1.400 . S
C1249 C1248 1.400 . S
C1249 C1250 1.398 . S
C1249 C1255 1.491 . S
C1250 H1241 0.950 . S
C1250 C1249 1.398 . S
C1250 C1251 1.391 . S
C1251 H1239 0.950 . S
C1251 C1247 1.393 . S
C1251 C1250 1.391 . S
C1252 H1242 0.950 . S
C1252 C1253 1.386 . S
C1252 C1254 1.391 . S
C1253 C1252 1.386 . S
C1253 C1257 1.393 . S
C1254 H1243 0.950 . S
C1254 C1252 1.391 . S
C1254 C1255 1.400 . S
C1255 C1249 1.491 . S
C1255 C1254 1.400 . S
C1255 C1256 1.398 . S
C1256 H1244 0.950 . S
C1256 C1255 1.398 . S
C1256 C1257 1.391 . S
C1257 H1245 0.950 . S
C1257 C1253 1.393 . S
C1257 C1256 1.391 . S
H1258 C1266 0.950 . S
H1259 C1271 0.950 . S
H1260 C1268 0.950 . S
H1261 C1270 0.950 . S
H1262 C1272 0.950 . S
H1263 C1274 0.950 . S
H1264 C1276 0.950 . S
H1265 C1277 0.950 . S
C1266 H1258 0.950 . S
C1266 C1267 1.386 . S
C1266 C1268 1.391 . S
C1267 C1266 1.386 . S
C1267 C1271 1.393 . S
C1268 H1260 0.950 . S
C1268 C1266 1.391 . S
C1268 C1269 1.400 . S
C1269 C1268 1.400 . S
C1269 C1270 1.398 . S
C1269 C1275 1.491 . S
C1270 H1261 0.950 . S
C1270 C1269 1.398 . S
C1270 C1271 1.391 . S
C1271 H1259 0.950 . S
C1271 C1267 1.393 . S
C1271 C1270 1.391 . S
C1272 H1262 0.950 . S
C1272 C1273 1.386 . S
C1272 C1274 1.391 . S
C1273 C1272 1.386 . S
C1273 C1277 1.393 . S
C1274 H1263 0.950 . S
C1274 C1272 1.391 . S
C1274 C1275 1.400 . S
C1275 C1269 1.491 . S
C1275 C1274 1.400 . S
C1275 C1276 1.398 . S
C1276 H1264 0.950 . S
C1276 C1275 1.398 . S
C1276 C1277 1.391 . S
C1277 H1265 0.950 . S
C1277 C1273 1.393 . S
C1277 C1276 1.391 . S
H1278 C1286 0.950 . S
H1279 C1291 0.950 . S
H1280 C1288 0.950 . S
H1281 C1290 0.950 . S
H1282 C1292 0.950 . S
H1283 C1294 0.950 . S
H1284 C1296 0.950 . S
H1285 C1297 0.950 . S
C1286 H1278 0.950 . S
C1286 C1287 1.386 . S
C1286 C1288 1.391 . S
C1287 C1286 1.386 . S
C1287 C1291 1.393 . S
C1288 H1280 0.950 . S
C1288 C1286 1.391 . S
C1288 C1289 1.400 . S
C1289 C1288 1.400 . S
C1289 C1290 1.398 . S
C1289 C1295 1.491 . S
C1290 H1281 0.950 . S
C1290 C1289 1.398 . S
C1290 C1291 1.391 . S
C1291 H1279 0.950 . S
C1291 C1287 1.393 . S
C1291 C1290 1.391 . S
C1292 H1282 0.950 . S
C1292 C1293 1.386 . S
C1292 C1294 1.391 . S
C1293 C1292 1.386 . S
C1293 C1297 1.393 . S
C1294 H1283 0.950 . S
C1294 C1292 1.391 . S
C1294 C1295 1.400 . S
C1295 C1289 1.491 . S
C1295 C1294 1.400 . S
C1295 C1296 1.398 . S
C1296 H1284 0.950 . S
C1296 C1295 1.398 . S
C1296 C1297 1.391 . S
C1297 H1285 0.950 . S
C1297 C1293 1.393 . S
C1297 C1296 1.391 . S
H1298 C1306 0.950 . S
H1299 C1311 0.950 . S
H1300 C1308 0.950 . S
H1301 C1310 0.950 . S
H1302 C1312 0.950 . S
H1303 C1314 0.950 . S
H1304 C1316 0.950 . S
H1305 C1317 0.950 . S
C1306 H1298 0.950 . S
C1306 C1307 1.386 . S
C1306 C1308 1.391 . S
C1307 C1306 1.386 . S
C1307 C1311 1.393 . S
C1308 H1300 0.950 . S
C1308 C1306 1.391 . S
C1308 C1309 1.400 . S
C1309 C1308 1.400 . S
C1309 C1310 1.398 . S
C1309 C1315 1.491 . S
C1310 H1301 0.950 . S
C1310 C1309 1.398 . S
C1310 C1311 1.391 . S
C1311 H1299 0.950 . S
C1311 C1307 1.393 . S
C1311 C1310 1.391 . S
C1312 H1302 0.950 . S
C1312 C1313 1.386 . S
C1312 C1314 1.391 . S
C1313 C1312 1.386 . S
C1313 C1317 1.393 . S
C1314 H1303 0.950 . S
C1314 C1312 1.391 . S
C1314 C1315 1.400 . S
C1315 C1309 1.491 . S
C1315 C1314 1.400 . S
C1315 C1316 1.398 . S
C1316 H1304 0.950 . S
C1316 C1315 1.398 . S
C1316 C1317 1.391 . S
C1317 H1305 0.950 . S
C1317 C1313 1.393 . S
C1317 C1316 1.391 . S
H1318 C1326 0.950 . S
H1319 C1331 0.950 . S
H1320 C1328 0.950 . S
H1321 C1330 0.950 . S
H1322 C1332 0.950 . S
H1323 C1334 0.950 . S
H1324 C1336 0.950 . S
H1325 C1337 0.950 . S
C1326 H1318 0.950 . S
C1326 C1327 1.386 . S
C1326 C1328 1.391 . S
C1327 C1326 1.386 . S
C1327 C1331 1.393 . S
C1328 H1320 0.950 . S
C1328 C1326 1.391 . S
C1328 C1329 1.400 . S
C1329 C1328 1.400 . S
C1329 C1330 1.398 . S
C1329 C1335 1.491 . S
C1330 H1321 0.950 . S
C1330 C1329 1.398 . S
C1330 C1331 1.391 . S
C1331 H1319 0.950 . S
C1331 C1327 1.393 . S
C1331 C1330 1.391 . S
C1332 H1322 0.950 . S
C1332 C1333 1.386 . S
C1332 C1334 1.391 . S
C1333 C1332 1.386 . S
C1333 C1337 1.393 . S
C1334 H1323 0.950 . S
C1334 C1332 1.391 . S
C1334 C1335 1.400 . S
C1335 C1329 1.491 . S
C1335 C1334 1.400 . S
C1335 C1336 1.398 . S
C1336 H1324 0.950 . S
C1336 C1335 1.398 . S
C1336 C1337 1.391 . S
C1337 H1325 0.950 . S
C1337 C1333 1.393 . S
C1337 C1336 1.391 . S
H1338 C1346 0.950 . S
H1339 C1351 0.950 . S
H1340 C1348 0.950 . S
H1341 C1350 0.950 . S
H1342 C1352 0.950 . S
H1343 C1354 0.950 . S
H1344 C1356 0.950 . S
H1345 C1357 0.950 . S
C1346 H1338 0.950 . S
C1346 C1347 1.386 . S
C1346 C1348 1.391 . S
C1347 C1346 1.386 . S
C1347 C1351 1.393 . S
C1348 H1340 0.950 . S
C1348 C1346 1.391 . S
C1348 C1349 1.400 . S
C1349 C1348 1.400 . S
C1349 C1350 1.398 . S
C1349 C1355 1.491 . S
C1350 H1341 0.950 . S
C1350 C1349 1.398 . S
C1350 C1351 1.391 . S
C1351 H1339 0.950 . S
C1351 C1347 1.393 . S
C1351 C1350 1.391 . S
C1352 H1342 0.950 . S
C1352 C1353 1.386 . S
C1352 C1354 1.391 . S
C1353 C1352 1.386 . S
C1353 C1357 1.393 . S
C1354 H1343 0.950 . S
C1354 C1352 1.391 . S
C1354 C1355 1.400 . S
C1355 C1349 1.491 . S
C1355 C1354 1.400 . S
C1355 C1356 1.398 . S
C1356 H1344 0.950 . S
C1356 C1355 1.398 . S
C1356 C1357 1.391 . S
C1357 H1345 0.950 . S
C1357 C1353 1.393 . S
C1357 C1356 1.391 . S
H1358 C1366 0.950 . S
H1359 C1371 0.950 . S
H1360 C1368 0.950 . S
H1361 C1370 0.950 . S
H1362 C1372 0.950 . S
H1363 C1374 0.950 . S
H1364 C1376 0.950 . S
H1365 C1377 0.950 . S
C1366 H1358 0.950 . S
C1366 C1367 1.386 . S
C1366 C1368 1.391 . S
C1367 C1366 1.386 . S
C1367 C1371 1.393 . S
C1368 H1360 0.950 . S
C1368 C1366 1.391 . S
C1368 C1369 1.400 . S
C1369 C1368 1.400 . S
C1369 C1370 1.398 . S
C1369 C1375 1.491 . S
C1370 H1361 0.950 . S
C1370 C1369 1.398 . S
C1370 C1371 1.391 . S
C1371 H1359 0.950 . S
C1371 C1367 1.393 . S
C1371 C1370 1.391 . S
C1372 H1362 0.950 . S
C1372 C1373 1.386 . S
C1372 C1374 1.391 . S
C1373 C1372 1.386 . S
C1373 C1377 1.393 . S
C1374 H1363 0.950 . S
C1374 C1372 1.391 . S
C1374 C1375 1.400 . S
C1375 C1369 1.491 . S
C1375 C1374 1.400 . S
C1375 C1376 1.398 . S
C1376 H1364 0.950 . S
C1376 C1375 1.398 . S
C1376 C1377 1.391 . S
C1377 H1365 0.950 . S
C1377 C1373 1.393 . S
C1377 C1376 1.391 . S
H1378 C1386 0.950 . S
H1379 C1391 0.950 . S
H1380 C1388 0.950 . S
H1381 C1390 0.950 . S
H1382 C1392 0.950 . S
H1383 C1394 0.950 . S
H1384 C1396 0.950 . S
H1385 C1397 0.950 . S
C1386 H1378 0.950 . S
C1386 C1387 1.386 . S
C1386 C1388 1.391 . S
C1387 C1386 1.386 . S
C1387 C1391 1.393 . S
C1388 H1380 0.950 . S
C1388 C1386 1.391 . S
C1388 C1389 1.400 . S
C1389 C1388 1.400 . S
C1389 C1390 1.398 . S
C1389 C1395 1.491 . S
C1390 H1381 0.950 . S
C1390 C1389 1.398 . S
C1390 C1391 1.391 . S
C1391 H1379 0.950 . S
C1391 C1387 1.393 . S
C1391 C1390 1.391 . S
C1392 H1382 0.950 . S
C1392 C1393 1.386 . S
C1392 C1394 1.391 . S
C1393 C1392 1.386 . S
C1393 C1397 1.393 . S
C1394 H1383 0.950 . S
C1394 C1392 1.391 . S
C1394 C1395 1.400 . S
C1395 C1389 1.491 . S
C1395 C1394 1.400 . S
C1395 C1396 1.398 . S
C1396 H1384 0.950 . S
C1396 C1395 1.398 . S
C1396 C1397 1.391 . S
C1397 H1385 0.950 . S
C1397 C1393 1.393 . S
C1397 C1396 1.391 . S
H1398 C1406 0.950 . S
H1399 C1411 0.950 . S
H1400 C1408 0.950 . S
H1401 C1410 0.950 . S
H1402 C1412 0.950 . S
H1403 C1414 0.950 . S
H1404 C1416 0.950 . S
H1405 C1417 0.950 . S
C1406 H1398 0.950 . S
C1406 C1407 1.386 . S
C1406 C1408 1.391 . S
C1407 C1406 1.386 . S
C1407 C1411 1.393 . S
C1408 H1400 0.950 . S
C1408 C1406 1.391 . S
C1408 C1409 1.400 . S
C1409 C1408 1.400 . S
C1409 C1410 1.398 . S
C1409 C1415 1.491 . S
C1410 H1401 0.950 . S
C1410 C1409 1.398 . S
C1410 C1411 1.391 . S
C1411 H1399 0.950 . S
C1411 C1407 1.393 . S
C1411 C1410 1.391 . S
C1412 H1402 0.950 . S
C1412 C1413 1.386 . S
C1412 C1414 1.391 . S
C1413 C1412 1.386 . S
C1413 C1417 1.393 . S
C1414 H1403 0.950 . S
C1414 C1412 1.391 . S
C1414 C1415 1.400 . S
C1415 C1409 1.491 . S
C1415 C1414 1.400 . S
C1415 C1416 1.398 . S
C1416 H1404 0.950 . S
C1416 C1415 1.398 . S
C1416 C1417 1.391 . S
C1417 H1405 0.950 . S
C1417 C1413 1.393 . S
C1417 C1416 1.391 . S
H1418 C1426 0.950 . S
H1419 C1431 0.950 . S
H1420 C1428 0.950 . S
H1421 C1430 0.950 . S
H1422 C1432 0.950 . S
H1423 C1434 0.950 . S
H1424 C1436 0.950 . S
H1425 C1437 0.950 . S
C1426 H1418 0.950 . S
C1426 C1427 1.386 . S
C1426 C1428 1.391 . S
C1427 C1426 1.386 . S
C1427 C1431 1.393 . S
C1428 H1420 0.950 . S
C1428 C1426 1.391 . S
C1428 C1429 1.400 . S
C1429 C1428 1.400 . S
C1429 C1430 1.398 . S
C1429 C1435 1.491 . S
C1430 H1421 0.950 . S
C1430 C1429 1.398 . S
C1430 C1431 1.391 . S
C1431 H1419 0.950 . S
C1431 C1427 1.393 . S
C1431 C1430 1.391 . S
C1432 H1422 0.950 . S
C1432 C1433 1.386 . S
C1432 C1434 1.391 . S
C1433 C1432 1.386 . S
C1433 C1437 1.393 . S
C1434 H1423 0.950 . S
C1434 C1432 1.391 . S
C1434 C1435 1.400 . S
C1435 C1429 1.491 . S
C1435 C1434 1.400 . S
C1435 C1436 1.398 . S
C1436 H1424 0.950 . S
C1436 C1435 1.398 . S
C1436 C1437 1.391 . S
C1437 H1425 0.950 . S
C1437 C1433 1.393 . S
C1437 C1436 1.391 . S
H1438 C1446 0.950 . S
H1439 C1451 0.950 . S
H1440 C1448 0.950 . S
H1441 C1450 0.950 . S
H1442 C1452 0.950 . S
H1443 C1454 0.950 . S
H1444 C1456 0.950 . S
H1445 C1457 0.950 . S
C1446 H1438 0.950 . S
C1446 C1447 1.386 . S
C1446 C1448 1.391 . S
C1447 C1446 1.386 . S
C1447 C1451 1.393 . S
C1448 H1440 0.950 . S
C1448 C1446 1.391 . S
C1448 C1449 1.400 . S
C1449 C1448 1.400 . S
C1449 C1450 1.398 . S
C1449 C1455 1.491 . S
C1450 H1441 0.950 . S
C1450 C1449 1.398 . S
C1450 C1451 1.391 . S
C1451 H1439 0.950 . S
C1451 C1447 1.393 . S
C1451 C1450 1.391 . S
C1452 H1442 0.950 . S
C1452 C1453 1.386 . S
C1452 C1454 1.391 . S
C1453 C1452 1.386 . S
C1453 C1457 1.393 . S
C1454 H1443 0.950 . S
C1454 C1452 1.391 . S
C1454 C1455 1.400 . S
C1455 C1449 1.491 . S
C1455 C1454 1.400 . S
C1455 C1456 1.398 . S
C1456 H1444 0.950 . S
C1456 C1455 1.398 . S
C1456 C1457 1.391 . S
C1457 H1445 0.950 . S
C1457 C1453 1.393 . S
C1457 C1456 1.391 . S
H1458 C1466 0.950 . S
H1459 C1471 0.950 . S
H1460 C1468 0.950 . S
H1461 C1470 0.950 . S
H1462 C1472 0.950 . S
H1463 C1474 0.950 . S
H1464 C1476 0.950 . S
H1465 C1477 0.950 . S
C1466 H1458 0.950 . S
C1466 C1467 1.386 . S
C1466 C1468 1.391 . S
C1467 C1466 1.386 . S
C1467 C1471 1.393 . S
C1468 H1460 0.950 . S
C1468 C1466 1.391 . S
C1468 C1469 1.400 . S
C1469 C1468 1.400 . S
C1469 C1470 1.398 . S
C1469 C1475 1.491 . S
C1470 H1461 0.950 . S
C1470 C1469 1.398 . S
C1470 C1471 1.391 . S
C1471 H1459 0.950 . S
C1471 C1467 1.393 . S
C1471 C1470 1.391 . S
C1472 H1462 0.950 . S
C1472 C1473 1.386 . S
C1472 C1474 1.391 . S
C1473 C1472 1.386 . S
C1473 C1477 1.393 . S
C1474 H1463 0.950 . S
C1474 C1472 1.391 . S
C1474 C1475 1.400 . S
C1475 C1469 1.491 . S
C1475 C1474 1.400 . S
C1475 C1476 1.398 . S
C1476 H1464 0.950 . S
C1476 C1475 1.398 . S
C1476 C1477 1.391 . S
C1477 H1465 0.950 . S
C1477 C1473 1.393 . S
C1477 C1476 1.391 . S
C533 C347 1.622 . S
C527 C3 1.753 . S
C553 C348 1.190 . S
C547 C49 1.183 . S
C573 C342 1.168 . S
C567 C95 1.194 . S
C587 C146 0.443 . S
C593 C341 0.431 . S
C607 C186 1.325 . S
C613 C344 1.248 . S
C633 C346 1.306 . S
C627 C215 1.354 . S
C647 C249 0.553 . S
C653 C345 0.412 . S
C667 C302 1.757 . S
C673 C343 1.629 . S
C693 C378 3.529 . S
C687 C2 3.533 . S
C707 C43 2.170 . S
C713 C409 2.055 . S
C733 C377 3.165 . S
C727 C102 3.261 . S
C753 C412 1.309 . S
C747 C135 1.381 . S
C767 C175 1.663 . S
C773 C375 1.644 . S
C793 C407 2.374 . S
C787 C222 2.385 . S
C807 C243 1.868 . S
C813 C380 1.712 . S
C827 C306 1.586 . S
C833 C414 1.684 . S
C847 C9 0.949 . S
C853 C410 0.945 . S
C867 C182 1.745 . S
C873 C413 1.616 . S
C893 C381 1.444 1_556 S
C887 C226 1.516 . S
C913 C408 0.824 . S
C907 C242 0.858 . S
C927 C295 2.883 . S
C933 C374 2.874 . S
C947 C106 0.876 . S
C953 C411 0.869 . S
C973 C376 1.430 . S
C967 C142 1.494 . S
C987 C42 1.172 . S
C993 C379 1.147 . S
C1007 C283 1.789 . S
C1013 C446 1.632 . S
C1027 C169 1.070 . S
C1033 C447 1.038 . S
C1053 C441 1.163 . S
C1047 C202 1.198 . S
C1073 C440 0.458 . S
C1067 C266 0.557 . S
C1087 C66 0.852 . S
C1093 C443 0.834 . S
C1113 C445 1.285 . S
C1107 C82 1.294 . S
C1127 C129 0.512 . S
C1133 C444 0.504 . S
C1147 C22 1.823 . S
C1153 C442 1.671 . S
C1167 C282 3.103 . S
C1173 C480 3.005 . S
C1193 C512 1.462 . S
C1187 C163 1.525 . S
C1207 C209 1.392 . S
C1213 C473 1.385 . S
C1227 C255 1.182 . S
C1233 C507 1.171 . S
C1253 C478 0.919 . S
C1247 C55 0.879 . S
C1267 C89 1.055 . S
C1273 C509 1.010 . S
C1293 C475 1.757 . S
C1287 C123 1.833 . S
C1313 C510 0.922 . S
C1307 C26 0.918 . S
C1333 C506 1.641 . S
C1327 C289 1.554 . S
C1347 C62 1.905 . S
C1353 C508 1.791 . S
C1367 C83 3.121 . S
C1373 C477 3.113 . S
C1393 C511 1.710 . S
C1387 C122 1.734 . S
C1407 C15 3.725 . S
C1413 C476 3.663 . S
C1427 C203 2.559 . S
C1433 C513 2.497 . S
C1453 C479 2.186 . S
C1447 C262 2.235 . S
C1473 C474 1.312 . S
C1467 C162 1.372 . S
