# Generated by pormake.
# Topology gar, (4,6)-cn, num edge types: 1
# Building blocks:
#     Node 0, Type 0, BuildingBlock: TATPOV_clean_sbu_0, # of connection points: 4
#     Node 1, Type 0, BuildingBlock: TATPOV_clean_sbu_0, # of connection points: 4
#     Node 2, Type 0, BuildingBlock: TATPOV_clean_sbu_0, # of connection points: 4
#     Node 3, Type 0, BuildingBlock: TATPOV_clean_sbu_0, # of connection points: 4
#     Node 4, Type 0, BuildingBlock: TATPOV_clean_sbu_0, # of connection points: 4
#     Node 5, Type 0, BuildingBlock: TATPOV_clean_sbu_0, # of connection points: 4
#     Node 6, Type 0, BuildingBlock: TATPOV_clean_sbu_0, # of connection points: 4
#     Node 7, Type 0, BuildingBlock: TATPOV_clean_sbu_0, # of connection points: 4
#     Node 8, Type 0, BuildingBlock: TATPOV_clean_sbu_0, # of connection points: 4
#     Node 9, Type 0, BuildingBlock: TATPOV_clean_sbu_0, # of connection points: 4
#     Node 10, Type 0, BuildingBlock: TATPOV_clean_sbu_0, # of connection points: 4
#     Node 11, Type 0, BuildingBlock: TATPOV_clean_sbu_0, # of connection points: 4
#     Node 12, Type 0, BuildingBlock: TATPOV_clean_sbu_0, # of connection points: 4
#     Node 13, Type 0, BuildingBlock: TATPOV_clean_sbu_0, # of connection points: 4
#     Node 14, Type 0, BuildingBlock: TATPOV_clean_sbu_0, # of connection points: 4
#     Node 15, Type 0, BuildingBlock: TATPOV_clean_sbu_0, # of connection points: 4
#     Node 16, Type 0, BuildingBlock: TATPOV_clean_sbu_0, # of connection points: 4
#     Node 17, Type 0, BuildingBlock: TATPOV_clean_sbu_0, # of connection points: 4
#     Node 18, Type 0, BuildingBlock: TATPOV_clean_sbu_0, # of connection points: 4
#     Node 19, Type 0, BuildingBlock: TATPOV_clean_sbu_0, # of connection points: 4
#     Node 20, Type 0, BuildingBlock: TATPOV_clean_sbu_0, # of connection points: 4
#     Node 21, Type 0, BuildingBlock: TATPOV_clean_sbu_0, # of connection points: 4
#     Node 22, Type 0, BuildingBlock: TATPOV_clean_sbu_0, # of connection points: 4
#     Node 23, Type 0, BuildingBlock: TATPOV_clean_sbu_0, # of connection points: 4
#     Node 24, Type 1, BuildingBlock: KUMBUR_clean_sbu_0, # of connection points: 6
#     Node 25, Type 1, BuildingBlock: KUMBUR_clean_sbu_0, # of connection points: 6
#     Node 26, Type 1, BuildingBlock: KUMBUR_clean_sbu_0, # of connection points: 6
#     Node 27, Type 1, BuildingBlock: KUMBUR_clean_sbu_0, # of connection points: 6
#     Node 28, Type 1, BuildingBlock: KUMBUR_clean_sbu_0, # of connection points: 6
#     Node 29, Type 1, BuildingBlock: KUMBUR_clean_sbu_0, # of connection points: 6
#     Node 30, Type 1, BuildingBlock: KUMBUR_clean_sbu_0, # of connection points: 6
#     Node 31, Type 1, BuildingBlock: KUMBUR_clean_sbu_0, # of connection points: 6
#     Node 32, Type 1, BuildingBlock: KUMBUR_clean_sbu_0, # of connection points: 6
#     Node 33, Type 1, BuildingBlock: KUMBUR_clean_sbu_0, # of connection points: 6
#     Node 34, Type 1, BuildingBlock: KUMBUR_clean_sbu_0, # of connection points: 6
#     Node 35, Type 1, BuildingBlock: KUMBUR_clean_sbu_0, # of connection points: 6
#     Node 36, Type 1, BuildingBlock: KUMBUR_clean_sbu_0, # of connection points: 6
#     Node 37, Type 1, BuildingBlock: KUMBUR_clean_sbu_0, # of connection points: 6
#     Node 38, Type 1, BuildingBlock: KUMBUR_clean_sbu_0, # of connection points: 6
#     Node 39, Type 1, BuildingBlock: KUMBUR_clean_sbu_0, # of connection points: 6
#     Edge 40, Type (0, 1), BuildingBlock: EZIPEK_clean_linker_0, # of connection points: 2
#     Edge 41, Type (0, 1), BuildingBlock: EZIPEK_clean_linker_0, # of connection points: 2
#     Edge 42, Type (0, 1), BuildingBlock: EZIPEK_clean_linker_0, # of connection points: 2
#     Edge 43, Type (0, 1), BuildingBlock: EZIPEK_clean_linker_0, # of connection points: 2
#     Edge 44, Type (0, 1), BuildingBlock: EZIPEK_clean_linker_0, # of connection points: 2
#     Edge 45, Type (0, 1), BuildingBlock: EZIPEK_clean_linker_0, # of connection points: 2
#     Edge 46, Type (0, 1), BuildingBlock: EZIPEK_clean_linker_0, # of connection points: 2
#     Edge 47, Type (0, 1), BuildingBlock: EZIPEK_clean_linker_0, # of connection points: 2
#     Edge 48, Type (0, 1), BuildingBlock: EZIPEK_clean_linker_0, # of connection points: 2
#     Edge 49, Type (0, 1), BuildingBlock: EZIPEK_clean_linker_0, # of connection points: 2
#     Edge 50, Type (0, 1), BuildingBlock: EZIPEK_clean_linker_0, # of connection points: 2
#     Edge 51, Type (0, 1), BuildingBlock: EZIPEK_clean_linker_0, # of connection points: 2
#     Edge 52, Type (0, 1), BuildingBlock: EZIPEK_clean_linker_0, # of connection points: 2
#     Edge 53, Type (0, 1), BuildingBlock: EZIPEK_clean_linker_0, # of connection points: 2
#     Edge 54, Type (0, 1), BuildingBlock: EZIPEK_clean_linker_0, # of connection points: 2
#     Edge 55, Type (0, 1), BuildingBlock: EZIPEK_clean_linker_0, # of connection points: 2
#     Edge 56, Type (0, 1), BuildingBlock: EZIPEK_clean_linker_0, # of connection points: 2
#     Edge 57, Type (0, 1), BuildingBlock: EZIPEK_clean_linker_0, # of connection points: 2
#     Edge 58, Type (0, 1), BuildingBlock: EZIPEK_clean_linker_0, # of connection points: 2
#     Edge 59, Type (0, 1), BuildingBlock: EZIPEK_clean_linker_0, # of connection points: 2
#     Edge 60, Type (0, 1), BuildingBlock: EZIPEK_clean_linker_0, # of connection points: 2
#     Edge 61, Type (0, 1), BuildingBlock: EZIPEK_clean_linker_0, # of connection points: 2
#     Edge 62, Type (0, 1), BuildingBlock: EZIPEK_clean_linker_0, # of connection points: 2
#     Edge 63, Type (0, 1), BuildingBlock: EZIPEK_clean_linker_0, # of connection points: 2
#     Edge 64, Type (0, 1), BuildingBlock: EZIPEK_clean_linker_0, # of connection points: 2
#     Edge 65, Type (0, 1), BuildingBlock: EZIPEK_clean_linker_0, # of connection points: 2
#     Edge 66, Type (0, 1), BuildingBlock: EZIPEK_clean_linker_0, # of connection points: 2
#     Edge 67, Type (0, 1), BuildingBlock: EZIPEK_clean_linker_0, # of connection points: 2
#     Edge 68, Type (0, 1), BuildingBlock: EZIPEK_clean_linker_0, # of connection points: 2
#     Edge 69, Type (0, 1), BuildingBlock: EZIPEK_clean_linker_0, # of connection points: 2
#     Edge 70, Type (0, 1), BuildingBlock: EZIPEK_clean_linker_0, # of connection points: 2
#     Edge 71, Type (0, 1), BuildingBlock: EZIPEK_clean_linker_0, # of connection points: 2
#     Edge 72, Type (0, 1), BuildingBlock: EZIPEK_clean_linker_0, # of connection points: 2
#     Edge 73, Type (0, 1), BuildingBlock: EZIPEK_clean_linker_0, # of connection points: 2
#     Edge 74, Type (0, 1), BuildingBlock: EZIPEK_clean_linker_0, # of connection points: 2
#     Edge 75, Type (0, 1), BuildingBlock: EZIPEK_clean_linker_0, # of connection points: 2
#     Edge 76, Type (0, 1), BuildingBlock: EZIPEK_clean_linker_0, # of connection points: 2
#     Edge 77, Type (0, 1), BuildingBlock: EZIPEK_clean_linker_0, # of connection points: 2
#     Edge 78, Type (0, 1), BuildingBlock: EZIPEK_clean_linker_0, # of connection points: 2
#     Edge 79, Type (0, 1), BuildingBlock: EZIPEK_clean_linker_0, # of connection points: 2
#     Edge 80, Type (0, 1), BuildingBlock: EZIPEK_clean_linker_0, # of connection points: 2
#     Edge 81, Type (0, 1), BuildingBlock: EZIPEK_clean_linker_0, # of connection points: 2
#     Edge 82, Type (0, 1), BuildingBlock: EZIPEK_clean_linker_0, # of connection points: 2
#     Edge 83, Type (0, 1), BuildingBlock: EZIPEK_clean_linker_0, # of connection points: 2
#     Edge 84, Type (0, 1), BuildingBlock: EZIPEK_clean_linker_0, # of connection points: 2
#     Edge 85, Type (0, 1), BuildingBlock: EZIPEK_clean_linker_0, # of connection points: 2
#     Edge 86, Type (0, 1), BuildingBlock: EZIPEK_clean_linker_0, # of connection points: 2
#     Edge 87, Type (0, 1), BuildingBlock: EZIPEK_clean_linker_0, # of connection points: 2
#     Edge 88, Type (0, 1), BuildingBlock: EZIPEK_clean_linker_0, # of connection points: 2
#     Edge 89, Type (0, 1), BuildingBlock: EZIPEK_clean_linker_0, # of connection points: 2
#     Edge 90, Type (0, 1), BuildingBlock: EZIPEK_clean_linker_0, # of connection points: 2
#     Edge 91, Type (0, 1), BuildingBlock: EZIPEK_clean_linker_0, # of connection points: 2
#     Edge 92, Type (0, 1), BuildingBlock: EZIPEK_clean_linker_0, # of connection points: 2
#     Edge 93, Type (0, 1), BuildingBlock: EZIPEK_clean_linker_0, # of connection points: 2
#     Edge 94, Type (0, 1), BuildingBlock: EZIPEK_clean_linker_0, # of connection points: 2
#     Edge 95, Type (0, 1), BuildingBlock: EZIPEK_clean_linker_0, # of connection points: 2
#     Edge 96, Type (0, 1), BuildingBlock: EZIPEK_clean_linker_0, # of connection points: 2
#     Edge 97, Type (0, 1), BuildingBlock: EZIPEK_clean_linker_0, # of connection points: 2
#     Edge 98, Type (0, 1), BuildingBlock: EZIPEK_clean_linker_0, # of connection points: 2
#     Edge 99, Type (0, 1), BuildingBlock: EZIPEK_clean_linker_0, # of connection points: 2
#     Edge 100, Type (0, 1), BuildingBlock: EZIPEK_clean_linker_0, # of connection points: 2
#     Edge 101, Type (0, 1), BuildingBlock: EZIPEK_clean_linker_0, # of connection points: 2
#     Edge 102, Type (0, 1), BuildingBlock: EZIPEK_clean_linker_0, # of connection points: 2
#     Edge 103, Type (0, 1), BuildingBlock: EZIPEK_clean_linker_0, # of connection points: 2
#     Edge 104, Type (0, 1), BuildingBlock: EZIPEK_clean_linker_0, # of connection points: 2
#     Edge 105, Type (0, 1), BuildingBlock: EZIPEK_clean_linker_0, # of connection points: 2
#     Edge 106, Type (0, 1), BuildingBlock: EZIPEK_clean_linker_0, # of connection points: 2
#     Edge 107, Type (0, 1), BuildingBlock: EZIPEK_clean_linker_0, # of connection points: 2
#     Edge 108, Type (0, 1), BuildingBlock: EZIPEK_clean_linker_0, # of connection points: 2
#     Edge 109, Type (0, 1), BuildingBlock: EZIPEK_clean_linker_0, # of connection points: 2
#     Edge 110, Type (0, 1), BuildingBlock: EZIPEK_clean_linker_0, # of connection points: 2
#     Edge 111, Type (0, 1), BuildingBlock: EZIPEK_clean_linker_0, # of connection points: 2
#     Edge 112, Type (0, 1), BuildingBlock: EZIPEK_clean_linker_0, # of connection points: 2
#     Edge 113, Type (0, 1), BuildingBlock: EZIPEK_clean_linker_0, # of connection points: 2
#     Edge 114, Type (0, 1), BuildingBlock: EZIPEK_clean_linker_0, # of connection points: 2
#     Edge 115, Type (0, 1), BuildingBlock: EZIPEK_clean_linker_0, # of connection points: 2
#     Edge 116, Type (0, 1), BuildingBlock: EZIPEK_clean_linker_0, # of connection points: 2
#     Edge 117, Type (0, 1), BuildingBlock: EZIPEK_clean_linker_0, # of connection points: 2
#     Edge 118, Type (0, 1), BuildingBlock: EZIPEK_clean_linker_0, # of connection points: 2
#     Edge 119, Type (0, 1), BuildingBlock: EZIPEK_clean_linker_0, # of connection points: 2
#     Edge 120, Type (0, 1), BuildingBlock: EZIPEK_clean_linker_0, # of connection points: 2
#     Edge 121, Type (0, 1), BuildingBlock: EZIPEK_clean_linker_0, # of connection points: 2
#     Edge 122, Type (0, 1), BuildingBlock: EZIPEK_clean_linker_0, # of connection points: 2
#     Edge 123, Type (0, 1), BuildingBlock: EZIPEK_clean_linker_0, # of connection points: 2
#     Edge 124, Type (0, 1), BuildingBlock: EZIPEK_clean_linker_0, # of connection points: 2
#     Edge 125, Type (0, 1), BuildingBlock: EZIPEK_clean_linker_0, # of connection points: 2
#     Edge 126, Type (0, 1), BuildingBlock: EZIPEK_clean_linker_0, # of connection points: 2
#     Edge 127, Type (0, 1), BuildingBlock: EZIPEK_clean_linker_0, # of connection points: 2
#     Edge 128, Type (0, 1), BuildingBlock: EZIPEK_clean_linker_0, # of connection points: 2
#     Edge 129, Type (0, 1), BuildingBlock: EZIPEK_clean_linker_0, # of connection points: 2
#     Edge 130, Type (0, 1), BuildingBlock: EZIPEK_clean_linker_0, # of connection points: 2
#     Edge 131, Type (0, 1), BuildingBlock: EZIPEK_clean_linker_0, # of connection points: 2
#     Edge 132, Type (0, 1), BuildingBlock: EZIPEK_clean_linker_0, # of connection points: 2
#     Edge 133, Type (0, 1), BuildingBlock: EZIPEK_clean_linker_0, # of connection points: 2
#     Edge 134, Type (0, 1), BuildingBlock: EZIPEK_clean_linker_0, # of connection points: 2
#     Edge 135, Type (0, 1), BuildingBlock: EZIPEK_clean_linker_0, # of connection points: 2
# Relax obj value: 0.166
# Max RMSD: 0.358
# Mean RMSD: 0.177
data_MOF--net-gar--node1-TATPOV_clean_sbu_0--node2-KUMBUR_clean_sbu_0--edge1-EZIPEK_clean_linker_0
_symmetry_space_group_name_H-M    P1
_symmetry_Int_Tables_number       1
_symmetry_cell_setting            triclinic
loop_
_symmetry_equiv_pos_as_xyz
'x, y, z'
_cell_length_a     46.990502
_cell_length_b     42.175171
_cell_length_c     42.340964
_cell_angle_alpha  102.34025
_cell_angle_beta   94.775086
_cell_angle_gamma 105.30191
loop_
_atom_site_label
_atom_site_type_symbol
_atom_site_fract_x
_atom_site_fract_y
_atom_site_fract_z
_atom_type_partial_charge
Zn0 Zn 0.0955 0.31278 0.3862 0.0
Zn1 Zn 0.14787 0.33536 0.37835 0.0
O2 O 0.14852 0.37883 0.41069 0.0
O3 O 0.10079 0.35894 0.41412 0.0
O4 O 0.18763 0.33984 0.3617 0.0
O5 O 0.09842 0.27719 0.40774 0.0
O6 O 0.14589 0.2988 0.40465 0.0
C7 C 0.12485 0.3829 0.42144 0.0
C8 C 0.09047 0.31994 0.32675 0.0
O9 O 0.11832 0.33185 0.33743 0.0
O10 O 0.07316 0.30351 0.34268 0.0
C11 C 0.19623 0.35524 0.33986 0.0
O12 O 0.18006 0.37265 0.32864 0.0
C13 C 0.12541 0.27864 0.41474 0.0
Zn14 Zn 1.00121 0.70455 0.6823 0.0
Zn15 Zn 0.02014 0.76222 0.66726 0.0
O16 O 0.98102 0.76398 0.6864 0.0
O17 O 0.96846 0.7172 0.70385 0.0
O18 O 0.03152 0.80067 0.64549 0.0
O19 O 0.04308 0.71889 0.70722 0.0
O20 O 0.05516 0.77155 0.70195 0.0
C21 C 0.96425 0.74497 0.70137 0.0
C22 C 0.01409 0.69025 0.62208 0.0
O23 O 0.02447 0.72229 0.63226 0.0
O24 O 0.99493 0.67415 0.63662 0.0
C25 C 0.0169 0.79999 0.61863 0.0
O26 O 0.99198 0.77565 0.6066 0.0
C27 C 0.06145 0.7482 0.71315 0.0
Zn28 Zn 0.60044 0.82696 0.89867 0.0
Zn29 Zn 0.64915 0.83862 0.88206 0.0
O30 O 0.66146 0.8849 0.91362 0.0
O31 O 0.61579 0.87453 0.9259 0.0
O32 O 0.68388 0.83295 0.85894 0.0
O33 O 0.59819 0.79198 0.92143 0.0
O34 O 0.64401 0.80216 0.90959 0.0
C35 C 0.64178 0.89448 0.92876 0.0
C36 C 0.5889 0.83214 0.83955 0.0
O37 O 0.6173 0.84168 0.84623 0.0
O38 O 0.57336 0.81794 0.85825 0.0
C39 C 0.70048 0.85545 0.84748 0.0
O40 O 0.69552 0.88508 0.85037 0.0
C41 C 0.62347 0.78707 0.92375 0.0
Zn42 Zn 0.49717 0.20042 0.18081 0.0
Zn43 Zn 0.51582 0.2567 0.1666 0.0
O44 O 0.47804 0.25793 0.18985 0.0
O45 O 0.46522 0.20961 0.20468 0.0
O46 O 0.52794 0.29866 0.14914 0.0
O47 O 0.53846 0.20944 0.20423 0.0
O48 O 0.55273 0.26144 0.19755 0.0
C49 C 0.46136 0.23797 0.20421 0.0
C50 C 0.50432 0.18641 0.11733 0.0
O51 O 0.51639 0.21826 0.12716 0.0
O52 O 0.48808 0.17173 0.13533 0.0
C53 C 0.52251 0.29559 0.11854 0.0
O54 O 0.5045 0.26712 0.10007 0.0
C55 C 0.55826 0.23754 0.20845 0.0
Zn56 Zn 0.15678 0.82075 0.07641 0.0
Zn57 Zn 0.12201 0.81804 0.11911 0.0
O58 O 0.11382 0.85972 0.09832 0.0
O59 O 0.14351 0.86251 0.06165 0.0
O60 O 0.09266 0.81497 0.15103 0.0
O61 O 0.13852 0.76631 0.0561 0.0
O62 O 0.10933 0.76575 0.09369 0.0
C63 C 0.12434 0.87434 0.07617 0.0
C64 C 0.18894 0.8275 0.14254 0.0
O65 O 0.16258 0.82469 0.14964 0.0
O66 O 0.19333 0.82978 0.11367 0.0
C67 C 0.06505 0.8088 0.14101 0.0
O68 O 0.05615 0.80683 0.11022 0.0
C69 C 0.11924 0.74922 0.07027 0.0
Zn70 Zn 0.49378 0.76059 0.48055 0.0
Zn71 Zn 0.52808 0.76166 0.43618 0.0
O72 O 0.54226 0.81368 0.46298 0.0
O73 O 0.51337 0.81377 0.50098 0.0
O74 O 0.55689 0.76233 0.40259 0.0
O75 O 0.50644 0.71815 0.49438 0.0
O76 O 0.5351 0.71924 0.45651 0.0
C77 C 0.53267 0.83046 0.48661 0.0
C78 C 0.46113 0.75797 0.41637 0.0
O79 O 0.48673 0.75779 0.40793 0.0
O80 O 0.4571 0.75601 0.44537 0.0
C81 C 0.58452 0.77754 0.41212 0.0
O82 O 0.5938 0.79127 0.44344 0.0
C83 C 0.52484 0.70541 0.47923 0.0
Zn84 Zn 0.65915 0.32172 0.57799 0.0
Zn85 Zn 0.62003 0.31642 0.61635 0.0
O86 O 0.61296 0.3586 0.59587 0.0
O87 O 0.64717 0.36516 0.56437 0.0
O88 O 0.58733 0.31015 0.64426 0.0
O89 O 0.64142 0.26831 0.55426 0.0
O90 O 0.60946 0.26515 0.58899 0.0
C91 C 0.6259 0.37516 0.57614 0.0
C92 C 0.68545 0.32419 0.64578 0.0
O93 O 0.65861 0.32311 0.65042 0.0
O94 O 0.69249 0.32615 0.61767 0.0
C95 C 0.57851 0.33376 0.66056 0.0
O96 O 0.59125 0.3654 0.66038 0.0
C97 C 0.62089 0.25005 0.56612 0.0
Zn98 Zn 0.9955 0.25855 0.97628 0.0
Zn99 Zn 0.03072 0.2607 0.93283 0.0
O100 O 0.04384 0.31273 0.9599 0.0
O101 O 0.01399 0.31177 0.99689 0.0
O102 O 0.06121 0.26355 0.90074 0.0
O103 O 0.00831 0.21661 0.99079 0.0
O104 O 0.03752 0.218 0.95342 0.0
C105 C 0.03348 0.32902 0.98313 0.0
C106 C 0.96342 0.2552 0.9116 0.0
O107 O 0.98935 0.25596 0.90358 0.0
O108 O 0.95919 0.25307 0.9405 0.0
C109 C 0.08862 0.27864 0.91199 0.0
O110 O 0.09657 0.29007 0.94377 0.0
C111 C 0.02697 0.20404 0.976 0.0
Zn112 Zn 0.48318 1.00533 0.29288 0.0
Zn113 Zn 0.45277 0.05179 0.30113 0.0
O114 O 0.4752 0.06354 0.34653 0.0
O115 O 0.49972 0.02502 0.33918 0.0
O116 O 0.42832 0.08344 0.30184 0.0
O117 O 0.50228 0.02536 0.25952 0.0
O118 O 0.47672 0.06245 0.26538 0.0
C119 C 0.4933 0.04935 0.35723 0.0
C120 C 0.42194 0.97475 0.28248 0.0
O121 O 0.42193 1.00557 0.28963 0.0
O122 O 0.44596 0.96681 0.28092 0.0
C123 C 0.40176 0.07513 0.30779 0.0
O124 O 0.39182 0.04801 0.31875 0.0
C125 C 0.49556 0.04998 0.25153 0.0
Zn126 Zn 0.27883 0.23673 0.51667 0.0
Zn127 Zn 0.31319 0.19742 0.51474 0.0
O128 O 0.32454 0.21972 0.47561 0.0
O129 O 0.29523 0.25267 0.47666 0.0
O130 O 0.34323 0.17223 0.5203 0.0
O131 O 0.29273 0.26161 0.56553 0.0
O132 O 0.31726 0.22383 0.56381 0.0
C133 C 0.31432 0.24024 0.46308 0.0
C134 C 0.24715 0.16356 0.50339 0.0
O135 O 0.27317 0.16009 0.50229 0.0
O136 O 0.24397 0.19315 0.50901 0.0
C137 C 0.3563 0.15871 0.4985 0.0
O138 O 0.35066 0.16025 0.46805 0.0
C139 C 0.30847 0.24757 0.5804 0.0
Zn140 Zn 0.16479 0.04542 0.77478 0.0
Zn141 Zn 0.19873 1.00308 0.76807 0.0
O142 O 0.17547 1.00511 0.81708 0.0
O143 O 0.14577 0.03757 0.81582 0.0
O144 O 0.22602 0.95946 0.76226 0.0
O145 O 0.1416 0.03407 0.72875 0.0
O146 O 0.17007 1.00053 0.71673 0.0
C147 C 0.15627 0.01937 0.83108 0.0
C148 C 0.22746 0.08428 0.77889 0.0
O149 O 0.23186 0.05452 0.77475 0.0
O150 O 0.20124 0.08638 0.78105 0.0
C151 C 0.23777 0.94314 0.78117 0.0
O152 O 0.23476 0.95072 0.81221 0.0
C153 C 0.15022 0.01483 0.70667 0.0
Zn154 Zn 0.41857 0.91406 0.98061 0.0
Zn155 Zn 0.36519 0.97109 0.01504 0.0
O156 O 0.341 0.94256 0.97085 0.0
O157 O 0.38316 0.93243 0.9747 0.0
O158 O 0.3394 0.99441 0.03948 0.0
O159 O 0.40477 0.90249 0.02269 0.0
O160 O 0.3756 0.93674 0.03871 0.0
C161 C 0.35705 0.92452 0.95925 0.0
C162 C 0.42189 0.9909 1.0043 0.0
O163 O 0.40432 1.00747 0.01468 0.0
O164 O 0.40988 0.95947 0.99245 0.0
C165 C 0.32533 1.00874 0.02297 0.0
O166 O 0.32836 1.00672 0.99209 0.0
C167 C 0.38813 0.91384 0.0421 0.0
Zn168 Zn 0.37316 0.34352 0.0367 0.0
Zn169 Zn 0.34401 0.38681 0.03973 0.0
O170 O 0.33362 0.35743 0.99075 0.0
O171 O 0.35975 0.3211 0.98802 0.0
O172 O 0.31584 0.41617 0.04064 0.0
O173 O 0.35599 0.32411 0.07367 0.0
O174 O 0.33696 0.36687 0.08186 0.0
C175 C 0.34254 0.33396 0.97377 0.0
C176 C 0.41121 0.41349 0.04731 0.0
O177 O 0.3864 0.42035 0.04426 0.0
O178 O 0.41125 0.38341 0.04743 0.0
C179 C 0.29061 0.40496 0.02242 0.0
O180 O 0.28212 0.37353 0.0047 0.0
C181 C 0.34256 0.34192 0.09126 0.0
Zn182 Zn 0.75306 0.12159 0.04627 0.0
Zn183 Zn 0.80723 0.1302 0.03358 0.0
O184 O 0.81291 0.16753 0.01442 0.0
O185 O 0.76455 0.15797 0.01817 0.0
O186 O 0.84511 0.11834 0.03605 0.0
O187 O 0.75746 0.14391 0.09268 0.0
O188 O 0.80262 0.15523 0.07883 0.0
C189 C 0.78834 0.1739 0.00912 0.0
C190 C 0.75519 0.07426 0.00659 0.0
O191 O 0.77415 0.09653 0.99771 0.0
O192 O 0.76036 0.07456 0.03636 0.0
C193 C 0.84534 0.09002 0.01884 0.0
O194 O 0.82038 0.06852 1.00221 0.0
C195 C 0.78481 0.16016 0.09918 0.0
Zn196 Zn 0.20361 0.57806 0.21692 0.0
Zn197 Zn 0.23078 0.53704 0.22263 0.0
O198 O 0.20286 0.53248 0.25534 0.0
O199 O 0.16793 0.54393 0.22659 0.0
O200 O 0.25403 0.50539 0.22743 0.0
O201 O 0.22396 0.57385 0.17645 0.0
O202 O 0.20658 0.52223 0.17779 0.0
C203 C 0.17616 0.53342 0.25071 0.0
C204 C 0.25578 0.61071 0.2533 0.0
O205 O 0.26078 0.58436 0.23665 0.0
O206 O 0.22924 0.61169 0.25447 0.0
C207 C 0.26974 0.51514 0.25541 0.0
O208 O 0.26865 0.54273 0.27602 0.0
C209 C 0.20863 0.54456 0.16167 0.0
Zn210 Zn 0.87592 0.84175 0.53913 0.0
Zn211 Zn 0.84462 0.88437 0.541 0.0
O212 O 0.8372 0.85753 0.49152 0.0
O213 O 0.86136 0.81937 0.48988 0.0
O214 O 0.81426 0.91029 0.54035 0.0
O215 O 0.85908 0.82516 0.5789 0.0
O216 O 0.83455 0.86299 0.58091 0.0
C217 C 0.84591 0.8337 0.47492 0.0
C218 C 0.91169 0.91332 0.55053 0.0
O219 O 0.88644 0.9194 0.55045 0.0
O220 O 0.9129 0.88307 0.54705 0.0
C221 C 0.81655 0.93345 0.52511 0.0
O222 O 0.83982 0.9421 0.51033 0.0
C223 C 0.84182 0.84039 0.59286 0.0
Zn224 Zn 0.99525 0.03719 0.27218 0.0
Zn225 Zn 0.96158 0.0792 0.2789 0.0
O226 O 0.98784 0.08032 0.33054 0.0
O227 O 0.01824 0.04891 0.3192 0.0
O228 O 0.93452 0.12182 0.28 0.0
O229 O 0.01415 0.0437 0.23037 0.0
O230 O 0.98513 0.07672 0.22947 0.0
C231 C 0.00773 0.06634 0.341 0.0
C232 C 0.93211 0.99969 0.27127 0.0
O233 O 0.92792 0.0294 0.27485 0.0
O234 O 0.95794 0.99708 0.2672 0.0
C235 C 0.93148 0.14971 0.29924 0.0
O236 O 0.9475 0.16009 0.32842 0.0
C237 C 1.00401 0.06216 0.21506 0.0
Zn238 Zn 0.25513 0.63452 0.53921 0.0
Zn239 Zn 0.30869 0.62969 0.52724 0.0
O240 O 0.31555 0.66759 0.50698 0.0
O241 O 0.26674 0.65941 0.50366 0.0
O242 O 0.34343 0.61159 0.52617 0.0
O243 O 0.26854 0.66695 0.58078 0.0
O244 O 0.31069 0.65382 0.57453 0.0
C245 C 0.29195 0.67362 0.49659 0.0
C246 C 0.2516 0.5779 0.50788 0.0
O247 O 0.27269 0.59493 0.49637 0.0
O248 O 0.25338 0.58545 0.53851 0.0
C249 C 0.34959 0.59893 0.49867 0.0
O250 O 0.33242 0.59696 0.47179 0.0
C251 C 0.29516 0.66962 0.59123 0.0
Zn252 Zn 0.49403 0.53616 0.77468 0.0
Zn253 Zn 0.4598 0.5763 0.77922 0.0
O254 O 0.48599 0.57746 0.83149 0.0
O255 O 0.51611 0.54561 0.82122 0.0
O256 O 0.43336 0.61991 0.78104 0.0
O257 O 0.51545 0.54523 0.7352 0.0
O258 O 0.48199 0.5713 0.72867 0.0
C259 C 0.50558 0.56339 0.8426 0.0
C260 C 0.43028 0.49691 0.76974 0.0
O261 O 0.42589 0.52656 0.77401 0.0
O262 O 0.45655 0.49488 0.76734 0.0
C263 C 0.43089 0.64788 0.80082 0.0
O264 O 0.44718 0.65759 0.82982 0.0
C265 C 0.50279 0.55869 0.71633 0.0
Zn266 Zn 0.70135 0.07378 0.72902 0.0
Zn267 Zn 0.7243 0.03175 0.72394 0.0
O268 O 0.69288 0.02225 0.75332 0.0
O269 O 0.66109 0.04232 0.72973 0.0
O270 O 0.74414 0.99615 0.72464 0.0
O271 O 0.71763 0.08097 0.68802 0.0
O272 O 0.70559 0.02645 0.67828 0.0
C273 C 0.66677 0.02544 0.74952 0.0
C274 C 0.75273 0.10168 0.76468 0.0
O275 O 0.75583 0.07756 0.74285 0.0
O276 O 0.72675 0.10124 0.77064 0.0
C277 C 0.77228 1.00526 0.73134 0.0
O278 O 0.78777 0.03516 0.72879 0.0
C279 C 0.70782 0.05275 0.66757 0.0
Zn280 Zn 0.77601 0.73554 0.01376 0.0
Zn281 Zn 0.81381 0.69958 0.01502 0.0
O282 O 0.82336 0.72068 0.97438 0.0
O283 O 0.79349 0.75297 0.97452 0.0
O284 O 0.84346 0.67361 0.02023 0.0
O285 O 0.78897 0.75839 0.06345 0.0
O286 O 0.82108 0.72891 0.06305 0.0
C287 C 0.81333 0.74133 0.96173 0.0
C288 C 0.74674 0.66342 0.00447 0.0
O289 O 0.7736 0.66202 0.00726 0.0
O290 O 0.74147 0.69147 0.00473 0.0
C291 C 0.86216 0.66684 1.00187 0.0
O292 O 0.86391 0.67688 0.97461 0.0
C293 C 0.80844 0.74922 0.07896 0.0
Zn294 Zn 0.96596 0.51094 0.78465 0.0
Zn295 Zn 0.93558 0.54929 0.80886 0.0
O296 O 0.96677 0.5587 0.84745 0.0
O297 O 0.99649 0.53062 0.82457 0.0
O298 O 0.91227 0.5815 0.81275 0.0
O299 O 0.95218 0.5475 0.76225 0.0
O300 O 0.95173 0.54791 0.76388 0.0
C301 C 0.99034 0.54931 0.84904 0.0
C302 C 0.90836 0.47573 0.79636 0.0
O303 O 0.90503 0.50507 0.80431 0.0
O304 O 0.93279 0.47147 0.78896 0.0
C305 C 0.88977 0.57649 0.82756 0.0
O306 O 0.88754 0.55719 0.84835 0.0
C307 C 0.9621 0.52225 0.75746 0.0
Zn308 Zn 0.91777 0.4516 0.51541 0.0
Zn309 Zn 0.86882 0.46471 0.51458 0.0
O310 O 0.85573 0.42013 0.48184 0.0
O311 O 0.90079 0.42601 0.46856 0.0
O312 O 0.83251 0.47935 0.51932 0.0
O313 O 0.90862 0.42611 0.54788 0.0
O314 O 0.8784 0.45759 0.55967 0.0
C315 C 0.87299 0.41132 0.46248 0.0
C316 C 0.92484 0.51347 0.51021 0.0
O317 O 0.89835 0.49888 0.49596 0.0
O318 O 0.93443 0.50208 0.53273 0.0
C319 C 0.82685 0.50325 0.50883 0.0
O320 O 0.84517 0.51975 0.4921 0.0
C321 C 0.89204 0.43713 0.56657 0.0
Zn322 Zn 0.66582 0.54625 0.27469 0.0
Zn323 Zn 0.69993 0.50394 0.26897 0.0
O324 O 0.67641 0.50647 0.31795 0.0
O325 O 0.6465 0.53856 0.31578 0.0
O326 O 0.72842 0.46166 0.26428 0.0
O327 O 0.64319 0.53393 0.22805 0.0
O328 O 0.67132 0.49985 0.21707 0.0
C329 C 0.65705 0.52078 0.33157 0.0
C330 C 0.72843 0.58516 0.27922 0.0
O331 O 0.73276 0.5554 0.27522 0.0
O332 O 0.70223 0.58738 0.28123 0.0
C333 C 0.73744 0.4429 0.28244 0.0
O334 O 0.72939 0.44582 0.31164 0.0
C335 C 0.6516 0.51398 0.2064 0.0
Tb336 Tb 0.04546 0.01291 1.00171 0.0
C337 C 0.12251 0.13913 0.0849 0.0
C338 C 0.12156 0.17579 0.04812 0.0
C339 C 0.12918 0.19921 0.10685 0.0
C340 C 0.11885 0.14331 0.05348 0.0
C341 C 0.12876 0.16725 0.11194 0.0
C342 C 0.12569 0.20349 0.07495 0.0
C343 C 0.1396 0.13166 0.14627 0.0
N344 N 0.12298 0.10815 0.0888 0.0
C345 C 0.13399 0.10482 0.1185 0.0
C346 C 0.13615 0.16278 0.14307 0.0
Tb347 Tb 0.11248 0.06575 0.04203 0.0
N348 N 0.11507 0.116 0.0282 0.0
C349 C 0.11577 0.11995 0.99698 0.0
C350 C 0.12114 0.17964 0.01608 0.0
C351 C 0.11875 0.15167 0.99046 0.0
H352 H 0.13785 0.08119 0.12069 0.0
H353 H 0.11857 0.15432 0.96558 0.0
H354 H 0.12728 0.22852 0.07132 0.0
H355 H 0.147 0.12852 0.17 0.0
H356 H 0.11243 0.09842 0.97673 0.0
H357 H 1.00485 0.93839 0.08904 0.0
H358 H 0.12319 0.20416 0.01093 0.0
H359 H 0.03835 0.9791 0.92003 0.0
H360 H 0.00918 0.98543 0.06421 0.0
H361 H 0.03705 0.92523 0.88412 0.0
H362 H 0.13357 0.22107 0.12735 0.0
H363 H 0.01973 0.88854 0.06237 0.0
H364 H 0.03459 0.85716 0.0127 0.0
H365 H 0.1408 0.18361 0.1645 0.0
H366 H 0.04313 0.85321 0.95579 0.0
N367 N 0.03287 0.96732 0.02589 0.0
C368 C 0.01877 0.9661 0.05305 0.0
C369 C 0.02317 0.91023 0.05176 0.0
C370 C 0.03322 0.90923 0.0216 0.0
C371 C 0.01489 0.93834 0.06694 0.0
C372 C 0.03761 0.93832 0.00891 0.0
H373 H 0.0423 0.87772 0.90719 0.0
N374 N 0.04491 0.96364 0.96472 0.0
C375 C 0.03957 0.92814 0.91032 0.0
C376 C 0.04358 0.93636 0.97721 0.0
C377 C 0.04038 0.95892 0.93123 0.0
C378 C 0.0427 0.90152 0.92344 0.0
C379 C 0.04371 0.90497 0.9571 0.0
O380 O 0.02174 0.01679 0.95943 0.0
O381 O 0.07353 0.06486 0.00849 0.0
O382 O 0.08253 0.06971 0.0815 0.0
O383 O 0.03749 0.03216 0.05437 0.0
O384 O 0.03021 0.05847 0.01565 0.0
O385 O 0.99942 0.98789 0.99123 0.0
O386 O 0.14973 0.04894 0.05344 0.0
O387 O 0.08847 0.01134 0.02389 0.0
O388 O 0.07727 0.0177 0.96278 0.0
O389 O 0.12325 0.04788 0.99188 0.0
O390 O 0.10899 0.02787 0.07128 0.0
O391 O 0.15525 0.09479 0.03771 0.0
C392 C 0.05399 0.08142 0.01422 0.0
C393 C 0.97051 1.00846 0.95642 0.0
C394 C 0.93248 0.03526 0.97133 0.0
C395 C 0.95754 0.02557 0.98058 0.0
C396 C 0.92088 0.02852 0.93816 0.0
C397 C 0.95862 1.00144 0.92334 0.0
C398 C 0.93395 0.01161 0.91425 0.0
C399 C 0.05404 0.05318 0.08229 0.0
C400 C 0.99667 0.99784 0.96433 0.0
C401 C 0.0422 0.87715 0.97065 0.0
C402 C 0.03719 0.87937 1.00299 0.0
C403 C 0.09464 1.00055 0.04941 0.0
C404 C 0.19758 0.08833 0.06696 0.0
C405 C 0.21934 0.07239 0.05868 0.0
C406 C 0.24816 0.08498 0.07611 0.0
C407 C 0.25528 0.11369 0.10242 0.0
C408 C 0.20474 0.11748 0.09286 0.0
C409 C 0.23355 0.12991 0.11071 0.0
C410 C 0.10681 0.03088 0.96327 0.0
C411 C 0.16841 0.07412 0.04654 0.0
H412 H 0.96666 0.0312 0.00621 0.0
H413 H 0.90168 0.03637 0.93088 0.0
H414 H 0.9686 0.98824 0.90452 0.0
H415 H 0.92497 1.0064 0.88869 0.0
H416 H 0.21397 0.05016 0.0383 0.0
H417 H 0.27755 0.12356 0.11619 0.0
H418 H 0.18842 0.13076 0.09903 0.0
H419 H 0.2391 0.15228 0.1308 0.0
Tb420 Tb 0.35055 0.79675 0.25028 0.0
C421 C 0.30138 0.87804 0.35204 0.0
C422 C 0.34806 0.90813 0.38766 0.0
C423 C 0.30492 0.929 0.39397 0.0
C424 C 0.33061 0.88028 0.36252 0.0
C425 C 0.28826 0.90259 0.36751 0.0
C426 C 0.33484 0.93191 0.40388 0.0
C427 C 0.24382 0.87466 0.32818 0.0
N428 N 0.28661 0.85339 0.32506 0.0
C429 C 0.25771 0.85101 0.31364 0.0
C430 C 0.25912 0.90054 0.35527 0.0
Tb431 Tb 0.30739 0.80982 0.31103 0.0
N432 N 0.34255 0.85683 0.34602 0.0
C433 C 0.37296 0.86276 0.3511 0.0
C434 C 0.37856 0.91226 0.39465 0.0
C435 C 0.39118 0.88997 0.37563 0.0
H436 H 0.24438 0.82992 0.29424 0.0
H437 H 0.41505 0.89393 0.37957 0.0
H438 H 0.34782 0.95324 0.42343 0.0
H439 H 0.22103 0.8724 0.31888 0.0
H440 H 0.38395 0.84768 0.33586 0.0
H441 H 0.26525 0.6873 0.172 0.0
H442 H 0.39277 0.93349 0.41349 0.0
H443 H 0.42261 0.80607 0.27356 0.0
H444 H 0.28292 0.73841 0.21624 0.0
H445 H 0.46042 0.77853 0.2548 0.0
H446 H 0.29518 0.94799 0.40617 0.0
H447 H 0.30108 0.6632 0.14298 0.0
H448 H 0.35418 0.66415 0.1392 0.0
H449 H 0.24827 0.91887 0.36647 0.0
H450 H 0.4072 0.68805 0.16266 0.0
N451 N 0.32935 0.7451 0.21298 0.0
C452 C 0.2994 0.72883 0.20432 0.0
C453 C 0.30925 0.68616 0.16243 0.0
C454 C 0.33982 0.70151 0.17246 0.0
C455 C 0.28898 0.69952 0.17889 0.0
C456 C 0.34931 0.7313 0.19805 0.0
H457 H 0.44666 0.72942 0.20678 0.0
N458 N 0.38679 0.77065 0.23864 0.0
C459 C 0.43757 0.76838 0.2427 0.0
C460 C 0.37911 0.74433 0.21167 0.0
C461 C 0.41589 0.78355 0.2536 0.0
C462 C 0.42977 0.74092 0.21537 0.0
C463 C 0.40028 0.72854 0.19951 0.0
O464 O 0.38756 0.83089 0.23946 0.0
O465 O 0.32935 0.83208 0.27616 0.0
O466 O 0.28164 0.8149 0.26596 0.0
O467 O 0.30704 0.79742 0.22427 0.0
O468 O 0.37348 0.84933 0.27654 0.0
O469 O 0.34737 0.80552 0.2036 0.0
O470 O 0.26362 0.78772 0.31776 0.0
O471 O 0.32503 0.77251 0.28311 0.0
O472 O 0.37558 0.78795 0.2946 0.0
O473 O 0.34449 0.79228 0.33417 0.0
O474 O 0.28121 0.75798 0.28685 0.0
O475 O 0.29926 0.80922 0.35861 0.0
C476 C 0.35034 0.85893 0.28307 0.0
C477 C 0.39236 0.82413 0.18327 0.0
C478 C 0.40187 0.84114 0.13378 0.0
C479 C 0.38354 0.83619 0.15733 0.0
C480 C 0.42806 0.8313 0.1341 0.0
C481 C 0.4192 0.81539 0.18461 0.0
C482 C 0.43649 0.81788 0.15947 0.0
C483 C 0.28342 0.80655 0.23401 0.0
C484 C 0.37454 0.82595 0.2097 0.0
C485 C 0.39121 0.70032 0.17256 0.0
C486 C 0.36103 0.68681 0.15909 0.0
C487 C 0.30248 0.74674 0.2766 0.0
C488 C 0.25664 0.76839 0.36531 0.0
C489 C 0.2714 0.76705 0.39468 0.0
C490 C 0.26125 0.73927 0.40739 0.0
C491 C 0.23424 0.71442 0.39315 0.0
C492 C 0.22937 0.74389 0.35097 0.0
C493 C 0.21806 0.71712 0.3652 0.0
C494 C 0.36977 0.78617 0.32489 0.0
C495 C 0.2707 0.7945 0.34933 0.0
H496 H 0.36346 0.84433 0.15666 0.0
H497 H 0.4424 0.83544 0.11572 0.0
H498 H 0.42762 0.80811 0.20526 0.0
H499 H 0.45713 0.81107 0.16056 0.0
H500 H 0.29196 0.78631 0.40663 0.0
H501 H 0.22598 0.69291 0.40343 0.0
H502 H 0.21725 0.74502 0.32853 0.0
H503 H 0.19727 0.698 0.35407 0.0
Tb504 Tb 0.61423 0.04347 0.51243 0.0
C505 C 0.51623 1.00231 0.59845 0.0
C506 C 0.4843 0.94744 0.56796 0.0
C507 C 0.48699 0.96393 0.62697 0.0
C508 C 0.50494 0.97892 0.56917 0.0
C509 C 0.50697 0.99552 0.62772 0.0
C510 C 0.47568 0.93989 0.59709 0.0
C511 C 0.53518 0.05288 0.65547 0.0
N512 N 0.5349 0.03268 0.59789 0.0
C513 C 0.54322 0.05849 0.62563 0.0
C514 C 0.51725 0.02109 0.65661 0.0
Tb515 Tb 0.54624 0.04043 0.54801 0.0
N516 N 0.51374 0.98742 0.54173 0.0
C517 C 0.50133 0.96593 0.51191 0.0
C518 C 0.4726 0.92481 0.53749 0.0
C519 C 0.48104 0.93425 0.50927 0.0
H520 H 0.55595 0.08355 0.6249 0.0
H521 H 0.47195 0.91719 0.48547 0.0
H522 H 0.45991 0.91582 0.59672 0.0
H523 H 0.54243 0.07325 0.67744 0.0
H524 H 0.50745 0.97261 0.49 0.0
H525 H 0.69988 0.15484 0.58561 0.0
H526 H 0.45678 0.90032 0.53545 0.0
H527 H 0.60717 0.01226 0.43194 0.0
H528 H 0.66621 0.09765 0.57471 0.0
H529 H 0.61712 0.0348 0.38327 0.0
H530 H 0.47967 0.95813 0.64921 0.0
H531 H 0.70351 0.18664 0.54268 0.0
H532 H 0.69051 0.18613 0.48383 0.0
H533 H 0.5107 0.01692 0.67967 0.0
H534 H 0.66806 0.15296 0.42795 0.0
N535 N 0.64887 0.0962 0.52571 0.0
C536 C 0.66672 0.11073 0.55542 0.0
C537 C 0.68833 0.16127 0.5376 0.0
C538 C 0.67212 0.14528 0.50647 0.0
C539 C 0.68642 0.14339 0.56182 0.0
C540 C 0.65279 0.11212 0.50112 0.0
H541 H 0.64147 0.09602 0.39004 0.0
N542 N 0.62455 0.06062 0.4656 0.0
C543 C 0.62349 0.05167 0.40747 0.0
C544 C 0.6403 0.09355 0.46982 0.0
C545 C 0.61811 0.03897 0.43501 0.0
C546 C 0.63711 0.08627 0.41139 0.0
C547 C 0.64657 0.10749 0.44288 0.0
O548 O 0.63332 1.00723 0.48865 0.0
O549 O 0.57341 0.01109 0.52387 0.0
O550 O 0.57744 0.02979 0.58286 0.0
O551 O 0.6195 0.0579 0.56477 0.0
O552 O 0.59745 0.98781 0.49568 0.0
O553 O 0.65387 0.0395 0.53636 0.0
O554 O 0.52684 0.0797 0.56283 0.0
O555 O 0.58475 0.07284 0.53267 0.0
O556 O 0.58259 0.04971 0.47633 0.0
O557 O 0.53766 0.02897 0.4946 0.0
O558 O 0.57041 0.09342 0.57358 0.0
O559 O 0.50525 0.03763 0.52179 0.0
C560 C 0.57443 0.98115 0.50999 0.0
C561 C 0.68508 0.01953 0.50083 0.0
C562 C 0.72958 1.00081 0.49817 0.0
C563 C 0.70286 1.00045 0.51068 0.0
C564 C 0.73853 0.02034 0.47584 0.0
C565 C 0.69429 0.03926 0.47865 0.0
C566 C 0.72095 0.03959 0.46622 0.0
C567 C 0.60667 0.04023 0.58417 0.0
C568 C 0.65597 0.01603 0.51181 0.0
C569 C 0.66346 0.14155 0.44829 0.0
C570 C 0.67622 0.16045 0.4801 0.0
C571 C 0.58963 0.10087 0.55447 0.0
C572 C 0.47475 0.06594 0.55055 0.0
C573 C 0.45852 0.08437 0.53684 0.0
C574 C 0.43095 0.08567 0.54627 0.0
C575 C 0.41959 0.06854 0.56953 0.0
C576 C 0.46335 0.04882 0.57383 0.0
C577 C 0.43582 0.05017 0.58328 0.0
C578 C 0.55337 0.04094 0.47302 0.0
C579 C 0.50365 0.06574 0.54039 0.0
H580 H 0.69576 0.98494 0.5276 0.0
H581 H 0.75914 0.0207 0.466 0.0
H582 H 0.68075 0.05391 0.47056 0.0
H583 H 0.72789 0.0546 0.44893 0.0
H584 H 0.4673 0.09776 0.51892 0.0
H585 H 0.39829 0.06951 0.57704 0.0
H586 H 0.47564 0.03462 0.58475 0.0
H587 H 0.42707 0.03703 0.6013 0.0
Tb588 Tb 0.29186 0.30006 0.77365 0.0
C589 C 0.38453 0.24422 0.82761 0.0
C590 C 0.40263 0.28376 0.88044 0.0
C591 C 0.40488 0.22574 0.8727 0.0
C592 C 0.38918 0.27598 0.84763 0.0
C593 C 0.39315 0.21894 0.83953 0.0
C594 C 0.40969 0.25817 0.89313 0.0
C595 C 0.38263 0.18447 0.78406 0.0
N596 N 0.37405 0.23913 0.7956 0.0
C597 C 0.37506 0.21073 0.77342 0.0
C598 C 0.39118 0.18833 0.81739 0.0
Tb599 Tb 0.36192 0.28316 0.78018 0.0
N600 N 0.38216 0.29985 0.8343 0.0
C601 C 0.3895 0.33269 0.85214 0.0
C602 C 0.40956 0.31724 0.89905 0.0
C603 C 0.40343 0.34195 0.88461 0.0
H604 H 0.36945 0.20816 0.74757 0.0
H605 H 0.4086 0.36794 0.8987 0.0
H606 H 0.41972 0.26348 0.91838 0.0
H607 H 0.3823 0.16153 0.76652 0.0
H608 H 0.38264 0.35133 0.84219 0.0
H609 H 0.20911 0.18817 0.69364 0.0
H610 H 0.42 0.32433 0.92432 0.0
H611 H 0.28984 0.37854 0.77108 0.0
H612 H 0.23598 0.22384 0.74642 0.0
H613 H 0.28306 0.40884 0.72899 0.0
H614 H 0.4114 0.20655 0.88247 0.0
H615 H 0.21321 0.20991 0.64394 0.0
H616 H 0.23068 0.25979 0.61972 0.0
H617 H 0.39754 0.16818 0.82555 0.0
H618 H 0.25178 0.32156 0.62946 0.0
N619 N 0.26008 0.26451 0.72695 0.0
C620 C 0.24008 0.23345 0.72503 0.0
C621 C 0.22605 0.22552 0.66709 0.0
C622 C 0.24287 0.25896 0.66999 0.0
C623 C 0.22378 0.21316 0.69504 0.0
C624 C 0.25924 0.27819 0.70075 0.0
H625 H 0.26981 0.37781 0.67072 0.0
N626 N 0.28254 0.3306 0.73706 0.0
C627 C 0.28022 0.38184 0.72199 0.0
C628 C 0.27129 0.31268 0.70601 0.0
C629 C 0.28415 0.36439 0.74581 0.0
C630 C 0.27295 0.36428 0.68917 0.0
C631 C 0.26706 0.32902 0.68095 0.0
O632 O 0.28246 0.339 0.80727 0.0
O633 O 0.33156 0.3052 0.80729 0.0
O634 O 0.32969 0.23553 0.78531 0.0
O635 O 0.28367 0.24464 0.77285 0.0
O636 O 0.29058 0.28611 0.81997 0.0
O637 O 0.24693 0.2933 0.78209 0.0
O638 O 0.3879 0.27411 0.74269 0.0
O639 O 0.32711 0.29023 0.74731 0.0
O640 O 0.32782 0.34938 0.776 0.0
O641 O 0.37309 0.33729 0.77988 0.0
O642 O 0.34311 0.24985 0.73182 0.0
O643 O 0.4067 0.3124 0.78684 0.0
C644 C 0.31856 0.29478 0.83014 0.0
C645 C 0.23302 0.33619 0.8216 0.0
C646 C 0.1886 0.32921 0.84885 0.0
C647 C 0.20699 0.31496 0.82894 0.0
C648 C 0.19608 0.3646 0.86035 0.0
C649 C 0.23996 0.37144 0.83358 0.0
C650 C 0.22149 0.3855 0.85265 0.0
C651 C 0.29998 0.22445 0.77911 0.0
C652 C 0.25442 0.3222 0.80379 0.0
C653 C 0.25437 0.30951 0.64926 0.0
C654 C 0.24225 0.27438 0.64376 0.0
C655 C 0.32495 0.26546 0.72306 0.0
C656 C 0.43977 0.2878 0.7589 0.0
C657 C 0.45983 0.29938 0.73825 0.0
C658 C 0.48697 0.29131 0.73817 0.0
C659 C 0.49378 0.27134 0.7586 0.0
C660 C 0.44719 0.26852 0.77975 0.0
C661 C 0.47395 0.26007 0.77934 0.0
C662 C 0.3577 0.3591 0.77815 0.0
C663 C 0.41178 0.29703 0.75889 0.0
H664 H 0.2016 0.28765 0.82026 0.0
H665 H 0.18229 0.37606 0.87564 0.0
H666 H 0.25987 0.38821 0.82842 0.0
H667 H 0.22711 0.41272 0.86184 0.0
H668 H 0.45455 0.31488 0.72252 0.0
H669 H 0.51463 0.26491 0.75877 0.0
H670 H 0.43261 0.2603 0.79658 0.0
H671 H 0.47946 0.24504 0.79538 0.0
Tb672 Tb 0.07387 0.0753 0.5433 0.0
C673 C 0.07784 0.9933 0.42601 0.0
C674 C 0.02571 0.9703 0.40242 0.0
C675 C 0.06275 0.98704 0.36797 0.0
C676 C 0.04836 0.98068 0.42989 0.0
C677 C 0.08536 0.99525 0.39466 0.0
C678 C 0.03296 0.97473 0.37188 0.0
C679 C 0.13714 1.0101 0.4173 0.0
N680 N 0.0993 1.00193 0.4524 0.0
C681 C 0.12869 1.00769 0.44769 0.0
C682 C 0.11542 1.00469 0.39079 0.0
Tb683 Tb 0.08276 0.99987 0.50203 0.0
N684 N 0.04203 0.97688 0.45993 0.0
C685 C 0.01384 0.95764 0.46206 0.0
C686 C 0.99648 0.95476 0.40608 0.0
C687 C 0.99071 0.94755 0.4358 0.0
H688 H 0.14623 1.01051 0.46715 0.0
H689 H 0.9685 0.93348 0.43835 0.0
H690 H 0.01576 0.96757 0.35084 0.0
H691 H 0.16046 0.01577 0.4143 0.0
H692 H 0.00829 0.94837 0.48321 0.0
H693 H 0.174 0.10816 0.6311 0.0
H694 H 0.97854 0.94662 0.38569 0.0
H695 H 0.00712 0.08592 0.55365 0.0
H696 H 0.14505 0.09321 0.5765 0.0
H697 H 0.97871 0.09634 0.5992 0.0
H698 H 0.06814 0.98918 0.34398 0.0
H699 H 0.14873 0.11474 0.68002 0.0
H700 H 0.10153 0.11562 0.70359 0.0
H701 H 0.12203 1.00648 0.36717 0.0
H702 H 0.04818 0.11192 0.69488 0.0
N703 N 0.10315 0.08955 0.59337 0.0
C704 C 0.13347 0.09546 0.59724 0.0
C705 C 0.1358 0.10793 0.6559 0.0
C706 C 0.10508 0.1038 0.65195 0.0
C707 C 0.15012 0.10423 0.62838 0.0
C708 C 0.08928 0.09483 0.61998 0.0
H709 H 1.00218 0.10482 0.65606 0.0
N710 N 0.04552 0.08548 0.58398 0.0
C711 C 1.00129 0.09499 0.60404 0.0
C712 C 0.0594 0.09266 0.61512 0.0
C713 C 0.0174 0.08885 0.57827 0.0
C714 C 0.01461 0.09975 0.63607 0.0
C715 C 0.04426 0.09948 0.64201 0.0
O716 O 0.05469 0.11238 0.53272 0.0
O717 O 0.07174 0.04511 0.4927 0.0
O718 O 0.12618 0.03927 0.50809 0.0
O719 O 0.11542 0.09003 0.52417 0.0
O720 O 0.0376 0.06429 0.50185 0.0
O721 O 0.10194 0.12539 0.55267 0.0
O722 O 0.11847 0.97898 0.50368 0.0
O723 O 0.09608 0.03652 0.55038 0.0
O724 O 0.03637 0.03706 0.55348 0.0
O725 O 0.04118 0.98676 0.52276 0.0
O726 O 0.0834 0.98703 0.55017 0.0
O727 O 0.07354 0.94695 0.48661 0.0
C728 C 0.04773 0.04851 0.47788 0.0
C729 C 0.08355 0.17065 0.54169 0.0
C730 C 0.10018 0.21437 0.51308 0.0
C731 C 0.10298 0.18521 0.52204 0.0
C732 C 0.08027 0.23102 0.52703 0.0
C733 C 0.06344 0.18697 0.55517 0.0
C734 C 0.06235 0.2176 0.54846 0.0
C735 C 0.13324 0.07266 0.51258 0.0
C736 C 0.08001 0.13565 0.54227 0.0
C737 C 0.05949 0.10692 0.6739 0.0
C738 C 0.08986 0.10908 0.67886 0.0
C739 C 0.09311 0.01642 0.57025 0.0
C740 C 0.10611 0.92675 0.51757 0.0
C741 C 0.08278 0.90859 0.5314 0.0
C742 C 0.08883 0.88898 0.55258 0.0
C743 C 0.11813 0.88792 0.56023 0.0
C744 C 0.13528 0.92546 0.52557 0.0
C745 C 0.14124 0.90623 0.54688 0.0
C746 C 0.02647 1.004 0.5414 0.0
C747 C 0.10103 0.94809 0.49565 0.0
H748 H 0.11814 0.17223 0.51117 0.0
H749 H 0.0781 0.25391 0.52066 0.0
H750 H 0.04799 0.17545 0.56997 0.0
H751 H 0.04671 0.23017 0.55875 0.0
H752 H 0.06009 0.9094 0.52572 0.0
H753 H 0.12302 0.8727 0.5764 0.0
H754 H 0.15354 0.93952 0.51541 0.0
H755 H 0.16381 0.90537 0.5529 0.0
Tb756 Tb 0.36625 0.81831 0.77397 0.0
C757 C 0.28136 0.7369 0.84581 0.0
C758 C 0.29739 0.68678 0.84417 0.0
C759 C 0.27318 0.70766 0.88932 0.0
C760 C 0.2957 0.71448 0.83119 0.0
C761 C 0.26904 0.7332 0.87448 0.0
C762 C 0.28724 0.68433 0.87406 0.0
C763 C 0.24439 0.77525 0.86769 0.0
N764 N 0.27699 0.7604 0.82995 0.0
C765 C 0.25659 0.77727 0.83891 0.0
C766 C 0.2513 0.75376 0.88608 0.0
Tb767 Tb 0.29826 0.76272 0.78313 0.0
N768 N 0.30452 0.71738 0.80201 0.0
C769 C 0.31193 0.69108 0.78292 0.0
C770 C 0.30722 0.66118 0.82565 0.0
C771 C 0.31368 0.6629 0.79443 0.0
H772 H 0.24937 0.79209 0.82383 0.0
H773 H 0.31988 0.64249 0.7791 0.0
H774 H 0.28881 0.66356 0.88471 0.0
H775 H 0.22909 0.78963 0.87521 0.0
H776 H 0.3153 0.69098 0.75827 0.0
H777 H 0.40259 0.94559 0.85374 0.0
H778 H 0.30849 0.63926 0.83451 0.0
H779 H 0.37686 0.80425 0.69257 0.0
H780 H 0.39772 0.88471 0.83896 0.0
H781 H 0.37012 0.83039 0.64759 0.0
H782 H 0.26418 0.70459 0.91158 0.0
H783 H 0.38447 0.97277 0.81313 0.0
H784 H 0.36435 0.96817 0.75516 0.0
H785 H 0.24134 0.75169 0.908 0.0
H786 H 0.35428 0.93562 0.69789 0.0
N787 N 0.37489 0.87621 0.79055 0.0
C788 C 0.38925 0.89586 0.82083 0.0
C789 C 0.38199 0.94581 0.80647 0.0
C790 C 0.37036 0.92648 0.77462 0.0
C791 C 0.39231 0.9306 0.82941 0.0
C792 C 0.36774 0.89145 0.76712 0.0
H793 H 0.35764 0.88463 0.6574 0.0
N794 N 0.3652 0.84143 0.72857 0.0
C795 C 0.36721 0.84249 0.67187 0.0
C796 C 0.36218 0.87317 0.73491 0.0
C797 C 0.37096 0.82778 0.69784 0.0
C798 C 0.35999 0.87292 0.67749 0.0
C799 C 0.3589 0.88948 0.7095 0.0
O800 O 0.40032 0.80973 0.74758 0.0
O801 O 0.34582 0.7648 0.77658 0.0
O802 O 0.31713 0.79215 0.8323 0.0
O803 O 0.35429 0.83624 0.82216 0.0
O804 O 0.38605 0.78855 0.80243 0.0
O805 O 0.41075 0.83912 0.79747 0.0
O806 O 0.25925 0.75981 0.75256 0.0
O807 O 0.31875 0.8141 0.77532 0.0
O808 O 0.3403 0.78785 0.72676 0.0
O809 O 0.3125 0.7404 0.73926 0.0
O810 O 0.27552 0.80216 0.77823 0.0
O811 O 0.26666 0.71535 0.76344 0.0
C812 C 0.36713 0.75896 0.79428 0.0
C813 C 0.44778 0.84972 0.76347 0.0
C814 C 0.50165 0.86686 0.76686 0.0
C815 C 0.47558 0.84679 0.77445 0.0
C816 C 0.49994 0.88985 0.74781 0.0
C817 C 0.44605 0.87313 0.74481 0.0
C818 C 0.47213 0.89298 0.73688 0.0
C819 C 0.33665 0.82226 0.84127 0.0
C820 C 0.42136 0.82728 0.77155 0.0
C821 C 0.35752 0.92301 0.7171 0.0
C822 C 0.36335 0.94157 0.7497 0.0
C823 C 0.29624 0.82724 0.77408 0.0
C824 C 0.21805 0.72021 0.76373 0.0
C825 C 0.19634 0.73466 0.75376 0.0
C826 C 0.16804 0.72608 0.76332 0.0
C827 C 0.16196 0.70445 0.78444 0.0
C828 C 0.21173 0.69858 0.78503 0.0
C829 C 0.1839 0.69109 0.79554 0.0
C830 C 0.32368 0.75626 0.71792 0.0
C831 C 0.24721 0.72833 0.75222 0.0
H832 H 0.47704 0.82908 0.78932 0.0
H833 H 0.52006 0.90576 0.74214 0.0
H834 H 0.4248 0.87609 0.73639 0.0
H835 H 0.47079 0.91101 0.72248 0.0
H836 H 0.20092 0.75144 0.73745 0.0
H837 H 0.14012 0.69761 0.79193 0.0
H838 H 0.22821 0.68743 0.79364 0.0
H839 H 0.17918 0.67446 0.81188 0.0
Tb840 Tb 0.60431 0.0517 0.06373 0.0
C841 C 0.53808 0.09471 0.96097 0.0
C842 C 0.50098 0.04214 0.93306 0.0
C843 C 0.49124 0.09584 0.93282 0.0
C844 C 0.52914 0.05986 0.95191 0.0
C845 C 0.51944 0.11323 0.95125 0.0
C846 C 0.48202 0.06033 0.92375 0.0
C847 C 0.5588 0.16462 0.97654 0.0
N848 N 0.56531 0.11053 0.97897 0.0
C849 C 0.57653 0.14504 0.98515 0.0
C850 C 0.52993 0.14865 0.95985 0.0
Tb851 Tb 0.59372 0.07689 0.99071 0.0
N852 N 0.54812 0.04336 0.96153 0.0
C853 C 0.54047 1.00864 0.95159 0.0
C854 C 0.49277 1.00673 0.92404 0.0
C855 C 0.51272 0.98994 0.93319 0.0
H856 H 0.59925 0.1574 0.99703 0.0
H857 H 0.50677 0.96252 0.92609 0.0
H858 H 0.46027 0.04719 0.90943 0.0
H859 H 0.56755 0.19196 0.98242 0.0
H860 H 0.55511 0.99457 0.9581 0.0
H861 H 0.67115 0.18401 0.12243 0.0
H862 H 0.47128 0.99219 0.90977 0.0
H863 H 0.62831 0.98476 0.06372 0.0
H864 H 0.63924 0.1396 0.07773 0.0
H865 H 0.65899 0.96603 0.10138 0.0
H866 H 0.47652 0.10961 0.92526 0.0
H867 H 0.69352 0.16984 0.17041 0.0
H868 H 0.70392 0.12502 0.19605 0.0
H869 H 0.51627 0.16383 0.95297 0.0
H870 H 0.70191 0.06501 0.18947 0.0
N871 N 0.63923 0.09866 0.10064 0.0
C872 C 0.64734 0.13203 0.09858 0.0
C873 C 0.67852 0.14981 0.15106 0.0
C874 C 0.67349 0.11581 0.15148 0.0
C875 C 0.66604 0.15786 0.124 0.0
C876 C 0.65399 0.09069 0.12543 0.0
H877 H 0.68652 1.00582 0.15326 0.0
N878 N 0.63875 0.03535 0.09305 0.0
C879 C 0.65789 0.9919 0.10727 0.0
C880 C 0.65387 0.05746 0.12127 0.0
C881 C 0.6408 1.00286 0.08567 0.0
C882 C 0.67313 0.01432 0.13664 0.0
C883 C 0.67169 0.04775 0.14371 0.0
O884 O 0.57956 1.00054 0.0547 0.0
O885 O 0.57282 0.04553 0.0204 0.0
O886 O 0.58324 0.11343 0.03149 0.0
O887 O 0.59187 0.09732 0.08031 0.0
O888 O 0.55787 0.05312 0.06445 0.0
O889 O 0.59201 0.03216 0.10359 0.0
O890 O 0.62001 0.10855 0.96548 0.0
O891 O 0.62598 0.07106 0.02633 0.0
O892 O 0.62366 0.02189 0.02701 0.0
O893 O 0.60313 0.02764 0.97745 0.0
O894 O 0.6361 0.11469 0.01345 0.0
O895 O 0.60137 0.05482 0.94433 0.0
C896 C 0.5499 0.04803 0.03356 0.0
C897 C 0.54582 0.99019 0.09202 0.0
C898 C 0.51189 0.99959 0.1301 0.0
C899 C 0.53416 0.01231 0.11279 0.0
C900 C 0.49734 0.96471 0.12245 0.0
C901 C 0.53105 0.95534 0.08357 0.0
C902 C 0.50618 0.94276 0.09814 0.0
C903 C 0.58361 0.11743 0.06379 0.0
C904 C 0.57613 1.00288 0.08504 0.0
C905 C 0.68843 0.07203 0.17165 0.0
C906 C 0.68942 0.10614 0.17549 0.0
C907 C 0.6479 0.09659 0.02825 0.0
C908 C 0.60757 0.08979 0.90808 0.0
C909 C 0.61241 0.06799 0.88084 0.0
C910 C 0.61064 0.07558 0.85043 0.0
C911 C 0.60089 0.10341 0.84653 0.0
C912 C 0.59778 0.1177 0.9044 0.0
C913 C 0.59387 0.12401 0.87348 0.0
C914 C 0.61648 0.01162 0.99478 0.0
C915 C 0.61585 0.08385 0.93973 0.0
H916 H 0.54566 0.0392 0.12003 0.0
H917 H 0.48067 0.95439 0.13654 0.0
H918 H 0.53959 0.93786 0.06712 0.0
H919 H 0.49517 0.91578 0.09233 0.0
H920 H 0.62028 0.0466 0.88378 0.0
H921 H 0.59956 0.10964 0.82304 0.0
H922 H 0.59394 0.13501 0.92523 0.0
H923 H 0.58659 0.14568 0.87065 0.0
Tb924 Tb 0.36226 0.33699 0.29781 0.0
C925 C 0.23821 0.25045 0.23254 0.0
C926 C 0.20838 0.25437 0.2766 0.0
C927 C 0.1845 0.24077 0.22047 0.0
C928 C 0.23635 0.25639 0.26578 0.0
C929 C 0.21204 0.24192 0.20958 0.0
C930 C 0.18263 0.24671 0.25383 0.0
C931 C 0.24127 0.23244 0.16637 0.0
N932 N 0.26527 0.25198 0.22264 0.0
C933 C 0.26644 0.2407 0.18982 0.0
C934 C 0.21402 0.23362 0.17625 0.0
Tb935 Tb 0.30347 0.25911 0.26413 0.0
N936 N 0.2617 0.26396 0.28746 0.0
C937 C 0.26002 0.26936 0.32034 0.0
C938 C 0.20696 0.26034 0.31007 0.0
C939 C 0.2329 0.26793 0.33198 0.0
H940 H 0.28699 0.23789 0.18146 0.0
H941 H 0.23211 0.2729 0.358 0.0
H942 H 0.16113 0.24544 0.26181 0.0
H943 H 0.24281 0.22444 0.14067 0.0
H944 H 0.27931 0.27607 0.33845 0.0
H945 H 0.42572 0.39773 0.21331 0.0
H946 H 0.18598 0.25936 0.31925 0.0
H947 H 0.39748 0.33128 0.36938 0.0
H948 H 0.38569 0.38787 0.24661 0.0
H949 H 0.44211 0.31822 0.38811 0.0
H950 H 0.1644 0.235 0.20325 0.0
H951 H 0.4665 0.37147 0.21811 0.0
H952 H 0.49336 0.34234 0.25028 0.0
H953 H 0.19442 0.22681 0.158 0.0
H954 H 0.49885 0.32235 0.30011 0.0
N955 N 0.4008 0.35195 0.26758 0.0
C956 C 0.40251 0.37479 0.24829 0.0
C957 C 0.44839 0.36612 0.23225 0.0
C958 C 0.44922 0.34747 0.25568 0.0
C959 C 0.42555 0.38111 0.22959 0.0
C960 C 0.42499 0.34111 0.2735 0.0
H961 H 0.48012 0.31373 0.35193 0.0
N962 N 0.40526 0.32671 0.3194 0.0
C963 C 0.43802 0.31997 0.36309 0.0
C964 C 0.42769 0.32888 0.30093 0.0
C965 C 0.41175 0.32605 0.35155 0.0
C966 C 0.45946 0.31774 0.34273 0.0
C967 C 0.45512 0.3238 0.31183 0.0
O968 O 0.36393 0.3673 0.34464 0.0
O969 O 0.31494 0.30987 0.29492 0.0
O970 O 0.31121 0.28773 0.22487 0.0
O971 O 0.34874 0.33831 0.24726 0.0
O972 O 0.32516 0.35832 0.28974 0.0
O973 O 0.38581 0.38878 0.309 0.0
O974 O 0.3006 0.21458 0.22896 0.0
O975 O 0.35026 0.28662 0.26589 0.0
O976 O 0.3537 0.30727 0.33552 0.0
O977 O 0.31565 0.2571 0.31476 0.0
O978 O 0.3408 0.23756 0.26776 0.0
O979 O 0.27741 0.21296 0.27099 0.0
C980 C 0.30333 0.33282 0.29064 0.0
C981 C 0.36657 0.42377 0.34658 0.0
C982 C 0.3385 0.45982 0.33091 0.0
C983 C 0.35079 0.43314 0.32238 0.0
C984 C 0.34258 0.47806 0.36352 0.0
C985 C 0.37067 0.44198 0.37928 0.0
C986 C 0.35882 0.46923 0.3876 0.0
C987 C 0.32957 0.31691 0.22235 0.0
C988 C 0.37855 0.39499 0.33798 0.0
C989 C 0.47805 0.32701 0.2925 0.0
C990 C 0.47488 0.33828 0.26408 0.0
C991 C 0.36223 0.26347 0.26752 0.0
C992 C 0.28405 0.16171 0.24172 0.0
C993 C 0.3086 0.15588 0.25795 0.0
C994 C 0.30989 0.12262 0.25468 0.0
C995 C 0.28667 0.0953 0.23547 0.0
C996 C 0.26088 0.13436 0.22251 0.0
C997 C 0.26217 0.10123 0.21948 0.0
C998 C 0.33559 0.27867 0.33917 0.0
C999 C 0.28197 0.1958 0.24333 0.0
H1000 H 0.34791 0.41988 0.29689 0.0
H1001 H 0.33316 0.49896 0.37024 0.0
H1002 H 0.38297 0.43512 0.39826 0.0
H1003 H 0.36193 0.48339 0.41268 0.0
H1004 H 0.32671 0.1768 0.27267 0.0
H1005 H 0.2877 0.06951 0.23272 0.0
H1006 H 0.24185 0.13869 0.2097 0.0
H1007 H 0.24431 0.08017 0.20455 0.0
Tb1008 Tb 0.5776 0.57172 0.04065 0.0
C1009 C 0.58645 0.49815 0.92654 0.0
C1010 C 0.53582 0.47516 0.89797 0.0
C1011 C 0.57582 0.49792 0.86916 0.0
C1012 C 0.55646 0.4839 0.92696 0.0
C1013 C 0.59655 0.50358 0.89706 0.0
C1014 C 0.54547 0.48368 0.8696 0.0
C1015 C 0.64666 0.51255 0.92249 0.0
N1016 N 0.60596 0.50302 0.95386 0.0
C1017 C 0.63559 0.50684 0.95101 0.0
C1018 C 0.62716 0.51224 0.89577 0.0
Tb1019 Tb 0.58493 0.49621 1.00047 0.0
N1020 N 0.54779 0.47652 0.95507 0.0
C1021 C 0.51935 0.45614 0.95396 0.0
C1022 C 0.50629 0.45706 0.89795 0.0
C1023 C 0.49827 0.44668 0.92581 0.0
H1024 H 0.65135 0.50607 0.97069 0.0
H1025 H 0.47581 0.43123 0.92565 0.0
H1026 H 0.5298 0.478 0.84746 0.0
H1027 H 0.67025 0.51707 0.92116 0.0
H1028 H 0.51246 0.44591 0.97412 0.0
H1029 H 0.66994 0.60041 0.13715 0.0
H1030 H 0.48986 0.44985 0.87621 0.0
H1031 H 0.51249 0.58841 0.04091 0.0
H1032 H 0.64489 0.58392 0.08007 0.0
H1033 H 0.48297 0.609 0.08168 0.0
H1034 H 0.58317 0.50276 0.8466 0.0
H1035 H 0.64167 0.61418 0.18241 0.0
H1036 H 0.59404 0.62364 0.20002 0.0
H1037 H 0.63577 0.5165 0.8736 0.0
H1038 H 0.54321 0.62658 0.18483 0.0
N1039 N 0.60258 0.58594 0.09274 0.0
C1040 C 0.6323 0.58915 0.09958 0.0
C1041 C 0.63057 0.60655 0.15737 0.0
C1042 C 0.60075 0.60576 0.15006 0.0
C1043 C 0.64659 0.59882 0.13192 0.0
C1044 C 0.58738 0.59558 0.11706 0.0
H1045 H 0.50187 0.62197 0.14071 0.0
N1046 N 0.54768 0.58882 0.07638 0.0
C1047 C 0.50425 0.60565 0.0896 0.0
C1048 C 0.55896 0.59728 0.10856 0.0
C1049 C 0.52106 0.59383 0.06653 0.0
C1050 C 0.51497 0.61288 0.12289 0.0
C1051 C 0.54282 0.60912 0.13275 0.0
O1052 O 0.56701 0.61106 0.02369 0.0
O1053 O 0.57308 0.54103 0.99011 0.0
O1054 O 0.63038 0.53217 0.01289 0.0
O1055 O 0.61839 0.58203 0.0184 0.0
O1056 O 0.53855 0.55927 1.00265 0.0
O1057 O 0.60978 0.61937 0.05275 0.0
O1058 O 0.61717 0.46968 0.99914 0.0
O1059 O 0.59849 0.53232 0.04885 0.0
O1060 O 0.5399 0.53512 0.05361 0.0
O1061 O 0.54153 0.48625 0.01785 0.0
O1062 O 0.58378 0.48297 0.04861 0.0
O1063 O 0.5705 0.44313 0.98525 0.0
C1064 C 0.54787 0.54417 0.97762 0.0
C1065 C 0.59707 0.66757 0.04363 0.0
C1066 C 0.60873 0.71809 0.02356 0.0
C1067 C 0.60936 0.68493 0.02127 0.0
C1068 C 0.59823 0.73505 0.05036 0.0
C1069 C 0.58636 0.68398 0.07035 0.0
C1070 C 0.58751 0.71809 0.07398 0.0
C1071 C 0.63773 0.56477 0.01348 0.0
C1072 C 0.5934 0.63165 0.03544 0.0
C1073 C 0.55537 0.61773 0.16583 0.0
C1074 C 0.58429 0.61603 0.17448 0.0
C1075 C 0.59431 0.51231 0.06871 0.0
C1076 C 0.60157 0.4133 1.00427 0.0
C1077 C 0.58494 0.40281 0.02825 0.0
C1078 C 0.58703 0.37385 0.03848 0.0
C1079 C 0.60685 0.35649 0.02562 0.0
C1080 C 0.62139 0.39587 0.99199 0.0
C1081 C 0.62415 0.36772 1.00278 0.0
C1082 C 0.52867 0.50218 0.0402 0.0
C1083 C 0.59732 0.44033 0.98935 0.0
H1084 H 0.61728 0.67176 1.00039 0.0
H1085 H 0.59773 0.76094 0.05252 0.0
H1086 H 0.57673 0.67038 0.08772 0.0
H1087 H 0.57919 0.73104 0.09447 0.0
H1088 H 0.57001 0.41632 0.03837 0.0
H1089 H 0.60891 0.3342 0.03332 0.0
H1090 H 0.63435 0.4037 0.97352 0.0
H1091 H 0.63938 0.35423 0.99301 0.0
Tb1092 Tb 0.86788 0.32109 0.27067 0.0
C1093 C 0.78398 0.22984 0.33615 0.0
C1094 C 0.7993 0.17866 0.32788 0.0
C1095 C 0.77574 0.19497 0.37526 0.0
C1096 C 0.79759 0.20826 0.31844 0.0
C1097 C 0.77204 0.22296 0.36423 0.0
C1098 C 0.78927 0.17275 0.35701 0.0
C1099 C 0.74897 0.26777 0.3646 0.0
N1100 N 0.7801 0.25597 0.32403 0.0
C1101 C 0.76073 0.27297 0.33624 0.0
C1102 C 0.75526 0.24318 0.37916 0.0
Tb1103 Tb 0.80041 0.26289 0.27753 0.0
N1104 N 0.80664 0.21469 0.29028 0.0
C1105 C 0.81541 0.19089 0.26907 0.0
C1106 C 0.80968 0.15512 0.30701 0.0
C1107 C 0.81718 0.16097 0.27715 0.0
H1108 H 0.75408 0.29048 0.32419 0.0
H1109 H 0.82455 0.14258 0.26041 0.0
H1110 H 0.79081 0.15041 0.36495 0.0
H1111 H 0.73451 0.2822 0.37477 0.0
H1112 H 0.82113 0.19472 0.24575 0.0
H1113 H 0.90306 0.44239 0.36139 0.0
H1114 H 0.81116 0.13195 0.31325 0.0
H1115 H 0.87782 0.31511 0.19012 0.0
H1116 H 0.89974 0.38244 0.34034 0.0
H1117 H 0.87127 0.34653 0.14928 0.0
H1118 H 0.76702 0.18943 0.39699 0.0
H1119 H 0.88434 0.47383 0.32539 0.0
H1120 H 0.86514 0.47525 0.26886 0.0
H1121 H 0.74567 0.23874 0.40078 0.0
H1122 H 0.85589 0.4484 0.21 0.0
N1123 N 0.87653 0.37835 0.29314 0.0
C1124 C 0.89072 0.39536 0.32429 0.0
C1125 C 0.88235 0.44721 0.31605 0.0
C1126 C 0.87136 0.43094 0.28322 0.0
C1127 C 0.89298 0.4296 0.33641 0.0
C1128 C 0.86932 0.39624 0.27221 0.0
H1129 H 0.85935 0.40087 0.16508 0.0
N1130 N 0.86718 0.34962 0.22944 0.0
C1131 C 0.86867 0.35638 0.17432 0.0
C1132 C 0.86419 0.38118 0.23909 0.0
C1133 C 0.87243 0.33869 0.19789 0.0
C1134 C 0.86179 0.38688 0.18332 0.0
C1135 C 0.86082 0.4004 0.21624 0.0
O1136 O 0.90005 0.31008 0.24219 0.0
O1137 O 0.84782 0.26652 0.2707 0.0
O1138 O 0.82052 0.28825 0.32772 0.0
O1139 O 0.85747 0.33413 0.32002 0.0
O1140 O 0.88779 0.29002 0.2975 0.0
O1141 O 0.91314 0.34235 0.29101 0.0
O1142 O 0.76096 0.26209 0.24894 0.0
O1143 O 0.82038 0.31547 0.27288 0.0
O1144 O 0.83922 0.29691 0.22325 0.0
O1145 O 0.81769 0.24618 0.23341 0.0
O1146 O 0.77768 0.30347 0.27836 0.0
O1147 O 0.76941 0.21612 0.25338 0.0
C1148 C 0.86884 0.26043 0.28857 0.0
C1149 C 0.94948 0.34686 0.2556 0.0
C1150 C 1.00303 0.35751 0.25712 0.0
C1151 C 0.97607 0.34045 0.26564 0.0
C1152 C 1.00328 0.38096 0.23805 0.0
C1153 C 0.94986 0.37088 0.23717 0.0
C1154 C 0.97675 0.38771 0.22828 0.0
C1155 C 0.841 0.31769 0.33843 0.0
C1156 C 0.92215 0.32772 0.26509 0.0
C1157 C 0.85916 0.43357 0.22723 0.0
C1158 C 0.86447 0.44887 0.26074 0.0
C1159 C 0.79808 0.32891 0.27436 0.0
C1160 C 0.72033 0.21903 0.25582 0.0
C1161 C 0.69641 0.22934 0.24392 0.0
C1162 C 0.6692 0.22107 0.25595 0.0
C1163 C 0.66591 0.2029 0.28016 0.0
C1164 C 0.7165 0.20007 0.27963 0.0
C1165 C 0.68954 0.19241 0.29191 0.0
C1166 C 0.82459 0.26481 0.21277 0.0
C1167 C 0.74948 0.22979 0.24471 0.0
H1168 H 0.97589 0.32222 0.28032 0.0
H1169 H 0.024 0.39429 0.23127 0.0
H1170 H 0.92963 0.37668 0.22977 0.0
H1171 H 0.97706 0.40614 0.21392 0.0
H1172 H 0.69885 0.24358 0.2253 0.0
H1173 H 0.64486 0.1963 0.28939 0.0
H1174 H 0.73435 0.19132 0.28904 0.0
H1175 H 0.6869 0.17812 0.31042 0.0
Tb1176 Tb 0.09052 0.54927 0.55142 0.0
C1177 C 0.0196 0.57113 0.44338 0.0
C1178 C 0.99692 0.51639 0.40618 0.0
C1179 C 0.96868 0.55717 0.41589 0.0
C1180 C 0.02116 0.53943 0.42897 0.0
C1181 C 0.99387 0.581 0.43581 0.0
C1182 C 0.97029 0.52492 0.40079 0.0
C1183 C 0.02256 0.63883 0.45985 0.0
N1184 N 0.04487 0.59379 0.46092 0.0
C1185 C 0.04749 0.62762 0.46563 0.0
C1186 C 0.9952 0.61519 0.44601 0.0
Tb1187 Tb 0.08369 0.5733 0.47556 0.0
N1188 N 0.04761 0.53273 0.43442 0.0
C1189 C 0.05215 0.50524 0.41335 0.0
C1190 C 1.00058 0.48621 0.38839 0.0
C1191 C 0.02861 0.48108 0.39135 0.0
H1192 H 0.06891 0.64604 0.47407 0.0
H1193 H 0.03235 0.45889 0.37609 0.0
H1194 H 0.95128 0.50729 0.384 0.0
H1195 H 0.02468 0.66569 0.46531 0.0
H1196 H 0.07393 0.50133 0.41278 0.0
H1197 H 0.19691 0.64197 0.61003 0.0
H1198 H 0.98248 0.46777 0.37094 0.0
H1199 H 0.06198 0.4703 0.5537 0.0
H1200 H 0.14969 0.62191 0.57411 0.0
H1201 H 0.07577 0.4281 0.57926 0.0
H1202 H 0.94855 0.56411 0.41034 0.0
H1203 H 0.21404 0.604 0.63914 0.0
H1204 H 0.20467 0.54659 0.65077 0.0
H1205 H 0.97599 0.62387 0.44079 0.0
H1206 H 0.17224 0.48817 0.6417 0.0
N1207 N 0.13818 0.57146 0.58162 0.0
C1208 C 0.15588 0.60421 0.5862 0.0
C1209 C 0.19284 0.59463 0.62312 0.0
C1210 C 0.175 0.5613 0.61853 0.0
C1211 C 0.18325 0.61611 0.60676 0.0
C1212 C 0.14755 0.55039 0.59746 0.0
H1213 H 0.12448 0.44353 0.61454 0.0
N1214 N 0.10359 0.50808 0.57144 0.0
C1215 C 0.09133 0.45303 0.58278 0.0
C1216 C 0.12962 0.51752 0.59206 0.0
C1217 C 0.08378 0.47683 0.56793 0.0
C1218 C 0.11877 0.46188 0.60275 0.0
C1219 C 0.13813 0.49464 0.60802 0.0
O1220 O 0.05501 0.53267 0.57681 0.0
O1221 O 0.06203 0.55787 0.51369 0.0
O1222 O 0.07295 0.61086 0.51444 0.0
O1223 O 0.09894 0.60419 0.55961 0.0
O1224 O 0.04547 0.51603 0.53042 0.0
O1225 O 0.08844 0.58075 0.59541 0.0
O1226 O 0.10522 0.6153 0.45841 0.0
O1227 O 0.11313 0.56248 0.51148 0.0
O1228 O 0.09334 0.50467 0.5164 0.0
O1229 O 0.08839 0.5216 0.46771 0.0
O1230 O 0.12828 0.60551 0.49811 0.0
O1231 O 0.10618 0.56459 0.43585 0.0
C1232 C 0.03951 0.53285 0.51009 0.0
C1233 C 0.0701 0.55054 0.63312 0.0
C1234 C 0.04557 0.53086 0.67564 0.0
C1235 C 0.04474 0.53279 0.6433 0.0
C1236 C 0.07284 0.54219 0.69672 0.0
C1237 C 0.09754 0.56243 0.6541 0.0
C1238 C 0.09896 0.55734 0.68561 0.0
C1239 C 0.0848 0.62188 0.54573 0.0
C1240 C 0.06628 0.55846 0.60164 0.0
C1241 C 0.16533 0.50535 0.62915 0.0
C1242 C 0.18374 0.53862 0.63438 0.0
C1243 C 0.137 0.58561 0.51333 0.0
C1244 C 0.10593 0.60058 0.40143 0.0
C1245 C 0.11669 0.58208 0.37642 0.0
C1246 C 0.11317 0.58668 0.34494 0.0
C1247 C 0.09753 0.60901 0.3379 0.0
C1248 C 0.09011 0.6229 0.39463 0.0
C1249 C 0.08573 0.62682 0.36276 0.0
C1250 C 0.09247 0.49952 0.48441 0.0
C1251 C 0.11254 0.59603 0.43407 0.0
H1252 H 0.02353 0.5237 0.62713 0.0
H1253 H 0.07368 0.54039 0.7219 0.0
H1254 H 0.11759 0.57635 0.64662 0.0
H1255 H 0.11999 0.56656 0.70187 0.0
H1256 H 0.12905 0.56489 0.38168 0.0
H1257 H 0.09488 0.61294 0.31351 0.0
H1258 H 0.08147 0.63744 0.41372 0.0
H1259 H 0.0737 0.64415 0.35749 0.0
Tb1260 Tb 0.79246 0.79917 0.2747 0.0
C1261 C 0.88545 0.75446 0.33302 0.0
C1262 C 0.90635 0.7991 0.38248 0.0
C1263 C 0.90502 0.7411 0.382 0.0
C1264 C 0.8924 0.78835 0.34957 0.0
C1265 C 0.89285 0.73081 0.34878 0.0
C1266 C 0.91173 0.77516 0.39882 0.0
C1267 C 0.88048 0.68987 0.2966 0.0
N1268 N 0.87381 0.74516 0.30083 0.0
C1269 C 0.87398 0.71431 0.282 0.0
C1270 C 0.88924 0.69789 0.33031 0.0
Tb1271 Tb 0.86337 0.78742 0.28003 0.0
N1272 N 0.88693 0.81098 0.3331 0.0
C1273 C 0.89692 0.8451 0.34784 0.0
C1274 C 0.91535 0.83369 0.3978 0.0
C1275 C 0.91114 0.8568 0.38018 0.0
H1276 H 0.86765 0.70805 0.2558 0.0
H1277 H 0.91847 0.88371 0.39164 0.0
H1278 H 0.92202 0.78292 0.42418 0.0
H1279 H 0.879 0.665 0.2818 0.0
H1280 H 0.8938 0.86408 0.33572 0.0
H1281 H 0.74776 0.69228 0.16714 0.0
H1282 H 0.92615 0.84288 0.42299 0.0
H1283 H 0.78708 0.87735 0.28971 0.0
H1284 H 0.77447 0.71931 0.22129 0.0
H1285 H 0.76266 0.91105 0.2622 0.0
H1286 H 0.91041 0.72314 0.3946 0.0
H1287 H 0.72763 0.72507 0.13403 0.0
H1288 H 0.71972 0.78011 0.12935 0.0
H1289 H 0.89462 0.67901 0.34157 0.0
H1290 H 0.72402 0.83956 0.15484 0.0
N1291 N 0.76855 0.76847 0.22255 0.0
C1292 C 0.76491 0.73465 0.20911 0.0
C1293 C 0.73891 0.73741 0.15872 0.0
C1294 C 0.74249 0.77171 0.17208 0.0
C1295 C 0.75003 0.7188 0.1774 0.0
C1296 C 0.75757 0.78675 0.20434 0.0
H1297 H 0.73905 0.88809 0.20447 0.0
N1298 N 0.77578 0.83458 0.24896 0.0
C1299 C 0.76207 0.88571 0.2494 0.0
C1300 C 0.761 0.82065 0.21813 0.0
C1301 C 0.77534 0.86619 0.26515 0.0
C1302 C 0.74896 0.87274 0.21683 0.0
C1303 C 0.74805 0.83977 0.20084 0.0
O1304 O 0.77787 0.82697 0.31374 0.0
O1305 O 0.83435 0.80991 0.30796 0.0
O1306 O 0.8293 0.73745 0.28003 0.0
O1307 O 0.7819 0.74505 0.27592 0.0
O1308 O 0.79513 0.78633 0.3215 0.0
O1309 O 0.74614 0.78447 0.27873 0.0
O1310 O 0.88554 0.76565 0.2438 0.0
O1311 O 0.82233 0.77792 0.2464 0.0
O1312 O 0.82547 0.84899 0.27101 0.0
O1313 O 0.87162 0.84182 0.28345 0.0
O1314 O 0.86181 0.79907 0.23227 0.0
O1315 O 0.90924 0.80933 0.28289 0.0
C1316 C 0.82306 0.79843 0.33114 0.0
C1317 C 0.72654 0.82302 0.31631 0.0
C1318 C 0.68036 0.81798 0.3404 0.0
C1319 C 0.70031 0.80273 0.32422 0.0
C1320 C 0.68593 0.85327 0.34667 0.0
C1321 C 0.73194 0.85843 0.32421 0.0
C1322 C 0.71145 0.87326 0.33844 0.0
C1323 C 0.79962 0.72556 0.27884 0.0
C1324 C 0.75033 0.80771 0.30605 0.0
C1325 C 0.7337 0.82509 0.16861 0.0
C1326 C 0.73114 0.79121 0.15417 0.0
C1327 C 0.83373 0.78889 0.22298 0.0
C1328 C 0.93802 0.7772 0.25577 0.0
C1329 C 0.95636 0.78512 0.23241 0.0
C1330 C 0.98307 0.77633 0.23175 0.0
C1331 C 0.99124 0.7592 0.25436 0.0
C1332 C 0.9467 0.76086 0.27884 0.0
C1333 C 0.9731 0.75158 0.27786 0.0
C1334 C 0.85547 0.861 0.27543 0.0
C1335 C 0.91104 0.78822 0.25629 0.0
H1336 H 0.6964 0.77554 0.31981 0.0
H1337 H 0.67093 0.86551 0.359 0.0
H1338 H 0.75256 0.87514 0.32108 0.0
H1339 H 0.71601 0.90056 0.34438 0.0
H1340 H 0.95008 0.79845 0.21497 0.0
H1341 H 0.01182 0.75221 0.25406 0.0
H1342 H 0.93347 0.75567 0.29776 0.0
H1343 H 0.97968 0.73882 0.29559 0.0
Tb1344 Tb 0.84273 0.28757 0.7494 0.0
C1345 C 0.79337 0.36543 0.85805 0.0
C1346 C 0.84038 0.39858 0.89185 0.0
C1347 C 0.7953 0.4147 0.90126 0.0
C1348 C 0.82357 0.37044 0.86665 0.0
C1349 C 0.77897 0.38776 0.87506 0.0
C1350 C 0.82596 0.42016 0.90957 0.0
C1351 C 0.73363 0.35642 0.83804 0.0
N1352 N 0.77867 0.34025 0.83142 0.0
C1353 C 0.7488 0.33503 0.82187 0.0
C1354 C 0.74875 0.38291 0.86476 0.0
Tb1355 Tb 0.80328 0.30101 0.81406 0.0
N1356 N 0.83674 0.34924 0.8486 0.0
C1357 C 0.86729 0.3569 0.85311 0.0
C1358 C 0.87133 0.40513 0.89754 0.0
C1359 C 0.88488 0.38461 0.87758 0.0
H1360 H 0.73603 0.31342 0.80259 0.0
H1361 H 0.90893 0.39015 0.88095 0.0
H1362 H 0.83848 0.44174 0.92912 0.0
H1363 H 0.71009 0.35199 0.83026 0.0
H1364 H 0.87871 0.3424 0.8377 0.0
H1365 H 0.75302 0.18271 0.67232 0.0
H1366 H 0.88504 0.42668 0.9164 0.0
H1367 H 0.91551 0.29616 0.76686 0.0
H1368 H 0.77356 0.23335 0.71675 0.0
H1369 H 0.95131 0.26649 0.74594 0.0
H1370 H 0.78458 0.43201 0.91467 0.0
H1371 H 0.7866 0.15495 0.64282 0.0
H1372 H 0.83869 0.1524 0.63735 0.0
H1373 H 0.73691 0.39947 0.87723 0.0
H1374 H 0.89237 0.17424 0.65823 0.0
N1375 N 0.8192 0.23625 0.71282 0.0
C1376 C 0.78894 0.22247 0.70418 0.0
C1377 C 0.79598 0.17777 0.66223 0.0
C1378 C 0.82683 0.19119 0.6716 0.0
C1379 C 0.77697 0.19328 0.67888 0.0
C1380 C 0.83792 0.22089 0.69712 0.0
H1381 H 0.93424 0.21552 0.69975 0.0
N1382 N 0.87763 0.26005 0.7354 0.0
C1383 C 0.92793 0.25649 0.73568 0.0
C1384 C 0.86816 0.23298 0.70911 0.0
C1385 C 0.90742 0.2729 0.74782 0.0
C1386 C 0.91824 0.22792 0.70942 0.0
C1387 C 0.88811 0.21599 0.69562 0.0
O1388 O 0.87822 0.32114 0.7358 0.0
O1389 O 0.82427 0.32355 0.77863 0.0
O1390 O 0.77639 0.31063 0.77268 0.0
O1391 O 0.79808 0.29133 0.72789 0.0
O1392 O 0.86795 0.33944 0.77511 0.0
O1393 O 0.83746 0.29315 0.70133 0.0
O1394 O 0.76183 0.27452 0.82442 0.0
O1395 O 0.81963 0.26348 0.78396 0.0
O1396 O 0.8707 0.27967 0.792 0.0
O1397 O 0.84269 0.28566 0.83428 0.0
O1398 O 0.77594 0.25004 0.78808 0.0
O1399 O 0.80124 0.29802 0.86247 0.0
C1400 C 0.84597 0.34969 0.78486 0.0
C1401 C 0.88149 0.31482 0.6794 0.0
C1402 C 0.89592 0.34414 0.63806 0.0
C1403 C 0.8762 0.33509 0.65931 0.0
C1404 C 0.91992 0.33055 0.63434 0.0
C1405 C 0.90551 0.30104 0.6761 0.0
C1406 C 0.92434 0.30833 0.65309 0.0
C1407 C 0.77583 0.30174 0.74039 0.0
C1408 C 0.86417 0.31441 0.70623 0.0
C1409 C 0.87734 0.18741 0.66916 0.0
C1410 C 0.84678 0.17505 0.65718 0.0
C1411 C 0.79685 0.238 0.7778 0.0
C1412 C 0.75486 0.27281 0.88005 0.0
C1413 C 0.76996 0.27114 0.90909 0.0
C1414 C 0.75553 0.24912 0.92666 0.0
C1415 C 0.72453 0.23421 0.91913 0.0
C1416 C 0.72384 0.25826 0.87234 0.0
C1417 C 0.70857 0.23981 0.89259 0.0
C1418 C 0.86724 0.27954 0.82319 0.0
C1419 C 0.7725 0.28316 0.85546 0.0
H1420 H 0.85769 0.34583 0.66154 0.0
H1421 H 0.93535 0.33771 0.61771 0.0
H1422 H 0.91034 0.28556 0.69139 0.0
H1423 H 0.94297 0.29787 0.65075 0.0
H1424 H 0.79385 0.2829 0.91555 0.0
H1425 H 0.71297 0.21742 0.93308 0.0
H1426 H 0.71177 0.25978 0.85004 0.0
H1427 H 0.68473 0.22806 0.88651 0.0
Tb1428 Tb 0.85974 0.82826 0.79371 0.0
C1429 C 0.73469 0.74685 0.72416 0.0
C1430 C 0.70408 0.75537 0.76641 0.0
C1431 C 0.68257 0.74295 0.70945 0.0
C1432 C 0.73191 0.75439 0.75668 0.0
C1433 C 0.70967 0.73916 0.70003 0.0
C1434 C 0.67975 0.75102 0.74267 0.0
C1435 C 0.73883 0.71951 0.66001 0.0
N1436 N 0.76123 0.74356 0.71625 0.0
C1437 C 0.76319 0.72833 0.68481 0.0
C1438 C 0.71218 0.72591 0.66749 0.0
Tb1439 Tb 0.79919 0.75412 0.75819 0.0
N1440 N 0.75584 0.75775 0.77862 0.0
C1441 C 0.75244 0.75918 0.81071 0.0
C1442 C 0.7012 0.75905 0.79947 0.0
C1443 C 0.72532 0.76018 0.82158 0.0
H1444 H 0.78378 0.72353 0.67869 0.0
H1445 H 0.72319 0.76218 0.84714 0.0
H1446 H 0.65837 0.75239 0.74968 0.0
H1447 H 0.74075 0.70816 0.63511 0.0
H1448 H 0.77058 0.76057 0.82865 0.0
H1449 H 0.91512 0.82434 0.68334 0.0
H1450 H 0.68024 0.75993 0.80798 0.0
H1451 H 0.88964 0.84364 0.87185 0.0
H1452 H 0.87302 0.81148 0.71136 0.0
H1453 H 0.93885 0.86093 0.90407 0.0
H1454 H 0.66339 0.73845 0.69132 0.0
H1455 H 0.96608 0.84642 0.71372 0.0
H1456 H 0.99955 0.86282 0.76659 0.0
H1457 H 0.69336 0.7192 0.64827 0.0
H1458 H 1.00606 0.87033 0.82605 0.0
N1459 N 0.89757 0.83001 0.76028 0.0
C1460 C 0.89415 0.82358 0.72659 0.0
C1461 C 0.9472 0.84195 0.72693 0.0
C1462 C 0.95123 0.84689 0.76077 0.0
C1463 C 0.91854 0.82976 0.70977 0.0
C1464 C 0.92585 0.8403 0.77694 0.0
H1465 H 0.98378 0.86877 0.87705 0.0
N1466 N 0.90497 0.83684 0.82524 0.0
C1467 C 0.93668 0.8554 0.87766 0.0
C1468 C 0.92961 0.84349 0.8103 0.0
C1469 C 0.90851 0.84468 0.85883 0.0
C1470 C 0.96192 0.86002 0.86237 0.0
C1471 C 0.95869 0.85476 0.82845 0.0
O1472 O 0.85806 0.86167 0.83745 0.0
O1473 O 0.81288 0.80227 0.7927 0.0
O1474 O 0.80028 0.78774 0.72359 0.0
O1475 O 0.8438 0.83249 0.74484 0.0
O1476 O 0.82318 0.85068 0.78775 0.0
O1477 O 0.88248 0.87986 0.80073 0.0
O1478 O 0.80339 0.70828 0.7306 0.0
O1479 O 0.84791 0.7745 0.77123 0.0
O1480 O 0.85557 0.79697 0.83097 0.0
O1481 O 0.81298 0.7523 0.80878 0.0
O1482 O 0.83 0.74937 0.72385 0.0
O1483 O 0.7789 0.70865 0.77183 0.0
C1484 C 0.80173 0.82599 0.79055 0.0
C1485 C 0.86355 0.91795 0.83616 0.0
C1486 C 0.83722 0.95467 0.81858 0.0
C1487 C 0.84716 0.92598 0.81155 0.0
C1488 C 0.84342 0.97536 0.85052 0.0
C1489 C 0.86954 0.93847 0.8681 0.0
C1490 C 0.85934 0.96705 0.87524 0.0
C1491 C 0.82071 0.81584 0.72137 0.0
C1492 C 0.87409 0.88801 0.82927 0.0
C1493 C 0.98371 0.86165 0.81246 0.0
C1494 C 0.97999 0.85764 0.77868 0.0
C1495 C 0.85441 0.7616 0.74383 0.0
C1496 C 0.78099 0.65414 0.74031 0.0
C1497 C 0.79381 0.64031 0.76269 0.0
C1498 C 0.80038 0.60984 0.75223 0.0
C1499 C 0.78944 0.59013 0.72021 0.0
C1500 C 0.77024 0.63484 0.70813 0.0
C1501 C 0.77353 0.60228 0.69846 0.0
C1502 C 0.83506 0.76902 0.83317 0.0
C1503 C 0.78804 0.69086 0.74809 0.0
H1504 H 0.84228 0.91037 0.78683 0.0
H1505 H 0.83557 0.99759 0.8563 0.0
H1506 H 0.882 0.93231 0.88746 0.0
H1507 H 0.86364 0.98265 0.89995 0.0
H1508 H 0.80321 0.65533 0.78703 0.0
H1509 H 0.79418 0.5662 0.71181 0.0
H1510 H 0.76084 0.6456 0.6902 0.0
H1511 H 0.76556 0.58748 0.67356 0.0
Tb1512 Tb 0.54528 0.51418 0.50243 0.0
C1513 C 0.61901 0.6409 0.58318 0.0
C1514 C 0.61975 0.67592 0.54459 0.0
C1515 C 0.62338 0.70088 0.60253 0.0
C1516 C 0.61733 0.64395 0.55126 0.0
C1517 C 0.62279 0.66956 0.60923 0.0
C1518 C 0.62206 0.7041 0.57028 0.0
C1519 C 0.62995 0.63579 0.64685 0.0
N1520 N 0.61924 0.61049 0.58885 0.0
C1521 C 0.62687 0.60841 0.6203 0.0
C1522 C 0.62714 0.66627 0.64129 0.0
Tb1523 Tb 0.61186 0.56648 0.54299 0.0
N1524 N 0.61447 0.61601 0.52687 0.0
C1525 C 0.61534 0.61911 0.49534 0.0
C1526 C 0.62017 0.67879 0.51236 0.0
C1527 C 0.61831 0.65031 0.4877 0.0
H1528 H 0.62941 0.58503 0.62487 0.0
H1529 H 0.61835 0.65211 0.46258 0.0
H1530 H 0.6234 0.72865 0.56551 0.0
H1531 H 0.63463 0.63339 0.67156 0.0
H1532 H 0.61182 0.59747 0.47532 0.0
H1533 H 0.48175 0.45287 0.58728 0.0
H1534 H 0.62199 0.70285 0.50627 0.0
H1535 H 0.54508 0.46838 0.42713 0.0
H1536 H 0.49334 0.49409 0.55415 0.0
H1537 H 0.54952 0.41246 0.40192 0.0
H1538 H 0.62594 0.72305 0.62221 0.0
H1539 H 0.50185 0.40362 0.57801 0.0
H1540 H 0.52702 0.36796 0.5415 0.0
H1541 H 0.62948 0.68743 0.66189 0.0
H1542 H 0.54594 0.35633 0.4891 0.0
N1543 N 0.52568 0.47337 0.53075 0.0
C1544 C 0.50458 0.47456 0.55137 0.0
C1545 C 0.50827 0.4227 0.56434 0.0
C1546 C 0.5251 0.41817 0.53898 0.0
C1547 C 0.49697 0.45046 0.56969 0.0
C1548 C 0.53306 0.44399 0.52214 0.0
H1549 H 0.55267 0.37202 0.43564 0.0
N1550 N 0.54772 0.4615 0.47591 0.0
C1551 C 0.54909 0.41953 0.42797 0.0
C1552 C 0.5444 0.43772 0.49332 0.0
C1553 C 0.54688 0.4516 0.44271 0.0
C1554 C 0.55091 0.39685 0.44706 0.0
C1555 C 0.54713 0.4052 0.47988 0.0
O1556 O 0.52789 0.51561 0.45576 0.0
O1557 O 0.57294 0.56678 0.51031 0.0
O1558 O 0.58259 0.56276 0.58296 0.0
O1559 O 0.53599 0.53516 0.55407 0.0
O1560 O 0.52925 0.55929 0.51598 0.0
O1561 O 0.49949 0.49083 0.48579 0.0
O1562 O 0.65535 0.5946 0.56634 0.0
O1563 O 0.58814 0.51211 0.52493 0.0
O1564 O 0.57797 0.51786 0.46393 0.0
O1565 O 0.62326 0.55184 0.49251 0.0
O1566 O 0.60943 0.52799 0.57169 0.0
O1567 O 0.64821 0.55047 0.52752 0.0
C1568 C 0.55309 0.58289 0.51593 0.0
C1569 C 0.47803 0.51496 0.4478 0.0
C1570 C 0.43865 0.54137 0.45767 0.0
C1571 C 0.46061 0.5282 0.46945 0.0
C1572 C 0.43438 0.54175 0.42458 0.0
C1573 C 0.47363 0.51551 0.41476 0.0
C1574 C 0.45192 0.52895 0.40325 0.0
C1575 C 0.55332 0.55102 0.58293 0.0
C1576 C 0.50081 0.50014 0.45849 0.0
C1577 C 0.54295 0.38103 0.49853 0.0
C1578 C 0.5321 0.38763 0.5283 0.0
C1579 C 0.59469 0.50082 0.54992 0.0
C1580 C 0.68859 0.56178 0.56796 0.0
C1581 C 0.71186 0.55404 0.55259 0.0
C1582 C 0.73181 0.54102 0.56824 0.0
C1583 C 0.72883 0.53615 0.59967 0.0
C1584 C 0.68528 0.5565 0.59926 0.0
C1585 C 0.70554 0.54392 0.61513 0.0
C1586 C 0.60727 0.53286 0.46414 0.0
C1587 C 0.66754 0.57369 0.5498 0.0
H1588 H 0.46381 0.52808 0.49508 0.0
H1589 H 0.41739 0.5519 0.41533 0.0
H1590 H 0.487 0.50544 0.39784 0.0
H1591 H 0.44859 0.52928 0.37773 0.0
H1592 H 0.71427 0.55769 0.52822 0.0
H1593 H 0.74437 0.52621 0.61202 0.0
H1594 H 0.66709 0.56181 0.61129 0.0
H1595 H 0.70308 0.53999 0.63931 0.0
Tb1596 Tb 0.10929 0.54012 0.00741 0.0
C1597 C 0.01014 0.49484 0.08843 0.0
C1598 C 0.97945 0.44223 0.05208 0.0
C1599 C 0.97687 0.45302 0.11036 0.0
C1600 C 1.00088 0.47407 0.0574 0.0
C1601 C 0.99795 0.48488 0.11529 0.0
C1602 C 0.96764 0.43171 0.07879 0.0
C1603 C 0.02626 0.53983 0.14918 0.0
N1604 N 0.03035 0.52544 0.09208 0.0
C1605 C 0.03734 0.54862 0.12163 0.0
C1606 C 1.00671 0.50764 0.14609 0.0
Tb1607 Tb 0.04501 0.53912 0.04548 0.0
N1608 N 0.01316 0.48507 0.03246 0.0
C1609 C 1.00415 0.46559 1.00115 0.0
C1610 C 0.97053 0.42202 0.02012 0.0
C1611 C 0.98291 0.43383 0.99451 0.0
H1612 H 0.05108 0.57413 0.12389 0.0
H1613 H 0.97644 0.41832 0.9697 0.0
H1614 H 0.9512 0.4073 0.07526 0.0
H1615 H 0.03232 0.55812 0.17262 0.0
H1616 H 0.01452 0.47363 0.98131 0.0
H1617 H 0.19202 0.64395 0.09621 0.0
H1618 H 0.9542 0.39733 0.01498 0.0
H1619 H 0.10346 0.52547 0.92488 0.0
H1620 H 0.16021 0.58645 0.07617 0.0
H1621 H 0.11556 0.55883 0.88458 0.0
H1622 H 0.96728 0.44483 0.1307 0.0
H1623 H 0.19636 0.68457 0.06148 0.0
H1624 H 0.18529 0.69484 0.00654 0.0
H1625 H 0.99784 0.50101 0.16738 0.0
H1626 H 0.16505 0.67133 0.94835 0.0
N1627 N 0.14324 0.59305 0.02986 0.0
C1628 C 0.16033 0.60316 0.06025 0.0
C1629 C 0.18171 0.65898 0.05228 0.0
C1630 C 0.16666 0.64786 0.0203 0.0
C1631 C 0.17932 0.63614 0.07191 0.0
C1632 C 0.14782 0.61419 0.00942 0.0
H1633 H 0.14032 0.62045 0.90258 0.0
N1634 N 0.12008 0.56792 0.9665 0.0
C1635 C 0.12119 0.57118 0.91039 0.0
C1636 C 0.13616 0.60109 0.97667 0.0
C1637 C 0.1144 0.55238 0.9336 0.0
C1638 C 0.13508 0.60592 0.92065 0.0
C1639 C 0.14338 0.62117 0.95405 0.0
O1640 O 0.12073 0.50563 0.97083 0.0
O1641 O 0.06625 0.50688 0.01355 0.0
O1642 O 0.07513 0.52675 0.08015 0.0
O1643 O 0.11939 0.54191 0.05833 0.0
O1644 O 0.1019 0.48887 0.01497 0.0
O1645 O 0.15336 0.53652 0.01396 0.0
O1646 O 0.02798 0.57948 0.06502 0.0
O1647 O 0.08274 0.57233 0.02958 0.0
O1648 O 0.07295 0.53408 0.96857 0.0
O1649 O 0.03362 0.54175 0.99599 0.0
O1650 O 0.07362 0.58816 0.0754 0.0
O1651 O 1.00236 0.53801 0.02543 0.0
C1652 C 0.07408 0.48061 0.01728 0.0
C1653 C 0.17003 0.49801 0.97304 0.0
C1654 C 0.21001 0.47223 0.97985 0.0
C1655 C 0.19008 0.489 0.99352 0.0
C1656 C 0.21037 0.46563 0.94598 0.0
C1657 C 0.17053 0.49099 0.93922 0.0
C1658 C 0.19079 0.47509 0.92583 0.0
C1659 C 0.10422 0.53203 0.08092 0.0
C1660 C 0.14777 0.51356 0.98634 0.0
C1661 C 0.15989 0.65541 0.96529 0.0
C1662 C 0.17141 0.66878 0.99842 0.0
C1663 C 0.09011 0.59802 0.05452 0.0
C1664 C 0.97576 0.56982 0.05658 0.0
C1665 C 0.95966 0.58778 0.04195 0.0
C1666 C 0.93332 0.59198 0.05286 0.0
C1667 C 0.9229 0.5779 0.07834 0.0
C1668 C 0.96518 0.55548 0.08186 0.0
C1669 C 0.93877 0.55957 0.09269 0.0
C1670 C 0.04598 0.53788 0.96945 0.0
C1671 C 1.00334 0.56684 0.04454 0.0
H1672 H 0.18958 0.49393 0.01965 0.0
H1673 H 0.22563 0.45275 0.93512 0.0
H1674 H 0.15525 0.49785 0.92317 0.0
H1675 H 0.19111 0.46975 0.89972 0.0
H1676 H 0.96773 0.59882 0.02229 0.0
H1677 H 0.90254 0.5811 0.087 0.0
H1678 H 0.97719 0.54134 0.09324 0.0
H1679 H 0.93065 0.54862 0.11229 0.0
C1680 C 0.03674 0.14373 0.96138 0.0
C1681 C 0.03621 0.1733 0.98539 0.0
C1682 C 0.04737 0.14249 0.02786 0.0
C1683 C 0.05072 0.11442 1.00411 0.0
N1684 N 0.05159 0.0916 0.94715 0.0
N1685 N 0.04828 0.20198 0.04255 0.0
C1686 C 0.04632 0.11621 0.97061 0.0
C1687 C 0.04343 0.17273 0.01887 0.0
N1688 N 0.02626 0.14064 0.92948 0.0
N1689 N 0.04766 0.14035 0.05961 0.0
H1690 H 0.047 0.22467 0.03736 0.0
H1691 H 0.05683 0.20475 0.0668 0.0
H1692 H 0.05187 0.12005 0.06757 0.0
H1693 H 0.04174 0.15753 0.07753 0.0
H1694 H 0.02246 0.11848 0.9112 0.0
H1695 H 0.01851 0.15907 0.9217 0.0
H1696 H 0.0524 0.09293 0.92296 0.0
H1697 H 0.05811 0.0714 0.95256 0.0
C1698 C 0.2236 0.84397 0.19803 0.0
C1699 C 0.21335 0.82256 0.16592 0.0
C1700 C 0.25004 0.79138 0.17689 0.0
C1701 C 0.26071 0.8131 0.20906 0.0
N1702 N 0.26386 0.86759 0.24374 0.0
N1703 N 0.21833 0.77608 0.12436 0.0
C1704 C 0.24889 0.84125 0.21794 0.0
C1705 C 0.22697 0.79631 0.15546 0.0
N1706 N 0.20948 0.86754 0.20968 0.0
N1707 N 0.26191 0.76562 0.16619 0.0
H1708 H 0.19956 0.77536 0.10904 0.0
H1709 H 0.23018 0.76035 0.11304 0.0
H1710 H 0.28423 0.76807 0.1727 0.0
H1711 H 0.25049 0.74352 0.14856 0.0
H1712 H 0.21304 0.88066 0.23416 0.0
H1713 H 0.19268 0.87232 0.19539 0.0
H1714 H 0.25835 0.89024 0.25006 0.0
H1715 H 0.28433 0.86879 0.25609 0.0
C1716 C 0.53805 0.88565 0.46767 0.0
C1717 C 0.54046 0.86947 0.49372 0.0
C1718 C 0.55377 0.92694 0.53203 0.0
C1719 C 0.55623 0.94355 0.50567 0.0
N1720 N 0.55318 0.93596 0.44711 0.0
N1721 N 0.55349 0.8764 0.55144 0.0
C1722 C 0.54895 0.92194 0.47325 0.0
C1723 C 0.54872 0.89064 0.52612 0.0
N1724 N 0.52382 0.86652 0.43742 0.0
N1725 N 0.55599 0.94564 0.56298 0.0
H1726 H 0.55087 0.85054 0.54822 0.0
H1727 H 0.56276 0.89048 0.57513 0.0
H1728 H 0.5601 0.97159 0.56793 0.0
H1729 H 0.55076 0.93528 0.58275 0.0
H1730 H 0.51849 0.87701 0.41837 0.0
H1731 H 0.5141 0.8404 0.43227 0.0
H1732 H 0.55287 0.92177 0.42363 0.0
H1733 H 0.55892 0.96195 0.44901 0.0
C1734 C 0.52587 0.30302 0.66419 0.0
C1735 C 0.55411 0.32528 0.68003 0.0
C1736 C 0.53569 0.33032 0.73276 0.0
C1737 C 0.509 0.30462 0.71757 0.0
N1738 N 0.47947 0.26371 0.66941 0.0
N1739 N 0.58757 0.35636 0.72995 0.0
C1740 C 0.50418 0.2903 0.68337 0.0
C1741 C 0.55945 0.33818 0.71446 0.0
N1742 N 0.51947 0.29487 0.63084 0.0
N1743 N 0.53811 0.34761 0.76457 0.0
H1744 H 0.6058 0.3622 0.71759 0.0
H1745 H 0.59344 0.36308 0.75526 0.0
H1746 H 0.52105 0.34264 0.77869 0.0
H1747 H 0.55579 0.36892 0.77596 0.0
H1748 H 0.4983 0.28158 0.61802 0.0
H1749 H 0.53465 0.30413 0.61601 0.0
H1750 H 0.47643 0.24969 0.64531 0.0
H1751 H 0.46293 0.2539 0.68258 0.0
C1752 C 0.03786 0.85899 0.61206 0.0
C1753 C 0.03057 0.82343 0.59891 0.0
C1754 C 0.05307 0.83307 0.55036 0.0
C1755 C 0.06466 0.86794 0.56601 0.0
N1756 N 0.06881 0.91499 0.6116 0.0
N1757 N 0.03482 0.77628 0.5574 0.0
C1758 C 0.05696 0.88129 0.5967 0.0
C1759 C 0.03866 0.81029 0.56826 0.0
N1760 N 0.02617 0.87129 0.63893 0.0
N1761 N 0.05619 0.82172 0.51846 0.0
H1762 H 0.02552 0.75868 0.5703 0.0
H1763 H 0.04344 0.7658 0.53715 0.0
H1764 H 0.06692 0.83786 0.50478 0.0
H1765 H 0.04566 0.79708 0.50472 0.0
H1766 H 0.02831 0.89692 0.64797 0.0
H1767 H 0.01202 0.85553 0.65058 0.0
H1768 H 0.06697 0.92569 0.63561 0.0
H1769 H 0.0817 0.9322 0.60025 0.0
C1770 C 0.56293 0.87474 0.83286 0.0
C1771 C 0.57397 0.84776 0.81797 0.0
C1772 C 0.54345 0.84025 0.76597 0.0
C1773 C 0.53056 0.86515 0.78168 0.0
N1774 N 0.53239 0.91185 0.8267 0.0
N1775 N 0.58134 0.81081 0.76984 0.0
C1776 C 0.54195 0.88446 0.81405 0.0
C1777 C 0.56655 0.83263 0.78414 0.0
N1778 N 0.57161 0.88991 0.86544 0.0
N1779 N 0.53251 0.82297 0.73427 0.0
H1780 H 0.59822 0.80504 0.7831 0.0
H1781 H 0.57865 0.80048 0.74479 0.0
H1782 H 0.51639 0.82907 0.72019 0.0
H1783 H 0.53865 0.80218 0.72215 0.0
H1784 H 0.56117 0.90578 0.87921 0.0
H1785 H 0.58918 0.88586 0.87905 0.0
H1786 H 0.54155 0.92885 0.84918 0.0
H1787 H 0.51664 0.91929 0.8135 0.0
C1788 C 0.54088 0.18253 0.07716 0.0
C1789 C 0.51825 0.16597 0.09335 0.0
C1790 C 0.54414 0.12458 0.0983 0.0
C1791 C 0.5664 0.13926 0.08066 0.0
N1792 N 0.5894 0.18618 0.05904 0.0
N1793 N 0.49161 0.11147 0.1008 0.0
C1794 C 0.56555 0.16932 0.07127 0.0
C1795 C 0.51752 0.13355 0.09739 0.0
N1796 N 0.53762 0.20963 0.06614 0.0
N1797 N 0.54893 0.1045 0.11832 0.0
H1798 H 0.47117 0.11669 0.0977 0.0
H1799 H 0.49028 0.08673 0.10223 0.0
H1800 H 0.57004 0.10283 0.12581 0.0
H1801 H 0.53295 0.09472 0.13215 0.0
H1802 H 0.55237 0.22263 0.05305 0.0
H1803 H 0.51807 0.21679 0.06754 0.0
H1804 H 0.59144 0.2092 0.05295 0.0
H1805 H 0.60842 0.17792 0.05725 0.0
C1806 C 0.22337 0.33953 0.29243 0.0
C1807 C 0.22395 0.35222 0.32647 0.0
C1808 C 0.27508 0.34936 0.337 0.0
C1809 C 0.2754 0.33828 0.30287 0.0
N1810 N 0.25091 0.32694 0.24788 0.0
N1811 N 0.25309 0.37822 0.37969 0.0
C1812 C 0.25001 0.33537 0.28056 0.0
C1813 C 0.25063 0.3598 0.3483 0.0
N1814 N 0.19695 0.32904 0.27169 0.0
N1815 N 0.29742 0.34824 0.35891 0.0
H1816 H 0.23588 0.38712 0.38862 0.0
H1817 H 0.27316 0.38791 0.39564 0.0
H1818 H 0.31431 0.33832 0.35143 0.0
H1819 H 0.297 0.35269 0.384 0.0
H1820 H 0.19454 0.31687 0.24708 0.0
H1821 H 0.17661 0.32971 0.27945 0.0
H1822 H 0.23517 0.32891 0.23015 0.0
H1823 H 0.26781 0.31778 0.23877 0.0
C1824 C 0.99742 0.05831 0.15002 0.0
C1825 C 0.01598 0.06541 0.18102 0.0
C1826 C 0.05797 0.06173 0.14742 0.0
C1827 C 0.04044 0.05781 0.11642 0.0
N1828 N 0.99276 0.05962 0.09212 0.0
N1829 N 0.06706 0.08316 0.20676 0.0
C1830 C 0.00994 0.05809 0.11903 0.0
C1831 C 0.04706 0.06992 0.17866 0.0
N1832 N 0.96732 0.05048 0.14967 0.0
N1833 N 0.08478 0.05504 0.14759 0.0
H1834 H 0.06063 0.09056 0.22954 0.0
H1835 H 0.09007 0.09064 0.20688 0.0
H1836 H 0.09273 0.04631 0.12633 0.0
H1837 H 0.0972 0.05379 0.16862 0.0
H1838 H 0.95202 0.04104 0.12824 0.0
H1839 H 0.9577 0.05109 0.17103 0.0
H1840 H 0.97169 0.06319 0.0926 0.0
H1841 H 1.00084 0.06105 0.07015 0.0
C1842 C 0.30598 0.69782 0.44942 0.0
C1843 C 0.29309 0.69947 0.47856 0.0
C1844 C 0.2682 0.73982 0.46557 0.0
C1845 C 0.27909 0.7357 0.43552 0.0
N1846 N 0.31944 0.72619 0.40674 0.0
N1847 N 0.27049 0.73003 0.51957 0.0
C1848 C 0.30189 0.71997 0.43009 0.0
C1849 C 0.27731 0.72352 0.48855 0.0
N1850 N 0.31972 0.67357 0.43868 0.0
N1851 N 0.24785 0.75755 0.47106 0.0
H1852 H 0.27578 0.71741 0.53677 0.0
H1853 H 0.26164 0.74963 0.52901 0.0
H1854 H 0.24221 0.77132 0.45499 0.0
H1855 H 0.23588 0.75763 0.49068 0.0
H1856 H 0.32617 0.6693 0.41554 0.0
H1857 H 0.32252 0.65583 0.45146 0.0
H1858 H 0.33758 0.71666 0.40325 0.0
H1859 H 0.31836 0.74463 0.39419 0.0
C1860 C 0.67197 0.0182 0.61782 0.0
C1861 C 0.68659 0.05037 0.63893 0.0
C1862 C 0.64229 0.06844 0.63239 0.0
C1863 C 0.62755 0.03736 0.60996 0.0
N1864 N 0.63029 0.98453 0.57634 0.0
N1865 N 0.69022 0.10997 0.64959 0.0
C1866 C 0.6428 0.0124 0.60152 0.0
C1867 C 0.67325 0.07689 0.64091 0.0
N1868 N 0.68636 0.99375 0.61301 0.0
N1869 N 0.62698 0.09066 0.6439 0.0
H1870 H 0.71349 0.11663 0.65243 0.0
H1871 H 0.68121 0.13006 0.64946 0.0
H1872 H 0.60407 0.08492 0.63715 0.0
H1873 H 0.63683 0.11317 0.66172 0.0
H1874 H 0.6759 0.96845 0.60121 0.0
H1875 H 0.70906 0.99918 0.62149 0.0
H1876 H 0.64139 0.96724 0.56654 0.0
H1877 H 0.60921 0.98006 0.56375 0.0
C1878 C 0.34179 0.34979 0.91897 0.0
C1879 C 0.33593 0.32438 0.93693 0.0
C1880 C 0.32588 0.28077 0.88493 0.0
C1881 C 0.32842 0.30588 0.86674 0.0
N1882 N 0.33377 0.36471 0.86757 0.0
N1883 N 0.3166 0.26523 0.93588 0.0
C1884 C 0.33453 0.34045 0.88413 0.0
C1885 C 0.32645 0.28974 0.91955 0.0
N1886 N 0.35634 0.38274 0.93474 0.0
N1887 N 0.32368 0.24822 0.86924 0.0
H1888 H 0.31566 0.27079 0.96092 0.0
H1889 H 0.30643 0.23984 0.92414 0.0
H1890 H 0.32369 0.24086 0.84422 0.0
H1891 H 0.3251 0.22953 0.88137 0.0
H1892 H 0.36414 0.4015 0.92245 0.0
H1893 H 0.36372 0.39077 0.95981 0.0
H1894 H 0.33398 0.38924 0.87909 0.0
H1895 H 0.33172 0.36001 0.84226 0.0
C1896 C 0.04851 0.07511 0.39153 0.0
C1897 C 0.01751 0.06587 0.37788 0.0
C1898 C 1.00712 0.04376 0.42832 0.0
C1899 C 0.03826 0.05163 0.44144 0.0
N1900 N 0.0882 0.06977 0.42942 0.0
N1901 N 0.96774 0.03606 0.38309 0.0
C1902 C 0.05868 0.06596 0.42121 0.0
C1903 C 0.99708 0.04909 0.39659 0.0
N1904 N 0.06871 0.09412 0.37652 0.0
N1905 N 0.98646 0.02996 0.44607 0.0
H1906 H 0.95937 0.04033 0.3613 0.0
H1907 H 0.95199 0.01928 0.39215 0.0
H1908 H 0.99216 0.01997 0.46527 0.0
H1909 H 0.96398 0.02864 0.44203 0.0
H1910 H 0.09106 0.10551 0.38639 0.0
H1911 H 0.06238 0.10151 0.35566 0.0
H1912 H 0.10422 0.07605 0.41448 0.0
H1913 H 0.09624 0.06284 0.44967 0.0
C1914 C 0.31027 0.72778 0.62602 0.0
C1915 C 0.30874 0.69321 0.62224 0.0
C1916 C 0.32639 0.70367 0.67939 0.0
C1917 C 0.32169 0.73634 0.68457 0.0
N1918 N 0.30436 0.77737 0.6621 0.0
N1919 N 0.31661 0.64782 0.64499 0.0
C1920 C 0.31263 0.74817 0.65768 0.0
C1921 C 0.31726 0.68104 0.64872 0.0
N1922 N 0.31065 0.7412 0.59945 0.0
N1923 N 0.33969 0.6932 0.70318 0.0
H1924 H 0.30966 0.62976 0.62272 0.0
H1925 H 0.32241 0.63823 0.66459 0.0
H1926 H 0.34868 0.70866 0.72628 0.0
H1927 H 0.34868 0.70866 0.72628 0.0
H1928 H 0.31371 0.76694 0.60112 0.0
H1929 H 0.3123 0.72719 0.57656 0.0
H1930 H 0.29495 0.78491 0.64283 0.0
H1931 H 0.3042 0.79241 0.68503 0.0
C1932 C 0.66283 0.03319 0.80791 0.0
C1933 C 0.64788 0.02186 0.7755 0.0
C1934 C 0.60421 0.03642 0.79481 0.0
C1935 C 0.62279 0.05649 0.82429 0.0
N1936 N 0.67224 0.07827 0.85639 0.0
N1937 N 0.60233 1.00714 0.73829 0.0
C1938 C 0.65282 0.05598 0.83034 0.0
C1939 C 0.61761 0.02122 0.76913 0.0
N1940 N 0.68658 0.02264 0.81712 0.0
N1941 N 0.57411 0.03162 0.79162 0.0
H1942 H 0.61143 0.9939 0.71997 0.0
H1943 H 0.58141 1.00936 0.73084 0.0
H1944 H 0.56372 0.04217 0.81027 0.0
H1945 H 0.55925 0.01505 0.77162 0.0
H1946 H 0.69734 0.02957 0.84119 0.0
H1947 H 0.69241 1.00324 0.80175 0.0
H1948 H 0.69493 0.08015 0.85979 0.0
H1949 H 0.66654 0.09733 0.87239 0.0
C1950 C 0.31127 0.33487 0.13787 0.0
C1951 C 0.33864 0.33701 0.12519 0.0
C1952 C 0.3591 0.32434 0.17502 0.0
C1953 C 0.33246 0.3243 0.18883 0.0
N1954 N 0.28911 0.3441 0.1874 0.0
N1955 N 0.39157 0.34532 0.13796 0.0
C1956 C 0.30994 0.3333 0.17125 0.0
C1957 C 0.36339 0.33493 0.14553 0.0
N1958 N 0.28647 0.33419 0.11827 0.0
N1959 N 0.38073 0.31437 0.19004 0.0
H1960 H 0.39622 0.35569 0.11807 0.0
H1961 H 0.41075 0.34771 0.15361 0.0
H1962 H 0.37962 0.30895 0.21272 0.0
H1963 H 0.39908 0.31029 0.17944 0.0
H1964 H 0.2654 0.32952 0.12554 0.0
H1965 H 0.28658 0.33532 0.09392 0.0
H1966 H 0.27279 0.35258 0.17646 0.0
H1967 H 0.29208 0.35055 0.2128 0.0
C1968 C 0.28326 0.01394 0.05433 0.0
C1969 C 0.30696 0.02905 0.0387 0.0
C1970 C 0.29252 0.08148 0.0481 0.0
C1971 C 0.27043 0.06737 0.06607 0.0
N1972 N 0.24823 0.02289 0.09173 0.0
N1973 N 0.33857 0.07941 0.02738 0.0
C1974 C 0.26698 0.03444 0.07099 0.0
C1975 C 0.31292 0.0635 0.03753 0.0
N1976 N 0.27519 0.97976 0.05172 0.0
N1977 N 0.2932 0.11126 0.03984 0.0
H1978 H 0.35466 0.06743 0.02042 0.0
H1979 H 0.34535 0.10538 0.02904 0.0
H1980 H 0.27868 0.12537 0.04722 0.0
H1981 H 0.30653 0.1205 0.02344 0.0
H1982 H 0.25599 0.96691 0.05951 0.0
H1983 H 0.28606 0.96362 0.03899 0.0
H1984 H 0.24695 1.00038 0.0987 0.0
H1985 H 0.23597 0.03736 0.10439 0.0
C1986 C 0.71906 0.61868 0.03135 0.0
C1987 C 0.7214 0.633 1.0038 0.0
C1988 C 0.67072 0.59721 0.97955 0.0
C1989 C 0.66808 0.58335 0.00743 0.0
N1990 N 0.6932 0.57351 0.05468 0.0
N1991 N 0.70276 0.6299 0.94832 0.0
C1992 C 0.69343 0.59163 0.03158 0.0
C1993 C 0.69818 0.62035 0.97683 0.0
N1994 N 0.74046 0.63226 0.05827 0.0
N1995 N 0.64676 0.58837 0.9557 0.0
H1996 H 0.72276 0.64647 0.94563 0.0
H1997 H 0.68808 0.61927 0.92652 0.0
H1998 H 0.62742 0.56941 0.95559 0.0
H1999 H 0.64568 0.60009 0.93655 0.0
H2000 H 0.73814 0.62617 0.08068 0.0
H2001 H 0.75972 0.65156 0.059 0.0
H2002 H 0.7119 0.57602 0.0711 0.0
H2003 H 0.675 0.55345 0.05511 0.0
C2004 C 0.74972 0.38769 0.24806 0.0
C2005 C 0.75802 0.41786 0.27417 0.0
C2006 C 0.79826 0.39383 0.29605 0.0
C2007 C 0.78945 0.36283 0.27073 0.0
N2008 N 0.75283 0.33059 0.22389 0.0
N2009 N 0.7962 0.45174 0.31875 0.0
C2010 C 0.76433 0.36046 0.24697 0.0
C2011 C 0.78404 0.42119 0.29674 0.0
N2012 N 0.72773 0.38501 0.22363 0.0
N2013 N 0.81914 0.39639 0.3214 0.0
H2014 H 0.78726 0.47203 0.31968 0.0
H2015 H 0.81667 0.45835 0.33363 0.0
H2016 H 0.82983 0.37781 0.32143 0.0
H2017 H 0.82442 0.41526 0.34305 0.0
H2018 H 0.72212 0.36638 0.20179 0.0
H2019 H 0.71661 0.40344 0.22415 0.0
H2020 H 0.73256 0.32392 0.20866 0.0
H2021 H 0.76301 0.3113 0.22115 0.0
C2022 C 0.95817 0.50481 0.47156 0.0
C2023 C 0.94778 0.52885 0.49219 0.0
C2024 C 0.99808 0.55984 0.51843 0.0
C2025 C 0.0085 0.53314 0.50129 0.0
N2026 N 0.99769 0.47805 0.46385 0.0
N2027 N 0.95764 0.58574 0.52271 0.0
C2028 C 0.98835 0.50504 0.47816 0.0
C2029 C 0.96807 0.55912 0.51045 0.0
N2030 N 0.93851 0.48118 0.44671 0.0
N2031 N 0.01511 0.58276 0.54556 0.0
H2032 H 0.935 0.58388 0.51787 0.0
H2033 H 0.97156 0.60981 0.53457 0.0
H2034 H 0.03523 0.58076 0.55572 0.0
H2035 H 0.00743 0.60065 0.56062 0.0
H2036 H 0.94451 0.46351 0.4294 0.0
H2037 H 0.91651 0.48179 0.44195 0.0
H2038 H 0.98332 0.45543 0.44935 0.0
H2039 H 0.01984 0.47778 0.4676 0.0
C2040 C 0.36302 0.10537 0.31673 0.0
C2041 C 0.38051 0.09117 0.29535 0.0
C2042 C 0.35684 0.107 0.25 0.0
C2043 C 0.33621 0.11599 0.27002 0.0
N2044 N 0.31749 0.12148 0.32165 0.0
N2045 N 0.39016 0.07249 0.24002 0.0
C2046 C 0.33882 0.11491 0.30332 0.0
C2047 C 0.37669 0.09067 0.26155 0.0
N2048 N 0.36987 0.11023 0.34974 0.0
N2049 N 0.35726 0.11387 0.21988 0.0
H2050 H 0.40359 0.05824 0.2468 0.0
H2051 H 0.38545 0.06853 0.21475 0.0
H2052 H 0.34279 0.1258 0.21063 0.0
H2053 H 0.37381 0.1108 0.20558 0.0
H2054 H 0.35973 0.12357 0.36671 0.0
H2055 H 0.38761 0.10356 0.3603 0.0
H2056 H 0.31639 0.1173 0.34494 0.0
H2057 H 0.29978 0.12932 0.31282 0.0
C2058 C 0.37099 0.10519 0.49489 0.0
C2059 C 0.37739 0.14065 0.50792 0.0
C2060 C 0.41961 0.14029 0.54583 0.0
C2061 C 0.41384 0.10515 0.5318 0.0
N2062 N 0.38875 0.05553 0.4887 0.0
N2063 N 0.41094 0.1933 0.5409 0.0
C2064 C 0.39105 0.08805 0.50487 0.0
C2065 C 0.40268 0.15863 0.532 0.0
N2066 N 0.34487 0.08748 0.47457 0.0
N2067 N 0.4407 0.15586 0.5729 0.0
H2068 H 0.39925 0.20758 0.53092 0.0
H2069 H 0.43078 0.20802 0.55586 0.0
H2070 H 0.45427 0.14348 0.58301 0.0
H2071 H 0.44349 0.18038 0.58665 0.0
H2072 H 0.33745 0.0611 0.46739 0.0
H2073 H 0.32925 0.0989 0.46701 0.0
H2074 H 0.37464 0.043 0.46675 0.0
H2075 H 0.40283 0.04201 0.49568 0.0
C2076 C 0.75482 0.64686 0.30833 0.0
C2077 C 0.75269 0.61877 0.28179 0.0
C2078 C 0.78619 0.65955 0.25621 0.0
C2079 C 0.78483 0.68833 0.28067 0.0
N2080 N 0.7625 0.70709 0.32805 0.0
N2081 N 0.76444 0.59971 0.22817 0.0
C2082 C 0.76765 0.6812 0.3061 0.0
C2083 C 0.76821 0.6255 0.2553 0.0
N2084 N 0.74503 0.64065 0.33653 0.0
N2085 N 0.80438 0.66456 0.23325 0.0
H2086 H 0.75232 0.57479 0.22691 0.0
H2087 H 0.7716 0.60331 0.20623 0.0
H2088 H 0.81639 0.68857 0.23215 0.0
H2089 H 0.80928 0.64506 0.21708 0.0
H2090 H 0.74877 0.65939 0.35818 0.0
H2091 H 0.73619 0.61612 0.3393 0.0
H2092 H 0.74691 0.7034 0.34401 0.0
H2093 H 0.77205 0.73236 0.32884 0.0
C2094 C 0.87523 0.42457 0.75731 0.0
C2095 C 0.88256 0.44618 0.78938 0.0
C2096 C 0.8419 0.40818 0.80601 0.0
C2097 C 0.84333 0.38252 0.77966 0.0
N2098 N 0.84176 0.37307 0.72204 0.0
N2099 N 0.8692 0.4608 0.84365 0.0
C2100 C 0.8541 0.39263 0.7524 0.0
C2101 C 0.86478 0.4389 0.81371 0.0
N2102 N 0.88893 0.43404 0.73215 0.0
N2103 N 0.81518 0.40751 0.81594 0.0
H2104 H 0.88606 0.48377 0.85058 0.0
H2105 H 0.85657 0.45489 0.86184 0.0
H2106 H 0.79611 0.38804 0.80429 0.0
H2107 H 0.81174 0.42807 0.83222 0.0
H2108 H 0.88708 0.41735 0.70955 0.0
H2109 H 0.90252 0.45854 0.73411 0.0
H2110 H 0.8448 0.38171 0.70097 0.0
H2111 H 0.82536 0.3501 0.71886 0.0
C2112 C 0.10856 0.9308 0.09267 0.0
C2113 C 0.11503 0.90561 0.06801 0.0
C2114 C 0.10906 0.94286 0.02958 0.0
C2115 C 0.09902 0.96556 0.05335 0.0
N2116 N 0.08249 0.97356 0.10602 0.0
N2117 N 0.11367 0.88594 0.00978 0.0
C2118 C 0.09683 0.95706 0.08431 0.0
C2119 C 0.1131 0.91131 0.0356 0.0
N2120 N 0.1153 0.93143 0.12483 0.0
N2121 N 0.11594 0.95165 1.0014 0.0
H2122 H 0.11453 0.86217 0.0123 0.0
H2123 H 0.10957 0.88705 0.98554 0.0
H2124 H 0.11399 0.97411 0.99635 0.0
H2125 H 0.12617 0.93825 0.98459 0.0
H2126 H 0.11408 0.95109 0.14384 0.0
H2127 H 0.12571 0.91494 0.13265 0.0
H2128 H 0.07754 0.96668 0.1276 0.0
H2129 H 0.07201 0.99093 0.10032 0.0
C2130 C 0.92891 0.24064 0.85658 0.0
C2131 C 0.93907 0.26098 0.88879 0.0
C2132 C 0.8995 0.28922 0.8807 0.0
C2133 C 0.89145 0.27208 0.84638 0.0
N2134 N 0.90423 0.23279 0.80249 0.0
N2135 N 0.93879 0.31165 0.92762 0.0
C2136 C 0.90806 0.24853 0.83469 0.0
C2137 C 0.9257 0.2872 0.89961 0.0
N2138 N 0.93796 0.21225 0.84698 0.0
N2139 N 0.88218 0.3069 0.89654 0.0
H2140 H 0.95828 0.31207 0.94163 0.0
H2141 H 0.93236 0.33366 0.93478 0.0
H2142 H 0.8624 0.30923 0.88618 0.0
H2143 H 0.88568 0.3162 0.92186 0.0
H2144 H 0.92845 0.19366 0.82547 0.0
H2145 H 0.95286 0.20547 0.86203 0.0
H2146 H 0.91916 0.22086 0.79196 0.0
H2147 H 0.88698 0.23256 0.78599 0.0
C2148 C 0.63279 0.19733 0.57754 0.0
C2149 C 0.61483 0.2113 0.55903 0.0
C2150 C 0.5828 0.15214 0.53338 0.0
C2151 C 0.60079 0.13811 0.55228 0.0
N2152 N 0.63594 0.15089 0.60132 0.0
N2153 N 0.57508 0.20112 0.51545 0.0
C2154 C 0.62392 0.16178 0.5767 0.0
C2155 C 0.59049 0.18834 0.53587 0.0
N2156 N 0.65912 0.21797 0.59566 0.0
N2157 N 0.5564 0.13131 0.51561 0.0
H2158 H 0.57976 0.22709 0.51718 0.0
H2159 H 0.5595 0.18614 0.49532 0.0
H2160 H 0.55 0.10517 0.51285 0.0
H2161 H 0.54003 0.13986 0.50499 0.0
H2162 H 0.67485 0.20881 0.60676 0.0
H2163 H 0.66661 0.24386 0.59695 0.0
H2164 H 0.64965 0.16726 0.62226 0.0
H2165 H 0.63056 0.12547 0.60175 0.0
C2166 C 0.63363 0.77258 0.39599 0.0
C2167 C 0.60657 0.78032 0.38868 0.0
C2168 C 0.62536 0.79916 0.34137 0.0
C2169 C 0.65429 0.79845 0.35306 0.0
N2170 N 0.68666 0.78686 0.39385 0.0
N2171 N 0.57774 0.80446 0.35553 0.0
C2172 C 0.6586 0.78528 0.38072 0.0
C2173 C 0.6024 0.79396 0.36127 0.0
N2174 N 0.63536 0.7527 0.41725 0.0
N2175 N 0.62004 0.80534 0.31139 0.0
H2176 H 0.56076 0.80238 0.36993 0.0
H2177 H 0.5754 0.81808 0.33814 0.0
H2178 H 0.63652 0.80903 0.29634 0.0
H2179 H 0.5988 0.80328 0.30021 0.0
H2180 H 0.65363 0.74368 0.42123 0.0
H2181 H 0.61718 0.74216 0.42808 0.0
H2182 H 0.69128 0.78137 0.41623 0.0
H2183 H 0.7057 0.79614 0.38379 0.0
C2184 C 0.11996 0.22484 0.4301 0.0
C2185 C 0.13243 0.2603 0.43868 0.0
C2186 C 0.13623 0.26028 0.49648 0.0
C2187 C 0.1166 0.22694 0.48776 0.0
N2188 N 0.08971 0.17641 0.44563 0.0
N2189 N 0.1538 0.31268 0.48002 0.0
C2190 C 0.10913 0.20838 0.45441 0.0
C2191 C 0.14188 0.27823 0.47189 0.0
N2192 N 0.11733 0.2075 0.39832 0.0
N2193 N 0.1487 0.27482 0.52835 0.0
H2194 H 0.15907 0.32666 0.46268 0.0
H2195 H 0.15716 0.32753 0.50383 0.0
H2196 H 0.14486 0.26179 0.54669 0.0
H2197 H 0.16493 0.29821 0.53594 0.0
H2198 H 0.11051 0.18114 0.3906 0.0
H2199 H 0.12498 0.21982 0.38037 0.0
H2200 H 0.081 0.16355 0.42147 0.0
H2201 H 0.08051 0.16334 0.46232 0.0
C2202 C 0.60093 0.21499 0.19858 0.0
C2203 C 0.58924 0.23865 0.21841 0.0
C2204 C 0.63424 0.25687 0.25876 0.0
C2205 C 0.64319 0.2292 0.24162 0.0
N2206 N 0.63346 0.17919 0.19729 0.0
N2207 N 0.59375 0.28208 0.26737 0.0
C2208 C 0.62629 0.20767 0.21188 0.0
C2209 C 0.60579 0.26003 0.24835 0.0
N2210 N 0.58794 0.19985 0.16688 0.0
N2211 N 0.653 0.27996 0.28482 0.0
H2212 H 0.57318 0.28533 0.25996 0.0
H2213 H 0.60325 0.29572 0.29111 0.0
H2214 H 0.67389 0.27802 0.29305 0.0
H2215 H 0.64897 0.30232 0.29661 0.0
H2216 H 0.59721 0.18479 0.15043 0.0
H2217 H 0.56959 0.20522 0.15601 0.0
H2218 H 0.6198 0.16054 0.17767 0.0
H2219 H 0.65179 0.17262 0.2065 0.0
C2220 C 0.65181 0.95713 0.9358 0.0
C2221 C 0.64725 0.92868 0.94967 0.0
C2222 C 0.62049 0.95357 0.9894 0.0
C2223 C 0.62673 0.98333 0.97788 0.0
N2224 N 0.65483 0.01666 0.94468 0.0
N2225 N 0.63734 0.90607 0.99649 0.0
C2226 C 0.6445 0.9863 0.95247 0.0
C2227 C 0.63587 0.92978 0.97947 0.0
N2228 N 0.66143 0.95572 0.90614 0.0
N2229 N 0.59737 0.94595 0.00651 0.0
H2230 H 0.64825 0.88777 0.98892 0.0
H2231 H 0.63042 0.90708 0.01938 0.0
H2232 H 0.58195 0.95967 0.00834 0.0
H2233 H 0.59089 0.92332 0.01381 0.0
H2234 H 0.66139 0.97409 0.89313 0.0
H2235 H 0.66814 0.93539 0.89386 0.0
H2236 H 0.66992 0.02056 0.92821 0.0
H2237 H 0.65093 0.03881 0.9572 0.0
C2238 C 0.93654 0.76164 0.74727 0.0
C2239 C 0.9376 0.75273 0.71315 0.0
C2240 C 0.88367 0.73865 0.70186 0.0
C2241 C 0.88251 0.753 0.73528 0.0
N2242 N 0.90588 0.76384 0.79083 0.0
N2243 N 0.91281 0.738 0.65764 0.0
C2244 C 0.90847 0.76054 0.75852 0.0
C2245 C 0.91142 0.74337 0.69041 0.0
N2246 N 0.96258 0.77224 0.76862 0.0
N2247 N 0.8589 0.71649 0.68187 0.0
H2248 H 0.93274 0.74014 0.64798 0.0
H2249 H 0.89442 0.73463 0.64037 0.0
H2250 H 0.83988 0.70504 0.69075 0.0
H2251 H 0.85918 0.70405 0.65787 0.0
H2252 H 0.96418 0.78202 0.79363 0.0
H2253 H 0.98328 0.7738 0.76079 0.0
H2254 H 0.92353 0.76789 0.80917 0.0
H2255 H 0.88529 0.75873 0.79899 0.0
C2256 C 0.12738 0.99202 0.87498 0.0
C2257 C 0.14786 0.0199 0.86688 0.0
C2258 C 0.14524 0.0542 0.9234 0.0
C2259 C 0.12243 0.02703 0.93051 0.0
N2260 N 0.10477 0.96632 0.91675 0.0
N2261 N 0.17354 0.07943 0.8844 0.0
C2262 C 0.11689 0.99501 0.90696 0.0
C2263 C 0.15585 0.05127 0.89157 0.0
N2264 N 0.11668 0.9624 0.85146 0.0
N2265 N 0.15931 0.08239 0.9478 0.0
H2266 H 0.18439 0.07836 0.86385 0.0
H2267 H 0.176 0.10407 0.89768 0.0
H2268 H 0.15517 0.08578 0.97168 0.0
H2269 H 0.17827 0.10084 0.94575 0.0
H2270 H 0.0989 0.94245 0.85354 0.0
H2271 H 0.12435 0.95887 0.8289 0.0
H2272 H 0.1033 0.94207 0.90319 0.0
H2273 H 0.09987 0.96716 0.94038 0.0
C2274 C 0.90822 0.42963 0.61986 0.0
C2275 C 0.88537 0.42129 0.59317 0.0
C2276 C 0.8681 0.36311 0.59732 0.0
C2277 C 0.8923 0.37076 0.62267 0.0
N2278 N 0.92931 0.41247 0.66514 0.0
N2279 N 0.83825 0.38523 0.56306 0.0
C2280 C 0.91043 0.40451 0.63638 0.0
C2281 C 0.86316 0.38975 0.58457 0.0
N2282 N 0.92881 0.46084 0.62772 0.0
N2283 N 0.85094 0.33032 0.58456 0.0
H2284 H 0.8347 0.40483 0.5533 0.0
H2285 H 0.82012 0.36349 0.55735 0.0
H2286 H 0.85422 0.30997 0.5932 0.0
H2287 H 0.83482 0.32279 0.56392 0.0
H2288 H 0.94842 0.46712 0.64406 0.0
H2289 H 0.9265 0.48005 0.61659 0.0
H2290 H 0.94075 0.43726 0.67769 0.0
H2291 H 0.93168 0.39453 0.67794 0.0
C2292 C 0.53164 0.07979 0.40492 0.0
C2293 C 0.50354 0.05638 0.39189 0.0
C2294 C 0.50979 0.02191 0.429 0.0
C2295 C 0.53716 0.04622 0.44428 0.0
N2296 N 0.57119 0.1028 0.45061 0.0
N2297 N 0.46171 0.01193 0.39759 0.0
C2298 C 0.54732 0.07667 0.43354 0.0
C2299 C 0.49097 0.0303 0.4068 0.0
N2300 N 0.54375 0.10402 0.38911 0.0
N2301 N 0.50336 0.98957 0.43267 0.0
H2302 H 0.4477 0.01795 0.38083 0.0
H2303 H 0.45104 0.9935 0.40908 0.0
H2304 H 0.51932 0.98107 0.44398 0.0
H2305 H 0.48445 0.97028 0.42018 0.0
H2306 H 0.56592 0.11893 0.3948 0.0
H2307 H 0.53175 0.10787 0.3691 0.0
H2308 H 0.57733 0.12638 0.44512 0.0
H2309 H 0.5833 0.10276 0.47222 0.0
C2310 C 0.81284 0.73406 0.13413 0.0
C2311 C 0.81406 0.75917 0.11599 0.0
C2312 C 0.82166 0.80189 0.16831 0.0
C2313 C 0.82294 0.77732 0.18642 0.0
N2314 N 0.82875 0.72201 0.18487 0.0
N2315 N 0.82528 0.81848 0.1169 0.0
C2316 C 0.82103 0.74396 0.1688 0.0
C2317 C 0.81973 0.79348 0.13342 0.0
N2318 N 0.8028 0.70044 0.1186 0.0
N2319 N 0.82269 0.83373 0.18469 0.0
H2320 H 0.8254 0.81358 0.09172 0.0
H2321 H 0.83269 0.84423 0.12836 0.0
H2322 H 0.82597 0.84074 0.20996 0.0
H2323 H 0.81805 0.85189 0.17351 0.0
H2324 H 0.79815 0.6813 0.13108 0.0
H2325 H 0.79625 0.69171 0.09351 0.0
H2326 H 0.8309 0.69862 0.17298 0.0
H2327 H 0.83601 0.72883 0.20987 0.0
C2328 C 0.10524 1.00935 0.66243 0.0
C2329 C 0.13631 0.01174 0.67001 0.0
C2330 C 0.13943 0.01664 0.61161 0.0
C2331 C 0.10961 0.01945 0.60581 0.0
N2332 N 0.06531 0.0207 0.62991 0.0
N2333 N 0.18366 0.02364 0.65039 0.0
C2334 C 0.09312 0.01649 0.63262 0.0
C2335 C 0.15348 0.01708 0.64409 0.0
N2336 N 0.08635 0.99799 0.68307 0.0
N2337 N 0.15418 0.01145 0.58553 0.0
H2338 H 0.19457 0.02375 0.67289 0.0
H2339 H 0.19787 0.03159 0.63417 0.0
H2340 H 0.14443 1.00918 0.56188 0.0
H2341 H 0.17449 1.00585 0.58692 0.0
H2342 H 0.06322 0.99191 0.67781 0.0
H2343 H 0.09351 0.99055 0.70356 0.0
H2344 H 0.05336 0.02344 0.64946 0.0
H2345 H 0.0554 0.02473 0.6088 0.0
C2346 C 0.83678 0.38352 0.4111 0.0
C2347 C 0.86106 0.38342 0.43323 0.0
C2348 C 0.86958 0.33621 0.3946 0.0
C2349 C 0.84474 0.33557 0.37292 0.0
N2350 N 0.79998 0.35224 0.36415 0.0
N2351 N 0.89384 0.35294 0.45065 0.0
C2352 C 0.82653 0.35677 0.38265 0.0
C2353 C 0.87536 0.35757 0.42646 0.0
N2354 N 0.82519 0.41044 0.41554 0.0
N2355 N 0.88828 0.31749 0.38446 0.0
H2356 H 0.89749 0.36726 0.47476 0.0
H2357 H 0.9028 0.33256 0.4476 0.0
H2358 H 0.88447 0.30113 0.36134 0.0
H2359 H 0.9086 0.32009 0.39817 0.0
H2360 H 0.80946 0.41308 0.3982 0.0
H2361 H 0.83319 0.43189 0.43492 0.0
H2362 H 0.7841 0.36404 0.37219 0.0
H2363 H 0.79359 0.33576 0.34113 0.0
C2364 C 0.53352 0.05342 0.21652 0.0
C2365 C 0.50612 0.05915 0.22212 0.0
C2366 C 0.4867 0.03711 0.16409 0.0
C2367 C 0.5103 0.02203 0.16117 0.0
N2368 N 0.55709 0.01606 0.18458 0.0
N2369 N 0.46166 0.06986 0.2008 0.0
C2370 C 0.53451 0.03095 0.18711 0.0
C2371 C 0.48445 0.0559 0.19548 0.0
N2372 N 0.55726 0.06679 0.24097 0.0
N2373 N 0.46681 0.03324 0.13711 0.0
H2374 H 0.46182 0.08642 0.22303 0.0
H2375 H 0.44349 0.0664 0.18333 0.0
H2376 H 0.46845 0.01981 0.11391 0.0
H2377 H 0.44938 0.04412 0.13717 0.0
H2378 H 0.57871 0.06525 0.23813 0.0
H2379 H 0.55549 0.08212 0.26321 0.0
H2380 H 0.57371 0.0196 0.20394 0.0
H2381 H 0.55801 0.99783 0.16407 0.0
C2382 C 0.80192 0.7263 0.89982 0.0
C2383 C 0.82085 0.74706 0.92888 0.0
C2384 C 0.85465 0.77473 0.89441 0.0
C2385 C 0.83356 0.75773 0.86573 0.0
N2386 N 0.79829 0.70331 0.84195 0.0
N2387 N 0.86482 0.79303 0.95379 0.0
C2388 C 0.80994 0.72968 0.86858 0.0
C2389 C 0.84712 0.77183 0.92613 0.0
N2390 N 0.77607 0.70307 0.90184 0.0
N2391 N 0.88346 0.78863 0.89103 0.0
H2392 H 0.86045 0.79105 0.97717 0.0
H2393 H 0.88235 0.81402 0.95337 0.0
H2394 H 0.89059 0.78384 0.86827 0.0
H2395 H 0.9007 0.79946 0.91065 0.0
H2396 H 0.75959 0.6903 0.88178 0.0
H2397 H 0.77003 0.6983 0.92391 0.0
H2398 H 0.78247 0.68084 0.84219 0.0
H2399 H 0.80911 0.70159 0.82156 0.0
C2400 C 0.87398 0.04932 0.02308 0.0
C2401 C 0.87331 0.0809 0.01715 0.0
C2402 C 0.92156 0.08767 0.99798 0.0
C2403 C 0.91785 0.05294 0.99572 0.0
N2404 N 0.89218 1.00042 0.00787 0.0
N2405 N 0.8966 0.13094 0.9987 0.0
C2406 C 0.89496 0.03383 0.00958 0.0
C2407 C 0.89757 0.10094 0.00547 0.0
N2408 N 0.85445 0.03431 0.04141 0.0
N2409 N 0.94758 0.10732 0.99169 0.0
H2410 H 0.87918 0.14149 1.00296 0.0
H2411 H 0.91215 0.1443 0.98656 0.0
H2412 H 0.96527 0.09756 0.98593 0.0
H2413 H 0.95268 0.13355 0.99541 0.0
H2414 H 0.85535 0.01249 0.04871 0.0
H2415 H 0.83919 0.04571 0.05204 0.0
H2416 H 0.87373 0.98407 0.0138 0.0
H2417 H 0.90789 0.98869 0.99907 0.0
C2418 C 0.4505 0.47164 0.06827 0.0
C2419 C 0.4403 0.43871 0.04658 0.0
C2420 C 0.49062 0.44526 0.03365 0.0
C2421 C 0.49977 0.48058 0.04847 0.0
N2422 N 0.48925 0.52528 0.08758 0.0
N2423 N 0.45022 0.39899 1.00153 0.0
C2424 C 0.47979 0.49344 0.06778 0.0
C2425 C 0.46015 0.42724 0.02688 0.0
N2426 N 0.43322 0.48117 0.09079 0.0
N2427 N 0.51109 0.42776 0.02937 0.0
H2428 H 0.42763 0.38599 0.9941 0.0
H2429 H 0.46434 0.39122 0.98573 0.0
H2430 H 0.53317 0.43883 0.04022 0.0
H2431 H 0.5051 0.40156 0.02005 0.0
H2432 H 0.44028 0.50323 0.10951 0.0
H2433 H 0.41229 0.46573 0.09229 0.0
H2434 H 0.4749 0.53832 0.09768 0.0
H2435 H 0.51172 0.53756 0.09562 0.0
C2436 C 0.39202 0.68158 0.81823 0.0
C2437 C 0.41009 0.67136 0.79428 0.0
C2438 C 0.39837 0.71656 0.76826 0.0
C2439 C 0.37958 0.72628 0.79194 0.0
N2440 N 0.36913 0.72359 0.84596 0.0
N2441 N 0.42656 0.67843 0.74356 0.0
C2442 C 0.37957 0.71016 0.81859 0.0
C2443 C 0.412 0.6888 0.76857 0.0
N2444 N 0.38522 0.66257 0.84039 0.0
N2445 N 0.40512 0.7356 0.74623 0.0
H2446 H 0.43714 0.65958 0.74341 0.0
H2447 H 0.42611 0.68631 0.7219 0.0
H2448 H 0.39355 0.75261 0.74266 0.0
H2449 H 0.42222 0.73505 0.73218 0.0
H2450 H 0.36971 0.66549 0.85615 0.0
H2451 H 0.39253 0.64127 0.84044 0.0
H2452 H 0.37189 0.71677 0.86799 0.0
H2453 H 0.3598 0.74362 0.84749 0.0
C2454 C 0.20053 0.5425 0.49896 0.0
C2455 C 0.22104 0.56815 0.48988 0.0
C2456 C 0.18798 0.60375 0.49604 0.0
C2457 C 0.16723 0.57967 0.50832 0.0
N2458 N 0.15724 0.52615 0.52399 0.0
N2459 N 0.22454 0.60992 0.45908 0.0
C2460 C 0.17421 0.5486 0.50983 0.0
C2461 C 0.21133 0.59424 0.48125 0.0
N2462 N 0.20729 0.51278 0.49801 0.0
N2463 N 0.18736 0.63661 0.50096 0.0
H2464 H 0.24139 0.60231 0.44774 0.0
H2465 H 0.21684 0.62793 0.4503 0.0
H2466 H 0.17415 0.64658 0.51658 0.0
H2467 H 0.20325 0.65492 0.49358 0.0
H2468 H 0.19271 0.49092 0.50149 0.0
H2469 H 0.2272 0.50949 0.49055 0.0
H2470 H 0.16146 0.50422 0.52796 0.0
H2471 H 0.14045 0.53205 0.53511 0.0
C2472 C 0.81281 0.97948 0.74188 0.0
C2473 C 0.78654 0.98713 0.75059 0.0
C2474 C 0.78961 0.96284 0.7975 0.0
C2475 C 0.81886 0.96214 0.79285 0.0
N2476 N 0.85984 0.97224 0.76164 0.0
N2477 N 0.75379 0.99327 0.79168 0.0
C2478 C 0.83087 0.97067 0.76505 0.0
C2479 C 0.77561 0.98042 0.77953 0.0
N2480 N 0.82039 0.98059 0.71158 0.0
N2481 N 0.77532 0.94693 0.81914 0.0
H2482 H 0.74464 1.00939 0.78146 0.0
H2483 H 0.74744 0.99131 0.81437 0.0
H2484 H 0.78484 0.93295 0.83218 0.0
H2485 H 0.75293 0.94455 0.82122 0.0
H2486 H 0.83784 0.97212 0.70285 0.0
H2487 H 0.80736 0.98682 0.69402 0.0
H2488 H 0.87038 0.98161 0.74344 0.0
H2489 H 0.87424 0.96698 0.77854 0.0
C2490 C 0.76842 0.93243 0.49425 0.0
C2491 C 0.79167 0.9482 0.52112 0.0
C2492 C 0.7715 0.99639 0.53575 0.0
C2493 C 0.74867 0.98098 0.50849 0.0
N2494 N 0.72093 0.93183 0.46621 0.0
N2495 N 0.81203 0.99066 0.5715 0.0
C2496 C 0.74565 0.94805 0.48919 0.0
C2497 C 0.7921 0.97878 0.54324 0.0
N2498 N 0.76881 0.9032 0.47296 0.0
N2499 N 0.7741 0.0284 0.55364 0.0
H2500 H 0.82765 0.97847 0.5774 0.0
H2501 H 0.81167 0.01096 0.59026 0.0
H2502 H 0.75865 0.04146 0.54971 0.0
H2503 H 0.79229 0.04283 0.57126 0.0
H2504 H 0.7546 0.89247 0.45084 0.0
H2505 H 0.78458 0.89044 0.47654 0.0
H2506 H 0.71584 0.90658 0.45337 0.0
H2507 H 0.70408 0.9429 0.46172 0.0
C2508 C 0.41457 0.45105 0.80043 0.0
C2509 C 0.40754 0.46482 0.774 0.0
C2510 C 0.36738 0.41019 0.75045 0.0
C2511 C 0.37519 0.39582 0.77664 0.0
N2512 N 0.41646 0.40124 0.81821 0.0
N2513 N 0.37408 0.45895 0.72594 0.0
C2514 C 0.4014 0.41596 0.79954 0.0
C2515 C 0.38292 0.44474 0.74968 0.0
N2516 N 0.43437 0.4718 0.82695 0.0
N2517 N 0.34756 0.38941 0.72409 0.0
H2518 H 0.38529 0.48344 0.72468 0.0
H2519 H 0.35452 0.4479 0.70934 0.0
H2520 H 0.33725 0.36401 0.72273 0.0
H2521 H 0.34324 0.39608 0.7023 0.0
H2522 H 0.43782 0.4649 0.84886 0.0
H2523 H 0.44485 0.49722 0.82827 0.0
H2524 H 0.43661 0.41417 0.83343 0.0
H2525 H 0.41272 0.37539 0.81398 0.0
C2526 C 0.27488 0.66273 0.29754 0.0
C2527 C 0.27973 0.64193 0.26872 0.0
C2528 C 0.31565 0.69084 0.25977 0.0
C2529 C 0.30256 0.71197 0.28016 0.0
N2530 N 0.28789 0.7189 0.33304 0.0
N2531 N 0.31088 0.63569 0.22603 0.0
C2532 C 0.28735 0.69824 0.30365 0.0
C2533 C 0.30252 0.65551 0.25134 0.0
N2534 N 0.25721 0.64845 0.31784 0.0
N2535 N 0.34304 0.70409 0.25313 0.0
H2536 H 0.30465 0.60937 0.22079 0.0
H2537 H 0.32457 0.64597 0.21036 0.0
H2538 H 0.35233 0.72989 0.2615 0.0
H2539 H 0.35643 0.68969 0.24286 0.0
H2540 H 0.24913 0.66224 0.33663 0.0
H2541 H 0.25007 0.62222 0.31503 0.0
H2542 H 0.27976 0.70979 0.35239 0.0
H2543 H 0.30042 0.74428 0.33894 0.0
C2544 C 0.54181 0.674 0.52167 0.0
C2545 C 0.53425 0.67468 0.4883 0.0
C2546 C 0.54497 0.61802 0.4729 0.0
C2547 C 0.54978 0.61606 0.50629 0.0
N2548 N 0.54724 0.64158 0.56206 0.0
N2549 N 0.52398 0.64228 0.43227 0.0
C2550 C 0.54634 0.64385 0.53033 0.0
C2551 C 0.53487 0.64535 0.46404 0.0
N2552 N 0.54646 0.70305 0.54555 0.0
N2553 N 0.55039 0.59377 0.44918 0.0
H2554 H 0.51576 0.66054 0.42475 0.0
H2555 H 0.52023 0.62022 0.41388 0.0
H2556 H 0.55763 0.57394 0.45442 0.0
H2557 H 0.55082 0.59521 0.42498 0.0
H2558 H 0.55513 0.70575 0.56974 0.0
H2559 H 0.54488 0.72574 0.5406 0.0
H2560 H 0.54107 0.65831 0.58019 0.0
H2561 H 0.55251 0.62169 0.56984 0.0
C2562 C 0.73497 0.34463 0.68545 0.0
C2563 C 0.70758 0.31915 0.67186 0.0
C2564 C 0.72395 0.2822 0.7045 0.0
C2565 C 0.75144 0.30787 0.71768 0.0
N2566 N 0.77646 0.36745 0.7296 0.0
N2567 N 0.67566 0.26319 0.66903 0.0
C2568 C 0.7551 0.34009 0.71044 0.0
C2569 C 0.70193 0.28787 0.68186 0.0
N2570 N 0.74205 0.37356 0.67454 0.0
N2571 N 0.71845 0.25289 0.71486 0.0
H2572 H 0.65913 0.26634 0.65306 0.0
H2573 H 0.66986 0.23916 0.67336 0.0
H2574 H 0.73298 0.2493 0.73285 0.0
H2575 H 0.69926 0.23256 0.70721 0.0
H2576 H 0.76323 0.39094 0.68009 0.0
H2577 H 0.72735 0.37912 0.65817 0.0
H2578 H 0.77888 0.39235 0.72819 0.0
H2579 H 0.78936 0.36537 0.74968 0.0
C2580 C 0.04169 0.38634 0.96671 0.0
C2581 C 0.04166 0.36816 0.99169 0.0
C2582 C 0.05177 0.42358 0.03236 0.0
C2583 C 0.05699 0.44228 0.00788 0.0
N2584 N 0.0582 0.43962 0.95065 0.0
N2585 N 0.05112 0.37197 0.04937 0.0
C2586 C 0.05228 0.42298 0.97476 0.0
C2587 C 0.04754 0.38751 0.02476 0.0
N2588 N 0.02994 0.36885 0.93523 0.0
N2589 N 0.0505 0.44016 0.06329 0.0
H2590 H 0.04971 0.3463 0.04519 0.0
H2591 H 0.05872 0.38521 0.07367 0.0
H2592 H 0.05495 0.46629 0.07016 0.0
H2593 H 0.04279 0.42784 0.08113 0.0
H2594 H 0.02652 0.38061 0.91656 0.0
H2595 H 0.02043 0.34266 0.92836 0.0
H2596 H 0.05931 0.42743 0.92683 0.0
H2597 H 0.06346 0.46592 0.95495 0.0
C2598 C 0.04499 0.82559 0.19317 0.0
C2599 C 0.04296 0.80138 0.16343 0.0
C2600 C 0.99873 0.76326 0.17651 0.0
C2601 C 1.0029 0.7857 0.20773 0.0
N2602 N 0.0311 0.83689 0.24748 0.0
N2603 N 0.02111 0.74469 0.12918 0.0
C2604 C 0.02636 0.81654 0.21656 0.0
C2605 C 0.02053 0.76962 0.15555 0.0
N2606 N 0.06389 0.85766 0.19847 0.0
N2607 N 0.97386 0.73592 0.16683 0.0
H2608 H 0.03727 0.74767 0.11376 0.0
H2609 H 0.00733 0.71988 0.12434 0.0
H2610 H 0.95785 0.72983 0.18192 0.0
H2611 H 0.96785 0.72089 0.143 0.0
H2612 H 0.06424 0.87747 0.2181 0.0
H2613 H 0.07746 0.86542 0.18162 0.0
H2614 H 0.04993 0.85753 0.25671 0.0
H2615 H 0.01711 0.83189 0.26481 0.0
C2616 C 0.5221 0.3303 0.0775 0.0
C2617 C 0.53839 0.32208 0.10279 0.0
C2618 C 0.58435 0.35947 0.09245 0.0
C2619 C 0.56906 0.36117 0.06292 0.0
N2620 N 0.52302 0.34533 0.02552 0.0
N2621 N 0.58677 0.32486 0.13044 0.0
C2622 C 0.5377 0.34626 0.05509 0.0
C2623 C 0.56998 0.33601 0.10973 0.0
N2624 N 0.49178 0.32302 0.07503 0.0
N2625 N 0.61281 0.37986 0.1036 0.0
H2626 H 0.57789 0.30594 0.14211 0.0
H2627 H 0.61 0.33187 0.13324 0.0
H2628 H 0.62371 0.39763 0.09152 0.0
H2629 H 0.62416 0.3816 0.12643 0.0
H2630 H 0.47902 0.33103 0.05876 0.0
H2631 H 0.47981 0.31226 0.09172 0.0
H2632 H 0.50077 0.33146 0.01729 0.0
H2633 H 0.53356 0.35623 0.00811 0.0
C2634 C 0.0759 0.36672 0.30926 0.0
C2635 C 0.0766 0.33244 0.30124 0.0
C2636 C 0.03517 0.31873 0.25689 0.0
C2637 C 0.03087 0.35089 0.26922 0.0
N2638 N 0.04532 0.40472 0.30922 0.0
N2639 N 0.0578 0.27573 0.26731 0.0
C2640 C 0.05104 0.37498 0.2956 0.0
C2641 C 0.05675 0.30853 0.27459 0.0
N2642 N 0.09845 0.39125 0.33055 0.0
N2643 N 0.01843 0.29801 0.22839 0.0
H2644 H 0.0746 0.26823 0.27872 0.0
H2645 H 0.04157 0.2559 0.25107 0.0
H2646 H 1.00249 0.30498 0.21492 0.0
H2647 H 0.02203 0.27537 0.21668 0.0
H2648 H 0.10019 0.417 0.33503 0.0
H2649 H 0.1173 0.38667 0.341 0.0
H2650 H 0.05698 0.42113 0.3312 0.0
H2651 H 0.02732 0.41187 0.30008 0.0
C2652 C 0.03599 0.67766 0.57036 0.0
C2653 C 0.03225 0.67248 0.60198 0.0
C2654 C 0.07484 0.64918 0.60147 0.0
C2655 C 0.07452 0.64834 0.5679 0.0
N2656 N 0.06987 0.6818 0.53035 0.0
N2657 N 0.04826 0.6516 0.64773 0.0
C2658 C 0.05914 0.66808 0.55476 0.0
C2659 C 0.05155 0.6575 0.61752 0.0
N2660 N 0.01683 0.69059 0.55475 0.0
N2661 N 0.09948 0.64674 0.61903 0.0
H2662 H 0.03335 0.65938 0.66216 0.0
H2663 H 0.05911 0.63656 0.65762 0.0
H2664 H 0.1191 0.6472 0.60905 0.0
H2665 H 0.10158 0.64789 0.64394 0.0
H2666 H 0.01694 0.69191 0.53046 0.0
H2667 H 0.99927 0.69722 0.56532 0.0
H2668 H 0.06165 0.6993 0.52135 0.0
H2669 H 0.08982 0.67891 0.5227 0.0
C2670 C 0.72785 0.84685 0.79928 0.0
C2671 C 0.72664 0.84885 0.83301 0.0
C2672 C 0.77464 0.83639 0.8393 0.0
C2673 C 0.7753 0.83253 0.80509 0.0
N2674 N 0.75284 0.83384 0.75231 0.0
N2675 N 0.74742 0.84398 0.88516 0.0
C2676 C 0.7521 0.83809 0.78512 0.0
C2677 C 0.74971 0.84336 0.85301 0.0
N2678 N 0.70569 0.8533 0.78083 0.0
N2679 N 0.7981 0.83396 0.85899 0.0
H2680 H 0.73131 0.85236 0.89721 0.0
H2681 H 0.76058 0.83474 0.89976 0.0
H2682 H 0.81491 0.82469 0.85009 0.0
H2683 H 0.80155 0.84208 0.88437 0.0
H2684 H 0.70631 0.85584 0.757 0.0
H2685 H 0.68664 0.85747 0.78978 0.0
H2686 H 0.73526 0.83304 0.73527 0.0
H2687 H 0.77095 0.82947 0.74156 0.0
C2688 C 0.53271 0.53681 0.66971 0.0
C2689 C 0.51322 0.55707 0.68047 0.0
C2690 C 0.51596 0.56979 0.62398 0.0
C2691 C 0.53973 0.55458 0.61694 0.0
N2692 N 0.57633 0.53428 0.644 0.0
N2693 N 0.48964 0.59686 0.66469 0.0
C2694 C 0.54996 0.54197 0.64332 0.0
C2695 C 0.50583 0.57467 0.65655 0.0
N2696 N 0.53309 0.50963 0.6822 0.0
N2697 N 0.50283 0.58007 0.59964 0.0
H2698 H 0.48188 0.60107 0.68706 0.0
H2699 H 0.48616 0.61313 0.65039 0.0
H2700 H 0.50989 0.57827 0.57682 0.0
H2701 H 0.48363 0.58786 0.60132 0.0
H2702 H 0.54563 0.49333 0.67386 0.0
H2703 H 0.51708 0.49966 0.69582 0.0
H2704 H 0.58557 0.52766 0.66403 0.0
H2705 H 0.59009 0.53736 0.62631 0.0
C2706 C 0.77874 0.22757 1.00432 0.0
C2707 C 0.78651 0.19809 0.99003 0.0
C2708 C 0.78779 0.21371 0.93841 0.0
C2709 C 0.77306 0.23822 0.95032 0.0
N2710 N 0.7563 0.27089 0.99489 0.0
N2711 N 0.79535 0.16042 0.94254 0.0
C2712 C 0.76941 0.24622 0.98359 0.0
C2713 C 0.79057 0.19051 0.95691 0.0
N2714 N 0.78065 0.23767 0.0375 0.0
N2715 N 0.7996 0.21281 0.90999 0.0
H2716 H 0.7973 0.14219 0.95511 0.0
H2717 H 0.79464 0.1522 0.91737 0.0
H2718 H 0.80091 0.2315 0.89736 0.0
H2719 H 0.81218 0.19657 0.90172 0.0
H2720 H 0.77734 0.26036 0.04955 0.0
H2721 H 0.78837 0.22471 0.05315 0.0
H2722 H 0.74972 0.27512 0.01793 0.0
H2723 H 0.75106 0.28639 0.98049 0.0
C2724 C 0.16692 0.50804 0.11807 0.0
C2725 C 0.18233 0.54069 0.13786 0.0
C2726 C 0.13714 0.55822 0.13206 0.0
C2727 C 0.12315 0.52804 0.1083 0.0
N2728 N 0.12542 0.47413 0.07707 0.0
N2729 N 0.18424 0.60047 0.15079 0.0
C2730 C 0.13807 0.50261 0.10134 0.0
C2731 C 0.16818 0.567 0.14145 0.0
N2732 N 0.18009 0.48246 0.11458 0.0
N2733 N 0.1212 0.57966 0.14371 0.0
H2734 H 0.20722 0.60875 0.1511 0.0
H2735 H 0.17433 0.62003 0.1522 0.0
H2736 H 0.09841 0.57368 0.13607 0.0
H2737 H 0.13017 0.6013 0.16279 0.0
H2738 H 0.16846 0.45708 0.10436 0.0
H2739 H 0.20266 0.48663 0.12268 0.0
H2740 H 0.1367 0.45716 0.06691 0.0
H2741 H 0.10361 0.46853 0.06641 0.0
C2742 C 0.8479 0.85116 0.42066 0.0
C2743 C 0.84082 0.8251 0.43788 0.0
C2744 C 0.83014 0.78276 0.38494 0.0
C2745 C 0.83368 0.8087 0.36757 0.0
N2746 N 0.83965 0.86791 0.37014 0.0
N2747 N 0.81963 0.76575 0.43496 0.0
C2748 C 0.84064 0.84298 0.38579 0.0
C2749 C 0.83057 0.79079 0.41958 0.0
N2750 N 0.86314 0.8836 0.43724 0.0
N2751 N 0.82677 0.75018 0.36831 0.0
H2752 H 0.81843 0.77057 0.45994 0.0
H2753 H 0.80884 0.74071 0.42251 0.0
H2754 H 0.82636 0.7433 0.34314 0.0
H2755 H 0.82748 0.73078 0.37972 0.0
H2756 H 0.87155 0.90271 0.42554 0.0
H2757 H 0.87041 0.89059 0.46232 0.0
H2758 H 0.84111 0.89258 0.38255 0.0
H2759 H 0.83527 0.86349 0.34482 0.0
C2760 C 0.54673 0.57443 0.89367 0.0
C2761 C 0.51573 0.56389 0.87967 0.0
C2762 C 0.5064 0.53866 0.92864 0.0
C2763 C 0.53748 0.5499 0.94281 0.0
N2764 N 0.58313 0.59214 0.94308 0.0
N2765 N 0.46579 0.54152 0.88977 0.0
C2766 C 0.55649 0.57134 0.92629 0.0
C2767 C 0.49562 0.5477 0.89909 0.0
N2768 N 0.56753 0.58818 0.876 0.0
N2769 N 0.48672 0.51856 0.94329 0.0
H2770 H 0.45744 0.54829 0.86943 0.0
H2771 H 0.44953 0.53291 0.90367 0.0
H2772 H 0.49303 0.51239 0.96486 0.0
H2773 H 0.46475 0.50563 0.93281 0.0
H2774 H 0.59034 0.59244 0.88275 0.0
H2775 H 0.56183 0.59367 0.85386 0.0
H2776 H 0.59647 0.61142 0.9344 0.0
H2777 H 0.58986 0.59298 0.96736 0.0
C2778 C 0.78204 0.21619 0.13113 0.0
C2779 C 0.79566 0.18936 0.12729 0.0
C2780 C 0.83663 0.22472 0.16916 0.0
C2781 C 0.81987 0.24735 0.17817 0.0
N2782 N 0.77812 0.26764 0.16685 0.0
N2783 N 0.83487 0.16698 0.14522 0.0
C2784 C 0.79301 0.2441 0.1587 0.0
C2785 C 0.82278 0.19332 0.14696 0.0
N2786 N 0.75995 0.21601 0.10786 0.0
N2787 N 0.86617 0.23418 0.1809 0.0
H2788 H 0.82472 0.14294 0.12988 0.0
H2789 H 0.85335 0.1682 0.16138 0.0
H2790 H 0.87676 0.25903 0.19397 0.0
H2791 H 0.88029 0.21953 0.1736 0.0
H2792 H 0.75147 0.23651 0.10822 0.0
H2793 H 0.75201 0.1969 0.08643 0.0
H2794 H 0.75635 0.26458 0.15655 0.0
H2795 H 0.78809 0.2902 0.18452 0.0
C2796 C 0.17385 0.55548 0.30899 0.0
C2797 C 0.15872 0.53482 0.27816 0.0
C2798 C 0.11167 0.54231 0.29433 0.0
C2799 C 0.12834 0.56956 0.32071 0.0
N2800 N 0.17632 0.60553 0.35034 0.0
N2801 N 0.11258 0.50499 0.24237 0.0
C2802 C 0.15979 0.5772 0.32726 0.0
C2803 C 0.12724 0.52681 0.27127 0.0
N2804 N 0.20118 0.55401 0.32116 0.0
N2805 N 0.08132 0.53089 0.29181 0.0
H2806 H 0.12347 0.49145 0.22643 0.0
H2807 H 0.09017 0.50117 0.23397 0.0
H2808 H 0.06929 0.54171 0.30842 0.0
H2809 H 0.06833 0.50911 0.27477 0.0
H2810 H 0.21224 0.56785 0.34438 0.0
H2811 H 0.21044 0.5352 0.31043 0.0
H2812 H 0.19959 0.61345 0.35372 0.0
H2813 H 0.16691 0.62296 0.36362 0.0
C2814 C 0.85274 0.85773 0.65476 0.0
C2815 C 0.83405 0.83602 0.62591 0.0
C2816 C 0.79999 0.80953 0.6607 0.0
C2817 C 0.82091 0.82759 0.6893 0.0
N2818 N 0.85663 0.88229 0.7126 0.0
N2819 N 0.79003 0.78997 0.6014 0.0
C2820 C 0.84443 0.8556 0.68614 0.0
C2821 C 0.80763 0.81169 0.62891 0.0
N2822 N 0.87899 0.88007 0.65236 0.0
N2823 N 0.77137 0.79441 0.66397 0.0
H2824 H 0.79441 0.79149 0.57792 0.0
H2825 H 0.77251 0.76907 0.60201 0.0
H2826 H 0.76403 0.79715 0.68666 0.0
H2827 H 0.75414 0.78405 0.64431 0.0
H2828 H 0.89535 0.89327 0.67242 0.0
H2829 H 0.88552 0.8834 0.63005 0.0
H2830 H 0.87238 0.90451 0.71158 0.0
H2831 H 0.8473 0.88462 0.73413 0.0
C2832 C 0.77256 0.4947 0.50945 0.0
C2833 C 0.80227 0.51552 0.52057 0.0
C2834 C 0.78501 0.55535 0.55962 0.0
C2835 C 0.75588 0.5325 0.55128 0.0
N2836 N 0.72136 0.47964 0.52004 0.0
N2837 N 0.83777 0.56317 0.55887 0.0
C2838 C 0.74939 0.502 0.52648 0.0
C2839 C 0.8088 0.54538 0.54616 0.0
N2840 N 0.76664 0.46829 0.48235 0.0
N2841 N 0.78978 0.58679 0.57992 0.0
H2842 H 0.85601 0.55697 0.54961 0.0
H2843 H 0.84383 0.58262 0.58016 0.0
H2844 H 0.77287 0.59488 0.59058 0.0
H2845 H 0.80991 0.60589 0.58403 0.0
H2846 H 0.7452 0.45403 0.47102 0.0
H2847 H 0.7833 0.46234 0.46947 0.0
H2848 H 0.71591 0.45539 0.50471 0.0
H2849 H 0.7037 0.48437 0.53176 0.0
C2850 C 0.21854 0.10817 0.51624 0.0
C2851 C 0.2199 0.13388 0.49895 0.0
C2852 C 0.16519 0.11677 0.48719 0.0
C2853 C 0.16325 0.0924 0.50643 0.0
N2854 N 0.18883 0.06914 0.54344 0.0
N2855 N 0.1956 0.15194 0.45695 0.0
C2856 C 0.19017 0.08863 0.52137 0.0
C2857 C 0.19348 0.13476 0.48106 0.0
N2858 N 0.24408 0.10167 0.52728 0.0
N2859 N 0.14039 0.12473 0.47628 0.0
H2860 H 0.21611 0.16412 0.45101 0.0
H2861 H 0.17745 0.15054 0.44028 0.0
H2862 H 0.11905 0.11391 0.48061 0.0
H2863 H 0.14123 0.14498 0.46562 0.0
H2864 H 0.24421 0.08037 0.5359 0.0
H2865 H 0.26538 0.11509 0.52484 0.0
H2866 H 0.20724 0.06884 0.55871 0.0
H2867 H 0.16888 0.05592 0.54925 0.0
C2868 C 0.28522 0.9216 0.79063 0.0
C2869 C 0.25668 0.91644 0.77171 0.0
C2870 C 0.26113 0.85734 0.74716 0.0
C2871 C 0.28756 0.86093 0.76947 0.0
N2872 N 0.32068 0.89847 0.81645 0.0
N2873 N 0.21691 0.8754 0.73311 0.0
C2874 C 0.29849 0.89386 0.79188 0.0
C2875 C 0.24481 0.88321 0.75008 0.0
N2876 N 0.30033 0.95388 0.80767 0.0
N2877 N 0.25153 0.82875 0.72221 0.0
H2878 H 0.20521 0.89333 0.73378 0.0
H2879 H 0.20473 0.85095 0.72026 0.0
H2880 H 0.26281 0.81031 0.71868 0.0
H2881 H 0.23451 0.82496 0.7032 0.0
H2882 H 0.32231 0.96088 0.81917 0.0
H2883 H 0.29197 0.97439 0.8072 0.0
H2884 H 0.32791 0.91976 0.83602 0.0
H2885 H 0.32995 0.8792 0.81843 0.0
C2886 C 0.46746 0.03899 0.00603 0.0
C2887 C 0.4547 1.006 0.00974 0.0
C2888 C 0.50431 0.99837 0.01606 0.0
C2889 C 0.51767 0.0333 0.0189 0.0
N2890 N 0.50953 0.08835 0.02235 0.0
N2891 N 0.46321 0.96027 0.03125 0.0
C2892 C 0.49854 0.05415 0.01582 0.0
C2893 C 0.47366 0.98705 0.0181 0.0
N2894 N 0.45039 0.05562 0.99229 0.0
N2895 N 0.52063 0.97593 0.01177 0.0
H2896 H 0.44279 0.95631 0.03981 0.0
H2897 H 0.47658 0.94621 0.03858 0.0
H2898 H 0.54256 0.98307 0.00746 0.0
H2899 H 0.51107 0.94985 0.00789 0.0
H2900 H 0.45937 0.07898 0.98709 0.0
H2901 H 0.42792 0.04456 0.98267 0.0
H2902 H 0.4961 0.10461 0.02447 0.0
H2903 H 0.53201 0.10031 0.02655 0.0
C2904 C 0.87001 0.61921 0.80954 0.0
C2905 C 0.86411 0.58632 0.81494 0.0
C2906 C 0.81391 0.57131 0.78452 0.0
C2907 C 0.82215 0.60161 0.77396 0.0
N2908 N 0.86101 0.65164 0.77137 0.0
N2909 N 0.83182 0.52819 0.80126 0.0
C2910 C 0.85101 0.62504 0.78521 0.0
C2911 C 0.8363 0.56153 0.80114 0.0
N2912 N 0.89413 0.64462 0.82722 0.0
N2913 N 0.78481 0.55199 0.77892 0.0
H2914 H 0.84768 0.51881 0.81162 0.0
H2915 H 0.81308 0.50911 0.78807 0.0
H2916 H 0.76767 0.55869 0.76718 0.0
H2917 H 0.7774 0.5312 0.78883 0.0
H2918 H 0.8981 0.66981 0.82598 0.0
H2919 H 0.90831 0.641 0.8456 0.0
H2920 H 0.88285 0.66753 0.77697 0.0
H2921 H 0.8487 0.65562 0.75171 0.0
C2922 C 0.87719 0.61356 0.99735 0.0
C2923 C 0.88256 0.64849 0.01233 0.0
C2924 C 0.92424 0.64718 0.05044 0.0
C2925 C 0.9168 0.61162 0.03775 0.0
N2926 N 0.88622 0.56005 1.00032 0.0
N2927 N 0.90951 0.6986 0.05422 0.0
C2928 C 0.89341 0.59456 0.01132 0.0
C2929 C 0.90573 0.66537 0.0391 0.0
N2930 N 0.85652 0.59864 0.96985 0.0
N2931 N 0.94929 0.66357 0.07295 0.0
H2932 H 0.89757 0.71338 0.04551 0.0
H2933 H 0.92331 0.71113 0.07635 0.0
H2934 H 0.96293 0.65095 0.08254 0.0
H2935 H 0.95791 0.68983 0.08038 0.0
H2936 H 0.85365 0.57431 0.95565 0.0
H2937 H 0.8433 0.61142 0.95982 0.0
H2938 H 0.86728 0.5454 0.98386 0.0
H2939 H 0.89845 0.54554 0.00906 0.0
C2940 C 0.26805 0.12461 0.75564 0.0
C2941 C 0.25159 0.11805 0.78156 0.0
C2942 C 0.26563 0.1806 0.80495 0.0
C2943 C 0.28377 0.18749 0.78027 0.0
N2944 N 0.30556 0.16357 0.73479 0.0
N2945 N 0.24223 0.14055 0.83546 0.0
C2946 C 0.28615 0.15865 0.75668 0.0
C2947 C 0.25281 0.14639 0.8075 0.0
N2948 N 0.26513 0.09868 0.72889 0.0
N2949 N 0.25968 0.20662 0.82588 0.0
H2950 H 0.23354 0.11614 0.83859 0.0
H2951 H 0.2452 0.15958 0.85673 0.0
H2952 H 0.26898 0.23174 0.82599 0.0
H2953 H 0.24362 0.20309 0.84136 0.0
H2954 H 0.27313 0.1022 0.7073 0.0
H2955 H 0.25285 0.07379 0.72747 0.0
H2956 H 0.31108 0.14392 0.71952 0.0
H2957 H 0.31782 0.18755 0.73353 0.0
C2958 C 0.38241 0.92463 0.24758 0.0
C2959 C 0.39391 0.94801 0.27838 0.0
C2960 C 0.3517 0.91899 0.30069 0.0
C2961 C 0.34726 0.89055 0.27485 0.0
N2962 N 0.34108 0.87705 0.21673 0.0
N2963 N 0.38736 0.96862 0.33474 0.0
C2964 C 0.35715 0.8967 0.24571 0.0
C2965 C 0.37797 0.94572 0.3052 0.0
N2966 N 0.39589 0.92853 0.22078 0.0
N2967 N 0.32788 0.92469 0.31426 0.0
H2968 H 0.4066 0.98902 0.33942 0.0
H2969 H 0.37646 0.96574 0.3549 0.0
H2970 H 0.30651 0.90864 0.30477 0.0
H2971 H 0.32909 0.94723 0.33107 0.0
H2972 H 0.38992 0.91026 0.19866 0.0
H2973 H 0.41368 0.9496 0.22115 0.0
H2974 H 0.34498 0.88221 0.19425 0.0
H2975 H 0.32183 0.85767 0.21606 0.0
C2976 C 0.60622 0.42902 0.5912 0.0
C2977 C 0.61667 0.40644 0.56772 0.0
C2978 C 0.61331 0.44592 0.53077 0.0
C2979 C 0.59944 0.46571 0.55293 0.0
N2980 N 0.5754 0.46724 0.60081 0.0
N2981 N 0.62266 0.3914 0.51077 0.0
C2982 C 0.59388 0.45448 0.58204 0.0
C2983 C 0.61814 0.41449 0.53631 0.0
N2984 N 0.60968 0.42807 0.62326 0.0
N2985 N 0.62291 0.45739 0.50466 0.0
H2986 H 0.62445 0.36779 0.51272 0.0
H2987 H 0.62097 0.39402 0.48682 0.0
H2988 H 0.62001 0.47963 0.4999 0.0
H2989 H 0.63594 0.44642 0.48956 0.0
H2990 H 0.605 0.44579 0.64179 0.0
H2991 H 0.62099 0.41278 0.63194 0.0
H2992 H 0.56813 0.45823 0.6207 0.0
H2993 H 0.56411 0.48327 0.59349 0.0
C2994 C 0.42793 0.74447 0.36098 0.0
C2995 C 0.43703 0.76407 0.39352 0.0
C2996 C 0.39873 0.79363 0.38367 0.0
C2997 C 0.3924 0.77757 0.34907 0.0
N2998 N 0.40804 0.74 0.30597 0.0
N2999 N 0.43565 0.81401 0.43277 0.0
C3000 C 0.40918 0.75392 0.33821 0.0
C3001 C 0.42363 0.79041 0.40394 0.0
N3002 N 0.43613 0.71546 0.35166 0.0
N3003 N 0.38124 0.81186 0.3983 0.0
H3004 H 0.45428 0.81371 0.44777 0.0
H3005 H 0.42931 0.83608 0.43988 0.0
H3006 H 0.36306 0.81629 0.38652 0.0
H3007 H 0.38304 0.82001 0.42362 0.0
H3008 H 0.42713 0.69757 0.32957 0.0
H3009 H 0.44935 0.70737 0.36741 0.0
H3010 H 0.42335 0.72781 0.29684 0.0
H3011 H 0.39336 0.74221 0.28807 0.0
C3012 C 0.09384 0.6872 0.03643 0.0
C3013 C 0.11276 0.71035 0.06453 0.0
C3014 C 0.11846 0.66014 0.08429 0.0
C3015 C 0.09967 0.63666 0.05587 0.0
N3016 N 0.06011 0.63094 0.01315 0.0
N3017 N 0.14646 0.71803 0.11333 0.0
C3018 C 0.08514 0.65104 0.03386 0.0
C3019 C 0.12576 0.69642 0.08796 0.0
N3020 N 0.0839 0.69965 0.01184 0.0
N3021 N 0.12804 0.64777 0.10919 0.0
H3022 H 0.15153 0.74433 0.11783 0.0
H3023 H 0.16032 0.7102 0.12854 0.0
H3024 H 0.12501 0.62204 0.1071 0.0
H3025 H 0.13762 0.66262 0.13251 0.0
H3026 H 0.07311 0.68423 0.98907 0.0
H3027 H 0.0887 0.72559 0.01334 0.0
H3028 H 0.04635 0.64022 0.99927 0.0
H3029 H 0.05121 0.60546 0.01243 0.0
C3030 C 0.13856 0.27583 0.8966 0.0
C3031 C 0.11183 0.28459 0.8901 0.0
C3032 C 0.13317 0.31079 0.84755 0.0
C3033 C 0.16153 0.30811 0.85875 0.0
N3034 N 0.19187 0.28955 0.89564 0.0
N3035 N 0.08473 0.31367 0.86099 0.0
C3036 C 0.16436 0.29056 0.88341 0.0
C3037 C 0.10914 0.30241 0.86555 0.0
N3038 N 0.1391 0.25299 0.91501 0.0
N3039 N 0.12937 0.32166 0.81976 0.0
H3040 H 0.06688 0.30906 0.87404 0.0
H3041 H 0.08331 0.33015 0.84617 0.0
H3042 H 0.14662 0.32778 0.80608 0.0
H3043 H 0.10862 0.32122 0.80858 0.0
H3044 H 0.15701 0.24318 0.91811 0.0
H3045 H 0.12037 0.24116 0.92432 0.0
H3046 H 0.19574 0.28077 0.91632 0.0
H3047 H 0.21128 0.29966 0.88651 0.0
C3048 C 0.60845 0.73277 0.93828 0.0
C3049 C 0.62866 0.76553 0.94519 0.0
C3050 C 0.64168 0.76258 1.00134 0.0
C3051 C 0.61676 0.73352 0.99615 0.0
N3052 N 0.57407 0.69245 0.95995 0.0
N3053 N 0.6643 0.813 0.98355 0.0
C3054 C 0.59973 0.71855 0.96452 0.0
C3055 C 0.64578 0.78063 0.97662 0.0
N3056 N 0.5968 0.71609 0.90659 0.0
N3057 N 0.66145 0.77268 0.02964 0.0
H3058 H 0.66857 0.82679 0.96589 0.0
H3059 H 0.67419 0.82678 0.00717 0.0
H3060 H 0.65919 0.75968 0.04809 0.0
H3061 H 0.68145 0.79194 0.03342 0.0
H3062 H 0.58368 0.69091 0.89961 0.0
H3063 H 0.60297 0.72662 0.88709 0.0
H3064 H 0.55951 0.68292 0.93797 0.0
H3065 H 0.56561 0.68241 0.97883 0.0
C3066 C 0.10329 0.76326 0.75907 0.0
C3067 C 0.09247 0.75161 0.72529 0.0
C3068 C 0.13329 0.72684 0.71553 0.0
C3069 C 0.14395 0.7379 0.74959 0.0
N3070 N 0.1448 0.77471 0.80199 0.0
N3071 N 0.10089 0.73155 0.67015 0.0
C3072 C 0.13077 0.75882 0.77084 0.0
C3073 C 0.10904 0.73683 0.70307 0.0
N3074 N 0.08672 0.77727 0.77986 0.0
N3075 N 0.14501 0.7051 0.69552 0.0
H3076 H 0.08297 0.73849 0.66043 0.0
H3077 H 0.11334 0.72342 0.65258 0.0
H3078 H 0.16079 0.69436 0.70395 0.0
H3079 H 0.13787 0.69569 0.67059 0.0
H3080 H 0.09164 0.78263 0.80522 0.0
H3081 H 0.06709 0.78205 0.77153 0.0
H3082 H 0.13756 0.79251 0.81777 0.0
H3083 H 0.16532 0.77242 0.81102 0.0
C3084 C 0.13106 0.44524 0.42936 0.0
C3085 C 0.12343 0.41554 0.44117 0.0
C3086 C 0.09197 0.43929 0.4764 0.0
C3087 C 0.10191 0.47038 0.46753 0.0
N3088 N 0.13825 0.50528 0.44163 0.0
N3089 N 0.10463 0.38922 0.48347 0.0
C3090 C 0.1236 0.4742 0.44578 0.0
C3091 C 0.10671 0.41439 0.46743 0.0
N3092 N 0.14413 0.44573 0.40174 0.0
N3093 N 0.0673 0.43258 0.49156 0.0
H3094 H 0.11596 0.37098 0.47782 0.0
H3095 H 0.09449 0.38893 0.50445 0.0
H3096 H 0.05408 0.44901 0.49554 0.0
H3097 H 0.05805 0.40909 0.49641 0.0
H3098 H 0.14613 0.46534 0.38993 0.0
H3099 H 0.15108 0.42579 0.38915 0.0
H3100 H 0.15634 0.50914 0.42877 0.0
H3101 H 0.13521 0.52784 0.454 0.0
C3102 C 0.43742 0.24843 0.25446 0.0
C3103 C 0.437 0.24695 0.22055 0.0
C3104 C 0.38608 0.25132 0.21657 0.0
C3105 C 0.38805 0.25792 0.25125 0.0
N3106 N 0.40993 0.24852 0.30059 0.0
N3107 N 0.41131 0.24701 0.16886 0.0
C3108 C 0.41202 0.25202 0.26941 0.0
C3109 C 0.41146 0.24849 0.2015 0.0
N3110 N 0.46273 0.24801 0.27266 0.0
N3111 N 0.35925 0.24505 0.19771 0.0
H3112 H 0.42875 0.24305 0.15637 0.0
H3113 H 0.39461 0.25164 0.15434 0.0
H3114 H 0.34038 0.24802 0.20746 0.0
H3115 H 0.35521 0.23517 0.1725 0.0
H3116 H 0.46565 0.25206 0.29798 0.0
H3117 H 0.48215 0.2467 0.26285 0.0
H3118 H 0.42479 0.2401 0.3139 0.0
H3119 H 0.39208 0.25192 0.31263 0.0
C3120 C 0.65579 0.55341 0.39174 0.0
C3121 C 0.64844 0.52177 0.36744 0.0
C3122 C 0.61836 0.49694 0.40822 0.0
C3123 C 0.6231 0.52909 0.43133 0.0
N3124 N 0.65967 0.58476 0.44796 0.0
N3125 N 0.61843 0.46377 0.35303 0.0
C3126 C 0.64545 0.55643 0.42376 0.0
C3127 C 0.62862 0.49378 0.37608 0.0
N3128 N 0.67275 0.58169 0.38411 0.0
N3129 N 0.60776 0.46843 0.41882 0.0
H3130 H 0.62595 0.46015 0.33039 0.0
H3131 H 0.60114 0.44356 0.35555 0.0
H3132 H 0.60461 0.46982 0.44305 0.0
H3133 H 0.60672 0.44423 0.4055 0.0
H3134 H 0.67461 0.60628 0.39708 0.0
H3135 H 0.68354 0.58072 0.36352 0.0
H3136 H 0.67816 0.60352 0.44536 0.0
H3137 H 0.65655 0.58785 0.47217 0.0
C3138 C 0.40356 0.91647 0.09946 0.0
C3139 C 0.38384 0.89979 0.07014 0.0
C3140 C 0.37298 0.84575 0.08444 0.0
C3141 C 0.39524 0.86142 0.11209 0.0
N3142 N 0.42632 0.91196 0.15118 0.0
N3143 N 0.34219 0.85399 0.03977 0.0
C3144 C 0.40871 0.89707 0.12148 0.0
C3145 C 0.36588 0.86606 0.06438 0.0
N3146 N 0.41803 0.95031 0.1052 0.0
N3147 N 0.35961 0.81151 0.07694 0.0
H3148 H 0.33626 0.86961 0.02592 0.0
H3149 H 0.32686 0.8301 0.03523 0.0
H3150 H 0.36417 0.79589 0.09153 0.0
H3151 H 0.34524 0.79816 0.05539 0.0
H3152 H 0.434 0.96406 0.1253 0.0
H3153 H 0.41375 0.96508 0.08953 0.0
H3154 H 0.43455 0.938 0.16082 0.0
H3155 H 0.43147 0.89823 0.16749 0.0
C3156 C 0.0317 0.57178 0.89563 0.0
C3157 C 1.00379 0.54882 0.88088 0.0
C3158 C 1.00073 0.52213 0.92648 0.0
C3159 C 0.03021 0.54278 0.94007 0.0
N3160 N 0.06816 0.59533 0.94421 0.0
N3161 N 0.96365 0.49831 0.87846 0.0
C3162 C 0.04432 0.5698 0.92637 0.0
C3163 C 0.98882 0.52299 0.89524 0.0
N3164 N 0.04657 0.59453 0.87966 0.0
N3165 N 0.98295 0.50376 0.94405 0.0
H3166 H 0.9531 0.49833 0.85584 0.0
H3167 H 0.9546 0.47606 0.88561 0.0
H3168 H 0.98868 0.50556 0.96847 0.0
H3169 H 0.96044 0.49095 0.93616 0.0
H3170 H 0.06877 0.60892 0.88711 0.0
H3171 H 0.03726 0.59735 0.85754 0.0
H3172 H 0.07702 0.61793 0.93762 0.0
H3173 H 0.07728 0.59541 0.96742 0.0
C3174 C 0.32882 0.28523 0.63792 0.0
C3175 C 0.31155 0.25366 0.61713 0.0
C3176 C 0.30032 0.23191 0.66594 0.0
C3177 C 0.318 0.26338 0.68695 0.0
N3178 N 0.35647 0.31566 0.69143 0.0
N3179 N 0.27569 0.19933 0.61147 0.0
C3180 C 0.33392 0.28913 0.67258 0.0
C3181 C 0.29613 0.22754 0.63122 0.0
N3182 N 0.34037 0.31175 0.62458 0.0
N3183 N 0.28798 0.20563 0.67927 0.0
H3184 H 0.27142 0.19526 0.58614 0.0
H3185 H 0.26089 0.18124 0.62014 0.0
H3186 H 0.28757 0.20871 0.70426 0.0
H3187 H 0.27897 0.1806 0.66589 0.0
H3188 H 0.3497 0.33657 0.63847 0.0
H3189 H 0.33856 0.30943 0.59942 0.0
H3190 H 0.37133 0.33297 0.68196 0.0
H3191 H 0.36234 0.31869 0.71632 0.0
C3192 C 0.60662 0.50825 0.16193 0.0
C3193 C 0.63752 0.50976 0.16946 0.0
C3194 C 0.64024 0.5116 0.11014 0.0
C3195 C 0.61072 0.51519 0.10428 0.0
N3196 N 0.56712 0.51949 0.12858 0.0
N3197 N 0.68449 0.51853 0.14891 0.0
C3198 C 0.59456 0.51433 0.13151 0.0
C3199 C 0.65441 0.51297 0.14292 0.0
N3200 N 0.58776 0.49872 0.18329 0.0
N3201 N 0.65462 0.50503 0.08396 0.0
H3202 H 0.69546 0.51931 0.17161 0.0
H3203 H 0.69865 0.52504 0.13217 0.0
H3204 H 0.64504 0.50284 0.06022 0.0
H3205 H 0.67459 0.49871 0.08546 0.0
H3206 H 0.56469 0.49355 0.17836 0.0
H3207 H 0.59473 0.4918 0.20419 0.0
H3208 H 0.55555 0.52386 0.14824 0.0
H3209 H 0.55726 0.52268 0.10703 0.0
C3210 C 0.3577 0.8664 0.93077 0.0
C3211 C 0.34597 0.8943 0.93142 0.0
C3212 C 0.31786 0.86468 0.87781 0.0
C3213 C 0.33684 0.8434 0.87374 0.0
N3214 N 0.37522 0.82354 0.89735 0.0
N3215 N 0.31523 0.92047 0.90262 0.0
C3216 C 0.35701 0.8441 0.90052 0.0
C3217 C 0.32564 0.89344 0.90442 0.0
N3218 N 0.3669 0.85952 0.95917 0.0
N3219 N 0.29257 0.85772 0.85636 0.0
H3220 H 0.32205 0.94362 0.91983 0.0
H3221 H 0.30179 0.9211 0.88203 0.0
H3222 H 0.28751 0.83829 0.83541 0.0
H3223 H 0.27627 0.87016 0.86044 0.0
H3224 H 0.37401 0.83827 0.96011 0.0
H3225 H 0.36245 0.87217 0.98122 0.0
H3226 H 0.39216 0.82561 0.9159 0.0
H3227 H 0.37447 0.80598 0.87557 0.0
C3228 C 0.97064 0.52925 0.70175 0.0
C3229 C 0.97201 0.511 0.72568 0.0
C3230 C 0.01197 0.49214 0.70229 0.0
C3231 C 0.0174 0.52026 0.68814 0.0
N3232 N 1.00137 0.56717 0.6752 0.0
N3233 N 0.98747 0.46619 0.74231 0.0
C3234 C 0.99618 0.53882 0.68712 0.0
C3235 C 0.99023 0.48897 0.72346 0.0
N3236 N 0.94546 0.5379 0.69389 0.0
N3237 N 0.02743 0.46887 0.69533 0.0
H3238 H 0.96939 0.46063 0.75479 0.0
H3239 H 1.00278 0.45275 0.7452 0.0
H3240 H 0.04307 0.47065 0.67918 0.0
H3241 H 0.02281 0.44643 0.70301 0.0
H3242 H 0.94303 0.54975 0.67501 0.0
H3243 H 0.92602 0.52918 0.70367 0.0
H3244 H 0.98707 0.58243 0.67685 0.0
H3245 H 0.02113 0.5776 0.66693 0.0
C3246 C 0.33641 0.28461 0.43308 0.0
C3247 C 0.32446 0.24997 0.43256 0.0
C3248 C 0.33029 0.23564 0.37408 0.0
C3249 C 0.33629 0.27024 0.37278 0.0
N3250 N 0.34497 0.32849 0.40422 0.0
N3251 N 0.30738 0.19193 0.40079 0.0
C3252 C 0.33963 0.29496 0.40317 0.0
C3253 C 0.32092 0.2253 0.40263 0.0
N3254 N 0.34606 0.30789 0.46253 0.0
N3255 N 0.33503 0.21265 0.34857 0.0
H3256 H 0.30006 0.18316 0.42078 0.0
H3257 H 0.30113 0.17345 0.37876 0.0
H3258 H 0.34394 0.21952 0.32843 0.0
H3259 H 0.33408 0.18796 0.34952 0.0
H3260 H 0.35833 0.33299 0.46493 0.0
H3261 H 0.3447 0.30131 0.48487 0.0
H3262 H 0.34143 0.34596 0.42383 0.0
H3263 H 0.35256 0.33913 0.38573 0.0
C3264 C 0.36737 0.54769 0.48653 0.0
C3265 C 0.37415 0.58344 0.49696 0.0
C3266 C 0.4269 0.59004 0.49316 0.0
C3267 C 0.41935 0.55472 0.4793 0.0
N3268 N 0.38637 0.49893 0.47347 0.0
N3269 N 0.41056 0.63794 0.51926 0.0
C3270 C 0.3908 0.53316 0.4797 0.0
C3271 C 0.40413 0.60442 0.50363 0.0
N3272 N 0.33846 0.5279 0.48214 0.0
N3273 N 0.45546 0.60973 0.49457 0.0
H3274 H 0.3942 0.64943 0.52624 0.0
H3275 H 0.43214 0.65393 0.52734 0.0
H3276 H 0.47272 0.59936 0.48846 0.0
H3277 H 0.46206 0.6361 0.50095 0.0
H3278 H 0.3315 0.50214 0.47072 0.0
H3279 H 0.32101 0.53762 0.48896 0.0
H3280 H 0.36668 0.48175 0.47583 0.0
H3281 H 0.40342 0.48792 0.46825 0.0
C3282 C 0.9661 0.94168 0.5725 0.0
C3283 C 0.94001 0.94081 0.55246 0.0
C3284 C 0.96992 0.98821 0.53312 0.0
C3285 C 0.99672 0.98469 0.5483 0.0
N3286 N 0.01971 0.95402 0.57971 0.0
N3287 N 0.91882 0.95972 0.50832 0.0
C3288 C 0.99463 0.96027 0.56723 0.0
C3289 C 0.94224 0.96339 0.53158 0.0
N3290 N 0.96362 0.92546 0.59728 0.0
N3291 N 0.97065 0.01499 0.51974 0.0
H3292 H 0.89852 0.94108 0.50487 0.0
H3293 H 0.92063 0.97293 0.49005 0.0
H3294 H 0.99032 0.03322 0.51958 0.0
H3295 H 0.95149 0.02066 0.5115 0.0
H3296 H 0.98163 0.92781 0.61462 0.0
H3297 H 0.94304 0.91283 0.60272 0.0
H3298 H 0.01913 0.93372 0.59023 0.0
H3299 H 0.041 0.96751 0.57741 0.0
C3300 C 0.9115 0.18805 0.26465 0.0
C3301 C 0.91044 0.17253 0.29167 0.0
C3302 C 0.87996 0.21196 0.31456 0.0
C3303 C 0.88041 0.22731 0.28733 0.0
N3304 N 0.90539 0.23417 0.24107 0.0
N3305 N 0.88589 0.16565 0.33837 0.0
C3306 C 0.89826 0.21588 0.26348 0.0
C3307 C 0.89258 0.18371 0.31543 0.0
N3308 N 0.92522 0.17614 0.23947 0.0
N3309 N 0.86854 0.22555 0.34106 0.0
H3310 H 0.89322 0.14451 0.33917 0.0
H3311 H 0.87037 0.16901 0.35399 0.0
H3312 H 0.85808 0.24448 0.34113 0.0
H3313 H 0.87109 0.21968 0.36359 0.0
H3314 H 0.92398 0.18262 0.21712 0.0
H3315 H 0.93577 0.15736 0.23994 0.0
H3316 H 0.92157 0.23192 0.22605 0.0
H3317 H 0.89666 0.25394 0.23994 0.0
C3318 C 0.7034 0.04832 0.00959 0.0
C3319 C 0.72314 0.06748 0.9932 0.0
C3320 C 0.69306 0.10741 0.99682 0.0
C3321 C 0.67717 0.09142 0.01935 0.0
N3322 N 0.68448 0.0612 0.05915 0.0
N3323 N 0.72733 0.10404 0.95665 0.0
C3324 C 0.68597 0.06475 0.02841 0.0
C3325 C 0.71457 0.09326 0.98167 0.0
N3326 N 0.70583 0.01761 0.01251 0.0
N3327 N 0.69064 0.13801 0.99312 0.0
H3328 H 0.74246 0.09285 0.94541 0.0
H3329 H 0.72087 0.12112 0.94524 0.0
H3330 H 0.67976 0.1522 0.00831 0.0
H3331 H 0.70303 0.15168 0.9786 0.0
H3332 H 0.69151 1.00281 0.02484 0.0
H3333 H 0.72053 1.00659 1.00017 0.0
H3334 H 0.69331 0.04423 0.06847 0.0
H3335 H 0.68096 0.08086 0.07616 0.0
C3336 C 0.27161 0.47037 0.2841 0.0
C3337 C 0.286 0.49375 0.26685 0.0
C3338 C 0.33477 0.48978 0.28666 0.0
C3339 C 0.32052 0.4681 0.3056 0.0
N3340 N 0.27608 0.42975 0.31551 0.0
N3341 N 0.32899 0.51916 0.24412 0.0
C3342 C 0.28906 0.45563 0.30194 0.0
C3343 C 0.31693 0.50112 0.26548 0.0
N3344 N 0.24158 0.46377 0.28477 0.0
N3345 N 0.36524 0.50064 0.29015 0.0
H3346 H 0.31609 0.52776 0.22847 0.0
H3347 H 0.35101 0.52319 0.23988 0.0
H3348 H 0.37894 0.49204 0.30488 0.0
H3349 H 0.37712 0.51931 0.27975 0.0
H3350 H 0.23036 0.45036 0.30022 0.0
H3351 H 0.22793 0.47314 0.27078 0.0
H3352 H 0.2533 0.4174 0.31114 0.0
H3353 H 0.28848 0.41871 0.32905 0.0
C3354 C 0.2817 0.45833 0.01095 0.0
C3355 C 0.27096 0.427 0.01971 0.0
C3356 C 0.21949 0.42936 0.00924 0.0
C3357 C 0.23031 0.46027 1.00007 0.0
N3358 N 0.27112 0.50929 1.00196 0.0
N3359 N 0.23099 0.3886 0.03698 0.0
C3360 C 0.26131 0.47655 0.0045 0.0
C3361 C 0.24023 0.41447 0.02208 0.0
N3362 N 0.3107 0.46942 0.00608 0.0
N3363 N 0.18956 0.41325 1.004 0.0
H3364 H 0.2458 0.37777 0.04737 0.0
H3365 H 0.20932 0.38036 0.04205 0.0
H3366 H 0.17361 0.42374 0.99544 0.0
H3367 H 0.18064 0.3886 0.00626 0.0
H3368 H 0.31864 0.48996 0.99603 0.0
H3369 H 0.32645 0.45664 0.00933 0.0
H3370 H 0.29342 0.52372 0.00787 0.0
H3371 H 0.25646 0.52304 0.99714 0.0
C3372 C 0.87954 0.95409 0.25813 0.0
C3373 C 0.90917 0.96749 0.27531 0.0
C3374 C 0.9049 0.91068 0.28472 0.0
C3375 C 0.87342 0.89773 0.27292 0.0
N3376 N 0.83199 0.91079 0.24581 0.0
N3377 N 0.9448 0.9594 0.31503 0.0
C3378 C 0.86102 0.92083 0.25947 0.0
C3379 C 0.91969 0.9462 0.29231 0.0
N3380 N 0.86951 0.9719 0.23853 0.0
N3381 N 0.92237 0.88943 0.28415 0.0
H3382 H 0.95591 0.9853 0.32212 0.0
H3383 H 0.95227 0.94493 0.32919 0.0
H3384 H 0.9158 0.86521 0.26873 0.0
H3385 H 0.94532 0.89817 0.29208 0.0
H3386 H 0.84986 0.96204 0.22191 0.0
H3387 H 0.882 0.99583 0.23715 0.0
H3388 H 0.82031 0.92755 0.2412 0.0
H3389 H 0.82004 0.88559 0.23816 0.0
C3390 C 0.79779 0.14638 0.75751 0.0
C3391 C 0.77673 0.13381 0.77725 0.0
C3392 C 0.78274 0.19137 0.80799 0.0
C3393 C 0.79703 0.20364 0.78306 0.0
N3394 N 0.83582 0.19492 0.75334 0.0
N3395 N 0.76127 0.1432 0.83015 0.0
C3396 C 0.80968 0.18178 0.76289 0.0
C3397 C 0.77315 0.15611 0.8056 0.0
N3398 N 0.80637 0.12525 0.73353 0.0
N3399 N 0.78069 0.21377 0.83505 0.0
H3400 H 0.75587 0.11726 0.82894 0.0
H3401 H 0.7587 0.15786 0.85223 0.0
H3402 H 0.79684 0.23714 0.84192 0.0
H3403 H 0.76552 0.2081 0.85103 0.0
H3404 H 0.81787 0.13386 0.71551 0.0
H3405 H 0.80311 0.09969 0.73246 0.0
H3406 H 0.84908 0.18056 0.74265 0.0
H3407 H 0.84496 0.22082 0.76047 0.0
loop_
_geom_bond_atom_site_label_1
_geom_bond_atom_site_label_2
_geom_bond_distance
_geom_bond_site_symmetry_2
_ccdc_geom_bond_type
Zn0 O3 2.031 . S
Zn0 O5 2.049 . S
Zn0 O10 2.067 . S
Zn1 O2 1.962 . S
Zn1 O4 1.986 . S
Zn1 O6 1.996 . S
Zn1 O9 1.943 . S
O2 Zn1 1.962 . S
O2 C7 1.254 . S
O3 Zn0 2.031 . S
O3 C7 1.269 . S
O4 Zn1 1.986 . S
O4 C11 1.262 . S
O5 Zn0 2.049 . S
O5 C13 1.260 . S
O6 Zn1 1.996 . S
O6 C13 1.257 . S
C7 O2 1.254 . S
C7 O3 1.269 . S
C8 O9 1.249 . S
C8 O10 1.270 . S
O9 Zn1 1.943 . S
O9 C8 1.249 . S
O10 Zn0 2.067 . S
O10 C8 1.270 . S
C11 O4 1.262 . S
C11 O12 1.232 . S
O12 C11 1.232 . S
C13 O5 1.260 . S
C13 O6 1.257 . S
Zn14 O17 2.031 1_455 S
Zn14 O19 2.049 . S
Zn14 O24 2.067 . S
Zn15 O16 1.943 1_455 S
Zn15 O18 1.994 . S
Zn15 O20 2.011 . S
Zn15 O23 1.947 1_455 S
O16 Zn15 1.943 1_655 S
O16 C21 1.254 . S
O17 Zn14 2.031 1_655 S
O17 C21 1.269 . S
O18 Zn15 1.994 . S
O18 C25 1.262 . S
O19 Zn14 2.049 . S
O19 C27 1.260 . S
O20 Zn15 2.011 . S
O20 C27 1.257 . S
C21 O16 1.254 . S
C21 O17 1.269 . S
C22 O23 1.249 . S
C22 O24 1.270 1_655 S
O23 Zn15 1.947 1_655 S
O23 C22 1.249 . S
O24 Zn14 2.067 . S
O24 C22 1.270 1_455 S
C25 O18 1.262 . S
C25 O26 1.232 1_455 S
O26 C25 1.232 1_655 S
C27 O19 1.260 . S
C27 O20 1.257 . S
Zn28 O31 2.031 . S
Zn28 O33 2.049 . S
Zn28 O38 2.067 . S
Zn29 O30 1.962 . S
Zn29 O32 1.986 . S
Zn29 O34 1.996 . S
Zn29 O37 1.943 . S
O30 Zn29 1.962 . S
O30 C35 1.254 . S
O31 Zn28 2.031 . S
O31 C35 1.269 . S
O32 Zn29 1.986 . S
O32 C39 1.262 . S
O33 Zn28 2.049 . S
O33 C41 1.260 . S
O34 Zn29 1.996 . S
O34 C41 1.257 . S
C35 O30 1.254 . S
C35 O31 1.269 . S
C36 O37 1.249 . S
C36 O38 1.270 . S
O37 Zn29 1.943 . S
O37 C36 1.249 . S
O38 Zn28 2.067 . S
O38 C36 1.270 . S
C39 O32 1.262 . S
C39 O40 1.232 . S
O40 C39 1.232 . S
C41 O33 1.260 . S
C41 O34 1.257 . S
Zn42 O45 2.031 . S
Zn42 O47 2.049 . S
Zn42 O52 2.067 . S
Zn43 O44 1.962 . S
Zn43 O46 1.986 . S
Zn43 O48 1.996 . S
Zn43 O51 1.943 . S
O44 Zn43 1.962 . S
O44 C49 1.254 . S
O45 Zn42 2.031 . S
O45 C49 1.269 . S
O46 Zn43 1.986 . S
O46 C53 1.262 . S
O47 Zn42 2.049 . S
O47 C55 1.260 . S
O48 Zn43 1.996 . S
O48 C55 1.257 . S
C49 O44 1.254 . S
C49 O45 1.269 . S
C50 O51 1.249 . S
C50 O52 1.270 . S
O51 Zn43 1.943 . S
O51 C50 1.249 . S
O52 Zn42 2.067 . S
O52 C50 1.270 . S
C53 O46 1.262 . S
C53 O54 1.232 . S
O54 C53 1.232 . S
C55 O47 1.260 . S
C55 O48 1.257 . S
Zn56 O59 2.031 . S
Zn56 O61 2.049 . S
Zn56 O66 2.067 . S
Zn57 O58 1.962 . S
Zn57 O60 1.986 . S
Zn57 O62 1.996 . S
Zn57 O65 1.943 . S
O58 Zn57 1.962 . S
O58 C63 1.254 . S
O59 Zn56 2.031 . S
O59 C63 1.269 . S
O60 Zn57 1.986 . S
O60 C67 1.262 . S
O61 Zn56 2.049 . S
O61 C69 1.260 . S
O62 Zn57 1.996 . S
O62 C69 1.257 . S
C63 O58 1.254 . S
C63 O59 1.269 . S
C64 O65 1.249 . S
C64 O66 1.270 . S
O65 Zn57 1.943 . S
O65 C64 1.249 . S
O66 Zn56 2.067 . S
O66 C64 1.270 . S
C67 O60 1.262 . S
C67 O68 1.232 . S
O68 C67 1.232 . S
C69 O61 1.260 . S
C69 O62 1.257 . S
Zn70 O73 2.031 . S
Zn70 O75 2.049 . S
Zn70 O80 2.067 . S
Zn71 O72 1.962 . S
Zn71 O74 1.986 . S
Zn71 O76 1.996 . S
Zn71 O79 1.943 . S
O72 Zn71 1.962 . S
O72 C77 1.254 . S
O73 Zn70 2.031 . S
O73 C77 1.269 . S
O74 Zn71 1.986 . S
O74 C81 1.262 . S
O75 Zn70 2.049 . S
O75 C83 1.260 . S
O76 Zn71 1.996 . S
O76 C83 1.257 . S
C77 O72 1.254 . S
C77 O73 1.269 . S
C78 O79 1.249 . S
C78 O80 1.270 . S
O79 Zn71 1.943 . S
O79 C78 1.249 . S
O80 Zn70 2.067 . S
O80 C78 1.270 . S
C81 O74 1.262 . S
C81 O82 1.232 . S
O82 C81 1.232 . S
C83 O75 1.260 . S
C83 O76 1.257 . S
Zn84 O87 2.031 . S
Zn84 O89 2.049 . S
Zn84 O94 2.067 . S
Zn85 O86 1.962 . S
Zn85 O88 1.986 . S
Zn85 O90 1.996 . S
Zn85 O93 1.943 . S
O86 Zn85 1.962 . S
O86 C91 1.254 . S
O87 Zn84 2.031 . S
O87 C91 1.269 . S
O88 Zn85 1.986 . S
O88 C95 1.262 . S
O89 Zn84 2.049 . S
O89 C97 1.260 . S
O90 Zn85 1.996 . S
O90 C97 1.257 . S
C91 O86 1.254 . S
C91 O87 1.269 . S
C92 O93 1.249 . S
C92 O94 1.270 . S
O93 Zn85 1.943 . S
O93 C92 1.249 . S
O94 Zn84 2.067 . S
O94 C92 1.270 . S
C95 O88 1.262 . S
C95 O96 1.232 . S
O96 C95 1.232 . S
C97 O89 1.260 . S
C97 O90 1.257 . S
Zn98 O101 2.031 1_655 S
Zn98 O103 2.049 . S
Zn98 O108 2.067 . S
Zn99 O100 1.962 . S
Zn99 O102 1.986 . S
Zn99 O104 1.996 . S
Zn99 O107 1.943 . S
O100 Zn99 1.962 . S
O100 C105 1.254 . S
O101 Zn98 2.031 1_455 S
O101 C105 1.269 . S
O102 Zn99 1.986 . S
O102 C109 1.262 . S
O103 Zn98 2.049 . S
O103 C111 1.260 1_655 S
O104 Zn99 1.996 . S
O104 C111 1.257 . S
C105 O100 1.254 . S
C105 O101 1.269 . S
C106 O107 1.249 1_655 S
C106 O108 1.270 . S
O107 Zn99 1.943 . S
O107 C106 1.249 1_455 S
O108 Zn98 2.067 . S
O108 C106 1.270 . S
C109 O102 1.262 . S
C109 O110 1.232 . S
O110 C109 1.232 . S
C111 O103 1.260 1_455 S
C111 O104 1.257 . S
Zn112 O115 2.031 . S
Zn112 O117 2.049 . S
Zn112 O122 2.067 . S
Zn113 O114 1.962 . S
Zn113 O116 1.986 . S
Zn113 O118 1.996 . S
Zn113 O121 1.943 1_545 S
O114 Zn113 1.962 . S
O114 C119 1.254 . S
O115 Zn112 2.031 . S
O115 C119 1.269 1_565 S
O116 Zn113 1.986 . S
O116 C123 1.262 . S
O117 Zn112 2.049 . S
O117 C125 1.260 . S
O118 Zn113 1.996 . S
O118 C125 1.257 1_545 S
C119 O114 1.254 . S
C119 O115 1.269 1_545 S
C120 O121 1.249 . S
C120 O122 1.270 . S
O121 Zn113 1.943 1_565 S
O121 C120 1.249 . S
O122 Zn112 2.067 . S
O122 C120 1.270 . S
C123 O116 1.262 . S
C123 O124 1.232 . S
O124 C123 1.232 . S
C125 O117 1.260 . S
C125 O118 1.257 1_565 S
Zn126 O129 2.031 . S
Zn126 O131 2.049 . S
Zn126 O136 2.067 . S
Zn127 O128 1.962 . S
Zn127 O130 1.986 . S
Zn127 O132 1.996 . S
Zn127 O135 1.943 . S
O128 Zn127 1.962 . S
O128 C133 1.254 . S
O129 Zn126 2.031 . S
O129 C133 1.269 . S
O130 Zn127 1.986 . S
O130 C137 1.262 . S
O131 Zn126 2.049 . S
O131 C139 1.260 . S
O132 Zn127 1.996 . S
O132 C139 1.257 . S
C133 O128 1.254 . S
C133 O129 1.269 . S
C134 O135 1.249 . S
C134 O136 1.270 . S
O135 Zn127 1.943 . S
O135 C134 1.249 . S
O136 Zn126 2.067 . S
O136 C134 1.270 . S
C137 O130 1.262 . S
C137 O138 1.232 . S
O138 C137 1.232 . S
C139 O131 1.260 . S
C139 O132 1.257 . S
Zn140 O143 2.031 . S
Zn140 O145 2.049 . S
Zn140 O150 2.067 . S
Zn141 O142 1.962 . S
Zn141 O144 1.986 . S
Zn141 O146 1.996 . S
Zn141 O149 1.943 1_565 S
O142 Zn141 1.962 . S
O142 C147 1.254 1_565 S
O143 Zn140 2.031 . S
O143 C147 1.269 . S
O144 Zn141 1.986 . S
O144 C151 1.262 . S
O145 Zn140 2.049 . S
O145 C153 1.260 1_545 S
O146 Zn141 1.996 . S
O146 C153 1.257 . S
C147 O142 1.254 1_545 S
C147 O143 1.269 . S
C148 O149 1.249 . S
C148 O150 1.270 . S
O149 Zn141 1.943 1_545 S
O149 C148 1.249 . S
O150 Zn140 2.067 . S
O150 C148 1.270 . S
C151 O144 1.262 . S
C151 O152 1.232 . S
O152 C151 1.232 . S
C153 O145 1.260 1_565 S
C153 O146 1.257 . S
Zn154 O157 2.031 1_554 S
Zn154 O159 2.049 . S
Zn154 O164 2.067 . S
Zn155 O156 1.962 1_554 S
Zn155 O158 1.986 . S
Zn155 O160 1.996 . S
Zn155 O163 1.943 . S
O156 Zn155 1.962 1_556 S
O156 C161 1.254 . S
O157 Zn154 2.031 1_556 S
O157 C161 1.269 . S
O158 Zn155 1.986 . S
O158 C165 1.262 . S
O159 Zn154 2.049 . S
O159 C167 1.260 . S
O160 Zn155 1.996 . S
O160 C167 1.257 . S
C161 O156 1.254 . S
C161 O157 1.269 . S
C162 O163 1.249 . S
C162 O164 1.270 . S
O163 Zn155 1.943 . S
O163 C162 1.249 . S
O164 Zn154 2.067 . S
O164 C162 1.270 . S
C165 O158 1.262 . S
C165 O166 1.232 1_554 S
O166 C165 1.232 1_556 S
C167 O159 1.260 . S
C167 O160 1.257 . S
Zn168 O171 2.031 1_554 S
Zn168 O173 2.049 . S
Zn168 O178 2.067 . S
Zn169 O170 1.962 1_554 S
Zn169 O172 1.986 . S
Zn169 O174 1.996 . S
Zn169 O177 1.943 . S
O170 Zn169 1.962 1_556 S
O170 C175 1.254 . S
O171 Zn168 2.031 1_556 S
O171 C175 1.269 . S
O172 Zn169 1.986 . S
O172 C179 1.262 . S
O173 Zn168 2.049 . S
O173 C181 1.260 . S
O174 Zn169 1.996 . S
O174 C181 1.257 . S
C175 O170 1.254 . S
C175 O171 1.269 . S
C176 O177 1.249 . S
C176 O178 1.270 . S
O177 Zn169 1.943 . S
O177 C176 1.249 . S
O178 Zn168 2.067 . S
O178 C176 1.270 . S
C179 O172 1.262 . S
C179 O180 1.232 . S
O180 C179 1.232 . S
C181 O173 1.260 . S
C181 O174 1.257 . S
Zn182 O185 2.031 . S
Zn182 O187 2.049 . S
Zn182 O192 2.067 . S
Zn183 O184 1.962 . S
Zn183 O186 1.986 . S
Zn183 O188 1.996 . S
Zn183 O191 1.943 . S
O184 Zn183 1.962 . S
O184 C189 1.254 1_554 S
O185 Zn182 2.031 . S
O185 C189 1.269 1_554 S
O186 Zn183 1.986 . S
O186 C193 1.262 . S
O187 Zn182 2.049 . S
O187 C195 1.260 . S
O188 Zn183 1.996 . S
O188 C195 1.257 . S
C189 O184 1.254 1_556 S
C189 O185 1.269 1_556 S
C190 O191 1.249 . S
C190 O192 1.270 . S
O191 Zn183 1.943 . S
O191 C190 1.249 . S
O192 Zn182 2.067 . S
O192 C190 1.270 . S
C193 O186 1.262 . S
C193 O194 1.232 . S
O194 C193 1.232 . S
C195 O187 1.260 . S
C195 O188 1.257 . S
Zn196 O199 2.031 . S
Zn196 O201 2.049 . S
Zn196 O206 2.067 . S
Zn197 O198 1.962 . S
Zn197 O200 1.986 . S
Zn197 O202 1.996 . S
Zn197 O205 1.943 . S
O198 Zn197 1.962 . S
O198 C203 1.254 . S
O199 Zn196 2.031 . S
O199 C203 1.269 . S
O200 Zn197 1.986 . S
O200 C207 1.262 . S
O201 Zn196 2.049 . S
O201 C209 1.260 . S
O202 Zn197 1.996 . S
O202 C209 1.257 . S
C203 O198 1.254 . S
C203 O199 1.269 . S
C204 O205 1.249 . S
C204 O206 1.270 . S
O205 Zn197 1.943 . S
O205 C204 1.249 . S
O206 Zn196 2.067 . S
O206 C204 1.270 . S
C207 O200 1.262 . S
C207 O208 1.232 . S
O208 C207 1.232 . S
C209 O201 1.260 . S
C209 O202 1.257 . S
Zn210 O213 2.031 . S
Zn210 O215 2.049 . S
Zn210 O220 2.067 . S
Zn211 O212 1.962 . S
Zn211 O214 1.986 . S
Zn211 O216 1.996 . S
Zn211 O219 1.943 . S
O212 Zn211 1.962 . S
O212 C217 1.254 . S
O213 Zn210 2.031 . S
O213 C217 1.269 . S
O214 Zn211 1.986 . S
O214 C221 1.262 . S
O215 Zn210 2.049 . S
O215 C223 1.260 . S
O216 Zn211 1.996 . S
O216 C223 1.257 . S
C217 O212 1.254 . S
C217 O213 1.269 . S
C218 O219 1.249 . S
C218 O220 1.270 . S
O219 Zn211 1.943 . S
O219 C218 1.249 . S
O220 Zn210 2.067 . S
O220 C218 1.270 . S
C221 O214 1.262 . S
C221 O222 1.232 . S
O222 C221 1.232 . S
C223 O215 1.260 . S
C223 O216 1.257 . S
Zn224 O227 2.031 1_455 S
Zn224 O229 2.049 . S
Zn224 O234 2.060 1_445 S
Zn225 O226 1.962 . S
Zn225 O228 1.986 . S
Zn225 O230 1.996 . S
Zn225 O233 1.943 . S
O226 Zn225 1.962 . S
O226 C231 1.254 . S
O227 Zn224 2.031 1_655 S
O227 C231 1.269 . S
O228 Zn225 1.986 . S
O228 C235 1.262 . S
O229 Zn224 2.049 . S
O229 C237 1.248 1_455 S
O230 Zn225 1.996 . S
O230 C237 1.268 . S
C231 O226 1.254 . S
C231 O227 1.269 . S
C232 O233 1.249 . S
C232 O234 1.253 1_545 S
O233 Zn225 1.943 . S
O233 C232 1.249 . S
O234 Zn224 2.060 1_665 S
O234 C232 1.253 1_565 S
C235 O228 1.262 . S
C235 O236 1.232 . S
O236 C235 1.232 . S
C237 O229 1.248 1_655 S
C237 O230 1.268 . S
Zn238 O241 2.031 . S
Zn238 O243 2.049 . S
Zn238 O248 2.067 . S
Zn239 O240 1.962 . S
Zn239 O242 1.986 . S
Zn239 O244 1.996 . S
Zn239 O247 1.943 . S
O240 Zn239 1.962 . S
O240 C245 1.254 . S
O241 Zn238 2.031 . S
O241 C245 1.269 . S
O242 Zn239 1.986 . S
O242 C249 1.262 . S
O243 Zn238 2.049 . S
O243 C251 1.260 . S
O244 Zn239 1.996 . S
O244 C251 1.257 . S
C245 O240 1.254 . S
C245 O241 1.269 . S
C246 O247 1.249 . S
C246 O248 1.270 . S
O247 Zn239 1.943 . S
O247 C246 1.249 . S
O248 Zn238 2.067 . S
O248 C246 1.270 . S
C249 O242 1.262 . S
C249 O250 1.232 . S
O250 C249 1.232 . S
C251 O243 1.260 . S
C251 O244 1.257 . S
Zn252 O255 2.031 . S
Zn252 O257 2.049 . S
Zn252 O262 2.067 . S
Zn253 O254 1.962 . S
Zn253 O256 1.986 . S
Zn253 O258 1.996 . S
Zn253 O261 1.943 . S
O254 Zn253 1.962 . S
O254 C259 1.254 . S
O255 Zn252 2.031 . S
O255 C259 1.269 . S
O256 Zn253 1.986 . S
O256 C263 1.262 . S
O257 Zn252 2.049 . S
O257 C265 1.260 . S
O258 Zn253 1.996 . S
O258 C265 1.257 . S
C259 O254 1.254 . S
C259 O255 1.269 . S
C260 O261 1.249 . S
C260 O262 1.270 . S
O261 Zn253 1.943 . S
O261 C260 1.249 . S
O262 Zn252 2.067 . S
O262 C260 1.270 . S
C263 O256 1.262 . S
C263 O264 1.232 . S
O264 C263 1.232 . S
C265 O257 1.260 . S
C265 O258 1.257 . S
Zn266 O269 2.031 . S
Zn266 O271 2.049 . S
Zn266 O276 2.067 . S
Zn267 O268 1.962 . S
Zn267 O270 1.986 . S
Zn267 O272 1.996 . S
Zn267 O275 1.943 . S
O268 Zn267 1.962 . S
O268 C273 1.254 . S
O269 Zn266 2.031 . S
O269 C273 1.269 . S
O270 Zn267 1.986 . S
O270 C277 1.262 . S
O271 Zn266 2.049 . S
O271 C279 1.260 . S
O272 Zn267 1.996 . S
O272 C279 1.257 . S
C273 O268 1.254 . S
C273 O269 1.269 . S
C274 O275 1.249 . S
C274 O276 1.270 . S
O275 Zn267 1.943 . S
O275 C274 1.249 . S
O276 Zn266 2.067 . S
O276 C274 1.270 . S
C277 O270 1.262 . S
C277 O278 1.232 . S
O278 C277 1.232 . S
C279 O271 1.260 . S
C279 O272 1.257 . S
Zn280 O283 2.031 1_554 S
Zn280 O285 2.049 . S
Zn280 O290 2.067 . S
Zn281 O282 1.986 . S
Zn281 O284 1.973 1_556 S
Zn281 O286 1.978 1_556 S
Zn281 O289 1.940 . S
O282 Zn281 1.986 . S
O282 C287 1.254 . S
O283 Zn280 2.031 1_556 S
O283 C287 1.269 . S
O284 Zn281 1.973 1_554 S
O284 C291 1.262 1_554 S
O285 Zn280 2.049 . S
O285 C293 1.260 . S
O286 Zn281 1.978 1_554 S
O286 C293 1.257 . S
C287 O282 1.254 . S
C287 O283 1.269 . S
C288 O289 1.249 . S
C288 O290 1.270 1_556 S
O289 Zn281 1.940 . S
O289 C288 1.249 . S
O290 Zn280 2.067 . S
O290 C288 1.270 1_554 S
C291 O284 1.262 1_556 S
C291 O292 1.232 . S
O292 C291 1.232 . S
C293 O285 1.260 . S
C293 O286 1.257 . S
Zn294 O297 2.031 . S
Zn294 O299 2.049 . S
Zn294 O304 2.067 . S
Zn295 O296 1.962 . S
Zn295 O298 1.986 . S
Zn295 O300 1.996 . S
Zn295 O303 1.943 . S
O296 Zn295 1.962 . S
O296 C301 1.254 . S
O297 Zn294 2.031 . S
O297 C301 1.269 . S
O298 Zn295 1.986 . S
O298 C305 1.262 . S
O299 Zn294 2.049 . S
O299 C307 1.260 . S
O300 Zn295 1.996 . S
O300 C307 1.257 . S
C301 O296 1.254 . S
C301 O297 1.269 . S
C302 O303 1.249 . S
C302 O304 1.270 . S
O303 Zn295 1.943 . S
O303 C302 1.249 . S
O304 Zn294 2.067 . S
O304 C302 1.270 . S
C305 O298 1.262 . S
C305 O306 1.232 . S
O306 C305 1.232 . S
C307 O299 1.260 . S
C307 O300 1.257 . S
Zn308 O311 2.031 . S
Zn308 O313 2.049 . S
Zn308 O318 2.067 . S
Zn309 O310 1.962 . S
Zn309 O312 1.986 . S
Zn309 O314 1.996 . S
Zn309 O317 1.943 . S
O310 Zn309 1.962 . S
O310 C315 1.254 . S
O311 Zn308 2.031 . S
O311 C315 1.269 . S
O312 Zn309 1.986 . S
O312 C319 1.262 . S
O313 Zn308 2.049 . S
O313 C321 1.260 . S
O314 Zn309 1.996 . S
O314 C321 1.257 . S
C315 O310 1.254 . S
C315 O311 1.269 . S
C316 O317 1.249 . S
C316 O318 1.270 . S
O317 Zn309 1.943 . S
O317 C316 1.249 . S
O318 Zn308 2.067 . S
O318 C316 1.270 . S
C319 O312 1.262 . S
C319 O320 1.232 . S
O320 C319 1.232 . S
C321 O313 1.260 . S
C321 O314 1.257 . S
Zn322 O325 2.031 . S
Zn322 O327 2.049 . S
Zn322 O332 2.067 . S
Zn323 O324 1.962 . S
Zn323 O326 1.986 . S
Zn323 O328 1.996 . S
Zn323 O331 1.943 . S
O324 Zn323 1.962 . S
O324 C329 1.254 . S
O325 Zn322 2.031 . S
O325 C329 1.269 . S
O326 Zn323 1.986 . S
O326 C333 1.262 . S
O327 Zn322 2.049 . S
O327 C335 1.260 . S
O328 Zn323 1.996 . S
O328 C335 1.257 . S
C329 O324 1.254 . S
C329 O325 1.269 . S
C330 O331 1.249 . S
C330 O332 1.270 . S
O331 Zn323 1.943 . S
O331 C330 1.249 . S
O332 Zn322 2.067 . S
O332 C330 1.270 . S
C333 O326 1.262 . S
C333 O334 1.232 . S
O334 C333 1.232 . S
C335 O327 1.260 . S
C335 O328 1.257 . S
Tb336 N367 2.660 1_545 S
Tb336 N374 2.600 1_544 S
Tb336 O380 2.546 1_454 S
Tb336 O381 2.610 . S
Tb336 O383 2.320 . S
Tb336 O384 2.552 1_554 S
Tb336 O385 2.413 1_455 S
Tb336 O387 2.381 . S
Tb336 O388 2.421 1_554 S
Tb336 C400 2.833 1_454 S
C337 C340 1.432 . S
C337 C341 1.414 . S
C337 N344 1.359 . S
C338 C340 1.417 . S
C338 C342 1.432 . S
C338 C350 1.410 1_554 S
C339 C341 1.444 . S
C339 C342 1.317 . S
C339 H362 0.929 . S
C340 C337 1.432 . S
C340 C338 1.417 . S
C340 N348 1.360 . S
C341 C337 1.414 . S
C341 C339 1.444 . S
C341 C346 1.385 . S
C342 C338 1.432 . S
C342 C339 1.317 . S
C342 H354 0.930 . S
C343 C345 1.392 . S
C343 C346 1.370 . S
C343 H355 0.931 . S
N344 C337 1.359 . S
N344 C345 1.327 . S
N344 Tb347 2.600 . S
C345 C343 1.392 . S
C345 N344 1.327 . S
C345 H352 0.930 . S
C346 C341 1.385 . S
C346 C343 1.370 . S
C346 H365 0.930 . S
Tb347 N344 2.600 . S
Tb347 N348 2.660 . S
Tb347 O381 2.362 . S
Tb347 O382 2.421 . S
Tb347 O386 2.546 . S
Tb347 O387 2.631 . S
Tb347 O389 2.320 1_554 S
Tb347 O390 2.552 1_545 S
Tb347 O391 2.413 . S
Tb347 C411 2.833 . S
N348 C340 1.360 . S
N348 Tb347 2.660 . S
N348 C349 1.305 1_554 S
C349 N348 1.305 1_556 S
C349 C351 1.407 . S
C349 H356 0.930 . S
C350 C338 1.410 1_556 S
C350 C351 1.345 . S
C350 H358 0.930 . S
C351 C349 1.407 . S
C351 C350 1.345 . S
C351 H353 0.930 . S
H352 C345 0.930 . S
H353 C351 0.930 . S
H354 C342 0.930 . S
H355 C343 0.931 . S
H356 C349 0.930 . S
H357 C371 0.930 . S
H358 C350 0.930 . S
H359 C377 0.930 . S
H360 C368 0.930 . S
H361 C375 0.931 . S
H362 C339 0.929 . S
H363 C369 0.930 . S
H364 C402 0.930 . S
H365 C346 0.930 . S
H366 C401 0.929 . S
N367 Tb336 2.660 1_565 S
N367 C368 1.305 . S
N367 C372 1.362 . S
C368 H360 0.930 . S
C368 N367 1.305 . S
C368 C371 1.407 . S
C369 H363 0.930 . S
C369 C370 1.410 . S
C369 C371 1.345 1_655 S
C370 C369 1.410 . S
C370 C372 1.414 1_655 S
C370 C402 1.432 1_554 S
C371 H357 0.930 . S
C371 C368 1.407 . S
C371 C369 1.345 1_455 S
C372 N367 1.362 . S
C372 C370 1.414 1_455 S
C372 C376 1.433 1_454 S
H373 C378 0.930 . S
N374 Tb336 2.600 1_566 S
N374 C376 1.359 1_455 S
N374 C377 1.327 . S
C375 H361 0.931 . S
C375 C377 1.392 1_655 S
C375 C378 1.370 . S
C376 C372 1.433 1_656 S
C376 N374 1.359 1_655 S
C376 C379 1.414 . S
C377 H359 0.930 . S
C377 N374 1.327 . S
C377 C375 1.392 1_455 S
C378 H373 0.930 . S
C378 C375 1.370 . S
C378 C379 1.385 . S
C379 C376 1.414 . S
C379 C378 1.385 . S
C379 C401 1.444 . S
O380 Tb336 2.546 1_656 S
O380 C400 1.251 . S
O381 Tb336 2.610 . S
O381 Tb347 2.362 . S
O381 C392 1.283 . S
O382 Tb347 2.421 . S
O382 C399 1.262 . S
O383 Tb336 2.320 . S
O383 C399 1.260 . S
O384 Tb336 2.552 1_556 S
O384 C392 1.243 1_556 S
O385 Tb336 2.413 1_655 S
O385 C400 1.256 1_554 S
O386 Tb347 2.546 . S
O386 C411 1.251 . S
O387 Tb336 2.381 . S
O387 Tb347 2.631 . S
O387 C403 1.256 1_545 S
O388 Tb336 2.421 1_556 S
O388 C410 1.262 . S
O389 Tb347 2.320 1_556 S
O389 C410 1.260 . S
O390 Tb347 2.552 1_565 S
O390 C403 1.243 . S
O391 Tb347 2.413 . S
O391 C411 1.256 . S
C392 O381 1.283 . S
C392 O384 1.243 1_554 S
C393 C395 1.382 . S
C393 C397 1.393 1_545 S
C393 C400 1.500 . S
C394 C395 1.400 . S
C394 C396 1.384 . S
C395 C393 1.382 . S
C395 C394 1.400 . S
C395 H412 0.930 1_556 S
C396 C394 1.384 . S
C396 C398 1.392 . S
C396 H413 0.931 . S
C397 C393 1.393 1_565 S
C397 C398 1.399 1_565 S
C397 H414 0.933 . S
C398 C396 1.392 . S
C398 C397 1.399 1_545 S
C398 H415 0.930 1_545 S
C399 O382 1.262 . S
C399 O383 1.260 . S
C400 Tb336 2.833 1_656 S
C400 O380 1.251 . S
C400 O385 1.256 1_556 S
C400 C393 1.500 . S
C401 H366 0.929 . S
C401 C379 1.444 . S
C401 C402 1.317 . S
C402 H364 0.930 . S
C402 C370 1.432 1_556 S
C402 C401 1.317 . S
C403 O387 1.256 1_565 S
C403 O390 1.243 . S
C404 C405 1.382 . S
C404 C408 1.393 . S
C404 C411 1.500 . S
C405 C404 1.382 . S
C405 C406 1.400 . S
C405 H416 0.930 . S
C406 C405 1.400 . S
C406 C407 1.384 . S
C407 C406 1.384 . S
C407 C409 1.392 . S
C407 H417 0.931 . S
C408 C404 1.393 . S
C408 C409 1.401 . S
C408 H418 0.930 . S
C409 C407 1.392 . S
C409 C408 1.401 . S
C409 H419 0.930 . S
C410 O388 1.262 . S
C410 O389 1.260 . S
C411 Tb347 2.833 . S
C411 O386 1.251 . S
C411 O391 1.256 . S
C411 C404 1.500 . S
H412 C395 0.930 1_554 S
H413 C396 0.931 . S
H414 C397 0.933 . S
H415 C398 0.930 1_565 S
H416 C405 0.930 . S
H417 C407 0.931 . S
H418 C408 0.930 . S
H419 C409 0.930 . S
Tb420 N451 2.660 . S
Tb420 N458 2.600 . S
Tb420 O464 2.546 . S
Tb420 O465 2.610 . S
Tb420 O467 2.320 . S
Tb420 O468 2.552 . S
Tb420 O469 2.413 . S
Tb420 O471 2.362 . S
Tb420 O472 2.421 . S
Tb420 C484 2.833 . S
C421 C424 1.432 . S
C421 C425 1.414 . S
C421 N428 1.359 . S
C422 C424 1.417 . S
C422 C426 1.432 . S
C422 C434 1.410 . S
C423 C425 1.444 . S
C423 C426 1.317 . S
C423 H446 0.929 . S
C424 C421 1.432 . S
C424 C422 1.417 . S
C424 N432 1.360 . S
C425 C421 1.414 . S
C425 C423 1.444 . S
C425 C430 1.385 . S
C426 C422 1.432 . S
C426 C423 1.317 . S
C426 H438 0.930 . S
C427 C429 1.392 . S
C427 C430 1.370 . S
C427 H439 0.931 . S
N428 C421 1.359 . S
N428 C429 1.327 . S
N428 Tb431 2.600 . S
C429 C427 1.392 . S
C429 N428 1.327 . S
C429 H436 0.930 . S
C430 C425 1.385 . S
C430 C427 1.370 . S
C430 H449 0.930 . S
Tb431 N428 2.600 . S
Tb431 N432 2.660 . S
Tb431 O465 2.362 . S
Tb431 O466 2.421 . S
Tb431 O470 2.546 . S
Tb431 O471 2.610 . S
Tb431 O473 2.320 . S
Tb431 O474 2.552 . S
Tb431 O475 2.413 . S
Tb431 C495 2.833 . S
N432 C424 1.360 . S
N432 Tb431 2.660 . S
N432 C433 1.305 . S
C433 N432 1.305 . S
C433 C435 1.407 . S
C433 H440 0.930 . S
C434 C422 1.410 . S
C434 C435 1.345 . S
C434 H442 0.930 . S
C435 C433 1.407 . S
C435 C434 1.345 . S
C435 H437 0.930 . S
H436 C429 0.930 . S
H437 C435 0.930 . S
H438 C426 0.930 . S
H439 C427 0.931 . S
H440 C433 0.930 . S
H441 C455 0.930 . S
H442 C434 0.930 . S
H443 C461 0.930 . S
H444 C452 0.930 . S
H445 C459 0.931 . S
H446 C423 0.929 . S
H447 C453 0.930 . S
H448 C486 0.930 . S
H449 C430 0.930 . S
H450 C485 0.929 . S
N451 Tb420 2.660 . S
N451 C452 1.305 . S
N451 C456 1.360 . S
C452 H444 0.930 . S
C452 N451 1.305 . S
C452 C455 1.407 . S
C453 H447 0.930 . S
C453 C454 1.410 . S
C453 C455 1.345 . S
C454 C453 1.410 . S
C454 C456 1.417 . S
C454 C486 1.432 . S
C455 H441 0.930 . S
C455 C452 1.407 . S
C455 C453 1.345 . S
C456 N451 1.360 . S
C456 C454 1.417 . S
C456 C460 1.432 . S
H457 C462 0.930 . S
N458 Tb420 2.600 . S
N458 C460 1.359 . S
N458 C461 1.327 . S
C459 H445 0.931 . S
C459 C461 1.392 . S
C459 C462 1.370 . S
C460 C456 1.432 . S
C460 N458 1.359 . S
C460 C463 1.414 . S
C461 H443 0.930 . S
C461 N458 1.327 . S
C461 C459 1.392 . S
C462 H457 0.930 . S
C462 C459 1.370 . S
C462 C463 1.385 . S
C463 C460 1.414 . S
C463 C462 1.385 . S
C463 C485 1.444 . S
O464 Tb420 2.546 . S
O464 C484 1.251 . S
O465 Tb420 2.610 . S
O465 Tb431 2.362 . S
O465 C476 1.283 . S
O466 Tb431 2.421 . S
O466 C483 1.262 . S
O467 Tb420 2.320 . S
O467 C483 1.260 . S
O468 Tb420 2.552 . S
O468 C476 1.243 . S
O469 Tb420 2.413 . S
O469 C484 1.256 . S
O470 Tb431 2.546 . S
O470 C495 1.251 . S
O471 Tb420 2.362 . S
O471 Tb431 2.610 . S
O471 C487 1.283 . S
O472 Tb420 2.421 . S
O472 C494 1.262 . S
O473 Tb431 2.320 . S
O473 C494 1.260 . S
O474 Tb431 2.552 . S
O474 C487 1.243 . S
O475 Tb431 2.413 . S
O475 C495 1.256 . S
C476 O465 1.283 . S
C476 O468 1.243 . S
C477 C479 1.382 . S
C477 C481 1.393 . S
C477 C484 1.500 . S
C478 C479 1.400 . S
C478 C480 1.384 . S
C479 C477 1.382 . S
C479 C478 1.400 . S
C479 H496 0.930 . S
C480 C478 1.384 . S
C480 C482 1.392 . S
C480 H497 0.931 . S
C481 C477 1.393 . S
C481 C482 1.401 . S
C481 H498 0.930 . S
C482 C480 1.392 . S
C482 C481 1.401 . S
C482 H499 0.930 . S
C483 O466 1.262 . S
C483 O467 1.260 . S
C484 Tb420 2.833 . S
C484 O464 1.251 . S
C484 O469 1.256 . S
C484 C477 1.500 . S
C485 H450 0.929 . S
C485 C463 1.444 . S
C485 C486 1.317 . S
C486 H448 0.930 . S
C486 C454 1.432 . S
C486 C485 1.317 . S
C487 O471 1.283 . S
C487 O474 1.243 . S
C488 C489 1.382 . S
C488 C492 1.393 . S
C488 C495 1.500 . S
C489 C488 1.382 . S
C489 C490 1.400 . S
C489 H500 0.930 . S
C490 C489 1.400 . S
C490 C491 1.384 . S
C491 C490 1.384 . S
C491 C493 1.392 . S
C491 H501 0.931 . S
C492 C488 1.393 . S
C492 C493 1.401 . S
C492 H502 0.930 . S
C493 C491 1.392 . S
C493 C492 1.401 . S
C493 H503 0.930 . S
C494 O472 1.262 . S
C494 O473 1.260 . S
C495 Tb431 2.833 . S
C495 O470 1.251 . S
C495 O475 1.256 . S
C495 C488 1.500 . S
H496 C479 0.930 . S
H497 C480 0.931 . S
H498 C481 0.930 . S
H499 C482 0.930 . S
H500 C489 0.930 . S
H501 C491 0.931 . S
H502 C492 0.930 . S
H503 C493 0.930 . S
Tb504 N535 2.660 . S
Tb504 N542 2.600 . S
Tb504 O548 2.546 . S
Tb504 O549 2.610 1_545 S
Tb504 O551 2.320 . S
Tb504 O552 2.552 1_545 S
Tb504 O553 2.413 . S
Tb504 O555 2.362 . S
Tb504 O556 2.421 . S
Tb504 C568 2.833 . S
C505 C508 1.432 . S
C505 C509 1.414 . S
C505 N512 1.359 . S
C506 C508 1.417 . S
C506 C510 1.432 . S
C506 C518 1.410 . S
C507 C509 1.444 . S
C507 C510 1.317 . S
C507 H530 0.929 . S
C508 C505 1.432 . S
C508 C506 1.417 . S
C508 N516 1.360 . S
C509 C505 1.414 . S
C509 C507 1.444 . S
C509 C514 1.385 . S
C510 C506 1.432 . S
C510 C507 1.317 . S
C510 H522 0.930 . S
C511 C513 1.392 1_565 S
C511 C514 1.370 . S
C511 H523 0.930 1_565 S
N512 C505 1.359 . S
N512 C513 1.327 1_565 S
N512 Tb515 2.600 1_565 S
C513 C511 1.392 1_545 S
C513 N512 1.327 1_545 S
C513 H520 0.930 . S
C514 C509 1.385 . S
C514 C511 1.370 . S
C514 H533 0.930 . S
Tb515 N512 2.600 1_545 S
Tb515 N516 2.660 1_545 S
Tb515 O549 2.362 1_545 S
Tb515 O550 2.421 . S
Tb515 O554 2.546 . S
Tb515 O555 2.610 . S
Tb515 O557 2.320 . S
Tb515 O558 2.552 . S
Tb515 O559 2.413 . S
Tb515 C579 2.833 . S
N516 C508 1.360 . S
N516 Tb515 2.660 1_565 S
N516 C517 1.305 . S
C517 N516 1.305 . S
C517 C519 1.407 . S
C517 H524 0.930 . S
C518 C506 1.410 . S
C518 C519 1.345 . S
C518 H526 0.930 . S
C519 C517 1.407 . S
C519 C518 1.345 . S
C519 H521 0.930 . S
H520 C513 0.930 . S
H521 C519 0.930 . S
H522 C510 0.930 . S
H523 C511 0.930 1_545 S
H524 C517 0.930 . S
H525 C539 0.930 . S
H526 C518 0.930 . S
H527 C545 0.930 . S
H528 C536 0.930 . S
H529 C543 0.931 . S
H530 C507 0.929 . S
H531 C537 0.930 . S
H532 C570 0.930 . S
H533 C514 0.930 . S
H534 C569 0.929 . S
N535 Tb504 2.660 . S
N535 C536 1.305 . S
N535 C540 1.360 . S
C536 H528 0.930 . S
C536 N535 1.305 . S
C536 C539 1.407 . S
C537 H531 0.930 . S
C537 C538 1.410 . S
C537 C539 1.345 . S
C538 C537 1.410 . S
C538 C540 1.417 . S
C538 C570 1.432 . S
C539 H525 0.930 . S
C539 C536 1.407 . S
C539 C537 1.345 . S
C540 N535 1.360 . S
C540 C538 1.417 . S
C540 C544 1.432 . S
H541 C546 0.930 . S
N542 Tb504 2.600 . S
N542 C544 1.359 . S
N542 C545 1.327 . S
C543 H529 0.931 . S
C543 C545 1.392 . S
C543 C546 1.370 . S
C544 C540 1.432 . S
C544 N542 1.359 . S
C544 C547 1.414 . S
C545 H527 0.930 . S
C545 N542 1.327 . S
C545 C543 1.392 . S
C546 H541 0.930 . S
C546 C543 1.370 . S
C546 C547 1.385 . S
C547 C544 1.414 . S
C547 C546 1.385 . S
C547 C569 1.444 . S
O548 Tb504 2.546 . S
O548 C568 1.251 . S
O549 Tb504 2.610 1_565 S
O549 Tb515 2.362 1_565 S
O549 C560 1.283 . S
O550 Tb515 2.421 . S
O550 C567 1.262 . S
O551 Tb504 2.320 . S
O551 C567 1.260 . S
O552 Tb504 2.552 1_565 S
O552 C560 1.243 . S
O553 Tb504 2.413 . S
O553 C568 1.256 . S
O554 Tb515 2.546 . S
O554 C579 1.251 . S
O555 Tb504 2.362 . S
O555 Tb515 2.610 . S
O555 C571 1.283 . S
O556 Tb504 2.421 . S
O556 C578 1.262 . S
O557 Tb515 2.320 . S
O557 C578 1.260 . S
O558 Tb515 2.552 . S
O558 C571 1.243 . S
O559 Tb515 2.413 . S
O559 C579 1.256 . S
C560 O549 1.283 . S
C560 O552 1.243 . S
C561 C563 1.382 . S
C561 C565 1.393 . S
C561 C568 1.500 1_565 S
C562 C563 1.400 . S
C562 C564 1.384 . S
C563 C561 1.382 . S
C563 C562 1.400 . S
C563 H580 0.930 . S
C564 C562 1.384 . S
C564 C566 1.392 . S
C564 H581 0.931 . S
C565 C561 1.393 . S
C565 C566 1.401 . S
C565 H582 0.930 . S
C566 C564 1.392 . S
C566 C565 1.401 . S
C566 H583 0.930 . S
C567 O550 1.262 . S
C567 O551 1.260 . S
C568 Tb504 2.833 . S
C568 O548 1.251 . S
C568 O553 1.256 . S
C568 C561 1.500 1_545 S
C569 H534 0.929 . S
C569 C547 1.444 . S
C569 C570 1.317 . S
C570 H532 0.930 . S
C570 C538 1.432 . S
C570 C569 1.317 . S
C571 O555 1.283 . S
C571 O558 1.243 . S
C572 C573 1.382 . S
C572 C576 1.393 . S
C572 C579 1.500 . S
C573 C572 1.382 . S
C573 C574 1.400 . S
C573 H584 0.930 . S
C574 C573 1.400 . S
C574 C575 1.384 . S
C575 C574 1.384 . S
C575 C577 1.392 . S
C575 H585 0.931 . S
C576 C572 1.393 . S
C576 C577 1.401 . S
C576 H586 0.930 . S
C577 C575 1.392 . S
C577 C576 1.401 . S
C577 H587 0.930 . S
C578 O556 1.262 . S
C578 O557 1.260 . S
C579 Tb515 2.833 . S
C579 O554 1.251 . S
C579 O559 1.256 . S
C579 C572 1.500 . S
H580 C563 0.930 . S
H581 C564 0.931 . S
H582 C565 0.930 . S
H583 C566 0.930 . S
H584 C573 0.930 . S
H585 C575 0.931 . S
H586 C576 0.930 . S
H587 C577 0.930 . S
Tb588 N619 2.660 . S
Tb588 N626 2.600 . S
Tb588 O632 2.546 . S
Tb588 O633 2.610 . S
Tb588 O635 2.320 . S
Tb588 O636 2.552 . S
Tb588 O637 2.413 . S
Tb588 O639 2.362 . S
Tb588 O640 2.421 . S
Tb588 C652 2.833 . S
C589 C592 1.432 . S
C589 C593 1.414 . S
C589 N596 1.359 . S
C590 C592 1.417 . S
C590 C594 1.432 . S
C590 C602 1.410 . S
C591 C593 1.444 . S
C591 C594 1.317 . S
C591 H614 0.929 . S
C592 C589 1.432 . S
C592 C590 1.417 . S
C592 N600 1.360 . S
C593 C589 1.414 . S
C593 C591 1.444 . S
C593 C598 1.385 . S
C594 C590 1.432 . S
C594 C591 1.317 . S
C594 H606 0.930 . S
C595 C597 1.392 . S
C595 C598 1.370 . S
C595 H607 0.931 . S
N596 C589 1.359 . S
N596 C597 1.327 . S
N596 Tb599 2.600 . S
C597 C595 1.392 . S
C597 N596 1.327 . S
C597 H604 0.930 . S
C598 C593 1.385 . S
C598 C595 1.370 . S
C598 H617 0.930 . S
Tb599 N596 2.600 . S
Tb599 N600 2.660 . S
Tb599 O633 2.362 . S
Tb599 O634 2.421 . S
Tb599 O638 2.546 . S
Tb599 O639 2.610 . S
Tb599 O641 2.320 . S
Tb599 O642 2.552 . S
Tb599 O643 2.413 . S
Tb599 C663 2.833 . S
N600 C592 1.360 . S
N600 Tb599 2.660 . S
N600 C601 1.305 . S
C601 N600 1.305 . S
C601 C603 1.407 . S
C601 H608 0.930 . S
C602 C590 1.410 . S
C602 C603 1.345 . S
C602 H610 0.930 . S
C603 C601 1.407 . S
C603 C602 1.345 . S
C603 H605 0.930 . S
H604 C597 0.930 . S
H605 C603 0.930 . S
H606 C594 0.930 . S
H607 C595 0.931 . S
H608 C601 0.930 . S
H609 C623 0.930 . S
H610 C602 0.930 . S
H611 C629 0.930 . S
H612 C620 0.930 . S
H613 C627 0.931 . S
H614 C591 0.929 . S
H615 C621 0.930 . S
H616 C654 0.930 . S
H617 C598 0.930 . S
H618 C653 0.929 . S
N619 Tb588 2.660 . S
N619 C620 1.305 . S
N619 C624 1.360 . S
C620 H612 0.930 . S
C620 N619 1.305 . S
C620 C623 1.407 . S
C621 H615 0.930 . S
C621 C622 1.410 . S
C621 C623 1.345 . S
C622 C621 1.410 . S
C622 C624 1.417 . S
C622 C654 1.432 . S
C623 H609 0.930 . S
C623 C620 1.407 . S
C623 C621 1.345 . S
C624 N619 1.360 . S
C624 C622 1.417 . S
C624 C628 1.432 . S
H625 C630 0.930 . S
N626 Tb588 2.600 . S
N626 C628 1.359 . S
N626 C629 1.327 . S
C627 H613 0.931 . S
C627 C629 1.392 . S
C627 C630 1.370 . S
C628 C624 1.432 . S
C628 N626 1.359 . S
C628 C631 1.414 . S
C629 H611 0.930 . S
C629 N626 1.327 . S
C629 C627 1.392 . S
C630 H625 0.930 . S
C630 C627 1.370 . S
C630 C631 1.385 . S
C631 C628 1.414 . S
C631 C630 1.385 . S
C631 C653 1.444 . S
O632 Tb588 2.546 . S
O632 C652 1.251 . S
O633 Tb588 2.610 . S
O633 Tb599 2.362 . S
O633 C644 1.283 . S
O634 Tb599 2.421 . S
O634 C651 1.262 . S
O635 Tb588 2.320 . S
O635 C651 1.260 . S
O636 Tb588 2.552 . S
O636 C644 1.243 . S
O637 Tb588 2.413 . S
O637 C652 1.256 . S
O638 Tb599 2.546 . S
O638 C663 1.251 . S
O639 Tb588 2.362 . S
O639 Tb599 2.610 . S
O639 C655 1.283 . S
O640 Tb588 2.421 . S
O640 C662 1.262 . S
O641 Tb599 2.320 . S
O641 C662 1.260 . S
O642 Tb599 2.552 . S
O642 C655 1.243 . S
O643 Tb599 2.413 . S
O643 C663 1.256 . S
C644 O633 1.283 . S
C644 O636 1.243 . S
C645 C647 1.382 . S
C645 C649 1.393 . S
C645 C652 1.500 . S
C646 C647 1.400 . S
C646 C648 1.384 . S
C647 C645 1.382 . S
C647 C646 1.400 . S
C647 H664 0.930 . S
C648 C646 1.384 . S
C648 C650 1.392 . S
C648 H665 0.931 . S
C649 C645 1.393 . S
C649 C650 1.401 . S
C649 H666 0.930 . S
C650 C648 1.392 . S
C650 C649 1.401 . S
C650 H667 0.930 . S
C651 O634 1.262 . S
C651 O635 1.260 . S
C652 Tb588 2.833 . S
C652 O632 1.251 . S
C652 O637 1.256 . S
C652 C645 1.500 . S
C653 H618 0.929 . S
C653 C631 1.444 . S
C653 C654 1.317 . S
C654 H616 0.930 . S
C654 C622 1.432 . S
C654 C653 1.317 . S
C655 O639 1.283 . S
C655 O642 1.243 . S
C656 C657 1.382 . S
C656 C660 1.393 . S
C656 C663 1.500 . S
C657 C656 1.382 . S
C657 C658 1.400 . S
C657 H668 0.930 . S
C658 C657 1.400 . S
C658 C659 1.384 . S
C659 C658 1.384 . S
C659 C661 1.392 . S
C659 H669 0.931 . S
C660 C656 1.393 . S
C660 C661 1.401 . S
C660 H670 0.930 . S
C661 C659 1.392 . S
C661 C660 1.401 . S
C661 H671 0.930 . S
C662 O640 1.262 . S
C662 O641 1.260 . S
C663 Tb599 2.833 . S
C663 O638 1.251 . S
C663 O643 1.256 . S
C663 C656 1.500 . S
H664 C647 0.930 . S
H665 C648 0.931 . S
H666 C649 0.930 . S
H667 C650 0.930 . S
H668 C657 0.930 . S
H669 C659 0.931 . S
H670 C660 0.930 . S
H671 C661 0.930 . S
Tb672 N703 2.660 . S
Tb672 N710 2.600 . S
Tb672 O716 2.546 . S
Tb672 O717 2.610 . S
Tb672 O719 2.320 . S
Tb672 O720 2.552 . S
Tb672 O721 2.413 . S
Tb672 O723 2.362 . S
Tb672 O724 2.421 . S
Tb672 C736 2.833 . S
C673 C676 1.432 . S
C673 C677 1.414 . S
C673 N680 1.359 . S
C674 C676 1.417 . S
C674 C678 1.432 . S
C674 C686 1.436 . S
C675 C677 1.444 . S
C675 C678 1.317 . S
C675 H698 0.929 . S
C676 C673 1.432 . S
C676 C674 1.417 . S
C676 N684 1.360 . S
C677 C673 1.414 . S
C677 C675 1.444 . S
C677 C682 1.385 . S
C678 C674 1.432 . S
C678 C675 1.317 . S
C678 H690 0.930 . S
C679 C681 1.392 . S
C679 C682 1.370 . S
C679 H691 0.931 . S
N680 C673 1.359 . S
N680 C681 1.327 . S
N680 Tb683 2.600 . S
C681 C679 1.392 . S
C681 N680 1.327 . S
C681 H688 0.930 . S
C682 C677 1.385 . S
C682 C679 1.370 . S
C682 H701 0.930 . S
Tb683 N680 2.600 . S
Tb683 N684 2.660 . S
Tb683 O717 2.362 1_565 S
Tb683 O718 2.421 1_565 S
Tb683 O722 2.546 . S
Tb683 O723 2.610 1_565 S
Tb683 O725 2.320 . S
Tb683 O726 2.552 . S
Tb683 O727 2.413 . S
Tb683 C747 2.833 . S
N684 C676 1.360 . S
N684 Tb683 2.660 . S
N684 C685 1.305 . S
C685 N684 1.305 . S
C685 C687 1.407 1_455 S
C685 H692 0.930 . S
C686 C674 1.436 . S
C686 C687 1.332 1_455 S
C686 H694 0.918 1_455 S
C687 C685 1.407 1_655 S
C687 C686 1.332 1_655 S
C687 H689 0.930 . S
H688 C681 0.930 . S
H689 C687 0.930 . S
H690 C678 0.930 . S
H691 C679 0.931 . S
H692 C685 0.930 . S
H693 C707 0.930 . S
H694 C686 0.918 1_655 S
H695 C713 0.930 . S
H696 C704 0.930 . S
H697 C711 0.931 1_655 S
H698 C675 0.929 . S
H699 C705 0.930 . S
H700 C738 0.930 . S
H701 C682 0.930 . S
H702 C737 0.929 . S
N703 Tb672 2.660 . S
N703 C704 1.305 . S
N703 C708 1.360 . S
C704 H696 0.930 . S
C704 N703 1.305 . S
C704 C707 1.407 . S
C705 H699 0.930 . S
C705 C706 1.410 . S
C705 C707 1.345 . S
C706 C705 1.410 . S
C706 C708 1.417 . S
C706 C738 1.432 . S
C707 H693 0.930 . S
C707 C704 1.407 . S
C707 C705 1.345 . S
C708 N703 1.360 . S
C708 C706 1.417 . S
C708 C712 1.432 . S
H709 C714 0.930 . S
N710 Tb672 2.600 . S
N710 C712 1.359 . S
N710 C713 1.327 . S
C711 H697 0.931 1_455 S
C711 C713 1.392 . S
C711 C714 1.370 . S
C712 C708 1.432 . S
C712 N710 1.359 . S
C712 C715 1.414 . S
C713 H695 0.930 . S
C713 N710 1.327 . S
C713 C711 1.392 . S
C714 H709 0.930 . S
C714 C711 1.370 . S
C714 C715 1.385 . S
C715 C712 1.414 . S
C715 C714 1.385 . S
C715 C737 1.444 . S
O716 Tb672 2.546 . S
O716 C736 1.251 . S
O717 Tb672 2.610 . S
O717 Tb683 2.362 1_545 S
O717 C728 1.283 . S
O718 Tb683 2.421 1_545 S
O718 C735 1.262 . S
O719 Tb672 2.320 . S
O719 C735 1.260 . S
O720 Tb672 2.552 . S
O720 C728 1.243 . S
O721 Tb672 2.413 . S
O721 C736 1.256 . S
O722 Tb683 2.546 . S
O722 C747 1.251 . S
O723 Tb672 2.362 . S
O723 Tb683 2.610 1_545 S
O723 C739 1.283 . S
O724 Tb672 2.421 . S
O724 C746 1.262 . S
O725 Tb683 2.320 . S
O725 C746 1.260 1_565 S
O726 Tb683 2.552 . S
O726 C739 1.243 1_565 S
O727 Tb683 2.413 . S
O727 C747 1.256 . S
C728 O717 1.283 . S
C728 O720 1.243 . S
C729 C731 1.382 . S
C729 C733 1.393 . S
C729 C736 1.500 . S
C730 C731 1.400 . S
C730 C732 1.384 . S
C731 C729 1.382 . S
C731 C730 1.400 . S
C731 H748 0.930 . S
C732 C730 1.384 . S
C732 C734 1.392 . S
C732 H749 0.931 . S
C733 C729 1.393 . S
C733 C734 1.401 . S
C733 H750 0.930 . S
C734 C732 1.392 . S
C734 C733 1.401 . S
C734 H751 0.930 . S
C735 O718 1.262 . S
C735 O719 1.260 . S
C736 Tb672 2.833 . S
C736 O716 1.251 . S
C736 O721 1.256 . S
C736 C729 1.500 . S
C737 H702 0.929 . S
C737 C715 1.444 . S
C737 C738 1.317 . S
C738 H700 0.930 . S
C738 C706 1.432 . S
C738 C737 1.317 . S
C739 O723 1.283 . S
C739 O726 1.243 1_545 S
C740 C741 1.382 . S
C740 C744 1.393 . S
C740 C747 1.500 . S
C741 C740 1.382 . S
C741 C742 1.400 . S
C741 H752 0.930 . S
C742 C741 1.400 . S
C742 C743 1.384 . S
C743 C742 1.384 . S
C743 C745 1.392 . S
C743 H753 0.931 . S
C744 C740 1.393 . S
C744 C745 1.401 . S
C744 H754 0.930 . S
C745 C743 1.392 . S
C745 C744 1.401 . S
C745 H755 0.930 . S
C746 O724 1.262 . S
C746 O725 1.260 1_545 S
C747 Tb683 2.833 . S
C747 O722 1.251 . S
C747 O727 1.256 . S
C747 C740 1.500 . S
H748 C731 0.930 . S
H749 C732 0.931 . S
H750 C733 0.930 . S
H751 C734 0.930 . S
H752 C741 0.930 . S
H753 C743 0.931 . S
H754 C744 0.930 . S
H755 C745 0.930 . S
Tb756 N787 2.660 . S
Tb756 N794 2.600 . S
Tb756 O800 2.546 . S
Tb756 O801 2.610 . S
Tb756 O803 2.320 . S
Tb756 O804 2.552 . S
Tb756 O805 2.413 . S
Tb756 O807 2.362 . S
Tb756 O808 2.421 . S
Tb756 C820 2.833 . S
C757 C760 1.432 . S
C757 C761 1.414 . S
C757 N764 1.359 . S
C758 C760 1.417 . S
C758 C762 1.432 . S
C758 C770 1.410 . S
C759 C761 1.444 . S
C759 C762 1.317 . S
C759 H782 0.929 . S
C760 C757 1.432 . S
C760 C758 1.417 . S
C760 N768 1.360 . S
C761 C757 1.414 . S
C761 C759 1.444 . S
C761 C766 1.385 . S
C762 C758 1.432 . S
C762 C759 1.317 . S
C762 H774 0.930 . S
C763 C765 1.392 . S
C763 C766 1.370 . S
C763 H775 0.931 . S
N764 C757 1.359 . S
N764 C765 1.327 . S
N764 Tb767 2.600 . S
C765 C763 1.392 . S
C765 N764 1.327 . S
C765 H772 0.930 . S
C766 C761 1.385 . S
C766 C763 1.370 . S
C766 H785 0.930 . S
Tb767 N764 2.600 . S
Tb767 N768 2.660 . S
Tb767 O801 2.362 . S
Tb767 O802 2.421 . S
Tb767 O806 2.546 . S
Tb767 O807 2.610 . S
Tb767 O809 2.320 . S
Tb767 O810 2.552 . S
Tb767 O811 2.413 . S
Tb767 C831 2.833 . S
N768 C760 1.360 . S
N768 Tb767 2.660 . S
N768 C769 1.305 . S
C769 N768 1.305 . S
C769 C771 1.407 . S
C769 H776 0.930 . S
C770 C758 1.410 . S
C770 C771 1.345 . S
C770 H778 0.930 . S
C771 C769 1.407 . S
C771 C770 1.345 . S
C771 H773 0.930 . S
H772 C765 0.930 . S
H773 C771 0.930 . S
H774 C762 0.930 . S
H775 C763 0.931 . S
H776 C769 0.930 . S
H777 C791 0.930 . S
H778 C770 0.930 . S
H779 C797 0.930 . S
H780 C788 0.930 . S
H781 C795 0.931 . S
H782 C759 0.929 . S
H783 C789 0.930 . S
H784 C822 0.930 . S
H785 C766 0.930 . S
H786 C821 0.929 . S
N787 Tb756 2.660 . S
N787 C788 1.305 . S
N787 C792 1.360 . S
C788 H780 0.930 . S
C788 N787 1.305 . S
C788 C791 1.407 . S
C789 H783 0.930 . S
C789 C790 1.410 . S
C789 C791 1.345 . S
C790 C789 1.410 . S
C790 C792 1.417 . S
C790 C822 1.432 . S
C791 H777 0.930 . S
C791 C788 1.407 . S
C791 C789 1.345 . S
C792 N787 1.360 . S
C792 C790 1.417 . S
C792 C796 1.432 . S
H793 C798 0.930 . S
N794 Tb756 2.600 . S
N794 C796 1.359 . S
N794 C797 1.327 . S
C795 H781 0.931 . S
C795 C797 1.392 . S
C795 C798 1.370 . S
C796 C792 1.432 . S
C796 N794 1.359 . S
C796 C799 1.414 . S
C797 H779 0.930 . S
C797 N794 1.327 . S
C797 C795 1.392 . S
C798 H793 0.930 . S
C798 C795 1.370 . S
C798 C799 1.385 . S
C799 C796 1.414 . S
C799 C798 1.385 . S
C799 C821 1.444 . S
O800 Tb756 2.546 . S
O800 C820 1.251 . S
O801 Tb756 2.610 . S
O801 Tb767 2.362 . S
O801 C812 1.283 . S
O802 Tb767 2.421 . S
O802 C819 1.262 . S
O803 Tb756 2.320 . S
O803 C819 1.260 . S
O804 Tb756 2.552 . S
O804 C812 1.243 . S
O805 Tb756 2.413 . S
O805 C820 1.256 . S
O806 Tb767 2.546 . S
O806 C831 1.251 . S
O807 Tb756 2.362 . S
O807 Tb767 2.610 . S
O807 C823 1.283 . S
O808 Tb756 2.421 . S
O808 C830 1.262 . S
O809 Tb767 2.320 . S
O809 C830 1.260 . S
O810 Tb767 2.552 . S
O810 C823 1.243 . S
O811 Tb767 2.413 . S
O811 C831 1.256 . S
C812 O801 1.283 . S
C812 O804 1.243 . S
C813 C815 1.382 . S
C813 C817 1.393 . S
C813 C820 1.500 . S
C814 C815 1.400 . S
C814 C816 1.384 . S
C815 C813 1.382 . S
C815 C814 1.400 . S
C815 H832 0.930 . S
C816 C814 1.384 . S
C816 C818 1.392 . S
C816 H833 0.931 . S
C817 C813 1.393 . S
C817 C818 1.401 . S
C817 H834 0.930 . S
C818 C816 1.392 . S
C818 C817 1.401 . S
C818 H835 0.930 . S
C819 O802 1.262 . S
C819 O803 1.260 . S
C820 Tb756 2.833 . S
C820 O800 1.251 . S
C820 O805 1.256 . S
C820 C813 1.500 . S
C821 H786 0.929 . S
C821 C799 1.444 . S
C821 C822 1.317 . S
C822 H784 0.930 . S
C822 C790 1.432 . S
C822 C821 1.317 . S
C823 O807 1.283 . S
C823 O810 1.243 . S
C824 C825 1.382 . S
C824 C828 1.393 . S
C824 C831 1.500 . S
C825 C824 1.382 . S
C825 C826 1.400 . S
C825 H836 0.930 . S
C826 C825 1.400 . S
C826 C827 1.384 . S
C827 C826 1.384 . S
C827 C829 1.392 . S
C827 H837 0.931 . S
C828 C824 1.393 . S
C828 C829 1.401 . S
C828 H838 0.930 . S
C829 C827 1.392 . S
C829 C828 1.401 . S
C829 H839 0.930 . S
C830 O808 1.262 . S
C830 O809 1.260 . S
C831 Tb767 2.833 . S
C831 O806 1.251 . S
C831 O811 1.256 . S
C831 C824 1.500 . S
H832 C815 0.930 . S
H833 C816 0.931 . S
H834 C817 0.930 . S
H835 C818 0.930 . S
H836 C825 0.930 . S
H837 C827 0.931 . S
H838 C828 0.930 . S
H839 C829 0.930 . S
Tb840 N871 2.660 . S
Tb840 N878 2.600 . S
Tb840 O884 2.546 1_545 S
Tb840 O885 2.610 . S
Tb840 O887 2.320 . S
Tb840 O888 2.552 1_545 S
Tb840 O889 2.413 . S
Tb840 O891 2.362 . S
Tb840 O892 2.421 1_545 S
Tb840 C904 2.833 . S
C841 C844 1.432 . S
C841 C845 1.414 . S
C841 N848 1.359 . S
C842 C844 1.417 1_565 S
C842 C846 1.432 1_565 S
C842 C854 1.410 . S
C843 C845 1.444 . S
C843 C846 1.317 . S
C843 H866 0.929 . S
C844 C841 1.432 . S
C844 C842 1.417 1_545 S
C844 N852 1.360 . S
C845 C841 1.414 . S
C845 C843 1.444 . S
C845 C850 1.385 . S
C846 C842 1.432 1_545 S
C846 C843 1.317 . S
C846 H858 0.930 1_545 S
C847 C849 1.392 . S
C847 C850 1.370 . S
C847 H859 0.931 . S
N848 C841 1.359 . S
N848 C849 1.327 . S
N848 Tb851 2.600 . S
C849 C847 1.392 . S
C849 N848 1.327 . S
C849 H856 0.930 . S
C850 C845 1.385 . S
C850 C847 1.370 . S
C850 H869 0.930 . S
Tb851 N848 2.600 . S
Tb851 N852 2.660 . S
Tb851 O885 2.362 1_556 S
Tb851 O886 2.421 1_556 S
Tb851 O890 2.546 . S
Tb851 O891 2.610 1_556 S
Tb851 O893 2.320 . S
Tb851 O894 2.552 . S
Tb851 O895 2.413 . S
Tb851 C915 2.833 . S
N852 C844 1.360 . S
N852 Tb851 2.660 . S
N852 C853 1.305 1_545 S
C853 N852 1.305 1_565 S
C853 C855 1.407 . S
C853 H860 0.930 . S
C854 C842 1.410 . S
C854 C855 1.345 . S
C854 H862 0.930 . S
C855 C853 1.407 . S
C855 C854 1.345 . S
C855 H857 0.930 . S
H856 C849 0.930 . S
H857 C855 0.930 . S
H858 C846 0.930 1_565 S
H859 C847 0.931 . S
H860 C853 0.930 . S
H861 C875 0.930 . S
H862 C854 0.930 . S
H863 C881 0.930 . S
H864 C872 0.930 . S
H865 C879 0.931 . S
H866 C843 0.929 . S
H867 C873 0.930 . S
H868 C906 0.930 . S
H869 C850 0.930 . S
H870 C905 0.929 . S
N871 Tb840 2.660 . S
N871 C872 1.305 . S
N871 C876 1.360 . S
C872 H864 0.930 . S
C872 N871 1.305 . S
C872 C875 1.407 . S
C873 H867 0.930 . S
C873 C874 1.410 . S
C873 C875 1.345 . S
C874 C873 1.410 . S
C874 C876 1.417 . S
C874 C906 1.432 . S
C875 H861 0.930 . S
C875 C872 1.407 . S
C875 C873 1.345 . S
C876 N871 1.360 . S
C876 C874 1.417 . S
C876 C880 1.432 . S
H877 C882 0.930 . S
N878 Tb840 2.600 . S
N878 C880 1.359 . S
N878 C881 1.327 1_545 S
C879 H865 0.931 . S
C879 C881 1.392 . S
C879 C882 1.370 . S
C880 C876 1.432 . S
C880 N878 1.359 . S
C880 C883 1.414 . S
C881 H863 0.930 . S
C881 N878 1.327 1_565 S
C881 C879 1.392 . S
C882 H877 0.930 . S
C882 C879 1.370 . S
C882 C883 1.385 1_565 S
C883 C880 1.414 . S
C883 C882 1.385 1_545 S
C883 C905 1.444 . S
O884 Tb840 2.546 1_565 S
O884 C904 1.251 1_565 S
O885 Tb840 2.610 . S
O885 Tb851 2.362 1_554 S
O885 C896 1.283 . S
O886 Tb851 2.421 1_554 S
O886 C903 1.262 . S
O887 Tb840 2.320 . S
O887 C903 1.260 . S
O888 Tb840 2.552 1_565 S
O888 C896 1.243 1_565 S
O889 Tb840 2.413 . S
O889 C904 1.256 . S
O890 Tb851 2.546 . S
O890 C915 1.251 . S
O891 Tb840 2.362 . S
O891 Tb851 2.610 1_554 S
O891 C907 1.283 . S
O892 Tb840 2.421 1_565 S
O892 C914 1.262 1_554 S
O893 Tb851 2.320 . S
O893 C914 1.260 1_545 S
O894 Tb851 2.552 . S
O894 C907 1.243 1_556 S
O895 Tb851 2.413 . S
O895 C915 1.256 . S
C896 O885 1.283 . S
C896 O888 1.243 1_545 S
C897 C899 1.382 1_565 S
C897 C901 1.393 . S
C897 C904 1.500 1_565 S
C898 C899 1.400 . S
C898 C900 1.384 1_545 S
C899 C897 1.382 1_545 S
C899 C898 1.400 . S
C899 H916 0.930 . S
C900 C898 1.384 1_565 S
C900 C902 1.392 . S
C900 H917 0.931 . S
C901 C897 1.393 . S
C901 C902 1.401 . S
C901 H918 0.930 . S
C902 C900 1.392 . S
C902 C901 1.401 . S
C902 H919 0.930 . S
C903 O886 1.262 . S
C903 O887 1.260 . S
C904 Tb840 2.833 . S
C904 O884 1.251 1_545 S
C904 O889 1.256 . S
C904 C897 1.500 1_545 S
C905 H870 0.929 . S
C905 C883 1.444 . S
C905 C906 1.317 . S
C906 H868 0.930 . S
C906 C874 1.432 . S
C906 C905 1.317 . S
C907 O891 1.283 . S
C907 O894 1.243 1_554 S
C908 C909 1.382 . S
C908 C912 1.393 . S
C908 C915 1.500 . S
C909 C908 1.382 . S
C909 C910 1.400 . S
C909 H920 0.930 . S
C910 C909 1.400 . S
C910 C911 1.384 . S
C911 C910 1.384 . S
C911 C913 1.392 . S
C911 H921 0.931 . S
C912 C908 1.393 . S
C912 C913 1.401 . S
C912 H922 0.930 . S
C913 C911 1.392 . S
C913 C912 1.401 . S
C913 H923 0.930 . S
C914 O892 1.262 1_556 S
C914 O893 1.260 1_565 S
C915 Tb851 2.833 . S
C915 O890 1.251 . S
C915 O895 1.256 . S
C915 C908 1.500 . S
H916 C899 0.930 . S
H917 C900 0.931 . S
H918 C901 0.930 . S
H919 C902 0.930 . S
H920 C909 0.930 . S
H921 C911 0.931 . S
H922 C912 0.930 . S
H923 C913 0.930 . S
Tb924 N955 2.660 . S
Tb924 N962 2.600 . S
Tb924 O968 2.546 . S
Tb924 O969 2.610 . S
Tb924 O971 2.320 . S
Tb924 O972 2.552 . S
Tb924 O973 2.413 . S
Tb924 O975 2.362 . S
Tb924 O976 2.421 . S
Tb924 C988 2.833 . S
C925 C928 1.432 . S
C925 C929 1.414 . S
C925 N932 1.359 . S
C926 C928 1.417 . S
C926 C930 1.432 . S
C926 C938 1.410 . S
C927 C929 1.444 . S
C927 C930 1.317 . S
C927 H950 0.929 . S
C928 C925 1.432 . S
C928 C926 1.417 . S
C928 N936 1.360 . S
C929 C925 1.414 . S
C929 C927 1.444 . S
C929 C934 1.385 . S
C930 C926 1.432 . S
C930 C927 1.317 . S
C930 H942 0.930 . S
C931 C933 1.392 . S
C931 C934 1.370 . S
C931 H943 0.931 . S
N932 C925 1.359 . S
N932 C933 1.327 . S
N932 Tb935 2.600 . S
C933 C931 1.392 . S
C933 N932 1.327 . S
C933 H940 0.930 . S
C934 C929 1.385 . S
C934 C931 1.370 . S
C934 H953 0.930 . S
Tb935 N932 2.600 . S
Tb935 N936 2.660 . S
Tb935 O969 2.362 . S
Tb935 O970 2.421 . S
Tb935 O974 2.546 . S
Tb935 O975 2.610 . S
Tb935 O977 2.320 . S
Tb935 O978 2.552 . S
Tb935 O979 2.413 . S
Tb935 C999 2.833 . S
N936 C928 1.360 . S
N936 Tb935 2.660 . S
N936 C937 1.305 . S
C937 N936 1.305 . S
C937 C939 1.407 . S
C937 H944 0.930 . S
C938 C926 1.410 . S
C938 C939 1.345 . S
C938 H946 0.930 . S
C939 C937 1.407 . S
C939 C938 1.345 . S
C939 H941 0.930 . S
H940 C933 0.930 . S
H941 C939 0.930 . S
H942 C930 0.930 . S
H943 C931 0.931 . S
H944 C937 0.930 . S
H945 C959 0.930 . S
H946 C938 0.930 . S
H947 C965 0.930 . S
H948 C956 0.930 . S
H949 C963 0.931 . S
H950 C927 0.929 . S
H951 C957 0.930 . S
H952 C990 0.930 . S
H953 C934 0.930 . S
H954 C989 0.929 . S
N955 Tb924 2.660 . S
N955 C956 1.305 . S
N955 C960 1.360 . S
C956 H948 0.930 . S
C956 N955 1.305 . S
C956 C959 1.407 . S
C957 H951 0.930 . S
C957 C958 1.410 . S
C957 C959 1.345 . S
C958 C957 1.410 . S
C958 C960 1.417 . S
C958 C990 1.432 . S
C959 H945 0.930 . S
C959 C956 1.407 . S
C959 C957 1.345 . S
C960 N955 1.360 . S
C960 C958 1.417 . S
C960 C964 1.432 . S
H961 C966 0.930 . S
N962 Tb924 2.600 . S
N962 C964 1.359 . S
N962 C965 1.327 . S
C963 H949 0.931 . S
C963 C965 1.392 . S
C963 C966 1.370 . S
C964 C960 1.432 . S
C964 N962 1.359 . S
C964 C967 1.414 . S
C965 H947 0.930 . S
C965 N962 1.327 . S
C965 C963 1.392 . S
C966 H961 0.930 . S
C966 C963 1.370 . S
C966 C967 1.385 . S
C967 C964 1.414 . S
C967 C966 1.385 . S
C967 C989 1.444 . S
O968 Tb924 2.546 . S
O968 C988 1.251 . S
O969 Tb924 2.610 . S
O969 Tb935 2.362 . S
O969 C980 1.283 . S
O970 Tb935 2.421 . S
O970 C987 1.262 . S
O971 Tb924 2.320 . S
O971 C987 1.260 . S
O972 Tb924 2.552 . S
O972 C980 1.243 . S
O973 Tb924 2.413 . S
O973 C988 1.256 . S
O974 Tb935 2.546 . S
O974 C999 1.251 . S
O975 Tb924 2.362 . S
O975 Tb935 2.610 . S
O975 C991 1.283 . S
O976 Tb924 2.421 . S
O976 C998 1.262 . S
O977 Tb935 2.320 . S
O977 C998 1.260 . S
O978 Tb935 2.552 . S
O978 C991 1.243 . S
O979 Tb935 2.413 . S
O979 C999 1.256 . S
C980 O969 1.283 . S
C980 O972 1.243 . S
C981 C983 1.382 . S
C981 C985 1.393 . S
C981 C988 1.500 . S
C982 C983 1.400 . S
C982 C984 1.384 . S
C983 C981 1.382 . S
C983 C982 1.400 . S
C983 H1000 0.930 . S
C984 C982 1.384 . S
C984 C986 1.392 . S
C984 H1001 0.931 . S
C985 C981 1.393 . S
C985 C986 1.401 . S
C985 H1002 0.930 . S
C986 C984 1.392 . S
C986 C985 1.401 . S
C986 H1003 0.930 . S
C987 O970 1.262 . S
C987 O971 1.260 . S
C988 Tb924 2.833 . S
C988 O968 1.251 . S
C988 O973 1.256 . S
C988 C981 1.500 . S
C989 H954 0.929 . S
C989 C967 1.444 . S
C989 C990 1.317 . S
C990 H952 0.930 . S
C990 C958 1.432 . S
C990 C989 1.317 . S
C991 O975 1.283 . S
C991 O978 1.243 . S
C992 C993 1.382 . S
C992 C996 1.393 . S
C992 C999 1.500 . S
C993 C992 1.382 . S
C993 C994 1.400 . S
C993 H1004 0.930 . S
C994 C993 1.400 . S
C994 C995 1.384 . S
C995 C994 1.384 . S
C995 C997 1.392 . S
C995 H1005 0.931 . S
C996 C992 1.393 . S
C996 C997 1.401 . S
C996 H1006 0.930 . S
C997 C995 1.392 . S
C997 C996 1.401 . S
C997 H1007 0.930 . S
C998 O976 1.262 . S
C998 O977 1.260 . S
C999 Tb935 2.833 . S
C999 O974 1.251 . S
C999 O979 1.256 . S
C999 C992 1.500 . S
H1000 C983 0.930 . S
H1001 C984 0.931 . S
H1002 C985 0.930 . S
H1003 C986 0.930 . S
H1004 C993 0.930 . S
H1005 C995 0.931 . S
H1006 C996 0.930 . S
H1007 C997 0.930 . S
Tb1008 N1039 2.660 . S
Tb1008 N1046 2.600 . S
Tb1008 O1052 2.546 . S
Tb1008 O1053 2.610 1_554 S
Tb1008 O1055 2.320 . S
Tb1008 O1056 2.552 1_554 S
Tb1008 O1057 2.413 . S
Tb1008 O1059 2.362 . S
Tb1008 O1060 2.421 . S
Tb1008 C1072 2.833 . S
C1009 C1012 1.432 . S
C1009 C1013 1.414 . S
C1009 N1016 1.359 . S
C1010 C1012 1.417 . S
C1010 C1014 1.432 . S
C1010 C1022 1.410 . S
C1011 C1013 1.444 . S
C1011 C1014 1.317 . S
C1011 H1034 0.929 . S
C1012 C1009 1.432 . S
C1012 C1010 1.417 . S
C1012 N1020 1.360 . S
C1013 C1009 1.414 . S
C1013 C1011 1.444 . S
C1013 C1018 1.385 . S
C1014 C1010 1.432 . S
C1014 C1011 1.317 . S
C1014 H1026 0.930 . S
C1015 C1017 1.392 . S
C1015 C1018 1.370 . S
C1015 H1027 0.931 . S
N1016 C1009 1.359 . S
N1016 C1017 1.327 . S
N1016 Tb1019 2.591 1_556 S
C1017 C1015 1.392 . S
C1017 N1016 1.327 . S
C1017 H1024 0.930 . S
C1018 C1013 1.385 . S
C1018 C1015 1.370 . S
C1018 H1037 0.930 . S
Tb1019 N1016 2.591 1_554 S
Tb1019 N1020 2.652 1_554 S
Tb1019 O1053 2.356 1_554 S
Tb1019 O1054 2.419 . S
Tb1019 O1058 2.548 . S
Tb1019 O1059 2.617 . S
Tb1019 O1061 2.324 . S
Tb1019 O1062 2.562 . S
Tb1019 O1063 2.417 . S
Tb1019 C1083 2.836 . S
N1020 C1012 1.360 . S
N1020 Tb1019 2.652 1_556 S
N1020 C1021 1.305 . S
C1021 N1020 1.305 . S
C1021 C1023 1.407 . S
C1021 H1028 0.930 . S
C1022 C1010 1.410 . S
C1022 C1023 1.345 . S
C1022 H1030 0.930 . S
C1023 C1021 1.407 . S
C1023 C1022 1.345 . S
C1023 H1025 0.930 . S
H1024 C1017 0.930 . S
H1025 C1023 0.930 . S
H1026 C1014 0.930 . S
H1027 C1015 0.931 . S
H1028 C1021 0.930 . S
H1029 C1043 0.930 . S
H1030 C1022 0.930 . S
H1031 C1049 0.930 . S
H1032 C1040 0.930 . S
H1033 C1047 0.931 . S
H1034 C1011 0.929 . S
H1035 C1041 0.930 . S
H1036 C1074 0.930 . S
H1037 C1018 0.930 . S
H1038 C1073 0.929 . S
N1039 Tb1008 2.660 . S
N1039 C1040 1.305 . S
N1039 C1044 1.360 . S
C1040 H1032 0.930 . S
C1040 N1039 1.305 . S
C1040 C1043 1.407 . S
C1041 H1035 0.930 . S
C1041 C1042 1.410 . S
C1041 C1043 1.345 . S
C1042 C1041 1.410 . S
C1042 C1044 1.417 . S
C1042 C1074 1.432 . S
C1043 H1029 0.930 . S
C1043 C1040 1.407 . S
C1043 C1041 1.345 . S
C1044 N1039 1.360 . S
C1044 C1042 1.417 . S
C1044 C1048 1.432 . S
H1045 C1050 0.930 . S
N1046 Tb1008 2.600 . S
N1046 C1048 1.359 . S
N1046 C1049 1.327 . S
C1047 H1033 0.931 . S
C1047 C1049 1.392 . S
C1047 C1050 1.370 . S
C1048 C1044 1.432 . S
C1048 N1046 1.359 . S
C1048 C1051 1.414 . S
C1049 H1031 0.930 . S
C1049 N1046 1.327 . S
C1049 C1047 1.392 . S
C1050 H1045 0.930 . S
C1050 C1047 1.370 . S
C1050 C1051 1.385 . S
C1051 C1048 1.414 . S
C1051 C1050 1.385 . S
C1051 C1073 1.444 . S
O1052 Tb1008 2.546 . S
O1052 C1072 1.251 . S
O1053 Tb1008 2.610 1_556 S
O1053 Tb1019 2.356 1_556 S
O1053 C1064 1.283 . S
O1054 Tb1019 2.419 . S
O1054 C1071 1.262 . S
O1055 Tb1008 2.320 . S
O1055 C1071 1.260 . S
O1056 Tb1008 2.552 1_556 S
O1056 C1064 1.243 . S
O1057 Tb1008 2.413 . S
O1057 C1072 1.256 . S
O1058 Tb1019 2.548 . S
O1058 C1083 1.251 . S
O1059 Tb1008 2.362 . S
O1059 Tb1019 2.617 . S
O1059 C1075 1.283 . S
O1060 Tb1008 2.421 . S
O1060 C1082 1.262 . S
O1061 Tb1019 2.324 . S
O1061 C1082 1.260 . S
O1062 Tb1019 2.562 . S
O1062 C1075 1.243 . S
O1063 Tb1019 2.417 . S
O1063 C1083 1.256 . S
C1064 O1053 1.283 . S
C1064 O1056 1.243 . S
C1065 C1067 1.382 . S
C1065 C1069 1.393 . S
C1065 C1072 1.500 . S
C1066 C1067 1.400 1_556 S
C1066 C1068 1.384 1_556 S
C1067 C1065 1.382 . S
C1067 C1066 1.400 1_554 S
C1067 H1084 0.930 1_554 S
C1068 C1066 1.384 1_554 S
C1068 C1070 1.392 . S
C1068 H1085 0.931 . S
C1069 C1065 1.393 . S
C1069 C1070 1.401 . S
C1069 H1086 0.930 . S
C1070 C1068 1.392 . S
C1070 C1069 1.401 . S
C1070 H1087 0.930 . S
C1071 O1054 1.262 . S
C1071 O1055 1.260 . S
C1072 Tb1008 2.833 . S
C1072 O1052 1.251 . S
C1072 O1057 1.256 . S
C1072 C1065 1.500 . S
C1073 H1038 0.929 . S
C1073 C1051 1.444 . S
C1073 C1074 1.317 . S
C1074 H1036 0.930 . S
C1074 C1042 1.432 . S
C1074 C1073 1.317 . S
C1075 O1059 1.283 . S
C1075 O1062 1.243 . S
C1076 C1077 1.382 . S
C1076 C1080 1.393 . S
C1076 C1083 1.500 . S
C1077 C1076 1.382 . S
C1077 C1078 1.400 . S
C1077 H1088 0.930 . S
C1078 C1077 1.400 . S
C1078 C1079 1.384 . S
C1079 C1078 1.384 . S
C1079 C1081 1.392 . S
C1079 H1089 0.931 . S
C1080 C1076 1.393 . S
C1080 C1081 1.401 . S
C1080 H1090 0.930 1_554 S
C1081 C1079 1.392 . S
C1081 C1080 1.401 . S
C1081 H1091 0.930 . S
C1082 O1060 1.262 . S
C1082 O1061 1.260 . S
C1083 Tb1019 2.836 . S
C1083 O1058 1.251 . S
C1083 O1063 1.256 . S
C1083 C1076 1.500 . S
H1084 C1067 0.930 1_556 S
H1085 C1068 0.931 . S
H1086 C1069 0.930 . S
H1087 C1070 0.930 . S
H1088 C1077 0.930 . S
H1089 C1079 0.931 . S
H1090 C1080 0.930 1_556 S
H1091 C1081 0.930 . S
Tb1092 N1123 2.660 . S
Tb1092 N1130 2.600 . S
Tb1092 O1136 2.546 . S
Tb1092 O1137 2.610 . S
Tb1092 O1139 2.320 . S
Tb1092 O1140 2.552 . S
Tb1092 O1141 2.413 . S
Tb1092 O1143 2.362 . S
Tb1092 O1144 2.421 . S
Tb1092 C1156 2.833 . S
C1093 C1096 1.432 . S
C1093 C1097 1.414 . S
C1093 N1100 1.359 . S
C1094 C1096 1.417 . S
C1094 C1098 1.432 . S
C1094 C1106 1.410 . S
C1095 C1097 1.444 . S
C1095 C1098 1.317 . S
C1095 H1118 0.929 . S
C1096 C1093 1.432 . S
C1096 C1094 1.417 . S
C1096 N1104 1.360 . S
C1097 C1093 1.414 . S
C1097 C1095 1.444 . S
C1097 C1102 1.385 . S
C1098 C1094 1.432 . S
C1098 C1095 1.317 . S
C1098 H1110 0.930 . S
C1099 C1101 1.392 . S
C1099 C1102 1.370 . S
C1099 H1111 0.931 . S
N1100 C1093 1.359 . S
N1100 C1101 1.327 . S
N1100 Tb1103 2.600 . S
C1101 C1099 1.392 . S
C1101 N1100 1.327 . S
C1101 H1108 0.930 . S
C1102 C1097 1.385 . S
C1102 C1099 1.370 . S
C1102 H1121 0.930 . S
Tb1103 N1100 2.600 . S
Tb1103 N1104 2.660 . S
Tb1103 O1137 2.362 . S
Tb1103 O1138 2.421 . S
Tb1103 O1142 2.546 . S
Tb1103 O1143 2.610 . S
Tb1103 O1145 2.320 . S
Tb1103 O1146 2.552 . S
Tb1103 O1147 2.413 . S
Tb1103 C1167 2.833 . S
N1104 C1096 1.360 . S
N1104 Tb1103 2.660 . S
N1104 C1105 1.305 . S
C1105 N1104 1.305 . S
C1105 C1107 1.407 . S
C1105 H1112 0.930 . S
C1106 C1094 1.410 . S
C1106 C1107 1.345 . S
C1106 H1114 0.930 . S
C1107 C1105 1.407 . S
C1107 C1106 1.345 . S
C1107 H1109 0.930 . S
H1108 C1101 0.930 . S
H1109 C1107 0.930 . S
H1110 C1098 0.930 . S
H1111 C1099 0.931 . S
H1112 C1105 0.930 . S
H1113 C1127 0.930 . S
H1114 C1106 0.930 . S
H1115 C1133 0.930 . S
H1116 C1124 0.930 . S
H1117 C1131 0.931 . S
H1118 C1095 0.929 . S
H1119 C1125 0.930 . S
H1120 C1158 0.930 . S
H1121 C1102 0.930 . S
H1122 C1157 0.929 . S
N1123 Tb1092 2.660 . S
N1123 C1124 1.305 . S
N1123 C1128 1.360 . S
C1124 H1116 0.930 . S
C1124 N1123 1.305 . S
C1124 C1127 1.407 . S
C1125 H1119 0.930 . S
C1125 C1126 1.410 . S
C1125 C1127 1.345 . S
C1126 C1125 1.410 . S
C1126 C1128 1.417 . S
C1126 C1158 1.432 . S
C1127 H1113 0.930 . S
C1127 C1124 1.407 . S
C1127 C1125 1.345 . S
C1128 N1123 1.360 . S
C1128 C1126 1.417 . S
C1128 C1132 1.432 . S
H1129 C1134 0.930 . S
N1130 Tb1092 2.600 . S
N1130 C1132 1.359 . S
N1130 C1133 1.327 . S
C1131 H1117 0.931 . S
C1131 C1133 1.392 . S
C1131 C1134 1.370 . S
C1132 C1128 1.432 . S
C1132 N1130 1.359 . S
C1132 C1135 1.414 . S
C1133 H1115 0.930 . S
C1133 N1130 1.327 . S
C1133 C1131 1.392 . S
C1134 H1129 0.930 . S
C1134 C1131 1.370 . S
C1134 C1135 1.385 . S
C1135 C1132 1.414 . S
C1135 C1134 1.385 . S
C1135 C1157 1.444 . S
O1136 Tb1092 2.546 . S
O1136 C1156 1.251 . S
O1137 Tb1092 2.610 . S
O1137 Tb1103 2.362 . S
O1137 C1148 1.283 . S
O1138 Tb1103 2.421 . S
O1138 C1155 1.262 . S
O1139 Tb1092 2.320 . S
O1139 C1155 1.260 . S
O1140 Tb1092 2.552 . S
O1140 C1148 1.243 . S
O1141 Tb1092 2.413 . S
O1141 C1156 1.256 . S
O1142 Tb1103 2.546 . S
O1142 C1167 1.251 . S
O1143 Tb1092 2.362 . S
O1143 Tb1103 2.610 . S
O1143 C1159 1.283 . S
O1144 Tb1092 2.421 . S
O1144 C1166 1.262 . S
O1145 Tb1103 2.320 . S
O1145 C1166 1.260 . S
O1146 Tb1103 2.552 . S
O1146 C1159 1.243 . S
O1147 Tb1103 2.413 . S
O1147 C1167 1.256 . S
C1148 O1137 1.283 . S
C1148 O1140 1.243 . S
C1149 C1151 1.382 . S
C1149 C1153 1.393 . S
C1149 C1156 1.500 . S
C1150 C1151 1.400 1_455 S
C1150 C1152 1.384 . S
C1151 C1149 1.382 . S
C1151 C1150 1.400 1_655 S
C1151 H1168 0.930 . S
C1152 C1150 1.384 . S
C1152 C1154 1.392 . S
C1152 H1169 0.931 . S
C1153 C1149 1.393 . S
C1153 C1154 1.401 1_655 S
C1153 H1170 0.930 . S
C1154 C1152 1.392 . S
C1154 C1153 1.401 1_455 S
C1154 H1171 0.930 . S
C1155 O1138 1.262 . S
C1155 O1139 1.260 . S
C1156 Tb1092 2.833 . S
C1156 O1136 1.251 . S
C1156 O1141 1.256 . S
C1156 C1149 1.500 . S
C1157 H1122 0.929 . S
C1157 C1135 1.444 . S
C1157 C1158 1.317 . S
C1158 H1120 0.930 . S
C1158 C1126 1.432 . S
C1158 C1157 1.317 . S
C1159 O1143 1.283 . S
C1159 O1146 1.243 . S
C1160 C1161 1.382 . S
C1160 C1164 1.393 . S
C1160 C1167 1.500 . S
C1161 C1160 1.382 . S
C1161 C1162 1.400 . S
C1161 H1172 0.930 . S
C1162 C1161 1.400 . S
C1162 C1163 1.384 . S
C1163 C1162 1.384 . S
C1163 C1165 1.392 . S
C1163 H1173 0.931 . S
C1164 C1160 1.393 . S
C1164 C1165 1.401 . S
C1164 H1174 0.930 . S
C1165 C1163 1.392 . S
C1165 C1164 1.401 . S
C1165 H1175 0.930 . S
C1166 O1144 1.262 . S
C1166 O1145 1.260 . S
C1167 Tb1103 2.833 . S
C1167 O1142 1.251 . S
C1167 O1147 1.256 . S
C1167 C1160 1.500 . S
H1168 C1151 0.930 . S
H1169 C1152 0.931 . S
H1170 C1153 0.930 . S
H1171 C1154 0.930 . S
H1172 C1161 0.930 . S
H1173 C1163 0.931 . S
H1174 C1164 0.930 . S
H1175 C1165 0.930 . S
Tb1176 N1207 2.660 . S
Tb1176 N1214 2.600 . S
Tb1176 O1220 2.546 . S
Tb1176 O1221 2.610 . S
Tb1176 O1223 2.320 . S
Tb1176 O1224 2.552 . S
Tb1176 O1225 2.413 . S
Tb1176 O1227 2.362 . S
Tb1176 O1228 2.421 . S
Tb1176 C1240 2.833 . S
C1177 C1180 1.432 1_455 S
C1177 C1181 1.411 1_455 S
C1177 N1184 1.361 . S
C1178 C1180 1.417 . S
C1178 C1182 1.432 . S
C1178 C1190 1.410 . S
C1179 C1181 1.444 . S
C1179 C1182 1.317 . S
C1179 H1202 0.929 . S
C1180 C1177 1.432 1_655 S
C1180 C1178 1.417 . S
C1180 N1188 1.360 1_655 S
C1181 C1177 1.411 1_655 S
C1181 C1179 1.444 . S
C1181 C1186 1.385 . S
C1182 C1178 1.432 . S
C1182 C1179 1.317 . S
C1182 H1194 0.930 . S
C1183 C1185 1.392 . S
C1183 C1186 1.370 1_455 S
C1183 H1195 0.931 . S
N1184 C1177 1.361 . S
N1184 C1185 1.327 . S
N1184 Tb1187 2.600 . S
C1185 C1183 1.392 . S
C1185 N1184 1.327 . S
C1185 H1192 0.930 . S
C1186 C1181 1.385 . S
C1186 C1183 1.370 1_655 S
C1186 H1205 0.930 . S
Tb1187 N1184 2.600 . S
Tb1187 N1188 2.660 . S
Tb1187 O1221 2.362 . S
Tb1187 O1222 2.421 . S
Tb1187 O1226 2.546 . S
Tb1187 O1227 2.610 . S
Tb1187 O1229 2.320 . S
Tb1187 O1230 2.552 . S
Tb1187 O1231 2.413 . S
Tb1187 C1251 2.833 . S
N1188 C1180 1.360 1_455 S
N1188 Tb1187 2.660 . S
N1188 C1189 1.305 . S
C1189 N1188 1.305 . S
C1189 C1191 1.407 1_455 S
C1189 H1196 0.930 . S
C1190 C1178 1.410 . S
C1190 C1191 1.345 . S
C1190 H1198 0.930 . S
C1191 C1189 1.407 1_655 S
C1191 C1190 1.345 . S
C1191 H1193 0.930 . S
H1192 C1185 0.930 . S
H1193 C1191 0.930 . S
H1194 C1182 0.930 . S
H1195 C1183 0.931 . S
H1196 C1189 0.930 . S
H1197 C1211 0.930 . S
H1198 C1190 0.930 . S
H1199 C1217 0.930 . S
H1200 C1208 0.930 . S
H1201 C1215 0.931 . S
H1202 C1179 0.929 . S
H1203 C1209 0.930 . S
H1204 C1242 0.930 . S
H1205 C1186 0.930 . S
H1206 C1241 0.929 . S
N1207 Tb1176 2.660 . S
N1207 C1208 1.305 . S
N1207 C1212 1.360 . S
C1208 H1200 0.930 . S
C1208 N1207 1.305 . S
C1208 C1211 1.407 . S
C1209 H1203 0.930 . S
C1209 C1210 1.410 . S
C1209 C1211 1.345 . S
C1210 C1209 1.410 . S
C1210 C1212 1.417 . S
C1210 C1242 1.432 . S
C1211 H1197 0.930 . S
C1211 C1208 1.407 . S
C1211 C1209 1.345 . S
C1212 N1207 1.360 . S
C1212 C1210 1.417 . S
C1212 C1216 1.432 . S
H1213 C1218 0.930 . S
N1214 Tb1176 2.600 . S
N1214 C1216 1.359 . S
N1214 C1217 1.327 . S
C1215 H1201 0.931 . S
C1215 C1217 1.392 . S
C1215 C1218 1.370 . S
C1216 C1212 1.432 . S
C1216 N1214 1.359 . S
C1216 C1219 1.414 . S
C1217 H1199 0.930 . S
C1217 N1214 1.327 . S
C1217 C1215 1.392 . S
C1218 H1213 0.930 . S
C1218 C1215 1.370 . S
C1218 C1219 1.385 . S
C1219 C1216 1.414 . S
C1219 C1218 1.385 . S
C1219 C1241 1.444 . S
O1220 Tb1176 2.546 . S
O1220 C1240 1.251 . S
O1221 Tb1176 2.610 . S
O1221 Tb1187 2.362 . S
O1221 C1232 1.283 . S
O1222 Tb1187 2.421 . S
O1222 C1239 1.262 . S
O1223 Tb1176 2.320 . S
O1223 C1239 1.260 . S
O1224 Tb1176 2.552 . S
O1224 C1232 1.243 . S
O1225 Tb1176 2.413 . S
O1225 C1240 1.256 . S
O1226 Tb1187 2.546 . S
O1226 C1251 1.251 . S
O1227 Tb1176 2.362 . S
O1227 Tb1187 2.610 . S
O1227 C1243 1.283 . S
O1228 Tb1176 2.421 . S
O1228 C1250 1.262 . S
O1229 Tb1187 2.320 . S
O1229 C1250 1.260 . S
O1230 Tb1187 2.552 . S
O1230 C1243 1.243 . S
O1231 Tb1187 2.413 . S
O1231 C1251 1.256 . S
C1232 O1221 1.283 . S
C1232 O1224 1.243 . S
C1233 C1235 1.382 . S
C1233 C1237 1.393 . S
C1233 C1240 1.500 . S
C1234 C1235 1.400 . S
C1234 C1236 1.384 . S
C1235 C1233 1.382 . S
C1235 C1234 1.400 . S
C1235 H1252 0.930 . S
C1236 C1234 1.384 . S
C1236 C1238 1.392 . S
C1236 H1253 0.931 1_455 S
C1237 C1233 1.393 . S
C1237 C1238 1.401 . S
C1237 H1254 0.930 . S
C1238 C1236 1.392 . S
C1238 C1237 1.401 . S
C1238 H1255 0.930 . S
C1239 O1222 1.262 . S
C1239 O1223 1.260 . S
C1240 Tb1176 2.833 . S
C1240 O1220 1.251 . S
C1240 O1225 1.256 . S
C1240 C1233 1.500 . S
C1241 H1206 0.929 . S
C1241 C1219 1.444 . S
C1241 C1242 1.317 . S
C1242 H1204 0.930 . S
C1242 C1210 1.432 . S
C1242 C1241 1.317 . S
C1243 O1227 1.283 . S
C1243 O1230 1.243 . S
C1244 C1245 1.382 . S
C1244 C1248 1.393 . S
C1244 C1251 1.500 . S
C1245 C1244 1.382 . S
C1245 C1246 1.400 . S
C1245 H1256 0.930 . S
C1246 C1245 1.400 . S
C1246 C1247 1.384 . S
C1247 C1246 1.384 . S
C1247 C1249 1.392 . S
C1247 H1257 0.931 . S
C1248 C1244 1.393 . S
C1248 C1249 1.401 . S
C1248 H1258 0.930 . S
C1249 C1247 1.392 . S
C1249 C1248 1.401 . S
C1249 H1259 0.930 . S
C1250 O1228 1.262 . S
C1250 O1229 1.260 . S
C1251 Tb1187 2.833 . S
C1251 O1226 1.251 . S
C1251 O1231 1.256 . S
C1251 C1244 1.500 . S
H1252 C1235 0.930 . S
H1253 C1236 0.931 1_655 S
H1254 C1237 0.930 . S
H1255 C1238 0.930 . S
H1256 C1245 0.930 . S
H1257 C1247 0.931 . S
H1258 C1248 0.930 . S
H1259 C1249 0.930 . S
Tb1260 N1291 2.660 . S
Tb1260 N1298 2.600 . S
Tb1260 O1304 2.546 . S
Tb1260 O1305 2.610 . S
Tb1260 O1307 2.320 . S
Tb1260 O1308 2.552 . S
Tb1260 O1309 2.413 . S
Tb1260 O1311 2.362 . S
Tb1260 O1312 2.421 . S
Tb1260 C1324 2.833 . S
C1261 C1264 1.432 . S
C1261 C1265 1.414 . S
C1261 N1268 1.359 . S
C1262 C1264 1.417 . S
C1262 C1266 1.432 . S
C1262 C1274 1.410 . S
C1263 C1265 1.444 . S
C1263 C1266 1.317 . S
C1263 H1286 0.929 . S
C1264 C1261 1.432 . S
C1264 C1262 1.417 . S
C1264 N1272 1.360 . S
C1265 C1261 1.414 . S
C1265 C1263 1.444 . S
C1265 C1270 1.385 . S
C1266 C1262 1.432 . S
C1266 C1263 1.317 . S
C1266 H1278 0.930 . S
C1267 C1269 1.392 . S
C1267 C1270 1.370 . S
C1267 H1279 0.931 . S
N1268 C1261 1.359 . S
N1268 C1269 1.327 . S
N1268 Tb1271 2.600 . S
C1269 C1267 1.392 . S
C1269 N1268 1.327 . S
C1269 H1276 0.930 . S
C1270 C1265 1.385 . S
C1270 C1267 1.370 . S
C1270 H1289 0.930 . S
Tb1271 N1268 2.600 . S
Tb1271 N1272 2.660 . S
Tb1271 O1305 2.362 . S
Tb1271 O1306 2.421 . S
Tb1271 O1310 2.546 . S
Tb1271 O1311 2.610 . S
Tb1271 O1313 2.320 . S
Tb1271 O1314 2.552 . S
Tb1271 O1315 2.413 . S
Tb1271 C1335 2.833 . S
N1272 C1264 1.360 . S
N1272 Tb1271 2.660 . S
N1272 C1273 1.305 . S
C1273 N1272 1.305 . S
C1273 C1275 1.407 . S
C1273 H1280 0.930 . S
C1274 C1262 1.410 . S
C1274 C1275 1.345 . S
C1274 H1282 0.930 . S
C1275 C1273 1.407 . S
C1275 C1274 1.345 . S
C1275 H1277 0.930 . S
H1276 C1269 0.930 . S
H1277 C1275 0.930 . S
H1278 C1266 0.930 . S
H1279 C1267 0.931 . S
H1280 C1273 0.930 . S
H1281 C1295 0.930 . S
H1282 C1274 0.930 . S
H1283 C1301 0.930 . S
H1284 C1292 0.930 . S
H1285 C1299 0.931 . S
H1286 C1263 0.929 . S
H1287 C1293 0.930 . S
H1288 C1326 0.930 . S
H1289 C1270 0.930 . S
H1290 C1325 0.929 . S
N1291 Tb1260 2.660 . S
N1291 C1292 1.305 . S
N1291 C1296 1.360 . S
C1292 H1284 0.930 . S
C1292 N1291 1.305 . S
C1292 C1295 1.407 . S
C1293 H1287 0.930 . S
C1293 C1294 1.410 . S
C1293 C1295 1.345 . S
C1294 C1293 1.410 . S
C1294 C1296 1.417 . S
C1294 C1326 1.432 . S
C1295 H1281 0.930 . S
C1295 C1292 1.407 . S
C1295 C1293 1.345 . S
C1296 N1291 1.360 . S
C1296 C1294 1.417 . S
C1296 C1300 1.432 . S
H1297 C1302 0.930 . S
N1298 Tb1260 2.600 . S
N1298 C1300 1.359 . S
N1298 C1301 1.327 . S
C1299 H1285 0.931 . S
C1299 C1301 1.392 . S
C1299 C1302 1.370 . S
C1300 C1296 1.432 . S
C1300 N1298 1.359 . S
C1300 C1303 1.414 . S
C1301 H1283 0.930 . S
C1301 N1298 1.327 . S
C1301 C1299 1.392 . S
C1302 H1297 0.930 . S
C1302 C1299 1.370 . S
C1302 C1303 1.385 . S
C1303 C1300 1.414 . S
C1303 C1302 1.385 . S
C1303 C1325 1.444 . S
O1304 Tb1260 2.546 . S
O1304 C1324 1.251 . S
O1305 Tb1260 2.610 . S
O1305 Tb1271 2.362 . S
O1305 C1316 1.283 . S
O1306 Tb1271 2.421 . S
O1306 C1323 1.262 . S
O1307 Tb1260 2.320 . S
O1307 C1323 1.260 . S
O1308 Tb1260 2.552 . S
O1308 C1316 1.243 . S
O1309 Tb1260 2.413 . S
O1309 C1324 1.256 . S
O1310 Tb1271 2.546 . S
O1310 C1335 1.251 . S
O1311 Tb1260 2.362 . S
O1311 Tb1271 2.610 . S
O1311 C1327 1.283 . S
O1312 Tb1260 2.421 . S
O1312 C1334 1.262 . S
O1313 Tb1271 2.320 . S
O1313 C1334 1.260 . S
O1314 Tb1271 2.552 . S
O1314 C1327 1.243 . S
O1315 Tb1271 2.413 . S
O1315 C1335 1.256 . S
C1316 O1305 1.283 . S
C1316 O1308 1.243 . S
C1317 C1319 1.382 . S
C1317 C1321 1.393 . S
C1317 C1324 1.500 . S
C1318 C1319 1.400 . S
C1318 C1320 1.384 . S
C1319 C1317 1.382 . S
C1319 C1318 1.400 . S
C1319 H1336 0.930 . S
C1320 C1318 1.384 . S
C1320 C1322 1.392 . S
C1320 H1337 0.931 . S
C1321 C1317 1.393 . S
C1321 C1322 1.401 . S
C1321 H1338 0.930 . S
C1322 C1320 1.392 . S
C1322 C1321 1.401 . S
C1322 H1339 0.930 . S
C1323 O1306 1.262 . S
C1323 O1307 1.260 . S
C1324 Tb1260 2.833 . S
C1324 O1304 1.251 . S
C1324 O1309 1.256 . S
C1324 C1317 1.500 . S
C1325 H1290 0.929 . S
C1325 C1303 1.444 . S
C1325 C1326 1.317 . S
C1326 H1288 0.930 . S
C1326 C1294 1.432 . S
C1326 C1325 1.317 . S
C1327 O1311 1.283 . S
C1327 O1314 1.243 . S
C1328 C1329 1.382 . S
C1328 C1332 1.393 . S
C1328 C1335 1.500 . S
C1329 C1328 1.382 . S
C1329 C1330 1.400 . S
C1329 H1340 0.930 . S
C1330 C1329 1.400 . S
C1330 C1331 1.384 . S
C1331 C1330 1.384 . S
C1331 C1333 1.392 . S
C1331 H1341 0.931 1_655 S
C1332 C1328 1.393 . S
C1332 C1333 1.401 . S
C1332 H1342 0.930 . S
C1333 C1331 1.392 . S
C1333 C1332 1.401 . S
C1333 H1343 0.930 . S
C1334 O1312 1.262 . S
C1334 O1313 1.260 . S
C1335 Tb1271 2.833 . S
C1335 O1310 1.251 . S
C1335 O1315 1.256 . S
C1335 C1328 1.500 . S
H1336 C1319 0.930 . S
H1337 C1320 0.931 . S
H1338 C1321 0.930 . S
H1339 C1322 0.930 . S
H1340 C1329 0.930 . S
H1341 C1331 0.931 1_455 S
H1342 C1332 0.930 . S
H1343 C1333 0.930 . S
Tb1344 N1375 2.660 . S
Tb1344 N1382 2.600 . S
Tb1344 O1388 2.546 . S
Tb1344 O1389 2.610 . S
Tb1344 O1391 2.320 . S
Tb1344 O1392 2.552 . S
Tb1344 O1393 2.413 . S
Tb1344 O1395 2.362 . S
Tb1344 O1396 2.421 . S
Tb1344 C1408 2.833 . S
C1345 C1348 1.432 . S
C1345 C1349 1.414 . S
C1345 N1352 1.359 . S
C1346 C1348 1.417 . S
C1346 C1350 1.432 . S
C1346 C1358 1.410 . S
C1347 C1349 1.444 . S
C1347 C1350 1.317 . S
C1347 H1370 0.929 . S
C1348 C1345 1.432 . S
C1348 C1346 1.417 . S
C1348 N1356 1.360 . S
C1349 C1345 1.414 . S
C1349 C1347 1.444 . S
C1349 C1354 1.385 . S
C1350 C1346 1.432 . S
C1350 C1347 1.317 . S
C1350 H1362 0.930 . S
C1351 C1353 1.392 . S
C1351 C1354 1.370 . S
C1351 H1363 0.931 . S
N1352 C1345 1.359 . S
N1352 C1353 1.327 . S
N1352 Tb1355 2.600 . S
C1353 C1351 1.392 . S
C1353 N1352 1.327 . S
C1353 H1360 0.930 . S
C1354 C1349 1.385 . S
C1354 C1351 1.370 . S
C1354 H1373 0.930 . S
Tb1355 N1352 2.600 . S
Tb1355 N1356 2.660 . S
Tb1355 O1389 2.362 . S
Tb1355 O1390 2.421 . S
Tb1355 O1394 2.546 . S
Tb1355 O1395 2.610 . S
Tb1355 O1397 2.320 . S
Tb1355 O1398 2.552 . S
Tb1355 O1399 2.413 . S
Tb1355 C1419 2.833 . S
N1356 C1348 1.360 . S
N1356 Tb1355 2.660 . S
N1356 C1357 1.305 . S
C1357 N1356 1.305 . S
C1357 C1359 1.407 . S
C1357 H1364 0.930 . S
C1358 C1346 1.410 . S
C1358 C1359 1.345 . S
C1358 H1366 0.930 . S
C1359 C1357 1.407 . S
C1359 C1358 1.345 . S
C1359 H1361 0.930 . S
H1360 C1353 0.930 . S
H1361 C1359 0.930 . S
H1362 C1350 0.930 . S
H1363 C1351 0.931 . S
H1364 C1357 0.930 . S
H1365 C1379 0.930 . S
H1366 C1358 0.930 . S
H1367 C1385 0.930 . S
H1368 C1376 0.930 . S
H1369 C1383 0.931 . S
H1370 C1347 0.929 . S
H1371 C1377 0.930 . S
H1372 C1410 0.930 . S
H1373 C1354 0.930 . S
H1374 C1409 0.929 . S
N1375 Tb1344 2.660 . S
N1375 C1376 1.305 . S
N1375 C1380 1.360 . S
C1376 H1368 0.930 . S
C1376 N1375 1.305 . S
C1376 C1379 1.407 . S
C1377 H1371 0.930 . S
C1377 C1378 1.410 . S
C1377 C1379 1.345 . S
C1378 C1377 1.410 . S
C1378 C1380 1.417 . S
C1378 C1410 1.432 . S
C1379 H1365 0.930 . S
C1379 C1376 1.407 . S
C1379 C1377 1.345 . S
C1380 N1375 1.360 . S
C1380 C1378 1.417 . S
C1380 C1384 1.432 . S
H1381 C1386 0.930 . S
N1382 Tb1344 2.600 . S
N1382 C1384 1.359 . S
N1382 C1385 1.327 . S
C1383 H1369 0.931 . S
C1383 C1385 1.392 . S
C1383 C1386 1.370 . S
C1384 C1380 1.432 . S
C1384 N1382 1.359 . S
C1384 C1387 1.414 . S
C1385 H1367 0.930 . S
C1385 N1382 1.327 . S
C1385 C1383 1.392 . S
C1386 H1381 0.930 . S
C1386 C1383 1.370 . S
C1386 C1387 1.385 . S
C1387 C1384 1.414 . S
C1387 C1386 1.385 . S
C1387 C1409 1.444 . S
O1388 Tb1344 2.546 . S
O1388 C1408 1.251 . S
O1389 Tb1344 2.610 . S
O1389 Tb1355 2.362 . S
O1389 C1400 1.283 . S
O1390 Tb1355 2.421 . S
O1390 C1407 1.262 . S
O1391 Tb1344 2.320 . S
O1391 C1407 1.260 . S
O1392 Tb1344 2.552 . S
O1392 C1400 1.243 . S
O1393 Tb1344 2.413 . S
O1393 C1408 1.256 . S
O1394 Tb1355 2.546 . S
O1394 C1419 1.251 . S
O1395 Tb1344 2.362 . S
O1395 Tb1355 2.610 . S
O1395 C1411 1.283 . S
O1396 Tb1344 2.421 . S
O1396 C1418 1.262 . S
O1397 Tb1355 2.320 . S
O1397 C1418 1.260 . S
O1398 Tb1355 2.552 . S
O1398 C1411 1.243 . S
O1399 Tb1355 2.413 . S
O1399 C1419 1.256 . S
C1400 O1389 1.283 . S
C1400 O1392 1.243 . S
C1401 C1403 1.382 . S
C1401 C1405 1.393 . S
C1401 C1408 1.500 . S
C1402 C1403 1.400 . S
C1402 C1404 1.384 . S
C1403 C1401 1.382 . S
C1403 C1402 1.400 . S
C1403 H1420 0.930 . S
C1404 C1402 1.384 . S
C1404 C1406 1.392 . S
C1404 H1421 0.931 . S
C1405 C1401 1.393 . S
C1405 C1406 1.401 . S
C1405 H1422 0.930 . S
C1406 C1404 1.392 . S
C1406 C1405 1.401 . S
C1406 H1423 0.930 . S
C1407 O1390 1.262 . S
C1407 O1391 1.260 . S
C1408 Tb1344 2.833 . S
C1408 O1388 1.251 . S
C1408 O1393 1.256 . S
C1408 C1401 1.500 . S
C1409 H1374 0.929 . S
C1409 C1387 1.444 . S
C1409 C1410 1.317 . S
C1410 H1372 0.930 . S
C1410 C1378 1.432 . S
C1410 C1409 1.317 . S
C1411 O1395 1.283 . S
C1411 O1398 1.243 . S
C1412 C1413 1.382 . S
C1412 C1416 1.393 . S
C1412 C1419 1.500 . S
C1413 C1412 1.382 . S
C1413 C1414 1.400 . S
C1413 H1424 0.930 . S
C1414 C1413 1.400 . S
C1414 C1415 1.384 . S
C1415 C1414 1.384 . S
C1415 C1417 1.392 . S
C1415 H1425 0.931 . S
C1416 C1412 1.393 . S
C1416 C1417 1.401 . S
C1416 H1426 0.930 . S
C1417 C1415 1.392 . S
C1417 C1416 1.401 . S
C1417 H1427 0.930 . S
C1418 O1396 1.262 . S
C1418 O1397 1.260 . S
C1419 Tb1355 2.833 . S
C1419 O1394 1.251 . S
C1419 O1399 1.256 . S
C1419 C1412 1.500 . S
H1420 C1403 0.930 . S
H1421 C1404 0.931 . S
H1422 C1405 0.930 . S
H1423 C1406 0.930 . S
H1424 C1413 0.930 . S
H1425 C1415 0.931 . S
H1426 C1416 0.930 . S
H1427 C1417 0.930 . S
Tb1428 N1459 2.660 . S
Tb1428 N1466 2.600 . S
Tb1428 O1472 2.546 . S
Tb1428 O1473 2.610 . S
Tb1428 O1475 2.320 . S
Tb1428 O1476 2.552 . S
Tb1428 O1477 2.413 . S
Tb1428 O1479 2.362 . S
Tb1428 O1480 2.421 . S
Tb1428 C1492 2.833 . S
C1429 C1432 1.432 . S
C1429 C1433 1.414 . S
C1429 N1436 1.359 . S
C1430 C1432 1.417 . S
C1430 C1434 1.432 . S
C1430 C1442 1.410 . S
C1431 C1433 1.444 . S
C1431 C1434 1.317 . S
C1431 H1454 0.929 . S
C1432 C1429 1.432 . S
C1432 C1430 1.417 . S
C1432 N1440 1.360 . S
C1433 C1429 1.414 . S
C1433 C1431 1.444 . S
C1433 C1438 1.385 . S
C1434 C1430 1.432 . S
C1434 C1431 1.317 . S
C1434 H1446 0.930 . S
C1435 C1437 1.392 . S
C1435 C1438 1.370 . S
C1435 H1447 0.931 . S
N1436 C1429 1.359 . S
N1436 C1437 1.327 . S
N1436 Tb1439 2.600 . S
C1437 C1435 1.392 . S
C1437 N1436 1.327 . S
C1437 H1444 0.930 . S
C1438 C1433 1.385 . S
C1438 C1435 1.370 . S
C1438 H1457 0.930 . S
Tb1439 N1436 2.600 . S
Tb1439 N1440 2.660 . S
Tb1439 O1473 2.362 . S
Tb1439 O1474 2.421 . S
Tb1439 O1478 2.546 . S
Tb1439 O1479 2.610 . S
Tb1439 O1481 2.320 . S
Tb1439 O1482 2.552 . S
Tb1439 O1483 2.413 . S
Tb1439 C1503 2.833 . S
N1440 C1432 1.360 . S
N1440 Tb1439 2.660 . S
N1440 C1441 1.305 . S
C1441 N1440 1.305 . S
C1441 C1443 1.407 . S
C1441 H1448 0.930 . S
C1442 C1430 1.410 . S
C1442 C1443 1.345 . S
C1442 H1450 0.930 . S
C1443 C1441 1.407 . S
C1443 C1442 1.345 . S
C1443 H1445 0.930 . S
H1444 C1437 0.930 . S
H1445 C1443 0.930 . S
H1446 C1434 0.930 . S
H1447 C1435 0.931 . S
H1448 C1441 0.930 . S
H1449 C1463 0.930 . S
H1450 C1442 0.930 . S
H1451 C1469 0.930 . S
H1452 C1460 0.930 . S
H1453 C1467 0.931 . S
H1454 C1431 0.929 . S
H1455 C1461 0.930 . S
H1456 C1494 0.930 . S
H1457 C1438 0.930 . S
H1458 C1493 0.929 . S
N1459 Tb1428 2.660 . S
N1459 C1460 1.305 . S
N1459 C1464 1.360 . S
C1460 H1452 0.930 . S
C1460 N1459 1.305 . S
C1460 C1463 1.407 . S
C1461 H1455 0.930 . S
C1461 C1462 1.410 . S
C1461 C1463 1.345 . S
C1462 C1461 1.410 . S
C1462 C1464 1.417 . S
C1462 C1494 1.432 . S
C1463 H1449 0.930 . S
C1463 C1460 1.407 . S
C1463 C1461 1.345 . S
C1464 N1459 1.360 . S
C1464 C1462 1.417 . S
C1464 C1468 1.432 . S
H1465 C1470 0.930 . S
N1466 Tb1428 2.600 . S
N1466 C1468 1.359 . S
N1466 C1469 1.327 . S
C1467 H1453 0.931 . S
C1467 C1469 1.392 . S
C1467 C1470 1.370 . S
C1468 C1464 1.432 . S
C1468 N1466 1.359 . S
C1468 C1471 1.414 . S
C1469 H1451 0.930 . S
C1469 N1466 1.327 . S
C1469 C1467 1.392 . S
C1470 H1465 0.930 . S
C1470 C1467 1.370 . S
C1470 C1471 1.385 . S
C1471 C1468 1.414 . S
C1471 C1470 1.385 . S
C1471 C1493 1.444 . S
O1472 Tb1428 2.546 . S
O1472 C1492 1.251 . S
O1473 Tb1428 2.610 . S
O1473 Tb1439 2.362 . S
O1473 C1484 1.283 . S
O1474 Tb1439 2.421 . S
O1474 C1491 1.262 . S
O1475 Tb1428 2.320 . S
O1475 C1491 1.260 . S
O1476 Tb1428 2.552 . S
O1476 C1484 1.243 . S
O1477 Tb1428 2.413 . S
O1477 C1492 1.256 . S
O1478 Tb1439 2.546 . S
O1478 C1503 1.251 . S
O1479 Tb1428 2.362 . S
O1479 Tb1439 2.610 . S
O1479 C1495 1.283 . S
O1480 Tb1428 2.421 . S
O1480 C1502 1.262 . S
O1481 Tb1439 2.320 . S
O1481 C1502 1.260 . S
O1482 Tb1439 2.552 . S
O1482 C1495 1.243 . S
O1483 Tb1439 2.413 . S
O1483 C1503 1.256 . S
C1484 O1473 1.283 . S
C1484 O1476 1.243 . S
C1485 C1487 1.382 . S
C1485 C1489 1.393 . S
C1485 C1492 1.500 . S
C1486 C1487 1.400 . S
C1486 C1488 1.384 . S
C1487 C1485 1.382 . S
C1487 C1486 1.400 . S
C1487 H1504 0.930 . S
C1488 C1486 1.384 . S
C1488 C1490 1.392 . S
C1488 H1505 0.931 1_565 S
C1489 C1485 1.393 . S
C1489 C1490 1.401 . S
C1489 H1506 0.930 . S
C1490 C1488 1.392 . S
C1490 C1489 1.401 . S
C1490 H1507 0.930 . S
C1491 O1474 1.262 . S
C1491 O1475 1.260 . S
C1492 Tb1428 2.833 . S
C1492 O1472 1.251 . S
C1492 O1477 1.256 . S
C1492 C1485 1.500 . S
C1493 H1458 0.929 . S
C1493 C1471 1.444 . S
C1493 C1494 1.317 . S
C1494 H1456 0.930 . S
C1494 C1462 1.432 . S
C1494 C1493 1.317 . S
C1495 O1479 1.283 . S
C1495 O1482 1.243 . S
C1496 C1497 1.382 . S
C1496 C1500 1.393 . S
C1496 C1503 1.500 . S
C1497 C1496 1.382 . S
C1497 C1498 1.400 . S
C1497 H1508 0.930 . S
C1498 C1497 1.400 . S
C1498 C1499 1.384 . S
C1499 C1498 1.384 . S
C1499 C1501 1.392 . S
C1499 H1509 0.931 . S
C1500 C1496 1.393 . S
C1500 C1501 1.401 . S
C1500 H1510 0.930 . S
C1501 C1499 1.392 . S
C1501 C1500 1.401 . S
C1501 H1511 0.930 . S
C1502 O1480 1.262 . S
C1502 O1481 1.260 . S
C1503 Tb1439 2.833 . S
C1503 O1478 1.251 . S
C1503 O1483 1.256 . S
C1503 C1496 1.500 . S
H1504 C1487 0.930 . S
H1505 C1488 0.931 1_545 S
H1506 C1489 0.930 . S
H1507 C1490 0.930 . S
H1508 C1497 0.930 . S
H1509 C1499 0.931 . S
H1510 C1500 0.930 . S
H1511 C1501 0.930 . S
Tb1512 N1543 2.660 . S
Tb1512 N1550 2.600 . S
Tb1512 O1556 2.546 . S
Tb1512 O1557 2.610 . S
Tb1512 O1559 2.320 . S
Tb1512 O1560 2.552 . S
Tb1512 O1561 2.413 . S
Tb1512 O1563 2.362 . S
Tb1512 O1564 2.421 . S
Tb1512 C1576 2.833 . S
C1513 C1516 1.432 . S
C1513 C1517 1.414 . S
C1513 N1520 1.359 . S
C1514 C1516 1.417 . S
C1514 C1518 1.432 . S
C1514 C1526 1.410 . S
C1515 C1517 1.444 . S
C1515 C1518 1.317 . S
C1515 H1538 0.929 . S
C1516 C1513 1.432 . S
C1516 C1514 1.417 . S
C1516 N1524 1.360 . S
C1517 C1513 1.414 . S
C1517 C1515 1.444 . S
C1517 C1522 1.385 . S
C1518 C1514 1.432 . S
C1518 C1515 1.317 . S
C1518 H1530 0.930 . S
C1519 C1521 1.392 . S
C1519 C1522 1.370 . S
C1519 H1531 0.931 . S
N1520 C1513 1.359 . S
N1520 C1521 1.327 . S
N1520 Tb1523 2.600 . S
C1521 C1519 1.392 . S
C1521 N1520 1.327 . S
C1521 H1528 0.930 . S
C1522 C1517 1.385 . S
C1522 C1519 1.370 . S
C1522 H1541 0.930 . S
Tb1523 N1520 2.600 . S
Tb1523 N1524 2.660 . S
Tb1523 O1557 2.362 . S
Tb1523 O1558 2.421 . S
Tb1523 O1562 2.546 . S
Tb1523 O1563 2.610 . S
Tb1523 O1565 2.320 . S
Tb1523 O1566 2.552 . S
Tb1523 O1567 2.413 . S
Tb1523 C1587 2.833 . S
N1524 C1516 1.360 . S
N1524 Tb1523 2.660 . S
N1524 C1525 1.305 . S
C1525 N1524 1.305 . S
C1525 C1527 1.407 . S
C1525 H1532 0.930 . S
C1526 C1514 1.410 . S
C1526 C1527 1.345 . S
C1526 H1534 0.930 . S
C1527 C1525 1.407 . S
C1527 C1526 1.345 . S
C1527 H1529 0.930 . S
H1528 C1521 0.930 . S
H1529 C1527 0.930 . S
H1530 C1518 0.930 . S
H1531 C1519 0.931 . S
H1532 C1525 0.930 . S
H1533 C1547 0.930 . S
H1534 C1526 0.930 . S
H1535 C1553 0.930 . S
H1536 C1544 0.930 . S
H1537 C1551 0.931 . S
H1538 C1515 0.929 . S
H1539 C1545 0.930 . S
H1540 C1578 0.930 . S
H1541 C1522 0.930 . S
H1542 C1577 0.929 . S
N1543 Tb1512 2.660 . S
N1543 C1544 1.305 . S
N1543 C1548 1.360 . S
C1544 H1536 0.930 . S
C1544 N1543 1.305 . S
C1544 C1547 1.407 . S
C1545 H1539 0.930 . S
C1545 C1546 1.410 . S
C1545 C1547 1.345 . S
C1546 C1545 1.410 . S
C1546 C1548 1.417 . S
C1546 C1578 1.432 . S
C1547 H1533 0.930 . S
C1547 C1544 1.407 . S
C1547 C1545 1.345 . S
C1548 N1543 1.360 . S
C1548 C1546 1.417 . S
C1548 C1552 1.432 . S
H1549 C1554 0.930 . S
N1550 Tb1512 2.600 . S
N1550 C1552 1.359 . S
N1550 C1553 1.327 . S
C1551 H1537 0.931 . S
C1551 C1553 1.392 . S
C1551 C1554 1.370 . S
C1552 C1548 1.432 . S
C1552 N1550 1.359 . S
C1552 C1555 1.414 . S
C1553 H1535 0.930 . S
C1553 N1550 1.327 . S
C1553 C1551 1.392 . S
C1554 H1549 0.930 . S
C1554 C1551 1.370 . S
C1554 C1555 1.385 . S
C1555 C1552 1.414 . S
C1555 C1554 1.385 . S
C1555 C1577 1.444 . S
O1556 Tb1512 2.546 . S
O1556 C1576 1.251 . S
O1557 Tb1512 2.610 . S
O1557 Tb1523 2.362 . S
O1557 C1568 1.283 . S
O1558 Tb1523 2.421 . S
O1558 C1575 1.262 . S
O1559 Tb1512 2.320 . S
O1559 C1575 1.260 . S
O1560 Tb1512 2.552 . S
O1560 C1568 1.243 . S
O1561 Tb1512 2.413 . S
O1561 C1576 1.256 . S
O1562 Tb1523 2.546 . S
O1562 C1587 1.251 . S
O1563 Tb1512 2.362 . S
O1563 Tb1523 2.610 . S
O1563 C1579 1.283 . S
O1564 Tb1512 2.421 . S
O1564 C1586 1.262 . S
O1565 Tb1523 2.320 . S
O1565 C1586 1.260 . S
O1566 Tb1523 2.552 . S
O1566 C1579 1.243 . S
O1567 Tb1523 2.413 . S
O1567 C1587 1.256 . S
C1568 O1557 1.283 . S
C1568 O1560 1.243 . S
C1569 C1571 1.382 . S
C1569 C1573 1.393 . S
C1569 C1576 1.500 . S
C1570 C1571 1.400 . S
C1570 C1572 1.384 . S
C1571 C1569 1.382 . S
C1571 C1570 1.400 . S
C1571 H1588 0.930 . S
C1572 C1570 1.384 . S
C1572 C1574 1.392 . S
C1572 H1589 0.931 . S
C1573 C1569 1.393 . S
C1573 C1574 1.401 . S
C1573 H1590 0.930 . S
C1574 C1572 1.392 . S
C1574 C1573 1.401 . S
C1574 H1591 0.930 . S
C1575 O1558 1.262 . S
C1575 O1559 1.260 . S
C1576 Tb1512 2.833 . S
C1576 O1556 1.251 . S
C1576 O1561 1.256 . S
C1576 C1569 1.500 . S
C1577 H1542 0.929 . S
C1577 C1555 1.444 . S
C1577 C1578 1.317 . S
C1578 H1540 0.930 . S
C1578 C1546 1.432 . S
C1578 C1577 1.317 . S
C1579 O1563 1.283 . S
C1579 O1566 1.243 . S
C1580 C1581 1.382 . S
C1580 C1584 1.393 . S
C1580 C1587 1.500 . S
C1581 C1580 1.382 . S
C1581 C1582 1.400 . S
C1581 H1592 0.930 . S
C1582 C1581 1.400 . S
C1582 C1583 1.384 . S
C1583 C1582 1.384 . S
C1583 C1585 1.392 . S
C1583 H1593 0.931 . S
C1584 C1580 1.393 . S
C1584 C1585 1.401 . S
C1584 H1594 0.930 . S
C1585 C1583 1.392 . S
C1585 C1584 1.401 . S
C1585 H1595 0.930 . S
C1586 O1564 1.262 . S
C1586 O1565 1.260 . S
C1587 Tb1523 2.833 . S
C1587 O1562 1.251 . S
C1587 O1567 1.256 . S
C1587 C1580 1.500 . S
H1588 C1571 0.930 . S
H1589 C1572 0.931 . S
H1590 C1573 0.930 . S
H1591 C1574 0.930 . S
H1592 C1581 0.930 . S
H1593 C1583 0.931 . S
H1594 C1584 0.930 . S
H1595 C1585 0.930 . S
Tb1596 N1627 2.661 . S
Tb1596 N1634 2.590 1_554 S
Tb1596 O1640 2.538 1_554 S
Tb1596 O1641 2.616 . S
Tb1596 O1643 2.332 . S
Tb1596 O1644 2.554 1_554 S
Tb1596 O1645 2.415 . S
Tb1596 O1647 2.365 . S
Tb1596 O1648 2.413 1_554 S
Tb1596 C1660 2.830 1_554 S
C1597 C1600 1.432 . S
C1597 C1601 1.414 . S
C1597 N1604 1.359 1_655 S
C1598 C1600 1.417 . S
C1598 C1602 1.432 . S
C1598 C1610 1.410 1_554 S
C1599 C1601 1.444 . S
C1599 C1602 1.317 . S
C1599 H1622 0.929 . S
C1600 C1597 1.432 . S
C1600 C1598 1.417 . S
C1600 N1608 1.360 . S
C1601 C1597 1.414 . S
C1601 C1599 1.444 . S
C1601 C1606 1.385 . S
C1602 C1598 1.432 . S
C1602 C1599 1.317 . S
C1602 H1614 0.930 . S
C1603 C1605 1.392 . S
C1603 C1606 1.370 1_455 S
C1603 H1615 0.931 . S
N1604 C1597 1.359 1_455 S
N1604 C1605 1.327 . S
N1604 Tb1607 2.600 . S
C1605 C1603 1.392 . S
C1605 N1604 1.327 . S
C1605 H1612 0.930 . S
C1606 C1601 1.385 . S
C1606 C1603 1.370 1_655 S
C1606 H1625 0.930 . S
Tb1607 N1604 2.600 . S
Tb1607 N1608 2.660 1_455 S
Tb1607 O1641 2.362 . S
Tb1607 O1642 2.421 . S
Tb1607 O1646 2.546 . S
Tb1607 O1647 2.610 . S
Tb1607 O1649 2.320 1_554 S
Tb1607 O1650 2.552 . S
Tb1607 O1651 2.413 1_455 S
Tb1607 C1671 2.833 1_455 S
N1608 C1600 1.360 . S
N1608 Tb1607 2.660 1_655 S
N1608 C1609 1.305 1_554 S
C1609 N1608 1.305 1_556 S
C1609 C1611 1.407 . S
C1609 H1616 0.930 . S
C1610 C1598 1.410 1_556 S
C1610 C1611 1.345 . S
C1610 H1618 0.930 . S
C1611 C1609 1.407 . S
C1611 C1610 1.345 . S
C1611 H1613 0.930 . S
H1612 C1605 0.930 . S
H1613 C1611 0.930 . S
H1614 C1602 0.930 . S
H1615 C1603 0.931 . S
H1616 C1609 0.930 . S
H1617 C1631 0.930 . S
H1618 C1610 0.930 . S
H1619 C1637 0.930 . S
H1620 C1628 0.930 . S
H1621 C1635 0.931 . S
H1622 C1599 0.929 . S
H1623 C1629 0.930 . S
H1624 C1662 0.930 1_554 S
H1625 C1606 0.930 . S
H1626 C1661 0.929 . S
N1627 Tb1596 2.661 . S
N1627 C1628 1.305 . S
N1627 C1632 1.360 . S
C1628 H1620 0.930 . S
C1628 N1627 1.305 . S
C1628 C1631 1.407 . S
C1629 H1623 0.930 . S
C1629 C1630 1.410 . S
C1629 C1631 1.345 . S
C1630 C1629 1.410 . S
C1630 C1632 1.417 . S
C1630 C1662 1.432 1_554 S
C1631 H1617 0.930 . S
C1631 C1628 1.407 . S
C1631 C1629 1.345 . S
C1632 N1627 1.360 . S
C1632 C1630 1.417 . S
C1632 C1636 1.432 1_554 S
H1633 C1638 0.930 . S
N1634 Tb1596 2.590 1_556 S
N1634 C1636 1.359 . S
N1634 C1637 1.327 . S
C1635 H1621 0.931 . S
C1635 C1637 1.392 . S
C1635 C1638 1.370 . S
C1636 C1632 1.432 1_556 S
C1636 N1634 1.359 . S
C1636 C1639 1.414 . S
C1637 H1619 0.930 . S
C1637 N1634 1.327 . S
C1637 C1635 1.392 . S
C1638 H1633 0.930 . S
C1638 C1635 1.370 . S
C1638 C1639 1.385 . S
C1639 C1636 1.414 . S
C1639 C1638 1.385 . S
C1639 C1661 1.444 . S
O1640 Tb1596 2.538 1_556 S
O1640 C1660 1.251 . S
O1641 Tb1596 2.616 . S
O1641 Tb1607 2.362 . S
O1641 C1652 1.283 . S
O1642 Tb1607 2.421 . S
O1642 C1659 1.262 . S
O1643 Tb1596 2.332 . S
O1643 C1659 1.260 . S
O1644 Tb1596 2.554 1_556 S
O1644 C1652 1.243 1_556 S
O1645 Tb1596 2.415 . S
O1645 C1660 1.256 1_554 S
O1646 Tb1607 2.546 . S
O1646 C1671 1.251 1_455 S
O1647 Tb1596 2.365 . S
O1647 Tb1607 2.610 . S
O1647 C1663 1.283 . S
O1648 Tb1596 2.413 1_556 S
O1648 C1670 1.262 . S
O1649 Tb1607 2.320 1_556 S
O1649 C1670 1.260 . S
O1650 Tb1607 2.552 . S
O1650 C1663 1.243 . S
O1651 Tb1607 2.413 1_655 S
O1651 C1671 1.256 . S
C1652 O1641 1.283 . S
C1652 O1644 1.243 1_554 S
C1653 C1655 1.382 . S
C1653 C1657 1.393 . S
C1653 C1660 1.500 . S
C1654 C1655 1.400 . S
C1654 C1656 1.384 . S
C1655 C1653 1.382 . S
C1655 C1654 1.400 . S
C1655 H1672 0.930 1_556 S
C1656 C1654 1.384 . S
C1656 C1658 1.392 . S
C1656 H1673 0.931 . S
C1657 C1653 1.393 . S
C1657 C1658 1.401 . S
C1657 H1674 0.930 . S
C1658 C1656 1.392 . S
C1658 C1657 1.401 . S
C1658 H1675 0.930 . S
C1659 O1642 1.262 . S
C1659 O1643 1.260 . S
C1660 Tb1596 2.830 1_556 S
C1660 O1640 1.251 . S
C1660 O1645 1.256 1_556 S
C1660 C1653 1.500 . S
C1661 H1626 0.929 . S
C1661 C1639 1.444 . S
C1661 C1662 1.317 . S
C1662 H1624 0.930 1_556 S
C1662 C1630 1.432 1_556 S
C1662 C1661 1.317 . S
C1663 O1647 1.283 . S
C1663 O1650 1.243 . S
C1664 C1665 1.382 . S
C1664 C1668 1.393 . S
C1664 C1671 1.500 . S
C1665 C1664 1.382 . S
C1665 C1666 1.400 . S
C1665 H1676 0.930 . S
C1666 C1665 1.400 . S
C1666 C1667 1.384 . S
C1667 C1666 1.384 . S
C1667 C1669 1.392 . S
C1667 H1677 0.931 . S
C1668 C1664 1.393 . S
C1668 C1669 1.401 . S
C1668 H1678 0.930 . S
C1669 C1667 1.392 . S
C1669 C1668 1.401 . S
C1669 H1679 0.930 . S
C1670 O1648 1.262 . S
C1670 O1649 1.260 . S
C1671 Tb1607 2.833 1_655 S
C1671 O1646 1.251 1_655 S
C1671 O1651 1.256 . S
C1671 C1664 1.500 . S
H1672 C1655 0.930 1_554 S
H1673 C1656 0.931 . S
H1674 C1657 0.930 . S
H1675 C1658 0.930 . S
H1676 C1665 0.930 . S
H1677 C1667 0.931 . S
H1678 C1668 0.930 . S
H1679 C1669 0.930 . S
C1680 C1681 1.363 . S
C1680 C1686 1.379 . S
C1680 N1688 1.356 1_455 S
C1681 C1680 1.363 . S
C1681 C1687 1.363 1_556 S
C1682 C1683 1.363 . S
C1682 C1687 1.379 . S
C1682 N1689 1.356 . S
C1683 C1682 1.363 . S
C1683 C1686 1.363 1_554 S
N1684 C1686 1.356 . S
N1684 H1696 0.984 . S
N1684 H1697 0.985 . S
N1685 C1687 1.356 . S
N1685 H1690 0.984 . S
N1685 H1691 0.985 . S
C1686 C1680 1.379 . S
C1686 C1683 1.363 1_556 S
C1686 N1684 1.356 . S
C1687 C1681 1.363 1_554 S
C1687 C1682 1.379 . S
C1687 N1685 1.356 . S
N1688 C1680 1.356 1_655 S
N1688 H1694 0.984 . S
N1688 H1695 0.984 . S
N1689 C1682 1.356 . S
N1689 H1692 0.984 . S
N1689 H1693 0.985 . S
H1690 N1685 0.984 . S
H1691 N1685 0.985 . S
H1692 N1689 0.984 . S
H1693 N1689 0.985 . S
H1694 N1688 0.984 . S
H1695 N1688 0.984 . S
H1696 N1684 0.984 . S
H1697 N1684 0.985 . S
C1698 C1699 1.363 . S
C1698 C1704 1.379 . S
C1698 N1706 1.356 . S
C1699 C1698 1.363 . S
C1699 C1705 1.363 . S
C1700 C1701 1.363 . S
C1700 C1705 1.379 . S
C1700 N1707 1.356 . S
C1701 C1700 1.363 . S
C1701 C1704 1.363 . S
N1702 C1704 1.356 . S
N1702 H1714 0.984 . S
N1702 H1715 0.985 . S
N1703 C1705 1.356 . S
N1703 H1708 0.984 . S
N1703 H1709 0.985 . S
C1704 C1698 1.379 . S
C1704 C1701 1.363 . S
C1704 N1702 1.356 . S
C1705 C1699 1.363 . S
C1705 C1700 1.379 . S
C1705 N1703 1.356 . S
N1706 C1698 1.356 . S
N1706 H1712 0.984 . S
N1706 H1713 0.984 . S
N1707 C1700 1.356 . S
N1707 H1710 0.984 . S
N1707 H1711 0.985 . S
H1708 N1703 0.984 . S
H1709 N1703 0.985 . S
H1710 N1707 0.984 . S
H1711 N1707 0.985 . S
H1712 N1706 0.984 . S
H1713 N1706 0.984 . S
H1714 N1702 0.984 . S
H1715 N1702 0.985 . S
C1716 C1717 1.363 . S
C1716 C1722 1.379 . S
C1716 N1724 1.356 . S
C1717 C1716 1.363 . S
C1717 C1723 1.363 . S
C1718 C1719 1.363 . S
C1718 C1723 1.379 . S
C1718 N1725 1.356 . S
C1719 C1718 1.363 . S
C1719 C1722 1.363 . S
N1720 C1722 1.356 . S
N1720 H1732 0.984 . S
N1720 H1733 0.985 . S
N1721 C1723 1.356 . S
N1721 H1726 0.984 . S
N1721 H1727 0.985 . S
C1722 C1716 1.379 . S
C1722 C1719 1.363 . S
C1722 N1720 1.356 . S
C1723 C1717 1.363 . S
C1723 C1718 1.379 . S
C1723 N1721 1.356 . S
N1724 C1716 1.356 . S
N1724 H1730 0.984 . S
N1724 H1731 0.984 . S
N1725 C1718 1.356 . S
N1725 H1728 0.984 . S
N1725 H1729 0.985 . S
H1726 N1721 0.984 . S
H1727 N1721 0.985 . S
H1728 N1725 0.984 . S
H1729 N1725 0.985 . S
H1730 N1724 0.984 . S
H1731 N1724 0.984 . S
H1732 N1720 0.984 . S
H1733 N1720 0.985 . S
C1734 C1735 1.363 . S
C1734 C1740 1.379 . S
C1734 N1742 1.356 . S
C1735 C1734 1.363 . S
C1735 C1741 1.363 . S
C1736 C1737 1.363 . S
C1736 C1741 1.379 . S
C1736 N1743 1.356 . S
C1737 C1736 1.363 . S
C1737 C1740 1.363 . S
N1738 C1740 1.356 . S
N1738 H1750 0.984 . S
N1738 H1751 0.985 . S
N1739 C1741 1.356 . S
N1739 H1744 0.984 . S
N1739 H1745 0.985 . S
C1740 C1734 1.379 . S
C1740 C1737 1.363 . S
C1740 N1738 1.356 . S
C1741 C1735 1.363 . S
C1741 C1736 1.379 . S
C1741 N1739 1.356 . S
N1742 C1734 1.356 . S
N1742 H1748 0.984 . S
N1742 H1749 0.984 . S
N1743 C1736 1.356 . S
N1743 H1746 0.984 . S
N1743 H1747 0.985 . S
H1744 N1739 0.984 . S
H1745 N1739 0.985 . S
H1746 N1743 0.984 . S
H1747 N1743 0.985 . S
H1748 N1742 0.984 . S
H1749 N1742 0.984 . S
H1750 N1738 0.984 . S
H1751 N1738 0.985 . S
C1752 C1753 1.363 . S
C1752 C1758 1.379 . S
C1752 N1760 1.356 . S
C1753 C1752 1.363 . S
C1753 C1759 1.363 . S
C1754 C1755 1.363 . S
C1754 C1759 1.379 . S
C1754 N1761 1.356 . S
C1755 C1754 1.363 . S
C1755 C1758 1.363 . S
N1756 C1758 1.356 . S
N1756 H1768 0.984 . S
N1756 H1769 0.985 . S
N1757 C1759 1.356 . S
N1757 H1762 0.984 . S
N1757 H1763 0.985 . S
C1758 C1752 1.379 . S
C1758 C1755 1.363 . S
C1758 N1756 1.356 . S
C1759 C1753 1.363 . S
C1759 C1754 1.379 . S
C1759 N1757 1.356 . S
N1760 C1752 1.356 . S
N1760 H1766 0.984 . S
N1760 H1767 0.984 1_455 S
N1761 C1754 1.356 . S
N1761 H1764 0.984 . S
N1761 H1765 0.985 . S
H1762 N1757 0.984 . S
H1763 N1757 0.985 . S
H1764 N1761 0.984 . S
H1765 N1761 0.985 . S
H1766 N1760 0.984 . S
H1767 N1760 0.984 1_655 S
H1768 N1756 0.984 . S
H1769 N1756 0.985 . S
C1770 C1771 1.363 . S
C1770 C1776 1.379 . S
C1770 N1778 1.356 . S
C1771 C1770 1.363 . S
C1771 C1777 1.363 . S
C1772 C1773 1.363 . S
C1772 C1777 1.379 . S
C1772 N1779 1.356 . S
C1773 C1772 1.363 . S
C1773 C1776 1.363 . S
N1774 C1776 1.356 . S
N1774 H1786 0.984 . S
N1774 H1787 0.985 . S
N1775 C1777 1.356 . S
N1775 H1780 0.984 . S
N1775 H1781 0.985 . S
C1776 C1770 1.379 . S
C1776 C1773 1.363 . S
C1776 N1774 1.356 . S
C1777 C1771 1.363 . S
C1777 C1772 1.379 . S
C1777 N1775 1.356 . S
N1778 C1770 1.356 . S
N1778 H1784 0.984 . S
N1778 H1785 0.984 . S
N1779 C1772 1.356 . S
N1779 H1782 0.984 . S
N1779 H1783 0.985 . S
H1780 N1775 0.984 . S
H1781 N1775 0.985 . S
H1782 N1779 0.984 . S
H1783 N1779 0.985 . S
H1784 N1778 0.984 . S
H1785 N1778 0.984 . S
H1786 N1774 0.984 . S
H1787 N1774 0.985 . S
C1788 C1789 1.363 . S
C1788 C1794 1.379 . S
C1788 N1796 1.356 . S
C1789 C1788 1.363 . S
C1789 C1795 1.363 . S
C1790 C1791 1.363 . S
C1790 C1795 1.379 . S
C1790 N1797 1.356 . S
C1791 C1790 1.363 . S
C1791 C1794 1.363 . S
N1792 C1794 1.356 . S
N1792 H1804 0.984 . S
N1792 H1805 0.985 . S
N1793 C1795 1.356 . S
N1793 H1798 0.984 . S
N1793 H1799 0.985 . S
C1794 C1788 1.379 . S
C1794 C1791 1.363 . S
C1794 N1792 1.356 . S
C1795 C1789 1.363 . S
C1795 C1790 1.379 . S
C1795 N1793 1.356 . S
N1796 C1788 1.356 . S
N1796 H1802 0.984 . S
N1796 H1803 0.984 . S
N1797 C1790 1.356 . S
N1797 H1800 0.984 . S
N1797 H1801 0.985 . S
H1798 N1793 0.984 . S
H1799 N1793 0.985 . S
H1800 N1797 0.984 . S
H1801 N1797 0.985 . S
H1802 N1796 0.984 . S
H1803 N1796 0.984 . S
H1804 N1792 0.984 . S
H1805 N1792 0.985 . S
C1806 C1807 1.363 . S
C1806 C1812 1.379 . S
C1806 N1814 1.356 . S
C1807 C1806 1.363 . S
C1807 C1813 1.363 . S
C1808 C1809 1.363 . S
C1808 C1813 1.379 . S
C1808 N1815 1.356 . S
C1809 C1808 1.363 . S
C1809 C1812 1.363 . S
N1810 C1812 1.356 . S
N1810 H1822 0.984 . S
N1810 H1823 0.985 . S
N1811 C1813 1.356 . S
N1811 H1816 0.984 . S
N1811 H1817 0.985 . S
C1812 C1806 1.379 . S
C1812 C1809 1.363 . S
C1812 N1810 1.356 . S
C1813 C1807 1.363 . S
C1813 C1808 1.379 . S
C1813 N1811 1.356 . S
N1814 C1806 1.356 . S
N1814 H1820 0.984 . S
N1814 H1821 0.984 . S
N1815 C1808 1.356 . S
N1815 H1818 0.984 . S
N1815 H1819 0.985 . S
H1816 N1811 0.984 . S
H1817 N1811 0.985 . S
H1818 N1815 0.984 . S
H1819 N1815 0.985 . S
H1820 N1814 0.984 . S
H1821 N1814 0.984 . S
H1822 N1810 0.984 . S
H1823 N1810 0.985 . S
C1824 C1825 1.363 . S
C1824 C1830 1.379 . S
C1824 N1832 1.356 1_455 S
C1825 C1824 1.363 . S
C1825 C1831 1.363 . S
C1826 C1827 1.363 . S
C1826 C1831 1.379 . S
C1826 N1833 1.356 . S
C1827 C1826 1.363 . S
C1827 C1830 1.363 . S
N1828 C1830 1.356 . S
N1828 H1840 0.984 . S
N1828 H1841 0.985 . S
N1829 C1831 1.356 . S
N1829 H1834 0.984 . S
N1829 H1835 0.985 . S
C1830 C1824 1.379 . S
C1830 C1827 1.363 . S
C1830 N1828 1.356 . S
C1831 C1825 1.363 . S
C1831 C1826 1.379 . S
C1831 N1829 1.356 . S
N1832 C1824 1.356 1_655 S
N1832 H1838 0.984 . S
N1832 H1839 0.984 . S
N1833 C1826 1.356 . S
N1833 H1836 0.984 . S
N1833 H1837 0.985 . S
H1834 N1829 0.984 . S
H1835 N1829 0.985 . S
H1836 N1833 0.984 . S
H1837 N1833 0.985 . S
H1838 N1832 0.984 . S
H1839 N1832 0.984 . S
H1840 N1828 0.984 . S
H1841 N1828 0.985 . S
C1842 C1843 1.363 . S
C1842 C1848 1.379 . S
C1842 N1850 1.356 . S
C1843 C1842 1.363 . S
C1843 C1849 1.363 . S
C1844 C1845 1.363 . S
C1844 C1849 1.379 . S
C1844 N1851 1.356 . S
C1845 C1844 1.363 . S
C1845 C1848 1.363 . S
N1846 C1848 1.356 . S
N1846 H1858 0.984 . S
N1846 H1859 0.985 . S
N1847 C1849 1.356 . S
N1847 H1852 0.984 . S
N1847 H1853 0.985 . S
C1848 C1842 1.379 . S
C1848 C1845 1.363 . S
C1848 N1846 1.356 . S
C1849 C1843 1.363 . S
C1849 C1844 1.379 . S
C1849 N1847 1.356 . S
N1850 C1842 1.356 . S
N1850 H1856 0.984 . S
N1850 H1857 0.984 . S
N1851 C1844 1.356 . S
N1851 H1854 0.984 . S
N1851 H1855 0.985 . S
H1852 N1847 0.984 . S
H1853 N1847 0.985 . S
H1854 N1851 0.984 . S
H1855 N1851 0.985 . S
H1856 N1850 0.984 . S
H1857 N1850 0.984 . S
H1858 N1846 0.984 . S
H1859 N1846 0.985 . S
C1860 C1861 1.363 . S
C1860 C1866 1.379 . S
C1860 N1868 1.356 . S
C1861 C1860 1.363 . S
C1861 C1867 1.363 . S
C1862 C1863 1.363 . S
C1862 C1867 1.379 . S
C1862 N1869 1.356 . S
C1863 C1862 1.363 . S
C1863 C1866 1.363 . S
N1864 C1866 1.356 1_565 S
N1864 H1876 0.984 . S
N1864 H1877 0.985 . S
N1865 C1867 1.356 . S
N1865 H1870 0.984 . S
N1865 H1871 0.985 . S
C1866 C1860 1.379 . S
C1866 C1863 1.363 . S
C1866 N1864 1.356 1_545 S
C1867 C1861 1.363 . S
C1867 C1862 1.379 . S
C1867 N1865 1.356 . S
N1868 C1860 1.356 . S
N1868 H1874 0.984 1_545 S
N1868 H1875 0.984 . S
N1869 C1862 1.356 . S
N1869 H1872 0.984 . S
N1869 H1873 0.985 . S
H1870 N1865 0.984 . S
H1871 N1865 0.985 . S
H1872 N1869 0.984 . S
H1873 N1869 0.985 . S
H1874 N1868 0.984 1_565 S
H1875 N1868 0.984 . S
H1876 N1864 0.984 . S
H1877 N1864 0.985 . S
C1878 C1879 1.363 . S
C1878 C1884 1.379 . S
C1878 N1886 1.356 . S
C1879 C1878 1.363 . S
C1879 C1885 1.363 . S
C1880 C1881 1.363 . S
C1880 C1885 1.379 . S
C1880 N1887 1.356 . S
C1881 C1880 1.363 . S
C1881 C1884 1.363 . S
N1882 C1884 1.356 . S
N1882 H1894 0.984 . S
N1882 H1895 0.985 . S
N1883 C1885 1.356 . S
N1883 H1888 0.984 . S
N1883 H1889 0.985 . S
C1884 C1878 1.379 . S
C1884 C1881 1.363 . S
C1884 N1882 1.356 . S
C1885 C1879 1.363 . S
C1885 C1880 1.379 . S
C1885 N1883 1.356 . S
N1886 C1878 1.356 . S
N1886 H1892 0.984 . S
N1886 H1893 0.984 . S
N1887 C1880 1.356 . S
N1887 H1890 0.984 . S
N1887 H1891 0.985 . S
H1888 N1883 0.984 . S
H1889 N1883 0.985 . S
H1890 N1887 0.984 . S
H1891 N1887 0.985 . S
H1892 N1886 0.984 . S
H1893 N1886 0.984 . S
H1894 N1882 0.984 . S
H1895 N1882 0.985 . S
C1896 C1897 1.363 . S
C1896 C1902 1.379 . S
C1896 N1904 1.356 . S
C1897 C1896 1.363 . S
C1897 C1903 1.363 . S
C1898 C1899 1.363 . S
C1898 C1903 1.379 . S
C1898 N1905 1.356 . S
C1899 C1898 1.363 . S
C1899 C1902 1.363 . S
N1900 C1902 1.356 . S
N1900 H1912 0.984 . S
N1900 H1913 0.985 . S
N1901 C1903 1.356 1_655 S
N1901 H1906 0.984 . S
N1901 H1907 0.985 . S
C1902 C1896 1.379 . S
C1902 C1899 1.363 . S
C1902 N1900 1.356 . S
C1903 C1897 1.363 . S
C1903 C1898 1.379 . S
C1903 N1901 1.356 1_455 S
N1904 C1896 1.356 . S
N1904 H1910 0.984 . S
N1904 H1911 0.984 . S
N1905 C1898 1.356 . S
N1905 H1908 0.984 . S
N1905 H1909 0.985 1_445 S
H1906 N1901 0.984 . S
H1907 N1901 0.985 . S
H1908 N1905 0.984 . S
H1909 N1905 0.985 1_665 S
H1910 N1904 0.984 . S
H1911 N1904 0.984 . S
H1912 N1900 0.984 . S
H1913 N1900 0.985 . S
C1914 C1915 1.363 . S
C1914 C1920 1.379 . S
C1914 N1922 1.356 . S
C1915 C1914 1.363 . S
C1915 C1921 1.363 . S
C1916 C1917 1.363 . S
C1916 C1921 1.379 . S
C1916 N1923 1.356 . S
C1917 C1916 1.363 . S
C1917 C1920 1.363 . S
N1918 C1920 1.356 . S
N1918 H1930 0.984 . S
N1918 H1931 0.985 . S
N1919 C1921 1.356 . S
N1919 H1924 0.984 . S
N1919 H1925 0.985 . S
C1920 C1914 1.379 . S
C1920 C1917 1.363 . S
C1920 N1918 1.356 . S
C1921 C1915 1.363 . S
C1921 C1916 1.379 . S
C1921 N1919 1.356 . S
N1922 C1914 1.356 . S
N1922 H1928 0.984 . S
N1922 H1929 0.984 . S
N1923 C1916 1.356 . S
N1923 H1926 0.984 . S
N1923 H1927 0.985 . S
H1924 N1919 0.984 . S
H1925 N1919 0.985 . S
H1926 N1923 0.984 . S
H1927 N1923 0.985 . S
H1928 N1922 0.984 . S
H1929 N1922 0.984 . S
H1930 N1918 0.984 . S
H1931 N1918 0.985 . S
C1932 C1933 1.363 . S
C1932 C1938 1.379 . S
C1932 N1940 1.356 . S
C1933 C1932 1.363 . S
C1933 C1939 1.363 . S
C1934 C1935 1.363 . S
C1934 C1939 1.379 . S
C1934 N1941 1.356 . S
C1935 C1934 1.363 . S
C1935 C1938 1.363 . S
N1936 C1938 1.356 . S
N1936 H1948 0.984 . S
N1936 H1949 0.985 . S
N1937 C1939 1.356 . S
N1937 H1942 0.984 . S
N1937 H1943 0.985 . S
C1938 C1932 1.379 . S
C1938 C1935 1.363 . S
C1938 N1936 1.356 . S
C1939 C1933 1.363 . S
C1939 C1934 1.379 . S
C1939 N1937 1.356 . S
N1940 C1932 1.356 . S
N1940 H1946 0.984 . S
N1940 H1947 0.984 . S
N1941 C1934 1.356 . S
N1941 H1944 0.984 . S
N1941 H1945 0.985 . S
H1942 N1937 0.984 . S
H1943 N1937 0.985 . S
H1944 N1941 0.984 . S
H1945 N1941 0.985 . S
H1946 N1940 0.984 . S
H1947 N1940 0.984 . S
H1948 N1936 0.984 . S
H1949 N1936 0.985 . S
C1950 C1951 1.363 . S
C1950 C1956 1.379 . S
C1950 N1958 1.356 . S
C1951 C1950 1.363 . S
C1951 C1957 1.363 . S
C1952 C1953 1.363 . S
C1952 C1957 1.379 . S
C1952 N1959 1.356 . S
C1953 C1952 1.363 . S
C1953 C1956 1.363 . S
N1954 C1956 1.356 . S
N1954 H1966 0.984 . S
N1954 H1967 0.985 . S
N1955 C1957 1.356 . S
N1955 H1960 0.984 . S
N1955 H1961 0.985 . S
C1956 C1950 1.379 . S
C1956 C1953 1.363 . S
C1956 N1954 1.356 . S
C1957 C1951 1.363 . S
C1957 C1952 1.379 . S
C1957 N1955 1.356 . S
N1958 C1950 1.356 . S
N1958 H1964 0.984 . S
N1958 H1965 0.984 . S
N1959 C1952 1.356 . S
N1959 H1962 0.984 . S
N1959 H1963 0.985 . S
H1960 N1955 0.984 . S
H1961 N1955 0.985 . S
H1962 N1959 0.984 . S
H1963 N1959 0.985 . S
H1964 N1958 0.984 . S
H1965 N1958 0.984 . S
H1966 N1954 0.984 . S
H1967 N1954 0.985 . S
C1968 C1969 1.363 . S
C1968 C1974 1.379 . S
C1968 N1976 1.356 . S
C1969 C1968 1.363 . S
C1969 C1975 1.363 1_565 S
C1970 C1971 1.363 . S
C1970 C1975 1.379 . S
C1970 N1977 1.356 . S
C1971 C1970 1.363 . S
C1971 C1974 1.363 1_545 S
N1972 C1974 1.356 . S
N1972 H1984 0.984 . S
N1972 H1985 0.985 . S
N1973 C1975 1.356 1_556 S
N1973 H1978 0.984 . S
N1973 H1979 0.985 . S
C1974 C1968 1.379 . S
C1974 C1971 1.363 1_565 S
C1974 N1972 1.356 . S
C1975 C1969 1.363 1_545 S
C1975 C1970 1.379 . S
C1975 N1973 1.356 1_554 S
N1976 C1968 1.356 . S
N1976 H1982 0.984 . S
N1976 H1983 0.984 . S
N1977 C1970 1.356 . S
N1977 H1980 0.984 . S
N1977 H1981 0.985 . S
H1978 N1973 0.984 . S
H1979 N1973 0.985 . S
H1980 N1977 0.984 . S
H1981 N1977 0.985 . S
H1982 N1976 0.984 . S
H1983 N1976 0.984 . S
H1984 N1972 0.984 . S
H1985 N1972 0.985 . S
C1986 C1987 1.363 1_554 S
C1986 C1992 1.379 . S
C1986 N1994 1.356 . S
C1987 C1986 1.363 1_556 S
C1987 C1993 1.363 . S
C1988 C1989 1.363 . S
C1988 C1993 1.379 . S
C1988 N1995 1.356 . S
C1989 C1988 1.363 . S
C1989 C1992 1.363 1_556 S
N1990 C1992 1.356 . S
N1990 H2002 0.984 . S
N1990 H2003 0.985 . S
N1991 C1993 1.356 . S
N1991 H1996 0.984 . S
N1991 H1997 0.985 . S
C1992 C1986 1.379 . S
C1992 C1989 1.363 1_554 S
C1992 N1990 1.356 . S
C1993 C1987 1.363 . S
C1993 C1988 1.379 . S
C1993 N1991 1.356 . S
N1994 C1986 1.356 . S
N1994 H2000 0.984 . S
N1994 H2001 0.984 . S
N1995 C1988 1.356 . S
N1995 H1998 0.984 . S
N1995 H1999 0.985 . S
H1996 N1991 0.984 . S
H1997 N1991 0.985 . S
H1998 N1995 0.984 . S
H1999 N1995 0.985 . S
H2000 N1994 0.984 . S
H2001 N1994 0.984 . S
H2002 N1990 0.984 . S
H2003 N1990 0.985 . S
C2004 C2005 1.363 . S
C2004 C2010 1.379 . S
C2004 N2012 1.356 . S
C2005 C2004 1.363 . S
C2005 C2011 1.363 . S
C2006 C2007 1.363 . S
C2006 C2011 1.379 . S
C2006 N2013 1.356 . S
C2007 C2006 1.363 . S
C2007 C2010 1.363 . S
N2008 C2010 1.356 . S
N2008 H2020 0.984 . S
N2008 H2021 0.985 . S
N2009 C2011 1.356 . S
N2009 H2014 0.984 . S
N2009 H2015 0.985 . S
C2010 C2004 1.379 . S
C2010 C2007 1.363 . S
C2010 N2008 1.356 . S
C2011 C2005 1.363 . S
C2011 C2006 1.379 . S
C2011 N2009 1.356 . S
N2012 C2004 1.356 . S
N2012 H2018 0.984 . S
N2012 H2019 0.984 . S
N2013 C2006 1.356 . S
N2013 H2016 0.984 . S
N2013 H2017 0.985 . S
H2014 N2009 0.984 . S
H2015 N2009 0.985 . S
H2016 N2013 0.984 . S
H2017 N2013 0.985 . S
H2018 N2012 0.984 . S
H2019 N2012 0.984 . S
H2020 N2008 0.984 . S
H2021 N2008 0.985 . S
C2022 C2023 1.363 . S
C2022 C2028 1.379 . S
C2022 N2030 1.356 . S
C2023 C2022 1.363 . S
C2023 C2029 1.363 . S
C2024 C2025 1.363 1_655 S
C2024 C2029 1.379 . S
C2024 N2031 1.356 1_655 S
C2025 C2024 1.363 1_455 S
C2025 C2028 1.363 1_455 S
N2026 C2028 1.354 . S
N2026 H2038 0.984 . S
N2026 H2039 0.988 1_655 S
N2027 C2029 1.356 . S
N2027 H2032 0.984 . S
N2027 H2033 0.985 . S
C2028 C2022 1.379 . S
C2028 C2025 1.363 1_655 S
C2028 N2026 1.354 . S
C2029 C2023 1.363 . S
C2029 C2024 1.379 . S
C2029 N2027 1.356 . S
N2030 C2022 1.356 . S
N2030 H2036 0.984 . S
N2030 H2037 0.984 . S
N2031 C2024 1.356 1_455 S
N2031 H2034 0.984 . S
N2031 H2035 0.985 . S
H2032 N2027 0.984 . S
H2033 N2027 0.985 . S
H2034 N2031 0.984 . S
H2035 N2031 0.985 . S
H2036 N2030 0.984 . S
H2037 N2030 0.984 . S
H2038 N2026 0.984 . S
H2039 N2026 0.988 1_455 S
C2040 C2041 1.363 . S
C2040 C2046 1.379 . S
C2040 N2048 1.356 . S
C2041 C2040 1.363 . S
C2041 C2047 1.363 . S
C2042 C2043 1.363 . S
C2042 C2047 1.379 . S
C2042 N2049 1.356 . S
C2043 C2042 1.363 . S
C2043 C2046 1.363 . S
N2044 C2046 1.356 . S
N2044 H2056 0.984 . S
N2044 H2057 0.985 . S
N2045 C2047 1.356 . S
N2045 H2050 0.984 . S
N2045 H2051 0.985 . S
C2046 C2040 1.379 . S
C2046 C2043 1.363 . S
C2046 N2044 1.356 . S
C2047 C2041 1.363 . S
C2047 C2042 1.379 . S
C2047 N2045 1.356 . S
N2048 C2040 1.356 . S
N2048 H2054 0.984 . S
N2048 H2055 0.984 . S
N2049 C2042 1.356 . S
N2049 H2052 0.984 . S
N2049 H2053 0.985 . S
H2050 N2045 0.984 . S
H2051 N2045 0.985 . S
H2052 N2049 0.984 . S
H2053 N2049 0.985 . S
H2054 N2048 0.984 . S
H2055 N2048 0.984 . S
H2056 N2044 0.984 . S
H2057 N2044 0.985 . S
C2058 C2059 1.363 . S
C2058 C2064 1.379 . S
C2058 N2066 1.356 . S
C2059 C2058 1.363 . S
C2059 C2065 1.363 . S
C2060 C2061 1.363 . S
C2060 C2065 1.379 . S
C2060 N2067 1.356 . S
C2061 C2060 1.363 . S
C2061 C2064 1.363 . S
N2062 C2064 1.356 . S
N2062 H2074 0.984 . S
N2062 H2075 0.985 . S
N2063 C2065 1.356 . S
N2063 H2068 0.984 . S
N2063 H2069 0.985 . S
C2064 C2058 1.379 . S
C2064 C2061 1.363 . S
C2064 N2062 1.356 . S
C2065 C2059 1.363 . S
C2065 C2060 1.379 . S
C2065 N2063 1.356 . S
N2066 C2058 1.356 . S
N2066 H2072 0.984 . S
N2066 H2073 0.984 . S
N2067 C2060 1.356 . S
N2067 H2070 0.984 . S
N2067 H2071 0.985 . S
H2068 N2063 0.984 . S
H2069 N2063 0.985 . S
H2070 N2067 0.984 . S
H2071 N2067 0.985 . S
H2072 N2066 0.984 . S
H2073 N2066 0.984 . S
H2074 N2062 0.984 . S
H2075 N2062 0.985 . S
C2076 C2077 1.363 . S
C2076 C2082 1.379 . S
C2076 N2084 1.356 . S
C2077 C2076 1.363 . S
C2077 C2083 1.363 . S
C2078 C2079 1.363 . S
C2078 C2083 1.379 . S
C2078 N2085 1.356 . S
C2079 C2078 1.363 . S
C2079 C2082 1.363 . S
N2080 C2082 1.356 . S
N2080 H2092 0.984 . S
N2080 H2093 0.985 . S
N2081 C2083 1.356 . S
N2081 H2086 0.984 . S
N2081 H2087 0.985 . S
C2082 C2076 1.379 . S
C2082 C2079 1.363 . S
C2082 N2080 1.356 . S
C2083 C2077 1.363 . S
C2083 C2078 1.379 . S
C2083 N2081 1.356 . S
N2084 C2076 1.356 . S
N2084 H2090 0.984 . S
N2084 H2091 0.984 . S
N2085 C2078 1.356 . S
N2085 H2088 0.984 . S
N2085 H2089 0.985 . S
H2086 N2081 0.984 . S
H2087 N2081 0.985 . S
H2088 N2085 0.984 . S
H2089 N2085 0.985 . S
H2090 N2084 0.984 . S
H2091 N2084 0.984 . S
H2092 N2080 0.984 . S
H2093 N2080 0.985 . S
C2094 C2095 1.363 . S
C2094 C2100 1.379 . S
C2094 N2102 1.356 . S
C2095 C2094 1.363 . S
C2095 C2101 1.363 . S
C2096 C2097 1.363 . S
C2096 C2101 1.379 . S
C2096 N2103 1.356 . S
C2097 C2096 1.363 . S
C2097 C2100 1.363 . S
N2098 C2100 1.356 . S
N2098 H2110 0.984 . S
N2098 H2111 0.985 . S
N2099 C2101 1.356 . S
N2099 H2104 0.984 . S
N2099 H2105 0.985 . S
C2100 C2094 1.379 . S
C2100 C2097 1.363 . S
C2100 N2098 1.356 . S
C2101 C2095 1.363 . S
C2101 C2096 1.379 . S
C2101 N2099 1.356 . S
N2102 C2094 1.356 . S
N2102 H2108 0.984 . S
N2102 H2109 0.984 . S
N2103 C2096 1.356 . S
N2103 H2106 0.984 . S
N2103 H2107 0.985 . S
H2104 N2099 0.984 . S
H2105 N2099 0.985 . S
H2106 N2103 0.984 . S
H2107 N2103 0.985 . S
H2108 N2102 0.984 . S
H2109 N2102 0.984 . S
H2110 N2098 0.984 . S
H2111 N2098 0.985 . S
C2112 C2113 1.363 . S
C2112 C2118 1.379 . S
C2112 N2120 1.356 . S
C2113 C2112 1.363 . S
C2113 C2119 1.363 . S
C2114 C2115 1.363 . S
C2114 C2119 1.379 . S
C2114 N2121 1.356 1_554 S
C2115 C2114 1.363 . S
C2115 C2118 1.363 . S
N2116 C2118 1.356 . S
N2116 H2128 0.984 . S
N2116 H2129 0.985 . S
N2117 C2119 1.356 . S
N2117 H2122 0.984 . S
N2117 H2123 0.985 1_554 S
C2118 C2112 1.379 . S
C2118 C2115 1.363 . S
C2118 N2116 1.356 . S
C2119 C2113 1.363 . S
C2119 C2114 1.379 . S
C2119 N2117 1.356 . S
N2120 C2112 1.356 . S
N2120 H2126 0.984 . S
N2120 H2127 0.984 . S
N2121 C2114 1.356 1_556 S
N2121 H2124 0.984 . S
N2121 H2125 0.985 . S
H2122 N2117 0.984 . S
H2123 N2117 0.985 1_556 S
H2124 N2121 0.984 . S
H2125 N2121 0.985 . S
H2126 N2120 0.984 . S
H2127 N2120 0.984 . S
H2128 N2116 0.984 . S
H2129 N2116 0.985 . S
C2130 C2131 1.363 . S
C2130 C2136 1.379 . S
C2130 N2138 1.356 . S
C2131 C2130 1.363 . S
C2131 C2137 1.363 . S
C2132 C2133 1.363 . S
C2132 C2137 1.379 . S
C2132 N2139 1.356 . S
C2133 C2132 1.363 . S
C2133 C2136 1.363 . S
N2134 C2136 1.356 . S
N2134 H2146 0.984 . S
N2134 H2147 0.985 . S
N2135 C2137 1.356 . S
N2135 H2140 0.984 . S
N2135 H2141 0.985 . S
C2136 C2130 1.379 . S
C2136 C2133 1.363 . S
C2136 N2134 1.356 . S
C2137 C2131 1.363 . S
C2137 C2132 1.379 . S
C2137 N2135 1.356 . S
N2138 C2130 1.356 . S
N2138 H2144 0.984 . S
N2138 H2145 0.984 . S
N2139 C2132 1.356 . S
N2139 H2142 0.984 . S
N2139 H2143 0.985 . S
H2140 N2135 0.984 . S
H2141 N2135 0.985 . S
H2142 N2139 0.984 . S
H2143 N2139 0.985 . S
H2144 N2138 0.984 . S
H2145 N2138 0.984 . S
H2146 N2134 0.984 . S
H2147 N2134 0.985 . S
C2148 C2149 1.363 . S
C2148 C2154 1.379 . S
C2148 N2156 1.356 . S
C2149 C2148 1.363 . S
C2149 C2155 1.363 . S
C2150 C2151 1.363 . S
C2150 C2155 1.379 . S
C2150 N2157 1.356 . S
C2151 C2150 1.363 . S
C2151 C2154 1.363 . S
N2152 C2154 1.356 . S
N2152 H2164 0.984 . S
N2152 H2165 0.985 . S
N2153 C2155 1.356 . S
N2153 H2158 0.984 . S
N2153 H2159 0.985 . S
C2154 C2148 1.379 . S
C2154 C2151 1.363 . S
C2154 N2152 1.356 . S
C2155 C2149 1.363 . S
C2155 C2150 1.379 . S
C2155 N2153 1.356 . S
N2156 C2148 1.356 . S
N2156 H2162 0.984 . S
N2156 H2163 0.984 . S
N2157 C2150 1.356 . S
N2157 H2160 0.984 . S
N2157 H2161 0.985 . S
H2158 N2153 0.984 . S
H2159 N2153 0.985 . S
H2160 N2157 0.984 . S
H2161 N2157 0.985 . S
H2162 N2156 0.984 . S
H2163 N2156 0.984 . S
H2164 N2152 0.984 . S
H2165 N2152 0.985 . S
C2166 C2167 1.363 . S
C2166 C2172 1.379 . S
C2166 N2174 1.356 . S
C2167 C2166 1.363 . S
C2167 C2173 1.363 . S
C2168 C2169 1.363 . S
C2168 C2173 1.379 . S
C2168 N2175 1.356 . S
C2169 C2168 1.363 . S
C2169 C2172 1.363 . S
N2170 C2172 1.356 . S
N2170 H2182 0.984 . S
N2170 H2183 0.985 . S
N2171 C2173 1.356 . S
N2171 H2176 0.984 . S
N2171 H2177 0.985 . S
C2172 C2166 1.379 . S
C2172 C2169 1.363 . S
C2172 N2170 1.356 . S
C2173 C2167 1.363 . S
C2173 C2168 1.379 . S
C2173 N2171 1.356 . S
N2174 C2166 1.356 . S
N2174 H2180 0.984 . S
N2174 H2181 0.984 . S
N2175 C2168 1.356 . S
N2175 H2178 0.984 . S
N2175 H2179 0.985 . S
H2176 N2171 0.984 . S
H2177 N2171 0.985 . S
H2178 N2175 0.984 . S
H2179 N2175 0.985 . S
H2180 N2174 0.984 . S
H2181 N2174 0.984 . S
H2182 N2170 0.984 . S
H2183 N2170 0.985 . S
C2184 C2185 1.363 . S
C2184 C2190 1.379 . S
C2184 N2192 1.356 . S
C2185 C2184 1.363 . S
C2185 C2191 1.363 . S
C2186 C2187 1.363 . S
C2186 C2191 1.379 . S
C2186 N2193 1.356 . S
C2187 C2186 1.363 . S
C2187 C2190 1.363 . S
N2188 C2190 1.356 . S
N2188 H2200 0.984 . S
N2188 H2201 0.985 . S
N2189 C2191 1.356 . S
N2189 H2194 0.984 . S
N2189 H2195 0.985 . S
C2190 C2184 1.379 . S
C2190 C2187 1.363 . S
C2190 N2188 1.356 . S
C2191 C2185 1.363 . S
C2191 C2186 1.379 . S
C2191 N2189 1.356 . S
N2192 C2184 1.356 . S
N2192 H2198 0.984 . S
N2192 H2199 0.984 . S
N2193 C2186 1.356 . S
N2193 H2196 0.984 . S
N2193 H2197 0.985 . S
H2194 N2189 0.984 . S
H2195 N2189 0.985 . S
H2196 N2193 0.984 . S
H2197 N2193 0.985 . S
H2198 N2192 0.984 . S
H2199 N2192 0.984 . S
H2200 N2188 0.984 . S
H2201 N2188 0.985 . S
C2202 C2203 1.363 . S
C2202 C2208 1.379 . S
C2202 N2210 1.356 . S
C2203 C2202 1.363 . S
C2203 C2209 1.363 . S
C2204 C2205 1.363 . S
C2204 C2209 1.379 . S
C2204 N2211 1.356 . S
C2205 C2204 1.363 . S
C2205 C2208 1.363 . S
N2206 C2208 1.356 . S
N2206 H2218 0.984 . S
N2206 H2219 0.985 . S
N2207 C2209 1.356 . S
N2207 H2212 0.984 . S
N2207 H2213 0.985 . S
C2208 C2202 1.379 . S
C2208 C2205 1.363 . S
C2208 N2206 1.356 . S
C2209 C2203 1.363 . S
C2209 C2204 1.379 . S
C2209 N2207 1.356 . S
N2210 C2202 1.356 . S
N2210 H2216 0.984 . S
N2210 H2217 0.984 . S
N2211 C2204 1.356 . S
N2211 H2214 0.984 . S
N2211 H2215 0.985 . S
H2212 N2207 0.984 . S
H2213 N2207 0.985 . S
H2214 N2211 0.984 . S
H2215 N2211 0.985 . S
H2216 N2210 0.984 . S
H2217 N2210 0.984 . S
H2218 N2206 0.984 . S
H2219 N2206 0.985 . S
C2220 C2221 1.363 . S
C2220 C2226 1.379 . S
C2220 N2228 1.356 . S
C2221 C2220 1.363 . S
C2221 C2227 1.363 . S
C2222 C2223 1.363 . S
C2222 C2227 1.379 . S
C2222 N2229 1.356 . S
C2223 C2222 1.363 . S
C2223 C2226 1.363 . S
N2224 C2226 1.356 1_545 S
N2224 H2236 0.984 . S
N2224 H2237 0.985 . S
N2225 C2227 1.356 . S
N2225 H2230 0.984 . S
N2225 H2231 0.985 . S
C2226 C2220 1.379 . S
C2226 C2223 1.363 . S
C2226 N2224 1.356 1_565 S
C2227 C2221 1.363 . S
C2227 C2222 1.379 . S
C2227 N2225 1.356 . S
N2228 C2220 1.356 . S
N2228 H2234 0.984 1_565 S
N2228 H2235 0.984 . S
N2229 C2222 1.356 . S
N2229 H2232 0.984 . S
N2229 H2233 0.985 . S
H2230 N2225 0.984 . S
H2231 N2225 0.985 . S
H2232 N2229 0.984 . S
H2233 N2229 0.985 . S
H2234 N2228 0.984 1_545 S
H2235 N2228 0.984 . S
H2236 N2224 0.984 . S
H2237 N2224 0.985 . S
C2238 C2239 1.363 . S
C2238 C2244 1.379 . S
C2238 N2246 1.356 . S
C2239 C2238 1.363 . S
C2239 C2245 1.363 . S
C2240 C2241 1.363 . S
C2240 C2245 1.379 . S
C2240 N2247 1.356 . S
C2241 C2240 1.363 . S
C2241 C2244 1.363 . S
N2242 C2244 1.356 . S
N2242 H2254 0.984 . S
N2242 H2255 0.985 . S
N2243 C2245 1.356 . S
N2243 H2248 0.984 . S
N2243 H2249 0.985 . S
C2244 C2238 1.379 . S
C2244 C2241 1.363 . S
C2244 N2242 1.356 . S
C2245 C2239 1.363 . S
C2245 C2240 1.379 . S
C2245 N2243 1.356 . S
N2246 C2238 1.356 . S
N2246 H2252 0.984 . S
N2246 H2253 0.984 . S
N2247 C2240 1.356 . S
N2247 H2250 0.984 . S
N2247 H2251 0.985 . S
H2248 N2243 0.984 . S
H2249 N2243 0.985 . S
H2250 N2247 0.984 . S
H2251 N2247 0.985 . S
H2252 N2246 0.984 . S
H2253 N2246 0.984 . S
H2254 N2242 0.984 . S
H2255 N2242 0.985 . S
C2256 C2257 1.363 1_565 S
C2256 C2262 1.379 . S
C2256 N2264 1.356 . S
C2257 C2256 1.363 1_545 S
C2257 C2263 1.363 . S
C2258 C2259 1.363 . S
C2258 C2263 1.379 . S
C2258 N2265 1.356 . S
C2259 C2258 1.363 . S
C2259 C2262 1.363 1_545 S
N2260 C2262 1.356 . S
N2260 H2272 0.984 . S
N2260 H2273 0.985 . S
N2261 C2263 1.356 . S
N2261 H2266 0.984 . S
N2261 H2267 0.985 . S
C2262 C2256 1.379 . S
C2262 C2259 1.363 1_565 S
C2262 N2260 1.356 . S
C2263 C2257 1.363 . S
C2263 C2258 1.379 . S
C2263 N2261 1.356 . S
N2264 C2256 1.356 . S
N2264 H2270 0.984 . S
N2264 H2271 0.984 . S
N2265 C2258 1.356 . S
N2265 H2268 0.984 . S
N2265 H2269 0.985 . S
H2266 N2261 0.984 . S
H2267 N2261 0.985 . S
H2268 N2265 0.984 . S
H2269 N2265 0.985 . S
H2270 N2264 0.984 . S
H2271 N2264 0.984 . S
H2272 N2260 0.984 . S
H2273 N2260 0.985 . S
C2274 C2275 1.363 . S
C2274 C2280 1.379 . S
C2274 N2282 1.356 . S
C2275 C2274 1.363 . S
C2275 C2281 1.363 . S
C2276 C2277 1.363 . S
C2276 C2281 1.379 . S
C2276 N2283 1.356 . S
C2277 C2276 1.363 . S
C2277 C2280 1.363 . S
N2278 C2280 1.356 . S
N2278 H2290 0.984 . S
N2278 H2291 0.985 . S
N2279 C2281 1.356 . S
N2279 H2284 0.984 . S
N2279 H2285 0.985 . S
C2280 C2274 1.379 . S
C2280 C2277 1.363 . S
C2280 N2278 1.356 . S
C2281 C2275 1.363 . S
C2281 C2276 1.379 . S
C2281 N2279 1.356 . S
N2282 C2274 1.356 . S
N2282 H2288 0.984 . S
N2282 H2289 0.984 . S
N2283 C2276 1.356 . S
N2283 H2286 0.984 . S
N2283 H2287 0.985 . S
H2284 N2279 0.984 . S
H2285 N2279 0.985 . S
H2286 N2283 0.984 . S
H2287 N2283 0.985 . S
H2288 N2282 0.984 . S
H2289 N2282 0.984 . S
H2290 N2278 0.984 . S
H2291 N2278 0.985 . S
C2292 C2293 1.363 . S
C2292 C2298 1.379 . S
C2292 N2300 1.356 . S
C2293 C2292 1.363 . S
C2293 C2299 1.363 1_545 S
C2294 C2295 1.363 . S
C2294 C2299 1.379 1_545 S
C2294 N2301 1.356 1_545 S
C2295 C2294 1.363 . S
C2295 C2298 1.363 . S
N2296 C2298 1.356 . S
N2296 H2308 0.984 . S
N2296 H2309 0.985 . S
N2297 C2299 1.356 . S
N2297 H2302 0.984 . S
N2297 H2303 0.985 . S
C2298 C2292 1.379 . S
C2298 C2295 1.363 . S
C2298 N2296 1.356 . S
C2299 C2293 1.363 1_565 S
C2299 C2294 1.379 1_565 S
C2299 N2297 1.356 . S
N2300 C2292 1.356 . S
N2300 H2306 0.984 . S
N2300 H2307 0.984 . S
N2301 C2294 1.356 1_565 S
N2301 H2304 0.984 1_565 S
N2301 H2305 0.985 . S
H2302 N2297 0.984 . S
H2303 N2297 0.985 . S
H2304 N2301 0.984 1_545 S
H2305 N2301 0.985 . S
H2306 N2300 0.984 . S
H2307 N2300 0.984 . S
H2308 N2296 0.984 . S
H2309 N2296 0.985 . S
C2310 C2311 1.363 . S
C2310 C2316 1.379 . S
C2310 N2318 1.356 . S
C2311 C2310 1.363 . S
C2311 C2317 1.363 . S
C2312 C2313 1.363 . S
C2312 C2317 1.379 . S
C2312 N2319 1.356 . S
C2313 C2312 1.363 . S
C2313 C2316 1.363 . S
N2314 C2316 1.356 . S
N2314 H2326 0.984 . S
N2314 H2327 0.985 . S
N2315 C2317 1.356 . S
N2315 H2320 0.984 . S
N2315 H2321 0.985 . S
C2316 C2310 1.379 . S
C2316 C2313 1.363 . S
C2316 N2314 1.356 . S
C2317 C2311 1.363 . S
C2317 C2312 1.379 . S
C2317 N2315 1.356 . S
N2318 C2310 1.356 . S
N2318 H2324 0.984 . S
N2318 H2325 0.984 . S
N2319 C2312 1.356 . S
N2319 H2322 0.984 . S
N2319 H2323 0.985 . S
H2320 N2315 0.984 . S
H2321 N2315 0.985 . S
H2322 N2319 0.984 . S
H2323 N2319 0.985 . S
H2324 N2318 0.984 . S
H2325 N2318 0.984 . S
H2326 N2314 0.984 . S
H2327 N2314 0.985 . S
C2328 C2329 1.363 1_545 S
C2328 C2334 1.379 . S
C2328 N2336 1.356 . S
C2329 C2328 1.363 1_565 S
C2329 C2335 1.363 . S
C2330 C2331 1.349 1_565 S
C2330 C2335 1.391 . S
C2330 N2337 1.353 . S
C2331 C2330 1.349 1_545 S
C2331 C2334 1.363 . S
N2332 C2334 1.356 . S
N2332 H2344 0.984 . S
N2332 H2345 0.985 . S
N2333 C2335 1.356 . S
N2333 H2338 0.984 . S
N2333 H2339 0.985 . S
C2334 C2328 1.379 . S
C2334 C2331 1.363 . S
C2334 N2332 1.356 . S
C2335 C2329 1.363 . S
C2335 C2330 1.391 . S
C2335 N2333 1.356 . S
N2336 C2328 1.356 . S
N2336 H2342 0.984 . S
N2336 H2343 0.984 . S
N2337 C2330 1.353 . S
N2337 H2340 0.984 1_565 S
N2337 H2341 0.985 . S
H2338 N2333 0.984 . S
H2339 N2333 0.985 . S
H2340 N2337 0.984 1_545 S
H2341 N2337 0.985 . S
H2342 N2336 0.984 . S
H2343 N2336 0.984 . S
H2344 N2332 0.984 . S
H2345 N2332 0.985 . S
C2346 C2347 1.363 . S
C2346 C2352 1.379 . S
C2346 N2354 1.356 . S
C2347 C2346 1.363 . S
C2347 C2353 1.363 . S
C2348 C2349 1.363 . S
C2348 C2353 1.379 . S
C2348 N2355 1.356 . S
C2349 C2348 1.363 . S
C2349 C2352 1.363 . S
N2350 C2352 1.356 . S
N2350 H2362 0.984 . S
N2350 H2363 0.985 . S
N2351 C2353 1.356 . S
N2351 H2356 0.984 . S
N2351 H2357 0.985 . S
C2352 C2346 1.379 . S
C2352 C2349 1.363 . S
C2352 N2350 1.356 . S
C2353 C2347 1.363 . S
C2353 C2348 1.379 . S
C2353 N2351 1.356 . S
N2354 C2346 1.356 . S
N2354 H2360 0.984 . S
N2354 H2361 0.984 . S
N2355 C2348 1.356 . S
N2355 H2358 0.984 . S
N2355 H2359 0.985 . S
H2356 N2351 0.984 . S
H2357 N2351 0.985 . S
H2358 N2355 0.984 . S
H2359 N2355 0.985 . S
H2360 N2354 0.984 . S
H2361 N2354 0.984 . S
H2362 N2350 0.984 . S
H2363 N2350 0.985 . S
C2364 C2365 1.373 . S
C2364 C2370 1.379 . S
C2364 N2372 1.356 . S
C2365 C2364 1.373 . S
C2365 C2371 1.349 1_565 S
C2366 C2367 1.363 . S
C2366 C2371 1.379 . S
C2366 N2373 1.356 . S
C2367 C2366 1.363 . S
C2367 C2370 1.363 1_545 S
N2368 C2370 1.356 . S
N2368 H2380 0.984 . S
N2368 H2381 0.985 . S
N2369 C2371 1.356 . S
N2369 H2374 0.984 . S
N2369 H2375 0.985 . S
C2370 C2364 1.379 . S
C2370 C2367 1.363 1_565 S
C2370 N2368 1.356 . S
C2371 C2365 1.349 1_545 S
C2371 C2366 1.379 . S
C2371 N2369 1.356 . S
N2372 C2364 1.356 . S
N2372 H2378 0.984 . S
N2372 H2379 0.984 . S
N2373 C2366 1.356 . S
N2373 H2376 0.984 . S
N2373 H2377 0.985 . S
H2374 N2369 0.984 . S
H2375 N2369 0.985 . S
H2376 N2373 0.984 . S
H2377 N2373 0.985 . S
H2378 N2372 0.984 . S
H2379 N2372 0.984 . S
H2380 N2368 0.984 . S
H2381 N2368 0.985 . S
C2382 C2383 1.363 . S
C2382 C2388 1.379 . S
C2382 N2390 1.356 . S
C2383 C2382 1.363 . S
C2383 C2389 1.363 . S
C2384 C2385 1.363 . S
C2384 C2389 1.379 . S
C2384 N2391 1.356 . S
C2385 C2384 1.363 . S
C2385 C2388 1.363 . S
N2386 C2388 1.356 . S
N2386 H2398 0.984 . S
N2386 H2399 0.985 . S
N2387 C2389 1.356 . S
N2387 H2392 0.984 . S
N2387 H2393 0.985 . S
C2388 C2382 1.379 . S
C2388 C2385 1.363 . S
C2388 N2386 1.356 . S
C2389 C2383 1.363 . S
C2389 C2384 1.379 . S
C2389 N2387 1.356 . S
N2390 C2382 1.356 . S
N2390 H2396 0.984 . S
N2390 H2397 0.984 . S
N2391 C2384 1.356 . S
N2391 H2394 0.984 . S
N2391 H2395 0.985 . S
H2392 N2387 0.984 . S
H2393 N2387 0.985 . S
H2394 N2391 0.984 . S
H2395 N2391 0.985 . S
H2396 N2390 0.984 . S
H2397 N2390 0.984 . S
H2398 N2386 0.984 . S
H2399 N2386 0.985 . S
C2400 C2401 1.363 . S
C2400 C2406 1.379 . S
C2400 N2408 1.356 . S
C2401 C2400 1.363 . S
C2401 C2407 1.363 . S
C2402 C2403 1.363 . S
C2402 C2407 1.379 . S
C2402 N2409 1.356 1_554 S
C2403 C2402 1.363 . S
C2403 C2406 1.363 . S
N2404 C2406 1.356 . S
N2404 H2416 0.984 1_545 S
N2404 H2417 0.985 . S
N2405 C2407 1.356 . S
N2405 H2410 0.984 . S
N2405 H2411 0.985 . S
C2406 C2400 1.379 . S
C2406 C2403 1.363 . S
C2406 N2404 1.356 . S
C2407 C2401 1.363 . S
C2407 C2402 1.379 . S
C2407 N2405 1.356 . S
N2408 C2400 1.356 . S
N2408 H2414 0.984 . S
N2408 H2415 0.984 . S
N2409 C2402 1.356 1_556 S
N2409 H2412 0.984 . S
N2409 H2413 0.985 . S
H2410 N2405 0.984 . S
H2411 N2405 0.985 . S
H2412 N2409 0.984 . S
H2413 N2409 0.985 . S
H2414 N2408 0.984 . S
H2415 N2408 0.984 . S
H2416 N2404 0.984 1_565 S
H2417 N2404 0.985 . S
C2418 C2419 1.363 . S
C2418 C2424 1.379 . S
C2418 N2426 1.356 . S
C2419 C2418 1.363 . S
C2419 C2425 1.363 . S
C2420 C2421 1.363 . S
C2420 C2425 1.379 . S
C2420 N2427 1.356 . S
C2421 C2420 1.363 . S
C2421 C2424 1.363 . S
N2422 C2424 1.356 . S
N2422 H2434 0.984 . S
N2422 H2435 0.985 . S
N2423 C2425 1.356 . S
N2423 H2428 0.984 . S
N2423 H2429 0.985 1_554 S
C2424 C2418 1.379 . S
C2424 C2421 1.363 . S
C2424 N2422 1.356 . S
C2425 C2419 1.363 . S
C2425 C2420 1.379 . S
C2425 N2423 1.356 . S
N2426 C2418 1.356 . S
N2426 H2432 0.984 . S
N2426 H2433 0.984 . S
N2427 C2420 1.356 . S
N2427 H2430 0.984 . S
N2427 H2431 0.985 1_554 S
H2428 N2423 0.984 . S
H2429 N2423 0.985 1_556 S
H2430 N2427 0.984 . S
H2431 N2427 0.985 1_556 S
H2432 N2426 0.984 . S
H2433 N2426 0.984 . S
H2434 N2422 0.984 . S
H2435 N2422 0.985 . S
C2436 C2437 1.363 . S
C2436 C2442 1.379 . S
C2436 N2444 1.356 . S
C2437 C2436 1.363 . S
C2437 C2443 1.363 . S
C2438 C2439 1.363 . S
C2438 C2443 1.379 . S
C2438 N2445 1.356 . S
C2439 C2438 1.363 . S
C2439 C2442 1.363 . S
N2440 C2442 1.356 . S
N2440 H2452 0.984 . S
N2440 H2453 0.985 . S
N2441 C2443 1.356 . S
N2441 H2446 0.984 . S
N2441 H2447 0.985 . S
C2442 C2436 1.379 . S
C2442 C2439 1.363 . S
C2442 N2440 1.356 . S
C2443 C2437 1.363 . S
C2443 C2438 1.379 . S
C2443 N2441 1.356 . S
N2444 C2436 1.356 . S
N2444 H2450 0.984 . S
N2444 H2451 0.984 . S
N2445 C2438 1.356 . S
N2445 H2448 0.984 . S
N2445 H2449 0.985 . S
H2446 N2441 0.984 . S
H2447 N2441 0.985 . S
H2448 N2445 0.984 . S
H2449 N2445 0.985 . S
H2450 N2444 0.984 . S
H2451 N2444 0.984 . S
H2452 N2440 0.984 . S
H2453 N2440 0.985 . S
C2454 C2455 1.363 . S
C2454 C2460 1.379 . S
C2454 N2462 1.356 . S
C2455 C2454 1.363 . S
C2455 C2461 1.363 . S
C2456 C2457 1.363 . S
C2456 C2461 1.379 . S
C2456 N2463 1.356 . S
C2457 C2456 1.363 . S
C2457 C2460 1.363 . S
N2458 C2460 1.356 . S
N2458 H2470 0.984 . S
N2458 H2471 0.985 . S
N2459 C2461 1.356 . S
N2459 H2464 0.984 . S
N2459 H2465 0.985 . S
C2460 C2454 1.379 . S
C2460 C2457 1.363 . S
C2460 N2458 1.356 . S
C2461 C2455 1.363 . S
C2461 C2456 1.379 . S
C2461 N2459 1.356 . S
N2462 C2454 1.356 . S
N2462 H2468 0.984 . S
N2462 H2469 0.984 . S
N2463 C2456 1.356 . S
N2463 H2466 0.984 . S
N2463 H2467 0.985 . S
H2464 N2459 0.984 . S
H2465 N2459 0.985 . S
H2466 N2463 0.984 . S
H2467 N2463 0.985 . S
H2468 N2462 0.984 . S
H2469 N2462 0.984 . S
H2470 N2458 0.984 . S
H2471 N2458 0.985 . S
C2472 C2473 1.363 . S
C2472 C2478 1.379 . S
C2472 N2480 1.356 . S
C2473 C2472 1.363 . S
C2473 C2479 1.363 1_565 S
C2474 C2475 1.363 . S
C2474 C2479 1.379 1_565 S
C2474 N2481 1.356 . S
C2475 C2474 1.363 . S
C2475 C2478 1.363 . S
N2476 C2478 1.356 . S
N2476 H2488 0.984 . S
N2476 H2489 0.985 . S
N2477 C2479 1.356 . S
N2477 H2482 0.984 . S
N2477 H2483 0.985 . S
C2478 C2472 1.379 . S
C2478 C2475 1.363 . S
C2478 N2476 1.356 . S
C2479 C2473 1.363 1_545 S
C2479 C2474 1.379 1_545 S
C2479 N2477 1.356 . S
N2480 C2472 1.356 . S
N2480 H2486 0.984 . S
N2480 H2487 0.984 . S
N2481 C2474 1.356 . S
N2481 H2484 0.984 . S
N2481 H2485 0.985 1_565 S
H2482 N2477 0.984 . S
H2483 N2477 0.985 . S
H2484 N2481 0.984 . S
H2485 N2481 0.985 1_545 S
H2486 N2480 0.984 . S
H2487 N2480 0.984 . S
H2488 N2476 0.984 . S
H2489 N2476 0.985 . S
C2490 C2491 1.363 . S
C2490 C2496 1.379 . S
C2490 N2498 1.356 . S
C2491 C2490 1.363 . S
C2491 C2497 1.363 . S
C2492 C2493 1.363 . S
C2492 C2497 1.379 . S
C2492 N2499 1.356 . S
C2493 C2492 1.363 . S
C2493 C2496 1.363 . S
N2494 C2496 1.356 . S
N2494 H2506 0.984 . S
N2494 H2507 0.985 . S
N2495 C2497 1.356 . S
N2495 H2500 0.984 . S
N2495 H2501 0.985 . S
C2496 C2490 1.379 . S
C2496 C2493 1.363 . S
C2496 N2494 1.356 . S
C2497 C2491 1.363 . S
C2497 C2492 1.379 . S
C2497 N2495 1.356 . S
N2498 C2490 1.356 . S
N2498 H2504 0.984 . S
N2498 H2505 0.984 . S
N2499 C2492 1.356 . S
N2499 H2502 0.984 . S
N2499 H2503 0.985 1_565 S
H2500 N2495 0.984 . S
H2501 N2495 0.985 . S
H2502 N2499 0.984 . S
H2503 N2499 0.985 1_545 S
H2504 N2498 0.984 . S
H2505 N2498 0.984 . S
H2506 N2494 0.984 . S
H2507 N2494 0.985 . S
C2508 C2509 1.363 . S
C2508 C2514 1.379 . S
C2508 N2516 1.356 . S
C2509 C2508 1.363 . S
C2509 C2515 1.363 . S
C2510 C2511 1.363 . S
C2510 C2515 1.379 . S
C2510 N2517 1.356 . S
C2511 C2510 1.363 . S
C2511 C2514 1.363 . S
N2512 C2514 1.356 . S
N2512 H2524 0.984 . S
N2512 H2525 0.985 . S
N2513 C2515 1.356 . S
N2513 H2518 0.984 . S
N2513 H2519 0.985 . S
C2514 C2508 1.379 . S
C2514 C2511 1.363 . S
C2514 N2512 1.356 . S
C2515 C2509 1.363 . S
C2515 C2510 1.379 . S
C2515 N2513 1.356 . S
N2516 C2508 1.356 . S
N2516 H2522 0.984 . S
N2516 H2523 0.984 . S
N2517 C2510 1.356 . S
N2517 H2520 0.984 . S
N2517 H2521 0.985 . S
H2518 N2513 0.984 . S
H2519 N2513 0.985 . S
H2520 N2517 0.984 . S
H2521 N2517 0.985 . S
H2522 N2516 0.984 . S
H2523 N2516 0.984 . S
H2524 N2512 0.984 . S
H2525 N2512 0.985 . S
C2526 C2527 1.363 . S
C2526 C2532 1.379 . S
C2526 N2534 1.356 . S
C2527 C2526 1.363 . S
C2527 C2533 1.363 . S
C2528 C2529 1.363 . S
C2528 C2533 1.379 . S
C2528 N2535 1.356 . S
C2529 C2528 1.363 . S
C2529 C2532 1.363 . S
N2530 C2532 1.356 . S
N2530 H2542 0.984 . S
N2530 H2543 0.985 . S
N2531 C2533 1.356 . S
N2531 H2536 0.984 . S
N2531 H2537 0.985 . S
C2532 C2526 1.379 . S
C2532 C2529 1.363 . S
C2532 N2530 1.356 . S
C2533 C2527 1.363 . S
C2533 C2528 1.379 . S
C2533 N2531 1.356 . S
N2534 C2526 1.356 . S
N2534 H2540 0.984 . S
N2534 H2541 0.984 . S
N2535 C2528 1.356 . S
N2535 H2538 0.984 . S
N2535 H2539 0.985 . S
H2536 N2531 0.984 . S
H2537 N2531 0.985 . S
H2538 N2535 0.984 . S
H2539 N2535 0.985 . S
H2540 N2534 0.984 . S
H2541 N2534 0.984 . S
H2542 N2530 0.984 . S
H2543 N2530 0.985 . S
C2544 C2545 1.363 . S
C2544 C2550 1.379 . S
C2544 N2552 1.356 . S
C2545 C2544 1.363 . S
C2545 C2551 1.363 . S
C2546 C2547 1.363 . S
C2546 C2551 1.379 . S
C2546 N2553 1.356 . S
C2547 C2546 1.363 . S
C2547 C2550 1.363 . S
N2548 C2550 1.356 . S
N2548 H2560 0.984 . S
N2548 H2561 0.985 . S
N2549 C2551 1.356 . S
N2549 H2554 0.984 . S
N2549 H2555 0.985 . S
C2550 C2544 1.379 . S
C2550 C2547 1.363 . S
C2550 N2548 1.356 . S
C2551 C2545 1.363 . S
C2551 C2546 1.379 . S
C2551 N2549 1.356 . S
N2552 C2544 1.356 . S
N2552 H2558 0.984 . S
N2552 H2559 0.984 . S
N2553 C2546 1.356 . S
N2553 H2556 0.984 . S
N2553 H2557 0.985 . S
H2554 N2549 0.984 . S
H2555 N2549 0.985 . S
H2556 N2553 0.984 . S
H2557 N2553 0.985 . S
H2558 N2552 0.984 . S
H2559 N2552 0.984 . S
H2560 N2548 0.984 . S
H2561 N2548 0.985 . S
C2562 C2563 1.363 . S
C2562 C2568 1.379 . S
C2562 N2570 1.356 . S
C2563 C2562 1.363 . S
C2563 C2569 1.363 . S
C2564 C2565 1.363 . S
C2564 C2569 1.379 . S
C2564 N2571 1.356 . S
C2565 C2564 1.363 . S
C2565 C2568 1.363 . S
N2566 C2568 1.356 . S
N2566 H2578 0.984 . S
N2566 H2579 0.985 . S
N2567 C2569 1.356 . S
N2567 H2572 0.984 . S
N2567 H2573 0.985 . S
C2568 C2562 1.379 . S
C2568 C2565 1.363 . S
C2568 N2566 1.356 . S
C2569 C2563 1.363 . S
C2569 C2564 1.379 . S
C2569 N2567 1.356 . S
N2570 C2562 1.356 . S
N2570 H2576 0.984 . S
N2570 H2577 0.984 . S
N2571 C2564 1.356 . S
N2571 H2574 0.984 . S
N2571 H2575 0.985 . S
H2572 N2567 0.984 . S
H2573 N2567 0.985 . S
H2574 N2571 0.984 . S
H2575 N2571 0.985 . S
H2576 N2570 0.984 . S
H2577 N2570 0.984 . S
H2578 N2566 0.984 . S
H2579 N2566 0.985 . S
C2580 C2581 1.363 . S
C2580 C2586 1.379 . S
C2580 N2588 1.356 . S
C2581 C2580 1.363 . S
C2581 C2587 1.363 1_556 S
C2582 C2583 1.363 . S
C2582 C2587 1.379 . S
C2582 N2589 1.356 . S
C2583 C2582 1.363 . S
C2583 C2586 1.363 1_554 S
N2584 C2586 1.356 . S
N2584 H2596 0.984 . S
N2584 H2597 0.985 . S
N2585 C2587 1.356 . S
N2585 H2590 0.984 . S
N2585 H2591 0.985 . S
C2586 C2580 1.379 . S
C2586 C2583 1.363 1_556 S
C2586 N2584 1.356 . S
C2587 C2581 1.363 1_554 S
C2587 C2582 1.379 . S
C2587 N2585 1.356 . S
N2588 C2580 1.356 . S
N2588 H2594 0.984 . S
N2588 H2595 0.984 . S
N2589 C2582 1.356 . S
N2589 H2592 0.984 . S
N2589 H2593 0.985 . S
H2590 N2585 0.984 . S
H2591 N2585 0.985 . S
H2592 N2589 0.984 . S
H2593 N2589 0.985 . S
H2594 N2588 0.984 . S
H2595 N2588 0.984 . S
H2596 N2584 0.984 . S
H2597 N2584 0.985 . S
C2598 C2599 1.363 . S
C2598 C2604 1.379 . S
C2598 N2606 1.356 . S
C2599 C2598 1.363 . S
C2599 C2605 1.363 . S
C2600 C2601 1.363 . S
C2600 C2605 1.379 1_655 S
C2600 N2607 1.356 . S
C2601 C2600 1.363 . S
C2601 C2604 1.363 1_655 S
N2602 C2604 1.356 . S
N2602 H2614 0.984 . S
N2602 H2615 0.985 1_455 S
N2603 C2605 1.356 . S
N2603 H2608 0.984 . S
N2603 H2609 0.985 . S
C2604 C2598 1.379 . S
C2604 C2601 1.363 1_455 S
C2604 N2602 1.356 . S
C2605 C2599 1.363 . S
C2605 C2600 1.379 1_455 S
C2605 N2603 1.356 . S
N2606 C2598 1.356 . S
N2606 H2612 0.984 . S
N2606 H2613 0.984 . S
N2607 C2600 1.356 . S
N2607 H2610 0.984 . S
N2607 H2611 0.985 . S
H2608 N2603 0.984 . S
H2609 N2603 0.985 . S
H2610 N2607 0.984 . S
H2611 N2607 0.985 . S
H2612 N2606 0.984 . S
H2613 N2606 0.984 . S
H2614 N2602 0.984 . S
H2615 N2602 0.985 1_655 S
C2616 C2617 1.363 . S
C2616 C2622 1.379 . S
C2616 N2624 1.356 . S
C2617 C2616 1.363 . S
C2617 C2623 1.363 . S
C2618 C2619 1.363 . S
C2618 C2623 1.379 . S
C2618 N2625 1.356 . S
C2619 C2618 1.363 . S
C2619 C2622 1.363 . S
N2620 C2622 1.356 . S
N2620 H2632 0.984 . S
N2620 H2633 0.985 . S
N2621 C2623 1.356 . S
N2621 H2626 0.984 . S
N2621 H2627 0.985 . S
C2622 C2616 1.379 . S
C2622 C2619 1.363 . S
C2622 N2620 1.356 . S
C2623 C2617 1.363 . S
C2623 C2618 1.379 . S
C2623 N2621 1.356 . S
N2624 C2616 1.356 . S
N2624 H2630 0.984 . S
N2624 H2631 0.984 . S
N2625 C2618 1.356 . S
N2625 H2628 0.984 . S
N2625 H2629 0.985 . S
H2626 N2621 0.984 . S
H2627 N2621 0.985 . S
H2628 N2625 0.984 . S
H2629 N2625 0.985 . S
H2630 N2624 0.984 . S
H2631 N2624 0.984 . S
H2632 N2620 0.984 . S
H2633 N2620 0.985 . S
C2634 C2635 1.363 . S
C2634 C2640 1.379 . S
C2634 N2642 1.356 . S
C2635 C2634 1.363 . S
C2635 C2641 1.363 . S
C2636 C2637 1.363 . S
C2636 C2641 1.379 . S
C2636 N2643 1.356 . S
C2637 C2636 1.363 . S
C2637 C2640 1.363 . S
N2638 C2640 1.356 . S
N2638 H2650 0.984 . S
N2638 H2651 0.985 . S
N2639 C2641 1.356 . S
N2639 H2644 0.984 . S
N2639 H2645 0.985 . S
C2640 C2634 1.379 . S
C2640 C2637 1.363 . S
C2640 N2638 1.356 . S
C2641 C2635 1.363 . S
C2641 C2636 1.379 . S
C2641 N2639 1.356 . S
N2642 C2634 1.356 . S
N2642 H2648 0.984 . S
N2642 H2649 0.984 . S
N2643 C2636 1.356 . S
N2643 H2646 0.984 1_455 S
N2643 H2647 0.985 . S
H2644 N2639 0.984 . S
H2645 N2639 0.985 . S
H2646 N2643 0.984 1_655 S
H2647 N2643 0.985 . S
H2648 N2642 0.984 . S
H2649 N2642 0.984 . S
H2650 N2638 0.984 . S
H2651 N2638 0.985 . S
C2652 C2653 1.371 . S
C2652 C2658 1.350 1_655 S
C2652 N2660 1.384 . S
C2653 C2652 1.371 . S
C2653 C2659 1.363 1_655 S
C2654 C2655 1.363 . S
C2654 C2659 1.379 . S
C2654 N2661 1.356 . S
C2655 C2654 1.363 . S
C2655 C2658 1.363 . S
N2656 C2658 1.356 . S
N2656 H2668 0.984 . S
N2656 H2669 0.985 . S
N2657 C2659 1.356 1_655 S
N2657 H2662 0.984 . S
N2657 H2663 0.985 1_655 S
C2658 C2652 1.350 1_455 S
C2658 C2655 1.363 . S
C2658 N2656 1.356 . S
C2659 C2653 1.363 1_455 S
C2659 C2654 1.379 . S
C2659 N2657 1.356 1_455 S
N2660 C2652 1.384 . S
N2660 H2666 0.984 . S
N2660 H2667 0.984 . S
N2661 C2654 1.356 . S
N2661 H2664 0.984 . S
N2661 H2665 0.985 . S
H2662 N2657 0.984 . S
H2663 N2657 0.985 1_455 S
H2664 N2661 0.984 . S
H2665 N2661 0.985 . S
H2666 N2660 0.984 . S
H2667 N2660 0.984 . S
H2668 N2656 0.984 . S
H2669 N2656 0.985 . S
C2670 C2671 1.363 . S
C2670 C2676 1.379 . S
C2670 N2678 1.356 . S
C2671 C2670 1.363 . S
C2671 C2677 1.363 . S
C2672 C2673 1.363 . S
C2672 C2677 1.379 . S
C2672 N2679 1.356 . S
C2673 C2672 1.363 . S
C2673 C2676 1.363 . S
N2674 C2676 1.356 . S
N2674 H2686 0.984 . S
N2674 H2687 0.985 . S
N2675 C2677 1.356 . S
N2675 H2680 0.984 . S
N2675 H2681 0.985 . S
C2676 C2670 1.379 . S
C2676 C2673 1.363 . S
C2676 N2674 1.356 . S
C2677 C2671 1.363 . S
C2677 C2672 1.379 . S
C2677 N2675 1.356 . S
N2678 C2670 1.356 . S
N2678 H2684 0.984 . S
N2678 H2685 0.984 . S
N2679 C2672 1.356 . S
N2679 H2682 0.984 . S
N2679 H2683 0.985 . S
H2680 N2675 0.984 . S
H2681 N2675 0.985 . S
H2682 N2679 0.984 . S
H2683 N2679 0.985 . S
H2684 N2678 0.984 . S
H2685 N2678 0.984 . S
H2686 N2674 0.984 . S
H2687 N2674 0.985 . S
C2688 C2689 1.363 . S
C2688 C2694 1.379 . S
C2688 N2696 1.356 . S
C2689 C2688 1.363 . S
C2689 C2695 1.363 . S
C2690 C2691 1.363 . S
C2690 C2695 1.379 . S
C2690 N2697 1.356 . S
C2691 C2690 1.363 . S
C2691 C2694 1.363 . S
N2692 C2694 1.356 . S
N2692 H2704 0.984 . S
N2692 H2705 0.985 . S
N2693 C2695 1.356 . S
N2693 H2698 0.984 . S
N2693 H2699 0.985 . S
C2694 C2688 1.379 . S
C2694 C2691 1.363 . S
C2694 N2692 1.356 . S
C2695 C2689 1.363 . S
C2695 C2690 1.379 . S
C2695 N2693 1.356 . S
N2696 C2688 1.356 . S
N2696 H2702 0.984 . S
N2696 H2703 0.984 . S
N2697 C2690 1.356 . S
N2697 H2700 0.984 . S
N2697 H2701 0.985 . S
H2698 N2693 0.984 . S
H2699 N2693 0.985 . S
H2700 N2697 0.984 . S
H2701 N2697 0.985 . S
H2702 N2696 0.984 . S
H2703 N2696 0.984 . S
H2704 N2692 0.984 . S
H2705 N2692 0.985 . S
C2706 C2707 1.363 . S
C2706 C2712 1.379 . S
C2706 N2714 1.356 1_556 S
C2707 C2706 1.363 . S
C2707 C2713 1.363 . S
C2708 C2709 1.363 . S
C2708 C2713 1.379 . S
C2708 N2715 1.356 . S
C2709 C2708 1.363 . S
C2709 C2712 1.363 . S
N2710 C2712 1.356 . S
N2710 H2722 0.984 . S
N2710 H2723 0.985 . S
N2711 C2713 1.356 . S
N2711 H2716 0.984 . S
N2711 H2717 0.985 . S
C2712 C2706 1.379 . S
C2712 C2709 1.363 . S
C2712 N2710 1.356 . S
C2713 C2707 1.363 . S
C2713 C2708 1.379 . S
C2713 N2711 1.356 . S
N2714 C2706 1.356 1_554 S
N2714 H2720 0.984 . S
N2714 H2721 0.984 . S
N2715 C2708 1.356 . S
N2715 H2718 0.984 . S
N2715 H2719 0.985 . S
H2716 N2711 0.984 . S
H2717 N2711 0.985 . S
H2718 N2715 0.984 . S
H2719 N2715 0.985 . S
H2720 N2714 0.984 . S
H2721 N2714 0.984 . S
H2722 N2710 0.984 . S
H2723 N2710 0.985 . S
C2724 C2725 1.363 . S
C2724 C2730 1.379 . S
C2724 N2732 1.356 . S
C2725 C2724 1.363 . S
C2725 C2731 1.363 . S
C2726 C2727 1.363 . S
C2726 C2731 1.379 . S
C2726 N2733 1.356 . S
C2727 C2726 1.363 . S
C2727 C2730 1.363 . S
N2728 C2730 1.356 . S
N2728 H2740 0.984 . S
N2728 H2741 0.985 . S
N2729 C2731 1.356 . S
N2729 H2734 0.984 . S
N2729 H2735 0.985 . S
C2730 C2724 1.379 . S
C2730 C2727 1.363 . S
C2730 N2728 1.356 . S
C2731 C2725 1.363 . S
C2731 C2726 1.379 . S
C2731 N2729 1.356 . S
N2732 C2724 1.356 . S
N2732 H2738 0.984 . S
N2732 H2739 0.984 . S
N2733 C2726 1.356 . S
N2733 H2736 0.984 . S
N2733 H2737 0.985 . S
H2734 N2729 0.984 . S
H2735 N2729 0.985 . S
H2736 N2733 0.984 . S
H2737 N2733 0.985 . S
H2738 N2732 0.984 . S
H2739 N2732 0.984 . S
H2740 N2728 0.984 . S
H2741 N2728 0.985 . S
C2742 C2743 1.363 . S
C2742 C2748 1.379 . S
C2742 N2750 1.356 . S
C2743 C2742 1.363 . S
C2743 C2749 1.363 . S
C2744 C2745 1.363 . S
C2744 C2749 1.379 . S
C2744 N2751 1.356 . S
C2745 C2744 1.363 . S
C2745 C2748 1.363 . S
N2746 C2748 1.356 . S
N2746 H2758 0.984 . S
N2746 H2759 0.985 . S
N2747 C2749 1.356 . S
N2747 H2752 0.984 . S
N2747 H2753 0.985 . S
C2748 C2742 1.379 . S
C2748 C2745 1.363 . S
C2748 N2746 1.356 . S
C2749 C2743 1.363 . S
C2749 C2744 1.379 . S
C2749 N2747 1.356 . S
N2750 C2742 1.356 . S
N2750 H2756 0.984 . S
N2750 H2757 0.984 . S
N2751 C2744 1.356 . S
N2751 H2754 0.984 . S
N2751 H2755 0.985 . S
H2752 N2747 0.984 . S
H2753 N2747 0.985 . S
H2754 N2751 0.984 . S
H2755 N2751 0.985 . S
H2756 N2750 0.984 . S
H2757 N2750 0.984 . S
H2758 N2746 0.984 . S
H2759 N2746 0.985 . S
C2760 C2761 1.363 . S
C2760 C2766 1.379 . S
C2760 N2768 1.356 . S
C2761 C2760 1.363 . S
C2761 C2767 1.363 . S
C2762 C2763 1.363 . S
C2762 C2767 1.379 . S
C2762 N2769 1.356 . S
C2763 C2762 1.363 . S
C2763 C2766 1.363 . S
N2764 C2766 1.356 . S
N2764 H2776 0.984 . S
N2764 H2777 0.985 . S
N2765 C2767 1.356 . S
N2765 H2770 0.984 . S
N2765 H2771 0.985 . S
C2766 C2760 1.379 . S
C2766 C2763 1.363 . S
C2766 N2764 1.356 . S
C2767 C2761 1.363 . S
C2767 C2762 1.379 . S
C2767 N2765 1.356 . S
N2768 C2760 1.356 . S
N2768 H2774 0.984 . S
N2768 H2775 0.984 . S
N2769 C2762 1.356 . S
N2769 H2772 0.984 . S
N2769 H2773 0.985 . S
H2770 N2765 0.984 . S
H2771 N2765 0.985 . S
H2772 N2769 0.984 . S
H2773 N2769 0.985 . S
H2774 N2768 0.984 . S
H2775 N2768 0.984 . S
H2776 N2764 0.984 . S
H2777 N2764 0.985 . S
C2778 C2779 1.363 . S
C2778 C2784 1.379 . S
C2778 N2786 1.356 . S
C2779 C2778 1.363 . S
C2779 C2785 1.363 . S
C2780 C2781 1.363 . S
C2780 C2785 1.379 . S
C2780 N2787 1.356 . S
C2781 C2780 1.363 . S
C2781 C2784 1.363 . S
N2782 C2784 1.356 . S
N2782 H2794 0.984 . S
N2782 H2795 0.985 . S
N2783 C2785 1.356 . S
N2783 H2788 0.984 . S
N2783 H2789 0.985 . S
C2784 C2778 1.379 . S
C2784 C2781 1.363 . S
C2784 N2782 1.356 . S
C2785 C2779 1.363 . S
C2785 C2780 1.379 . S
C2785 N2783 1.356 . S
N2786 C2778 1.356 . S
N2786 H2792 0.984 . S
N2786 H2793 0.984 . S
N2787 C2780 1.356 . S
N2787 H2790 0.984 . S
N2787 H2791 0.985 . S
H2788 N2783 0.984 . S
H2789 N2783 0.985 . S
H2790 N2787 0.984 . S
H2791 N2787 0.985 . S
H2792 N2786 0.984 . S
H2793 N2786 0.984 . S
H2794 N2782 0.984 . S
H2795 N2782 0.985 . S
C2796 C2797 1.363 . S
C2796 C2802 1.379 . S
C2796 N2804 1.356 . S
C2797 C2796 1.363 . S
C2797 C2803 1.363 . S
C2798 C2799 1.363 . S
C2798 C2803 1.379 . S
C2798 N2805 1.356 . S
C2799 C2798 1.363 . S
C2799 C2802 1.363 . S
N2800 C2802 1.356 . S
N2800 H2812 0.984 . S
N2800 H2813 0.985 . S
N2801 C2803 1.356 . S
N2801 H2806 0.984 . S
N2801 H2807 0.985 . S
C2802 C2796 1.379 . S
C2802 C2799 1.363 . S
C2802 N2800 1.356 . S
C2803 C2797 1.363 . S
C2803 C2798 1.379 . S
C2803 N2801 1.356 . S
N2804 C2796 1.356 . S
N2804 H2810 0.984 . S
N2804 H2811 0.984 . S
N2805 C2798 1.356 . S
N2805 H2808 0.984 . S
N2805 H2809 0.985 . S
H2806 N2801 0.984 . S
H2807 N2801 0.985 . S
H2808 N2805 0.984 . S
H2809 N2805 0.985 . S
H2810 N2804 0.984 . S
H2811 N2804 0.984 . S
H2812 N2800 0.984 . S
H2813 N2800 0.985 . S
C2814 C2815 1.363 . S
C2814 C2820 1.379 . S
C2814 N2822 1.356 . S
C2815 C2814 1.363 . S
C2815 C2821 1.363 . S
C2816 C2817 1.363 . S
C2816 C2821 1.379 . S
C2816 N2823 1.356 . S
C2817 C2816 1.363 . S
C2817 C2820 1.363 . S
N2818 C2820 1.356 . S
N2818 H2830 0.984 . S
N2818 H2831 0.985 . S
N2819 C2821 1.356 . S
N2819 H2824 0.984 . S
N2819 H2825 0.985 . S
C2820 C2814 1.379 . S
C2820 C2817 1.363 . S
C2820 N2818 1.356 . S
C2821 C2815 1.363 . S
C2821 C2816 1.379 . S
C2821 N2819 1.356 . S
N2822 C2814 1.356 . S
N2822 H2828 0.984 . S
N2822 H2829 0.984 . S
N2823 C2816 1.356 . S
N2823 H2826 0.984 . S
N2823 H2827 0.985 . S
H2824 N2819 0.984 . S
H2825 N2819 0.985 . S
H2826 N2823 0.984 . S
H2827 N2823 0.985 . S
H2828 N2822 0.984 . S
H2829 N2822 0.984 . S
H2830 N2818 0.984 . S
H2831 N2818 0.985 . S
C2832 C2833 1.363 . S
C2832 C2838 1.379 . S
C2832 N2840 1.356 . S
C2833 C2832 1.363 . S
C2833 C2839 1.363 . S
C2834 C2835 1.363 . S
C2834 C2839 1.379 . S
C2834 N2841 1.356 . S
C2835 C2834 1.363 . S
C2835 C2838 1.363 . S
N2836 C2838 1.356 . S
N2836 H2848 0.984 . S
N2836 H2849 0.985 . S
N2837 C2839 1.356 . S
N2837 H2842 0.984 . S
N2837 H2843 0.985 . S
C2838 C2832 1.379 . S
C2838 C2835 1.363 . S
C2838 N2836 1.356 . S
C2839 C2833 1.363 . S
C2839 C2834 1.379 . S
C2839 N2837 1.356 . S
N2840 C2832 1.356 . S
N2840 H2846 0.984 . S
N2840 H2847 0.984 . S
N2841 C2834 1.356 . S
N2841 H2844 0.984 . S
N2841 H2845 0.985 . S
H2842 N2837 0.984 . S
H2843 N2837 0.985 . S
H2844 N2841 0.984 . S
H2845 N2841 0.985 . S
H2846 N2840 0.984 . S
H2847 N2840 0.984 . S
H2848 N2836 0.984 . S
H2849 N2836 0.985 . S
C2850 C2851 1.363 . S
C2850 C2856 1.379 . S
C2850 N2858 1.356 . S
C2851 C2850 1.363 . S
C2851 C2857 1.363 . S
C2852 C2853 1.363 . S
C2852 C2857 1.379 . S
C2852 N2859 1.356 . S
C2853 C2852 1.363 . S
C2853 C2856 1.363 . S
N2854 C2856 1.356 . S
N2854 H2866 0.984 . S
N2854 H2867 0.985 . S
N2855 C2857 1.356 . S
N2855 H2860 0.984 . S
N2855 H2861 0.985 . S
C2856 C2850 1.379 . S
C2856 C2853 1.363 . S
C2856 N2854 1.356 . S
C2857 C2851 1.363 . S
C2857 C2852 1.379 . S
C2857 N2855 1.356 . S
N2858 C2850 1.356 . S
N2858 H2864 0.984 . S
N2858 H2865 0.984 . S
N2859 C2852 1.356 . S
N2859 H2862 0.984 . S
N2859 H2863 0.985 . S
H2860 N2855 0.984 . S
H2861 N2855 0.985 . S
H2862 N2859 0.984 . S
H2863 N2859 0.985 . S
H2864 N2858 0.984 . S
H2865 N2858 0.984 . S
H2866 N2854 0.984 . S
H2867 N2854 0.985 . S
C2868 C2869 1.363 . S
C2868 C2874 1.379 . S
C2868 N2876 1.356 . S
C2869 C2868 1.363 . S
C2869 C2875 1.363 . S
C2870 C2871 1.363 . S
C2870 C2875 1.379 . S
C2870 N2877 1.356 . S
C2871 C2870 1.363 . S
C2871 C2874 1.363 . S
N2872 C2874 1.356 . S
N2872 H2884 0.984 . S
N2872 H2885 0.985 . S
N2873 C2875 1.356 . S
N2873 H2878 0.984 . S
N2873 H2879 0.985 . S
C2874 C2868 1.379 . S
C2874 C2871 1.363 . S
C2874 N2872 1.356 . S
C2875 C2869 1.363 . S
C2875 C2870 1.379 . S
C2875 N2873 1.356 . S
N2876 C2868 1.356 . S
N2876 H2882 0.984 . S
N2876 H2883 0.984 . S
N2877 C2870 1.356 . S
N2877 H2880 0.984 . S
N2877 H2881 0.985 . S
H2878 N2873 0.984 . S
H2879 N2873 0.985 . S
H2880 N2877 0.984 . S
H2881 N2877 0.985 . S
H2882 N2876 0.984 . S
H2883 N2876 0.984 . S
H2884 N2872 0.984 . S
H2885 N2872 0.985 . S
C2886 C2887 1.363 1_545 S
C2886 C2892 1.380 . S
C2886 N2894 1.356 1_554 S
C2887 C2886 1.363 1_565 S
C2887 C2893 1.363 . S
C2888 C2889 1.363 1_565 S
C2888 C2893 1.379 . S
C2888 N2895 1.356 . S
C2889 C2888 1.363 1_545 S
C2889 C2892 1.366 . S
N2890 C2892 1.352 1_556 S
N2890 H2902 0.984 . S
N2890 H2903 0.985 . S
N2891 C2893 1.356 . S
N2891 H2896 0.984 . S
N2891 H2897 0.985 . S
C2892 C2886 1.380 . S
C2892 C2889 1.366 . S
C2892 N2890 1.352 1_554 S
C2893 C2887 1.363 . S
C2893 C2888 1.379 . S
C2893 N2891 1.356 . S
N2894 C2886 1.356 1_556 S
N2894 H2900 0.984 . S
N2894 H2901 0.984 . S
N2895 C2888 1.356 . S
N2895 H2898 0.984 . S
N2895 H2899 0.985 . S
H2896 N2891 0.984 . S
H2897 N2891 0.985 . S
H2898 N2895 0.984 . S
H2899 N2895 0.985 . S
H2900 N2894 0.984 . S
H2901 N2894 0.984 . S
H2902 N2890 0.984 . S
H2903 N2890 0.985 . S
C2904 C2905 1.363 . S
C2904 C2910 1.379 . S
C2904 N2912 1.356 . S
C2905 C2904 1.363 . S
C2905 C2911 1.363 . S
C2906 C2907 1.363 . S
C2906 C2911 1.379 . S
C2906 N2913 1.356 . S
C2907 C2906 1.363 . S
C2907 C2910 1.363 . S
N2908 C2910 1.356 . S
N2908 H2920 0.984 . S
N2908 H2921 0.985 . S
N2909 C2911 1.356 . S
N2909 H2914 0.984 . S
N2909 H2915 0.985 . S
C2910 C2904 1.379 . S
C2910 C2907 1.363 . S
C2910 N2908 1.356 . S
C2911 C2905 1.363 . S
C2911 C2906 1.379 . S
C2911 N2909 1.356 . S
N2912 C2904 1.356 . S
N2912 H2918 0.984 . S
N2912 H2919 0.984 . S
N2913 C2906 1.356 . S
N2913 H2916 0.984 . S
N2913 H2917 0.985 . S
H2914 N2909 0.984 . S
H2915 N2909 0.985 . S
H2916 N2913 0.984 . S
H2917 N2913 0.985 . S
H2918 N2912 0.984 . S
H2919 N2912 0.984 . S
H2920 N2908 0.984 . S
H2921 N2908 0.985 . S
C2922 C2923 1.363 1_556 S
C2922 C2928 1.379 1_556 S
C2922 N2930 1.356 . S
C2923 C2922 1.363 1_554 S
C2923 C2929 1.363 . S
C2924 C2925 1.363 . S
C2924 C2929 1.379 . S
C2924 N2931 1.356 . S
C2925 C2924 1.363 . S
C2925 C2928 1.363 . S
N2926 C2928 1.356 . S
N2926 H2938 0.984 1_554 S
N2926 H2939 0.985 . S
N2927 C2929 1.356 . S
N2927 H2932 0.984 . S
N2927 H2933 0.985 . S
C2928 C2922 1.379 1_554 S
C2928 C2925 1.363 . S
C2928 N2926 1.356 . S
C2929 C2923 1.363 . S
C2929 C2924 1.379 . S
C2929 N2927 1.356 . S
N2930 C2922 1.356 . S
N2930 H2936 0.984 . S
N2930 H2937 0.984 . S
N2931 C2924 1.356 . S
N2931 H2934 0.984 . S
N2931 H2935 0.985 . S
H2932 N2927 0.984 . S
H2933 N2927 0.985 . S
H2934 N2931 0.984 . S
H2935 N2931 0.985 . S
H2936 N2930 0.984 . S
H2937 N2930 0.984 . S
H2938 N2926 0.984 1_556 S
H2939 N2926 0.985 . S
C2940 C2941 1.363 . S
C2940 C2946 1.379 . S
C2940 N2948 1.356 . S
C2941 C2940 1.363 . S
C2941 C2947 1.363 . S
C2942 C2943 1.363 . S
C2942 C2947 1.379 . S
C2942 N2949 1.356 . S
C2943 C2942 1.363 . S
C2943 C2946 1.363 . S
N2944 C2946 1.356 . S
N2944 H2956 0.984 . S
N2944 H2957 0.985 . S
N2945 C2947 1.356 . S
N2945 H2950 0.984 . S
N2945 H2951 0.985 . S
C2946 C2940 1.379 . S
C2946 C2943 1.363 . S
C2946 N2944 1.356 . S
C2947 C2941 1.363 . S
C2947 C2942 1.379 . S
C2947 N2945 1.356 . S
N2948 C2940 1.356 . S
N2948 H2954 0.984 . S
N2948 H2955 0.984 . S
N2949 C2942 1.356 . S
N2949 H2952 0.984 . S
N2949 H2953 0.985 . S
H2950 N2945 0.984 . S
H2951 N2945 0.985 . S
H2952 N2949 0.984 . S
H2953 N2949 0.985 . S
H2954 N2948 0.984 . S
H2955 N2948 0.984 . S
H2956 N2944 0.984 . S
H2957 N2944 0.985 . S
C2958 C2959 1.363 . S
C2958 C2964 1.379 . S
C2958 N2966 1.356 . S
C2959 C2958 1.363 . S
C2959 C2965 1.363 . S
C2960 C2961 1.363 . S
C2960 C2965 1.379 . S
C2960 N2967 1.356 . S
C2961 C2960 1.363 . S
C2961 C2964 1.363 . S
N2962 C2964 1.356 . S
N2962 H2974 0.984 . S
N2962 H2975 0.985 . S
N2963 C2965 1.356 . S
N2963 H2968 0.984 . S
N2963 H2969 0.985 . S
C2964 C2958 1.379 . S
C2964 C2961 1.363 . S
C2964 N2962 1.356 . S
C2965 C2959 1.363 . S
C2965 C2960 1.379 . S
C2965 N2963 1.356 . S
N2966 C2958 1.356 . S
N2966 H2972 0.984 . S
N2966 H2973 0.984 . S
N2967 C2960 1.356 . S
N2967 H2970 0.984 . S
N2967 H2971 0.985 . S
H2968 N2963 0.984 . S
H2969 N2963 0.985 . S
H2970 N2967 0.984 . S
H2971 N2967 0.985 . S
H2972 N2966 0.984 . S
H2973 N2966 0.984 . S
H2974 N2962 0.984 . S
H2975 N2962 0.985 . S
C2976 C2977 1.363 . S
C2976 C2982 1.379 . S
C2976 N2984 1.356 . S
C2977 C2976 1.363 . S
C2977 C2983 1.363 . S
C2978 C2979 1.363 . S
C2978 C2983 1.379 . S
C2978 N2985 1.356 . S
C2979 C2978 1.363 . S
C2979 C2982 1.363 . S
N2980 C2982 1.356 . S
N2980 H2992 0.984 . S
N2980 H2993 0.985 . S
N2981 C2983 1.356 . S
N2981 H2986 0.984 . S
N2981 H2987 0.985 . S
C2982 C2976 1.379 . S
C2982 C2979 1.363 . S
C2982 N2980 1.356 . S
C2983 C2977 1.363 . S
C2983 C2978 1.379 . S
C2983 N2981 1.356 . S
N2984 C2976 1.356 . S
N2984 H2990 0.984 . S
N2984 H2991 0.984 . S
N2985 C2978 1.356 . S
N2985 H2988 0.984 . S
N2985 H2989 0.985 . S
H2986 N2981 0.984 . S
H2987 N2981 0.985 . S
H2988 N2985 0.984 . S
H2989 N2985 0.985 . S
H2990 N2984 0.984 . S
H2991 N2984 0.984 . S
H2992 N2980 0.984 . S
H2993 N2980 0.985 . S
C2994 C2995 1.363 . S
C2994 C3000 1.379 . S
C2994 N3002 1.356 . S
C2995 C2994 1.363 . S
C2995 C3001 1.363 . S
C2996 C2997 1.363 . S
C2996 C3001 1.379 . S
C2996 N3003 1.356 . S
C2997 C2996 1.363 . S
C2997 C3000 1.363 . S
N2998 C3000 1.356 . S
N2998 H3010 0.984 . S
N2998 H3011 0.985 . S
N2999 C3001 1.356 . S
N2999 H3004 0.984 . S
N2999 H3005 0.985 . S
C3000 C2994 1.379 . S
C3000 C2997 1.363 . S
C3000 N2998 1.356 . S
C3001 C2995 1.363 . S
C3001 C2996 1.379 . S
C3001 N2999 1.356 . S
N3002 C2994 1.356 . S
N3002 H3008 0.984 . S
N3002 H3009 0.984 . S
N3003 C2996 1.356 . S
N3003 H3006 0.984 . S
N3003 H3007 0.985 . S
H3004 N2999 0.984 . S
H3005 N2999 0.985 . S
H3006 N3003 0.984 . S
H3007 N3003 0.985 . S
H3008 N3002 0.984 . S
H3009 N3002 0.984 . S
H3010 N2998 0.984 . S
H3011 N2998 0.985 . S
C3012 C3013 1.363 . S
C3012 C3018 1.379 . S
C3012 N3020 1.356 . S
C3013 C3012 1.363 . S
C3013 C3019 1.363 . S
C3014 C3015 1.363 . S
C3014 C3019 1.379 . S
C3014 N3021 1.356 . S
C3015 C3014 1.363 . S
C3015 C3018 1.363 . S
N3016 C3018 1.356 1_556 S
N3016 H3028 0.984 . S
N3016 H3029 0.985 . S
N3017 C3019 1.356 . S
N3017 H3022 0.984 . S
N3017 H3023 0.985 . S
C3018 C3012 1.379 . S
C3018 C3015 1.363 . S
C3018 N3016 1.356 1_554 S
C3019 C3013 1.363 . S
C3019 C3014 1.379 . S
C3019 N3017 1.356 . S
N3020 C3012 1.356 . S
N3020 H3026 0.984 1_554 S
N3020 H3027 0.984 . S
N3021 C3014 1.356 . S
N3021 H3024 0.984 . S
N3021 H3025 0.985 . S
H3022 N3017 0.984 . S
H3023 N3017 0.985 . S
H3024 N3021 0.984 . S
H3025 N3021 0.985 . S
H3026 N3020 0.984 1_556 S
H3027 N3020 0.984 . S
H3028 N3016 0.984 . S
H3029 N3016 0.985 . S
C3030 C3031 1.363 . S
C3030 C3036 1.379 . S
C3030 N3038 1.356 . S
C3031 C3030 1.363 . S
C3031 C3037 1.363 . S
C3032 C3033 1.363 . S
C3032 C3037 1.379 . S
C3032 N3039 1.356 . S
C3033 C3032 1.363 . S
C3033 C3036 1.363 . S
N3034 C3036 1.356 . S
N3034 H3046 0.984 . S
N3034 H3047 0.985 . S
N3035 C3037 1.356 . S
N3035 H3040 0.984 . S
N3035 H3041 0.985 . S
C3036 C3030 1.379 . S
C3036 C3033 1.363 . S
C3036 N3034 1.356 . S
C3037 C3031 1.363 . S
C3037 C3032 1.379 . S
C3037 N3035 1.356 . S
N3038 C3030 1.356 . S
N3038 H3044 0.984 . S
N3038 H3045 0.984 . S
N3039 C3032 1.356 . S
N3039 H3042 0.984 . S
N3039 H3043 0.985 . S
H3040 N3035 0.984 . S
H3041 N3035 0.985 . S
H3042 N3039 0.984 . S
H3043 N3039 0.985 . S
H3044 N3038 0.984 . S
H3045 N3038 0.984 . S
H3046 N3034 0.984 . S
H3047 N3034 0.985 . S
C3048 C3049 1.363 . S
C3048 C3054 1.379 . S
C3048 N3056 1.356 . S
C3049 C3048 1.363 . S
C3049 C3055 1.363 . S
C3050 C3051 1.363 . S
C3050 C3055 1.379 . S
C3050 N3057 1.356 1_556 S
C3051 C3050 1.363 . S
C3051 C3054 1.363 . S
N3052 C3054 1.356 . S
N3052 H3064 0.984 . S
N3052 H3065 0.985 . S
N3053 C3055 1.356 . S
N3053 H3058 0.984 . S
N3053 H3059 0.985 . S
C3054 C3048 1.379 . S
C3054 C3051 1.363 . S
C3054 N3052 1.356 . S
C3055 C3049 1.363 . S
C3055 C3050 1.379 . S
C3055 N3053 1.356 . S
N3056 C3048 1.356 . S
N3056 H3062 0.984 . S
N3056 H3063 0.984 . S
N3057 C3050 1.356 1_554 S
N3057 H3060 0.984 . S
N3057 H3061 0.985 . S
H3058 N3053 0.984 . S
H3059 N3053 0.985 . S
H3060 N3057 0.984 . S
H3061 N3057 0.985 . S
H3062 N3056 0.984 . S
H3063 N3056 0.984 . S
H3064 N3052 0.984 . S
H3065 N3052 0.985 . S
C3066 C3067 1.363 . S
C3066 C3072 1.379 . S
C3066 N3074 1.356 . S
C3067 C3066 1.363 . S
C3067 C3073 1.363 . S
C3068 C3069 1.363 . S
C3068 C3073 1.379 . S
C3068 N3075 1.356 . S
C3069 C3068 1.363 . S
C3069 C3072 1.363 . S
N3070 C3072 1.356 . S
N3070 H3082 0.984 . S
N3070 H3083 0.985 . S
N3071 C3073 1.356 . S
N3071 H3076 0.984 . S
N3071 H3077 0.985 . S
C3072 C3066 1.379 . S
C3072 C3069 1.363 . S
C3072 N3070 1.356 . S
C3073 C3067 1.363 . S
C3073 C3068 1.379 . S
C3073 N3071 1.356 . S
N3074 C3066 1.356 . S
N3074 H3080 0.984 . S
N3074 H3081 0.984 . S
N3075 C3068 1.356 . S
N3075 H3078 0.984 . S
N3075 H3079 0.985 . S
H3076 N3071 0.984 . S
H3077 N3071 0.985 . S
H3078 N3075 0.984 . S
H3079 N3075 0.985 . S
H3080 N3074 0.984 . S
H3081 N3074 0.984 . S
H3082 N3070 0.984 . S
H3083 N3070 0.985 . S
C3084 C3085 1.363 . S
C3084 C3090 1.379 . S
C3084 N3092 1.356 . S
C3085 C3084 1.363 . S
C3085 C3091 1.363 . S
C3086 C3087 1.363 . S
C3086 C3091 1.379 . S
C3086 N3093 1.356 . S
C3087 C3086 1.363 . S
C3087 C3090 1.363 . S
N3088 C3090 1.356 . S
N3088 H3100 0.984 . S
N3088 H3101 0.985 . S
N3089 C3091 1.356 . S
N3089 H3094 0.984 . S
N3089 H3095 0.985 . S
C3090 C3084 1.379 . S
C3090 C3087 1.363 . S
C3090 N3088 1.356 . S
C3091 C3085 1.363 . S
C3091 C3086 1.379 . S
C3091 N3089 1.356 . S
N3092 C3084 1.356 . S
N3092 H3098 0.984 . S
N3092 H3099 0.984 . S
N3093 C3086 1.356 . S
N3093 H3096 0.984 . S
N3093 H3097 0.985 . S
H3094 N3089 0.984 . S
H3095 N3089 0.985 . S
H3096 N3093 0.984 . S
H3097 N3093 0.985 . S
H3098 N3092 0.984 . S
H3099 N3092 0.984 . S
H3100 N3088 0.984 . S
H3101 N3088 0.985 . S
C3102 C3103 1.363 . S
C3102 C3108 1.379 . S
C3102 N3110 1.356 . S
C3103 C3102 1.363 . S
C3103 C3109 1.363 . S
C3104 C3105 1.363 . S
C3104 C3109 1.379 . S
C3104 N3111 1.356 . S
C3105 C3104 1.363 . S
C3105 C3108 1.363 . S
N3106 C3108 1.356 . S
N3106 H3118 0.984 . S
N3106 H3119 0.985 . S
N3107 C3109 1.356 . S
N3107 H3112 0.984 . S
N3107 H3113 0.985 . S
C3108 C3102 1.379 . S
C3108 C3105 1.363 . S
C3108 N3106 1.356 . S
C3109 C3103 1.363 . S
C3109 C3104 1.379 . S
C3109 N3107 1.356 . S
N3110 C3102 1.356 . S
N3110 H3116 0.984 . S
N3110 H3117 0.984 . S
N3111 C3104 1.356 . S
N3111 H3114 0.984 . S
N3111 H3115 0.985 . S
H3112 N3107 0.984 . S
H3113 N3107 0.985 . S
H3114 N3111 0.984 . S
H3115 N3111 0.985 . S
H3116 N3110 0.984 . S
H3117 N3110 0.984 . S
H3118 N3106 0.984 . S
H3119 N3106 0.985 . S
C3120 C3121 1.363 . S
C3120 C3126 1.379 . S
C3120 N3128 1.356 . S
C3121 C3120 1.363 . S
C3121 C3127 1.363 . S
C3122 C3123 1.363 . S
C3122 C3127 1.379 . S
C3122 N3129 1.356 . S
C3123 C3122 1.363 . S
C3123 C3126 1.363 . S
N3124 C3126 1.356 . S
N3124 H3136 0.984 . S
N3124 H3137 0.985 . S
N3125 C3127 1.356 . S
N3125 H3130 0.984 . S
N3125 H3131 0.985 . S
C3126 C3120 1.379 . S
C3126 C3123 1.363 . S
C3126 N3124 1.356 . S
C3127 C3121 1.363 . S
C3127 C3122 1.379 . S
C3127 N3125 1.356 . S
N3128 C3120 1.356 . S
N3128 H3134 0.984 . S
N3128 H3135 0.984 . S
N3129 C3122 1.356 . S
N3129 H3132 0.984 . S
N3129 H3133 0.985 . S
H3130 N3125 0.984 . S
H3131 N3125 0.985 . S
H3132 N3129 0.984 . S
H3133 N3129 0.985 . S
H3134 N3128 0.984 . S
H3135 N3128 0.984 . S
H3136 N3124 0.984 . S
H3137 N3124 0.985 . S
C3138 C3139 1.363 . S
C3138 C3144 1.379 . S
C3138 N3146 1.356 . S
C3139 C3138 1.363 . S
C3139 C3145 1.363 . S
C3140 C3141 1.363 . S
C3140 C3145 1.379 . S
C3140 N3147 1.356 . S
C3141 C3140 1.363 . S
C3141 C3144 1.363 . S
N3142 C3144 1.356 . S
N3142 H3154 0.984 . S
N3142 H3155 0.985 . S
N3143 C3145 1.356 . S
N3143 H3148 0.984 . S
N3143 H3149 0.985 . S
C3144 C3138 1.379 . S
C3144 C3141 1.363 . S
C3144 N3142 1.356 . S
C3145 C3139 1.363 . S
C3145 C3140 1.379 . S
C3145 N3143 1.356 . S
N3146 C3138 1.356 . S
N3146 H3152 0.984 . S
N3146 H3153 0.984 . S
N3147 C3140 1.356 . S
N3147 H3150 0.984 . S
N3147 H3151 0.985 . S
H3148 N3143 0.984 . S
H3149 N3143 0.985 . S
H3150 N3147 0.984 . S
H3151 N3147 0.985 . S
H3152 N3146 0.984 . S
H3153 N3146 0.984 . S
H3154 N3142 0.984 . S
H3155 N3142 0.985 . S
C3156 C3157 1.363 1_455 S
C3156 C3162 1.379 . S
C3156 N3164 1.356 . S
C3157 C3156 1.363 1_655 S
C3157 C3163 1.363 . S
C3158 C3159 1.363 . S
C3158 C3163 1.379 1_455 S
C3158 N3165 1.356 . S
C3159 C3158 1.363 . S
C3159 C3162 1.363 . S
N3160 C3162 1.356 . S
N3160 H3172 0.984 . S
N3160 H3173 0.985 . S
N3161 C3163 1.356 . S
N3161 H3166 0.984 . S
N3161 H3167 0.985 . S
C3162 C3156 1.379 . S
C3162 C3159 1.363 . S
C3162 N3160 1.356 . S
C3163 C3157 1.363 . S
C3163 C3158 1.379 1_655 S
C3163 N3161 1.356 . S
N3164 C3156 1.356 . S
N3164 H3170 0.984 . S
N3164 H3171 0.984 1_455 S
N3165 C3158 1.356 . S
N3165 H3168 0.984 . S
N3165 H3169 0.985 1_455 S
H3166 N3161 0.984 . S
H3167 N3161 0.985 . S
H3168 N3165 0.984 . S
H3169 N3165 0.985 1_655 S
H3170 N3164 0.984 . S
H3171 N3164 0.984 1_655 S
H3172 N3160 0.984 . S
H3173 N3160 0.985 . S
C3174 C3175 1.363 . S
C3174 C3180 1.379 . S
C3174 N3182 1.356 . S
C3175 C3174 1.363 . S
C3175 C3181 1.363 . S
C3176 C3177 1.363 . S
C3176 C3181 1.379 . S
C3176 N3183 1.356 . S
C3177 C3176 1.363 . S
C3177 C3180 1.363 . S
N3178 C3180 1.356 . S
N3178 H3190 0.984 . S
N3178 H3191 0.985 . S
N3179 C3181 1.356 . S
N3179 H3184 0.984 . S
N3179 H3185 0.985 . S
C3180 C3174 1.379 . S
C3180 C3177 1.363 . S
C3180 N3178 1.356 . S
C3181 C3175 1.363 . S
C3181 C3176 1.379 . S
C3181 N3179 1.356 . S
N3182 C3174 1.356 . S
N3182 H3188 0.984 . S
N3182 H3189 0.984 . S
N3183 C3176 1.356 . S
N3183 H3186 0.984 . S
N3183 H3187 0.985 . S
H3184 N3179 0.984 . S
H3185 N3179 0.985 . S
H3186 N3183 0.984 . S
H3187 N3183 0.985 . S
H3188 N3182 0.984 . S
H3189 N3182 0.984 . S
H3190 N3178 0.984 . S
H3191 N3178 0.985 . S
C3192 C3193 1.363 . S
C3192 C3198 1.379 . S
C3192 N3200 1.356 . S
C3193 C3192 1.363 . S
C3193 C3199 1.363 . S
C3194 C3195 1.363 . S
C3194 C3199 1.379 . S
C3194 N3201 1.356 . S
C3195 C3194 1.363 . S
C3195 C3198 1.363 . S
N3196 C3198 1.356 . S
N3196 H3208 0.984 . S
N3196 H3209 0.985 . S
N3197 C3199 1.356 . S
N3197 H3202 0.984 . S
N3197 H3203 0.985 . S
C3198 C3192 1.379 . S
C3198 C3195 1.363 . S
C3198 N3196 1.356 . S
C3199 C3193 1.363 . S
C3199 C3194 1.379 . S
C3199 N3197 1.356 . S
N3200 C3192 1.356 . S
N3200 H3206 0.984 . S
N3200 H3207 0.984 . S
N3201 C3194 1.356 . S
N3201 H3204 0.984 . S
N3201 H3205 0.985 . S
H3202 N3197 0.984 . S
H3203 N3197 0.985 . S
H3204 N3201 0.984 . S
H3205 N3201 0.985 . S
H3206 N3200 0.984 . S
H3207 N3200 0.984 . S
H3208 N3196 0.984 . S
H3209 N3196 0.985 . S
C3210 C3211 1.363 . S
C3210 C3216 1.379 . S
C3210 N3218 1.356 . S
C3211 C3210 1.363 . S
C3211 C3217 1.363 . S
C3212 C3213 1.363 . S
C3212 C3217 1.379 . S
C3212 N3219 1.356 . S
C3213 C3212 1.363 . S
C3213 C3216 1.363 . S
N3214 C3216 1.356 . S
N3214 H3226 0.984 . S
N3214 H3227 0.985 . S
N3215 C3217 1.356 . S
N3215 H3220 0.984 . S
N3215 H3221 0.985 . S
C3216 C3210 1.379 . S
C3216 C3213 1.363 . S
C3216 N3214 1.356 . S
C3217 C3211 1.363 . S
C3217 C3212 1.379 . S
C3217 N3215 1.356 . S
N3218 C3210 1.356 . S
N3218 H3224 0.984 . S
N3218 H3225 0.984 . S
N3219 C3212 1.356 . S
N3219 H3222 0.984 . S
N3219 H3223 0.985 . S
H3220 N3215 0.984 . S
H3221 N3215 0.985 . S
H3222 N3219 0.984 . S
H3223 N3219 0.985 . S
H3224 N3218 0.984 . S
H3225 N3218 0.984 . S
H3226 N3214 0.984 . S
H3227 N3214 0.985 . S
C3228 C3229 1.363 . S
C3228 C3234 1.379 . S
C3228 N3236 1.356 . S
C3229 C3228 1.363 . S
C3229 C3235 1.363 . S
C3230 C3231 1.363 . S
C3230 C3235 1.379 . S
C3230 N3237 1.356 1_655 S
C3231 C3230 1.363 . S
C3231 C3234 1.363 . S
N3232 C3234 1.356 . S
N3232 H3244 0.984 . S
N3232 H3245 0.985 . S
N3233 C3235 1.356 . S
N3233 H3238 0.984 . S
N3233 H3239 0.985 . S
C3234 C3228 1.379 . S
C3234 C3231 1.363 . S
C3234 N3232 1.356 . S
C3235 C3229 1.363 . S
C3235 C3230 1.379 . S
C3235 N3233 1.356 . S
N3236 C3228 1.356 . S
N3236 H3242 0.984 . S
N3236 H3243 0.984 . S
N3237 C3230 1.356 1_455 S
N3237 H3240 0.984 . S
N3237 H3241 0.985 . S
H3238 N3233 0.984 . S
H3239 N3233 0.985 . S
H3240 N3237 0.984 . S
H3241 N3237 0.985 . S
H3242 N3236 0.984 . S
H3243 N3236 0.984 . S
H3244 N3232 0.984 . S
H3245 N3232 0.985 . S
C3246 C3247 1.363 . S
C3246 C3252 1.379 . S
C3246 N3254 1.356 . S
C3247 C3246 1.363 . S
C3247 C3253 1.363 . S
C3248 C3249 1.363 . S
C3248 C3253 1.379 . S
C3248 N3255 1.356 . S
C3249 C3248 1.363 . S
C3249 C3252 1.363 . S
N3250 C3252 1.356 . S
N3250 H3262 0.984 . S
N3250 H3263 0.985 . S
N3251 C3253 1.356 . S
N3251 H3256 0.984 . S
N3251 H3257 0.985 . S
C3252 C3246 1.379 . S
C3252 C3249 1.363 . S
C3252 N3250 1.356 . S
C3253 C3247 1.363 . S
C3253 C3248 1.379 . S
C3253 N3251 1.356 . S
N3254 C3246 1.356 . S
N3254 H3260 0.984 . S
N3254 H3261 0.984 . S
N3255 C3248 1.356 . S
N3255 H3258 0.984 . S
N3255 H3259 0.985 . S
H3256 N3251 0.984 . S
H3257 N3251 0.985 . S
H3258 N3255 0.984 . S
H3259 N3255 0.985 . S
H3260 N3254 0.984 . S
H3261 N3254 0.984 . S
H3262 N3250 0.984 . S
H3263 N3250 0.985 . S
C3264 C3265 1.363 . S
C3264 C3270 1.379 . S
C3264 N3272 1.356 . S
C3265 C3264 1.363 . S
C3265 C3271 1.363 . S
C3266 C3267 1.363 . S
C3266 C3271 1.379 . S
C3266 N3273 1.356 . S
C3267 C3266 1.363 . S
C3267 C3270 1.363 . S
N3268 C3270 1.356 . S
N3268 H3280 0.984 . S
N3268 H3281 0.985 . S
N3269 C3271 1.356 . S
N3269 H3274 0.984 . S
N3269 H3275 0.985 . S
C3270 C3264 1.379 . S
C3270 C3267 1.363 . S
C3270 N3268 1.356 . S
C3271 C3265 1.363 . S
C3271 C3266 1.379 . S
C3271 N3269 1.356 . S
N3272 C3264 1.356 . S
N3272 H3278 0.984 . S
N3272 H3279 0.984 . S
N3273 C3266 1.356 . S
N3273 H3276 0.984 . S
N3273 H3277 0.985 . S
H3274 N3269 0.984 . S
H3275 N3269 0.985 . S
H3276 N3273 0.984 . S
H3277 N3273 0.985 . S
H3278 N3272 0.984 . S
H3279 N3272 0.984 . S
H3280 N3268 0.984 . S
H3281 N3268 0.985 . S
C3282 C3283 1.363 . S
C3282 C3288 1.379 . S
C3282 N3290 1.356 . S
C3283 C3282 1.363 . S
C3283 C3289 1.363 . S
C3284 C3285 1.363 . S
C3284 C3289 1.379 . S
C3284 N3291 1.356 . S
C3285 C3284 1.363 . S
C3285 C3288 1.363 . S
N3286 C3288 1.356 1_455 S
N3286 H3298 0.984 . S
N3286 H3299 0.985 . S
N3287 C3289 1.356 . S
N3287 H3292 0.984 . S
N3287 H3293 0.985 . S
C3288 C3282 1.379 . S
C3288 C3285 1.363 . S
C3288 N3286 1.356 1_655 S
C3289 C3283 1.363 . S
C3289 C3284 1.379 . S
C3289 N3287 1.356 . S
N3290 C3282 1.356 . S
N3290 H3296 0.984 . S
N3290 H3297 0.984 . S
N3291 C3284 1.356 . S
N3291 H3294 0.984 1_565 S
N3291 H3295 0.985 . S
H3292 N3287 0.984 . S
H3293 N3287 0.985 . S
H3294 N3291 0.984 1_545 S
H3295 N3291 0.985 . S
H3296 N3290 0.984 . S
H3297 N3290 0.984 . S
H3298 N3286 0.984 . S
H3299 N3286 0.985 . S
C3300 C3301 1.363 . S
C3300 C3306 1.379 . S
C3300 N3308 1.356 . S
C3301 C3300 1.363 . S
C3301 C3307 1.363 . S
C3302 C3303 1.363 . S
C3302 C3307 1.379 . S
C3302 N3309 1.356 . S
C3303 C3302 1.363 . S
C3303 C3306 1.363 . S
N3304 C3306 1.356 . S
N3304 H3316 0.984 . S
N3304 H3317 0.985 . S
N3305 C3307 1.356 . S
N3305 H3310 0.984 . S
N3305 H3311 0.985 . S
C3306 C3300 1.379 . S
C3306 C3303 1.363 . S
C3306 N3304 1.356 . S
C3307 C3301 1.363 . S
C3307 C3302 1.379 . S
C3307 N3305 1.356 . S
N3308 C3300 1.356 . S
N3308 H3314 0.984 . S
N3308 H3315 0.984 . S
N3309 C3302 1.356 . S
N3309 H3312 0.984 . S
N3309 H3313 0.985 . S
H3310 N3305 0.984 . S
H3311 N3305 0.985 . S
H3312 N3309 0.984 . S
H3313 N3309 0.985 . S
H3314 N3308 0.984 . S
H3315 N3308 0.984 . S
H3316 N3304 0.984 . S
H3317 N3304 0.985 . S
C3318 C3319 1.363 . S
C3318 C3324 1.379 . S
C3318 N3326 1.356 . S
C3319 C3318 1.363 . S
C3319 C3325 1.363 . S
C3320 C3321 1.363 . S
C3320 C3325 1.379 . S
C3320 N3327 1.356 1_554 S
C3321 C3320 1.363 . S
C3321 C3324 1.363 . S
N3322 C3324 1.356 . S
N3322 H3334 0.984 . S
N3322 H3335 0.985 . S
N3323 C3325 1.356 1_556 S
N3323 H3328 0.984 . S
N3323 H3329 0.985 . S
C3324 C3318 1.379 . S
C3324 C3321 1.363 . S
C3324 N3322 1.356 . S
C3325 C3319 1.363 . S
C3325 C3320 1.379 . S
C3325 N3323 1.356 1_554 S
N3326 C3318 1.356 . S
N3326 H3332 0.984 . S
N3326 H3333 0.984 . S
N3327 C3320 1.356 1_556 S
N3327 H3330 0.984 . S
N3327 H3331 0.985 . S
H3328 N3323 0.984 . S
H3329 N3323 0.985 . S
H3330 N3327 0.984 . S
H3331 N3327 0.985 . S
H3332 N3326 0.984 . S
H3333 N3326 0.984 . S
H3334 N3322 0.984 . S
H3335 N3322 0.985 . S
C3336 C3337 1.363 . S
C3336 C3342 1.379 . S
C3336 N3344 1.356 . S
C3337 C3336 1.363 . S
C3337 C3343 1.363 . S
C3338 C3339 1.363 . S
C3338 C3343 1.379 . S
C3338 N3345 1.356 . S
C3339 C3338 1.363 . S
C3339 C3342 1.363 . S
N3340 C3342 1.356 . S
N3340 H3352 0.984 . S
N3340 H3353 0.985 . S
N3341 C3343 1.356 . S
N3341 H3346 0.984 . S
N3341 H3347 0.985 . S
C3342 C3336 1.379 . S
C3342 C3339 1.363 . S
C3342 N3340 1.356 . S
C3343 C3337 1.363 . S
C3343 C3338 1.379 . S
C3343 N3341 1.356 . S
N3344 C3336 1.356 . S
N3344 H3350 0.984 . S
N3344 H3351 0.984 . S
N3345 C3338 1.356 . S
N3345 H3348 0.984 . S
N3345 H3349 0.985 . S
H3346 N3341 0.984 . S
H3347 N3341 0.985 . S
H3348 N3345 0.984 . S
H3349 N3345 0.985 . S
H3350 N3344 0.984 . S
H3351 N3344 0.984 . S
H3352 N3340 0.984 . S
H3353 N3340 0.985 . S
C3354 C3355 1.363 . S
C3354 C3360 1.379 . S
C3354 N3362 1.356 . S
C3355 C3354 1.363 . S
C3355 C3361 1.363 . S
C3356 C3357 1.363 . S
C3356 C3361 1.379 . S
C3356 N3363 1.356 . S
C3357 C3356 1.363 . S
C3357 C3360 1.363 . S
N3358 C3360 1.356 1_556 S
N3358 H3370 0.984 . S
N3358 H3371 0.985 . S
N3359 C3361 1.356 . S
N3359 H3364 0.984 . S
N3359 H3365 0.985 . S
C3360 C3354 1.379 . S
C3360 C3357 1.363 . S
C3360 N3358 1.356 1_554 S
C3361 C3355 1.363 . S
C3361 C3356 1.379 . S
C3361 N3359 1.356 . S
N3362 C3354 1.356 . S
N3362 H3368 0.984 . S
N3362 H3369 0.984 . S
N3363 C3356 1.356 . S
N3363 H3366 0.984 . S
N3363 H3367 0.985 . S
H3364 N3359 0.984 . S
H3365 N3359 0.985 . S
H3366 N3363 0.984 . S
H3367 N3363 0.985 . S
H3368 N3362 0.984 . S
H3369 N3362 0.984 . S
H3370 N3358 0.984 . S
H3371 N3358 0.985 . S
C3372 C3373 1.363 . S
C3372 C3378 1.379 . S
C3372 N3380 1.356 . S
C3373 C3372 1.363 . S
C3373 C3379 1.363 . S
C3374 C3375 1.363 . S
C3374 C3379 1.379 . S
C3374 N3381 1.356 . S
C3375 C3374 1.363 . S
C3375 C3378 1.363 . S
N3376 C3378 1.356 . S
N3376 H3388 0.984 . S
N3376 H3389 0.985 . S
N3377 C3379 1.356 . S
N3377 H3382 0.984 . S
N3377 H3383 0.985 . S
C3378 C3372 1.379 . S
C3378 C3375 1.363 . S
C3378 N3376 1.356 . S
C3379 C3373 1.363 . S
C3379 C3374 1.379 . S
C3379 N3377 1.356 . S
N3380 C3372 1.356 . S
N3380 H3386 0.984 . S
N3380 H3387 0.984 . S
N3381 C3374 1.356 . S
N3381 H3384 0.984 . S
N3381 H3385 0.985 . S
H3382 N3377 0.984 . S
H3383 N3377 0.985 . S
H3384 N3381 0.984 . S
H3385 N3381 0.985 . S
H3386 N3380 0.984 . S
H3387 N3380 0.984 . S
H3388 N3376 0.984 . S
H3389 N3376 0.985 . S
C3390 C3391 1.363 . S
C3390 C3396 1.379 . S
C3390 N3398 1.356 . S
C3391 C3390 1.363 . S
C3391 C3397 1.363 . S
C3392 C3393 1.363 . S
C3392 C3397 1.379 . S
C3392 N3399 1.356 . S
C3393 C3392 1.363 . S
C3393 C3396 1.363 . S
N3394 C3396 1.356 . S
N3394 H3406 0.984 . S
N3394 H3407 0.985 . S
N3395 C3397 1.356 . S
N3395 H3400 0.984 . S
N3395 H3401 0.985 . S
C3396 C3390 1.379 . S
C3396 C3393 1.363 . S
C3396 N3394 1.356 . S
C3397 C3391 1.363 . S
C3397 C3392 1.379 . S
C3397 N3395 1.356 . S
N3398 C3390 1.356 . S
N3398 H3404 0.984 . S
N3398 H3405 0.984 . S
N3399 C3392 1.356 . S
N3399 H3402 0.984 . S
N3399 H3403 0.985 . S
H3400 N3395 0.984 . S
H3401 N3395 0.985 . S
H3402 N3399 0.984 . S
H3403 N3399 0.985 . S
H3404 N3398 0.984 . S
H3405 N3398 0.984 . S
H3406 N3394 0.984 . S
H3407 N3394 0.985 . S
C1681 C111 2.063 . S
C1683 C392 1.882 . S
C1699 C64 2.236 . S
C1701 C483 2.275 . S
C1717 C77 1.678 . S
C1719 C560 1.623 . S
C1737 C658 1.200 . S
C1735 C95 1.315 . S
C1753 C25 1.447 . S
C1755 C742 1.442 . S
C1773 C814 1.024 . S
C1771 C36 1.077 . S
C1791 C903 1.371 . S
C1789 C50 1.140 . S
C1807 C11 1.777 . S
C1809 C980 1.482 . S
C1827 C399 2.048 . S
C1825 C237 2.060 1_455 S
C1843 C245 0.810 . S
C1845 C490 0.803 . S
C1863 C567 1.096 . S
C1861 C279 1.051 . S
C1881 C644 1.623 . S
C1879 C175 1.695 . S
C1897 C231 2.056 1_455 S
C1899 C728 1.910 . S
C1917 C830 1.157 . S
C1915 C251 1.162 . S
C1935 C910 0.818 . S
C1933 C273 0.840 . S
C1953 C987 1.655 . S
C1951 C181 1.856 . S
C1971 C406 1.375 . S
C1969 C165 1.420 . S
C1987 C288 1.843 . S
C1989 C1071 1.845 1_556 S
C2007 C1159 2.254 . S
C2005 C333 2.454 . S
C2025 C1232 0.631 . S
C2023 C316 0.636 . S
C2041 C123 1.376 . S
C2043 C994 1.459 . S
C2059 C137 1.475 . S
C2061 C574 1.465 . S
C2077 C330 2.101 . S
C2079 C1323 2.118 . S
C2097 C1400 0.768 . S
C2095 C302 0.774 . S
C2115 C403 1.987 . S
C2113 C63 2.137 . S
C2133 C1418 2.273 . S
C2131 C106 2.328 . S
C2149 C97 1.727 . S
C2151 C571 1.690 . S
C2167 C81 1.358 . S
C2169 C1318 1.240 . S
C2187 C730 1.493 . S
C2185 C13 1.293 . S
C2203 C55 1.041 . S
C2205 C1162 1.014 . S
C2223 C914 1.384 . S
C2221 C35 1.220 . S
C2241 C1495 1.649 . S
C2239 C21 1.866 . S
C2259 C410 2.136 . S
C2257 C147 2.261 . S
C2277 C1402 0.783 . S
C2275 C321 0.785 . S
C2293 C119 1.158 . S
C2295 C578 1.117 . S
C2311 C293 1.741 . S
C2313 C1327 1.720 . S
C2329 C153 1.996 . S
C2331 C739 2.058 . S
C2349 C1155 1.190 . S
C2347 C315 1.282 . S
C2365 C125 0.862 . S
C2367 C898 0.814 . S
C2383 C287 1.954 . S
C2385 C1502 1.747 . S
C2401 C193 1.419 . S
C2403 C394 1.413 1_554 S
C2419 C176 1.897 . S
C2421 C1082 1.848 . S
C2437 C263 2.405 . S
C2439 C812 2.211 . S
C2455 C246 0.810 . S
C2457 C1243 0.833 . S
C2475 C1486 1.356 . S
C2473 C277 1.220 1_565 S
C2491 C221 1.418 . S
C2493 C562 1.462 . S
C2511 C662 2.150 . S
C2509 C260 2.169 . S
C2529 C487 0.871 . S
C2527 C204 0.885 . S
C2545 C83 2.062 . S
C2547 C1568 1.882 . S
C2565 C1407 2.275 . S
C2563 C92 2.236 . S
C2581 C105 1.678 . S
C2583 C1652 1.623 . S
C2599 C67 1.315 . S
C2601 C1330 1.200 . S
C2617 C53 1.447 . S
C2619 C1078 1.443 . S
C2637 C1150 1.024 . S
C2635 C8 1.078 . S
C2655 C1239 1.371 . S
C2653 C22 1.139 . S
C2673 C1484 1.481 . S
C2671 C39 1.776 . S
C2691 C1575 2.048 . S
C2689 C265 2.068 . S
C2707 C189 0.811 . S
C2709 C1414 0.803 . S
C2727 C1659 1.096 . S
C2725 C209 1.051 . S
C2745 C1316 1.623 . S
C2743 C217 1.695 . S
C2763 C1064 1.911 . S
C2761 C259 2.057 . S
C2779 C195 1.162 . S
C2781 C1166 1.158 . S
C2799 C1246 0.818 . S
C2797 C203 0.840 . S
C2815 C223 1.855 . S
C2817 C1491 1.655 . S
C2835 C1582 1.376 . S
C2833 C319 1.420 . S
C2851 C134 1.843 . S
C2853 C735 1.847 . S
C2871 C823 2.255 . S
C2869 C151 2.458 . S
C2889 C896 0.631 . S
C2887 C162 0.635 . S
C2907 C1498 1.459 . S
C2905 C305 1.376 . S
C2923 C291 1.475 1_554 S
C2925 C1666 1.462 . S
C2943 C651 2.117 . S
C2941 C148 2.096 . S
C2961 C476 0.768 . S
C2959 C120 0.773 . S
C2977 C91 2.137 . S
C2979 C1579 1.987 . S
C2997 C494 2.272 . S
C2995 C78 2.328 . S
C3013 C69 1.726 . S
C3015 C1663 1.689 . S
C3031 C109 1.358 . S
C3033 C646 1.240 . S
C3049 C41 1.294 . S
C3051 C1066 1.494 . S
C3069 C826 1.014 . S
C3067 C27 1.038 . S
C3085 C7 1.221 . S
C3087 C1250 1.385 . S
C3103 C49 1.863 . S
C3105 C991 1.649 . S
C3123 C1586 2.136 . S
C3121 C329 2.261 . S
C3139 C167 0.785 . S
C3141 C478 0.783 . S
C3159 C1670 1.117 . S
C3157 C301 1.158 . S
C3175 C139 1.744 . S
C3177 C655 1.727 . S
C3193 C335 1.995 . S
C3195 C1075 2.059 . S
C3213 C819 1.190 . S
C3211 C161 1.282 . S
C3229 C307 0.854 . S
C3231 C1234 0.814 1_655 S
C3249 C998 1.742 . S
C3247 C133 1.953 . S
C3267 C1570 1.412 . S
C3265 C249 1.418 . S
C3285 C746 1.848 1_665 S
C3283 C218 1.898 . S
C3301 C235 2.406 . S
C3303 C1148 2.211 . S
C3321 C907 0.833 . S
C3319 C190 0.810 . S
C3337 C207 1.220 . S
C3339 C982 1.356 . S
C3355 C179 1.418 . S
C3357 C1654 1.462 1_554 S
C3375 C1334 2.150 . S
C3373 C232 2.169 1_565 S
C3393 C1411 0.871 . S
C3391 C274 0.886 . S
