# Generated by pormake.
# Topology pth, (4,4)-cn, num edge types: 1
# Building blocks:
#     Node 0, Type 0, BuildingBlock: AZAVOO_clean_sbu_0, # of connection points: 4
#     Node 1, Type 0, BuildingBlock: AZAVOO_clean_sbu_0, # of connection points: 4
#     Node 2, Type 0, BuildingBlock: AZAVOO_clean_sbu_0, # of connection points: 4
#     Node 3, Type 1, BuildingBlock: KOZSID_clean_sbu_0, # of connection points: 4
#     Node 4, Type 1, BuildingBlock: KOZSID_clean_sbu_0, # of connection points: 4
#     Node 5, Type 1, BuildingBlock: KOZSID_clean_sbu_0, # of connection points: 4
#     Edge 6, Type (0, 1), BuildingBlock: UKIBIB_clean_linker_0, # of connection points: 2
#     Edge 7, Type (0, 1), BuildingBlock: UKIBIB_clean_linker_0, # of connection points: 2
#     Edge 8, Type (0, 1), BuildingBlock: UKIBIB_clean_linker_0, # of connection points: 2
#     Edge 9, Type (0, 1), BuildingBlock: UKIBIB_clean_linker_0, # of connection points: 2
#     Edge 10, Type (0, 1), BuildingBlock: UKIBIB_clean_linker_0, # of connection points: 2
#     Edge 11, Type (0, 1), BuildingBlock: UKIBIB_clean_linker_0, # of connection points: 2
#     Edge 12, Type (0, 1), BuildingBlock: UKIBIB_clean_linker_0, # of connection points: 2
#     Edge 13, Type (0, 1), BuildingBlock: UKIBIB_clean_linker_0, # of connection points: 2
#     Edge 14, Type (0, 1), BuildingBlock: UKIBIB_clean_linker_0, # of connection points: 2
#     Edge 15, Type (0, 1), BuildingBlock: UKIBIB_clean_linker_0, # of connection points: 2
#     Edge 16, Type (0, 1), BuildingBlock: UKIBIB_clean_linker_0, # of connection points: 2
#     Edge 17, Type (0, 1), BuildingBlock: UKIBIB_clean_linker_0, # of connection points: 2
# Relax obj value: 0.065
# Max RMSD: 0.213
# Mean RMSD: 0.106
data_MOF--net-pth--node1-AZAVOO_clean_sbu_0--node2-KOZSID_clean_sbu_0--edge1-UKIBIB_clean_linker_0
_symmetry_space_group_name_H-M    P1
_symmetry_Int_Tables_number       1
_symmetry_cell_setting            triclinic
loop_
_symmetry_equiv_pos_as_xyz
'x, y, z'
_cell_length_a     35.122791
_cell_length_b     35.780006
_cell_length_c     79.917826
_cell_angle_alpha  89.420563
_cell_angle_beta   91.190757
_cell_angle_gamma 122.10232
loop_
_atom_site_label
_atom_site_type_symbol
_atom_site_fract_x
_atom_site_fract_y
_atom_site_fract_z
_atom_type_partial_charge
Mg0 Mg 0.12791 0.07237 0.0293 0.0
O1 O 0.06747 0.02462 0.01311 0.0
O2 O 0.05566 0.06614 -0.00452 0.0
Mg3 Mg 0.10783 0.13864 -0.00082 0.0
C4 C 0.04514 0.0286 0.00127 0.0
C5 C 0.13903 0.00649 0.0507 0.0
O6 O 0.18116 0.0329 0.0465 0.0
O7 O 0.08621 0.09124 0.04467 0.0
O8 O 0.08345 0.13514 0.0253 0.0
O9 O 0.17639 0.0762 0.00987 0.0
O10 O 0.15258 0.12188 0.0114 0.0
C11 C 0.07627 0.11941 0.04008 0.0
C12 C 0.17661 0.11025 0.0041 0.0
O13 O 0.10956 0.0145 0.04589 0.0
Mg14 Mg -0.00551 0.04643 0.35087 0.0
O15 O 0.05648 0.05913 0.36638 0.0
O16 O 0.07532 0.11687 0.38268 0.0
Mg17 Mg 0.02722 0.14018 0.379 0.0
C18 C 0.08182 0.08722 0.37749 0.0
C19 C 0.97631 0.96422 0.33054 0.0
O20 O 0.93525 0.94749 0.3359 0.0
O21 O 0.0359 0.10569 0.33379 0.0
O22 O 0.04485 0.15645 0.35205 0.0
O23 O 0.94512 0.00383 0.37124 0.0
O24 O 0.97601 0.07536 0.36907 0.0
C25 C 0.04784 0.14522 0.33733 0.0
C26 C 0.94917 0.03967 0.3768 0.0
O27 O 0.00669 0.00349 0.33421 0.0
Mg28 Mg 0.04401 0.00287 0.68415 0.0
O29 O 0.0916 0.06216 0.69999 0.0
O30 O 0.04928 0.07313 0.71718 0.0
Mg31 Mg 0.97552 0.02166 0.71243 0.0
C32 C 0.08742 0.08366 0.71156 0.0
C33 C 0.10875 0.99303 0.66293 0.0
O34 O 0.07911 0.95116 0.66572 0.0
O35 O 0.02494 0.04334 0.66846 0.0
O36 O 0.9802 0.04921 0.6864 0.0
O37 O 0.04146 0.95602 0.70386 0.0
O38 O -0.00635 0.97816 0.70112 0.0
C39 C -0.00187 0.05578 0.67208 0.0
C40 C 0.00589 0.95469 0.70884 0.0
O41 O 0.10315 0.02244 0.66867 0.0
C42 C 0.09005 0.6293 0.1686 0.0
C43 C 0.1325 0.66627 0.16591 0.0
C44 C 0.16204 0.66049 0.17511 0.0
C45 C 0.13614 0.62045 0.18281 0.0
N46 N 0.09177 0.6 0.17894 0.0
Co47 Co 0.04137 0.54481 0.18915 0.0
N48 N 0.08441 0.53989 0.2046 0.0
C49 C 0.12963 0.56755 0.20569 0.0
C50 C 0.15034 0.55383 0.21661 0.0
C51 C 0.11647 0.51454 0.22263 0.0
C52 C 0.07697 0.5067 0.21497 0.0
N53 N 0.99096 0.48962 0.1994 0.0
C54 C -0.00719 0.46042 0.20977 0.0
C55 C 0.95063 0.42294 0.21221 0.0
C56 C 0.92096 0.42856 0.20298 0.0
C57 C 0.94664 0.46894 0.19545 0.0
N58 N -0.00161 0.54978 0.17365 0.0
C59 C 0.95317 0.52203 0.17255 0.0
C60 C 0.9324 0.53609 0.16182 0.0
C61 C 0.96622 0.57564 0.15593 0.0
C62 C 0.00582 0.58326 0.1634 0.0
N63 N 0.0478 0.50733 0.1725 0.0
C64 C 0.05262 0.44473 0.15308 0.0
C65 C 0.01286 0.44427 0.15381 0.0
C66 C 0.01117 0.47559 0.16351 0.0
C67 C 0.09055 0.4779 0.16156 0.0
C68 C 0.08765 0.50924 0.17089 0.0
N69 N 0.03486 0.58227 0.20579 0.0
C70 C -0.0076 0.61254 0.21623 0.0
C71 C 0.02994 0.64501 0.2251 0.0
C72 C 0.06931 0.64457 0.22484 0.0
C73 C 0.07118 0.61344 0.21505 0.0
C74 C -0.00478 0.58092 0.2071 0.0
H75 H 0.10273 0.61598 0.21497 0.0
H76 H 0.96498 0.55594 0.2011 0.0
H77 H 0.9795 0.47268 0.16378 0.0
H78 H 0.11796 0.53442 0.1768 0.0
C79 C 0.15187 0.60415 0.19523 0.0
C80 C 0.04907 0.62418 0.16142 0.0
C81 C 0.03378 0.46601 0.21708 0.0
C82 C 0.93093 0.48535 0.18303 0.0
H83 H 0.14113 0.69509 0.15846 0.0
H84 H 0.19785 0.68371 0.17665 0.0
H85 H 0.18597 0.56953 0.21931 0.0
H86 H 0.1206 0.49326 0.23119 0.0
H87 H 0.94243 0.39395 0.21947 0.0
H88 H 0.88528 0.405 0.20127 0.0
H89 H 0.89674 0.52055 0.15924 0.0
H90 H 0.96192 0.59729 0.14764 0.0
H91 H 0.98301 0.41949 0.14706 0.0
H92 H 0.12225 0.47963 0.161 0.0
H93 H 0.96086 0.61118 0.21655 0.0
H94 H 0.09885 0.66876 0.2319 0.0
C95 C 0.48098 0.04841 0.54356 0.0
C96 C 0.44517 0.00719 0.54829 0.0
C97 C 0.44818 0.97678 0.53933 0.0
C98 C 0.48577 0.00099 0.5299 0.0
N99 N 0.50754 0.04497 0.53246 0.0
Co100 Co 0.56231 0.09204 0.52074 0.0
N101 N 0.56577 0.04703 0.507 0.0
C102 C 0.53746 0.00256 0.50774 0.0
C103 C 0.55406 0.97944 0.50082 0.0
C104 C 0.59554 0.01069 0.49543 0.0
C105 C 0.60126 0.05158 0.4986 0.0
N106 N 0.61723 0.13886 0.5089 0.0
C107 C 0.64489 0.13531 0.49818 0.0
C108 C 0.67975 0.17673 0.49318 0.0
C109 C 0.6754 0.20712 0.50165 0.0
C110 C 0.63761 0.18295 0.51098 0.0
N111 N 0.55957 0.13701 0.53474 0.0
C112 C 0.58797 0.18136 0.53426 0.0
C113 C 0.57557 0.20395 0.54421 0.0
C114 C 0.53647 0.17221 0.55129 0.0
C115 C 0.52756 0.13186 0.54537 0.0
N116 N 0.60227 0.08854 0.53788 0.0
C117 C 0.66795 0.08656 0.55797 0.0
C118 C 0.66851 0.12555 0.55584 0.0
C119 C 0.6359 0.1259 0.5457 0.0
C120 C 0.63275 0.04807 0.55063 0.0
C121 C 0.59968 0.04955 0.54116 0.0
N122 N 0.52165 0.09569 0.50369 0.0
C123 C 0.48666 0.13415 0.49255 0.0
C124 C 0.45302 0.096 0.48447 0.0
C125 C 0.45536 0.0583 0.48558 0.0
C126 C 0.48936 0.05872 0.49525 0.0
C127 C 0.52111 0.13362 0.50158 0.0
H128 H 0.48825 0.02843 0.49592 0.0
H129 H 0.54671 0.16433 0.50682 0.0
H130 H 0.63948 0.15711 0.54406 0.0
H131 H 0.57263 0.0188 0.53652 0.0
C132 C 0.50082 0.9834 0.5183 0.0
C133 C 0.48698 0.08978 0.54931 0.0
C134 C 0.64061 0.09365 0.4931 0.0
C135 C 0.62298 0.20066 0.52288 0.0
H136 H 0.41893 -0.00031 0.55704 0.0
H137 H 0.42526 0.94132 0.53944 0.0
H138 H 0.53951 0.94412 0.50109 0.0
H139 H 0.61937 0.00371 0.49032 0.0
H140 H 0.70629 0.18467 0.48455 0.0
H141 H 0.6979 0.24264 0.5014 0.0
H142 H 0.59173 0.23934 0.54548 0.0
H143 H 0.51604 0.17836 0.55937 0.0
H144 H 0.69491 0.15609 0.56151 0.0
H145 H 0.63027 0.01679 0.55242 0.0
H146 H 0.48696 0.16454 0.4916 0.0
H147 H 0.43039 0.02817 0.47927 0.0
C148 C 0.65173 0.59445 0.83402 0.0
C149 C 0.68756 0.59042 0.82979 0.0
C150 C 0.68148 0.5539 0.83781 0.0
C151 C 0.64228 0.53745 0.84635 0.0
N152 N 0.62273 0.56117 0.84421 0.0
Co153 Co 0.56888 0.5525 0.85611 0.0
N154 N 0.56363 0.50221 0.86969 0.0
C155 C 0.59063 0.48586 0.86909 0.0
C156 C 0.57743 0.44996 0.87919 0.0
C157 C 0.5391 0.4422 0.88644 0.0
C158 C 0.53116 0.47397 0.88029 0.0
N159 N 0.51489 0.5436 0.86801 0.0
C160 C 0.48588 0.51011 0.87815 0.0
C161 C 0.44908 0.51288 0.88191 0.0
C162 C 0.45491 0.54933 0.87386 0.0
C163 C 0.49476 0.56668 0.86564 0.0
N164 N 0.5743 0.60291 0.84257 0.0
C165 C 0.54741 0.61935 0.84329 0.0
C166 C 0.56132 0.65605 0.83359 0.0
C167 C 0.59997 0.66421 0.82648 0.0
C168 C 0.60718 0.63155 0.83215 0.0
N169 N 0.52757 0.5094 0.83893 0.0
C170 C 0.45874 0.44143 0.81942 0.0
C171 C 0.46094 0.48106 0.82137 0.0
C172 C 0.49538 0.5144 0.83113 0.0
C173 C 0.49251 0.43679 0.82653 0.0
C174 C 0.52705 0.47146 0.83589 0.0
N175 N 0.61017 0.59562 0.87328 0.0
C176 C 0.64464 0.66769 0.88616 0.0
C177 C 0.67913 0.66357 0.89308 0.0
C178 C 0.67745 0.62425 0.89043 0.0
C179 C 0.64302 0.59108 0.88067 0.0
C180 C 0.61017 0.63312 0.87667 0.0
H181 H 0.64466 0.56263 0.87895 0.0
H182 H 0.5841 0.63759 0.87212 0.0
H183 H 0.49453 0.54344 0.83239 0.0
H184 H 0.55268 0.46663 0.84065 0.0
C185 C 0.62614 0.50309 0.85793 0.0
C186 C 0.64721 0.63085 0.8282 0.0
C187 C 0.49094 0.47422 0.88409 0.0
C188 C 0.51128 0.60139 0.8542 0.0
H189 H 0.7158 0.61212 0.82201 0.0
H190 H 0.70397 0.54185 0.83796 0.0
H191 H 0.59283 0.43071 0.88061 0.0
H192 H 0.51847 0.41524 0.89486 0.0
H193 H 0.42037 0.49014 0.88932 0.0
H194 H 0.43181 0.56066 0.87343 0.0
H195 H 0.54626 0.67566 0.8324 0.0
H196 H 0.62125 0.69207 0.81854 0.0
H197 H 0.43592 0.48612 0.81551 0.0
H198 H 0.49241 0.40675 0.82476 0.0
H199 H 0.64376 0.69708 0.88827 0.0
H200 H 0.70329 0.6193 0.8955 0.0
C201 C 0.05339 0.12756 0.069 0.0
C202 C 0.06669 0.14322 0.05261 0.0
C203 C 0.05028 0.15442 0.08089 0.0
C204 C 0.06869 0.42062 0.12641 0.0
C205 C 0.0546 0.41146 0.14305 0.0
C206 C 0.06969 0.38881 0.11672 0.0
H207 H 0.08781 0.19956 0.03607 0.0
H208 H 0.08284 0.24536 0.0567 0.0
H209 H 0.03003 0.36235 0.16271 0.0
H210 H 0.03214 0.30651 0.14569 0.0
C211 C 0.07649 0.18577 0.04842 0.0
C212 C 0.07408 0.21242 0.06025 0.0
C213 C 0.04127 0.37005 0.14991 0.0
C214 C 0.04239 0.3383 0.14023 0.0
C215 C 0.06107 0.19704 0.07649 0.0
C216 C 0.05907 0.22585 0.08832 0.0
C217 C 0.0589 0.25339 0.09678 0.0
C218 C 0.05666 0.34762 0.12363 0.0
C219 C 0.05798 0.3149 0.11379 0.0
C220 C 0.05866 0.28675 0.10591 0.0
H221 H 0.04606 0.09517 0.07263 0.0
H222 H 0.04008 0.14225 0.0935 0.0
H223 H 0.07869 0.45228 0.12091 0.0
H224 H 0.08062 0.39637 0.10388 0.0
C225 C 0.93434 0.08088 0.39803 0.0
C226 C 0.92142 0.04047 0.39034 0.0
C227 C 0.90537 0.08448 0.40857 0.0
C228 C 0.65743 0.06413 0.4675 0.0
C229 C 0.67341 0.09301 0.48136 0.0
C230 C 0.6867 0.05854 0.45781 0.0
H231 H 0.86785 0.97176 0.38808 0.0
H232 H 0.81692 0.97807 0.40696 0.0
H233 H 0.73404 0.141 0.49495 0.0
H234 H 0.78579 0.13593 0.47626 0.0
C235 C 0.87911 0.00316 0.39399 0.0
C236 C 0.84987 0.00684 0.40461 0.0
C237 C 0.72027 0.11879 0.48434 0.0
C238 C 0.7499 0.11535 0.47387 0.0
C239 C 0.86282 0.04774 0.41175 0.0
C240 C 0.83295 0.05289 0.42224 0.0
C241 C 0.81041 0.06042 0.43113 0.0
C242 C 0.73305 0.08427 0.46085 0.0
C243 C 0.76265 0.07777 0.45071 0.0
C244 C 0.78513 0.07037 0.44171 0.0
H245 H 0.96641 0.11031 0.39567 0.0
H246 H 0.91601 0.11629 0.41401 0.0
H247 H 0.62183 0.04446 0.46449 0.0
H248 H 0.67305 0.03415 0.44788 0.0
C249 C 0.92936 0.89763 0.71663 0.0
C250 C 0.97519 0.92286 0.72109 0.0
C251 C 0.89777 0.86939 0.72814 0.0
C252 C 0.72594 0.69432 0.82351 0.0
C253 C 0.6821 0.66553 0.81728 0.0
C254 C 0.75942 0.72491 0.81289 0.0
H255 H 0.02441 0.93944 0.74098 0.0
H256 H 0.96816 0.88939 0.76152 0.0
H257 H 0.63832 0.64654 0.79539 0.0
H258 H 0.69697 0.70108 0.77685 0.0
C259 C 0.98927 0.91952 0.73727 0.0
C260 C 0.95729 0.89138 0.74894 0.0
C261 C 0.67193 0.66854 0.80042 0.0
C262 C 0.70529 0.69945 0.78986 0.0
C263 C 0.91152 0.86632 0.74434 0.0
C264 C 0.87822 0.83736 0.7561 0.0
C265 C 0.84869 0.81252 0.76533 0.0
C266 C 0.74922 0.72731 0.79603 0.0
C267 C 0.78408 0.75753 0.78497 0.0
C268 C 0.81366 0.78302 0.77588 0.0
H269 H 0.91793 0.89998 0.70418 0.0
H270 H 0.86257 0.85025 0.72441 0.0
H271 H 0.73438 0.69248 0.83648 0.0
H272 H 0.79333 0.74628 0.81779 0.0
C273 C 0.12326 0.96745 0.07774 0.0
C274 C 0.12523 0.96663 0.06029 0.0
C275 C 0.10989 0.92924 0.08694 0.0
C276 C 0.04844 0.65331 0.13316 0.0
C277 C 0.05243 0.65927 0.15054 0.0
C278 C 0.05441 0.6873 0.12271 0.0
H279 H 0.11257 0.92602 0.03845 0.0
H280 H 0.08947 0.85859 0.05473 0.0
H281 H 0.06548 0.7043 0.17089 0.0
H282 H 0.07617 0.76455 0.15237 0.0
C283 C 0.11205 0.92709 0.05199 0.0
C284 C 0.09864 0.88881 0.06121 0.0
C285 C 0.06209 0.69935 0.15746 0.0
C286 C 0.06827 0.7335 0.14696 0.0
C287 C 0.09842 0.89017 0.07871 0.0
C288 C 0.08946 0.85264 0.08841 0.0
C289 C 0.0825 0.82297 0.09756 0.0
C290 C 0.06456 0.72744 0.12958 0.0
C291 C 0.07115 0.76219 0.11864 0.0
C292 C 0.07635 0.79023 0.10893 0.0
H293 H 0.13251 -0.00234 0.08423 0.0
H294 H 0.10945 0.93041 0.10048 0.0
H295 H 0.04128 0.62256 0.12772 0.0
H296 H 0.05149 0.68239 0.10927 0.0
C297 C 0.12363 0.09175 0.40344 0.0
C298 C 0.11709 0.08335 0.38616 0.0
C299 C 0.15794 0.09092 0.41212 0.0
C300 C 0.4123 0.08443 0.45709 0.0
C301 C 0.41718 0.09584 0.47411 0.0
C302 C 0.37839 0.08327 0.44716 0.0
H303 H 0.14079 0.06653 0.36437 0.0
H304 H 0.20223 0.06579 0.37978 0.0
H305 H 0.39003 0.11463 0.49417 0.0
H306 H 0.32974 0.11182 0.4767 0.0
C307 C 0.14513 0.07305 0.37771 0.0
C308 C 0.18017 0.07277 0.38647 0.0
C309 C 0.38724 0.10607 0.48104 0.0
C310 C 0.35281 0.10436 0.4711 0.0
C311 C 0.18678 0.08205 0.40372 0.0
C312 C 0.22314 0.08337 0.41312 0.0
C313 C 0.25192 0.08557 0.42242 0.0
C314 C 0.34833 0.093 0.45408 0.0
C315 C 0.31319 0.09107 0.44355 0.0
C316 C 0.28485 0.08871 0.43395 0.0
H317 H 0.10207 0.0991 0.41029 0.0
H318 H 0.16226 0.0978 0.42544 0.0
H319 H 0.43502 0.07665 0.45142 0.0
H320 H 0.37556 0.07458 0.43405 0.0
C321 C 0.12707 0.12359 0.73732 0.0
C322 C 0.12784 0.11919 0.71997 0.0
C323 C 0.16429 0.15722 0.74579 0.0
C324 C 0.42977 0.40663 0.79171 0.0
C325 C 0.42315 0.40647 0.80893 0.0
C326 C 0.39606 0.37413 0.78147 0.0
H327 H 0.16829 0.1454 0.69771 0.0
H328 H 0.2341 0.20594 0.71279 0.0
H329 H 0.37679 0.37346 0.82918 0.0
H330 H 0.31712 0.31573 0.81104 0.0
C331 C 0.167 0.14844 0.71113 0.0
C332 C 0.20436 0.18278 0.71967 0.0
C333 C 0.38235 0.3737 0.81588 0.0
C334 C 0.34849 0.34104 0.80559 0.0
C335 C 0.20266 0.18722 0.73701 0.0
C336 C 0.23917 0.22288 0.74614 0.0
C337 C 0.26624 0.25041 0.75563 0.0
C338 C 0.3555 0.34127 0.78837 0.0
C339 C 0.32177 0.30775 0.77761 0.0
C340 C 0.2957 0.2812 0.7676 0.0
H341 H 0.09758 0.1008 0.74439 0.0
H342 H 0.16284 0.16013 0.75922 0.0
H343 H 0.46101 0.43196 0.78621 0.0
H344 H 0.40171 0.37457 0.76817 0.0
C345 C 0.97027 0.04896 0.64284 0.0
C346 C 0.97877 0.06898 0.65866 0.0
C347 C 0.93986 0.05033 0.63175 0.0
C348 C 0.71612 0.10667 0.58387 0.0
C349 C 0.70321 0.08585 0.56814 0.0
C350 C 0.74799 0.10445 0.59379 0.0
H351 H 0.9649 0.10839 0.67491 0.0
H352 H 0.91251 0.11161 0.65522 0.0
H353 H 0.71485 0.04815 0.55012 0.0
H354 H 0.77097 0.04443 0.56765 0.0
C355 C 0.95904 0.09299 0.66273 0.0
C356 C 0.92888 0.09446 0.65162 0.0
C357 C 0.72367 0.06382 0.56232 0.0
C358 C 0.75573 0.06183 0.57223 0.0
C359 C 0.91844 0.07222 0.63633 0.0
C360 C 0.88505 0.07133 0.62557 0.0
C361 C 0.85679 0.07168 0.61704 0.0
C362 C 0.76741 0.08163 0.58805 0.0
C363 C 0.79872 0.07783 0.5985 0.0
C364 C 0.82502 0.07441 0.60713 0.0
H365 H 0.98437 0.0295 0.63956 0.0
H366 H 0.93188 0.03303 0.6199 0.0
H367 H 0.70074 0.12369 0.58866 0.0
H368 H 0.75699 0.11998 0.60602 0.0
C369 C 0.98588 0.99386 0.9791 0.0
C370 C 0.00724 0.98885 -0.00676 0.0
C371 C 0.95236 0.95723 0.97047 0.0
C372 C 0.73158 0.68803 0.91788 0.0
C373 C 0.71582 0.69903 0.90349 0.0
C374 C 0.76579 0.72086 0.92785 0.0
H375 H 0.00876 0.94105 0.00983 0.0
H376 H 0.94899 0.87626 -0.00552 0.0
H377 H 0.72449 0.75336 0.88812 0.0
H378 H 0.78423 0.81115 0.90599 0.0
C379 C -0.00685 0.94602 -0.00109 0.0
C380 C 0.95915 0.90908 -0.0098 0.0
C381 C 0.73541 0.74383 0.89925 0.0
C382 C 0.76969 0.77679 0.90933 0.0
C383 C 0.93927 0.9149 0.97584 0.0
C384 C 0.90625 0.87823 0.96603 0.0
C385 C 0.87855 0.85171 0.95641 0.0
C386 C 0.78466 0.7652 0.92368 0.0
C387 C 0.81851 0.79827 0.93456 0.0
C388 C 0.84653 0.8233 0.94446 0.0
H389 H -0.00433 0.02621 0.9744 0.0
H390 H 0.93711 0.96205 0.9594 0.0
H391 H 0.71691 0.654 0.92167 0.0
H392 H 0.77711 0.71159 0.93895 0.0
C393 C 0.00115 0.94601 0.30473 0.0
C394 C 0.98836 0.93681 0.32149 0.0
C395 C 0.01115 0.91884 0.29593 0.0
C396 C 0.02511 0.67335 0.25279 0.0
C397 C 0.02749 0.67778 0.23532 0.0
C398 C 0.02279 0.70412 0.26262 0.0
H399 H 0.97971 0.89536 0.3428 0.0
H400 H -0.0022 0.84771 0.32733 0.0
H401 H 0.02997 0.71769 0.21431 0.0
H402 H 0.02652 0.77234 0.23171 0.0
C403 C 0.9883 0.90196 0.3297 0.0
C404 C -0.00106 0.87515 0.32096 0.0
C405 C 0.02785 0.71361 0.22778 0.0
C406 C 0.02593 0.74469 0.23767 0.0
C407 C 0.00907 0.88278 0.30392 0.0
C408 C 0.01351 0.85174 0.29421 0.0
C409 C 0.0175 0.82687 0.28545 0.0
C410 C 0.02333 0.73992 0.25512 0.0
C411 C 0.02151 0.77165 0.26547 0.0
C412 C 0.01993 0.79732 0.27463 0.0
H413 H 0.00207 0.97332 0.29834 0.0
H414 H 0.0192 0.9252 0.28279 0.0
H415 H 0.02479 0.64591 0.25879 0.0
H416 H 0.02073 0.70002 0.2761 0.0
C417 C 0.19104 0.03618 0.65977 0.0
C418 C 0.14812 0.00648 0.65302 0.0
C419 C 0.22889 0.0501 0.65013 0.0
C420 C 0.40803 0.06919 0.55394 0.0
C421 C 0.4524 0.08824 0.56 0.0
C422 C 0.37419 0.06216 0.56475 0.0
H423 H 0.10982 0.97013 0.63103 0.0
H424 H 0.17651 0.99529 0.61392 0.0
H425 H 0.49688 0.11615 0.58162 0.0
H426 H 0.43773 0.10595 0.60037 0.0
C427 C 0.14295 0.99206 0.63647 0.0
C428 C 0.18071 0.00661 0.62675 0.0
C429 C 0.46291 0.10183 0.57673 0.0
C430 C 0.42929 0.09568 0.58741 0.0
C431 C 0.22358 0.03491 0.63368 0.0
C432 C 0.26181 0.04661 0.62395 0.0
C433 C 0.29121 0.05408 0.61463 0.0
C434 C 0.38493 0.07515 0.5815 0.0
C435 C 0.3506 0.06691 0.59286 0.0
C436 C 0.32322 0.06084 0.60294 0.0
H437 H 0.1952 0.04798 0.67252 0.0
H438 H 0.26206 0.07218 0.65553 0.0
H439 H 0.39944 0.05828 0.54105 0.0
H440 H 0.33977 0.04609 0.56013 0.0
C441 C 0.20249 0.1306 0.97453 0.0
C442 C 0.2085 0.14045 -0.00831 0.0
C443 C 0.22946 0.16341 0.9629 0.0
C444 C 0.45933 0.44591 0.9124 0.0
C445 C 0.45676 0.43918 0.89505 0.0
C446 C 0.42994 0.41163 0.92299 0.0
H447 H 0.24541 0.19168 0.01023 0.0
H448 H 0.29309 0.24853 -0.01003 0.0
H449 H 0.42227 0.39202 0.87501 0.0
H450 H 0.37007 0.33175 0.89365 0.0
C451 C 0.24128 0.18319 -0.00295 0.0
C452 C 0.26816 0.21571 0.98551 0.0
C453 C 0.42425 0.39787 0.88837 0.0
C454 C 0.39475 0.36358 0.89897 0.0
C455 C 0.26234 0.20607 0.96839 0.0
C456 C 0.29021 0.24021 0.95661 0.0
C457 C 0.31433 0.26985 0.94724 0.0
C458 C 0.39769 0.37029 0.91633 0.0
C459 C 0.36805 0.33471 0.92733 0.0
C460 C 0.34321 0.30487 0.93649 0.0
H461 H 0.17619 0.09827 0.97014 0.0
H462 H 0.22429 0.1557 0.94966 0.0
H463 H 0.48469 0.47742 0.91774 0.0
H464 H 0.43273 0.41727 0.93638 0.0
C465 C 0.05792 0.16873 0.30703 0.0
C466 C 0.05351 0.17627 0.32391 0.0
C467 C 0.05596 0.19547 0.29454 0.0
C468 C 0.02474 0.43146 0.24495 0.0
C469 C 0.03155 0.43128 0.22776 0.0
C470 C 0.02636 0.40087 0.25537 0.0
H471 H 0.04302 0.21755 0.34077 0.0
H472 H 0.0391 0.26271 0.31909 0.0
H473 H 0.04551 0.40035 0.20769 0.0
H474 H 0.04791 0.34599 0.22607 0.0
C475 C 0.04758 0.2111 0.32799 0.0
C476 C 0.04488 0.23694 0.3156 0.0
C477 C 0.03968 0.4003 0.22095 0.0
C478 C 0.04123 0.36966 0.23138 0.0
C479 C 0.04896 0.2292 0.2989 0.0
C480 C 0.0459 0.25652 0.2865 0.0
C481 C 0.04271 0.28174 0.2775 0.0
C482 C 0.03475 0.3701 0.24858 0.0
C483 C 0.03716 0.33912 0.25922 0.0
C484 C 0.03944 0.31261 0.26773 0.0
H485 H 0.06187 0.14186 0.30349 0.0
H486 H 0.05915 0.18945 0.28153 0.0
H487 H 0.01901 0.45574 0.25029 0.0
H488 H 0.0215 0.40149 0.26869 0.0
loop_
_geom_bond_atom_site_label_1
_geom_bond_atom_site_label_2
_geom_bond_distance
_geom_bond_site_symmetry_2
_ccdc_geom_bond_type
Mg0 O1 2.028 . S
Mg0 O7 1.986 . S
Mg0 O9 2.114 . S
Mg0 O10 2.251 . S
Mg0 O13 2.010 . S
O1 Mg0 2.028 . S
O1 C4 1.250 . S
O2 Mg3 2.028 . S
O2 C4 1.248 . S
Mg3 O2 2.028 . S
Mg3 O8 2.032 . S
Mg3 O10 2.079 . S
C4 O1 1.250 . S
C4 O2 1.248 . S
C5 O6 1.264 . S
C5 O13 1.249 . S
O6 C5 1.264 . S
O7 Mg0 1.986 . S
O7 C11 1.246 . S
O8 Mg3 2.032 . S
O8 C11 1.259 . S
O9 Mg0 2.114 . S
O9 C12 1.252 . S
O10 Mg0 2.251 . S
O10 Mg3 2.079 . S
O10 C12 1.273 . S
C11 O7 1.246 . S
C11 O8 1.259 . S
C12 O9 1.252 . S
C12 O10 1.273 . S
O13 Mg0 2.010 . S
O13 C5 1.249 . S
Mg14 O15 2.028 . S
Mg14 O21 1.986 . S
Mg14 O23 2.114 1_455 S
Mg14 O24 2.251 1_455 S
Mg14 O27 2.010 1_455 S
O15 Mg14 2.028 . S
O15 C18 1.250 . S
O16 Mg17 2.028 . S
O16 C18 1.248 . S
Mg17 O16 2.028 . S
Mg17 O22 2.032 . S
Mg17 O24 2.079 1_455 S
C18 O15 1.250 . S
C18 O16 1.248 . S
C19 O20 1.264 . S
C19 O27 1.249 1_565 S
O20 C19 1.264 . S
O21 Mg14 1.986 . S
O21 C25 1.246 . S
O22 Mg17 2.032 . S
O22 C25 1.259 . S
O23 Mg14 2.114 1_655 S
O23 C26 1.252 . S
O24 Mg14 2.251 1_655 S
O24 Mg17 2.079 1_655 S
O24 C26 1.273 . S
C25 O21 1.246 . S
C25 O22 1.259 . S
C26 O23 1.252 . S
C26 O24 1.273 . S
O27 Mg14 2.010 1_655 S
O27 C19 1.249 1_545 S
Mg28 O29 2.028 . S
Mg28 O35 1.986 . S
Mg28 O37 2.114 1_545 S
Mg28 O38 2.251 1_545 S
Mg28 O41 2.010 . S
O29 Mg28 2.028 . S
O29 C32 1.250 . S
O30 Mg31 2.026 . S
O30 C32 1.248 . S
Mg31 O30 2.026 . S
Mg31 O36 2.033 1_455 S
Mg31 O38 2.077 1_545 S
C32 O29 1.250 . S
C32 O30 1.248 . S
C33 O34 1.264 1_545 S
C33 O41 1.249 . S
O34 C33 1.264 1_565 S
O35 Mg28 1.986 . S
O35 C39 1.246 . S
O36 Mg31 2.033 1_655 S
O36 C39 1.259 1_655 S
O37 Mg28 2.114 1_565 S
O37 C40 1.252 . S
O38 Mg28 2.251 1_565 S
O38 Mg31 2.077 1_565 S
O38 C40 1.273 . S
C39 O35 1.246 . S
C39 O36 1.259 1_455 S
C40 O37 1.252 . S
C40 O38 1.273 . S
O41 Mg28 2.010 . S
O41 C33 1.249 . S
C42 C43 1.443 . S
C42 N46 1.376 . S
C42 C80 1.389 . S
C43 C42 1.443 . S
C43 C44 1.340 . S
C43 H83 0.951 . S
C44 C43 1.340 . S
C44 C45 1.439 . S
C44 H84 0.950 . S
C45 C44 1.439 . S
C45 N46 1.374 . S
C45 C79 1.395 . S
N46 C42 1.376 . S
N46 C45 1.374 . S
N46 Co47 2.008 . S
Co47 N46 2.008 . S
Co47 N48 1.995 . S
Co47 N53 2.008 1_455 S
Co47 N58 1.995 . S
Co47 N63 2.282 . S
Co47 N69 2.282 . S
N48 Co47 1.995 . S
N48 C49 1.376 . S
N48 C52 1.383 . S
C49 N48 1.376 . S
C49 C50 1.446 . S
C49 C79 1.391 . S
C50 C49 1.446 . S
C50 C51 1.339 . S
C50 H85 0.949 . S
C51 C50 1.339 . S
C51 C52 1.439 . S
C51 H86 0.950 . S
C52 N48 1.383 . S
C52 C51 1.439 . S
C52 C81 1.392 . S
N53 Co47 2.008 1_655 S
N53 C54 1.376 1_655 S
N53 C57 1.374 . S
C54 N53 1.376 1_455 S
C54 C55 1.443 1_455 S
C54 C81 1.389 . S
C55 C54 1.443 1_655 S
C55 C56 1.340 . S
C55 H87 0.951 . S
C56 C55 1.340 . S
C56 C57 1.439 . S
C56 H88 0.950 . S
C57 N53 1.374 . S
C57 C56 1.439 . S
C57 C82 1.395 . S
N58 Co47 1.995 . S
N58 C59 1.376 1_455 S
N58 C62 1.383 . S
C59 N58 1.376 1_655 S
C59 C60 1.446 . S
C59 C82 1.391 . S
C60 C59 1.446 . S
C60 C61 1.339 . S
C60 H89 0.949 . S
C61 C60 1.339 . S
C61 C62 1.439 1_655 S
C61 H90 0.950 . S
C62 N58 1.383 . S
C62 C61 1.439 1_455 S
C62 C80 1.392 . S
N63 Co47 2.282 . S
N63 C66 1.332 . S
N63 C68 1.332 . S
C64 C65 1.386 . S
C64 C67 1.388 . S
C65 C64 1.386 . S
C65 C66 1.382 . S
C65 H91 0.950 1_455 S
C66 N63 1.332 . S
C66 C65 1.382 . S
C66 H77 0.952 1_455 S
C67 C64 1.388 . S
C67 C68 1.382 . S
C67 H92 0.950 . S
C68 N63 1.332 . S
C68 C67 1.382 . S
C68 H78 0.948 . S
N69 Co47 2.282 . S
N69 C73 1.332 . S
N69 C74 1.332 . S
C70 C71 1.388 . S
C70 C74 1.382 . S
C70 H93 0.950 1_455 S
C71 C70 1.388 . S
C71 C72 1.386 . S
C72 C71 1.386 . S
C72 C73 1.382 . S
C72 H94 0.950 . S
C73 N69 1.332 . S
C73 C72 1.382 . S
C73 H75 0.952 . S
C74 N69 1.332 . S
C74 C70 1.382 . S
C74 H76 0.948 1_455 S
H75 C73 0.952 . S
H76 C74 0.948 1_655 S
H77 C66 0.952 1_655 S
H78 C68 0.948 . S
C79 C45 1.395 . S
C79 C49 1.391 . S
C80 C42 1.389 . S
C80 C62 1.392 . S
C81 C52 1.392 . S
C81 C54 1.389 . S
C82 C57 1.395 . S
C82 C59 1.391 . S
H83 C43 0.951 . S
H84 C44 0.950 . S
H85 C50 0.949 . S
H86 C51 0.950 . S
H87 C55 0.951 . S
H88 C56 0.950 . S
H89 C60 0.949 . S
H90 C61 0.950 . S
H91 C65 0.950 1_655 S
H92 C67 0.950 . S
H93 C70 0.950 1_655 S
H94 C72 0.950 . S
C95 C96 1.443 . S
C95 N99 1.376 . S
C95 C133 1.389 . S
C96 C95 1.443 . S
C96 C97 1.340 1_545 S
C96 H136 0.951 . S
C97 C96 1.340 1_565 S
C97 C98 1.439 1_565 S
C97 H137 0.950 . S
C98 C97 1.439 1_545 S
C98 N99 1.374 . S
C98 C132 1.395 1_545 S
N99 C95 1.376 . S
N99 C98 1.374 . S
N99 Co100 2.008 . S
Co100 N99 2.008 . S
Co100 N101 1.995 . S
Co100 N106 2.008 . S
Co100 N111 1.995 . S
Co100 N116 2.282 . S
Co100 N122 2.282 . S
N101 Co100 1.995 . S
N101 C102 1.376 . S
N101 C105 1.383 . S
C102 N101 1.376 . S
C102 C103 1.446 1_545 S
C102 C132 1.391 1_545 S
C103 C102 1.446 1_565 S
C103 C104 1.339 1_565 S
C103 H138 0.949 . S
C104 C103 1.339 1_545 S
C104 C105 1.439 . S
C104 H139 0.950 . S
C105 N101 1.383 . S
C105 C104 1.439 . S
C105 C134 1.392 . S
N106 Co100 2.008 . S
N106 C107 1.376 . S
N106 C110 1.374 . S
C107 N106 1.376 . S
C107 C108 1.443 . S
C107 C134 1.389 . S
C108 C107 1.443 . S
C108 C109 1.340 . S
C108 H140 0.951 . S
C109 C108 1.340 . S
C109 C110 1.439 . S
C109 H141 0.950 . S
C110 N106 1.374 . S
C110 C109 1.439 . S
C110 C135 1.395 . S
N111 Co100 1.995 . S
N111 C112 1.376 . S
N111 C115 1.383 . S
C112 N111 1.376 . S
C112 C113 1.446 . S
C112 C135 1.391 . S
C113 C112 1.446 . S
C113 C114 1.339 . S
C113 H142 0.949 . S
C114 C113 1.339 . S
C114 C115 1.439 . S
C114 H143 0.950 . S
C115 N111 1.383 . S
C115 C114 1.439 . S
C115 C133 1.392 . S
N116 Co100 2.282 . S
N116 C119 1.332 . S
N116 C121 1.332 . S
C117 C118 1.386 . S
C117 C120 1.388 . S
C118 C117 1.386 . S
C118 C119 1.382 . S
C118 H144 0.950 . S
C119 N116 1.332 . S
C119 C118 1.382 . S
C119 H130 0.952 . S
C120 C117 1.388 . S
C120 C121 1.382 . S
C120 H145 0.950 . S
C121 N116 1.332 . S
C121 C120 1.382 . S
C121 H131 0.948 . S
N122 Co100 2.282 . S
N122 C126 1.332 . S
N122 C127 1.332 . S
C123 C124 1.388 . S
C123 C127 1.382 . S
C123 H146 0.950 . S
C124 C123 1.388 . S
C124 C125 1.386 . S
C125 C124 1.386 . S
C125 C126 1.382 . S
C125 H147 0.950 . S
C126 N122 1.332 . S
C126 C125 1.382 . S
C126 H128 0.952 . S
C127 N122 1.332 . S
C127 C123 1.382 . S
C127 H129 0.948 . S
H128 C126 0.952 . S
H129 C127 0.948 . S
H130 C119 0.952 . S
H131 C121 0.948 . S
C132 C98 1.395 1_565 S
C132 C102 1.391 1_565 S
C133 C95 1.389 . S
C133 C115 1.392 . S
C134 C105 1.392 . S
C134 C107 1.389 . S
C135 C110 1.395 . S
C135 C112 1.391 . S
H136 C96 0.951 . S
H137 C97 0.950 . S
H138 C103 0.949 . S
H139 C104 0.950 . S
H140 C108 0.951 . S
H141 C109 0.950 . S
H142 C113 0.949 . S
H143 C114 0.950 . S
H144 C118 0.950 . S
H145 C120 0.950 . S
H146 C123 0.950 . S
H147 C125 0.950 . S
C148 C149 1.443 . S
C148 N152 1.376 . S
C148 C186 1.389 . S
C149 C148 1.443 . S
C149 C150 1.340 . S
C149 H189 0.951 . S
C150 C149 1.340 . S
C150 C151 1.439 . S
C150 H190 0.950 . S
C151 C150 1.439 . S
C151 N152 1.374 . S
C151 C185 1.395 . S
N152 C148 1.376 . S
N152 C151 1.374 . S
N152 Co153 2.008 . S
Co153 N152 2.008 . S
Co153 N154 1.995 . S
Co153 N159 2.008 . S
Co153 N164 1.995 . S
Co153 N169 2.282 . S
Co153 N175 2.282 . S
N154 Co153 1.995 . S
N154 C155 1.376 . S
N154 C158 1.383 . S
C155 N154 1.376 . S
C155 C156 1.446 . S
C155 C185 1.391 . S
C156 C155 1.446 . S
C156 C157 1.339 . S
C156 H191 0.949 . S
C157 C156 1.339 . S
C157 C158 1.439 . S
C157 H192 0.950 . S
C158 N154 1.383 . S
C158 C157 1.439 . S
C158 C187 1.392 . S
N159 Co153 2.008 . S
N159 C160 1.376 . S
N159 C163 1.374 . S
C160 N159 1.376 . S
C160 C161 1.443 . S
C160 C187 1.389 . S
C161 C160 1.443 . S
C161 C162 1.340 . S
C161 H193 0.951 . S
C162 C161 1.340 . S
C162 C163 1.439 . S
C162 H194 0.950 . S
C163 N159 1.374 . S
C163 C162 1.439 . S
C163 C188 1.395 . S
N164 Co153 1.995 . S
N164 C165 1.376 . S
N164 C168 1.383 . S
C165 N164 1.376 . S
C165 C166 1.446 . S
C165 C188 1.391 . S
C166 C165 1.446 . S
C166 C167 1.339 . S
C166 H195 0.949 . S
C167 C166 1.339 . S
C167 C168 1.439 . S
C167 H196 0.950 . S
C168 N164 1.383 . S
C168 C167 1.439 . S
C168 C186 1.392 . S
N169 Co153 2.282 . S
N169 C172 1.332 . S
N169 C174 1.332 . S
C170 C171 1.386 . S
C170 C173 1.388 . S
C171 C170 1.386 . S
C171 C172 1.382 . S
C171 H197 0.950 . S
C172 N169 1.332 . S
C172 C171 1.382 . S
C172 H183 0.952 . S
C173 C170 1.388 . S
C173 C174 1.382 . S
C173 H198 0.950 . S
C174 N169 1.332 . S
C174 C173 1.382 . S
C174 H184 0.948 . S
N175 Co153 2.282 . S
N175 C179 1.332 . S
N175 C180 1.332 . S
C176 C177 1.388 . S
C176 C180 1.382 . S
C176 H199 0.950 . S
C177 C176 1.388 . S
C177 C178 1.386 . S
C178 C177 1.386 . S
C178 C179 1.382 . S
C178 H200 0.950 . S
C179 N175 1.332 . S
C179 C178 1.382 . S
C179 H181 0.952 . S
C180 N175 1.332 . S
C180 C176 1.382 . S
C180 H182 0.948 . S
H181 C179 0.952 . S
H182 C180 0.948 . S
H183 C172 0.952 . S
H184 C174 0.948 . S
C185 C151 1.395 . S
C185 C155 1.391 . S
C186 C148 1.389 . S
C186 C168 1.392 . S
C187 C158 1.392 . S
C187 C160 1.389 . S
C188 C163 1.395 . S
C188 C165 1.391 . S
H189 C149 0.951 . S
H190 C150 0.950 . S
H191 C156 0.949 . S
H192 C157 0.950 . S
H193 C161 0.951 . S
H194 C162 0.950 . S
H195 C166 0.949 . S
H196 C167 0.950 . S
H197 C171 0.950 . S
H198 C173 0.950 . S
H199 C176 0.950 . S
H200 C178 0.950 . S
C201 C202 1.332 . S
C201 C203 1.345 . S
C201 H221 0.932 . S
C202 C201 1.332 . S
C202 C211 1.332 . S
C203 C201 1.345 . S
C203 C215 1.334 . S
C203 H222 0.928 . S
C204 C205 1.332 . S
C204 C206 1.345 . S
C204 H223 0.932 . S
C205 C204 1.332 . S
C205 C213 1.332 . S
C206 C204 1.345 . S
C206 C218 1.334 . S
C206 H224 0.928 . S
H207 C211 0.932 . S
H208 C212 0.928 . S
H209 C213 0.932 . S
H210 C214 0.928 . S
C211 C202 1.332 . S
C211 H207 0.932 . S
C211 C212 1.345 . S
C212 H208 0.928 . S
C212 C211 1.345 . S
C212 C215 1.334 . S
C213 C205 1.332 . S
C213 H209 0.932 . S
C213 C214 1.345 . S
C214 H210 0.928 . S
C214 C213 1.345 . S
C214 C218 1.334 . S
C215 C203 1.334 . S
C215 C212 1.334 . S
C215 C216 1.487 . S
C216 C215 1.487 . S
C216 C217 1.185 . S
C217 C216 1.185 . S
C217 C220 1.482 . S
C218 C206 1.334 . S
C218 C214 1.334 . S
C218 C219 1.487 . S
C219 C218 1.487 . S
C219 C220 1.185 . S
C220 C217 1.482 . S
C220 C219 1.185 . S
H221 C201 0.932 . S
H222 C203 0.928 . S
H223 C204 0.932 . S
H224 C206 0.928 . S
C225 C226 1.332 . S
C225 C227 1.345 . S
C225 H245 0.932 . S
C226 C225 1.332 . S
C226 C235 1.332 . S
C227 C225 1.345 . S
C227 C239 1.334 . S
C227 H246 0.928 . S
C228 C229 1.332 . S
C228 C230 1.345 . S
C228 H247 0.932 . S
C229 C228 1.332 . S
C229 C237 1.332 . S
C230 C228 1.345 . S
C230 C242 1.334 . S
C230 H248 0.928 . S
H231 C235 0.932 1_565 S
H232 C236 0.928 1_565 S
H233 C237 0.932 . S
H234 C238 0.928 . S
C235 C226 1.332 . S
C235 H231 0.932 1_545 S
C235 C236 1.345 . S
C236 H232 0.928 1_545 S
C236 C235 1.345 . S
C236 C239 1.334 . S
C237 C229 1.332 . S
C237 H233 0.932 . S
C237 C238 1.345 . S
C238 H234 0.928 . S
C238 C237 1.345 . S
C238 C242 1.334 . S
C239 C227 1.334 . S
C239 C236 1.334 . S
C239 C240 1.487 . S
C240 C239 1.487 . S
C240 C241 1.185 . S
C241 C240 1.185 . S
C241 C244 1.482 . S
C242 C230 1.334 . S
C242 C238 1.334 . S
C242 C243 1.487 . S
C243 C242 1.487 . S
C243 C244 1.185 . S
C244 C241 1.482 . S
C244 C243 1.185 . S
H245 C225 0.932 . S
H246 C227 0.928 . S
H247 C228 0.932 . S
H248 C230 0.928 . S
C249 C250 1.332 . S
C249 C251 1.345 . S
C249 H269 0.932 . S
C250 C249 1.332 . S
C250 C259 1.332 . S
C251 C249 1.345 . S
C251 C263 1.334 . S
C251 H270 0.928 . S
C252 C253 1.332 . S
C252 C254 1.345 . S
C252 H271 0.932 . S
C253 C252 1.332 . S
C253 C261 1.332 . S
C254 C252 1.345 . S
C254 C266 1.334 . S
C254 H272 0.928 . S
H255 C259 0.932 1_455 S
H256 C260 0.928 . S
H257 C261 0.932 . S
H258 C262 0.928 . S
C259 C250 1.332 . S
C259 H255 0.932 1_655 S
C259 C260 1.345 . S
C260 H256 0.928 . S
C260 C259 1.345 . S
C260 C263 1.334 . S
C261 C253 1.332 . S
C261 H257 0.932 . S
C261 C262 1.345 . S
C262 H258 0.928 . S
C262 C261 1.345 . S
C262 C266 1.334 . S
C263 C251 1.334 . S
C263 C260 1.334 . S
C263 C264 1.487 . S
C264 C263 1.487 . S
C264 C265 1.185 . S
C265 C264 1.185 . S
C265 C268 1.482 . S
C266 C254 1.334 . S
C266 C262 1.334 . S
C266 C267 1.487 . S
C267 C266 1.487 . S
C267 C268 1.185 . S
C268 C265 1.482 . S
C268 C267 1.185 . S
H269 C249 0.932 . S
H270 C251 0.928 . S
H271 C252 0.932 . S
H272 C254 0.928 . S
C273 C274 1.332 . S
C273 C275 1.345 . S
C273 H293 0.932 . S
C274 C273 1.332 . S
C274 C283 1.332 . S
C275 C273 1.345 . S
C275 C287 1.334 . S
C275 H294 0.928 . S
C276 C277 1.332 . S
C276 C278 1.345 . S
C276 H295 0.932 . S
C277 C276 1.332 . S
C277 C285 1.332 . S
C278 C276 1.345 . S
C278 C290 1.334 . S
C278 H296 0.928 . S
H279 C283 0.932 . S
H280 C284 0.928 . S
H281 C285 0.932 . S
H282 C286 0.928 . S
C283 C274 1.332 . S
C283 H279 0.932 . S
C283 C284 1.345 . S
C284 H280 0.928 . S
C284 C283 1.345 . S
C284 C287 1.334 . S
C285 C277 1.332 . S
C285 H281 0.932 . S
C285 C286 1.345 . S
C286 H282 0.928 . S
C286 C285 1.345 . S
C286 C290 1.334 . S
C287 C275 1.334 . S
C287 C284 1.334 . S
C287 C288 1.487 . S
C288 C287 1.487 . S
C288 C289 1.185 . S
C289 C288 1.185 . S
C289 C292 1.482 . S
C290 C278 1.334 . S
C290 C286 1.334 . S
C290 C291 1.487 . S
C291 C290 1.487 . S
C291 C292 1.185 . S
C292 C289 1.482 . S
C292 C291 1.185 . S
H293 C273 0.932 . S
H294 C275 0.928 . S
H295 C276 0.932 . S
H296 C278 0.928 . S
C297 C298 1.332 . S
C297 C299 1.345 . S
C297 H317 0.932 . S
C298 C297 1.332 . S
C298 C307 1.332 . S
C299 C297 1.345 . S
C299 C311 1.334 . S
C299 H318 0.928 . S
C300 C301 1.332 . S
C300 C302 1.345 . S
C300 H319 0.932 . S
C301 C300 1.332 . S
C301 C309 1.332 . S
C302 C300 1.345 . S
C302 C314 1.334 . S
C302 H320 0.928 . S
H303 C307 0.932 . S
H304 C308 0.928 . S
H305 C309 0.932 . S
H306 C310 0.928 . S
C307 C298 1.332 . S
C307 H303 0.932 . S
C307 C308 1.345 . S
C308 H304 0.928 . S
C308 C307 1.345 . S
C308 C311 1.334 . S
C309 C301 1.332 . S
C309 H305 0.932 . S
C309 C310 1.345 . S
C310 H306 0.928 . S
C310 C309 1.345 . S
C310 C314 1.334 . S
C311 C299 1.334 . S
C311 C308 1.334 . S
C311 C312 1.487 . S
C312 C311 1.487 . S
C312 C313 1.185 . S
C313 C312 1.185 . S
C313 C316 1.482 . S
C314 C302 1.334 . S
C314 C310 1.334 . S
C314 C315 1.487 . S
C315 C314 1.487 . S
C315 C316 1.185 . S
C316 C313 1.482 . S
C316 C315 1.185 . S
H317 C297 0.932 . S
H318 C299 0.928 . S
H319 C300 0.932 . S
H320 C302 0.928 . S
C321 C322 1.332 . S
C321 C323 1.345 . S
C321 H341 0.932 . S
C322 C321 1.332 . S
C322 C331 1.332 . S
C323 C321 1.345 . S
C323 C335 1.334 . S
C323 H342 0.928 . S
C324 C325 1.332 . S
C324 C326 1.345 . S
C324 H343 0.932 . S
C325 C324 1.332 . S
C325 C333 1.332 . S
C326 C324 1.345 . S
C326 C338 1.334 . S
C326 H344 0.928 . S
H327 C331 0.932 . S
H328 C332 0.928 . S
H329 C333 0.932 . S
H330 C334 0.928 . S
C331 C322 1.332 . S
C331 H327 0.932 . S
C331 C332 1.345 . S
C332 H328 0.928 . S
C332 C331 1.345 . S
C332 C335 1.334 . S
C333 C325 1.332 . S
C333 H329 0.932 . S
C333 C334 1.345 . S
C334 H330 0.928 . S
C334 C333 1.345 . S
C334 C338 1.334 . S
C335 C323 1.334 . S
C335 C332 1.334 . S
C335 C336 1.487 . S
C336 C335 1.487 . S
C336 C337 1.185 . S
C337 C336 1.185 . S
C337 C340 1.482 . S
C338 C326 1.334 . S
C338 C334 1.334 . S
C338 C339 1.487 . S
C339 C338 1.487 . S
C339 C340 1.185 . S
C340 C337 1.482 . S
C340 C339 1.185 . S
H341 C321 0.932 . S
H342 C323 0.928 . S
H343 C324 0.932 . S
H344 C326 0.928 . S
C345 C346 1.332 . S
C345 C347 1.345 . S
C345 H365 0.932 . S
C346 C345 1.332 . S
C346 C355 1.332 . S
C347 C345 1.345 . S
C347 C359 1.334 . S
C347 H366 0.928 . S
C348 C349 1.332 . S
C348 C350 1.345 . S
C348 H367 0.932 . S
C349 C348 1.332 . S
C349 C357 1.332 . S
C350 C348 1.345 . S
C350 C362 1.334 . S
C350 H368 0.928 . S
H351 C355 0.932 . S
H352 C356 0.928 . S
H353 C357 0.932 . S
H354 C358 0.928 . S
C355 C346 1.332 . S
C355 H351 0.932 . S
C355 C356 1.345 . S
C356 H352 0.928 . S
C356 C355 1.345 . S
C356 C359 1.334 . S
C357 C349 1.332 . S
C357 H353 0.932 . S
C357 C358 1.345 . S
C358 H354 0.928 . S
C358 C357 1.345 . S
C358 C362 1.334 . S
C359 C347 1.334 . S
C359 C356 1.334 . S
C359 C360 1.487 . S
C360 C359 1.487 . S
C360 C361 1.185 . S
C361 C360 1.185 . S
C361 C364 1.482 . S
C362 C350 1.334 . S
C362 C358 1.334 . S
C362 C363 1.487 . S
C363 C362 1.487 . S
C363 C364 1.185 . S
C364 C361 1.482 . S
C364 C363 1.185 . S
H365 C345 0.932 . S
H366 C347 0.928 . S
H367 C348 0.932 . S
H368 C350 0.928 . S
C369 C370 1.332 1_546 S
C369 C371 1.345 1_445 S
C369 H389 0.932 . S
C370 C369 1.332 1_564 S
C370 C379 1.333 1_455 S
C371 C369 1.345 1_665 S
C371 C383 1.334 . S
C371 H390 0.928 . S
C372 C373 1.332 . S
C372 C374 1.345 . S
C372 H391 0.932 . S
C373 C372 1.332 . S
C373 C381 1.332 . S
C374 C372 1.345 . S
C374 C386 1.334 . S
C374 H392 0.928 . S
H375 C379 0.929 1_455 S
H376 C380 0.928 . S
H377 C381 0.932 . S
H378 C382 0.928 . S
C379 C370 1.333 1_655 S
C379 H375 0.929 1_655 S
C379 C380 1.348 . S
C380 H376 0.928 . S
C380 C379 1.348 . S
C380 C383 1.334 1_554 S
C381 C373 1.332 . S
C381 H377 0.932 . S
C381 C382 1.345 . S
C382 H378 0.928 . S
C382 C381 1.345 . S
C382 C386 1.334 . S
C383 C371 1.334 . S
C383 C380 1.334 1_556 S
C383 C384 1.487 . S
C384 C383 1.487 . S
C384 C385 1.185 . S
C385 C384 1.185 . S
C385 C388 1.482 . S
C386 C374 1.334 . S
C386 C382 1.334 . S
C386 C387 1.487 . S
C387 C386 1.487 . S
C387 C388 1.185 . S
C388 C385 1.482 . S
C388 C387 1.185 . S
H389 C369 0.932 . S
H390 C371 0.928 . S
H391 C372 0.932 . S
H392 C374 0.928 . S
C393 C394 1.332 . S
C393 C395 1.345 . S
C393 H413 0.932 . S
C394 C393 1.332 . S
C394 C403 1.332 . S
C395 C393 1.345 . S
C395 C407 1.334 . S
C395 H414 0.928 . S
C396 C397 1.332 . S
C396 C398 1.345 . S
C396 H415 0.932 . S
C397 C396 1.332 . S
C397 C405 1.332 . S
C398 C396 1.345 . S
C398 C410 1.334 . S
C398 H416 0.928 . S
H399 C403 0.932 . S
H400 C404 0.928 . S
H401 C405 0.932 . S
H402 C406 0.928 . S
C403 C394 1.332 . S
C403 H399 0.932 . S
C403 C404 1.345 . S
C404 H400 0.928 . S
C404 C403 1.345 . S
C404 C407 1.334 . S
C405 C397 1.332 . S
C405 H401 0.932 . S
C405 C406 1.345 . S
C406 H402 0.928 . S
C406 C405 1.345 . S
C406 C410 1.334 . S
C407 C395 1.334 . S
C407 C404 1.334 . S
C407 C408 1.487 . S
C408 C407 1.487 . S
C408 C409 1.185 . S
C409 C408 1.185 . S
C409 C412 1.482 . S
C410 C398 1.334 . S
C410 C406 1.334 . S
C410 C411 1.487 . S
C411 C410 1.487 . S
C411 C412 1.185 . S
C412 C409 1.482 . S
C412 C411 1.185 . S
H413 C393 0.932 . S
H414 C395 0.928 . S
H415 C396 0.932 . S
H416 C398 0.928 . S
C417 C418 1.332 . S
C417 C419 1.345 . S
C417 H437 0.932 . S
C418 C417 1.332 . S
C418 C427 1.332 . S
C419 C417 1.345 . S
C419 C431 1.334 . S
C419 H438 0.928 . S
C420 C421 1.332 . S
C420 C422 1.345 . S
C420 H439 0.932 . S
C421 C420 1.332 . S
C421 C429 1.332 . S
C422 C420 1.345 . S
C422 C434 1.334 . S
C422 H440 0.928 . S
H423 C427 0.932 1_565 S
H424 C428 0.928 1_565 S
H425 C429 0.932 . S
H426 C430 0.928 . S
C427 C418 1.332 . S
C427 H423 0.932 1_545 S
C427 C428 1.345 . S
C428 H424 0.928 1_545 S
C428 C427 1.345 . S
C428 C431 1.334 . S
C429 C421 1.332 . S
C429 H425 0.932 . S
C429 C430 1.345 . S
C430 H426 0.928 . S
C430 C429 1.345 . S
C430 C434 1.334 . S
C431 C419 1.334 . S
C431 C428 1.334 . S
C431 C432 1.487 . S
C432 C431 1.487 . S
C432 C433 1.185 . S
C433 C432 1.185 . S
C433 C436 1.482 . S
C434 C422 1.334 . S
C434 C430 1.334 . S
C434 C435 1.487 . S
C435 C434 1.487 . S
C435 C436 1.185 . S
C436 C433 1.482 . S
C436 C435 1.185 . S
H437 C417 0.932 . S
H438 C419 0.928 . S
H439 C420 0.932 . S
H440 C422 0.928 . S
C441 C442 1.332 1_556 S
C441 C443 1.345 . S
C441 H461 0.932 . S
C442 C441 1.332 1_554 S
C442 C451 1.332 . S
C443 C441 1.345 . S
C443 C455 1.334 . S
C443 H462 0.928 . S
C444 C445 1.332 . S
C444 C446 1.345 . S
C444 H463 0.932 . S
C445 C444 1.332 . S
C445 C453 1.332 . S
C446 C444 1.345 . S
C446 C458 1.334 . S
C446 H464 0.928 . S
H447 C451 0.932 . S
H448 C452 0.928 1_554 S
H449 C453 0.932 . S
H450 C454 0.928 . S
C451 C442 1.332 . S
C451 H447 0.932 . S
C451 C452 1.345 1_554 S
C452 H448 0.928 1_556 S
C452 C451 1.345 1_556 S
C452 C455 1.334 . S
C453 C445 1.332 . S
C453 H449 0.932 . S
C453 C454 1.345 . S
C454 H450 0.928 . S
C454 C453 1.345 . S
C454 C458 1.334 . S
C455 C443 1.334 . S
C455 C452 1.334 . S
C455 C456 1.487 . S
C456 C455 1.487 . S
C456 C457 1.185 . S
C457 C456 1.185 . S
C457 C460 1.482 . S
C458 C446 1.334 . S
C458 C454 1.334 . S
C458 C459 1.487 . S
C459 C458 1.487 . S
C459 C460 1.185 . S
C460 C457 1.482 . S
C460 C459 1.185 . S
H461 C441 0.932 . S
H462 C443 0.928 . S
H463 C444 0.932 . S
H464 C446 0.928 . S
C465 C466 1.332 . S
C465 C467 1.345 . S
C465 H485 0.932 . S
C466 C465 1.332 . S
C466 C475 1.332 . S
C467 C465 1.345 . S
C467 C479 1.334 . S
C467 H486 0.928 . S
C468 C469 1.332 . S
C468 C470 1.345 . S
C468 H487 0.932 . S
C469 C468 1.332 . S
C469 C477 1.332 . S
C470 C468 1.345 . S
C470 C482 1.334 . S
C470 H488 0.928 . S
H471 C475 0.932 . S
H472 C476 0.928 . S
H473 C477 0.932 . S
H474 C478 0.928 . S
C475 C466 1.332 . S
C475 H471 0.932 . S
C475 C476 1.345 . S
C476 H472 0.928 . S
C476 C475 1.345 . S
C476 C479 1.334 . S
C477 C469 1.332 . S
C477 H473 0.932 . S
C477 C478 1.345 . S
C478 H474 0.928 . S
C478 C477 1.345 . S
C478 C482 1.334 . S
C479 C467 1.334 . S
C479 C476 1.334 . S
C479 C480 1.487 . S
C480 C479 1.487 . S
C480 C481 1.185 . S
C481 C480 1.185 . S
C481 C484 1.482 . S
C482 C470 1.334 . S
C482 C478 1.334 . S
C482 C483 1.487 . S
C483 C482 1.487 . S
C483 C484 1.185 . S
C484 C481 1.482 . S
C484 C483 1.185 . S
H485 C465 0.932 . S
H486 C467 0.928 . S
H487 C468 0.932 . S
H488 C470 0.928 . S
C205 C64 1.356 . S
C202 C11 1.336 . S
C226 C26 1.512 . S
C229 C134 1.525 . S
C250 C40 1.376 1_655 S
C253 C186 1.384 . S
C274 C5 1.202 1_565 S
C277 C80 1.352 . S
C301 C124 1.517 . S
C298 C18 1.499 . S
C322 C32 1.364 . S
C325 C170 1.382 . S
C349 C117 1.240 . S
C346 C39 1.227 1_655 S
C370 C4 1.373 1_565 S
C373 C177 1.390 . S
C397 C71 1.350 . S
C394 C19 1.189 1_455 S
C421 C133 1.260 . S
C418 C33 1.122 . S
C445 C187 1.398 . S
C442 C12 1.387 . S
C466 C25 1.333 . S
C469 C81 1.354 . S
