# Generated by pormake.
# Topology pth, (4,4)-cn, num edge types: 1
# Building blocks:
#     Node 0, Type 0, BuildingBlock: UXUYUI_clean_sbu_0, # of connection points: 4
#     Node 1, Type 0, BuildingBlock: UXUYUI_clean_sbu_0, # of connection points: 4
#     Node 2, Type 0, BuildingBlock: UXUYUI_clean_sbu_0, # of connection points: 4
#     Node 3, Type 1, BuildingBlock: KOZSID_clean_sbu_0, # of connection points: 4
#     Node 4, Type 1, BuildingBlock: KOZSID_clean_sbu_0, # of connection points: 4
#     Node 5, Type 1, BuildingBlock: KOZSID_clean_sbu_0, # of connection points: 4
#     Edge 6, Type (0, 1), BuildingBlock: KIFKEQ_clean_linker_1, # of connection points: 2
#     Edge 7, Type (0, 1), BuildingBlock: KIFKEQ_clean_linker_1, # of connection points: 2
#     Edge 8, Type (0, 1), BuildingBlock: KIFKEQ_clean_linker_1, # of connection points: 2
#     Edge 9, Type (0, 1), BuildingBlock: KIFKEQ_clean_linker_1, # of connection points: 2
#     Edge 10, Type (0, 1), BuildingBlock: KIFKEQ_clean_linker_1, # of connection points: 2
#     Edge 11, Type (0, 1), BuildingBlock: KIFKEQ_clean_linker_1, # of connection points: 2
#     Edge 12, Type (0, 1), BuildingBlock: KIFKEQ_clean_linker_1, # of connection points: 2
#     Edge 13, Type (0, 1), BuildingBlock: KIFKEQ_clean_linker_1, # of connection points: 2
#     Edge 14, Type (0, 1), BuildingBlock: KIFKEQ_clean_linker_1, # of connection points: 2
#     Edge 15, Type (0, 1), BuildingBlock: KIFKEQ_clean_linker_1, # of connection points: 2
#     Edge 16, Type (0, 1), BuildingBlock: KIFKEQ_clean_linker_1, # of connection points: 2
#     Edge 17, Type (0, 1), BuildingBlock: KIFKEQ_clean_linker_1, # of connection points: 2
# Relax obj value: 0.074
# Max RMSD: 0.212
# Mean RMSD: 0.112
data_MOF--net-pth--node1-UXUYUI_clean_sbu_0--node2-KOZSID_clean_sbu_0--edge1-KIFKEQ_clean_linker_1
_symmetry_space_group_name_H-M    P1
_symmetry_Int_Tables_number       1
_symmetry_cell_setting            triclinic
loop_
_symmetry_equiv_pos_as_xyz
'x, y, z'
_cell_length_a     32.521564
_cell_length_b     32.536301
_cell_length_c     73.919469
_cell_angle_alpha  87.844678
_cell_angle_beta   87.830864
_cell_angle_gamma 120.02377
loop_
_atom_site_label
_atom_site_type_symbol
_atom_site_fract_x
_atom_site_fract_y
_atom_site_fract_z
_atom_type_partial_charge
Li0 Li 0.09874 0.08075 0.02322 0.0
Li1 Li 0.04146 0.07582 0.04657 0.0
Li2 Li 0.06458 0.01382 0.04647 0.0
Li3 Li 0.01377 0.01673 0.02341 0.0
C4 C 0.14773 0.11008 0.05657 0.0
N5 N 0.23569 0.16643 0.07006 0.0
C6 C 0.16227 0.15696 0.0605 0.0
C7 C 0.17778 0.09174 0.05973 0.0
C8 C 0.20691 0.1849 0.06724 0.0
C9 C 0.22214 0.12082 0.06649 0.0
C10 C 0.04962 0.1317 0.01531 0.0
C11 C 0.02689 0.18448 1.00094 0.0
N12 N 0.06664 0.22244 0.00656 0.0
C13 C 0.09016 0.1712 0.02096 0.0
C14 C 0.01766 0.13832 0.00523 0.0
C15 C 0.0982 0.21679 0.01639 0.0
C16 C 0.14144 0.13047 0.98992 0.0
N17 N 0.15205 0.1247 0.0071 0.0
C18 C 0.23247 0.18769 1.00086 0.0
C19 C 0.19682 0.15188 0.01261 0.0
C20 C 0.22213 0.19565 0.98322 0.0
C21 C 0.17602 0.1658 0.9777 0.0
H22 H 0.10556 0.10845 0.98587 0.0
H23 H 0.2049 0.14684 0.02622 0.0
C24 C 0.04837 0.12086 0.07851 0.0
N25 N 0.02843 0.11385 0.06226 0.0
C26 C 0.04741 0.15379 0.08983 0.0
C27 C 0.00254 0.16947 0.06806 0.0
C28 C 0.00461 0.13635 0.05709 0.0
C29 C 0.02525 0.17945 0.08446 0.0
H30 H 0.06665 0.10211 0.08237 0.0
H31 H 0.98856 0.12983 0.0442 0.0
C32 C 0.10059 0.9946 0.01453 0.0
N33 N 0.15858 0.95886 0.00434 0.0
C34 C 0.08199 0.9523 0.00568 0.0
C35 C 0.1487 0.01894 0.01805 0.0
C36 C 0.11187 0.93473 1.00068 0.0
C37 C 0.17744 1.00026 0.01283 0.0
C38 C 0.95395 0.99485 0.05468 0.0
C39 C 0.92795 0.9632 0.06952 0.0
C40 C 0.93332 0.01609 0.04453 0.0
C41 C 0.88162 0.95333 0.07398 0.0
C42 C 0.88692 0.00532 0.04943 0.0
N43 N 0.86224 0.97443 0.06393 0.0
C44 C 0.08656 0.97943 0.07846 0.0
C45 C 0.05704 0.92533 0.05529 0.0
C46 C 0.08687 0.94476 0.09014 0.0
N47 N 0.0719 0.96918 0.06139 0.0
C48 C 0.05686 0.88968 0.06646 0.0
C49 C 0.07145 0.89898 0.08423 0.0
H50 H 0.09692 0.01418 0.08316 0.0
H51 H 0.0437 0.91749 0.04194 0.0
C52 C 0.9492 0.99018 0.99485 0.0
N53 N 0.96432 0.97485 0.00911 0.0
C54 C 0.91519 0.95727 0.984 0.0
C55 C 0.91301 0.89373 0.00282 0.0
C56 C 0.9468 0.92778 0.01331 0.0
C57 C 0.89692 0.90822 0.98782 0.0
H58 H 0.9641 0.02788 0.99173 0.0
H59 H 0.96005 0.91677 0.02462 0.0
O60 O 0.10401 0.08202 0.05002 0.0
O61 O 0.04074 0.08666 0.01978 0.0
O62 O 0.07168 0.01203 0.01961 0.0
O63 O 0.99939 0.00489 0.05024 0.0
H64 H 0.1394 0.17173 0.0584 0.0
H65 H 0.16707 0.05545 0.05695 0.0
H66 H 0.21863 0.22127 0.07027 0.0
H67 H 0.24579 0.10712 0.06892 0.0
H68 H 0.00241 0.19013 0.99318 0.0
H69 H 0.11517 0.1667 0.02876 0.0
H70 H 0.98588 0.10811 1.00087 0.0
H71 H 0.1295 0.24766 0.02066 0.0
H72 H 0.26729 0.20998 0.00582 0.0
H73 H 0.16653 0.16997 0.96415 0.0
H74 H 0.06455 0.15967 0.10251 0.0
H75 H 0.98509 0.18847 0.0634 0.0
H76 H 0.04479 0.93312 0.0028 0.0
H77 H 0.16373 0.05195 0.02468 0.0
H78 H 0.09793 0.90191 0.99389 0.0
H79 H 0.21476 0.01871 0.01551 0.0
H80 H 0.94347 0.94648 0.07751 0.0
H81 H 0.95278 0.04061 0.03298 0.0
H82 H 0.86107 0.92892 0.08544 0.0
H83 H 0.87053 0.02152 0.04169 0.0
H84 H 0.09859 0.95357 0.10369 0.0
H85 H 0.04369 0.85468 0.06146 0.0
H86 H 0.9035 0.97013 0.97272 0.0
H87 H 0.90071 0.85651 0.00614 0.0
Li88 Li 0.03096 0.02193 0.35633 0.0
Li89 Li 0.08481 0.07139 0.37737 0.0
Li90 Li 0.99732 0.04818 0.38057 0.0
Li91 Li 0.05333 0.10551 0.35543 0.0
C92 C 0.00337 0.95913 0.38609 0.0
N93 N 0.95595 0.86135 0.39247 0.0
C94 C 0.02788 0.93427 0.38414 0.0
C95 C 0.95476 0.93422 0.39137 0.0
C96 C 0.00325 0.88485 0.38739 0.0
C97 C 0.93143 0.88481 0.39452 0.0
C98 C 0.14233 0.09699 0.34734 0.0
C99 C 0.22211 0.16436 0.34389 0.0
N100 N 0.23938 0.13437 0.34159 0.0
C101 C 0.16084 0.06687 0.34475 0.0
C102 C 0.17315 0.14615 0.34674 0.0
C103 C 0.21001 0.08643 0.34194 0.0
C104 C 0.05088 0.98628 0.32554 0.0
N105 N 0.01985 0.97204 0.34039 0.0
C106 C 0.98373 0.89104 0.33246 0.0
C107 C 0.98533 0.92563 0.34359 0.0
C108 C 0.01745 0.90449 0.31769 0.0
C109 C 0.05039 0.9531 0.31402 0.0
H110 H 0.07676 0.02353 0.32278 0.0
H111 H 0.9596 0.91508 0.35496 0.0
C112 C 0.15615 0.11478 0.40322 0.0
N113 N 0.13735 0.08065 0.39107 0.0
C114 C 0.19235 0.11831 0.41388 0.0
C115 C 0.18913 0.05164 0.3993 0.0
C116 C 0.15308 0.04938 0.38901 0.0
C117 C 0.20915 0.08624 0.41205 0.0
H118 H 0.14248 0.13869 0.4049 0.0
H119 H 0.13711 0.0221 0.37953 0.0
C120 C 0.95926 0.02162 0.34194 0.0
N121 N 0.90226 0.96246 0.31657 0.0
C122 C 0.97235 0.0336 0.32344 0.0
C123 C 0.91715 0.97974 0.34756 0.0
C124 C 0.94305 0.00316 0.31082 0.0
C125 C 0.88881 0.95027 0.33452 0.0
C126 C 0.06809 0.15705 0.38573 0.0
C127 C 0.03354 0.16664 0.39283 0.0
C128 C 0.11485 0.19427 0.38213 0.0
C129 C 0.04621 0.21352 0.3959 0.0
C130 C 0.12612 0.24067 0.38537 0.0
N131 N 0.09184 0.24927 0.39211 0.0
C132 C 0.9477 0.03334 0.41485 0.0
C133 C 0.91083 0.0442 0.3895 0.0
C134 C 0.91317 0.03329 0.42674 0.0
N135 N 0.94605 0.03914 0.39664 0.0
C136 C 0.87569 0.04445 0.40086 0.0
C137 C 0.87688 0.03964 0.41979 0.0
H138 H 0.97658 0.03008 0.42014 0.0
H139 H 0.91109 0.04986 0.37498 0.0
C140 C 0.08913 0.17276 0.32459 0.0
N141 N 0.0614 0.15835 0.34037 0.0
C142 C 0.09045 0.20837 0.31292 0.0
C143 C 0.03497 0.2137 0.33403 0.0
C144 C 0.03417 0.17761 0.34511 0.0
C145 C 0.06304 0.22923 0.31761 0.0
H146 H 0.10919 0.15574 0.32082 0.0
H147 H 0.01059 0.16387 0.35723 0.0
O148 O 0.02692 0.0076 0.38322 0.0
O149 O 0.09427 0.07843 0.35027 0.0
O150 O 0.98819 0.05017 0.35449 0.0
O151 O 0.05622 0.1114 0.38248 0.0
H152 H 0.06533 0.95274 0.37996 0.0
H153 H 0.93511 0.95269 0.39293 0.0
H154 H 0.02173 0.86516 0.38582 0.0
H155 H 0.89381 0.86511 0.39856 0.0
H156 H 0.24636 0.20234 0.34346 0.0
H157 H 0.13753 0.02871 0.34515 0.0
H158 H 0.15945 0.17004 0.34839 0.0
H159 H 0.22481 0.0635 0.34008 0.0
H160 H 0.95739 0.85407 0.33579 0.0
H161 H 0.076 0.96545 0.30244 0.0
H162 H 0.20689 0.14572 0.42347 0.0
H163 H 0.20018 0.02559 0.39764 0.0
H164 H 0.00504 0.06581 0.31892 0.0
H165 H 0.90676 0.9699 0.36185 0.0
H166 H 0.95281 0.0118 0.29646 0.0
H167 H 0.85622 0.91761 0.33866 0.0
H168 H 0.99722 0.13829 0.3958 0.0
H169 H 0.14222 0.18741 0.37697 0.0
H170 H 0.01976 0.22149 0.40127 0.0
H171 H 0.16215 0.26983 0.38258 0.0
H172 H 0.91524 0.02893 0.44121 0.0
H173 H 0.849 0.05026 0.39487 0.0
H174 H 0.11238 0.21924 0.30033 0.0
H175 H 0.01245 0.22804 0.33793 0.0
Li176 Li 0.095 0.04616 0.68986 0.0
Li177 Li 0.0878 0.09248 0.71335 0.0
Li178 Li 0.02662 0.00803 0.7123 0.0
Li179 Li 0.03058 0.06671 0.6895 0.0
C180 C 0.1123 0.00649 0.72141 0.0
N181 N 0.14722 0.94739 0.73099 0.0
C182 C 0.15422 0.02409 0.73049 0.0
C183 C 0.08788 0.95874 0.7174 0.0
C184 C 0.1714 0.99369 0.73516 0.0
C185 C 0.10615 0.92944 0.72231 0.0
C186 C 0.14739 0.14431 0.68218 0.0
C187 C 0.20639 0.21058 0.66274 0.0
N188 N 0.24119 0.21172 0.67273 0.0
C189 C 0.18373 0.14615 0.69225 0.0
C190 C 0.15874 0.17676 0.66731 0.0
C191 C 0.23092 0.18048 0.68726 0.0
C192 C 0.13252 0.03346 0.65664 0.0
N193 N 0.14055 0.04049 0.67449 0.0
C194 C 0.2182 0.05042 0.66952 0.0
C195 C 0.18223 0.04843 0.68107 0.0
C196 C 0.21143 0.04431 0.65095 0.0
C197 C 0.16754 0.03491 0.64458 0.0
H198 H 0.09943 0.0281 0.65168 0.0
H199 H 0.18849 0.05511 0.69515 0.0
C200 C 0.13365 0.12511 0.74522 0.0
N201 N 0.12428 0.14047 0.7294 0.0
C202 C 0.16574 0.15769 0.7566 0.0
C203 C 0.17636 0.22157 0.73563 0.0
C204 C 0.14407 0.18766 0.7246 0.0
C205 C 0.18838 0.20665 0.75169 0.0
H206 H 0.11728 0.08737 0.74871 0.0
H207 H 0.13633 0.19896 0.71186 0.0
C208 C 0.00208 0.96311 0.67791 0.0
N209 N 0.95133 0.8776 0.66202 0.0
C210 C 0.95663 0.94882 0.67218 0.0
C211 C 0.02213 0.93438 0.67517 0.0
C212 C 0.93141 0.90532 0.66431 0.0
C213 C 0.9958 0.89116 0.66721 0.0
C214 C 0.00642 0.09682 0.72114 0.0
C215 C 0.97519 0.08772 0.73623 0.0
C216 C 0.0266 0.14059 0.71114 0.0
C217 C 0.96465 0.12269 0.74109 0.0
C218 C 0.01519 0.17463 0.71644 0.0
N219 N 0.98472 0.16506 0.73118 0.0
C220 C 0.99038 0.9413 0.74317 0.0
C221 C 0.93563 0.92935 0.7209 0.0
C222 C 0.95436 0.90458 0.75457 0.0
N223 N 0.98039 0.9529 0.72669 0.0
C224 C 0.89869 0.89229 0.73177 0.0
C225 C 0.90753 0.87989 0.74902 0.0
H226 H 0.02593 0.96164 0.74775 0.0
H227 H 0.92816 0.94046 0.70811 0.0
C228 C 0.00395 0.1002 0.65814 0.0
N229 N 0.98958 0.07776 0.67498 0.0
C230 C 0.97123 0.10337 0.64724 0.0
C231 C 0.91 0.06082 0.67134 0.0
C232 C 0.94379 0.05854 0.68174 0.0
C233 C 0.92334 0.08306 0.65374 0.0
H234 H 0.04053 0.11473 0.65306 0.0
H235 H 0.9332 0.04008 0.69505 0.0
O236 O 0.09515 0.03594 0.71673 0.0
O237 O 0.1009 0.11081 0.68671 0.0
O238 O 0.02755 0.00598 0.68539 0.0
O239 O 0.01705 0.06287 0.71628 0.0
H240 H 0.17356 0.061 0.73372 0.0
H241 H 0.05484 0.94428 0.71079 0.0
H242 H 0.20397 0.0069 0.74208 0.0
H243 H 0.08758 0.89239 0.71927 0.0
H244 H 0.21571 0.23592 0.65126 0.0
H245 H 0.17561 0.12132 0.70381 0.0
H246 H 0.13099 0.17577 0.65937 0.0
H247 H 0.25938 0.18226 0.69493 0.0
H248 H 0.25126 0.0573 0.67505 0.0
H249 H 0.16098 0.03049 0.63034 0.0
H250 H 0.17328 0.14462 0.769 0.0
H251 H 0.1932 0.25892 0.73125 0.0
H252 H 0.94084 0.97093 0.67391 0.0
H253 H 0.05782 0.94547 0.67896 0.0
H254 H 0.89604 0.89365 0.65997 0.0
H255 H 0.01083 0.8685 0.66509 0.0
H256 H 0.95927 0.05397 0.74409 0.0
H257 H 0.05079 0.14827 0.6994 0.0
H258 H 0.94054 0.11615 0.75274 0.0
H259 H 0.03057 0.20866 0.70883 0.0
H260 H 0.96279 0.89697 0.76786 0.0
H261 H 0.86338 0.87411 0.72679 0.0
H262 H 0.98326 0.12127 0.63384 0.0
H263 H 0.87345 0.04388 0.67682 0.0
C264 C 0.08827 0.63421 0.17237 0.0
C265 C 0.13248 0.66831 0.1645 0.0
C266 C 0.16559 0.66263 0.17328 0.0
C267 C 0.13984 0.62533 0.18585 0.0
N268 N 0.09221 0.60649 0.18554 0.0
Co269 Co 0.04171 0.55108 0.2012 0.0
N270 N 0.09064 0.54604 0.21533 0.0
C271 C 0.13836 0.57546 0.21352 0.0
C272 C 0.16281 0.56399 0.22546 0.0
C273 C 0.12876 0.52452 0.23538 0.0
C274 C 0.08534 0.51386 0.22873 0.0
N275 N 0.99132 0.49443 0.21645 0.0
C276 C 0.99554 0.46545 0.22903 0.0
C277 C 0.95138 0.42757 0.23525 0.0
C278 C 0.91815 0.43276 0.22633 0.0
C279 C 0.94371 0.47306 0.21509 0.0
N280 N 0.9928 0.55747 0.18749 0.0
C281 C 0.94494 0.53046 0.19028 0.0
C282 C 0.92049 0.54513 0.17964 0.0
C283 C 0.95473 0.58434 0.16963 0.0
C284 C 0.9983 0.59115 0.17467 0.0
N285 N 0.04303 0.50699 0.18356 0.0
C286 C 0.04308 0.4403 0.16022 0.0
C287 C 1.00135 0.441 0.16465 0.0
C288 C 0.00209 0.47421 0.17624 0.0
C289 C 0.08507 0.47422 0.16738 0.0
C290 C 0.08433 0.5072 0.17882 0.0
N291 N 0.04012 0.59505 0.21882 0.0
C292 C 0.99521 0.61878 0.23831 0.0
C293 C 0.0365 0.6607 0.24185 0.0
C294 C 0.07985 0.66852 0.23399 0.0
C295 C 0.08085 0.63551 0.22265 0.0
C296 C 0.99783 0.58672 0.22695 0.0
H297 H 0.11495 0.64376 0.21699 0.0
H298 H 0.96496 0.55582 0.22474 0.0
H299 H 0.96884 0.47208 0.17925 0.0
H300 H 0.11751 0.53222 0.1838 0.0
C301 C 0.15937 0.61059 0.19935 0.0
C302 C 0.04386 0.63103 0.16741 0.0
C303 C 0.04051 0.47146 0.23496 0.0
C304 C 0.9241 0.49148 0.20298 0.0
H305 H 0.14005 0.69527 0.15381 0.0
H306 H 0.20392 0.68418 0.17118 0.0
H307 H 0.20095 0.58133 0.22643 0.0
H308 H 0.13528 0.50506 0.24599 0.0
H309 H 0.94385 0.39862 0.24499 0.0
H310 H 0.87993 0.40942 0.22763 0.0
H311 H 0.88231 0.52956 0.17939 0.0
H312 H 0.9483 0.60588 0.15991 0.0
H313 H 0.96781 0.41516 0.15958 0.0
H314 H 0.11847 0.47551 0.16413 0.0
H315 H 0.96064 0.6111 0.2439 0.0
H316 H 0.11303 0.69997 0.23657 0.0
C317 C 0.47429 0.02673 0.56257 0.0
C318 C 0.43894 0.98299 0.57034 0.0
C319 C 0.44409 0.94914 0.56191 0.0
C320 C 0.48224 0.97402 0.5496 0.0
N321 N 0.5022 0.02181 0.54977 0.0
Co322 Co 0.55805 0.07132 0.53397 0.0
N323 N 0.56297 0.02133 0.52054 0.0
C324 C 0.53412 0.97362 0.523 0.0
C325 C 0.54662 0.94834 0.51189 0.0
C326 C 0.58617 0.98182 0.50183 0.0
C327 C 0.5956 0.02575 0.50749 0.0
N328 N 0.6144 0.1208 0.51831 0.0
C329 C 0.64257 0.11568 0.50565 0.0
C330 C 0.67935 0.15935 0.49847 0.0
C331 C 0.67456 0.19334 0.507 0.0
C332 C 0.63538 0.16861 0.51888 0.0
N333 N 0.55259 0.12129 0.54728 0.0
C334 C 0.58051 0.16905 0.54441 0.0
C335 C 0.56681 0.19424 0.55507 0.0
C336 C 0.5274 0.16064 0.5652 0.0
C337 C 0.5194 0.1167 0.56014 0.0
N338 N 0.60221 0.07075 0.55177 0.0
C339 C 0.6687 0.07115 0.57541 0.0
C340 C 0.6715 0.11349 0.56904 0.0
C341 C 0.63822 0.11247 0.55742 0.0
C342 C 0.63141 0.02843 0.56996 0.0
C343 C 0.59878 0.02904 0.55827 0.0
N344 N 0.51402 0.07215 0.51618 0.0
C345 C 0.48894 0.11638 0.49699 0.0
C346 C 0.44847 0.0746 0.49279 0.0
C347 C 0.44203 0.03137 0.50013 0.0
C348 C 0.47498 0.03096 0.51169 0.0
C349 C 0.52093 0.11435 0.50854 0.0
H350 H 0.46777 0.99696 0.51702 0.0
H351 H 0.55076 0.14755 0.51118 0.0
H352 H 0.64287 0.14607 0.55302 0.0
H353 H 0.57134 0.99535 0.55457 0.0
C354 C 0.49782 0.95355 0.53679 0.0
C355 C 0.47868 0.07173 0.56736 0.0
C356 C 0.63704 0.07041 0.50056 0.0
C357 C 0.61833 0.18914 0.53116 0.0
H358 H 0.41161 0.97624 0.58077 0.0
H359 H 0.42185 0.91092 0.56412 0.0
H360 H 0.52979 0.91008 0.51152 0.0
H361 H 0.60642 0.97469 0.49175 0.0
H362 H 0.70723 0.16591 0.48834 0.0
H363 H 0.69749 0.23152 0.50504 0.0
H364 H 0.58295 0.23248 0.55518 0.0
H365 H 0.50638 0.16768 0.57495 0.0
H366 H 0.69997 0.14763 0.57264 0.0
H367 H 0.62717 0.99456 0.57473 0.0
H368 H 0.49616 0.15073 0.49134 0.0
H369 H 0.41114 0.99797 0.49734 0.0
C370 C 0.64007 0.58971 0.8394 0.0
C371 C 0.67402 0.57978 0.83223 0.0
C372 C 0.66737 0.53989 0.84167 0.0
C373 C 0.62969 0.52757 0.85389 0.0
N374 N 0.61146 0.55685 0.85274 0.0
Co375 Co 0.55593 0.55127 0.86772 0.0
N376 N 0.54899 0.49506 0.88268 0.0
C377 C 0.5769 0.47528 0.88123 0.0
C378 C 0.56298 0.43652 0.89304 0.0
C379 C 0.52356 0.43084 0.90255 0.0
C380 C 0.51575 0.46678 0.89599 0.0
N381 N 0.49954 0.54482 0.8824 0.0
C382 C 0.47023 0.51107 0.8954 0.0
C383 C 0.43404 0.51879 0.90168 0.0
C384 C 0.44013 0.55831 0.89209 0.0
C385 C 0.47957 0.57247 0.88058 0.0
N386 N 0.56378 0.60833 0.85305 0.0
C387 C 0.53724 0.62949 0.85503 0.0
C388 C 0.5528 0.66968 0.84383 0.0
C389 C 0.59202 0.67498 0.83425 0.0
C390 C 0.59797 0.63733 0.8401 0.0
N391 N 0.51175 0.50804 0.85026 0.0
C392 C 0.44395 0.44344 0.82763 0.0
C393 C 0.44434 0.48504 0.83196 0.0
C394 C 0.47815 0.51646 0.84315 0.0
C395 C 0.47917 0.43551 0.83438 0.0
C396 C 0.51252 0.46806 0.84553 0.0
N397 N 0.59992 0.59461 0.88517 0.0
C398 C 0.62539 0.66274 0.90323 0.0
C399 C 0.66552 0.66074 0.90796 0.0
C400 C 0.67156 0.62412 0.90151 0.0
C401 C 0.63862 0.59172 0.89019 0.0
C402 C 0.59331 0.62957 0.89203 0.0
H403 H 0.64552 0.56505 0.88547 0.0
H404 H 0.56366 0.63334 0.889 0.0
H405 H 0.47592 0.54707 0.84599 0.0
H406 H 0.53811 0.45973 0.85037 0.0
C407 C 0.61308 0.49105 0.8675 0.0
C408 C 0.63768 0.63171 0.83351 0.0
C409 C 0.47474 0.4708 0.90205 0.0
C410 C 0.4985 0.61131 0.86782 0.0
H411 H 0.70138 0.59984 0.82152 0.0
H412 H 0.6883 0.52266 0.84013 0.0
H413 H 0.57857 0.41399 0.89414 0.0
H414 H 0.50225 0.40249 0.91277 0.0
H415 H 0.40588 0.49774 0.91202 0.0
H416 H 0.41814 0.57449 0.89323 0.0
H417 H 0.53796 0.6929 0.84298 0.0
H418 H 0.61419 0.70386 0.82434 0.0
H419 H 0.41861 0.49353 0.82673 0.0
H420 H 0.4804 0.40375 0.83148 0.0
H421 H 0.61856 0.6898 0.90821 0.0
H422 H 0.70217 0.62111 0.9048 0.0
H423 H 0.10235 0.24714 0.10055 0.0
H424 H 0.95432 0.19898 0.09317 0.0
H425 H 0.10764 0.31089 0.11833 0.0
H426 H 0.95926 0.26239 0.11126 0.0
H427 H 0.9969 0.40928 0.12908 0.0
H428 H 0.99288 0.3469 0.11066 0.0
H429 H 0.08235 0.32509 0.14696 0.0
H430 H 0.08694 0.38804 0.16515 0.0
C431 C 0.07073 0.24982 0.10293 0.0
C432 C 0.02782 0.21782 0.09552 0.0
C433 C 0.07374 0.2864 0.11314 0.0
C434 C 0.03387 0.29185 0.1163 0.0
C435 C 0.99091 0.25979 0.10888 0.0
C436 C 0.98798 0.22332 0.09856 0.0
C437 C 0.01565 0.39108 0.13312 0.0
C438 C 0.04226 0.40363 0.14857 0.0
C439 C 0.0132 0.35517 0.1226 0.0
C440 C 0.03711 0.33071 0.12733 0.0
C441 C 0.06406 0.34359 0.14272 0.0
C442 C 0.06672 0.37971 0.15318 0.0
H443 H 0.89267 0.08468 0.45156 0.0
H444 H 0.78151 0.00362 0.4159 0.0
H445 H 0.83591 0.09359 0.4711 0.0
H446 H 0.72493 0.01301 0.43537 0.0
H447 H 0.65004 0.08298 0.46376 0.0
H448 H 0.70866 0.07587 0.44428 0.0
H449 H 0.76505 0.04609 0.49187 0.0
H450 H 0.70663 0.05382 0.51118 0.0
C451 C 0.85602 0.06823 0.44799 0.0
C452 C 0.84173 0.04337 0.43213 0.0
C453 C 0.82351 0.0735 0.45917 0.0
C454 C 0.77594 0.05422 0.45475 0.0
C455 C 0.76152 0.02903 0.43899 0.0
C456 C 0.79397 0.0236 0.42784 0.0
C457 C 0.6754 0.07537 0.46993 0.0
C458 C 0.67442 0.06923 0.48883 0.0
C459 C 0.70861 0.07089 0.45885 0.0
C460 C 0.74144 0.06024 0.46653 0.0
C461 C 0.74064 0.0548 0.48554 0.0
C462 C 0.70729 0.05909 0.49658 0.0
H463 H 0.81645 0.86364 0.75368 0.0
H464 H 0.90834 0.81293 0.77261 0.0
H465 H 0.75134 0.80386 0.77391 0.0
H466 H 0.84315 0.75361 0.79313 0.0
H467 H 0.72941 0.69039 0.8412 0.0
H468 H 0.79504 0.75026 0.82075 0.0
H469 H 0.69912 0.71608 0.77764 0.0
H470 H 0.63373 0.65625 0.7982 0.0
C471 C 0.82271 0.83943 0.76199 0.0
C472 C 0.86773 0.84303 0.76138 0.0
C473 C 0.78534 0.80524 0.77364 0.0
C474 C 0.79205 0.77398 0.78511 0.0
C475 C 0.83703 0.77759 0.78461 0.0
C476 C 0.8744 0.81163 0.77285 0.0
C477 C 0.72261 0.69602 0.82735 0.0
C478 C 0.67676 0.66929 0.82122 0.0
C479 C 0.76007 0.72992 0.81563 0.0
C480 C 0.75227 0.73788 0.79757 0.0
C481 C 0.70614 0.71116 0.79152 0.0
C482 C 0.66879 0.67698 0.80322 0.0
H483 H 0.09497 0.83128 0.0765 0.0
H484 H 0.04068 0.87912 0.12017 0.0
H485 H 0.08726 0.76639 0.09666 0.0
H486 H 0.03282 0.81419 0.14032 0.0
H487 H 0.07238 0.72154 0.17577 0.0
H488 H 0.08003 0.78704 0.15578 0.0
H489 H 0.02675 0.69229 0.11222 0.0
H490 H 0.0204 0.62734 0.13226 0.0
C491 C 0.08118 0.82782 0.09038 0.0
C492 C 0.06852 0.86047 0.09671 0.0
C493 C 0.07664 0.79054 0.10194 0.0
C494 C 0.05925 0.78493 0.12011 0.0
C495 C 0.04695 0.81781 0.12648 0.0
C496 C 0.05155 0.85512 0.11493 0.0
C497 C 0.06212 0.71497 0.16193 0.0
C498 C 0.04557 0.6697 0.15548 0.0
C499 C 0.06628 0.75226 0.15051 0.0
C500 C 0.05402 0.74498 0.13237 0.0
C501 C 0.03708 0.69932 0.12603 0.0
C502 C 0.03299 0.66205 0.13748 0.0
H503 H 0.21772 0.10144 0.4483 0.0
H504 H 0.28382 0.07322 0.40233 0.0
H505 H 0.27538 0.09887 0.46776 0.0
H506 H 0.34132 0.07046 0.42182 0.0
H507 H 0.40134 0.01612 0.46586 0.0
H508 H 0.34395 0.01987 0.44651 0.0
H509 H 0.35964 0.14209 0.47339 0.0
H510 H 0.41569 0.13735 0.49311 0.0
C511 C 0.24493 0.09533 0.44228 0.0
C512 C 0.24601 0.08743 0.42374 0.0
C513 C 0.27794 0.09374 0.45346 0.0
C514 C 0.31283 0.08418 0.44638 0.0
C515 C 0.31438 0.07702 0.42779 0.0
C516 C 0.28143 0.07868 0.41661 0.0
C517 C 0.39218 0.04349 0.46775 0.0
C518 C 0.41322 0.07648 0.48102 0.0
C519 C 0.3597 0.046 0.45653 0.0
C520 C 0.34731 0.08141 0.45835 0.0
C521 C 0.36807 0.11415 0.47171 0.0
C522 C 0.40063 0.11173 0.48289 0.0
H523 H 0.25914 0.19908 0.76749 0.0
H524 H 0.20263 0.29351 0.76095 0.0
H525 H 0.3205 0.25592 0.78583 0.0
H526 H 0.26499 0.3511 0.77889 0.0
H527 H 0.34929 0.41589 0.82885 0.0
H528 H 0.28813 0.35956 0.81037 0.0
H529 H 0.39229 0.33484 0.78263 0.0
H530 H 0.45376 0.39162 0.80103 0.0
C531 C 0.25968 0.23191 0.77004 0.0
C532 C 0.22575 0.24161 0.76285 0.0
C533 C 0.29524 0.26475 0.78036 0.0
C534 C 0.29771 0.30809 0.78382 0.0
C535 C 0.26381 0.31784 0.77663 0.0
C536 C 0.22833 0.28505 0.76621 0.0
C537 C 0.35937 0.39891 0.81867 0.0
C538 C 0.4066 0.40853 0.8164 0.0
C539 C 0.32423 0.36655 0.80808 0.0
C540 C 0.33531 0.34278 0.79498 0.0
C541 C 0.38244 0.35213 0.79275 0.0
C542 C 0.41768 0.38464 0.80332 0.0
H543 H 0.91507 0.07022 0.6173 0.0
H544 H 0.84884 0.09603 0.66388 0.0
H545 H 0.85395 0.06791 0.59857 0.0
H546 H 0.7865 0.09141 0.64538 0.0
H547 H 0.7101 0.12915 0.6031 0.0
H548 H 0.77257 0.13371 0.62148 0.0
H549 H 0.77071 0.01821 0.59381 0.0
H550 H 0.70976 0.0152 0.57479 0.0
C551 C 0.88766 0.07567 0.62354 0.0
C552 C 0.88699 0.08336 0.64213 0.0
C553 C 0.85216 0.07364 0.61285 0.0
C554 C 0.81505 0.07918 0.62046 0.0
C555 C 0.81471 0.0874 0.63899 0.0
C556 C 0.85023 0.08953 0.64967 0.0
C557 C 0.72326 0.10497 0.60081 0.0
C558 C 0.70495 0.07195 0.58737 0.0
C559 C 0.75877 0.10722 0.61151 0.0
C560 C 0.77685 0.0764 0.60914 0.0
C561 C 0.75813 0.04295 0.59586 0.0
C562 C 0.72265 0.04076 0.58511 0.0
H563 H 0.82023 0.82019 0.99803 0.0
H564 H 0.89568 0.91461 0.95074 0.0
H565 H 0.76585 0.76036 0.97858 0.0
H566 H 0.84078 0.85498 0.93135 0.0
H567 H 0.701 0.75674 0.90516 0.0
H568 H 0.75641 0.81635 0.92443 0.0
H569 H 0.7662 0.70692 0.95558 0.0
H570 H 0.7098 0.64697 0.93648 0.0
C571 C 0.82543 0.82816 0.98349 0.0
C572 C 0.86247 0.87235 0.97599 0.0
C573 C 0.79423 0.79381 0.97234 0.0
C574 C 0.79905 0.80284 0.95341 0.0
C575 C 0.83575 0.84712 0.9459 0.0
C576 C 0.86713 0.8814 0.95704 0.0
C577 C 0.71478 0.74534 0.91618 0.0
C578 C 0.70079 0.69707 0.91935 0.0
C579 C 0.7469 0.77958 0.92711 0.0
C580 C 0.76566 0.76639 0.94156 0.0
C581 C 0.75199 0.71815 0.94467 0.0
C582 C 0.72007 0.68389 0.93363 0.0
H583 H 0.09682 0.90491 0.30378 0.0
H584 H 0.94319 0.8216 0.30655 0.0
H585 H 0.10117 0.84628 0.28559 0.0
H586 H 0.94773 0.76242 0.28851 0.0
H587 H 0.97926 0.64425 0.27272 0.0
H588 H 0.97378 0.70265 0.29085 0.0
H589 H 0.08284 0.81619 0.25513 0.0
H590 H 0.08793 0.75795 0.23684 0.0
C591 C 0.0639 0.87437 0.30035 0.0
C592 C 0.01961 0.86828 0.30655 0.0
C593 C 0.06646 0.84066 0.28995 0.0
C594 C 0.02482 0.79975 0.28555 0.0
C595 C 0.98049 0.79332 0.29184 0.0
C596 C 0.9779 0.82724 0.30219 0.0
C597 C 0.00181 0.68165 0.26862 0.0
C598 C 0.03409 0.69631 0.25329 0.0
C599 C 0.99863 0.71511 0.27903 0.0
C600 C 0.02784 0.76406 0.27443 0.0
C601 C 0.06029 0.77876 0.25918 0.0
C602 C 0.06331 0.74532 0.24872 0.0
H603 H 0.30579 0.11149 0.65029 0.0
H604 H 0.20582 0.98931 0.62288 0.0
H605 H 0.37049 0.12012 0.62983 0.0
H606 H 0.2707 0.99755 0.60248 0.0
H607 H 0.39118 0.05277 0.55814 0.0
H608 H 0.3264 0.04754 0.57795 0.0
H609 H 0.4158 0.08198 0.62329 0.0
H610 H 0.48061 0.08826 0.60321 0.0
C611 C 0.29769 0.08615 0.63999 0.0
C612 C 0.25065 0.04952 0.63829 0.0
C613 C 0.33483 0.09109 0.62825 0.0
C614 C 0.32594 0.05946 0.61452 0.0
C615 C 0.2788 0.023 0.61273 0.0
C616 C 0.24158 0.01817 0.62444 0.0
C617 C 0.39678 0.05962 0.57232 0.0
C618 C 0.4406 0.07126 0.57924 0.0
C619 C 0.35972 0.05623 0.5837 0.0
C620 C 0.36576 0.06421 0.60226 0.0
C621 C 0.41006 0.07628 0.60905 0.0
C622 C 0.44711 0.07975 0.59764 0.0
H623 H 0.20928 0.25487 0.95967 0.0
H624 H 0.31799 0.22802 0.979 0.0
H625 H 0.26935 0.32203 0.94019 0.0
H626 H 0.37807 0.29574 0.95973 0.0
H627 H 0.47781 0.45026 0.93788 0.0
H628 H 0.41614 0.38378 0.95752 0.0
H629 H 0.32388 0.33853 0.91303 0.0
H630 H 0.38581 0.40517 0.89351 0.0
C631 C 0.24586 0.26288 0.95964 0.0
C632 C 0.25869 0.23585 0.97093 0.0
C633 C 0.28032 0.30154 0.94851 0.0
C634 C 0.32849 0.31434 0.94848 0.0
C635 C 0.34134 0.28726 0.95967 0.0
C636 C 0.30687 0.24843 0.97072 0.0
C637 C 0.44417 0.42608 0.93243 0.0
C638 C 0.43631 0.43235 0.91427 0.0
C639 C 0.40905 0.38797 0.94357 0.0
C640 C 0.36524 0.35571 0.93679 0.0
C641 C 0.3571 0.36292 0.91869 0.0
C642 C 0.3924 0.40086 0.90752 0.0
H643 H 0.05207 0.22627 0.28115 0.0
H644 H 0.07031 0.31347 0.3261 0.0
H645 H 0.04467 0.28312 0.26109 0.0
H646 H 0.06471 0.37138 0.30601 0.0
H647 H 0.00579 0.4432 0.27017 0.0
H648 H 0.01061 0.3839 0.28988 0.0
H649 H 0.08612 0.3592 0.2461 0.0
H650 H 0.07866 0.4166 0.2263 0.0
C651 C 0.05529 0.25806 0.28666 0.0
C652 C 0.06175 0.26544 0.30518 0.0
C653 C 0.05111 0.29077 0.27516 0.0
C654 C 0.05387 0.33197 0.28188 0.0
C655 C 0.06129 0.33965 0.30039 0.0
C656 C 0.06486 0.30664 0.31191 0.0
C657 C 0.02271 0.42439 0.2648 0.0
C658 C 0.04143 0.43388 0.24675 0.0
C659 C 0.0261 0.39089 0.27611 0.0
C660 C 0.049 0.36671 0.26967 0.0
C661 C 0.06757 0.37637 0.2515 0.0
C662 C 0.06361 0.40942 0.24016 0.0
loop_
_geom_bond_atom_site_label_1
_geom_bond_atom_site_label_2
_geom_bond_distance
_geom_bond_site_symmetry_2
_ccdc_geom_bond_type
Li0 N17 1.990 . S
Li0 O60 1.956 . S
Li0 O61 1.970 . S
Li0 O62 1.961 . S
Li1 N25 1.990 . S
Li1 O60 1.970 . S
Li1 O61 1.956 . S
Li1 O63 1.961 . S
Li2 N47 1.990 1_545 S
Li2 O60 1.961 . S
Li2 O62 1.956 . S
Li2 O63 1.970 . S
Li3 N53 1.990 1_445 S
Li3 O61 1.961 . S
Li3 O62 1.970 . S
Li3 O63 1.956 . S
C4 C6 1.348 . S
C4 C7 1.356 . S
C4 O60 1.325 . S
N5 C8 1.314 . S
N5 C9 1.279 . S
C6 C4 1.348 . S
C6 C8 1.353 . S
C6 H64 0.929 . S
C7 C4 1.356 . S
C7 C9 1.358 . S
C7 H65 0.930 . S
C8 N5 1.314 . S
C8 C6 1.353 . S
C8 H66 0.930 . S
C9 N5 1.279 . S
C9 C7 1.358 . S
C9 H67 0.930 . S
C10 C13 1.345 . S
C10 C14 1.356 . S
C10 O61 1.325 . S
C11 N12 1.279 1_655 S
C11 C14 1.358 1_656 S
C11 H68 0.930 . S
N12 C11 1.279 1_455 S
N12 C15 1.314 . S
C13 C10 1.345 . S
C13 C15 1.357 1_554 S
C13 H69 0.928 . S
C14 C10 1.356 . S
C14 C11 1.358 1_454 S
C14 H70 0.930 1_455 S
C15 N12 1.314 . S
C15 C13 1.357 1_556 S
C15 H71 0.930 . S
C16 N17 1.314 1_556 S
C16 C21 1.353 . S
C16 H22 0.930 . S
N17 Li0 1.990 . S
N17 C16 1.314 1_554 S
N17 C19 1.279 . S
C18 C19 1.340 1_556 S
C18 C20 1.391 . S
C18 H72 0.913 1_556 S
C19 N17 1.279 . S
C19 C18 1.340 1_554 S
C19 H23 0.930 . S
C20 C18 1.391 . S
C20 C21 1.348 . S
C21 C16 1.353 . S
C21 C20 1.348 . S
C21 H73 0.929 . S
H22 C16 0.930 . S
H23 C19 0.930 . S
C24 N25 1.314 . S
C24 C26 1.353 . S
C24 H30 0.930 . S
N25 Li1 1.990 . S
N25 C24 1.314 . S
N25 C28 1.279 . S
C26 C24 1.353 . S
C26 C29 1.348 . S
C26 H74 0.930 . S
C27 C28 1.358 . S
C27 C29 1.356 . S
C27 H75 0.930 . S
C28 N25 1.279 . S
C28 C27 1.358 . S
C28 H31 0.930 . S
C29 C26 1.348 . S
C29 C27 1.356 . S
H30 C24 0.930 . S
H31 C28 0.930 . S
C32 C34 1.348 . S
C32 C35 1.356 . S
C32 O62 1.325 1_565 S
N33 C36 1.314 . S
N33 C37 1.279 . S
C34 C32 1.348 . S
C34 C36 1.353 1_554 S
C34 H76 0.929 . S
C35 C32 1.356 . S
C35 C37 1.358 1_554 S
C35 H77 0.930 1_565 S
C36 N33 1.314 . S
C36 C34 1.353 1_556 S
C36 H78 0.930 . S
C37 N33 1.279 . S
C37 C35 1.358 1_556 S
C37 H79 0.930 . S
C38 C39 1.348 . S
C38 C40 1.356 . S
C38 O63 1.325 1_665 S
C39 C38 1.348 . S
C39 C41 1.353 . S
C39 H80 0.929 . S
C40 C38 1.356 . S
C40 C42 1.358 . S
C40 H81 0.930 1_565 S
C41 C39 1.353 . S
C41 N43 1.314 . S
C41 H82 0.930 . S
C42 C40 1.358 . S
C42 N43 1.279 . S
C42 H83 0.930 . S
N43 C41 1.314 . S
N43 C42 1.279 . S
C44 C46 1.353 . S
C44 N47 1.314 . S
C44 H50 0.930 1_565 S
C45 N47 1.279 . S
C45 C48 1.358 . S
C45 H51 0.930 . S
C46 C44 1.353 . S
C46 C49 1.348 . S
C46 H84 0.929 . S
N47 Li2 1.990 1_565 S
N47 C44 1.314 . S
N47 C45 1.279 . S
C48 C45 1.358 . S
C48 C49 1.356 . S
C48 H85 0.930 . S
C49 C46 1.348 . S
C49 C48 1.356 . S
H50 C44 0.930 1_545 S
H51 C45 0.930 . S
C52 N53 1.314 1_556 S
C52 C54 1.353 . S
C52 H58 0.930 1_565 S
N53 Li3 1.990 1_665 S
N53 C52 1.314 1_554 S
N53 C56 1.279 . S
C54 C52 1.353 . S
C54 C57 1.348 . S
C54 H86 0.929 . S
C55 C56 1.358 . S
C55 C57 1.356 1_554 S
C55 H87 0.930 . S
C56 N53 1.279 . S
C56 C55 1.358 . S
C56 H59 0.930 . S
C57 C54 1.348 . S
C57 C55 1.356 1_556 S
H58 C52 0.930 1_545 S
H59 C56 0.930 . S
O60 Li0 1.956 . S
O60 Li1 1.970 . S
O60 Li2 1.961 . S
O60 C4 1.325 . S
O61 Li0 1.970 . S
O61 Li1 1.956 . S
O61 Li3 1.961 . S
O61 C10 1.325 . S
O62 Li0 1.961 . S
O62 Li2 1.956 . S
O62 Li3 1.970 . S
O62 C32 1.325 1_545 S
O63 Li1 1.961 . S
O63 Li2 1.970 . S
O63 Li3 1.956 . S
O63 C38 1.325 1_445 S
H64 C6 0.929 . S
H65 C7 0.930 . S
H66 C8 0.930 . S
H67 C9 0.930 . S
H68 C11 0.930 . S
H69 C13 0.928 . S
H70 C14 0.930 1_655 S
H71 C15 0.930 . S
H72 C18 0.913 1_554 S
H73 C21 0.929 . S
H74 C26 0.930 . S
H75 C27 0.930 . S
H76 C34 0.929 . S
H77 C35 0.930 1_545 S
H78 C36 0.930 . S
H79 C37 0.930 . S
H80 C39 0.929 . S
H81 C40 0.930 1_545 S
H82 C41 0.930 . S
H83 C42 0.930 . S
H84 C46 0.929 . S
H85 C48 0.930 . S
H86 C54 0.929 . S
H87 C55 0.930 . S
Li88 N105 1.990 1_545 S
Li88 O148 1.956 . S
Li88 O149 1.970 . S
Li88 O150 1.961 1_455 S
Li89 N113 1.990 . S
Li89 O148 1.970 . S
Li89 O149 1.956 . S
Li89 O151 1.961 . S
Li90 N135 1.990 . S
Li90 O148 1.961 1_655 S
Li90 O150 1.956 . S
Li90 O151 1.970 1_655 S
Li91 N141 1.990 . S
Li91 O149 1.961 . S
Li91 O150 1.970 1_455 S
Li91 O151 1.956 . S
C92 C94 1.348 . S
C92 C95 1.356 1_455 S
C92 O148 1.325 1_565 S
N93 C96 1.314 1_655 S
N93 C97 1.279 . S
C94 C92 1.348 . S
C94 C96 1.353 . S
C94 H152 0.930 1_565 S
C95 C92 1.356 1_655 S
C95 C97 1.358 . S
C95 H153 0.930 . S
C96 N93 1.314 1_455 S
C96 C94 1.353 . S
C96 H154 0.930 . S
C97 N93 1.279 . S
C97 C95 1.358 . S
C97 H155 0.930 . S
C98 C101 1.348 . S
C98 C102 1.356 . S
C98 O149 1.325 . S
C99 N100 1.279 . S
C99 C102 1.358 . S
C99 H156 0.930 . S
N100 C99 1.279 . S
N100 C103 1.314 . S
C101 C98 1.348 . S
C101 C103 1.353 . S
C101 H157 0.929 . S
C102 C98 1.356 . S
C102 C99 1.358 . S
C102 H158 0.930 . S
C103 N100 1.314 . S
C103 C101 1.353 . S
C103 H159 0.930 . S
C104 N105 1.314 1_655 S
C104 C109 1.353 . S
C104 H110 0.930 . S
N105 Li88 1.990 1_565 S
N105 C104 1.314 1_455 S
N105 C107 1.279 . S
C106 C107 1.358 1_655 S
C106 C108 1.356 . S
C106 H160 0.930 . S
C107 N105 1.279 . S
C107 C106 1.358 1_455 S
C107 H111 0.930 . S
C108 C106 1.356 . S
C108 C109 1.348 . S
C109 C104 1.353 . S
C109 C108 1.348 . S
C109 H161 0.929 . S
H110 C104 0.930 . S
H111 C107 0.930 . S
C112 N113 1.314 . S
C112 C114 1.353 . S
C112 H118 0.930 . S
N113 Li89 1.990 . S
N113 C112 1.314 . S
N113 C116 1.279 . S
C114 C112 1.353 . S
C114 C117 1.348 . S
C114 H162 0.929 . S
C115 C116 1.358 . S
C115 C117 1.356 . S
C115 H163 0.930 . S
C116 N113 1.279 . S
C116 C115 1.358 . S
C116 H119 0.930 . S
C117 C114 1.348 . S
C117 C115 1.356 . S
H118 C112 0.930 . S
H119 C116 0.930 . S
C120 C122 1.348 . S
C120 C123 1.356 . S
C120 O150 1.325 . S
N121 C124 1.314 . S
N121 C125 1.279 1_545 S
C122 C120 1.348 . S
C122 C124 1.353 . S
C122 H164 0.929 . S
C123 C120 1.356 . S
C123 C125 1.358 1_545 S
C123 H165 0.930 1_545 S
C124 N121 1.314 . S
C124 C122 1.353 . S
C124 H166 0.930 . S
C125 N121 1.279 1_565 S
C125 C123 1.358 1_565 S
C125 H167 0.930 . S
C126 C127 1.348 . S
C126 C128 1.356 . S
C126 O151 1.325 . S
C127 C126 1.348 . S
C127 C129 1.353 . S
C127 H168 0.929 1_455 S
C128 C126 1.356 . S
C128 C130 1.358 . S
C128 H169 0.930 . S
C129 C127 1.353 . S
C129 N131 1.314 . S
C129 H170 0.930 . S
C130 C128 1.358 . S
C130 N131 1.279 . S
C130 H171 0.930 . S
N131 C129 1.314 . S
N131 C130 1.279 . S
C132 C134 1.353 . S
C132 N135 1.314 . S
C132 H138 0.930 . S
C133 N135 1.279 . S
C133 C136 1.358 . S
C133 H139 0.930 . S
C134 C132 1.353 . S
C134 C137 1.348 . S
C134 H172 0.929 . S
N135 Li90 1.990 . S
N135 C132 1.314 . S
N135 C133 1.279 . S
C136 C133 1.358 . S
C136 C137 1.356 . S
C136 H173 0.930 . S
C137 C134 1.348 . S
C137 C136 1.356 . S
H138 C132 0.930 . S
H139 C133 0.930 . S
C140 N141 1.314 . S
C140 C142 1.353 . S
C140 H146 0.930 . S
N141 Li91 1.990 . S
N141 C140 1.314 . S
N141 C144 1.279 . S
C142 C140 1.353 . S
C142 C145 1.348 . S
C142 H174 0.929 . S
C143 C144 1.358 . S
C143 C145 1.356 . S
C143 H175 0.930 . S
C144 N141 1.279 . S
C144 C143 1.358 . S
C144 H147 0.930 . S
C145 C142 1.348 . S
C145 C143 1.356 . S
H146 C140 0.930 . S
H147 C144 0.930 . S
O148 Li88 1.956 . S
O148 Li89 1.970 . S
O148 Li90 1.961 1_455 S
O148 C92 1.325 1_545 S
O149 Li88 1.970 . S
O149 Li89 1.956 . S
O149 Li91 1.961 . S
O149 C98 1.325 . S
O150 Li88 1.961 1_655 S
O150 Li90 1.956 . S
O150 Li91 1.970 1_655 S
O150 C120 1.325 . S
O151 Li89 1.961 . S
O151 Li90 1.970 1_455 S
O151 Li91 1.956 . S
O151 C126 1.325 . S
H152 C94 0.930 1_545 S
H153 C95 0.930 . S
H154 C96 0.930 . S
H155 C97 0.930 . S
H156 C99 0.930 . S
H157 C101 0.929 . S
H158 C102 0.930 . S
H159 C103 0.930 . S
H160 C106 0.930 . S
H161 C109 0.929 . S
H162 C114 0.929 . S
H163 C115 0.930 . S
H164 C122 0.929 . S
H165 C123 0.930 1_565 S
H166 C124 0.930 . S
H167 C125 0.930 . S
H168 C127 0.929 1_655 S
H169 C128 0.930 . S
H170 C129 0.930 . S
H171 C130 0.930 . S
H172 C134 0.929 . S
H173 C136 0.930 . S
H174 C142 0.929 . S
H175 C143 0.930 . S
Li176 N193 1.990 . S
Li176 O236 1.956 . S
Li176 O237 1.970 . S
Li176 O238 1.961 1_545 S
Li177 N201 1.990 . S
Li177 O236 1.970 . S
Li177 O237 1.956 . S
Li177 O239 1.961 . S
Li178 N223 1.990 1_455 S
Li178 O236 1.961 1_565 S
Li178 O238 1.956 . S
Li178 O239 1.970 1_565 S
Li179 N229 1.990 1_455 S
Li179 O237 1.961 . S
Li179 O238 1.970 1_545 S
Li179 O239 1.956 . S
C180 C182 1.348 . S
C180 C183 1.356 1_545 S
C180 O236 1.325 . S
N181 C184 1.314 1_565 S
N181 C185 1.279 . S
C182 C180 1.348 . S
C182 C184 1.353 . S
C182 H240 0.929 . S
C183 C180 1.356 1_565 S
C183 C185 1.358 . S
C183 H241 0.930 . S
C184 N181 1.314 1_545 S
C184 C182 1.353 . S
C184 H242 0.930 . S
C185 N181 1.279 . S
C185 C183 1.358 . S
C185 H243 0.930 . S
C186 C189 1.348 . S
C186 C190 1.356 . S
C186 O237 1.325 . S
C187 N188 1.279 . S
C187 C190 1.358 . S
C187 H244 0.930 . S
N188 C187 1.279 . S
N188 C191 1.314 . S
C189 C186 1.348 . S
C189 C191 1.353 . S
C189 H245 0.929 . S
C190 C186 1.356 . S
C190 C187 1.358 . S
C190 H246 0.930 . S
C191 N188 1.314 . S
C191 C189 1.353 . S
C191 H247 0.930 . S
C192 N193 1.314 . S
C192 C197 1.353 1_545 S
C192 H198 0.930 . S
N193 Li176 1.990 . S
N193 C192 1.314 . S
N193 C195 1.279 . S
C194 C195 1.358 . S
C194 C196 1.356 1_545 S
C194 H248 0.930 . S
C195 N193 1.279 . S
C195 C194 1.358 . S
C195 H199 0.930 . S
C196 C194 1.356 1_565 S
C196 C197 1.349 . S
C197 C192 1.353 1_565 S
C197 C196 1.349 . S
C197 H249 0.929 . S
H198 C192 0.930 . S
H199 C195 0.930 . S
C200 N201 1.314 . S
C200 C202 1.353 . S
C200 H206 0.930 . S
N201 Li177 1.990 . S
N201 C200 1.314 . S
N201 C204 1.279 . S
C202 C200 1.353 . S
C202 C205 1.348 . S
C202 H250 0.929 . S
C203 C204 1.358 . S
C203 C205 1.356 . S
C203 H251 0.930 . S
C204 N201 1.279 . S
C204 C203 1.358 . S
C204 H207 0.930 . S
C205 C202 1.348 . S
C205 C203 1.356 . S
H206 C200 0.930 . S
H207 C204 0.930 . S
C208 C210 1.348 . S
C208 C211 1.356 1_655 S
C208 O238 1.325 1_655 S
N209 C212 1.314 . S
N209 C213 1.279 . S
C210 C208 1.348 . S
C210 C212 1.353 . S
C210 H252 0.929 . S
C211 C208 1.356 1_455 S
C211 C213 1.358 1_455 S
C211 H253 0.930 . S
C212 N209 1.314 . S
C212 C210 1.353 . S
C212 H254 0.930 . S
C213 N209 1.279 . S
C213 C211 1.358 1_655 S
C213 H255 0.930 . S
C214 C215 1.348 . S
C214 C216 1.356 1_655 S
C214 O239 1.325 1_655 S
C215 C214 1.348 . S
C215 C217 1.353 . S
C215 H256 0.929 1_545 S
C216 C214 1.356 1_455 S
C216 C218 1.358 1_455 S
C216 H257 0.930 . S
C217 C215 1.353 . S
C217 N219 1.314 . S
C217 H258 0.930 . S
C218 C216 1.358 1_655 S
C218 N219 1.279 . S
C218 H259 0.930 . S
N219 C217 1.314 . S
N219 C218 1.279 . S
C220 C222 1.353 . S
C220 N223 1.314 . S
C220 H226 0.930 1_655 S
C221 N223 1.279 . S
C221 C224 1.358 . S
C221 H227 0.930 . S
C222 C220 1.353 . S
C222 C225 1.348 . S
C222 H260 0.929 . S
N223 Li178 1.990 1_655 S
N223 C220 1.314 . S
N223 C221 1.279 . S
C224 C221 1.358 . S
C224 C225 1.356 . S
C224 H261 0.930 . S
C225 C222 1.348 . S
C225 C224 1.356 . S
H226 C220 0.930 1_455 S
H227 C221 0.930 . S
C228 N229 1.314 . S
C228 C230 1.353 . S
C228 H234 0.930 1_655 S
N229 Li179 1.990 1_655 S
N229 C228 1.314 . S
N229 C232 1.279 . S
C230 C228 1.353 . S
C230 C233 1.348 . S
C230 H262 0.929 . S
C231 C232 1.358 . S
C231 C233 1.356 . S
C231 H263 0.930 . S
C232 N229 1.279 . S
C232 C231 1.358 . S
C232 H235 0.930 . S
C233 C230 1.348 . S
C233 C231 1.356 . S
H234 C228 0.930 1_455 S
H235 C232 0.930 . S
O236 Li176 1.956 . S
O236 Li177 1.970 . S
O236 Li178 1.961 1_545 S
O236 C180 1.325 . S
O237 Li176 1.970 . S
O237 Li177 1.956 . S
O237 Li179 1.961 . S
O237 C186 1.325 . S
O238 Li176 1.961 1_565 S
O238 Li178 1.956 . S
O238 Li179 1.970 1_565 S
O238 C208 1.325 1_455 S
O239 Li177 1.961 . S
O239 Li178 1.970 1_545 S
O239 Li179 1.956 . S
O239 C214 1.325 1_455 S
H240 C182 0.929 . S
H241 C183 0.930 . S
H242 C184 0.930 . S
H243 C185 0.930 . S
H244 C187 0.930 . S
H245 C189 0.929 . S
H246 C190 0.930 . S
H247 C191 0.930 . S
H248 C194 0.930 . S
H249 C197 0.929 . S
H250 C202 0.929 . S
H251 C203 0.930 . S
H252 C210 0.929 . S
H253 C211 0.930 . S
H254 C212 0.930 . S
H255 C213 0.930 . S
H256 C215 0.929 1_565 S
H257 C216 0.930 . S
H258 C217 0.930 . S
H259 C218 0.930 . S
H260 C222 0.929 . S
H261 C224 0.930 . S
H262 C230 0.929 . S
H263 C231 0.930 . S
C264 C265 1.443 . S
C264 N268 1.376 . S
C264 C302 1.389 . S
C265 C264 1.443 . S
C265 C266 1.340 . S
C265 H305 0.951 . S
C266 C265 1.340 . S
C266 C267 1.439 . S
C266 H306 0.950 . S
C267 C266 1.439 . S
C267 N268 1.374 . S
C267 C301 1.395 . S
N268 C264 1.376 . S
N268 C267 1.374 . S
N268 Co269 2.008 . S
Co269 N268 2.008 . S
Co269 N270 1.995 . S
Co269 N275 2.008 1_455 S
Co269 N280 1.995 1_455 S
Co269 N285 2.282 . S
Co269 N291 2.282 . S
N270 Co269 1.995 . S
N270 C271 1.376 . S
N270 C274 1.383 . S
C271 N270 1.376 . S
C271 C272 1.446 . S
C271 C301 1.391 . S
C272 C271 1.446 . S
C272 C273 1.339 . S
C272 H307 0.949 . S
C273 C272 1.339 . S
C273 C274 1.439 . S
C273 H308 0.950 . S
C274 N270 1.383 . S
C274 C273 1.439 . S
C274 C303 1.392 . S
N275 Co269 2.008 1_655 S
N275 C276 1.376 . S
N275 C279 1.374 . S
C276 N275 1.376 . S
C276 C277 1.443 . S
C276 C303 1.389 1_655 S
C277 C276 1.443 . S
C277 C278 1.340 . S
C277 H309 0.951 . S
C278 C277 1.340 . S
C278 C279 1.439 . S
C278 H310 0.950 . S
C279 N275 1.374 . S
C279 C278 1.439 . S
C279 C304 1.395 . S
N280 Co269 1.995 1_655 S
N280 C281 1.376 . S
N280 C284 1.383 . S
C281 N280 1.376 . S
C281 C282 1.446 . S
C281 C304 1.391 . S
C282 C281 1.446 . S
C282 C283 1.339 . S
C282 H311 0.949 . S
C283 C282 1.339 . S
C283 C284 1.439 . S
C283 H312 0.950 . S
C284 N280 1.383 . S
C284 C283 1.439 . S
C284 C302 1.392 1_655 S
N285 Co269 2.282 . S
N285 C288 1.332 1_455 S
N285 C290 1.332 . S
C286 C287 1.386 1_455 S
C286 C289 1.388 . S
C287 C286 1.386 1_655 S
C287 C288 1.382 . S
C287 H313 0.950 . S
C288 N285 1.332 1_655 S
C288 C287 1.382 . S
C288 H299 0.952 . S
C289 C286 1.388 . S
C289 C290 1.382 . S
C289 H314 0.950 . S
C290 N285 1.332 . S
C290 C289 1.382 . S
C290 H300 0.948 . S
N291 Co269 2.282 . S
N291 C295 1.332 . S
N291 C296 1.332 1_455 S
C292 C293 1.388 1_655 S
C292 C296 1.382 . S
C292 H315 0.950 . S
C293 C292 1.388 1_455 S
C293 C294 1.386 . S
C294 C293 1.386 . S
C294 C295 1.382 . S
C294 H316 0.950 . S
C295 N291 1.332 . S
C295 C294 1.382 . S
C295 H297 0.952 . S
C296 N291 1.332 1_655 S
C296 C292 1.382 . S
C296 H298 0.948 . S
H297 C295 0.952 . S
H298 C296 0.948 . S
H299 C288 0.952 . S
H300 C290 0.948 . S
C301 C267 1.395 . S
C301 C271 1.391 . S
C302 C264 1.389 . S
C302 C284 1.392 1_455 S
C303 C274 1.392 . S
C303 C276 1.389 1_455 S
C304 C279 1.395 . S
C304 C281 1.391 . S
H305 C265 0.951 . S
H306 C266 0.950 . S
H307 C272 0.949 . S
H308 C273 0.950 . S
H309 C277 0.951 . S
H310 C278 0.950 . S
H311 C282 0.949 . S
H312 C283 0.950 . S
H313 C287 0.950 . S
H314 C289 0.950 . S
H315 C292 0.950 . S
H316 C294 0.950 . S
C317 C318 1.443 1_545 S
C317 N321 1.376 . S
C317 C355 1.389 . S
C318 C317 1.443 1_565 S
C318 C319 1.340 . S
C318 H358 0.951 . S
C319 C318 1.340 . S
C319 C320 1.439 . S
C319 H359 0.950 . S
C320 C319 1.439 . S
C320 N321 1.374 1_565 S
C320 C354 1.395 . S
N321 C317 1.376 . S
N321 C320 1.374 1_545 S
N321 Co322 2.008 . S
Co322 N321 2.008 . S
Co322 N323 1.995 . S
Co322 N328 2.008 . S
Co322 N333 1.995 . S
Co322 N338 2.282 . S
Co322 N344 2.282 . S
N323 Co322 1.995 . S
N323 C324 1.376 1_545 S
N323 C327 1.383 . S
C324 N323 1.376 1_565 S
C324 C325 1.446 . S
C324 C354 1.391 . S
C325 C324 1.446 . S
C325 C326 1.339 . S
C325 H360 0.949 . S
C326 C325 1.339 . S
C326 C327 1.439 1_565 S
C326 H361 0.950 . S
C327 N323 1.383 . S
C327 C326 1.439 1_545 S
C327 C356 1.392 . S
N328 Co322 2.008 . S
N328 C329 1.376 . S
N328 C332 1.374 . S
C329 N328 1.376 . S
C329 C330 1.443 . S
C329 C356 1.389 . S
C330 C329 1.443 . S
C330 C331 1.340 . S
C330 H362 0.951 . S
C331 C330 1.340 . S
C331 C332 1.439 . S
C331 H363 0.950 . S
C332 N328 1.374 . S
C332 C331 1.439 . S
C332 C357 1.395 . S
N333 Co322 1.995 . S
N333 C334 1.376 . S
N333 C337 1.383 . S
C334 N333 1.376 . S
C334 C335 1.446 . S
C334 C357 1.391 . S
C335 C334 1.446 . S
C335 C336 1.339 . S
C335 H364 0.949 . S
C336 C335 1.339 . S
C336 C337 1.439 . S
C336 H365 0.950 . S
C337 N333 1.383 . S
C337 C336 1.439 . S
C337 C355 1.392 . S
N338 Co322 2.282 . S
N338 C341 1.332 . S
N338 C343 1.332 . S
C339 C340 1.386 . S
C339 C342 1.388 . S
C340 C339 1.386 . S
C340 C341 1.382 . S
C340 H366 0.950 . S
C341 N338 1.332 . S
C341 C340 1.382 . S
C341 H352 0.952 . S
C342 C339 1.388 . S
C342 C343 1.382 . S
C342 H367 0.950 . S
C343 N338 1.332 . S
C343 C342 1.382 . S
C343 H353 0.948 . S
N344 Co322 2.282 . S
N344 C348 1.332 . S
N344 C349 1.332 . S
C345 C346 1.388 . S
C345 C349 1.382 . S
C345 H368 0.950 . S
C346 C345 1.388 . S
C346 C347 1.386 . S
C347 C346 1.386 . S
C347 C348 1.382 . S
C347 H369 0.950 . S
C348 N344 1.332 . S
C348 C347 1.382 . S
C348 H350 0.952 . S
C349 N344 1.332 . S
C349 C345 1.382 . S
C349 H351 0.948 . S
H350 C348 0.952 . S
H351 C349 0.948 . S
H352 C341 0.952 . S
H353 C343 0.948 . S
C354 C320 1.395 . S
C354 C324 1.391 . S
C355 C317 1.389 . S
C355 C337 1.392 . S
C356 C327 1.392 . S
C356 C329 1.389 . S
C357 C332 1.395 . S
C357 C334 1.391 . S
H358 C318 0.951 . S
H359 C319 0.950 . S
H360 C325 0.949 . S
H361 C326 0.950 . S
H362 C330 0.951 . S
H363 C331 0.950 . S
H364 C335 0.949 . S
H365 C336 0.950 . S
H366 C340 0.950 . S
H367 C342 0.950 . S
H368 C345 0.950 . S
H369 C347 0.950 . S
C370 C371 1.443 . S
C370 N374 1.376 . S
C370 C408 1.389 . S
C371 C370 1.443 . S
C371 C372 1.340 . S
C371 H411 0.951 . S
C372 C371 1.340 . S
C372 C373 1.439 . S
C372 H412 0.950 . S
C373 C372 1.439 . S
C373 N374 1.374 . S
C373 C407 1.395 . S
N374 C370 1.376 . S
N374 C373 1.374 . S
N374 Co375 2.008 . S
Co375 N374 2.008 . S
Co375 N376 1.995 . S
Co375 N381 2.008 . S
Co375 N386 1.995 . S
Co375 N391 2.282 . S
Co375 N397 2.282 . S
N376 Co375 1.995 . S
N376 C377 1.376 . S
N376 C380 1.383 . S
C377 N376 1.376 . S
C377 C378 1.446 . S
C377 C407 1.391 . S
C378 C377 1.446 . S
C378 C379 1.339 . S
C378 H413 0.949 . S
C379 C378 1.339 . S
C379 C380 1.439 . S
C379 H414 0.950 . S
C380 N376 1.383 . S
C380 C379 1.439 . S
C380 C409 1.392 . S
N381 Co375 2.008 . S
N381 C382 1.376 . S
N381 C385 1.374 . S
C382 N381 1.376 . S
C382 C383 1.443 . S
C382 C409 1.389 . S
C383 C382 1.443 . S
C383 C384 1.340 . S
C383 H415 0.951 . S
C384 C383 1.340 . S
C384 C385 1.439 . S
C384 H416 0.950 . S
C385 N381 1.374 . S
C385 C384 1.439 . S
C385 C410 1.395 . S
N386 Co375 1.995 . S
N386 C387 1.376 . S
N386 C390 1.383 . S
C387 N386 1.376 . S
C387 C388 1.446 . S
C387 C410 1.391 . S
C388 C387 1.446 . S
C388 C389 1.339 . S
C388 H417 0.949 . S
C389 C388 1.339 . S
C389 C390 1.439 . S
C389 H418 0.950 . S
C390 N386 1.383 . S
C390 C389 1.439 . S
C390 C408 1.392 . S
N391 Co375 2.282 . S
N391 C394 1.332 . S
N391 C396 1.332 . S
C392 C393 1.386 . S
C392 C395 1.388 . S
C393 C392 1.386 . S
C393 C394 1.382 . S
C393 H419 0.950 . S
C394 N391 1.332 . S
C394 C393 1.382 . S
C394 H405 0.952 . S
C395 C392 1.388 . S
C395 C396 1.382 . S
C395 H420 0.950 . S
C396 N391 1.332 . S
C396 C395 1.382 . S
C396 H406 0.948 . S
N397 Co375 2.282 . S
N397 C401 1.332 . S
N397 C402 1.332 . S
C398 C399 1.388 . S
C398 C402 1.382 . S
C398 H421 0.950 . S
C399 C398 1.388 . S
C399 C400 1.386 . S
C400 C399 1.386 . S
C400 C401 1.382 . S
C400 H422 0.950 . S
C401 N397 1.332 . S
C401 C400 1.382 . S
C401 H403 0.952 . S
C402 N397 1.332 . S
C402 C398 1.382 . S
C402 H404 0.948 . S
H403 C401 0.952 . S
H404 C402 0.948 . S
H405 C394 0.952 . S
H406 C396 0.948 . S
C407 C373 1.395 . S
C407 C377 1.391 . S
C408 C370 1.389 . S
C408 C390 1.392 . S
C409 C380 1.392 . S
C409 C382 1.389 . S
C410 C385 1.395 . S
C410 C387 1.391 . S
H411 C371 0.951 . S
H412 C372 0.950 . S
H413 C378 0.949 . S
H414 C379 0.950 . S
H415 C383 0.951 . S
H416 C384 0.950 . S
H417 C388 0.949 . S
H418 C389 0.950 . S
H419 C393 0.950 . S
H420 C395 0.950 . S
H421 C398 0.950 . S
H422 C400 0.950 . S
H423 C431 0.950 . S
H424 C436 0.950 . S
H425 C433 0.950 . S
H426 C435 0.950 . S
H427 C437 0.950 . S
H428 C439 0.950 . S
H429 C441 0.950 . S
H430 C442 0.950 . S
C431 H423 0.950 . S
C431 C432 1.386 . S
C431 C433 1.391 . S
C432 C431 1.386 . S
C432 C436 1.393 1_455 S
C433 H425 0.950 . S
C433 C431 1.391 . S
C433 C434 1.400 . S
C434 C433 1.400 . S
C434 C435 1.398 1_455 S
C434 C440 1.491 . S
C435 H426 0.950 . S
C435 C434 1.398 1_655 S
C435 C436 1.391 . S
C436 H424 0.950 . S
C436 C432 1.393 1_655 S
C436 C435 1.391 . S
C437 H427 0.950 . S
C437 C438 1.386 1_655 S
C437 C439 1.391 . S
C438 C437 1.386 1_455 S
C438 C442 1.393 . S
C439 H428 0.950 . S
C439 C437 1.391 . S
C439 C440 1.400 1_655 S
C440 C434 1.491 . S
C440 C439 1.400 1_455 S
C440 C441 1.398 . S
C441 H429 0.950 . S
C441 C440 1.398 . S
C441 C442 1.391 . S
C442 H430 0.950 . S
C442 C438 1.393 . S
C442 C441 1.391 . S
H443 C451 0.950 . S
H444 C456 0.950 . S
H445 C453 0.950 . S
H446 C455 0.950 1_565 S
H447 C457 0.950 . S
H448 C459 0.950 1_565 S
H449 C461 0.950 . S
H450 C462 0.950 . S
C451 H443 0.950 . S
C451 C452 1.386 . S
C451 C453 1.391 . S
C452 C451 1.386 . S
C452 C456 1.393 1_545 S
C453 H445 0.950 . S
C453 C451 1.391 . S
C453 C454 1.400 . S
C454 C453 1.400 . S
C454 C455 1.398 . S
C454 C460 1.491 . S
C455 H446 0.950 1_545 S
C455 C454 1.398 . S
C455 C456 1.391 1_545 S
C456 H444 0.950 . S
C456 C452 1.393 1_565 S
C456 C455 1.391 1_565 S
C457 H447 0.950 . S
C457 C458 1.386 . S
C457 C459 1.391 . S
C458 C457 1.386 . S
C458 C462 1.393 . S
C459 H448 0.950 1_545 S
C459 C457 1.391 . S
C459 C460 1.400 . S
C460 C454 1.491 . S
C460 C459 1.400 . S
C460 C461 1.398 . S
C461 H449 0.950 . S
C461 C460 1.398 . S
C461 C462 1.391 . S
C462 H450 0.950 . S
C462 C458 1.393 . S
C462 C461 1.391 . S
H463 C471 0.950 . S
H464 C476 0.950 . S
H465 C473 0.950 . S
H466 C475 0.950 . S
H467 C477 0.950 . S
H468 C479 0.950 . S
H469 C481 0.950 . S
H470 C482 0.950 . S
C471 H463 0.950 . S
C471 C472 1.386 . S
C471 C473 1.391 . S
C472 C471 1.386 . S
C472 C476 1.393 . S
C473 H465 0.950 . S
C473 C471 1.391 . S
C473 C474 1.400 . S
C474 C473 1.400 . S
C474 C475 1.398 . S
C474 C480 1.491 . S
C475 H466 0.950 . S
C475 C474 1.398 . S
C475 C476 1.391 . S
C476 H464 0.950 . S
C476 C472 1.393 . S
C476 C475 1.391 . S
C477 H467 0.950 . S
C477 C478 1.386 . S
C477 C479 1.391 . S
C478 C477 1.386 . S
C478 C482 1.393 . S
C479 H468 0.950 . S
C479 C477 1.391 . S
C479 C480 1.400 . S
C480 C474 1.491 . S
C480 C479 1.400 . S
C480 C481 1.398 . S
C481 H469 0.950 . S
C481 C480 1.398 . S
C481 C482 1.391 . S
C482 H470 0.950 . S
C482 C478 1.393 . S
C482 C481 1.391 . S
H483 C491 0.950 . S
H484 C496 0.950 . S
H485 C493 0.950 . S
H486 C495 0.950 . S
H487 C497 0.950 . S
H488 C499 0.950 . S
H489 C501 0.950 . S
H490 C502 0.950 . S
C491 H483 0.950 . S
C491 C492 1.386 . S
C491 C493 1.391 . S
C492 C491 1.386 . S
C492 C496 1.393 . S
C493 H485 0.950 . S
C493 C491 1.391 . S
C493 C494 1.400 . S
C494 C493 1.400 . S
C494 C495 1.398 . S
C494 C500 1.491 . S
C495 H486 0.950 . S
C495 C494 1.398 . S
C495 C496 1.391 . S
C496 H484 0.950 . S
C496 C492 1.393 . S
C496 C495 1.391 . S
C497 H487 0.950 . S
C497 C498 1.386 . S
C497 C499 1.391 . S
C498 C497 1.386 . S
C498 C502 1.393 . S
C499 H488 0.950 . S
C499 C497 1.391 . S
C499 C500 1.400 . S
C500 C494 1.491 . S
C500 C499 1.400 . S
C500 C501 1.398 . S
C501 H489 0.950 . S
C501 C500 1.398 . S
C501 C502 1.391 . S
C502 H490 0.950 . S
C502 C498 1.393 . S
C502 C501 1.391 . S
H503 C511 0.950 . S
H504 C516 0.950 . S
H505 C513 0.950 . S
H506 C515 0.950 . S
H507 C517 0.950 . S
H508 C519 0.950 . S
H509 C521 0.950 . S
H510 C522 0.950 . S
C511 H503 0.950 . S
C511 C512 1.386 . S
C511 C513 1.391 . S
C512 C511 1.386 . S
C512 C516 1.393 . S
C513 H505 0.950 . S
C513 C511 1.391 . S
C513 C514 1.400 . S
C514 C513 1.400 . S
C514 C515 1.398 . S
C514 C520 1.491 . S
C515 H506 0.950 . S
C515 C514 1.398 . S
C515 C516 1.391 . S
C516 H504 0.950 . S
C516 C512 1.393 . S
C516 C515 1.391 . S
C517 H507 0.950 . S
C517 C518 1.386 . S
C517 C519 1.391 . S
C518 C517 1.386 . S
C518 C522 1.393 . S
C519 H508 0.950 . S
C519 C517 1.391 . S
C519 C520 1.400 . S
C520 C514 1.491 . S
C520 C519 1.400 . S
C520 C521 1.398 . S
C521 H509 0.950 . S
C521 C520 1.398 . S
C521 C522 1.391 . S
C522 H510 0.950 . S
C522 C518 1.393 . S
C522 C521 1.391 . S
H523 C531 0.950 . S
H524 C536 0.950 . S
H525 C533 0.950 . S
H526 C535 0.950 . S
H527 C537 0.950 . S
H528 C539 0.950 . S
H529 C541 0.950 . S
H530 C542 0.950 . S
C531 H523 0.950 . S
C531 C532 1.386 . S
C531 C533 1.391 . S
C532 C531 1.386 . S
C532 C536 1.393 . S
C533 H525 0.950 . S
C533 C531 1.391 . S
C533 C534 1.400 . S
C534 C533 1.400 . S
C534 C535 1.398 . S
C534 C540 1.491 . S
C535 H526 0.950 . S
C535 C534 1.398 . S
C535 C536 1.391 . S
C536 H524 0.950 . S
C536 C532 1.393 . S
C536 C535 1.391 . S
C537 H527 0.950 . S
C537 C538 1.386 . S
C537 C539 1.391 . S
C538 C537 1.386 . S
C538 C542 1.393 . S
C539 H528 0.950 . S
C539 C537 1.391 . S
C539 C540 1.400 . S
C540 C534 1.491 . S
C540 C539 1.400 . S
C540 C541 1.398 . S
C541 H529 0.950 . S
C541 C540 1.398 . S
C541 C542 1.391 . S
C542 H530 0.950 . S
C542 C538 1.393 . S
C542 C541 1.391 . S
H543 C551 0.950 . S
H544 C556 0.950 . S
H545 C553 0.950 . S
H546 C555 0.950 . S
H547 C557 0.950 . S
H548 C559 0.950 . S
H549 C561 0.950 . S
H550 C562 0.950 . S
C551 H543 0.950 . S
C551 C552 1.386 . S
C551 C553 1.391 . S
C552 C551 1.386 . S
C552 C556 1.393 . S
C553 H545 0.950 . S
C553 C551 1.391 . S
C553 C554 1.400 . S
C554 C553 1.400 . S
C554 C555 1.398 . S
C554 C560 1.491 . S
C555 H546 0.950 . S
C555 C554 1.398 . S
C555 C556 1.391 . S
C556 H544 0.950 . S
C556 C552 1.393 . S
C556 C555 1.391 . S
C557 H547 0.950 . S
C557 C558 1.386 . S
C557 C559 1.391 . S
C558 C557 1.386 . S
C558 C562 1.393 . S
C559 H548 0.950 . S
C559 C557 1.391 . S
C559 C560 1.400 . S
C560 C554 1.491 . S
C560 C559 1.400 . S
C560 C561 1.398 . S
C561 H549 0.950 . S
C561 C560 1.398 . S
C561 C562 1.391 . S
C562 H550 0.950 . S
C562 C558 1.393 . S
C562 C561 1.391 . S
H563 C571 0.950 . S
H564 C576 0.950 . S
H565 C573 0.950 . S
H566 C575 0.950 . S
H567 C577 0.950 . S
H568 C579 0.950 . S
H569 C581 0.950 . S
H570 C582 0.950 . S
C571 H563 0.950 . S
C571 C572 1.386 . S
C571 C573 1.391 . S
C572 C571 1.386 . S
C572 C576 1.393 . S
C573 H565 0.950 . S
C573 C571 1.391 . S
C573 C574 1.400 . S
C574 C573 1.400 . S
C574 C575 1.398 . S
C574 C580 1.491 . S
C575 H566 0.950 . S
C575 C574 1.398 . S
C575 C576 1.391 . S
C576 H564 0.950 . S
C576 C572 1.393 . S
C576 C575 1.391 . S
C577 H567 0.950 . S
C577 C578 1.386 . S
C577 C579 1.391 . S
C578 C577 1.386 . S
C578 C582 1.393 . S
C579 H568 0.950 . S
C579 C577 1.391 . S
C579 C580 1.400 . S
C580 C574 1.491 . S
C580 C579 1.400 . S
C580 C581 1.398 . S
C581 H569 0.950 . S
C581 C580 1.398 . S
C581 C582 1.391 . S
C582 H570 0.950 . S
C582 C578 1.393 . S
C582 C581 1.391 . S
H583 C591 0.950 . S
H584 C596 0.950 . S
H585 C593 0.950 . S
H586 C595 0.950 . S
H587 C597 0.950 1_655 S
H588 C599 0.950 . S
H589 C601 0.950 . S
H590 C602 0.950 . S
C591 H583 0.950 . S
C591 C592 1.386 1_455 S
C591 C593 1.391 . S
C592 C591 1.386 1_655 S
C592 C596 1.393 . S
C593 H585 0.950 . S
C593 C591 1.391 . S
C593 C594 1.400 . S
C594 C593 1.400 . S
C594 C595 1.398 1_455 S
C594 C600 1.491 . S
C595 H586 0.950 . S
C595 C594 1.398 1_655 S
C595 C596 1.391 . S
C596 H584 0.950 . S
C596 C592 1.393 . S
C596 C595 1.391 . S
C597 H587 0.950 1_455 S
C597 C598 1.386 . S
C597 C599 1.391 1_455 S
C598 C597 1.386 . S
C598 C602 1.393 . S
C599 H588 0.950 . S
C599 C597 1.391 1_655 S
C599 C600 1.400 1_655 S
C600 C594 1.491 . S
C600 C599 1.400 1_455 S
C600 C601 1.398 . S
C601 H589 0.950 . S
C601 C600 1.398 . S
C601 C602 1.391 . S
C602 H590 0.950 . S
C602 C598 1.393 . S
C602 C601 1.391 . S
H603 C611 0.950 . S
H604 C616 0.950 . S
H605 C613 0.950 . S
H606 C615 0.950 1_565 S
H607 C617 0.950 . S
H608 C619 0.950 . S
H609 C621 0.950 . S
H610 C622 0.950 . S
C611 H603 0.950 . S
C611 C612 1.386 . S
C611 C613 1.391 . S
C612 C611 1.386 . S
C612 C616 1.393 1_545 S
C613 H605 0.950 . S
C613 C611 1.391 . S
C613 C614 1.400 . S
C614 C613 1.400 . S
C614 C615 1.398 . S
C614 C620 1.491 . S
C615 H606 0.950 1_545 S
C615 C614 1.398 . S
C615 C616 1.391 1_545 S
C616 H604 0.950 . S
C616 C612 1.393 1_565 S
C616 C615 1.391 1_565 S
C617 H607 0.950 . S
C617 C618 1.386 . S
C617 C619 1.391 . S
C618 C617 1.386 . S
C618 C622 1.393 . S
C619 H608 0.950 . S
C619 C617 1.391 . S
C619 C620 1.400 . S
C620 C614 1.491 . S
C620 C619 1.400 . S
C620 C621 1.398 . S
C621 H609 0.950 . S
C621 C620 1.398 . S
C621 C622 1.391 . S
C622 H610 0.950 . S
C622 C618 1.393 . S
C622 C621 1.391 . S
H623 C631 0.950 . S
H624 C636 0.950 . S
H625 C633 0.950 . S
H626 C635 0.950 . S
H627 C637 0.950 . S
H628 C639 0.950 . S
H629 C641 0.950 . S
H630 C642 0.950 . S
C631 H623 0.950 . S
C631 C632 1.386 . S
C631 C633 1.391 . S
C632 C631 1.386 . S
C632 C636 1.393 . S
C633 H625 0.950 . S
C633 C631 1.391 . S
C633 C634 1.400 . S
C634 C633 1.400 . S
C634 C635 1.398 . S
C634 C640 1.491 . S
C635 H626 0.950 . S
C635 C634 1.398 . S
C635 C636 1.391 . S
C636 H624 0.950 . S
C636 C632 1.393 . S
C636 C635 1.391 . S
C637 H627 0.950 . S
C637 C638 1.386 . S
C637 C639 1.391 . S
C638 C637 1.386 . S
C638 C642 1.393 . S
C639 H628 0.950 . S
C639 C637 1.391 . S
C639 C640 1.400 . S
C640 C634 1.491 . S
C640 C639 1.400 . S
C640 C641 1.398 . S
C641 H629 0.950 . S
C641 C640 1.398 . S
C641 C642 1.391 . S
C642 H630 0.950 . S
C642 C638 1.393 . S
C642 C641 1.391 . S
H643 C651 0.950 . S
H644 C656 0.950 . S
H645 C653 0.950 . S
H646 C655 0.950 . S
H647 C657 0.950 . S
H648 C659 0.950 . S
H649 C661 0.950 . S
H650 C662 0.950 . S
C651 H643 0.950 . S
C651 C652 1.386 . S
C651 C653 1.391 . S
C652 C651 1.386 . S
C652 C656 1.393 . S
C653 H645 0.950 . S
C653 C651 1.391 . S
C653 C654 1.400 . S
C654 C653 1.400 . S
C654 C655 1.398 . S
C654 C660 1.491 . S
C655 H646 0.950 . S
C655 C654 1.398 . S
C655 C656 1.391 . S
C656 H644 0.950 . S
C656 C652 1.393 . S
C656 C655 1.391 . S
C657 H647 0.950 . S
C657 C658 1.386 . S
C657 C659 1.391 . S
C658 C657 1.386 . S
C658 C662 1.393 . S
C659 H648 0.950 . S
C659 C657 1.391 . S
C659 C660 1.400 . S
C660 C654 1.491 . S
C660 C659 1.400 . S
C660 C661 1.398 . S
C661 H649 0.950 . S
C661 C660 1.398 . S
C661 C662 1.391 . S
C662 H650 0.950 . S
C662 C658 1.393 . S
C662 C661 1.391 . S
C438 C286 1.443 . S
C432 C29 1.426 . S
C452 C137 1.457 . S
C458 C356 1.480 . S
C472 C225 1.473 . S
C478 C408 1.490 . S
C492 C49 1.483 . S
C498 C302 1.496 . S
C518 C346 1.447 . S
C512 C117 1.428 . S
C532 C205 1.432 . S
C538 C392 1.448 . S
C558 C339 1.442 . S
C552 C233 1.424 . S
C572 C57 1.440 . S
C578 C399 1.448 . S
C598 C293 1.447 . S
C592 C108 1.428 . S
C618 C355 1.499 . S
C612 C196 1.483 1_545 S
C638 C409 1.490 . S
C632 C20 1.466 . S
C652 C145 1.453 . S
C658 C303 1.477 . S
