# Generated by pormake.
# Topology alb, (6,12)-cn, num edge types: 1
# Building blocks:
#     Node 0, Type 0, BuildingBlock: IZENUY_clean_sbu_0, # of connection points: 6
#     Node 1, Type 0, BuildingBlock: IZENUY_clean_sbu_0, # of connection points: 6
#     Node 2, Type 1, BuildingBlock: QEWDON_clean_sbu_0, # of connection points: 12
#     Edge 3, Type (0, 1), BuildingBlock: TEMPAE_clean_linker_10, # of connection points: 2
#     Edge 4, Type (0, 1), BuildingBlock: TEMPAE_clean_linker_10, # of connection points: 2
#     Edge 5, Type (0, 1), BuildingBlock: TEMPAE_clean_linker_10, # of connection points: 2
#     Edge 6, Type (0, 1), BuildingBlock: TEMPAE_clean_linker_10, # of connection points: 2
#     Edge 7, Type (0, 1), BuildingBlock: TEMPAE_clean_linker_10, # of connection points: 2
#     Edge 8, Type (0, 1), BuildingBlock: TEMPAE_clean_linker_10, # of connection points: 2
#     Edge 9, Type (0, 1), BuildingBlock: TEMPAE_clean_linker_10, # of connection points: 2
#     Edge 10, Type (0, 1), BuildingBlock: TEMPAE_clean_linker_10, # of connection points: 2
#     Edge 11, Type (0, 1), BuildingBlock: TEMPAE_clean_linker_10, # of connection points: 2
#     Edge 12, Type (0, 1), BuildingBlock: TEMPAE_clean_linker_10, # of connection points: 2
#     Edge 13, Type (0, 1), BuildingBlock: TEMPAE_clean_linker_10, # of connection points: 2
#     Edge 14, Type (0, 1), BuildingBlock: TEMPAE_clean_linker_10, # of connection points: 2
# Relax obj value: 0.107
# Max RMSD: 0.215
# Mean RMSD: 0.115
data_MOF--net-alb--node1-IZENUY_clean_sbu_0--node2-QEWDON_clean_sbu_0--edge1-TEMPAE_clean_linker_10
_symmetry_space_group_name_H-M    P1
_symmetry_Int_Tables_number       1
_symmetry_cell_setting            triclinic
loop_
_symmetry_equiv_pos_as_xyz
'x, y, z'
_cell_length_a     25.070836
_cell_length_b     25.601452
_cell_length_c     19.955523
_cell_angle_alpha  89.987103
_cell_angle_beta   90.479331
_cell_angle_gamma 120.58453
loop_
_atom_site_label
_atom_site_type_symbol
_atom_site_fract_x
_atom_site_fract_y
_atom_site_fract_z
_atom_type_partial_charge
Fe0 Fe 0.32293 0.72567 0.13636 0.0
Fe1 Fe 0.3176 0.60385 0.12718 0.0
O2 O 0.27901 0.64553 0.13201 0.0
Fe3 Fe 0.19684 0.60657 0.13337 0.0
O4 O 0.19343 0.64571 0.05809 0.0
O5 O 0.26648 0.73716 0.08945 0.0
O6 O 0.36085 0.73115 0.05685 0.0
C7 C 0.3933 0.70702 0.04758 0.0
C8 C 0.23183 0.70248 0.2266 0.0
O9 O 0.3849 0.6623 0.08238 0.0
C10 C 0.22138 0.53464 0.21607 0.0
O11 O 0.38701 0.72831 0.18429 0.0
O12 O 0.35534 0.63298 0.20726 0.0
O13 O 0.19223 0.66187 0.18784 0.0
O14 O 0.28905 0.72629 0.21608 0.0
C15 C 0.22426 0.54229 0.03704 0.0
O16 O 0.25843 0.53754 0.17181 0.0
O17 O 0.19468 0.56512 0.20971 0.0
C18 C 0.3904 0.68872 0.2192 0.0
O19 O 0.28203 0.57245 0.04687 0.0
O20 O 0.1873 0.54483 0.07821 0.0
C21 C 0.22154 0.70282 0.05111 0.0
Fe22 Fe 0.68547 0.39784 0.05192 0.0
Fe23 Fe 0.69731 0.28462 0.062 0.0
O24 O 0.73227 0.3648 0.05986 0.0
Fe25 Fe 0.81389 0.41109 0.06533 0.0
O26 O 0.80966 0.44919 0.14012 0.0
O27 O 0.73593 0.46494 0.10386 0.0
O28 O 0.64304 0.36112 0.12788 0.0
C29 C 0.61244 0.30425 0.13457 0.0
C30 C 0.781 0.47239 0.96985 0.0
O31 O 0.62524 0.2707 0.10026 0.0
C32 C 0.80276 0.31984 0.98389 0.0
O33 O 0.62739 0.33671 -0.00167 0.0
O34 O 0.66494 0.27686 0.97892 0.0
O35 O 0.81912 0.47162 0.01124 0.0
O36 O 0.72363 0.43638 0.97554 0.0
C37 C 0.78382 0.31856 0.1606 0.0
O38 O 0.76245 0.28258 0.02362 0.0
O39 O 0.82359 0.37607 0.99002 0.0
C40 C 0.62953 0.29652 0.96329 0.0
O41 O 0.72718 0.28782 0.14527 0.0
O42 O 0.82264 0.35917 0.12176 0.0
C43 C 0.77924 0.47598 0.14511 0.0
Zn44 Zn 0.08231 0.10282 0.39971 0.0
Zn45 Zn 0.09095 0.98497 0.42766 0.0
O46 O 0.03313 0.0169 0.43164 0.0
H47 H 0.99344 0.99884 0.45347 0.0
C48 C 0.15554 0.20318 0.53873 0.0
O49 O 0.16043 0.15968 0.50993 0.0
Zn50 Zn 0.9123 0.90041 0.75517 0.0
Zn51 Zn 0.92035 0.02886 0.77018 0.0
O52 O 0.96703 0.98914 0.74059 0.0
H53 H 0.00961 0.0109 0.72626 0.0
Zn54 Zn 0.13266 0.12277 0.6568 0.0
O55 O 0.08364 0.03618 0.61984 0.0
Zn56 Zn 0.10609 0.98136 0.67249 0.0
H57 H 0.06471 0.02904 0.57593 0.0
Zn58 Zn 0.86592 0.96492 0.57771 0.0
O59 O 0.93675 0.94827 0.57297 0.0
H60 H 0.96808 0.96232 0.60759 0.0
Zn61 Zn 0.90655 0.87001 0.52085 0.0
C62 C 0.88629 0.07857 0.64399 0.0
O63 O 0.92476 0.10397 0.59403 0.0
O64 O 0.16559 0.12619 0.35747 0.0
O65 O 0.17205 0.04462 0.38035 0.0
O66 O 0.83471 0.97031 0.80837 0.0
O67 O 0.83034 0.88144 0.79942 0.0
O68 O 0.20446 0.13138 0.71613 0.0
O69 O 0.18646 0.03623 0.72183 0.0
C70 C 0.99079 0.86826 0.40338 0.0
O71 O 0.78979 0.90055 0.52665 0.0
O72 O 0.82265 0.84338 0.47812 0.0
O73 O 0.97269 0.11342 0.81169 0.0
C74 C 0.19486 0.09773 0.35561 0.0
O75 O 0.03718 0.14757 0.37162 0.0
C76 C 0.01699 0.8911 0.78656 0.0
O77 O 0.14366 0.19888 0.60113 0.0
C78 C 0.80612 0.91302 0.81638 0.0
O79 O 0.85721 0.02099 0.64915 0.0
C80 C 0.11932 0.93283 0.54704 0.0
O81 O 0.04435 0.9042 0.38009 0.0
O82 O 0.97361 0.88664 0.45358 0.0
C83 C 0.21923 0.09282 0.73551 0.0
O84 O 0.96233 0.8724 0.80756 0.0
O85 O 0.03584 0.92777 0.73705 0.0
C86 C 0.89159 0.81265 0.64616 0.0
O87 O 0.12091 0.92748 0.61018 0.0
O88 O 0.10722 0.97177 0.52351 0.0
C89 C 0.78082 0.85697 0.48823 0.0
O90 O 0.89464 0.80338 0.58422 0.0
O91 O 0.89698 0.8627 0.66394 0.0
C92 C 0.01609 0.1556 0.77825 0.0
O93 O 0.02603 0.14495 0.71656 0.0
C94 C 0.01016 0.16317 0.41382 0.0
O95 O 0.01021 0.14979 0.47735 0.0
C96 C 0.15392 0.72608 0.27187 0.0
C97 C 0.21084 0.72852 0.27907 0.0
C98 C 0.13605 0.75586 0.31753 0.0
C99 C 0.17517 0.78731 0.37268 0.0
C100 C 0.23143 0.78769 0.38184 0.0
C101 C 0.24897 0.75885 0.33443 0.0
C102 C 0.0769 0.75633 0.30485 0.0
C103 C 0.27402 0.82019 0.44052 0.0
C104 C 0.16805 0.92022 0.44542 0.0
C105 C 0.13178 0.89465 0.50224 0.0
C106 C 0.18173 0.88556 0.40238 0.0
C107 C 0.15965 0.8239 0.41756 0.0
C108 C 0.12329 0.79777 0.47541 0.0
C109 C 0.10994 0.83366 0.51737 0.0
C110 C 0.22059 0.91529 0.34121 0.0
C111 C 0.09875 0.73212 0.49299 0.0
H112 H 0.12449 0.70311 0.22884 0.0
H113 H 0.29282 0.76046 0.34037 0.0
H114 H 0.04617 0.73827 0.34894 0.0
H115 H 0.0876 0.80362 0.29722 0.0
H116 H 0.05157 0.72919 0.25996 0.0
H117 H 0.31325 0.81171 0.44367 0.0
H118 H 0.29315 0.86976 0.43587 0.0
H119 H 0.24787 0.80557 0.48808 0.0
H120 H 0.18724 0.96793 0.43571 0.0
H121 H 0.0822 0.81404 0.56179 0.0
H122 H 0.22859 0.96165 0.33302 0.0
H123 H 0.19785 0.88762 0.29574 0.0
H124 H 0.26619 0.91845 0.34698 0.0
H125 H 0.06809 0.7024 0.45209 0.0
H126 H 0.07221 0.71907 0.54043 0.0
H127 H 0.13769 0.72346 0.49804 0.0
C128 C 0.50247 0.22277 0.14371 0.0
C129 C 0.55322 0.27532 0.17076 0.0
C130 C 0.44491 0.19439 0.17533 0.0
C131 C 0.43827 0.21816 0.2366 0.0
C132 C 0.48961 0.27078 0.26482 0.0
C133 C 0.54646 0.29943 0.23087 0.0
C134 C 0.39092 0.13964 0.14235 0.0
C135 C 0.48446 0.29661 0.33079 0.0
C136 C 0.27538 0.17794 0.28287 0.0
C137 C 0.2572 0.12812 0.32541 0.0
C138 C 0.33447 0.20814 0.25438 0.0
C139 C 0.37685 0.1887 0.26963 0.0
C140 C 0.35919 0.13902 0.31335 0.0
C141 C 0.29934 0.109 0.34038 0.0
C142 C 0.35102 0.26002 0.20682 0.0
C143 C 0.40343 0.11747 0.33134 0.0
H144 H 0.50737 0.20457 0.09664 0.0
H145 H 0.5858 0.33996 0.25176 0.0
H146 H 0.37183 0.10028 0.17675 0.0
H147 H 0.35327 0.14921 0.13129 0.0
H148 H 0.40411 0.12671 0.09486 0.0
H149 H 0.52934 0.33609 0.34738 0.0
H150 H 0.44978 0.31115 0.32642 0.0
H151 H 0.46798 0.26118 0.37007 0.0
H152 H 0.24304 0.19297 0.27103 0.0
H153 H 0.28588 0.07114 0.37401 0.0
H154 H 0.36121 0.24874 0.15663 0.0
H155 H 0.39344 0.3015 0.22464 0.0
H156 H 0.31321 0.27039 0.20142 0.0
H157 H 0.41555 0.10115 0.28569 0.0
H158 H 0.38358 0.08013 0.36854 0.0
H159 H 0.44712 0.1557 0.35212 0.0
C160 C 0.25983 0.48881 0.29963 0.0
C161 C 0.21027 0.49394 0.2742 0.0
C162 C 0.25112 0.44692 0.35004 0.0
C163 C 0.19082 0.40711 0.37437 0.0
C164 C 0.14101 0.41393 0.3511 0.0
C165 C 0.15145 0.4579 0.302 0.0
C166 C 0.3064 0.4441 0.37575 0.0
C167 C 0.07594 0.3742 0.37571 0.0
C168 C 0.16602 0.25367 0.42806 0.0
C169 C 0.16339 0.25574 0.49813 0.0
C170 C 0.17234 0.30135 0.38767 0.0
C171 C 0.17961 0.35464 0.41784 0.0
C172 C 0.17719 0.3575 0.4887 0.0
C173 C 0.16829 0.30775 0.528 0.0
C174 C 0.17049 0.29422 0.31238 0.0
C175 C 0.18388 0.41308 0.52281 0.0
H176 H 0.30579 0.51739 0.2794 0.0
H177 H 0.11294 0.46181 0.28317 0.0
H178 H 0.30595 0.44198 0.43132 0.0
H179 H 0.30425 0.40236 0.35667 0.0
H180 H 0.35092 0.48388 0.35969 0.0
H181 H 0.04415 0.35575 0.33201 0.0
H182 H 0.06938 0.33576 0.40721 0.0
H183 H 0.06263 0.40242 0.4053 0.0
H184 H 0.16203 0.21405 0.40425 0.0
H185 H 0.16613 0.31001 0.58207 0.0
H186 H 0.2162 0.32722 0.29114 0.0
H187 H 0.13569 0.30397 0.29024 0.0
H188 H 0.15868 0.24784 0.29683 0.0
H189 H 0.22698 0.45412 0.50615 0.0
H190 H 0.18509 0.41012 0.57829 0.0
H191 H 0.14439 0.41888 0.50822 0.0
C192 C 0.85664 0.34292 0.25601 0.0
C193 C 0.80688 0.2995 0.21766 0.0
C194 C 0.8856 0.32535 0.30373 0.0
C195 C 0.86595 0.26304 0.31054 0.0
C196 C 0.81195 0.21889 0.27621 0.0
C197 C 0.78259 0.23776 0.23041 0.0
C198 C 0.93957 0.37441 0.34263 0.0
C199 C 0.78859 0.15192 0.28289 0.0
C200 C 0.98453 0.21439 0.32417 0.0
C201 C 0.9774 0.19416 0.3905 0.0
C202 C 0.95044 0.23951 0.29882 0.0
C203 C 0.9079 0.2444 0.34077 0.0
C204 C 0.9024 0.22663 0.40869 0.0
C205 C 0.93749 0.20177 0.43294 0.0
C206 C 0.9593 0.25992 0.22661 0.0
C207 C 0.85803 0.23191 0.45489 0.0
H208 H 0.87415 0.39077 0.24729 0.0
H209 H 0.7435 0.20419 0.20104 0.0
H210 H 0.92902 0.40963 0.35903 0.0
H211 H 0.95137 0.35668 0.38749 0.0
H212 H 0.98033 0.3971 0.3093 0.0
H213 H 0.74099 0.12363 0.26202 0.0
H214 H 0.81986 0.14075 0.25541 0.0
H215 H 0.78867 0.13962 0.33617 0.0
H216 H 0.01623 0.20979 0.29146 0.0
H217 H 0.93224 0.1867 0.48449 0.0
H218 H 0.97005 0.3076 0.22368 0.0
H219 H 0.91584 0.23145 0.19775 0.0
H220 H -0.00271 0.25684 0.20223 0.0
H221 H 0.86508 0.27831 0.45258 0.0
H222 H 0.86355 0.22161 0.50772 0.0
H223 H 0.80969 0.19993 0.43841 0.0
C224 C 0.49497 0.76699 0.2597 0.0
C225 C 0.4438 0.70807 0.26468 0.0
C226 C 0.54836 0.78515 0.29822 0.0
C227 C 0.55028 0.74361 0.3435 0.0
C228 C 0.49854 0.68432 0.34967 0.0
C229 C 0.4458 0.66707 0.30977 0.0
C230 C 0.6029 0.84877 0.2901 0.0
C231 C 0.49898 0.63928 0.3982 0.0
C232 C 0.71291 0.7877 0.39686 0.0
C233 C 0.72002 0.82162 0.45481 0.0
C234 C 0.65641 0.75892 0.36161 0.0
C235 C 0.60614 0.7638 0.3857 0.0
C236 C 0.61199 0.79469 0.44646 0.0
C237 C 0.66904 0.82357 0.48009 0.0
C238 C 0.65166 0.72644 0.29671 0.0
C239 C 0.55908 0.80016 0.47404 0.0
H240 H 0.49399 0.7987 0.22441 0.0
H241 H 0.40626 0.62147 0.31374 0.0
H242 H 0.61337 0.87374 0.33837 0.0
H243 H 0.64469 0.84704 0.27597 0.0
H244 H 0.59432 0.87485 0.25133 0.0
H245 H 0.45468 0.59509 0.3972 0.0
H246 H 0.53732 0.63125 0.38605 0.0
H247 H 0.50743 0.65791 0.44991 0.0
H248 H 0.75215 0.78575 0.37749 0.0
H249 H 0.67398 0.84874 0.52569 0.0
H250 H 0.6479 0.75233 0.25414 0.0
H251 H 0.6093 0.68081 0.29596 0.0
H252 H 0.69258 0.72134 0.2886 0.0
H253 H 0.55072 0.83043 0.4414 0.0
H254 H 0.56877 0.81908 0.52574 0.0
H255 H 0.51579 0.75525 0.47438 0.0
C256 C 0.84853 0.54052 0.23943 0.0
C257 C 0.79981 0.5266 0.19426 0.0
C258 C 0.87307 0.59215 0.28091 0.0
C259 C 0.84876 0.63143 0.27683 0.0
C260 C 0.79701 0.61555 0.23453 0.0
C261 C 0.7732 0.56344 0.19379 0.0
C262 C 0.92769 0.60584 0.32544 0.0
C263 C 0.76867 0.65525 0.22969 0.0
C264 C 0.90274 0.75964 0.40559 0.0
C265 C 0.95108 0.80816 0.37116 0.0
C266 C 0.86845 0.70174 0.37559 0.0
C267 C 0.88235 0.69259 0.30939 0.0
C268 C 0.92992 0.74202 0.27392 0.0
C269 C 0.9637 0.7989 0.30526 0.0
C270 C 0.8186 0.65 0.41524 0.0
C271 C 0.94545 0.73491 0.20271 0.0
H272 H 0.86908 0.51212 0.24109 0.0
H273 H 0.73506 0.55288 0.15977 0.0
H274 H 0.97029 0.62712 0.29482 0.0
H275 H 0.93406 0.63677 0.36758 0.0
H276 H 0.92245 0.56325 0.34632 0.0
H277 H 0.72366 0.6325 0.20221 0.0
H278 H 0.76135 0.66813 0.28039 0.0
H279 H 0.80081 0.69775 0.20304 0.0
H280 H 0.89283 0.76645 0.4565 0.0
H281 H 0.00048 0.83635 0.27793 0.0
H282 H 0.83142 0.61482 0.42305 0.0
H283 H 0.77414 0.62843 0.38689 0.0
H284 H 0.81148 0.66498 0.46492 0.0
H285 H 0.95325 0.69607 0.19877 0.0
H286 H 0.98732 0.7763 0.18427 0.0
H287 H 0.9059 0.72502 0.16912 0.0
C288 C 0.14808 0.69619 0.95933 0.0
C289 C 0.19842 0.73138 0.00243 0.0
C290 C 0.1238 0.72325 0.91688 0.0
C291 C 0.14979 0.78723 0.91812 0.0
C292 C 0.20269 0.82311 0.95881 0.0
C293 C 0.2262 0.79492 0.00028 0.0
C294 C 0.06892 0.68199 0.87302 0.0
C295 C 0.23341 0.89143 0.96034 0.0
C296 C 0.10051 0.86351 0.78568 0.0
C297 C 0.05536 0.86944 0.8202 0.0
C298 C 0.13162 0.83668 0.81655 0.0
C299 C 0.1179 0.81615 0.88377 0.0
C300 C 0.0736 0.82378 0.9192 0.0
C301 C 0.04274 0.84978 0.88693 0.0
C302 C 0.17814 0.82902 0.77691 0.0
C303 C 0.05883 0.80494 0.99163 0.0
H304 H 0.1267 0.64722 0.95945 0.0
H305 H 0.26572 0.82299 0.03241 0.0
H306 H 0.05814 0.70652 0.83448 0.0
H307 H 0.07757 0.64855 0.84733 0.0
H308 H 0.02774 0.65572 0.90503 0.0
H309 H 0.27857 0.9132 0.98751 0.0
H310 H 0.24113 0.90968 0.90864 0.0
H311 H 0.20269 0.90458 0.98556 0.0
H312 H 0.11002 0.87795 0.73397 0.0
H313 H 0.00821 0.85454 0.91422 0.0
H314 H 0.16199 0.77999 0.77174 0.0
H315 H 0.2233 0.85056 0.80395 0.0
H316 H 0.1853 0.8491 0.72607 0.0
H317 H 0.05406 0.75996 0.00031 0.0
H318 H 0.01557 0.80301 0.00783 0.0
H319 H 0.09739 0.83824 0.02401 0.0
C320 C 0.53238 0.20107 0.94105 0.0
C321 C 0.5766 0.25921 0.91963 0.0
C322 C 0.47436 0.1692 0.90947 0.0
C323 C 0.46172 0.19557 0.85382 0.0
C324 C 0.50823 0.2525 0.82903 0.0
C325 C 0.56493 0.28451 0.86347 0.0
C326 C 0.42525 0.1097 0.93882 0.0
C327 C 0.49697 0.28097 0.76838 0.0
C328 C 0.31909 0.09584 0.74824 0.0
C329 C 0.27896 0.11532 0.76958 0.0
C330 C 0.37916 0.12183 0.77493 0.0
C331 C 0.39817 0.16652 0.8257 0.0
C332 C 0.35667 0.1844 0.84932 0.0
C333 C 0.2978 0.15941 0.81982 0.0
C334 C 0.42292 0.10319 0.74718 0.0
C335 C 0.37463 0.2303 0.90524 0.0
H336 H 0.54165 0.18241 0.98544 0.0
H337 H 0.59942 0.32985 0.84776 0.0
H338 H 0.38738 0.11516 0.95945 0.0
H339 H 0.40451 0.07409 0.89947 0.0
H340 H 0.44386 0.09375 0.97961 0.0
H341 H 0.54043 0.32075 0.7501 0.0
H342 H 0.47578 0.24728 0.72709 0.0
H343 H 0.46404 0.2962 0.78119 0.0
H344 H 0.30439 0.06222 0.70856 0.0
H345 H 0.26633 0.17412 0.83611 0.0
H346 H 0.4407 0.08657 0.78797 0.0
H347 H 0.46352 0.14315 0.7247 0.0
H348 H 0.40049 0.06711 0.70835 0.0
H349 H 0.39141 0.21629 0.94948 0.0
H350 H 0.33537 0.23588 0.92085 0.0
H351 H 0.41313 0.27504 0.88889 0.0
C352 C 0.13723 0.46932 0.96338 0.0
C353 C 0.1991 0.49521 0.9843 0.0
C354 C 0.11008 0.41868 0.92067 0.0
C355 C 0.14569 0.39325 0.89906 0.0
C356 C 0.20922 0.42153 0.91665 0.0
C357 C 0.23535 0.47257 0.95872 0.0
C358 C 0.04275 0.3911 0.90087 0.0
C359 C 0.24844 0.39525 0.89528 0.0
C360 C 0.05763 0.22291 0.87779 0.0
C361 C 0.05288 0.21647 0.80802 0.0
C362 C 0.08829 0.28034 0.90774 0.0
C363 C 0.11467 0.3326 0.86677 0.0
C364 C 0.11131 0.32644 0.79614 0.0
C365 C 0.08087 0.26815 0.76746 0.0
C366 C 0.09126 0.28502 0.98334 0.0
C367 C 0.13778 0.38114 0.751 0.0
H368 H 0.1095 0.4876 0.982 0.0
H369 H 0.28331 0.49254 0.97456 0.0
H370 H 0.03916 0.39484 0.84587 0.0
H371 H 0.01641 0.34221 0.91367 0.0
H372 H 0.0205 0.4139 0.92572 0.0
H373 H 0.2984 0.4263 0.90667 0.0
H374 H 0.2329 0.35182 0.92188 0.0
H375 H 0.24284 0.38513 0.84079 0.0
H376 H 0.03646 0.18287 0.90916 0.0
H377 H 0.07694 0.26308 0.7134 0.0
H378 H 0.06656 0.30819 0.0006 0.0
H379 H 0.14016 0.31269 0.00049 0.0
H380 H 0.07011 0.23989 0.00777 0.0
H381 H 0.11128 0.40471 0.7573 0.0
H382 H 0.1357 0.36864 0.69733 0.0
H383 H 0.18665 0.41385 0.76496 0.0
C384 C 0.8029 0.28942 0.86567 0.0
C385 C 0.82554 0.29578 0.93132 0.0
C386 C 0.81386 0.25575 0.81766 0.0
C387 C 0.84934 0.22881 0.83553 0.0
C388 C 0.87431 0.23736 0.90137 0.0
C389 C 0.86119 0.26986 0.94876 0.0
C390 C 0.78479 0.24638 0.74888 0.0
C391 C 0.91274 0.21017 0.92295 0.0
C392 C 0.82783 0.09044 0.73899 0.0
C393 C 0.87653 0.11678 0.69296 0.0
C394 C 0.81794 0.12631 0.78496 0.0
C395 C 0.85849 0.19011 0.78605 0.0
C396 C 0.90801 0.21685 0.74007 0.0
C397 C 0.91592 0.18008 0.6936 0.0
C398 C 0.764 0.09578 0.83235 0.0
C399 C 0.95373 0.28419 0.74127 0.0
H400 H 0.77389 0.30818 0.85288 0.0
H401 H 0.87761 0.27381 2e-05 0.0
H402 H 0.8208 0.26162 0.70976 0.0
H403 H 0.75185 0.19728 0.74033 0.0
H404 H 0.75947 0.27124 0.74245 0.0
H405 H 0.94237 0.23426 0.96718 0.0
H406 H 0.8816 0.16202 0.93679 0.0
H407 H 0.94259 0.21146 0.88167 0.0
H408 H 0.79682 0.0417 0.73862 0.0
H409 H 0.95395 0.20096 0.6586 0.0
H410 H 0.73679 0.11901 0.83145 0.0
H411 H 0.78154 0.09889 0.88426 0.0
H412 H 0.73258 0.04709 0.81977 0.0
H413 H 0.92935 0.30993 0.73568 0.0
H414 H 0.98886 0.29841 0.70116 0.0
H415 H 0.97788 0.29676 0.79054 0.0
C416 C 0.50598 0.74738 0.03966 0.0
C417 C 0.45155 0.73966 0.00992 0.0
C418 C 0.56242 0.77665 0.00579 0.0
C419 C 0.5643 0.79742 0.93967 0.0
C420 C 0.50942 0.78988 0.90925 0.0
C421 C 0.45359 0.76178 0.9453 0.0
C422 C 0.62003 0.78536 0.04099 0.0
C423 C 0.50955 0.81054 0.83841 0.0
C424 C 0.72294 0.91806 0.87907 0.0
C425 C 0.74332 0.88313 0.84582 0.0
C426 C 0.66413 0.89096 0.90821 0.0
C427 C 0.62419 0.82737 0.90324 0.0
C428 C 0.64377 0.79198 0.8682 0.0
C429 C 0.70332 0.82022 0.84036 0.0
C430 C 0.64569 0.93022 0.94635 0.0
C431 C 0.60218 0.72413 0.8611 0.0
H432 H 0.5045 0.731 0.09016 0.0
H433 H 0.41136 0.75558 0.92243 0.0
H434 H 0.63894 0.76078 0.01348 0.0
H435 H 0.65632 0.83414 0.04156 0.0
H436 H 0.61097 0.76877 0.09349 0.0
H437 H 0.46302 0.80107 0.82187 0.0
H438 H 0.54276 0.85996 0.83417 0.0
H439 H 0.52522 0.78727 0.80371 0.0
H440 H 0.75355 0.96672 0.88368 0.0
H441 H 0.71843 0.79302 0.81409 0.0
H442 H 0.63953 0.91734 5e-05 0.0
H443 H 0.60068 0.92287 0.92733 0.0
H444 H 0.68079 0.97929 0.94258 0.0
H445 H 0.59423 0.70253 0.91106 0.0
H446 H 0.62226 0.70385 0.82787 0.0
H447 H 0.55631 0.71312 0.84058 0.0
C448 C 0.76815 0.51401 0.86166 0.0
C449 C 0.80284 0.52166 0.9201 0.0
C450 C 0.78591 0.56195 0.81644 0.0
C451 C 0.83891 0.61915 0.83076 0.0
C452 C 0.87427 0.62696 0.88945 0.0
C453 C 0.85629 0.57788 0.93304 0.0
C454 C 0.74717 0.55182 0.75414 0.0
C455 C 0.92956 0.68779 0.90761 0.0
C456 C 0.90841 0.72977 0.68625 0.0
C457 C 0.88242 0.76634 0.69584 0.0
C458 C 0.89612 0.68269 0.73099 0.0
C459 C 0.85592 0.67138 0.78556 0.0
C460 C 0.83042 0.70895 0.7959 0.0
C461 C 0.84405 0.756 0.75081 0.0
C462 C 0.92522 0.6444 0.71927 0.0
C463 C 0.78717 0.69834 0.85329 0.0
H464 H 0.72684 0.47053 0.8515 0.0
H465 H 0.88275 0.58425 0.97867 0.0
H466 H 0.7271 0.5817 0.75535 0.0
H467 H 0.77663 0.56402 0.70898 0.0
H468 H 0.70877 0.50402 0.74903 0.0
H469 H 0.95506 0.68483 0.95175 0.0
H470 H 0.9616 0.70663 0.86467 0.0
H471 H 0.91408 0.72032 0.91946 0.0
H472 H 0.93816 0.7379 0.64362 0.0
H473 H 0.82275 0.7833 0.75712 0.0
H474 H 0.88849 0.59675 0.70908 0.0
H475 H 0.95075 0.64423 0.76488 0.0
H476 H 0.95776 0.66096 0.67646 0.0
H477 H 0.77505 0.73437 0.85708 0.0
H478 H 0.80848 0.69634 0.90143 0.0
H479 H 0.7438 0.65402 0.84638 0.0
loop_
_geom_bond_atom_site_label_1
_geom_bond_atom_site_label_2
_geom_bond_distance
_geom_bond_site_symmetry_2
_ccdc_geom_bond_type
Fe0 O2 1.918 . S
Fe0 O5 1.997 . S
Fe0 O6 2.002 . S
Fe0 O11 1.976 . S
Fe0 O14 1.996 . S
Fe1 O2 1.918 . S
Fe1 O9 1.997 . S
Fe1 O12 1.996 . S
Fe1 O16 1.976 . S
Fe1 O19 2.002 . S
O2 Fe0 1.918 . S
O2 Fe1 1.918 . S
O2 Fe3 1.918 . S
Fe3 O2 1.918 . S
Fe3 O4 2.002 . S
Fe3 O13 1.976 . S
Fe3 O17 1.996 . S
Fe3 O20 1.997 . S
O4 Fe3 2.002 . S
O4 C21 1.295 . S
O5 Fe0 1.997 . S
O5 C21 1.235 . S
O6 Fe0 2.002 . S
O6 C7 1.295 . S
C7 O6 1.295 . S
C7 O9 1.235 . S
C8 O13 1.287 . S
C8 O14 1.255 . S
O9 Fe1 1.997 . S
O9 C7 1.235 . S
C10 O16 1.287 . S
C10 O17 1.255 . S
O11 Fe0 1.976 . S
O11 C18 1.287 . S
O12 Fe1 1.996 . S
O12 C18 1.255 . S
O13 Fe3 1.976 . S
O13 C8 1.287 . S
O14 Fe0 1.996 . S
O14 C8 1.255 . S
C15 O19 1.295 . S
C15 O20 1.235 . S
O16 Fe1 1.976 . S
O16 C10 1.287 . S
O17 Fe3 1.996 . S
O17 C10 1.255 . S
C18 O11 1.287 . S
C18 O12 1.255 . S
O19 Fe1 2.002 . S
O19 C15 1.295 . S
O20 Fe3 1.997 . S
O20 C15 1.235 . S
C21 O4 1.295 . S
C21 O5 1.235 . S
Fe22 O24 1.918 . S
Fe22 O27 1.997 . S
Fe22 O28 2.002 . S
Fe22 O33 1.976 1_554 S
Fe22 O36 1.996 1_554 S
Fe23 O24 1.918 . S
Fe23 O31 1.997 . S
Fe23 O34 1.996 1_554 S
Fe23 O38 1.976 1_554 S
Fe23 O41 2.002 . S
O24 Fe22 1.918 . S
O24 Fe23 1.918 . S
O24 Fe25 1.918 . S
Fe25 O24 1.918 . S
Fe25 O26 2.002 . S
Fe25 O35 1.976 1_554 S
Fe25 O39 1.996 1_554 S
Fe25 O42 1.997 . S
O26 Fe25 2.002 . S
O26 C43 1.295 . S
O27 Fe22 1.997 . S
O27 C43 1.235 . S
O28 Fe22 2.002 . S
O28 C29 1.295 . S
C29 O28 1.295 . S
C29 O31 1.235 . S
C30 O35 1.287 . S
C30 O36 1.255 . S
O31 Fe23 1.997 . S
O31 C29 1.235 . S
C32 O38 1.287 . S
C32 O39 1.255 . S
O33 Fe22 1.976 1_556 S
O33 C40 1.287 . S
O34 Fe23 1.996 1_556 S
O34 C40 1.255 . S
O35 Fe25 1.976 1_556 S
O35 C30 1.287 . S
O36 Fe22 1.996 1_556 S
O36 C30 1.255 . S
C37 O41 1.295 . S
C37 O42 1.235 . S
O38 Fe23 1.976 1_556 S
O38 C32 1.287 . S
O39 Fe25 1.996 1_556 S
O39 C32 1.255 . S
C40 O33 1.287 . S
C40 O34 1.255 . S
O41 Fe23 2.002 . S
O41 C37 1.295 . S
O42 Fe25 1.997 . S
O42 C37 1.235 . S
C43 O26 1.295 . S
C43 O27 1.235 . S
Zn44 O46 1.933 . S
Zn44 O64 1.985 . S
Zn44 O75 1.955 . S
Zn45 O46 1.911 1_565 S
Zn45 O65 1.970 1_565 S
Zn45 O81 1.945 . S
Zn45 O88 1.981 . S
O46 Zn44 1.933 . S
O46 Zn45 1.911 1_545 S
O46 H47 0.841 1_445 S
H47 O46 0.841 1_665 S
C48 O49 1.246 . S
C48 O77 1.276 . S
O49 C48 1.246 . S
Zn50 O52 1.911 . S
Zn50 O67 1.970 . S
Zn50 O84 1.945 1_655 S
Zn50 O91 1.981 . S
Zn51 O52 1.933 1_545 S
Zn51 O66 1.985 1_545 S
Zn51 O73 1.955 1_655 S
O52 Zn50 1.911 . S
O52 Zn51 1.933 1_565 S
O52 H53 0.841 1_665 S
H53 O52 0.841 1_445 S
Zn54 O55 1.933 . S
Zn54 O68 1.985 . S
Zn54 O77 1.955 . S
O55 Zn54 1.933 . S
O55 Zn56 1.911 . S
O55 H57 0.841 . S
Zn56 O55 1.911 . S
Zn56 O69 1.970 . S
Zn56 O85 1.981 1_545 S
Zn56 O87 1.945 1_545 S
H57 O55 0.841 . S
Zn58 O59 1.933 . S
Zn58 O71 1.985 . S
Zn58 O79 1.955 1_565 S
O59 Zn58 1.933 . S
O59 H60 0.841 . S
O59 Zn61 1.911 . S
H60 O59 0.841 . S
Zn61 O59 1.911 . S
Zn61 O72 1.970 . S
Zn61 O82 1.981 . S
Zn61 O90 1.945 . S
C62 O63 1.246 . S
C62 O79 1.276 . S
O63 C62 1.246 . S
O64 Zn44 1.985 . S
O64 C74 1.245 . S
O65 Zn45 1.970 1_545 S
O65 C74 1.263 . S
O66 Zn51 1.985 1_565 S
O66 C78 1.245 . S
O67 Zn50 1.970 . S
O67 C78 1.263 . S
O68 Zn54 1.985 . S
O68 C83 1.245 . S
O69 Zn56 1.970 . S
O69 C83 1.263 . S
C70 O81 1.262 1_655 S
C70 O82 1.245 . S
O71 Zn58 1.985 . S
O71 C89 1.245 . S
O72 Zn61 1.970 . S
O72 C89 1.263 . S
O73 Zn51 1.955 1_455 S
O73 C92 1.276 . S
C74 O64 1.245 . S
C74 O65 1.263 . S
O75 Zn44 1.955 . S
O75 C94 1.276 1_455 S
C76 O84 1.262 . S
C76 O85 1.245 . S
O77 C48 1.276 . S
O77 Zn54 1.955 . S
C78 O66 1.245 . S
C78 O67 1.263 . S
O79 Zn58 1.955 1_545 S
O79 C62 1.276 . S
C80 O87 1.262 . S
C80 O88 1.245 . S
O81 Zn45 1.945 . S
O81 C70 1.262 1_455 S
O82 Zn61 1.981 . S
O82 C70 1.245 . S
C83 O68 1.245 . S
C83 O69 1.263 . S
O84 Zn50 1.945 1_455 S
O84 C76 1.262 . S
O85 Zn56 1.981 1_565 S
O85 C76 1.245 . S
C86 O90 1.262 . S
C86 O91 1.245 . S
O87 Zn56 1.945 1_565 S
O87 C80 1.262 . S
O88 Zn45 1.981 . S
O88 C80 1.245 . S
C89 O71 1.245 . S
C89 O72 1.263 . S
O90 Zn61 1.945 . S
O90 C86 1.262 . S
O91 Zn50 1.981 . S
O91 C86 1.245 . S
C92 O73 1.276 . S
C92 O93 1.246 . S
O93 C92 1.246 . S
C94 O75 1.276 1_655 S
C94 O95 1.246 . S
O95 C94 1.246 . S
C96 C97 1.391 . S
C96 C98 1.394 . S
C96 H112 0.931 . S
C97 C96 1.391 . S
C97 C101 1.376 . S
C98 C96 1.394 . S
C98 C99 1.369 . S
C98 C102 1.531 . S
C99 C98 1.369 . S
C99 C100 1.410 . S
C99 C107 1.503 . S
C100 C99 1.410 . S
C100 C101 1.392 . S
C100 C103 1.511 . S
C101 C97 1.376 . S
C101 C100 1.392 . S
C101 H113 0.929 . S
C102 C98 1.531 . S
C102 H114 0.960 . S
C102 H115 0.962 . S
C102 H116 0.960 . S
C103 C100 1.511 . S
C103 H117 0.961 . S
C103 H118 0.961 . S
C103 H119 0.961 . S
C104 C105 1.370 . S
C104 C106 1.363 . S
C104 H120 0.931 . S
C105 C104 1.370 . S
C105 C109 1.408 . S
C106 C104 1.363 . S
C106 C107 1.370 . S
C106 C110 1.524 . S
C107 C99 1.503 . S
C107 C106 1.370 . S
C107 C108 1.403 . S
C108 C107 1.403 . S
C108 C109 1.404 . S
C108 C111 1.539 . S
C109 C105 1.408 . S
C109 C108 1.404 . S
C109 H121 0.930 . S
C110 C106 1.524 . S
C110 H122 0.956 . S
C110 H123 0.961 . S
C110 H124 0.961 . S
C111 C108 1.539 . S
C111 H125 0.958 . S
C111 H126 0.961 . S
C111 H127 0.960 . S
H112 C96 0.931 . S
H113 C101 0.929 . S
H114 C102 0.960 . S
H115 C102 0.962 . S
H116 C102 0.960 . S
H117 C103 0.961 . S
H118 C103 0.961 . S
H119 C103 0.961 . S
H120 C104 0.931 . S
H121 C109 0.930 . S
H122 C110 0.956 . S
H123 C110 0.961 . S
H124 C110 0.961 . S
H125 C111 0.958 . S
H126 C111 0.961 . S
H127 C111 0.960 . S
C128 C129 1.391 . S
C128 C130 1.394 . S
C128 H144 0.931 . S
C129 C128 1.391 . S
C129 C133 1.376 . S
C130 C128 1.394 . S
C130 C131 1.369 . S
C130 C134 1.531 . S
C131 C130 1.369 . S
C131 C132 1.410 . S
C131 C139 1.503 . S
C132 C131 1.410 . S
C132 C133 1.392 . S
C132 C135 1.511 . S
C133 C129 1.376 . S
C133 C132 1.392 . S
C133 H145 0.929 . S
C134 C130 1.531 . S
C134 H146 0.960 . S
C134 H147 0.962 . S
C134 H148 0.960 . S
C135 C132 1.511 . S
C135 H149 0.961 . S
C135 H150 0.961 . S
C135 H151 0.961 . S
C136 C137 1.370 . S
C136 C138 1.363 . S
C136 H152 0.931 . S
C137 C136 1.370 . S
C137 C141 1.408 . S
C138 C136 1.363 . S
C138 C139 1.370 . S
C138 C142 1.524 . S
C139 C131 1.503 . S
C139 C138 1.370 . S
C139 C140 1.403 . S
C140 C139 1.403 . S
C140 C141 1.404 . S
C140 C143 1.539 . S
C141 C137 1.408 . S
C141 C140 1.404 . S
C141 H153 0.930 . S
C142 C138 1.524 . S
C142 H154 0.956 . S
C142 H155 0.961 . S
C142 H156 0.961 . S
C143 C140 1.539 . S
C143 H157 0.958 . S
C143 H158 0.961 . S
C143 H159 0.960 . S
H144 C128 0.931 . S
H145 C133 0.929 . S
H146 C134 0.960 . S
H147 C134 0.962 . S
H148 C134 0.960 . S
H149 C135 0.961 . S
H150 C135 0.961 . S
H151 C135 0.961 . S
H152 C136 0.931 . S
H153 C141 0.930 . S
H154 C142 0.956 . S
H155 C142 0.961 . S
H156 C142 0.961 . S
H157 C143 0.958 . S
H158 C143 0.961 . S
H159 C143 0.960 . S
C160 C161 1.391 . S
C160 C162 1.394 . S
C160 H176 0.931 . S
C161 C160 1.391 . S
C161 C165 1.376 . S
C162 C160 1.394 . S
C162 C163 1.369 . S
C162 C166 1.531 . S
C163 C162 1.369 . S
C163 C164 1.410 . S
C163 C171 1.503 . S
C164 C163 1.410 . S
C164 C165 1.392 . S
C164 C167 1.511 . S
C165 C161 1.376 . S
C165 C164 1.392 . S
C165 H177 0.929 . S
C166 C162 1.531 . S
C166 H178 0.960 . S
C166 H179 0.962 . S
C166 H180 0.960 . S
C167 C164 1.511 . S
C167 H181 0.961 . S
C167 H182 0.961 . S
C167 H183 0.961 . S
C168 C169 1.370 . S
C168 C170 1.363 . S
C168 H184 0.931 . S
C169 C168 1.370 . S
C169 C173 1.408 . S
C170 C168 1.363 . S
C170 C171 1.370 . S
C170 C174 1.524 . S
C171 C163 1.503 . S
C171 C170 1.370 . S
C171 C172 1.403 . S
C172 C171 1.403 . S
C172 C173 1.404 . S
C172 C175 1.539 . S
C173 C169 1.408 . S
C173 C172 1.404 . S
C173 H185 0.930 . S
C174 C170 1.524 . S
C174 H186 0.956 . S
C174 H187 0.961 . S
C174 H188 0.961 . S
C175 C172 1.539 . S
C175 H189 0.958 . S
C175 H190 0.961 . S
C175 H191 0.960 . S
H176 C160 0.931 . S
H177 C165 0.929 . S
H178 C166 0.960 . S
H179 C166 0.962 . S
H180 C166 0.960 . S
H181 C167 0.961 . S
H182 C167 0.961 . S
H183 C167 0.961 . S
H184 C168 0.931 . S
H185 C173 0.930 . S
H186 C174 0.956 . S
H187 C174 0.961 . S
H188 C174 0.961 . S
H189 C175 0.958 . S
H190 C175 0.961 . S
H191 C175 0.960 . S
C192 C193 1.391 . S
C192 C194 1.394 . S
C192 H208 0.931 . S
C193 C192 1.391 . S
C193 C197 1.376 . S
C194 C192 1.394 . S
C194 C195 1.369 . S
C194 C198 1.531 . S
C195 C194 1.369 . S
C195 C196 1.410 . S
C195 C203 1.503 . S
C196 C195 1.410 . S
C196 C197 1.392 . S
C196 C199 1.511 . S
C197 C193 1.376 . S
C197 C196 1.392 . S
C197 H209 0.929 . S
C198 C194 1.531 . S
C198 H210 0.960 . S
C198 H211 0.962 . S
C198 H212 0.960 . S
C199 C196 1.511 . S
C199 H213 0.961 . S
C199 H214 0.961 . S
C199 H215 0.961 . S
C200 C201 1.370 . S
C200 C202 1.363 . S
C200 H216 0.931 . S
C201 C200 1.370 . S
C201 C205 1.408 . S
C202 C200 1.363 . S
C202 C203 1.370 . S
C202 C206 1.524 . S
C203 C195 1.503 . S
C203 C202 1.370 . S
C203 C204 1.403 . S
C204 C203 1.403 . S
C204 C205 1.404 . S
C204 C207 1.539 . S
C205 C201 1.408 . S
C205 C204 1.404 . S
C205 H217 0.930 . S
C206 C202 1.524 . S
C206 H218 0.956 . S
C206 H219 0.961 . S
C206 H220 0.961 . S
C207 C204 1.539 . S
C207 H221 0.958 . S
C207 H222 0.961 . S
C207 H223 0.960 . S
H208 C192 0.931 . S
H209 C197 0.929 . S
H210 C198 0.960 . S
H211 C198 0.962 . S
H212 C198 0.960 . S
H213 C199 0.961 . S
H214 C199 0.961 . S
H215 C199 0.961 . S
H216 C200 0.931 . S
H217 C205 0.930 . S
H218 C206 0.956 . S
H219 C206 0.961 . S
H220 C206 0.961 . S
H221 C207 0.958 . S
H222 C207 0.961 . S
H223 C207 0.960 . S
C224 C225 1.391 . S
C224 C226 1.394 . S
C224 H240 0.931 . S
C225 C224 1.391 . S
C225 C229 1.376 . S
C226 C224 1.394 . S
C226 C227 1.369 . S
C226 C230 1.531 . S
C227 C226 1.369 . S
C227 C228 1.410 . S
C227 C235 1.503 . S
C228 C227 1.410 . S
C228 C229 1.392 . S
C228 C231 1.511 . S
C229 C225 1.376 . S
C229 C228 1.392 . S
C229 H241 0.929 . S
C230 C226 1.531 . S
C230 H242 0.960 . S
C230 H243 0.962 . S
C230 H244 0.960 . S
C231 C228 1.511 . S
C231 H245 0.961 . S
C231 H246 0.961 . S
C231 H247 0.961 . S
C232 C233 1.370 . S
C232 C234 1.363 . S
C232 H248 0.931 . S
C233 C232 1.370 . S
C233 C237 1.408 . S
C234 C232 1.363 . S
C234 C235 1.370 . S
C234 C238 1.524 . S
C235 C227 1.503 . S
C235 C234 1.370 . S
C235 C236 1.403 . S
C236 C235 1.403 . S
C236 C237 1.404 . S
C236 C239 1.539 . S
C237 C233 1.408 . S
C237 C236 1.404 . S
C237 H249 0.930 . S
C238 C234 1.524 . S
C238 H250 0.956 . S
C238 H251 0.961 . S
C238 H252 0.961 . S
C239 C236 1.539 . S
C239 H253 0.958 . S
C239 H254 0.961 . S
C239 H255 0.960 . S
H240 C224 0.931 . S
H241 C229 0.929 . S
H242 C230 0.960 . S
H243 C230 0.962 . S
H244 C230 0.960 . S
H245 C231 0.961 . S
H246 C231 0.961 . S
H247 C231 0.961 . S
H248 C232 0.931 . S
H249 C237 0.930 . S
H250 C238 0.956 . S
H251 C238 0.961 . S
H252 C238 0.961 . S
H253 C239 0.958 . S
H254 C239 0.961 . S
H255 C239 0.960 . S
C256 C257 1.391 . S
C256 C258 1.394 . S
C256 H272 0.931 . S
C257 C256 1.391 . S
C257 C261 1.376 . S
C258 C256 1.394 . S
C258 C259 1.369 . S
C258 C262 1.531 . S
C259 C258 1.369 . S
C259 C260 1.410 . S
C259 C267 1.503 . S
C260 C259 1.410 . S
C260 C261 1.392 . S
C260 C263 1.511 . S
C261 C257 1.376 . S
C261 C260 1.392 . S
C261 H273 0.929 . S
C262 C258 1.531 . S
C262 H274 0.960 . S
C262 H275 0.962 . S
C262 H276 0.960 . S
C263 C260 1.511 . S
C263 H277 0.961 . S
C263 H278 0.961 . S
C263 H279 0.961 . S
C264 C265 1.370 . S
C264 C266 1.363 . S
C264 H280 0.931 . S
C265 C264 1.370 . S
C265 C269 1.408 . S
C266 C264 1.363 . S
C266 C267 1.370 . S
C266 C270 1.524 . S
C267 C259 1.503 . S
C267 C266 1.370 . S
C267 C268 1.403 . S
C268 C267 1.403 . S
C268 C269 1.404 . S
C268 C271 1.539 . S
C269 C265 1.408 . S
C269 C268 1.404 . S
C269 H281 0.930 . S
C270 C266 1.524 . S
C270 H282 0.956 . S
C270 H283 0.961 . S
C270 H284 0.961 . S
C271 C268 1.539 . S
C271 H285 0.958 . S
C271 H286 0.961 1_655 S
C271 H287 0.960 . S
H272 C256 0.931 . S
H273 C261 0.929 . S
H274 C262 0.960 . S
H275 C262 0.962 . S
H276 C262 0.960 . S
H277 C263 0.961 . S
H278 C263 0.961 . S
H279 C263 0.961 . S
H280 C264 0.931 . S
H281 C269 0.930 . S
H282 C270 0.956 . S
H283 C270 0.961 . S
H284 C270 0.961 . S
H285 C271 0.958 . S
H286 C271 0.961 1_455 S
H287 C271 0.960 . S
C288 C289 1.391 1_556 S
C288 C290 1.394 . S
C288 H304 0.931 . S
C289 C288 1.391 1_554 S
C289 C293 1.376 . S
C290 C288 1.394 . S
C290 C291 1.369 . S
C290 C294 1.531 . S
C291 C290 1.369 . S
C291 C292 1.410 . S
C291 C299 1.503 . S
C292 C291 1.410 . S
C292 C293 1.392 1_556 S
C292 C295 1.511 . S
C293 C289 1.376 . S
C293 C292 1.392 1_554 S
C293 H305 0.929 . S
C294 C290 1.531 . S
C294 H306 0.960 . S
C294 H307 0.962 . S
C294 H308 0.960 . S
C295 C292 1.511 . S
C295 H309 0.961 1_556 S
C295 H310 0.961 . S
C295 H311 0.961 1_556 S
C296 C297 1.370 . S
C296 C298 1.363 . S
C296 H312 0.931 . S
C297 C296 1.370 . S
C297 C301 1.408 . S
C298 C296 1.363 . S
C298 C299 1.370 . S
C298 C302 1.524 . S
C299 C291 1.503 . S
C299 C298 1.370 . S
C299 C300 1.403 . S
C300 C299 1.403 . S
C300 C301 1.404 . S
C300 C303 1.539 . S
C301 C297 1.408 . S
C301 C300 1.404 . S
C301 H313 0.930 . S
C302 C298 1.524 . S
C302 H314 0.956 . S
C302 H315 0.961 . S
C302 H316 0.961 . S
C303 C300 1.539 . S
C303 H317 0.958 . S
C303 H318 0.961 . S
C303 H319 0.953 1_556 S
H304 C288 0.931 . S
H305 C293 0.929 . S
H306 C294 0.960 . S
H307 C294 0.962 . S
H308 C294 0.960 . S
H309 C295 0.961 1_554 S
H310 C295 0.961 . S
H311 C295 0.961 1_554 S
H312 C296 0.931 . S
H313 C301 0.930 . S
H314 C302 0.956 . S
H315 C302 0.961 . S
H316 C302 0.961 . S
H317 C303 0.958 . S
H318 C303 0.961 . S
H319 C303 0.953 1_554 S
C320 C321 1.391 . S
C320 C322 1.394 . S
C320 H336 0.931 . S
C321 C320 1.391 . S
C321 C325 1.376 . S
C322 C320 1.394 . S
C322 C323 1.369 . S
C322 C326 1.531 . S
C323 C322 1.369 . S
C323 C324 1.410 . S
C323 C331 1.503 . S
C324 C323 1.410 . S
C324 C325 1.392 . S
C324 C327 1.511 . S
C325 C321 1.376 . S
C325 C324 1.392 . S
C325 H337 0.929 . S
C326 C322 1.531 . S
C326 H338 0.960 . S
C326 H339 0.962 . S
C326 H340 0.960 . S
C327 C324 1.511 . S
C327 H341 0.961 . S
C327 H342 0.961 . S
C327 H343 0.961 . S
C328 C329 1.370 . S
C328 C330 1.363 . S
C328 H344 0.931 . S
C329 C328 1.370 . S
C329 C333 1.408 . S
C330 C328 1.363 . S
C330 C331 1.370 . S
C330 C334 1.524 . S
C331 C323 1.503 . S
C331 C330 1.370 . S
C331 C332 1.403 . S
C332 C331 1.403 . S
C332 C333 1.404 . S
C332 C335 1.539 . S
C333 C329 1.408 . S
C333 C332 1.404 . S
C333 H345 0.930 . S
C334 C330 1.524 . S
C334 H346 0.956 . S
C334 H347 0.961 . S
C334 H348 0.961 . S
C335 C332 1.539 . S
C335 H349 0.958 . S
C335 H350 0.961 . S
C335 H351 0.960 . S
H336 C320 0.931 . S
H337 C325 0.929 . S
H338 C326 0.960 . S
H339 C326 0.962 . S
H340 C326 0.960 . S
H341 C327 0.961 . S
H342 C327 0.961 . S
H343 C327 0.961 . S
H344 C328 0.931 . S
H345 C333 0.930 . S
H346 C334 0.956 . S
H347 C334 0.961 . S
H348 C334 0.961 . S
H349 C335 0.958 . S
H350 C335 0.961 . S
H351 C335 0.960 . S
C352 C353 1.391 1_556 S
C352 C354 1.394 . S
C352 H368 0.931 . S
C353 C352 1.391 1_554 S
C353 C357 1.376 . S
C354 C352 1.394 . S
C354 C355 1.369 . S
C354 C358 1.531 . S
C355 C354 1.369 . S
C355 C356 1.410 . S
C355 C363 1.503 . S
C356 C355 1.410 . S
C356 C357 1.392 1_556 S
C356 C359 1.511 1_556 S
C357 C353 1.376 . S
C357 C356 1.392 1_554 S
C357 H369 0.929 . S
C358 C354 1.531 . S
C358 H370 0.960 . S
C358 H371 0.962 . S
C358 H372 0.960 . S
C359 C356 1.511 1_554 S
C359 H373 0.961 . S
C359 H374 0.961 1_554 S
C359 H375 0.961 . S
C360 C361 1.370 . S
C360 C362 1.363 . S
C360 H376 0.931 . S
C361 C360 1.370 . S
C361 C365 1.408 . S
C362 C360 1.363 . S
C362 C363 1.370 . S
C362 C366 1.524 . S
C363 C355 1.503 . S
C363 C362 1.370 . S
C363 C364 1.403 . S
C364 C363 1.403 . S
C364 C365 1.404 . S
C364 C367 1.539 . S
C365 C361 1.408 . S
C365 C364 1.404 . S
C365 H377 0.930 . S
C366 C362 1.524 . S
C366 H378 0.956 . S
C366 H379 0.961 . S
C366 H380 0.961 . S
C367 C364 1.539 . S
C367 H381 0.958 . S
C367 H382 0.961 . S
C367 H383 0.960 . S
H368 C352 0.931 . S
H369 C357 0.929 . S
H370 C358 0.960 . S
H371 C358 0.962 . S
H372 C358 0.960 . S
H373 C359 0.961 . S
H374 C359 0.961 1_556 S
H375 C359 0.961 . S
H376 C360 0.931 . S
H377 C365 0.930 . S
H378 C366 0.956 . S
H379 C366 0.961 . S
H380 C366 0.961 . S
H381 C367 0.958 . S
H382 C367 0.961 . S
H383 C367 0.960 . S
C384 C385 1.391 . S
C384 C386 1.394 . S
C384 H400 0.931 . S
C385 C384 1.391 . S
C385 C389 1.376 . S
C386 C384 1.394 . S
C386 C387 1.369 . S
C386 C390 1.531 . S
C387 C386 1.369 . S
C387 C388 1.410 . S
C387 C395 1.503 . S
C388 C387 1.410 . S
C388 C389 1.392 . S
C388 C391 1.511 . S
C389 C385 1.376 . S
C389 C388 1.392 . S
C389 H401 0.929 . S
C390 C386 1.531 . S
C390 H402 0.960 . S
C390 H403 0.962 . S
C390 H404 0.960 . S
C391 C388 1.511 . S
C391 H405 0.961 . S
C391 H406 0.961 . S
C391 H407 0.961 . S
C392 C393 1.370 . S
C392 C394 1.363 . S
C392 H408 0.931 . S
C393 C392 1.370 . S
C393 C397 1.408 . S
C394 C392 1.363 . S
C394 C395 1.370 . S
C394 C398 1.524 . S
C395 C387 1.503 . S
C395 C394 1.370 . S
C395 C396 1.403 . S
C396 C395 1.403 . S
C396 C397 1.404 . S
C396 C399 1.539 . S
C397 C393 1.408 . S
C397 C396 1.404 . S
C397 H409 0.930 . S
C398 C394 1.524 . S
C398 H410 0.956 . S
C398 H411 0.961 . S
C398 H412 0.961 . S
C399 C396 1.539 . S
C399 H413 0.958 . S
C399 H414 0.961 . S
C399 H415 0.960 . S
H400 C384 0.931 . S
H401 C389 0.929 . S
H402 C390 0.960 . S
H403 C390 0.962 . S
H404 C390 0.960 . S
H405 C391 0.961 . S
H406 C391 0.961 . S
H407 C391 0.961 . S
H408 C392 0.931 . S
H409 C397 0.930 . S
H410 C398 0.956 . S
H411 C398 0.961 . S
H412 C398 0.961 . S
H413 C399 0.958 . S
H414 C399 0.961 . S
H415 C399 0.960 . S
C416 C417 1.391 . S
C416 C418 1.394 . S
C416 H432 0.931 . S
C417 C416 1.391 . S
C417 C421 1.376 1_554 S
C418 C416 1.394 . S
C418 C419 1.369 1_554 S
C418 C422 1.531 . S
C419 C418 1.369 1_556 S
C419 C420 1.410 . S
C419 C427 1.503 . S
C420 C419 1.410 . S
C420 C421 1.392 . S
C420 C423 1.511 . S
C421 C417 1.376 1_556 S
C421 C420 1.392 . S
C421 H433 0.929 . S
C422 C418 1.531 . S
C422 H434 0.960 . S
C422 H435 0.962 . S
C422 H436 0.960 . S
C423 C420 1.511 . S
C423 H437 0.961 . S
C423 H438 0.961 . S
C423 H439 0.961 . S
C424 C425 1.370 . S
C424 C426 1.363 . S
C424 H440 0.931 . S
C425 C424 1.370 . S
C425 C429 1.408 . S
C426 C424 1.363 . S
C426 C427 1.370 . S
C426 C430 1.524 . S
C427 C419 1.503 . S
C427 C426 1.370 . S
C427 C428 1.403 . S
C428 C427 1.403 . S
C428 C429 1.404 . S
C428 C431 1.539 . S
C429 C425 1.408 . S
C429 C428 1.404 . S
C429 H441 0.930 . S
C430 C426 1.524 . S
C430 H442 0.956 . S
C430 H443 0.961 . S
C430 H444 0.961 . S
C431 C428 1.539 . S
C431 H445 0.958 1_556 S
C431 H446 0.961 . S
C431 H447 0.960 . S
H432 C416 0.931 . S
H433 C421 0.929 . S
H434 C422 0.960 . S
H435 C422 0.962 . S
H436 C422 0.960 . S
H437 C423 0.961 . S
H438 C423 0.961 . S
H439 C423 0.961 . S
H440 C424 0.931 . S
H441 C429 0.930 . S
H442 C430 0.956 . S
H443 C430 0.961 . S
H444 C430 0.961 . S
H445 C431 0.958 1_554 S
H446 C431 0.961 . S
H447 C431 0.960 . S
C448 C449 1.391 . S
C448 C450 1.394 . S
C448 H464 0.931 . S
C449 C448 1.391 . S
C449 C453 1.376 . S
C450 C448 1.394 . S
C450 C451 1.369 . S
C450 C454 1.531 . S
C451 C450 1.369 . S
C451 C452 1.410 . S
C451 C459 1.503 . S
C452 C451 1.410 . S
C452 C453 1.392 . S
C452 C455 1.511 . S
C453 C449 1.376 . S
C453 C452 1.392 . S
C453 H465 0.929 . S
C454 C450 1.531 . S
C454 H466 0.960 . S
C454 H467 0.962 . S
C454 H468 0.960 . S
C455 C452 1.511 . S
C455 H469 0.961 . S
C455 H470 0.961 . S
C455 H471 0.961 . S
C456 C457 1.370 . S
C456 C458 1.363 . S
C456 H472 0.931 . S
C457 C456 1.370 . S
C457 C461 1.408 . S
C458 C456 1.363 . S
C458 C459 1.370 . S
C458 C462 1.524 . S
C459 C451 1.503 . S
C459 C458 1.370 . S
C459 C460 1.403 . S
C460 C459 1.403 . S
C460 C461 1.404 . S
C460 C463 1.539 . S
C461 C457 1.408 . S
C461 C460 1.404 . S
C461 H473 0.930 . S
C462 C458 1.524 . S
C462 H474 0.956 . S
C462 H475 0.961 . S
C462 H476 0.961 . S
C463 C460 1.539 . S
C463 H477 0.958 . S
C463 H478 0.961 . S
C463 H479 0.960 . S
H464 C448 0.931 . S
H465 C453 0.929 . S
H466 C454 0.960 . S
H467 C454 0.962 . S
H468 C454 0.960 . S
H469 C455 0.961 . S
H470 C455 0.961 . S
H471 C455 0.961 . S
H472 C456 0.931 . S
H473 C461 0.930 . S
H474 C462 0.956 . S
H475 C462 0.961 . S
H476 C462 0.961 . S
H477 C463 0.958 . S
H478 C463 0.961 . S
H479 C463 0.960 . S
C97 C8 1.400 . S
C105 C80 1.397 . S
C137 C74 1.752 . S
C129 C29 1.709 . S
C169 C48 1.422 . S
C161 C10 1.442 . S
C201 C94 1.941 . S
C193 C37 2.012 . S
C233 C89 0.245 . S
C225 C18 0.352 . S
C257 C43 1.918 . S
C265 C70 1.869 . S
C289 C21 1.914 . S
C297 C76 1.866 . S
C321 C40 0.226 . S
C329 C83 0.306 . S
C353 C15 2.008 . S
C361 C92 1.936 . S
C385 C32 1.441 . S
C393 C62 1.433 . S
C425 C78 1.750 . S
C417 C7 1.716 . S
C449 C30 1.389 . S
C457 C86 1.393 . S
