# Generated by pormake.
# Topology tsx, (6,3)-cn, num edge types: 1
# Building blocks:
#     Node 0, Type 0, BuildingBlock: LEVNOQ01_clean_sbu_1, # of connection points: 6
#     Node 1, Type 0, BuildingBlock: LEVNOQ01_clean_sbu_1, # of connection points: 6
#     Node 2, Type 1, BuildingBlock: WUSLED_clean_sbu_0, # of connection points: 3
#     Node 3, Type 1, BuildingBlock: WUSLED_clean_sbu_0, # of connection points: 3
#     Node 4, Type 1, BuildingBlock: WUSLED_clean_sbu_0, # of connection points: 3
#     Node 5, Type 1, BuildingBlock: WUSLED_clean_sbu_0, # of connection points: 3
#     Edge 6, Type (0, 1), BuildingBlock: FUNLAD_clean_linker_1, # of connection points: 2
#     Edge 7, Type (0, 1), BuildingBlock: FUNLAD_clean_linker_1, # of connection points: 2
#     Edge 8, Type (0, 1), BuildingBlock: FUNLAD_clean_linker_1, # of connection points: 2
#     Edge 9, Type (0, 1), BuildingBlock: FUNLAD_clean_linker_1, # of connection points: 2
#     Edge 10, Type (0, 1), BuildingBlock: FUNLAD_clean_linker_1, # of connection points: 2
#     Edge 11, Type (0, 1), BuildingBlock: FUNLAD_clean_linker_1, # of connection points: 2
#     Edge 12, Type (0, 1), BuildingBlock: FUNLAD_clean_linker_1, # of connection points: 2
#     Edge 13, Type (0, 1), BuildingBlock: FUNLAD_clean_linker_1, # of connection points: 2
#     Edge 14, Type (0, 1), BuildingBlock: FUNLAD_clean_linker_1, # of connection points: 2
#     Edge 15, Type (0, 1), BuildingBlock: FUNLAD_clean_linker_1, # of connection points: 2
#     Edge 16, Type (0, 1), BuildingBlock: FUNLAD_clean_linker_1, # of connection points: 2
#     Edge 17, Type (0, 1), BuildingBlock: FUNLAD_clean_linker_1, # of connection points: 2
# Relax obj value: 0.123
# Max RMSD: 0.154
# Mean RMSD: 0.115
data_MOF--net-tsx--node1-LEVNOQ01_clean_sbu_1--node2-WUSLED_clean_sbu_0--edge1-FUNLAD_clean_linker_1
_symmetry_space_group_name_H-M    P1
_symmetry_Int_Tables_number       1
_symmetry_cell_setting            triclinic
loop_
_symmetry_equiv_pos_as_xyz
'x, y, z'
_cell_length_a     24.303376
_cell_length_b     29.666516
_cell_length_c     48.978753
_cell_angle_alpha  97.76385
_cell_angle_beta   90.922286
_cell_angle_gamma 90.259141
loop_
_atom_site_label
_atom_site_type_symbol
_atom_site_fract_x
_atom_site_fract_y
_atom_site_fract_z
_atom_type_partial_charge
O0 O 0.13129 0.05652 0.07954 0.0
Mg1 Mg 0.1605 0.05444 0.03926 0.0
O2 O 0.04554 0.04474 0.0642 0.0
Mg3 Mg 0.04544 0.04306 0.01588 0.0
O4 O 0.11797 0.0962 0.01629 0.0
O5 O 0.20496 0.10866 0.03147 0.0
O6 O 0.04522 0.0405 0.96763 0.0
O7 O 0.98993 0.10914 0.02097 0.0
Mg8 Mg 0.92654 0.02462 0.99044 0.0
O9 O 0.97279 0.99186 0.01644 0.0
O10 O 0.96212 0.01888 0.95128 0.0
O11 O 0.90371 0.08927 0.00924 0.0
O12 O 0.88818 0.96939 0.00216 0.0
C13 C 0.14922 0.9636 0.00971 0.0
C14 C 0.0809 0.05028 0.08401 0.0
C15 C 0.16233 0.12146 0.01851 0.0
C16 C 1.01164 0.02949 0.94743 0.0
C17 C 0.939 0.11908 0.01859 0.0
C18 C 0.93189 0.9635 0.01657 0.0
O19 O 0.18618 0.99187 0.01902 0.0
O20 O 0.09897 0.97591 0.00894 0.0
O21 O 0.65298 0.53109 0.56521 0.0
Mg22 Mg 0.67267 0.5452 0.52504 0.0
O23 O 0.56402 0.53965 0.55771 0.0
Mg24 Mg 0.565 0.53685 0.51 0.0
O25 O 0.63047 0.59756 0.51173 0.0
O26 O 0.71894 0.60166 0.52602 0.0
O27 O 0.57144 0.53374 0.46158 0.0
O28 O 0.50433 0.59872 0.51297 0.0
Mg29 Mg 0.45941 0.50759 0.47818 0.0
O30 O 0.49533 0.48254 0.51082 0.0
O31 O 0.50193 0.49313 0.44154 0.0
O32 O 0.42957 0.57421 0.48886 0.0
O33 O 0.41708 0.45489 0.49009 0.0
C34 C 0.66877 0.46193 0.49555 0.0
C35 C 0.60414 0.53363 0.57394 0.0
C36 C 0.67637 0.62047 0.5164 0.0
C37 C 0.5472 0.51348 0.43997 0.0
C38 C 0.45644 0.60585 0.50333 0.0
C39 C 0.4544 0.4538 0.50906 0.0
O40 O 0.70186 0.49446 0.49521 0.0
O41 O 0.62064 0.46991 0.505 0.0
C42 C 0.94272 0.08405 0.47103 0.0
C43 C 0.92531 0.11017 0.45069 0.0
C44 C 0.86357 0.15292 0.4831 0.0
C45 C 0.88615 0.14426 0.45663 0.0
C46 C 0.88024 0.12597 0.50323 0.0
C47 C 0.91974 0.09192 0.49729 0.0
U48 U 0.01866 0.00849 0.4168 0.0
O49 O 0.10584 0.98869 0.41322 0.0
O50 O 0.04131 0.93633 0.41248 0.0
C51 C 0.09443 0.94529 0.41312 0.0
C52 C 0.98372 0.04803 0.46444 0.0
C53 C 0.12947 0.92043 0.43094 0.0
C54 C 0.14076 0.86738 0.4644 0.0
C55 C 0.10708 0.89539 0.45055 0.0
C56 C 0.21993 0.89055 0.44021 0.0
C57 C 0.19741 0.86414 0.45917 0.0
C58 C 0.18626 0.91835 0.42631 0.0
C59 C 0.97617 0.02526 0.34186 0.0
C60 C 0.02566 0.01769 0.29866 0.0
C61 C 0.92612 0.02101 0.29823 0.0
C62 C 0.92641 0.02441 0.32695 0.0
C63 C 0.97558 0.01821 0.2837 0.0
C64 C 0.02588 0.0211 0.32751 0.0
C65 C 0.97442 0.03433 0.37221 0.0
O66 O 0.96372 0.00911 0.45221 0.0
O67 O 0.02856 0.06088 0.45286 0.0
O68 O 0.01764 0.0544 0.38513 0.0
O69 O 0.95328 1.00205 0.3848 0.0
H70 H 0.94187 0.10401 0.43012 0.0
H71 H 0.87304 0.16306 0.44025 0.0
H72 H 0.86308 0.13158 0.52368 0.0
H73 H 0.93225 0.07173 0.51316 0.0
H74 H 0.12221 0.84725 0.47874 0.0
H75 H 0.06338 0.89626 0.45458 0.0
H76 H 0.26293 0.88831 0.4349 0.0
H77 H 0.20436 0.93697 0.41109 0.0
H78 H 0.06482 0.01646 0.28844 0.0
H79 H 0.88699 0.02166 0.28738 0.0
H80 H 0.8876 0.02777 0.3376 0.0
H81 H 0.0649 0.02182 0.33858 0.0
C82 C 0.96108 0.99529 0.55613 0.0
C83 C 0.91411 0.98774 0.57131 0.0
C84 C 0.8875 0.92344 0.53725 0.0
C85 C 0.87752 0.95228 0.56191 0.0
C86 C 0.93415 0.93144 0.522 0.0
C87 C 0.97037 0.96727 0.53123 0.0
U88 U 0.04557 0.05531 0.61614 0.0
O89 O 0.13306 0.07439 0.61968 0.0
O90 O 0.06981 0.12707 0.62766 0.0
C91 C 0.1226 0.11801 0.62567 0.0
C92 C 1.00274 0.02976 0.56696 0.0
C93 C 0.15608 0.14931 0.61191 0.0
C94 C 0.20612 0.16888 0.57258 0.0
C95 C 0.17152 0.1391 0.58429 0.0
C96 C 0.20912 0.21947 0.61577 0.0
C97 C 0.22603 0.20904 0.5883 0.0
C98 C 0.17471 0.18976 0.62741 0.0
C99 C 0.02929 0.02364 0.68755 0.0
C100 C 0.09454 0.05234 0.72398 0.0
C101 C 1.01163 0.01326 0.73492 0.0
C102 C 0.99591 0.00715 0.70706 0.0
C103 C 0.06106 0.03622 0.7437 0.0
C104 C 0.0786 0.04645 0.69616 0.0
C105 C 1.01253 0.01718 0.65831 0.0
O106 O 0.98488 0.06498 0.58364 0.0
O107 O 0.04896 0.01318 0.5756 0.0
O108 O 0.05019 0.99934 0.64122 0.0
O109 O 0.9874 0.052 0.64983 0.0
H110 H 0.90646 0.00839 0.59084 0.0
H111 H 0.84297 0.94635 0.57466 0.0
H112 H 0.94309 0.90946 0.5031 0.0
H113 H 1.00651 0.97229 0.5193 0.0
H114 H 0.21775 0.16034 0.55125 0.0
H115 H 0.15728 0.10808 0.57192 0.0
H116 H 0.22157 0.25074 0.62836 0.0
H117 H 0.16281 0.19831 0.64871 0.0
H118 H 0.13293 0.06979 0.73012 0.0
H119 H 0.98553 0.99909 0.74934 0.0
H120 H 0.95785 0.9893 0.70073 0.0
H121 H 0.10485 0.05956 0.68133 0.0
C122 C 0.47751 0.60918 0.96187 0.0
C123 C 0.47233 0.63877 0.94188 0.0
C124 C 0.40182 0.68169 0.96864 0.0
C125 C 0.43533 0.67488 0.9454 0.0
C126 C 0.40654 0.6517 0.98856 0.0
C127 C 0.44414 0.61573 0.98515 0.0
U128 U 0.55065 0.52263 0.91275 0.0
O129 O 0.63666 0.50038 0.90982 0.0
O130 O 0.571 0.45039 0.91346 0.0
C131 C 0.62426 0.45806 0.91263 0.0
C132 C 0.5166 0.571 0.95797 0.0
C133 C 0.65984 0.43521 0.93127 0.0
C134 C 0.73608 0.436 0.96425 0.0
C135 C 0.6977 0.45936 0.94983 0.0
C136 C 0.69814 0.36422 0.9425 0.0
C137 C 0.73727 0.38817 0.96055 0.0
C138 C 0.65992 0.38755 0.92815 0.0
C139 C 0.50963 0.52805 0.83617 0.0
C140 C 0.55994 0.50935 0.79361 0.0
C141 C 0.46145 0.52095 0.79196 0.0
C142 C 0.46077 0.52889 0.8207 0.0
C143 C 0.51108 0.5123 0.77798 0.0
C144 C 0.55918 0.5173 0.82249 0.0
C145 C 0.5076 0.54173 0.86619 0.0
O146 O 0.49486 0.53135 0.94815 0.0
O147 O 0.56287 0.57954 0.94601 0.0
O148 O 0.55128 0.5626 0.87814 0.0
O149 O 0.48549 0.51235 0.88066 0.0
H150 H 0.49709 0.63409 0.92352 0.0
H151 H 0.43272 0.6975 0.92981 0.0
H152 H 0.38235 0.65649 0.00707 0.0
H153 H 0.44734 0.59316 1.00075 0.0
H154 H 0.7658 0.45541 0.97785 0.0
H155 H 0.69884 0.4962 0.9526 0.0
H156 H 0.6981 0.32753 0.93826 0.0
H157 H 0.63167 0.36817 0.91367 0.0
H158 H 0.59892 0.50143 0.78385 0.0
H159 H 0.42312 0.52304 0.78061 0.0
H160 H 0.42208 0.53699 0.83087 0.0
H161 H 0.59738 0.51599 0.83405 0.0
C162 C 0.44639 0.48656 0.05777 0.0
C163 C 0.42551 0.46259 0.07816 0.0
C164 C 0.36478 0.41882 0.04436 0.0
C165 C 0.38529 0.429 0.07149 0.0
C166 C 0.38514 0.44358 0.02399 0.0
C167 C 0.42567 0.47722 0.03071 0.0
U168 U 0.54234 0.54718 0.11162 0.0
O169 O 0.63157 0.56046 0.11172 0.0
O170 O 0.57369 0.61735 0.11974 0.0
C171 C 0.62528 0.6048 0.11647 0.0
C172 C 0.49145 0.51959 0.06467 0.0
C173 C 0.661 0.63251 0.10117 0.0
C174 C 0.67484 0.69333 0.07331 0.0
C175 C 0.63964 0.66325 0.08437 0.0
C176 C 0.75315 0.6611 0.09477 0.0
C177 C 0.73177 0.69348 0.07902 0.0
C178 C 0.71801 0.63116 0.10582 0.0
C179 C 0.53195 0.52362 0.185 0.0
C180 C 0.59945 0.5571 0.21901 0.0
C181 C 0.52329 0.51284 0.23293 0.0
C182 C 0.50382 0.50529 0.20568 0.0
C183 C 0.57118 0.5392 0.23994 0.0
C184 C 0.57983 0.54963 0.19178 0.0
C185 C 0.51147 0.51546 0.15641 0.0
O186 O 0.47809 0.55695 0.08075 0.0
O187 O 0.53773 0.50177 0.07228 0.0
O188 O 0.54573 0.49396 0.13876 0.0
O189 O 0.48825 0.55069 0.14742 0.0
H190 H 0.44116 0.46929 0.09917 0.0
H191 H 0.37068 0.41042 0.08757 0.0
H192 H 0.37145 0.43623 0.00274 0.0
H193 H 0.44162 0.49527 0.01469 0.0
H194 H 0.6573 0.71746 0.06093 0.0
H195 H 0.59578 0.66493 0.08039 0.0
H196 H 0.79682 0.65881 0.09886 0.0
H197 H 0.73535 0.60761 0.11867 0.0
H198 H 0.63664 0.57709 0.22376 0.0
H199 H 0.50132 0.49712 0.24824 0.0
H200 H 0.46703 0.48486 0.20072 0.0
H201 H 0.6021 0.56399 0.17597 0.0
H202 H 0.1262 0.18044 1.00087 0.0
C203 C 0.1636 0.16666 0.00882 0.0
H204 H 0.2476 0.1775 0.01954 0.0
H205 H 0.32909 0.33782 0.96753 0.0
H206 H 0.35277 0.27845 0.93056 0.0
H207 H 0.3126 0.20141 0.92809 0.0
H208 H 0.24851 0.18327 0.9628 0.0
C209 C 0.21003 0.19202 0.01226 0.0
C210 C 0.21486 0.24033 0.00753 0.0
C211 C 0.2503 0.25108 0.98664 0.0
C212 C 0.27286 0.29565 0.9879 0.0
C213 C 0.31033 0.30467 0.96745 0.0
C214 C 0.32428 0.27089 0.94611 0.0
C215 C 0.30172 0.22749 0.94474 0.0
C216 C 0.26527 0.21746 0.96478 0.0
H217 H 0.32304 0.35634 0.05317 0.0
C218 C 0.32539 0.3801 0.03811 0.0
H219 H 0.29368 0.39467 0.99967 0.0
H220 H 0.14097 0.23322 0.04848 0.0
H221 H 0.11144 0.29403 0.08317 0.0
H222 H 0.14745 0.37214 0.08405 0.0
H223 H 0.21395 0.38965 0.05036 0.0
C224 C 0.29319 0.37207 0.0153 0.0
C225 C 0.2596 0.32941 0.01008 0.0
C226 C 0.21854 0.32023 0.02888 0.0
C227 C 0.19663 0.27545 0.02786 0.0
C228 C 0.15842 0.26665 0.04802 0.0
C229 C 0.14105 0.30131 0.06805 0.0
C230 C 0.16137 0.34528 0.06857 0.0
C231 C 0.19969 0.35483 0.04926 0.0
H232 H 0.13216 0.89042 0.99552 0.0
C233 C 0.16447 0.91551 1.00127 0.0
H234 H 0.24946 0.92725 0.00879 0.0
H235 H 0.3262 0.74225 0.03905 0.0
H236 H 0.32032 0.78558 0.08453 0.0
H237 H 0.27416 0.86005 0.09125 0.0
H238 H 0.23396 0.89179 0.05246 0.0
C239 C 0.21737 0.90233 0.00219 0.0
C240 C 0.23464 0.85384 0.99836 0.0
C241 C 0.25657 0.83506 0.02132 0.0
C242 C 0.28229 0.79175 0.0175 0.0
C243 C 0.30551 0.77468 0.04074 0.0
C244 C 0.3025 0.79924 0.067 0.0
C245 C 0.2766 0.84119 0.07079 0.0
C246 C 0.25389 0.85908 0.04831 0.0
H247 H 0.37602 0.75056 0.96152 0.0
C248 C 0.36486 0.72179 0.97196 0.0
H249 H 0.30533 0.69601 0.99698 0.0
H250 H 0.19507 0.87911 0.95002 0.0
H251 H 0.19589 0.83383 0.90493 0.0
H252 H 0.23555 0.75678 0.89876 0.0
H253 H 0.27543 0.72483 0.93761 0.0
C254 C 0.31826 0.7242 0.98655 0.0
C255 C 0.28566 0.76704 0.99072 0.0
C256 C 0.26019 0.78438 0.96803 0.0
C257 C 0.23547 0.82819 0.97176 0.0
C258 C 0.21316 0.84566 0.9485 0.0
C259 C 0.21345 0.82004 0.92247 0.0
C260 C 0.23591 0.7767 0.91898 0.0
C261 C 0.259 0.75889 0.94142 0.0
H262 H 0.97148 0.91793 0.04369 0.0
C263 C 0.93403 0.92465 0.03256 0.0
H264 H 0.85263 0.9039 0.02119 0.0
H265 H 0.84755 0.70127 0.03075 0.0
H266 H 0.87165 0.69621 0.98249 0.0
H267 H 0.90409 0.76397 0.96308 0.0
H268 H 0.91293 0.83718 0.99193 0.0
C269 C 0.88953 0.8975 0.03285 0.0
C270 C 0.88767 0.8557 0.04636 0.0
C271 C 0.88357 0.81313 0.02945 0.0
C272 C 0.86419 0.77429 0.04052 0.0
C273 C 0.86063 0.73213 0.02315 0.0
C274 C 0.87473 0.72869 0.99549 0.0
C275 C 0.89302 0.76684 0.98457 0.0
C276 C 0.8976 0.80864 1.00127 0.0
H277 H 0.74994 0.74582 0.05224 0.0
C278 C 0.76715 0.72808 0.06843 0.0
H279 H 0.8349 0.72624 0.09615 0.0
H280 H 0.89874 0.93079 0.08517 0.0
H281 H 0.87784 0.93538 0.13377 0.0
H282 H 0.84466 0.86793 0.15319 0.0
H283 H 0.83105 0.79569 0.12406 0.0
C284 C 0.81754 0.74066 0.07876 0.0
C285 C 0.84824 0.77836 0.06845 0.0
C286 C 0.85797 0.81978 0.08606 0.0
C287 C 0.87753 0.85866 0.07493 0.0
C288 C 0.88413 0.90026 0.09259 0.0
C289 C 0.87233 0.90333 0.12052 0.0
C290 C 0.85366 0.86533 0.13146 0.0
C291 C 0.84617 0.82403 0.11451 0.0
H292 H 0.87649 0.17098 0.0285 0.0
C293 C 0.91955 0.16633 0.0231 0.0
H294 H 0.98695 0.1942 0.00463 0.0
H295 H 0.81975 0.28854 0.92984 0.0
H296 H 0.86968 0.23708 0.8964 0.0
H297 H 0.93925 0.18504 0.9115 0.0
H298 H 0.96025 0.18469 0.95991 0.0
C299 C 0.94559 0.19979 0.01245 0.0
C300 C 0.91217 0.23749 0.00347 0.0
C301 C 0.9015 0.23794 0.9749 0.0
C302 C 0.86056 0.26728 0.96617 0.0
C303 C 0.84996 0.26652 0.93758 0.0
C304 C 0.87839 0.23725 0.91816 0.0
C305 C 0.91768 0.20805 0.92666 0.0
C306 C 0.92927 0.20821 0.95462 0.0
H307 H 0.81883 0.38437 0.98124 0.0
C308 C 0.78241 0.36462 0.97394 0.0
H309 H 0.74549 0.29914 0.9701 0.0
H310 H 0.92917 0.25055 0.05915 0.0
H311 H 0.87903 0.3022 0.09261 0.0
H312 H 0.80596 0.35127 0.07753 0.0
H313 H 0.78276 0.34934 0.02896 0.0
C314 C 0.78119 0.32007 0.97664 0.0
C315 C 0.83025 0.29598 0.98592 0.0
C316 C 0.84337 0.29771 0.01433 0.0
C317 C 0.88476 0.26873 0.02309 0.0
C318 C 0.89724 0.27118 0.05155 0.0
C319 C 0.869 0.30078 0.0709 0.0
C320 C 0.8279 0.32847 0.0624 0.0
C321 C 0.815 0.32706 0.03447 0.0
H322 H 0.64186 0.68699 0.50856 0.0
C323 C 0.67925 0.6693 0.51312 0.0
H324 H 0.76424 0.67484 0.52293 0.0
H325 H 0.79218 0.86633 0.48061 0.0
H326 H 0.78742 0.82336 0.43471 0.0
H327 H 0.75707 0.74306 0.42783 0.0
H328 H 0.73061 0.70537 0.46683 0.0
C329 C 0.72697 0.69244 0.51807 0.0
C330 C 0.73138 0.74278 0.52082 0.0
C331 C 0.74668 0.7642 0.49795 0.0
C332 C 0.76546 0.81016 0.50203 0.0
C333 C 0.77943 0.83105 0.47874 0.0
C334 C 0.77646 0.80687 0.4523 0.0
C335 C 0.7593 0.76166 0.44841 0.0
C336 C 0.74447 0.74039 0.47092 0.0
H337 H 0.87351 0.85309 0.51703 0.0
C338 C 0.85331 0.88225 0.52842 0.0
H339 H 0.77832 0.90764 0.54532 0.0
H340 H 0.69623 0.71376 0.56822 0.0
H341 H 0.69833 0.75698 0.61401 0.0
H342 H 0.73347 0.83591 0.62151 0.0
H343 H 0.76642 0.87216 0.58339 0.0
C344 C 0.79968 0.87878 0.5344 0.0
C345 C 0.77026 0.83409 0.52911 0.0
C346 C 0.75022 0.81385 0.55168 0.0
C347 C 0.7306 0.76815 0.54747 0.0
C348 C 0.71201 0.74825 0.57038 0.0
C349 C 0.71287 0.77269 0.59674 0.0
C350 C 0.73258 0.81715 0.60095 0.0
C351 C 0.75129 0.8376 0.57881 0.0
H352 H 0.7264 0.41181 0.47548 0.0
C353 C 0.68936 0.41546 0.48774 0.0
H354 H 0.6354 0.38238 0.51216 0.0
H355 H 0.76318 0.21475 0.43275 0.0
H356 H 0.69806 0.23106 0.39736 0.0
H357 H 0.63358 0.29522 0.40605 0.0
H358 H 0.63369 0.34337 0.45033 0.0
C359 C 0.66976 0.37911 0.49812 0.0
C360 C 0.70168 0.33602 0.49436 0.0
C361 C 0.7008 0.30793 0.46858 0.0
C362 C 0.73813 0.27104 0.4636 0.0
C363 C 0.73622 0.24355 0.43759 0.0
C364 C 0.69891 0.25244 0.41711 0.0
C365 C 0.6626 0.28856 0.422 0.0
C366 C 0.66326 0.31604 0.44743 0.0
H367 H 0.79356 0.18531 0.50665 0.0
C368 C 0.82177 0.18899 0.49007 0.0
H369 H 0.84751 0.23185 0.46145 0.0
H370 H 0.71015 0.38067 0.54686 0.0
H371 H 0.77634 0.36583 0.58213 0.0
H372 H 0.84447 0.30453 0.57287 0.0
H373 H 0.84651 0.25745 0.52853 0.0
C374 C 0.8192 0.22682 0.47769 0.0
C375 C 0.7765 0.26238 0.48439 0.0
C376 C 0.77634 0.28984 0.51051 0.0
C377 C 0.7381 0.32611 0.51562 0.0
C378 C 0.73868 0.35301 0.54182 0.0
C379 C 0.77643 0.34488 0.56225 0.0
C380 C 0.8147 0.3103 0.55705 0.0
C381 C 0.81507 0.28319 0.5315 0.0
H382 H 0.46026 0.4323 0.55069 0.0
C383 C 0.4467 0.42215 0.52949 0.0
H384 H 0.40285 0.37529 0.50112 0.0
H385 H 0.39237 0.25592 0.60509 0.0
H386 H 0.49224 0.25603 0.60613 0.0
H387 H 0.54483 0.30343 0.57791 0.0
H388 H 0.49788 0.35117 0.54855 0.0
C389 C 0.41591 0.38442 0.52251 0.0
C390 C 0.38646 0.36084 0.54292 0.0
C391 C 0.41468 0.33323 0.55993 0.0
C392 C 0.38426 0.30557 0.57603 0.0
C393 C 0.41335 0.27771 0.59254 0.0
C394 C 0.47068 0.27737 0.59328 0.0
C395 C 0.50029 0.30408 0.57739 0.0
C396 C 0.47284 0.33149 0.56071 0.0
H397 H 0.26194 0.23654 0.55268 0.0
C398 C 0.26205 0.24021 0.57509 0.0
H399 H 0.29847 0.27582 0.61147 0.0
H400 H 0.31978 0.41484 0.51548 0.0
H401 H 0.22032 0.41809 0.51657 0.0
H402 H 0.16789 0.3713 0.54519 0.0
H403 H 0.2147 0.32081 0.57269 0.0
C404 C 0.29407 0.27286 0.58923 0.0
C405 C 0.32588 0.30525 0.57474 0.0
C406 C 0.29783 0.33556 0.55938 0.0
C407 C 0.32812 0.36302 0.54326 0.0
C408 C 0.29897 0.39269 0.52786 0.0
C409 C 0.2418 0.39518 0.52844 0.0
C410 C 0.21229 0.36883 0.54452 0.0
C411 C 0.23974 0.33957 0.55999 0.0
H412 H 0.45927 0.68052 0.51642 0.0
C413 C 0.43395 0.65253 0.5065 0.0
H414 H 0.36081 0.63333 0.48391 0.0
H415 H 0.26761 0.8351 0.52582 0.0
H416 H 0.26158 0.80997 0.57088 0.0
H417 H 0.3037 0.73776 0.57985 0.0
H418 H 0.3525 0.69033 0.54385 0.0
C419 C 0.38539 0.66109 0.49467 0.0
C420 C 0.36732 0.70773 0.4911 0.0
C421 C 0.33903 0.73494 0.51231 0.0
C422 C 0.31384 0.77617 0.50696 0.0
C423 C 0.28635 0.80299 0.5286 0.0
C424 C 0.28285 0.78907 0.55458 0.0
C425 C 0.30663 0.74842 0.55964 0.0
C426 C 0.33445 0.72151 0.53882 0.0
H427 H 0.20819 0.80118 0.47823 0.0
C428 C 0.23035 0.82956 0.47151 0.0
H429 H 0.30941 0.85798 0.46726 0.0
H430 H 0.42296 0.66546 0.44676 0.0
H431 H 0.42899 0.69031 0.40171 0.0
H432 H 0.38414 0.76104 0.39211 0.0
H433 H 0.33269 0.8072 0.42741 0.0
C434 C 0.2857 0.83012 0.47344 0.0
C435 C 0.31645 0.78967 0.4803 0.0
C436 C 0.34711 0.7635 0.45949 0.0
C437 C 0.37256 0.72252 0.46492 0.0
C438 C 0.4023 0.69665 0.44366 0.0
C439 C 0.40632 0.71061 0.41773 0.0
C440 C 0.38106 0.75042 0.41233 0.0
C441 C 0.3517 0.77666 0.43285 0.0
H442 H 0.09645 0.05842 0.12861 0.0
C443 C 0.06514 0.04853 0.11277 0.0
H444 H 0.98573 0.01988 0.10481 0.0
H445 H 1.00507 0.92621 0.21451 0.0
H446 H 1.00167 0.86063 0.17897 0.0
H447 H 1.00182 0.87038 0.12974 0.0
H448 H 1.00458 0.94569 0.11569 0.0
C449 C 0.01667 0.03254 0.12025 0.0
C450 C 1.00812 0.02687 0.14971 0.0
C451 C 1.00626 0.98261 0.15756 0.0
C452 C 1.00704 0.97696 0.18598 0.0
C453 C 1.00518 0.93238 0.19323 0.0
C454 C 1.0032 0.89447 0.17305 0.0
C455 C 1.00334 0.89996 0.14533 0.0
C456 C 1.00493 0.94341 0.13755 0.0
H457 H 0.93446 0.03093 0.24484 0.0
C458 C 0.97281 0.0197 0.25342 0.0
H459 H 0.05277 0.99535 0.24318 0.0
H460 H 1.00205 0.11616 0.14173 0.0
H461 H 1.00654 0.18187 0.17711 0.0
H462 H 0.01448 0.17226 0.22627 0.0
H463 H 0.01702 0.09712 0.24037 0.0
C464 C 0.01478 0.00939 0.23616 0.0
C465 C 1.00997 0.01553 0.20649 0.0
C466 C 1.00997 0.05988 0.19863 0.0
C467 C 1.00777 0.06549 0.17024 0.0
C468 C 1.00573 0.11006 0.16297 0.0
C469 C 1.00792 0.14804 0.18306 0.0
C470 C 1.0122 0.14263 0.21074 0.0
C471 C 1.01331 0.0992 0.21856 0.0
H472 H 1.00042 0.01239 0.90285 0.0
C473 C 0.02863 0.02873 0.91869 0.0
H474 H 0.10104 0.06887 0.92599 0.0
H475 H 0.08757 0.96392 0.79516 0.0
H476 H 0.12189 0.89861 0.81491 0.0
H477 H 0.13935 0.90297 0.86499 0.0
H478 H 0.12198 0.97291 0.89566 0.0
C479 C 0.07357 0.04977 0.9109 0.0
C480 C 0.08097 0.05166 0.88096 0.0
C481 C 0.09354 0.01144 0.86318 0.0
C482 C 0.08465 0.00934 0.83428 0.0
C483 C 0.0946 0.96782 0.81721 0.0
C484 C 0.1142 0.92999 0.82829 0.0
C485 C 0.12392 0.93241 0.85649 0.0
C486 C 0.11361 0.97256 0.87386 0.0
H487 H 0.12366 0.04599 0.77753 0.0
C488 C 0.07979 0.0422 0.77302 0.0
H489 H 1.00064 0.04356 0.79042 0.0
H490 H 0.06266 0.1361 0.90902 0.0
H491 H 0.03375 0.20323 0.88919 0.0
H492 H 0.0189 0.19997 0.839 0.0
H493 H 0.03314 0.12964 0.80825 0.0
C494 C 0.04481 0.04372 0.79408 0.0
C495 C 0.06429 0.04795 0.82325 0.0
C496 C 0.05692 0.08945 0.8408 0.0
C497 C 0.06558 0.09138 0.86972 0.0
C498 C 0.05659 0.13291 0.8869 0.0
C499 C 0.04011 0.17163 0.87578 0.0
C500 C 0.03175 0.1698 0.84751 0.0
C501 C 0.03992 0.12926 0.83012 0.0
H502 H 0.63237 0.52915 0.61627 0.0
C503 C 0.59573 0.53046 0.60335 0.0
H504 H 0.50864 0.52847 0.60239 0.0
H505 H 0.51895 0.43067 0.71166 0.0
H506 H 0.48607 0.3687 0.67783 0.0
H507 H 0.4779 0.37809 0.62865 0.0
H508 H 0.50309 0.44947 0.61294 0.0
C509 C 0.5461 0.52904 0.61485 0.0
C510 C 0.5423 0.52593 0.64488 0.0
C511 C 0.52584 0.48453 0.65384 0.0
C512 C 0.52956 0.47944 0.68232 0.0
C513 C 0.51548 0.4369 0.69046 0.0
C514 C 0.49689 0.40091 0.67121 0.0
C515 C 0.4924 0.40615 0.6435 0.0
C516 C 0.50695 0.44731 0.63477 0.0
H517 H 0.46941 0.50655 0.73708 0.0
C518 C 0.50962 0.50845 0.74729 0.0
H519 H 0.59489 0.51645 0.741 0.0
H520 H 0.56932 0.61184 0.63498 0.0
H521 H 0.59992 0.67466 0.66878 0.0
H522 H 0.607 0.66593 0.71809 0.0
H523 H 0.58343 0.59445 0.73389 0.0
C524 C 0.5542 0.51143 0.73168 0.0
C525 C 0.54857 0.51623 0.70184 0.0
C526 C 0.5629 0.55824 0.69293 0.0
C527 C 0.55935 0.56319 0.66448 0.0
C528 C 0.57265 0.60586 0.65625 0.0
C529 C 0.58986 0.64233 0.67546 0.0
C530 C 0.5938 0.63743 0.70322 0.0
C531 C 0.58032 0.59607 0.71199 0.0
H532 H 0.54856 0.49277 0.39554 0.0
C533 C 0.56831 0.5154 0.41222 0.0
H534 H 0.62116 0.57224 0.42198 0.0
H535 H 0.62328 0.47219 0.28884 0.0
H536 H 0.67473 0.41197 0.30614 0.0
H537 H 0.69879 0.41646 0.35558 0.0
H538 H 0.67058 0.48137 0.38811 0.0
C539 C 0.60364 0.54719 0.40593 0.0
C540 C 0.60928 0.55307 0.37636 0.0
C541 C 0.62883 0.51661 0.35739 0.0
C542 C 0.61646 0.51484 0.3288 0.0
C543 C 0.63281 0.47613 0.31065 0.0
C544 C 0.66225 0.44115 0.32034 0.0
C545 C 0.67568 0.44362 0.34819 0.0
C546 C 0.65912 0.4808 0.36661 0.0
H547 H 0.63757 0.55449 0.27155 0.0
C548 C 0.59389 0.54689 0.26855 0.0
H549 H 0.51838 0.54123 0.28868 0.0
H550 H 0.57659 0.63242 0.40673 0.0
H551 H 0.53151 0.69581 0.38924 0.0
H552 H 0.5115 0.69365 0.33952 0.0
H553 H 0.53679 0.62805 0.30694 0.0
C554 C 0.56273 0.54501 0.29078 0.0
C555 C 0.58624 0.5506 0.31925 0.0
C556 C 0.57264 0.58961 0.33787 0.0
C557 C 0.5844 0.59096 0.3665 0.0
C558 C 0.56865 0.62967 0.38478 0.0
C559 C 0.54282 0.6663 0.375 0.0
C560 C 0.53159 0.66509 0.347 0.0
C561 C 0.54615 0.62724 0.32855 0.0
loop_
_geom_bond_atom_site_label_1
_geom_bond_atom_site_label_2
_geom_bond_distance
_geom_bond_site_symmetry_2
_ccdc_geom_bond_type
O0 Mg1 1.990 . S
O0 C14 1.253 . S
Mg1 O0 1.990 . S
Mg1 O4 2.180 . S
Mg1 O5 2.117 . S
Mg1 O19 2.030 1_545 S
O2 Mg3 2.072 . S
O2 C14 1.260 . S
Mg3 O2 2.072 . S
Mg3 O4 2.099 . S
Mg3 O6 2.079 1_554 S
Mg3 O7 2.072 . S
Mg3 O9 2.099 1_444 S
Mg3 O20 2.079 1_545 S
O4 Mg1 2.180 . S
O4 Mg3 2.099 . S
O4 C15 1.279 . S
O5 Mg1 2.117 . S
O5 C15 1.250 . S
O6 Mg3 2.079 1_556 S
O6 C16 1.264 . S
O7 Mg3 2.072 . S
O7 C17 1.260 1_455 S
Mg8 O9 2.180 1_545 S
Mg8 O10 2.030 . S
Mg8 O11 1.990 . S
Mg8 O12 2.117 1_546 S
O9 Mg3 2.099 1_666 S
O9 Mg8 2.180 1_565 S
O9 C18 1.279 1_556 S
O10 Mg8 2.030 . S
O10 C16 1.248 1_655 S
O11 Mg8 1.990 . S
O11 C17 1.253 1_556 S
O12 Mg8 2.117 1_564 S
O12 C18 1.250 . S
C13 O19 1.248 . S
C13 O20 1.264 . S
C14 O0 1.253 . S
C14 O2 1.260 . S
C15 O4 1.279 . S
C15 O5 1.250 . S
C16 O6 1.264 . S
C16 O10 1.248 1_455 S
C17 O7 1.260 1_655 S
C17 O11 1.253 1_554 S
C18 O9 1.279 1_554 S
C18 O12 1.250 . S
O19 Mg1 2.030 1_565 S
O19 C13 1.248 . S
O20 Mg3 2.079 1_565 S
O20 C13 1.264 . S
O21 Mg22 1.990 . S
O21 C35 1.253 . S
Mg22 O21 1.990 . S
Mg22 O25 2.180 . S
Mg22 O26 2.117 . S
Mg22 O40 2.030 . S
O23 Mg24 2.072 . S
O23 C35 1.260 . S
Mg24 O23 2.072 . S
Mg24 O25 2.099 . S
Mg24 O27 2.079 . S
Mg24 O28 2.072 . S
Mg24 O30 2.099 . S
Mg24 O41 2.079 . S
O25 Mg22 2.180 . S
O25 Mg24 2.099 . S
O25 C36 1.279 . S
O26 Mg22 2.117 . S
O26 C36 1.250 . S
O27 Mg24 2.079 . S
O27 C37 1.264 . S
O28 Mg24 2.072 . S
O28 C38 1.260 . S
Mg29 O30 2.180 . S
Mg29 O31 2.030 . S
Mg29 O32 1.990 . S
Mg29 O33 2.117 . S
O30 Mg24 2.099 . S
O30 Mg29 2.180 . S
O30 C39 1.279 . S
O31 Mg29 2.030 . S
O31 C37 1.248 . S
O32 Mg29 1.990 . S
O32 C38 1.253 . S
O33 Mg29 2.117 . S
O33 C39 1.250 . S
C34 O40 1.248 . S
C34 O41 1.264 . S
C35 O21 1.253 . S
C35 O23 1.260 . S
C36 O25 1.279 . S
C36 O26 1.250 . S
C37 O27 1.264 . S
C37 O31 1.248 . S
C38 O28 1.260 . S
C38 O32 1.253 . S
C39 O30 1.279 . S
C39 O33 1.250 . S
O40 Mg22 2.030 . S
O40 C34 1.248 . S
O41 Mg24 2.079 . S
O41 C34 1.264 . S
C42 C43 1.264 . S
C42 C47 1.479 . S
C42 C52 1.465 1_655 S
C43 C42 1.264 . S
C43 C45 1.339 . S
C43 H70 0.931 . S
C44 C45 1.395 . S
C44 C46 1.320 . S
C45 C43 1.339 . S
C45 C44 1.395 . S
C45 H71 0.929 . S
C46 C44 1.320 . S
C46 C47 1.405 . S
C46 H72 0.930 . S
C47 C42 1.479 . S
C47 C46 1.405 . S
C47 H73 0.931 . S
U48 O49 2.454 1_545 S
U48 O50 2.458 1_545 S
U48 C51 2.984 1_545 S
U48 C52 2.847 . S
U48 C65 2.882 . S
U48 O66 2.441 . S
U48 O67 2.420 . S
U48 O68 2.455 1_545 S
U48 O69 2.449 . S
O49 U48 2.454 1_565 S
O49 C51 1.353 . S
O50 U48 2.458 1_565 S
O50 C51 1.286 . S
C51 U48 2.984 1_565 S
C51 O49 1.353 . S
C51 O50 1.286 . S
C51 C53 1.363 . S
C52 C42 1.465 1_455 S
C52 U48 2.847 . S
C52 O66 1.249 . S
C52 O67 1.202 . S
C53 C51 1.363 . S
C53 C55 1.408 . S
C53 C58 1.342 . S
C54 C55 1.310 . S
C54 C57 1.461 . S
C54 H74 0.932 . S
C55 C53 1.408 . S
C55 C54 1.310 . S
C55 H75 0.930 . S
C56 C57 1.474 . S
C56 C58 1.285 . S
C56 H76 0.929 . S
C57 C54 1.461 . S
C57 C56 1.474 . S
C58 C53 1.342 . S
C58 C56 1.285 . S
C58 H77 0.930 . S
C59 C62 1.424 . S
C59 C64 1.245 1_545 S
C59 C65 1.428 . S
C60 C63 1.260 . S
C60 C64 1.477 . S
C60 H78 0.932 . S
C61 C62 1.384 . S
C61 C63 1.479 1_545 S
C61 H79 0.929 . S
C62 C59 1.424 . S
C62 C61 1.384 . S
C62 H80 0.928 . S
C63 C60 1.260 . S
C63 C61 1.479 1_565 S
C64 C59 1.245 1_565 S
C64 C60 1.477 . S
C64 H81 0.932 . S
C65 U48 2.882 . S
C65 C59 1.428 . S
C65 O68 1.301 1_545 S
C65 O69 1.282 . S
O66 U48 2.441 . S
O66 C52 1.249 . S
O67 U48 2.420 . S
O67 C52 1.202 . S
O68 U48 2.455 1_565 S
O68 C65 1.301 1_565 S
O69 U48 2.449 . S
O69 C65 1.282 . S
H70 C43 0.931 . S
H71 C45 0.929 . S
H72 C46 0.930 . S
H73 C47 0.931 . S
H74 C54 0.932 . S
H75 C55 0.930 . S
H76 C56 0.929 . S
H77 C58 0.930 . S
H78 C60 0.932 . S
H79 C61 0.929 . S
H80 C62 0.928 . S
H81 C64 0.932 . S
C82 C83 1.264 . S
C82 C87 1.479 . S
C82 C92 1.465 . S
C83 C82 1.264 . S
C83 C85 1.339 . S
C83 H110 0.931 . S
C84 C85 1.395 . S
C84 C86 1.320 . S
C85 C83 1.339 . S
C85 C84 1.395 . S
C85 H111 0.929 . S
C86 C84 1.320 . S
C86 C87 1.405 . S
C86 H112 0.930 . S
C87 C82 1.479 . S
C87 C86 1.405 . S
C87 H113 0.931 . S
U88 O89 2.454 . S
U88 O90 2.458 . S
U88 C91 2.984 . S
U88 C92 2.847 1_445 S
U88 C105 2.882 . S
U88 O106 2.441 1_455 S
U88 O107 2.420 1_445 S
U88 O108 2.455 . S
U88 O109 2.449 . S
O89 U88 2.454 . S
O89 C91 1.353 . S
O90 U88 2.458 . S
O90 C91 1.286 . S
C91 U88 2.984 . S
C91 O89 1.353 . S
C91 O90 1.286 . S
C91 C93 1.363 . S
C92 C82 1.465 . S
C92 U88 2.847 1_665 S
C92 O106 1.249 1_565 S
C92 O107 1.202 . S
C93 C91 1.363 . S
C93 C95 1.408 . S
C93 C98 1.342 . S
C94 C95 1.310 . S
C94 C97 1.461 . S
C94 H114 0.932 . S
C95 C93 1.408 . S
C95 C94 1.310 . S
C95 H115 0.930 . S
C96 C97 1.474 . S
C96 C98 1.285 . S
C96 H116 0.929 . S
C97 C94 1.461 . S
C97 C96 1.474 . S
C98 C93 1.342 . S
C98 C96 1.285 . S
C98 H117 0.930 . S
C99 C102 1.424 1_455 S
C99 C104 1.245 . S
C99 C105 1.428 . S
C100 C103 1.260 . S
C100 C104 1.477 . S
C100 H118 0.932 . S
C101 C102 1.384 . S
C101 C103 1.479 1_655 S
C101 H119 0.929 . S
C102 C99 1.424 1_655 S
C102 C101 1.384 . S
C102 H120 0.928 . S
C103 C100 1.260 . S
C103 C101 1.479 1_455 S
C104 C99 1.245 . S
C104 C100 1.477 . S
C104 H121 0.932 . S
C105 U88 2.882 . S
C105 C99 1.428 . S
C105 O108 1.301 . S
C105 O109 1.282 . S
O106 U88 2.441 1_655 S
O106 C92 1.249 1_545 S
O107 U88 2.420 1_665 S
O107 C92 1.202 . S
O108 U88 2.455 . S
O108 C105 1.301 . S
O109 U88 2.449 . S
O109 C105 1.282 . S
H110 C83 0.931 . S
H111 C85 0.929 . S
H112 C86 0.930 . S
H113 C87 0.931 . S
H114 C94 0.932 . S
H115 C95 0.930 . S
H116 C96 0.929 . S
H117 C98 0.930 . S
H118 C100 0.932 . S
H119 C101 0.929 . S
H120 C102 0.928 . S
H121 C104 0.932 . S
C122 C123 1.264 . S
C122 C127 1.450 1_556 S
C122 C132 1.465 . S
C123 C122 1.264 . S
C123 C125 1.339 . S
C123 H150 0.931 . S
C124 C125 1.395 . S
C124 C126 1.320 1_556 S
C125 C123 1.339 . S
C125 C124 1.395 . S
C125 H151 0.929 . S
C126 C124 1.320 1_554 S
C126 C127 1.415 . S
C126 H152 0.930 . S
C127 C122 1.450 1_554 S
C127 C126 1.415 . S
C127 H153 0.949 . S
U128 O129 2.454 . S
U128 O130 2.458 . S
U128 C131 2.984 . S
U128 C132 2.847 . S
U128 C145 2.882 . S
U128 O146 2.441 . S
U128 O147 2.420 . S
U128 O148 2.455 . S
U128 O149 2.449 . S
O129 U128 2.454 . S
O129 C131 1.353 . S
O130 U128 2.458 . S
O130 C131 1.286 . S
C131 U128 2.984 . S
C131 O129 1.353 . S
C131 O130 1.286 . S
C131 C133 1.363 . S
C132 C122 1.465 . S
C132 U128 2.847 . S
C132 O146 1.249 . S
C132 O147 1.202 . S
C133 C131 1.363 . S
C133 C135 1.408 . S
C133 C138 1.342 . S
C134 C135 1.310 1_554 S
C134 C137 1.461 1_554 S
C134 H154 0.932 . S
C135 C133 1.408 . S
C135 C134 1.310 1_556 S
C135 H155 0.930 1_556 S
C136 C137 1.474 . S
C136 C138 1.285 . S
C136 H156 0.929 . S
C137 C134 1.461 1_556 S
C137 C136 1.474 . S
C138 C133 1.342 . S
C138 C136 1.285 . S
C138 H157 0.930 . S
C139 C142 1.424 . S
C139 C144 1.245 . S
C139 C145 1.428 . S
C140 C143 1.260 . S
C140 C144 1.477 . S
C140 H158 0.932 . S
C141 C142 1.384 . S
C141 C143 1.479 . S
C141 H159 0.929 . S
C142 C139 1.424 . S
C142 C141 1.384 . S
C142 H160 0.928 . S
C143 C140 1.260 . S
C143 C141 1.479 . S
C144 C139 1.245 . S
C144 C140 1.477 . S
C144 H161 0.932 . S
C145 U128 2.882 . S
C145 C139 1.428 . S
C145 O148 1.301 . S
C145 O149 1.282 . S
O146 U128 2.441 . S
O146 C132 1.249 . S
O147 U128 2.420 . S
O147 C132 1.202 . S
O148 U128 2.455 . S
O148 C145 1.301 . S
O149 U128 2.449 . S
O149 C145 1.282 . S
H150 C123 0.931 . S
H151 C125 0.929 . S
H152 C126 0.930 . S
H153 C127 0.949 . S
H154 C134 0.932 . S
H155 C135 0.930 1_554 S
H156 C136 0.929 . S
H157 C138 0.930 . S
H158 C140 0.932 . S
H159 C141 0.929 . S
H160 C142 0.928 . S
H161 C144 0.932 . S
C162 C163 1.264 . S
C162 C167 1.479 . S
C162 C172 1.465 . S
C163 C162 1.264 . S
C163 C165 1.339 . S
C163 H190 0.931 . S
C164 C165 1.395 . S
C164 C166 1.320 . S
C165 C163 1.339 . S
C165 C164 1.395 . S
C165 H191 0.929 . S
C166 C164 1.320 . S
C166 C167 1.405 . S
C166 H192 0.930 1_554 S
C167 C162 1.479 . S
C167 C166 1.405 . S
C167 H193 0.931 . S
U168 O169 2.454 . S
U168 O170 2.458 . S
U168 C171 2.984 . S
U168 C172 2.847 . S
U168 C185 2.882 . S
U168 O186 2.441 . S
U168 O187 2.420 . S
U168 O188 2.455 . S
U168 O189 2.449 . S
O169 U168 2.454 . S
O169 C171 1.353 . S
O170 U168 2.458 . S
O170 C171 1.286 . S
C171 U168 2.984 . S
C171 O169 1.353 . S
C171 O170 1.286 . S
C171 C173 1.363 . S
C172 C162 1.465 . S
C172 U168 2.847 . S
C172 O186 1.249 . S
C172 O187 1.202 . S
C173 C171 1.363 . S
C173 C175 1.408 . S
C173 C178 1.342 . S
C174 C175 1.310 . S
C174 C177 1.461 . S
C174 H194 0.932 . S
C175 C173 1.408 . S
C175 C174 1.310 . S
C175 H195 0.930 . S
C176 C177 1.474 . S
C176 C178 1.285 . S
C176 H196 0.929 . S
C177 C174 1.461 . S
C177 C176 1.474 . S
C178 C173 1.342 . S
C178 C176 1.285 . S
C178 H197 0.930 . S
C179 C182 1.424 . S
C179 C184 1.245 . S
C179 C185 1.428 . S
C180 C183 1.260 . S
C180 C184 1.477 . S
C180 H198 0.932 . S
C181 C182 1.384 . S
C181 C183 1.479 . S
C181 H199 0.929 . S
C182 C179 1.424 . S
C182 C181 1.384 . S
C182 H200 0.928 . S
C183 C180 1.260 . S
C183 C181 1.479 . S
C184 C179 1.245 . S
C184 C180 1.477 . S
C184 H201 0.932 . S
C185 U168 2.882 . S
C185 C179 1.428 . S
C185 O188 1.301 . S
C185 O189 1.282 . S
O186 U168 2.441 . S
O186 C172 1.249 . S
O187 U168 2.420 . S
O187 C172 1.202 . S
O188 U168 2.455 . S
O188 C185 1.301 . S
O189 U168 2.449 . S
O189 C185 1.282 . S
H190 C163 0.931 . S
H191 C165 0.929 . S
H192 C166 0.930 1_556 S
H193 C167 0.931 . S
H194 C174 0.932 . S
H195 C175 0.930 . S
H196 C176 0.929 . S
H197 C178 0.930 . S
H198 C180 0.932 . S
H199 C181 0.929 . S
H200 C182 0.928 . S
H201 C184 0.932 . S
H202 C203 0.951 . S
C203 H202 0.951 . S
C203 C209 1.265 . S
H204 C209 0.950 . S
H205 C213 0.949 . S
H206 C214 0.950 . S
H207 C215 0.951 . S
H208 C216 0.951 . S
C209 C203 1.265 . S
C209 H204 0.950 . S
C209 C210 1.478 . S
C210 C209 1.478 . S
C210 C211 1.397 1_554 S
C210 C227 1.394 . S
C211 C210 1.397 1_556 S
C211 C212 1.438 . S
C211 C216 1.429 . S
C212 C211 1.438 . S
C212 C213 1.428 . S
C212 C225 1.394 1_556 S
C213 H205 0.949 . S
C213 C212 1.428 . S
C213 C214 1.345 . S
C214 H206 0.950 . S
C214 C213 1.345 . S
C214 C215 1.424 . S
C215 H207 0.951 . S
C215 C214 1.424 . S
C215 C216 1.347 . S
C216 H208 0.951 . S
C216 C211 1.429 . S
C216 C215 1.347 . S
H217 C218 0.951 . S
C218 H217 0.951 . S
C218 C224 1.265 . S
H219 C224 0.950 . S
H220 C228 0.949 . S
H221 C229 0.950 . S
H222 C230 0.951 . S
H223 C231 0.951 . S
C224 C218 1.265 . S
C224 H219 0.950 . S
C224 C225 1.478 . S
C225 C212 1.394 1_554 S
C225 C224 1.478 . S
C225 C226 1.397 . S
C226 C225 1.397 . S
C226 C227 1.438 . S
C226 C231 1.429 . S
C227 C210 1.394 . S
C227 C226 1.438 . S
C227 C228 1.428 . S
C228 H220 0.949 . S
C228 C227 1.428 . S
C228 C229 1.345 . S
C229 H221 0.950 . S
C229 C228 1.345 . S
C229 C230 1.424 . S
C230 H222 0.951 . S
C230 C229 1.424 . S
C230 C231 1.347 . S
C231 H223 0.951 . S
C231 C226 1.429 . S
C231 C230 1.347 . S
H232 C233 0.951 . S
C233 H232 0.951 . S
C233 C239 1.265 . S
H234 C239 0.950 . S
H235 C243 0.949 . S
H236 C244 0.950 . S
H237 C245 0.951 . S
H238 C246 0.951 . S
C239 C233 1.265 . S
C239 H234 0.950 . S
C239 C240 1.478 . S
C240 C239 1.478 . S
C240 C241 1.397 . S
C240 C257 1.394 1_554 S
C241 C240 1.397 . S
C241 C242 1.438 . S
C241 C246 1.429 . S
C242 C241 1.438 . S
C242 C243 1.428 . S
C242 C255 1.394 . S
C243 H235 0.949 . S
C243 C242 1.428 . S
C243 C244 1.345 . S
C244 H236 0.950 . S
C244 C243 1.345 . S
C244 C245 1.424 . S
C245 H237 0.951 . S
C245 C244 1.424 . S
C245 C246 1.347 . S
C246 H238 0.951 . S
C246 C241 1.429 . S
C246 C245 1.347 . S
H247 C248 0.951 . S
C248 H247 0.951 . S
C248 C254 1.265 . S
H249 C254 0.950 1_556 S
H250 C258 0.949 . S
H251 C259 0.950 . S
H252 C260 0.951 . S
H253 C261 0.951 . S
C254 C248 1.265 . S
C254 H249 0.950 1_554 S
C254 C255 1.478 . S
C255 C242 1.394 . S
C255 C254 1.478 . S
C255 C256 1.397 1_554 S
C256 C255 1.397 1_556 S
C256 C257 1.438 . S
C256 C261 1.429 . S
C257 C240 1.394 1_556 S
C257 C256 1.438 . S
C257 C258 1.428 . S
C258 H250 0.949 . S
C258 C257 1.428 . S
C258 C259 1.345 . S
C259 H251 0.950 . S
C259 C258 1.345 . S
C259 C260 1.424 . S
C260 H252 0.951 . S
C260 C259 1.424 . S
C260 C261 1.347 . S
C261 H253 0.951 . S
C261 C256 1.429 . S
C261 C260 1.347 . S
H262 C263 0.951 . S
C263 H262 0.951 . S
C263 C269 1.265 . S
H264 C269 0.950 . S
H265 C273 0.949 . S
H266 C274 0.950 . S
H267 C275 0.951 . S
H268 C276 0.951 . S
C269 C263 1.265 . S
C269 H264 0.950 . S
C269 C270 1.478 . S
C270 C269 1.478 . S
C270 C271 1.397 1_554 S
C270 C287 1.394 . S
C271 C270 1.397 1_556 S
C271 C272 1.438 1_556 S
C271 C276 1.429 . S
C272 C271 1.438 1_554 S
C272 C273 1.428 1_554 S
C272 C285 1.394 . S
C273 H265 0.949 . S
C273 C272 1.428 1_556 S
C273 C274 1.345 . S
C274 H266 0.950 . S
C274 C273 1.345 . S
C274 C275 1.424 . S
C275 H267 0.951 . S
C275 C274 1.424 . S
C275 C276 1.347 . S
C276 H268 0.951 . S
C276 C271 1.429 . S
C276 C275 1.347 . S
H277 C278 0.951 . S
C278 H277 0.951 . S
C278 C284 1.265 . S
H279 C284 0.950 . S
H280 C288 0.949 . S
H281 C289 0.950 . S
H282 C290 0.951 . S
H283 C291 0.951 . S
C284 C278 1.265 . S
C284 H279 0.950 . S
C284 C285 1.478 . S
C285 C272 1.394 . S
C285 C284 1.478 . S
C285 C286 1.397 . S
C286 C285 1.397 . S
C286 C287 1.438 . S
C286 C291 1.429 . S
C287 C270 1.394 . S
C287 C286 1.438 . S
C287 C288 1.428 . S
C288 H280 0.949 . S
C288 C287 1.428 . S
C288 C289 1.345 . S
C289 H281 0.950 . S
C289 C288 1.345 . S
C289 C290 1.424 . S
C290 H282 0.951 . S
C290 C289 1.424 . S
C290 C291 1.347 . S
C291 H283 0.951 . S
C291 C286 1.429 . S
C291 C290 1.347 . S
H292 C293 0.951 . S
C293 H292 0.951 . S
C293 C299 1.265 . S
H294 C299 0.950 1_556 S
H295 C303 0.949 . S
H296 C304 0.950 . S
H297 C305 0.951 . S
H298 C306 0.951 . S
C299 C293 1.265 . S
C299 H294 0.950 1_554 S
C299 C300 1.478 . S
C300 C299 1.478 . S
C300 C301 1.397 1_554 S
C300 C317 1.394 . S
C301 C300 1.397 1_556 S
C301 C302 1.438 . S
C301 C306 1.429 . S
C302 C301 1.438 . S
C302 C303 1.428 . S
C302 C315 1.389 1_556 S
C303 H295 0.949 . S
C303 C302 1.428 . S
C303 C304 1.345 . S
C304 H296 0.950 . S
C304 C303 1.345 . S
C304 C305 1.424 . S
C305 H297 0.951 . S
C305 C304 1.424 . S
C305 C306 1.347 . S
C306 H298 0.951 . S
C306 C301 1.429 . S
C306 C305 1.347 . S
H307 C308 0.951 . S
C308 H307 0.951 . S
C308 C314 1.265 . S
H309 C314 0.950 1_554 S
H310 C318 0.949 . S
H311 C319 0.950 . S
H312 C320 0.951 . S
H313 C321 0.951 . S
C314 C308 1.265 . S
C314 H309 0.950 1_556 S
C314 C315 1.478 1_556 S
C315 C302 1.389 1_554 S
C315 C314 1.478 1_554 S
C315 C316 1.402 . S
C316 C315 1.402 . S
C316 C317 1.438 . S
C316 C321 1.429 . S
C317 C300 1.394 . S
C317 C316 1.438 . S
C317 C318 1.428 . S
C318 H310 0.949 . S
C318 C317 1.428 . S
C318 C319 1.345 . S
C319 H311 0.950 . S
C319 C318 1.345 . S
C319 C320 1.424 . S
C320 H312 0.951 . S
C320 C319 1.424 . S
C320 C321 1.347 . S
C321 H313 0.951 . S
C321 C316 1.429 . S
C321 C320 1.347 . S
H322 C323 0.951 . S
C323 H322 0.951 . S
C323 C329 1.265 . S
H324 C329 0.950 . S
H325 C333 0.949 . S
H326 C334 0.950 . S
H327 C335 0.951 . S
H328 C336 0.951 . S
C329 C323 1.265 . S
C329 H324 0.950 . S
C329 C330 1.478 . S
C330 C329 1.478 . S
C330 C331 1.397 . S
C330 C347 1.394 . S
C331 C330 1.397 . S
C331 C332 1.438 . S
C331 C336 1.429 . S
C332 C331 1.438 . S
C332 C333 1.428 . S
C332 C345 1.394 . S
C333 H325 0.949 . S
C333 C332 1.428 . S
C333 C334 1.345 . S
C334 H326 0.950 . S
C334 C333 1.345 . S
C334 C335 1.424 . S
C335 H327 0.951 . S
C335 C334 1.424 . S
C335 C336 1.347 . S
C336 H328 0.951 . S
C336 C331 1.429 . S
C336 C335 1.347 . S
H337 C338 0.951 . S
C338 H337 0.951 . S
C338 C344 1.265 . S
H339 C344 0.950 . S
H340 C348 0.949 . S
H341 C349 0.950 . S
H342 C350 0.951 . S
H343 C351 0.951 . S
C344 C338 1.265 . S
C344 H339 0.950 . S
C344 C345 1.478 . S
C345 C332 1.394 . S
C345 C344 1.478 . S
C345 C346 1.397 . S
C346 C345 1.397 . S
C346 C347 1.438 . S
C346 C351 1.429 . S
C347 C330 1.394 . S
C347 C346 1.438 . S
C347 C348 1.428 . S
C348 H340 0.949 . S
C348 C347 1.428 . S
C348 C349 1.345 . S
C349 H341 0.950 . S
C349 C348 1.345 . S
C349 C350 1.424 . S
C350 H342 0.951 . S
C350 C349 1.424 . S
C350 C351 1.347 . S
C351 H343 0.951 . S
C351 C346 1.429 . S
C351 C350 1.347 . S
H352 C353 0.951 . S
C353 H352 0.951 . S
C353 C359 1.265 . S
H354 C359 0.950 . S
H355 C363 0.949 . S
H356 C364 0.950 . S
H357 C365 0.951 . S
H358 C366 0.951 . S
C359 C353 1.265 . S
C359 H354 0.950 . S
C359 C360 1.478 . S
C360 C359 1.478 . S
C360 C361 1.397 . S
C360 C377 1.394 . S
C361 C360 1.397 . S
C361 C362 1.438 . S
C361 C366 1.429 . S
C362 C361 1.438 . S
C362 C363 1.428 . S
C362 C375 1.394 . S
C363 H355 0.949 . S
C363 C362 1.428 . S
C363 C364 1.345 . S
C364 H356 0.950 . S
C364 C363 1.345 . S
C364 C365 1.424 . S
C365 H357 0.951 . S
C365 C364 1.424 . S
C365 C366 1.347 . S
C366 H358 0.951 . S
C366 C361 1.429 . S
C366 C365 1.347 . S
H367 C368 0.951 . S
C368 H367 0.951 . S
C368 C374 1.265 . S
H369 C374 0.950 . S
H370 C378 0.949 . S
H371 C379 0.950 . S
H372 C380 0.951 . S
H373 C381 0.951 . S
C374 C368 1.265 . S
C374 H369 0.950 . S
C374 C375 1.478 . S
C375 C362 1.394 . S
C375 C374 1.478 . S
C375 C376 1.397 . S
C376 C375 1.397 . S
C376 C377 1.438 . S
C376 C381 1.429 . S
C377 C360 1.394 . S
C377 C376 1.438 . S
C377 C378 1.428 . S
C378 H370 0.949 . S
C378 C377 1.428 . S
C378 C379 1.345 . S
C379 H371 0.950 . S
C379 C378 1.345 . S
C379 C380 1.424 . S
C380 H372 0.951 . S
C380 C379 1.424 . S
C380 C381 1.347 . S
C381 H373 0.951 . S
C381 C376 1.429 . S
C381 C380 1.347 . S
H382 C383 0.951 . S
C383 H382 0.951 . S
C383 C389 1.265 . S
H384 C389 0.950 . S
H385 C393 0.949 . S
H386 C394 0.950 . S
H387 C395 0.951 . S
H388 C396 0.951 . S
C389 C383 1.265 . S
C389 H384 0.950 . S
C389 C390 1.478 . S
C390 C389 1.478 . S
C390 C391 1.397 . S
C390 C407 1.394 . S
C391 C390 1.397 . S
C391 C392 1.438 . S
C391 C396 1.429 . S
C392 C391 1.438 . S
C392 C393 1.428 . S
C392 C405 1.394 . S
C393 H385 0.949 . S
C393 C392 1.428 . S
C393 C394 1.345 . S
C394 H386 0.950 . S
C394 C393 1.345 . S
C394 C395 1.424 . S
C395 H387 0.951 . S
C395 C394 1.424 . S
C395 C396 1.347 . S
C396 H388 0.951 . S
C396 C391 1.429 . S
C396 C395 1.347 . S
H397 C398 0.951 . S
C398 H397 0.951 . S
C398 C404 1.265 . S
H399 C404 0.950 . S
H400 C408 0.949 . S
H401 C409 0.950 . S
H402 C410 0.951 . S
H403 C411 0.951 . S
C404 C398 1.265 . S
C404 H399 0.950 . S
C404 C405 1.478 . S
C405 C392 1.394 . S
C405 C404 1.478 . S
C405 C406 1.397 . S
C406 C405 1.397 . S
C406 C407 1.438 . S
C406 C411 1.429 . S
C407 C390 1.394 . S
C407 C406 1.438 . S
C407 C408 1.428 . S
C408 H400 0.949 . S
C408 C407 1.428 . S
C408 C409 1.345 . S
C409 H401 0.950 . S
C409 C408 1.345 . S
C409 C410 1.424 . S
C410 H402 0.951 . S
C410 C409 1.424 . S
C410 C411 1.347 . S
C411 H403 0.951 . S
C411 C406 1.429 . S
C411 C410 1.347 . S
H412 C413 0.951 . S
C413 H412 0.951 . S
C413 C419 1.265 . S
H414 C419 0.950 . S
H415 C423 0.949 . S
H416 C424 0.950 . S
H417 C425 0.951 . S
H418 C426 0.951 . S
C419 C413 1.265 . S
C419 H414 0.950 . S
C419 C420 1.478 . S
C420 C419 1.478 . S
C420 C421 1.397 . S
C420 C437 1.394 . S
C421 C420 1.397 . S
C421 C422 1.438 . S
C421 C426 1.429 . S
C422 C421 1.438 . S
C422 C423 1.428 . S
C422 C435 1.394 . S
C423 H415 0.949 . S
C423 C422 1.428 . S
C423 C424 1.345 . S
C424 H416 0.950 . S
C424 C423 1.345 . S
C424 C425 1.424 . S
C425 H417 0.951 . S
C425 C424 1.424 . S
C425 C426 1.347 . S
C426 H418 0.951 . S
C426 C421 1.429 . S
C426 C425 1.347 . S
H427 C428 0.951 . S
C428 H427 0.951 . S
C428 C434 1.265 . S
H429 C434 0.950 . S
H430 C438 0.949 . S
H431 C439 0.950 . S
H432 C440 0.951 . S
H433 C441 0.951 . S
C434 C428 1.265 . S
C434 H429 0.950 . S
C434 C435 1.478 . S
C435 C422 1.394 . S
C435 C434 1.478 . S
C435 C436 1.397 . S
C436 C435 1.397 . S
C436 C437 1.438 . S
C436 C441 1.429 . S
C437 C420 1.394 . S
C437 C436 1.438 . S
C437 C438 1.428 . S
C438 H430 0.949 . S
C438 C437 1.428 . S
C438 C439 1.345 . S
C439 H431 0.950 . S
C439 C438 1.345 . S
C439 C440 1.424 . S
C440 H432 0.951 . S
C440 C439 1.424 . S
C440 C441 1.347 . S
C441 H433 0.951 . S
C441 C436 1.429 . S
C441 C440 1.347 . S
H442 C443 0.951 . S
C443 H442 0.951 . S
C443 C449 1.274 . S
H444 C449 0.942 1_665 S
H445 C453 0.949 . S
H446 C454 0.950 . S
H447 C455 0.951 . S
H448 C456 0.951 . S
C449 C443 1.274 . S
C449 H444 0.942 1_445 S
C449 C450 1.476 . S
C450 C449 1.476 . S
C450 C451 1.397 1_545 S
C450 C467 1.394 . S
C451 C450 1.397 1_565 S
C451 C452 1.438 . S
C451 C456 1.429 . S
C452 C451 1.438 . S
C452 C453 1.428 . S
C452 C465 1.394 1_565 S
C453 H445 0.949 . S
C453 C452 1.428 . S
C453 C454 1.345 . S
C454 H446 0.950 . S
C454 C453 1.345 . S
C454 C455 1.424 . S
C455 H447 0.951 . S
C455 C454 1.424 . S
C455 C456 1.347 . S
C456 H448 0.951 . S
C456 C451 1.429 . S
C456 C455 1.347 . S
H457 C458 0.951 . S
C458 H457 0.951 . S
C458 C464 1.265 1_565 S
H459 C464 0.950 . S
H460 C468 0.949 . S
H461 C469 0.950 . S
H462 C470 0.951 . S
H463 C471 0.951 . S
C464 C458 1.265 1_545 S
C464 H459 0.950 . S
C464 C465 1.478 . S
C465 C452 1.394 1_545 S
C465 C464 1.478 . S
C465 C466 1.397 . S
C466 C465 1.397 . S
C466 C467 1.438 . S
C466 C471 1.429 . S
C467 C450 1.394 . S
C467 C466 1.438 . S
C467 C468 1.428 . S
C468 H460 0.949 . S
C468 C467 1.428 . S
C468 C469 1.345 . S
C469 H461 0.950 . S
C469 C468 1.345 . S
C469 C470 1.424 . S
C470 H462 0.951 . S
C470 C469 1.424 . S
C470 C471 1.347 . S
C471 H463 0.951 . S
C471 C466 1.429 . S
C471 C470 1.347 . S
H472 C473 0.951 1_655 S
C473 H472 0.951 1_455 S
C473 C479 1.265 . S
H474 C479 0.950 . S
H475 C483 0.949 . S
H476 C484 0.950 . S
H477 C485 0.951 . S
H478 C486 0.951 . S
C479 C473 1.265 . S
C479 H474 0.950 . S
C479 C480 1.478 . S
C480 C479 1.478 . S
C480 C481 1.397 . S
C480 C497 1.394 . S
C481 C480 1.397 . S
C481 C482 1.438 . S
C481 C486 1.429 1_545 S
C482 C481 1.438 . S
C482 C483 1.428 1_545 S
C482 C495 1.394 . S
C483 H475 0.949 . S
C483 C482 1.428 1_565 S
C483 C484 1.345 . S
C484 H476 0.950 . S
C484 C483 1.345 . S
C484 C485 1.424 . S
C485 H477 0.951 . S
C485 C484 1.424 . S
C485 C486 1.347 . S
C486 H478 0.951 . S
C486 C481 1.429 1_565 S
C486 C485 1.347 . S
H487 C488 0.951 . S
C488 H487 0.951 . S
C488 C494 1.265 1_455 S
H489 C494 0.950 . S
H490 C498 0.949 . S
H491 C499 0.950 . S
H492 C500 0.951 . S
H493 C501 0.951 . S
C494 C488 1.265 1_655 S
C494 H489 0.950 . S
C494 C495 1.478 1_655 S
C495 C482 1.394 . S
C495 C494 1.478 1_455 S
C495 C496 1.397 . S
C496 C495 1.397 . S
C496 C497 1.438 . S
C496 C501 1.429 1_455 S
C497 C480 1.394 . S
C497 C496 1.438 . S
C497 C498 1.428 . S
C498 H490 0.949 . S
C498 C497 1.428 . S
C498 C499 1.345 . S
C499 H491 0.950 . S
C499 C498 1.345 . S
C499 C500 1.424 1_455 S
C500 H492 0.951 . S
C500 C499 1.424 1_655 S
C500 C501 1.347 . S
C501 H493 0.951 . S
C501 C496 1.429 1_655 S
C501 C500 1.347 . S
H502 C503 0.951 . S
C503 H502 0.951 . S
C503 C509 1.265 . S
H504 C509 0.950 . S
H505 C513 0.949 . S
H506 C514 0.950 . S
H507 C515 0.951 . S
H508 C516 0.951 . S
C509 C503 1.265 . S
C509 H504 0.950 . S
C509 C510 1.478 . S
C510 C509 1.478 . S
C510 C511 1.397 . S
C510 C527 1.394 . S
C511 C510 1.397 . S
C511 C512 1.438 . S
C511 C516 1.429 . S
C512 C511 1.438 . S
C512 C513 1.428 . S
C512 C525 1.394 . S
C513 H505 0.949 . S
C513 C512 1.428 . S
C513 C514 1.345 . S
C514 H506 0.950 . S
C514 C513 1.345 . S
C514 C515 1.424 . S
C515 H507 0.951 . S
C515 C514 1.424 . S
C515 C516 1.347 . S
C516 H508 0.951 . S
C516 C511 1.429 . S
C516 C515 1.347 . S
H517 C518 0.951 . S
C518 H517 0.951 . S
C518 C524 1.265 . S
H519 C524 0.950 . S
H520 C528 0.949 . S
H521 C529 0.950 . S
H522 C530 0.951 . S
H523 C531 0.951 . S
C524 C518 1.265 . S
C524 H519 0.950 . S
C524 C525 1.478 . S
C525 C512 1.394 . S
C525 C524 1.478 . S
C525 C526 1.397 . S
C526 C525 1.397 . S
C526 C527 1.438 . S
C526 C531 1.429 . S
C527 C510 1.394 . S
C527 C526 1.438 . S
C527 C528 1.428 . S
C528 H520 0.949 . S
C528 C527 1.428 . S
C528 C529 1.345 . S
C529 H521 0.950 . S
C529 C528 1.345 . S
C529 C530 1.424 . S
C530 H522 0.951 . S
C530 C529 1.424 . S
C530 C531 1.347 . S
C531 H523 0.951 . S
C531 C526 1.429 . S
C531 C530 1.347 . S
H532 C533 0.951 . S
C533 H532 0.951 . S
C533 C539 1.265 . S
H534 C539 0.950 . S
H535 C543 0.949 . S
H536 C544 0.950 . S
H537 C545 0.951 . S
H538 C546 0.951 . S
C539 C533 1.265 . S
C539 H534 0.950 . S
C539 C540 1.478 . S
C540 C539 1.478 . S
C540 C541 1.397 . S
C540 C557 1.394 . S
C541 C540 1.397 . S
C541 C542 1.438 . S
C541 C546 1.429 . S
C542 C541 1.438 . S
C542 C543 1.428 . S
C542 C555 1.394 . S
C543 H535 0.949 . S
C543 C542 1.428 . S
C543 C544 1.345 . S
C544 H536 0.950 . S
C544 C543 1.345 . S
C544 C545 1.424 . S
C545 H537 0.951 . S
C545 C544 1.424 . S
C545 C546 1.347 . S
C546 H538 0.951 . S
C546 C541 1.429 . S
C546 C545 1.347 . S
H547 C548 0.951 . S
C548 H547 0.951 . S
C548 C554 1.265 . S
H549 C554 0.950 . S
H550 C558 0.949 . S
H551 C559 0.950 . S
H552 C560 0.951 . S
H553 C561 0.951 . S
C554 C548 1.265 . S
C554 H549 0.950 . S
C554 C555 1.478 . S
C555 C542 1.394 . S
C555 C554 1.478 . S
C555 C556 1.397 . S
C556 C555 1.397 . S
C556 C557 1.438 . S
C556 C561 1.429 . S
C557 C540 1.394 . S
C557 C556 1.438 . S
C557 C558 1.428 . S
C558 H550 0.949 . S
C558 C557 1.428 . S
C558 C559 1.345 . S
C559 H551 0.950 . S
C559 C558 1.345 . S
C559 C560 1.424 . S
C560 H552 0.951 . S
C560 C559 1.424 . S
C560 C561 1.347 . S
C561 H553 0.951 . S
C561 C556 1.429 . S
C561 C560 1.347 . S
C218 C164 1.456 . S
C203 C15 1.449 . S
C233 C13 1.589 . S
C248 C124 1.525 1_554 S
C263 C18 1.395 . S
C278 C177 1.533 . S
C293 C17 1.307 . S
C308 C137 1.376 . S
C323 C36 1.429 . S
C338 C84 1.469 . S
C353 C34 1.536 . S
C368 C44 1.575 . S
C398 C97 1.483 . S
C383 C39 1.228 . S
C428 C57 1.406 . S
C413 C38 1.407 . S
C443 C14 1.466 . S
C458 C63 1.559 . S
C473 C16 1.322 . S
C488 C103 1.368 . S
C518 C143 1.551 . S
C503 C35 1.471 . S
C533 C37 1.321 . S
C548 C183 1.374 . S
