# Generated by pormake.
# Topology pth, (4,4)-cn, num edge types: 1
# Building blocks:
#     Node 0, Type 0, BuildingBlock: QUQFOY_clean_sbu_1, # of connection points: 4
#     Node 1, Type 0, BuildingBlock: QUQFOY_clean_sbu_1, # of connection points: 4
#     Node 2, Type 0, BuildingBlock: QUQFOY_clean_sbu_1, # of connection points: 4
#     Node 3, Type 1, BuildingBlock: NAWXER_clean_sbu_0, # of connection points: 4
#     Node 4, Type 1, BuildingBlock: NAWXER_clean_sbu_0, # of connection points: 4
#     Node 5, Type 1, BuildingBlock: NAWXER_clean_sbu_0, # of connection points: 4
#     Edge 6, Type (0, 1), BuildingBlock: MIFKUJ_clean_linker_0, # of connection points: 2
#     Edge 7, Type (0, 1), BuildingBlock: MIFKUJ_clean_linker_0, # of connection points: 2
#     Edge 8, Type (0, 1), BuildingBlock: MIFKUJ_clean_linker_0, # of connection points: 2
#     Edge 9, Type (0, 1), BuildingBlock: MIFKUJ_clean_linker_0, # of connection points: 2
#     Edge 10, Type (0, 1), BuildingBlock: MIFKUJ_clean_linker_0, # of connection points: 2
#     Edge 11, Type (0, 1), BuildingBlock: MIFKUJ_clean_linker_0, # of connection points: 2
#     Edge 12, Type (0, 1), BuildingBlock: MIFKUJ_clean_linker_0, # of connection points: 2
#     Edge 13, Type (0, 1), BuildingBlock: MIFKUJ_clean_linker_0, # of connection points: 2
#     Edge 14, Type (0, 1), BuildingBlock: MIFKUJ_clean_linker_0, # of connection points: 2
#     Edge 15, Type (0, 1), BuildingBlock: MIFKUJ_clean_linker_0, # of connection points: 2
#     Edge 16, Type (0, 1), BuildingBlock: MIFKUJ_clean_linker_0, # of connection points: 2
#     Edge 17, Type (0, 1), BuildingBlock: MIFKUJ_clean_linker_0, # of connection points: 2
# Relax obj value: 0.022
# Max RMSD: 0.120
# Mean RMSD: 0.065
data_MOF--net-pth--node1-QUQFOY_clean_sbu_1--node2-NAWXER_clean_sbu_0--edge1-MIFKUJ_clean_linker_0
_symmetry_space_group_name_H-M    P1
_symmetry_Int_Tables_number       1
_symmetry_cell_setting            triclinic
loop_
_symmetry_equiv_pos_as_xyz
'x, y, z'
_cell_length_a     28.590689
_cell_length_b     30.865437
_cell_length_c     76.320686
_cell_angle_alpha  90.050853
_cell_angle_beta   90.143752
_cell_angle_gamma 120.09151
loop_
_atom_site_label
_atom_site_type_symbol
_atom_site_fract_x
_atom_site_fract_y
_atom_site_fract_z
_atom_type_partial_charge
O0 O 0.02242 0.07895 0.09585 0.0
Cd1 Cd 0.96827 0.02653 0.11308 0.0
Cd2 Cd 0.04243 0.99874 0.11378 0.0
O3 O 0.09133 0.06915 0.10291 0.0
O4 O 0.92301 0.05437 0.12203 0.0
O5 O 0.98122 0.04534 0.13859 0.0
C6 C 0.94726 0.06115 0.13692 0.0
C7 C 0.06561 0.96738 0.13807 0.0
C8 C 0.07242 0.09312 0.09481 0.0
C9 C 0.93695 0.92911 0.09621 0.0
O10 O 0.98687 0.943 0.09755 0.0
O11 O 0.91866 0.95498 0.10329 0.0
O12 O 0.08901 0.9727 0.12315 0.0
O13 O 0.03155 0.98311 0.13951 0.0
O14 O 0.98953 0.06317 0.45351 0.0
Cd15 Cd 0.04938 0.06626 0.43769 0.0
Cd16 Cd 0.98008 0.9657 0.43761 0.0
O17 O 0.92707 0.98421 0.4494 0.0
O18 O 0.09033 0.13823 0.43081 0.0
O19 O 0.04532 0.07698 0.41176 0.0
C20 C 0.07329 0.12446 0.41499 0.0
C21 C 0.95476 0.90789 0.41461 0.0
C22 C 0.9418 0.02713 0.45596 0.0
C23 C 0.08854 1.00489 0.45558 0.0
O24 O 0.04078 0.96872 0.45314 0.0
O25 O 0.10288 0.04787 0.44922 0.0
O26 O 0.93813 0.89389 0.4304 0.0
O27 O 0.98342 0.95541 0.41162 0.0
O28 O 0.93828 0.96632 0.76384 0.0
Cd29 Cd 0.99184 0.95951 0.78002 0.0
Cd30 Cd 0.03519 0.05825 0.78081 0.0
O31 O 0.96313 0.04506 0.7694 0.0
O32 O 0.9502 0.8885 0.788 0.0
O33 O 0.97555 0.95309 0.80584 0.0
C34 C 0.94874 0.9052 0.80338 0.0
C35 C 0.07607 0.1074 0.80557 0.0
C36 C 0.93088 1.00338 0.7621 0.0
C37 C 0.09743 0.01691 0.76231 0.0
O38 O 0.08993 0.05376 0.76457 0.0
O39 O 0.06474 0.97444 0.76893 0.0
O40 O 0.0762 0.12738 0.7907 0.0
O41 O 0.04883 0.05913 0.8067 0.0
C42 C 0.96195 0.54755 0.29749 0.0
C43 C 0.96681 0.43844 0.25196 0.0
O44 O 1.01048 0.55904 0.29355 0.0
Zn45 Zn 0.04949 0.53393 0.27503 0.0
O46 O 0.92233 0.51158 0.28957 0.0
Zn47 Zn 0.96426 0.49433 0.27437 0.0
O48 O 1.00106 0.46556 0.29241 0.0
O49 O 0.08957 0.51391 0.29006 0.0
O50 O 0.92593 0.43907 0.25812 0.0
O51 O 0.01425 0.47164 0.25707 0.0
O52 O 0.08958 0.59221 0.26015 0.0
O53 O 1.00145 0.55954 0.25791 0.0
C54 C 0.04906 0.47626 0.29687 0.0
C55 C 0.04937 0.59372 0.25375 0.0
C56 C 0.55696 0.97791 0.63118 0.0
C57 C 0.43477 0.97659 0.58551 0.0
O58 O 0.51875 0.93908 0.62389 0.0
Zn59 Zn 0.49404 0.97391 0.60834 0.0
O60 O 0.56634 0.02133 0.62642 0.0
Zn61 Zn 0.53651 0.05496 0.6087 0.0
O62 O 0.51221 0.08891 0.6248 0.0
O63 O 0.4645 1.00653 0.62659 0.0
O64 O 0.47097 0.02031 0.59062 0.0
O65 O 0.43242 0.9381 0.59251 0.0
O66 O 0.55905 1.00953 0.59028 0.0
O67 O 0.59789 0.09162 0.59297 0.0
C68 C 0.47404 0.04967 0.63181 0.0
C69 C 0.5952 0.05352 0.58549 0.0
C70 C 0.42849 0.46723 0.97427 0.0
C71 C 0.55819 0.57504 0.92965 0.0
O72 O 0.42506 0.50033 0.96531 0.0
Zn73 Zn 0.48978 0.52069 0.9511 0.0
O74 O 0.4665 0.45785 0.97117 0.0
Zn75 Zn 0.5336 0.48111 0.95414 0.0
O76 O 0.59227 0.50403 0.9711 0.0
O77 O 0.55261 0.54979 0.97062 0.0
O78 O 0.56768 0.54167 0.93592 0.0
O79 O 0.51625 0.57616 0.93452 0.0
O80 O 0.46367 0.45799 0.93421 0.0
O81 O 0.51118 0.42111 0.93989 0.0
C82 C 0.58839 0.54072 0.977 0.0
C83 C 0.47411 0.42293 0.93126 0.0
H84 H 0.86682 0.08402 0.14001 0.0
H85 H 0.862 0.14187 0.16082 0.0
H86 H 1.00865 0.16534 0.1857 0.0
H87 H 0.01235 0.10587 0.16537 0.0
H88 H 0.94568 0.1667 0.20965 0.0
H89 H 1.00653 0.24789 0.15413 0.0
H90 H 1.00298 0.25865 0.12223 0.0
H91 H 0.85412 0.25957 0.12799 0.0
H92 H 0.85644 0.24816 0.15993 0.0
H93 H 0.04162 0.41141 0.24404 0.0
H94 H 0.02997 0.34179 0.22567 0.0
H95 H 0.86594 0.3037 0.21429 0.0
H96 H 0.8769 0.37307 0.23298 0.0
H97 H 0.93138 0.30752 0.18416 0.0
H98 H 0.879 0.23327 0.24139 0.0
H99 H 0.89121 0.22848 0.27318 0.0
H100 H 0.03519 0.2213 0.26382 0.0
H101 H 0.0243 0.22683 0.23196 0.0
C102 C 0.89756 0.10089 0.1501 0.0
C103 C 0.94018 0.09061 0.15096 0.0
C104 C 0.895 0.1343 0.16192 0.0
C105 C 0.93574 0.15914 0.17459 0.0
C106 C 0.97684 0.14696 0.17602 0.0
C107 C 0.97892 0.11289 0.16437 0.0
C108 C 0.93698 0.19937 0.18579 0.0
C109 C 0.94296 0.19762 0.20402 0.0
C110 C 0.93284 0.23969 0.17857 0.0
C111 C 0.93134 0.24661 0.15938 0.0
C112 C 0.97283 0.25001 0.14857 0.0
C113 C 0.97108 0.25629 0.13049 0.0
C114 C 0.92827 0.25964 0.12308 0.0
C115 C 0.8872 0.25687 0.13375 0.0
C116 C 0.88872 0.25053 0.15184 0.0
C117 C 1.00309 0.38848 0.23757 0.0
C118 C 0.96016 0.39786 0.23997 0.0
C119 C 0.99646 0.34853 0.22715 0.0
C120 C 0.947 0.3174 0.21874 0.0
C121 C 0.90439 0.32725 0.22072 0.0
C122 C 0.91071 0.36683 0.2314 0.0
C123 C 0.94021 0.27469 0.20787 0.0
C124 C 0.93345 0.27619 0.18974 0.0
C125 C 0.94475 0.23477 0.21514 0.0
C126 C 0.95108 0.23092 0.23429 0.0
C127 C 0.91351 0.23109 0.24611 0.0
C128 C 0.92015 0.22816 0.26415 0.0
C129 C 0.96402 0.22471 0.27052 0.0
C130 C 1.00125 0.22402 0.25887 0.0
C131 C 0.99483 0.227 0.24082 0.0
H132 H 0.96909 0.22246 0.28449 0.0
H133 H 0.92698 0.2645 0.10908 0.0
H134 H 0.83855 0.95844 0.46617 0.0
H135 H 0.78064 0.97172 0.48642 0.0
H136 H 0.90299 0.12736 0.49152 0.0
H137 H 0.96124 0.11441 0.4715 0.0
H138 H 0.86633 0.08693 0.52293 0.0
H139 H 0.78751 0.09329 0.46852 0.0
H140 H 0.74752 0.06456 0.43917 0.0
H141 H 0.61656 0.93143 0.46154 0.0
H142 H 0.65618 0.95902 0.49102 0.0
H143 H 0.68763 0.13792 0.57412 0.0
H144 H 0.74812 0.14267 0.55038 0.0
H145 H 0.64569 0.98455 0.54059 0.0
H146 H 0.58565 0.97948 0.56395 0.0
H147 H 0.67562 0.03725 0.51027 0.0
H148 H 0.76022 0.02692 0.56395 0.0
H149 H 0.80041 0.05494 0.59332 0.0
H150 H 0.9207 0.19596 0.57204 0.0
H151 H 0.88071 0.16897 0.54255 0.0
C152 C 0.85294 0.99559 0.47146 0.0
C153 C 0.90461 0.03529 0.46721 0.0
C154 C 0.81972 1.00319 0.483 0.0
C155 C 0.83735 0.05066 0.49041 0.0
C156 C 0.88855 0.09044 0.48599 0.0
C157 C 0.92174 0.08291 0.47448 0.0
C158 C 0.80335 0.05834 0.50334 0.0
C159 C 0.82494 0.07695 0.52004 0.0
C160 C 0.74914 0.04477 0.49967 0.0
C161 C 0.72508 0.02805 0.48197 0.0
C162 C 0.75041 0.0577 0.46717 0.0
C163 C 0.72777 0.04165 0.45051 0.0
C164 C 0.67959 0.99615 0.44849 0.0
C165 C 0.6539 0.96665 0.46313 0.0
C166 C 0.6764 0.9825 0.47982 0.0
C167 C 0.67803 0.10431 0.56684 0.0
C168 C 0.63201 0.05831 0.57102 0.0
C169 C 0.7126 0.10703 0.55332 0.0
C170 C 0.70145 0.06386 0.54376 0.0
C171 C 0.65502 0.01833 0.54773 0.0
C172 C 0.62088 0.01552 0.56121 0.0
C173 C 0.73835 0.06494 0.5299 0.0
C174 C 0.71729 0.04793 0.51303 0.0
C175 C 0.79303 0.07997 0.5334 0.0
C176 C 0.81707 0.09619 0.5511 0.0
C177 C 0.79494 0.06407 0.56556 0.0
C178 C 0.81774 0.07973 0.58223 0.0
C179 C 0.86296 0.12727 0.58456 0.0
C180 C 0.88558 0.15919 0.57022 0.0
C181 C 0.86289 0.14373 0.55353 0.0
H182 H 0.88057 0.13932 0.59747 0.0
H183 H 0.66212 0.9838 0.43558 0.0
H184 H 0.87102 0.80728 0.7995 0.0
H185 H 0.8037 0.75334 0.82082 0.0
H186 H 0.87758 0.8702 0.8598 0.0
H187 H 0.94384 0.92535 0.83817 0.0
H188 H 0.8028 0.71216 0.84922 0.0
H189 H 0.78466 0.86435 0.88852 0.0
H190 H 0.79495 0.94773 0.8837 0.0
H191 H 0.76159 0.91504 0.82888 0.0
H192 H 0.7504 0.83126 0.83342 0.0
H193 H 0.66398 0.60301 0.92628 0.0
H194 H 0.72911 0.66087 0.90526 0.0
H195 H 0.60723 0.68867 0.88345 0.0
H196 H 0.54185 0.63173 0.90514 0.0
H197 H 0.69997 0.77248 0.88386 0.0
H198 H 0.64262 0.60804 0.86324 0.0
H199 H 0.6222 0.52047 0.86482 0.0
H200 H 0.78891 0.57057 0.8761 0.0
H201 H 0.8102 0.65848 0.87485 0.0
C202 C 0.87333 0.82146 0.81265 0.0
C203 C 0.91275 0.87073 0.81711 0.0
C204 C 0.83466 0.79049 0.82487 0.0
C205 C 0.83471 0.80779 0.8419 0.0
C206 C 0.87564 0.85628 0.84664 0.0
C207 C 0.9139 0.88765 0.83431 0.0
C208 C 0.79168 0.77498 0.85454 0.0
C209 C 0.78047 0.72552 0.85678 0.0
C210 C 0.76117 0.79163 0.86413 0.0
C211 C 0.76728 0.84175 0.8613 0.0
C212 C 0.77934 0.87491 0.87546 0.0
C213 C 0.78536 0.92224 0.87277 0.0
C214 C 0.77911 0.93673 0.85598 0.0
C215 C 0.76662 0.90384 0.84186 0.0
C216 C 0.7605 0.85645 0.84448 0.0
C217 C 0.65089 0.62145 0.91704 0.0
C218 C 0.59749 0.61227 0.91722 0.0
C219 C 0.68824 0.65449 0.90497 0.0
C220 C 0.67288 0.67827 0.89244 0.0
C221 C 0.62001 0.67053 0.89292 0.0
C222 C 0.58264 0.63794 0.90527 0.0
C223 C 0.71197 0.71014 0.8787 0.0
C224 C 0.72241 0.75929 0.87627 0.0
C225 C 0.74042 0.69268 0.86842 0.0
C226 C 0.72791 0.63985 0.86909 0.0
C227 C 0.67486 0.60038 0.86617 0.0
C228 C 0.66314 0.55068 0.867 0.0
C229 C 0.70421 0.53996 0.87059 0.0
C230 C 0.75713 0.57893 0.87333 0.0
C231 C 0.76906 0.62871 0.87255 0.0
H232 H 0.69506 0.50145 0.87122 0.0
H233 H 0.78383 0.97341 0.85393 0.0
H234 H 0.14972 0.95008 0.14267 0.0
H235 H 0.15607 0.8939 0.16389 0.0
H236 H 1.00316 0.86144 0.18608 0.0
H237 H 0.99819 0.91961 0.1655 0.0
H238 H 0.0632 0.86294 0.21109 0.0
H239 H 0.01889 0.78291 0.15453 0.0
H240 H 0.03138 0.77491 0.12296 0.0
H241 H 0.18412 0.78495 0.13351 0.0
H242 H 0.17282 0.79363 0.16514 0.0
H243 H 0.97441 0.62004 0.24508 0.0
H244 H 0.98665 0.69038 0.22713 0.0
H245 H 0.15341 0.73345 0.21863 0.0
H246 H 0.14173 0.66315 0.23688 0.0
H247 H 0.09402 0.72946 0.18748 0.0
H248 H 0.1375 0.8122 0.24413 0.0
H249 H 0.12342 0.82075 0.27551 0.0
H250 H 0.96579 0.79894 0.26419 0.0
H251 H 0.97971 0.79167 0.23263 0.0
C252 C 0.11794 0.9316 0.15228 0.0
C253 C 0.07334 0.9391 0.15237 0.0
C254 C 0.12132 0.89906 0.16431 0.0
C255 C 0.07933 0.8721 0.17632 0.0
C256 C 0.036 0.88144 0.17693 0.0
C257 C 0.0332 0.91482 0.16515 0.0
C258 C 0.07939 0.83301 0.18781 0.0
C259 C 0.06947 0.8336 0.20581 0.0
C260 C 0.08854 0.79492 0.18115 0.0
C261 C 0.09527 0.78945 0.16216 0.0
C262 C 0.05529 0.78373 0.1501 0.0
C263 C 0.06213 0.77903 0.1322 0.0
C264 C 0.10858 0.77956 0.12623 0.0
C265 C 0.14821 0.78463 0.13815 0.0
C266 C 0.14159 0.78941 0.15606 0.0
C267 C 0.01375 0.64433 0.23939 0.0
C268 C 0.05708 0.63582 0.24239 0.0
C269 C 0.02074 0.68476 0.22922 0.0
C270 C 0.07104 0.71739 0.22167 0.0
C271 C 0.1143 0.70879 0.22441 0.0
C272 C 0.10756 0.66863 0.23483 0.0
C273 C 0.07749 0.75952 0.21055 0.0
C274 C 0.08831 0.75924 0.19265 0.0
C275 C 0.06845 0.79744 0.2172 0.0
C276 C 0.05947 0.80101 0.23611 0.0
C277 C 0.09975 0.80898 0.24837 0.0
C278 C 0.09185 0.81375 0.26617 0.0
C279 C 0.04349 0.80988 0.27188 0.0
C280 C 1.00317 0.80181 0.25976 0.0
C281 C 0.01119 0.79773 0.2419 0.0
H282 H 0.03738 0.81337 0.28568 0.0
H283 H 0.11382 0.77593 0.11237 0.0
H284 H 0.18956 0.0749 0.46735 0.0
H285 H 0.24774 0.06177 0.48759 0.0
H286 H 0.1311 0.9038 0.48923 0.0
H287 H 0.07238 0.91665 0.46927 0.0
H288 H 0.16266 0.9387 0.52132 0.0
H289 H 0.25176 0.94815 0.46746 0.0
H290 H 0.29475 0.98397 0.43909 0.0
H291 H 0.41669 0.11608 0.46516 0.0
H292 H 0.37399 0.08135 0.49369 0.0
H293 H 0.34581 0.89186 0.57229 0.0
H294 H 0.28576 0.88793 0.54843 0.0
H295 H 0.38049 0.04831 0.54261 0.0
H296 H 0.44011 0.05261 0.56609 0.0
H297 H 0.35751 1.0014 0.51111 0.0
H298 H 0.26223 0.9955 0.56427 0.0
H299 H 0.21914 0.96025 0.5927 0.0
H300 H 0.10892 0.82097 0.56764 0.0
H301 H 0.15187 0.85524 0.53908 0.0
C302 C 0.17653 0.03728 0.47186 0.0
C303 C 0.12623 0.99689 0.46668 0.0
C304 C 0.20993 0.02978 0.4834 0.0
C305 C 0.19398 0.98168 0.48985 0.0
C306 C 0.14424 0.94122 0.48446 0.0
C307 C 0.11078 0.94869 0.47299 0.0
C308 C 0.22803 0.97398 0.50281 0.0
C309 C 0.20503 0.95155 0.51894 0.0
C310 C 0.28349 0.99129 0.49984 0.0
C311 C 0.30939 0.01228 0.48271 0.0
C312 C 0.28751 0.985 0.46714 0.0
C313 C 0.31187 1.00508 0.45103 0.0
C314 C 0.35836 0.05231 0.45032 0.0
C315 C 0.38065 0.07951 0.46573 0.0
C316 C 0.35642 0.05962 0.48187 0.0
C317 C 0.35375 0.92619 0.56589 0.0
C318 C 0.39763 0.97252 0.57117 0.0
C319 C 0.31943 0.92392 0.5523 0.0
C320 C 0.32864 0.96791 0.54378 0.0
C321 C 0.37272 0.0139 0.54893 0.0
C322 C 0.40664 0.01624 0.56247 0.0
C323 C 0.29233 0.96704 0.52967 0.0
C324 C 0.31492 0.98788 0.51334 0.0
C325 C 0.23654 0.94827 0.53245 0.0
C326 C 0.21068 0.9277 0.54959 0.0
C327 C 0.22911 0.95721 0.56485 0.0
C328 C 0.20465 0.93745 0.58098 0.0
C329 C 0.16143 0.88834 0.58199 0.0
C330 C 0.14248 0.85896 0.56685 0.0
C331 C 0.16684 0.87854 0.55069 0.0
H332 H 0.14254 0.8731 0.59448 0.0
H333 H 0.37716 0.0678 0.43783 0.0
H334 H 0.15432 0.20584 0.80439 0.0
H335 H 0.22132 0.25424 0.82691 0.0
H336 H 0.14571 0.12878 0.8622 0.0
H337 H 0.0787 0.07944 0.83955 0.0
H338 H 0.17886 0.22855 0.87736 0.0
H339 H 0.24888 0.14142 0.84394 0.0
H340 H 0.27296 0.11436 0.81668 0.0
H341 H 0.38354 0.26765 0.80338 0.0
H342 H 0.35943 0.29569 0.83043 0.0
H343 H 0.40254 0.32451 0.93723 0.0
H344 H 0.33303 0.26555 0.91673 0.0
H345 H 0.3995 0.3769 0.87595 0.0
H346 H 0.46762 0.43615 0.89656 0.0
H347 H 0.36949 0.27874 0.86444 0.0
H348 H 0.30266 0.36707 0.89748 0.0
H349 H 0.27608 0.39712 0.92337 0.0
H350 H 0.15499 0.24632 0.93581 0.0
H351 H 0.18322 0.2149 0.91067 0.0
C352 C 0.15126 0.18866 0.81702 0.0
C353 C 0.11118 0.13867 0.82015 0.0
C354 C 0.18981 0.21636 0.82985 0.0
C355 C 0.18877 0.19489 0.84613 0.0
C356 C 0.14723 0.14592 0.84968 0.0
C357 C 0.109 0.11784 0.83673 0.0
C358 C 0.23265 0.22307 0.85906 0.0
C359 C 0.22043 0.23871 0.87477 0.0
C360 C 0.28697 0.2374 0.85533 0.0
C361 C 0.30195 0.22066 0.83913 0.0
C362 C 0.27798 0.16939 0.83513 0.0
C363 C 0.29169 0.15386 0.81973 0.0
C364 C 0.32966 0.18927 0.80828 0.0
C365 C 0.35409 0.24027 0.81224 0.0
C366 C 0.34044 0.256 0.82762 0.0
C367 C 0.40305 0.33567 0.92375 0.0
C368 C 0.44069 0.38435 0.9183 0.0
C369 C 0.36317 0.30226 0.91212 0.0
C370 C 0.361 0.31699 0.89485 0.0
C371 C 0.40056 0.36476 0.88919 0.0
C372 C 0.43951 0.39845 0.9009 0.0
C373 C 0.31582 0.2841 0.88292 0.0
C374 C 0.32786 0.26789 0.86727 0.0
C375 C 0.26135 0.26967 0.88668 0.0
C376 C 0.24606 0.28844 0.90235 0.0
C377 C 0.27146 0.34007 0.906 0.0
C378 C 0.25605 0.3574 0.92057 0.0
C379 C 0.21432 0.3236 0.93138 0.0
C380 C 0.18787 0.27242 0.9276 0.0
C381 C 0.20386 0.25479 0.91326 0.0
H382 H 0.20216 0.33708 0.94259 0.0
H383 H 0.34022 0.17717 0.79637 0.0
H384 H 0.84968 0.91705 0.74797 0.0
H385 H 0.77988 0.90743 0.72737 0.0
H386 H 0.83988 0.06639 0.7296 0.0
H387 H 0.9099 0.0764 0.75053 0.0
H388 H 0.72978 0.01294 0.72937 0.0
H389 H 0.87356 0.01598 0.69583 0.0
H390 H 0.93869 0.98921 0.68773 0.0
H391 H 0.80795 0.84062 0.6772 0.0
H392 H 0.74202 0.86636 0.68548 0.0
H393 H 0.63416 0.05484 0.65037 0.0
H394 H 0.68924 0.05157 0.674 0.0
H395 H 0.61174 0.89117 0.66839 0.0
H396 H 0.55577 0.89401 0.64436 0.0
H397 H 0.72381 0.93767 0.67131 0.0
H398 H 0.57956 0.9378 0.70249 0.0
H399 H 0.51568 0.96658 0.70992 0.0
H400 H 0.64803 0.1108 0.7244 0.0
H401 H 0.71281 0.08315 0.7168 0.0
C402 C 0.84799 0.95007 0.74421 0.0
C403 C 0.88583 0.99766 0.75079 0.0
C404 C 0.80804 0.94444 0.73237 0.0
C405 C 0.80524 0.98627 0.72669 0.0
C406 C 0.84149 0.0336 0.73375 0.0
C407 C 0.88151 0.03929 0.74569 0.0
C408 C 0.76562 0.98069 0.71298 0.0
C409 C 0.72879 0.99692 0.71662 0.0
C410 C 0.76333 0.95848 0.6965 0.0
C411 C 0.80289 0.94296 0.69146 0.0
C412 C 0.85871 0.97749 0.69193 0.0
C413 C 0.89577 0.96253 0.68727 0.0
C414 C 0.87747 0.91321 0.682 0.0
C415 C 0.82206 0.87879 0.68132 0.0
C416 C 0.78483 0.89355 0.68598 0.0
C417 C 0.6285 0.01866 0.65408 0.0
C418 C 0.59032 0.97457 0.64545 0.0
C419 C 0.65997 0.01692 0.66771 0.0
C420 C 0.65406 0.97111 0.67314 0.0
C421 C 0.61663 0.92691 0.66445 0.0
C422 C 0.58469 0.92857 0.65076 0.0
C423 C 0.68835 0.97037 0.68764 0.0
C424 C 0.72431 0.95309 0.68413 0.0
C425 C 0.68994 0.99178 0.70422 0.0
C426 C 0.65109 1.00847 0.70895 0.0
C427 C 0.59509 0.97577 0.70714 0.0
C428 C 0.5587 0.99186 0.7114 0.0
C429 C 0.57778 0.04051 0.71759 0.0
C430 C 0.6333 0.07313 0.71959 0.0
C431 C 0.66988 0.05724 0.71533 0.0
H432 H 0.54954 0.05291 0.72088 0.0
H433 H 0.90622 0.90169 0.6784 0.0
H434 H 0.83114 0.89389 0.08694 0.0
H435 H 0.77356 0.82119 0.06865 0.0
H436 H 0.90278 0.78808 0.064 0.0
H437 H 0.96098 0.86128 0.08195 0.0
H438 H 0.85894 0.78156 0.03308 0.0
H439 H 0.79068 0.71633 0.0899 0.0
H440 H 0.75445 0.71469 0.11933 0.0
H441 H 0.6164 0.71332 0.09641 0.0
H442 H 0.65217 0.71565 0.06683 0.0
H443 H 0.68284 0.54855 0.98957 0.0
H444 H 0.74381 0.60751 0.01186 0.0
H445 H 0.63606 0.66611 0.01838 0.0
H446 H 0.57541 0.60782 0.99636 0.0
H447 H 0.67268 0.65278 0.04982 0.0
H448 H 0.74632 0.7267 0.99337 0.0
H449 H 0.78252 0.72847 0.96391 0.0
H450 H 0.91081 0.71268 0.98656 0.0
H451 H 0.87487 0.7101 0.01615 0.0
C452 C 0.84722 0.87096 0.08214 0.0
C453 C 0.90072 0.8835 0.08593 0.0
C454 C 0.81414 0.82921 0.07174 0.0
C455 C 0.83359 0.79873 0.06509 0.0
C456 C 0.88683 0.81096 0.06897 0.0
C457 C 0.92002 0.85282 0.07928 0.0
C458 C 0.79908 0.7553 0.05354 0.0
C459 C 0.81861 0.75287 0.0369 0.0
C460 C 0.74612 0.71815 0.05837 0.0
C461 C 0.72435 0.71655 0.07614 0.0
C462 C 0.75279 0.71604 0.09113 0.0
C463 C 0.7323 0.71493 0.10784 0.0
C464 C 0.68321 0.714 0.10974 0.0
C465 C 0.65444 0.71407 0.09492 0.0
C466 C 0.67477 0.71522 0.07818 0.0
C467 C 0.67204 0.57375 0.99587 0.0
C468 C 0.62447 0.57371 0.9911 0.0
C469 C 0.70694 0.60749 0.00855 0.0
C470 C 0.6946 0.64142 0.0167 0.0
C471 C 0.64638 0.64027 0.0123 0.0
C472 C 0.61187 0.60702 0.99961 0.0
C473 C 0.73234 0.67962 0.02935 0.0
C474 C 0.71336 0.68109 0.04617 0.0
C475 C 0.7858 0.71582 0.02471 0.0
C476 C 0.80754 0.71758 1.00694 0.0
C477 C 0.78198 0.72318 0.99205 0.0
C478 C 0.80249 0.72441 0.97533 0.0
C479 C 0.84884 0.72053 0.97336 0.0
C480 C 0.87485 0.71557 0.9881 0.0
C481 C 0.85444 0.71423 1.00485 0.0
H482 H 0.86467 0.7215 0.96041 0.0
H483 H 0.66742 0.71315 0.12269 0.0
H484 H 0.9821 0.9238 0.37977 0.0
H485 H 0.97409 0.86179 0.35809 0.0
H486 H 0.90085 0.74556 0.39707 0.0
H487 H 0.90703 0.8067 0.41848 0.0
H488 H 0.01999 0.80868 0.35691 0.0
H489 H 0.81979 0.63322 0.37962 0.0
H490 H 0.73085 0.61337 0.39128 0.0
H491 H 0.74825 0.74764 0.36835 0.0
H492 H 0.83692 0.76795 0.35634 0.0
H493 H 0.02359 0.59704 0.32594 0.0
H494 H 0.01374 0.6553 0.34522 0.0
H495 H 0.87251 0.62986 0.31607 0.0
H496 H 0.88034 0.56908 0.29753 0.0
H497 H 0.85671 0.64211 0.34788 0.0
H498 H 1.00474 0.73063 0.30916 0.0
H499 H 0.09016 0.74922 0.29506 0.0
H500 H 0.1732 0.79793 0.34436 0.0
H501 H 0.0876 0.77673 0.35901 0.0
C502 C 0.96336 0.88486 0.38361 0.0
C503 C 0.94504 0.87023 0.40085 0.0
C504 C 0.95905 0.84945 0.37122 0.0
C505 C 0.93644 0.79875 0.37584 0.0
C506 C 0.91735 0.7841 0.39299 0.0
C507 C 0.92116 0.81929 0.40529 0.0
C508 C 0.93575 0.76158 0.36317 0.0
C509 C 0.98418 0.77238 0.35486 0.0
C510 C 0.88882 0.71448 0.36015 0.0
C511 C 0.83525 0.7023 0.36721 0.0
C512 C 0.80454 0.65839 0.377 0.0
C513 C 0.75418 0.64709 0.38368 0.0
C514 C 0.73398 0.67929 0.3806 0.0
C515 C 0.76403 0.72281 0.37078 0.0
C516 C 0.81438 0.73428 0.36405 0.0
C517 C 0.99001 0.60339 0.32384 0.0
C518 C 0.95291 0.5788 0.31019 0.0
C519 C 0.98458 0.63696 0.33478 0.0
C520 C 0.94327 0.64828 0.33183 0.0
C521 C 0.9049 0.62213 0.31861 0.0
C522 C 0.90942 0.5874 0.30799 0.0
C523 C 0.94136 0.68867 0.34202 0.0
C524 C 0.89245 0.67851 0.34983 0.0
C525 C 0.98749 0.73698 0.34413 0.0
C526 C 0.03952 0.75169 0.33522 0.0
C527 C 0.04111 0.74504 0.31703 0.0
C528 C 0.08959 0.75599 0.30894 0.0
C529 C 0.13719 0.77519 0.31876 0.0
C530 C 0.13631 0.78314 0.33675 0.0
C531 C 0.08773 0.77136 0.34498 0.0
H532 H 0.17471 0.78378 0.31244 0.0
H533 H 0.69501 0.67048 0.3858 0.0
H534 H 0.11843 0.94501 0.7496 0.0
H535 H 0.19012 0.9571 0.72928 0.0
H536 H 0.25169 0.11646 0.72968 0.0
H537 H 0.17992 0.1047 0.74968 0.0
H538 H 0.24386 0.08451 0.6972 0.0
H539 H 0.31923 0.06487 0.7505 0.0
H540 H 0.32085 0.02436 0.77814 0.0
H541 H 0.29482 0.89394 0.74971 0.0
H542 H 0.29228 0.93339 0.7219 0.0
H543 H 0.47716 0.13305 0.64641 0.0
H544 H 0.42085 0.13456 0.67044 0.0
H545 H 0.33984 0.97346 0.67364 0.0
H546 H 0.39548 0.97156 0.65002 0.0
H547 H 0.36545 0.01496 0.70575 0.0
H548 H 0.28124 0.03176 0.65304 0.0
H549 H 0.27904 0.07191 0.62536 0.0
H550 H 0.3223 0.20821 0.65303 0.0
H551 H 0.32541 0.169 0.68085 0.0
C552 C 0.14758 0.98266 0.74552 0.0
C553 C 0.14325 0.02381 0.75123 0.0
C554 C 0.18867 0.98957 0.73393 0.0
C555 C 0.22654 0.03778 0.72801 0.0
C556 C 0.2229 0.07893 0.73401 0.0
C557 C 0.18182 0.07207 0.74549 0.0
C558 C 0.26839 0.04517 0.71493 0.0
C559 C 0.2711 0.07007 0.69923 0.0
C560 C 0.30348 0.02577 0.71742 0.0
C561 C 0.30511 1.00195 0.73412 0.0
C562 C 0.31343 0.0274 0.75015 0.0
C563 C 0.31459 1.00465 0.76584 0.0
C564 C 0.30782 0.95656 0.76568 0.0
C565 C 0.30001 0.93117 0.74981 0.0
C566 C 0.29877 0.95373 0.73408 0.0
C567 C 0.44735 0.09804 0.65226 0.0
C568 C 0.44076 0.05223 0.64622 0.0
C569 C 0.41518 0.09892 0.66596 0.0
C570 C 0.37599 0.05404 0.6738 0.0
C571 C 0.36991 1.00854 0.66787 0.0
C572 C 0.40171 1.00759 0.65425 0.0
C573 C 0.34022 0.05356 0.68797 0.0
C574 C 0.33864 0.02994 0.70387 0.0
C575 C 0.30619 0.07413 0.68568 0.0
C576 C 0.30419 0.09766 0.66898 0.0
C577 C 0.29072 0.07042 0.65319 0.0
C578 C 0.28922 0.09297 0.63749 0.0
C579 C 0.30069 0.14263 0.63743 0.0
C580 C 0.31353 0.16979 0.65309 0.0
C581 C 0.31514 0.14741 0.66883 0.0
H582 H 0.29951 0.16004 0.62526 0.0
H583 H 0.30873 0.93902 0.77785 0.0
H584 H 0.18338 0.14528 0.09345 0.0
H585 H 0.24085 0.2157 0.07421 0.0
H586 H 0.09922 0.2091 0.05149 0.0
H587 H 0.04159 0.13932 0.07072 0.0
H588 H 0.1744 0.21203 0.02667 0.0
H589 H 0.1712 0.30063 0.07829 0.0
H590 H 0.18241 0.32089 0.10983 0.0
H591 H 0.35003 0.36348 0.1068 0.0
H592 H 0.33964 0.34278 0.07528 0.0
H593 H 0.31961 0.43437 0.97572 0.0
H594 H 0.25504 0.37648 0.99747 0.0
H595 H 0.38637 0.37805 0.02598 0.0
H596 H 0.45033 0.43478 1.00432 0.0
H597 H 0.312 0.38041 0.04813 0.0
H598 H 0.31888 0.28815 0.99922 0.0
H599 H 0.31276 0.26128 0.96848 0.0
H600 H 0.14499 0.21891 0.96702 0.0
H601 H 0.15056 0.24705 0.99759 0.0
C602 C 0.16449 0.15898 0.08442 0.0
C603 C 0.10788 0.13666 0.08364 0.0
C604 C 0.19737 0.19931 0.07349 0.0
C605 C 0.17422 0.2177 0.06149 0.0
C606 C 0.11784 0.1955 0.06067 0.0
C607 C 0.08501 0.15569 0.07173 0.0
C608 C 0.20869 0.25906 0.04938 0.0
C609 C 0.20372 0.24919 0.03132 0.0
C610 C 0.24809 0.30695 0.05553 0.0
C611 C 0.25451 0.31974 0.07445 0.0
C612 C 0.21035 0.31394 0.08438 0.0
C613 C 0.21657 0.32557 0.10225 0.0
C614 C 0.26687 0.34335 0.11032 0.0
C615 C 0.31108 0.34966 0.10053 0.0
C616 C 0.30506 0.33804 0.08266 0.0
C617 C 0.33457 0.42303 0.98683 0.0
C618 C 0.3898 0.43877 0.98833 0.0
C619 C 0.29777 0.38985 0.99917 0.0
C620 C 0.31596 0.37275 0.01328 0.0
C621 C 0.37145 0.39077 0.01524 0.0
C622 C 0.4079 0.42302 1.00281 0.0
C623 C 0.27744 0.33349 0.02538 0.0
C624 C 0.28193 0.34358 0.04344 0.0
C625 C 0.23831 0.2854 0.01926 0.0
C626 C 0.23536 0.2705 1.00062 0.0
C627 C 0.28094 0.27402 0.99225 0.0
C628 C 0.27755 0.25844 0.97486 0.0
C629 C 0.22859 0.23854 0.96578 0.0
C630 C 0.183 0.23457 0.97402 0.0
C631 C 0.18627 0.25046 0.99137 0.0
H632 H 0.22594 0.22585 0.9524 0.0
H633 H 0.27161 0.35233 0.12416 0.0
H634 H 0.10543 0.22266 0.42034 0.0
H635 H 0.10654 0.2823 0.39929 0.0
H636 H 0.06186 0.17264 0.35801 0.0
H637 H 0.05784 0.11161 0.37937 0.0
H638 H 0.15746 0.32883 0.37252 0.0
H639 H 0.98598 0.18771 0.32716 0.0
H640 H 0.90521 0.10338 0.32848 0.0
H641 H 0.89095 0.12159 0.38364 0.0
H642 H 0.97119 0.20623 0.3826 0.0
H643 H 0.13769 0.46507 0.30046 0.0
H644 H 0.14731 0.40582 0.31923 0.0
H645 H 0.98781 0.35429 0.34013 0.0
H646 H 0.97708 0.41164 0.32074 0.0
H647 H 0.99647 0.27816 0.33488 0.0
H648 H 0.11143 0.43518 0.3632 0.0
H649 H 0.18529 0.52288 0.36553 0.0
H650 H 0.30046 0.47886 0.35089 0.0
H651 H 0.22715 0.39095 0.34826 0.0
C652 C 0.0963 0.21125 0.40675 0.0
C653 C 0.08111 0.16219 0.40156 0.0
C654 C 0.09706 0.24557 0.39467 0.0
C655 C 0.08333 0.23196 0.37704 0.0
C656 C 0.07122 0.18381 0.37161 0.0
C657 C 0.06935 0.14901 0.3838 0.0
C658 C 0.07967 0.2677 0.3647 0.0
C659 C 0.12229 0.31761 0.36425 0.0
C660 C 0.03346 0.25368 0.35408 0.0
C661 C 0.98497 0.20299 0.35483 0.0
C662 C 0.96552 0.17371 0.33956 0.0
C663 C 0.91985 0.12588 0.34026 0.0
C664 C 0.89311 0.10706 0.35615 0.0
C665 C 0.91184 0.13613 0.37136 0.0
C666 C 0.95743 0.18401 0.37073 0.0
C667 C 0.10486 0.44135 0.30916 0.0
C668 C 0.0567 0.44317 0.30917 0.0
C669 C 0.11045 0.40752 0.31995 0.0
C670 C 0.06856 0.37576 0.33133 0.0
C671 C 0.02069 0.37809 0.33146 0.0
C672 C 0.01468 0.41113 0.32042 0.0
C673 C 0.07392 0.33946 0.34289 0.0
C674 C 0.03177 0.28936 0.34309 0.0
C675 C 0.11958 0.35379 0.3538 0.0
C676 C 0.16374 0.40659 0.35535 0.0
C677 C 0.15246 0.44427 0.36035 0.0
C678 C 0.19423 0.494 0.36175 0.0
C679 C 0.24751 0.50645 0.35831 0.0
C680 C 0.25916 0.46917 0.35352 0.0
C681 C 0.21752 0.41939 0.35209 0.0
H682 H 0.2798 0.54497 0.35941 0.0
H683 H 0.85779 0.07001 0.35666 0.0
loop_
_geom_bond_atom_site_label_1
_geom_bond_atom_site_label_2
_geom_bond_distance
_geom_bond_site_symmetry_2
_ccdc_geom_bond_type
O0 Cd1 2.223 1_455 S
O0 C8 1.315 . S
Cd1 O0 2.223 1_655 S
Cd1 O4 2.297 . S
Cd1 O5 2.439 . S
Cd1 O11 2.240 1_545 S
Cd2 O3 2.240 1_565 S
Cd2 O10 2.223 1_455 S
Cd2 O12 2.297 . S
Cd2 O13 2.439 . S
O3 Cd2 2.240 1_545 S
O3 C8 1.279 . S
O4 Cd1 2.297 . S
O4 C6 1.247 . S
O5 Cd1 2.439 . S
O5 C6 1.208 . S
C6 O4 1.247 . S
C6 O5 1.208 . S
C7 O12 1.247 . S
C7 O13 1.208 . S
C8 O0 1.315 . S
C8 O3 1.279 . S
C9 O10 1.315 . S
C9 O11 1.279 . S
O10 Cd2 2.223 1_655 S
O10 C9 1.315 . S
O11 Cd1 2.240 1_565 S
O11 C9 1.279 . S
O12 Cd2 2.297 . S
O12 C7 1.247 . S
O13 Cd2 2.439 . S
O13 C7 1.208 . S
O14 Cd15 2.223 1_655 S
O14 C22 1.315 . S
Cd15 O14 2.223 1_455 S
Cd15 O18 2.297 . S
Cd15 O19 2.439 . S
Cd15 O25 2.240 . S
Cd16 O17 2.240 . S
Cd16 O24 2.223 1_655 S
Cd16 O26 2.297 . S
Cd16 O27 2.439 . S
O17 Cd16 2.240 . S
O17 C22 1.279 1_565 S
O18 Cd15 2.297 . S
O18 C20 1.247 . S
O19 Cd15 2.439 . S
O19 C20 1.208 . S
C20 O18 1.247 . S
C20 O19 1.208 . S
C21 O26 1.247 . S
C21 O27 1.208 . S
C22 O14 1.315 . S
C22 O17 1.279 1_545 S
C23 O24 1.315 . S
C23 O25 1.279 1_565 S
O24 Cd16 2.223 1_455 S
O24 C23 1.315 . S
O25 Cd15 2.240 . S
O25 C23 1.279 1_545 S
O26 Cd16 2.297 . S
O26 C21 1.247 . S
O27 Cd16 2.439 . S
O27 C21 1.208 . S
O28 Cd29 2.223 . S
O28 C36 1.315 . S
Cd29 O28 2.223 . S
Cd29 O32 2.297 . S
Cd29 O33 2.439 . S
Cd29 O39 2.240 1_655 S
Cd30 O31 2.240 1_455 S
Cd30 O38 2.223 . S
Cd30 O40 2.297 . S
Cd30 O41 2.439 . S
O31 Cd30 2.240 1_655 S
O31 C36 1.279 1_545 S
O32 Cd29 2.297 . S
O32 C34 1.247 . S
O33 Cd29 2.439 . S
O33 C34 1.208 . S
C34 O32 1.247 . S
C34 O33 1.208 . S
C35 O40 1.247 . S
C35 O41 1.208 . S
C36 O28 1.315 . S
C36 O31 1.279 1_565 S
C37 O38 1.315 . S
C37 O39 1.279 1_545 S
O38 Cd30 2.223 . S
O38 C37 1.315 . S
O39 Cd29 2.240 1_455 S
O39 C37 1.279 1_565 S
O40 Cd30 2.297 . S
O40 C35 1.247 . S
O41 Cd30 2.439 . S
O41 C35 1.208 . S
C42 O44 1.252 . S
C42 O46 1.255 1_455 S
C43 O50 1.247 . S
C43 O51 1.258 1_655 S
O44 C42 1.252 . S
O44 Zn45 2.028 . S
Zn45 O44 2.028 . S
Zn45 O49 2.035 . S
Zn45 O51 2.035 . S
Zn45 O52 2.028 . S
O46 C42 1.255 1_655 S
O46 Zn47 2.035 . S
Zn47 O46 2.035 . S
Zn47 O48 2.028 . S
Zn47 O50 2.028 . S
Zn47 O53 2.035 . S
O48 Zn47 2.028 . S
O48 C54 1.247 . S
O49 Zn45 2.035 . S
O49 C54 1.258 1_455 S
O50 C43 1.247 . S
O50 Zn47 2.028 . S
O51 C43 1.258 1_455 S
O51 Zn45 2.035 . S
O52 Zn45 2.028 . S
O52 C55 1.252 . S
O53 Zn47 2.035 . S
O53 C55 1.255 1_655 S
C54 O48 1.247 . S
C54 O49 1.258 1_655 S
C55 O52 1.252 . S
C55 O53 1.255 1_455 S
C56 O58 1.246 . S
C56 O60 1.259 1_565 S
C57 O64 1.250 . S
C57 O65 1.253 1_545 S
O58 C56 1.246 . S
O58 Zn59 2.028 . S
Zn59 O58 2.028 . S
Zn59 O63 2.035 . S
Zn59 O65 2.035 . S
Zn59 O66 2.028 . S
O60 C56 1.259 1_545 S
O60 Zn61 2.035 . S
Zn61 O60 2.035 . S
Zn61 O62 2.028 . S
Zn61 O64 2.028 . S
Zn61 O67 2.035 . S
O62 Zn61 2.028 . S
O62 C68 1.250 . S
O63 Zn59 2.035 . S
O63 C68 1.253 1_565 S
O64 C57 1.250 . S
O64 Zn61 2.028 . S
O65 C57 1.253 1_565 S
O65 Zn59 2.035 . S
O66 Zn59 2.028 . S
O66 C69 1.246 . S
O67 Zn61 2.035 . S
O67 C69 1.259 1_545 S
C68 O62 1.250 . S
C68 O63 1.253 1_545 S
C69 O66 1.246 . S
C69 O67 1.259 1_565 S
C70 O72 1.247 . S
C70 O74 1.258 . S
C71 O78 1.247 . S
C71 O79 1.258 . S
O72 C70 1.247 . S
O72 Zn73 2.028 . S
Zn73 O72 2.028 . S
Zn73 O77 2.035 . S
Zn73 O79 2.035 . S
Zn73 O80 2.028 . S
O74 C70 1.258 . S
O74 Zn75 2.035 . S
Zn75 O74 2.035 . S
Zn75 O76 2.028 . S
Zn75 O78 2.028 . S
Zn75 O81 2.035 . S
O76 Zn75 2.028 . S
O76 C82 1.247 . S
O77 Zn73 2.035 . S
O77 C82 1.258 . S
O78 C71 1.247 . S
O78 Zn75 2.028 . S
O79 C71 1.258 . S
O79 Zn73 2.035 . S
O80 Zn73 2.028 . S
O80 C83 1.247 . S
O81 Zn75 2.035 . S
O81 C83 1.258 . S
C82 O76 1.247 . S
C82 O77 1.258 . S
C83 O80 1.247 . S
C83 O81 1.258 . S
H84 C102 0.951 . S
H85 C104 0.951 . S
H86 C106 0.950 . S
H87 C107 0.950 . S
H88 C109 0.950 . S
H89 C112 0.950 . S
H90 C113 0.950 . S
H91 C115 0.950 . S
H92 C116 0.950 1_655 S
H93 C117 0.951 . S
H94 C119 0.951 . S
H95 C121 0.950 . S
H96 C122 0.950 . S
H97 C124 0.950 . S
H98 C127 0.950 . S
H99 C128 0.950 . S
H100 C130 0.950 . S
H101 C131 0.950 1_455 S
C102 H84 0.951 . S
C102 C103 1.354 1_655 S
C102 C104 1.388 . S
C103 C102 1.354 1_455 S
C103 C107 1.391 . S
C104 H85 0.951 . S
C104 C102 1.388 . S
C104 C105 1.366 1_655 S
C105 C104 1.366 1_455 S
C105 C106 1.414 . S
C105 C108 1.499 . S
C106 H86 0.950 . S
C106 C105 1.414 . S
C106 C107 1.374 . S
C107 H87 0.950 . S
C107 C103 1.391 . S
C107 C106 1.374 . S
C108 C105 1.499 . S
C108 C109 1.373 1_455 S
C108 C110 1.389 . S
C109 H88 0.950 . S
C109 C108 1.373 1_655 S
C109 C125 1.377 . S
C110 C108 1.389 . S
C110 C111 1.524 . S
C110 C124 1.377 . S
C111 C110 1.524 . S
C111 C112 1.397 . S
C111 C116 1.363 . S
C112 H89 0.950 . S
C112 C111 1.397 . S
C112 C113 1.334 . S
C113 H90 0.950 . S
C113 C112 1.334 . S
C113 C114 1.287 . S
C114 C113 1.287 . S
C114 C115 1.524 . S
C114 H133 0.913 . S
C115 H91 0.950 . S
C115 C114 1.524 . S
C115 C116 1.415 . S
C116 H92 0.950 1_455 S
C116 C111 1.363 . S
C116 C115 1.415 . S
C117 H93 0.951 . S
C117 C118 1.368 . S
C117 C119 1.388 . S
C118 C117 1.368 . S
C118 C122 1.383 1_455 S
C119 H94 0.951 . S
C119 C117 1.388 . S
C119 C120 1.366 1_455 S
C120 C119 1.366 1_655 S
C120 C121 1.414 . S
C120 C123 1.499 . S
C121 H95 0.950 . S
C121 C120 1.414 . S
C121 C122 1.374 . S
C122 H96 0.950 . S
C122 C118 1.383 1_655 S
C122 C121 1.374 . S
C123 C120 1.499 . S
C123 C124 1.373 1_655 S
C123 C125 1.389 . S
C124 H97 0.950 . S
C124 C110 1.377 . S
C124 C123 1.373 1_455 S
C125 C109 1.377 . S
C125 C123 1.389 . S
C125 C126 1.524 . S
C126 C125 1.524 . S
C126 C127 1.397 . S
C126 C131 1.363 . S
C127 H98 0.950 . S
C127 C126 1.397 . S
C127 C128 1.334 . S
C128 H99 0.950 . S
C128 C127 1.334 . S
C128 C129 1.287 . S
C129 C128 1.287 . S
C129 C130 1.524 . S
C129 H132 0.999 . S
C130 H100 0.950 . S
C130 C129 1.524 . S
C130 C131 1.415 . S
C131 H101 0.950 1_655 S
C131 C126 1.363 . S
C131 C130 1.415 . S
H132 C129 0.999 . S
H133 C114 0.913 . S
H134 C152 0.951 . S
H135 C154 0.951 . S
H136 C156 0.950 . S
H137 C157 0.950 . S
H138 C159 0.950 . S
H139 C162 0.950 . S
H140 C163 0.950 . S
H141 C165 0.950 . S
H142 C166 0.950 . S
H143 C167 0.951 . S
H144 C169 0.951 . S
H145 C171 0.950 . S
H146 C172 0.950 . S
H147 C174 0.950 . S
H148 C177 0.950 . S
H149 C178 0.950 . S
H150 C180 0.950 . S
H151 C181 0.950 . S
C152 H134 0.951 . S
C152 C153 1.366 1_565 S
C152 C154 1.388 . S
C153 C152 1.366 1_545 S
C153 C157 1.385 . S
C154 H135 0.951 . S
C154 C152 1.388 . S
C154 C155 1.366 1_565 S
C155 C154 1.366 1_545 S
C155 C156 1.414 . S
C155 C158 1.499 . S
C156 H136 0.950 . S
C156 C155 1.414 . S
C156 C157 1.374 . S
C157 H137 0.950 . S
C157 C153 1.385 . S
C157 C156 1.374 . S
C158 C155 1.499 . S
C158 C159 1.373 1_545 S
C158 C160 1.389 . S
C159 H138 0.950 . S
C159 C158 1.373 1_565 S
C159 C175 1.377 . S
C160 C158 1.389 . S
C160 C161 1.524 . S
C160 C174 1.377 . S
C161 C160 1.524 . S
C161 C162 1.397 . S
C161 C166 1.363 . S
C162 H139 0.950 . S
C162 C161 1.397 . S
C162 C163 1.334 . S
C163 H140 0.950 . S
C163 C162 1.334 . S
C163 C164 1.287 . S
C164 C163 1.287 . S
C164 C165 1.524 . S
C164 H183 0.913 . S
C165 H141 0.950 . S
C165 C164 1.524 . S
C165 C166 1.415 . S
C166 H142 0.950 . S
C166 C161 1.363 . S
C166 C165 1.415 . S
C167 H143 0.951 . S
C167 C168 1.362 . S
C167 C169 1.388 . S
C168 C167 1.362 . S
C168 C172 1.384 1_545 S
C169 H144 0.951 . S
C169 C167 1.388 . S
C169 C170 1.366 1_545 S
C170 C169 1.366 1_565 S
C170 C171 1.414 . S
C170 C173 1.499 . S
C171 H145 0.950 . S
C171 C170 1.414 . S
C171 C172 1.374 . S
C172 H146 0.950 . S
C172 C168 1.384 1_565 S
C172 C171 1.374 . S
C173 C170 1.499 . S
C173 C174 1.373 1_565 S
C173 C175 1.389 . S
C174 H147 0.950 . S
C174 C160 1.377 . S
C174 C173 1.373 1_545 S
C175 C159 1.377 . S
C175 C173 1.389 . S
C175 C176 1.524 . S
C176 C175 1.524 . S
C176 C177 1.397 . S
C176 C181 1.363 . S
C177 H148 0.950 . S
C177 C176 1.397 . S
C177 C178 1.334 . S
C178 H149 0.950 . S
C178 C177 1.334 . S
C178 C179 1.287 . S
C179 C178 1.287 . S
C179 C180 1.524 . S
C179 H182 0.999 . S
C180 H150 0.950 . S
C180 C179 1.524 . S
C180 C181 1.415 . S
C181 H151 0.950 . S
C181 C176 1.363 . S
C181 C180 1.415 . S
H182 C179 0.999 . S
H183 C164 0.913 . S
H184 C202 0.951 . S
H185 C204 0.951 . S
H186 C206 0.950 . S
H187 C207 0.950 . S
H188 C209 0.950 . S
H189 C212 0.950 . S
H190 C213 0.950 . S
H191 C215 0.950 . S
H192 C216 0.950 . S
H193 C217 0.951 . S
H194 C219 0.951 . S
H195 C221 0.950 . S
H196 C222 0.950 . S
H197 C224 0.950 . S
H198 C227 0.950 . S
H199 C228 0.950 . S
H200 C230 0.950 . S
H201 C231 0.950 . S
C202 H184 0.951 . S
C202 C203 1.366 . S
C202 C204 1.388 . S
C203 C202 1.366 . S
C203 C207 1.385 . S
C204 H185 0.951 . S
C204 C202 1.388 . S
C204 C205 1.366 . S
C205 C204 1.366 . S
C205 C206 1.414 . S
C205 C208 1.499 . S
C206 H186 0.950 . S
C206 C205 1.414 . S
C206 C207 1.374 . S
C207 H187 0.950 . S
C207 C203 1.385 . S
C207 C206 1.374 . S
C208 C205 1.499 . S
C208 C209 1.373 . S
C208 C210 1.389 . S
C209 H188 0.950 . S
C209 C208 1.373 . S
C209 C225 1.377 . S
C210 C208 1.389 . S
C210 C211 1.524 . S
C210 C224 1.377 . S
C211 C210 1.524 . S
C211 C212 1.397 . S
C211 C216 1.363 . S
C212 H189 0.950 . S
C212 C211 1.397 . S
C212 C213 1.334 . S
C213 H190 0.950 . S
C213 C212 1.334 . S
C213 C214 1.287 . S
C214 C213 1.287 . S
C214 C215 1.524 . S
C214 H233 0.913 . S
C215 H191 0.950 . S
C215 C214 1.524 . S
C215 C216 1.415 . S
C216 H192 0.950 . S
C216 C211 1.363 . S
C216 C215 1.415 . S
C217 H193 0.951 . S
C217 C218 1.366 . S
C217 C219 1.388 . S
C218 C217 1.366 . S
C218 C222 1.385 . S
C219 H194 0.951 . S
C219 C217 1.388 . S
C219 C220 1.366 . S
C220 C219 1.366 . S
C220 C221 1.414 . S
C220 C223 1.499 . S
C221 H195 0.950 . S
C221 C220 1.414 . S
C221 C222 1.374 . S
C222 H196 0.950 . S
C222 C218 1.385 . S
C222 C221 1.374 . S
C223 C220 1.499 . S
C223 C224 1.373 . S
C223 C225 1.389 . S
C224 H197 0.950 . S
C224 C210 1.377 . S
C224 C223 1.373 . S
C225 C209 1.377 . S
C225 C223 1.389 . S
C225 C226 1.524 . S
C226 C225 1.524 . S
C226 C227 1.397 . S
C226 C231 1.363 . S
C227 H198 0.950 . S
C227 C226 1.397 . S
C227 C228 1.334 . S
C228 H199 0.950 . S
C228 C227 1.334 . S
C228 C229 1.287 . S
C229 C228 1.287 . S
C229 C230 1.524 . S
C229 H232 0.999 . S
C230 H200 0.950 . S
C230 C229 1.524 . S
C230 C231 1.415 . S
C231 H201 0.950 . S
C231 C226 1.363 . S
C231 C230 1.415 . S
H232 C229 0.999 . S
H233 C214 0.913 . S
H234 C252 0.951 . S
H235 C254 0.951 . S
H236 C256 0.950 . S
H237 C257 0.950 . S
H238 C259 0.950 . S
H239 C262 0.950 . S
H240 C263 0.950 . S
H241 C265 0.950 . S
H242 C266 0.950 . S
H243 C267 0.951 . S
H244 C269 0.951 . S
H245 C271 0.950 . S
H246 C272 0.950 . S
H247 C274 0.950 . S
H248 C277 0.950 . S
H249 C278 0.950 . S
H250 C280 0.950 . S
H251 C281 0.950 . S
C252 H234 0.951 . S
C252 C253 1.357 1_455 S
C252 C254 1.388 . S
C253 C252 1.357 1_655 S
C253 C257 1.388 . S
C254 H235 0.951 . S
C254 C252 1.388 . S
C254 C255 1.366 . S
C255 C254 1.366 . S
C255 C256 1.414 1_455 S
C255 C258 1.500 1_455 S
C256 H236 0.950 . S
C256 C255 1.414 1_655 S
C256 C257 1.374 . S
C257 H237 0.950 . S
C257 C253 1.388 . S
C257 C256 1.374 . S
C258 C255 1.500 1_655 S
C258 C259 1.375 . S
C258 C260 1.387 1_655 S
C259 H238 0.950 . S
C259 C258 1.375 . S
C259 C275 1.377 . S
C260 C258 1.387 1_455 S
C260 C261 1.524 . S
C260 C274 1.377 . S
C261 C260 1.524 . S
C261 C262 1.397 . S
C261 C266 1.363 . S
C262 H239 0.950 . S
C262 C261 1.397 . S
C262 C263 1.334 . S
C263 H240 0.950 . S
C263 C262 1.334 . S
C263 C264 1.287 . S
C264 C263 1.287 . S
C264 C265 1.524 . S
C264 H283 0.913 . S
C265 H241 0.950 . S
C265 C264 1.524 . S
C265 C266 1.415 . S
C266 H242 0.950 . S
C266 C261 1.363 . S
C266 C265 1.415 . S
C267 H243 0.951 . S
C267 C268 1.365 1_655 S
C267 C269 1.388 . S
C268 C267 1.365 1_455 S
C268 C272 1.385 . S
C269 H244 0.951 . S
C269 C267 1.388 . S
C269 C270 1.366 . S
C270 C269 1.366 . S
C270 C271 1.414 1_655 S
C270 C273 1.497 . S
C271 H245 0.950 . S
C271 C270 1.414 1_455 S
C271 C272 1.374 . S
C272 H246 0.950 . S
C272 C268 1.385 . S
C272 C271 1.374 . S
C273 C270 1.497 . S
C273 C274 1.371 1_655 S
C273 C275 1.393 . S
C274 H247 0.950 . S
C274 C260 1.377 . S
C274 C273 1.371 1_455 S
C275 C259 1.377 . S
C275 C273 1.393 . S
C275 C276 1.524 . S
C276 C275 1.524 . S
C276 C277 1.397 . S
C276 C281 1.363 . S
C277 H248 0.950 . S
C277 C276 1.397 . S
C277 C278 1.334 . S
C278 H249 0.950 . S
C278 C277 1.334 . S
C278 C279 1.287 . S
C279 C278 1.287 . S
C279 C280 1.524 . S
C279 H282 0.999 . S
C280 H250 0.950 . S
C280 C279 1.524 . S
C280 C281 1.415 . S
C281 H251 0.950 . S
C281 C276 1.363 . S
C281 C280 1.415 . S
H282 C279 0.999 . S
H283 C264 0.913 . S
H284 C302 0.951 . S
H285 C304 0.951 . S
H286 C306 0.950 . S
H287 C307 0.950 . S
H288 C309 0.950 . S
H289 C312 0.950 1_565 S
H290 C313 0.950 . S
H291 C315 0.950 . S
H292 C316 0.950 . S
H293 C317 0.951 . S
H294 C319 0.951 . S
H295 C321 0.950 . S
H296 C322 0.950 . S
H297 C324 0.950 . S
H298 C327 0.950 1_545 S
H299 C328 0.950 . S
H300 C330 0.950 . S
H301 C331 0.950 . S
C302 H284 0.951 . S
C302 C303 1.366 1_545 S
C302 C304 1.388 . S
C303 C302 1.366 1_565 S
C303 C307 1.385 . S
C304 H285 0.951 . S
C304 C302 1.388 . S
C304 C305 1.366 1_545 S
C305 C304 1.366 1_565 S
C305 C306 1.414 . S
C305 C308 1.499 . S
C306 H286 0.950 . S
C306 C305 1.414 . S
C306 C307 1.374 . S
C307 H287 0.950 . S
C307 C303 1.385 . S
C307 C306 1.374 . S
C308 C305 1.499 . S
C308 C309 1.373 . S
C308 C310 1.389 1_565 S
C309 H288 0.950 . S
C309 C308 1.373 . S
C309 C325 1.377 . S
C310 C308 1.389 1_545 S
C310 C311 1.524 . S
C310 C324 1.377 . S
C311 C310 1.524 . S
C311 C312 1.397 . S
C311 C316 1.363 . S
C312 H289 0.950 1_545 S
C312 C311 1.397 . S
C312 C313 1.334 . S
C313 H290 0.950 . S
C313 C312 1.334 . S
C313 C314 1.287 . S
C314 C313 1.287 . S
C314 C315 1.524 . S
C314 H333 0.913 . S
C315 H291 0.950 . S
C315 C314 1.524 . S
C315 C316 1.415 . S
C316 H292 0.950 . S
C316 C311 1.363 . S
C316 C315 1.415 . S
C317 H293 0.951 . S
C317 C318 1.366 . S
C317 C319 1.388 . S
C318 C317 1.366 . S
C318 C322 1.384 1_565 S
C319 H294 0.951 . S
C319 C317 1.388 . S
C319 C320 1.372 . S
C320 C319 1.372 . S
C320 C321 1.410 1_565 S
C320 C323 1.488 1_565 S
C321 H295 0.950 . S
C321 C320 1.410 1_545 S
C321 C322 1.374 . S
C322 H296 0.950 . S
C322 C318 1.384 1_545 S
C322 C321 1.374 . S
C323 C320 1.488 1_545 S
C323 C324 1.379 . S
C323 C325 1.390 1_545 S
C324 H297 0.950 . S
C324 C310 1.377 . S
C324 C323 1.379 . S
C325 C309 1.377 . S
C325 C323 1.390 1_565 S
C325 C326 1.524 . S
C326 C325 1.524 . S
C326 C327 1.397 . S
C326 C331 1.363 . S
C327 H298 0.950 1_565 S
C327 C326 1.397 . S
C327 C328 1.334 . S
C328 H299 0.950 . S
C328 C327 1.334 . S
C328 C329 1.287 . S
C329 C328 1.287 . S
C329 C330 1.524 . S
C329 H332 0.999 . S
C330 H300 0.950 . S
C330 C329 1.524 . S
C330 C331 1.415 . S
C331 H301 0.950 . S
C331 C326 1.363 . S
C331 C330 1.415 . S
H332 C329 0.999 . S
H333 C314 0.913 . S
H334 C352 0.951 . S
H335 C354 0.951 . S
H336 C356 0.950 . S
H337 C357 0.950 . S
H338 C359 0.950 . S
H339 C362 0.950 . S
H340 C363 0.950 . S
H341 C365 0.950 . S
H342 C366 0.950 . S
H343 C367 0.951 . S
H344 C369 0.951 . S
H345 C371 0.950 . S
H346 C372 0.950 . S
H347 C374 0.950 . S
H348 C377 0.950 . S
H349 C378 0.950 . S
H350 C380 0.950 . S
H351 C381 0.950 . S
C352 H334 0.951 . S
C352 C353 1.366 . S
C352 C354 1.388 . S
C353 C352 1.366 . S
C353 C357 1.385 . S
C354 H335 0.951 . S
C354 C352 1.388 . S
C354 C355 1.366 . S
C355 C354 1.366 . S
C355 C356 1.414 . S
C355 C358 1.499 . S
C356 H336 0.950 . S
C356 C355 1.414 . S
C356 C357 1.374 . S
C357 H337 0.950 . S
C357 C353 1.385 . S
C357 C356 1.374 . S
C358 C355 1.499 . S
C358 C359 1.373 . S
C358 C360 1.389 . S
C359 H338 0.950 . S
C359 C358 1.373 . S
C359 C375 1.377 . S
C360 C358 1.389 . S
C360 C361 1.524 . S
C360 C374 1.377 . S
C361 C360 1.524 . S
C361 C362 1.397 . S
C361 C366 1.363 . S
C362 H339 0.950 . S
C362 C361 1.397 . S
C362 C363 1.334 . S
C363 H340 0.950 . S
C363 C362 1.334 . S
C363 C364 1.287 . S
C364 C363 1.287 . S
C364 C365 1.524 . S
C364 H383 0.913 . S
C365 H341 0.950 . S
C365 C364 1.524 . S
C365 C366 1.415 . S
C366 H342 0.950 . S
C366 C361 1.363 . S
C366 C365 1.415 . S
C367 H343 0.951 . S
C367 C368 1.366 . S
C367 C369 1.388 . S
C368 C367 1.366 . S
C368 C372 1.385 . S
C369 H344 0.951 . S
C369 C367 1.388 . S
C369 C370 1.366 . S
C370 C369 1.366 . S
C370 C371 1.414 . S
C370 C373 1.499 . S
C371 H345 0.950 . S
C371 C370 1.414 . S
C371 C372 1.374 . S
C372 H346 0.950 . S
C372 C368 1.385 . S
C372 C371 1.374 . S
C373 C370 1.499 . S
C373 C374 1.373 . S
C373 C375 1.389 . S
C374 H347 0.950 . S
C374 C360 1.377 . S
C374 C373 1.373 . S
C375 C359 1.377 . S
C375 C373 1.389 . S
C375 C376 1.524 . S
C376 C375 1.524 . S
C376 C377 1.397 . S
C376 C381 1.363 . S
C377 H348 0.950 . S
C377 C376 1.397 . S
C377 C378 1.334 . S
C378 H349 0.950 . S
C378 C377 1.334 . S
C378 C379 1.287 . S
C379 C378 1.287 . S
C379 C380 1.524 . S
C379 H382 0.999 . S
C380 H350 0.950 . S
C380 C379 1.524 . S
C380 C381 1.415 . S
C381 H351 0.950 . S
C381 C376 1.363 . S
C381 C380 1.415 . S
H382 C379 0.999 . S
H383 C364 0.913 . S
H384 C402 0.951 . S
H385 C404 0.951 . S
H386 C406 0.950 . S
H387 C407 0.950 . S
H388 C409 0.950 . S
H389 C412 0.950 . S
H390 C413 0.950 . S
H391 C415 0.950 . S
H392 C416 0.950 . S
H393 C417 0.951 . S
H394 C419 0.951 . S
H395 C421 0.950 . S
H396 C422 0.950 . S
H397 C424 0.950 . S
H398 C427 0.950 . S
H399 C428 0.950 . S
H400 C430 0.950 . S
H401 C431 0.950 . S
C402 H384 0.951 . S
C402 C403 1.366 . S
C402 C404 1.388 . S
C403 C402 1.366 . S
C403 C407 1.385 1_565 S
C404 H385 0.951 . S
C404 C402 1.388 . S
C404 C405 1.366 . S
C405 C404 1.366 . S
C405 C406 1.414 1_565 S
C405 C408 1.499 . S
C406 H386 0.950 . S
C406 C405 1.414 1_545 S
C406 C407 1.374 . S
C407 H387 0.950 . S
C407 C403 1.385 1_545 S
C407 C406 1.374 . S
C408 C405 1.499 . S
C408 C409 1.373 1_565 S
C408 C410 1.389 . S
C409 H388 0.950 . S
C409 C408 1.373 1_545 S
C409 C425 1.377 1_545 S
C410 C408 1.389 . S
C410 C411 1.524 . S
C410 C424 1.377 . S
C411 C410 1.524 . S
C411 C412 1.397 1_565 S
C411 C416 1.363 . S
C412 H389 0.950 . S
C412 C411 1.397 1_545 S
C412 C413 1.334 . S
C413 H390 0.950 . S
C413 C412 1.334 . S
C413 C414 1.287 . S
C414 C413 1.287 . S
C414 C415 1.524 1_545 S
C414 H433 0.913 . S
C415 H391 0.950 . S
C415 C414 1.524 1_565 S
C415 C416 1.415 . S
C416 H392 0.950 . S
C416 C411 1.363 . S
C416 C415 1.415 . S
C417 H393 0.951 . S
C417 C418 1.362 1_545 S
C417 C419 1.388 . S
C418 C417 1.362 1_565 S
C418 C422 1.392 . S
C419 H394 0.951 . S
C419 C417 1.388 . S
C419 C420 1.366 1_545 S
C420 C419 1.366 1_565 S
C420 C421 1.414 . S
C420 C423 1.499 . S
C421 H395 0.950 . S
C421 C420 1.414 . S
C421 C422 1.374 . S
C422 H396 0.950 . S
C422 C418 1.392 . S
C422 C421 1.374 . S
C423 C420 1.499 . S
C423 C424 1.373 . S
C423 C425 1.389 . S
C424 H397 0.950 . S
C424 C410 1.377 . S
C424 C423 1.373 . S
C425 C409 1.377 1_565 S
C425 C423 1.389 . S
C425 C426 1.523 1_565 S
C426 C425 1.523 1_545 S
C426 C427 1.395 1_545 S
C426 C431 1.365 . S
C427 H398 0.950 . S
C427 C426 1.395 1_565 S
C427 C428 1.334 . S
C428 H399 0.950 . S
C428 C427 1.334 . S
C428 C429 1.287 . S
C429 C428 1.287 . S
C429 C430 1.524 1_565 S
C429 H432 0.999 . S
C430 H400 0.950 . S
C430 C429 1.524 1_545 S
C430 C431 1.415 . S
C431 H401 0.950 . S
C431 C426 1.365 . S
C431 C430 1.415 . S
H432 C429 0.999 . S
H433 C414 0.913 . S
H434 C452 0.951 . S
H435 C454 0.951 . S
H436 C456 0.950 . S
H437 C457 0.950 . S
H438 C459 0.950 . S
H439 C462 0.950 . S
H440 C463 0.950 . S
H441 C465 0.950 . S
H442 C466 0.950 . S
H443 C467 0.951 . S
H444 C469 0.951 . S
H445 C471 0.950 . S
H446 C472 0.950 . S
H447 C474 0.950 . S
H448 C477 0.950 . S
H449 C478 0.950 . S
H450 C480 0.950 . S
H451 C481 0.950 1_554 S
C452 H434 0.951 . S
C452 C453 1.366 . S
C452 C454 1.388 . S
C453 C452 1.366 . S
C453 C457 1.385 . S
C454 H435 0.951 . S
C454 C452 1.388 . S
C454 C455 1.366 . S
C455 C454 1.366 . S
C455 C456 1.414 . S
C455 C458 1.499 . S
C456 H436 0.950 . S
C456 C455 1.414 . S
C456 C457 1.374 . S
C457 H437 0.950 . S
C457 C453 1.385 . S
C457 C456 1.374 . S
C458 C455 1.499 . S
C458 C459 1.373 . S
C458 C460 1.389 . S
C459 H438 0.950 . S
C459 C458 1.373 . S
C459 C475 1.377 . S
C460 C458 1.389 . S
C460 C461 1.524 . S
C460 C474 1.377 . S
C461 C460 1.524 . S
C461 C462 1.397 . S
C461 C466 1.363 . S
C462 H439 0.950 . S
C462 C461 1.397 . S
C462 C463 1.334 . S
C463 H440 0.950 . S
C463 C462 1.334 . S
C463 C464 1.287 . S
C464 C463 1.287 . S
C464 C465 1.524 . S
C464 H483 0.913 . S
C465 H441 0.950 . S
C465 C464 1.524 . S
C465 C466 1.415 . S
C466 H442 0.950 . S
C466 C461 1.363 . S
C466 C465 1.415 . S
C467 H443 0.951 . S
C467 C468 1.366 . S
C467 C469 1.388 . S
C468 C467 1.366 . S
C468 C472 1.385 . S
C469 H444 0.951 . S
C469 C467 1.388 . S
C469 C470 1.366 . S
C470 C469 1.366 . S
C470 C471 1.414 . S
C470 C473 1.499 1_556 S
C471 H445 0.950 . S
C471 C470 1.414 . S
C471 C472 1.374 . S
C472 H446 0.950 . S
C472 C468 1.385 . S
C472 C471 1.374 . S
C473 C470 1.499 1_554 S
C473 C474 1.373 . S
C473 C475 1.389 . S
C474 H447 0.950 . S
C474 C460 1.377 . S
C474 C473 1.373 . S
C475 C459 1.377 . S
C475 C473 1.389 . S
C475 C476 1.524 1_554 S
C476 C475 1.524 1_556 S
C476 C477 1.397 . S
C476 C481 1.363 . S
C477 H448 0.950 . S
C477 C476 1.397 . S
C477 C478 1.334 . S
C478 H449 0.950 . S
C478 C477 1.334 . S
C478 C479 1.287 . S
C479 C478 1.287 . S
C479 C480 1.524 . S
C479 H482 0.999 . S
C480 H450 0.950 . S
C480 C479 1.524 . S
C480 C481 1.415 . S
C481 H451 0.950 1_556 S
C481 C476 1.363 . S
C481 C480 1.415 . S
H482 C479 0.999 . S
H483 C464 0.913 . S
H484 C502 0.951 . S
H485 C504 0.951 . S
H486 C506 0.950 . S
H487 C507 0.950 . S
H488 C509 0.950 . S
H489 C512 0.950 . S
H490 C513 0.950 . S
H491 C515 0.950 . S
H492 C516 0.950 . S
H493 C517 0.951 . S
H494 C519 0.951 . S
H495 C521 0.950 . S
H496 C522 0.950 . S
H497 C524 0.950 . S
H498 C527 0.950 . S
H499 C528 0.950 . S
H500 C530 0.950 . S
H501 C531 0.950 . S
C502 H484 0.951 . S
C502 C503 1.366 1_655 S
C502 C504 1.388 . S
C503 C502 1.366 1_455 S
C503 C507 1.385 . S
C504 H485 0.951 . S
C504 C502 1.388 . S
C504 C505 1.366 1_655 S
C505 C504 1.366 1_455 S
C505 C506 1.414 . S
C505 C508 1.499 . S
C506 H486 0.950 . S
C506 C505 1.414 . S
C506 C507 1.374 . S
C507 H487 0.950 . S
C507 C503 1.385 . S
C507 C506 1.374 . S
C508 C505 1.499 . S
C508 C509 1.373 . S
C508 C510 1.389 1_455 S
C509 H488 0.950 . S
C509 C508 1.373 . S
C509 C525 1.377 . S
C510 C508 1.389 1_655 S
C510 C511 1.524 . S
C510 C524 1.377 . S
C511 C510 1.524 . S
C511 C512 1.397 . S
C511 C516 1.363 . S
C512 H489 0.950 . S
C512 C511 1.397 . S
C512 C513 1.334 . S
C513 H490 0.950 . S
C513 C512 1.334 . S
C513 C514 1.287 . S
C514 C513 1.287 . S
C514 C515 1.524 . S
C514 H533 0.913 . S
C515 H491 0.950 . S
C515 C514 1.524 . S
C515 C516 1.415 . S
C516 H492 0.950 . S
C516 C511 1.363 . S
C516 C515 1.415 . S
C517 H493 0.951 . S
C517 C518 1.370 . S
C517 C519 1.388 . S
C518 C517 1.370 . S
C518 C522 1.378 1_455 S
C519 H494 0.951 . S
C519 C517 1.388 . S
C519 C520 1.366 . S
C520 C519 1.366 . S
C520 C521 1.414 1_455 S
C520 C523 1.499 . S
C521 H495 0.950 . S
C521 C520 1.414 1_655 S
C521 C522 1.374 . S
C522 H496 0.950 . S
C522 C518 1.378 1_655 S
C522 C521 1.374 . S
C523 C520 1.499 . S
C523 C524 1.373 1_455 S
C523 C525 1.389 . S
C524 H497 0.950 . S
C524 C510 1.377 . S
C524 C523 1.373 1_655 S
C525 C509 1.377 . S
C525 C523 1.389 . S
C525 C526 1.524 . S
C526 C525 1.524 . S
C526 C527 1.397 . S
C526 C531 1.363 . S
C527 H498 0.950 . S
C527 C526 1.397 . S
C527 C528 1.334 . S
C528 H499 0.950 . S
C528 C527 1.334 . S
C528 C529 1.287 . S
C529 C528 1.287 . S
C529 C530 1.524 . S
C529 H532 0.999 . S
C530 H500 0.950 . S
C530 C529 1.524 . S
C530 C531 1.415 . S
C531 H501 0.950 . S
C531 C526 1.363 . S
C531 C530 1.415 . S
H532 C529 0.999 . S
H533 C514 0.913 . S
H534 C552 0.951 . S
H535 C554 0.951 . S
H536 C556 0.950 . S
H537 C557 0.950 . S
H538 C559 0.950 . S
H539 C562 0.950 . S
H540 C563 0.950 . S
H541 C565 0.950 . S
H542 C566 0.950 . S
H543 C567 0.951 . S
H544 C569 0.951 . S
H545 C571 0.950 . S
H546 C572 0.950 . S
H547 C574 0.950 . S
H548 C577 0.950 . S
H549 C578 0.950 . S
H550 C580 0.950 . S
H551 C581 0.950 . S
C552 H534 0.951 . S
C552 C553 1.366 1_565 S
C552 C554 1.388 . S
C553 C552 1.366 1_545 S
C553 C557 1.385 . S
C554 H535 0.951 . S
C554 C552 1.388 . S
C554 C555 1.366 1_565 S
C555 C554 1.366 1_545 S
C555 C556 1.414 . S
C555 C558 1.499 . S
C556 H536 0.950 . S
C556 C555 1.414 . S
C556 C557 1.374 . S
C557 H537 0.950 . S
C557 C553 1.385 . S
C557 C556 1.374 . S
C558 C555 1.499 . S
C558 C559 1.373 . S
C558 C560 1.389 1_545 S
C559 H538 0.950 . S
C559 C558 1.373 . S
C559 C575 1.377 . S
C560 C558 1.389 1_565 S
C560 C561 1.524 . S
C560 C574 1.377 . S
C561 C560 1.524 . S
C561 C562 1.397 . S
C561 C566 1.363 . S
C562 H539 0.950 . S
C562 C561 1.397 . S
C562 C563 1.334 . S
C563 H540 0.950 . S
C563 C562 1.334 . S
C563 C564 1.287 . S
C564 C563 1.287 . S
C564 C565 1.524 . S
C564 H583 0.913 . S
C565 H541 0.950 . S
C565 C564 1.524 . S
C565 C566 1.415 . S
C566 H542 0.950 . S
C566 C561 1.363 . S
C566 C565 1.415 . S
C567 H543 0.951 . S
C567 C568 1.374 . S
C567 C569 1.388 . S
C568 C567 1.374 . S
C568 C572 1.381 1_545 S
C569 H544 0.951 . S
C569 C567 1.388 . S
C569 C570 1.366 . S
C570 C569 1.366 . S
C570 C571 1.414 1_545 S
C570 C573 1.499 . S
C571 H545 0.950 . S
C571 C570 1.414 1_565 S
C571 C572 1.374 . S
C572 H546 0.950 . S
C572 C568 1.381 1_565 S
C572 C571 1.374 . S
C573 C570 1.499 . S
C573 C574 1.373 1_545 S
C573 C575 1.389 . S
C574 H547 0.950 . S
C574 C560 1.377 . S
C574 C573 1.373 1_565 S
C575 C559 1.377 . S
C575 C573 1.389 . S
C575 C576 1.524 . S
C576 C575 1.524 . S
C576 C577 1.397 . S
C576 C581 1.363 . S
C577 H548 0.950 . S
C577 C576 1.397 . S
C577 C578 1.334 . S
C578 H549 0.950 . S
C578 C577 1.334 . S
C578 C579 1.287 . S
C579 C578 1.287 . S
C579 C580 1.524 . S
C579 H582 0.999 . S
C580 H550 0.950 . S
C580 C579 1.524 . S
C580 C581 1.415 . S
C581 H551 0.950 . S
C581 C576 1.363 . S
C581 C580 1.415 . S
H582 C579 0.999 . S
H583 C564 0.913 . S
H584 C602 0.951 . S
H585 C604 0.951 . S
H586 C606 0.950 . S
H587 C607 0.950 . S
H588 C609 0.950 . S
H589 C612 0.950 . S
H590 C613 0.950 . S
H591 C615 0.950 . S
H592 C616 0.950 . S
H593 C617 0.951 . S
H594 C619 0.951 . S
H595 C621 0.950 . S
H596 C622 0.950 . S
H597 C624 0.950 . S
H598 C627 0.950 . S
H599 C628 0.950 . S
H600 C630 0.950 . S
H601 C631 0.950 . S
C602 H584 0.951 . S
C602 C603 1.366 . S
C602 C604 1.388 . S
C603 C602 1.366 . S
C603 C607 1.385 . S
C604 H585 0.951 . S
C604 C602 1.388 . S
C604 C605 1.366 . S
C605 C604 1.366 . S
C605 C606 1.414 . S
C605 C608 1.499 . S
C606 H586 0.950 . S
C606 C605 1.414 . S
C606 C607 1.374 . S
C607 H587 0.950 . S
C607 C603 1.385 . S
C607 C606 1.374 . S
C608 C605 1.499 . S
C608 C609 1.373 . S
C608 C610 1.389 . S
C609 H588 0.950 . S
C609 C608 1.373 . S
C609 C625 1.377 . S
C610 C608 1.389 . S
C610 C611 1.524 . S
C610 C624 1.377 . S
C611 C610 1.524 . S
C611 C612 1.397 . S
C611 C616 1.363 . S
C612 H589 0.950 . S
C612 C611 1.397 . S
C612 C613 1.334 . S
C613 H590 0.950 . S
C613 C612 1.334 . S
C613 C614 1.287 . S
C614 C613 1.287 . S
C614 C615 1.524 . S
C614 H633 0.913 . S
C615 H591 0.950 . S
C615 C614 1.524 . S
C615 C616 1.415 . S
C616 H592 0.950 . S
C616 C611 1.363 . S
C616 C615 1.415 . S
C617 H593 0.951 . S
C617 C618 1.366 . S
C617 C619 1.388 . S
C618 C617 1.366 . S
C618 C622 1.385 . S
C619 H594 0.951 . S
C619 C617 1.388 . S
C619 C620 1.366 . S
C620 C619 1.366 . S
C620 C621 1.414 1_556 S
C620 C623 1.499 1_556 S
C621 H595 0.950 . S
C621 C620 1.414 1_554 S
C621 C622 1.374 1_554 S
C622 H596 0.950 . S
C622 C618 1.385 . S
C622 C621 1.374 1_556 S
C623 C620 1.499 1_554 S
C623 C624 1.373 . S
C623 C625 1.389 . S
C624 H597 0.950 . S
C624 C610 1.377 . S
C624 C623 1.373 . S
C625 C609 1.377 . S
C625 C623 1.389 . S
C625 C626 1.524 1_554 S
C626 C625 1.524 1_556 S
C626 C627 1.397 . S
C626 C631 1.363 . S
C627 H598 0.950 . S
C627 C626 1.397 . S
C627 C628 1.334 . S
C628 H599 0.950 . S
C628 C627 1.334 . S
C628 C629 1.287 . S
C629 C628 1.287 . S
C629 C630 1.524 . S
C629 H632 0.999 . S
C630 H600 0.950 . S
C630 C629 1.524 . S
C630 C631 1.415 . S
C631 H601 0.950 . S
C631 C626 1.363 . S
C631 C630 1.415 . S
H632 C629 0.999 . S
H633 C614 0.913 . S
H634 C652 0.951 . S
H635 C654 0.951 . S
H636 C656 0.950 . S
H637 C657 0.950 . S
H638 C659 0.950 . S
H639 C662 0.950 . S
H640 C663 0.950 . S
H641 C665 0.950 . S
H642 C666 0.950 . S
H643 C667 0.951 . S
H644 C669 0.951 . S
H645 C671 0.950 . S
H646 C672 0.950 . S
H647 C674 0.950 . S
H648 C677 0.950 . S
H649 C678 0.950 . S
H650 C680 0.950 . S
H651 C681 0.950 . S
C652 H634 0.951 . S
C652 C653 1.366 . S
C652 C654 1.388 . S
C653 C652 1.366 . S
C653 C657 1.385 1_655 S
C654 H635 0.951 . S
C654 C652 1.388 . S
C654 C655 1.366 . S
C655 C654 1.366 . S
C655 C656 1.414 1_655 S
C655 C658 1.499 . S
C656 H636 0.950 . S
C656 C655 1.414 1_455 S
C656 C657 1.374 . S
C657 H637 0.950 . S
C657 C653 1.385 1_455 S
C657 C656 1.374 . S
C658 C655 1.499 . S
C658 C659 1.373 1_655 S
C658 C660 1.389 . S
C659 H638 0.950 . S
C659 C658 1.373 1_455 S
C659 C675 1.377 . S
C660 C658 1.389 . S
C660 C661 1.524 . S
C660 C674 1.377 . S
C661 C660 1.524 . S
C661 C662 1.397 . S
C661 C666 1.363 . S
C662 H639 0.950 . S
C662 C661 1.397 . S
C662 C663 1.334 . S
C663 H640 0.950 . S
C663 C662 1.334 . S
C663 C664 1.287 . S
C664 C663 1.287 . S
C664 C665 1.524 . S
C664 H683 0.913 . S
C665 H641 0.950 . S
C665 C664 1.524 . S
C665 C666 1.415 . S
C666 H642 0.950 . S
C666 C661 1.363 . S
C666 C665 1.415 . S
C667 H643 0.951 . S
C667 C668 1.361 1_455 S
C667 C669 1.388 . S
C668 C667 1.361 1_655 S
C668 C672 1.387 . S
C669 H644 0.951 . S
C669 C667 1.388 . S
C669 C670 1.369 . S
C670 C669 1.369 . S
C670 C671 1.407 1_455 S
C670 C673 1.501 1_455 S
C671 H645 0.950 . S
C671 C670 1.407 1_655 S
C671 C672 1.374 . S
C672 H646 0.950 . S
C672 C668 1.387 . S
C672 C671 1.374 . S
C673 C670 1.501 1_655 S
C673 C674 1.373 . S
C673 C675 1.389 1_655 S
C674 H647 0.950 . S
C674 C660 1.377 . S
C674 C673 1.373 . S
C675 C659 1.377 . S
C675 C673 1.389 1_455 S
C675 C676 1.524 . S
C676 C675 1.524 . S
C676 C677 1.397 . S
C676 C681 1.363 . S
C677 H648 0.950 . S
C677 C676 1.397 . S
C677 C678 1.334 . S
C678 H649 0.950 . S
C678 C677 1.334 . S
C678 C679 1.287 . S
C679 C678 1.287 . S
C679 C680 1.524 . S
C679 H682 0.999 . S
C680 H650 0.950 . S
C680 C679 1.524 . S
C680 C681 1.415 . S
C681 H651 0.950 . S
C681 C676 1.363 . S
C681 C680 1.415 . S
H682 C679 0.999 . S
H683 C664 0.913 . S
C118 C43 1.463 1_455 S
C103 C6 1.449 1_455 S
C153 C22 1.540 . S
C168 C69 1.566 1_545 S
C203 C34 1.225 . S
C218 C71 1.244 . S
C253 C7 1.451 1_655 S
C268 C55 1.464 . S
C318 C57 1.563 1_565 S
C303 C23 1.538 . S
C353 C35 1.225 . S
C368 C83 1.239 . S
C418 C56 1.556 . S
C403 C36 1.545 . S
C453 C9 1.764 . S
C468 C82 1.798 . S
C518 C42 1.461 . S
C503 C21 1.444 1_455 S
C568 C68 1.557 . S
C553 C37 1.541 . S
C618 C70 1.796 . S
C603 C8 1.762 . S
C653 C20 1.441 1_655 S
C668 C54 1.460 . S
