# Generated by pormake.
# Topology anh, (6,3)-cn, num edge types: 1
# Building blocks:
#     Node 0, Type 0, BuildingBlock: BETFEN_clean_sbu_0, # of connection points: 6
#     Node 1, Type 0, BuildingBlock: BETFEN_clean_sbu_0, # of connection points: 6
#     Node 2, Type 0, BuildingBlock: BETFEN_clean_sbu_0, # of connection points: 6
#     Node 3, Type 1, BuildingBlock: WUSLED_clean_sbu_0, # of connection points: 3
#     Node 4, Type 1, BuildingBlock: WUSLED_clean_sbu_0, # of connection points: 3
#     Node 5, Type 1, BuildingBlock: WUSLED_clean_sbu_0, # of connection points: 3
#     Node 6, Type 1, BuildingBlock: WUSLED_clean_sbu_0, # of connection points: 3
#     Node 7, Type 1, BuildingBlock: WUSLED_clean_sbu_0, # of connection points: 3
#     Node 8, Type 1, BuildingBlock: WUSLED_clean_sbu_0, # of connection points: 3
#     Edge 9, Type (0, 1), BuildingBlock: XUDNAN_clean_linker_2, # of connection points: 2
#     Edge 10, Type (0, 1), BuildingBlock: XUDNAN_clean_linker_2, # of connection points: 2
#     Edge 11, Type (0, 1), BuildingBlock: XUDNAN_clean_linker_2, # of connection points: 2
#     Edge 12, Type (0, 1), BuildingBlock: XUDNAN_clean_linker_2, # of connection points: 2
#     Edge 13, Type (0, 1), BuildingBlock: XUDNAN_clean_linker_2, # of connection points: 2
#     Edge 14, Type (0, 1), BuildingBlock: XUDNAN_clean_linker_2, # of connection points: 2
#     Edge 15, Type (0, 1), BuildingBlock: XUDNAN_clean_linker_2, # of connection points: 2
#     Edge 16, Type (0, 1), BuildingBlock: XUDNAN_clean_linker_2, # of connection points: 2
#     Edge 17, Type (0, 1), BuildingBlock: XUDNAN_clean_linker_2, # of connection points: 2
#     Edge 18, Type (0, 1), BuildingBlock: XUDNAN_clean_linker_2, # of connection points: 2
#     Edge 19, Type (0, 1), BuildingBlock: XUDNAN_clean_linker_2, # of connection points: 2
#     Edge 20, Type (0, 1), BuildingBlock: XUDNAN_clean_linker_2, # of connection points: 2
#     Edge 21, Type (0, 1), BuildingBlock: XUDNAN_clean_linker_2, # of connection points: 2
#     Edge 22, Type (0, 1), BuildingBlock: XUDNAN_clean_linker_2, # of connection points: 2
#     Edge 23, Type (0, 1), BuildingBlock: XUDNAN_clean_linker_2, # of connection points: 2
#     Edge 24, Type (0, 1), BuildingBlock: XUDNAN_clean_linker_2, # of connection points: 2
#     Edge 25, Type (0, 1), BuildingBlock: XUDNAN_clean_linker_2, # of connection points: 2
#     Edge 26, Type (0, 1), BuildingBlock: XUDNAN_clean_linker_2, # of connection points: 2
# Relax obj value: 0.169
# Max RMSD: 0.200
# Mean RMSD: 0.148
data_MOF--net-anh--node1-BETFEN_clean_sbu_0--node2-WUSLED_clean_sbu_0--edge1-XUDNAN_clean_linker_2
_symmetry_space_group_name_H-M    P1
_symmetry_Int_Tables_number       1
_symmetry_cell_setting            triclinic
loop_
_symmetry_equiv_pos_as_xyz
'x, y, z'
_cell_length_a     37.973163
_cell_length_b     39.774332
_cell_length_c     69.814297
_cell_angle_alpha  89.451679
_cell_angle_beta   92.4101
_cell_angle_gamma 107.71582
loop_
_atom_site_label
_atom_site_type_symbol
_atom_site_fract_x
_atom_site_fract_y
_atom_site_fract_z
_atom_type_partial_charge
Pr0 Pr 0.05455 0.521 0.1625 0.0
Pr1 Pr 0.09164 0.60755 0.1605 0.0
C2 C 1.02626 0.45273 0.17263 0.0
C3 C 0.98901 0.42802 0.17585 0.0
C4 C 0.9583 0.42825 0.16398 0.0
C5 C 0.92302 0.40559 0.16765 0.0
C6 C 0.91747 0.3824 0.18341 0.0
C7 C 0.94843 0.38219 0.19521 0.0
C8 C 0.98377 0.40474 0.19145 0.0
C9 C 0.05612 0.55141 0.12623 0.0
C10 C 0.99997 0.57027 0.15769 0.0
C11 C 0.12448 0.67504 0.15008 0.0
C12 C 0.156 0.70513 0.15679 0.0
C13 C 0.17736 0.70253 0.17333 0.0
C14 C 0.20856 0.73064 0.17889 0.0
C15 C 0.21911 0.76179 0.16794 0.0
C16 C 0.19714 0.76433 0.15155 0.0
C17 C 0.16596 0.73628 0.14604 0.0
C18 C 0.0812 0.58386 0.19869 0.0
C19 C 0.14705 0.55585 0.16066 0.0
O20 O 0.03876 0.47833 0.18513 0.0
O21 O 1.03402 0.46282 0.15496 0.0
O22 O 0.08112 0.56102 0.13933 0.0
O23 O 1.02994 0.52344 0.13125 0.0
O24 O 1.02809 0.59678 0.15173 0.0
O25 O 1.00477 0.54226 0.16644 0.0
O26 O 0.13294 0.64815 0.14318 0.0
O27 O 0.09566 0.66565 0.16084 0.0
O28 O 0.07378 0.56625 0.18346 0.0
O29 O 0.09686 0.61673 0.19445 0.0
O30 O 0.11822 0.52711 0.16233 0.0
O31 O 0.14404 0.5882 0.15994 0.0
H32 H 0.96148 0.44611 0.15191 0.0
H33 H 0.9001 0.40623 0.15804 0.0
H34 H 0.94531 0.36519 0.20763 0.0
H35 H 1.00699 0.40431 0.20091 0.0
H36 H 0.17023 0.67856 0.18175 0.0
H37 H 0.22499 0.72759 0.19147 0.0
H38 H 0.20405 0.78804 0.14293 0.0
H39 H 0.14985 0.73877 0.13322 0.0
Pr40 Pr 0.6113 0.06737 0.53367 0.0
Pr41 Pr 0.52672 1.04118 0.5342 0.0
C42 C 0.68225 0.10075 0.52519 0.0
C43 C 0.70583 0.13529 0.51817 0.0
C44 C 0.74075 0.15123 0.52708 0.0
C45 C 0.76453 0.18265 0.51988 0.0
C46 C 0.75401 0.19872 0.50348 0.0
C47 C 0.71857 0.18318 0.4949 0.0
C48 C 0.69472 0.15191 0.50218 0.0
C49 C 0.58352 0.04683 0.56947 0.0
C50 C 0.56545 0.12828 0.53779 0.0
C51 C 0.45442 1.00713 0.53953 0.0
C52 C 0.42497 0.97439 0.53374 0.0
C53 C 0.38882 0.97575 0.53022 0.0
C54 C 0.36011 0.94527 0.52508 0.0
C55 C 0.36677 0.91248 0.52336 0.0
C56 C 0.40326 0.91127 0.52659 0.0
C57 C 0.43208 0.94191 0.53175 0.0
C58 C 0.55527 0.05526 0.49756 0.0
C59 C 0.57441 0.97993 0.53522 0.0
O60 O 0.65777 0.08082 0.51299 0.0
O61 O 0.67015 0.09972 0.54253 0.0
O62 O 0.57074 0.06483 0.5576 0.0
O63 O 0.61337 1.0414 0.56354 0.0
O64 O 0.53547 0.10212 0.54216 0.0
O65 O 0.59476 0.12062 0.53164 0.0
O66 O 0.48126 1.00415 0.55115 0.0
O67 O 0.46573 1.031 0.5263 0.0
O68 O 0.56741 1.03967 0.51083 0.0
O69 O 0.5262 0.06295 0.50269 0.0
O70 O 0.60474 1.00633 0.53181 0.0
O71 O 0.54236 0.98648 0.53741 0.0
H72 H 0.74998 0.13895 0.53941 0.0
H73 H 0.79167 0.19368 0.52677 0.0
H74 H 0.70929 0.19509 0.48245 0.0
H75 H 0.66784 0.14047 0.49509 0.0
H76 H 0.38271 1.00051 0.53152 0.0
H77 H 0.33264 0.9475 0.52233 0.0
H78 H 0.40944 0.88652 0.52553 0.0
H79 H 0.4598 0.94015 0.5343 0.0
Pr80 Pr 0.53253 0.56878 0.83228 0.0
Pr81 Pr 0.54699 0.64328 0.84461 0.0
C82 C 0.51105 0.50549 0.81465 0.0
C83 C 0.52283 0.47413 0.81213 0.0
C84 C 0.54838 0.46607 0.82506 0.0
C85 C 0.55681 0.43442 0.8232 0.0
C86 C 0.53988 0.41061 0.80834 0.0
C87 C 0.51516 0.41952 0.79513 0.0
C88 C 0.50679 0.45104 0.79701 0.0
C89 C 0.53315 0.5774 0.87195 0.0
C90 C 0.61885 0.60979 0.8439 0.0
C91 C 0.56254 0.70471 0.86372 0.0
C92 C 0.53902 0.72099 0.87407 0.0
C93 C 0.54709 0.7577 0.87416 0.0
C94 C 0.52135 0.77316 0.88068 0.0
C95 C 0.48702 0.75207 0.88723 0.0
C96 C 0.48021 0.71534 0.88833 0.0
C97 C 0.50591 0.69991 0.88169 0.0
C98 C 0.5433 0.63536 0.80472 0.0
C99 C 0.46094 0.60067 0.83576 0.0
O100 O 0.53026 0.53439 0.80629 0.0
O101 O 0.50115 0.51073 0.83178 0.0
O102 O 0.51752 0.59195 0.85962 0.0
O103 O 0.54928 0.55687 0.86399 0.0
O104 O 0.60582 0.6352 0.84957 0.0
O105 O 0.59695 0.58127 0.83523 0.0
O106 O 0.56741 0.67621 0.87136 0.0
O107 O 0.55602 0.70215 0.84516 0.0
O108 O 0.56006 0.62016 0.81627 0.0
O109 O 0.52922 0.65638 0.81366 0.0
O110 O 0.47474 0.57954 0.82599 0.0
O111 O 0.48291 0.62533 0.84696 0.0
H112 H 0.56114 0.48386 0.83678 0.0
H113 H 0.57613 0.42836 0.83349 0.0
H114 H 0.50108 0.40151 0.78374 0.0
H115 H 0.48696 0.45694 0.78696 0.0
H116 H 0.57235 0.77431 0.86817 0.0
H117 H 0.52736 0.80146 0.87924 0.0
H118 H 0.45425 0.69837 0.89341 0.0
H119 H 0.49905 0.67143 0.88161 0.0
C120 C 0.6301 0.1373 0.22807 0.0
C121 C 0.66313 0.14845 0.23937 0.0
C122 C 0.6884 0.19727 0.21744 0.0
C123 C 0.69207 0.17804 0.23405 0.0
C124 C 0.65522 0.18594 0.20622 0.0
C125 C 0.62647 0.15628 0.21147 0.0
U126 U 0.57172 0.07445 0.2649 0.0
O127 O 0.51155 0.04937 0.26547 0.0
O128 O 0.54843 1.01638 0.26453 0.0
C129 C 0.51408 1.01722 0.26423 0.0
C130 C 0.59923 0.10601 0.23318 0.0
C131 C 0.48756 0.99284 0.25075 0.0
C132 C 0.44982 0.98059 0.22106 0.0
C133 C 0.47688 1.00405 0.23291 0.0
C134 C 0.44428 0.93437 0.2446 0.0
C135 C 0.43292 0.94547 0.22682 0.0
C136 C 0.47123 0.9578 0.2564 0.0
C137 C 0.59695 0.09192 0.3188 0.0
C138 C 0.59339 0.05203 0.34584 0.0
C139 C 0.59277 0.11186 0.35128 0.0
C140 C 0.59519 0.11839 0.33156 0.0
C141 C 0.59242 0.07876 0.35868 0.0
C142 C 0.5955 0.05847 0.32611 0.0
C143 C 0.60225 0.1004 0.29821 0.0
O144 O 0.60848 0.07937 0.24081 0.0
O145 O 0.57175 0.1125 0.2417 0.0
O146 O 0.57638 0.11088 0.28918 0.0
O147 O 0.61407 0.07875 0.28796 0.0
H148 H 0.66653 0.13434 0.25232 0.0
H149 H 0.71706 0.18625 0.24312 0.0
H150 H 0.65158 0.19982 0.19323 0.0
H151 H 0.60131 0.14811 0.20251 0.0
H152 H 0.44159 0.99021 0.20757 0.0
H153 H 0.48904 1.03102 0.22826 0.0
H154 H 0.43247 0.90746 0.24939 0.0
H155 H 0.47907 0.9486 0.27011 0.0
H156 H 0.59264 1.02611 0.35107 0.0
H157 H 0.59236 0.13308 0.36079 0.0
H158 H 0.59641 0.14441 0.32629 0.0
H159 H 0.59657 1.03742 0.31664 0.0
C160 C 0.55699 0.64887 0.55876 0.0
C161 C 0.58911 0.67508 0.56568 0.0
C162 C 0.56456 0.72394 0.55542 0.0
C163 C 0.59271 0.71156 0.56413 0.0
C164 C 0.53176 0.69767 0.54923 0.0
C165 C 0.52819 0.66104 0.55076 0.0
U166 U 0.55553 0.54861 0.57289 0.0
O167 O 0.52615 0.49824 0.55757 0.0
O168 O 0.58631 0.51789 0.55795 0.0
C169 C 0.55669 0.49177 0.55292 0.0
C170 C 0.55565 0.61016 0.55682 0.0
C171 C 0.5592 0.45405 0.55389 0.0
C172 C 0.59205 0.41205 0.54482 0.0
C173 C 0.58966 0.44676 0.54602 0.0
C174 C 0.53319 0.38943 0.55928 0.0
C175 C 0.56418 0.38231 0.55158 0.0
C176 C 0.53069 0.42452 0.56036 0.0
C177 C 0.55511 0.5581 0.62946 0.0
C178 C 0.54564 0.54914 0.66368 0.0
C179 C 0.56254 0.60827 0.65069 0.0
C180 C 0.5633 0.59462 0.63223 0.0
C181 C 0.55369 0.58566 0.66669 0.0
C182 C 0.54635 0.53562 0.64533 0.0
C183 C 0.5558 0.54197 0.61052 0.0
O184 O 0.58557 0.60123 0.56138 0.0
O185 O 0.52527 0.58458 0.56044 0.0
O186 O 0.52539 0.53444 0.59959 0.0
O187 O 0.5861 0.55342 0.60084 0.0
H188 H 0.61225 0.6675 0.57179 0.0
H189 H 0.61826 0.73022 0.56954 0.0
H190 H 0.50932 0.70536 0.54235 0.0
H191 H 0.50319 0.64213 0.5449 0.0
H192 H 0.61597 0.4087 0.53815 0.0
H193 H 0.61175 0.46814 0.5403 0.0
H194 H 0.5109 0.36793 0.5647 0.0
H195 H 0.50623 0.42842 0.56617 0.0
H196 H 0.53806 0.5308 0.67546 0.0
H197 H 0.56922 0.63656 0.65244 0.0
H198 H 0.57028 0.61248 0.6202 0.0
H199 H 0.5399 0.50733 0.64351 0.0
C200 C 0.94959 0.59452 0.86288 0.0
C201 C 0.93462 0.60412 0.87926 0.0
C202 C 0.87703 0.60114 0.86124 0.0
C203 C 0.89888 0.60745 0.87844 0.0
C204 C 0.89167 0.59036 0.845 0.0
C205 C 0.92764 0.58722 0.84581 0.0
U206 U 1.03566 0.59229 0.89206 0.0
O207 O 0.07545 0.56231 0.8892 0.0
O208 O 0.09509 0.62024 0.88908 0.0
C209 C 0.10403 0.59088 0.88792 0.0
C210 C 0.98818 0.59287 0.86353 0.0
C211 C 0.13474 0.59004 0.8754 0.0
C212 C 0.17278 0.55659 0.8624 0.0
C213 C 0.14 0.55768 0.87059 0.0
C214 C 0.19572 0.62027 0.86309 0.0
C215 C 0.20152 0.58784 0.85885 0.0
C216 C 0.1629 0.62135 0.87129 0.0
C217 C 1.02645 0.59296 0.9474 0.0
C218 C 0.05385 0.62456 0.97681 0.0
C219 C 1.02681 0.5611 0.9774 0.0
C220 C 1.01771 0.56118 0.95777 0.0
C221 C 0.04463 0.59282 0.98723 0.0
C222 C 0.04475 0.62464 0.95716 0.0
C223 C 1.01302 0.59322 0.92711 0.0
O224 O 1.01347 0.6214 0.8701 0.0
O225 O 0.99293 0.5637 0.87057 0.0
O226 O 1.00781 0.5641 0.91716 0.0
O227 O 1.02753 0.62192 0.91711 0.0
H228 H 0.95082 0.60954 0.89265 0.0
H229 H 0.8884 0.61522 0.89132 0.0
H230 H 0.87582 0.58547 0.83151 0.0
H231 H 0.93854 0.57965 0.833 0.0
H232 H 0.17617 0.53103 0.85969 0.0
H233 H 0.11949 0.53297 0.87395 0.0
H234 H 0.21683 0.64495 0.86036 0.0
H235 H 0.16028 0.64677 0.87513 0.0
H236 H 0.0671 0.64954 0.98394 0.0
H237 H 1.01971 0.53611 0.98489 0.0
H238 H 1.00314 0.53634 0.9508 0.0
H239 H 0.0513 0.6497 0.94975 0.0
C240 C 1.00072 0.48582 0.46419 0.0
C241 C 0.97132 0.47497 0.45049 0.0
C242 C 0.9437 0.42096 0.4685 0.0
C243 C 0.94309 0.44311 0.45267 0.0
C244 C 0.97313 0.43212 0.48228 0.0
C245 C 1.0013 0.46419 0.48013 0.0
U246 U 0.06031 0.55435 0.43118 0.0
O247 O 0.07962 0.61239 0.43211 0.0
O248 O 0.12013 0.58308 0.43204 0.0
C249 C 0.1148 0.61419 0.43279 0.0
C250 C 1.0312 0.51904 0.46165 0.0
C251 C 0.13958 0.64076 0.44594 0.0
C252 C 0.15484 0.67081 0.4768 0.0
C253 C 0.13212 0.64323 0.4653 0.0
C254 C 0.19301 0.69325 0.44982 0.0
C255 C 0.18536 0.69655 0.46915 0.0
C256 C 0.17042 0.6657 0.43841 0.0
C257 C 1.03642 0.53483 0.37677 0.0
C258 C 0.07373 0.55129 0.34863 0.0
C259 C 1.00704 0.52791 0.34483 0.0
C260 C 1.00449 0.52517 0.36472 0.0
C261 C 0.04171 0.5403 0.33649 0.0
C262 C 0.07112 0.54851 0.36862 0.0
C263 C 1.03243 0.52783 0.39751 0.0
O264 O 0.06086 0.51553 0.45392 0.0
O265 O 1.02139 0.54577 0.45454 0.0
O266 O 1.01907 0.54895 0.40727 0.0
O267 O 0.05942 0.51949 0.40679 0.0
H268 H 0.97023 0.49109 0.43801 0.0
H269 H 0.92068 0.43593 0.44192 0.0
H270 H 0.97494 0.41572 0.49452 0.0
H271 H 1.02381 0.47191 0.49083 0.0
H272 H 0.14831 0.67208 0.49167 0.0
H273 H 0.10845 0.62424 0.47141 0.0
H274 H 0.21572 0.71266 0.44324 0.0
H275 H 0.17654 0.66442 0.42346 0.0
H276 H 0.10085 0.56085 0.34267 0.0
H277 H 0.98178 0.5199 0.33596 0.0
H278 H 0.97744 0.51466 0.37069 0.0
H279 H 0.0962 0.5562 0.37764 0.0
C280 C 0.40646 0.9743 0.81347 0.0
C281 C 0.37006 0.95464 0.81766 0.0
C282 C 0.39333 0.92274 0.84268 0.0
C283 C 0.36356 0.92903 0.83212 0.0
C284 C 0.42957 0.94322 0.83872 0.0
C285 C 0.43598 0.96883 0.8245 0.0
U286 U 0.42233 1.00414 0.76093 0.0
O287 O 0.41318 0.04981 0.74584 0.0
O288 O 0.46948 0.04612 0.75028 0.0
C289 C 0.44891 0.06611 0.74511 0.0
C290 C 0.41454 1.00123 0.79816 0.0
C291 C 0.46202 0.10171 0.75337 0.0
C292 C 0.50709 0.15995 0.75423 0.0
C293 C 0.49155 0.12724 0.74524 0.0
C294 C 0.46324 0.142 0.77944 0.0
C295 C 0.49325 0.16761 0.7715 0.0
C296 C 0.44793 0.10925 0.77052 0.0
C297 C 0.41841 0.94366 0.7194 0.0
C298 C 0.41367 0.96006 0.68592 0.0
C299 C 0.45771 0.92979 0.69608 0.0
C300 C 0.44555 0.92814 0.71476 0.0
C301 C 0.44261 0.94658 0.6815 0.0
C302 C 0.40184 0.95882 0.70469 0.0
C303 C 0.41133 0.94764 0.7398 0.0
O304 O 0.44632 1.00608 0.79006 0.0
O305 O 0.38751 1.00166 0.7858 0.0
O306 O 0.38472 0.96128 0.7434 0.0
O307 O 0.44137 0.96085 0.75071 0.0
H308 H 0.34665 0.95873 0.80967 0.0
H309 H 0.3353 0.91394 0.83489 0.0
H310 H 0.45336 0.93871 0.84611 0.0
H311 H 0.46434 0.98394 0.8219 0.0
H312 H 0.53042 0.17894 0.74786 0.0
H313 H 0.50319 0.12155 0.7322 0.0
H314 H 0.45146 0.14725 0.79252 0.0
H315 H 0.4255 0.08962 0.7772 0.0
H316 H 0.40082 0.97249 0.675 0.0
H317 H 0.48035 0.91948 0.69338 0.0
H318 H 0.45881 0.91635 0.72583 0.0
H319 H 0.38075 0.97096 0.70775 0.0
C320 C 0.67909 0.59833 0.12925 0.0
C321 C 0.68922 0.58014 0.11436 0.0
C322 C 0.75101 0.59143 0.12932 0.0
C323 C 0.72482 0.57666 0.11442 0.0
C324 C 0.74134 0.61129 0.14361 0.0
C325 C 0.70564 0.61457 0.1436 0.0
U326 U 0.58108 0.59176 0.10875 0.0
O327 O 0.52891 0.56241 0.12156 0.0
O328 O 0.54267 0.61997 0.11816 0.0
C329 C 0.5186 0.59072 0.12401 0.0
C330 C 0.64043 0.5981 0.13102 0.0
C331 C 0.47859 0.5869 0.12181 0.0
C332 C 0.42708 0.60399 0.13374 0.0
C333 C 0.46507 0.61086 0.13152 0.0
C334 C 0.41505 0.54995 0.11553 0.0
C335 C 0.40157 0.57286 0.12631 0.0
C336 C 0.45315 0.55681 0.11335 0.0
C337 C 0.56652 0.58251 0.05251 0.0
C338 C 0.54498 0.60999 0.02494 0.0
C339 C 0.55174 0.55178 0.02178 0.0
C340 C 0.56334 0.55271 0.04112 0.0
C341 C 0.5433 0.58077 0.0133 0.0
C342 C 0.55648 0.61087 0.0443 0.0
C343 C 0.58609 0.58574 0.07155 0.0
O344 O 0.63166 0.62532 0.12389 0.0
O345 O 0.61504 0.56784 0.12724 0.0
O346 O 0.57699 0.5584 0.08311 0.0
O347 O 0.59375 0.6162 0.08054 0.0
H348 H 0.66924 0.56759 0.10306 0.0
H349 H 0.73158 0.56158 0.10307 0.0
H350 H 0.76072 0.62274 0.15535 0.0
H351 H 0.69834 0.6287 0.15523 0.0
H352 H 0.41797 0.62212 0.14228 0.0
H353 H 0.4841 0.63398 0.13842 0.0
H354 H 0.39622 0.52608 0.10926 0.0
H355 H 0.4627 0.53775 0.10583 0.0
H356 H 0.5391 0.63298 0.01892 0.0
H357 H 0.55018 0.52859 0.01337 0.0
H358 H 0.57131 0.53064 0.04698 0.0
H359 H 0.55903 0.63446 0.05257 0.0
H360 H 0.2111 0.60703 0.15123 0.0
H361 H 0.16686 0.49486 0.16288 0.0
H362 H 0.22675 0.48704 0.15515 0.0
H363 H 0.26262 0.59884 0.11118 0.0
H364 H 0.30093 0.63761 0.11686 0.0
H365 H 0.25526 0.63486 0.12423 0.0
H366 H 0.27981 0.64627 0.1595 0.0
H367 H 0.32565 0.64938 0.15223 0.0
H368 H 0.30443 0.61837 0.1705 0.0
H369 H 0.2911 0.49115 0.14516 0.0
H370 H 0.35557 0.50715 0.13515 0.0
H371 H 0.35731 0.61642 0.12913 0.0
C372 C 0.21402 0.58084 0.15244 0.0
C373 C 0.18408 0.55157 0.15778 0.0
C374 C 0.18925 0.51775 0.1589 0.0
C375 C 0.2232 0.51302 0.15449 0.0
C376 C 0.25181 0.54231 0.14894 0.0
C377 C 0.24764 0.5756 0.14801 0.0
C378 C 0.28248 0.60261 0.14129 0.0
C379 C 0.27485 0.61946 0.12226 0.0
C380 C 0.29907 0.63082 0.15681 0.0
C381 C 0.30693 0.57931 0.13855 0.0
C382 C 0.28869 0.54462 0.14302 0.0
C383 C 0.30559 0.51823 0.14158 0.0
C384 C 0.3422 0.52757 0.13567 0.0
C385 C 0.36173 0.56306 0.13118 0.0
C386 C 0.34347 0.58911 0.13256 0.0
H387 H 0.80133 0.25797 0.52172 0.0
H388 H 0.76712 0.21113 0.46543 0.0
H389 H 0.81138 0.26249 0.45063 0.0
H390 H 0.81338 0.34839 0.50722 0.0
H391 H 0.85335 0.36662 0.52301 0.0
H392 H 0.8188 0.32623 0.52929 0.0
H393 H 0.86923 0.29472 0.53254 0.0
H394 H 0.90391 0.33498 0.52622 0.0
H395 H 0.8982 0.29519 0.51267 0.0
H396 H 0.86049 0.31796 0.44185 0.0
H397 H 0.90955 0.37474 0.43954 0.0
H398 H 0.91136 0.38736 0.50135 0.0
C399 C 0.80323 0.25848 0.50629 0.0
C400 C 0.78048 0.23043 0.49475 0.0
C401 C 0.78371 0.2324 0.47458 0.0
C402 C 0.80899 0.2614 0.46603 0.0
C403 C 0.83093 0.2885 0.47778 0.0
C404 C 0.82823 0.28745 0.49746 0.0
C405 C 0.85492 0.32034 0.50673 0.0
C406 C 0.83385 0.34165 0.51718 0.0
C407 C 0.88324 0.31072 0.52035 0.0
C408 C 0.8732 0.33985 0.48919 0.0
C409 C 0.85894 0.32092 0.47266 0.0
C410 C 0.87161 0.33318 0.45469 0.0
C411 C 0.8994 0.36573 0.45353 0.0
C412 C 0.91432 0.38607 0.47021 0.0
C413 C 0.90092 0.37261 0.48829 0.0
H414 H 0.49175 0.81623 0.90309 0.0
H415 H 0.41439 0.72453 0.87562 0.0
H416 H 0.37005 0.75755 0.86986 0.0
H417 H 0.41659 0.85802 0.92057 0.0
H418 H 0.44709 0.90126 0.91526 0.0
H419 H 0.46591 0.86735 0.92424 0.0
H420 H 0.50749 0.87645 0.895 0.0
H421 H 0.4887 0.90979 0.88585 0.0
H422 H 0.48637 0.87209 0.87114 0.0
H423 H 0.34574 0.80352 0.85676 0.0
H424 H 0.34284 0.85666 0.83943 0.0
H425 H 0.43248 0.92058 0.8763 0.0
C426 C 0.46476 0.80274 0.89664 0.0
C427 C 0.45672 0.76793 0.88965 0.0
C428 C 0.42117 0.75104 0.88128 0.0
C429 C 0.39567 0.7697 0.87794 0.0
C430 C 0.40578 0.80509 0.88339 0.0
C431 C 0.43915 0.82125 0.89311 0.0
C432 C 0.44663 0.86085 0.89414 0.0
C433 C 0.44387 0.87255 0.91478 0.0
C434 C 0.48448 0.88091 0.88603 0.0
C435 C 0.41475 0.86478 0.88148 0.0
C436 C 0.39069 0.83226 0.87601 0.0
C437 C 0.36339 0.82915 0.86153 0.0
C438 C 0.36189 0.85964 0.85172 0.0
C439 C 0.38763 0.89287 0.8564 0.0
C440 C 0.41258 0.89551 0.87232 0.0
H441 H 0.96798 0.62457 0.15477 0.0
H442 H 0.94477 0.51144 0.14777 0.0
H443 H 0.88025 0.50575 0.13813 0.0
H444 H 0.88098 0.61864 0.17555 0.0
H445 H 0.87592 0.65782 0.16411 0.0
H446 H 0.92139 0.65395 0.16931 0.0
H447 H 0.93681 0.66522 0.13358 0.0
H448 H 0.89132 0.66903 0.12827 0.0
H449 H 0.90701 0.63757 0.11539 0.0
H450 H 0.81866 0.5113 0.12942 0.0
H451 H 0.76118 0.52726 0.12458 0.0
H452 H 0.82125 0.63639 0.13847 0.0
C453 C 0.94926 0.59874 0.15108 0.0
C454 C 0.9614 0.56844 0.15204 0.0
C455 C 0.93605 0.53498 0.14732 0.0
C456 C 0.89935 0.53146 0.14169 0.0
C457 C 0.88807 0.56159 0.14102 0.0
C458 C 0.91197 0.59457 0.14576 0.0
C459 C 0.89164 0.62214 0.14485 0.0
C460 C 0.89254 0.63913 0.16464 0.0
C461 C 0.90766 0.65015 0.12961 0.0
C462 C 0.85276 0.59938 0.13891 0.0
C463 C 0.85164 0.56464 0.13655 0.0
C464 C 0.81912 0.53844 0.13116 0.0
C465 C 0.78663 0.54783 0.12831 0.0
C466 C 0.78667 0.58309 0.13099 0.0
C467 C 0.82033 0.60921 0.13632 0.0
H468 H 0.366 0.85704 0.49937 0.0
H469 H 0.29636 0.89385 0.53647 0.0
H470 H 0.24355 0.84191 0.52762 0.0
H471 H 0.2982 0.82385 0.46201 0.0
H472 H 0.31265 0.78578 0.45698 0.0
H473 H 0.34563 0.82513 0.46678 0.0
H474 H 0.36159 0.789 0.49507 0.0
H475 H 0.32871 0.74947 0.48532 0.0
H476 H 0.32508 0.76283 0.50957 0.0
H477 H 0.19734 0.78719 0.51378 0.0
H478 H 0.1612 0.73391 0.49589 0.0
H479 H 0.26086 0.73076 0.46859 0.0
C480 C 0.3398 0.85395 0.50585 0.0
C481 C 0.33547 0.87988 0.51856 0.0
C482 C 0.30042 0.87485 0.52647 0.0
C483 C 0.27022 0.84522 0.52164 0.0
C484 C 0.27533 0.82049 0.50893 0.0
C485 C 0.30925 0.82441 0.50119 0.0
C486 C 0.30695 0.79428 0.48751 0.0
C487 C 0.31641 0.8081 0.46711 0.0
C488 C 0.33208 0.77261 0.49481 0.0
C489 C 0.26634 0.77317 0.48855 0.0
C490 C 0.24869 0.78867 0.50108 0.0
C491 C 0.21098 0.7746 0.50409 0.0
C492 C 0.19068 0.74406 0.49392 0.0
C493 C 0.20797 0.72768 0.48083 0.0
C494 C 0.24652 0.74254 0.47833 0.0
H495 H 0.548 0.37547 0.77616 0.0
H496 H 0.5422 0.36556 0.83797 0.0
H497 H 0.53957 0.303 0.83548 0.0
H498 H 0.48145 0.29897 0.76573 0.0
H499 H 0.50215 0.28725 0.74506 0.0
H500 H 0.51269 0.33277 0.75187 0.0
H501 H 0.58275 0.3391 0.75378 0.0
H502 H 0.57244 0.29349 0.74677 0.0
H503 H 0.59932 0.30923 0.76857 0.0
H504 H 0.52674 0.23983 0.8259 0.0
H505 H 0.5059 0.18146 0.8101 0.0
H506 H 0.51641 0.23247 0.75448 0.0
C507 C 0.54714 0.36036 0.78922 0.0
C508 C 0.54541 0.37538 0.80725 0.0
C509 C 0.54422 0.35479 0.82402 0.0
C510 C 0.5426 0.31918 0.82274 0.0
C511 C 0.54254 0.30475 0.80461 0.0
C512 C 0.5452 0.32483 0.78816 0.0
C513 C 0.53997 0.3023 0.77031 0.0
C514 C 0.50711 0.30551 0.75751 0.0
C515 C 0.57576 0.31158 0.7592 0.0
C516 C 0.53187 0.26614 0.77926 0.0
C517 C 0.53433 0.26813 0.79905 0.0
C518 C 0.52531 0.23797 0.81042 0.0
C519 C 0.51309 0.20496 0.80131 0.0
C520 C 0.50946 0.20239 0.78104 0.0
C521 C 0.51963 0.23348 0.76997 0.0
H522 H 0.52044 0.91448 0.54411 0.0
H523 H 0.6361 0.9592 0.53092 0.0
H524 H 0.64478 0.90075 0.53453 0.0
H525 H 0.53448 0.85154 0.57984 0.0
H526 H 0.49325 0.81653 0.57286 0.0
H527 H 0.49503 0.86192 0.56914 0.0
H528 H 0.47816 0.84917 0.53316 0.0
H529 H 0.47628 0.80371 0.53675 0.0
H530 H 0.50599 0.82996 0.51915 0.0
H531 H 0.64255 0.83728 0.53985 0.0
H532 H 0.62931 0.77383 0.54585 0.0
H533 H 0.51485 0.76557 0.55578 0.0
C534 C 0.54758 0.912 0.54187 0.0
C535 C 0.57756 0.94246 0.53711 0.0
C536 C 0.61245 0.93718 0.5345 0.0
C537 C 0.61778 0.9037 0.53655 0.0
C538 C 0.58806 0.87459 0.54126 0.0
C539 C 0.5535 0.87819 0.54384 0.0
C540 C 0.5265 0.84199 0.54887 0.0
C541 C 0.51141 0.84306 0.56887 0.0
C542 C 0.49485 0.83053 0.53357 0.0
C543 C 0.55129 0.81773 0.54869 0.0
C544 C 0.58673 0.83746 0.5443 0.0
C545 C 0.61487 0.82173 0.54338 0.0
C546 C 0.60701 0.78525 0.54702 0.0
C547 C 0.57107 0.76362 0.55167 0.0
C548 C 0.54273 0.78062 0.5523 0.0
H549 H 0.65973 0.56573 0.83332 0.0
H550 H 0.6694 0.66323 0.86364 0.0
H551 H 0.73525 0.67104 0.87092 0.0
H552 H 0.72169 0.53628 0.86537 0.0
H553 H 0.74202 0.51844 0.84663 0.0
H554 H 0.69522 0.52005 0.84352 0.0
H555 H 0.71209 0.5553 0.8121 0.0
H556 H 0.75896 0.55381 0.81512 0.0
H557 H 0.75012 0.59567 0.81245 0.0
H558 H 0.79979 0.6687 0.87551 0.0
H559 H 0.85974 0.65672 0.87659 0.0
H560 H 0.81074 0.56106 0.84326 0.0
C561 C 0.67571 0.58874 0.84146 0.0
C562 C 0.65899 0.61386 0.84786 0.0
C563 C 0.68116 0.64357 0.85848 0.0
C564 C 0.71878 0.64829 0.86274 0.0
C565 C 0.73432 0.62319 0.85628 0.0
C566 C 0.71366 0.59402 0.84582 0.0
C567 C 0.73765 0.5712 0.84064 0.0
C568 C 0.72328 0.53431 0.84957 0.0
C569 C 0.73983 0.56887 0.81878 0.0
C570 C 0.77486 0.59214 0.84986 0.0
C571 C 0.77208 0.62197 0.85884 0.0
C572 C 0.8023 0.64538 0.86856 0.0
C573 C 0.83628 0.63819 0.8692 0.0
C574 C 0.84018 0.60781 0.86016 0.0
C575 C 0.80888 0.58461 0.85024 0.0
H576 H 0.24551 0.78828 0.204 0.0
H577 H 0.27067 0.80162 0.1438 0.0
H578 H 0.32727 0.85023 0.15218 0.0
H579 H 0.27767 0.88057 0.21663 0.0
H580 H 0.29671 0.87333 0.23983 0.0
H581 H 0.25795 0.8397 0.22911 0.0
H582 H 0.29465 0.79452 0.2324 0.0
H583 H 0.33352 0.82801 0.24313 0.0
H584 H 0.33948 0.80451 0.22217 0.0
H585 H 0.3818 0.89719 0.16713 0.0
H586 H 0.42999 0.93872 0.18756 0.0
H587 H 0.36926 0.89529 0.23802 0.0
C588 C 0.26302 0.80125 0.19257 0.0
C589 C 0.25339 0.79111 0.17319 0.0
C590 C 0.277 0.80916 0.15871 0.0
C591 C 0.30939 0.83672 0.16333 0.0
C592 C 0.31796 0.84608 0.18254 0.0
C593 C 0.29547 0.82892 0.19693 0.0
C594 C 0.31102 0.84421 0.21644 0.0
C595 C 0.28424 0.86042 0.22606 0.0
C596 C 0.32021 0.81614 0.22929 0.0
C597 C 0.34586 0.87248 0.21076 0.0
C598 C 0.34932 0.87317 0.19114 0.0
C599 C 0.37928 0.89698 0.18252 0.0
C600 C 0.40644 0.92066 0.19425 0.0
C601 C 0.4036 0.92048 0.21445 0.0
C602 C 0.37267 0.89596 0.22269 0.0
H603 H 0.51076 0.165 0.53977 0.0
H604 H 0.6294 0.18205 0.54267 0.0
H605 H 0.64018 0.24542 0.5472 0.0
H606 H 0.51589 0.24635 0.51308 0.0
H607 H 0.47915 0.256 0.52526 0.0
H608 H 0.47933 0.21096 0.5229 0.0
H609 H 0.47612 0.20335 0.55963 0.0
H610 H 0.47599 0.24841 0.5621 0.0
H611 H 0.51051 0.23348 0.57502 0.0
H612 H 0.63998 0.30758 0.55214 0.0
H613 H 0.62901 0.36474 0.55507 0.0
H614 H 0.51065 0.31356 0.54721 0.0
C615 C 0.53899 0.18202 0.54147 0.0
C616 C 0.56919 0.16743 0.54085 0.0
C617 C 0.60553 0.19151 0.54295 0.0
C618 C 0.61209 0.22801 0.54563 0.0
C619 C 0.58221 0.24144 0.54607 0.0
C620 C 0.54627 0.21941 0.54391 0.0
C621 C 0.51964 0.2419 0.54435 0.0
C622 C 0.49716 0.23859 0.52526 0.0
C623 C 0.49403 0.23113 0.56128 0.0
C624 C 0.54626 0.27963 0.54715 0.0
C625 C 0.58218 0.27826 0.54821 0.0
C626 C 0.61191 0.30889 0.55103 0.0
C627 C 0.60524 0.34175 0.55249 0.0
C628 C 0.56894 0.34509 0.55091 0.0
C629 C 0.53892 0.31287 0.54845 0.0
H630 H 0.42295 0.63856 0.85472 0.0
H631 H 0.40631 0.55024 0.8157 0.0
H632 H 0.33868 0.53911 0.81621 0.0
H633 H 0.34782 0.60024 0.88379 0.0
H634 H 0.33529 0.64 0.88694 0.0
H635 H 0.38243 0.64279 0.88248 0.0
H636 H 0.38193 0.68221 0.85234 0.0
H637 H 0.33567 0.68097 0.85804 0.0
H638 H 0.34476 0.66782 0.83457 0.0
H639 H 0.27227 0.53618 0.82197 0.0
H640 H 0.21297 0.54134 0.83254 0.0
H641 H 0.27262 0.63078 0.86846 0.0
C642 C 0.40517 0.61707 0.8461 0.0
C643 C 0.42021 0.59531 0.83512 0.0
C644 C 0.3957 0.56739 0.82418 0.0
C645 C 0.35714 0.56085 0.82438 0.0
C646 C 0.34328 0.58253 0.83551 0.0
C647 C 0.36658 0.61021 0.84609 0.0
C648 C 0.3446 0.62912 0.85719 0.0
C649 C 0.35304 0.62794 0.87889 0.0
C650 C 0.35217 0.6673 0.85013 0.0
C651 C 0.30525 0.60703 0.85173 0.0
C652 C 0.30513 0.5806 0.839 0.0
C653 C 0.27212 0.55678 0.83196 0.0
C654 C 0.23846 0.55981 0.83818 0.0
C655 C 0.23768 0.58634 0.85148 0.0
C656 C 0.27184 0.61042 0.85813 0.0
H657 H 0.89658 0.31399 0.19742 0.0
H658 H 0.85194 0.39827 0.17949 0.0
H659 H 0.7892 0.36028 0.18618 0.0
H660 H 0.82177 0.242 0.17844 0.0
H661 H 0.82293 0.21295 0.19827 0.0
H662 H 0.86453 0.24661 0.19193 0.0
H663 H 0.87271 0.27138 0.22657 0.0
H664 H 0.83113 0.23777 0.23302 0.0
H665 H 0.83554 0.28367 0.23678 0.0
H666 H 0.73099 0.3131 0.19456 0.0
H667 H 0.68161 0.26029 0.20447 0.0
H668 H 0.76366 0.20689 0.21785 0.0
C669 C 0.87373 0.32468 0.19505 0.0
C670 C 0.87949 0.35924 0.18774 0.0
C671 C 0.84847 0.37176 0.18468 0.0
C672 C 0.81264 0.35044 0.18859 0.0
C673 C 0.80802 0.3166 0.1957 0.0
C674 C 0.8377 0.30379 0.19899 0.0
C675 C 0.82507 0.26642 0.20677 0.0
C676 C 0.83411 0.24047 0.19303 0.0
C677 C 0.84213 0.26472 0.22699 0.0
C678 C 0.78366 0.26021 0.20727 0.0
C679 C 0.77445 0.28951 0.2008 0.0
C680 C 0.73789 0.29001 0.19966 0.0
C681 C 0.70999 0.25978 0.20523 0.0
C682 C 0.71863 0.22933 0.21192 0.0
C683 C 0.75612 0.22981 0.21301 0.0
H684 H 1.00683 0.53015 0.09575 0.0
H685 H 0.11432 0.60303 0.11189 0.0
H686 H 0.1225 0.62299 0.07825 0.0
H687 H 1.03184 0.50374 0.05138 0.0
H688 H 0.98843 0.50084 0.03894 0.0
H689 H 0.98998 0.49399 0.06445 0.0
H690 H 0.95967 0.54327 0.06962 0.0
H691 H 0.95774 0.55008 0.04409 0.0
H692 H 0.98051 0.58656 0.05984 0.0
H693 H 0.12014 0.63269 0.04242 0.0
H694 H 0.10696 0.63236 0.00745 0.0
H695 H 1.00068 0.55338 0.01485 0.0
C696 C 1.0319 0.55059 0.09223 0.0
C697 C 0.0599 0.56519 0.10642 0.0
C698 C 0.09242 0.59172 0.10126 0.0
C699 C 0.09733 0.60314 0.08218 0.0
C700 C 0.06942 0.58781 0.06846 0.0
C701 C 1.03725 0.56225 0.07327 0.0
C702 C 1.01195 0.54932 0.05576 0.0
C703 C 1.00517 0.50963 0.05244 0.0
C704 C 0.9753 0.55783 0.05743 0.0
C705 C 1.03512 0.57121 0.04028 0.0
C706 C 0.06809 0.59336 0.0479 0.0
C707 C 0.09425 0.61566 0.03633 0.0
C708 C 0.08644 0.61538 0.01647 0.0
C709 C 0.05277 0.59289 0.00832 0.0
C710 C 1.02687 0.57061 0.02052 0.0
H711 H 0.52924 0.08465 0.46643 0.0
H712 H 0.60903 1.03075 0.48371 0.0
H713 H 0.62771 1.03159 0.45019 0.0
H714 H 0.50036 1.04022 0.42174 0.0
H715 H 0.496 0.07856 0.40909 0.0
H716 H 0.48971 0.07485 0.43453 0.0
H717 H 0.54043 0.13489 0.43995 0.0
H718 H 0.54679 0.13887 0.4145 0.0
H719 H 0.58568 0.14141 0.43075 0.0
H720 H 0.63571 1.03584 0.4146 0.0
H721 H 0.63477 0.04588 0.37964 0.0
H722 H 0.55036 0.09773 0.38538 0.0
C723 C 0.55081 0.07324 0.46316 0.0
C724 C 0.56766 0.05755 0.47765 0.0
C725 C 0.59578 1.04291 0.47283 0.0
C726 C 0.60654 1.04323 0.45383 0.0
C727 C 0.58907 0.05849 0.43982 0.0
C728 C 0.56202 0.07349 0.44426 0.0
C729 C 0.54749 0.08797 0.42647 0.0
C730 C 0.50592 0.06927 0.42274 0.0
C731 C 0.55559 0.12817 0.42801 0.0
C732 C 0.5703 0.07843 0.41131 0.0
C733 C 0.59406 0.06138 0.41933 0.0
C734 C 0.61731 0.04928 0.40817 0.0
C735 C 0.61639 0.05489 0.38831 0.0
C736 C 0.59247 0.07253 0.37975 0.0
C737 C 0.56921 0.08447 0.3915 0.0
H738 H 0.56928 0.59158 0.78222 0.0
H739 H 0.51705 0.67462 0.77905 0.0
H740 H 0.51594 0.67223 0.74375 0.0
H741 H 0.6265 0.61895 0.74104 0.0
H742 H 0.62039 0.57455 0.73296 0.0
H743 H 0.61818 0.58332 0.75808 0.0
H744 H 0.55323 0.53718 0.75875 0.0
H745 H 0.55526 0.52823 0.73364 0.0
H746 H 0.51711 0.54121 0.74212 0.0
H747 H 0.51983 0.66078 0.70872 0.0
H748 H 0.52626 0.63937 0.6764 0.0
H749 H 0.57564 0.56332 0.70172 0.0
C750 C 0.55775 0.6093 0.77407 0.0
C751 C 0.54338 0.63342 0.78345 0.0
C752 C 0.52831 0.656 0.77224 0.0
C753 C 0.52758 0.65488 0.75214 0.0
C754 C 0.54186 0.63087 0.74332 0.0
C755 C 0.55654 0.60835 0.75388 0.0
C756 C 0.56913 0.58441 0.74072 0.0
C757 C 0.61104 0.59069 0.74336 0.0
C758 C 0.54738 0.54545 0.74401 0.0
C759 C 0.55919 0.59701 0.72117 0.0
C760 C 0.54368 0.62395 0.72304 0.0
C761 C 0.53208 0.63977 0.70708 0.0
C762 C 0.53612 0.62758 0.68872 0.0
C763 C 0.55156 0.59968 0.68634 0.0
C764 C 0.5634 0.58445 0.70292 0.0
H765 H 0.53479 0.06371 0.59261 0.0
H766 H 0.58326 0.98108 0.5802 0.0
H767 H 0.54654 0.94362 0.60514 0.0
H768 H 0.53891 0.05334 0.64301 0.0
H769 H 0.49621 0.0627 0.64693 0.0
H770 H 0.52284 0.08123 0.62656 0.0
H771 H 0.46554 0.05344 0.60399 0.0
H772 H 0.43879 1.0345 0.62432 0.0
H773 H 0.44271 1.00657 0.60485 0.0
H774 H 0.50635 0.91589 0.63195 0.0
H775 H 0.4708 0.90217 0.66126 0.0
H776 H 0.45285 1.00496 0.65831 0.0
C777 C 0.53727 1.03759 0.59509 0.0
C778 C 0.56163 1.02513 0.58454 0.0
C779 C 0.56479 0.99109 0.58825 0.0
C780 C 0.54384 0.96952 0.60226 0.0
C781 C 0.52024 0.98259 0.61258 0.0
C782 C 0.51718 1.01599 0.60938 0.0
C783 C 0.4925 1.02487 0.62373 0.0
C784 C 0.5139 0.05745 0.63577 0.0
C785 C 0.45782 1.03015 0.61361 0.0
C786 C 0.4828 0.99154 0.63569 0.0
C787 C 0.4984 0.96721 0.62873 0.0
C788 C 0.49405 0.93477 0.63759 0.0
C789 C 0.47402 0.92733 0.65434 0.0
C790 C 0.45918 0.95252 0.6623 0.0
C791 C 0.46316 0.98477 0.65253 0.0
H792 H 0.56943 0.55356 0.90159 0.0
H793 H 0.48762 0.60768 0.88938 0.0
H794 H 0.48003 0.61294 0.92403 0.0
H795 H 0.52589 0.50428 0.94264 0.0
H796 H 0.56892 0.50901 0.95588 0.0
H797 H 0.56759 0.50884 0.93005 0.0
H798 H 0.61884 0.56924 0.93016 0.0
H799 H 0.62046 0.5695 0.95598 0.0
H800 H 0.61229 0.60593 0.94294 0.0
H801 H 0.48093 0.61209 0.95999 0.0
H802 H 0.49233 0.6076 0.99484 0.0
H803 H 0.57507 0.55578 0.98396 0.0
C804 C 0.54984 0.56637 0.90625 0.0
C805 C 0.52908 0.58019 0.89281 0.0
C806 C 0.50393 0.59704 0.89943 0.0
C807 C 0.4993 0.60003 0.91909 0.0
C808 C 0.5201 0.58611 0.932 0.0
C809 C 0.54503 0.56978 0.9259 0.0
C810 C 0.56463 0.55796 0.94283 0.0
C811 C 0.55625 0.51762 0.94285 0.0
C812 C 0.60654 0.57679 0.94298 0.0
C813 C 0.54679 0.57016 0.95936 0.0
C814 C 0.52106 0.58617 0.95278 0.0
C815 C 0.50114 0.59973 0.96532 0.0
C816 C 0.50795 0.59721 0.98511 0.0
C817 C 0.53465 0.58141 0.99226 0.0
C818 C 0.55406 0.56754 0.97908 0.0
H819 H 0.10959 0.61621 0.23287 0.0
H820 H 1.03077 0.52192 0.2086 0.0
H821 H 1.01423 0.49943 0.24116 0.0
H822 H 0.1401 0.57467 0.27443 0.0
H823 H 0.14334 0.61112 0.29026 0.0
H824 H 0.15049 0.61885 0.26504 0.0
H825 H 0.09922 0.64947 0.26306 0.0
H826 H 0.09188 0.6418 0.28825 0.0
H827 H 0.05372 0.62618 0.27104 0.0
H828 H 1.00484 0.48818 0.2762 0.0
H829 H 1.00272 0.48865 0.31142 0.0
H830 H 0.08634 0.59128 0.31338 0.0
C831 C 0.08915 0.59065 0.23446 0.0
C832 C 0.0722 0.57016 0.21823 0.0
C833 C 0.04513 0.53722 0.22083 0.0
C834 C 1.03527 0.52449 0.23928 0.0
C835 C 0.05263 0.54519 0.255 0.0
C836 C 0.07897 0.57759 0.25282 0.0
C837 C 0.09253 0.59504 0.27212 0.0
C838 C 0.13408 0.60021 0.27567 0.0
C839 C 0.0838 0.6302 0.27371 0.0
C840 C 0.0695 0.56749 0.28548 0.0
C841 C 0.04674 0.53895 0.27527 0.0
C842 C 1.0225 0.5104 0.28435 0.0
C843 C 1.02133 0.51105 0.30438 0.0
C844 C 0.04415 0.54011 0.31523 0.0
C845 C 0.06875 0.56856 0.30555 0.0
loop_
_geom_bond_atom_site_label_1
_geom_bond_atom_site_label_2
_geom_bond_distance
_geom_bond_site_symmetry_2
_ccdc_geom_bond_type
Pr0 C2 2.880 . S
Pr0 O20 2.562 . S
Pr0 O21 2.490 . S
Pr0 O22 2.695 1_655 S
Pr0 O23 2.512 . S
Pr0 O25 2.437 . S
Pr0 O28 2.436 . S
Pr0 O30 2.438 1_655 S
Pr1 C11 2.880 . S
Pr1 O22 2.436 . S
Pr1 O24 2.438 1_455 S
Pr1 O26 2.562 . S
Pr1 O27 2.490 . S
Pr1 O28 2.695 1_455 S
Pr1 O29 2.512 . S
Pr1 O31 2.437 . S
C2 Pr0 2.880 . S
C2 C3 1.491 . S
C2 O20 1.254 . S
C2 O21 1.225 . S
C3 C2 1.491 . S
C3 C4 1.392 . S
C3 C8 1.356 . S
C4 C3 1.392 . S
C4 C5 1.368 . S
C4 H32 0.929 . S
C5 C4 1.368 . S
C5 C6 1.386 . S
C5 H33 0.929 . S
C6 C5 1.386 . S
C6 C7 1.373 . S
C7 C6 1.373 . S
C7 C8 1.409 . S
C7 H34 0.931 . S
C8 C3 1.356 . S
C8 C7 1.409 . S
C8 H35 0.930 . S
C9 O22 1.270 . S
C9 O23 1.248 1_455 S
C10 O24 1.267 . S
C10 O25 1.278 . S
C11 Pr1 2.880 . S
C11 C12 1.491 . S
C11 O26 1.254 . S
C11 O27 1.225 . S
C12 C11 1.491 . S
C12 C13 1.392 . S
C12 C17 1.356 . S
C13 C12 1.392 . S
C13 C14 1.368 . S
C13 H36 0.929 . S
C14 C13 1.368 . S
C14 C15 1.386 . S
C14 H37 0.929 . S
C15 C14 1.386 . S
C15 C16 1.373 . S
C16 C15 1.373 . S
C16 C17 1.409 . S
C16 H38 0.931 . S
C17 C12 1.356 . S
C17 C16 1.409 . S
C17 H39 0.930 . S
C18 O28 1.270 1_455 S
C18 O29 1.248 . S
C19 O30 1.267 . S
C19 O31 1.278 . S
O20 Pr0 2.562 . S
O20 C2 1.254 . S
O21 Pr0 2.490 . S
O21 C2 1.225 . S
O22 Pr0 2.695 1_455 S
O22 Pr1 2.436 . S
O22 C9 1.270 . S
O23 Pr0 2.512 . S
O23 C9 1.248 1_655 S
O24 Pr1 2.438 1_655 S
O24 C10 1.267 . S
O25 Pr0 2.437 . S
O25 C10 1.278 . S
O26 Pr1 2.562 . S
O26 C11 1.254 . S
O27 Pr1 2.490 . S
O27 C11 1.225 . S
O28 Pr0 2.436 . S
O28 Pr1 2.695 1_655 S
O28 C18 1.270 1_655 S
O29 Pr1 2.512 . S
O29 C18 1.248 . S
O30 Pr0 2.438 1_455 S
O30 C19 1.267 . S
O31 Pr1 2.437 . S
O31 C19 1.278 . S
H32 C4 0.929 . S
H33 C5 0.929 . S
H34 C7 0.931 . S
H35 C8 0.930 . S
H36 C13 0.929 . S
H37 C14 0.929 . S
H38 C16 0.931 . S
H39 C17 0.930 . S
Pr40 C42 2.880 . S
Pr40 O60 2.562 . S
Pr40 O61 2.490 . S
Pr40 O62 2.695 . S
Pr40 O63 2.512 . S
Pr40 O65 2.437 . S
Pr40 O68 2.436 . S
Pr40 O70 2.438 1_545 S
Pr41 C51 2.880 . S
Pr41 O62 2.436 1_565 S
Pr41 O64 2.438 1_565 S
Pr41 O66 2.562 . S
Pr41 O67 2.490 . S
Pr41 O68 2.695 1_565 S
Pr41 O69 2.512 . S
Pr41 O71 2.437 . S
C42 Pr40 2.880 . S
C42 C43 1.491 . S
C42 O60 1.254 . S
C42 O61 1.225 . S
C43 C42 1.491 . S
C43 C44 1.392 . S
C43 C48 1.356 . S
C44 C43 1.392 . S
C44 C45 1.368 . S
C44 H72 0.929 . S
C45 C44 1.368 . S
C45 C46 1.386 . S
C45 H73 0.929 . S
C46 C45 1.386 . S
C46 C47 1.373 . S
C47 C46 1.373 . S
C47 C48 1.409 . S
C47 H74 0.931 . S
C48 C43 1.356 . S
C48 C47 1.409 . S
C48 H75 0.930 . S
C49 O62 1.270 . S
C49 O63 1.248 . S
C50 O64 1.267 . S
C50 O65 1.278 . S
C51 Pr41 2.880 . S
C51 C52 1.491 . S
C51 O66 1.254 . S
C51 O67 1.225 . S
C52 C51 1.491 . S
C52 C53 1.392 . S
C52 C57 1.356 . S
C53 C52 1.392 . S
C53 C54 1.368 . S
C53 H76 0.929 . S
C54 C53 1.368 . S
C54 C55 1.386 . S
C54 H77 0.929 . S
C55 C54 1.386 . S
C55 C56 1.373 . S
C56 C55 1.373 . S
C56 C57 1.409 . S
C56 H78 0.931 . S
C57 C52 1.356 . S
C57 C56 1.409 . S
C57 H79 0.930 . S
C58 O68 1.270 . S
C58 O69 1.248 1_545 S
C59 O70 1.267 . S
C59 O71 1.278 . S
O60 Pr40 2.562 . S
O60 C42 1.254 . S
O61 Pr40 2.490 . S
O61 C42 1.225 . S
O62 Pr40 2.695 . S
O62 Pr41 2.436 1_545 S
O62 C49 1.270 . S
O63 Pr40 2.512 . S
O63 C49 1.248 . S
O64 Pr41 2.438 1_545 S
O64 C50 1.267 . S
O65 Pr40 2.437 . S
O65 C50 1.278 . S
O66 Pr41 2.562 . S
O66 C51 1.254 . S
O67 Pr41 2.490 . S
O67 C51 1.225 . S
O68 Pr40 2.436 . S
O68 Pr41 2.695 1_545 S
O68 C58 1.270 . S
O69 Pr41 2.512 . S
O69 C58 1.248 1_565 S
O70 Pr40 2.438 1_565 S
O70 C59 1.267 . S
O71 Pr41 2.437 . S
O71 C59 1.278 . S
H72 C44 0.929 . S
H73 C45 0.929 . S
H74 C47 0.931 . S
H75 C48 0.930 . S
H76 C53 0.929 . S
H77 C54 0.929 . S
H78 C56 0.931 . S
H79 C57 0.930 . S
Pr80 C82 2.880 . S
Pr80 O100 2.562 . S
Pr80 O101 2.490 . S
Pr80 O102 2.695 . S
Pr80 O103 2.512 . S
Pr80 O105 2.437 . S
Pr80 O108 2.436 . S
Pr80 O110 2.438 . S
Pr81 C91 2.880 . S
Pr81 O102 2.436 . S
Pr81 O104 2.438 . S
Pr81 O106 2.562 . S
Pr81 O107 2.490 . S
Pr81 O108 2.695 . S
Pr81 O109 2.512 . S
Pr81 O111 2.437 . S
C82 Pr80 2.880 . S
C82 C83 1.491 . S
C82 O100 1.254 . S
C82 O101 1.225 . S
C83 C82 1.491 . S
C83 C84 1.392 . S
C83 C88 1.356 . S
C84 C83 1.392 . S
C84 C85 1.368 . S
C84 H112 0.929 . S
C85 C84 1.368 . S
C85 C86 1.386 . S
C85 H113 0.929 . S
C86 C85 1.386 . S
C86 C87 1.373 . S
C87 C86 1.373 . S
C87 C88 1.409 . S
C87 H114 0.931 . S
C88 C83 1.356 . S
C88 C87 1.409 . S
C88 H115 0.930 . S
C89 O102 1.270 . S
C89 O103 1.248 . S
C90 O104 1.267 . S
C90 O105 1.278 . S
C91 Pr81 2.880 . S
C91 C92 1.491 . S
C91 O106 1.254 . S
C91 O107 1.225 . S
C92 C91 1.491 . S
C92 C93 1.392 . S
C92 C97 1.356 . S
C93 C92 1.392 . S
C93 C94 1.368 . S
C93 H116 0.929 . S
C94 C93 1.368 . S
C94 C95 1.386 . S
C94 H117 0.929 . S
C95 C94 1.386 . S
C95 C96 1.373 . S
C96 C95 1.373 . S
C96 C97 1.409 . S
C96 H118 0.931 . S
C97 C92 1.356 . S
C97 C96 1.409 . S
C97 H119 0.930 . S
C98 O108 1.270 . S
C98 O109 1.248 . S
C99 O110 1.267 . S
C99 O111 1.278 . S
O100 Pr80 2.562 . S
O100 C82 1.254 . S
O101 Pr80 2.490 . S
O101 C82 1.225 . S
O102 Pr80 2.695 . S
O102 Pr81 2.436 . S
O102 C89 1.270 . S
O103 Pr80 2.512 . S
O103 C89 1.248 . S
O104 Pr81 2.438 . S
O104 C90 1.267 . S
O105 Pr80 2.437 . S
O105 C90 1.278 . S
O106 Pr81 2.562 . S
O106 C91 1.254 . S
O107 Pr81 2.490 . S
O107 C91 1.225 . S
O108 Pr80 2.436 . S
O108 Pr81 2.695 . S
O108 C98 1.270 . S
O109 Pr81 2.512 . S
O109 C98 1.248 . S
O110 Pr80 2.438 . S
O110 C99 1.267 . S
O111 Pr81 2.437 . S
O111 C99 1.278 . S
H112 C84 0.929 . S
H113 C85 0.929 . S
H114 C87 0.931 . S
H115 C88 0.930 . S
H116 C93 0.929 . S
H117 C94 0.929 . S
H118 C96 0.931 . S
H119 C97 0.930 . S
C120 C121 1.264 . S
C120 C125 1.479 . S
C120 C130 1.465 . S
C121 C120 1.264 . S
C121 C123 1.339 . S
C121 H148 0.931 . S
C122 C123 1.395 . S
C122 C124 1.320 . S
C123 C121 1.339 . S
C123 C122 1.395 . S
C123 H149 0.929 . S
C124 C122 1.320 . S
C124 C125 1.405 . S
C124 H150 0.930 . S
C125 C120 1.479 . S
C125 C124 1.405 . S
C125 H151 0.931 . S
U126 O127 2.454 . S
U126 O128 2.458 1_545 S
U126 C129 2.984 1_545 S
U126 C130 2.847 . S
U126 C143 2.882 . S
U126 O144 2.441 . S
U126 O145 2.420 . S
U126 O146 2.455 . S
U126 O147 2.449 . S
O127 U126 2.454 . S
O127 C129 1.353 1_545 S
O128 U126 2.458 1_565 S
O128 C129 1.286 . S
C129 U126 2.984 1_565 S
C129 O127 1.353 1_565 S
C129 O128 1.286 . S
C129 C131 1.363 . S
C130 C120 1.465 . S
C130 U126 2.847 . S
C130 O144 1.249 . S
C130 O145 1.202 . S
C131 C129 1.363 . S
C131 C133 1.408 . S
C131 C136 1.342 . S
C132 C133 1.310 . S
C132 C135 1.461 . S
C132 H152 0.932 . S
C133 C131 1.408 . S
C133 C132 1.310 . S
C133 H153 0.930 . S
C134 C135 1.474 . S
C134 C136 1.285 . S
C134 H154 0.929 . S
C135 C132 1.461 . S
C135 C134 1.474 . S
C136 C131 1.342 . S
C136 C134 1.285 . S
C136 H155 0.930 . S
C137 C140 1.424 . S
C137 C142 1.245 . S
C137 C143 1.428 . S
C138 C141 1.260 . S
C138 C142 1.477 . S
C138 H156 0.932 1_545 S
C139 C140 1.384 . S
C139 C141 1.479 . S
C139 H157 0.929 . S
C140 C137 1.424 . S
C140 C139 1.384 . S
C140 H158 0.928 . S
C141 C138 1.260 . S
C141 C139 1.479 . S
C142 C137 1.245 . S
C142 C138 1.477 . S
C142 H159 0.932 1_545 S
C143 U126 2.882 . S
C143 C137 1.428 . S
C143 O146 1.301 . S
C143 O147 1.282 . S
O144 U126 2.441 . S
O144 C130 1.249 . S
O145 U126 2.420 . S
O145 C130 1.202 . S
O146 U126 2.455 . S
O146 C143 1.301 . S
O147 U126 2.449 . S
O147 C143 1.282 . S
H148 C121 0.931 . S
H149 C123 0.929 . S
H150 C124 0.930 . S
H151 C125 0.931 . S
H152 C132 0.932 . S
H153 C133 0.930 . S
H154 C134 0.929 . S
H155 C136 0.930 . S
H156 C138 0.932 1_565 S
H157 C139 0.929 . S
H158 C140 0.928 . S
H159 C142 0.932 1_565 S
C160 C161 1.264 . S
C160 C165 1.479 . S
C160 C170 1.465 . S
C161 C160 1.264 . S
C161 C163 1.339 . S
C161 H188 0.931 . S
C162 C163 1.395 . S
C162 C164 1.320 . S
C163 C161 1.339 . S
C163 C162 1.395 . S
C163 H189 0.929 . S
C164 C162 1.320 . S
C164 C165 1.405 . S
C164 H190 0.930 . S
C165 C160 1.479 . S
C165 C164 1.405 . S
C165 H191 0.931 . S
U166 O167 2.454 . S
U166 O168 2.458 . S
U166 C169 2.984 . S
U166 C170 2.847 . S
U166 C183 2.882 . S
U166 O184 2.441 . S
U166 O185 2.420 . S
U166 O186 2.455 . S
U166 O187 2.449 . S
O167 U166 2.454 . S
O167 C169 1.353 . S
O168 U166 2.458 . S
O168 C169 1.286 . S
C169 U166 2.984 . S
C169 O167 1.353 . S
C169 O168 1.286 . S
C169 C171 1.363 . S
C170 C160 1.465 . S
C170 U166 2.847 . S
C170 O184 1.249 . S
C170 O185 1.202 . S
C171 C169 1.363 . S
C171 C173 1.408 . S
C171 C176 1.342 . S
C172 C173 1.310 . S
C172 C175 1.461 . S
C172 H192 0.932 . S
C173 C171 1.408 . S
C173 C172 1.310 . S
C173 H193 0.930 . S
C174 C175 1.474 . S
C174 C176 1.285 . S
C174 H194 0.929 . S
C175 C172 1.461 . S
C175 C174 1.474 . S
C176 C171 1.342 . S
C176 C174 1.285 . S
C176 H195 0.930 . S
C177 C180 1.424 . S
C177 C182 1.245 . S
C177 C183 1.428 . S
C178 C181 1.260 . S
C178 C182 1.477 . S
C178 H196 0.932 . S
C179 C180 1.384 . S
C179 C181 1.479 . S
C179 H197 0.929 . S
C180 C177 1.424 . S
C180 C179 1.384 . S
C180 H198 0.928 . S
C181 C178 1.260 . S
C181 C179 1.479 . S
C182 C177 1.245 . S
C182 C178 1.477 . S
C182 H199 0.932 . S
C183 U166 2.882 . S
C183 C177 1.428 . S
C183 O186 1.301 . S
C183 O187 1.282 . S
O184 U166 2.441 . S
O184 C170 1.249 . S
O185 U166 2.420 . S
O185 C170 1.202 . S
O186 U166 2.455 . S
O186 C183 1.301 . S
O187 U166 2.449 . S
O187 C183 1.282 . S
H188 C161 0.931 . S
H189 C163 0.929 . S
H190 C164 0.930 . S
H191 C165 0.931 . S
H192 C172 0.932 . S
H193 C173 0.930 . S
H194 C174 0.929 . S
H195 C176 0.930 . S
H196 C178 0.932 . S
H197 C179 0.929 . S
H198 C180 0.928 . S
H199 C182 0.932 . S
C200 C201 1.264 . S
C200 C205 1.479 . S
C200 C210 1.465 . S
C201 C200 1.264 . S
C201 C203 1.339 . S
C201 H228 0.931 . S
C202 C203 1.395 . S
C202 C204 1.320 . S
C203 C201 1.339 . S
C203 C202 1.395 . S
C203 H229 0.929 . S
C204 C202 1.320 . S
C204 C205 1.405 . S
C204 H230 0.930 . S
C205 C200 1.479 . S
C205 C204 1.405 . S
C205 H231 0.931 . S
U206 O207 2.454 . S
U206 O208 2.458 . S
U206 C209 2.984 . S
U206 C210 2.847 1_455 S
U206 C223 2.882 . S
U206 O224 2.441 1_455 S
U206 O225 2.420 1_455 S
U206 O226 2.455 . S
U206 O227 2.449 1_455 S
O207 U206 2.454 . S
O207 C209 1.353 . S
O208 U206 2.458 . S
O208 C209 1.286 . S
C209 U206 2.984 . S
C209 O207 1.353 . S
C209 O208 1.286 . S
C209 C211 1.363 . S
C210 C200 1.465 . S
C210 U206 2.847 1_655 S
C210 O224 1.249 . S
C210 O225 1.202 . S
C211 C209 1.363 . S
C211 C213 1.408 . S
C211 C216 1.342 . S
C212 C213 1.310 . S
C212 C215 1.461 . S
C212 H232 0.932 . S
C213 C211 1.408 . S
C213 C212 1.310 . S
C213 H233 0.930 . S
C214 C215 1.474 . S
C214 C216 1.285 . S
C214 H234 0.929 . S
C215 C212 1.461 . S
C215 C214 1.474 . S
C216 C211 1.342 . S
C216 C214 1.285 . S
C216 H235 0.930 . S
C217 C220 1.424 1_455 S
C217 C222 1.245 . S
C217 C223 1.428 . S
C218 C221 1.260 . S
C218 C222 1.477 . S
C218 H236 0.932 . S
C219 C220 1.384 . S
C219 C221 1.479 1_655 S
C219 H237 0.929 . S
C220 C217 1.424 1_655 S
C220 C219 1.384 . S
C220 H238 0.928 . S
C221 C218 1.260 . S
C221 C219 1.479 1_455 S
C222 C217 1.245 . S
C222 C218 1.477 . S
C222 H239 0.932 . S
C223 U206 2.882 . S
C223 C217 1.428 . S
C223 O226 1.301 . S
C223 O227 1.282 1_455 S
O224 U206 2.441 1_655 S
O224 C210 1.249 . S
O225 U206 2.420 1_655 S
O225 C210 1.202 . S
O226 U206 2.455 . S
O226 C223 1.301 . S
O227 U206 2.449 1_655 S
O227 C223 1.282 1_655 S
H228 C201 0.931 . S
H229 C203 0.929 . S
H230 C204 0.930 . S
H231 C205 0.931 . S
H232 C212 0.932 . S
H233 C213 0.930 . S
H234 C214 0.929 . S
H235 C216 0.930 . S
H236 C218 0.932 . S
H237 C219 0.929 . S
H238 C220 0.928 . S
H239 C222 0.932 . S
C240 C241 1.264 . S
C240 C245 1.479 . S
C240 C250 1.465 . S
C241 C240 1.264 . S
C241 C243 1.339 . S
C241 H268 0.931 . S
C242 C243 1.395 . S
C242 C244 1.320 . S
C243 C241 1.339 . S
C243 C242 1.395 . S
C243 H269 0.929 . S
C244 C242 1.320 . S
C244 C245 1.405 . S
C244 H270 0.930 . S
C245 C240 1.479 . S
C245 C244 1.405 . S
C245 H271 0.931 . S
U246 O247 2.454 1_655 S
U246 O248 2.458 1_655 S
U246 C249 2.984 1_655 S
U246 C250 2.847 . S
U246 C263 2.882 . S
U246 O264 2.441 . S
U246 O265 2.420 . S
U246 O266 2.455 1_655 S
U246 O267 2.449 . S
O247 U246 2.454 1_455 S
O247 C249 1.353 . S
O248 U246 2.458 1_455 S
O248 C249 1.286 . S
C249 U246 2.984 1_455 S
C249 O247 1.353 . S
C249 O248 1.286 . S
C249 C251 1.363 . S
C250 C240 1.465 . S
C250 U246 2.847 . S
C250 O264 1.249 . S
C250 O265 1.202 . S
C251 C249 1.363 . S
C251 C253 1.408 . S
C251 C256 1.342 . S
C252 C253 1.310 . S
C252 C255 1.461 . S
C252 H272 0.932 . S
C253 C251 1.408 . S
C253 C252 1.310 . S
C253 H273 0.930 . S
C254 C255 1.474 . S
C254 C256 1.285 . S
C254 H274 0.929 . S
C255 C252 1.461 . S
C255 C254 1.474 . S
C256 C251 1.342 . S
C256 C254 1.285 . S
C256 H275 0.930 . S
C257 C260 1.424 . S
C257 C262 1.245 1_655 S
C257 C263 1.428 . S
C258 C261 1.260 1_455 S
C258 C262 1.477 . S
C258 H276 0.932 . S
C259 C260 1.384 . S
C259 C261 1.479 . S
C259 H277 0.929 . S
C260 C257 1.424 . S
C260 C259 1.384 . S
C260 H278 0.928 . S
C261 C258 1.260 1_655 S
C261 C259 1.479 . S
C262 C257 1.245 1_455 S
C262 C258 1.477 . S
C262 H279 0.932 . S
C263 U246 2.882 . S
C263 C257 1.428 . S
C263 O266 1.301 1_655 S
C263 O267 1.282 . S
O264 U246 2.441 . S
O264 C250 1.249 . S
O265 U246 2.420 . S
O265 C250 1.202 . S
O266 U246 2.455 1_455 S
O266 C263 1.301 1_455 S
O267 U246 2.449 . S
O267 C263 1.282 . S
H268 C241 0.931 . S
H269 C243 0.929 . S
H270 C244 0.930 . S
H271 C245 0.931 . S
H272 C252 0.932 . S
H273 C253 0.930 . S
H274 C254 0.929 . S
H275 C256 0.930 . S
H276 C258 0.932 . S
H277 C259 0.929 . S
H278 C260 0.928 . S
H279 C262 0.932 . S
C280 C281 1.264 . S
C280 C285 1.479 . S
C280 C290 1.465 . S
C281 C280 1.264 . S
C281 C283 1.339 . S
C281 H308 0.931 . S
C282 C283 1.395 . S
C282 C284 1.320 . S
C283 C281 1.339 . S
C283 C282 1.395 . S
C283 H309 0.929 . S
C284 C282 1.320 . S
C284 C285 1.405 . S
C284 H310 0.930 . S
C285 C280 1.479 . S
C285 C284 1.405 . S
C285 H311 0.931 . S
U286 O287 2.448 1_565 S
U286 O288 2.447 1_565 S
U286 C289 2.975 1_565 S
U286 C290 2.856 . S
U286 C303 2.882 . S
U286 O304 2.447 . S
U286 O305 2.431 . S
U286 O306 2.450 1_565 S
U286 O307 2.454 . S
O287 U286 2.448 1_545 S
O287 C289 1.353 . S
O288 U286 2.447 1_545 S
O288 C289 1.286 . S
C289 U286 2.975 1_545 S
C289 O287 1.353 . S
C289 O288 1.286 . S
C289 C291 1.363 . S
C290 C280 1.465 . S
C290 U286 2.856 . S
C290 O304 1.249 . S
C290 O305 1.202 . S
C291 C289 1.363 . S
C291 C293 1.408 . S
C291 C296 1.342 . S
C292 C293 1.310 . S
C292 C295 1.461 . S
C292 H312 0.932 . S
C293 C291 1.408 . S
C293 C292 1.310 . S
C293 H313 0.930 . S
C294 C295 1.474 . S
C294 C296 1.285 . S
C294 H314 0.929 . S
C295 C292 1.461 . S
C295 C294 1.474 . S
C296 C291 1.342 . S
C296 C294 1.285 . S
C296 H315 0.930 . S
C297 C300 1.424 1_545 S
C297 C302 1.245 . S
C297 C303 1.428 1_545 S
C298 C301 1.260 . S
C298 C302 1.477 . S
C298 H316 0.932 . S
C299 C300 1.384 . S
C299 C301 1.479 1_565 S
C299 H317 0.929 . S
C300 C297 1.424 1_565 S
C300 C299 1.384 . S
C300 H318 0.928 . S
C301 C298 1.260 . S
C301 C299 1.479 1_545 S
C302 C297 1.245 . S
C302 C298 1.477 . S
C302 H319 0.932 . S
C303 U286 2.882 . S
C303 C297 1.428 1_565 S
C303 O306 1.272 1_565 S
C303 O307 1.311 . S
O304 U286 2.447 . S
O304 C290 1.249 . S
O305 U286 2.431 . S
O305 C290 1.202 . S
O306 U286 2.450 1_545 S
O306 C303 1.272 1_545 S
O307 U286 2.454 . S
O307 C303 1.311 . S
H308 C281 0.931 . S
H309 C283 0.929 . S
H310 C284 0.930 . S
H311 C285 0.931 . S
H312 C292 0.932 . S
H313 C293 0.930 . S
H314 C294 0.929 . S
H315 C296 0.930 . S
H316 C298 0.932 . S
H317 C299 0.929 . S
H318 C300 0.928 . S
H319 C302 0.932 . S
C320 C321 1.264 . S
C320 C325 1.479 . S
C320 C330 1.465 . S
C321 C320 1.264 . S
C321 C323 1.339 . S
C321 H348 0.931 . S
C322 C323 1.395 . S
C322 C324 1.320 . S
C323 C321 1.339 . S
C323 C322 1.395 . S
C323 H349 0.929 . S
C324 C322 1.320 . S
C324 C325 1.405 . S
C324 H350 0.930 . S
C325 C320 1.479 . S
C325 C324 1.405 . S
C325 H351 0.931 . S
U326 O327 2.454 . S
U326 O328 2.458 . S
U326 C329 2.984 . S
U326 C330 2.847 . S
U326 C343 2.882 . S
U326 O344 2.441 . S
U326 O345 2.420 . S
U326 O346 2.455 . S
U326 O347 2.449 . S
O327 U326 2.454 . S
O327 C329 1.353 . S
O328 U326 2.458 . S
O328 C329 1.286 . S
C329 U326 2.984 . S
C329 O327 1.353 . S
C329 O328 1.286 . S
C329 C331 1.363 . S
C330 C320 1.465 . S
C330 U326 2.847 . S
C330 O344 1.249 . S
C330 O345 1.202 . S
C331 C329 1.363 . S
C331 C333 1.408 . S
C331 C336 1.342 . S
C332 C333 1.310 . S
C332 C335 1.461 . S
C332 H352 0.932 . S
C333 C331 1.408 . S
C333 C332 1.310 . S
C333 H353 0.930 . S
C334 C335 1.474 . S
C334 C336 1.285 . S
C334 H354 0.929 . S
C335 C332 1.461 . S
C335 C334 1.474 . S
C336 C331 1.342 . S
C336 C334 1.285 . S
C336 H355 0.930 . S
C337 C340 1.424 . S
C337 C342 1.245 . S
C337 C343 1.428 . S
C338 C341 1.260 . S
C338 C342 1.477 . S
C338 H356 0.932 . S
C339 C340 1.384 . S
C339 C341 1.479 . S
C339 H357 0.929 . S
C340 C337 1.424 . S
C340 C339 1.384 . S
C340 H358 0.928 . S
C341 C338 1.260 . S
C341 C339 1.479 . S
C342 C337 1.245 . S
C342 C338 1.477 . S
C342 H359 0.932 . S
C343 U326 2.882 . S
C343 C337 1.428 . S
C343 O346 1.301 . S
C343 O347 1.282 . S
O344 U326 2.441 . S
O344 C330 1.249 . S
O345 U326 2.420 . S
O345 C330 1.202 . S
O346 U326 2.455 . S
O346 C343 1.301 . S
O347 U326 2.449 . S
O347 C343 1.282 . S
H348 C321 0.931 . S
H349 C323 0.929 . S
H350 C324 0.930 . S
H351 C325 0.931 . S
H352 C332 0.932 . S
H353 C333 0.930 . S
H354 C334 0.929 . S
H355 C336 0.930 . S
H356 C338 0.932 . S
H357 C339 0.929 . S
H358 C340 0.928 . S
H359 C342 0.932 . S
H360 C372 0.930 . S
H361 C374 0.930 . S
H362 C375 0.930 . S
H363 C379 0.959 . S
H364 C379 0.959 . S
H365 C379 0.961 . S
H366 C380 0.960 . S
H367 C380 0.961 . S
H368 C380 0.959 . S
H369 C383 0.929 . S
H370 C384 0.931 . S
H371 C386 0.930 . S
C372 H360 0.930 . S
C372 C373 1.399 . S
C372 C377 1.399 . S
C373 C372 1.399 . S
C373 C374 1.376 . S
C374 H361 0.930 . S
C374 C373 1.376 . S
C374 C375 1.388 . S
C375 H362 0.930 . S
C375 C374 1.388 . S
C375 C376 1.390 . S
C376 C375 1.390 . S
C376 C377 1.394 . S
C376 C382 1.465 . S
C377 C372 1.399 . S
C377 C376 1.394 . S
C377 C378 1.516 . S
C378 C377 1.516 . S
C378 C379 1.502 . S
C378 C380 1.561 . S
C378 C381 1.526 . S
C379 H363 0.959 . S
C379 H364 0.959 . S
C379 H365 0.961 . S
C379 C378 1.502 . S
C380 H366 0.960 . S
C380 H367 0.961 . S
C380 H368 0.959 . S
C380 C378 1.561 . S
C381 C378 1.526 . S
C381 C382 1.396 . S
C381 C386 1.390 . S
C382 C376 1.465 . S
C382 C381 1.396 . S
C382 C383 1.399 . S
C383 H369 0.929 . S
C383 C382 1.399 . S
C383 C384 1.385 . S
C384 H370 0.931 . S
C384 C383 1.385 . S
C384 C385 1.389 . S
C385 C384 1.389 . S
C385 C386 1.387 . S
C386 H371 0.930 . S
C386 C381 1.390 . S
C386 C385 1.387 . S
H387 C399 0.930 . S
H388 C401 0.930 . S
H389 C402 0.930 . S
H390 C406 0.959 . S
H391 C406 0.959 . S
H392 C406 0.961 . S
H393 C407 0.960 . S
H394 C407 0.961 . S
H395 C407 0.959 . S
H396 C410 0.929 . S
H397 C411 0.931 . S
H398 C413 0.930 . S
C399 H387 0.930 . S
C399 C400 1.399 . S
C399 C404 1.399 . S
C400 C399 1.399 . S
C400 C401 1.376 . S
C401 H388 0.930 . S
C401 C400 1.376 . S
C401 C402 1.388 . S
C402 H389 0.930 . S
C402 C401 1.388 . S
C402 C403 1.390 . S
C403 C402 1.390 . S
C403 C404 1.394 . S
C403 C409 1.465 . S
C404 C399 1.399 . S
C404 C403 1.394 . S
C404 C405 1.516 . S
C405 C404 1.516 . S
C405 C406 1.502 . S
C405 C407 1.561 . S
C405 C408 1.526 . S
C406 H390 0.959 . S
C406 H391 0.959 . S
C406 H392 0.961 . S
C406 C405 1.502 . S
C407 H393 0.960 . S
C407 H394 0.961 . S
C407 H395 0.959 . S
C407 C405 1.561 . S
C408 C405 1.526 . S
C408 C409 1.396 . S
C408 C413 1.390 . S
C409 C403 1.465 . S
C409 C408 1.396 . S
C409 C410 1.399 . S
C410 H396 0.929 . S
C410 C409 1.399 . S
C410 C411 1.385 . S
C411 H397 0.931 . S
C411 C410 1.385 . S
C411 C412 1.389 . S
C412 C411 1.389 . S
C412 C413 1.387 . S
C413 H398 0.930 . S
C413 C408 1.390 . S
C413 C412 1.387 . S
H414 C426 0.930 . S
H415 C428 0.930 . S
H416 C429 0.930 . S
H417 C433 0.959 . S
H418 C433 0.959 . S
H419 C433 0.961 . S
H420 C434 0.960 . S
H421 C434 0.961 . S
H422 C434 0.959 . S
H423 C437 0.929 . S
H424 C438 0.931 . S
H425 C440 0.930 . S
C426 H414 0.930 . S
C426 C427 1.399 . S
C426 C431 1.399 . S
C427 C426 1.399 . S
C427 C428 1.376 . S
C428 H415 0.930 . S
C428 C427 1.376 . S
C428 C429 1.388 . S
C429 H416 0.930 . S
C429 C428 1.388 . S
C429 C430 1.390 . S
C430 C429 1.390 . S
C430 C431 1.394 . S
C430 C436 1.465 . S
C431 C426 1.399 . S
C431 C430 1.394 . S
C431 C432 1.516 . S
C432 C431 1.516 . S
C432 C433 1.502 . S
C432 C434 1.561 . S
C432 C435 1.526 . S
C433 H417 0.959 . S
C433 H418 0.959 . S
C433 H419 0.961 . S
C433 C432 1.502 . S
C434 H420 0.960 . S
C434 H421 0.961 . S
C434 H422 0.959 . S
C434 C432 1.561 . S
C435 C432 1.526 . S
C435 C436 1.396 . S
C435 C440 1.390 . S
C436 C430 1.465 . S
C436 C435 1.396 . S
C436 C437 1.399 . S
C437 H423 0.929 . S
C437 C436 1.399 . S
C437 C438 1.385 . S
C438 H424 0.931 . S
C438 C437 1.385 . S
C438 C439 1.389 . S
C439 C438 1.389 . S
C439 C440 1.387 . S
C440 H425 0.930 . S
C440 C435 1.390 . S
C440 C439 1.387 . S
H441 C453 0.930 . S
H442 C455 0.930 . S
H443 C456 0.930 . S
H444 C460 0.959 . S
H445 C460 0.959 . S
H446 C460 0.961 . S
H447 C461 0.960 . S
H448 C461 0.961 . S
H449 C461 0.959 . S
H450 C464 0.929 . S
H451 C465 0.931 . S
H452 C467 0.930 . S
C453 H441 0.930 . S
C453 C454 1.399 . S
C453 C458 1.399 . S
C454 C453 1.399 . S
C454 C455 1.376 . S
C455 H442 0.930 . S
C455 C454 1.376 . S
C455 C456 1.388 . S
C456 H443 0.930 . S
C456 C455 1.388 . S
C456 C457 1.390 . S
C457 C456 1.390 . S
C457 C458 1.394 . S
C457 C463 1.465 . S
C458 C453 1.399 . S
C458 C457 1.394 . S
C458 C459 1.516 . S
C459 C458 1.516 . S
C459 C460 1.502 . S
C459 C461 1.561 . S
C459 C462 1.526 . S
C460 H444 0.959 . S
C460 H445 0.959 . S
C460 H446 0.961 . S
C460 C459 1.502 . S
C461 H447 0.960 . S
C461 H448 0.961 . S
C461 H449 0.959 . S
C461 C459 1.561 . S
C462 C459 1.526 . S
C462 C463 1.396 . S
C462 C467 1.390 . S
C463 C457 1.465 . S
C463 C462 1.396 . S
C463 C464 1.399 . S
C464 H450 0.929 . S
C464 C463 1.399 . S
C464 C465 1.385 . S
C465 H451 0.931 . S
C465 C464 1.385 . S
C465 C466 1.389 . S
C466 C465 1.389 . S
C466 C467 1.387 . S
C467 H452 0.930 . S
C467 C462 1.390 . S
C467 C466 1.387 . S
H468 C480 0.930 . S
H469 C482 0.930 . S
H470 C483 0.930 . S
H471 C487 0.959 . S
H472 C487 0.959 . S
H473 C487 0.961 . S
H474 C488 0.960 . S
H475 C488 0.961 . S
H476 C488 0.959 . S
H477 C491 0.929 . S
H478 C492 0.931 . S
H479 C494 0.930 . S
C480 H468 0.930 . S
C480 C481 1.399 . S
C480 C485 1.399 . S
C481 C480 1.399 . S
C481 C482 1.376 . S
C482 H469 0.930 . S
C482 C481 1.376 . S
C482 C483 1.388 . S
C483 H470 0.930 . S
C483 C482 1.388 . S
C483 C484 1.390 . S
C484 C483 1.390 . S
C484 C485 1.394 . S
C484 C490 1.465 . S
C485 C480 1.399 . S
C485 C484 1.394 . S
C485 C486 1.516 . S
C486 C485 1.516 . S
C486 C487 1.502 . S
C486 C488 1.561 . S
C486 C489 1.526 . S
C487 H471 0.959 . S
C487 H472 0.959 . S
C487 H473 0.961 . S
C487 C486 1.502 . S
C488 H474 0.960 . S
C488 H475 0.961 . S
C488 H476 0.959 . S
C488 C486 1.561 . S
C489 C486 1.526 . S
C489 C490 1.396 . S
C489 C494 1.390 . S
C490 C484 1.465 . S
C490 C489 1.396 . S
C490 C491 1.399 . S
C491 H477 0.929 . S
C491 C490 1.399 . S
C491 C492 1.385 . S
C492 H478 0.931 . S
C492 C491 1.385 . S
C492 C493 1.389 . S
C493 C492 1.389 . S
C493 C494 1.387 . S
C494 H479 0.930 . S
C494 C489 1.390 . S
C494 C493 1.387 . S
H495 C507 0.930 . S
H496 C509 0.930 . S
H497 C510 0.930 . S
H498 C514 0.959 . S
H499 C514 0.959 . S
H500 C514 0.961 . S
H501 C515 0.960 . S
H502 C515 0.961 . S
H503 C515 0.959 . S
H504 C518 0.929 . S
H505 C519 0.931 . S
H506 C521 0.930 . S
C507 H495 0.930 . S
C507 C508 1.399 . S
C507 C512 1.399 . S
C508 C507 1.399 . S
C508 C509 1.376 . S
C509 H496 0.930 . S
C509 C508 1.376 . S
C509 C510 1.388 . S
C510 H497 0.930 . S
C510 C509 1.388 . S
C510 C511 1.390 . S
C511 C510 1.390 . S
C511 C512 1.394 . S
C511 C517 1.465 . S
C512 C507 1.399 . S
C512 C511 1.394 . S
C512 C513 1.516 . S
C513 C512 1.516 . S
C513 C514 1.502 . S
C513 C515 1.561 . S
C513 C516 1.526 . S
C514 H498 0.959 . S
C514 H499 0.959 . S
C514 H500 0.961 . S
C514 C513 1.502 . S
C515 H501 0.960 . S
C515 H502 0.961 . S
C515 H503 0.959 . S
C515 C513 1.561 . S
C516 C513 1.526 . S
C516 C517 1.396 . S
C516 C521 1.390 . S
C517 C511 1.465 . S
C517 C516 1.396 . S
C517 C518 1.399 . S
C518 H504 0.929 . S
C518 C517 1.399 . S
C518 C519 1.385 . S
C519 H505 0.931 . S
C519 C518 1.385 . S
C519 C520 1.389 . S
C520 C519 1.389 . S
C520 C521 1.387 . S
C521 H506 0.930 . S
C521 C516 1.390 . S
C521 C520 1.387 . S
H522 C534 0.930 . S
H523 C536 0.930 . S
H524 C537 0.930 . S
H525 C541 0.959 . S
H526 C541 0.959 . S
H527 C541 0.961 . S
H528 C542 0.960 . S
H529 C542 0.961 . S
H530 C542 0.959 . S
H531 C545 0.929 . S
H532 C546 0.931 . S
H533 C548 0.930 . S
C534 H522 0.930 . S
C534 C535 1.399 . S
C534 C539 1.399 . S
C535 C534 1.399 . S
C535 C536 1.376 . S
C536 H523 0.930 . S
C536 C535 1.376 . S
C536 C537 1.388 . S
C537 H524 0.930 . S
C537 C536 1.388 . S
C537 C538 1.390 . S
C538 C537 1.390 . S
C538 C539 1.394 . S
C538 C544 1.465 . S
C539 C534 1.399 . S
C539 C538 1.394 . S
C539 C540 1.516 . S
C540 C539 1.516 . S
C540 C541 1.502 . S
C540 C542 1.561 . S
C540 C543 1.526 . S
C541 H525 0.959 . S
C541 H526 0.959 . S
C541 H527 0.961 . S
C541 C540 1.502 . S
C542 H528 0.960 . S
C542 H529 0.961 . S
C542 H530 0.959 . S
C542 C540 1.561 . S
C543 C540 1.526 . S
C543 C544 1.396 . S
C543 C548 1.390 . S
C544 C538 1.465 . S
C544 C543 1.396 . S
C544 C545 1.399 . S
C545 H531 0.929 . S
C545 C544 1.399 . S
C545 C546 1.385 . S
C546 H532 0.931 . S
C546 C545 1.385 . S
C546 C547 1.389 . S
C547 C546 1.389 . S
C547 C548 1.387 . S
C548 H533 0.930 . S
C548 C543 1.390 . S
C548 C547 1.387 . S
H549 C561 0.930 . S
H550 C563 0.930 . S
H551 C564 0.930 . S
H552 C568 0.959 . S
H553 C568 0.959 . S
H554 C568 0.961 . S
H555 C569 0.960 . S
H556 C569 0.961 . S
H557 C569 0.959 . S
H558 C572 0.929 . S
H559 C573 0.931 . S
H560 C575 0.930 . S
C561 H549 0.930 . S
C561 C562 1.399 . S
C561 C566 1.399 . S
C562 C561 1.399 . S
C562 C563 1.376 . S
C563 H550 0.930 . S
C563 C562 1.376 . S
C563 C564 1.388 . S
C564 H551 0.930 . S
C564 C563 1.388 . S
C564 C565 1.390 . S
C565 C564 1.390 . S
C565 C566 1.394 . S
C565 C571 1.465 . S
C566 C561 1.399 . S
C566 C565 1.394 . S
C566 C567 1.516 . S
C567 C566 1.516 . S
C567 C568 1.502 . S
C567 C569 1.561 . S
C567 C570 1.526 . S
C568 H552 0.959 . S
C568 H553 0.959 . S
C568 H554 0.961 . S
C568 C567 1.502 . S
C569 H555 0.960 . S
C569 H556 0.961 . S
C569 H557 0.959 . S
C569 C567 1.561 . S
C570 C567 1.526 . S
C570 C571 1.396 . S
C570 C575 1.390 . S
C571 C565 1.465 . S
C571 C570 1.396 . S
C571 C572 1.399 . S
C572 H558 0.929 . S
C572 C571 1.399 . S
C572 C573 1.385 . S
C573 H559 0.931 . S
C573 C572 1.385 . S
C573 C574 1.389 . S
C574 C573 1.389 . S
C574 C575 1.387 . S
C575 H560 0.930 . S
C575 C570 1.390 . S
C575 C574 1.387 . S
H576 C588 0.930 . S
H577 C590 0.930 . S
H578 C591 0.930 . S
H579 C595 0.959 . S
H580 C595 0.959 . S
H581 C595 0.961 . S
H582 C596 0.960 . S
H583 C596 0.961 . S
H584 C596 0.959 . S
H585 C599 0.929 . S
H586 C600 0.931 . S
H587 C602 0.930 . S
C588 H576 0.930 . S
C588 C589 1.399 . S
C588 C593 1.399 . S
C589 C588 1.399 . S
C589 C590 1.376 . S
C590 H577 0.930 . S
C590 C589 1.376 . S
C590 C591 1.388 . S
C591 H578 0.930 . S
C591 C590 1.388 . S
C591 C592 1.390 . S
C592 C591 1.390 . S
C592 C593 1.394 . S
C592 C598 1.465 . S
C593 C588 1.399 . S
C593 C592 1.394 . S
C593 C594 1.516 . S
C594 C593 1.516 . S
C594 C595 1.502 . S
C594 C596 1.561 . S
C594 C597 1.526 . S
C595 H579 0.959 . S
C595 H580 0.959 . S
C595 H581 0.961 . S
C595 C594 1.502 . S
C596 H582 0.960 . S
C596 H583 0.961 . S
C596 H584 0.959 . S
C596 C594 1.561 . S
C597 C594 1.526 . S
C597 C598 1.396 . S
C597 C602 1.390 . S
C598 C592 1.465 . S
C598 C597 1.396 . S
C598 C599 1.399 . S
C599 H585 0.929 . S
C599 C598 1.399 . S
C599 C600 1.385 . S
C600 H586 0.931 . S
C600 C599 1.385 . S
C600 C601 1.389 . S
C601 C600 1.389 . S
C601 C602 1.387 . S
C602 H587 0.930 . S
C602 C597 1.390 . S
C602 C601 1.387 . S
H603 C615 0.930 . S
H604 C617 0.930 . S
H605 C618 0.930 . S
H606 C622 0.959 . S
H607 C622 0.959 . S
H608 C622 0.961 . S
H609 C623 0.960 . S
H610 C623 0.961 . S
H611 C623 0.959 . S
H612 C626 0.929 . S
H613 C627 0.931 . S
H614 C629 0.930 . S
C615 H603 0.930 . S
C615 C616 1.399 . S
C615 C620 1.399 . S
C616 C615 1.399 . S
C616 C617 1.376 . S
C617 H604 0.930 . S
C617 C616 1.376 . S
C617 C618 1.388 . S
C618 H605 0.930 . S
C618 C617 1.388 . S
C618 C619 1.390 . S
C619 C618 1.390 . S
C619 C620 1.394 . S
C619 C625 1.465 . S
C620 C615 1.399 . S
C620 C619 1.394 . S
C620 C621 1.516 . S
C621 C620 1.516 . S
C621 C622 1.502 . S
C621 C623 1.561 . S
C621 C624 1.526 . S
C622 H606 0.959 . S
C622 H607 0.959 . S
C622 H608 0.961 . S
C622 C621 1.502 . S
C623 H609 0.960 . S
C623 H610 0.961 . S
C623 H611 0.959 . S
C623 C621 1.561 . S
C624 C621 1.526 . S
C624 C625 1.396 . S
C624 C629 1.390 . S
C625 C619 1.465 . S
C625 C624 1.396 . S
C625 C626 1.399 . S
C626 H612 0.929 . S
C626 C625 1.399 . S
C626 C627 1.385 . S
C627 H613 0.931 . S
C627 C626 1.385 . S
C627 C628 1.389 . S
C628 C627 1.389 . S
C628 C629 1.387 . S
C629 H614 0.930 . S
C629 C624 1.390 . S
C629 C628 1.387 . S
H630 C642 0.930 . S
H631 C644 0.930 . S
H632 C645 0.930 . S
H633 C649 0.959 . S
H634 C649 0.959 . S
H635 C649 0.961 . S
H636 C650 0.960 . S
H637 C650 0.961 . S
H638 C650 0.959 . S
H639 C653 0.929 . S
H640 C654 0.931 . S
H641 C656 0.930 . S
C642 H630 0.930 . S
C642 C643 1.399 . S
C642 C647 1.399 . S
C643 C642 1.399 . S
C643 C644 1.376 . S
C644 H631 0.930 . S
C644 C643 1.376 . S
C644 C645 1.388 . S
C645 H632 0.930 . S
C645 C644 1.388 . S
C645 C646 1.390 . S
C646 C645 1.390 . S
C646 C647 1.394 . S
C646 C652 1.465 . S
C647 C642 1.399 . S
C647 C646 1.394 . S
C647 C648 1.516 . S
C648 C647 1.516 . S
C648 C649 1.502 . S
C648 C650 1.561 . S
C648 C651 1.526 . S
C649 H633 0.959 . S
C649 H634 0.959 . S
C649 H635 0.961 . S
C649 C648 1.502 . S
C650 H636 0.960 . S
C650 H637 0.961 . S
C650 H638 0.959 . S
C650 C648 1.561 . S
C651 C648 1.526 . S
C651 C652 1.396 . S
C651 C656 1.390 . S
C652 C646 1.465 . S
C652 C651 1.396 . S
C652 C653 1.399 . S
C653 H639 0.929 . S
C653 C652 1.399 . S
C653 C654 1.385 . S
C654 H640 0.931 . S
C654 C653 1.385 . S
C654 C655 1.389 . S
C655 C654 1.389 . S
C655 C656 1.387 . S
C656 H641 0.930 . S
C656 C651 1.390 . S
C656 C655 1.387 . S
H657 C669 0.930 . S
H658 C671 0.930 . S
H659 C672 0.930 . S
H660 C676 0.959 . S
H661 C676 0.959 . S
H662 C676 0.961 . S
H663 C677 0.960 . S
H664 C677 0.961 . S
H665 C677 0.959 . S
H666 C680 0.929 . S
H667 C681 0.931 . S
H668 C683 0.930 . S
C669 H657 0.930 . S
C669 C670 1.399 . S
C669 C674 1.399 . S
C670 C669 1.399 . S
C670 C671 1.376 . S
C671 H658 0.930 . S
C671 C670 1.376 . S
C671 C672 1.388 . S
C672 H659 0.930 . S
C672 C671 1.388 . S
C672 C673 1.390 . S
C673 C672 1.390 . S
C673 C674 1.394 . S
C673 C679 1.465 . S
C674 C669 1.399 . S
C674 C673 1.394 . S
C674 C675 1.516 . S
C675 C674 1.516 . S
C675 C676 1.502 . S
C675 C677 1.561 . S
C675 C678 1.526 . S
C676 H660 0.959 . S
C676 H661 0.959 . S
C676 H662 0.961 . S
C676 C675 1.502 . S
C677 H663 0.960 . S
C677 H664 0.961 . S
C677 H665 0.959 . S
C677 C675 1.561 . S
C678 C675 1.526 . S
C678 C679 1.396 . S
C678 C683 1.390 . S
C679 C673 1.465 . S
C679 C678 1.396 . S
C679 C680 1.399 . S
C680 H666 0.929 . S
C680 C679 1.399 . S
C680 C681 1.385 . S
C681 H667 0.931 . S
C681 C680 1.385 . S
C681 C682 1.389 . S
C682 C681 1.389 . S
C682 C683 1.387 . S
C683 H668 0.930 . S
C683 C678 1.390 . S
C683 C682 1.387 . S
H684 C696 0.930 . S
H685 C698 0.930 . S
H686 C699 0.930 . S
H687 C703 0.959 . S
H688 C703 0.959 . S
H689 C703 0.961 . S
H690 C704 0.960 . S
H691 C704 0.961 . S
H692 C704 0.959 . S
H693 C707 0.929 . S
H694 C708 0.931 . S
H695 C710 0.930 . S
C696 H684 0.930 . S
C696 C697 1.399 . S
C696 C701 1.399 . S
C697 C696 1.399 . S
C697 C698 1.376 . S
C698 H685 0.930 . S
C698 C697 1.376 . S
C698 C699 1.388 . S
C699 H686 0.930 . S
C699 C698 1.388 . S
C699 C700 1.390 . S
C700 C699 1.390 . S
C700 C701 1.394 . S
C700 C706 1.465 . S
C701 C696 1.399 . S
C701 C700 1.394 . S
C701 C702 1.516 . S
C702 C701 1.516 . S
C702 C703 1.502 1_455 S
C702 C704 1.561 . S
C702 C705 1.526 . S
C703 H687 0.959 . S
C703 H688 0.959 . S
C703 H689 0.961 . S
C703 C702 1.502 1_655 S
C704 H690 0.960 . S
C704 H691 0.961 . S
C704 H692 0.959 . S
C704 C702 1.561 . S
C705 C702 1.526 . S
C705 C706 1.396 . S
C705 C710 1.390 . S
C706 C700 1.465 . S
C706 C705 1.396 . S
C706 C707 1.399 . S
C707 H693 0.929 . S
C707 C706 1.399 . S
C707 C708 1.385 . S
C708 H694 0.931 . S
C708 C707 1.385 . S
C708 C709 1.389 . S
C709 C708 1.389 . S
C709 C710 1.387 . S
C710 H695 0.930 . S
C710 C705 1.390 . S
C710 C709 1.387 . S
H711 C723 0.930 . S
H712 C725 0.930 . S
H713 C726 0.930 . S
H714 C730 0.959 . S
H715 C730 0.959 . S
H716 C730 0.961 . S
H717 C731 0.960 . S
H718 C731 0.961 . S
H719 C731 0.959 . S
H720 C734 0.929 . S
H721 C735 0.931 . S
H722 C737 0.930 . S
C723 H711 0.930 . S
C723 C724 1.399 . S
C723 C728 1.399 . S
C724 C723 1.399 . S
C724 C725 1.376 1_545 S
C725 H712 0.930 . S
C725 C724 1.376 1_565 S
C725 C726 1.388 . S
C726 H713 0.930 . S
C726 C725 1.388 . S
C726 C727 1.390 1_565 S
C727 C726 1.390 1_545 S
C727 C728 1.394 . S
C727 C733 1.465 . S
C728 C723 1.399 . S
C728 C727 1.394 . S
C728 C729 1.516 . S
C729 C728 1.516 . S
C729 C730 1.502 . S
C729 C731 1.561 . S
C729 C732 1.526 . S
C730 H714 0.959 . S
C730 H715 0.959 . S
C730 H716 0.961 . S
C730 C729 1.502 . S
C731 H717 0.960 . S
C731 H718 0.961 . S
C731 H719 0.959 . S
C731 C729 1.561 . S
C732 C729 1.526 . S
C732 C733 1.396 . S
C732 C737 1.390 . S
C733 C727 1.465 . S
C733 C732 1.396 . S
C733 C734 1.399 1_545 S
C734 H720 0.929 . S
C734 C733 1.399 1_565 S
C734 C735 1.385 . S
C735 H721 0.931 . S
C735 C734 1.385 . S
C735 C736 1.389 1_565 S
C736 C735 1.389 1_545 S
C736 C737 1.387 . S
C737 H722 0.930 . S
C737 C732 1.390 . S
C737 C736 1.387 . S
H738 C750 0.930 . S
H739 C752 0.930 . S
H740 C753 0.930 . S
H741 C757 0.959 . S
H742 C757 0.959 . S
H743 C757 0.961 . S
H744 C758 0.960 . S
H745 C758 0.961 . S
H746 C758 0.959 . S
H747 C761 0.929 . S
H748 C762 0.931 . S
H749 C764 0.930 . S
C750 H738 0.930 . S
C750 C751 1.399 . S
C750 C755 1.399 . S
C751 C750 1.399 . S
C751 C752 1.376 . S
C752 H739 0.930 . S
C752 C751 1.376 . S
C752 C753 1.388 . S
C753 H740 0.930 . S
C753 C752 1.388 . S
C753 C754 1.390 . S
C754 C753 1.390 . S
C754 C755 1.394 . S
C754 C760 1.465 . S
C755 C750 1.399 . S
C755 C754 1.394 . S
C755 C756 1.516 . S
C756 C755 1.516 . S
C756 C757 1.502 . S
C756 C758 1.561 . S
C756 C759 1.526 . S
C757 H741 0.959 . S
C757 H742 0.959 . S
C757 H743 0.961 . S
C757 C756 1.502 . S
C758 H744 0.960 . S
C758 H745 0.961 . S
C758 H746 0.959 . S
C758 C756 1.561 . S
C759 C756 1.526 . S
C759 C760 1.396 . S
C759 C764 1.390 . S
C760 C754 1.465 . S
C760 C759 1.396 . S
C760 C761 1.399 . S
C761 H747 0.929 . S
C761 C760 1.399 . S
C761 C762 1.385 . S
C762 H748 0.931 . S
C762 C761 1.385 . S
C762 C763 1.389 . S
C763 C762 1.389 . S
C763 C764 1.387 . S
C764 H749 0.930 . S
C764 C759 1.390 . S
C764 C763 1.387 . S
H765 C777 0.930 . S
H766 C779 0.930 . S
H767 C780 0.930 . S
H768 C784 0.959 . S
H769 C784 0.959 . S
H770 C784 0.961 . S
H771 C785 0.960 . S
H772 C785 0.961 . S
H773 C785 0.959 . S
H774 C788 0.929 . S
H775 C789 0.931 . S
H776 C791 0.930 . S
C777 H765 0.930 . S
C777 C778 1.399 . S
C777 C782 1.399 . S
C778 C777 1.399 . S
C778 C779 1.376 1_545 S
C779 H766 0.930 . S
C779 C778 1.376 1_565 S
C779 C780 1.388 . S
C780 H767 0.930 . S
C780 C779 1.388 . S
C780 C781 1.390 . S
C781 C780 1.390 . S
C781 C782 1.394 1_565 S
C781 C787 1.465 . S
C782 C777 1.399 . S
C782 C781 1.394 1_545 S
C782 C783 1.516 . S
C783 C782 1.516 . S
C783 C784 1.502 . S
C783 C785 1.561 . S
C783 C786 1.526 . S
C784 H768 0.959 . S
C784 H769 0.959 . S
C784 H770 0.961 . S
C784 C783 1.502 . S
C785 H771 0.960 . S
C785 H772 0.961 . S
C785 H773 0.959 . S
C785 C783 1.561 . S
C786 C783 1.526 . S
C786 C787 1.396 1_545 S
C786 C791 1.390 . S
C787 C781 1.465 . S
C787 C786 1.396 1_565 S
C787 C788 1.399 . S
C788 H774 0.929 . S
C788 C787 1.399 . S
C788 C789 1.385 . S
C789 H775 0.931 . S
C789 C788 1.385 . S
C789 C790 1.389 1_565 S
C790 C789 1.389 1_545 S
C790 C791 1.387 . S
C791 H776 0.930 . S
C791 C786 1.390 . S
C791 C790 1.387 . S
H792 C804 0.930 . S
H793 C806 0.930 . S
H794 C807 0.930 . S
H795 C811 0.959 . S
H796 C811 0.959 . S
H797 C811 0.961 . S
H798 C812 0.960 . S
H799 C812 0.961 . S
H800 C812 0.959 . S
H801 C815 0.929 . S
H802 C816 0.931 . S
H803 C818 0.930 . S
C804 H792 0.930 . S
C804 C805 1.399 . S
C804 C809 1.399 . S
C805 C804 1.399 . S
C805 C806 1.376 . S
C806 H793 0.930 . S
C806 C805 1.376 . S
C806 C807 1.388 . S
C807 H794 0.930 . S
C807 C806 1.388 . S
C807 C808 1.390 . S
C808 C807 1.390 . S
C808 C809 1.394 . S
C808 C814 1.465 . S
C809 C804 1.399 . S
C809 C808 1.394 . S
C809 C810 1.516 . S
C810 C809 1.516 . S
C810 C811 1.502 . S
C810 C812 1.561 . S
C810 C813 1.526 . S
C811 H795 0.959 . S
C811 H796 0.959 . S
C811 H797 0.961 . S
C811 C810 1.502 . S
C812 H798 0.960 . S
C812 H799 0.961 . S
C812 H800 0.959 . S
C812 C810 1.561 . S
C813 C810 1.526 . S
C813 C814 1.396 . S
C813 C818 1.390 . S
C814 C808 1.465 . S
C814 C813 1.396 . S
C814 C815 1.399 . S
C815 H801 0.929 . S
C815 C814 1.399 . S
C815 C816 1.385 . S
C816 H802 0.931 . S
C816 C815 1.385 . S
C816 C817 1.389 . S
C817 C816 1.389 . S
C817 C818 1.387 . S
C818 H803 0.930 . S
C818 C813 1.390 . S
C818 C817 1.387 . S
H819 C831 0.930 . S
H820 C833 0.930 . S
H821 C834 0.930 . S
H822 C838 0.959 . S
H823 C838 0.959 . S
H824 C838 0.961 . S
H825 C839 0.960 . S
H826 C839 0.961 . S
H827 C839 0.959 1_655 S
H828 C842 0.929 . S
H829 C843 0.931 . S
H830 C845 0.930 . S
C831 H819 0.930 . S
C831 C832 1.399 1_455 S
C831 C836 1.399 . S
C832 C831 1.399 1_655 S
C832 C833 1.376 . S
C833 H820 0.930 . S
C833 C832 1.376 . S
C833 C834 1.388 . S
C834 H821 0.930 . S
C834 C833 1.388 . S
C834 C835 1.390 . S
C835 C834 1.390 . S
C835 C836 1.394 1_655 S
C835 C841 1.465 . S
C836 C831 1.399 . S
C836 C835 1.394 1_455 S
C836 C837 1.516 . S
C837 C836 1.516 . S
C837 C838 1.502 . S
C837 C839 1.561 . S
C837 C840 1.526 . S
C838 H822 0.959 . S
C838 H823 0.959 . S
C838 H824 0.961 . S
C838 C837 1.502 . S
C839 H825 0.960 . S
C839 H826 0.961 . S
C839 H827 0.959 1_455 S
C839 C837 1.561 . S
C840 C837 1.526 . S
C840 C841 1.396 1_455 S
C840 C845 1.390 . S
C841 C835 1.465 . S
C841 C840 1.396 1_655 S
C841 C842 1.399 . S
C842 H828 0.929 . S
C842 C841 1.399 . S
C842 C843 1.385 . S
C843 H829 0.931 . S
C843 C842 1.385 . S
C843 C844 1.389 . S
C844 C843 1.389 . S
C844 C845 1.387 1_655 S
C845 H830 0.930 . S
C845 C840 1.390 . S
C845 C844 1.387 1_455 S
C373 C19 1.992 . S
C385 C335 1.912 . S
C400 C46 1.215 . S
C412 C242 1.219 . S
C427 C95 0.249 . S
C439 C282 0.351 . S
C454 C10 2.094 . S
C466 C322 2.019 . S
C493 C255 1.301 . S
C481 C55 1.307 . S
C520 C295 0.551 . S
C508 C86 0.510 . S
C535 C59 3.152 . S
C547 C162 3.107 . S
C562 C90 2.101 . S
C574 C202 2.083 . S
C589 C15 1.315 . S
C601 C135 1.311 . S
C628 C175 3.036 . S
C616 C50 3.079 . S
C655 C215 1.966 . S
C643 C99 1.982 . S
C670 C6 1.222 . S
C682 C122 1.189 . S
C709 C221 1.347 1_554 S
C697 C9 1.299 . S
C724 C58 1.464 . S
C736 C141 1.509 . S
C751 C98 1.669 . S
C763 C181 1.740 . S
C790 C301 1.099 . S
C778 C49 1.130 . S
C817 C341 1.339 1_556 S
C805 C89 1.298 . S
C832 C18 1.460 1_655 S
C844 C261 1.485 . S
