# Generated by pormake.
# Topology anh, (6,3)-cn, num edge types: 1
# Building blocks:
#     Node 0, Type 0, BuildingBlock: INOVEN_clean_sbu_0, # of connection points: 6
#     Node 1, Type 0, BuildingBlock: INOVEN_clean_sbu_0, # of connection points: 6
#     Node 2, Type 0, BuildingBlock: INOVEN_clean_sbu_0, # of connection points: 6
#     Node 3, Type 1, BuildingBlock: OLANEW_clean_sbu_2, # of connection points: 3
#     Node 4, Type 1, BuildingBlock: OLANEW_clean_sbu_2, # of connection points: 3
#     Node 5, Type 1, BuildingBlock: OLANEW_clean_sbu_2, # of connection points: 3
#     Node 6, Type 1, BuildingBlock: OLANEW_clean_sbu_2, # of connection points: 3
#     Node 7, Type 1, BuildingBlock: OLANEW_clean_sbu_2, # of connection points: 3
#     Node 8, Type 1, BuildingBlock: OLANEW_clean_sbu_2, # of connection points: 3
#     Edge 9, Type (0, 1), BuildingBlock: EZIPEK_clean_linker_0, # of connection points: 2
#     Edge 10, Type (0, 1), BuildingBlock: EZIPEK_clean_linker_0, # of connection points: 2
#     Edge 11, Type (0, 1), BuildingBlock: EZIPEK_clean_linker_0, # of connection points: 2
#     Edge 12, Type (0, 1), BuildingBlock: EZIPEK_clean_linker_0, # of connection points: 2
#     Edge 13, Type (0, 1), BuildingBlock: EZIPEK_clean_linker_0, # of connection points: 2
#     Edge 14, Type (0, 1), BuildingBlock: EZIPEK_clean_linker_0, # of connection points: 2
#     Edge 15, Type (0, 1), BuildingBlock: EZIPEK_clean_linker_0, # of connection points: 2
#     Edge 16, Type (0, 1), BuildingBlock: EZIPEK_clean_linker_0, # of connection points: 2
#     Edge 17, Type (0, 1), BuildingBlock: EZIPEK_clean_linker_0, # of connection points: 2
#     Edge 18, Type (0, 1), BuildingBlock: EZIPEK_clean_linker_0, # of connection points: 2
#     Edge 19, Type (0, 1), BuildingBlock: EZIPEK_clean_linker_0, # of connection points: 2
#     Edge 20, Type (0, 1), BuildingBlock: EZIPEK_clean_linker_0, # of connection points: 2
#     Edge 21, Type (0, 1), BuildingBlock: EZIPEK_clean_linker_0, # of connection points: 2
#     Edge 22, Type (0, 1), BuildingBlock: EZIPEK_clean_linker_0, # of connection points: 2
#     Edge 23, Type (0, 1), BuildingBlock: EZIPEK_clean_linker_0, # of connection points: 2
#     Edge 24, Type (0, 1), BuildingBlock: EZIPEK_clean_linker_0, # of connection points: 2
#     Edge 25, Type (0, 1), BuildingBlock: EZIPEK_clean_linker_0, # of connection points: 2
#     Edge 26, Type (0, 1), BuildingBlock: EZIPEK_clean_linker_0, # of connection points: 2
# Relax obj value: 0.190
# Max RMSD: 0.198
# Mean RMSD: 0.125
data_MOF--net-anh--node1-INOVEN_clean_sbu_0--node2-OLANEW_clean_sbu_2--edge1-EZIPEK_clean_linker_0
_symmetry_space_group_name_H-M    P1
_symmetry_Int_Tables_number       1
_symmetry_cell_setting            triclinic
loop_
_symmetry_equiv_pos_as_xyz
'x, y, z'
_cell_length_a     29.399343
_cell_length_b     33.612349
_cell_length_c     37.082865
_cell_angle_alpha  92.498171
_cell_angle_beta   89.577169
_cell_angle_gamma 132.80977
loop_
_atom_site_label
_atom_site_type_symbol
_atom_site_fract_x
_atom_site_fract_y
_atom_site_fract_z
_atom_type_partial_charge
Gd0 Gd 0.06647 0.50844 0.13172 0.0
Gd1 Gd 0.96541 0.51645 0.14485 0.0
C2 C 0.11294 0.62486 0.15528 0.0
C3 C 0.14629 0.50893 0.10254 0.0
C4 C 0.20725 0.53216 0.11568 0.0
C5 C 0.23266 0.51176 0.1017 0.0
C6 C 0.23798 0.57178 0.14436 0.0
C7 C 0.31787 0.56877 0.14583 0.0
C8 C 0.29333 0.59028 0.15924 0.0
C9 C 0.28784 0.53006 0.11669 0.0
C10 C 0.04254 0.50448 0.20303 0.0
C11 C 0.92092 0.40021 0.1343 0.0
C12 C 0.89375 0.52832 0.17088 0.0
C13 C 0.82664 0.4926 0.17455 0.0
C14 C 0.80018 0.51481 0.17366 0.0
C15 C 0.78851 0.43644 0.1781 0.0
C16 C 0.69804 0.42532 0.17942 0.0
C17 C 0.72436 0.40292 0.18077 0.0
C18 C 0.73623 0.48135 0.17603 0.0
C19 C 0.98631 0.50557 0.07548 0.0
O20 O 0.12885 0.59692 0.1475 0.0
O21 O 0.055 0.60347 0.15406 0.0
O22 O 0.09961 0.46833 0.12066 0.0
O23 O 0.14189 0.54407 0.09525 0.0
O24 O 0.08383 0.50406 0.19098 0.0
O25 O 0.01845 0.50677 0.17646 0.0
O26 O 0.909 0.42816 0.15004 0.0
O27 O 0.97421 0.42336 0.11877 0.0
O28 O 0.91359 0.54006 0.13781 0.0
O29 O 0.92067 0.51753 0.19068 0.0
O30 O 0.93243 0.48553 0.08652 0.0
O31 O 0.02602 0.53289 0.10095 0.0
H32 H 0.20914 0.48088 0.0798 0.0
H33 H 0.21846 0.58748 0.15571 0.0
H34 H 0.31625 0.6203 0.18164 0.0
H35 H 0.30658 0.51332 0.10604 0.0
H36 H 0.82894 0.55796 0.17081 0.0
H37 H 0.80825 0.41856 0.17857 0.0
H38 H 0.69527 0.3597 0.18333 0.0
H39 H 0.71632 0.49907 0.17494 0.0
Gd40 Gd 0.566 0.01903 0.49189 0.0
Gd41 Gd 0.49092 0.04934 0.47463 0.0
C42 C 0.41693 0.92233 0.47183 0.0
C43 C 0.60572 0.98016 0.52352 0.0
C44 C 0.59032 0.92862 0.52695 0.0
C45 C 0.57731 0.89531 0.4966 0.0
C46 C 0.59089 0.91352 0.56151 0.0
C47 C 0.56825 0.83398 0.53549 0.0
C48 C 0.57983 0.86652 0.56576 0.0
C49 C 0.56649 0.84828 0.50088 0.0
C50 C 0.56321 0.03484 0.42165 0.0
C51 C 0.64204 0.14468 0.48816 0.0
C52 C 0.45364 0.09431 0.45046 0.0
C53 C 0.47086 0.14553 0.46217 0.0
C54 C 0.5083 0.17458 0.49348 0.0
C55 C 0.44956 0.16535 0.44282 0.0
C56 C 0.50203 0.2422 0.48644 0.0
C57 C 0.46503 0.21347 0.45492 0.0
C58 C 0.52388 0.22261 0.5055 0.0
C59 C 0.49711 0.03613 0.54513 0.0
O60 O 0.4685 0.93633 0.48432 0.0
O61 O 0.41561 0.95909 0.46217 0.0
O62 O 0.62565 0.00281 0.49236 0.0
O63 O 0.56808 0.9837 0.53862 0.0
O64 O 0.60903 0.04409 0.43755 0.0
O65 O 0.51804 0.01187 0.44247 0.0
O66 O 0.59041 0.13001 0.47523 0.0
O67 O 0.6426 0.10941 0.50193 0.0
O68 O 0.42328 0.05666 0.47402 0.0
O69 O 0.49762 0.0992 0.43552 0.0
O70 O 0.45194 0.02885 0.53055 0.0
O71 O 0.53966 0.05702 0.52284 0.0
H72 H 0.57628 0.90592 0.46965 0.0
H73 H 0.60079 0.93859 0.58524 0.0
H74 H 0.58129 0.85594 0.59264 0.0
H75 H 0.55747 0.82342 0.47727 0.0
H76 H 0.52481 0.15964 0.50884 0.0
H77 H 0.42061 0.14341 0.41863 0.0
H78 H 0.44775 0.22807 0.43995 0.0
H79 H 0.5524 0.24423 0.52987 0.0
Gd80 Gd 0.62063 0.59222 0.88133 0.0
Gd81 Gd 0.52509 0.47188 0.88228 0.0
C82 C 0.47336 0.52897 0.88637 0.0
C83 C 0.68314 0.69125 0.86476 0.0
C84 C 0.66594 0.71967 0.84958 0.0
C85 C 0.63916 0.73417 0.87123 0.0
C86 C 0.67346 0.7302 0.81267 0.0
C87 C 0.62311 0.76469 0.81885 0.0
C88 C 0.65153 0.75193 0.79733 0.0
C89 C 0.61812 0.75662 0.85599 0.0
C90 C 0.59908 0.5542 0.94769 0.0
C91 C 0.67382 0.53555 0.88327 0.0
C92 C 0.46261 0.37094 0.89284 0.0
C93 C 0.47023 0.33464 0.87798 0.0
C94 C 0.51793 0.35445 0.85391 0.0
C95 C 0.42909 0.27997 0.88649 0.0
C96 C 0.48273 0.26515 0.84638 0.0
C97 C 0.43535 0.24532 0.87077 0.0
C98 C 0.52419 0.31998 0.83821 0.0
C99 C 0.54692 0.50988 0.81546 0.0
O100 O 0.52882 0.57151 0.87478 0.0
O101 O 0.46251 0.48619 0.89693 0.0
O102 O 0.66563 0.67476 0.89755 0.0
O103 O 0.67574 0.65536 0.84305 0.0
O104 O 0.65316 0.59723 0.93736 0.0
O105 O 0.55819 0.53579 0.92352 0.0
O106 O 0.61516 0.48978 0.88605 0.0
O107 O 0.68891 0.58201 0.87865 0.0
O108 O 0.44579 0.38683 0.86916 0.0
O109 O 0.5073 0.41071 0.91485 0.0
O110 O 0.49317 0.46709 0.82601 0.0
O111 O 0.58754 0.52806 0.8398 0.0
H112 H 0.63314 0.72713 0.89982 0.0
H113 H 0.69449 0.71999 0.79539 0.0
H114 H 0.65576 0.75794 0.76861 0.0
H115 H 0.59645 0.76644 0.87299 0.0
H116 H 0.54981 0.39645 0.84692 0.0
H117 H 0.39191 0.26404 0.90491 0.0
H118 H 0.403 0.20301 0.87728 0.0
H119 H 0.56094 0.33588 0.81943 0.0
O120 O 0.61752 0.07394 0.25298 0.0
Cd121 Cd 0.62062 0.0733 0.18702 0.0
O122 O 0.5194 0.00145 0.24408 0.0
Cd123 Cd 0.42551 0.93079 0.25825 0.0
O124 O 0.33841 0.85077 0.2408 0.0
C125 C 0.32101 0.84456 0.20813 0.0
O126 O 0.35368 0.88649 0.18768 0.0
C127 C 0.56492 0.03578 0.26585 0.0
C128 C 0.72107 0.17553 0.16374 0.0
O129 O 0.66965 0.16235 0.17071 0.0
O130 O 0.72481 0.14003 0.16712 0.0
O131 O 0.59938 0.53196 0.64088 0.0
Cd132 Cd 0.59706 0.53213 0.57488 0.0
O133 O 0.53966 0.54926 0.64895 0.0
Cd134 Cd 0.54051 0.57095 0.59406 0.0
O135 O 0.54401 0.62564 0.5613 0.0
C136 C 0.54478 0.65908 0.57946 0.0
O137 O 0.54219 0.65747 0.6148 0.0
C138 C 0.56932 0.53765 0.66164 0.0
C139 C 0.56514 0.43829 0.544 0.0
O140 O 0.62195 0.48127 0.55124 0.0
O141 O 0.52341 0.43964 0.55091 0.0
O142 O 0.11547 0.52597 0.92869 0.0
Cd143 Cd 0.1824 0.53638 0.87914 0.0
O144 O 0.05123 0.53082 0.90244 0.0
Cd145 Cd 0.97527 0.53247 0.90169 0.0
O146 O 0.90848 0.54391 0.89266 0.0
C147 C 0.85074 0.50978 0.8997 0.0
O148 O 0.82629 0.46362 0.91329 0.0
C149 C 0.07147 0.52555 0.9305 0.0
C150 C 0.27663 0.53296 0.88839 0.0
O151 O 0.28883 0.57737 0.89381 0.0
O152 O 0.22014 0.48978 0.88046 0.0
O153 O 0.06573 0.55345 0.37627 0.0
Cd154 Cd 0.08222 0.58331 0.44009 0.0
O155 O 0.96346 0.49643 0.37046 0.0
Cd156 Cd 0.93866 0.47743 0.4272 0.0
O157 O 0.87577 0.40813 0.46194 0.0
C158 C 0.84109 0.36184 0.44506 0.0
O159 O 0.84645 0.35948 0.41 0.0
C160 C 0.01638 0.52338 0.35651 0.0
C161 C 0.19134 0.69364 0.44948 0.0
O162 O 0.19243 0.65635 0.45157 0.0
O163 O 0.13891 0.67925 0.44343 0.0
O164 O 0.48372 0.92213 0.68607 0.0
Cd165 Cd 0.46024 0.8829 0.74497 0.0
O166 O 0.50215 0.99002 0.71533 0.0
Cd167 Cd 0.51368 0.06137 0.72009 0.0
O168 O 0.50979 0.12009 0.7426 0.0
C169 C 0.50667 0.12294 0.7767 0.0
O170 O 0.50724 0.09192 0.79664 0.0
C171 C 0.49697 0.96679 0.68563 0.0
C172 C 0.51589 0.84476 0.76333 0.0
O173 O 0.46613 0.81528 0.74354 0.0
O174 O 0.54061 0.89297 0.77336 0.0
O175 O 0.47947 0.47211 0.10527 0.0
Cd176 Cd 0.43825 0.43355 0.16426 0.0
O177 O 0.5792 0.53168 0.12154 0.0
Cd178 Cd 0.55822 0.53053 0.17786 0.0
O179 O 0.49719 0.54345 0.19011 0.0
C180 C 0.51879 0.59144 0.1915 0.0
O181 O 0.5791 0.63294 0.19248 0.0
C182 C 0.53643 0.50661 0.09714 0.0
C183 C 0.48601 0.38744 0.17762 0.0
O184 O 0.43286 0.3587 0.16158 0.0
O185 O 0.51274 0.43518 0.19014 0.0
C186 C 0.43021 0.6192 0.14305 0.0
C187 C 0.37471 0.58569 0.16235 0.0
C188 C 0.42476 0.57435 0.2076 0.0
C189 C 0.4755 0.59871 0.1846 0.0
N190 N 0.52437 0.64025 0.12812 0.0
N191 N 0.31689 0.52913 0.21247 0.0
C192 C 0.47849 0.62114 0.152 0.0
C193 C 0.37155 0.5633 0.19487 0.0
N194 N 0.43634 0.64871 0.11593 0.0
N195 N 0.42775 0.5619 0.24157 0.0
H196 H 0.27699 0.52046 0.20422 0.0
H197 H 0.30982 0.50655 0.23387 0.0
H198 H 0.46668 0.57014 0.25155 0.0
H199 H 0.39465 0.54847 0.26087 0.0
H200 H 0.47798 0.67796 0.10317 0.0
H201 H 0.40135 0.64775 0.1087 0.0
H202 H 0.52406 0.65068 0.10215 0.0
H203 H 0.56021 0.64151 0.13271 0.0
C204 C 0.75195 0.21659 0.46657 0.0
C205 C 0.70071 0.20265 0.48536 0.0
C206 C 0.74641 0.29662 0.48268 0.0
C207 C 0.79749 0.31033 0.46408 0.0
N208 N 0.85821 0.28836 0.44885 0.0
N209 N 0.65949 0.23312 0.52086 0.0
C210 C 0.80324 0.27185 0.45956 0.0
C211 C 0.70142 0.24403 0.49654 0.0
N212 N 0.75036 0.17718 0.45306 0.0
N213 N 0.73869 0.33239 0.4853 0.0
H214 H 0.62746 0.19548 0.53232 0.0
H215 H 0.66081 0.26269 0.53244 0.0
H216 H 0.77058 0.3713 0.47568 0.0
H217 H 0.69845 0.32203 0.49465 0.0
H218 H 0.78262 0.18479 0.43508 0.0
H219 H 0.71468 0.13619 0.45744 0.0
H220 H 0.86732 0.26332 0.44851 0.0
H221 H 0.89698 0.32877 0.44407 0.0
C222 C 0.53047 0.75053 0.80194 0.0
C223 C 0.59573 0.78415 0.80242 0.0
C224 C 0.60708 0.85321 0.77134 0.0
C225 C 0.54296 0.82296 0.77559 0.0
N226 N 0.44602 0.74746 0.80193 0.0
N227 N 0.69755 0.87117 0.79256 0.0
C228 C 0.50509 0.77267 0.79262 0.0
C229 C 0.63454 0.83654 0.78842 0.0
N230 N 0.49257 0.69709 0.80969 0.0
N231 N 0.6413 0.89663 0.74989 0.0
H232 H 0.71948 0.86066 0.80518 0.0
H233 H 0.72774 0.91185 0.78636 0.0
H234 H 0.62239 0.90897 0.73588 0.0
H235 H 0.68669 0.91681 0.74302 0.0
H236 H 0.44447 0.66946 0.80623 0.0
H237 H 0.50937 0.67906 0.81609 0.0
H238 H 0.419 0.71373 0.81771 0.0
H239 H 0.42617 0.76333 0.79735 0.0
C240 C 0.60415 0.38905 0.21362 0.0
C241 C 0.63031 0.39124 0.18072 0.0
C242 C 0.5423 0.36493 0.14622 0.0
C243 C 0.52042 0.36996 0.17881 0.0
N244 N 0.5161 0.36748 0.24334 0.0
N245 N 0.61611 0.3636 0.11788 0.0
C246 C 0.54639 0.37493 0.21257 0.0
C247 C 0.59598 0.37246 0.14775 0.0
N248 N 0.63655 0.40372 0.24539 0.0
N249 N 0.51542 0.35789 0.11372 0.0
H250 H 0.656 0.36977 0.11852 0.0
H251 H 0.59072 0.3456 0.09359 0.0
H252 H 0.47446 0.34967 0.11129 0.0
H253 H 0.53466 0.36187 0.08893 0.0
H254 H 0.62375 0.409 0.27008 0.0
H255 H 0.67782 0.41208 0.24672 0.0
H256 H 0.53009 0.36723 0.26895 0.0
H257 H 0.47341 0.35677 0.24249 0.0
C258 C 0.33757 0.82688 0.49421 0.0
C259 C 0.36001 0.86321 0.46586 0.0
C260 C 0.27244 0.78739 0.42616 0.0
C261 C 0.24926 0.75197 0.45493 0.0
N262 N 0.25274 0.73905 0.51784 0.0
N263 N 0.35693 0.8753 0.40246 0.0
C264 C 0.28032 0.77187 0.48922 0.0
C265 C 0.32921 0.84283 0.43125 0.0
N266 N 0.37142 0.84419 0.5258 0.0
N267 N 0.23968 0.76803 0.39398 0.0
H268 H 0.39961 0.91519 0.4044 0.0
H269 H 0.34104 0.86178 0.3758 0.0
H270 H 0.20083 0.72706 0.38818 0.0
H271 H 0.24863 0.79259 0.37353 0.0
H272 H 0.36258 0.81803 0.54491 0.0
H273 H 0.41113 0.88431 0.53243 0.0
H274 H 0.26821 0.75274 0.54457 0.0
H275 H 0.21071 0.69869 0.51553 0.0
C276 C 0.44632 0.19116 0.80022 0.0
C277 C 0.48852 0.22839 0.82868 0.0
C278 C 0.54674 0.20088 0.81993 0.0
C279 C 0.50105 0.15996 0.79397 0.0
N280 N 0.40138 0.10952 0.76395 0.0
N281 N 0.57344 0.26358 0.86955 0.0
C282 C 0.44923 0.15333 0.78524 0.0
C283 C 0.53724 0.23181 0.83967 0.0
N284 N 0.40462 0.193 0.78679 0.0
N285 N 0.60041 0.21172 0.82465 0.0
H286 H 0.56802 0.28701 0.88461 0.0
H287 H 0.60529 0.26325 0.88121 0.0
H288 H 0.60956 0.19057 0.81024 0.0
H289 H 0.63825 0.24485 0.84031 0.0
H290 H 0.37749 0.1711 0.76343 0.0
H291 H 0.4008 0.21995 0.79715 0.0
H292 H 0.35943 0.09934 0.75997 0.0
H293 H 0.40113 0.08033 0.75285 0.0
C294 C 0.61214 0.79117 0.53972 0.0
C295 C 0.55985 0.78574 0.54052 0.0
C296 C 0.49532 0.69372 0.56191 0.0
C297 C 0.54781 0.69941 0.56163 0.0
N298 N 0.65256 0.74805 0.54391 0.0
N299 N 0.44965 0.72944 0.54491 0.0
C300 C 0.605 0.74631 0.54822 0.0
C301 C 0.50066 0.73607 0.54921 0.0
N302 N 0.66915 0.84011 0.53249 0.0
N303 N 0.44078 0.64824 0.57515 0.0
H304 H 0.45233 0.75999 0.53599 0.0
H305 H 0.40427 0.69271 0.54741 0.0
H306 H 0.43409 0.61498 0.58246 0.0
H307 H 0.40295 0.6441 0.58036 0.0
H308 H 0.7105 0.84912 0.53576 0.0
H309 H 0.67581 0.87329 0.52503 0.0
H310 H 0.6932 0.77849 0.53083 0.0
H311 H 0.64973 0.71679 0.55107 0.0
C312 C 0.77137 0.56436 0.9126 0.0
C313 C 0.72356 0.53361 0.88519 0.0
C314 C 0.76072 0.48862 0.86639 0.0
C315 C 0.81015 0.52113 0.8927 0.0
N316 N 0.86862 0.59647 0.93684 0.0
N317 N 0.68186 0.47561 0.83094 0.0
C318 C 0.81761 0.56135 0.91428 0.0
C319 C 0.72081 0.49821 0.86071 0.0
N320 N 0.77048 0.59385 0.93862 0.0
N321 N 0.75154 0.44813 0.84683 0.0
H322 H 0.65393 0.4834 0.82521 0.0
H323 H 0.6815 0.45357 0.81014 0.0
H324 H 0.78215 0.44237 0.84808 0.0
H325 H 0.71185 0.41838 0.83087 0.0
H326 H 0.79893 0.61152 0.96183 0.0
H327 H 0.73762 0.59691 0.93874 0.0
H328 H 0.88081 0.63076 0.94992 0.0
H329 H 0.90159 0.59382 0.94049 0.0
C330 C 0.15873 0.70453 0.19915 0.0
C331 C 0.16309 0.68305 0.16675 0.0
C332 C 0.27162 0.76731 0.16196 0.0
C333 C 0.26601 0.79006 0.19283 0.0
N334 N 0.19997 0.78538 0.23512 0.0
N335 N 0.21785 0.70003 0.11211 0.0
C336 C 0.20818 0.76022 0.20967 0.0
C337 C 0.21779 0.71633 0.14652 0.0
N338 N 0.10935 0.67157 0.22106 0.0
N339 N 0.32861 0.79276 0.1484 0.0
H340 H 0.17837 0.66399 0.09925 0.0
H341 H 0.25488 0.72502 0.09502 0.0
H342 H 0.36975 0.82931 0.15953 0.0
H343 H 0.33561 0.77484 0.12833 0.0
H344 H 0.10764 0.68431 0.24673 0.0
H345 H 0.07282 0.63006 0.21563 0.0
H346 H 0.15689 0.76709 0.24552 0.0
H347 H 0.23486 0.82642 0.24311 0.0
C348 C 0.48609 0.29002 0.5309 0.0
C349 C 0.51679 0.29218 0.50028 0.0
C350 C 0.57387 0.38874 0.49588 0.0
C351 C 0.54802 0.38788 0.5287 0.0
N352 N 0.4885 0.33992 0.58117 0.0
N353 N 0.59698 0.34498 0.45681 0.0
C354 C 0.50633 0.33905 0.5472 0.0
C355 C 0.56271 0.34197 0.48362 0.0
N356 N 0.43666 0.24094 0.54398 0.0
N357 N 0.60693 0.43342 0.4756 0.0
H358 H 0.58981 0.3115 0.44692 0.0
H359 H 0.63577 0.38144 0.44646 0.0
H360 H 0.61496 0.46803 0.4832 0.0
H361 H 0.62134 0.43429 0.44967 0.0
H362 H 0.40822 0.23635 0.56373 0.0
H363 H 0.42058 0.20413 0.53286 0.0
H364 H 0.46365 0.30681 0.59747 0.0
H365 H 0.50357 0.37518 0.5946 0.0
C366 C 0.39754 0.52859 0.92051 0.0
C367 C 0.42233 0.52933 0.88708 0.0
C368 C 0.34982 0.53033 0.85468 0.0
C369 C 0.32729 0.53227 0.88818 0.0
N370 N 0.33408 0.53963 0.95308 0.0
N371 N 0.4246 0.53372 0.82233 0.0
C372 C 0.35249 0.53322 0.92112 0.0
C373 C 0.39926 0.53123 0.8542 0.0
N374 N 0.41661 0.52284 0.95175 0.0
N375 N 0.32283 0.52642 0.82315 0.0
H376 H 0.45554 0.52839 0.82028 0.0
H377 H 0.417 0.54297 0.79801 0.0
H378 H 0.28885 0.52827 0.82227 0.0
H379 H 0.33133 0.51851 0.79781 0.0
H380 H 0.39603 0.51595 0.9765 0.0
H381 H 0.45106 0.52165 0.95272 0.0
H382 H 0.35506 0.54684 0.97805 0.0
H383 H 0.29989 0.54122 0.9545 0.0
C384 C 0.884 0.31593 0.16107 0.0
C385 C 0.87352 0.3406 0.13671 0.0
C386 C 0.76776 0.25322 0.12425 0.0
C387 C 0.77509 0.23102 0.15277 0.0
N388 N 0.83761 0.24457 0.20269 0.0
N389 N 0.80333 0.33446 0.09772 0.0
C390 C 0.83278 0.26292 0.17208 0.0
C391 C 0.8148 0.30972 0.11896 0.0
N392 N 0.94245 0.34345 0.17452 0.0
N393 N 0.71675 0.22005 0.10149 0.0
H394 H 0.83709 0.37538 0.09218 0.0
H395 H 0.75924 0.31527 0.08767 0.0
H396 H 0.68231 0.17812 0.1038 0.0
H397 H 0.71181 0.23314 0.07816 0.0
H398 H 0.95357 0.32513 0.18914 0.0
H399 H 0.98098 0.38338 0.16878 0.0
H400 H 0.87643 0.26878 0.22011 0.0
H401 H 0.80077 0.20709 0.21292 0.0
C402 C 0.97676 0.46265 0.01497 0.0
C403 C 1.00273 0.50995 0.0369 0.0
C404 C 0.07203 0.56749 0.98829 0.0
C405 C 0.0451 0.52025 0.96614 0.0
N406 N 0.96467 0.42337 0.95516 0.0
N407 N 0.06317 0.60641 0.04131 0.0
C408 C 0.99506 0.46793 0.97849 0.0
C409 C 0.04704 0.56216 0.02266 0.0
N410 N 0.93676 0.41287 0.02946 0.0
N411 N 0.12248 0.61746 0.9768 0.0
H412 H 0.04403 0.60388 0.06587 0.0
H413 H 0.09054 0.64466 0.03085 0.0
H414 H 0.14057 0.62317 0.95123 0.0
H415 H 0.14896 0.65285 0.99339 0.0
H416 H 0.92203 0.37756 0.01647 0.0
H417 H 0.92124 0.40732 0.05568 0.0
H418 H 0.92378 0.38466 0.96118 0.0
H419 H 0.9777 0.42581 0.92851 0.0
C420 C 0.5821 0.08033 0.36431 0.0
C421 C 0.55758 0.03282 0.38181 0.0
C422 C 0.53675 0.98589 0.32295 0.0
C423 C 0.55749 0.03242 0.30555 0.0
N424 N 0.58501 0.11842 0.3095 0.0
N425 N 0.50395 0.93783 0.37829 0.0
C426 C 0.57566 0.07799 0.32621 0.0
C427 C 0.532 0.98462 0.36124 0.0
N428 N 0.61384 0.12839 0.38386 0.0
N429 N 0.52538 0.94443 0.30324 0.0
H430 H 0.50239 0.93593 0.40632 0.0
H431 H 0.47807 0.9 0.36472 0.0
H432 H 0.52927 0.94409 0.27529 0.0
H433 H 0.51697 0.91233 0.31475 0.0
H434 H 0.63865 0.16555 0.37215 0.0
H435 H 0.62024 0.13193 0.41175 0.0
H436 H 0.59212 0.14988 0.32351 0.0
H437 H 0.57921 0.11751 0.28166 0.0
C438 C 0.55355 0.48196 0.75329 0.0
C439 C 0.56032 0.5204 0.77665 0.0
C440 C 0.58593 0.57498 0.7251 0.0
C441 C 0.5701 0.53274 0.70121 0.0
N442 N 0.52977 0.44181 0.69252 0.0
N443 N 0.57316 0.5992 0.78398 0.0
C444 C 0.55202 0.48521 0.71524 0.0
C445 C 0.5741 0.56588 0.76239 0.0
N446 N 0.54906 0.44259 0.76747 0.0
N447 N 0.61441 0.62463 0.71246 0.0
H448 H 0.5664 0.5949 0.81161 0.0
H449 H 0.57382 0.62802 0.77386 0.0
H450 H 0.62627 0.63379 0.68554 0.0
H451 H 0.63221 0.65833 0.72934 0.0
H452 H 0.55051 0.41692 0.75191 0.0
H453 H 0.54973 0.43891 0.79518 0.0
H454 H 0.50967 0.4041 0.70159 0.0
H455 H 0.52592 0.44161 0.66459 0.0
C456 C 0.55243 0.05306 0.60383 0.0
C457 C 0.49697 0.01995 0.58198 0.0
C458 C 0.44052 0.95849 0.63164 0.0
C459 C 0.49738 0.98696 0.65085 0.0
N460 N 0.60879 0.05807 0.6541 0.0
N461 N 0.38926 0.93531 0.5737 0.0
C462 C 0.55379 0.03336 0.63664 0.0
C463 C 0.44112 0.97126 0.59556 0.0
N464 N 0.60271 0.10456 0.59448 0.0
N465 N 0.38565 0.91973 0.64812 0.0
H466 H 0.38743 0.94005 0.5464 0.0
H467 H 0.34976 0.89697 0.58143 0.0
H468 H 0.38324 0.90891 0.67449 0.0
H469 H 0.34272 0.90219 0.63702 0.0
H470 H 0.64217 0.13211 0.61111 0.0
H471 H 0.6025 0.12216 0.57213 0.0
H472 H 0.6518 0.08819 0.64291 0.0
H473 H 0.61132 0.0455 0.67863 0.0
C474 C 0.59427 0.51245 0.00358 0.0
C475 C 0.58475 0.54313 0.98617 0.0
C476 C 0.54109 0.54767 0.04095 0.0
C477 C 0.55303 0.519 0.05895 0.0
N478 N 0.59618 0.47844 0.05948 0.0
N479 N 0.5615 0.59952 0.9896 0.0
C480 C 0.58142 0.50283 0.04089 0.0
C481 C 0.56145 0.56332 0.00518 0.0
N482 N 0.61402 0.49134 0.98412 0.0
N483 N 0.50996 0.5597 0.05797 0.0
H484 H 0.57606 0.61205 0.96342 0.0
H485 H 0.55173 0.62049 0.00341 0.0
H486 H 0.49756 0.55207 0.08491 0.0
H487 H 0.49286 0.57418 0.04483 0.0
H488 H 0.61531 0.46352 0.99379 0.0
H489 H 0.6261 0.49938 0.95718 0.0
H490 H 0.62307 0.4711 0.04928 0.0
H491 H 0.58422 0.46786 0.0862 0.0
C492 C 0.07908 0.56006 0.26154 0.0
C493 C 0.03353 0.51003 0.24166 0.0
C494 C 0.97982 0.46714 0.29763 0.0
C495 C 0.02071 0.51881 0.31669 0.0
N496 N 0.09959 0.61653 0.31359 0.0
N497 N 0.93468 0.41765 0.2398 0.0
C498 C 0.06768 0.56596 0.29774 0.0
C499 C 0.98166 0.46427 0.25935 0.0
N500 N 0.13383 0.60178 0.24627 0.0
N501 N 0.94251 0.42047 0.31598 0.0
H502 H 0.93569 0.41346 0.21193 0.0
H503 H 0.89277 0.385 0.2509 0.0
H504 H 0.94303 0.42001 0.34403 0.0
H505 H 0.9164 0.38196 0.30336 0.0
H506 H 0.17103 0.63697 0.26097 0.0
H507 H 0.14391 0.59962 0.21968 0.0
H508 H 0.13063 0.652 0.29973 0.0
H509 H 0.08985 0.62289 0.33914 0.0
loop_
_geom_bond_atom_site_label_1
_geom_bond_atom_site_label_2
_geom_bond_distance
_geom_bond_site_symmetry_2
_ccdc_geom_bond_type
Gd0 C3 2.818 . S
Gd0 O20 2.377 . S
Gd0 O22 2.448 . S
Gd0 O23 2.506 . S
Gd0 O24 2.435 . S
Gd0 O25 2.717 . S
Gd0 O27 2.395 1_455 S
Gd0 O31 2.327 . S
Gd1 C12 2.818 . S
Gd1 O21 2.395 1_655 S
Gd1 O25 2.327 1_655 S
Gd1 O26 2.377 . S
Gd1 O28 2.448 . S
Gd1 O29 2.506 . S
Gd1 O30 2.435 1_655 S
Gd1 O31 2.717 1_655 S
C2 O20 1.240 . S
C2 O21 1.240 . S
C3 Gd0 2.818 . S
C3 C4 1.510 . S
C3 O22 1.249 . S
C3 O23 1.252 . S
C4 C3 1.510 . S
C4 C5 1.404 . S
C4 C6 1.352 . S
C5 C4 1.404 . S
C5 C9 1.389 . S
C5 H32 0.930 . S
C6 C4 1.352 . S
C6 C8 1.374 . S
C6 H33 0.931 . S
C7 C8 1.359 . S
C7 C9 1.364 . S
C8 C6 1.374 . S
C8 C7 1.359 . S
C8 H34 0.931 . S
C9 C5 1.389 . S
C9 C7 1.364 . S
C9 H35 0.931 . S
C10 O24 1.256 . S
C10 O25 1.257 . S
C11 O26 1.240 . S
C11 O27 1.240 . S
C12 Gd1 2.818 . S
C12 C13 1.510 . S
C12 O28 1.249 . S
C12 O29 1.252 . S
C13 C12 1.510 . S
C13 C14 1.404 . S
C13 C15 1.352 . S
C14 C13 1.404 . S
C14 C18 1.389 . S
C14 H36 0.930 . S
C15 C13 1.352 . S
C15 C17 1.374 . S
C15 H37 0.931 . S
C16 C17 1.359 . S
C16 C18 1.364 . S
C17 C15 1.374 . S
C17 C16 1.359 . S
C17 H38 0.931 . S
C18 C14 1.389 . S
C18 C16 1.364 . S
C18 H39 0.931 . S
C19 O30 1.256 . S
C19 O31 1.257 . S
O20 Gd0 2.377 . S
O20 C2 1.240 . S
O21 Gd1 2.395 1_455 S
O21 C2 1.240 . S
O22 Gd0 2.448 . S
O22 C3 1.249 . S
O23 Gd0 2.506 . S
O23 C3 1.252 . S
O24 Gd0 2.435 . S
O24 C10 1.256 . S
O25 Gd0 2.717 . S
O25 Gd1 2.327 1_455 S
O25 C10 1.257 . S
O26 Gd1 2.377 . S
O26 C11 1.240 . S
O27 Gd0 2.395 1_655 S
O27 C11 1.240 . S
O28 Gd1 2.448 . S
O28 C12 1.249 . S
O29 Gd1 2.506 . S
O29 C12 1.252 . S
O30 Gd1 2.435 1_455 S
O30 C19 1.256 . S
O31 Gd0 2.327 . S
O31 Gd1 2.717 1_455 S
O31 C19 1.257 . S
H32 C5 0.930 . S
H33 C6 0.931 . S
H34 C8 0.931 . S
H35 C9 0.931 . S
H36 C14 0.930 . S
H37 C15 0.931 . S
H38 C17 0.931 . S
H39 C18 0.931 . S
Gd40 C43 2.818 . S
Gd40 O60 2.377 . S
Gd40 O62 2.448 . S
Gd40 O63 2.506 . S
Gd40 O64 2.435 . S
Gd40 O65 2.717 1_565 S
Gd40 O67 2.395 1_565 S
Gd40 O71 2.327 1_565 S
Gd41 C52 2.818 . S
Gd41 O61 2.395 1_545 S
Gd41 O65 2.327 . S
Gd41 O66 2.377 . S
Gd41 O68 2.448 . S
Gd41 O69 2.506 . S
Gd41 O70 2.435 . S
Gd41 O71 2.717 . S
C42 O60 1.240 . S
C42 O61 1.240 . S
C43 Gd40 2.818 . S
C43 C44 1.510 . S
C43 O62 1.249 . S
C43 O63 1.252 . S
C44 C43 1.510 . S
C44 C45 1.404 . S
C44 C46 1.352 . S
C45 C44 1.404 . S
C45 C49 1.389 . S
C45 H72 0.930 . S
C46 C44 1.352 . S
C46 C48 1.374 . S
C46 H73 0.931 . S
C47 C48 1.359 . S
C47 C49 1.364 . S
C48 C46 1.374 . S
C48 C47 1.359 . S
C48 H74 0.931 . S
C49 C45 1.389 . S
C49 C47 1.364 . S
C49 H75 0.931 . S
C50 O64 1.256 1_545 S
C50 O65 1.257 . S
C51 O66 1.240 . S
C51 O67 1.240 . S
C52 Gd41 2.818 . S
C52 C53 1.510 . S
C52 O68 1.249 . S
C52 O69 1.252 . S
C53 C52 1.510 . S
C53 C54 1.404 . S
C53 C55 1.352 . S
C54 C53 1.404 . S
C54 C58 1.389 . S
C54 H76 0.930 . S
C55 C53 1.352 . S
C55 C57 1.374 . S
C55 H77 0.931 . S
C56 C57 1.359 . S
C56 C58 1.364 . S
C57 C55 1.374 . S
C57 C56 1.359 . S
C57 H78 0.931 . S
C58 C54 1.389 . S
C58 C56 1.364 . S
C58 H79 0.931 . S
C59 O70 1.256 . S
C59 O71 1.257 . S
O60 Gd40 2.377 . S
O60 C42 1.240 . S
O61 Gd41 2.395 1_565 S
O61 C42 1.240 . S
O62 Gd40 2.448 . S
O62 C43 1.249 . S
O63 Gd40 2.506 . S
O63 C43 1.252 . S
O64 Gd40 2.435 . S
O64 C50 1.256 1_565 S
O65 Gd40 2.717 1_545 S
O65 Gd41 2.327 . S
O65 C50 1.257 . S
O66 Gd41 2.377 . S
O66 C51 1.240 . S
O67 Gd40 2.395 1_545 S
O67 C51 1.240 . S
O68 Gd41 2.448 . S
O68 C52 1.249 . S
O69 Gd41 2.506 . S
O69 C52 1.252 . S
O70 Gd41 2.435 . S
O70 C59 1.256 . S
O71 Gd40 2.327 1_545 S
O71 Gd41 2.717 . S
O71 C59 1.257 . S
H72 C45 0.930 . S
H73 C46 0.931 . S
H74 C48 0.931 . S
H75 C49 0.931 . S
H76 C54 0.930 . S
H77 C55 0.931 . S
H78 C57 0.931 . S
H79 C58 0.931 . S
Gd80 C83 2.818 . S
Gd80 O100 2.377 . S
Gd80 O102 2.448 . S
Gd80 O103 2.506 . S
Gd80 O104 2.435 . S
Gd80 O105 2.717 . S
Gd80 O107 2.395 . S
Gd80 O111 2.327 . S
Gd81 C92 2.818 . S
Gd81 O101 2.395 . S
Gd81 O105 2.327 . S
Gd81 O106 2.377 . S
Gd81 O108 2.448 . S
Gd81 O109 2.506 . S
Gd81 O110 2.435 . S
Gd81 O111 2.717 . S
C82 O100 1.240 . S
C82 O101 1.240 . S
C83 Gd80 2.818 . S
C83 C84 1.510 . S
C83 O102 1.249 . S
C83 O103 1.252 . S
C84 C83 1.510 . S
C84 C85 1.404 . S
C84 C86 1.352 . S
C85 C84 1.404 . S
C85 C89 1.389 . S
C85 H112 0.930 . S
C86 C84 1.352 . S
C86 C88 1.374 . S
C86 H113 0.931 . S
C87 C88 1.359 . S
C87 C89 1.364 . S
C88 C86 1.374 . S
C88 C87 1.359 . S
C88 H114 0.931 . S
C89 C85 1.389 . S
C89 C87 1.364 . S
C89 H115 0.931 . S
C90 O104 1.256 . S
C90 O105 1.257 . S
C91 O106 1.240 . S
C91 O107 1.240 . S
C92 Gd81 2.818 . S
C92 C93 1.510 . S
C92 O108 1.249 . S
C92 O109 1.252 . S
C93 C92 1.510 . S
C93 C94 1.404 . S
C93 C95 1.352 . S
C94 C93 1.404 . S
C94 C98 1.389 . S
C94 H116 0.930 . S
C95 C93 1.352 . S
C95 C97 1.374 . S
C95 H117 0.931 . S
C96 C97 1.359 . S
C96 C98 1.364 . S
C97 C95 1.374 . S
C97 C96 1.359 . S
C97 H118 0.931 . S
C98 C94 1.389 . S
C98 C96 1.364 . S
C98 H119 0.931 . S
C99 O110 1.256 . S
C99 O111 1.257 . S
O100 Gd80 2.377 . S
O100 C82 1.240 . S
O101 Gd81 2.395 . S
O101 C82 1.240 . S
O102 Gd80 2.448 . S
O102 C83 1.249 . S
O103 Gd80 2.506 . S
O103 C83 1.252 . S
O104 Gd80 2.435 . S
O104 C90 1.256 . S
O105 Gd80 2.717 . S
O105 Gd81 2.327 . S
O105 C90 1.257 . S
O106 Gd81 2.377 . S
O106 C91 1.240 . S
O107 Gd80 2.395 . S
O107 C91 1.240 . S
O108 Gd81 2.448 . S
O108 C92 1.249 . S
O109 Gd81 2.506 . S
O109 C92 1.252 . S
O110 Gd81 2.435 . S
O110 C99 1.256 . S
O111 Gd80 2.327 . S
O111 Gd81 2.717 . S
O111 C99 1.257 . S
H112 C85 0.930 . S
H113 C86 0.931 . S
H114 C88 0.931 . S
H115 C89 0.931 . S
H116 C94 0.930 . S
H117 C95 0.931 . S
H118 C97 0.931 . S
H119 C98 0.931 . S
O120 Cd121 2.300 . S
O120 C127 1.275 . S
Cd121 O120 2.300 . S
Cd121 O129 2.381 . S
Cd121 O130 2.378 . S
O122 Cd123 2.385 . S
O122 C127 1.255 1_565 S
Cd123 O122 2.385 . S
Cd123 O124 2.317 . S
O124 Cd123 2.317 . S
O124 C125 1.232 . S
C125 O124 1.232 . S
C125 O126 1.218 . S
O126 C125 1.218 . S
C127 O120 1.275 . S
C127 O122 1.255 1_545 S
C128 O129 1.258 . S
C128 O130 1.256 . S
O129 Cd121 2.381 . S
O129 C128 1.258 . S
O130 Cd121 2.378 . S
O130 C128 1.256 . S
O131 Cd132 2.300 . S
O131 C138 1.275 . S
Cd132 O131 2.300 . S
Cd132 O140 2.381 . S
Cd132 O141 2.378 . S
O133 Cd134 2.385 . S
O133 C138 1.255 . S
Cd134 O133 2.385 . S
Cd134 O135 2.317 . S
O135 Cd134 2.317 . S
O135 C136 1.232 . S
C136 O135 1.232 . S
C136 O137 1.218 . S
O137 C136 1.218 . S
C138 O131 1.275 . S
C138 O133 1.255 . S
C139 O140 1.258 . S
C139 O141 1.256 . S
O140 Cd132 2.381 . S
O140 C139 1.258 . S
O141 Cd132 2.378 . S
O141 C139 1.256 . S
O142 Cd143 2.300 . S
O142 C149 1.275 . S
Cd143 O142 2.300 . S
Cd143 O151 2.381 . S
Cd143 O152 2.378 . S
O144 Cd145 2.385 . S
O144 C149 1.255 1_655 S
Cd145 O144 2.385 . S
Cd145 O146 2.317 . S
O146 Cd145 2.317 . S
O146 C147 1.232 . S
C147 O146 1.232 . S
C147 O148 1.218 . S
O148 C147 1.218 . S
C149 O142 1.275 . S
C149 O144 1.255 1_455 S
C150 O151 1.258 . S
C150 O152 1.256 . S
O151 Cd143 2.381 . S
O151 C150 1.258 . S
O152 Cd143 2.378 . S
O152 C150 1.256 . S
O153 Cd154 2.300 . S
O153 C160 1.275 1_455 S
Cd154 O153 2.300 . S
Cd154 O162 2.381 . S
Cd154 O163 2.378 . S
O155 Cd156 2.385 . S
O155 C160 1.255 . S
Cd156 O155 2.385 . S
Cd156 O157 2.317 . S
O157 Cd156 2.317 . S
O157 C158 1.232 . S
C158 O157 1.232 . S
C158 O159 1.218 . S
O159 C158 1.218 . S
C160 O153 1.275 1_655 S
C160 O155 1.255 . S
C161 O162 1.258 . S
C161 O163 1.256 . S
O162 Cd154 2.381 . S
O162 C161 1.258 . S
O163 Cd154 2.378 . S
O163 C161 1.256 . S
O164 Cd165 2.300 . S
O164 C171 1.275 1_565 S
Cd165 O164 2.300 . S
Cd165 O173 2.381 . S
Cd165 O174 2.378 . S
O166 Cd167 2.385 . S
O166 C171 1.255 . S
Cd167 O166 2.385 . S
Cd167 O168 2.317 . S
O168 Cd167 2.317 . S
O168 C169 1.232 . S
C169 O168 1.232 . S
C169 O170 1.218 . S
O170 C169 1.218 . S
C171 O164 1.275 1_545 S
C171 O166 1.255 . S
C172 O173 1.258 . S
C172 O174 1.256 . S
O173 Cd165 2.381 . S
O173 C172 1.258 . S
O174 Cd165 2.378 . S
O174 C172 1.256 . S
O175 Cd176 2.300 . S
O175 C182 1.275 . S
Cd176 O175 2.300 . S
Cd176 O184 2.381 . S
Cd176 O185 2.378 . S
O177 Cd178 2.385 . S
O177 C182 1.255 . S
Cd178 O177 2.385 . S
Cd178 O179 2.317 . S
O179 Cd178 2.317 . S
O179 C180 1.232 . S
C180 O179 1.232 . S
C180 O181 1.218 . S
O181 C180 1.218 . S
C182 O175 1.275 . S
C182 O177 1.255 . S
C183 O184 1.258 . S
C183 O185 1.256 . S
O184 Cd176 2.381 . S
O184 C183 1.258 . S
O185 Cd176 2.378 . S
O185 C183 1.256 . S
C186 C187 1.363 . S
C186 C192 1.379 . S
C186 N194 1.356 . S
C187 C186 1.363 . S
C187 C193 1.363 . S
C188 C189 1.363 . S
C188 C193 1.379 . S
C188 N195 1.356 . S
C189 C188 1.363 . S
C189 C192 1.363 . S
N190 C192 1.356 . S
N190 H202 0.984 . S
N190 H203 0.985 . S
N191 C193 1.356 . S
N191 H196 0.984 . S
N191 H197 0.985 . S
C192 C186 1.379 . S
C192 C189 1.363 . S
C192 N190 1.356 . S
C193 C187 1.363 . S
C193 C188 1.379 . S
C193 N191 1.356 . S
N194 C186 1.356 . S
N194 H200 0.984 . S
N194 H201 0.984 . S
N195 C188 1.356 . S
N195 H198 0.984 . S
N195 H199 0.985 . S
H196 N191 0.984 . S
H197 N191 0.985 . S
H198 N195 0.984 . S
H199 N195 0.985 . S
H200 N194 0.984 . S
H201 N194 0.984 . S
H202 N190 0.984 . S
H203 N190 0.985 . S
C204 C205 1.363 . S
C204 C210 1.379 . S
C204 N212 1.356 . S
C205 C204 1.363 . S
C205 C211 1.363 . S
C206 C207 1.363 . S
C206 C211 1.379 . S
C206 N213 1.356 . S
C207 C206 1.363 . S
C207 C210 1.363 . S
N208 C210 1.356 . S
N208 H220 0.984 . S
N208 H221 0.985 . S
N209 C211 1.356 . S
N209 H214 0.984 . S
N209 H215 0.985 . S
C210 C204 1.379 . S
C210 C207 1.363 . S
C210 N208 1.356 . S
C211 C205 1.363 . S
C211 C206 1.379 . S
C211 N209 1.356 . S
N212 C204 1.356 . S
N212 H218 0.984 . S
N212 H219 0.984 . S
N213 C206 1.356 . S
N213 H216 0.984 . S
N213 H217 0.985 . S
H214 N209 0.984 . S
H215 N209 0.985 . S
H216 N213 0.984 . S
H217 N213 0.985 . S
H218 N212 0.984 . S
H219 N212 0.984 . S
H220 N208 0.984 . S
H221 N208 0.985 . S
C222 C223 1.363 . S
C222 C228 1.379 . S
C222 N230 1.356 . S
C223 C222 1.363 . S
C223 C229 1.363 . S
C224 C225 1.363 . S
C224 C229 1.379 . S
C224 N231 1.356 . S
C225 C224 1.363 . S
C225 C228 1.363 . S
N226 C228 1.356 . S
N226 H238 0.984 . S
N226 H239 0.985 . S
N227 C229 1.356 . S
N227 H232 0.984 . S
N227 H233 0.985 . S
C228 C222 1.379 . S
C228 C225 1.363 . S
C228 N226 1.356 . S
C229 C223 1.363 . S
C229 C224 1.379 . S
C229 N227 1.356 . S
N230 C222 1.356 . S
N230 H236 0.984 . S
N230 H237 0.984 . S
N231 C224 1.356 . S
N231 H234 0.984 . S
N231 H235 0.985 . S
H232 N227 0.984 . S
H233 N227 0.985 . S
H234 N231 0.984 . S
H235 N231 0.985 . S
H236 N230 0.984 . S
H237 N230 0.984 . S
H238 N226 0.984 . S
H239 N226 0.985 . S
C240 C241 1.363 . S
C240 C246 1.379 . S
C240 N248 1.356 . S
C241 C240 1.363 . S
C241 C247 1.363 . S
C242 C243 1.363 . S
C242 C247 1.379 . S
C242 N249 1.356 . S
C243 C242 1.363 . S
C243 C246 1.363 . S
N244 C246 1.356 . S
N244 H256 0.984 . S
N244 H257 0.985 . S
N245 C247 1.356 . S
N245 H250 0.984 . S
N245 H251 0.985 . S
C246 C240 1.379 . S
C246 C243 1.363 . S
C246 N244 1.356 . S
C247 C241 1.363 . S
C247 C242 1.379 . S
C247 N245 1.356 . S
N248 C240 1.356 . S
N248 H254 0.984 . S
N248 H255 0.984 . S
N249 C242 1.356 . S
N249 H252 0.984 . S
N249 H253 0.985 . S
H250 N245 0.984 . S
H251 N245 0.985 . S
H252 N249 0.984 . S
H253 N249 0.985 . S
H254 N248 0.984 . S
H255 N248 0.984 . S
H256 N244 0.984 . S
H257 N244 0.985 . S
C258 C259 1.363 . S
C258 C264 1.379 . S
C258 N266 1.356 . S
C259 C258 1.363 . S
C259 C265 1.363 . S
C260 C261 1.363 . S
C260 C265 1.379 . S
C260 N267 1.356 . S
C261 C260 1.363 . S
C261 C264 1.363 . S
N262 C264 1.356 . S
N262 H274 0.984 . S
N262 H275 0.985 . S
N263 C265 1.356 . S
N263 H268 0.984 . S
N263 H269 0.985 . S
C264 C258 1.379 . S
C264 C261 1.363 . S
C264 N262 1.356 . S
C265 C259 1.363 . S
C265 C260 1.379 . S
C265 N263 1.356 . S
N266 C258 1.356 . S
N266 H272 0.984 . S
N266 H273 0.984 . S
N267 C260 1.356 . S
N267 H270 0.984 . S
N267 H271 0.985 . S
H268 N263 0.984 . S
H269 N263 0.985 . S
H270 N267 0.984 . S
H271 N267 0.985 . S
H272 N266 0.984 . S
H273 N266 0.984 . S
H274 N262 0.984 . S
H275 N262 0.985 . S
C276 C277 1.363 . S
C276 C282 1.379 . S
C276 N284 1.356 . S
C277 C276 1.363 . S
C277 C283 1.363 . S
C278 C279 1.363 . S
C278 C283 1.379 . S
C278 N285 1.356 . S
C279 C278 1.363 . S
C279 C282 1.363 . S
N280 C282 1.356 . S
N280 H292 0.984 . S
N280 H293 0.985 . S
N281 C283 1.356 . S
N281 H286 0.984 . S
N281 H287 0.985 . S
C282 C276 1.379 . S
C282 C279 1.363 . S
C282 N280 1.356 . S
C283 C277 1.363 . S
C283 C278 1.379 . S
C283 N281 1.356 . S
N284 C276 1.356 . S
N284 H290 0.984 . S
N284 H291 0.984 . S
N285 C278 1.356 . S
N285 H288 0.984 . S
N285 H289 0.985 . S
H286 N281 0.984 . S
H287 N281 0.985 . S
H288 N285 0.984 . S
H289 N285 0.985 . S
H290 N284 0.984 . S
H291 N284 0.984 . S
H292 N280 0.984 . S
H293 N280 0.985 . S
C294 C295 1.363 . S
C294 C300 1.379 . S
C294 N302 1.356 . S
C295 C294 1.363 . S
C295 C301 1.363 . S
C296 C297 1.363 . S
C296 C301 1.379 . S
C296 N303 1.356 . S
C297 C296 1.363 . S
C297 C300 1.363 . S
N298 C300 1.356 . S
N298 H310 0.984 . S
N298 H311 0.985 . S
N299 C301 1.356 . S
N299 H304 0.984 . S
N299 H305 0.985 . S
C300 C294 1.379 . S
C300 C297 1.363 . S
C300 N298 1.356 . S
C301 C295 1.363 . S
C301 C296 1.379 . S
C301 N299 1.356 . S
N302 C294 1.356 . S
N302 H308 0.984 . S
N302 H309 0.984 . S
N303 C296 1.356 . S
N303 H306 0.984 . S
N303 H307 0.985 . S
H304 N299 0.984 . S
H305 N299 0.985 . S
H306 N303 0.984 . S
H307 N303 0.985 . S
H308 N302 0.984 . S
H309 N302 0.984 . S
H310 N298 0.984 . S
H311 N298 0.985 . S
C312 C313 1.363 . S
C312 C318 1.379 . S
C312 N320 1.356 . S
C313 C312 1.363 . S
C313 C319 1.363 . S
C314 C315 1.363 . S
C314 C319 1.379 . S
C314 N321 1.356 . S
C315 C314 1.363 . S
C315 C318 1.363 . S
N316 C318 1.356 . S
N316 H328 0.984 . S
N316 H329 0.985 . S
N317 C319 1.356 . S
N317 H322 0.984 . S
N317 H323 0.985 . S
C318 C312 1.379 . S
C318 C315 1.363 . S
C318 N316 1.356 . S
C319 C313 1.363 . S
C319 C314 1.379 . S
C319 N317 1.356 . S
N320 C312 1.356 . S
N320 H326 0.984 . S
N320 H327 0.984 . S
N321 C314 1.356 . S
N321 H324 0.984 . S
N321 H325 0.985 . S
H322 N317 0.984 . S
H323 N317 0.985 . S
H324 N321 0.984 . S
H325 N321 0.985 . S
H326 N320 0.984 . S
H327 N320 0.984 . S
H328 N316 0.984 . S
H329 N316 0.985 . S
C330 C331 1.363 . S
C330 C336 1.379 . S
C330 N338 1.356 . S
C331 C330 1.363 . S
C331 C337 1.363 . S
C332 C333 1.363 . S
C332 C337 1.379 . S
C332 N339 1.356 . S
C333 C332 1.363 . S
C333 C336 1.363 . S
N334 C336 1.356 . S
N334 H346 0.984 . S
N334 H347 0.985 . S
N335 C337 1.356 . S
N335 H340 0.984 . S
N335 H341 0.985 . S
C336 C330 1.379 . S
C336 C333 1.363 . S
C336 N334 1.356 . S
C337 C331 1.363 . S
C337 C332 1.379 . S
C337 N335 1.356 . S
N338 C330 1.356 . S
N338 H344 0.984 . S
N338 H345 0.984 . S
N339 C332 1.356 . S
N339 H342 0.984 . S
N339 H343 0.985 . S
H340 N335 0.984 . S
H341 N335 0.985 . S
H342 N339 0.984 . S
H343 N339 0.985 . S
H344 N338 0.984 . S
H345 N338 0.984 . S
H346 N334 0.984 . S
H347 N334 0.985 . S
C348 C349 1.363 . S
C348 C354 1.379 . S
C348 N356 1.356 . S
C349 C348 1.363 . S
C349 C355 1.363 . S
C350 C351 1.363 . S
C350 C355 1.379 . S
C350 N357 1.356 . S
C351 C350 1.363 . S
C351 C354 1.363 . S
N352 C354 1.356 . S
N352 H364 0.984 . S
N352 H365 0.985 . S
N353 C355 1.356 . S
N353 H358 0.984 . S
N353 H359 0.985 . S
C354 C348 1.379 . S
C354 C351 1.363 . S
C354 N352 1.356 . S
C355 C349 1.363 . S
C355 C350 1.379 . S
C355 N353 1.356 . S
N356 C348 1.356 . S
N356 H362 0.984 . S
N356 H363 0.984 . S
N357 C350 1.356 . S
N357 H360 0.984 . S
N357 H361 0.985 . S
H358 N353 0.984 . S
H359 N353 0.985 . S
H360 N357 0.984 . S
H361 N357 0.985 . S
H362 N356 0.984 . S
H363 N356 0.984 . S
H364 N352 0.984 . S
H365 N352 0.985 . S
C366 C367 1.363 . S
C366 C372 1.379 . S
C366 N374 1.356 . S
C367 C366 1.363 . S
C367 C373 1.363 . S
C368 C369 1.363 . S
C368 C373 1.379 . S
C368 N375 1.356 . S
C369 C368 1.363 . S
C369 C372 1.363 . S
N370 C372 1.356 . S
N370 H382 0.984 . S
N370 H383 0.985 . S
N371 C373 1.356 . S
N371 H376 0.984 . S
N371 H377 0.985 . S
C372 C366 1.379 . S
C372 C369 1.363 . S
C372 N370 1.356 . S
C373 C367 1.363 . S
C373 C368 1.379 . S
C373 N371 1.356 . S
N374 C366 1.356 . S
N374 H380 0.984 . S
N374 H381 0.984 . S
N375 C368 1.356 . S
N375 H378 0.984 . S
N375 H379 0.985 . S
H376 N371 0.984 . S
H377 N371 0.985 . S
H378 N375 0.984 . S
H379 N375 0.985 . S
H380 N374 0.984 . S
H381 N374 0.984 . S
H382 N370 0.984 . S
H383 N370 0.985 . S
C384 C385 1.363 . S
C384 C390 1.379 . S
C384 N392 1.356 . S
C385 C384 1.363 . S
C385 C391 1.363 . S
C386 C387 1.363 . S
C386 C391 1.379 . S
C386 N393 1.356 . S
C387 C386 1.363 . S
C387 C390 1.363 . S
N388 C390 1.356 . S
N388 H400 0.984 . S
N388 H401 0.985 . S
N389 C391 1.356 . S
N389 H394 0.984 . S
N389 H395 0.985 . S
C390 C384 1.379 . S
C390 C387 1.363 . S
C390 N388 1.356 . S
C391 C385 1.363 . S
C391 C386 1.379 . S
C391 N389 1.356 . S
N392 C384 1.356 . S
N392 H398 0.984 . S
N392 H399 0.984 . S
N393 C386 1.356 . S
N393 H396 0.984 . S
N393 H397 0.985 . S
H394 N389 0.984 . S
H395 N389 0.985 . S
H396 N393 0.984 . S
H397 N393 0.985 . S
H398 N392 0.984 . S
H399 N392 0.984 . S
H400 N388 0.984 . S
H401 N388 0.985 . S
C402 C403 1.363 . S
C402 C408 1.379 . S
C402 N410 1.356 . S
C403 C402 1.363 . S
C403 C409 1.363 . S
C404 C405 1.363 1_554 S
C404 C409 1.379 . S
C404 N411 1.356 1_554 S
C405 C404 1.363 1_556 S
C405 C408 1.363 1_556 S
N406 C408 1.356 1_556 S
N406 H418 0.984 . S
N406 H419 0.985 . S
N407 C409 1.356 . S
N407 H412 0.984 . S
N407 H413 0.985 . S
C408 C402 1.379 . S
C408 C405 1.363 1_554 S
C408 N406 1.356 1_554 S
C409 C403 1.363 . S
C409 C404 1.379 . S
C409 N407 1.356 . S
N410 C402 1.356 . S
N410 H416 0.984 . S
N410 H417 0.984 . S
N411 C404 1.356 1_556 S
N411 H414 0.984 . S
N411 H415 0.985 1_556 S
H412 N407 0.984 . S
H413 N407 0.985 . S
H414 N411 0.984 . S
H415 N411 0.985 1_554 S
H416 N410 0.984 . S
H417 N410 0.984 . S
H418 N406 0.984 . S
H419 N406 0.985 . S
C420 C421 1.363 . S
C420 C426 1.379 . S
C420 N428 1.356 . S
C421 C420 1.363 . S
C421 C427 1.363 1_545 S
C422 C423 1.363 1_565 S
C422 C427 1.379 . S
C422 N429 1.356 . S
C423 C422 1.363 1_545 S
C423 C426 1.363 . S
N424 C426 1.356 . S
N424 H436 0.984 . S
N424 H437 0.985 . S
N425 C427 1.356 . S
N425 H430 0.984 . S
N425 H431 0.985 . S
C426 C420 1.379 . S
C426 C423 1.363 . S
C426 N424 1.356 . S
C427 C421 1.363 1_565 S
C427 C422 1.379 . S
C427 N425 1.356 . S
N428 C420 1.356 . S
N428 H434 0.984 . S
N428 H435 0.984 . S
N429 C422 1.356 . S
N429 H432 0.984 . S
N429 H433 0.985 . S
H430 N425 0.984 . S
H431 N425 0.985 . S
H432 N429 0.984 . S
H433 N429 0.985 . S
H434 N428 0.984 . S
H435 N428 0.984 . S
H436 N424 0.984 . S
H437 N424 0.985 . S
C438 C439 1.363 . S
C438 C444 1.379 . S
C438 N446 1.356 . S
C439 C438 1.363 . S
C439 C445 1.363 . S
C440 C441 1.363 . S
C440 C445 1.379 . S
C440 N447 1.356 . S
C441 C440 1.363 . S
C441 C444 1.363 . S
N442 C444 1.356 . S
N442 H454 0.984 . S
N442 H455 0.985 . S
N443 C445 1.356 . S
N443 H448 0.984 . S
N443 H449 0.985 . S
C444 C438 1.379 . S
C444 C441 1.363 . S
C444 N442 1.356 . S
C445 C439 1.363 . S
C445 C440 1.379 . S
C445 N443 1.356 . S
N446 C438 1.356 . S
N446 H452 0.984 . S
N446 H453 0.984 . S
N447 C440 1.356 . S
N447 H450 0.984 . S
N447 H451 0.985 . S
H448 N443 0.984 . S
H449 N443 0.985 . S
H450 N447 0.984 . S
H451 N447 0.985 . S
H452 N446 0.984 . S
H453 N446 0.984 . S
H454 N442 0.984 . S
H455 N442 0.985 . S
C456 C457 1.363 . S
C456 C462 1.379 . S
C456 N464 1.356 . S
C457 C456 1.363 . S
C457 C463 1.363 1_545 S
C458 C459 1.363 1_565 S
C458 C463 1.379 . S
C458 N465 1.356 . S
C459 C458 1.363 1_545 S
C459 C462 1.363 . S
N460 C462 1.356 . S
N460 H472 0.984 . S
N460 H473 0.985 . S
N461 C463 1.356 . S
N461 H466 0.984 . S
N461 H467 0.985 . S
C462 C456 1.379 . S
C462 C459 1.363 . S
C462 N460 1.356 . S
C463 C457 1.363 1_565 S
C463 C458 1.379 . S
C463 N461 1.356 . S
N464 C456 1.356 . S
N464 H470 0.984 . S
N464 H471 0.984 . S
N465 C458 1.356 . S
N465 H468 0.984 . S
N465 H469 0.985 . S
H466 N461 0.984 . S
H467 N461 0.985 . S
H468 N465 0.984 . S
H469 N465 0.985 . S
H470 N464 0.984 . S
H471 N464 0.984 . S
H472 N460 0.984 . S
H473 N460 0.985 . S
C474 C475 1.363 . S
C474 C480 1.379 1_556 S
C474 N482 1.356 . S
C475 C474 1.363 . S
C475 C481 1.363 . S
C476 C477 1.363 1_556 S
C476 C481 1.379 . S
C476 N483 1.356 1_556 S
C477 C476 1.363 1_554 S
C477 C480 1.363 . S
N478 C480 1.356 . S
N478 H490 0.984 . S
N478 H491 0.985 . S
N479 C481 1.356 . S
N479 H484 0.984 . S
N479 H485 0.985 . S
C480 C474 1.379 1_554 S
C480 C477 1.363 . S
C480 N478 1.356 . S
C481 C475 1.363 . S
C481 C476 1.379 . S
C481 N479 1.356 . S
N482 C474 1.356 . S
N482 H488 0.984 . S
N482 H489 0.984 . S
N483 C476 1.356 1_554 S
N483 H486 0.984 . S
N483 H487 0.985 . S
H484 N479 0.984 . S
H485 N479 0.985 . S
H486 N483 0.984 . S
H487 N483 0.985 . S
H488 N482 0.984 . S
H489 N482 0.984 . S
H490 N478 0.984 . S
H491 N478 0.985 . S
C492 C493 1.363 . S
C492 C498 1.379 . S
C492 N500 1.356 . S
C493 C492 1.363 . S
C493 C499 1.363 1_455 S
C494 C495 1.363 . S
C494 C499 1.379 . S
C494 N501 1.356 . S
C495 C494 1.363 . S
C495 C498 1.363 1_655 S
N496 C498 1.356 . S
N496 H508 0.984 . S
N496 H509 0.985 . S
N497 C499 1.356 . S
N497 H502 0.984 . S
N497 H503 0.985 . S
C498 C492 1.379 . S
C498 C495 1.363 1_455 S
C498 N496 1.356 . S
C499 C493 1.363 1_655 S
C499 C494 1.379 . S
C499 N497 1.356 . S
N500 C492 1.356 . S
N500 H506 0.984 . S
N500 H507 0.984 . S
N501 C494 1.356 . S
N501 H504 0.984 . S
N501 H505 0.985 . S
H502 N497 0.984 . S
H503 N497 0.985 . S
H504 N501 0.984 . S
H505 N501 0.985 . S
H506 N500 0.984 . S
H507 N500 0.984 . S
H508 N496 0.984 . S
H509 N496 0.985 . S
C187 C7 0.995 . S
C189 C180 0.765 . S
C205 C51 2.029 . S
C207 C158 1.748 . S
C223 C87 1.202 . S
C225 C172 1.191 . S
C241 C16 0.623 . S
C243 C183 0.488 . S
C261 C161 1.877 . S
C259 C42 1.968 . S
C279 C169 1.277 . S
C277 C96 1.428 . S
C295 C47 1.358 . S
C297 C136 1.169 . S
C313 C91 3.262 . S
C315 C147 2.907 . S
C331 C2 2.137 . S
C333 C125 1.763 . S
C351 C139 1.194 . S
C349 C56 1.187 . S
C369 C150 2.889 . S
C367 C82 2.978 . S
C385 C11 1.868 . S
C387 C128 1.816 . S
C405 C149 1.675 . S
C403 C19 1.684 . S
C421 C50 1.401 . S
C423 C127 1.375 . S
C439 C99 1.526 . S
C441 C138 1.476 . S
C459 C171 1.430 . S
C457 C59 1.446 . S
C477 C182 1.129 . S
C475 C90 1.214 . S
C493 C10 1.417 . S
C495 C160 1.369 . S
