# Generated by pormake.
# Topology gar, (4,6)-cn, num edge types: 1
# Building blocks:
#     Node 0, Type 0, BuildingBlock: GALJAG_clean_sbu_0, # of connection points: 4
#     Node 1, Type 0, BuildingBlock: GALJAG_clean_sbu_0, # of connection points: 4
#     Node 2, Type 0, BuildingBlock: GALJAG_clean_sbu_0, # of connection points: 4
#     Node 3, Type 0, BuildingBlock: GALJAG_clean_sbu_0, # of connection points: 4
#     Node 4, Type 0, BuildingBlock: GALJAG_clean_sbu_0, # of connection points: 4
#     Node 5, Type 0, BuildingBlock: GALJAG_clean_sbu_0, # of connection points: 4
#     Node 6, Type 0, BuildingBlock: GALJAG_clean_sbu_0, # of connection points: 4
#     Node 7, Type 0, BuildingBlock: GALJAG_clean_sbu_0, # of connection points: 4
#     Node 8, Type 0, BuildingBlock: GALJAG_clean_sbu_0, # of connection points: 4
#     Node 9, Type 0, BuildingBlock: GALJAG_clean_sbu_0, # of connection points: 4
#     Node 10, Type 0, BuildingBlock: GALJAG_clean_sbu_0, # of connection points: 4
#     Node 11, Type 0, BuildingBlock: GALJAG_clean_sbu_0, # of connection points: 4
#     Node 12, Type 0, BuildingBlock: GALJAG_clean_sbu_0, # of connection points: 4
#     Node 13, Type 0, BuildingBlock: GALJAG_clean_sbu_0, # of connection points: 4
#     Node 14, Type 0, BuildingBlock: GALJAG_clean_sbu_0, # of connection points: 4
#     Node 15, Type 0, BuildingBlock: GALJAG_clean_sbu_0, # of connection points: 4
#     Node 16, Type 0, BuildingBlock: GALJAG_clean_sbu_0, # of connection points: 4
#     Node 17, Type 0, BuildingBlock: GALJAG_clean_sbu_0, # of connection points: 4
#     Node 18, Type 0, BuildingBlock: GALJAG_clean_sbu_0, # of connection points: 4
#     Node 19, Type 0, BuildingBlock: GALJAG_clean_sbu_0, # of connection points: 4
#     Node 20, Type 0, BuildingBlock: GALJAG_clean_sbu_0, # of connection points: 4
#     Node 21, Type 0, BuildingBlock: GALJAG_clean_sbu_0, # of connection points: 4
#     Node 22, Type 0, BuildingBlock: GALJAG_clean_sbu_0, # of connection points: 4
#     Node 23, Type 0, BuildingBlock: GALJAG_clean_sbu_0, # of connection points: 4
#     Node 24, Type 1, BuildingBlock: BETDEL_clean_sbu_0, # of connection points: 6
#     Node 25, Type 1, BuildingBlock: BETDEL_clean_sbu_0, # of connection points: 6
#     Node 26, Type 1, BuildingBlock: BETDEL_clean_sbu_0, # of connection points: 6
#     Node 27, Type 1, BuildingBlock: BETDEL_clean_sbu_0, # of connection points: 6
#     Node 28, Type 1, BuildingBlock: BETDEL_clean_sbu_0, # of connection points: 6
#     Node 29, Type 1, BuildingBlock: BETDEL_clean_sbu_0, # of connection points: 6
#     Node 30, Type 1, BuildingBlock: BETDEL_clean_sbu_0, # of connection points: 6
#     Node 31, Type 1, BuildingBlock: BETDEL_clean_sbu_0, # of connection points: 6
#     Node 32, Type 1, BuildingBlock: BETDEL_clean_sbu_0, # of connection points: 6
#     Node 33, Type 1, BuildingBlock: BETDEL_clean_sbu_0, # of connection points: 6
#     Node 34, Type 1, BuildingBlock: BETDEL_clean_sbu_0, # of connection points: 6
#     Node 35, Type 1, BuildingBlock: BETDEL_clean_sbu_0, # of connection points: 6
#     Node 36, Type 1, BuildingBlock: BETDEL_clean_sbu_0, # of connection points: 6
#     Node 37, Type 1, BuildingBlock: BETDEL_clean_sbu_0, # of connection points: 6
#     Node 38, Type 1, BuildingBlock: BETDEL_clean_sbu_0, # of connection points: 6
#     Node 39, Type 1, BuildingBlock: BETDEL_clean_sbu_0, # of connection points: 6
#     Edge 40, Type (0, 1), BuildingBlock: CIFDUS_clean_linker_0, # of connection points: 2
#     Edge 41, Type (0, 1), BuildingBlock: CIFDUS_clean_linker_0, # of connection points: 2
#     Edge 42, Type (0, 1), BuildingBlock: CIFDUS_clean_linker_0, # of connection points: 2
#     Edge 43, Type (0, 1), BuildingBlock: CIFDUS_clean_linker_0, # of connection points: 2
#     Edge 44, Type (0, 1), BuildingBlock: CIFDUS_clean_linker_0, # of connection points: 2
#     Edge 45, Type (0, 1), BuildingBlock: CIFDUS_clean_linker_0, # of connection points: 2
#     Edge 46, Type (0, 1), BuildingBlock: CIFDUS_clean_linker_0, # of connection points: 2
#     Edge 47, Type (0, 1), BuildingBlock: CIFDUS_clean_linker_0, # of connection points: 2
#     Edge 48, Type (0, 1), BuildingBlock: CIFDUS_clean_linker_0, # of connection points: 2
#     Edge 49, Type (0, 1), BuildingBlock: CIFDUS_clean_linker_0, # of connection points: 2
#     Edge 50, Type (0, 1), BuildingBlock: CIFDUS_clean_linker_0, # of connection points: 2
#     Edge 51, Type (0, 1), BuildingBlock: CIFDUS_clean_linker_0, # of connection points: 2
#     Edge 52, Type (0, 1), BuildingBlock: CIFDUS_clean_linker_0, # of connection points: 2
#     Edge 53, Type (0, 1), BuildingBlock: CIFDUS_clean_linker_0, # of connection points: 2
#     Edge 54, Type (0, 1), BuildingBlock: CIFDUS_clean_linker_0, # of connection points: 2
#     Edge 55, Type (0, 1), BuildingBlock: CIFDUS_clean_linker_0, # of connection points: 2
#     Edge 56, Type (0, 1), BuildingBlock: CIFDUS_clean_linker_0, # of connection points: 2
#     Edge 57, Type (0, 1), BuildingBlock: CIFDUS_clean_linker_0, # of connection points: 2
#     Edge 58, Type (0, 1), BuildingBlock: CIFDUS_clean_linker_0, # of connection points: 2
#     Edge 59, Type (0, 1), BuildingBlock: CIFDUS_clean_linker_0, # of connection points: 2
#     Edge 60, Type (0, 1), BuildingBlock: CIFDUS_clean_linker_0, # of connection points: 2
#     Edge 61, Type (0, 1), BuildingBlock: CIFDUS_clean_linker_0, # of connection points: 2
#     Edge 62, Type (0, 1), BuildingBlock: CIFDUS_clean_linker_0, # of connection points: 2
#     Edge 63, Type (0, 1), BuildingBlock: CIFDUS_clean_linker_0, # of connection points: 2
#     Edge 64, Type (0, 1), BuildingBlock: CIFDUS_clean_linker_0, # of connection points: 2
#     Edge 65, Type (0, 1), BuildingBlock: CIFDUS_clean_linker_0, # of connection points: 2
#     Edge 66, Type (0, 1), BuildingBlock: CIFDUS_clean_linker_0, # of connection points: 2
#     Edge 67, Type (0, 1), BuildingBlock: CIFDUS_clean_linker_0, # of connection points: 2
#     Edge 68, Type (0, 1), BuildingBlock: CIFDUS_clean_linker_0, # of connection points: 2
#     Edge 69, Type (0, 1), BuildingBlock: CIFDUS_clean_linker_0, # of connection points: 2
#     Edge 70, Type (0, 1), BuildingBlock: CIFDUS_clean_linker_0, # of connection points: 2
#     Edge 71, Type (0, 1), BuildingBlock: CIFDUS_clean_linker_0, # of connection points: 2
#     Edge 72, Type (0, 1), BuildingBlock: CIFDUS_clean_linker_0, # of connection points: 2
#     Edge 73, Type (0, 1), BuildingBlock: CIFDUS_clean_linker_0, # of connection points: 2
#     Edge 74, Type (0, 1), BuildingBlock: CIFDUS_clean_linker_0, # of connection points: 2
#     Edge 75, Type (0, 1), BuildingBlock: CIFDUS_clean_linker_0, # of connection points: 2
#     Edge 76, Type (0, 1), BuildingBlock: CIFDUS_clean_linker_0, # of connection points: 2
#     Edge 77, Type (0, 1), BuildingBlock: CIFDUS_clean_linker_0, # of connection points: 2
#     Edge 78, Type (0, 1), BuildingBlock: CIFDUS_clean_linker_0, # of connection points: 2
#     Edge 79, Type (0, 1), BuildingBlock: CIFDUS_clean_linker_0, # of connection points: 2
#     Edge 80, Type (0, 1), BuildingBlock: CIFDUS_clean_linker_0, # of connection points: 2
#     Edge 81, Type (0, 1), BuildingBlock: CIFDUS_clean_linker_0, # of connection points: 2
#     Edge 82, Type (0, 1), BuildingBlock: CIFDUS_clean_linker_0, # of connection points: 2
#     Edge 83, Type (0, 1), BuildingBlock: CIFDUS_clean_linker_0, # of connection points: 2
#     Edge 84, Type (0, 1), BuildingBlock: CIFDUS_clean_linker_0, # of connection points: 2
#     Edge 85, Type (0, 1), BuildingBlock: CIFDUS_clean_linker_0, # of connection points: 2
#     Edge 86, Type (0, 1), BuildingBlock: CIFDUS_clean_linker_0, # of connection points: 2
#     Edge 87, Type (0, 1), BuildingBlock: CIFDUS_clean_linker_0, # of connection points: 2
#     Edge 88, Type (0, 1), BuildingBlock: CIFDUS_clean_linker_0, # of connection points: 2
#     Edge 89, Type (0, 1), BuildingBlock: CIFDUS_clean_linker_0, # of connection points: 2
#     Edge 90, Type (0, 1), BuildingBlock: CIFDUS_clean_linker_0, # of connection points: 2
#     Edge 91, Type (0, 1), BuildingBlock: CIFDUS_clean_linker_0, # of connection points: 2
#     Edge 92, Type (0, 1), BuildingBlock: CIFDUS_clean_linker_0, # of connection points: 2
#     Edge 93, Type (0, 1), BuildingBlock: CIFDUS_clean_linker_0, # of connection points: 2
#     Edge 94, Type (0, 1), BuildingBlock: CIFDUS_clean_linker_0, # of connection points: 2
#     Edge 95, Type (0, 1), BuildingBlock: CIFDUS_clean_linker_0, # of connection points: 2
#     Edge 96, Type (0, 1), BuildingBlock: CIFDUS_clean_linker_0, # of connection points: 2
#     Edge 97, Type (0, 1), BuildingBlock: CIFDUS_clean_linker_0, # of connection points: 2
#     Edge 98, Type (0, 1), BuildingBlock: CIFDUS_clean_linker_0, # of connection points: 2
#     Edge 99, Type (0, 1), BuildingBlock: CIFDUS_clean_linker_0, # of connection points: 2
#     Edge 100, Type (0, 1), BuildingBlock: CIFDUS_clean_linker_0, # of connection points: 2
#     Edge 101, Type (0, 1), BuildingBlock: CIFDUS_clean_linker_0, # of connection points: 2
#     Edge 102, Type (0, 1), BuildingBlock: CIFDUS_clean_linker_0, # of connection points: 2
#     Edge 103, Type (0, 1), BuildingBlock: CIFDUS_clean_linker_0, # of connection points: 2
#     Edge 104, Type (0, 1), BuildingBlock: CIFDUS_clean_linker_0, # of connection points: 2
#     Edge 105, Type (0, 1), BuildingBlock: CIFDUS_clean_linker_0, # of connection points: 2
#     Edge 106, Type (0, 1), BuildingBlock: CIFDUS_clean_linker_0, # of connection points: 2
#     Edge 107, Type (0, 1), BuildingBlock: CIFDUS_clean_linker_0, # of connection points: 2
#     Edge 108, Type (0, 1), BuildingBlock: CIFDUS_clean_linker_0, # of connection points: 2
#     Edge 109, Type (0, 1), BuildingBlock: CIFDUS_clean_linker_0, # of connection points: 2
#     Edge 110, Type (0, 1), BuildingBlock: CIFDUS_clean_linker_0, # of connection points: 2
#     Edge 111, Type (0, 1), BuildingBlock: CIFDUS_clean_linker_0, # of connection points: 2
#     Edge 112, Type (0, 1), BuildingBlock: CIFDUS_clean_linker_0, # of connection points: 2
#     Edge 113, Type (0, 1), BuildingBlock: CIFDUS_clean_linker_0, # of connection points: 2
#     Edge 114, Type (0, 1), BuildingBlock: CIFDUS_clean_linker_0, # of connection points: 2
#     Edge 115, Type (0, 1), BuildingBlock: CIFDUS_clean_linker_0, # of connection points: 2
#     Edge 116, Type (0, 1), BuildingBlock: CIFDUS_clean_linker_0, # of connection points: 2
#     Edge 117, Type (0, 1), BuildingBlock: CIFDUS_clean_linker_0, # of connection points: 2
#     Edge 118, Type (0, 1), BuildingBlock: CIFDUS_clean_linker_0, # of connection points: 2
#     Edge 119, Type (0, 1), BuildingBlock: CIFDUS_clean_linker_0, # of connection points: 2
#     Edge 120, Type (0, 1), BuildingBlock: CIFDUS_clean_linker_0, # of connection points: 2
#     Edge 121, Type (0, 1), BuildingBlock: CIFDUS_clean_linker_0, # of connection points: 2
#     Edge 122, Type (0, 1), BuildingBlock: CIFDUS_clean_linker_0, # of connection points: 2
#     Edge 123, Type (0, 1), BuildingBlock: CIFDUS_clean_linker_0, # of connection points: 2
#     Edge 124, Type (0, 1), BuildingBlock: CIFDUS_clean_linker_0, # of connection points: 2
#     Edge 125, Type (0, 1), BuildingBlock: CIFDUS_clean_linker_0, # of connection points: 2
#     Edge 126, Type (0, 1), BuildingBlock: CIFDUS_clean_linker_0, # of connection points: 2
#     Edge 127, Type (0, 1), BuildingBlock: CIFDUS_clean_linker_0, # of connection points: 2
#     Edge 128, Type (0, 1), BuildingBlock: CIFDUS_clean_linker_0, # of connection points: 2
#     Edge 129, Type (0, 1), BuildingBlock: CIFDUS_clean_linker_0, # of connection points: 2
#     Edge 130, Type (0, 1), BuildingBlock: CIFDUS_clean_linker_0, # of connection points: 2
#     Edge 131, Type (0, 1), BuildingBlock: CIFDUS_clean_linker_0, # of connection points: 2
#     Edge 132, Type (0, 1), BuildingBlock: CIFDUS_clean_linker_0, # of connection points: 2
#     Edge 133, Type (0, 1), BuildingBlock: CIFDUS_clean_linker_0, # of connection points: 2
#     Edge 134, Type (0, 1), BuildingBlock: CIFDUS_clean_linker_0, # of connection points: 2
#     Edge 135, Type (0, 1), BuildingBlock: CIFDUS_clean_linker_0, # of connection points: 2
# Relax obj value: 0.165
# Max RMSD: 0.271
# Mean RMSD: 0.167
data_MOF--net-gar--node1-GALJAG_clean_sbu_0--node2-BETDEL_clean_sbu_0--edge1-CIFDUS_clean_linker_0
_symmetry_space_group_name_H-M    P1
_symmetry_Int_Tables_number       1
_symmetry_cell_setting            triclinic
loop_
_symmetry_equiv_pos_as_xyz
'x, y, z'
_cell_length_a     49.427146
_cell_length_b     46.691227
_cell_length_c     48.138853
_cell_angle_alpha  95.30912
_cell_angle_beta   92.31192
_cell_angle_gamma 100.16179
loop_
_atom_site_label
_atom_site_type_symbol
_atom_site_fract_x
_atom_site_fract_y
_atom_site_fract_z
_atom_type_partial_charge
In0 In 0.04284 0.27579 0.40413 0.0
O1 O 0.06598 0.25534 0.36875 0.0
O2 O 0.08385 0.2971 0.38872 0.0
C3 C 0.99216 0.27511 0.37995 0.0
C4 C 0.04285 0.22871 0.43319 0.0
C5 C 0.04649 0.3262 0.43778 0.0
O6 O 0.01379 0.28036 0.36679 0.0
O7 O 0.99612 0.26928 0.40466 0.0
O8 O 0.04824 0.30218 0.44713 0.0
O9 O 0.04353 0.32485 0.41156 0.0
C10 C 0.08575 0.27672 0.37027 0.0
O11 O 0.06094 0.25162 0.43782 0.0
O12 O 0.02542 0.22928 0.41344 0.0
In13 In 0.00869 0.77798 0.63847 0.0
O14 O 0.99874 0.80658 0.60486 0.0
O15 O 0.03523 0.82152 0.63094 0.0
C16 C 0.99628 0.72974 0.60139 0.0
C17 C 0.05423 0.76931 0.66737 0.0
C18 C 0.96634 0.78519 0.6711 0.0
O19 O 0.99896 0.75529 0.59413 0.0
O20 O 0.99916 0.72853 0.62737 0.0
O21 O 0.96867 0.76085 0.65871 0.0
O22 O 0.98508 0.80604 0.66673 0.0
C23 C 0.01986 0.82611 0.61082 0.0
O24 O 0.03303 0.77454 0.6791 0.0
O25 O 0.0528 0.76934 0.64118 0.0
In26 In 0.54423 0.77283 0.90626 0.0
O27 O 0.56489 0.74633 0.87343 0.0
O28 O 0.58793 0.7865 0.89268 0.0
C29 C 0.49796 0.77746 0.8762 0.0
C30 C 0.53949 0.72789 0.93871 0.0
C31 C 0.55053 0.8266 0.93459 0.0
O32 O 0.5202 0.7753 0.86495 0.0
O33 O 0.49882 0.77595 0.90217 0.0
O34 O 0.54067 0.8036 0.94527 0.0
O35 O 0.55849 0.82232 0.91024 0.0
C36 C 0.58717 0.76458 0.87505 0.0
O37 O 0.55862 0.74993 0.94294 0.0
O38 O 0.5231 0.72849 0.91808 0.0
In39 In 0.50138 0.26999 0.12893 0.0
O40 O 0.49236 0.23724 0.08911 0.0
O41 O 0.51112 0.2242 0.12506 0.0
C42 C 0.50447 0.31476 0.09579 0.0
C43 C 0.45654 0.26667 0.16034 0.0
C44 C 0.54843 0.27392 0.16089 0.0
O45 O 0.48517 0.29291 0.09301 0.0
O46 O 0.52192 0.31432 0.11551 0.0
O47 O 0.52551 0.2749 0.17134 0.0
O48 O 0.54774 0.27264 0.13454 0.0
C49 C 0.50246 0.21758 0.09997 0.0
O50 O 0.46092 0.24599 0.14341 0.0
O51 O 0.47451 0.28962 0.16115 0.0
In52 In 0.03652 0.7827 0.14766 0.0
O53 O 0.02652 0.75275 0.10682 0.0
O54 O 0.04621 0.73629 0.14016 0.0
C55 C 0.03399 0.83251 0.12372 0.0
C56 C 0.98735 0.77384 0.17132 0.0
C57 C 0.08444 0.79359 0.17946 0.0
O58 O 0.04578 0.81275 0.11275 0.0
O59 O 0.02478 0.82775 0.14722 0.0
O60 O 0.062 0.7811 0.18803 0.0
O61 O 0.08267 0.80097 0.15496 0.0
C62 C 0.03611 0.73169 0.11535 0.0
O63 O 0.00967 0.78283 0.1857 0.0
O64 O 0.99008 0.76849 0.14556 0.0
In65 In 0.49968 0.76252 0.38121 0.0
O66 O 0.53598 0.78381 0.35747 0.0
O67 O 0.52266 0.7379 0.34954 0.0
C68 C 0.44889 0.75001 0.35435 0.0
C69 C 0.50993 0.72521 0.41876 0.0
C70 C 0.50217 0.81729 0.40659 0.0
O71 O 0.46992 0.74317 0.34342 0.0
O72 O 0.45325 0.76187 0.3791 0.0
O73 O 0.50636 0.79619 0.41978 0.0
O74 O 0.49761 0.81097 0.38058 0.0
C75 C 0.53957 0.76012 0.3445 0.0
O76 O 0.52836 0.74413 0.41038 0.0
O77 O 0.48597 0.72528 0.40861 0.0
In78 In 0.54971 0.29844 0.64665 0.0
O79 O 0.56441 0.26531 0.61541 0.0
O80 O 0.52314 0.25565 0.62729 0.0
C81 C 0.55284 0.34094 0.6115 0.0
C82 C 0.50796 0.30079 0.68112 0.0
C83 C 0.595 0.30189 0.68129 0.0
O84 O 0.57173 0.34019 0.62969 0.0
O85 O 0.53283 0.31998 0.61064 0.0
O86 O 0.57884 0.31993 0.68428 0.0
O87 O 0.58828 0.2825 0.66104 0.0
C88 C 0.54186 0.24755 0.61308 0.0
O89 O 0.52123 0.27999 0.67984 0.0
O90 O 0.516 0.32033 0.66538 0.0
In91 In 0.00935 0.25315 0.87599 0.0
O92 O 0.00486 0.22791 0.91491 0.0
O93 O 0.01693 0.20652 0.87787 0.0
C94 C 0.00841 0.30629 0.90368 0.0
C95 C 0.05754 0.26283 0.85047 0.0
C96 C 0.96049 0.23975 0.84576 0.0
O97 O 0.01225 0.2846 0.91614 0.0
O98 O 0.00637 0.3015 0.87742 0.0
O99 O 0.98258 0.23445 0.83604 0.0
O100 O 0.9628 0.25 0.87105 0.0
C101 C 0.01227 0.2054 0.90334 0.0
O102 O 0.03507 0.26607 0.83897 0.0
O103 O 0.05593 0.25595 0.87515 0.0
In104 In 0.42352 0.03792 0.27933 0.0
O105 O 0.45554 0.01814 0.25513 0.0
O106 O 0.45021 0.06119 0.2481 0.0
C107 C 0.44825 0.04199 0.33053 0.0
C108 C 0.39097 0.07839 0.27906 0.0
C109 C 0.38837 0.98658 0.27155 0.0
O110 O 0.46119 0.05122 0.31008 0.0
O111 O 0.42325 0.03103 0.32495 0.0
O112 O 0.39584 0.00091 0.25134 0.0
O113 O 0.39961 0.99749 0.29498 0.0
C114 C 0.46269 0.04027 0.24211 0.0
O115 O 0.3876 0.05631 0.26138 0.0
O116 O 0.41157 0.08084 0.29593 0.0
In117 In 0.26907 0.15044 0.50267 0.0
O118 O 0.26264 0.19014 0.5325 0.0
O119 O 0.28371 0.15941 0.54924 0.0
C120 C 0.27206 0.17649 0.45374 0.0
C121 C 0.31038 0.11849 0.50287 0.0
C122 C 0.21624 0.12112 0.50312 0.0
O123 O 0.2852 0.18842 0.47611 0.0
O124 O 0.25769 0.1518 0.45614 0.0
O125 O 0.23518 0.10911 0.49304 0.0
O126 O 0.22396 0.14752 0.51249 0.0
C127 C 0.27376 0.18234 0.55392 0.0
O128 O 0.28651 0.10911 0.51037 0.0
O129 O 0.31346 0.14394 0.49513 0.0
In130 In 0.14876 0.00884 0.79036 0.0
O131 O 0.10879 0.01084 0.76528 0.0
O132 O 0.1449 0.01048 0.74292 0.0
C133 C 0.12284 0.00762 0.83966 0.0
C134 C 0.17324 0.96054 0.78314 0.0
C135 C 0.17947 0.06309 0.79076 0.0
O136 O 0.1135 0.99104 0.81798 0.0
O137 O 0.14533 0.02417 0.83667 0.0
O138 O 0.18978 0.04156 0.7974 0.0
O139 O 0.15394 0.05729 0.78461 0.0
C140 C 0.11963 0.01201 0.74199 0.0
O141 O 0.18609 0.98517 0.79366 0.0
O142 O 0.14824 0.96025 0.77662 0.0
In143 In 0.26625 0.89714 0.01346 0.0
O144 O 0.28699 0.86776 0.03876 0.0
O145 O 0.24542 0.87023 0.04661 0.0
C146 C 0.27016 0.86369 0.96568 0.0
C147 C 0.22533 0.92836 0.01016 0.0
C148 C 0.31189 0.93829 0.0215 0.0
O149 O 0.25135 0.85669 0.9821 0.0
O150 O 0.28657 0.88714 0.97352 0.0
O151 O 0.30119 0.92544 0.04141 0.0
O152 O 0.29898 0.93104 0.99807 0.0
C153 C 0.26648 0.85966 0.05267 0.0
O154 O 0.24255 0.93218 0.03077 0.0
O155 O 0.22814 0.90816 0.9919 0.0
In156 In 0.27352 0.38275 0.03899 0.0
O157 O 0.28836 0.37965 0.08427 0.0
O158 O 0.26144 0.34272 0.06421 0.0
C159 C 0.26999 0.351 0.98784 0.0
C160 C 0.22832 0.40868 0.04107 0.0
C161 C 0.32123 0.42208 0.03902 0.0
O162 O 0.253 0.36702 0.99524 0.0
O163 O 0.28836 0.35003 0.00652 0.0
O164 O 0.30059 0.42794 0.05153 0.0
O165 O 0.31774 0.3966 0.02661 0.0
C166 C 0.27514 0.35436 0.08632 0.0
O167 O 0.22936 0.38453 0.05049 0.0
O168 O 0.25017 0.41997 0.0305 0.0
In169 In 0.79042 0.15038 0.02821 0.0
O170 O 0.81447 0.11645 0.00987 0.0
O171 O 0.82104 0.12993 0.05316 0.0
C172 C 0.73975 0.11934 0.03203 0.0
C173 C 0.79405 0.19572 0.06761 0.0
C174 C 0.79227 0.17302 0.97886 0.0
O175 O 0.7594 0.11756 0.04898 0.0
O176 O 0.74573 0.13681 0.01388 0.0
O177 O 0.8043 0.1873 1.00082 0.0
O178 O 0.78066 0.14731 0.9818 0.0
C179 C 0.8265 0.11358 0.03268 0.0
O180 O 0.81464 0.19129 0.0542 0.0
O181 O 0.77211 0.17781 0.06059 0.0
In182 In 0.13619 0.50177 0.2467 0.0
O183 O 0.15564 0.47757 0.27889 0.0
O184 O 0.17007 0.47539 0.23803 0.0
C185 C 0.16309 0.55712 0.24752 0.0
C186 C 0.11262 0.48329 0.19532 0.0
C187 C 0.09627 0.50442 0.28241 0.0
O188 O 0.16926 0.54007 0.26462 0.0
O189 O 0.14321 0.54635 0.23033 0.0
O190 O 0.11112 0.52689 0.27485 0.0
O191 O 0.10108 0.48035 0.27132 0.0
C192 C 0.17218 0.46843 0.26257 0.0
O193 O 0.09975 0.47941 0.21715 0.0
O194 O 0.13759 0.49501 0.19962 0.0
In195 In 0.77371 0.88561 0.53173 0.0
O196 O 0.75441 0.84401 0.55213 0.0
O197 O 0.77966 0.87789 0.57819 0.0
C198 C 0.77868 0.86089 0.47886 0.0
C199 C 0.73109 0.91576 0.52715 0.0
C200 C 0.82671 0.9146 0.5371 0.0
O201 O 0.76699 0.84623 0.4973 0.0
O202 O 0.78746 0.88745 0.48709 0.0
O203 O 0.80645 0.9278 0.53793 0.0
O204 O 0.82016 0.88703 0.5347 0.0
C205 C 0.76479 0.85286 0.57647 0.0
O206 O 0.75008 0.9229 0.54612 0.0
O207 O 0.73349 0.8936 0.51114 0.0
In208 In 0.89045 0.0339 0.23551 0.0
O209 O 0.92596 0.05369 0.20885 0.0
O210 O 0.89719 0.01766 0.19014 0.0
C211 C 0.91916 0.0276 0.28324 0.0
C212 C 0.86727 0.08297 0.24513 0.0
C213 C 0.85604 0.9813 0.23207 0.0
O214 O 0.92996 0.0292 0.25996 0.0
O215 O 0.89407 0.02988 0.28258 0.0
O216 O 0.8485 0.00386 0.22406 0.0
O217 O 0.88076 0.98529 0.2414 0.0
C218 C 0.91884 0.03572 0.18756 0.0
O219 O 0.85426 0.05944 0.23244 0.0
O220 O 0.89182 0.08188 0.25237 0.0
In221 In 0.28375 0.65173 0.53402 0.0
O222 O 0.3047 0.61618 0.51352 0.0
O223 O 0.31729 0.63247 0.55552 0.0
C224 C 0.23524 0.61617 0.52033 0.0
C225 C 0.28133 0.68302 0.58327 0.0
C226 C 0.29227 0.69286 0.49828 0.0
O227 O 0.24786 0.61758 0.54382 0.0
O228 O 0.24732 0.63243 0.50341 0.0
O229 O 0.27088 0.68826 0.51182 0.0
O230 O 0.30973 0.67691 0.50308 0.0
C231 C 0.31977 0.61468 0.53486 0.0
O232 O 0.30108 0.68906 0.56772 0.0
O233 O 0.26327 0.66133 0.57401 0.0
In234 In 0.38617 0.53014 0.73879 0.0
O235 O 0.3517 0.55409 0.72469 0.0
O236 O 0.37658 0.57314 0.76064 0.0
C237 C 0.35561 0.47566 0.73768 0.0
C238 C 0.41468 0.53296 0.69124 0.0
C239 C 0.41741 0.52868 0.78622 0.0
O240 O 0.34509 0.49747 0.73239 0.0
O241 O 0.38126 0.48132 0.74305 0.0
O242 O 0.42781 0.53521 0.76355 0.0
O243 O 0.39143 0.52424 0.78522 0.0
C244 C 0.35661 0.57471 0.74405 0.0
O245 O 0.3955 0.51232 0.69496 0.0
O246 O 0.41953 0.55275 0.71143 0.0
In247 In 0.64565 0.01468 0.74462 0.0
O248 O 0.67682 0.99147 0.76464 0.0
O249 O 0.66092 0.97544 0.72342 0.0
C250 C 0.68513 0.06214 0.75597 0.0
C251 C 0.61757 0.01626 0.69614 0.0
C252 C 0.60622 0.01417 0.78142 0.0
O253 O 0.66966 0.05205 0.77434 0.0
O254 O 0.68036 0.04848 0.73192 0.0
O255 O 0.61483 0.03598 0.76853 0.0
O256 O 0.61741 0.99221 0.7756 0.0
C257 C 0.67752 0.97371 0.74349 0.0
O258 O 0.63751 0.03586 0.70572 0.0
O259 O 0.6116 0.99541 0.71106 0.0
In260 In 0.77236 0.65008 0.99652 0.0
O261 O 0.79405 0.61191 0.00637 0.0
O262 O 0.81652 0.64611 0.98605 0.0
C263 C 0.7234 0.61215 0.99471 0.0
C264 C 0.77652 0.68147 0.04818 0.0
C265 C 0.7724 0.67963 0.94953 0.0
O266 O 0.74425 0.60561 0.9831 0.0
O267 O 0.72731 0.63757 0.00729 0.0
O268 O 0.78338 0.69156 0.97285 0.0
O269 O 0.76125 0.6533 0.95006 0.0
C270 C 0.81644 0.62205 0.99608 0.0
O271 O 0.75718 0.6815 0.03027 0.0
O272 O 0.79402 0.6665 0.03979 0.0
In273 In 0.91674 0.54932 0.79259 0.0
O274 O 0.88739 0.57162 0.7681 0.0
O275 O 0.89609 0.586 0.81111 0.0
C276 C 0.88322 0.49807 0.79698 0.0
C277 C 0.9476 0.54021 0.74911 0.0
C278 C 0.95021 0.56272 0.839 0.0
O279 O 0.87762 0.5159 0.78046 0.0
O280 O 0.90587 0.50588 0.81092 0.0
O281 O 0.95892 0.56801 0.81534 0.0
O282 O 0.92489 0.55224 0.83888 0.0
C283 C 0.88246 0.58789 0.78892 0.0
O284 O 0.94558 0.56569 0.75915 0.0
O285 O 0.93458 0.51981 0.76136 0.0
In286 In 0.75993 0.40721 0.50294 0.0
O287 O 0.74375 0.37763 0.53631 0.0
O288 O 0.78538 0.38001 0.5258 0.0
C289 C 0.7604 0.37625 0.45304 0.0
C290 C 0.71723 0.43644 0.50474 0.0
C291 C 0.80613 0.44762 0.50964 0.0
O292 O 0.74958 0.36472 0.47362 0.0
O293 O 0.77009 0.40321 0.4576 0.0
O294 O 0.79279 0.43921 0.5301 0.0
O295 O 0.79565 0.43627 0.48599 0.0
C296 C 0.76649 0.36951 0.5407 0.0
O297 O 0.73796 0.44318 0.52164 0.0
O298 O 0.71755 0.41436 0.48773 0.0
In299 In 0.64671 0.50699 0.291 0.0
O300 O 0.68266 0.48217 0.29866 0.0
O301 O 0.65121 0.46307 0.26806 0.0
C302 C 0.6795 0.56056 0.29617 0.0
C303 C 0.61747 0.51313 0.24377 0.0
C304 C 0.61557 0.49941 0.33643 0.0
O305 O 0.65486 0.55585 0.28659 0.0
O306 O 0.68775 0.53826 0.3039 0.0
O307 O 0.6132 0.48072 0.31545 0.0
O308 O 0.63403 0.52143 0.33486 0.0
C309 C 0.67364 0.46107 0.28043 0.0
O310 O 0.60638 0.5089 0.26659 0.0
O311 O 0.64309 0.51345 0.24464 0.0
Dy312 Dy 0.99363 0.01274 0.01093 0.0
C313 C 0.11023 0.0264 0.01936 0.0
C314 C 0.93939 0.01532 0.01519 0.0
Dy315 Dy 0.05621 0.03077 0.02276 0.0
O316 O 0.94954 0.00335 0.99343 0.0
O317 O 0.95877 0.02506 0.03438 0.0
O318 O 1.00011 0.98493 0.97176 0.0
O319 O 0.02869 0.02297 0.9855 0.0
C320 C 0.02391 1.00072 0.96786 0.0
C321 C 0.02547 0.0422 0.06581 0.0
O322 O 0.0492 0.07009 0.00219 0.0
O323 O 1.00175 0.06127 0.00615 0.0
O324 O 0.10036 0.04018 0.04029 0.0
O325 O 0.09077 0.01625 1.00033 0.0
O326 O 0.04916 0.05837 0.06215 0.0
O327 O 0.02119 0.02018 0.04798 0.0
O328 O 1.00067 0.97296 0.03062 0.0
O329 O 0.04815 0.98226 0.02725 0.0
C330 C 0.02491 0.07842 1.00053 0.0
C331 C 0.02502 0.9648 0.03234 0.0
Dy332 Dy 0.26394 0.78 0.24924 0.0
C333 C 0.26716 0.77616 0.36783 0.0
C334 C 0.25662 0.78563 0.19381 0.0
Dy335 Dy 0.25792 0.78429 0.31333 0.0
O336 O 0.28027 0.78608 0.20682 0.0
O337 O 0.23711 0.78179 0.21102 0.0
O338 O 0.30071 0.75793 0.25485 0.0
O339 O 0.29184 0.78881 0.28609 0.0
C340 C 0.30719 0.77057 0.28011 0.0
C341 C 0.21455 0.79446 0.2833 0.0
O342 O 0.28029 0.8293 0.30931 0.0
O343 O 0.27159 0.8286 0.26136 0.0
O344 O 0.28101 0.76768 0.34733 0.0
O345 O 0.24785 0.78912 0.35864 0.0
O346 O 0.22016 0.80465 0.30939 0.0
O347 O 0.22979 0.77625 0.27651 0.0
O348 O 0.24472 0.73388 0.25257 0.0
O349 O 0.24825 0.73575 0.30118 0.0
C350 C 0.28052 0.84271 0.28618 0.0
C351 C 0.24262 0.72112 0.27603 0.0
Dy352 Dy 0.56081 0.0281 0.517 0.0
C353 C 0.44852 0.05021 0.50222 0.0
C354 C 0.61015 0.00991 0.52552 0.0
Dy355 Dy 0.49647 0.0308 0.51497 0.0
O356 O 0.59643 0.0081 0.50165 0.0
O357 O 0.59729 0.02255 0.54484 0.0
O358 O 0.5652 0.05187 0.47825 0.0
O359 O 0.52775 0.02519 0.48558 0.0
C360 C 0.53935 0.04325 0.47006 0.0
C361 C 0.51835 0.0171 0.56254 0.0
O362 O 0.49595 0.9863 0.49296 0.0
O363 O 0.53812 0.98128 0.51358 0.0
O364 O 0.45064 0.02984 0.51856 0.0
O365 O 0.47234 0.05915 0.49248 0.0
O366 O 0.49227 0.00876 0.55519 0.0
O367 O 0.52946 0.03408 0.54598 0.0
O368 O 0.56413 0.07477 0.53481 0.0
O369 O 0.51769 0.07761 0.52634 0.0
C370 C 0.51442 0.97003 0.49933 0.0
C371 C 0.54357 0.08978 0.5346 0.0
Dy372 Dy 0.25558 0.26242 0.77248 0.0
C373 C 0.37242 0.2733 0.76573 0.0
C374 C 0.20198 0.25086 0.78651 0.0
Dy375 Dy 0.31797 0.26226 0.77681 0.0
O376 O 0.21164 0.27011 0.76983 0.0
O377 O 0.22134 0.23746 0.79451 0.0
O378 O 0.26214 0.30312 0.75026 0.0
O379 O 0.29254 0.29585 0.7792 0.0
C380 C 0.28714 0.3121 0.76099 0.0
C381 C 0.28609 0.21306 0.7891 0.0
O382 O 0.31476 0.28344 0.82003 0.0
O383 O 0.2669 0.27427 0.81874 0.0
O384 O 0.361 0.25231 0.77972 0.0
O385 O 0.35421 0.28849 0.75838 0.0
O386 O 0.31093 0.22234 0.80014 0.0
O387 O 0.28095 0.22884 0.77036 0.0
O388 O 0.259 0.24103 0.72907 0.0
O389 O 0.30698 0.25003 0.73073 0.0
C390 C 0.29124 0.2831 0.83256 0.0
C391 C 0.28271 0.24105 0.71687 0.0
Dy392 Dy 0.00971 0.00864 0.48273 0.0
C393 C 0.06033 0.04207 0.59248 0.0
C394 C 0.97928 0.99902 0.43277 0.0
Dy395 Dy 0.02972 0.03305 0.54263 0.0
O396 O 0.00576 1.00047 0.43562 0.0
O397 O 0.96939 0.00159 0.45727 0.0
O398 O 0.05282 0.00259 0.47356 0.0
O399 O 0.04663 0.03732 0.50197 0.0
C400 C 0.0646 0.02427 0.49144 0.0
C401 C 0.97476 0.01689 0.53407 0.0
O402 O 0.03059 0.07598 0.52488 0.0
O403 O 0.00237 0.05512 0.4859 0.0
O404 O 0.03405 0.04202 0.5897 0.0
O405 O 0.06998 0.03855 0.56795 0.0
O406 O 0.98649 0.0389 0.55162 0.0
O407 O 0.99291 0.0041 0.52355 0.0
O408 O 0.00905 0.96571 0.49991 0.0
O409 O 0.03601 0.98605 0.53988 0.0
C410 C 0.01513 0.0784 0.5023 0.0
C411 C 0.02368 0.96294 0.52292 0.0
Dy412 Dy 0.30481 0.79034 0.78473 0.0
C413 C 0.1982 0.74394 0.73051 0.0
C414 C 0.35337 0.80421 0.81609 0.0
Dy415 Dy 0.24568 0.75769 0.76362 0.0
O416 O 0.35066 0.80622 0.78941 0.0
O417 O 0.32943 0.79571 0.8257 0.0
O418 O 0.31348 0.80163 0.74098 0.0
O419 O 0.28635 0.76342 0.74776 0.0
C420 C 0.2958 0.77925 0.72942 0.0
C421 C 0.25468 0.76835 0.81895 0.0
O422 O 0.26685 0.71864 0.76209 0.0
O423 O 0.30563 0.74263 0.78945 0.0
O424 O 0.20023 0.7398 0.75683 0.0
O425 O 0.22223 0.75463 0.72224 0.0
O426 O 0.2368 0.74614 0.80728 0.0
O427 O 0.26413 0.7843 0.80067 0.0
O428 O 0.28432 0.82965 0.78606 0.0
O429 O 0.24394 0.80578 0.76114 0.0
C430 C 0.2903 0.71832 0.7766 0.0
C431 C 0.26009 0.83009 0.77314 0.0
Dy432 Dy 0.52554 0.02839 0.04141 0.0
C433 C 0.52993 0.00996 0.92156 0.0
C434 C 0.52638 0.04763 0.09645 0.0
Dy435 Dy 0.52302 0.02342 0.97655 0.0
O436 O 0.53828 0.02643 0.08651 0.0
O437 O 0.51425 0.05816 0.07634 0.0
O438 O 0.5125 0.97966 0.04026 0.0
O439 O 0.53562 0.99751 0.00842 0.0
C440 C 0.52275 0.9742 0.01632 0.0
C441 C 0.50912 0.0719 0.00189 0.0
O442 O 0.48126 1.00046 0.98445 0.0
O443 O 0.48036 0.02195 0.02979 0.0
O444 O 0.53247 0.03631 0.93393 0.0
O445 O 0.52334 0.99081 0.93921 0.0
O446 O 0.49823 0.05988 0.97761 0.0
O447 O 0.52762 0.05867 0.00982 0.0
O448 O 0.57001 0.04495 0.03507 0.0
O449 O 0.56814 0.03768 0.98625 0.0
C450 C 0.46782 0.00714 0.00663 0.0
C451 C 0.58186 0.04585 0.01078 0.0
Dy452 Dy 0.27713 0.2995 0.27825 0.0
C453 C 0.28031 0.18019 0.26816 0.0
C454 C 0.27178 0.3563 0.27648 0.0
Dy455 Dy 0.26868 0.23413 0.26312 0.0
O456 O 0.27044 0.34274 0.2989 0.0
O457 O 0.27656 0.33897 0.2554 0.0
O458 O 0.30184 0.29558 0.31766 0.0
O459 O 0.26943 0.26184 0.30211 0.0
C460 C 0.28883 0.26931 0.32067 0.0
C461 C 0.25678 0.26382 0.22051 0.0
O462 O 0.22757 0.2355 0.28015 0.0
O463 O 0.23093 0.28552 0.27862 0.0
O464 O 0.26607 0.1867 0.24701 0.0
O465 O 0.28708 0.20279 0.2864 0.0
O466 O 0.24438 0.2372 0.22323 0.0
O467 O 0.27596 0.27159 0.23927 0.0
O468 O 0.31922 0.29892 0.26337 0.0
O469 O 0.31381 0.24838 0.25582 0.0
C470 C 0.21656 0.25947 0.28254 0.0
C471 C 0.32901 0.27489 0.25593 0.0
Dy472 Dy 0.51358 0.50718 0.98238 0.0
C473 C 0.55709 0.54299 0.09519 0.0
C474 C 0.48442 0.49676 0.93167 0.0
Dy475 Dy 0.52839 0.53156 0.04444 0.0
O476 O 0.51114 0.50175 0.93509 0.0
O477 O 0.47385 0.49612 0.9559 0.0
O478 O 0.55876 0.50811 0.97562 0.0
O479 O 0.54653 0.53873 0.00483 0.0
C480 C 0.56703 0.52944 0.99522 0.0
C481 C 0.47493 0.50916 0.03163 0.0
O482 O 0.52577 0.57405 0.02734 0.0
O483 O 0.50186 0.55208 0.98602 0.0
O484 O 0.53047 0.5398 0.09152 0.0
O485 O 0.56791 0.54106 0.07112 0.0
O486 O 0.48322 0.5304 0.0513 0.0
O487 O 0.4955 0.50004 0.02203 0.0
O488 O 0.51658 0.4646 0.99964 0.0
O489 O 0.5399 0.48667 0.0413 0.0
C490 C 0.5115 0.57561 0.00372 0.0
C491 C 0.53057 0.46314 0.02352 0.0
Dy492 Dy 0.80341 0.28836 0.27355 0.0
C493 C 0.69301 0.25136 0.22652 0.0
C494 C 0.85399 0.2995 0.30131 0.0
Dy495 Dy 0.7418 0.25971 0.25745 0.0
O496 O 0.8486 0.30811 0.27707 0.0
O497 O 0.83152 0.28589 0.31075 0.0
O498 O 0.81029 0.29641 0.2284 0.0
O499 O 0.78077 0.26183 0.23848 0.0
C500 C 0.79001 0.27564 0.21878 0.0
C501 C 0.75504 0.2716 0.31233 0.0
O502 O 0.76005 0.21856 0.25404 0.0
O503 O 0.80246 0.23993 0.27655 0.0
O504 O 0.69561 0.24418 0.2519 0.0
O505 O 0.71691 0.26214 0.21815 0.0
O506 O 0.73533 0.25041 0.30206 0.0
O507 O 0.76429 0.28614 0.29296 0.0
O508 O 0.78506 0.32937 0.27739 0.0
O509 O 0.74298 0.30805 0.2545 0.0
C510 C 0.78462 0.21645 0.26541 0.0
C511 C 0.76068 0.33148 0.26575 0.0
Dy512 Dy 0.01893 0.52731 0.54605 0.0
C513 C 0.0315 0.5384 0.4257 0.0
C514 C 0.01295 0.53492 0.60191 0.0
Dy515 Dy 0.02159 0.53786 0.48065 0.0
O516 O 0.03006 0.55226 0.58845 0.0
O517 O 0.99937 0.51351 0.58492 0.0
O518 O 0.02657 0.48054 0.54136 0.0
O519 O 0.02383 0.50361 0.5071 0.0
C520 C 0.02758 0.4794 0.51431 0.0
C521 C 0.00525 0.57966 0.51444 0.0
O522 O 0.97908 0.51338 0.48244 0.0
O523 O 0.97499 0.52389 0.53033 0.0
O524 O 0.03984 0.56015 0.44472 0.0
O525 O 0.01766 0.51633 0.43668 0.0
O526 O 0.9992 0.57584 0.48767 0.0
O527 O 0.02232 0.56384 0.52055 0.0
O528 O 0.06392 0.54257 0.5437 0.0
O529 O 0.06597 0.54198 0.495 0.0
C530 C 0.96415 0.51456 0.50466 0.0
C531 C 0.07777 0.5451 0.52071 0.0
Dy532 Dy 0.73561 0.77507 0.26056 0.0
C533 C 0.84999 0.77399 0.25264 0.0
C534 C 0.6815 0.77621 0.27002 0.0
Dy535 Dy 0.79594 0.76772 0.2648 0.0
O536 O 0.70035 0.79888 0.26781 0.0
O537 O 0.69207 0.75264 0.26639 0.0
O538 O 0.74795 0.81457 0.23729 0.0
O539 O 0.77515 0.80489 0.26819 0.0
C540 C 0.77245 0.82162 0.24957 0.0
C541 C 0.76031 0.72036 0.27552 0.0
O542 O 0.79295 0.79054 0.30758 0.0
O543 O 0.74554 0.77694 0.30697 0.0
O544 O 0.83959 0.76089 0.27352 0.0
O545 O 0.83109 0.78405 0.23911 0.0
O546 O 0.78565 0.72646 0.28583 0.0
O547 O 0.75673 0.73773 0.2577 0.0
O548 O 0.73704 0.75515 0.21649 0.0
O549 O 0.78448 0.75733 0.21837 0.0
C550 C 0.76965 0.78703 0.32073 0.0
C551 C 0.76012 0.75208 0.2042 0.0
Dy552 Dy 0.78476 0.27994 0.73181 0.0
C553 C 0.77993 0.26467 0.84948 0.0
C554 C 0.77366 0.28952 0.67802 0.0
Dy555 Dy 0.77705 0.27791 0.79572 0.0
O556 O 0.75552 0.28411 0.69642 0.0
O557 O 0.7982 0.28944 0.68889 0.0
O558 O 0.82479 0.26322 0.73596 0.0
O559 O 0.81135 0.28828 0.76951 0.0
C560 C 0.82909 0.27315 0.76231 0.0
C561 C 0.73265 0.2834 0.76459 0.0
O562 O 0.79209 0.32561 0.79591 0.0
O563 O 0.78719 0.32727 0.74769 0.0
O564 O 0.7972 0.28468 0.83922 0.0
O565 O 0.76077 0.25267 0.83065 0.0
O566 O 0.73699 0.29442 0.79058 0.0
O567 O 0.75066 0.26848 0.75806 0.0
O568 O 0.77118 0.23224 0.73238 0.0
O569 O 0.78115 0.23199 0.78002 0.0
C570 C 0.79216 0.34025 0.7736 0.0
C571 C 0.77434 0.21824 0.75464 0.0
Dy572 Dy 0.78471 0.81109 0.77765 0.0
C573 C 0.77099 0.68459 0.76014 0.0
C574 C 0.77766 0.86473 0.76597 0.0
Dy575 Dy 0.76746 0.74223 0.76129 0.0
O576 O 0.79629 0.86031 0.78438 0.0
O577 O 0.76353 0.84014 0.75448 0.0
O578 O 0.79505 0.81056 0.82388 0.0
O579 O 0.78033 0.7721 0.79831 0.0
C580 C 0.78769 0.78218 0.82329 0.0
C581 C 0.76143 0.77707 0.72051 0.0
O582 O 0.72917 0.74977 0.7817 0.0
O583 O 0.73955 0.80081 0.78538 0.0
O584 O 0.76992 0.69868 0.73819 0.0
O585 O 0.76847 0.70173 0.78228 0.0
O586 O 0.7456 0.75162 0.7214 0.0
O587 O 0.77973 0.78076 0.74012 0.0
O588 O 0.82462 0.80263 0.76169 0.0
O589 O 0.81385 0.75153 0.75934 0.0
C590 C 0.72274 0.77587 0.78842 0.0
C591 C 0.83148 0.77634 0.75739 0.0
Dy592 Dy 0.4893 0.5208 0.50962 0.0
C593 C 0.60474 0.5379 0.52025 0.0
C594 C 0.43403 0.51903 0.51076 0.0
Dy595 Dy 0.55113 0.54274 0.52573 0.0
O596 O 0.44694 0.51446 0.4882 0.0
O597 O 0.45126 0.52342 0.53238 0.0
O598 O 0.50057 0.4971 0.46959 0.0
O599 O 0.52532 0.53603 0.48765 0.0
C600 C 0.52357 0.5155 0.46845 0.0
C601 C 0.51796 0.55027 0.56707 0.0
O602 O 0.54223 0.58338 0.50849 0.0
O603 O 0.49465 0.56973 0.50902 0.0
O604 O 0.5958 0.55158 0.54193 0.0
O605 O 0.58468 0.5286 0.50169 0.0
O606 O 0.54172 0.56735 0.56543 0.0
O607 O 0.51499 0.52882 0.54842 0.0
O608 O 0.49716 0.47933 0.52471 0.0
O609 O 0.54463 0.49435 0.53127 0.0
C610 C 0.51698 0.58944 0.50589 0.0
C611 C 0.52203 0.47403 0.53094 0.0
Dy612 Dy 0.05157 0.51015 0.02069 0.0
C613 C 0.93826 0.53102 0.01488 0.0
C614 C 0.1018 0.49346 0.0271 0.0
Dy615 Dy 0.9874 0.51236 0.02345 0.0
O616 O 0.09742 0.51616 0.01499 0.0
O617 O 0.07885 0.48022 0.03583 0.0
O618 O 0.05237 0.533 0.98072 0.0
O619 O 0.01647 0.5073 0.99195 0.0
C620 C 0.02602 0.52477 0.97519 0.0
C621 C 0.01139 0.49573 0.06837 0.0
O622 O 0.98592 0.4682 0.99922 0.0
O623 O 0.0307 0.46303 0.01245 0.0
O624 O 0.96181 0.54295 0.00636 0.0
O625 O 0.9414 0.50839 0.02782 0.0
O626 O 0.98495 0.48883 0.06249 0.0
O627 O 0.02212 0.51394 0.05257 0.0
O628 O 0.05399 0.55329 0.04615 0.0
O629 O 0.00906 0.55924 0.03487 0.0
C630 C 0.00542 0.45201 0.00174 0.0
C631 C 0.03463 0.56975 0.04532 0.0
H632 H 0.99287 0.19048 0.95333 0.0
H633 H 0.04377 0.16516 0.88803 0.0
H634 H 0.05454 0.1256 0.91385 0.0
H635 H 0.04861 0.09721 0.95443 0.0
H636 H 0.99416 0.11904 0.01749 0.0
H637 H 0.98592 0.16109 0.9935 0.0
C638 C 0.00627 0.17624 0.94479 0.0
C639 C 0.01746 0.18072 0.91879 0.0
C640 C 0.01195 0.15307 0.95952 0.0
C641 C 0.0347 0.16203 0.90789 0.0
C642 C 0.04101 0.13949 0.92272 0.0
C643 C 0.03535 0.11155 0.96312 0.0
C644 C 0.02243 0.10554 0.98793 0.0
C645 C 0.02975 0.13477 0.94853 0.0
C646 C 0.00458 0.12359 0.99858 0.0
C647 C 0.99975 0.14748 0.98478 0.0
H648 H 0.09291 0.77891 0.23208 0.0
H649 H 0.13543 0.81819 0.16461 0.0
H650 H 0.17942 0.82321 0.19132 0.0
H651 H 0.20613 0.8146 0.23329 0.0
H652 H 0.1637 0.7753 0.30052 0.0
H653 H 0.11934 0.77232 0.27471 0.0
C654 C 0.1118 0.78863 0.22324 0.0
C655 C 0.11089 0.79799 0.19631 0.0
C656 C 0.13706 0.79126 0.23864 0.0
C657 C 0.13554 0.81069 0.18524 0.0
C658 C 0.16074 0.81348 0.20047 0.0
C659 C 0.18714 0.80509 0.24201 0.0
C660 C 0.188 0.79461 0.26837 0.0
C661 C 0.1618 0.80346 0.22701 0.0
C662 C 0.16335 0.78337 0.28014 0.0
C663 C 0.13806 0.78159 0.26537 0.0
H664 H 0.51954 0.83862 0.46006 0.0
H665 H 0.48291 0.86192 0.38444 0.0
H666 H 0.48077 0.9103 0.40745 0.0
H667 H 0.49091 0.94675 0.44858 0.0
H668 H 0.53074 0.92476 0.52297 0.0
H669 H 0.52969 0.87506 0.50118 0.0
C670 C 0.51106 0.8543 0.44866 0.0
C671 C 0.50147 0.84672 0.42058 0.0
C672 C 0.51029 0.88226 0.4619 0.0
C673 C 0.49061 0.86728 0.40602 0.0
C674 C 0.48927 0.89492 0.4192 0.0
C675 C 0.49887 0.93086 0.46015 0.0
C676 C 0.51056 0.93919 0.48743 0.0
C677 C 0.49915 0.9027 0.44709 0.0
C678 C 0.52148 0.91871 0.50199 0.0
C679 C 0.521 0.89037 0.4895 0.0
H680 H 0.48727 0.26228 0.71762 0.0
H681 H 0.47447 0.34118 0.68297 0.0
H682 H 0.43247 0.34085 0.70792 0.0
H683 H 0.39764 0.31638 0.73691 0.0
H684 H 0.40988 0.23746 0.77166 0.0
H685 H 0.45395 0.23973 0.74969 0.0
C686 C 0.4754 0.27952 0.71575 0.0
C687 C 0.48387 0.30157 0.69827 0.0
C688 C 0.45114 0.27917 0.73014 0.0
C689 C 0.46836 0.32387 0.69618 0.0
C690 C 0.4443 0.3237 0.71042 0.0
C691 C 0.41014 0.29989 0.73995 0.0
C692 C 0.40053 0.27671 0.75571 0.0
C693 C 0.43525 0.30121 0.72707 0.0
C694 C 0.4169 0.25553 0.75959 0.0
C695 C 0.44202 0.25675 0.74693 0.0
H696 H 0.99422 0.83686 0.56279 0.0
H697 H 0.05921 0.87455 0.62494 0.0
H698 H 0.06782 0.91927 0.60159 0.0
H699 H 0.05506 0.94871 0.56535 0.0
H700 H 0.98995 0.9114 0.50312 0.0
H701 H 0.98365 0.86528 0.52434 0.0
C702 C 0.01034 0.85483 0.57113 0.0
C703 C 0.02586 0.85251 0.59573 0.0
C704 C 0.01526 0.88048 0.55752 0.0
C705 C 0.04689 0.87583 0.60612 0.0
C706 C 0.05183 0.90141 0.59278 0.0
C707 C 0.03969 0.9304 0.55616 0.0
C708 C 0.02291 0.93363 0.53273 0.0
C709 C 0.03591 0.90411 0.56869 0.0
C710 C 0.00325 0.90955 0.52105 0.0
C711 C 0.99947 0.88322 0.53333 0.0
H712 H 0.45033 0.7874 0.89769 0.0
H713 H 0.49074 0.78113 0.82014 0.0
H714 H 0.45035 0.79197 0.79494 0.0
H715 H 0.40283 0.80134 0.7948 0.0
H716 H 0.36215 0.80597 0.87225 0.0
H717 H 0.40362 0.79831 0.8978 0.0
C718 C 0.45028 0.78834 0.87526 0.0
C719 C 0.47337 0.78321 0.86074 0.0
C720 C 0.42708 0.79463 0.86098 0.0
C721 C 0.47311 0.78477 0.83174 0.0
C722 C 0.45009 0.79109 0.81735 0.0
C723 C 0.40328 0.8012 0.81733 0.0
C724 C 0.37962 0.80435 0.83172 0.0
C725 C 0.42691 0.79594 0.83174 0.0
C726 C 0.38023 0.80372 0.86082 0.0
C727 C 0.40384 0.79914 0.87538 0.0
H728 H 0.47563 0.19051 0.051 0.0
H729 H 0.53708 0.18214 0.11459 0.0
H730 H 0.54484 0.13691 0.08947 0.0
H731 H 0.53537 0.10056 0.04909 0.0
H732 H 0.47152 0.10528 0.98693 0.0
H733 H 0.46386 0.15145 0.01141 0.0
C734 C 0.49065 0.17868 0.05928 0.0
C735 C 0.50584 0.1897 0.08453 0.0
C736 C 0.4947 0.15221 0.04493 0.0
C737 C 0.52508 0.17409 0.09523 0.0
C738 C 0.52962 0.14826 0.08085 0.0
C739 C 0.51936 0.11133 0.04117 0.0
C740 C 0.50377 0.09938 0.0165 0.0
C741 C 0.51464 0.1372 0.05569 0.0
C742 C 0.48369 0.11406 0.00602 0.0
C743 C 0.47932 0.1404 0.02002 0.0
H744 H 0.10233 0.23193 0.33848 0.0
H745 H 0.12256 0.32501 0.36176 0.0
H746 H 0.16313 0.32823 0.33425 0.0
H747 H 0.19447 0.30446 0.30613 0.0
H748 H 0.17663 0.21096 0.28503 0.0
H749 H 0.1335 0.2081 0.30879 0.0
C750 C 0.11553 0.25291 0.3373 0.0
C751 C 0.10947 0.27818 0.35223 0.0
C752 C 0.1393 0.25454 0.32184 0.0
C753 C 0.12684 0.3052 0.35064 0.0
C754 C 0.15005 0.30708 0.33485 0.0
C755 C 0.18099 0.28347 0.30628 0.0
C756 C 0.18881 0.25797 0.29369 0.0
C757 C 0.15669 0.28187 0.32069 0.0
C758 C 0.17115 0.23095 0.29451 0.0
C759 C 0.14651 0.22928 0.3082 0.0
H760 H 0.96451 0.0741 0.17506 0.0
H761 H 0.91035 0.99375 0.14348 0.0
H762 H 0.93854 0.98864 0.10353 0.0
H763 H 0.97953 0.00566 0.07842 0.0
H764 H 0.03272 0.08719 0.10777 0.0
H765 H 0.00439 0.09288 0.14791 0.0
C766 C 0.95881 0.05559 0.15934 0.0
C767 C 0.93534 0.03428 0.16242 0.0
C768 C 0.97512 0.05283 0.13612 0.0
C769 C 0.92824 0.01049 0.14174 0.0
C770 C 0.94442 0.00747 0.11887 0.0
C771 C 0.98472 0.02494 0.09332 0.0
C772 C 0.00811 0.04611 0.08992 0.0
C773 C 0.96802 0.02833 0.11597 0.0
C774 C 0.0148 0.07061 0.10983 0.0
C775 C 0.99856 0.07388 0.13277 0.0
H776 H 0.25738 0.72881 0.48505 0.0
H777 H 0.33325 0.70168 0.46212 0.0
H778 H 0.33375 0.72861 0.42095 0.0
H779 H 0.30962 0.75445 0.3887 0.0
H780 H 0.23308 0.78041 0.41063 0.0
H781 H 0.23598 0.75964 0.45533 0.0
C782 C 0.27425 0.72918 0.47127 0.0
C783 C 0.29503 0.71296 0.47631 0.0
C784 C 0.27414 0.74427 0.44744 0.0
C785 C 0.31691 0.71384 0.45851 0.0
C786 C 0.31716 0.72913 0.43494 0.0
C787 C 0.29379 0.75593 0.40348 0.0
C788 C 0.27097 0.76846 0.39642 0.0
C789 C 0.29541 0.74358 0.42876 0.0
C790 C 0.25075 0.77067 0.41572 0.0
C791 C 0.25235 0.7587 0.44115 0.0
H792 H 0.56807 0.98398 0.67567 0.0
H793 H 0.63326 0.05315 0.65743 0.0
H794 H 0.60811 0.05881 0.61443 0.0
H795 H 0.56745 0.04575 0.5832 0.0
H796 H 0.50124 0.97722 0.59981 0.0
H797 H 0.52677 0.96989 0.64279 0.0
C798 C 0.57674 1.00013 0.66214 0.0
C799 C 0.6024 0.01819 0.66968 0.0
C800 C 0.56196 0.00355 0.63747 0.0
C801 C 0.61346 0.03913 0.65213 0.0
C802 C 0.59913 0.0424 0.62755 0.0
C803 C 0.55868 0.02891 0.59598 0.0
C804 C 0.53272 0.01182 0.58835 0.0
C805 C 0.57334 0.02495 0.62022 0.0
C806 C 0.5213 0.99058 0.6054 0.0
C807 C 0.53589 0.98639 0.62984 0.0
H808 H 0.31206 0.33175 0.96082 0.0
H809 H 0.22631 0.33787 0.94983 0.0
H810 H 0.2251 0.31651 0.90141 0.0
H811 H 0.24861 0.29766 0.86167 0.0
H812 H 0.33506 0.29394 0.87135 0.0
H813 H 0.3358 0.31282 0.92058 0.0
C814 C 0.29306 0.32811 0.94788 0.0
C815 C 0.26924 0.33623 0.95902 0.0
C816 C 0.29269 0.31645 0.9197 0.0
C817 C 0.2449 0.33179 0.94183 0.0
C818 C 0.2442 0.31961 0.9141 0.0
C819 C 0.26764 0.30082 0.87451 0.0
C820 C 0.29175 0.29428 0.86266 0.0
C821 C 0.26802 0.31211 0.90271 0.0
C822 C 0.3162 0.29882 0.87975 0.0
C823 C 0.31663 0.30959 0.90799 0.0
H824 H 0.89837 0.01608 0.33335 0.0
H825 H 0.97389 0.02588 0.2904 0.0
H826 H 0.99886 0.01584 0.33224 0.0
H827 H 0.99953 0.00563 0.38159 0.0
H828 H 0.92408 0.99628 0.42458 0.0
H829 H 0.89876 0.00431 0.38215 0.0
C830 C 0.92031 0.01608 0.33316 0.0
C831 C 0.93427 0.02195 0.30883 0.0
C832 C 0.93452 0.01011 0.35727 0.0
C833 C 0.96265 0.02158 0.30888 0.0
C834 C 0.97695 0.01576 0.33279 0.0
C835 C 0.97748 0.00496 0.38152 0.0
C836 C 0.96367 1.00027 0.40615 0.0
C837 C 0.96312 0.01008 0.35714 0.0
C838 C 0.93515 0.99973 0.40585 0.0
C839 C 0.92069 0.00448 0.38163 0.0
H840 H 0.31111 0.73605 0.60409 0.0
H841 H 0.2472 0.66624 0.62358 0.0
H842 H 0.24495 0.6912 0.66986 0.0
H843 H 0.26299 0.73073 0.70555 0.0
H844 H 0.32577 0.80191 0.68715 0.0
H845 H 0.32661 0.77856 0.63941 0.0
C846 C 0.29666 0.72645 0.61849 0.0
C847 C 0.27956 0.69925 0.61062 0.0
C848 C 0.29526 0.74109 0.6451 0.0
C849 C 0.26066 0.68712 0.62924 0.0
C850 C 0.25934 0.70134 0.65569 0.0
C851 C 0.27643 0.74155 0.69096 0.0
C852 C 0.29421 0.768 0.69973 0.0
C853 C 0.27675 0.72809 0.6639 0.0
C854 C 0.31182 0.78154 0.68074 0.0
C855 C 0.31239 0.76812 0.65356 0.0
H856 H 0.58586 0.97122 0.81347 0.0
H857 H 0.58245 0.06035 0.79864 0.0
H858 H 0.55529 0.06562 0.83929 0.0
H859 H 0.53742 0.04698 0.88196 0.0
H860 H 0.54107 0.95832 0.89779 0.0
H861 H 0.56284 0.95055 0.85356 0.0
C862 C 0.57879 0.99161 0.81893 0.0
C863 C 0.58649 0.0155 0.8034 0.0
C864 C 0.56338 0.99461 0.84254 0.0
C865 C 0.57701 0.04173 0.81047 0.0
C866 C 0.56152 0.0448 0.83373 0.0
C867 C 0.54257 0.02581 0.87544 0.0
C868 C 0.53805 0.00336 0.89303 0.0
C869 C 0.55533 0.02171 0.85035 0.0
C870 C 0.54447 0.97592 0.88444 0.0
C871 C 0.55705 0.97154 0.85929 0.0
H872 H 0.24101 0.30522 0.09983 0.0
H873 H 0.30911 0.37237 0.13288 0.0
H874 H 0.30904 0.35089 0.17723 0.0
H875 H 0.29012 0.31276 0.20668 0.0
H876 H 0.22126 0.24618 0.17463 0.0
H877 H 0.22112 0.26761 0.13007 0.0
C878 C 0.2559 0.31505 0.11671 0.0
C879 C 0.27515 0.34031 0.11288 0.0
C880 C 0.25554 0.30274 0.14246 0.0
C881 C 0.29411 0.35291 0.13513 0.0
C882 C 0.29407 0.34065 0.16058 0.0
C883 C 0.27485 0.30313 0.19009 0.0
C884 C 0.25563 0.27795 0.1941 0.0
C885 C 0.27489 0.3156 0.16452 0.0
C886 C 0.23624 0.26558 0.17217 0.0
C887 C 0.23621 0.2778 0.14662 0.0
H888 H 0.21454 0.97228 0.04702 0.0
H889 H 0.18908 0.92583 0.96579 0.0
H890 H 0.15373 0.95551 0.96001 0.0
H891 H 0.12811 0.992 0.97913 0.0
H892 H 0.15096 0.03685 0.06134 0.0
H893 H 0.18992 0.0111 0.06535 0.0
C894 C 0.20127 0.96874 0.02806 0.0
C895 C 0.20419 0.9467 0.00699 0.0
C896 C 0.18077 0.98577 0.02495 0.0
C897 C 0.18704 0.94246 0.98243 0.0
C898 C 0.16691 0.9595 0.97904 0.0
C899 C 0.14189 0.99654 0.99776 0.0
C900 C 0.13673 0.01617 0.01996 0.0
C901 C 0.16338 0.9809 1.00029 0.0
C902 C 0.15468 0.02187 0.04395 0.0
C903 C 0.17674 0.00694 0.04634 0.0
H904 H 0.67789 0.62018 0.02204 0.0
H905 H 0.70804 0.55909 0.96372 0.0
H906 H 0.66272 0.52729 0.95945 0.0
H907 H 0.61369 0.51776 0.97102 0.0
H908 H 0.58432 0.57932 0.02956 0.0
H909 H 0.62999 0.60971 0.03514 0.0
C910 C 0.6746 0.59985 0.00846 0.0
C911 C 0.69632 0.59213 0.99311 0.0
C912 C 0.64851 0.58167 0.00615 0.0
C913 C 0.69169 0.5656 0.97576 0.0
C914 C 0.66574 0.5474 0.97328 0.0
C915 C 0.6174 0.5377 0.98515 0.0
C916 C 0.59556 0.54623 0.9998 0.0
C917 C 0.64388 0.55532 0.98819 0.0
C918 C 0.6007 0.57216 0.01804 0.0
C919 C 0.62685 0.58966 0.0212 0.0
H920 H 0.72372 0.4524 0.3018 0.0
H921 H 0.65552 0.4131 0.24381 0.0
H922 H 0.67743 0.37099 0.23271 0.0
H923 H 0.71477 0.34427 0.24051 0.0
H924 H 0.78314 0.38218 0.29876 0.0
H925 H 0.76266 0.42595 0.30824 0.0
C926 C 0.71372 0.43463 0.28671 0.0
C927 C 0.68786 0.43592 0.27381 0.0
C928 C 0.72655 0.41025 0.2803 0.0
C929 C 0.6753 0.41274 0.25416 0.0
C930 C 0.68786 0.3886 0.24774 0.0
C931 C 0.72543 0.36217 0.25513 0.0
C932 C 0.75053 0.35978 0.26888 0.0
C933 C 0.71334 0.38701 0.2608 0.0
C934 C 0.76394 0.38338 0.28766 0.0
C935 C 0.7521 0.40838 0.29327 0.0
H936 H 0.84069 0.46097 0.46899 0.0
H937 H 0.83331 0.47498 0.55803 0.0
H938 H 0.88159 0.49912 0.56414 0.0
H939 H 0.92662 0.51192 0.54456 0.0
H940 H 0.93402 0.49563 0.45556 0.0
H941 H 0.88483 0.4766 0.44912 0.0
C942 C 0.84952 0.46971 0.4897 0.0
C943 C 0.83363 0.46609 0.51305 0.0
C944 C 0.87732 0.48276 0.4931 0.0
C945 C 0.84526 0.47747 0.53975 0.0
C946 C 0.87285 0.49112 0.54326 0.0
C947 C 0.91749 0.50441 0.52371 0.0
C948 C 0.93408 0.5049 0.50064 0.0
C949 C 0.88923 0.49317 0.52014 0.0
C950 C 0.92182 0.49527 0.47376 0.0
C951 C 0.89367 0.48441 0.47001 0.0
H952 H 0.34723 0.07942 0.24339 0.0
H953 H 0.38997 0.12155 0.32048 0.0
H954 H 0.35628 0.15367 0.32583 0.0
H955 H 0.3166 0.17143 0.30759 0.0
H956 H 0.27554 0.13297 0.22867 0.0
H957 H 0.30612 0.09682 0.22547 0.0
C958 C 0.34913 0.09569 0.2613 0.0
C959 C 0.37113 0.09837 0.28139 0.0
C960 C 0.32983 0.11431 0.2641 0.0
C961 C 0.37337 0.11935 0.30459 0.0
C962 C 0.35403 0.13756 0.30777 0.0
C963 C 0.31402 0.15485 0.28986 0.0
C964 C 0.29398 0.15476 0.26836 0.0
C965 C 0.33238 0.13536 0.28756 0.0
C966 C 0.29081 0.13325 0.24552 0.0
C967 C 0.30846 0.11287 0.24357 0.0
H968 H 0.3602 0.12962 0.47977 0.0
H969 H 0.31153 0.06869 0.52824 0.0
H970 H 0.34933 0.04146 0.53169 0.0
H971 H 0.39718 0.03584 0.52227 0.0
H972 H 0.445 0.09617 0.47257 0.0
H973 H 0.40676 0.12242 0.46813 0.0
C974 C 0.35783 0.11034 0.49103 0.0
C975 C 0.33308 0.10137 0.50387 0.0
C976 C 0.37961 0.09457 0.4927 0.0
C977 C 0.33033 0.07614 0.51816 0.0
C978 C 0.35199 0.06055 0.52018 0.0
C979 C 0.39909 0.05457 0.51027 0.0
C980 C 0.424 0.06406 0.49787 0.0
C981 C 0.37684 0.06965 0.50771 0.0
C982 C 0.42612 0.08838 0.48236 0.0
C983 C 0.40424 0.1035 0.47986 0.0
H984 H 0.66855 0.60718 0.27117 0.0
H985 H 0.73074 0.57906 0.32215 0.0
H986 H 0.76076 0.62669 0.32142 0.0
H987 H 0.76981 0.67584 0.305 0.0
H988 H 0.7085 0.70237 0.25164 0.0
H989 H 0.67753 0.65599 0.2548 0.0
C990 C 0.68861 0.61152 0.28229 0.0
C991 C 0.69739 0.58965 0.29677 0.0
C992 C 0.70589 0.6387 0.28135 0.0
C993 C 0.72352 0.59553 0.31085 0.0
C994 C 0.74068 0.62276 0.31043 0.0
C995 C 0.74961 0.67149 0.2942 0.0
C996 C 0.74134 0.69262 0.2783 0.0
C997 C 0.73216 0.64443 0.29556 0.0
C998 C 0.71521 0.68663 0.26426 0.0
C999 C 0.69755 0.66004 0.26594 0.0
H1000 H 0.84011 0.47177 0.76178 0.0
H1001 H 0.88647 0.461 0.83681 0.0
H1002 H 0.85922 0.41221 0.8383 0.0
H1003 H 0.82551 0.37114 0.81581 0.0
H1004 H 0.78164 0.38029 0.73874 0.0
H1005 H 0.80432 0.43147 0.74072 0.0
C1006 C 0.844 0.45883 0.77861 0.0
C1007 C 0.86533 0.46974 0.79902 0.0
C1008 C 0.82874 0.43058 0.77894 0.0
C1009 C 0.87027 0.45286 0.82072 0.0
C1010 C 0.85469 0.42502 0.82161 0.0
C1011 C 0.82046 0.38451 0.79977 0.0
C1012 C 0.80201 0.37205 0.77715 0.0
C1013 C 0.8343 0.41345 0.8005 0.0
C1014 C 0.79591 0.38947 0.7563 0.0
C1015 C 0.80892 0.41865 0.75737 0.0
H1016 H 0.0581 0.85248 0.07758 0.0
H1017 H 0.99879 0.86947 0.13747 0.0
H1018 H 0.98875 0.9101 0.11278 0.0
H1019 H 0.99749 0.94163 0.07474 0.0
H1020 H 0.05941 0.92741 0.01709 0.0
H1021 H 0.0675 0.88469 0.03995 0.0
C1022 C 0.04304 0.86514 0.08522 0.0
C1023 C 0.02926 0.85801 0.10934 0.0
C1024 C 0.03762 0.88879 0.07112 0.0
C1025 C 0.00984 0.87465 0.11907 0.0
C1026 C 0.00395 0.89779 0.10487 0.0
C1027 C 0.01238 0.92881 0.06692 0.0
C1028 C 0.02751 0.93723 0.04403 0.0
C1029 C 0.0177 0.90507 0.08088 0.0
C1030 C 0.04735 0.92106 0.03455 0.0
C1031 C 0.05207 0.89677 0.0477 0.0
H1032 H 0.91848 0.26775 0.85761 0.0
H1033 H 0.94653 0.21095 0.79356 0.0
H1034 H 0.90747 0.21519 0.76209 0.0
H1035 H 0.86672 0.23763 0.75198 0.0
H1036 H 0.84228 0.2981 0.81517 0.0
H1037 H 0.87836 0.28978 0.84779 0.0
C1038 C 0.91581 0.25588 0.83692 0.0
C1039 C 0.93521 0.23888 0.82797 0.0
C1040 C 0.89401 0.25931 0.81871 0.0
C1041 C 0.93174 0.22406 0.80095 0.0
C1042 C 0.90952 0.22662 0.78292 0.0
C1043 C 0.86934 0.24889 0.77292 0.0
C1044 C 0.85155 0.26806 0.78136 0.0
C1045 C 0.89079 0.24464 0.79139 0.0
C1046 C 0.85525 0.28269 0.80844 0.0
C1047 C 0.87602 0.27811 0.82705 0.0
H1048 H 0.58146 0.21861 0.59318 0.0
H1049 H 0.49341 0.21217 0.59537 0.0
H1050 H 0.48642 0.16368 0.56955 0.0
H1051 H 0.50508 0.12248 0.54852 0.0
H1052 H 0.59307 0.12679 0.54839 0.0
H1053 H 0.60034 0.1769 0.57118 0.0
C1054 C 0.56076 0.20665 0.58775 0.0
C1055 C 0.53795 0.21894 0.59612 0.0
C1056 C 0.5569 0.17844 0.57342 0.0
C1057 C 0.51127 0.20314 0.58922 0.0
C1058 C 0.50726 0.17543 0.57446 0.0
C1059 C 0.52593 0.13435 0.55316 0.0
C1060 C 0.54851 0.1208 0.54665 0.0
C1061 C 0.52991 0.16276 0.56676 0.0
C1062 C 0.57531 0.13662 0.55316 0.0
C1063 C 0.57947 0.16527 0.56623 0.0
H1064 H 0.57566 0.80488 0.32694 0.0
H1065 H 0.55615 0.71072 0.32214 0.0
H1066 H 0.59742 0.70714 0.29674 0.0
H1067 H 0.64101 0.73092 0.27898 0.0
H1068 H 0.6602 0.82506 0.28359 0.0
H1069 H 0.6171 0.82848 0.30564 0.0
C1070 C 0.58031 0.78358 0.32008 0.0
C1071 C 0.56299 0.75813 0.32662 0.0
C1072 C 0.60411 0.78167 0.3055 0.0
C1073 C 0.56917 0.73068 0.31743 0.0
C1074 C 0.59283 0.72859 0.30296 0.0
C1075 C 0.63552 0.75213 0.28446 0.0
C1076 C 0.6538 0.77769 0.27983 0.0
C1077 C 0.61072 0.75395 0.29731 0.0
C1078 C 0.64647 0.80505 0.28699 0.0
C1079 C 0.62187 0.80704 0.2997 0.0
H1080 H 1.00062 0.18317 0.43357 0.0
H1081 H 0.08175 0.21813 0.47122 0.0
H1082 H 0.07937 0.17606 0.49853 0.0
H1083 H 0.05503 0.12765 0.5096 0.0
H1084 H 0.974 0.09336 0.47115 0.0
H1085 H 0.97532 0.13701 0.44678 0.0
C1086 C 0.01779 0.18162 0.44776 0.0
C1087 C 0.04145 0.20356 0.45011 0.0
C1088 C 0.01618 0.15755 0.46349 0.0
C1089 C 0.06336 0.20141 0.46889 0.0
C1090 C 0.06198 0.17739 0.48456 0.0
C1091 C 0.03744 0.13012 0.49641 0.0
C1092 C 0.01442 0.1073 0.49224 0.0
C1093 C 0.03856 0.15515 0.48187 0.0
C1094 C 0.99196 0.11058 0.4747 0.0
C1095 C 0.99275 0.13548 0.46061 0.0
H1096 H 0.59785 0.26688 0.14179 0.0
H1097 H 0.5547 0.27323 0.2176 0.0
H1098 H 0.59489 0.2643 0.24463 0.0
H1099 H 0.64279 0.25506 0.24667 0.0
H1100 H 0.68572 0.25033 0.17063 0.0
H1101 H 0.64501 0.25761 0.14369 0.0
C1102 C 0.59727 0.26652 0.16426 0.0
C1103 C 0.57337 0.2709 0.17767 0.0
C1104 C 0.62032 0.26119 0.17958 0.0
C1105 C 0.57293 0.27014 0.20678 0.0
C1106 C 0.59584 0.26485 0.22223 0.0
C1107 C 0.64296 0.25514 0.22415 0.0
C1108 C 0.66703 0.25186 0.21055 0.0
C1109 C 0.61964 0.2602 0.20884 0.0
C1110 C 0.66731 0.25262 0.18147 0.0
C1111 C 0.64411 0.25697 0.16609 0.0
H1112 H 0.52356 0.84096 0.98038 0.0
H1113 H 0.57554 0.87873 0.91837 0.0
H1114 H 0.5713 0.92783 0.93799 0.0
H1115 H 0.55216 0.96 0.97231 0.0
H1116 H 0.49901 0.92217 0.03336 0.0
H1117 H 0.50428 0.87311 0.01455 0.0
C1118 C 0.53422 0.85996 0.97138 0.0
C1119 C 0.55 0.85623 0.9481 0.0
C1120 C 0.53127 0.88808 0.98244 0.0
C1121 C 0.56339 0.88103 0.93641 0.0
C1122 C 0.56088 0.90911 0.94753 0.0
C1123 C 0.54158 0.94099 0.98134 0.0
C1124 C 0.52512 0.94463 0.00409 0.0
C1125 C 0.54469 0.91288 0.97039 0.0
C1126 C 0.51175 0.91987 0.01578 0.0
C1127 C 0.51481 0.89184 0.00509 0.0
H1128 H 0.93184 0.7427 0.69337 0.0
H1129 H 0.95017 0.83607 0.69003 0.0
H1130 H 0.91139 0.842 0.71871 0.0
H1131 H 0.87064 0.82027 0.74228 0.0
H1132 H 0.85301 0.72675 0.74604 0.0
H1133 H 0.89341 0.72143 0.72014 0.0
C1134 C 0.92736 0.76435 0.69899 0.0
C1135 C 0.94359 0.78887 0.68933 0.0
C1136 C 0.90524 0.76761 0.71569 0.0
C1137 C 0.93785 0.81683 0.69711 0.0
C1138 C 0.9157 0.82024 0.71351 0.0
C1139 C 0.87584 0.79876 0.73786 0.0
C1140 C 0.85854 0.77397 0.74596 0.0
C1141 C 0.89905 0.79574 0.72265 0.0
C1142 C 0.86575 0.74628 0.74 0.0
C1143 C 0.88884 0.74314 0.72504 0.0
H1144 H 0.07698 0.97066 0.85343 0.0
H1145 H 0.13552 0.04781 0.88505 0.0
H1146 H 0.11034 0.05234 0.92735 0.0
H1147 H 0.07074 0.03564 0.9547 0.0
H1148 H 0.01309 0.9574 0.92456 0.0
H1149 H 0.03862 0.9522 0.88236 0.0
C1150 C 0.08428 0.98836 0.86965 0.0
C1151 C 0.10808 0.00893 0.86595 0.0
C1152 C 0.06975 0.99075 0.89416 0.0
C1153 C 0.11731 0.03166 0.88728 0.0
C1154 C 0.10287 0.03433 0.91149 0.0
C1155 C 0.06396 0.01721 0.93909 0.0
C1156 C 0.04008 0.99687 0.94286 0.0
C1157 C 0.07895 0.01417 0.91508 0.0
C1158 C 0.0314 0.97335 0.92221 0.0
C1159 C 0.04601 0.97038 0.89806 0.0
H1160 H 0.72907 0.34182 0.57363 0.0
H1161 H 0.81543 0.35597 0.55753 0.0
H1162 H 0.8251 0.32996 0.59738 0.0
H1163 H 0.80962 0.30693 0.63923 0.0
H1164 H 0.72335 0.29306 0.65553 0.0
H1165 H 0.71299 0.31481 0.61304 0.0
C1166 C 0.74993 0.33891 0.57869 0.0
C1167 C 0.77151 0.35103 0.56289 0.0
C1168 C 0.7554 0.32404 0.60172 0.0
C1169 C 0.79845 0.34693 0.56949 0.0
C1170 C 0.80404 0.33211 0.59231 0.0
C1171 C 0.78854 0.30829 0.63319 0.0
C1172 C 0.76733 0.29872 0.65047 0.0
C1173 C 0.78277 0.32111 0.60892 0.0
C1174 C 0.74005 0.30047 0.64252 0.0
C1175 C 0.73411 0.31298 0.6183 0.0
H1176 H 0.50057 0.06721 0.34944 0.0
H1177 H 0.42473 0.01791 0.37465 0.0
H1178 H 0.4462 0.0153 0.42046 0.0
H1179 H 0.48685 0.024 0.45201 0.0
H1180 H 0.56285 0.07435 0.42885 0.0
H1181 H 0.54101 0.07946 0.38327 0.0
C1182 C 0.48878 0.05608 0.36506 0.0
C1183 C 0.46123 0.04252 0.35864 0.0
C1184 C 0.50126 0.05469 0.39151 0.0
C1185 C 0.44603 0.02838 0.37907 0.0
C1186 C 0.45826 0.02682 0.40525 0.0
C1187 C 0.49856 0.03656 0.43723 0.0
C1188 C 0.52632 0.04884 0.44365 0.0
C1189 C 0.48591 0.0395 0.41149 0.0
C1190 C 0.54137 0.06474 0.42422 0.0
C1191 C 0.52892 0.0676 0.39823 0.0
H1192 H 0.73588 0.70313 0.07604 0.0
H1193 H 0.82065 0.69277 0.08573 0.0
H1194 H 0.82332 0.71454 0.1341 0.0
H1195 H 0.80138 0.73501 0.17424 0.0
H1196 H 0.71603 0.74373 0.16575 0.0
H1197 H 0.71385 0.7242 0.11659 0.0
C1198 C 0.75499 0.70588 0.08869 0.0
C1199 C 0.77808 0.69637 0.07713 0.0
C1200 C 0.75626 0.71799 0.11685 0.0
C1201 C 0.80258 0.69984 0.09398 0.0
C1202 C 0.80412 0.71229 0.12172 0.0
C1203 C 0.78227 0.73282 0.1617 0.0
C1204 C 0.75889 0.74093 0.17393 0.0
C1205 C 0.78104 0.7212 0.13348 0.0
C1206 C 0.73436 0.73768 0.15711 0.0
C1207 C 0.73309 0.72649 0.1289 0.0
H1208 H 0.1405 0.02295 0.69177 0.0
H1209 H 0.06482 0.0133 0.73444 0.0
H1210 H 0.0401 0.02375 0.69261 0.0
H1211 H 0.03978 0.03481 0.64347 0.0
H1212 H 0.11537 0.04387 0.60075 0.0
H1213 H 0.14037 0.03496 0.64305 0.0
C1214 C 0.11857 0.023 0.69188 0.0
C1215 C 0.10451 0.01713 0.71616 0.0
C1216 C 0.10451 0.02924 0.66779 0.0
C1217 C 0.07613 0.01757 0.716 0.0
C1218 C 0.06199 0.02366 0.6921 0.0
C1219 C 0.06179 0.03523 0.64357 0.0
C1220 C 0.07575 0.04017 0.61907 0.0
C1221 C 0.07595 0.02955 0.66786 0.0
C1222 C 0.1042 0.04028 0.61939 0.0
C1223 C 0.11847 0.03502 0.64353 0.0
H1224 H 0.74001 0.31858 0.43682 0.0
H1225 H 0.78628 0.39679 0.40847 0.0
H1226 H 0.79106 0.37017 0.36357 0.0
H1227 H 0.78106 0.32561 0.33198 0.0
H1228 H 0.7322 0.2477 0.35782 0.0
H1229 H 0.73018 0.27302 0.40452 0.0
C1230 C 0.75114 0.32971 0.42079 0.0
C1231 C 0.76269 0.35962 0.42592 0.0
C1232 C 0.75363 0.31429 0.39478 0.0
C1233 C 0.7771 0.37381 0.40501 0.0
C1234 C 0.77996 0.3586 0.37936 0.0
C1235 C 0.77014 0.314 0.34784 0.0
C1236 C 0.75672 0.28488 0.34149 0.0
C1237 C 0.76822 0.32894 0.37401 0.0
C1238 C 0.7427 0.27017 0.3623 0.0
C1239 C 0.7414 0.28469 0.38888 0.0
H1240 H 0.47646 0.08299 0.20831 0.0
H1241 H 0.49214 0.99811 0.22541 0.0
H1242 H 0.5182 0.99531 0.18346 0.0
H1243 H 0.53039 0.01381 0.13854 0.0
H1244 H 0.51111 0.09678 0.11994 0.0
H1245 H 0.49313 0.10389 0.16611 0.0
C1246 C 0.48598 0.0641 0.20312 0.0
C1247 C 0.48206 0.0406 0.21962 0.0
C1248 C 0.50021 0.06229 0.17862 0.0
C1249 C 0.49465 0.01635 0.2128 0.0
C1250 C 0.50951 0.01472 0.18881 0.0
C1251 C 0.52293 0.03377 0.14498 0.0
C1252 C 0.52182 0.05467 0.12602 0.0
C1253 C 0.51156 0.03709 0.17106 0.0
C1254 C 0.51197 0.08037 0.1343 0.0
C1255 C 0.50157 0.08435 0.16059 0.0
H1256 H 0.7988 0.73479 0.94174 0.0
H1257 H 0.74704 0.65839 0.89844 0.0
H1258 H 0.74756 0.68251 0.85545 0.0
H1259 H 0.76179 0.72617 0.83015 0.0
H1260 H 0.81416 0.80202 0.87347 0.0
H1261 H 0.8141 0.7776 0.91615 0.0
C1262 C 0.78762 0.72342 0.92292 0.0
C1263 C 0.77282 0.6948 0.9235 0.0
C1264 C 0.7881 0.73741 0.89809 0.0
C1265 C 0.75856 0.68043 0.89875 0.0
C1266 C 0.75885 0.69422 0.87406 0.0
C1267 C 0.77367 0.73703 0.84872 0.0
C1268 C 0.78833 0.76574 0.84835 0.0
C1269 C 0.77353 0.72277 0.87342 0.0
C1270 C 0.80281 0.77989 0.87303 0.0
C1271 C 0.80277 0.76593 0.89754 0.0
H1272 H 0.83765 0.07364 0.99229 0.0
H1273 H 0.85747 0.10675 0.0788 0.0
H1274 H 0.89131 0.07475 0.08213 0.0
H1275 H 0.91855 0.04167 0.05912 0.0
H1276 H 0.90057 0.01012 0.97209 0.0
H1277 H 0.86194 0.03648 0.97048 0.0
C1278 C 0.84926 0.07368 0.0119 0.0
C1279 C 0.84549 0.09284 0.03513 0.0
C1280 C 0.86878 0.05539 0.0136 0.0
C1281 C 0.8603 0.09242 0.06055 0.0
C1282 C 0.87958 0.07409 0.06249 0.0
C1283 C 0.90579 0.04007 0.03995 0.0
C1284 C 0.91242 0.02434 0.01566 0.0
C1285 C 0.88442 0.05605 0.03897 0.0
C1286 C 0.89574 0.02216 0.99102 0.0
C1287 C 0.87389 0.03747 0.99004 0.0
H1288 H 0.36568 0.41544 0.00947 0.0
H1289 H 0.33617 0.47561 0.06927 0.0
H1290 H 0.38065 0.50882 0.07132 0.0
H1291 H 0.42887 0.51973 0.05752 0.0
H1292 H 0.4577 0.45897 0.99769 0.0
H1293 H 0.41264 0.42731 0.99407 0.0
C1294 C 0.36892 0.43588 0.02289 0.0
C1295 C 0.34768 0.44293 0.03933 0.0
C1296 C 0.39451 0.45483 0.02393 0.0
C1297 C 0.35219 0.46961 0.05644 0.0
C1298 C 0.37765 0.4886 0.05764 0.0
C1299 C 0.42515 0.49969 0.04351 0.0
C1300 C 0.44666 0.49174 0.02793 0.0
C1301 C 0.39909 0.48132 0.04167 0.0
C1302 C 0.44154 0.46569 0.00988 0.0
C1303 C 0.41576 0.44746 0.00786 0.0
H1304 H 0.36188 0.61953 0.7856 0.0
H1305 H 0.3144 0.58368 0.70927 0.0
H1306 H 0.28807 0.62346 0.71354 0.0
H1307 H 0.27981 0.66994 0.73802 0.0
H1308 H 0.32816 0.70575 0.81396 0.0
H1309 H 0.35242 0.66454 0.81094 0.0
C1310 C 0.34572 0.62035 0.76993 0.0
C1311 C 0.34028 0.59867 0.74707 0.0
C1312 C 0.33064 0.64334 0.77251 0.0
C1313 C 0.31914 0.60009 0.72704 0.0
C1314 C 0.30401 0.62286 0.72949 0.0
C1315 C 0.2953 0.66844 0.75416 0.0
C1316 C 0.30203 0.691 0.77623 0.0
C1317 C 0.30967 0.64477 0.75205 0.0
C1318 C 0.32251 0.68882 0.79671 0.0
C1319 C 0.33652 0.66525 0.79497 0.0
H1320 H 0.2031 0.58723 0.55646 0.0
H1321 H 0.20471 0.60752 0.47081 0.0
H1322 H 0.15626 0.58456 0.46266 0.0
H1323 H 0.11276 0.56303 0.48114 0.0
H1324 H 0.1108 0.54515 0.56761 0.0
H1325 H 0.16029 0.56284 0.57412 0.0
C1326 C 0.19295 0.58627 0.5359 0.0
C1327 C 0.20729 0.59917 0.51431 0.0
C1328 C 0.16505 0.57375 0.5316 0.0
C1329 C 0.19397 0.59781 0.48778 0.0
C1330 C 0.16629 0.58478 0.48314 0.0
C1331 C 0.12315 0.56265 0.50135 0.0
C1332 C 0.10804 0.55306 0.52392 0.0
C1333 C 0.15149 0.57335 0.50511 0.0
C1334 C 0.12189 0.55272 0.54994 0.0
C1335 C 0.15019 0.5628 0.5537 0.0
H1336 H 0.71976 0.97239 0.7807 0.0
H1337 H 0.68007 0.93082 0.70204 0.0
H1338 H 0.71221 0.89667 0.69965 0.0
H1339 H 0.74795 0.87563 0.7222 0.0
H1340 H 0.78629 0.91485 0.80199 0.0
H1341 H 0.75909 0.95399 0.80115 0.0
C1342 C 0.71822 0.95587 0.76303 0.0
C1343 C 0.69729 0.95363 0.74185 0.0
C1344 C 0.73672 0.93632 0.76183 0.0
C1345 C 0.69578 0.9326 0.71878 0.0
C1346 C 0.71421 0.91322 0.71733 0.0
C1347 C 0.75078 0.89317 0.73911 0.0
C1348 C 0.7687 0.89242 0.76227 0.0
C1349 C 0.73431 0.91452 0.73901 0.0
C1350 C 0.7726 0.91522 0.78393 0.0
C1351 C 0.75677 0.93726 0.78362 0.0
H1352 H 0.71398 0.95698 0.56371 0.0
H1353 H 0.69674 0.91128 0.48106 0.0
H1354 H 0.65908 0.93737 0.4729 0.0
H1355 H 0.63028 0.97242 0.48919 0.0
H1356 H 0.64478 0.0164 0.57257 0.0
H1357 H 0.68416 0.99202 0.58047 0.0
C1358 C 0.70199 0.95284 0.54392 0.0
C1359 C 0.70826 0.93217 0.52302 0.0
C1360 C 0.67985 0.96768 0.53947 0.0
C1361 C 0.69237 0.92693 0.49756 0.0
C1362 C 0.67082 0.94191 0.49282 0.0
C1363 C 0.64219 0.97686 0.50903 0.0
C1364 C 0.63478 0.9964 0.53017 0.0
C1365 C 0.6643 0.96225 0.5136 0.0
C1366 C 0.65018 0.00158 0.5559 0.0
C1367 C 0.67265 0.98757 0.56043 0.0
H1368 H 0.371 0.43109 0.76269 0.0
H1369 H 0.30371 0.45379 0.71474 0.0
H1370 H 0.277 0.40455 0.71647 0.0
H1371 H 0.27261 0.35523 0.7324 0.0
H1372 H 0.33864 0.33451 0.78376 0.0
H1373 H 0.36616 0.38261 0.77966 0.0
C1374 C 0.35053 0.42521 0.7525 0.0
C1375 C 0.33938 0.44595 0.73846 0.0
C1376 C 0.33514 0.39716 0.75412 0.0
C1377 C 0.31271 0.43817 0.72567 0.0
C1378 C 0.29747 0.41003 0.72664 0.0
C1379 C 0.29308 0.36123 0.74255 0.0
C1380 C 0.30379 0.34113 0.75794 0.0
C1381 C 0.30845 0.38936 0.74089 0.0
C1382 C 0.33016 0.34934 0.77134 0.0
C1383 C 0.34583 0.37694 0.76917 0.0
H1384 H 0.19798 0.5884 0.28861 0.0
H1385 H 0.16029 0.59371 0.20724 0.0
H1386 H 0.18314 0.64465 0.20823 0.0
H1387 H 0.21224 0.68797 0.2329 0.0
H1388 H 0.24805 0.68372 0.31538 0.0
H1389 H 0.22755 0.63189 0.31324 0.0
C1390 C 0.19493 0.60071 0.27105 0.0
C1391 C 0.17754 0.58748 0.24791 0.0
C1392 C 0.20771 0.63008 0.27198 0.0
C1393 C 0.17354 0.60358 0.22534 0.0
C1394 C 0.18661 0.63264 0.22587 0.0
C1395 C 0.21581 0.67564 0.2503 0.0
C1396 C 0.23164 0.68956 0.27423 0.0
C1397 C 0.20353 0.64615 0.24917 0.0
C1398 C 0.23581 0.67344 0.29676 0.0
C1399 C 0.22413 0.64384 0.29556 0.0
H1400 H 0.47416 0.6896 0.44756 0.0
H1401 H 0.56026 0.71251 0.43222 0.0
H1402 H 0.57076 0.67421 0.46002 0.0
H1403 H 0.55488 0.63157 0.48569 0.0
H1404 H 0.46868 0.6097 0.50167 0.0
H1405 H 0.45905 0.65032 0.47713 0.0
C1406 C 0.49524 0.68634 0.4505 0.0
C1407 C 0.51632 0.70365 0.43761 0.0
C1408 C 0.50118 0.66439 0.46668 0.0
C1409 C 0.5436 0.6994 0.44186 0.0
C1410 C 0.54964 0.67746 0.45773 0.0
C1411 C 0.53409 0.636 0.48426 0.0
C1412 C 0.51257 0.61726 0.49529 0.0
C1413 C 0.52852 0.65946 0.46987 0.0
C1414 C 0.48572 0.62347 0.4932 0.0
C1415 C 0.48009 0.64672 0.47905 0.0
H1416 H 0.6327 0.26673 0.67598 0.0
H1417 H 0.61293 0.3395 0.72819 0.0
H1418 H 0.65388 0.34031 0.75895 0.0
H1419 H 0.6954 0.31989 0.77099 0.0
H1420 H 0.71414 0.24699 0.71814 0.0
H1421 H 0.6736 0.24677 0.68759 0.0
C1422 C 0.63732 0.28281 0.69408 0.0
C1423 C 0.6198 0.30298 0.69985 0.0
C1424 C 0.66077 0.28314 0.71153 0.0
C1425 C 0.62612 0.32372 0.72333 0.0
C1426 C 0.64951 0.32417 0.74092 0.0
C1427 C 0.69049 0.30399 0.75279 0.0
C1428 C 0.70782 0.28367 0.74665 0.0
C1429 C 0.66697 0.30392 0.73526 0.0
C1430 C 0.70131 0.26312 0.72307 0.0
C1431 C 0.67807 0.26288 0.70564 0.0
H1432 H 0.01534 0.32326 0.95958 0.0
H1433 H 0.99283 0.35255 0.88089 0.0
H1434 H 0.98591 0.39889 0.9049 0.0
H1435 H 0.98885 0.43242 0.9481 0.0
H1436 H 0.01485 0.40459 0.02609 0.0
H1437 H 0.01718 0.35625 0.00282 0.0
C1438 C 0.00889 0.33978 0.94771 0.0
C1439 C 0.00481 0.33452 0.91848 0.0
C1440 C 0.00522 0.36655 0.96164 0.0
C1441 C 0.99638 0.35614 0.9034 0.0
C1442 C 0.99226 0.38261 0.91712 0.0
C1443 C 0.99424 0.41541 0.96001 0.0
C1444 C 1.00108 0.42163 0.98878 0.0
C1445 C 0.99681 0.38817 0.94622 0.0
C1446 C 0.00903 0.39993 0.00397 0.0
C1447 C 0.01064 0.37245 0.99063 0.0
H1448 H 0.97403 0.77189 0.2259 0.0
H1449 H 0.93919 0.77316 0.14243 0.0
H1450 H 0.89411 0.7745 0.16056 0.0
H1451 H 0.86462 0.77611 0.19986 0.0
H1452 H 0.89723 0.77065 0.28317 0.0
H1453 H 0.9432 0.77028 0.26553 0.0
C1454 C 0.95649 0.77232 0.21176 0.0
C1455 C 0.95996 0.77254 0.18288 0.0
C1456 C 0.93033 0.77254 0.22231 0.0
C1457 C 0.93706 0.77286 0.16472 0.0
C1458 C 0.91128 0.77377 0.17507 0.0
C1459 C 0.88184 0.77498 0.21418 0.0
C1460 C 0.87781 0.77385 0.24277 0.0
C1461 C 0.90773 0.77382 0.20378 0.0
C1462 C 0.90004 0.77173 0.26106 0.0
C1463 C 0.92623 0.77148 0.25097 0.0
H1464 H 0.54654 0.36085 0.09512 0.0
H1465 H 0.46702 0.32287 0.05515 0.0
H1466 H 0.46953 0.36371 0.02636 0.0
H1467 H 0.49292 0.41231 0.01504 0.0
H1468 H 0.5718 0.45045 0.05635 0.0
H1469 H 0.57122 0.40735 0.08155 0.0
C1470 C 0.52981 0.36142 0.08001 0.0
C1471 C 0.50651 0.33895 0.07752 0.0
C1472 C 0.53138 0.38499 0.06355 0.0
C1473 C 0.48513 0.33995 0.05765 0.0
C1474 C 0.48657 0.3633 0.04112 0.0
C1475 C 0.5103 0.41077 0.02897 0.0
C1476 C 0.53247 0.43448 0.03367 0.0
C1477 C 0.50945 0.38617 0.04412 0.0
C1478 C 0.55455 0.43246 0.05228 0.0
C1479 C 0.55415 0.40789 0.06687 0.0
H1480 H 0.97934 0.30021 0.33334 0.0
H1481 H 0.94292 0.25534 0.40092 0.0
H1482 H 0.89715 0.2604 0.38344 0.0
H1483 H 0.8673 0.27699 0.34872 0.0
H1484 H 0.90323 0.32231 0.28126 0.0
H1485 H 0.94933 0.31812 0.29912 0.0
C1486 C 0.96135 0.2914 0.3441 0.0
C1487 C 0.96451 0.27721 0.36826 0.0
C1488 C 0.93503 0.29477 0.33414 0.0
C1489 C 0.94104 0.26625 0.38222 0.0
C1490 C 0.91485 0.26921 0.37229 0.0
C1491 C 0.88525 0.28623 0.33811 0.0
C1492 C 0.88192 0.30001 0.31378 0.0
C1493 C 0.91159 0.28346 0.34832 0.0
C1494 C 0.90532 0.31174 0.30014 0.0
C1495 C 0.93165 0.30918 0.31024 0.0
H1496 H 0.99173 0.67332 0.61259 0.0
H1497 H 0.99348 0.72746 0.5445 0.0
H1498 H 0.99381 0.68487 0.511 0.0
H1499 H 0.99805 0.63309 0.50155 0.0
H1500 H 0.99621 0.57925 0.56948 0.0
H1501 H 0.99158 0.62075 0.60272 0.0
C1502 C 0.99184 0.67573 0.59039 0.0
C1503 C 0.99284 0.70351 0.58104 0.0
C1504 C 0.99243 0.65127 0.57133 0.0
C1505 C 0.99282 0.70629 0.55222 0.0
C1506 C 0.9931 0.68198 0.53306 0.0
C1507 C 0.99628 0.63047 0.5236 0.0
C1508 C 0.99852 0.60357 0.53346 0.0
C1509 C 0.99356 0.6545 0.54243 0.0
C1510 C 0.99593 0.6002 0.56188 0.0
C1511 C 0.9929 0.62382 0.58074 0.0
H1512 H 0.62662 0.80757 0.86089 0.0
H1513 H 0.59906 0.71422 0.84851 0.0
H1514 H 0.63802 0.70916 0.81956 0.0
H1515 H 0.68095 0.7315 0.79901 0.0
H1516 H 0.70619 0.82552 0.81009 0.0
H1517 H 0.66702 0.82997 0.83785 0.0
C1518 C 0.62916 0.7861 0.85188 0.0
C1519 C 0.61025 0.76128 0.85709 0.0
C1520 C 0.65117 0.78347 0.83484 0.0
C1521 C 0.61348 0.73365 0.84487 0.0
C1522 C 0.63574 0.73077 0.82832 0.0
C1523 C 0.67774 0.75297 0.80724 0.0
C1524 C 0.69679 0.77805 0.80247 0.0
C1525 C 0.65485 0.75555 0.82327 0.0
C1526 C 0.69208 0.80571 0.8133 0.0
C1527 C 0.66966 0.80837 0.82937 0.0
H1528 H 0.45688 0.5749 0.67769 0.0
H1529 H 0.40838 0.49088 0.64726 0.0
H1530 H 0.43545 0.48902 0.60608 0.0
H1531 H 0.47416 0.51019 0.57945 0.0
H1532 H 0.52229 0.59456 0.60898 0.0
H1533 H 0.49442 0.59722 0.64971 0.0
C1534 C 0.45217 0.55627 0.66198 0.0
C1535 C 0.43066 0.53302 0.6657 0.0
C1536 C 0.4679 0.5553 0.63819 0.0
C1537 C 0.42482 0.50907 0.64504 0.0
C1538 C 0.44034 0.50794 0.62144 0.0
C1539 C 0.47829 0.52935 0.59458 0.0
C1540 C 0.50019 0.55221 0.59108 0.0
C1541 C 0.46207 0.53079 0.61789 0.0
C1542 C 0.50556 0.57665 0.61116 0.0
C1543 C 0.48961 0.57819 0.63448 0.0
H1544 H 0.8147 0.22773 0.96652 0.0
H1545 H 0.76203 0.14735 0.93215 0.0
H1546 H 0.75236 0.16949 0.88992 0.0
H1547 H 0.75812 0.21155 0.86301 0.0
H1548 H 0.81268 0.29132 0.89501 0.0
H1549 H 0.82211 0.26975 0.9382 0.0
C1550 C 0.80132 0.21506 0.94966 0.0
C1551 C 0.78906 0.186 0.95246 0.0
C1552 C 0.79588 0.22791 0.92526 0.0
C1553 C 0.77177 0.16975 0.93048 0.0
C1554 C 0.76608 0.18242 0.90637 0.0
C1555 C 0.77184 0.22432 0.87958 0.0
C1556 C 0.78437 0.25303 0.87623 0.0
C1557 C 0.77778 0.21151 0.90368 0.0
C1558 C 0.80261 0.2692 0.89745 0.0
C1559 C 0.80809 0.25684 0.92199 0.0
H1560 H 0.05894 0.46021 0.18066 0.0
H1561 H 0.13479 0.50011 0.14745 0.0
H1562 H 0.10983 0.50637 0.10442 0.0
H1563 H 0.06604 0.50721 0.07963 0.0
H1564 H 0.99015 0.46458 0.11031 0.0
H1565 H 0.01549 0.45348 0.15166 0.0
C1566 C 0.07004 0.46965 0.16374 0.0
C1567 C 0.09855 0.48016 0.16738 0.0
C1568 C 0.05553 0.47341 0.13908 0.0
C1569 C 0.11279 0.49207 0.14523 0.0
C1570 C 0.09853 0.4959 0.12071 0.0
C1571 C 0.05513 0.49464 0.09486 0.0
C1572 C 0.02639 0.48663 0.092 0.0
C1573 C 0.06983 0.48768 0.11792 0.0
C1574 C 0.01235 0.47102 0.11223 0.0
C1575 C 0.02681 0.46464 0.13578 0.0
H1576 H 0.7479 0.81248 0.44885 0.0
H1577 H 0.81685 0.88216 0.44342 0.0
H1578 H 0.82176 0.86431 0.39489 0.0
H1579 H 0.80512 0.83022 0.35291 0.0
H1580 H 0.73382 0.76301 0.3572 0.0
H1581 H 0.73127 0.77831 0.40682 0.0
C1582 C 0.76412 0.82356 0.43708 0.0
C1583 C 0.78201 0.84858 0.44982 0.0
C1584 C 0.76637 0.81363 0.40878 0.0
C1585 C 0.80274 0.8629 0.43414 0.0
C1586 C 0.80559 0.85269 0.40634 0.0
C1587 C 0.78925 0.81873 0.36482 0.0
C1588 C 0.76978 0.79541 0.35134 0.0
C1589 C 0.78736 0.82825 0.39328 0.0
C1590 C 0.74905 0.78107 0.36701 0.0
C1591 C 0.74756 0.78981 0.39543 0.0
H1592 H 0.39888 0.5075 0.83404 0.0
H1593 H 0.47354 0.53929 0.79448 0.0
H1594 H 0.50103 0.53023 0.83511 0.0
H1595 H 0.50384 0.51414 0.88252 0.0
H1596 H 0.42897 0.483 0.92196 0.0
H1597 H 0.40165 0.49043 0.88066 0.0
C1598 C 0.42117 0.51258 0.83434 0.0
C1599 C 0.43411 0.52429 0.81131 0.0
C1600 C 0.43684 0.5071 0.85768 0.0
C1601 C 0.46303 0.53044 0.81198 0.0
C1602 C 0.47878 0.52515 0.83517 0.0
C1603 C 0.48156 0.50859 0.88185 0.0
C1604 C 0.46844 0.49786 0.9052 0.0
C1605 C 0.46592 0.51348 0.85817 0.0
C1606 C 0.43955 0.49114 0.90421 0.0
C1607 C 0.42391 0.49555 0.88066 0.0
H1608 H 0.75738 0.19629 0.10669 0.0
H1609 H 0.83482 0.2435 0.08347 0.0
H1610 H 0.83871 0.27592 0.12727 0.0
H1611 H 0.82174 0.28739 0.17432 0.0
H1612 H 0.74858 0.23254 0.19854 0.0
H1613 H 0.74087 0.20721 0.15209 0.0
C1614 C 0.77495 0.21396 0.11094 0.0
C1615 C 0.79575 0.2176 0.09198 0.0
C1616 C 0.77762 0.23132 0.13641 0.0
C1617 C 0.81856 0.24032 0.09791 0.0
C1618 C 0.82079 0.25877 0.12292 0.0
C1619 C 0.80387 0.2703 0.16911 0.0
C1620 C 0.78503 0.26278 0.18954 0.0
C1621 C 0.8007 0.25401 0.14268 0.0
C1622 C 0.76251 0.2399 0.18289 0.0
C1623 C 0.75836 0.22492 0.1564 0.0
H1624 H 0.08841 0.55335 0.31297 0.0
H1625 H 0.06207 0.45964 0.30286 0.0
H1626 H 0.03648 0.46243 0.34518 0.0
H1627 H 0.02632 0.49097 0.38782 0.0
H1628 H 0.05559 0.58418 0.39917 0.0
H1629 H 0.07518 0.58222 0.35339 0.0
C1630 C 0.07669 0.53358 0.31976 0.0
C1631 C 0.07729 0.50631 0.30504 0.0
C1632 C 0.06279 0.53527 0.34444 0.0
C1633 C 0.062 0.48088 0.314 0.0
C1634 C 0.04747 0.48245 0.33822 0.0
C1635 C 0.03657 0.51087 0.37999 0.0
C1636 C 0.03974 0.53764 0.39673 0.0
C1637 C 0.04842 0.50943 0.35404 0.0
C1638 C 0.05311 0.56332 0.38658 0.0
C1639 C 0.06433 0.5622 0.36048 0.0
H1640 H 0.7911 0.86432 0.62824 0.0
H1641 H 0.72763 0.80231 0.58003 0.0
H1642 H 0.7197 0.77412 0.62037 0.0
H1643 H 0.73149 0.76649 0.66967 0.0
H1644 H 0.79738 0.82729 0.71595 0.0
H1645 H 0.80328 0.85645 0.67657 0.0
C1646 C 0.77547 0.84467 0.62653 0.0
C1647 C 0.75998 0.83556 0.60103 0.0
C1648 C 0.77128 0.82832 0.64973 0.0
C1649 C 0.73994 0.80988 0.5993 0.0
C1650 C 0.73535 0.79374 0.62244 0.0
C1651 C 0.74696 0.78624 0.67117 0.0
C1652 C 0.76352 0.79491 0.69616 0.0
C1653 C 0.75095 0.80266 0.64783 0.0
C1654 C 0.78385 0.82033 0.6974 0.0
C1655 C 0.78744 0.83699 0.6747 0.0
H1656 H 0.71044 0.48284 0.54094 0.0
H1657 H 0.67497 0.42966 0.46567 0.0
H1658 H 0.63929 0.45928 0.46222 0.0
H1659 H 0.61724 0.49865 0.48116 0.0
H1660 H 0.64929 0.54991 0.5584 0.0
H1661 H 0.68792 0.52326 0.56009 0.0
C1662 C 0.69485 0.47778 0.52383 0.0
C1663 C 0.69525 0.45403 0.50364 0.0
C1664 C 0.67412 0.49476 0.52213 0.0
C1665 C 0.675 0.44769 0.48156 0.0
C1666 C 0.65468 0.46471 0.47947 0.0
C1667 C 0.63287 0.50436 0.49823 0.0
C1668 C 0.63056 0.52627 0.51959 0.0
C1669 C 0.65401 0.48815 0.49967 0.0
C1670 C 0.65082 0.53324 0.54162 0.0
C1671 C 0.67269 0.51782 0.5427 0.0
H1672 H 0.19259 0.0658 0.4805 0.0
H1673 H 0.1747 0.14242 0.52827 0.0
H1674 H 0.12684 0.11875 0.53008 0.0
H1675 H 0.08959 0.07693 0.51722 0.0
H1676 H 0.1063 1.00061 0.46823 0.0
H1677 H 0.15495 0.02329 0.46798 0.0
C1678 C 0.17821 0.07724 0.49135 0.0
C1679 C 0.18729 0.1059 0.50417 0.0
C1680 C 0.15045 0.06352 0.49216 0.0
C1681 C 0.16834 0.12042 0.51813 0.0
C1682 C 0.14091 0.10688 0.51923 0.0
C1683 C 0.1039 0.06516 0.50664 0.0
C1684 C 0.09435 0.03712 0.49275 0.0
C1685 C 0.13169 0.07852 0.50622 0.0
C1686 C 0.11315 0.02223 0.47906 0.0
C1687 C 0.14096 0.03523 0.47887 0.0
H1688 H 0.22646 0.95501 0.79655 0.0
H1689 H 0.14911 0.90654 0.75914 0.0
H1690 H 0.16946 0.86273 0.75141 0.0
H1691 H 0.20866 0.83764 0.75622 0.0
H1692 H 0.28604 0.88521 0.79452 0.0
H1693 H 0.26634 0.92975 0.80065 0.0
C1694 C 0.21409 0.93487 0.78667 0.0
C1695 C 0.18621 0.93414 0.77852 0.0
C1696 C 0.22596 0.90952 0.78234 0.0
C1697 C 0.17054 0.9078 0.76572 0.0
C1698 C 0.18219 0.88268 0.76124 0.0
C1699 C 0.22141 0.85775 0.7657 0.0
C1700 C 0.24892 0.85788 0.77481 0.0
C1701 C 0.20983 0.88322 0.76956 0.0
C1702 C 0.26486 0.8843 0.78721 0.0
C1703 C 0.25356 0.90984 0.79083 0.0
H1704 H 0.34234 0.95731 0.97964 0.0
H1705 H 0.34325 0.95997 0.0695 0.0
H1706 H 0.39163 0.98414 0.07301 0.0
H1707 H 0.43463 1.00002 0.05005 0.0
H1708 H 0.43364 0.99351 0.95993 0.0
H1709 H 0.38422 0.97519 0.95699 0.0
C1710 C 0.35297 0.96361 1.00004 0.0
C1711 C 0.33938 0.95685 0.02427 0.0
C1712 C 0.38083 0.9764 0.00179 0.0
C1713 C 0.35339 0.96497 0.05055 0.0
C1714 C 0.38104 0.97863 0.05254 0.0
C1715 C 0.4235 0.99486 0.02981 0.0
C1716 C 0.43774 0.99783 0.00525 0.0
C1717 C 0.39515 0.98373 0.02824 0.0
C1718 C 0.42316 0.99102 0.97913 0.0
C1719 C 0.3949 0.98066 0.97742 0.0
H1720 H 0.8507 0.59525 0.74369 0.0
H1721 H 0.86457 0.61914 0.83261 0.0
H1722 H 0.82709 0.64678 0.83203 0.0
H1723 H 0.79283 0.66683 0.806 0.0
H1724 H 0.7813 0.64699 0.71655 0.0
H1725 H 0.81466 0.61395 0.7177 0.0
C1726 C 0.84552 0.60656 0.7629 0.0
C1727 C 0.86055 0.60549 0.78809 0.0
C1728 C 0.82408 0.62262 0.76238 0.0
C1729 C 0.85352 0.61999 0.81289 0.0
C1730 C 0.83196 0.63559 0.81263 0.0
C1731 C 0.79711 0.65474 0.78681 0.0
C1732 C 0.78469 0.65921 0.76122 0.0
C1733 C 0.81733 0.63728 0.78748 0.0
C1734 C 0.79055 0.64365 0.7365 0.0
C1735 C 0.80986 0.62512 0.73713 0.0
H1736 H 0.82217 0.57111 0.01798 0.0
H1737 H 0.86596 0.64025 0.97457 0.0
H1738 H 0.90689 0.6177 0.97564 0.0
H1739 H 0.93091 0.57911 0.98994 0.0
H1740 H 0.8878 0.51009 0.03378 0.0
H1741 H 0.84607 0.53161 0.03138 0.0
C1742 C 0.84065 0.58118 0.00868 0.0
C1743 C 0.84092 0.60744 0.99627 0.0
C1744 C 0.8643 0.56808 0.00945 0.0
C1745 C 0.86509 0.62012 0.98431 0.0
C1746 C 0.88857 0.60722 0.98491 0.0
C1747 C 0.91233 0.56868 0.99884 0.0
C1748 C 0.91247 0.54302 0.01205 0.0
C1749 C 0.8885 0.58132 0.99756 0.0
C1750 C 0.88823 0.52981 0.02348 0.0
C1751 C 0.86438 0.54217 0.02216 0.0
H1752 H 0.2309 0.08591 0.81421 0.0
H1753 H 0.16465 0.1064 0.76298 0.0
H1754 H 0.19166 0.15448 0.75784 0.0
H1755 H 0.23465 0.19026 0.76669 0.0
H1756 H 0.29987 0.17152 0.82042 0.0
H1757 H 0.27293 0.12326 0.82562 0.0
C1758 C 0.22242 0.10096 0.80199 0.0
C1759 C 0.19589 0.09254 0.78888 0.0
C1760 C 0.23792 0.12887 0.79947 0.0
C1761 C 0.18502 0.11236 0.77332 0.0
C1762 C 0.20047 0.13985 0.77029 0.0
C1763 C 0.24281 0.17576 0.77981 0.0
C1764 C 0.26917 0.18446 0.79317 0.0
C1765 C 0.227 0.14829 0.78314 0.0
C1766 C 0.27959 0.16532 0.80991 0.0
C1767 C 0.26421 0.1377 0.81288 0.0
H1768 H 0.36158 0.96192 0.31325 0.0
H1769 H 0.36621 0.95305 0.22365 0.0
H1770 H 0.33032 0.90911 0.21993 0.0
H1771 H 0.30005 0.8718 0.24266 0.0
H1772 H 0.29622 0.88107 0.33249 0.0
H1773 H 0.32906 0.92693 0.33552 0.0
C1774 C 0.35478 0.95035 0.29289 0.0
C1775 C 0.36675 0.9603 0.26878 0.0
C1776 C 0.33415 0.92546 0.29096 0.0
C1777 C 0.35741 0.94552 0.2425 0.0
C1778 C 0.33688 0.92052 0.24038 0.0
C1779 C 0.30596 0.88411 0.26286 0.0
C1780 C 0.29587 0.87291 0.28735 0.0
C1781 C 0.32534 0.91013 0.26453 0.0
C1782 C 0.30381 0.88912 0.31335 0.0
C1783 C 0.32271 0.91525 0.31513 0.0
H1784 H 0.51077 0.3512 0.57818 0.0
H1785 H 0.59497 0.38632 0.60674 0.0
H1786 H 0.59358 0.42957 0.58207 0.0
H1787 H 0.56737 0.45894 0.55551 0.0
H1788 H 0.48237 0.4248 0.5289 0.0
H1789 H 0.48525 0.37953 0.54953 0.0
C1790 C 0.52892 0.36816 0.57873 0.0
C1791 C 0.55291 0.36562 0.59434 0.0
C1792 C 0.52777 0.39322 0.56499 0.0
C1793 C 0.57623 0.38781 0.59494 0.0
C1794 C 0.57543 0.41256 0.58088 0.0
C1795 C 0.54952 0.4415 0.55389 0.0
C1796 C 0.52462 0.44542 0.54078 0.0
C1797 C 0.55114 0.41574 0.5663 0.0
C1798 C 0.50175 0.42252 0.53899 0.0
C1799 C 0.50336 0.3966 0.55082 0.0
H1800 H 0.40733 0.77845 0.36762 0.0
H1801 H 0.43087 0.71675 0.30505 0.0
H1802 H 0.38827 0.71633 0.27697 0.0
H1803 H 0.3452 0.73554 0.26923 0.0
H1804 H 0.32469 0.80069 0.33037 0.0
H1805 H 0.36493 0.79754 0.35999 0.0
C1806 C 0.40298 0.7646 0.34801 0.0
C1807 C 0.42212 0.74751 0.33851 0.0
C1808 C 0.37895 0.76519 0.33164 0.0
C1809 C 0.41639 0.73005 0.31284 0.0
C1810 C 0.39208 0.72987 0.29675 0.0
C1811 C 0.34953 0.7489 0.2891 0.0
C1812 C 0.33168 0.76793 0.29779 0.0
C1813 C 0.37336 0.74769 0.30575 0.0
C1814 C 0.33774 0.78541 0.32342 0.0
C1815 C 0.36088 0.78377 0.34034 0.0
H1816 H 0.06595 0.68894 0.12266 0.0
H1817 H 0.0022 0.71124 0.06931 0.0
H1818 H 0.99674 0.66345 0.04229 0.0
H1819 H 0.0086 0.61451 0.03511 0.0
H1820 H 0.07381 0.59275 0.08691 0.0
H1821 H 0.08042 0.64119 0.113 0.0
C1822 C 0.05097 0.68333 0.10503 0.0
C1823 C 0.03433 0.70345 0.09813 0.0
C1824 C 0.04823 0.65594 0.0893 0.0
C1825 C 0.01523 0.6961 0.07504 0.0
C1826 C 0.01205 0.66875 0.05962 0.0
C1827 C 0.02438 0.62045 0.052 0.0
C1828 C 0.04054 0.59999 0.0592 0.0
C1829 C 0.02822 0.64839 0.06675 0.0
C1830 C 0.06114 0.60812 0.08089 0.0
C1831 C 0.06484 0.63577 0.09593 0.0
H1832 H 0.09937 0.23447 0.86054 0.0
H1833 H 0.07246 0.29348 0.80612 0.0
H1834 H 0.11449 0.29441 0.78053 0.0
H1835 H 0.15946 0.27879 0.77426 0.0
H1836 H 0.18425 0.2173 0.82734 0.0
H1837 H 0.14238 0.21662 0.85252 0.0
C1838 C 0.10282 0.24769 0.84319 0.0
C1839 C 0.08315 0.26425 0.83546 0.0
C1840 C 0.12653 0.2474 0.82816 0.0
C1841 C 0.0875 0.28074 0.81255 0.0
C1842 C 0.11146 0.2812 0.7979 0.0
C1843 C 0.15547 0.26502 0.79113 0.0
C1844 C 0.17494 0.2482 0.79899 0.0
C1845 C 0.13115 0.26459 0.80551 0.0
C1846 C 0.16957 0.23043 0.82086 0.0
C1847 C 0.14569 0.23013 0.8354 0.0
H1848 H 0.49826 0.6807 0.93489 0.0
H1849 H 0.57421 0.71935 0.98171 0.0
H1850 H 0.57055 0.67695 0.00862 0.0
H1851 H 0.54748 0.62709 0.01626 0.0
H1852 H 0.47236 0.58828 0.96802 0.0
H1853 H 0.47371 0.63268 0.94467 0.0
C1854 C 0.51394 0.67995 0.9511 0.0
C1855 C 0.5366 0.70304 0.9561 0.0
C1856 C 0.51177 0.65548 0.96635 0.0
C1857 C 0.55663 0.70179 0.97733 0.0
C1858 C 0.55453 0.67756 0.99274 0.0
C1859 C 0.53106 0.62866 1.00115 0.0
C1860 C 0.5098 0.60443 0.99395 0.0
C1861 C 0.53238 0.65405 0.98717 0.0
C1862 C 0.48894 0.60662 0.97394 0.0
C1863 C 0.48978 0.63195 0.96045 0.0
H1864 H 0.1024 0.75949 0.64659 0.0
H1865 H 0.06017 0.76412 0.72314 0.0
H1866 H 0.10007 0.75329 0.74905 0.0
H1867 H 0.14787 0.74495 0.75033 0.0
H1868 H 0.19092 0.74299 0.67425 0.0
H1869 H 0.14967 0.74972 0.64764 0.0
C1870 C 0.10193 0.75807 0.66893 0.0
C1871 C 0.07844 0.76279 0.68296 0.0
C1872 C 0.12502 0.75206 0.68372 0.0
C1873 C 0.07808 0.76079 0.71189 0.0
C1874 C 0.10085 0.75449 0.72671 0.0
C1875 C 0.14799 0.74543 0.72785 0.0
C1876 C 0.17223 0.74329 0.71417 0.0
C1877 C 0.12451 0.75031 0.71288 0.0
C1878 C 0.17237 0.74446 0.68514 0.0
C1879 C 0.14888 0.74849 0.66998 0.0
H1880 H 0.04342 0.37986 0.42185 0.0
H1881 H 0.0482 0.33322 0.49471 0.0
H1882 H 0.04362 0.37698 0.52484 0.0
H1883 H 0.03605 0.42771 0.53028 0.0
H1884 H 0.03169 0.47454 0.45777 0.0
H1885 H 0.03828 0.43152 0.42755 0.0
C1886 C 0.04367 0.37935 0.44434 0.0
C1887 C 0.04602 0.35331 0.45605 0.0
C1888 C 0.04089 0.40454 0.46151 0.0
C1889 C 0.04639 0.35299 0.48521 0.0
C1890 C 0.0437 0.37797 0.50243 0.0
C1891 C 0.03666 0.42851 0.50786 0.0
C1892 C 0.03301 0.45411 0.4961 0.0
C1893 C 0.04058 0.40372 0.49078 0.0
C1894 C 0.03406 0.45497 0.46713 0.0
C1895 C 0.03791 0.43039 0.44992 0.0
H1896 H 0.44033 0.30869 0.19615 0.0
H1897 H 0.41904 0.21749 0.1647 0.0
H1898 H 0.37937 0.21148 0.19346 0.0
H1899 H 0.34956 0.23228 0.22587 0.0
H1900 H 0.36904 0.32388 0.25622 0.0
H1901 H 0.41069 0.32942 0.22995 0.0
C1902 C 0.42702 0.28752 0.19566 0.0
C1903 C 0.4326 0.26363 0.17816 0.0
C1904 C 0.40396 0.28421 0.21218 0.0
C1905 C 0.41517 0.23631 0.17781 0.0
C1906 C 0.39248 0.2328 0.19434 0.0
C1907 C 0.36306 0.25342 0.22714 0.0
C1908 C 0.35611 0.2776 0.24313 0.0
C1909 C 0.38656 0.25662 0.21143 0.0
C1910 C 0.37384 0.30485 0.24416 0.0
C1911 C 0.39762 0.30807 0.22901 0.0
H1912 H 0.61442 0.53945 0.38074 0.0
H1913 H 0.57504 0.45337 0.34505 0.0
H1914 H 0.54317 0.4502 0.38279 0.0
H1915 H 0.52565 0.47268 0.42573 0.0
H1916 H 0.56502 0.55944 0.45984 0.0
H1917 H 0.59753 0.56147 0.42317 0.0
C1918 C 0.59899 0.5199 0.38128 0.0
C1919 C 0.59718 0.49669 0.36009 0.0
C1920 C 0.58056 0.51837 0.40283 0.0
C1921 C 0.57693 0.47157 0.36111 0.0
C1922 C 0.55864 0.46977 0.38267 0.0
C1923 C 0.54137 0.49196 0.42507 0.0
C1924 C 0.54295 0.51577 0.44565 0.0
C1925 C 0.56009 0.49315 0.40359 0.0
C1926 C 0.5634 0.54067 0.44445 0.0
C1927 C 0.58205 0.54192 0.42342 0.0
H1928 H 0.22479 0.83665 0.0836 0.0
H1929 H 0.31179 0.84152 0.07342 0.0
H1930 H 0.31596 0.81618 0.11502 0.0
H1931 H 0.29582 0.79705 0.15679 0.0
H1932 H 0.20889 0.79181 0.16706 0.0
H1933 H 0.20365 0.81258 0.1228 0.0
C1934 C 0.24457 0.83184 0.09034 0.0
C1935 C 0.26799 0.84126 0.07573 0.0
C1936 C 0.24686 0.81735 0.11435 0.0
C1937 C 0.29347 0.83465 0.08446 0.0
C1938 C 0.29591 0.82021 0.10827 0.0
C1939 C 0.27568 0.80003 0.14906 0.0
C1940 C 0.25285 0.7934 0.1652 0.0
C1941 C 0.27288 0.81211 0.12374 0.0
C1942 C 0.2268 0.79711 0.15501 0.0
C1943 C 0.22381 0.80902 0.12977 0.0
H1944 H 0.93566 0.54029 0.88626 0.0
H1945 H 0.00556 0.58624 0.84787 0.0
H1946 H 0.03576 0.58062 0.88814 0.0
H1947 H 0.04227 0.55879 0.93293 0.0
H1948 H 0.9716 0.50704 0.96546 0.0
H1949 H 0.94175 0.51886 0.92895 0.0
C1950 C 0.95744 0.54951 0.88676 0.0
C1951 C 0.96838 0.56371 0.86423 0.0
C1952 C 0.97458 0.54492 0.90896 0.0
C1953 C 0.99669 0.57527 0.86512 0.0
C1954 C 0.01393 0.57188 0.88801 0.0
C1955 C 0.02033 0.55034 0.93196 0.0
C1956 C 0.00907 0.53267 0.95228 0.0
C1957 C 0.00317 0.5561 0.90982 0.0
C1958 C 0.98072 0.52133 0.95057 0.0
C1959 C 0.96356 0.52791 0.92956 0.0
H1960 H 0.30367 0.17576 0.60084 0.0
H1961 H 0.24145 0.22167 0.57157 0.0
H1962 H 0.23728 0.24281 0.61938 0.0
H1963 H 0.25118 0.24791 0.67022 0.0
H1964 H 0.31573 0.20426 0.69808 0.0
H1965 H 0.31893 0.18252 0.65054 0.0
C1966 C 0.28931 0.19054 0.60489 0.0
C1967 C 0.27292 0.19708 0.5826 0.0
C1968 C 0.28726 0.20288 0.6324 0.0
C1969 C 0.25448 0.21637 0.58827 0.0
C1970 C 0.25196 0.22836 0.61568 0.0
C1971 C 0.26577 0.23349 0.6658 0.0
C1972 C 0.28305 0.22753 0.68772 0.0
C1973 C 0.26813 0.22165 0.63803 0.0
C1974 C 0.3022 0.2092 0.68161 0.0
C1975 C 0.30408 0.19675 0.6544 0.0
H1976 H 0.6384 0.52992 0.19535 0.0
H1977 H 0.56191 0.50963 0.23558 0.0
H1978 H 0.5365 0.51948 0.1939 0.0
H1979 H 0.53591 0.53215 0.14525 0.0
H1980 H 0.6125 0.55174 0.10509 0.0
H1981 H 0.63801 0.54439 0.14762 0.0
C1982 C 0.61616 0.5276 0.19499 0.0
C1983 C 0.60205 0.5188 0.21844 0.0
C1984 C 0.60172 0.53345 0.17103 0.0
C1985 C 0.57326 0.51621 0.21774 0.0
C1986 C 0.55872 0.52192 0.19394 0.0
C1987 C 0.55821 0.53525 0.14601 0.0
C1988 C 0.57234 0.54255 0.12214 0.0
C1989 C 0.57272 0.53042 0.1704 0.0
C1990 C 0.6012 0.54621 0.12326 0.0
C1991 C 0.61578 0.54185 0.14751 0.0
H1992 H 0.24078 0.81015 0.94508 0.0
H1993 H 0.30459 0.88007 0.92552 0.0
H1994 H 0.30652 0.85541 0.87912 0.0
H1995 H 0.28777 0.81655 0.84308 0.0
H1996 H 0.22514 0.74519 0.86133 0.0
H1997 H 0.22497 0.7679 0.90943 0.0
C1998 C 0.25521 0.81979 0.93068 0.0
C1999 C 0.27228 0.84703 0.93858 0.0
C2000 C 0.25635 0.80538 0.90389 0.0
C2001 C 0.29111 0.8592 0.9199 0.0
C2002 C 0.29224 0.84516 0.89333 0.0
C2003 C 0.27457 0.8055 0.85772 0.0
C2004 C 0.25661 0.77922 0.84879 0.0
C2005 C 0.27467 0.81856 0.885 0.0
C2006 C 0.23923 0.76545 0.86785 0.0
C2007 C 0.23905 0.77849 0.89525 0.0
H2008 H 0.98084 0.57935 0.72114 0.0
H2009 H 0.94643 0.48753 0.71987 0.0
H2010 H 0.96549 0.47756 0.67489 0.0
H2011 H 0.98847 0.49537 0.6342 0.0
H2012 H 0.02396 0.58666 0.63505 0.0
H2013 H 0.00821 0.59645 0.68207 0.0
C2014 C 0.97782 0.55715 0.71111 0.0
C2015 C 0.96201 0.53428 0.7236 0.0
C2016 C 0.98891 0.55151 0.68519 0.0
C2017 C 0.95843 0.50555 0.71059 0.0
C2018 C 0.96925 0.4998 0.68484 0.0
C2019 C 0.99303 0.51732 0.64488 0.0
C2020 C 0.00708 0.54031 0.63135 0.0
C2021 C 0.98399 0.52268 0.67171 0.0
C2022 C 0.01318 0.56864 0.64528 0.0
C2023 C 0.00406 0.57425 0.67203 0.0
H2024 H 0.30544 0.22661 0.44081 0.0
H2025 H 0.24045 0.15686 0.40587 0.0
H2026 H 0.2404 0.1787 0.36175 0.0
H2027 H 0.25784 0.21825 0.33313 0.0
H2028 H 0.32343 0.28767 0.36717 0.0
H2029 H 0.32428 0.26541 0.41125 0.0
C2030 C 0.2913 0.21619 0.42353 0.0
C2031 C 0.27288 0.19013 0.42684 0.0
C2032 C 0.29148 0.22884 0.39791 0.0
C2033 C 0.25483 0.17689 0.40406 0.0
C2034 C 0.25477 0.18939 0.37874 0.0
C2035 C 0.27249 0.2284 0.3501 0.0
C2036 C 0.29054 0.25466 0.34678 0.0
C2037 C 0.27289 0.21542 0.37542 0.0
C2038 C 0.30931 0.26748 0.36909 0.0
C2039 C 0.30976 0.25477 0.39437 0.0
H2040 H 0.33243 0.57892 0.49153 0.0
H2041 H 0.34958 0.60353 0.58 0.0
H2042 H 0.38327 0.57115 0.58099 0.0
H2043 H 0.41109 0.54024 0.55596 0.0
H2044 H 0.39705 0.5186 0.46686 0.0
H2045 H 0.35813 0.54464 0.46696 0.0
C2046 C 0.3434 0.57698 0.51104 0.0
C2047 C 0.33886 0.59383 0.53558 0.0
C2048 C 0.36308 0.55872 0.51135 0.0
C2049 C 0.35302 0.59103 0.56077 0.0
C2050 C 0.37219 0.57246 0.56138 0.0
C2051 C 0.39913 0.54066 0.53664 0.0
C2052 C 0.40691 0.52776 0.5114 0.0
C2053 C 0.37781 0.55676 0.53669 0.0
C2054 C 0.39132 0.52841 0.48653 0.0
C2055 C 0.3693 0.54353 0.48656 0.0
H2056 H 0.84751 0.97324 0.54776 0.0
H2057 H 0.87111 0.89009 0.52407 0.0
H2058 H 0.91838 0.91446 0.51958 0.0
H2059 H 0.95319 0.95927 0.52216 0.0
H2060 H 0.93103 0.04236 0.54866 0.0
H2061 H 0.88311 0.01831 0.55201 0.0
C2062 C 0.86305 0.96048 0.54175 0.0
C2063 C 0.8557 0.92984 0.53627 0.0
C2064 C 0.89044 0.97467 0.53947 0.0
C2065 C 0.87614 0.91364 0.52856 0.0
C2066 C 0.9032 0.92758 0.52584 0.0
C2067 C 0.93783 0.97215 0.52847 0.0
C2068 C 0.94556 0.00261 0.5349 0.0
C2069 C 0.91058 0.95807 0.53112 0.0
C2070 C 0.92553 0.01891 0.5435 0.0
C2071 C 0.89816 0.00514 0.54548 0.0
H2072 H 0.81438 0.09093 0.23294 0.0
H2073 H 0.89251 0.13503 0.27232 0.0
H2074 H 0.87336 0.17907 0.28357 0.0
H2075 H 0.83516 0.20573 0.28129 0.0
H2076 H 0.7569 0.16291 0.24124 0.0
H2077 H 0.77524 0.11781 0.23161 0.0
C2078 C 0.82719 0.11019 0.24398 0.0
C2079 C 0.85495 0.10959 0.25163 0.0
C2080 C 0.81599 0.13571 0.25044 0.0
C2081 C 0.87116 0.13477 0.26605 0.0
C2082 C 0.8602 0.16003 0.27256 0.0
C2083 C 0.82189 0.18653 0.27067 0.0
C2084 C 0.79455 0.18793 0.26208 0.0
C2085 C 0.8327 0.16082 0.26478 0.0
C2086 C 0.77794 0.16263 0.24824 0.0
C2087 C 0.78849 0.1368 0.24258 0.0
H2088 H 0.70173 0.10672 0.98958 0.0
H2089 H 0.71539 0.09455 0.07637 0.0
H2090 H 0.66731 0.06988 0.0776 0.0
H2091 H 0.62093 0.0538 0.05401 0.0
H2092 H 0.60917 0.06534 0.96654 0.0
H2093 H 0.65712 0.08815 0.96558 0.0
C2094 C 0.6942 0.09859 0.00877 0.0
C2095 C 0.71176 0.10263 0.03292 0.0
C2096 C 0.66693 0.08438 0.00918 0.0
C2097 C 0.70204 0.09164 0.05754 0.0
C2098 C 0.67462 0.07767 0.05824 0.0
C2099 C 0.62894 0.06123 0.03476 0.0
C2100 C 0.61144 0.05802 0.01047 0.0
C2101 C 0.65677 0.07423 0.03422 0.0
C2102 C 0.62214 0.06745 0.98557 0.0
C2103 C 0.64958 0.08061 0.98496 0.0
H2104 H 0.21301 0.45206 0.23273 0.0
H2105 H 0.17671 0.44607 0.3125 0.0
H2106 H 0.20822 0.41423 0.32598 0.0
H2107 H 0.24247 0.38396 0.3129 0.0
H2108 H 0.27701 0.38823 0.2322 0.0
H2109 H 0.25039 0.42563 0.22153 0.0
C2110 C 0.21214 0.44394 0.25313 0.0
C2111 C 0.19235 0.45092 0.27143 0.0
C2112 C 0.23014 0.42556 0.26063 0.0
C2113 C 0.19164 0.44067 0.29796 0.0
C2114 C 0.20967 0.42254 0.3057 0.0
C2115 C 0.2447 0.39371 0.29333 0.0
C2116 C 0.26147 0.38344 0.2733 0.0
C2117 C 0.22857 0.41432 0.28694 0.0
C2118 C 0.26412 0.39592 0.2479 0.0
C2119 C 0.24876 0.41707 0.2417 0.0
H2120 H 0.21993 0.45918 0.02014 0.0
H2121 H 0.18013 0.38821 0.06394 0.0
H2122 H 0.13808 0.4088 0.06447 0.0
H2123 H 0.11194 0.44607 0.05133 0.0
H2124 H 0.15097 0.51686 0.00703 0.0
H2125 H 0.19392 0.49744 0.008 0.0
C2126 C 0.20208 0.4483 0.02988 0.0
C2127 C 0.20321 0.42211 0.0419 0.0
C2128 C 0.17777 0.46024 0.03 0.0
C2129 C 0.17987 0.40832 0.05446 0.0
C2130 C 0.15576 0.42009 0.05478 0.0
C2131 C 0.1299 0.45732 0.042 0.0
C2132 C 0.12828 0.48282 0.02906 0.0
C2133 C 0.15439 0.44589 0.04245 0.0
C2134 C 0.15171 0.49719 0.01712 0.0
C2135 C 0.17625 0.48604 0.01761 0.0
H2136 H 0.86624 0.93322 0.25524 0.0
H2137 H 0.804 0.96491 0.20749 0.0
H2138 H 0.77309 0.91771 0.20735 0.0
H2139 H 0.7633 0.86775 0.22203 0.0
H2140 H 0.825 0.83733 0.27171 0.0
H2141 H 0.85664 0.88354 0.26967 0.0
C2142 C 0.84596 0.92977 0.24468 0.0
C2143 C 0.83745 0.95256 0.23136 0.0
C2144 C 0.8282 0.90275 0.24502 0.0
C2145 C 0.81103 0.94776 0.21793 0.0
C2146 C 0.79337 0.92077 0.21783 0.0
C2147 C 0.78375 0.87122 0.23223 0.0
C2148 C 0.79185 0.84913 0.24693 0.0
C2149 C 0.80166 0.89814 0.23146 0.0
C2150 C 0.81831 0.85397 0.26023 0.0
C2151 C 0.83639 0.88042 0.25912 0.0
H2152 H 0.71707 0.08947 0.71868 0.0
H2153 H 0.7001 0.0945 0.80607 0.0
H2154 H 0.73088 0.14191 0.8143 0.0
H2155 H 0.75739 0.18432 0.79541 0.0
H2156 H 0.77134 0.18073 0.70729 0.0
H2157 H 0.74742 0.12994 0.70068 0.0
C2158 C 0.72039 0.10078 0.73959 0.0
C2159 C 0.70608 0.08884 0.76166 0.0
C2160 C 0.73753 0.12823 0.744 0.0
C2161 C 0.7107 0.10351 0.7887 0.0
C2162 C 0.72828 0.13057 0.79341 0.0
C2163 C 0.75582 0.17221 0.77488 0.0
C2164 C 0.76583 0.18625 0.7518 0.0
C2165 C 0.7411 0.1435 0.77104 0.0
C2166 C 0.76354 0.17038 0.72531 0.0
C2167 C 0.74977 0.14143 0.7215 0.0
loop_
_geom_bond_atom_site_label_1
_geom_bond_atom_site_label_2
_geom_bond_distance
_geom_bond_site_symmetry_2
_ccdc_geom_bond_type
In0 O1 2.294 . S
In0 O2 2.326 . S
In0 O6 2.267 . S
In0 O7 2.326 1_455 S
In0 O8 2.266 . S
In0 O9 2.326 . S
In0 O11 2.294 . S
In0 O12 2.326 . S
O1 In0 2.294 . S
O1 C10 1.240 . S
O2 In0 2.326 . S
O2 C10 1.252 . S
C3 O6 1.251 1_655 S
C3 O7 1.260 . S
C4 O11 1.240 . S
C4 O12 1.252 . S
C5 O8 1.252 . S
C5 O9 1.260 . S
O6 In0 2.267 . S
O6 C3 1.251 1_455 S
O7 In0 2.326 1_655 S
O7 C3 1.260 . S
O8 In0 2.266 . S
O8 C5 1.252 . S
O9 In0 2.326 . S
O9 C5 1.260 . S
C10 O1 1.240 . S
C10 O2 1.252 . S
O11 In0 2.294 . S
O11 C4 1.240 . S
O12 In0 2.326 . S
O12 C4 1.252 . S
In13 O14 2.294 . S
In13 O15 2.326 . S
In13 O19 2.266 . S
In13 O20 2.326 . S
In13 O21 2.266 1_455 S
In13 O22 2.326 1_455 S
In13 O24 2.294 . S
In13 O25 2.326 . S
O14 In13 2.294 . S
O14 C23 1.240 . S
O15 In13 2.326 . S
O15 C23 1.252 . S
C16 O19 1.252 . S
C16 O20 1.260 . S
C17 O24 1.240 . S
C17 O25 1.252 . S
C18 O21 1.252 . S
C18 O22 1.260 . S
O19 In13 2.266 . S
O19 C16 1.252 . S
O20 In13 2.326 . S
O20 C16 1.260 . S
O21 In13 2.266 1_655 S
O21 C18 1.252 . S
O22 In13 2.326 1_655 S
O22 C18 1.260 . S
C23 O14 1.240 . S
C23 O15 1.252 . S
O24 In13 2.294 . S
O24 C17 1.240 . S
O25 In13 2.326 . S
O25 C17 1.252 . S
In26 O27 2.294 . S
In26 O28 2.326 . S
In26 O32 2.266 . S
In26 O33 2.326 . S
In26 O34 2.266 . S
In26 O35 2.326 . S
In26 O37 2.294 . S
In26 O38 2.326 . S
O27 In26 2.294 . S
O27 C36 1.240 . S
O28 In26 2.326 . S
O28 C36 1.252 . S
C29 O32 1.252 . S
C29 O33 1.260 . S
C30 O37 1.240 . S
C30 O38 1.252 . S
C31 O34 1.252 . S
C31 O35 1.260 . S
O32 In26 2.266 . S
O32 C29 1.252 . S
O33 In26 2.326 . S
O33 C29 1.260 . S
O34 In26 2.266 . S
O34 C31 1.252 . S
O35 In26 2.326 . S
O35 C31 1.260 . S
C36 O27 1.240 . S
C36 O28 1.252 . S
O37 In26 2.294 . S
O37 C30 1.240 . S
O38 In26 2.326 . S
O38 C30 1.252 . S
In39 O40 2.294 . S
In39 O41 2.326 . S
In39 O45 2.266 . S
In39 O46 2.326 . S
In39 O47 2.266 . S
In39 O48 2.326 . S
In39 O50 2.294 . S
In39 O51 2.326 . S
O40 In39 2.294 . S
O40 C49 1.240 . S
O41 In39 2.326 . S
O41 C49 1.252 . S
C42 O45 1.252 . S
C42 O46 1.260 . S
C43 O50 1.240 . S
C43 O51 1.252 . S
C44 O47 1.252 . S
C44 O48 1.260 . S
O45 In39 2.266 . S
O45 C42 1.252 . S
O46 In39 2.326 . S
O46 C42 1.260 . S
O47 In39 2.266 . S
O47 C44 1.252 . S
O48 In39 2.326 . S
O48 C44 1.260 . S
C49 O40 1.240 . S
C49 O41 1.252 . S
O50 In39 2.294 . S
O50 C43 1.240 . S
O51 In39 2.326 . S
O51 C43 1.252 . S
In52 O53 2.294 . S
In52 O54 2.326 . S
In52 O58 2.266 . S
In52 O59 2.326 . S
In52 O60 2.266 . S
In52 O61 2.326 . S
In52 O63 2.294 . S
In52 O64 2.326 1_455 S
O53 In52 2.294 . S
O53 C62 1.240 . S
O54 In52 2.326 . S
O54 C62 1.252 . S
C55 O58 1.252 . S
C55 O59 1.260 . S
C56 O63 1.240 1_655 S
C56 O64 1.252 . S
C57 O60 1.252 . S
C57 O61 1.260 . S
O58 In52 2.266 . S
O58 C55 1.252 . S
O59 In52 2.326 . S
O59 C55 1.260 . S
O60 In52 2.266 . S
O60 C57 1.252 . S
O61 In52 2.326 . S
O61 C57 1.260 . S
C62 O53 1.240 . S
C62 O54 1.252 . S
O63 In52 2.294 . S
O63 C56 1.240 1_455 S
O64 In52 2.326 1_655 S
O64 C56 1.252 . S
In65 O66 2.294 . S
In65 O67 2.326 . S
In65 O71 2.266 . S
In65 O72 2.326 . S
In65 O73 2.266 . S
In65 O74 2.326 . S
In65 O76 2.294 . S
In65 O77 2.326 . S
O66 In65 2.294 . S
O66 C75 1.240 . S
O67 In65 2.326 . S
O67 C75 1.252 . S
C68 O71 1.252 . S
C68 O72 1.260 . S
C69 O76 1.240 . S
C69 O77 1.252 . S
C70 O73 1.252 . S
C70 O74 1.260 . S
O71 In65 2.266 . S
O71 C68 1.252 . S
O72 In65 2.326 . S
O72 C68 1.260 . S
O73 In65 2.266 . S
O73 C70 1.252 . S
O74 In65 2.326 . S
O74 C70 1.260 . S
C75 O66 1.240 . S
C75 O67 1.252 . S
O76 In65 2.294 . S
O76 C69 1.240 . S
O77 In65 2.326 . S
O77 C69 1.252 . S
In78 O79 2.294 . S
In78 O80 2.326 . S
In78 O84 2.266 . S
In78 O85 2.326 . S
In78 O86 2.266 . S
In78 O87 2.326 . S
In78 O89 2.294 . S
In78 O90 2.326 . S
O79 In78 2.294 . S
O79 C88 1.240 . S
O80 In78 2.326 . S
O80 C88 1.252 . S
C81 O84 1.252 . S
C81 O85 1.260 . S
C82 O89 1.240 . S
C82 O90 1.252 . S
C83 O86 1.252 . S
C83 O87 1.260 . S
O84 In78 2.266 . S
O84 C81 1.252 . S
O85 In78 2.326 . S
O85 C81 1.260 . S
O86 In78 2.266 . S
O86 C83 1.252 . S
O87 In78 2.326 . S
O87 C83 1.260 . S
C88 O79 1.240 . S
C88 O80 1.252 . S
O89 In78 2.294 . S
O89 C82 1.240 . S
O90 In78 2.326 . S
O90 C82 1.252 . S
In91 O92 2.294 . S
In91 O93 2.326 . S
In91 O97 2.266 . S
In91 O98 2.326 . S
In91 O99 2.266 1_455 S
In91 O100 2.326 1_455 S
In91 O102 2.294 . S
In91 O103 2.326 . S
O92 In91 2.294 . S
O92 C101 1.240 . S
O93 In91 2.326 . S
O93 C101 1.252 . S
C94 O97 1.252 . S
C94 O98 1.260 . S
C95 O102 1.240 . S
C95 O103 1.252 . S
C96 O99 1.252 . S
C96 O100 1.260 . S
O97 In91 2.266 . S
O97 C94 1.252 . S
O98 In91 2.326 . S
O98 C94 1.260 . S
O99 In91 2.266 1_655 S
O99 C96 1.252 . S
O100 In91 2.326 1_655 S
O100 C96 1.260 . S
C101 O92 1.240 . S
C101 O93 1.252 . S
O102 In91 2.294 . S
O102 C95 1.240 . S
O103 In91 2.326 . S
O103 C95 1.252 . S
In104 O105 2.294 . S
In104 O106 2.326 . S
In104 O110 2.266 . S
In104 O111 2.326 . S
In104 O112 2.266 1_545 S
In104 O113 2.326 1_545 S
In104 O115 2.294 . S
In104 O116 2.326 . S
O105 In104 2.294 . S
O105 C114 1.240 . S
O106 In104 2.326 . S
O106 C114 1.252 . S
C107 O110 1.252 . S
C107 O111 1.260 . S
C108 O115 1.240 . S
C108 O116 1.252 . S
C109 O112 1.252 . S
C109 O113 1.260 . S
O110 In104 2.266 . S
O110 C107 1.252 . S
O111 In104 2.326 . S
O111 C107 1.260 . S
O112 In104 2.266 1_565 S
O112 C109 1.252 . S
O113 In104 2.326 1_565 S
O113 C109 1.260 . S
C114 O105 1.240 . S
C114 O106 1.252 . S
O115 In104 2.294 . S
O115 C108 1.240 . S
O116 In104 2.326 . S
O116 C108 1.252 . S
In117 O118 2.294 . S
In117 O119 2.326 . S
In117 O123 2.266 . S
In117 O124 2.326 . S
In117 O125 2.266 . S
In117 O126 2.326 . S
In117 O128 2.294 . S
In117 O129 2.326 . S
O118 In117 2.294 . S
O118 C127 1.240 . S
O119 In117 2.326 . S
O119 C127 1.252 . S
C120 O123 1.252 . S
C120 O124 1.260 . S
C121 O128 1.240 . S
C121 O129 1.252 . S
C122 O125 1.252 . S
C122 O126 1.260 . S
O123 In117 2.266 . S
O123 C120 1.252 . S
O124 In117 2.326 . S
O124 C120 1.260 . S
O125 In117 2.266 . S
O125 C122 1.252 . S
O126 In117 2.326 . S
O126 C122 1.260 . S
C127 O118 1.240 . S
C127 O119 1.252 . S
O128 In117 2.294 . S
O128 C121 1.240 . S
O129 In117 2.326 . S
O129 C121 1.252 . S
In130 O131 2.294 1_545 S
In130 O132 2.326 1_545 S
In130 O136 2.266 . S
In130 O137 2.326 . S
In130 O138 2.264 . S
In130 O139 2.322 . S
In130 O141 2.296 1_545 S
In130 O142 2.330 1_545 S
O131 In130 2.294 1_565 S
O131 C140 1.240 . S
O132 In130 2.326 1_565 S
O132 C140 1.252 . S
C133 O136 1.252 . S
C133 O137 1.260 . S
C134 O141 1.240 . S
C134 O142 1.252 . S
C135 O138 1.252 . S
C135 O139 1.260 . S
O136 In130 2.266 . S
O136 C133 1.252 . S
O137 In130 2.326 . S
O137 C133 1.260 . S
O138 In130 2.264 . S
O138 C135 1.252 . S
O139 In130 2.322 . S
O139 C135 1.260 . S
C140 O131 1.240 . S
C140 O132 1.252 . S
O141 In130 2.296 1_565 S
O141 C134 1.240 . S
O142 In130 2.330 1_565 S
O142 C134 1.252 . S
In143 O144 2.294 . S
In143 O145 2.326 . S
In143 O149 2.266 1_554 S
In143 O150 2.326 1_554 S
In143 O151 2.266 . S
In143 O152 2.326 . S
In143 O154 2.294 . S
In143 O155 2.326 . S
O144 In143 2.294 . S
O144 C153 1.240 . S
O145 In143 2.326 . S
O145 C153 1.252 . S
C146 O149 1.252 . S
C146 O150 1.260 . S
C147 O154 1.240 . S
C147 O155 1.252 . S
C148 O151 1.252 . S
C148 O152 1.260 . S
O149 In143 2.266 1_556 S
O149 C146 1.252 . S
O150 In143 2.326 1_556 S
O150 C146 1.260 . S
O151 In143 2.266 . S
O151 C148 1.252 . S
O152 In143 2.326 . S
O152 C148 1.260 . S
C153 O144 1.240 . S
C153 O145 1.252 . S
O154 In143 2.294 . S
O154 C147 1.240 . S
O155 In143 2.326 . S
O155 C147 1.252 . S
In156 O157 2.294 . S
In156 O158 2.326 . S
In156 O162 2.266 1_554 S
In156 O163 2.326 1_554 S
In156 O164 2.266 . S
In156 O165 2.326 . S
In156 O167 2.294 . S
In156 O168 2.326 . S
O157 In156 2.294 . S
O157 C166 1.240 . S
O158 In156 2.326 . S
O158 C166 1.252 . S
C159 O162 1.252 . S
C159 O163 1.260 . S
C160 O167 1.240 . S
C160 O168 1.252 . S
C161 O164 1.252 . S
C161 O165 1.260 . S
O162 In156 2.266 1_556 S
O162 C159 1.252 . S
O163 In156 2.326 1_556 S
O163 C159 1.260 . S
O164 In156 2.266 . S
O164 C161 1.252 . S
O165 In156 2.326 . S
O165 C161 1.260 . S
C166 O157 1.240 . S
C166 O158 1.252 . S
O167 In156 2.294 . S
O167 C160 1.240 . S
O168 In156 2.326 . S
O168 C160 1.252 . S
In169 O170 2.294 . S
In169 O171 2.326 . S
In169 O175 2.266 1_554 S
In169 O176 2.326 . S
In169 O177 2.266 1_554 S
In169 O178 2.326 1_554 S
In169 O180 2.294 . S
In169 O181 2.326 . S
O170 In169 2.294 . S
O170 C179 1.240 . S
O171 In169 2.326 . S
O171 C179 1.252 . S
C172 O175 1.253 . S
C172 O176 1.258 1_556 S
C173 O180 1.240 . S
C173 O181 1.252 . S
C174 O177 1.252 . S
C174 O178 1.260 . S
O175 In169 2.266 1_556 S
O175 C172 1.253 . S
O176 In169 2.326 . S
O176 C172 1.258 1_554 S
O177 In169 2.266 1_556 S
O177 C174 1.252 . S
O178 In169 2.326 1_556 S
O178 C174 1.260 . S
C179 O170 1.240 . S
C179 O171 1.252 . S
O180 In169 2.294 . S
O180 C173 1.240 . S
O181 In169 2.326 . S
O181 C173 1.252 . S
In182 O183 2.294 . S
In182 O184 2.326 . S
In182 O188 2.266 . S
In182 O189 2.326 . S
In182 O190 2.266 . S
In182 O191 2.326 . S
In182 O193 2.294 . S
In182 O194 2.326 . S
O183 In182 2.294 . S
O183 C192 1.240 . S
O184 In182 2.326 . S
O184 C192 1.252 . S
C185 O188 1.252 . S
C185 O189 1.260 . S
C186 O193 1.240 . S
C186 O194 1.252 . S
C187 O190 1.252 . S
C187 O191 1.260 . S
O188 In182 2.266 . S
O188 C185 1.252 . S
O189 In182 2.326 . S
O189 C185 1.260 . S
O190 In182 2.266 . S
O190 C187 1.252 . S
O191 In182 2.326 . S
O191 C187 1.260 . S
C192 O183 1.240 . S
C192 O184 1.252 . S
O193 In182 2.294 . S
O193 C186 1.240 . S
O194 In182 2.326 . S
O194 C186 1.252 . S
In195 O196 2.294 . S
In195 O197 2.326 . S
In195 O201 2.266 . S
In195 O202 2.326 . S
In195 O203 2.266 . S
In195 O204 2.326 . S
In195 O206 2.294 . S
In195 O207 2.326 . S
O196 In195 2.294 . S
O196 C205 1.240 . S
O197 In195 2.326 . S
O197 C205 1.252 . S
C198 O201 1.252 . S
C198 O202 1.260 . S
C199 O206 1.240 . S
C199 O207 1.252 . S
C200 O203 1.252 . S
C200 O204 1.260 . S
O201 In195 2.266 . S
O201 C198 1.252 . S
O202 In195 2.326 . S
O202 C198 1.260 . S
O203 In195 2.266 . S
O203 C200 1.252 . S
O204 In195 2.326 . S
O204 C200 1.260 . S
C205 O196 1.240 . S
C205 O197 1.252 . S
O206 In195 2.294 . S
O206 C199 1.240 . S
O207 In195 2.326 . S
O207 C199 1.252 . S
In208 O209 2.294 . S
In208 O210 2.326 . S
In208 O214 2.266 . S
In208 O215 2.326 . S
In208 O216 2.266 . S
In208 O217 2.326 1_545 S
In208 O219 2.294 . S
In208 O220 2.326 . S
O209 In208 2.294 . S
O209 C218 1.240 . S
O210 In208 2.326 . S
O210 C218 1.252 . S
C211 O214 1.252 . S
C211 O215 1.260 . S
C212 O219 1.240 . S
C212 O220 1.252 . S
C213 O216 1.252 1_565 S
C213 O217 1.260 . S
O214 In208 2.266 . S
O214 C211 1.252 . S
O215 In208 2.326 . S
O215 C211 1.260 . S
O216 In208 2.266 . S
O216 C213 1.252 1_545 S
O217 In208 2.326 1_565 S
O217 C213 1.260 . S
C218 O209 1.240 . S
C218 O210 1.252 . S
O219 In208 2.294 . S
O219 C212 1.240 . S
O220 In208 2.326 . S
O220 C212 1.252 . S
In221 O222 2.294 . S
In221 O223 2.326 . S
In221 O227 2.266 . S
In221 O228 2.326 . S
In221 O229 2.266 . S
In221 O230 2.326 . S
In221 O232 2.294 . S
In221 O233 2.326 . S
O222 In221 2.294 . S
O222 C231 1.240 . S
O223 In221 2.326 . S
O223 C231 1.252 . S
C224 O227 1.252 . S
C224 O228 1.260 . S
C225 O232 1.240 . S
C225 O233 1.252 . S
C226 O229 1.252 . S
C226 O230 1.260 . S
O227 In221 2.266 . S
O227 C224 1.252 . S
O228 In221 2.326 . S
O228 C224 1.260 . S
O229 In221 2.266 . S
O229 C226 1.252 . S
O230 In221 2.326 . S
O230 C226 1.260 . S
C231 O222 1.240 . S
C231 O223 1.252 . S
O232 In221 2.294 . S
O232 C225 1.240 . S
O233 In221 2.326 . S
O233 C225 1.252 . S
In234 O235 2.294 . S
In234 O236 2.326 . S
In234 O240 2.266 . S
In234 O241 2.326 . S
In234 O242 2.266 . S
In234 O243 2.326 . S
In234 O245 2.294 . S
In234 O246 2.326 . S
O235 In234 2.294 . S
O235 C244 1.240 . S
O236 In234 2.326 . S
O236 C244 1.252 . S
C237 O240 1.252 . S
C237 O241 1.260 . S
C238 O245 1.240 . S
C238 O246 1.252 . S
C239 O242 1.252 . S
C239 O243 1.260 . S
O240 In234 2.266 . S
O240 C237 1.252 . S
O241 In234 2.326 . S
O241 C237 1.260 . S
O242 In234 2.266 . S
O242 C239 1.252 . S
O243 In234 2.326 . S
O243 C239 1.260 . S
C244 O235 1.240 . S
C244 O236 1.252 . S
O245 In234 2.294 . S
O245 C238 1.240 . S
O246 In234 2.326 . S
O246 C238 1.252 . S
In247 O248 2.277 1_545 S
In247 O249 2.326 1_545 S
In247 O253 2.266 . S
In247 O254 2.326 . S
In247 O255 2.266 . S
In247 O256 2.326 . S
In247 O258 2.294 . S
In247 O259 2.326 . S
O248 In247 2.277 1_565 S
O248 C257 1.259 . S
O249 In247 2.326 1_565 S
O249 C257 1.252 . S
C250 O253 1.252 . S
C250 O254 1.260 . S
C251 O258 1.240 . S
C251 O259 1.252 . S
C252 O255 1.252 . S
C252 O256 1.260 . S
O253 In247 2.266 . S
O253 C250 1.252 . S
O254 In247 2.326 . S
O254 C250 1.260 . S
O255 In247 2.266 . S
O255 C252 1.252 . S
O256 In247 2.326 . S
O256 C252 1.260 . S
C257 O248 1.259 . S
C257 O249 1.252 . S
O258 In247 2.294 . S
O258 C251 1.240 . S
O259 In247 2.326 . S
O259 C251 1.252 . S
In260 O261 2.294 . S
In260 O262 2.326 . S
In260 O266 2.266 . S
In260 O267 2.326 . S
In260 O268 2.266 1_554 S
In260 O269 2.326 1_554 S
In260 O271 2.294 . S
In260 O272 2.326 . S
O261 In260 2.294 . S
O261 C270 1.240 . S
O262 In260 2.326 . S
O262 C270 1.252 . S
C263 O266 1.252 . S
C263 O267 1.260 . S
C264 O271 1.240 . S
C264 O272 1.252 . S
C265 O268 1.252 . S
C265 O269 1.260 . S
O266 In260 2.266 . S
O266 C263 1.252 . S
O267 In260 2.326 . S
O267 C263 1.260 . S
O268 In260 2.266 1_556 S
O268 C265 1.252 . S
O269 In260 2.326 1_556 S
O269 C265 1.260 . S
C270 O261 1.240 . S
C270 O262 1.252 . S
O271 In260 2.294 . S
O271 C264 1.240 . S
O272 In260 2.326 . S
O272 C264 1.252 . S
In273 O274 2.294 . S
In273 O275 2.326 . S
In273 O279 2.266 . S
In273 O280 2.326 . S
In273 O281 2.266 . S
In273 O282 2.326 . S
In273 O284 2.294 . S
In273 O285 2.326 . S
O274 In273 2.294 . S
O274 C283 1.240 . S
O275 In273 2.326 . S
O275 C283 1.252 . S
C276 O279 1.252 . S
C276 O280 1.260 . S
C277 O284 1.240 . S
C277 O285 1.252 . S
C278 O281 1.252 . S
C278 O282 1.260 . S
O279 In273 2.266 . S
O279 C276 1.252 . S
O280 In273 2.326 . S
O280 C276 1.260 . S
O281 In273 2.266 . S
O281 C278 1.252 . S
O282 In273 2.326 . S
O282 C278 1.260 . S
C283 O274 1.240 . S
C283 O275 1.252 . S
O284 In273 2.294 . S
O284 C277 1.240 . S
O285 In273 2.326 . S
O285 C277 1.252 . S
In286 O287 2.294 . S
In286 O288 2.326 . S
In286 O292 2.266 . S
In286 O293 2.326 . S
In286 O294 2.266 . S
In286 O295 2.326 . S
In286 O297 2.294 . S
In286 O298 2.326 . S
O287 In286 2.294 . S
O287 C296 1.240 . S
O288 In286 2.326 . S
O288 C296 1.252 . S
C289 O292 1.252 . S
C289 O293 1.260 . S
C290 O297 1.240 . S
C290 O298 1.252 . S
C291 O294 1.252 . S
C291 O295 1.260 . S
O292 In286 2.266 . S
O292 C289 1.252 . S
O293 In286 2.326 . S
O293 C289 1.260 . S
O294 In286 2.266 . S
O294 C291 1.252 . S
O295 In286 2.326 . S
O295 C291 1.260 . S
C296 O287 1.240 . S
C296 O288 1.252 . S
O297 In286 2.294 . S
O297 C290 1.240 . S
O298 In286 2.326 . S
O298 C290 1.252 . S
In299 O300 2.294 . S
In299 O301 2.326 . S
In299 O305 2.266 . S
In299 O306 2.326 . S
In299 O307 2.266 . S
In299 O308 2.326 . S
In299 O310 2.294 . S
In299 O311 2.326 . S
O300 In299 2.294 . S
O300 C309 1.240 . S
O301 In299 2.326 . S
O301 C309 1.252 . S
C302 O305 1.252 . S
C302 O306 1.260 . S
C303 O310 1.240 . S
C303 O311 1.252 . S
C304 O307 1.252 . S
C304 O308 1.260 . S
O305 In299 2.266 . S
O305 C302 1.252 . S
O306 In299 2.326 . S
O306 C302 1.260 . S
O307 In299 2.266 . S
O307 C304 1.252 . S
O308 In299 2.326 . S
O308 C304 1.260 . S
C309 O300 1.240 . S
C309 O301 1.252 . S
O310 In299 2.294 . S
O310 C303 1.240 . S
O311 In299 2.326 . S
O311 C303 1.252 . S
Dy312 O316 2.398 1_554 S
Dy312 O317 2.491 . S
Dy312 O318 2.403 1_654 S
Dy312 O319 2.664 1_655 S
Dy312 O323 2.326 1_655 S
Dy312 O327 2.310 1_655 S
Dy312 O328 2.351 1_645 S
C313 O324 1.185 . S
C313 O325 1.355 . S
C314 O316 1.204 . S
C314 O317 1.327 1_556 S
Dy315 O319 2.310 . S
Dy315 O322 2.351 . S
Dy315 O324 2.398 . S
Dy315 O325 2.491 . S
Dy315 O326 2.403 . S
Dy315 O327 2.664 . S
Dy315 O329 2.326 . S
O316 Dy312 2.398 1_556 S
O316 C314 1.204 . S
O317 Dy312 2.491 . S
O317 C314 1.327 1_554 S
O318 Dy312 2.403 1_456 S
O318 C320 1.254 . S
O319 Dy312 2.664 1_455 S
O319 Dy315 2.310 . S
O319 C320 1.268 1_554 S
C320 O318 1.254 . S
C320 O319 1.268 1_556 S
C321 O326 1.254 . S
C321 O327 1.268 . S
O322 Dy315 2.351 . S
O322 C330 1.249 . S
O323 Dy312 2.326 1_455 S
O323 C330 1.267 . S
O324 C313 1.185 . S
O324 Dy315 2.398 . S
O325 C313 1.355 . S
O325 Dy315 2.491 . S
O326 Dy315 2.403 . S
O326 C321 1.254 . S
O327 Dy312 2.310 1_455 S
O327 Dy315 2.664 . S
O327 C321 1.268 . S
O328 Dy312 2.351 1_465 S
O328 C331 1.249 . S
O329 Dy315 2.326 . S
O329 C331 1.267 1_545 S
C330 O322 1.249 . S
C330 O323 1.267 . S
C331 O328 1.249 . S
C331 O329 1.267 1_565 S
Dy332 O336 2.398 . S
Dy332 O337 2.491 . S
Dy332 O338 2.403 . S
Dy332 O339 2.664 . S
Dy332 O343 2.326 . S
Dy332 O347 2.310 . S
Dy332 O348 2.351 . S
C333 O344 1.185 . S
C333 O345 1.355 . S
C334 O336 1.185 . S
C334 O337 1.355 . S
Dy335 O339 2.310 . S
Dy335 O342 2.351 . S
Dy335 O344 2.398 . S
Dy335 O345 2.491 . S
Dy335 O346 2.403 . S
Dy335 O347 2.664 . S
Dy335 O349 2.326 . S
O336 Dy332 2.398 . S
O336 C334 1.185 . S
O337 Dy332 2.491 . S
O337 C334 1.355 . S
O338 Dy332 2.403 . S
O338 C340 1.254 . S
O339 Dy332 2.664 . S
O339 Dy335 2.310 . S
O339 C340 1.268 . S
C340 O338 1.254 . S
C340 O339 1.268 . S
C341 O346 1.254 . S
C341 O347 1.268 . S
O342 Dy335 2.351 . S
O342 C350 1.249 . S
O343 Dy332 2.326 . S
O343 C350 1.267 . S
O344 C333 1.185 . S
O344 Dy335 2.398 . S
O345 C333 1.355 . S
O345 Dy335 2.491 . S
O346 Dy335 2.403 . S
O346 C341 1.254 . S
O347 Dy332 2.310 . S
O347 Dy335 2.664 . S
O347 C341 1.268 . S
O348 Dy332 2.351 . S
O348 C351 1.249 . S
O349 Dy335 2.326 . S
O349 C351 1.267 . S
C350 O342 1.249 . S
C350 O343 1.267 . S
C351 O348 1.249 . S
C351 O349 1.267 . S
Dy352 O356 2.398 1_545 S
Dy352 O357 2.491 1_545 S
Dy352 O358 2.403 . S
Dy352 O359 2.664 . S
Dy352 O363 2.326 1_545 S
Dy352 O367 2.310 . S
Dy352 O368 2.351 . S
C353 O364 1.185 . S
C353 O365 1.355 . S
C354 O356 1.185 . S
C354 O357 1.355 . S
Dy355 O359 2.310 . S
Dy355 O362 2.351 1_545 S
Dy355 O364 2.398 . S
Dy355 O365 2.491 . S
Dy355 O366 2.403 . S
Dy355 O367 2.664 . S
Dy355 O369 2.326 . S
O356 Dy352 2.398 1_565 S
O356 C354 1.185 . S
O357 Dy352 2.491 1_565 S
O357 C354 1.355 . S
O358 Dy352 2.403 . S
O358 C360 1.254 . S
O359 Dy352 2.664 . S
O359 Dy355 2.310 . S
O359 C360 1.268 . S
C360 O358 1.254 . S
C360 O359 1.268 . S
C361 O366 1.254 . S
C361 O367 1.268 . S
O362 Dy355 2.351 1_565 S
O362 C370 1.249 . S
O363 Dy352 2.326 1_565 S
O363 C370 1.267 . S
O364 C353 1.185 . S
O364 Dy355 2.398 . S
O365 C353 1.355 . S
O365 Dy355 2.491 . S
O366 Dy355 2.403 . S
O366 C361 1.254 . S
O367 Dy352 2.310 . S
O367 Dy355 2.664 . S
O367 C361 1.268 . S
O368 Dy352 2.351 . S
O368 C371 1.249 . S
O369 Dy355 2.326 . S
O369 C371 1.267 . S
C370 O362 1.249 . S
C370 O363 1.267 . S
C371 O368 1.249 . S
C371 O369 1.267 . S
Dy372 O376 2.398 . S
Dy372 O377 2.491 . S
Dy372 O378 2.403 . S
Dy372 O379 2.664 . S
Dy372 O383 2.326 . S
Dy372 O387 2.310 . S
Dy372 O388 2.351 . S
C373 O384 1.185 . S
C373 O385 1.355 . S
C374 O376 1.185 . S
C374 O377 1.355 . S
Dy375 O379 2.310 . S
Dy375 O382 2.351 . S
Dy375 O384 2.398 . S
Dy375 O385 2.491 . S
Dy375 O386 2.403 . S
Dy375 O387 2.664 . S
Dy375 O389 2.326 . S
O376 Dy372 2.398 . S
O376 C374 1.185 . S
O377 Dy372 2.491 . S
O377 C374 1.355 . S
O378 Dy372 2.403 . S
O378 C380 1.254 . S
O379 Dy372 2.664 . S
O379 Dy375 2.310 . S
O379 C380 1.268 . S
C380 O378 1.254 . S
C380 O379 1.268 . S
C381 O386 1.254 . S
C381 O387 1.268 . S
O382 Dy375 2.351 . S
O382 C390 1.249 . S
O383 Dy372 2.326 . S
O383 C390 1.267 . S
O384 C373 1.185 . S
O384 Dy375 2.398 . S
O385 C373 1.355 . S
O385 Dy375 2.491 . S
O386 Dy375 2.403 . S
O386 C381 1.254 . S
O387 Dy372 2.310 . S
O387 Dy375 2.664 . S
O387 C381 1.268 . S
O388 Dy372 2.351 . S
O388 C391 1.249 . S
O389 Dy375 2.326 . S
O389 C391 1.267 . S
C390 O382 1.249 . S
C390 O383 1.267 . S
C391 O388 1.249 . S
C391 O389 1.267 . S
Dy392 O396 2.398 1_565 S
Dy392 O397 2.491 1_465 S
Dy392 O398 2.403 1_565 S
Dy392 O399 2.664 1_565 S
Dy392 O403 2.326 1_565 S
Dy392 O407 2.310 1_465 S
Dy392 O408 2.351 . S
C393 O404 1.185 . S
C393 O405 1.355 . S
C394 O396 1.185 . S
C394 O397 1.355 1_455 S
Dy395 O399 2.310 . S
Dy395 O402 2.351 . S
Dy395 O404 2.398 . S
Dy395 O405 2.491 . S
Dy395 O406 2.403 1_455 S
Dy395 O407 2.664 1_455 S
Dy395 O409 2.326 1_545 S
O396 Dy392 2.398 1_545 S
O396 C394 1.185 . S
O397 Dy392 2.491 1_645 S
O397 C394 1.355 1_655 S
O398 Dy392 2.403 1_545 S
O398 C400 1.254 . S
O399 Dy392 2.664 1_545 S
O399 Dy395 2.310 . S
O399 C400 1.268 . S
C400 O398 1.254 . S
C400 O399 1.268 . S
C401 O406 1.254 1_565 S
C401 O407 1.268 1_565 S
O402 Dy395 2.351 . S
O402 C410 1.249 . S
O403 Dy392 2.326 1_545 S
O403 C410 1.267 . S
O404 C393 1.185 . S
O404 Dy395 2.398 . S
O405 C393 1.355 . S
O405 Dy395 2.491 . S
O406 Dy395 2.403 1_655 S
O406 C401 1.254 1_545 S
O407 Dy392 2.310 1_645 S
O407 Dy395 2.664 1_655 S
O407 C401 1.268 1_545 S
O408 Dy392 2.351 . S
O408 C411 1.249 . S
O409 Dy395 2.326 1_565 S
O409 C411 1.267 . S
C410 O402 1.249 . S
C410 O403 1.267 . S
C411 O408 1.249 . S
C411 O409 1.267 . S
Dy412 O416 2.398 . S
Dy412 O417 2.491 . S
Dy412 O418 2.403 . S
Dy412 O419 2.664 . S
Dy412 O423 2.326 . S
Dy412 O427 2.310 . S
Dy412 O428 2.351 . S
C413 O424 1.185 . S
C413 O425 1.355 . S
C414 O416 1.185 . S
C414 O417 1.355 . S
Dy415 O419 2.310 . S
Dy415 O422 2.351 . S
Dy415 O424 2.398 . S
Dy415 O425 2.491 . S
Dy415 O426 2.403 . S
Dy415 O427 2.664 . S
Dy415 O429 2.326 . S
O416 Dy412 2.398 . S
O416 C414 1.185 . S
O417 Dy412 2.491 . S
O417 C414 1.355 . S
O418 Dy412 2.403 . S
O418 C420 1.254 . S
O419 Dy412 2.664 . S
O419 Dy415 2.310 . S
O419 C420 1.268 . S
C420 O418 1.254 . S
C420 O419 1.268 . S
C421 O426 1.254 . S
C421 O427 1.268 . S
O422 Dy415 2.351 . S
O422 C430 1.249 . S
O423 Dy412 2.326 . S
O423 C430 1.267 . S
O424 C413 1.185 . S
O424 Dy415 2.398 . S
O425 C413 1.355 . S
O425 Dy415 2.491 . S
O426 Dy415 2.403 . S
O426 C421 1.254 . S
O427 Dy412 2.310 . S
O427 Dy415 2.664 . S
O427 C421 1.268 . S
O428 Dy412 2.351 . S
O428 C431 1.249 . S
O429 Dy415 2.326 . S
O429 C431 1.267 . S
C430 O422 1.249 . S
C430 O423 1.267 . S
C431 O428 1.249 . S
C431 O429 1.267 . S
Dy432 O436 2.398 1_545 S
Dy432 O437 2.491 . S
Dy432 O438 2.403 1_545 S
Dy432 O439 2.664 1_554 S
Dy432 O443 2.326 . S
Dy432 O447 2.310 . S
Dy432 O448 2.351 . S
C433 O444 1.185 . S
C433 O445 1.355 . S
C434 O436 1.185 1_545 S
C434 O437 1.355 . S
Dy435 O439 2.310 . S
Dy435 O442 2.351 . S
Dy435 O444 2.398 . S
Dy435 O445 2.491 . S
Dy435 O446 2.403 . S
Dy435 O447 2.664 1_556 S
Dy435 O449 2.326 . S
O436 Dy432 2.398 1_565 S
O436 C434 1.185 1_565 S
O437 Dy432 2.491 . S
O437 C434 1.355 . S
O438 Dy432 2.403 1_565 S
O438 C440 1.254 1_554 S
O439 Dy432 2.664 1_556 S
O439 Dy435 2.310 . S
O439 C440 1.268 1_545 S
C440 O438 1.254 1_556 S
C440 O439 1.268 1_565 S
C441 O446 1.254 1_554 S
C441 O447 1.268 . S
O442 Dy435 2.351 . S
O442 C450 1.249 1_556 S
O443 Dy432 2.326 . S
O443 C450 1.267 . S
O444 C433 1.185 . S
O444 Dy435 2.398 . S
O445 C433 1.355 . S
O445 Dy435 2.491 . S
O446 Dy435 2.403 . S
O446 C441 1.254 1_556 S
O447 Dy432 2.310 . S
O447 Dy435 2.664 1_554 S
O447 C441 1.268 . S
O448 Dy432 2.351 . S
O448 C451 1.249 . S
O449 Dy435 2.326 . S
O449 C451 1.267 1_556 S
C450 O442 1.249 1_554 S
C450 O443 1.267 . S
C451 O448 1.249 . S
C451 O449 1.267 1_554 S
Dy452 O456 2.398 . S
Dy452 O457 2.491 . S
Dy452 O458 2.403 . S
Dy452 O459 2.664 . S
Dy452 O463 2.326 . S
Dy452 O467 2.310 . S
Dy452 O468 2.351 . S
C453 O464 1.185 . S
C453 O465 1.355 . S
C454 O456 1.185 . S
C454 O457 1.355 . S
Dy455 O459 2.310 . S
Dy455 O462 2.351 . S
Dy455 O464 2.398 . S
Dy455 O465 2.491 . S
Dy455 O466 2.403 . S
Dy455 O467 2.664 . S
Dy455 O469 2.326 . S
O456 Dy452 2.398 . S
O456 C454 1.185 . S
O457 Dy452 2.491 . S
O457 C454 1.355 . S
O458 Dy452 2.403 . S
O458 C460 1.254 . S
O459 Dy452 2.664 . S
O459 Dy455 2.310 . S
O459 C460 1.268 . S
C460 O458 1.254 . S
C460 O459 1.268 . S
C461 O466 1.254 . S
C461 O467 1.268 . S
O462 Dy455 2.351 . S
O462 C470 1.249 . S
O463 Dy452 2.326 . S
O463 C470 1.267 . S
O464 C453 1.185 . S
O464 Dy455 2.398 . S
O465 C453 1.355 . S
O465 Dy455 2.491 . S
O466 Dy455 2.403 . S
O466 C461 1.254 . S
O467 Dy452 2.310 . S
O467 Dy455 2.664 . S
O467 C461 1.268 . S
O468 Dy452 2.351 . S
O468 C471 1.249 . S
O469 Dy455 2.326 . S
O469 C471 1.267 . S
C470 O462 1.249 . S
C470 O463 1.267 . S
C471 O468 1.249 . S
C471 O469 1.267 . S
Dy472 O476 2.398 . S
Dy472 O477 2.491 . S
Dy472 O478 2.403 . S
Dy472 O479 2.664 1_556 S
Dy472 O483 2.326 . S
Dy472 O487 2.310 . S
Dy472 O488 2.351 . S
C473 O484 1.185 . S
C473 O485 1.355 . S
C474 O476 1.185 . S
C474 O477 1.355 . S
Dy475 O479 2.310 . S
Dy475 O482 2.351 . S
Dy475 O484 2.398 . S
Dy475 O485 2.491 . S
Dy475 O486 2.403 . S
Dy475 O487 2.664 1_554 S
Dy475 O489 2.326 . S
O476 Dy472 2.398 . S
O476 C474 1.185 . S
O477 Dy472 2.491 . S
O477 C474 1.355 . S
O478 Dy472 2.403 . S
O478 C480 1.254 . S
O479 Dy472 2.664 1_554 S
O479 Dy475 2.310 . S
O479 C480 1.268 1_554 S
C480 O478 1.254 . S
C480 O479 1.268 1_556 S
C481 O486 1.254 . S
C481 O487 1.268 1_554 S
O482 Dy475 2.351 . S
O482 C490 1.249 1_554 S
O483 Dy472 2.326 . S
O483 C490 1.267 . S
O484 C473 1.185 . S
O484 Dy475 2.398 . S
O485 C473 1.355 . S
O485 Dy475 2.491 . S
O486 Dy475 2.403 . S
O486 C481 1.254 . S
O487 Dy472 2.310 . S
O487 Dy475 2.664 1_556 S
O487 C481 1.268 1_556 S
O488 Dy472 2.351 . S
O488 C491 1.249 1_556 S
O489 Dy475 2.326 . S
O489 C491 1.267 . S
C490 O482 1.249 1_556 S
C490 O483 1.267 . S
C491 O488 1.249 1_554 S
C491 O489 1.267 . S
Dy492 O496 2.398 . S
Dy492 O497 2.491 . S
Dy492 O498 2.403 . S
Dy492 O499 2.664 . S
Dy492 O503 2.326 . S
Dy492 O507 2.310 . S
Dy492 O508 2.351 . S
C493 O504 1.185 . S
C493 O505 1.355 . S
C494 O496 1.185 . S
C494 O497 1.355 . S
Dy495 O499 2.310 . S
Dy495 O502 2.351 . S
Dy495 O504 2.398 . S
Dy495 O505 2.491 . S
Dy495 O506 2.403 . S
Dy495 O507 2.664 . S
Dy495 O509 2.326 . S
O496 Dy492 2.398 . S
O496 C494 1.185 . S
O497 Dy492 2.491 . S
O497 C494 1.355 . S
O498 Dy492 2.403 . S
O498 C500 1.254 . S
O499 Dy492 2.664 . S
O499 Dy495 2.310 . S
O499 C500 1.268 . S
C500 O498 1.254 . S
C500 O499 1.268 . S
C501 O506 1.254 . S
C501 O507 1.268 . S
O502 Dy495 2.351 . S
O502 C510 1.249 . S
O503 Dy492 2.326 . S
O503 C510 1.267 . S
O504 C493 1.185 . S
O504 Dy495 2.398 . S
O505 C493 1.355 . S
O505 Dy495 2.491 . S
O506 Dy495 2.403 . S
O506 C501 1.254 . S
O507 Dy492 2.310 . S
O507 Dy495 2.664 . S
O507 C501 1.268 . S
O508 Dy492 2.351 . S
O508 C511 1.249 . S
O509 Dy495 2.326 . S
O509 C511 1.267 . S
C510 O502 1.249 . S
C510 O503 1.267 . S
C511 O508 1.249 . S
C511 O509 1.267 . S
Dy512 O516 2.398 1_455 S
Dy512 O517 2.491 1_455 S
Dy512 O518 2.403 . S
Dy512 O519 2.664 . S
Dy512 O523 2.326 1_455 S
Dy512 O527 2.310 . S
Dy512 O528 2.351 . S
C513 O524 1.185 . S
C513 O525 1.355 . S
C514 O516 1.185 . S
C514 O517 1.355 . S
Dy515 O519 2.310 . S
Dy515 O522 2.351 1_455 S
Dy515 O524 2.398 . S
Dy515 O525 2.491 . S
Dy515 O526 2.403 . S
Dy515 O527 2.664 . S
Dy515 O529 2.326 . S
O516 Dy512 2.398 1_655 S
O516 C514 1.185 . S
O517 Dy512 2.491 1_655 S
O517 C514 1.355 . S
O518 Dy512 2.403 . S
O518 C520 1.254 . S
O519 Dy512 2.664 . S
O519 Dy515 2.310 . S
O519 C520 1.268 . S
C520 O518 1.254 . S
C520 O519 1.268 . S
C521 O526 1.254 . S
C521 O527 1.268 . S
O522 Dy515 2.351 1_655 S
O522 C530 1.249 . S
O523 Dy512 2.326 1_655 S
O523 C530 1.267 . S
O524 C513 1.185 . S
O524 Dy515 2.398 . S
O525 C513 1.355 . S
O525 Dy515 2.491 . S
O526 Dy515 2.403 . S
O526 C521 1.254 . S
O527 Dy512 2.310 . S
O527 Dy515 2.664 . S
O527 C521 1.268 . S
O528 Dy512 2.351 . S
O528 C531 1.249 . S
O529 Dy515 2.326 . S
O529 C531 1.267 . S
C530 O522 1.249 . S
C530 O523 1.267 . S
C531 O528 1.249 . S
C531 O529 1.267 . S
Dy532 O536 2.398 . S
Dy532 O537 2.491 . S
Dy532 O538 2.403 . S
Dy532 O539 2.664 . S
Dy532 O543 2.326 . S
Dy532 O547 2.310 . S
Dy532 O548 2.351 . S
C533 O544 1.185 . S
C533 O545 1.355 . S
C534 O536 1.185 . S
C534 O537 1.355 . S
Dy535 O539 2.310 . S
Dy535 O542 2.351 . S
Dy535 O544 2.398 . S
Dy535 O545 2.491 . S
Dy535 O546 2.403 . S
Dy535 O547 2.664 . S
Dy535 O549 2.326 . S
O536 Dy532 2.398 . S
O536 C534 1.185 . S
O537 Dy532 2.491 . S
O537 C534 1.355 . S
O538 Dy532 2.403 . S
O538 C540 1.254 . S
O539 Dy532 2.664 . S
O539 Dy535 2.310 . S
O539 C540 1.268 . S
C540 O538 1.254 . S
C540 O539 1.268 . S
C541 O546 1.254 . S
C541 O547 1.268 . S
O542 Dy535 2.351 . S
O542 C550 1.249 . S
O543 Dy532 2.326 . S
O543 C550 1.267 . S
O544 C533 1.185 . S
O544 Dy535 2.398 . S
O545 C533 1.355 . S
O545 Dy535 2.491 . S
O546 Dy535 2.403 . S
O546 C541 1.254 . S
O547 Dy532 2.310 . S
O547 Dy535 2.664 . S
O547 C541 1.268 . S
O548 Dy532 2.351 . S
O548 C551 1.249 . S
O549 Dy535 2.326 . S
O549 C551 1.267 . S
C550 O542 1.249 . S
C550 O543 1.267 . S
C551 O548 1.249 . S
C551 O549 1.267 . S
Dy552 O556 2.398 . S
Dy552 O557 2.491 . S
Dy552 O558 2.403 . S
Dy552 O559 2.664 . S
Dy552 O563 2.326 . S
Dy552 O567 2.310 . S
Dy552 O568 2.351 . S
C553 O564 1.185 . S
C553 O565 1.355 . S
C554 O556 1.185 . S
C554 O557 1.355 . S
Dy555 O559 2.310 . S
Dy555 O562 2.351 . S
Dy555 O564 2.398 . S
Dy555 O565 2.491 . S
Dy555 O566 2.403 . S
Dy555 O567 2.664 . S
Dy555 O569 2.326 . S
O556 Dy552 2.398 . S
O556 C554 1.185 . S
O557 Dy552 2.491 . S
O557 C554 1.355 . S
O558 Dy552 2.403 . S
O558 C560 1.254 . S
O559 Dy552 2.664 . S
O559 Dy555 2.310 . S
O559 C560 1.268 . S
C560 O558 1.254 . S
C560 O559 1.268 . S
C561 O566 1.254 . S
C561 O567 1.268 . S
O562 Dy555 2.351 . S
O562 C570 1.249 . S
O563 Dy552 2.326 . S
O563 C570 1.267 . S
O564 C553 1.185 . S
O564 Dy555 2.398 . S
O565 C553 1.355 . S
O565 Dy555 2.491 . S
O566 Dy555 2.403 . S
O566 C561 1.254 . S
O567 Dy552 2.310 . S
O567 Dy555 2.664 . S
O567 C561 1.268 . S
O568 Dy552 2.351 . S
O568 C571 1.249 . S
O569 Dy555 2.326 . S
O569 C571 1.267 . S
C570 O562 1.249 . S
C570 O563 1.267 . S
C571 O568 1.249 . S
C571 O569 1.267 . S
Dy572 O576 2.398 . S
Dy572 O577 2.491 . S
Dy572 O578 2.403 . S
Dy572 O579 2.664 . S
Dy572 O583 2.326 . S
Dy572 O587 2.310 . S
Dy572 O588 2.351 . S
C573 O584 1.185 . S
C573 O585 1.355 . S
C574 O576 1.185 . S
C574 O577 1.355 . S
Dy575 O579 2.310 . S
Dy575 O582 2.351 . S
Dy575 O584 2.398 . S
Dy575 O585 2.491 . S
Dy575 O586 2.403 . S
Dy575 O587 2.664 . S
Dy575 O589 2.326 . S
O576 Dy572 2.398 . S
O576 C574 1.185 . S
O577 Dy572 2.491 . S
O577 C574 1.355 . S
O578 Dy572 2.403 . S
O578 C580 1.254 . S
O579 Dy572 2.664 . S
O579 Dy575 2.310 . S
O579 C580 1.268 . S
C580 O578 1.254 . S
C580 O579 1.268 . S
C581 O586 1.254 . S
C581 O587 1.268 . S
O582 Dy575 2.351 . S
O582 C590 1.249 . S
O583 Dy572 2.326 . S
O583 C590 1.267 . S
O584 C573 1.185 . S
O584 Dy575 2.398 . S
O585 C573 1.355 . S
O585 Dy575 2.491 . S
O586 Dy575 2.403 . S
O586 C581 1.254 . S
O587 Dy572 2.310 . S
O587 Dy575 2.664 . S
O587 C581 1.268 . S
O588 Dy572 2.351 . S
O588 C591 1.249 . S
O589 Dy575 2.326 . S
O589 C591 1.267 . S
C590 O582 1.249 . S
C590 O583 1.267 . S
C591 O588 1.249 . S
C591 O589 1.267 . S
Dy592 O596 2.398 . S
Dy592 O597 2.491 . S
Dy592 O598 2.403 . S
Dy592 O599 2.664 . S
Dy592 O603 2.326 . S
Dy592 O607 2.310 . S
Dy592 O608 2.351 . S
C593 O604 1.185 . S
C593 O605 1.355 . S
C594 O596 1.185 . S
C594 O597 1.355 . S
Dy595 O599 2.310 . S
Dy595 O602 2.351 . S
Dy595 O604 2.398 . S
Dy595 O605 2.491 . S
Dy595 O606 2.403 . S
Dy595 O607 2.664 . S
Dy595 O609 2.326 . S
O596 Dy592 2.398 . S
O596 C594 1.185 . S
O597 Dy592 2.491 . S
O597 C594 1.355 . S
O598 Dy592 2.403 . S
O598 C600 1.254 . S
O599 Dy592 2.664 . S
O599 Dy595 2.310 . S
O599 C600 1.268 . S
C600 O598 1.254 . S
C600 O599 1.268 . S
C601 O606 1.254 . S
C601 O607 1.268 . S
O602 Dy595 2.351 . S
O602 C610 1.249 . S
O603 Dy592 2.326 . S
O603 C610 1.267 . S
O604 C593 1.185 . S
O604 Dy595 2.398 . S
O605 C593 1.355 . S
O605 Dy595 2.491 . S
O606 Dy595 2.403 . S
O606 C601 1.254 . S
O607 Dy592 2.310 . S
O607 Dy595 2.664 . S
O607 C601 1.268 . S
O608 Dy592 2.351 . S
O608 C611 1.249 . S
O609 Dy595 2.326 . S
O609 C611 1.267 . S
C610 O602 1.249 . S
C610 O603 1.267 . S
C611 O608 1.249 . S
C611 O609 1.267 . S
Dy612 O616 2.398 1_554 S
Dy612 O617 2.491 . S
Dy612 O618 2.403 1_554 S
Dy612 O619 2.664 1_454 S
Dy612 O623 2.332 . S
Dy612 O627 2.310 . S
Dy612 O628 2.351 . S
C613 O624 1.185 . S
C613 O625 1.355 . S
C614 O616 1.185 1_554 S
C614 O617 1.355 . S
Dy615 O619 2.310 1_554 S
Dy615 O622 2.351 . S
Dy615 O624 2.398 . S
Dy615 O625 2.491 . S
Dy615 O626 2.403 . S
Dy615 O627 2.664 1_655 S
Dy615 O629 2.326 . S
O616 Dy612 2.398 1_556 S
O616 C614 1.185 1_556 S
O617 Dy612 2.491 . S
O617 C614 1.355 . S
O618 Dy612 2.403 1_556 S
O618 C620 1.254 . S
O619 Dy612 2.664 1_656 S
O619 Dy615 2.310 1_556 S
O619 C620 1.268 1_655 S
C620 O618 1.254 . S
C620 O619 1.268 1_455 S
C621 O626 1.254 1_455 S
C621 O627 1.268 . S
O622 Dy615 2.351 . S
O622 C630 1.249 1_655 S
O623 Dy612 2.332 . S
O623 C630 1.282 . S
O624 C613 1.185 . S
O624 Dy615 2.398 . S
O625 C613 1.355 . S
O625 Dy615 2.491 . S
O626 Dy615 2.403 . S
O626 C621 1.254 1_655 S
O627 Dy612 2.310 . S
O627 Dy615 2.664 1_455 S
O627 C621 1.268 . S
O628 Dy612 2.351 . S
O628 C631 1.249 . S
O629 Dy615 2.326 . S
O629 C631 1.267 1_655 S
C630 O622 1.249 1_455 S
C630 O623 1.282 . S
C631 O628 1.249 . S
C631 O629 1.267 1_455 S
H632 C638 0.930 . S
H633 C641 0.930 . S
H634 C642 0.930 . S
H635 C643 0.930 . S
H636 C646 0.930 1_554 S
H637 C647 0.930 . S
C638 H632 0.930 . S
C638 C639 1.355 1_655 S
C638 C640 1.415 1_655 S
C639 C638 1.355 1_455 S
C639 C641 1.419 . S
C640 C638 1.415 1_455 S
C640 C645 1.425 . S
C640 C647 1.409 1_455 S
C641 H633 0.930 . S
C641 C639 1.419 . S
C641 C642 1.362 . S
C642 H634 0.930 . S
C642 C641 1.362 . S
C642 C645 1.409 . S
C643 H635 0.930 . S
C643 C644 1.355 1_556 S
C643 C645 1.415 . S
C644 C643 1.355 1_554 S
C644 C646 1.419 1_454 S
C645 C640 1.425 . S
C645 C642 1.409 . S
C645 C643 1.415 . S
C646 H636 0.930 1_556 S
C646 C644 1.419 1_656 S
C646 C647 1.362 . S
C647 H637 0.930 . S
C647 C640 1.409 1_655 S
C647 C646 1.362 . S
H648 C654 0.930 . S
H649 C657 0.930 . S
H650 C658 0.930 . S
H651 C659 0.930 . S
H652 C662 0.930 . S
H653 C663 0.930 . S
C654 H648 0.930 . S
C654 C655 1.355 . S
C654 C656 1.415 . S
C655 C654 1.355 . S
C655 C657 1.419 . S
C656 C654 1.415 . S
C656 C661 1.425 . S
C656 C663 1.409 . S
C657 H649 0.930 . S
C657 C655 1.419 . S
C657 C658 1.362 . S
C658 H650 0.930 . S
C658 C657 1.362 . S
C658 C661 1.409 . S
C659 H651 0.930 . S
C659 C660 1.355 . S
C659 C661 1.415 . S
C660 C659 1.355 . S
C660 C662 1.419 . S
C661 C656 1.425 . S
C661 C658 1.409 . S
C661 C659 1.415 . S
C662 H652 0.930 . S
C662 C660 1.419 . S
C662 C663 1.362 . S
C663 H653 0.930 . S
C663 C656 1.409 . S
C663 C662 1.362 . S
H664 C670 0.930 . S
H665 C673 0.930 . S
H666 C674 0.930 . S
H667 C675 0.930 . S
H668 C678 0.930 . S
H669 C679 0.930 . S
C670 H664 0.930 . S
C670 C671 1.355 . S
C670 C672 1.415 . S
C671 C670 1.355 . S
C671 C673 1.419 . S
C672 C670 1.415 . S
C672 C677 1.425 . S
C672 C679 1.409 . S
C673 H665 0.930 . S
C673 C671 1.419 . S
C673 C674 1.362 . S
C674 H666 0.930 . S
C674 C673 1.362 . S
C674 C677 1.409 . S
C675 H667 0.930 . S
C675 C676 1.355 . S
C675 C677 1.415 . S
C676 C675 1.355 . S
C676 C678 1.419 . S
C677 C672 1.425 . S
C677 C674 1.409 . S
C677 C675 1.415 . S
C678 H668 0.930 . S
C678 C676 1.419 . S
C678 C679 1.362 . S
C679 H669 0.930 . S
C679 C672 1.409 . S
C679 C678 1.362 . S
H680 C686 0.930 . S
H681 C689 0.930 . S
H682 C690 0.930 . S
H683 C691 0.930 . S
H684 C694 0.930 . S
H685 C695 0.930 . S
C686 H680 0.930 . S
C686 C687 1.355 . S
C686 C688 1.415 . S
C687 C686 1.355 . S
C687 C689 1.419 . S
C688 C686 1.415 . S
C688 C693 1.425 . S
C688 C695 1.409 . S
C689 H681 0.930 . S
C689 C687 1.419 . S
C689 C690 1.362 . S
C690 H682 0.930 . S
C690 C689 1.362 . S
C690 C693 1.409 . S
C691 H683 0.930 . S
C691 C692 1.355 . S
C691 C693 1.415 . S
C692 C691 1.355 . S
C692 C694 1.419 . S
C693 C688 1.425 . S
C693 C690 1.409 . S
C693 C691 1.415 . S
C694 H684 0.930 . S
C694 C692 1.419 . S
C694 C695 1.362 . S
C695 H685 0.930 . S
C695 C688 1.409 . S
C695 C694 1.362 . S
H696 C702 0.930 1_655 S
H697 C705 0.930 . S
H698 C706 0.930 . S
H699 C707 0.930 . S
H700 C710 0.930 1_655 S
H701 C711 0.930 1_655 S
C702 H696 0.930 1_455 S
C702 C703 1.355 . S
C702 C704 1.415 . S
C703 C702 1.355 . S
C703 C705 1.419 . S
C704 C702 1.415 . S
C704 C709 1.425 . S
C704 C711 1.409 . S
C705 H697 0.930 . S
C705 C703 1.419 . S
C705 C706 1.362 . S
C706 H698 0.930 . S
C706 C705 1.362 . S
C706 C709 1.409 . S
C707 H699 0.930 . S
C707 C708 1.355 . S
C707 C709 1.415 . S
C708 C707 1.355 . S
C708 C710 1.419 . S
C709 C704 1.425 . S
C709 C706 1.409 . S
C709 C707 1.415 . S
C710 H700 0.930 1_455 S
C710 C708 1.419 . S
C710 C711 1.362 . S
C711 H701 0.930 1_455 S
C711 C704 1.409 . S
C711 C710 1.362 . S
H712 C718 0.930 . S
H713 C721 0.930 . S
H714 C722 0.930 . S
H715 C723 0.930 . S
H716 C726 0.930 . S
H717 C727 0.930 . S
C718 H712 0.930 . S
C718 C719 1.355 . S
C718 C720 1.415 . S
C719 C718 1.355 . S
C719 C721 1.419 . S
C720 C718 1.415 . S
C720 C725 1.425 . S
C720 C727 1.409 . S
C721 H713 0.930 . S
C721 C719 1.419 . S
C721 C722 1.362 . S
C722 H714 0.930 . S
C722 C721 1.362 . S
C722 C725 1.409 . S
C723 H715 0.930 . S
C723 C724 1.355 . S
C723 C725 1.415 . S
C724 C723 1.355 . S
C724 C726 1.419 . S
C725 C720 1.425 . S
C725 C722 1.409 . S
C725 C723 1.415 . S
C726 H716 0.930 . S
C726 C724 1.419 . S
C726 C727 1.362 . S
C727 H717 0.930 . S
C727 C720 1.409 . S
C727 C726 1.362 . S
H728 C734 0.930 . S
H729 C737 0.930 . S
H730 C738 0.930 . S
H731 C739 0.930 . S
H732 C742 0.930 1_556 S
H733 C743 0.930 . S
C734 H728 0.930 . S
C734 C735 1.355 . S
C734 C736 1.415 . S
C735 C734 1.355 . S
C735 C737 1.419 . S
C736 C734 1.415 . S
C736 C741 1.425 . S
C736 C743 1.409 . S
C737 H729 0.930 . S
C737 C735 1.419 . S
C737 C738 1.362 . S
C738 H730 0.930 . S
C738 C737 1.362 . S
C738 C741 1.409 . S
C739 H731 0.930 . S
C739 C740 1.355 . S
C739 C741 1.415 . S
C740 C739 1.355 . S
C740 C742 1.419 . S
C741 C736 1.425 . S
C741 C738 1.409 . S
C741 C739 1.415 . S
C742 H732 0.930 1_554 S
C742 C740 1.419 . S
C742 C743 1.362 . S
C743 H733 0.930 . S
C743 C736 1.409 . S
C743 C742 1.362 . S
H744 C750 0.930 . S
H745 C753 0.930 . S
H746 C754 0.930 . S
H747 C755 0.930 . S
H748 C758 0.930 . S
H749 C759 0.930 . S
C750 H744 0.930 . S
C750 C751 1.355 . S
C750 C752 1.415 . S
C751 C750 1.355 . S
C751 C753 1.419 . S
C752 C750 1.415 . S
C752 C757 1.425 . S
C752 C759 1.409 . S
C753 H745 0.930 . S
C753 C751 1.419 . S
C753 C754 1.362 . S
C754 H746 0.930 . S
C754 C753 1.362 . S
C754 C757 1.409 . S
C755 H747 0.930 . S
C755 C756 1.355 . S
C755 C757 1.415 . S
C756 C755 1.355 . S
C756 C758 1.419 . S
C757 C752 1.425 . S
C757 C754 1.409 . S
C757 C755 1.415 . S
C758 H748 0.930 . S
C758 C756 1.419 . S
C758 C759 1.362 . S
C759 H749 0.930 . S
C759 C752 1.409 . S
C759 C758 1.362 . S
H760 C766 0.930 . S
H761 C769 0.930 . S
H762 C770 0.930 . S
H763 C771 0.930 . S
H764 C774 0.930 . S
H765 C775 0.930 . S
C766 H760 0.930 . S
C766 C767 1.355 . S
C766 C768 1.415 . S
C767 C766 1.355 . S
C767 C769 1.419 . S
C768 C766 1.415 . S
C768 C773 1.425 . S
C768 C775 1.409 1_655 S
C769 H761 0.930 . S
C769 C767 1.419 . S
C769 C770 1.362 . S
C770 H762 0.930 . S
C770 C769 1.362 . S
C770 C773 1.409 . S
C771 H763 0.930 . S
C771 C772 1.355 1_655 S
C771 C773 1.415 . S
C772 C771 1.355 1_455 S
C772 C774 1.419 . S
C773 C768 1.425 . S
C773 C770 1.409 . S
C773 C771 1.415 . S
C774 H764 0.930 . S
C774 C772 1.419 . S
C774 C775 1.362 . S
C775 H765 0.930 . S
C775 C768 1.409 1_455 S
C775 C774 1.362 . S
H776 C782 0.930 . S
H777 C785 0.930 . S
H778 C786 0.930 . S
H779 C787 0.930 . S
H780 C790 0.930 . S
H781 C791 0.930 . S
C782 H776 0.930 . S
C782 C783 1.355 . S
C782 C784 1.415 . S
C783 C782 1.355 . S
C783 C785 1.419 . S
C784 C782 1.415 . S
C784 C789 1.425 . S
C784 C791 1.409 . S
C785 H777 0.930 . S
C785 C783 1.419 . S
C785 C786 1.362 . S
C786 H778 0.930 . S
C786 C785 1.362 . S
C786 C789 1.409 . S
C787 H779 0.930 . S
C787 C788 1.355 . S
C787 C789 1.415 . S
C788 C787 1.355 . S
C788 C790 1.419 . S
C789 C784 1.425 . S
C789 C786 1.409 . S
C789 C787 1.415 . S
C790 H780 0.930 . S
C790 C788 1.419 . S
C790 C791 1.362 . S
C791 H781 0.930 . S
C791 C784 1.409 . S
C791 C790 1.362 . S
H792 C798 0.930 . S
H793 C801 0.930 . S
H794 C802 0.930 . S
H795 C803 0.930 . S
H796 C806 0.930 . S
H797 C807 0.930 . S
C798 H792 0.930 . S
C798 C799 1.355 1_565 S
C798 C800 1.415 . S
C799 C798 1.355 1_545 S
C799 C801 1.419 . S
C800 C798 1.415 . S
C800 C805 1.425 1_565 S
C800 C807 1.409 . S
C801 H793 0.930 . S
C801 C799 1.419 . S
C801 C802 1.362 . S
C802 H794 0.930 . S
C802 C801 1.362 . S
C802 C805 1.409 . S
C803 H795 0.930 . S
C803 C804 1.354 . S
C803 C805 1.415 . S
C804 C803 1.354 . S
C804 C806 1.421 1_545 S
C805 C800 1.425 1_545 S
C805 C802 1.409 . S
C805 C803 1.415 . S
C806 H796 0.930 . S
C806 C804 1.421 1_565 S
C806 C807 1.362 . S
C807 H797 0.930 . S
C807 C800 1.409 . S
C807 C806 1.362 . S
H808 C814 0.930 . S
H809 C817 0.930 . S
H810 C818 0.930 . S
H811 C819 0.930 . S
H812 C822 0.930 . S
H813 C823 0.930 . S
C814 H808 0.930 . S
C814 C815 1.355 . S
C814 C816 1.415 . S
C815 C814 1.355 . S
C815 C817 1.419 . S
C816 C814 1.415 . S
C816 C821 1.425 . S
C816 C823 1.409 . S
C817 H809 0.930 . S
C817 C815 1.419 . S
C817 C818 1.362 . S
C818 H810 0.930 . S
C818 C817 1.362 . S
C818 C821 1.409 . S
C819 H811 0.930 . S
C819 C820 1.355 . S
C819 C821 1.415 . S
C820 C819 1.355 . S
C820 C822 1.419 . S
C821 C816 1.425 . S
C821 C818 1.409 . S
C821 C819 1.415 . S
C822 H812 0.930 . S
C822 C820 1.419 . S
C822 C823 1.362 . S
C823 H813 0.930 . S
C823 C816 1.409 . S
C823 C822 1.362 . S
H824 C830 0.930 . S
H825 C833 0.937 . S
H826 C834 0.930 . S
H827 C835 0.891 1_565 S
H828 C838 0.930 1_455 S
H829 C839 0.930 . S
C830 H824 0.930 . S
C830 C831 1.355 . S
C830 C832 1.415 . S
C831 C830 1.355 . S
C831 C833 1.419 . S
C832 C830 1.415 . S
C832 C837 1.425 . S
C832 C839 1.409 . S
C833 H825 0.937 . S
C833 C831 1.419 . S
C833 C834 1.362 1_545 S
C834 H826 0.930 . S
C834 C833 1.362 1_565 S
C834 C837 1.409 1_565 S
C835 H827 0.891 1_545 S
C835 C836 1.370 . S
C835 C837 1.439 . S
C836 C835 1.370 . S
C836 C838 1.419 . S
C837 C832 1.425 . S
C837 C834 1.409 1_545 S
C837 C835 1.439 . S
C838 H828 0.930 1_655 S
C838 C836 1.419 . S
C838 C839 1.362 . S
C839 H829 0.930 . S
C839 C832 1.409 . S
C839 C838 1.362 . S
H840 C846 0.930 . S
H841 C849 0.930 . S
H842 C850 0.930 . S
H843 C851 0.930 . S
H844 C854 0.930 . S
H845 C855 0.930 . S
C846 H840 0.930 . S
C846 C847 1.355 . S
C846 C848 1.415 . S
C847 C846 1.355 . S
C847 C849 1.419 . S
C848 C846 1.415 . S
C848 C853 1.425 . S
C848 C855 1.409 . S
C849 H841 0.930 . S
C849 C847 1.419 . S
C849 C850 1.362 . S
C850 H842 0.930 . S
C850 C849 1.362 . S
C850 C853 1.409 . S
C851 H843 0.930 . S
C851 C852 1.355 . S
C851 C853 1.415 . S
C852 C851 1.355 . S
C852 C854 1.419 . S
C853 C848 1.425 . S
C853 C850 1.409 . S
C853 C851 1.415 . S
C854 H844 0.930 . S
C854 C852 1.419 . S
C854 C855 1.362 . S
C855 H845 0.930 . S
C855 C848 1.409 . S
C855 C854 1.362 . S
H856 C862 0.930 . S
H857 C865 0.930 . S
H858 C866 0.930 . S
H859 C867 0.930 . S
H860 C870 0.930 . S
H861 C871 0.930 . S
C862 H856 0.930 . S
C862 C863 1.355 . S
C862 C864 1.415 . S
C863 C862 1.355 . S
C863 C865 1.419 . S
C864 C862 1.415 . S
C864 C869 1.425 . S
C864 C871 1.409 . S
C865 H857 0.930 . S
C865 C863 1.419 . S
C865 C866 1.362 . S
C866 H858 0.930 . S
C866 C865 1.362 . S
C866 C869 1.409 . S
C867 H859 0.930 . S
C867 C868 1.355 . S
C867 C869 1.415 . S
C868 C867 1.355 . S
C868 C870 1.419 . S
C869 C864 1.425 . S
C869 C866 1.409 . S
C869 C867 1.415 . S
C870 H860 0.930 . S
C870 C868 1.419 . S
C870 C871 1.362 . S
C871 H861 0.930 . S
C871 C864 1.409 . S
C871 C870 1.362 . S
H872 C878 0.930 . S
H873 C881 0.930 . S
H874 C882 0.930 . S
H875 C883 0.930 . S
H876 C886 0.930 . S
H877 C887 0.930 . S
C878 H872 0.930 . S
C878 C879 1.355 . S
C878 C880 1.415 . S
C879 C878 1.355 . S
C879 C881 1.419 . S
C880 C878 1.415 . S
C880 C885 1.425 . S
C880 C887 1.409 . S
C881 H873 0.930 . S
C881 C879 1.419 . S
C881 C882 1.362 . S
C882 H874 0.930 . S
C882 C881 1.362 . S
C882 C885 1.409 . S
C883 H875 0.930 . S
C883 C884 1.355 . S
C883 C885 1.415 . S
C884 C883 1.355 . S
C884 C886 1.419 . S
C885 C880 1.425 . S
C885 C882 1.409 . S
C885 C883 1.415 . S
C886 H876 0.930 . S
C886 C884 1.419 . S
C886 C887 1.362 . S
C887 H877 0.930 . S
C887 C880 1.409 . S
C887 C886 1.362 . S
H888 C894 0.930 . S
H889 C897 0.930 . S
H890 C898 0.930 . S
H891 C899 0.930 . S
H892 C902 0.930 . S
H893 C903 0.930 . S
C894 H888 0.930 . S
C894 C895 1.355 . S
C894 C896 1.415 . S
C895 C894 1.355 . S
C895 C897 1.419 . S
C896 C894 1.415 . S
C896 C901 1.425 . S
C896 C903 1.409 1_565 S
C897 H889 0.930 . S
C897 C895 1.419 . S
C897 C898 1.362 . S
C898 H890 0.930 . S
C898 C897 1.362 . S
C898 C901 1.409 . S
C899 H891 0.930 . S
C899 C900 1.315 1_565 S
C899 C901 1.415 . S
C900 C899 1.315 1_545 S
C900 C902 1.437 . S
C901 C896 1.425 . S
C901 C898 1.409 . S
C901 C899 1.415 . S
C902 H892 0.930 . S
C902 C900 1.437 . S
C902 C903 1.362 . S
C903 H893 0.930 . S
C903 C896 1.409 1_545 S
C903 C902 1.362 . S
H904 C910 0.930 . S
H905 C913 0.930 . S
H906 C914 0.930 . S
H907 C915 0.930 . S
H908 C918 0.930 . S
H909 C919 0.930 . S
C910 H904 0.930 . S
C910 C911 1.359 . S
C910 C912 1.415 . S
C911 C910 1.359 . S
C911 C913 1.416 1_554 S
C912 C910 1.415 . S
C912 C917 1.425 1_554 S
C912 C919 1.409 . S
C913 H905 0.930 . S
C913 C911 1.416 1_556 S
C913 C914 1.362 . S
C914 H906 0.930 . S
C914 C913 1.362 . S
C914 C917 1.409 . S
C915 H907 0.930 . S
C915 C916 1.355 . S
C915 C917 1.415 . S
C916 C915 1.355 . S
C916 C918 1.419 1_556 S
C917 C912 1.425 1_556 S
C917 C914 1.409 . S
C917 C915 1.415 . S
C918 H908 0.930 . S
C918 C916 1.419 1_554 S
C918 C919 1.362 . S
C919 H909 0.930 . S
C919 C912 1.409 . S
C919 C918 1.362 . S
H920 C926 0.930 . S
H921 C929 0.930 . S
H922 C930 0.930 . S
H923 C931 0.930 . S
H924 C934 0.930 . S
H925 C935 0.930 . S
C926 H920 0.930 . S
C926 C927 1.355 . S
C926 C928 1.415 . S
C927 C926 1.355 . S
C927 C929 1.419 . S
C928 C926 1.415 . S
C928 C933 1.425 . S
C928 C935 1.409 . S
C929 H921 0.930 . S
C929 C927 1.419 . S
C929 C930 1.362 . S
C930 H922 0.930 . S
C930 C929 1.362 . S
C930 C933 1.409 . S
C931 H923 0.930 . S
C931 C932 1.355 . S
C931 C933 1.415 . S
C932 C931 1.355 . S
C932 C934 1.419 . S
C933 C928 1.425 . S
C933 C930 1.409 . S
C933 C931 1.415 . S
C934 H924 0.930 . S
C934 C932 1.419 . S
C934 C935 1.362 . S
C935 H925 0.930 . S
C935 C928 1.409 . S
C935 C934 1.362 . S
H936 C942 0.930 . S
H937 C945 0.930 . S
H938 C946 0.930 . S
H939 C947 0.930 . S
H940 C950 0.930 . S
H941 C951 0.930 . S
C942 H936 0.930 . S
C942 C943 1.355 . S
C942 C944 1.415 . S
C943 C942 1.355 . S
C943 C945 1.419 . S
C944 C942 1.415 . S
C944 C949 1.425 . S
C944 C951 1.409 . S
C945 H937 0.930 . S
C945 C943 1.419 . S
C945 C946 1.362 . S
C946 H938 0.930 . S
C946 C945 1.362 . S
C946 C949 1.409 . S
C947 H939 0.930 . S
C947 C948 1.355 . S
C947 C949 1.415 . S
C948 C947 1.355 . S
C948 C950 1.419 . S
C949 C944 1.425 . S
C949 C946 1.409 . S
C949 C947 1.415 . S
C950 H940 0.930 . S
C950 C948 1.419 . S
C950 C951 1.362 . S
C951 H941 0.930 . S
C951 C944 1.409 . S
C951 C950 1.362 . S
H952 C958 0.930 . S
H953 C961 0.930 . S
H954 C962 0.930 . S
H955 C963 0.930 . S
H956 C966 0.930 . S
H957 C967 0.930 . S
C958 H952 0.930 . S
C958 C959 1.355 . S
C958 C960 1.415 . S
C959 C958 1.355 . S
C959 C961 1.419 . S
C960 C958 1.415 . S
C960 C965 1.425 . S
C960 C967 1.409 . S
C961 H953 0.930 . S
C961 C959 1.419 . S
C961 C962 1.362 . S
C962 H954 0.930 . S
C962 C961 1.362 . S
C962 C965 1.409 . S
C963 H955 0.930 . S
C963 C964 1.355 . S
C963 C965 1.415 . S
C964 C963 1.355 . S
C964 C966 1.419 . S
C965 C960 1.425 . S
C965 C962 1.409 . S
C965 C963 1.415 . S
C966 H956 0.930 . S
C966 C964 1.419 . S
C966 C967 1.362 . S
C967 H957 0.930 . S
C967 C960 1.409 . S
C967 C966 1.362 . S
H968 C974 0.930 . S
H969 C977 0.930 . S
H970 C978 0.930 . S
H971 C979 0.930 . S
H972 C982 0.930 . S
H973 C983 0.930 . S
C974 H968 0.930 . S
C974 C975 1.355 . S
C974 C976 1.415 . S
C975 C974 1.355 . S
C975 C977 1.419 . S
C976 C974 1.415 . S
C976 C981 1.425 . S
C976 C983 1.409 . S
C977 H969 0.930 . S
C977 C975 1.419 . S
C977 C978 1.362 . S
C978 H970 0.930 . S
C978 C977 1.362 . S
C978 C981 1.409 . S
C979 H971 0.930 . S
C979 C980 1.355 . S
C979 C981 1.415 . S
C980 C979 1.355 . S
C980 C982 1.419 . S
C981 C976 1.425 . S
C981 C978 1.409 . S
C981 C979 1.415 . S
C982 H972 0.930 . S
C982 C980 1.419 . S
C982 C983 1.362 . S
C983 H973 0.930 . S
C983 C976 1.409 . S
C983 C982 1.362 . S
H984 C990 0.930 . S
H985 C993 0.930 . S
H986 C994 0.930 . S
H987 C995 0.930 . S
H988 C998 0.930 . S
H989 C999 0.930 . S
C990 H984 0.930 . S
C990 C991 1.355 . S
C990 C992 1.415 . S
C991 C990 1.355 . S
C991 C993 1.419 . S
C992 C990 1.415 . S
C992 C997 1.425 . S
C992 C999 1.409 . S
C993 H985 0.930 . S
C993 C991 1.419 . S
C993 C994 1.362 . S
C994 H986 0.930 . S
C994 C993 1.362 . S
C994 C997 1.409 . S
C995 H987 0.930 . S
C995 C996 1.355 . S
C995 C997 1.415 . S
C996 C995 1.355 . S
C996 C998 1.419 . S
C997 C992 1.425 . S
C997 C994 1.409 . S
C997 C995 1.415 . S
C998 H988 0.930 . S
C998 C996 1.419 . S
C998 C999 1.362 . S
C999 H989 0.930 . S
C999 C992 1.409 . S
C999 C998 1.362 . S
H1000 C1006 0.930 . S
H1001 C1009 0.930 . S
H1002 C1010 0.930 . S
H1003 C1011 0.930 . S
H1004 C1014 0.930 . S
H1005 C1015 0.930 . S
C1006 H1000 0.930 . S
C1006 C1007 1.355 . S
C1006 C1008 1.415 . S
C1007 C1006 1.355 . S
C1007 C1009 1.419 . S
C1008 C1006 1.415 . S
C1008 C1013 1.425 . S
C1008 C1015 1.409 . S
C1009 H1001 0.930 . S
C1009 C1007 1.419 . S
C1009 C1010 1.362 . S
C1010 H1002 0.930 . S
C1010 C1009 1.362 . S
C1010 C1013 1.409 . S
C1011 H1003 0.930 . S
C1011 C1012 1.355 . S
C1011 C1013 1.415 . S
C1012 C1011 1.355 . S
C1012 C1014 1.419 . S
C1013 C1008 1.425 . S
C1013 C1010 1.409 . S
C1013 C1011 1.415 . S
C1014 H1004 0.930 . S
C1014 C1012 1.419 . S
C1014 C1015 1.362 . S
C1015 H1005 0.930 . S
C1015 C1008 1.409 . S
C1015 C1014 1.362 . S
H1016 C1022 0.930 . S
H1017 C1025 0.930 . S
H1018 C1026 0.930 . S
H1019 C1027 0.930 . S
H1020 C1030 0.930 . S
H1021 C1031 0.930 . S
C1022 H1016 0.930 . S
C1022 C1023 1.355 . S
C1022 C1024 1.415 . S
C1023 C1022 1.355 . S
C1023 C1025 1.419 . S
C1024 C1022 1.415 . S
C1024 C1029 1.425 . S
C1024 C1031 1.409 . S
C1025 H1017 0.930 . S
C1025 C1023 1.419 . S
C1025 C1026 1.362 . S
C1026 H1018 0.930 . S
C1026 C1025 1.362 . S
C1026 C1029 1.409 . S
C1027 H1019 0.930 . S
C1027 C1028 1.355 . S
C1027 C1029 1.415 . S
C1028 C1027 1.355 . S
C1028 C1030 1.419 . S
C1029 C1024 1.425 . S
C1029 C1026 1.409 . S
C1029 C1027 1.415 . S
C1030 H1020 0.930 . S
C1030 C1028 1.419 . S
C1030 C1031 1.362 . S
C1031 H1021 0.930 . S
C1031 C1024 1.409 . S
C1031 C1030 1.362 . S
H1032 C1038 0.930 . S
H1033 C1041 0.930 . S
H1034 C1042 0.930 . S
H1035 C1043 0.930 . S
H1036 C1046 0.930 . S
H1037 C1047 0.930 . S
C1038 H1032 0.930 . S
C1038 C1039 1.355 . S
C1038 C1040 1.415 . S
C1039 C1038 1.355 . S
C1039 C1041 1.419 . S
C1040 C1038 1.415 . S
C1040 C1045 1.425 . S
C1040 C1047 1.409 . S
C1041 H1033 0.930 . S
C1041 C1039 1.419 . S
C1041 C1042 1.362 . S
C1042 H1034 0.930 . S
C1042 C1041 1.362 . S
C1042 C1045 1.409 . S
C1043 H1035 0.930 . S
C1043 C1044 1.355 . S
C1043 C1045 1.415 . S
C1044 C1043 1.355 . S
C1044 C1046 1.419 . S
C1045 C1040 1.425 . S
C1045 C1042 1.409 . S
C1045 C1043 1.415 . S
C1046 H1036 0.930 . S
C1046 C1044 1.419 . S
C1046 C1047 1.362 . S
C1047 H1037 0.930 . S
C1047 C1040 1.409 . S
C1047 C1046 1.362 . S
H1048 C1054 0.930 . S
H1049 C1057 0.930 . S
H1050 C1058 0.930 . S
H1051 C1059 0.930 . S
H1052 C1062 0.930 . S
H1053 C1063 0.930 . S
C1054 H1048 0.930 . S
C1054 C1055 1.355 . S
C1054 C1056 1.415 . S
C1055 C1054 1.355 . S
C1055 C1057 1.419 . S
C1056 C1054 1.415 . S
C1056 C1061 1.425 . S
C1056 C1063 1.409 . S
C1057 H1049 0.930 . S
C1057 C1055 1.419 . S
C1057 C1058 1.362 . S
C1058 H1050 0.930 . S
C1058 C1057 1.362 . S
C1058 C1061 1.409 . S
C1059 H1051 0.930 . S
C1059 C1060 1.355 . S
C1059 C1061 1.415 . S
C1060 C1059 1.355 . S
C1060 C1062 1.419 . S
C1061 C1056 1.425 . S
C1061 C1058 1.409 . S
C1061 C1059 1.415 . S
C1062 H1052 0.930 . S
C1062 C1060 1.419 . S
C1062 C1063 1.362 . S
C1063 H1053 0.930 . S
C1063 C1056 1.409 . S
C1063 C1062 1.362 . S
H1064 C1070 0.930 . S
H1065 C1073 0.930 . S
H1066 C1074 0.930 . S
H1067 C1075 0.930 . S
H1068 C1078 0.930 . S
H1069 C1079 0.930 . S
C1070 H1064 0.930 . S
C1070 C1071 1.355 . S
C1070 C1072 1.415 . S
C1071 C1070 1.355 . S
C1071 C1073 1.419 . S
C1072 C1070 1.415 . S
C1072 C1077 1.425 . S
C1072 C1079 1.409 . S
C1073 H1065 0.930 . S
C1073 C1071 1.419 . S
C1073 C1074 1.362 . S
C1074 H1066 0.930 . S
C1074 C1073 1.362 . S
C1074 C1077 1.409 . S
C1075 H1067 0.930 . S
C1075 C1076 1.355 . S
C1075 C1077 1.415 . S
C1076 C1075 1.355 . S
C1076 C1078 1.419 . S
C1077 C1072 1.425 . S
C1077 C1074 1.409 . S
C1077 C1075 1.415 . S
C1078 H1068 0.930 . S
C1078 C1076 1.419 . S
C1078 C1079 1.362 . S
C1079 H1069 0.930 . S
C1079 C1072 1.409 . S
C1079 C1078 1.362 . S
H1080 C1086 0.930 1_655 S
H1081 C1089 0.930 . S
H1082 C1090 0.930 . S
H1083 C1091 0.930 . S
H1084 C1094 0.930 . S
H1085 C1095 0.930 . S
C1086 H1080 0.930 1_455 S
C1086 C1087 1.355 . S
C1086 C1088 1.415 . S
C1087 C1086 1.355 . S
C1087 C1089 1.419 . S
C1088 C1086 1.415 . S
C1088 C1093 1.425 . S
C1088 C1095 1.409 1_455 S
C1089 H1081 0.930 . S
C1089 C1087 1.419 . S
C1089 C1090 1.362 . S
C1090 H1082 0.930 . S
C1090 C1089 1.362 . S
C1090 C1093 1.409 . S
C1091 H1083 0.930 . S
C1091 C1092 1.355 . S
C1091 C1093 1.415 . S
C1092 C1091 1.355 . S
C1092 C1094 1.419 1_455 S
C1093 C1088 1.425 . S
C1093 C1090 1.409 . S
C1093 C1091 1.415 . S
C1094 H1084 0.930 . S
C1094 C1092 1.419 1_655 S
C1094 C1095 1.362 . S
C1095 H1085 0.930 . S
C1095 C1088 1.409 1_655 S
C1095 C1094 1.362 . S
H1096 C1102 0.930 . S
H1097 C1105 0.930 . S
H1098 C1106 0.930 . S
H1099 C1107 0.930 . S
H1100 C1110 0.930 . S
H1101 C1111 0.930 . S
C1102 H1096 0.930 . S
C1102 C1103 1.355 . S
C1102 C1104 1.415 . S
C1103 C1102 1.355 . S
C1103 C1105 1.419 . S
C1104 C1102 1.415 . S
C1104 C1109 1.425 . S
C1104 C1111 1.409 . S
C1105 H1097 0.930 . S
C1105 C1103 1.419 . S
C1105 C1106 1.362 . S
C1106 H1098 0.930 . S
C1106 C1105 1.362 . S
C1106 C1109 1.409 . S
C1107 H1099 0.930 . S
C1107 C1108 1.355 . S
C1107 C1109 1.415 . S
C1108 C1107 1.355 . S
C1108 C1110 1.419 . S
C1109 C1104 1.425 . S
C1109 C1106 1.409 . S
C1109 C1107 1.415 . S
C1110 H1100 0.930 . S
C1110 C1108 1.419 . S
C1110 C1111 1.362 . S
C1111 H1101 0.930 . S
C1111 C1104 1.409 . S
C1111 C1110 1.362 . S
H1112 C1118 0.930 . S
H1113 C1121 0.930 . S
H1114 C1122 0.930 . S
H1115 C1123 0.930 . S
H1116 C1126 0.930 . S
H1117 C1127 0.930 . S
C1118 H1112 0.930 . S
C1118 C1119 1.355 . S
C1118 C1120 1.415 . S
C1119 C1118 1.355 . S
C1119 C1121 1.419 . S
C1120 C1118 1.415 . S
C1120 C1125 1.425 . S
C1120 C1127 1.409 . S
C1121 H1113 0.930 . S
C1121 C1119 1.419 . S
C1121 C1122 1.362 . S
C1122 H1114 0.930 . S
C1122 C1121 1.362 . S
C1122 C1125 1.409 . S
C1123 H1115 0.930 . S
C1123 C1124 1.355 . S
C1123 C1125 1.415 . S
C1124 C1123 1.355 . S
C1124 C1126 1.419 . S
C1125 C1120 1.425 . S
C1125 C1122 1.409 . S
C1125 C1123 1.415 . S
C1126 H1116 0.930 . S
C1126 C1124 1.419 . S
C1126 C1127 1.362 . S
C1127 H1117 0.930 . S
C1127 C1120 1.409 . S
C1127 C1126 1.362 . S
H1128 C1134 0.930 . S
H1129 C1137 0.930 . S
H1130 C1138 0.930 . S
H1131 C1139 0.930 . S
H1132 C1142 0.930 . S
H1133 C1143 0.930 . S
C1134 H1128 0.930 . S
C1134 C1135 1.355 . S
C1134 C1136 1.415 . S
C1135 C1134 1.355 . S
C1135 C1137 1.419 . S
C1136 C1134 1.415 . S
C1136 C1141 1.425 . S
C1136 C1143 1.409 . S
C1137 H1129 0.930 . S
C1137 C1135 1.419 . S
C1137 C1138 1.362 . S
C1138 H1130 0.930 . S
C1138 C1137 1.362 . S
C1138 C1141 1.409 . S
C1139 H1131 0.930 . S
C1139 C1140 1.355 . S
C1139 C1141 1.415 . S
C1140 C1139 1.355 . S
C1140 C1142 1.419 . S
C1141 C1136 1.425 . S
C1141 C1138 1.409 . S
C1141 C1139 1.415 . S
C1142 H1132 0.930 . S
C1142 C1140 1.419 . S
C1142 C1143 1.362 . S
C1143 H1133 0.930 . S
C1143 C1136 1.409 . S
C1143 C1142 1.362 . S
H1144 C1150 0.930 1_565 S
H1145 C1153 0.930 . S
H1146 C1154 0.930 . S
H1147 C1155 0.930 . S
H1148 C1158 0.925 1_565 S
H1149 C1159 0.930 . S
C1150 H1144 0.930 1_545 S
C1150 C1151 1.355 . S
C1150 C1152 1.415 . S
C1151 C1150 1.355 . S
C1151 C1153 1.419 . S
C1152 C1150 1.415 . S
C1152 C1157 1.425 . S
C1152 C1159 1.409 1_545 S
C1153 H1145 0.930 . S
C1153 C1151 1.419 . S
C1153 C1154 1.362 . S
C1154 H1146 0.930 . S
C1154 C1153 1.362 . S
C1154 C1157 1.409 . S
C1155 H1147 0.930 . S
C1155 C1156 1.355 . S
C1155 C1157 1.415 . S
C1156 C1155 1.355 . S
C1156 C1158 1.429 . S
C1157 C1152 1.425 . S
C1157 C1154 1.409 . S
C1157 C1155 1.415 . S
C1158 H1148 0.925 1_545 S
C1158 C1156 1.429 . S
C1158 C1159 1.358 1_545 S
C1159 H1149 0.930 . S
C1159 C1152 1.409 1_565 S
C1159 C1158 1.358 1_565 S
H1160 C1166 0.930 . S
H1161 C1169 0.930 . S
H1162 C1170 0.930 . S
H1163 C1171 0.930 . S
H1164 C1174 0.930 . S
H1165 C1175 0.930 . S
C1166 H1160 0.930 . S
C1166 C1167 1.355 . S
C1166 C1168 1.415 . S
C1167 C1166 1.355 . S
C1167 C1169 1.419 . S
C1168 C1166 1.415 . S
C1168 C1173 1.425 . S
C1168 C1175 1.409 . S
C1169 H1161 0.930 . S
C1169 C1167 1.419 . S
C1169 C1170 1.362 . S
C1170 H1162 0.930 . S
C1170 C1169 1.362 . S
C1170 C1173 1.409 . S
C1171 H1163 0.930 . S
C1171 C1172 1.355 . S
C1171 C1173 1.415 . S
C1172 C1171 1.355 . S
C1172 C1174 1.419 . S
C1173 C1168 1.425 . S
C1173 C1170 1.409 . S
C1173 C1171 1.415 . S
C1174 H1164 0.930 . S
C1174 C1172 1.419 . S
C1174 C1175 1.362 . S
C1175 H1165 0.930 . S
C1175 C1168 1.409 . S
C1175 C1174 1.362 . S
H1176 C1182 0.930 . S
H1177 C1185 0.930 . S
H1178 C1186 0.930 . S
H1179 C1187 0.930 1_565 S
H1180 C1190 0.930 . S
H1181 C1191 0.930 . S
C1182 H1176 0.930 . S
C1182 C1183 1.355 . S
C1182 C1184 1.415 . S
C1183 C1182 1.355 . S
C1183 C1185 1.419 1_545 S
C1184 C1182 1.415 . S
C1184 C1189 1.425 . S
C1184 C1191 1.409 . S
C1185 H1177 0.930 . S
C1185 C1183 1.419 1_565 S
C1185 C1186 1.362 . S
C1186 H1178 0.930 . S
C1186 C1185 1.362 . S
C1186 C1189 1.409 1_565 S
C1187 H1179 0.930 1_545 S
C1187 C1188 1.355 . S
C1187 C1189 1.415 . S
C1188 C1187 1.355 . S
C1188 C1190 1.419 . S
C1189 C1184 1.425 . S
C1189 C1186 1.409 1_545 S
C1189 C1187 1.415 . S
C1190 H1180 0.930 . S
C1190 C1188 1.419 . S
C1190 C1191 1.362 . S
C1191 H1181 0.930 . S
C1191 C1184 1.409 . S
C1191 C1190 1.362 . S
H1192 C1198 0.930 . S
H1193 C1201 0.930 . S
H1194 C1202 0.930 . S
H1195 C1203 0.930 . S
H1196 C1206 0.930 . S
H1197 C1207 0.930 . S
C1198 H1192 0.930 . S
C1198 C1199 1.355 . S
C1198 C1200 1.415 . S
C1199 C1198 1.355 . S
C1199 C1201 1.419 . S
C1200 C1198 1.415 . S
C1200 C1205 1.425 . S
C1200 C1207 1.409 . S
C1201 H1193 0.930 . S
C1201 C1199 1.419 . S
C1201 C1202 1.362 . S
C1202 H1194 0.930 . S
C1202 C1201 1.362 . S
C1202 C1205 1.409 . S
C1203 H1195 0.930 . S
C1203 C1204 1.355 . S
C1203 C1205 1.415 . S
C1204 C1203 1.355 . S
C1204 C1206 1.419 . S
C1205 C1200 1.425 . S
C1205 C1202 1.409 . S
C1205 C1203 1.415 . S
C1206 H1196 0.930 . S
C1206 C1204 1.419 . S
C1206 C1207 1.362 . S
C1207 H1197 0.930 . S
C1207 C1200 1.409 . S
C1207 C1206 1.362 . S
H1208 C1214 0.930 . S
H1209 C1217 0.930 . S
H1210 C1218 0.930 . S
H1211 C1219 0.930 . S
H1212 C1222 0.930 . S
H1213 C1223 0.930 . S
C1214 H1208 0.930 . S
C1214 C1215 1.355 . S
C1214 C1216 1.415 . S
C1215 C1214 1.355 . S
C1215 C1217 1.419 . S
C1216 C1214 1.415 . S
C1216 C1221 1.425 . S
C1216 C1223 1.409 1_565 S
C1217 H1209 0.930 . S
C1217 C1215 1.419 . S
C1217 C1218 1.362 . S
C1218 H1210 0.930 . S
C1218 C1217 1.362 . S
C1218 C1221 1.409 . S
C1219 H1211 0.930 . S
C1219 C1220 1.355 . S
C1219 C1221 1.415 1_545 S
C1220 C1219 1.355 . S
C1220 C1222 1.419 . S
C1221 C1216 1.425 . S
C1221 C1218 1.409 . S
C1221 C1219 1.415 1_565 S
C1222 H1212 0.930 . S
C1222 C1220 1.419 . S
C1222 C1223 1.362 . S
C1223 H1213 0.930 . S
C1223 C1216 1.409 1_545 S
C1223 C1222 1.362 . S
H1224 C1230 0.930 . S
H1225 C1233 0.930 . S
H1226 C1234 0.930 . S
H1227 C1235 0.930 . S
H1228 C1238 0.930 . S
H1229 C1239 0.930 . S
C1230 H1224 0.930 . S
C1230 C1231 1.355 . S
C1230 C1232 1.415 . S
C1231 C1230 1.355 . S
C1231 C1233 1.419 . S
C1232 C1230 1.415 . S
C1232 C1237 1.425 . S
C1232 C1239 1.409 . S
C1233 H1225 0.930 . S
C1233 C1231 1.419 . S
C1233 C1234 1.362 . S
C1234 H1226 0.930 . S
C1234 C1233 1.362 . S
C1234 C1237 1.409 . S
C1235 H1227 0.930 . S
C1235 C1236 1.355 . S
C1235 C1237 1.415 . S
C1236 C1235 1.355 . S
C1236 C1238 1.419 . S
C1237 C1232 1.425 . S
C1237 C1234 1.409 . S
C1237 C1235 1.415 . S
C1238 H1228 0.930 . S
C1238 C1236 1.419 . S
C1238 C1239 1.362 . S
C1239 H1229 0.930 . S
C1239 C1232 1.409 . S
C1239 C1238 1.362 . S
H1240 C1246 0.930 . S
H1241 C1249 0.930 . S
H1242 C1250 0.930 . S
H1243 C1251 0.930 . S
H1244 C1254 0.930 . S
H1245 C1255 0.930 . S
C1246 H1240 0.930 . S
C1246 C1247 1.355 . S
C1246 C1248 1.415 . S
C1247 C1246 1.355 . S
C1247 C1249 1.419 . S
C1248 C1246 1.415 . S
C1248 C1253 1.425 . S
C1248 C1255 1.409 . S
C1249 H1241 0.930 . S
C1249 C1247 1.419 . S
C1249 C1250 1.362 . S
C1250 H1242 0.930 . S
C1250 C1249 1.362 . S
C1250 C1253 1.409 . S
C1251 H1243 0.930 . S
C1251 C1252 1.355 . S
C1251 C1253 1.415 . S
C1252 C1251 1.355 . S
C1252 C1254 1.419 . S
C1253 C1248 1.425 . S
C1253 C1250 1.409 . S
C1253 C1251 1.415 . S
C1254 H1244 0.930 . S
C1254 C1252 1.419 . S
C1254 C1255 1.362 . S
C1255 H1245 0.930 . S
C1255 C1248 1.409 . S
C1255 C1254 1.362 . S
H1256 C1262 0.930 . S
H1257 C1265 0.930 . S
H1258 C1266 0.930 . S
H1259 C1267 0.930 . S
H1260 C1270 0.930 . S
H1261 C1271 0.930 . S
C1262 H1256 0.930 . S
C1262 C1263 1.355 . S
C1262 C1264 1.415 . S
C1263 C1262 1.355 . S
C1263 C1265 1.419 . S
C1264 C1262 1.415 . S
C1264 C1269 1.425 . S
C1264 C1271 1.409 . S
C1265 H1257 0.930 . S
C1265 C1263 1.419 . S
C1265 C1266 1.362 . S
C1266 H1258 0.930 . S
C1266 C1265 1.362 . S
C1266 C1269 1.409 . S
C1267 H1259 0.930 . S
C1267 C1268 1.355 . S
C1267 C1269 1.415 . S
C1268 C1267 1.355 . S
C1268 C1270 1.419 . S
C1269 C1264 1.425 . S
C1269 C1266 1.409 . S
C1269 C1267 1.415 . S
C1270 H1260 0.930 . S
C1270 C1268 1.419 . S
C1270 C1271 1.362 . S
C1271 H1261 0.930 . S
C1271 C1264 1.409 . S
C1271 C1270 1.362 . S
H1272 C1278 0.930 . S
H1273 C1281 0.930 . S
H1274 C1282 0.930 . S
H1275 C1283 0.938 . S
H1276 C1286 0.930 . S
H1277 C1287 0.930 . S
C1278 H1272 0.930 . S
C1278 C1279 1.355 . S
C1278 C1280 1.415 . S
C1279 C1278 1.355 . S
C1279 C1281 1.419 . S
C1280 C1278 1.415 . S
C1280 C1285 1.425 . S
C1280 C1287 1.409 . S
C1281 H1273 0.930 . S
C1281 C1279 1.419 . S
C1281 C1282 1.362 . S
C1282 H1274 0.930 . S
C1282 C1281 1.362 . S
C1282 C1285 1.409 . S
C1283 H1275 0.938 . S
C1283 C1284 1.354 . S
C1283 C1285 1.408 1_556 S
C1284 C1283 1.354 . S
C1284 C1286 1.422 . S
C1285 C1280 1.425 . S
C1285 C1282 1.409 . S
C1285 C1283 1.408 1_554 S
C1286 H1276 0.930 . S
C1286 C1284 1.422 . S
C1286 C1287 1.360 1_556 S
C1287 H1277 0.930 . S
C1287 C1280 1.409 . S
C1287 C1286 1.360 1_554 S
H1288 C1294 0.930 . S
H1289 C1297 0.930 . S
H1290 C1298 0.930 . S
H1291 C1299 0.930 . S
H1292 C1302 0.930 . S
H1293 C1303 0.930 . S
C1294 H1288 0.930 . S
C1294 C1295 1.355 . S
C1294 C1296 1.415 . S
C1295 C1294 1.355 . S
C1295 C1297 1.419 1_554 S
C1296 C1294 1.415 . S
C1296 C1301 1.425 . S
C1296 C1303 1.409 . S
C1297 H1289 0.930 . S
C1297 C1295 1.419 1_556 S
C1297 C1298 1.362 . S
C1298 H1290 0.930 . S
C1298 C1297 1.362 . S
C1298 C1301 1.409 1_556 S
C1299 H1291 0.930 . S
C1299 C1300 1.355 1_556 S
C1299 C1301 1.415 1_556 S
C1300 C1299 1.355 1_554 S
C1300 C1302 1.419 . S
C1301 C1296 1.425 . S
C1301 C1298 1.409 1_554 S
C1301 C1299 1.415 1_554 S
C1302 H1292 0.930 . S
C1302 C1300 1.419 . S
C1302 C1303 1.362 . S
C1303 H1293 0.930 . S
C1303 C1296 1.409 . S
C1303 C1302 1.362 . S
H1304 C1310 0.930 . S
H1305 C1313 0.930 . S
H1306 C1314 0.930 . S
H1307 C1315 0.930 . S
H1308 C1318 0.930 . S
H1309 C1319 0.930 . S
C1310 H1304 0.930 . S
C1310 C1311 1.355 . S
C1310 C1312 1.415 . S
C1311 C1310 1.355 . S
C1311 C1313 1.419 . S
C1312 C1310 1.415 . S
C1312 C1317 1.425 . S
C1312 C1319 1.409 . S
C1313 H1305 0.930 . S
C1313 C1311 1.419 . S
C1313 C1314 1.362 . S
C1314 H1306 0.930 . S
C1314 C1313 1.362 . S
C1314 C1317 1.409 . S
C1315 H1307 0.930 . S
C1315 C1316 1.355 . S
C1315 C1317 1.415 . S
C1316 C1315 1.355 . S
C1316 C1318 1.419 . S
C1317 C1312 1.425 . S
C1317 C1314 1.409 . S
C1317 C1315 1.415 . S
C1318 H1308 0.930 . S
C1318 C1316 1.419 . S
C1318 C1319 1.362 . S
C1319 H1309 0.930 . S
C1319 C1312 1.409 . S
C1319 C1318 1.362 . S
H1320 C1326 0.930 . S
H1321 C1329 0.930 . S
H1322 C1330 0.930 . S
H1323 C1331 0.930 . S
H1324 C1334 0.930 . S
H1325 C1335 0.930 . S
C1326 H1320 0.930 . S
C1326 C1327 1.355 . S
C1326 C1328 1.415 . S
C1327 C1326 1.355 . S
C1327 C1329 1.419 . S
C1328 C1326 1.415 . S
C1328 C1333 1.425 . S
C1328 C1335 1.409 . S
C1329 H1321 0.930 . S
C1329 C1327 1.419 . S
C1329 C1330 1.362 . S
C1330 H1322 0.930 . S
C1330 C1329 1.362 . S
C1330 C1333 1.409 . S
C1331 H1323 0.930 . S
C1331 C1332 1.355 . S
C1331 C1333 1.415 . S
C1332 C1331 1.355 . S
C1332 C1334 1.419 . S
C1333 C1328 1.425 . S
C1333 C1330 1.409 . S
C1333 C1331 1.415 . S
C1334 H1324 0.930 . S
C1334 C1332 1.419 . S
C1334 C1335 1.362 . S
C1335 H1325 0.930 . S
C1335 C1328 1.409 . S
C1335 C1334 1.362 . S
H1336 C1342 0.930 . S
H1337 C1345 0.930 . S
H1338 C1346 0.930 . S
H1339 C1347 0.930 . S
H1340 C1350 0.930 . S
H1341 C1351 0.930 . S
C1342 H1336 0.930 . S
C1342 C1343 1.355 . S
C1342 C1344 1.415 . S
C1343 C1342 1.355 . S
C1343 C1345 1.419 . S
C1344 C1342 1.415 . S
C1344 C1349 1.425 . S
C1344 C1351 1.409 . S
C1345 H1337 0.930 . S
C1345 C1343 1.419 . S
C1345 C1346 1.362 . S
C1346 H1338 0.930 . S
C1346 C1345 1.362 . S
C1346 C1349 1.409 . S
C1347 H1339 0.930 . S
C1347 C1348 1.355 . S
C1347 C1349 1.415 . S
C1348 C1347 1.355 . S
C1348 C1350 1.419 . S
C1349 C1344 1.425 . S
C1349 C1346 1.409 . S
C1349 C1347 1.415 . S
C1350 H1340 0.930 . S
C1350 C1348 1.419 . S
C1350 C1351 1.362 . S
C1351 H1341 0.930 . S
C1351 C1344 1.409 . S
C1351 C1350 1.362 . S
H1352 C1358 0.930 . S
H1353 C1361 0.930 . S
H1354 C1362 0.930 . S
H1355 C1363 0.930 . S
H1356 C1366 0.930 . S
H1357 C1367 0.930 . S
C1358 H1352 0.930 . S
C1358 C1359 1.355 . S
C1358 C1360 1.415 . S
C1359 C1358 1.355 . S
C1359 C1361 1.419 . S
C1360 C1358 1.415 . S
C1360 C1365 1.425 . S
C1360 C1367 1.409 . S
C1361 H1353 0.930 . S
C1361 C1359 1.419 . S
C1361 C1362 1.362 . S
C1362 H1354 0.930 . S
C1362 C1361 1.362 . S
C1362 C1365 1.409 . S
C1363 H1355 0.930 . S
C1363 C1364 1.355 . S
C1363 C1365 1.415 . S
C1364 C1363 1.355 . S
C1364 C1366 1.419 . S
C1365 C1360 1.425 . S
C1365 C1362 1.409 . S
C1365 C1363 1.415 . S
C1366 H1356 0.930 . S
C1366 C1364 1.419 . S
C1366 C1367 1.362 . S
C1367 H1357 0.930 . S
C1367 C1360 1.409 . S
C1367 C1366 1.362 . S
H1368 C1374 0.930 . S
H1369 C1377 0.930 . S
H1370 C1378 0.930 . S
H1371 C1379 0.930 . S
H1372 C1382 0.930 . S
H1373 C1383 0.930 . S
C1374 H1368 0.930 . S
C1374 C1375 1.355 . S
C1374 C1376 1.415 . S
C1375 C1374 1.355 . S
C1375 C1377 1.419 . S
C1376 C1374 1.415 . S
C1376 C1381 1.425 . S
C1376 C1383 1.409 . S
C1377 H1369 0.930 . S
C1377 C1375 1.419 . S
C1377 C1378 1.362 . S
C1378 H1370 0.930 . S
C1378 C1377 1.362 . S
C1378 C1381 1.409 . S
C1379 H1371 0.930 . S
C1379 C1380 1.355 . S
C1379 C1381 1.415 . S
C1380 C1379 1.355 . S
C1380 C1382 1.419 . S
C1381 C1376 1.425 . S
C1381 C1378 1.409 . S
C1381 C1379 1.415 . S
C1382 H1372 0.930 . S
C1382 C1380 1.419 . S
C1382 C1383 1.362 . S
C1383 H1373 0.930 . S
C1383 C1376 1.409 . S
C1383 C1382 1.362 . S
H1384 C1390 0.930 . S
H1385 C1393 0.930 . S
H1386 C1394 0.930 . S
H1387 C1395 0.930 . S
H1388 C1398 0.930 . S
H1389 C1399 0.930 . S
C1390 H1384 0.930 . S
C1390 C1391 1.355 . S
C1390 C1392 1.415 . S
C1391 C1390 1.355 . S
C1391 C1393 1.419 . S
C1392 C1390 1.415 . S
C1392 C1397 1.425 . S
C1392 C1399 1.409 . S
C1393 H1385 0.930 . S
C1393 C1391 1.419 . S
C1393 C1394 1.362 . S
C1394 H1386 0.930 . S
C1394 C1393 1.362 . S
C1394 C1397 1.409 . S
C1395 H1387 0.930 . S
C1395 C1396 1.355 . S
C1395 C1397 1.415 . S
C1396 C1395 1.355 . S
C1396 C1398 1.419 . S
C1397 C1392 1.425 . S
C1397 C1394 1.409 . S
C1397 C1395 1.415 . S
C1398 H1388 0.930 . S
C1398 C1396 1.419 . S
C1398 C1399 1.362 . S
C1399 H1389 0.930 . S
C1399 C1392 1.409 . S
C1399 C1398 1.362 . S
H1400 C1406 0.930 . S
H1401 C1409 0.930 . S
H1402 C1410 0.930 . S
H1403 C1411 0.930 . S
H1404 C1414 0.930 . S
H1405 C1415 0.930 . S
C1406 H1400 0.930 . S
C1406 C1407 1.355 . S
C1406 C1408 1.415 . S
C1407 C1406 1.355 . S
C1407 C1409 1.419 . S
C1408 C1406 1.415 . S
C1408 C1413 1.425 . S
C1408 C1415 1.409 . S
C1409 H1401 0.930 . S
C1409 C1407 1.419 . S
C1409 C1410 1.362 . S
C1410 H1402 0.930 . S
C1410 C1409 1.362 . S
C1410 C1413 1.409 . S
C1411 H1403 0.930 . S
C1411 C1412 1.355 . S
C1411 C1413 1.415 . S
C1412 C1411 1.355 . S
C1412 C1414 1.419 . S
C1413 C1408 1.425 . S
C1413 C1410 1.409 . S
C1413 C1411 1.415 . S
C1414 H1404 0.930 . S
C1414 C1412 1.419 . S
C1414 C1415 1.362 . S
C1415 H1405 0.930 . S
C1415 C1408 1.409 . S
C1415 C1414 1.362 . S
H1416 C1422 0.930 . S
H1417 C1425 0.930 . S
H1418 C1426 0.930 . S
H1419 C1427 0.930 . S
H1420 C1430 0.930 . S
H1421 C1431 0.930 . S
C1422 H1416 0.930 . S
C1422 C1423 1.355 . S
C1422 C1424 1.415 . S
C1423 C1422 1.355 . S
C1423 C1425 1.419 . S
C1424 C1422 1.415 . S
C1424 C1429 1.425 . S
C1424 C1431 1.409 . S
C1425 H1417 0.930 . S
C1425 C1423 1.419 . S
C1425 C1426 1.362 . S
C1426 H1418 0.930 . S
C1426 C1425 1.362 . S
C1426 C1429 1.409 . S
C1427 H1419 0.930 . S
C1427 C1428 1.355 . S
C1427 C1429 1.415 . S
C1428 C1427 1.355 . S
C1428 C1430 1.419 . S
C1429 C1424 1.425 . S
C1429 C1426 1.409 . S
C1429 C1427 1.415 . S
C1430 H1420 0.930 . S
C1430 C1428 1.419 . S
C1430 C1431 1.362 . S
C1431 H1421 0.930 . S
C1431 C1424 1.409 . S
C1431 C1430 1.362 . S
H1432 C1438 0.930 . S
H1433 C1441 0.930 . S
H1434 C1442 0.930 . S
H1435 C1443 0.942 . S
H1436 C1446 0.930 . S
H1437 C1447 0.930 . S
C1438 H1432 0.930 . S
C1438 C1439 1.355 . S
C1438 C1440 1.415 . S
C1439 C1438 1.355 . S
C1439 C1441 1.419 1_455 S
C1440 C1438 1.415 . S
C1440 C1445 1.447 . S
C1440 C1447 1.409 1_556 S
C1441 H1433 0.930 . S
C1441 C1439 1.419 1_655 S
C1441 C1442 1.362 . S
C1442 H1434 0.930 . S
C1442 C1441 1.362 . S
C1442 C1445 1.400 1_655 S
C1443 H1435 0.942 . S
C1443 C1444 1.350 1_656 S
C1443 C1445 1.399 1_655 S
C1444 C1443 1.350 1_454 S
C1444 C1446 1.419 . S
C1445 C1440 1.447 . S
C1445 C1442 1.400 1_455 S
C1445 C1443 1.399 1_455 S
C1446 H1436 0.930 . S
C1446 C1444 1.419 . S
C1446 C1447 1.362 . S
C1447 H1437 0.930 . S
C1447 C1440 1.409 1_554 S
C1447 C1446 1.362 . S
H1448 C1454 0.930 . S
H1449 C1457 0.930 . S
H1450 C1458 0.930 . S
H1451 C1459 0.930 . S
H1452 C1462 0.930 . S
H1453 C1463 0.930 . S
C1454 H1448 0.930 . S
C1454 C1455 1.355 . S
C1454 C1456 1.415 . S
C1455 C1454 1.355 . S
C1455 C1457 1.419 . S
C1456 C1454 1.415 . S
C1456 C1461 1.425 . S
C1456 C1463 1.409 . S
C1457 H1449 0.930 . S
C1457 C1455 1.419 . S
C1457 C1458 1.362 . S
C1458 H1450 0.930 . S
C1458 C1457 1.362 . S
C1458 C1461 1.409 . S
C1459 H1451 0.930 . S
C1459 C1460 1.355 . S
C1459 C1461 1.415 . S
C1460 C1459 1.355 . S
C1460 C1462 1.419 . S
C1461 C1456 1.425 . S
C1461 C1458 1.409 . S
C1461 C1459 1.415 . S
C1462 H1452 0.930 . S
C1462 C1460 1.419 . S
C1462 C1463 1.362 . S
C1463 H1453 0.930 . S
C1463 C1456 1.409 . S
C1463 C1462 1.362 . S
H1464 C1470 0.930 . S
H1465 C1473 0.930 . S
H1466 C1474 0.930 . S
H1467 C1475 0.930 . S
H1468 C1478 0.930 . S
H1469 C1479 0.930 . S
C1470 H1464 0.930 . S
C1470 C1471 1.355 . S
C1470 C1472 1.415 . S
C1471 C1470 1.355 . S
C1471 C1473 1.419 . S
C1472 C1470 1.415 . S
C1472 C1477 1.425 . S
C1472 C1479 1.409 . S
C1473 H1465 0.930 . S
C1473 C1471 1.419 . S
C1473 C1474 1.362 . S
C1474 H1466 0.930 . S
C1474 C1473 1.362 . S
C1474 C1477 1.409 . S
C1475 H1467 0.930 . S
C1475 C1476 1.355 . S
C1475 C1477 1.415 . S
C1476 C1475 1.355 . S
C1476 C1478 1.419 . S
C1477 C1472 1.425 . S
C1477 C1474 1.409 . S
C1477 C1475 1.415 . S
C1478 H1468 0.930 . S
C1478 C1476 1.419 . S
C1478 C1479 1.362 . S
C1479 H1469 0.930 . S
C1479 C1472 1.409 . S
C1479 C1478 1.362 . S
H1480 C1486 0.930 . S
H1481 C1489 0.930 . S
H1482 C1490 0.930 . S
H1483 C1491 0.930 . S
H1484 C1494 0.930 . S
H1485 C1495 0.930 . S
C1486 H1480 0.930 . S
C1486 C1487 1.355 . S
C1486 C1488 1.415 . S
C1487 C1486 1.355 . S
C1487 C1489 1.419 . S
C1488 C1486 1.415 . S
C1488 C1493 1.425 . S
C1488 C1495 1.409 . S
C1489 H1481 0.930 . S
C1489 C1487 1.419 . S
C1489 C1490 1.362 . S
C1490 H1482 0.930 . S
C1490 C1489 1.362 . S
C1490 C1493 1.409 . S
C1491 H1483 0.930 . S
C1491 C1492 1.355 . S
C1491 C1493 1.415 . S
C1492 C1491 1.355 . S
C1492 C1494 1.419 . S
C1493 C1488 1.425 . S
C1493 C1490 1.409 . S
C1493 C1491 1.415 . S
C1494 H1484 0.930 . S
C1494 C1492 1.419 . S
C1494 C1495 1.362 . S
C1495 H1485 0.930 . S
C1495 C1488 1.409 . S
C1495 C1494 1.362 . S
H1496 C1502 0.930 . S
H1497 C1505 0.930 . S
H1498 C1506 0.930 . S
H1499 C1507 0.930 . S
H1500 C1510 0.930 . S
H1501 C1511 0.930 . S
C1502 H1496 0.930 . S
C1502 C1503 1.350 1_455 S
C1502 C1504 1.415 . S
C1503 C1502 1.350 1_655 S
C1503 C1505 1.422 . S
C1504 C1502 1.415 . S
C1504 C1509 1.425 1_455 S
C1504 C1511 1.409 . S
C1505 H1497 0.930 . S
C1505 C1503 1.422 . S
C1505 C1506 1.362 . S
C1506 H1498 0.930 . S
C1506 C1505 1.362 . S
C1506 C1509 1.409 . S
C1507 H1499 0.930 . S
C1507 C1508 1.355 1_655 S
C1507 C1509 1.415 . S
C1508 C1507 1.355 1_455 S
C1508 C1510 1.419 . S
C1509 C1504 1.425 1_655 S
C1509 C1506 1.409 . S
C1509 C1507 1.415 . S
C1510 H1500 0.930 . S
C1510 C1508 1.419 . S
C1510 C1511 1.362 . S
C1511 H1501 0.930 . S
C1511 C1504 1.409 . S
C1511 C1510 1.362 . S
H1512 C1518 0.930 . S
H1513 C1521 0.930 . S
H1514 C1522 0.930 . S
H1515 C1523 0.930 . S
H1516 C1526 0.930 . S
H1517 C1527 0.930 . S
C1518 H1512 0.930 . S
C1518 C1519 1.355 . S
C1518 C1520 1.415 . S
C1519 C1518 1.355 . S
C1519 C1521 1.419 . S
C1520 C1518 1.415 . S
C1520 C1525 1.425 . S
C1520 C1527 1.409 . S
C1521 H1513 0.930 . S
C1521 C1519 1.419 . S
C1521 C1522 1.362 . S
C1522 H1514 0.930 . S
C1522 C1521 1.362 . S
C1522 C1525 1.409 . S
C1523 H1515 0.930 . S
C1523 C1524 1.355 . S
C1523 C1525 1.415 . S
C1524 C1523 1.355 . S
C1524 C1526 1.419 . S
C1525 C1520 1.425 . S
C1525 C1522 1.409 . S
C1525 C1523 1.415 . S
C1526 H1516 0.930 . S
C1526 C1524 1.419 . S
C1526 C1527 1.362 . S
C1527 H1517 0.930 . S
C1527 C1520 1.409 . S
C1527 C1526 1.362 . S
H1528 C1534 0.930 . S
H1529 C1537 0.930 . S
H1530 C1538 0.930 . S
H1531 C1539 0.930 . S
H1532 C1542 0.930 . S
H1533 C1543 0.930 . S
C1534 H1528 0.930 . S
C1534 C1535 1.355 . S
C1534 C1536 1.415 . S
C1535 C1534 1.355 . S
C1535 C1537 1.419 . S
C1536 C1534 1.415 . S
C1536 C1541 1.425 . S
C1536 C1543 1.409 . S
C1537 H1529 0.930 . S
C1537 C1535 1.419 . S
C1537 C1538 1.362 . S
C1538 H1530 0.930 . S
C1538 C1537 1.362 . S
C1538 C1541 1.409 . S
C1539 H1531 0.930 . S
C1539 C1540 1.355 . S
C1539 C1541 1.415 . S
C1540 C1539 1.355 . S
C1540 C1542 1.419 . S
C1541 C1536 1.425 . S
C1541 C1538 1.409 . S
C1541 C1539 1.415 . S
C1542 H1532 0.930 . S
C1542 C1540 1.419 . S
C1542 C1543 1.362 . S
C1543 H1533 0.930 . S
C1543 C1536 1.409 . S
C1543 C1542 1.362 . S
H1544 C1550 0.930 . S
H1545 C1553 0.930 . S
H1546 C1554 0.930 . S
H1547 C1555 0.930 . S
H1548 C1558 0.930 . S
H1549 C1559 0.930 . S
C1550 H1544 0.930 . S
C1550 C1551 1.355 . S
C1550 C1552 1.415 . S
C1551 C1550 1.355 . S
C1551 C1553 1.419 . S
C1552 C1550 1.415 . S
C1552 C1557 1.425 . S
C1552 C1559 1.409 . S
C1553 H1545 0.930 . S
C1553 C1551 1.419 . S
C1553 C1554 1.362 . S
C1554 H1546 0.930 . S
C1554 C1553 1.362 . S
C1554 C1557 1.409 . S
C1555 H1547 0.930 . S
C1555 C1556 1.355 . S
C1555 C1557 1.415 . S
C1556 C1555 1.355 . S
C1556 C1558 1.419 . S
C1557 C1552 1.425 . S
C1557 C1554 1.409 . S
C1557 C1555 1.415 . S
C1558 H1548 0.930 . S
C1558 C1556 1.419 . S
C1558 C1559 1.362 . S
C1559 H1549 0.930 . S
C1559 C1552 1.409 . S
C1559 C1558 1.362 . S
H1560 C1566 0.930 . S
H1561 C1569 0.930 . S
H1562 C1570 0.930 . S
H1563 C1571 0.930 . S
H1564 C1574 0.930 . S
H1565 C1575 0.930 . S
C1566 H1560 0.930 . S
C1566 C1567 1.355 . S
C1566 C1568 1.415 . S
C1567 C1566 1.355 . S
C1567 C1569 1.419 . S
C1568 C1566 1.415 . S
C1568 C1573 1.425 . S
C1568 C1575 1.409 . S
C1569 H1561 0.930 . S
C1569 C1567 1.419 . S
C1569 C1570 1.362 . S
C1570 H1562 0.930 . S
C1570 C1569 1.362 . S
C1570 C1573 1.409 . S
C1571 H1563 0.930 . S
C1571 C1572 1.355 . S
C1571 C1573 1.415 . S
C1572 C1571 1.355 . S
C1572 C1574 1.419 . S
C1573 C1568 1.425 . S
C1573 C1570 1.409 . S
C1573 C1571 1.415 . S
C1574 H1564 0.930 . S
C1574 C1572 1.419 . S
C1574 C1575 1.362 . S
C1575 H1565 0.930 . S
C1575 C1568 1.409 . S
C1575 C1574 1.362 . S
H1576 C1582 0.930 . S
H1577 C1585 0.930 . S
H1578 C1586 0.930 . S
H1579 C1587 0.930 . S
H1580 C1590 0.930 . S
H1581 C1591 0.930 . S
C1582 H1576 0.930 . S
C1582 C1583 1.355 . S
C1582 C1584 1.415 . S
C1583 C1582 1.355 . S
C1583 C1585 1.419 . S
C1584 C1582 1.415 . S
C1584 C1589 1.425 . S
C1584 C1591 1.409 . S
C1585 H1577 0.930 . S
C1585 C1583 1.419 . S
C1585 C1586 1.362 . S
C1586 H1578 0.930 . S
C1586 C1585 1.362 . S
C1586 C1589 1.409 . S
C1587 H1579 0.930 . S
C1587 C1588 1.355 . S
C1587 C1589 1.415 . S
C1588 C1587 1.355 . S
C1588 C1590 1.419 . S
C1589 C1584 1.425 . S
C1589 C1586 1.409 . S
C1589 C1587 1.415 . S
C1590 H1580 0.930 . S
C1590 C1588 1.419 . S
C1590 C1591 1.362 . S
C1591 H1581 0.930 . S
C1591 C1584 1.409 . S
C1591 C1590 1.362 . S
H1592 C1598 0.930 . S
H1593 C1601 0.930 . S
H1594 C1602 0.930 . S
H1595 C1603 0.930 . S
H1596 C1606 0.930 . S
H1597 C1607 0.930 . S
C1598 H1592 0.930 . S
C1598 C1599 1.355 . S
C1598 C1600 1.415 . S
C1599 C1598 1.355 . S
C1599 C1601 1.419 . S
C1600 C1598 1.415 . S
C1600 C1605 1.425 . S
C1600 C1607 1.409 . S
C1601 H1593 0.930 . S
C1601 C1599 1.419 . S
C1601 C1602 1.362 . S
C1602 H1594 0.930 . S
C1602 C1601 1.362 . S
C1602 C1605 1.409 . S
C1603 H1595 0.930 . S
C1603 C1604 1.355 . S
C1603 C1605 1.415 . S
C1604 C1603 1.355 . S
C1604 C1606 1.419 . S
C1605 C1600 1.425 . S
C1605 C1602 1.409 . S
C1605 C1603 1.415 . S
C1606 H1596 0.930 . S
C1606 C1604 1.419 . S
C1606 C1607 1.362 . S
C1607 H1597 0.930 . S
C1607 C1600 1.409 . S
C1607 C1606 1.362 . S
H1608 C1614 0.930 . S
H1609 C1617 0.930 . S
H1610 C1618 0.930 . S
H1611 C1619 0.930 . S
H1612 C1622 0.930 . S
H1613 C1623 0.930 . S
C1614 H1608 0.930 . S
C1614 C1615 1.355 . S
C1614 C1616 1.415 . S
C1615 C1614 1.355 . S
C1615 C1617 1.419 . S
C1616 C1614 1.415 . S
C1616 C1621 1.425 . S
C1616 C1623 1.409 . S
C1617 H1609 0.930 . S
C1617 C1615 1.419 . S
C1617 C1618 1.362 . S
C1618 H1610 0.930 . S
C1618 C1617 1.362 . S
C1618 C1621 1.409 . S
C1619 H1611 0.930 . S
C1619 C1620 1.355 . S
C1619 C1621 1.415 . S
C1620 C1619 1.355 . S
C1620 C1622 1.419 . S
C1621 C1616 1.425 . S
C1621 C1618 1.409 . S
C1621 C1619 1.415 . S
C1622 H1612 0.930 . S
C1622 C1620 1.419 . S
C1622 C1623 1.362 . S
C1623 H1613 0.930 . S
C1623 C1616 1.409 . S
C1623 C1622 1.362 . S
H1624 C1630 0.930 . S
H1625 C1633 0.930 . S
H1626 C1634 0.930 . S
H1627 C1635 0.930 . S
H1628 C1638 0.930 . S
H1629 C1639 0.930 . S
C1630 H1624 0.930 . S
C1630 C1631 1.355 . S
C1630 C1632 1.415 . S
C1631 C1630 1.355 . S
C1631 C1633 1.419 . S
C1632 C1630 1.415 . S
C1632 C1637 1.425 . S
C1632 C1639 1.409 . S
C1633 H1625 0.930 . S
C1633 C1631 1.419 . S
C1633 C1634 1.362 . S
C1634 H1626 0.930 . S
C1634 C1633 1.362 . S
C1634 C1637 1.409 . S
C1635 H1627 0.930 . S
C1635 C1636 1.355 . S
C1635 C1637 1.415 . S
C1636 C1635 1.355 . S
C1636 C1638 1.419 . S
C1637 C1632 1.425 . S
C1637 C1634 1.409 . S
C1637 C1635 1.415 . S
C1638 H1628 0.930 . S
C1638 C1636 1.419 . S
C1638 C1639 1.362 . S
C1639 H1629 0.930 . S
C1639 C1632 1.409 . S
C1639 C1638 1.362 . S
H1640 C1646 0.930 . S
H1641 C1649 0.930 . S
H1642 C1650 0.930 . S
H1643 C1651 0.930 . S
H1644 C1654 0.930 . S
H1645 C1655 0.930 . S
C1646 H1640 0.930 . S
C1646 C1647 1.355 . S
C1646 C1648 1.415 . S
C1647 C1646 1.355 . S
C1647 C1649 1.419 . S
C1648 C1646 1.415 . S
C1648 C1653 1.425 . S
C1648 C1655 1.409 . S
C1649 H1641 0.930 . S
C1649 C1647 1.419 . S
C1649 C1650 1.362 . S
C1650 H1642 0.930 . S
C1650 C1649 1.362 . S
C1650 C1653 1.409 . S
C1651 H1643 0.930 . S
C1651 C1652 1.355 . S
C1651 C1653 1.415 . S
C1652 C1651 1.355 . S
C1652 C1654 1.419 . S
C1653 C1648 1.425 . S
C1653 C1650 1.409 . S
C1653 C1651 1.415 . S
C1654 H1644 0.930 . S
C1654 C1652 1.419 . S
C1654 C1655 1.362 . S
C1655 H1645 0.930 . S
C1655 C1648 1.409 . S
C1655 C1654 1.362 . S
H1656 C1662 0.930 . S
H1657 C1665 0.930 . S
H1658 C1666 0.930 . S
H1659 C1667 0.930 . S
H1660 C1670 0.930 . S
H1661 C1671 0.930 . S
C1662 H1656 0.930 . S
C1662 C1663 1.355 . S
C1662 C1664 1.415 . S
C1663 C1662 1.355 . S
C1663 C1665 1.419 . S
C1664 C1662 1.415 . S
C1664 C1669 1.425 . S
C1664 C1671 1.409 . S
C1665 H1657 0.930 . S
C1665 C1663 1.419 . S
C1665 C1666 1.362 . S
C1666 H1658 0.930 . S
C1666 C1665 1.362 . S
C1666 C1669 1.409 . S
C1667 H1659 0.930 . S
C1667 C1668 1.355 . S
C1667 C1669 1.415 . S
C1668 C1667 1.355 . S
C1668 C1670 1.419 . S
C1669 C1664 1.425 . S
C1669 C1666 1.409 . S
C1669 C1667 1.415 . S
C1670 H1660 0.930 . S
C1670 C1668 1.419 . S
C1670 C1671 1.362 . S
C1671 H1661 0.930 . S
C1671 C1664 1.409 . S
C1671 C1670 1.362 . S
H1672 C1678 0.930 . S
H1673 C1681 0.930 . S
H1674 C1682 0.930 . S
H1675 C1683 0.930 . S
H1676 C1686 0.930 . S
H1677 C1687 0.930 . S
C1678 H1672 0.930 . S
C1678 C1679 1.355 . S
C1678 C1680 1.415 . S
C1679 C1678 1.355 . S
C1679 C1681 1.419 . S
C1680 C1678 1.415 . S
C1680 C1685 1.425 . S
C1680 C1687 1.409 . S
C1681 H1673 0.930 . S
C1681 C1679 1.419 . S
C1681 C1682 1.362 . S
C1682 H1674 0.930 . S
C1682 C1681 1.362 . S
C1682 C1685 1.409 . S
C1683 H1675 0.930 . S
C1683 C1684 1.355 . S
C1683 C1685 1.415 . S
C1684 C1683 1.355 . S
C1684 C1686 1.419 . S
C1685 C1680 1.425 . S
C1685 C1682 1.409 . S
C1685 C1683 1.415 . S
C1686 H1676 0.930 . S
C1686 C1684 1.419 . S
C1686 C1687 1.362 . S
C1687 H1677 0.930 . S
C1687 C1680 1.409 . S
C1687 C1686 1.362 . S
H1688 C1694 0.930 . S
H1689 C1697 0.930 . S
H1690 C1698 0.930 . S
H1691 C1699 0.930 . S
H1692 C1702 0.930 . S
H1693 C1703 0.930 . S
C1694 H1688 0.930 . S
C1694 C1695 1.355 . S
C1694 C1696 1.415 . S
C1695 C1694 1.355 . S
C1695 C1697 1.419 . S
C1696 C1694 1.415 . S
C1696 C1701 1.425 . S
C1696 C1703 1.409 . S
C1697 H1689 0.930 . S
C1697 C1695 1.419 . S
C1697 C1698 1.362 . S
C1698 H1690 0.930 . S
C1698 C1697 1.362 . S
C1698 C1701 1.409 . S
C1699 H1691 0.930 . S
C1699 C1700 1.355 . S
C1699 C1701 1.415 . S
C1700 C1699 1.355 . S
C1700 C1702 1.419 . S
C1701 C1696 1.425 . S
C1701 C1698 1.409 . S
C1701 C1699 1.415 . S
C1702 H1692 0.930 . S
C1702 C1700 1.419 . S
C1702 C1703 1.362 . S
C1703 H1693 0.930 . S
C1703 C1696 1.409 . S
C1703 C1702 1.362 . S
H1704 C1710 0.930 1_556 S
H1705 C1713 0.930 . S
H1706 C1714 0.930 . S
H1707 C1715 0.930 . S
H1708 C1718 0.930 . S
H1709 C1719 0.930 . S
C1710 H1704 0.930 1_554 S
C1710 C1711 1.355 . S
C1710 C1712 1.415 . S
C1711 C1710 1.355 . S
C1711 C1713 1.419 . S
C1712 C1710 1.415 . S
C1712 C1717 1.425 . S
C1712 C1719 1.409 1_554 S
C1713 H1705 0.930 . S
C1713 C1711 1.419 . S
C1713 C1714 1.362 . S
C1714 H1706 0.930 . S
C1714 C1713 1.362 . S
C1714 C1717 1.409 . S
C1715 H1707 0.930 . S
C1715 C1716 1.355 . S
C1715 C1717 1.415 1_545 S
C1716 C1715 1.355 . S
C1716 C1718 1.419 1_544 S
C1717 C1712 1.425 . S
C1717 C1714 1.409 . S
C1717 C1715 1.415 1_565 S
C1718 H1708 0.930 . S
C1718 C1716 1.419 1_566 S
C1718 C1719 1.362 . S
C1719 H1709 0.930 . S
C1719 C1712 1.409 1_556 S
C1719 C1718 1.362 . S
H1720 C1726 0.930 . S
H1721 C1729 0.930 . S
H1722 C1730 0.930 . S
H1723 C1731 0.930 . S
H1724 C1734 0.930 . S
H1725 C1735 0.930 . S
C1726 H1720 0.930 . S
C1726 C1727 1.355 . S
C1726 C1728 1.415 . S
C1727 C1726 1.355 . S
C1727 C1729 1.419 . S
C1728 C1726 1.415 . S
C1728 C1733 1.425 . S
C1728 C1735 1.409 . S
C1729 H1721 0.930 . S
C1729 C1727 1.419 . S
C1729 C1730 1.362 . S
C1730 H1722 0.930 . S
C1730 C1729 1.362 . S
C1730 C1733 1.409 . S
C1731 H1723 0.930 . S
C1731 C1732 1.355 . S
C1731 C1733 1.415 . S
C1732 C1731 1.355 . S
C1732 C1734 1.419 . S
C1733 C1728 1.425 . S
C1733 C1730 1.409 . S
C1733 C1731 1.415 . S
C1734 H1724 0.930 . S
C1734 C1732 1.419 . S
C1734 C1735 1.362 . S
C1735 H1725 0.930 . S
C1735 C1728 1.409 . S
C1735 C1734 1.362 . S
H1736 C1742 0.930 1_556 S
H1737 C1745 0.930 . S
H1738 C1746 0.930 . S
H1739 C1747 0.930 . S
H1740 C1750 0.930 . S
H1741 C1751 0.930 1_556 S
C1742 H1736 0.930 1_554 S
C1742 C1743 1.355 . S
C1742 C1744 1.415 . S
C1743 C1742 1.355 . S
C1743 C1745 1.419 . S
C1744 C1742 1.415 . S
C1744 C1749 1.425 . S
C1744 C1751 1.409 . S
C1745 H1737 0.930 . S
C1745 C1743 1.419 . S
C1745 C1746 1.362 . S
C1746 H1738 0.930 . S
C1746 C1745 1.362 . S
C1746 C1749 1.409 . S
C1747 H1739 0.930 . S
C1747 C1748 1.355 . S
C1747 C1749 1.415 . S
C1748 C1747 1.355 . S
C1748 C1750 1.419 . S
C1749 C1744 1.425 . S
C1749 C1746 1.409 . S
C1749 C1747 1.415 . S
C1750 H1740 0.930 . S
C1750 C1748 1.419 . S
C1750 C1751 1.362 . S
C1751 H1741 0.930 1_554 S
C1751 C1744 1.409 . S
C1751 C1750 1.362 . S
H1752 C1758 0.930 . S
H1753 C1761 0.930 . S
H1754 C1762 0.930 . S
H1755 C1763 0.930 . S
H1756 C1766 0.930 . S
H1757 C1767 0.930 . S
C1758 H1752 0.930 . S
C1758 C1759 1.355 . S
C1758 C1760 1.415 . S
C1759 C1758 1.355 . S
C1759 C1761 1.419 . S
C1760 C1758 1.415 . S
C1760 C1765 1.425 . S
C1760 C1767 1.409 . S
C1761 H1753 0.930 . S
C1761 C1759 1.419 . S
C1761 C1762 1.362 . S
C1762 H1754 0.930 . S
C1762 C1761 1.362 . S
C1762 C1765 1.409 . S
C1763 H1755 0.930 . S
C1763 C1764 1.355 . S
C1763 C1765 1.415 . S
C1764 C1763 1.355 . S
C1764 C1766 1.419 . S
C1765 C1760 1.425 . S
C1765 C1762 1.409 . S
C1765 C1763 1.415 . S
C1766 H1756 0.930 . S
C1766 C1764 1.419 . S
C1766 C1767 1.362 . S
C1767 H1757 0.930 . S
C1767 C1760 1.409 . S
C1767 C1766 1.362 . S
H1768 C1774 0.930 . S
H1769 C1777 0.930 . S
H1770 C1778 0.930 . S
H1771 C1779 0.930 . S
H1772 C1782 0.930 . S
H1773 C1783 0.930 . S
C1774 H1768 0.930 . S
C1774 C1775 1.355 . S
C1774 C1776 1.415 . S
C1775 C1774 1.355 . S
C1775 C1777 1.419 . S
C1776 C1774 1.415 . S
C1776 C1781 1.425 . S
C1776 C1783 1.409 . S
C1777 H1769 0.930 . S
C1777 C1775 1.419 . S
C1777 C1778 1.362 . S
C1778 H1770 0.930 . S
C1778 C1777 1.362 . S
C1778 C1781 1.409 . S
C1779 H1771 0.930 . S
C1779 C1780 1.355 . S
C1779 C1781 1.415 . S
C1780 C1779 1.355 . S
C1780 C1782 1.419 . S
C1781 C1776 1.425 . S
C1781 C1778 1.409 . S
C1781 C1779 1.415 . S
C1782 H1772 0.930 . S
C1782 C1780 1.419 . S
C1782 C1783 1.362 . S
C1783 H1773 0.930 . S
C1783 C1776 1.409 . S
C1783 C1782 1.362 . S
H1784 C1790 0.930 . S
H1785 C1793 0.930 . S
H1786 C1794 0.930 . S
H1787 C1795 0.930 . S
H1788 C1798 0.930 . S
H1789 C1799 0.930 . S
C1790 H1784 0.930 . S
C1790 C1791 1.355 . S
C1790 C1792 1.415 . S
C1791 C1790 1.355 . S
C1791 C1793 1.419 . S
C1792 C1790 1.415 . S
C1792 C1797 1.425 . S
C1792 C1799 1.409 . S
C1793 H1785 0.930 . S
C1793 C1791 1.419 . S
C1793 C1794 1.362 . S
C1794 H1786 0.930 . S
C1794 C1793 1.362 . S
C1794 C1797 1.409 . S
C1795 H1787 0.930 . S
C1795 C1796 1.355 . S
C1795 C1797 1.415 . S
C1796 C1795 1.355 . S
C1796 C1798 1.419 . S
C1797 C1792 1.425 . S
C1797 C1794 1.409 . S
C1797 C1795 1.415 . S
C1798 H1788 0.930 . S
C1798 C1796 1.419 . S
C1798 C1799 1.362 . S
C1799 H1789 0.930 . S
C1799 C1792 1.409 . S
C1799 C1798 1.362 . S
H1800 C1806 0.930 . S
H1801 C1809 0.930 . S
H1802 C1810 0.930 . S
H1803 C1811 0.930 . S
H1804 C1814 0.930 . S
H1805 C1815 0.930 . S
C1806 H1800 0.930 . S
C1806 C1807 1.355 . S
C1806 C1808 1.415 . S
C1807 C1806 1.355 . S
C1807 C1809 1.419 . S
C1808 C1806 1.415 . S
C1808 C1813 1.425 . S
C1808 C1815 1.409 . S
C1809 H1801 0.930 . S
C1809 C1807 1.419 . S
C1809 C1810 1.362 . S
C1810 H1802 0.930 . S
C1810 C1809 1.362 . S
C1810 C1813 1.409 . S
C1811 H1803 0.930 . S
C1811 C1812 1.355 . S
C1811 C1813 1.415 . S
C1812 C1811 1.355 . S
C1812 C1814 1.419 . S
C1813 C1808 1.425 . S
C1813 C1810 1.409 . S
C1813 C1811 1.415 . S
C1814 H1804 0.930 . S
C1814 C1812 1.419 . S
C1814 C1815 1.362 . S
C1815 H1805 0.930 . S
C1815 C1808 1.409 . S
C1815 C1814 1.362 . S
H1816 C1822 0.930 . S
H1817 C1825 0.930 . S
H1818 C1826 0.930 . S
H1819 C1827 0.930 . S
H1820 C1830 0.930 . S
H1821 C1831 0.930 . S
C1822 H1816 0.930 . S
C1822 C1823 1.355 . S
C1822 C1824 1.415 . S
C1823 C1822 1.355 . S
C1823 C1825 1.419 . S
C1824 C1822 1.415 . S
C1824 C1829 1.425 . S
C1824 C1831 1.409 . S
C1825 H1817 0.930 . S
C1825 C1823 1.419 . S
C1825 C1826 1.362 . S
C1826 H1818 0.930 . S
C1826 C1825 1.362 . S
C1826 C1829 1.409 . S
C1827 H1819 0.930 . S
C1827 C1828 1.355 . S
C1827 C1829 1.415 . S
C1828 C1827 1.355 . S
C1828 C1830 1.419 . S
C1829 C1824 1.425 . S
C1829 C1826 1.409 . S
C1829 C1827 1.415 . S
C1830 H1820 0.930 . S
C1830 C1828 1.419 . S
C1830 C1831 1.362 . S
C1831 H1821 0.930 . S
C1831 C1824 1.409 . S
C1831 C1830 1.362 . S
H1832 C1838 0.930 . S
H1833 C1841 0.930 . S
H1834 C1842 0.930 . S
H1835 C1843 0.930 . S
H1836 C1846 0.930 . S
H1837 C1847 0.930 . S
C1838 H1832 0.930 . S
C1838 C1839 1.355 . S
C1838 C1840 1.415 . S
C1839 C1838 1.355 . S
C1839 C1841 1.419 . S
C1840 C1838 1.415 . S
C1840 C1845 1.425 . S
C1840 C1847 1.409 . S
C1841 H1833 0.930 . S
C1841 C1839 1.419 . S
C1841 C1842 1.362 . S
C1842 H1834 0.930 . S
C1842 C1841 1.362 . S
C1842 C1845 1.409 . S
C1843 H1835 0.930 . S
C1843 C1844 1.355 . S
C1843 C1845 1.415 . S
C1844 C1843 1.355 . S
C1844 C1846 1.419 . S
C1845 C1840 1.425 . S
C1845 C1842 1.409 . S
C1845 C1843 1.415 . S
C1846 H1836 0.930 . S
C1846 C1844 1.419 . S
C1846 C1847 1.362 . S
C1847 H1837 0.930 . S
C1847 C1840 1.409 . S
C1847 C1846 1.362 . S
H1848 C1854 0.930 . S
H1849 C1857 0.930 . S
H1850 C1858 0.930 . S
H1851 C1859 0.930 . S
H1852 C1862 0.930 . S
H1853 C1863 0.930 . S
C1854 H1848 0.930 . S
C1854 C1855 1.355 . S
C1854 C1856 1.415 . S
C1855 C1854 1.355 . S
C1855 C1857 1.419 . S
C1856 C1854 1.415 . S
C1856 C1861 1.425 . S
C1856 C1863 1.409 . S
C1857 H1849 0.930 . S
C1857 C1855 1.419 . S
C1857 C1858 1.362 . S
C1858 H1850 0.930 . S
C1858 C1857 1.362 . S
C1858 C1861 1.409 . S
C1859 H1851 0.930 . S
C1859 C1860 1.355 . S
C1859 C1861 1.415 . S
C1860 C1859 1.355 . S
C1860 C1862 1.419 . S
C1861 C1856 1.425 . S
C1861 C1858 1.409 . S
C1861 C1859 1.415 . S
C1862 H1852 0.930 . S
C1862 C1860 1.419 . S
C1862 C1863 1.362 . S
C1863 H1853 0.930 . S
C1863 C1856 1.409 . S
C1863 C1862 1.362 . S
H1864 C1870 0.930 . S
H1865 C1873 0.930 . S
H1866 C1874 0.930 . S
H1867 C1875 0.930 . S
H1868 C1878 0.930 . S
H1869 C1879 0.930 . S
C1870 H1864 0.930 . S
C1870 C1871 1.355 . S
C1870 C1872 1.415 . S
C1871 C1870 1.355 . S
C1871 C1873 1.419 . S
C1872 C1870 1.415 . S
C1872 C1877 1.425 . S
C1872 C1879 1.409 . S
C1873 H1865 0.930 . S
C1873 C1871 1.419 . S
C1873 C1874 1.362 . S
C1874 H1866 0.930 . S
C1874 C1873 1.362 . S
C1874 C1877 1.409 . S
C1875 H1867 0.930 . S
C1875 C1876 1.355 . S
C1875 C1877 1.415 . S
C1876 C1875 1.355 . S
C1876 C1878 1.419 . S
C1877 C1872 1.425 . S
C1877 C1874 1.409 . S
C1877 C1875 1.415 . S
C1878 H1868 0.930 . S
C1878 C1876 1.419 . S
C1878 C1879 1.362 . S
C1879 H1869 0.930 . S
C1879 C1872 1.409 . S
C1879 C1878 1.362 . S
H1880 C1886 0.930 . S
H1881 C1889 0.930 . S
H1882 C1890 0.930 1_655 S
H1883 C1891 0.930 1_655 S
H1884 C1894 0.930 . S
H1885 C1895 0.930 . S
C1886 H1880 0.930 . S
C1886 C1887 1.355 . S
C1886 C1888 1.415 . S
C1887 C1886 1.355 . S
C1887 C1889 1.419 . S
C1888 C1886 1.415 . S
C1888 C1893 1.425 . S
C1888 C1895 1.409 . S
C1889 H1881 0.930 . S
C1889 C1887 1.419 . S
C1889 C1890 1.362 . S
C1890 H1882 0.930 1_455 S
C1890 C1889 1.362 . S
C1890 C1893 1.409 . S
C1891 H1883 0.930 1_455 S
C1891 C1892 1.355 . S
C1891 C1893 1.415 . S
C1892 C1891 1.355 . S
C1892 C1894 1.419 . S
C1893 C1888 1.425 . S
C1893 C1890 1.409 . S
C1893 C1891 1.415 . S
C1894 H1884 0.930 . S
C1894 C1892 1.419 . S
C1894 C1895 1.362 . S
C1895 H1885 0.930 . S
C1895 C1888 1.409 . S
C1895 C1894 1.362 . S
H1896 C1902 0.930 . S
H1897 C1905 0.930 . S
H1898 C1906 0.930 . S
H1899 C1907 0.930 . S
H1900 C1910 0.930 . S
H1901 C1911 0.930 . S
C1902 H1896 0.930 . S
C1902 C1903 1.355 . S
C1902 C1904 1.415 . S
C1903 C1902 1.355 . S
C1903 C1905 1.419 . S
C1904 C1902 1.415 . S
C1904 C1909 1.425 . S
C1904 C1911 1.409 . S
C1905 H1897 0.930 . S
C1905 C1903 1.419 . S
C1905 C1906 1.362 . S
C1906 H1898 0.930 . S
C1906 C1905 1.362 . S
C1906 C1909 1.409 . S
C1907 H1899 0.930 . S
C1907 C1908 1.355 . S
C1907 C1909 1.415 . S
C1908 C1907 1.355 . S
C1908 C1910 1.419 . S
C1909 C1904 1.425 . S
C1909 C1906 1.409 . S
C1909 C1907 1.415 . S
C1910 H1900 0.930 . S
C1910 C1908 1.419 . S
C1910 C1911 1.362 . S
C1911 H1901 0.930 . S
C1911 C1904 1.409 . S
C1911 C1910 1.362 . S
H1912 C1918 0.930 . S
H1913 C1921 0.930 . S
H1914 C1922 0.930 . S
H1915 C1923 0.930 . S
H1916 C1926 0.930 . S
H1917 C1927 0.930 . S
C1918 H1912 0.930 . S
C1918 C1919 1.355 . S
C1918 C1920 1.415 . S
C1919 C1918 1.355 . S
C1919 C1921 1.419 . S
C1920 C1918 1.415 . S
C1920 C1925 1.425 . S
C1920 C1927 1.409 . S
C1921 H1913 0.930 . S
C1921 C1919 1.419 . S
C1921 C1922 1.362 . S
C1922 H1914 0.930 . S
C1922 C1921 1.362 . S
C1922 C1925 1.409 . S
C1923 H1915 0.930 . S
C1923 C1924 1.355 . S
C1923 C1925 1.415 . S
C1924 C1923 1.355 . S
C1924 C1926 1.419 . S
C1925 C1920 1.425 . S
C1925 C1922 1.409 . S
C1925 C1923 1.415 . S
C1926 H1916 0.930 . S
C1926 C1924 1.419 . S
C1926 C1927 1.362 . S
C1927 H1917 0.930 . S
C1927 C1920 1.409 . S
C1927 C1926 1.362 . S
H1928 C1934 0.930 . S
H1929 C1937 0.930 . S
H1930 C1938 0.930 . S
H1931 C1939 0.930 . S
H1932 C1942 0.930 . S
H1933 C1943 0.930 . S
C1934 H1928 0.930 . S
C1934 C1935 1.355 . S
C1934 C1936 1.415 . S
C1935 C1934 1.355 . S
C1935 C1937 1.419 . S
C1936 C1934 1.415 . S
C1936 C1941 1.425 . S
C1936 C1943 1.409 . S
C1937 H1929 0.930 . S
C1937 C1935 1.419 . S
C1937 C1938 1.362 . S
C1938 H1930 0.930 . S
C1938 C1937 1.362 . S
C1938 C1941 1.409 . S
C1939 H1931 0.930 . S
C1939 C1940 1.355 . S
C1939 C1941 1.415 . S
C1940 C1939 1.355 . S
C1940 C1942 1.419 . S
C1941 C1936 1.425 . S
C1941 C1938 1.409 . S
C1941 C1939 1.415 . S
C1942 H1932 0.930 . S
C1942 C1940 1.419 . S
C1942 C1943 1.362 . S
C1943 H1933 0.930 . S
C1943 C1936 1.409 . S
C1943 C1942 1.362 . S
H1944 C1950 0.930 . S
H1945 C1953 0.930 . S
H1946 C1954 0.930 1_455 S
H1947 C1955 0.930 1_455 S
H1948 C1958 0.930 . S
H1949 C1959 0.930 . S
C1950 H1944 0.930 . S
C1950 C1951 1.355 . S
C1950 C1952 1.415 . S
C1951 C1950 1.355 . S
C1951 C1953 1.419 . S
C1952 C1950 1.415 . S
C1952 C1957 1.425 . S
C1952 C1959 1.409 . S
C1953 H1945 0.930 . S
C1953 C1951 1.419 . S
C1953 C1954 1.362 . S
C1954 H1946 0.930 1_655 S
C1954 C1953 1.362 . S
C1954 C1957 1.409 . S
C1955 H1947 0.930 1_655 S
C1955 C1956 1.355 . S
C1955 C1957 1.415 . S
C1956 C1955 1.355 . S
C1956 C1958 1.419 . S
C1957 C1952 1.425 . S
C1957 C1954 1.409 . S
C1957 C1955 1.415 . S
C1958 H1948 0.930 . S
C1958 C1956 1.419 . S
C1958 C1959 1.362 . S
C1959 H1949 0.930 . S
C1959 C1952 1.409 . S
C1959 C1958 1.362 . S
H1960 C1966 0.930 . S
H1961 C1969 0.930 . S
H1962 C1970 0.930 . S
H1963 C1971 0.930 . S
H1964 C1974 0.930 . S
H1965 C1975 0.930 . S
C1966 H1960 0.930 . S
C1966 C1967 1.355 . S
C1966 C1968 1.415 . S
C1967 C1966 1.355 . S
C1967 C1969 1.419 . S
C1968 C1966 1.415 . S
C1968 C1973 1.425 . S
C1968 C1975 1.409 . S
C1969 H1961 0.930 . S
C1969 C1967 1.419 . S
C1969 C1970 1.362 . S
C1970 H1962 0.930 . S
C1970 C1969 1.362 . S
C1970 C1973 1.409 . S
C1971 H1963 0.930 . S
C1971 C1972 1.355 . S
C1971 C1973 1.415 . S
C1972 C1971 1.355 . S
C1972 C1974 1.419 . S
C1973 C1968 1.425 . S
C1973 C1970 1.409 . S
C1973 C1971 1.415 . S
C1974 H1964 0.930 . S
C1974 C1972 1.419 . S
C1974 C1975 1.362 . S
C1975 H1965 0.930 . S
C1975 C1968 1.409 . S
C1975 C1974 1.362 . S
H1976 C1982 0.930 . S
H1977 C1985 0.930 . S
H1978 C1986 0.930 . S
H1979 C1987 0.930 . S
H1980 C1990 0.930 . S
H1981 C1991 0.930 . S
C1982 H1976 0.930 . S
C1982 C1983 1.355 . S
C1982 C1984 1.415 . S
C1983 C1982 1.355 . S
C1983 C1985 1.419 . S
C1984 C1982 1.415 . S
C1984 C1989 1.425 . S
C1984 C1991 1.409 . S
C1985 H1977 0.930 . S
C1985 C1983 1.419 . S
C1985 C1986 1.362 . S
C1986 H1978 0.930 . S
C1986 C1985 1.362 . S
C1986 C1989 1.409 . S
C1987 H1979 0.930 . S
C1987 C1988 1.355 . S
C1987 C1989 1.415 . S
C1988 C1987 1.355 . S
C1988 C1990 1.419 . S
C1989 C1984 1.425 . S
C1989 C1986 1.409 . S
C1989 C1987 1.415 . S
C1990 H1980 0.930 . S
C1990 C1988 1.419 . S
C1990 C1991 1.362 . S
C1991 H1981 0.930 . S
C1991 C1984 1.409 . S
C1991 C1990 1.362 . S
H1992 C1998 0.930 . S
H1993 C2001 0.930 . S
H1994 C2002 0.930 . S
H1995 C2003 0.930 . S
H1996 C2006 0.930 . S
H1997 C2007 0.930 . S
C1998 H1992 0.930 . S
C1998 C1999 1.355 . S
C1998 C2000 1.415 . S
C1999 C1998 1.355 . S
C1999 C2001 1.419 . S
C2000 C1998 1.415 . S
C2000 C2005 1.425 . S
C2000 C2007 1.409 . S
C2001 H1993 0.930 . S
C2001 C1999 1.419 . S
C2001 C2002 1.362 . S
C2002 H1994 0.930 . S
C2002 C2001 1.362 . S
C2002 C2005 1.409 . S
C2003 H1995 0.930 . S
C2003 C2004 1.355 . S
C2003 C2005 1.415 . S
C2004 C2003 1.355 . S
C2004 C2006 1.419 . S
C2005 C2000 1.425 . S
C2005 C2002 1.409 . S
C2005 C2003 1.415 . S
C2006 H1996 0.930 . S
C2006 C2004 1.419 . S
C2006 C2007 1.362 . S
C2007 H1997 0.930 . S
C2007 C2000 1.409 . S
C2007 C2006 1.362 . S
H2008 C2014 0.930 . S
H2009 C2017 0.930 . S
H2010 C2018 0.930 . S
H2011 C2019 0.930 . S
H2012 C2022 0.930 1_455 S
H2013 C2023 0.930 . S
C2014 H2008 0.930 . S
C2014 C2015 1.355 . S
C2014 C2016 1.415 . S
C2015 C2014 1.355 . S
C2015 C2017 1.419 . S
C2016 C2014 1.415 . S
C2016 C2021 1.425 . S
C2016 C2023 1.409 . S
C2017 H2009 0.930 . S
C2017 C2015 1.419 . S
C2017 C2018 1.362 . S
C2018 H2010 0.930 . S
C2018 C2017 1.362 . S
C2018 C2021 1.409 . S
C2019 H2011 0.930 . S
C2019 C2020 1.355 . S
C2019 C2021 1.415 . S
C2020 C2019 1.355 . S
C2020 C2022 1.419 . S
C2021 C2016 1.425 . S
C2021 C2018 1.409 . S
C2021 C2019 1.415 . S
C2022 H2012 0.930 1_655 S
C2022 C2020 1.419 . S
C2022 C2023 1.362 . S
C2023 H2013 0.930 . S
C2023 C2016 1.409 . S
C2023 C2022 1.362 . S
H2024 C2030 0.930 . S
H2025 C2033 0.930 . S
H2026 C2034 0.930 . S
H2027 C2035 0.930 . S
H2028 C2038 0.930 . S
H2029 C2039 0.930 . S
C2030 H2024 0.930 . S
C2030 C2031 1.355 . S
C2030 C2032 1.415 . S
C2031 C2030 1.355 . S
C2031 C2033 1.419 . S
C2032 C2030 1.415 . S
C2032 C2037 1.425 . S
C2032 C2039 1.409 . S
C2033 H2025 0.930 . S
C2033 C2031 1.419 . S
C2033 C2034 1.362 . S
C2034 H2026 0.930 . S
C2034 C2033 1.362 . S
C2034 C2037 1.409 . S
C2035 H2027 0.930 . S
C2035 C2036 1.355 . S
C2035 C2037 1.415 . S
C2036 C2035 1.355 . S
C2036 C2038 1.419 . S
C2037 C2032 1.425 . S
C2037 C2034 1.409 . S
C2037 C2035 1.415 . S
C2038 H2028 0.930 . S
C2038 C2036 1.419 . S
C2038 C2039 1.362 . S
C2039 H2029 0.930 . S
C2039 C2032 1.409 . S
C2039 C2038 1.362 . S
H2040 C2046 0.930 . S
H2041 C2049 0.930 . S
H2042 C2050 0.930 . S
H2043 C2051 0.930 . S
H2044 C2054 0.930 . S
H2045 C2055 0.930 . S
C2046 H2040 0.930 . S
C2046 C2047 1.355 . S
C2046 C2048 1.415 . S
C2047 C2046 1.355 . S
C2047 C2049 1.419 . S
C2048 C2046 1.415 . S
C2048 C2053 1.425 . S
C2048 C2055 1.409 . S
C2049 H2041 0.930 . S
C2049 C2047 1.419 . S
C2049 C2050 1.362 . S
C2050 H2042 0.930 . S
C2050 C2049 1.362 . S
C2050 C2053 1.409 . S
C2051 H2043 0.930 . S
C2051 C2052 1.355 . S
C2051 C2053 1.415 . S
C2052 C2051 1.355 . S
C2052 C2054 1.419 . S
C2053 C2048 1.425 . S
C2053 C2050 1.409 . S
C2053 C2051 1.415 . S
C2054 H2044 0.930 . S
C2054 C2052 1.419 . S
C2054 C2055 1.362 . S
C2055 H2045 0.930 . S
C2055 C2048 1.409 . S
C2055 C2054 1.362 . S
H2056 C2062 0.930 . S
H2057 C2065 0.930 . S
H2058 C2066 0.930 . S
H2059 C2067 0.930 . S
H2060 C2070 0.930 . S
H2061 C2071 0.930 . S
C2062 H2056 0.930 . S
C2062 C2063 1.355 . S
C2062 C2064 1.415 . S
C2063 C2062 1.355 . S
C2063 C2065 1.419 . S
C2064 C2062 1.415 . S
C2064 C2069 1.425 . S
C2064 C2071 1.409 . S
C2065 H2057 0.930 . S
C2065 C2063 1.419 . S
C2065 C2066 1.362 . S
C2066 H2058 0.930 . S
C2066 C2065 1.362 . S
C2066 C2069 1.409 . S
C2067 H2059 0.930 . S
C2067 C2068 1.355 . S
C2067 C2069 1.415 . S
C2068 C2067 1.355 . S
C2068 C2070 1.419 . S
C2069 C2064 1.425 . S
C2069 C2066 1.409 . S
C2069 C2067 1.415 . S
C2070 H2060 0.930 . S
C2070 C2068 1.419 . S
C2070 C2071 1.362 . S
C2071 H2061 0.930 . S
C2071 C2064 1.409 . S
C2071 C2070 1.362 . S
H2072 C2078 0.930 . S
H2073 C2081 0.930 . S
H2074 C2082 0.930 . S
H2075 C2083 0.930 . S
H2076 C2086 0.930 . S
H2077 C2087 0.930 . S
C2078 H2072 0.930 . S
C2078 C2079 1.355 . S
C2078 C2080 1.415 . S
C2079 C2078 1.355 . S
C2079 C2081 1.419 . S
C2080 C2078 1.415 . S
C2080 C2085 1.425 . S
C2080 C2087 1.409 . S
C2081 H2073 0.930 . S
C2081 C2079 1.419 . S
C2081 C2082 1.362 . S
C2082 H2074 0.930 . S
C2082 C2081 1.362 . S
C2082 C2085 1.409 . S
C2083 H2075 0.930 . S
C2083 C2084 1.355 . S
C2083 C2085 1.415 . S
C2084 C2083 1.355 . S
C2084 C2086 1.419 . S
C2085 C2080 1.425 . S
C2085 C2082 1.409 . S
C2085 C2083 1.415 . S
C2086 H2076 0.930 . S
C2086 C2084 1.419 . S
C2086 C2087 1.362 . S
C2087 H2077 0.930 . S
C2087 C2080 1.409 . S
C2087 C2086 1.362 . S
H2088 C2094 0.930 . S
H2089 C2097 0.930 . S
H2090 C2098 0.930 . S
H2091 C2099 0.930 . S
H2092 C2102 0.930 . S
H2093 C2103 0.930 . S
C2094 H2088 0.930 . S
C2094 C2095 1.356 . S
C2094 C2096 1.415 . S
C2095 C2094 1.356 . S
C2095 C2097 1.417 1_556 S
C2096 C2094 1.415 . S
C2096 C2101 1.425 1_556 S
C2096 C2103 1.409 . S
C2097 H2089 0.930 . S
C2097 C2095 1.417 1_554 S
C2097 C2098 1.362 . S
C2098 H2090 0.930 . S
C2098 C2097 1.362 . S
C2098 C2101 1.409 . S
C2099 H2091 0.930 . S
C2099 C2100 1.355 1_554 S
C2099 C2101 1.415 . S
C2100 C2099 1.355 1_556 S
C2100 C2102 1.419 . S
C2101 C2096 1.425 1_554 S
C2101 C2098 1.409 . S
C2101 C2099 1.415 . S
C2102 H2092 0.930 . S
C2102 C2100 1.419 . S
C2102 C2103 1.362 . S
C2103 H2093 0.930 . S
C2103 C2096 1.409 . S
C2103 C2102 1.362 . S
H2104 C2110 0.930 . S
H2105 C2113 0.930 . S
H2106 C2114 0.930 . S
H2107 C2115 0.930 . S
H2108 C2118 0.930 . S
H2109 C2119 0.930 . S
C2110 H2104 0.930 . S
C2110 C2111 1.355 . S
C2110 C2112 1.415 . S
C2111 C2110 1.355 . S
C2111 C2113 1.419 . S
C2112 C2110 1.415 . S
C2112 C2117 1.425 . S
C2112 C2119 1.409 . S
C2113 H2105 0.930 . S
C2113 C2111 1.419 . S
C2113 C2114 1.362 . S
C2114 H2106 0.930 . S
C2114 C2113 1.362 . S
C2114 C2117 1.409 . S
C2115 H2107 0.930 . S
C2115 C2116 1.355 . S
C2115 C2117 1.415 . S
C2116 C2115 1.355 . S
C2116 C2118 1.419 . S
C2117 C2112 1.425 . S
C2117 C2114 1.409 . S
C2117 C2115 1.415 . S
C2118 H2108 0.930 . S
C2118 C2116 1.419 . S
C2118 C2119 1.362 . S
C2119 H2109 0.930 . S
C2119 C2112 1.409 . S
C2119 C2118 1.362 . S
H2120 C2126 0.950 . S
H2121 C2129 0.930 . S
H2122 C2130 0.930 . S
H2123 C2131 0.930 . S
H2124 C2134 0.930 . S
H2125 C2135 0.930 . S
C2126 H2120 0.950 . S
C2126 C2127 1.335 1_556 S
C2126 C2128 1.415 . S
C2127 C2126 1.335 1_554 S
C2127 C2129 1.419 . S
C2128 C2126 1.415 . S
C2128 C2133 1.419 1_556 S
C2128 C2135 1.415 . S
C2129 H2121 0.930 . S
C2129 C2127 1.419 . S
C2129 C2130 1.362 . S
C2130 H2122 0.930 . S
C2130 C2129 1.362 . S
C2130 C2133 1.409 . S
C2131 H2123 0.930 . S
C2131 C2132 1.355 . S
C2131 C2133 1.415 . S
C2132 C2131 1.355 . S
C2132 C2134 1.419 1_554 S
C2133 C2128 1.419 1_554 S
C2133 C2130 1.409 . S
C2133 C2131 1.415 . S
C2134 H2124 0.930 . S
C2134 C2132 1.419 1_556 S
C2134 C2135 1.362 . S
C2135 H2125 0.930 . S
C2135 C2128 1.415 . S
C2135 C2134 1.362 . S
H2136 C2142 0.930 . S
H2137 C2145 0.930 . S
H2138 C2146 0.930 . S
H2139 C2147 0.930 . S
H2140 C2150 0.930 . S
H2141 C2151 0.930 . S
C2142 H2136 0.930 . S
C2142 C2143 1.355 . S
C2142 C2144 1.415 . S
C2143 C2142 1.355 . S
C2143 C2145 1.419 . S
C2144 C2142 1.415 . S
C2144 C2149 1.425 . S
C2144 C2151 1.409 . S
C2145 H2137 0.930 . S
C2145 C2143 1.419 . S
C2145 C2146 1.362 . S
C2146 H2138 0.930 . S
C2146 C2145 1.362 . S
C2146 C2149 1.409 . S
C2147 H2139 0.930 . S
C2147 C2148 1.355 . S
C2147 C2149 1.415 . S
C2148 C2147 1.355 . S
C2148 C2150 1.419 . S
C2149 C2144 1.425 . S
C2149 C2146 1.409 . S
C2149 C2147 1.415 . S
C2150 H2140 0.930 . S
C2150 C2148 1.419 . S
C2150 C2151 1.362 . S
C2151 H2141 0.930 . S
C2151 C2144 1.409 . S
C2151 C2150 1.362 . S
H2152 C2158 0.930 . S
H2153 C2161 0.930 . S
H2154 C2162 0.930 . S
H2155 C2163 0.930 . S
H2156 C2166 0.930 . S
H2157 C2167 0.930 . S
C2158 H2152 0.930 . S
C2158 C2159 1.355 . S
C2158 C2160 1.415 . S
C2159 C2158 1.355 . S
C2159 C2161 1.419 . S
C2160 C2158 1.415 . S
C2160 C2165 1.425 . S
C2160 C2167 1.409 . S
C2161 H2153 0.930 . S
C2161 C2159 1.419 . S
C2161 C2162 1.362 . S
C2162 H2154 0.930 . S
C2162 C2161 1.362 . S
C2162 C2165 1.409 . S
C2163 H2155 0.930 . S
C2163 C2164 1.355 . S
C2163 C2165 1.415 . S
C2164 C2163 1.355 . S
C2164 C2166 1.419 . S
C2165 C2160 1.425 . S
C2165 C2162 1.409 . S
C2165 C2163 1.415 . S
C2166 H2156 0.930 . S
C2166 C2164 1.419 . S
C2166 C2167 1.362 . S
C2167 H2157 0.930 . S
C2167 C2160 1.409 . S
C2167 C2166 1.362 . S
C639 C101 1.542 . S
C644 C330 1.481 . S
C655 C57 1.644 . S
C660 C341 1.664 . S
C671 C70 1.054 . S
C676 C370 1.049 . S
C692 C373 1.464 . S
C687 C82 1.466 . S
C703 C23 1.628 . S
C708 C411 1.529 . S
C724 C414 1.031 . S
C719 C29 1.023 . S
C740 C441 1.470 . S
C735 C49 1.473 . S
C751 C10 1.697 . S
C756 C470 1.628 . S
C772 C321 1.589 . S
C767 C218 1.590 . S
C783 C226 1.054 . S
C788 C333 1.028 . S
C804 C361 1.575 . S
C799 C251 1.544 . S
C820 C390 1.029 . S
C815 C159 1.097 . S
C831 C211 1.057 . S
C836 C394 1.084 1_655 S
C852 C420 1.626 . S
C847 C225 1.639 . S
C868 C433 0.824 . S
C863 C252 0.801 . S
C884 C461 1.606 . S
C879 C166 1.591 . S
C900 C313 1.555 . S
C895 C147 1.566 . S
C911 C263 1.697 . S
C916 C480 1.685 . S
C932 C511 1.543 . S
C927 C309 1.641 . S
C948 C530 0.843 . S
C943 C291 0.902 . S
C959 C108 1.441 . S
C964 C453 1.416 . S
C975 C121 1.528 . S
C980 C353 1.559 . S
C991 C302 1.550 . S
C996 C541 1.549 . S
C1012 C570 0.914 . S
C1007 C276 0.956 . S
C1028 C331 1.713 . S
C1023 C55 1.731 . S
C1044 C560 1.782 . S
C1039 C96 1.776 . S
C1055 C88 1.270 . S
C1060 C371 1.270 . S
C1071 C75 1.602 . S
C1076 C534 1.574 . S
C1092 C410 1.747 . S
C1087 C4 1.784 . S
C1103 C44 1.193 . S
C1108 C493 1.185 . S
C1124 C440 1.645 . S
C1119 C31 1.671 . S
C1140 C591 1.764 . S
C1135 C18 1.810 . S
C1156 C320 1.695 . S
C1151 C133 1.713 . S
C1172 C554 1.073 . S
C1167 C296 1.125 . S
C1183 C107 1.702 . S
C1188 C360 1.681 . S
C1199 C264 1.410 . S
C1204 C551 1.401 . S
C1215 C140 1.220 . S
C1220 C393 1.242 . S
C1236 C501 1.702 . S
C1231 C289 1.736 . S
C1247 C114 1.010 . S
C1252 C434 1.013 . S
C1263 C265 1.774 . S
C1268 C580 1.742 . S
C1279 C179 1.632 . S
C1284 C314 1.596 . S
C1295 C161 1.836 . S
C1300 C481 1.802 . S
C1311 C244 1.753 . S
C1316 C430 1.680 . S
C1327 C224 1.233 . S
C1332 C531 1.182 . S
C1348 C574 1.484 . S
C1343 C257 1.511 . S
C1359 C199 1.638 . S
C1364 C354 1.606 . S
C1380 C380 1.722 . S
C1375 C237 1.730 . S
C1396 C351 1.169 . S
C1391 C185 1.183 . S
C1407 C69 1.538 . S
C1412 C610 1.461 . S
C1428 C561 1.666 . S
C1423 C83 1.617 . S
C1439 C94 1.045 . S
C1444 C630 1.038 . S
C1455 C56 1.465 . S
C1460 C533 1.440 . S
C1471 C42 1.632 . S
C1476 C491 1.535 . S
C1492 C494 1.089 . S
C1487 C3 1.066 . S
C1508 C521 1.484 . S
C1503 C16 1.440 1_655 S
C1524 C590 1.547 . S
C1519 C36 1.662 . S
C1540 C601 1.595 . S
C1535 C238 1.555 . S
C1551 C174 0.999 . S
C1556 C553 0.955 . S
C1572 C621 1.560 . S
C1567 C186 1.569 . S
C1588 C550 1.072 . S
C1583 C198 1.090 . S
C1604 C474 1.081 . S
C1599 C239 1.092 . S
C1615 C173 1.608 . S
C1620 C500 1.607 . S
C1636 C513 0.876 . S
C1631 C187 0.877 . S
C1647 C205 1.586 . S
C1652 C581 1.605 . S
C1668 C593 1.512 . S
C1663 C290 1.552 . S
C1679 C122 1.732 . S
C1684 C400 1.713 . S
C1700 C431 1.566 . S
C1695 C134 1.671 . S
C1716 C450 0.882 . S
C1711 C148 0.930 . S
C1732 C573 1.458 . S
C1727 C283 1.458 . S
C1743 C270 1.525 . S
C1748 C613 1.528 . S
C1764 C381 1.539 . S
C1759 C135 1.533 . S
C1780 C350 0.880 . S
C1775 C109 0.953 . S
C1791 C81 1.738 . S
C1796 C611 1.676 . S
C1812 C340 1.783 . S
C1807 C68 1.773 . S
C1823 C62 1.261 . S
C1828 C631 1.194 . S
C1839 C95 1.586 . S
C1844 C374 1.578 . S
C1855 C30 1.772 . S
C1860 C490 1.694 . S
C1876 C413 1.176 . S
C1871 C17 1.185 . S
C1887 C5 1.658 . S
C1892 C520 1.667 . S
C1903 C43 1.786 . S
C1908 C471 1.703 . S
C1924 C600 1.711 . S
C1919 C304 1.705 . S
C1935 C153 1.107 . S
C1940 C334 1.066 . S
C1956 C620 1.696 1_655 S
C1951 C278 1.702 . S
C1967 C127 1.390 . S
C1972 C391 1.384 . S
C1983 C303 1.207 . S
C1988 C473 1.245 . S
C2004 C421 1.684 . S
C1999 C146 1.733 . S
C2015 C277 1.015 . S
C2020 C514 0.966 . S
C2036 C460 1.761 . S
C2031 C120 1.778 . S
C2052 C594 1.607 . S
C2047 C231 1.636 . S
C2068 C401 1.791 . S
C2063 C200 1.841 . S
C2079 C212 1.760 . S
C2084 C510 1.670 . S
C2100 C451 1.197 1_556 S
C2095 C172 1.204 . S
C2111 C192 1.476 . S
C2116 C454 1.464 . S
C2127 C160 1.634 . S
C2132 C614 1.642 . S
C2148 C540 1.728 . S
C2143 C213 1.729 . S
C2164 C571 1.102 . S
C2159 C250 1.153 . S
