# Generated by pormake.
# Topology ocu, (6,8)-cn, num edge types: 1
# Building blocks:
#     Node 0, Type 0, BuildingBlock: HISSIN_clean_sbu_0, # of connection points: 6
#     Node 1, Type 0, BuildingBlock: HISSIN_clean_sbu_0, # of connection points: 6
#     Node 2, Type 0, BuildingBlock: HISSIN_clean_sbu_0, # of connection points: 6
#     Node 3, Type 0, BuildingBlock: HISSIN_clean_sbu_0, # of connection points: 6
#     Node 4, Type 0, BuildingBlock: HISSIN_clean_sbu_0, # of connection points: 6
#     Node 5, Type 0, BuildingBlock: HISSIN_clean_sbu_0, # of connection points: 6
#     Node 6, Type 0, BuildingBlock: HISSIN_clean_sbu_0, # of connection points: 6
#     Node 7, Type 0, BuildingBlock: HISSIN_clean_sbu_0, # of connection points: 6
#     Node 8, Type 1, BuildingBlock: TAGTUT_clean_sbu_1, # of connection points: 8
#     Node 9, Type 1, BuildingBlock: TAGTUT_clean_sbu_1, # of connection points: 8
#     Node 10, Type 1, BuildingBlock: TAGTUT_clean_sbu_1, # of connection points: 8
#     Node 11, Type 1, BuildingBlock: TAGTUT_clean_sbu_1, # of connection points: 8
#     Node 12, Type 1, BuildingBlock: TAGTUT_clean_sbu_1, # of connection points: 8
#     Node 13, Type 1, BuildingBlock: TAGTUT_clean_sbu_1, # of connection points: 8
#     Edge 14, Type (0, 1), BuildingBlock: CIFDUS_clean_linker_0, # of connection points: 2
#     Edge 15, Type (0, 1), BuildingBlock: CIFDUS_clean_linker_0, # of connection points: 2
#     Edge 16, Type (0, 1), BuildingBlock: CIFDUS_clean_linker_0, # of connection points: 2
#     Edge 17, Type (0, 1), BuildingBlock: CIFDUS_clean_linker_0, # of connection points: 2
#     Edge 18, Type (0, 1), BuildingBlock: CIFDUS_clean_linker_0, # of connection points: 2
#     Edge 19, Type (0, 1), BuildingBlock: CIFDUS_clean_linker_0, # of connection points: 2
#     Edge 20, Type (0, 1), BuildingBlock: CIFDUS_clean_linker_0, # of connection points: 2
#     Edge 21, Type (0, 1), BuildingBlock: CIFDUS_clean_linker_0, # of connection points: 2
#     Edge 22, Type (0, 1), BuildingBlock: CIFDUS_clean_linker_0, # of connection points: 2
#     Edge 23, Type (0, 1), BuildingBlock: CIFDUS_clean_linker_0, # of connection points: 2
#     Edge 24, Type (0, 1), BuildingBlock: CIFDUS_clean_linker_0, # of connection points: 2
#     Edge 25, Type (0, 1), BuildingBlock: CIFDUS_clean_linker_0, # of connection points: 2
#     Edge 26, Type (0, 1), BuildingBlock: CIFDUS_clean_linker_0, # of connection points: 2
#     Edge 27, Type (0, 1), BuildingBlock: CIFDUS_clean_linker_0, # of connection points: 2
#     Edge 28, Type (0, 1), BuildingBlock: CIFDUS_clean_linker_0, # of connection points: 2
#     Edge 29, Type (0, 1), BuildingBlock: CIFDUS_clean_linker_0, # of connection points: 2
#     Edge 30, Type (0, 1), BuildingBlock: CIFDUS_clean_linker_0, # of connection points: 2
#     Edge 31, Type (0, 1), BuildingBlock: CIFDUS_clean_linker_0, # of connection points: 2
#     Edge 32, Type (0, 1), BuildingBlock: CIFDUS_clean_linker_0, # of connection points: 2
#     Edge 33, Type (0, 1), BuildingBlock: CIFDUS_clean_linker_0, # of connection points: 2
#     Edge 34, Type (0, 1), BuildingBlock: CIFDUS_clean_linker_0, # of connection points: 2
#     Edge 35, Type (0, 1), BuildingBlock: CIFDUS_clean_linker_0, # of connection points: 2
#     Edge 36, Type (0, 1), BuildingBlock: CIFDUS_clean_linker_0, # of connection points: 2
#     Edge 37, Type (0, 1), BuildingBlock: CIFDUS_clean_linker_0, # of connection points: 2
#     Edge 38, Type (0, 1), BuildingBlock: CIFDUS_clean_linker_0, # of connection points: 2
#     Edge 39, Type (0, 1), BuildingBlock: CIFDUS_clean_linker_0, # of connection points: 2
#     Edge 40, Type (0, 1), BuildingBlock: CIFDUS_clean_linker_0, # of connection points: 2
#     Edge 41, Type (0, 1), BuildingBlock: CIFDUS_clean_linker_0, # of connection points: 2
#     Edge 42, Type (0, 1), BuildingBlock: CIFDUS_clean_linker_0, # of connection points: 2
#     Edge 43, Type (0, 1), BuildingBlock: CIFDUS_clean_linker_0, # of connection points: 2
#     Edge 44, Type (0, 1), BuildingBlock: CIFDUS_clean_linker_0, # of connection points: 2
#     Edge 45, Type (0, 1), BuildingBlock: CIFDUS_clean_linker_0, # of connection points: 2
#     Edge 46, Type (0, 1), BuildingBlock: CIFDUS_clean_linker_0, # of connection points: 2
#     Edge 47, Type (0, 1), BuildingBlock: CIFDUS_clean_linker_0, # of connection points: 2
#     Edge 48, Type (0, 1), BuildingBlock: CIFDUS_clean_linker_0, # of connection points: 2
#     Edge 49, Type (0, 1), BuildingBlock: CIFDUS_clean_linker_0, # of connection points: 2
#     Edge 50, Type (0, 1), BuildingBlock: CIFDUS_clean_linker_0, # of connection points: 2
#     Edge 51, Type (0, 1), BuildingBlock: CIFDUS_clean_linker_0, # of connection points: 2
#     Edge 52, Type (0, 1), BuildingBlock: CIFDUS_clean_linker_0, # of connection points: 2
#     Edge 53, Type (0, 1), BuildingBlock: CIFDUS_clean_linker_0, # of connection points: 2
#     Edge 54, Type (0, 1), BuildingBlock: CIFDUS_clean_linker_0, # of connection points: 2
#     Edge 55, Type (0, 1), BuildingBlock: CIFDUS_clean_linker_0, # of connection points: 2
#     Edge 56, Type (0, 1), BuildingBlock: CIFDUS_clean_linker_0, # of connection points: 2
#     Edge 57, Type (0, 1), BuildingBlock: CIFDUS_clean_linker_0, # of connection points: 2
#     Edge 58, Type (0, 1), BuildingBlock: CIFDUS_clean_linker_0, # of connection points: 2
#     Edge 59, Type (0, 1), BuildingBlock: CIFDUS_clean_linker_0, # of connection points: 2
#     Edge 60, Type (0, 1), BuildingBlock: CIFDUS_clean_linker_0, # of connection points: 2
#     Edge 61, Type (0, 1), BuildingBlock: CIFDUS_clean_linker_0, # of connection points: 2
# Relax obj value: 0.116
# Max RMSD: 0.213
# Mean RMSD: 0.126
data_MOF--net-ocu--node1-HISSIN_clean_sbu_0--node2-TAGTUT_clean_sbu_1--edge1-CIFDUS_clean_linker_0
_symmetry_space_group_name_H-M    P1
_symmetry_Int_Tables_number       1
_symmetry_cell_setting            triclinic
loop_
_symmetry_equiv_pos_as_xyz
'x, y, z'
_cell_length_a     37.097507
_cell_length_b     36.394849
_cell_length_c     37.279683
_cell_angle_alpha  102.84445
_cell_angle_beta   79.914225
_cell_angle_gamma 115.30613
loop_
_atom_site_label
_atom_site_type_symbol
_atom_site_fract_x
_atom_site_fract_y
_atom_site_fract_z
_atom_type_partial_charge
Eu0 Eu 0.32213 0.26927 0.2891 0.0
Eu1 Eu 0.24318 0.23139 0.23996 0.0
C2 C 0.23923 0.19041 0.31021 0.0
C3 C 0.40263 0.27172 0.34244 0.0
C4 C 0.40374 0.23404 0.32392 0.0
C5 C 0.43742 0.26971 0.39121 0.0
C6 C 0.42192 0.21461 0.33869 0.0
C7 C 0.41955 0.28926 0.37624 0.0
C8 C 0.43908 0.23213 0.37261 0.0
C9 C 0.3838 0.29286 0.32709 0.0
O10 O 0.23002 0.27119 0.29178 0.0
O11 O 0.2931 0.31524 0.30775 0.0
C12 C 0.2542 0.30539 0.31067 0.0
O13 O 0.34481 0.29308 0.23444 0.0
O14 O 0.18053 0.21833 0.23512 0.0
O15 O 0.21928 0.21202 0.18602 0.0
O16 O 0.28613 0.29273 0.22381 0.0
C17 C 0.3248 0.30348 0.21567 0.0
O18 O 0.31868 0.20754 0.25809 0.0
O19 O 0.2845 0.2002 0.2095 0.0
O20 O 0.22504 0.18414 0.27819 0.0
O21 O 0.38628 0.28875 0.29121 0.0
O22 O 0.34842 0.28998 0.34214 0.0
O23 O 0.27204 0.22261 0.32016 0.0
C24 C 0.17273 0.24037 0.18242 0.0
C25 C 0.19856 0.26479 0.15637 0.0
C26 C 0.12344 0.26713 0.17849 0.0
C27 C 0.18718 0.29026 0.1419 0.0
C28 C 0.13491 0.24163 0.19306 0.0
C29 C 0.14959 0.29216 0.15293 0.0
C30 C 0.18528 0.21451 0.19921 0.0
C31 C 0.30987 0.19212 0.22383 0.0
H32 H 0.3906 0.21959 0.29796 0.0
H33 H 0.4494 0.28387 0.41773 0.0
H34 H 0.42284 0.18603 0.32323 0.0
H35 H 0.41877 0.3181 0.39122 0.0
H36 H 0.22779 0.26447 0.1472 0.0
H37 H 0.0944 0.26786 0.1879 0.0
H38 H 0.20792 0.30835 0.12177 0.0
H39 H 0.1143 0.22318 0.21303 0.0
Eu40 Eu 0.81316 0.22362 0.24393 0.0
Eu41 Eu 0.75014 0.27221 0.27037 0.0
C42 C 0.81339 0.28211 0.32451 0.0
C43 C 0.8783 0.16512 0.24479 0.0
C44 C 0.90101 0.18687 0.27513 0.0
C45 C 0.88706 0.10397 0.25022 0.0
C46 C 0.91649 0.16728 0.29284 0.0
C47 C 0.87189 0.12364 0.23234 0.0
C48 C 0.90933 0.12544 0.28086 0.0
C49 C 0.86066 0.18467 0.22601 0.0
O50 O 0.80865 0.31838 0.24847 0.0
O51 O 0.83527 0.27491 0.21087 0.0
C52 C 0.83361 0.31116 0.22103 0.0
O53 O 0.76393 0.19473 0.20548 0.0
O54 O 0.73556 0.32512 0.29489 0.0
O55 O 0.69015 0.26893 0.26902 0.0
O56 O 0.75127 0.25165 0.20915 0.0
C57 C 0.74941 0.21548 0.19201 0.0
O58 O 0.77141 0.19392 0.28975 0.0
O59 O 0.7177 0.20905 0.28748 0.0
O60 O 0.7791 0.28337 0.32195 0.0
O61 O 0.82199 0.16654 0.2241 0.0
O62 O 0.87343 0.2248 0.23311 0.0
O63 O 0.83307 0.26656 0.29707 0.0
C64 C 0.68804 0.33162 0.26412 0.0
C65 C 0.71616 0.35903 0.24144 0.0
C66 C 0.6358 0.34727 0.24817 0.0
C67 C 0.70418 0.3805 0.22241 0.0
C68 C 0.64785 0.32608 0.26742 0.0
C69 C 0.66379 0.37467 0.22534 0.0
C70 C 0.69971 0.30763 0.28354 0.0
C71 C 0.73355 0.18721 0.29772 0.0
H72 H 0.90637 0.21886 0.28554 0.0
H73 H 0.88124 0.07183 0.24011 0.0
H74 H 0.93304 0.18456 0.31666 0.0
H75 H 0.8547 0.10623 0.20892 0.0
H76 H 0.74728 0.36351 0.23808 0.0
H77 H 0.60454 0.34227 0.25123 0.0
H78 H 0.72641 0.40089 0.20464 0.0
H79 H 0.62565 0.30501 0.28468 0.0
Eu80 Eu 0.77962 0.77244 0.23701 0.0
Eu81 Eu 0.7588 0.69812 0.2845 0.0
C82 C 0.70236 0.68533 0.22283 0.0
C83 C 0.76012 0.83887 0.1851 0.0
C84 C 0.75427 0.82666 0.14733 0.0
C85 C 0.70687 0.86341 0.19413 0.0
C86 C 0.72463 0.83203 0.13325 0.0
C87 C 0.73634 0.85775 0.20831 0.0
C88 C 0.70034 0.85012 0.15652 0.0
C89 C 0.78925 0.82961 0.2002 0.0
O90 O 0.79019 0.68165 0.22974 0.0
O91 O 0.82623 0.74614 0.21447 0.0
C92 C 0.81996 0.70703 0.21056 0.0
O93 O 0.81549 0.79982 0.28674 0.0
O94 O 0.74424 0.63456 0.29006 0.0
O95 O 0.75653 0.68232 0.3382 0.0
O96 O 0.82285 0.74169 0.28943 0.0
C97 C 0.83331 0.78136 0.29906 0.0
O98 O 0.72418 0.76906 0.27467 0.0
O99 O 0.73716 0.74548 0.32059 0.0
O100 O 0.70341 0.6763 0.25482 0.0
O101 O 0.78881 0.83564 0.2361 0.0
O102 O 0.79294 0.79535 0.18474 0.0
O103 O 0.73127 0.71644 0.20902 0.0
C104 C 0.77938 0.63039 0.33516 0.0
C105 C 0.82075 0.6494 0.32533 0.0
C106 C 0.79138 0.58567 0.36681 0.0
C107 C 0.84731 0.63665 0.33628 0.0
C108 C 0.76495 0.59848 0.35592 0.0
C109 C 0.83294 0.6045 0.35713 0.0
C110 C 0.75124 0.64431 0.32476 0.0
C111 C 0.72047 0.76608 0.30963 0.0
H112 H 0.77224 0.81232 0.12868 0.0
H113 H 0.68861 0.8774 0.21275 0.0
H114 H 0.72088 0.8222 0.104 0.0
H115 H 0.73997 0.86757 0.23757 0.0
H116 H 0.83249 0.67418 0.30928 0.0
H117 H 0.77923 0.5614 0.38343 0.0
H118 H 0.879 0.65167 0.32812 0.0
H119 H 0.7332 0.58365 0.36402 0.0
Eu120 Eu 0.31099 0.73161 0.25984 0.0
Eu121 Eu 0.23987 0.76081 0.26495 0.0
C122 C 0.25945 0.70769 0.19383 0.0
C123 C 0.36538 0.67994 0.20373 0.0
C124 C 0.35366 0.69346 0.17693 0.0
C125 C 0.34994 0.61374 0.16437 0.0
C126 C 0.33773 0.66658 0.14537 0.0
C127 C 0.36477 0.64036 0.19662 0.0
C128 C 0.33447 0.62595 0.13922 0.0
C129 C 0.36326 0.70063 0.24189 0.0
O130 O 0.21384 0.69977 0.28622 0.0
O131 O 0.27001 0.70453 0.3071 0.0
C132 C 0.23113 0.68844 0.307 0.0
O133 O 0.32276 0.78123 0.30961 0.0
O134 O 0.18284 0.73941 0.24197 0.0
O135 O 0.2048 0.79793 0.27907 0.0
O136 O 0.26141 0.78612 0.32219 0.0
C137 C 0.29727 0.79458 0.3312 0.0
O138 O 0.33512 0.78261 0.22622 0.0
O139 O 0.29405 0.81632 0.25007 0.0
O140 O 0.25902 0.7439 0.2056 0.0
O141 O 0.37369 0.74038 0.24626 0.0
O142 O 0.32904 0.68205 0.26017 0.0
O143 O 0.2683 0.69069 0.21645 0.0
C144 C 0.1373 0.75529 0.28752 0.0
C145 C 0.12995 0.72334 0.30686 0.0
C146 C 0.09964 0.78272 0.33659 0.0
C147 C 0.11222 0.72457 0.34302 0.0
C148 C 0.11842 0.78227 0.30083 0.0
C149 C 0.10119 0.75714 0.35903 0.0
C150 C 0.17401 0.76885 0.26287 0.0
C151 C 0.32706 0.81522 0.23109 0.0
H152 H 0.35317 0.7237 0.18189 0.0
H153 H 0.34984 0.58325 0.15966 0.0
H154 H 0.32651 0.67727 0.12666 0.0
H155 H 0.37298 0.62908 0.21713 0.0
H156 H 0.14316 0.7013 0.29628 0.0
H157 H 0.0905 0.80774 0.34867 0.0
H158 H 0.11281 0.70423 0.35993 0.0
H159 H 0.12332 0.80676 0.28608 0.0
Eu160 Eu 0.31972 0.72858 0.74832 0.0
Eu161 Eu 0.23977 0.76795 0.7643 0.0
C162 C 0.30647 0.80049 0.8205 0.0
C163 C 0.39689 0.69178 0.76968 0.0
C164 C 0.39688 0.70404 0.80814 0.0
C165 C 0.4293 0.64695 0.77315 0.0
C166 C 0.41321 0.68804 0.82889 0.0
C167 C 0.4132 0.66311 0.75245 0.0
C168 C 0.42964 0.65924 0.81165 0.0
C169 C 0.37931 0.70726 0.74683 0.0
O170 O 0.29408 0.81371 0.73715 0.0
O171 O 0.33622 0.7789 0.71392 0.0
C172 C 0.3255 0.80989 0.71639 0.0
O173 O 0.28655 0.68481 0.69896 0.0
O174 O 0.19096 0.78835 0.78463 0.0
O175 O 0.19998 0.76473 0.72614 0.0
O176 O 0.2591 0.72315 0.72907 0.0
C177 C 0.25593 0.69348 0.70191 0.0
O178 O 0.26903 0.69361 0.78757 0.0
O179 O 0.21683 0.71631 0.79774 0.0
O180 O 0.27818 0.80729 0.80953 0.0
O181 O 0.34432 0.6819 0.73588 0.0
O182 O 0.38234 0.74521 0.75622 0.0
O183 O 0.32082 0.77267 0.80307 0.0
C184 C 0.16783 0.81134 0.74109 0.0
C185 C 0.19242 0.83769 0.71609 0.0
C186 C 0.11656 0.83688 0.74176 0.0
C187 C 0.17901 0.86301 0.70371 0.0
C188 C 0.13 0.81153 0.75407 0.0
C189 C 0.14066 0.8627 0.71604 0.0
C190 C 0.17935 0.78099 0.75152 0.0
C191 C 0.23366 0.69253 0.80314 0.0
H192 H 0.38407 0.72576 0.82217 0.0
H193 H 0.44198 0.62521 0.7589 0.0
H194 H 0.41243 0.69779 0.85855 0.0
H195 H 0.41341 0.65312 0.7228 0.0
H196 H 0.22164 0.83801 0.70541 0.0
H197 H 0.08717 0.83608 0.75234 0.0
H198 H 0.19833 0.8819 0.68354 0.0
H199 H 0.11039 0.79136 0.77325 0.0
Eu200 Eu 0.29049 0.28077 0.737 0.0
Eu201 Eu 0.2687 0.20762 0.78609 0.0
C202 C 0.21647 0.19586 0.7217 0.0
C203 C 0.26975 0.34975 0.68818 0.0
C204 C 0.24388 0.32646 0.6603 0.0
C205 C 0.24115 0.4007 0.69842 0.0
C206 C 0.21716 0.34026 0.65147 0.0
C207 C 0.26797 0.38697 0.70717 0.0
C208 C 0.21563 0.37773 0.67022 0.0
C209 C 0.2982 0.33532 0.69776 0.0
O210 O 0.32235 0.20695 0.74691 0.0
O211 O 0.31255 0.23406 0.70141 0.0
C212 C 0.32775 0.21213 0.71232 0.0
O213 O 0.34703 0.30053 0.76426 0.0
O214 O 0.25155 0.14295 0.78862 0.0
O215 O 0.26012 0.18745 0.8391 0.0
O216 O 0.31985 0.2625 0.8116 0.0
C217 C 0.34911 0.29208 0.79618 0.0
O218 O 0.26179 0.29947 0.79224 0.0
O219 O 0.22311 0.23565 0.80745 0.0
O220 O 0.2334 0.17847 0.73646 0.0
O221 O 0.30608 0.34474 0.73221 0.0
O222 O 0.2938 0.29767 0.68356 0.0
O223 O 0.2271 0.2358 0.72898 0.0
C224 C 0.28159 0.13427 0.83458 0.0
C225 C 0.32291 0.15137 0.82415 0.0
C226 C 0.29056 0.08623 0.86422 0.0
C227 C 0.34796 0.13593 0.8337 0.0
C228 C 0.26557 0.10166 0.85462 0.0
C229 C 0.33206 0.1031 0.85382 0.0
C230 C 0.25516 0.14988 0.82391 0.0
C231 C 0.23102 0.27515 0.81122 0.0
H232 H 0.24443 0.29766 0.64498 0.0
H233 H 0.24054 0.42948 0.7137 0.0
H234 H 0.19851 0.32209 0.62916 0.0
H235 H 0.28742 0.4056 0.72881 0.0
H236 H 0.33574 0.17655 0.8085 0.0
H237 H 0.27741 0.06148 0.88034 0.0
H238 H 0.37967 0.14943 0.82503 0.0
H239 H 0.23375 0.08818 0.8629 0.0
Eu240 Eu 0.80298 0.23556 0.7706 0.0
Eu241 Eu 0.73384 0.26652 0.77044 0.0
C242 C 0.74778 0.20039 0.70369 0.0
C243 C 0.90365 0.23571 0.75549 0.0
C244 C 0.91655 0.2707 0.73848 0.0
C245 C 0.93744 0.20527 0.70491 0.0
C246 C 0.93535 0.27026 0.70269 0.0
C247 C 0.91832 0.20543 0.74053 0.0
C248 C 0.94107 0.23503 0.68448 0.0
C249 C 0.86524 0.22359 0.77804 0.0
O250 O 0.70246 0.21228 0.80103 0.0
O251 O 0.74687 0.18104 0.7834 0.0
C252 C 0.71205 0.18082 0.7989 0.0
O253 O 0.77878 0.25416 0.82748 0.0
O254 O 0.69181 0.29227 0.80107 0.0
O255 O 0.70036 0.28585 0.74143 0.0
O256 O 0.77801 0.30937 0.81223 0.0
C257 C 0.78375 0.29241 0.83691 0.0
O258 O 0.83515 0.29597 0.74835 0.0
O259 O 0.78115 0.296 0.72733 0.0
O260 O 0.72067 0.21026 0.72635 0.0
O261 O 0.85688 0.25382 0.79791 0.0
O262 O 0.83513 0.19575 0.76009 0.0
O263 O 0.78472 0.2132 0.71216 0.0
C264 C 0.70305 0.34915 0.77503 0.0
C265 C 0.67749 0.36958 0.78629 0.0
C266 C 0.76071 0.41441 0.78506 0.0
C267 C 0.69355 0.4121 0.799 0.0
C268 C 0.74468 0.37208 0.77281 0.0
C269 C 0.73522 0.43419 0.80096 0.0
C270 C 0.68798 0.30432 0.77197 0.0
C271 C 0.81983 0.30985 0.72801 0.0
H272 H 0.90675 0.29527 0.75017 0.0
H273 H 0.94281 0.17825 0.69127 0.0
H274 H 0.93946 0.29407 0.68749 0.0
H275 H 0.90929 0.1786 0.75353 0.0
H276 H 0.64531 0.35233 0.78838 0.0
H277 H 0.79277 0.43054 0.78663 0.0
H278 H 0.67313 0.4265 0.81156 0.0
H279 H 0.76485 0.35671 0.76521 0.0
Eu280 Eu 0.81406 0.76568 0.78691 0.0
Eu281 Eu 0.73956 0.73345 0.73398 0.0
C282 C 0.73332 0.69002 0.80264 0.0
C283 C 0.88384 0.75338 0.84168 0.0
C284 C 0.86974 0.71129 0.82656 0.0
C285 C 0.92412 0.74292 0.88033 0.0
C286 C 0.88242 0.68516 0.83844 0.0
C287 C 0.91135 0.76904 0.86842 0.0
C288 C 0.90952 0.70048 0.86579 0.0
C289 C 0.86876 0.78045 0.83052 0.0
O290 O 0.74284 0.79396 0.7673 0.0
O291 O 0.77 0.79351 0.81763 0.0
C292 C 0.74739 0.80478 0.8027 0.0
O293 O 0.83475 0.81645 0.75258 0.0
O294 O 0.67594 0.71646 0.73073 0.0
O295 O 0.71485 0.71454 0.68051 0.0
O296 O 0.79201 0.78256 0.70637 0.0
C297 C 0.8241 0.81353 0.71973 0.0
O298 O 0.82963 0.72721 0.73514 0.0
O299 O 0.7677 0.68707 0.7142 0.0
O300 O 0.71437 0.70392 0.78604 0.0
O301 O 0.87682 0.7852 0.79595 0.0
O302 O 0.83171 0.77433 0.84218 0.0
O303 O 0.77199 0.70126 0.79508 0.0
C304 C 0.66115 0.7333 0.67892 0.0
C305 C 0.68419 0.77177 0.66777 0.0
C306 C 0.60198 0.73421 0.66005 0.0
C307 C 0.6663 0.79105 0.65245 0.0
C308 C 0.61991 0.71492 0.6752 0.0
C309 C 0.62494 0.77241 0.64812 0.0
C310 C 0.67934 0.71211 0.69481 0.0
C311 C 0.80589 0.69491 0.71386 0.0
H312 H 0.84851 0.69853 0.80582 0.0
H313 H 0.94453 0.7558 0.90175 0.0
H314 H 0.87087 0.65286 0.82623 0.0
H315 H 0.92247 0.80138 0.88057 0.0
H316 H 0.71607 0.78675 0.67062 0.0
H317 H 0.57001 0.71918 0.65781 0.0
H318 H 0.6851 0.82015 0.64324 0.0
H319 H 0.60149 0.68547 0.68399 0.0
C320 C 0.93205 0.09095 0.51727 0.0
C321 C 0.99399 0.05771 0.42425 0.0
C322 C 0.95639 0.91734 0.47094 0.0
Mg323 Mg 1.01699 0.08931 0.50223 0.0
O324 O 0.98599 0.03992 0.5207 0.0
Mg325 Mg 0.93922 0.00059 0.49201 0.0
Mg326 Mg 1.01653 0.00503 0.51403 0.0
O327 O 0.04753 0.97065 0.50678 0.0
Mg328 Mg 1.01734 0.92028 0.52329 0.0
Mg329 Mg 0.09549 0.01042 0.53383 0.0
C330 C 0.0784 0.09345 0.55457 0.0
C331 C 0.09767 0.04586 0.45871 0.0
O332 O 0.91402 0.05129 0.51184 0.0
O333 O 0.97029 0.10998 0.51524 0.0
O334 O 0.96382 0.02953 0.43843 0.0
O335 O 1.02345 0.08185 0.44299 0.0
O336 O 0.06671 0.11265 0.53712 0.0
O337 O 0.06202 0.05401 0.55187 0.0
C338 C 0.93342 0.96215 0.56639 0.0
O339 O 0.97157 0.97257 0.56168 0.0
O340 O 0.91567 0.97082 0.54483 0.0
O341 O 0.12124 0.96023 0.51332 0.0
O342 O 0.0651 0.90127 0.50955 0.0
O343 O 0.07253 0.97972 0.58679 0.0
C344 C 0.10329 0.92058 0.50801 0.0
O345 O 1.01282 0.92712 0.58276 0.0
O346 O 0.96836 0.89704 0.48685 0.0
C347 C 0.0432 0.95055 0.60076 0.0
O348 O 0.97199 0.95681 0.4759 0.0
O349 O 0.05977 0.03558 0.46577 0.0
O350 O 0.11766 0.03952 0.47983 0.0
C351 C 0.42226 0.06729 0.07763 0.0
C352 C 0.46785 0.05832 0.96336 0.0
C353 C 0.45553 0.90594 0.97279 0.0
Mg354 Mg 0.50679 0.08027 0.03674 0.0
O355 O 0.48869 0.0238 0.03714 0.0
Mg356 Mg 0.43561 0.98614 0.0183 0.0
Mg357 Mg 0.52146 0.99184 0.01186 0.0
O358 O 0.5549 0.96017 0.9866 0.0
Mg359 Mg 0.53868 0.9041 0.98754 0.0
Mg360 Mg 0.60806 -0.00118 1.00497 0.0
C361 C 0.58809 0.07686 0.05266 0.0
C362 C 0.5852 0.04094 0.94874 0.0
O363 O 0.40837 0.0306 0.05867 0.0
O364 O 0.45975 0.09091 0.07536 0.0
O365 O 0.4451 0.02308 0.97239 0.0
O366 O 0.49572 0.08485 0.98305 0.0
O367 O 0.56757 0.09786 0.05246 0.0
O368 O 0.57459 0.03775 0.04169 0.0
C369 C 0.45714 0.94451 0.07541 0.0
O370 O 0.49311 0.9543 0.05993 0.0
O371 O 0.43137 0.95301 0.06407 0.0
O372 O 0.63632 0.95568 0.96499 0.0
O373 O 0.58616 0.89432 0.94844 0.0
O374 O 0.60022 0.96236 0.05096 0.0
C375 C 0.62341 0.91887 0.9463 0.0
O376 O 0.55083 0.89967 0.04093 0.0
O377 O 0.47731 0.8864 0.97367 0.0
C378 C 0.57857 0.92706 0.06026 0.0
O379 O 0.46818 0.9454 0.98184 0.0
O380 O 0.5493 0.02998 0.9644 0.0
O381 O 0.61156 0.03247 0.95912 0.0
C382 C 0.94398 0.58457 0.08079 0.0
C383 C 0.99332 0.58652 0.96933 0.0
C384 C 0.95953 0.42424 0.96174 0.0
Mg385 Mg 0.02762 0.59102 0.04105 0.0
O386 O 1.00263 0.53349 0.0371 0.0
Mg387 Mg 0.94971 0.50475 0.01546 0.0
Mg388 Mg 0.03031 0.49715 1.00887 0.0
O389 O 0.05768 0.4606 0.98072 0.0
Mg390 Mg 0.0318 0.40302 0.977 0.0
Mg391 Mg 0.1105 0.48889 1.00248 0.0
C392 C 0.10081 0.57043 0.05568 0.0
C393 C 0.10261 0.54878 0.95299 0.0
O394 O 0.92811 0.54932 0.06013 0.0
O395 O 0.98205 0.6057 0.0795 0.0
O396 O 0.96612 0.55136 0.9751 0.0
O397 O 1.02272 0.60589 0.98937 0.0
O398 O 0.08506 0.59622 0.0565 0.0
O399 O 0.08319 0.53172 0.04326 0.0
C400 C 0.95829 0.44595 0.06516 0.0
O401 O 0.9943 0.45384 0.05069 0.0
O402 O 0.93644 0.46127 0.05622 0.0
O403 O 0.13142 0.44328 0.95774 0.0
O404 O 0.07673 0.38748 0.93881 0.0
O405 O 0.09383 0.442 0.04288 0.0
C406 C 0.1149 0.40783 0.93745 0.0
O407 O 0.03728 0.3876 0.02829 0.0
O408 O 0.97442 0.39774 0.96096 0.0
C409 C 0.06663 0.40673 0.04842 0.0
O410 O 0.97756 0.46266 0.97469 0.0
O411 O 0.06637 0.54052 0.96694 0.0
O412 O 0.12409 0.53312 0.96218 0.0
C413 C 0.3876 0.49278 0.01207 0.0
C414 C 0.48079 0.53424 0.93131 0.0
C415 C 0.5114 0.40489 0.94199 0.0
Mg416 Mg 0.47985 0.54679 0.01602 0.0
O417 O 0.4787 0.49465 0.01239 0.0
Mg418 Mg 0.4497 0.44898 0.97262 0.0
Mg419 Mg 0.53013 0.48797 1.0049 0.0
O420 O 0.58133 0.48099 0.99732 0.0
Mg421 Mg 0.58264 0.42934 0.99253 0.0
Mg422 Mg 0.61235 0.52802 0.03486 0.0
C423 C 0.54914 0.57064 0.06863 0.0
C424 C 0.60047 0.56444 0.96644 0.0
O425 O 0.39346 0.46165 0.993 0.0
O426 O 0.41585 0.52664 0.02483 0.0
O427 O 0.46534 0.49496 0.93053 0.0
O428 O 0.49283 0.55958 0.96089 0.0
O429 O 0.52368 0.58079 0.0583 0.0
O430 O 0.55309 0.53706 0.05404 0.0
C431 C 0.45828 0.41282 0.04305 0.0
O432 O 0.49546 0.43793 0.04243 0.0
O433 O 0.43597 0.41021 0.01897 0.0
O434 O 0.66807 0.5164 1.00843 0.0
O435 O 0.64619 0.4516 0.97653 0.0
O436 O 0.60061 0.48342 0.07691 0.0
C437 C 0.67438 0.48667 0.98673 0.0
O438 O 0.57356 0.41792 0.04822 0.0
O439 O 0.53675 0.39446 0.95212 0.0
C440 C 0.58599 0.44441 0.07713 0.0
O441 O 0.50808 0.43882 0.95629 0.0
O442 O 0.56375 0.53826 0.96697 0.0
O443 O 0.62328 0.5672 0.98998 0.0
C444 C 0.94079 0.58394 0.58343 0.0
C445 C 0.97588 0.56737 0.46659 0.0
C446 C 0.95493 0.41353 0.47898 0.0
Mg447 Mg 1.02053 0.58764 0.53576 0.0
O448 O 0.9985 0.53188 0.54043 0.0
Mg449 Mg 0.94319 0.49771 0.52488 0.0
Mg450 Mg 0.02701 0.49548 0.51507 0.0
O451 O 0.05567 0.45927 0.48945 0.0
Mg452 Mg 0.03396 0.40352 0.4938 0.0
Mg453 Mg 0.11096 0.49359 0.50526 0.0
C454 C 0.0983 0.57719 0.55266 0.0
C455 C 0.09306 0.54056 0.45022 0.0
O456 O 0.92226 0.54657 0.56714 0.0
O457 O 0.97853 0.60423 0.57641 0.0
O458 O 0.95203 0.53417 0.47866 0.0
O459 O 1.00723 0.59247 0.48267 0.0
O460 O 0.07992 0.59984 0.55102 0.0
O461 O 0.08294 0.53776 0.54329 0.0
C462 C 0.96108 0.45087 0.5804 0.0
O463 O 0.99664 0.4583 0.5644 0.0
O464 O 0.93761 0.46308 0.56986 0.0
O465 O 0.13254 0.44532 0.46278 0.0
O466 O 0.07664 0.38737 0.45315 0.0
O467 O 0.10176 0.45696 0.55128 0.0
C468 C 0.11441 0.40796 0.44629 0.0
O469 O 0.04638 0.39888 0.54706 0.0
O470 O 0.97372 0.39126 0.48072 0.0
C471 C 0.07757 0.42387 0.56334 0.0
O472 O 0.97089 0.45311 0.48704 0.0
O473 O 0.05738 0.53264 0.46607 0.0
O474 O 0.11675 0.52853 0.4606 0.0
C475 C 0.45691 0.09495 0.58507 0.0
C476 C 0.49529 0.09065 0.46972 0.0
C477 C 0.45473 0.92654 0.46758 0.0
Mg478 Mg 0.53546 0.09587 0.53847 0.0
O479 O 0.50793 0.03875 0.53642 0.0
Mg480 Mg 0.45294 0.01194 0.51909 0.0
Mg481 Mg 0.53138 -0.0008 0.50789 0.0
O482 O 0.55472 0.95954 0.4792 0.0
Mg483 Mg 0.52682 0.90253 0.47781 0.0
Mg484 Mg 0.60973 0.98628 0.49647 0.0
C485 C 0.60738 0.07198 0.54976 0.0
C486 C 0.60041 0.04454 0.44633 0.0
O487 O 0.4371 0.06095 0.56439 0.0
O488 O 0.49529 0.11254 0.58179 0.0
O489 O 0.46863 0.0559 0.477 0.0
O490 O 0.52563 0.11102 0.48854 0.0
O491 O 0.59313 0.099 0.55074 0.0
O492 O 0.5878 0.03331 0.53814 0.0
C493 C 0.46167 0.95343 0.56895 0.0
O494 O 0.49677 0.95904 0.55287 0.0
O495 O 0.44067 0.97011 0.5607 0.0
O496 O 0.62514 0.93588 0.45157 0.0
O497 O 0.56655 0.88421 0.43518 0.0
O498 O 0.59392 0.94315 0.5393 0.0
C499 C 0.60495 0.90126 0.43173 0.0
O500 O 0.53649 0.88841 0.52816 0.0
O501 O 0.46869 0.89929 0.46658 0.0
C502 C 0.56681 0.9088 0.54697 0.0
O503 O 0.47507 0.96527 0.47782 0.0
O504 O 0.56561 0.03914 0.46298 0.0
O505 O 0.62165 0.0278 0.45418 0.0
H506 H 0.1601 0.1337 0.31624 0.0
H507 H 0.27127 0.18202 0.36645 0.0
H508 H 0.2383 0.14101 0.41521 0.0
H509 H 0.17742 0.09407 0.44624 0.0
H510 H 0.06591 0.0443 0.39684 0.0
H511 H 0.09909 0.08298 0.34598 0.0
C512 C 0.17718 0.13487 0.33759 0.0
C513 C 0.21825 0.1614 0.33746 0.0
C514 C 0.15779 0.11117 0.36629 0.0
C515 C 0.23964 0.16242 0.3657 0.0
C516 C 0.22079 0.13884 0.39381 0.0
C517 C 0.16037 0.09133 0.42422 0.0
C518 C 0.11888 0.06685 0.42606 0.0
C519 C 0.17979 0.11355 0.39478 0.0
C520 C 0.09756 0.06379 0.39696 0.0
C521 C 0.11666 0.0857 0.36755 0.0
H522 H 0.9823 0.15173 0.30733 0.0
H523 H 0.86638 0.04995 0.3013 0.0
H524 H 0.88521 0.01633 0.3401 0.0
H525 H 0.93133 0.0195 0.38142 0.0
H526 H 0.04684 0.12195 0.38924 0.0
H527 H 0.03185 0.15084 0.34343 0.0
C528 C 0.96129 0.12208 0.31435 0.0
C529 C 0.92281 0.10363 0.30164 0.0
C530 C 0.97226 0.10288 0.33696 0.0
C531 C 0.89621 0.06482 0.31049 0.0
C532 C 0.90691 0.0456 0.33284 0.0
C533 C 0.95371 0.04768 0.37258 0.0
C534 C 0.98996 0.06874 0.3894 0.0
C535 C 0.94447 0.06479 0.34695 0.0
C536 C 1.01858 0.10506 0.37711 0.0
C537 C 1.00986 0.12189 0.35109 0.0
H538 H 0.84281 0.85453 0.34313 0.0
H539 H 0.88392 0.75654 0.32181 0.0
H540 H 0.923 0.78827 0.37516 0.0
H541 H 0.94531 0.84366 0.42799 0.0
H542 H 0.90478 0.94193 0.44887 0.0
H543 H 0.86516 0.90993 0.39604 0.0
C544 C 0.86078 0.84045 0.34985 0.0
C545 C 0.86067 0.80341 0.32842 0.0
C546 C 0.88271 0.8585 0.38089 0.0
C547 C 0.88361 0.78517 0.33781 0.0
C548 C 0.90577 0.80313 0.36845 0.0
C549 C 0.92725 0.85769 0.42137 0.0
C550 C 0.92787 0.89504 0.44251 0.0
C551 C 0.90522 0.83956 0.3904 0.0
C552 C 0.90494 0.91326 0.43311 0.0
C553 C 0.88236 0.89504 0.40275 0.0
H554 H 0.16381 0.82325 0.38294 0.0
H555 H 0.05337 0.72981 0.42099 0.0
H556 H 0.05693 0.77194 0.48276 0.0
H557 H 0.07927 0.84209 0.51663 0.0
H558 H 0.17759 0.94045 0.46951 0.0
H559 H 0.19369 0.88996 0.42225 0.0
C560 C 0.14116 0.81188 0.40525 0.0
C561 C 0.10755 0.77474 0.39782 0.0
C562 C 0.14176 0.83759 0.43909 0.0
C563 C 0.0788 0.759 0.42641 0.0
C564 C 0.08093 0.7831 0.46146 0.0
C565 C 0.10504 0.85232 0.49661 0.0
C566 C 0.1258 0.89463 0.49484 0.0
C567 C 0.11043 0.82364 0.46695 0.0
C568 C 0.16045 0.90795 0.47054 0.0
C569 C 0.16912 0.87907 0.44316 0.0
H570 H 0.06452 0.84271 0.6988 0.0
H571 H 0.18294 0.94088 0.69988 0.0
H572 H 0.1611 0.97984 0.66971 0.0
H573 H 0.11077 0.98302 0.63722 0.0
H574 H 0.99261 0.88445 0.63472 0.0
H575 H 1.0115 0.84998 0.67276 0.0
C576 C 0.08544 0.87298 0.69318 0.0
C577 C 0.12569 0.88828 0.70119 0.0
C578 C 0.07264 0.89546 0.67569 0.0
C579 C 0.15215 0.92759 0.69328 0.0
C580 C 0.13957 0.95016 0.67624 0.0
C581 C 0.08867 0.9545 0.64567 0.0
C582 C 0.05031 0.93634 0.63255 0.0
C583 C 0.10019 0.93397 0.66646 0.0
C584 C 1.02233 0.89934 0.64416 0.0
C585 C 0.0333 0.87927 0.66565 0.0
H586 H 0.19601 0.22305 0.66963 0.0
H587 H 0.17546 0.11223 0.70913 0.0
H588 H 0.13299 0.07044 0.65923 0.0
H589 H 0.10124 0.06562 0.60497 0.0
H590 H 0.12283 0.17665 0.5651 0.0
H591 H 0.16601 0.21807 0.61432 0.0
C592 C 0.18191 0.18978 0.66758 0.0
C593 C 0.18847 0.17078 0.69329 0.0
C594 C 0.1582 0.16596 0.63849 0.0
C595 C 0.17064 0.1276 0.68981 0.0
C596 C 0.14651 0.10368 0.6612 0.0
C597 C 0.11576 0.09881 0.60668 0.0
C598 C 0.10868 0.1179 0.58132 0.0
C599 C 0.14021 0.12255 0.63533 0.0
C600 C 0.12767 0.16105 0.5842 0.0
C601 C 0.15222 0.18484 0.61248 0.0
H602 H 0.87808 0.17194 0.65642 0.0
H603 H 0.98888 0.2698 0.62532 0.0
H604 H 0.98274 0.23742 0.56011 0.0
H605 H 0.95702 0.17234 0.5177 0.0
H606 H 0.85707 0.06797 0.55478 0.0
H607 H 0.84466 0.1125 0.61039 0.0
C608 C 0.90057 0.18633 0.63513 0.0
C609 C 0.935 0.22165 0.64513 0.0
C610 C 0.89795 0.16635 0.59864 0.0
C611 C 0.96305 0.24162 0.61785 0.0
C612 C 0.95933 0.22322 0.58079 0.0
C613 C 0.93163 0.1597 0.53747 0.0
C614 C 0.90981 0.11669 0.53385 0.0
C615 C 0.92853 0.18412 0.57146 0.0
C616 C 0.87536 0.10078 0.55784 0.0
C617 C 0.86887 0.12612 0.59004 0.0
H618 H 0.80271 0.83289 0.66221 0.0
H619 H 0.90337 0.86641 0.72392 0.0
H620 H 0.94612 0.91579 0.68305 0.0
H621 H 0.9556 0.94824 0.62791 0.0
H622 H 0.85323 0.91555 0.56854 0.0
H623 H 0.81103 0.86786 0.61023 0.0
C624 C 0.83399 0.85103 0.66685 0.0
C625 C 0.84965 0.84554 0.69615 0.0
C626 C 0.85839 0.87978 0.64344 0.0
C627 C 0.89026 0.86986 0.70177 0.0
C628 C 0.91487 0.89809 0.67822 0.0
C629 C 0.92408 0.93076 0.62412 0.0
C630 C 0.90801 0.93567 0.59467 0.0
C631 C 0.8994 0.90315 0.64868 0.0
C632 C 0.86677 0.91291 0.5908 0.0
C633 C 0.84242 0.88528 0.61463 0.0
H634 H 0.28885 0.13023 0.16252 0.0
H635 H 0.3853 0.20445 0.23172 0.0
H636 H 0.42762 0.17237 0.19366 0.0
H637 H 0.43887 0.12492 0.13974 0.0
H638 H 0.3428 0.04693 0.07141 0.0
H639 H 0.29906 0.07828 0.10986 0.0
C640 C 0.31903 0.13912 0.16931 0.0
C641 C 0.33358 0.16968 0.20029 0.0
C642 C 0.34351 0.11986 0.14732 0.0
C643 C 0.37285 0.18066 0.2086 0.0
C644 C 0.39735 0.16249 0.18662 0.0
C645 C 0.4083 0.11459 0.13327 0.0
C646 C 0.39436 0.08375 0.10249 0.0
C647 C 0.38318 0.13226 0.15582 0.0
C648 C 0.3544 0.0705 0.09495 0.0
C649 C 0.32939 0.0886 0.11688 0.0
H650 H 0.89624 0.3134 0.17011 0.0
H651 H 0.82366 0.38106 0.2201 0.0
H652 H 0.85665 0.42928 0.17658 0.0
H653 H 0.90292 0.44954 0.12187 0.0
H654 H 0.9761 0.3828 0.07244 0.0
H655 H 0.94619 0.33688 0.1183 0.0
C656 C 0.88787 0.3389 0.17171 0.0
C657 C 0.85726 0.34335 0.19807 0.0
C658 C 0.90686 0.36646 0.14655 0.0
C659 C 0.84711 0.37686 0.20008 0.0
C660 C 0.86579 0.40435 0.17506 0.0
C661 C 0.9123 0.42493 0.12118 0.0
C662 C 0.94146 0.41924 0.09366 0.0
C663 C 0.8951 0.39892 0.14775 0.0
C664 C 0.9539 0.38781 0.09345 0.0
C665 C 0.93665 0.36148 0.11957 0.0
H666 H 0.68347 0.91808 0.16945 0.0
H667 H 0.64624 0.79395 0.10918 0.0
H668 H 0.59912 0.80466 0.07875 0.0
H669 H 0.57463 0.85187 0.06379 0.0
H670 H 0.61529 0.97742 0.12091 0.0
H671 H 0.6537 0.96322 0.15899 0.0
C672 C 0.66447 0.89314 0.1502 0.0
C673 C 0.66875 0.85546 0.14123 0.0
C674 C 0.63788 0.89975 0.13233 0.0
C675 C 0.6441 0.82352 0.11602 0.0
C676 C 0.61698 0.82954 0.09876 0.0
C677 C 0.59083 0.87573 0.08539 0.0
C678 C 0.59205 0.91561 0.08957 0.0
C679 C 0.61438 0.86788 0.10595 0.0
C680 C 0.61382 0.94644 0.11723 0.0
C681 C 0.63609 0.93844 0.13877 0.0
H682 H 0.2246 0.62412 0.17105 0.0
H683 H 0.25781 0.74085 0.13652 0.0
H684 H 0.21605 0.70666 0.08539 0.0
H685 H 0.16049 0.64633 0.05847 0.0
H686 H 0.1251 0.52922 0.09276 0.0
H687 H 0.17772 0.56044 0.13529 0.0
C688 C 0.2235 0.64179 0.15169 0.0
C689 C 0.24323 0.68503 0.15816 0.0
C690 C 0.19854 0.62195 0.12261 0.0
C691 C 0.24205 0.70759 0.13262 0.0
C692 C 0.21812 0.68811 0.10338 0.0
C693 C 0.16493 0.62746 0.07465 0.0
C694 C 0.13848 0.5859 0.07321 0.0
C695 C 0.19461 0.64571 0.09938 0.0
C696 C 0.14498 0.56147 0.09364 0.0
C697 C 0.17486 0.57938 0.11818 0.0
H698 H 0.3252 0.77463 0.87382 0.0
H699 H 0.32855 0.88331 0.84279 0.0
H700 H 0.37044 0.92682 0.89298 0.0
H701 H 0.41474 0.93367 0.93878 0.0
H702 H 0.41073 0.82382 0.96861 0.0
H703 H 0.35959 0.78099 0.92652 0.0
C704 C 0.33455 0.80781 0.87855 0.0
C705 C 0.32465 0.82598 0.85449 0.0
C706 C 0.35857 0.83236 0.90716 0.0
C707 C 0.33612 0.86882 0.86106 0.0
C708 C 0.36019 0.89364 0.88959 0.0
C709 C 0.40176 0.90043 0.93691 0.0
C710 C 0.41716 0.88191 0.95613 0.0
C711 C 0.37285 0.87579 0.91193 0.0
C712 C 0.3999 0.83879 0.95358 0.0
C713 C 0.37077 0.81423 0.92939 0.0
H714 H 0.24716 0.35635 0.83601 0.0
H715 H 0.15499 0.23461 0.84259 0.0
H716 H 0.1105 0.26482 0.88091 0.0
H717 H 0.09761 0.32607 0.91231 0.0
H718 H 0.19135 0.44741 0.90777 0.0
H719 H 0.23518 0.41708 0.86873 0.0
C720 C 0.21735 0.33629 0.84582 0.0
C721 C 0.20449 0.29313 0.83623 0.0
C722 C 0.19208 0.35388 0.86809 0.0
C723 C 0.16583 0.26783 0.84957 0.0
C724 C 0.14028 0.28514 0.87139 0.0
C725 C 0.12754 0.3459 0.90256 0.0
C726 C 0.14098 0.38908 0.91277 0.0
C727 C 0.15301 0.32815 0.88069 0.0
C728 C 0.18014 0.41418 0.90037 0.0
C729 C 0.20527 0.39683 0.87803 0.0
H730 H 0.64387 0.17355 0.84468 0.0
H731 H 0.72029 0.10951 0.79676 0.0
H732 H 0.68463 0.05816 0.83675 0.0
H733 H 0.63768 0.03622 0.89023 0.0
H734 H 0.56107 0.09924 0.93908 0.0
H735 H 0.59032 0.14575 0.89345 0.0
C736 C 0.65225 0.14796 0.84249 0.0
C737 C 0.68529 0.14597 0.81822 0.0
C738 C 0.6318 0.11851 0.86595 0.0
C739 C 0.69544 0.11231 0.81555 0.0
C740 C 0.6751 0.08285 0.83847 0.0
C741 C 0.62706 0.05985 0.89058 0.0
C742 C 0.59768 0.06474 0.91818 0.0
C743 C 0.64424 0.0865 0.8646 0.0
C744 C 0.58359 0.09488 0.91802 0.0
C745 C 0.60056 0.12165 0.8921 0.0
H746 H 0.98306 0.71384 0.88473 0.0
H747 H 0.86132 0.6227 0.88004 0.0
H748 H 0.87798 0.57734 0.90691 0.0
H749 H 0.92532 0.56564 0.9366 0.0
H750 H 0.04636 0.65775 0.94418 0.0
H751 H 0.03182 0.7001 0.91114 0.0
C752 C 0.96014 0.68407 0.88959 0.0
C753 C 0.92088 0.672 0.88034 0.0
C754 C 0.9698 0.65811 0.90562 0.0
C755 C 0.89187 0.63287 0.88636 0.0
C756 C 0.90131 0.60688 0.90199 0.0
C757 C 0.94886 0.5946 0.93046 0.0
C758 C 0.98692 0.60838 0.94314 0.0
C759 C 0.94 0.6194 0.91226 0.0
C760 C 1.01678 0.64623 0.93494 0.0
C761 C 1.0084 0.67067 0.91619 0.0
H762 H 0.07639 0.27829 0.13235 0.0
H763 H 0.19735 0.37058 0.14002 0.0
H764 H 0.18126 0.41555 0.11201 0.0
H765 H 0.13438 0.42725 0.0816 0.0
H766 H 1.01366 0.33484 0.07265 0.0
H767 H 0.02782 0.29233 0.10581 0.0
C768 C 0.09912 0.30846 0.12842 0.0
C769 C 0.13829 0.32052 0.13797 0.0
C770 C 0.08966 0.33446 0.11215 0.0
C771 C 0.16724 0.35981 0.13227 0.0
C772 C 0.15798 0.38582 0.11646 0.0
C773 C 0.11082 0.39819 0.08746 0.0
C774 C 0.07292 0.38448 0.07443 0.0
C775 C 0.11948 0.37326 0.10574 0.0
C776 C 0.04308 0.34642 0.08222 0.0
C777 C 0.05126 0.32186 0.10104 0.0
H778 H 0.15873 0.67435 0.84043 0.0
H779 H 0.26172 0.64391 0.82525 0.0
H780 H 0.23019 0.59747 0.86966 0.0
H781 H 0.17477 0.56617 0.91363 0.0
H782 H 0.07035 0.59362 0.92911 0.0
H783 H 0.10117 0.6405 0.88399 0.0
C784 C 0.17422 0.65748 0.84675 0.0
C785 C 0.21268 0.66297 0.82935 0.0
C786 C 0.15583 0.63036 0.87259 0.0
C787 C 0.23214 0.64059 0.83794 0.0
C788 C 0.21419 0.61391 0.86352 0.0
C789 C 0.1586 0.58237 0.9073 0.0
C790 C 0.12044 0.57671 0.9252 0.0
C791 C 0.17625 0.60876 0.88114 0.0
C792 C 0.09993 0.59772 0.91613 0.0
C793 C 0.11753 0.62446 0.89021 0.0
H794 H 0.40605 0.14722 0.87909 0.0
H795 H 0.31764 0.02285 0.85354 0.0
H796 H 0.35631 -0.00299 0.87974 0.0
H797 H 0.4102 0.01072 0.91679 0.0
H798 H 0.49797 0.13518 0.94393 0.0
H799 H 0.46557 0.15963 0.90861 0.0
C800 C 0.39568 0.11437 0.87846 0.0
C801 C 0.35852 0.08713 0.86505 0.0
C802 C 0.418 0.09968 0.89378 0.0
C803 C 0.34555 0.04464 0.8646 0.0
C804 C 0.36779 0.02978 0.87935 0.0
C805 C 0.42285 0.04311 0.91441 0.0
C806 C 0.45598 0.07116 0.93378 0.0
C807 C 0.40333 0.05718 0.89511 0.0
C808 C 0.47228 0.11288 0.9297 0.0
C809 C 0.45352 0.12699 0.90975 0.0
H810 H 0.82964 0.37556 0.85259 0.0
H811 H 0.78609 0.26186 0.89562 0.0
H812 H 0.8343 0.29437 0.94162 0.0
H813 H 0.89589 0.3512 0.96263 0.0
H814 H 0.93946 0.46597 0.92185 0.0
H815 H 0.88409 0.43733 0.88251 0.0
C816 C 0.82998 0.35836 0.87275 0.0
C817 C 0.80505 0.31611 0.87009 0.0
C818 C 0.85827 0.37721 0.89917 0.0
C819 C 0.80556 0.29424 0.8966 0.0
C820 C 0.83322 0.31273 0.9229 0.0
C821 C 0.89274 0.37013 0.94565 0.0
C822 C 0.92196 0.41019 0.94448 0.0
C823 C 0.86093 0.35354 0.92327 0.0
C824 C 0.91731 0.43484 0.92298 0.0
C825 C 0.8858 0.41841 0.90033 0.0
H826 H 0.76275 0.86273 0.86684 0.0
H827 H 0.6725 0.79033 0.79095 0.0
H828 H 0.62654 0.81846 0.82818 0.0
H829 H 0.61081 0.8628 0.88278 0.0
H830 H 0.70171 0.94021 0.95659 0.0
H831 H 0.74823 0.91154 0.91994 0.0
C832 C 0.73308 0.8533 0.85851 0.0
C833 C 0.72123 0.82435 0.82606 0.0
C834 C 0.70673 0.87062 0.87972 0.0
C835 C 0.68268 0.81274 0.81554 0.0
C836 C 0.65618 0.82872 0.83693 0.0
C837 C 0.64085 0.87353 0.89079 0.0
C838 C 0.65258 0.90349 0.92255 0.0
C839 C 0.66774 0.85759 0.86911 0.0
C840 C 0.69186 0.91732 0.93221 0.0
C841 C 0.71847 0.90076 0.91131 0.0
H842 H 0.80801 0.62684 0.18525 0.0
H843 H 0.89479 0.75108 0.17911 0.0
H844 H 0.94142 0.72441 0.13985 0.0
H845 H 0.95768 0.66549 0.10714 0.0
H846 H 0.86909 0.54159 0.11127 0.0
H847 H 0.82335 0.56844 0.15153 0.0
C848 C 0.83711 0.6482 0.17536 0.0
C849 C 0.8478 0.691 0.18531 0.0
C850 C 0.86363 0.63264 0.15248 0.0
C851 C 0.8856 0.71803 0.17186 0.0
C852 C 0.91239 0.70277 0.14948 0.0
C853 C 0.92847 0.64438 0.11707 0.0
C854 C 0.91701 0.60151 0.10631 0.0
C855 C 0.9018 0.6601 0.13968 0.0
C856 C 0.87875 0.57467 0.11901 0.0
C857 C 0.85252 0.59001 0.14208 0.0
H858 H 0.39715 0.82287 0.18956 0.0
H859 H 0.31519 0.88263 0.22504 0.0
H860 H 0.35191 0.9311 0.18232 0.0
H861 H 0.40173 0.95092 0.13022 0.0
H862 H 0.48292 0.89079 0.09294 0.0
H863 H 0.45224 0.84815 0.14167 0.0
C864 C 0.38755 0.84681 0.18833 0.0
C865 C 0.35297 0.84862 0.20999 0.0
C866 C 0.40842 0.87418 0.16327 0.0
C867 C 0.34141 0.88024 0.20846 0.0
C868 C 0.36231 0.9079 0.18395 0.0
C869 C 0.41296 0.92868 0.13292 0.0
C870 C 0.44389 0.92324 0.10765 0.0
C871 C 0.39494 0.90421 0.16045 0.0
C872 C 0.45893 0.89523 0.11198 0.0
C873 C 0.44126 0.87078 0.13967 0.0
H874 H 0.72575 0.13633 0.15544 0.0
H875 H 0.72358 0.25362 0.15355 0.0
H876 H 0.67753 0.2216 0.10563 0.0
H877 H 0.63089 0.15916 0.07084 0.0
H878 H 0.631 0.04139 0.07394 0.0
H879 H 0.68538 0.07485 0.11396 0.0
C880 C 0.71578 0.155 0.14406 0.0
C881 C 0.7274 0.19707 0.15866 0.0
C882 C 0.68869 0.13629 0.11681 0.0
C883 C 0.71453 0.22095 0.14333 0.0
C884 C 0.68817 0.20271 0.11587 0.0
C885 C 0.64325 0.14084 0.07972 0.0
C886 C 0.62636 0.09775 0.06989 0.0
C887 C 0.67391 0.16018 0.10344 0.0
C888 C 0.64323 0.07459 0.08117 0.0
C889 C 0.67422 0.09369 0.10433 0.0
H890 H 0.65322 0.66055 0.82947 0.0
H891 H 0.76704 0.66254 0.84424 0.0
H892 H 0.73662 0.62628 0.89637 0.0
H893 H 0.67844 0.59461 0.93881 0.0
H894 H 0.56349 0.58849 0.92364 0.0
H895 H 0.59338 0.62567 0.87129 0.0
C896 C 0.67129 0.65277 0.8439 0.0
C897 C 0.71258 0.66457 0.83259 0.0
C898 C 0.65344 0.63138 0.87423 0.0
C899 C 0.73531 0.65406 0.85191 0.0
C900 C 0.71795 0.63334 0.88202 0.0
C901 C 0.65985 0.60161 0.92429 0.0
C902 C 0.61861 0.58895 0.9356 0.0
C903 C 0.67718 0.62213 0.89365 0.0
C904 C 0.59515 0.5978 0.91578 0.0
C905 C 0.61235 0.6191 0.88571 0.0
H906 H 0.42161 0.57947 0.80512 0.0
H907 H 0.47763 0.70114 0.86788 0.0
H908 H 0.50336 0.67378 0.9068 0.0
H909 H 0.50542 0.61508 0.92628 0.0
H910 H 0.44721 0.49246 0.8659 0.0
H911 H 0.42836 0.52071 0.82198 0.0
C912 C 0.43991 0.6001 0.82699 0.0
C913 C 0.44716 0.64234 0.83378 0.0
C914 C 0.45449 0.58404 0.84959 0.0
C915 C 0.47079 0.66846 0.86244 0.0
C916 C 0.4858 0.65287 0.88458 0.0
C917 C 0.4892 0.59437 0.90319 0.0
C918 C 0.47755 0.55148 0.89979 0.0
C919 C 0.47719 0.61063 0.87887 0.0
C920 C 0.4567 0.52552 0.86939 0.0
C921 C 0.44553 0.54166 0.84442 0.0
H922 H 0.38111 0.26771 0.84153 0.0
H923 H 0.39575 0.37395 0.79775 0.0
H924 H 0.44848 0.41813 0.83858 0.0
H925 H 0.48685 0.42699 0.88962 0.0
H926 H 0.47509 0.32064 0.93134 0.0
H927 H 0.42477 0.27572 0.88816 0.0
C928 C 0.39618 0.3005 0.84073 0.0
C929 C 0.38441 0.31773 0.817 0.0
C930 C 0.42666 0.32554 0.86397 0.0
C931 C 0.40443 0.36006 0.81573 0.0
C932 C 0.43435 0.38531 0.83921 0.0
C933 C 0.47339 0.39392 0.88906 0.0
C934 C 0.48411 0.37704 0.91384 0.0
C935 C 0.44513 0.36847 0.86389 0.0
C936 C 0.46717 0.33419 0.9125 0.0
C937 C 0.43836 0.30862 0.88795 0.0
H938 H 0.77403 0.44044 0.85725 0.0
H939 H 0.7251 0.50667 0.812 0.0
H940 H 0.71695 0.54466 0.8736 0.0
H941 H 0.70023 0.538 0.93878 0.0
H942 H 0.72996 0.4546 0.98108 0.0
H943 H 0.77058 0.44539 0.92343 0.0
C944 C 0.76356 0.46477 0.86061 0.0
C945 C 0.74922 0.4702 0.83051 0.0
C946 C 0.75464 0.4826 0.89634 0.0
C947 C 0.73581 0.50175 0.83501 0.0
C948 C 0.73068 0.52299 0.87031 0.0
C949 C 0.71751 0.51965 0.93588 0.0
C950 C 0.71223 0.49671 0.96354 0.0
C951 C 0.73638 0.51065 0.90125 0.0
C952 C 0.73387 0.47243 0.95989 0.0
C953 C 0.75653 0.46679 0.92675 0.0
H954 H 0.59869 0.34167 0.1859 0.0
H955 H 0.69989 0.45548 0.21554 0.0
H956 H 0.68126 0.48902 0.17622 0.0
H957 H 0.63943 0.48429 0.12926 0.0
H958 H 0.54156 0.36847 0.09646 0.0
H959 H 0.55471 0.3381 0.142 0.0
C960 C 0.61629 0.37401 0.18428 0.0
C961 C 0.65075 0.39593 0.20356 0.0
C962 C 0.60578 0.39291 0.16113 0.0
C963 C 0.67353 0.4377 0.20064 0.0
C964 C 0.66277 0.45697 0.17828 0.0
C965 C 0.62036 0.45272 0.13272 0.0
C966 C 0.58919 0.42895 0.10965 0.0
C967 C 0.62936 0.43468 0.15783 0.0
C968 C 0.56536 0.38777 0.11407 0.0
C969 C 0.57315 0.37016 0.1399 0.0
H970 H 0.67049 0.70882 0.17672 0.0
H971 H 0.66005 0.60216 0.21716 0.0
H972 H 0.61121 0.55716 0.17285 0.0
H973 H 0.57459 0.54819 0.12034 0.0
H974 H 0.58189 0.65491 0.08223 0.0
H975 H 0.6289 0.70015 0.1281 0.0
C976 C 0.65714 0.67573 0.17606 0.0
C977 C 0.66895 0.65869 0.19993 0.0
C978 C 0.62884 0.65023 0.15086 0.0
C979 C 0.65121 0.61591 0.19918 0.0
C980 C 0.62354 0.59022 0.17371 0.0
C981 C 0.58643 0.58138 0.12219 0.0
C982 C 0.57532 0.59831 0.09771 0.0
C983 C 0.61267 0.60703 0.14904 0.0
C984 C 0.59014 0.64129 0.10078 0.0
C985 C 0.61703 0.66707 0.12691 0.0
H986 H 0.29037 0.54309 0.13145 0.0
H987 H 0.34107 0.64415 0.06994 0.0
H988 H 0.34184 0.59702 0.0131 0.0
H989 H 0.35846 0.53788 0.9893 0.0
H990 H 0.32721 0.44431 0.05579 0.0
H991 H 0.28751 0.47526 0.10072 0.0
C992 C 0.30072 0.55455 0.10541 0.0
C993 C 0.31841 0.59725 0.10526 0.0
C994 C 0.30531 0.52793 0.07335 0.0
C995 C 0.32874 0.61159 0.07125 0.0
C996 C 0.32954 0.58456 0.03853 0.0
C997 C 0.34075 0.52306 0.01257 0.0
C998 C 0.34694 0.4906 0.02071 0.0
C999 C 0.32255 0.54399 0.04019 0.0
C1000 C 0.32343 0.47021 0.04982 0.0
C1001 C 0.30145 0.48847 0.07586 0.0
H1002 H 0.40465 0.33152 0.18889 0.0
H1003 H 0.29038 0.32371 0.16837 0.0
H1004 H 0.32062 0.35334 0.11241 0.0
H1005 H 0.37928 0.38186 0.06886 0.0
H1006 H 0.49475 0.39502 0.09077 0.0
H1007 H 0.46447 0.36273 0.14594 0.0
C1008 C 0.38638 0.33652 0.17233 0.0
C1009 C 0.34502 0.32503 0.18313 0.0
C1010 C 0.40418 0.35421 0.13997 0.0
C1011 C 0.3221 0.33196 0.16106 0.0
C1012 C 0.33941 0.34889 0.1288 0.0
C1013 C 0.39784 0.37719 0.08536 0.0
C1014 C 0.43933 0.39013 0.07502 0.0
C1015 C 0.38033 0.35993 0.11782 0.0
C1016 C 0.46279 0.38474 0.09757 0.0
C1017 C 0.44543 0.36652 0.12935 0.0
H1018 H 0.88281 0.7021 0.70708 0.0
H1019 H 0.76907 0.62573 0.66296 0.0
H1020 H 0.79955 0.58306 0.62002 0.0
H1021 H 0.85994 0.56891 0.59313 0.0
H1022 H 0.97302 0.64787 0.63789 0.0
H1023 H 0.94133 0.68745 0.68213 0.0
C1024 C 0.86443 0.67609 0.68821 0.0
C1025 C 0.82356 0.66748 0.6884 0.0
C1026 C 0.8822 0.65191 0.66342 0.0
C1027 C 0.80057 0.63336 0.6636 0.0
C1028 C 0.81805 0.60887 0.63892 0.0
C1029 C 0.87751 0.59453 0.61279 0.0
C1030 C 0.91905 0.60529 0.61178 0.0
C1031 C 0.85903 0.618 0.63832 0.0
C1032 C 0.94121 0.63887 0.63751 0.0
C1033 C 0.92308 0.66167 0.66301 0.0
H1034 H 0.39663 0.82051 0.67456 0.0
H1035 H 0.30716 0.87127 0.70521 0.0
H1036 H 0.34266 0.92096 0.66377 0.0
H1037 H 0.39662 0.94788 0.61682 0.0
H1038 H 0.48699 0.89881 0.58559 0.0
H1039 H 0.45368 0.85079 0.62954 0.0
C1040 C 0.38496 0.84253 0.67231 0.0
C1041 C 0.34902 0.84175 0.69287 0.0
C1042 C 0.40555 0.87126 0.64826 0.0
C1043 C 0.33464 0.87089 0.6898 0.0
C1044 C 0.35488 0.89938 0.666 0.0
C1045 C 0.4092 0.92677 0.61956 0.0
C1046 C 0.44394 0.9265 0.59745 0.0
C1047 C 0.38997 0.89945 0.64477 0.0
C1048 C 0.46013 0.89943 0.60199 0.0
C1049 C 0.44103 0.87192 0.6271 0.0
H1050 H 0.13895 0.33536 0.64969 0.0
H1051 H 0.23418 0.45727 0.66405 0.0
H1052 H 0.1957 0.48365 0.6386 0.0
H1053 H 0.13966 0.47075 0.60503 0.0
H1054 H 0.04585 0.34843 0.58633 0.0
H1055 H 0.07865 0.32393 0.62138 0.0
C1056 C 0.1512 0.36773 0.6474 0.0
C1057 C 0.18969 0.39413 0.65854 0.0
C1058 C 0.12917 0.3827 0.6319 0.0
C1059 C 0.20463 0.4362 0.65607 0.0
C1060 C 0.18272 0.45134 0.64124 0.0
C1061 C 0.12586 0.43884 0.60911 0.0
C1062 C 0.09069 0.41135 0.59237 0.0
C1063 C 0.14555 0.42467 0.62811 0.0
C1064 C 0.07303 0.3703 0.59861 0.0
C1065 C 0.09201 0.35615 0.61839 0.0
H1066 H 0.71312 0.1182 0.67847 0.0
H1067 H 0.75611 0.23744 0.6463 0.0
H1068 H 0.72148 0.20623 0.58999 0.0
H1069 H 0.66909 0.1472 0.55678 0.0
H1070 H 0.62518 0.02761 0.58881 0.0
H1071 H 0.67094 0.05623 0.63742 0.0
C1072 C 0.71599 0.13692 0.65832 0.0
C1073 C 0.73703 0.17987 0.66612 0.0
C1074 C 0.6955 0.11872 0.62622 0.0
C1075 C 0.74027 0.20421 0.64041 0.0
C1076 C 0.72025 0.18642 0.60842 0.0
C1077 C 0.67048 0.12716 0.57365 0.0
C1078 C 0.64332 0.08557 0.56965 0.0
C1079 C 0.6963 0.144 0.60196 0.0
C1080 C 0.64573 0.05978 0.59135 0.0
C1081 C 0.67159 0.07625 0.61948 0.0
H1082 H 0.82585 0.35622 0.36776 0.0
H1083 H 0.84031 0.24318 0.35966 0.0
H1084 H 0.87824 0.27196 0.4139 0.0
H1085 H 0.91551 0.33182 0.45662 0.0
H1086 H 0.90967 0.44852 0.45993 0.0
H1087 H 0.85904 0.4156 0.4156 0.0
C1088 C 0.83672 0.33786 0.37853 0.0
C1089 C 0.83084 0.29795 0.35997 0.0
C1090 C 0.86011 0.35533 0.40869 0.0
C1091 C 0.84505 0.27418 0.37359 0.0
C1092 C 0.86662 0.29057 0.40451 0.0
C1093 C 0.90275 0.3501 0.44827 0.0
C1094 C 0.91711 0.39279 0.46096 0.0
C1095 C 0.87562 0.33158 0.42131 0.0
C1096 C 0.89952 0.41567 0.45032 0.0
C1097 C 0.87079 0.39691 0.42469 0.0
H1098 H 0.66988 0.79814 0.29758 0.0
H1099 H 0.72776 0.78893 0.38397 0.0
H1100 H 0.70002 0.83256 0.42869 0.0
H1101 H 0.65872 0.87348 0.44367 0.0
H1102 H 0.59675 0.87791 0.3583 0.0
H1103 H 0.62693 0.83676 0.31286 0.0
C1104 C 0.67628 0.80547 0.32623 0.0
C1105 C 0.70086 0.79001 0.33728 0.0
C1106 C 0.65978 0.83026 0.35201 0.0
C1107 C 0.70867 0.79991 0.37463 0.0
C1108 C 0.69301 0.82518 0.40024 0.0
C1109 C 0.65234 0.86581 0.41499 0.0
C1110 C 0.62617 0.87934 0.40412 0.0
C1111 C 0.66861 0.84069 0.38928 0.0
C1112 C 0.61719 0.86826 0.36715 0.0
C1113 C 0.63428 0.84455 0.34123 0.0
H1114 H 0.15339 0.66648 0.33744 0.0
H1115 H 0.25599 0.63687 0.327 0.0
H1116 H 0.22041 0.58604 0.3675 0.0
H1117 H 0.16296 0.55348 0.40851 0.0
H1118 H 0.06034 0.58405 0.42376 0.0
H1119 H 0.09288 0.63077 0.37825 0.0
C1120 C 0.16763 0.64863 0.34384 0.0
C1121 C 0.20736 0.65575 0.32948 0.0
C1122 C 0.14716 0.61985 0.36805 0.0
C1123 C 0.22564 0.63241 0.33803 0.0
C1124 C 0.2053 0.60324 0.36113 0.0
C1125 C 0.14733 0.57014 0.40203 0.0
C1126 C 0.10937 0.56561 0.42007 0.0
C1127 C 0.16645 0.59732 0.37677 0.0
C1128 C 0.08965 0.58712 0.41056 0.0
C1129 C 0.10834 0.61393 0.38461 0.0
H1130 H 0.41602 0.14916 0.37009 0.0
H1131 H 0.50545 0.26778 0.41185 0.0
H1132 H 0.53338 0.23442 0.44236 0.0
H1133 H 0.52962 0.17184 0.46101 0.0
H1134 H 0.44053 0.05339 0.41849 0.0
H1135 H 0.41657 0.08635 0.38351 0.0
C1136 C 0.4421 0.16784 0.38522 0.0
C1137 C 0.45804 0.21119 0.3889 0.0
C1138 C 0.45839 0.1484 0.40255 0.0
C1139 C 0.49167 0.23452 0.40916 0.0
C1140 C 0.508 0.2154 0.42643 0.0
C1141 C 0.50554 0.15309 0.44348 0.0
C1142 C 0.48683 0.1101 0.44275 0.0
C1143 C 0.49121 0.17238 0.42387 0.0
C1144 C 0.45548 0.08651 0.41989 0.0
C1145 C 0.44153 0.10539 0.39996 0.0
H1146 H 0.64042 0.85442 0.65543 0.0
H1147 H 0.56684 0.7342 0.59976 0.0
H1148 H 0.5381 0.76545 0.56778 0.0
H1149 H 0.53797 0.82714 0.55124 0.0
H1150 H 0.6146 0.94758 0.60378 0.0
H1151 H 0.63764 0.91609 0.6413 0.0
C1152 C 0.61818 0.835 0.63624 0.0
C1153 C 0.60607 0.79188 0.63009 0.0
C1154 C 0.60216 0.85327 0.61729 0.0
C1155 C 0.57656 0.76735 0.60555 0.0
C1156 C 0.56019 0.78525 0.58699 0.0
C1157 C 0.55902 0.84653 0.57149 0.0
C1158 C 0.57449 0.88972 0.5746 0.0
C1159 C 0.57317 0.8282 0.59219 0.0
C1160 C 0.60219 0.91428 0.60071 0.0
C1161 C 0.61559 0.89627 0.62206 0.0
H1162 H 0.66168 0.17585 0.33894 0.0
H1163 H 0.75103 0.12516 0.30696 0.0
H1164 H 0.71658 0.07568 0.3487 0.0
H1165 H 0.66426 0.04962 0.39697 0.0
H1166 H 0.57397 0.09857 0.43021 0.0
H1167 H 0.60537 0.14557 0.3852 0.0
C1168 C 0.67324 0.15362 0.34082 0.0
C1169 C 0.70917 0.15465 0.3202 0.0
C1170 C 0.65337 0.12514 0.36533 0.0
C1171 C 0.72377 0.12556 0.32289 0.0
C1172 C 0.70409 0.09713 0.34676 0.0
C1173 C 0.65128 0.07048 0.39443 0.0
C1174 C 0.61718 0.07104 0.41743 0.0
C1175 C 0.66943 0.09723 0.36863 0.0
C1176 C 0.60043 0.09776 0.41314 0.0
C1177 C 0.61841 0.12467 0.38737 0.0
H1178 H 0.90684 0.6518 0.38311 0.0
H1179 H 0.82187 0.5256 0.35816 0.0
H1180 H 0.86227 0.5025 0.38499 0.0
H1181 H 0.91722 0.5185 0.42153 0.0
H1182 H 1.00232 0.64433 0.44778 0.0
H1183 H 0.96741 0.66684 0.41305 0.0
C1184 C 0.89755 0.61917 0.38286 0.0
C1185 C 0.86074 0.59062 0.3693 0.0
C1186 C 0.92105 0.60594 0.39849 0.0
C1187 C 0.84934 0.54844 0.3693 0.0
C1188 C 0.87261 0.53511 0.38442 0.0
C1189 C 0.92871 0.55081 0.41912 0.0
C1190 C 0.96205 0.5797 0.43783 0.0
C1191 C 0.90785 0.56366 0.40005 0.0
C1192 C 0.97671 0.62133 0.43383 0.0
C1193 C 0.95645 0.63431 0.41426 0.0
H1194 H 0.33134 0.87698 0.35377 0.0
H1195 H 0.2932 0.76004 0.38905 0.0
H1196 H 0.33463 0.79321 0.44091 0.0
H1197 H 0.39204 0.85237 0.46719 0.0
H1198 H 0.43206 0.96942 0.43118 0.0
H1199 H 0.379 0.93987 0.38938 0.0
C1200 C 0.33084 0.8593 0.37391 0.0
C1201 C 0.30933 0.81636 0.36805 0.0
C1202 C 0.3557 0.8785 0.40302 0.0
C1203 C 0.30931 0.79327 0.39356 0.0
C1204 C 0.33332 0.81215 0.4229 0.0
C1205 C 0.38838 0.87167 0.45096 0.0
C1206 C 0.41639 0.91266 0.45157 0.0
C1207 C 0.35828 0.8543 0.4266 0.0
C1208 C 0.41099 0.93764 0.43098 0.0
C1209 C 0.38085 0.92066 0.40682 0.0
H1210 H 0.17554 0.29235 0.32221 0.0
H1211 H 0.29079 0.37806 0.35864 0.0
H1212 H 0.25866 0.41852 0.40284 0.0
H1213 H 0.19657 0.42831 0.43274 0.0
H1214 H 0.08243 0.33983 0.39519 0.0
H1215 H 0.11544 0.30225 0.35024 0.0
C1216 C 0.19396 0.31994 0.33963 0.0
C1217 C 0.23577 0.33185 0.33684 0.0
C1218 C 0.17528 0.34276 0.36514 0.0
C1219 C 0.25864 0.36792 0.35993 0.0
C1220 C 0.24018 0.3911 0.38534 0.0
C1221 C 0.17899 0.40096 0.41458 0.0
C1222 C 0.13676 0.3871 0.41786 0.0
C1223 C 0.19835 0.3787 0.38845 0.0
C1224 C 0.11473 0.35137 0.39392 0.0
C1225 C 0.13364 0.32968 0.36795 0.0
H1226 H 0.38599 0.18917 0.72236 0.0
H1227 H 0.31607 0.18525 0.63943 0.0
H1228 H 0.34757 0.14614 0.59342 0.0
H1229 H 0.39561 0.11326 0.5763 0.0
H1230 H 0.47034 0.12313 0.65738 0.0
H1231 H 0.43637 0.15919 0.70448 0.0
C1232 C 0.37776 0.17981 0.69419 0.0
C1233 C 0.34872 0.19016 0.68438 0.0
C1234 C 0.39675 0.1581 0.66754 0.0
C1235 C 0.33858 0.17805 0.64768 0.0
C1236 C 0.35643 0.15545 0.62135 0.0
C1237 C 0.40412 0.12306 0.60439 0.0
C1238 C 0.43498 0.11513 0.61359 0.0
C1239 C 0.38554 0.14525 0.63092 0.0
C1240 C 0.44647 0.12875 0.6498 0.0
C1241 C 0.42711 0.14942 0.67669 0.0
H1242 H 0.89764 0.32814 0.69722 0.0
H1243 H 0.79865 0.36326 0.70652 0.0
H1244 H 0.83584 0.41266 0.66561 0.0
H1245 H 0.89305 0.44216 0.62375 0.0
H1246 H 0.99167 0.4052 0.60704 0.0
H1247 H 0.95837 0.36046 0.65422 0.0
C1248 C 0.88465 0.34696 0.69046 0.0
C1249 C 0.84542 0.34197 0.70522 0.0
C1250 C 0.90592 0.37467 0.66527 0.0
C1251 C 0.82871 0.3664 0.696 0.0
C1252 C 0.84994 0.39468 0.67234 0.0
C1253 C 0.90767 0.42451 0.63021 0.0
C1254 C 0.94468 0.42673 0.61132 0.0
C1255 C 0.88807 0.39842 0.65629 0.0
C1256 C 0.9631 0.40399 0.62091 0.0
C1257 C 0.94395 0.3783 0.64783 0.0
H1258 H 0.25592 0.6473 0.6337 0.0
H1259 H 0.18103 0.6902 0.71831 0.0
H1260 H 0.12716 0.66131 0.67769 0.0
H1261 H 0.10143 0.62371 0.61861 0.0
H1262 H 0.17106 0.57125 0.53639 0.0
H1263 H 0.22721 0.60341 0.57566 0.0
C1264 C 0.22776 0.65025 0.64305 0.0
C1265 C 0.22297 0.67294 0.67801 0.0
C1266 C 0.19626 0.63172 0.62007 0.0
C1267 C 0.18612 0.67547 0.69051 0.0
C1268 C 0.15515 0.65825 0.66758 0.0
C1269 C 0.12913 0.61972 0.60916 0.0
C1270 C 0.1329 0.59628 0.57452 0.0
C1271 C 0.16012 0.6368 0.63223 0.0
C1272 C 0.16808 0.58984 0.56288 0.0
C1273 C 0.19994 0.60808 0.58531 0.0
loop_
_geom_bond_atom_site_label_1
_geom_bond_atom_site_label_2
_geom_bond_distance
_geom_bond_site_symmetry_2
_ccdc_geom_bond_type
Eu0 C9 2.828 . S
Eu0 O11 2.392 . S
Eu0 O13 2.418 . S
Eu0 O18 2.373 . S
Eu0 O21 2.488 . S
Eu0 O22 2.471 . S
Eu0 O23 2.349 . S
Eu1 O10 2.373 . S
Eu1 O14 2.488 . S
Eu1 O15 2.471 . S
Eu1 O16 2.349 . S
Eu1 O19 2.392 . S
Eu1 O20 2.418 . S
Eu1 C30 2.828 . S
C2 O20 1.244 . S
C2 O23 1.265 . S
C3 C4 1.379 . S
C3 C7 1.373 . S
C3 C9 1.505 . S
C4 C3 1.379 . S
C4 C6 1.369 . S
C4 H32 0.930 . S
C5 C7 1.383 . S
C5 C8 1.382 . S
C5 H33 0.930 . S
C6 C4 1.369 . S
C6 C8 1.392 . S
C6 H34 0.930 . S
C7 C3 1.373 . S
C7 C5 1.383 . S
C7 H35 0.931 . S
C8 C5 1.382 . S
C8 C6 1.392 . S
C9 Eu0 2.828 . S
C9 C3 1.505 . S
C9 O21 1.249 . S
C9 O22 1.244 . S
O10 Eu1 2.373 . S
O10 C12 1.258 . S
O11 Eu0 2.392 . S
O11 C12 1.242 . S
C12 O10 1.258 . S
C12 O11 1.242 . S
O13 Eu0 2.418 . S
O13 C17 1.244 . S
O14 Eu1 2.488 . S
O14 C30 1.249 . S
O15 Eu1 2.471 . S
O15 C30 1.244 . S
O16 Eu1 2.349 . S
O16 C17 1.265 . S
C17 O13 1.244 . S
C17 O16 1.265 . S
O18 Eu0 2.373 . S
O18 C31 1.258 . S
O19 Eu1 2.392 . S
O19 C31 1.242 . S
O20 Eu1 2.418 . S
O20 C2 1.244 . S
O21 Eu0 2.488 . S
O21 C9 1.249 . S
O22 Eu0 2.471 . S
O22 C9 1.244 . S
O23 Eu0 2.349 . S
O23 C2 1.265 . S
C24 C25 1.379 . S
C24 C28 1.373 . S
C24 C30 1.505 . S
C25 C24 1.379 . S
C25 C27 1.369 . S
C25 H36 0.930 . S
C26 C28 1.383 . S
C26 C29 1.382 . S
C26 H37 0.930 . S
C27 C25 1.369 . S
C27 C29 1.392 . S
C27 H38 0.930 . S
C28 C24 1.373 . S
C28 C26 1.383 . S
C28 H39 0.931 . S
C29 C26 1.382 . S
C29 C27 1.392 . S
C30 Eu1 2.828 . S
C30 O14 1.249 . S
C30 O15 1.244 . S
C30 C24 1.505 . S
C31 O18 1.258 . S
C31 O19 1.242 . S
H32 C4 0.930 . S
H33 C5 0.930 . S
H34 C6 0.930 . S
H35 C7 0.931 . S
H36 C25 0.930 . S
H37 C26 0.930 . S
H38 C27 0.930 . S
H39 C28 0.931 . S
Eu40 C49 2.828 . S
Eu40 O51 2.392 . S
Eu40 O53 2.418 . S
Eu40 O58 2.373 . S
Eu40 O61 2.488 . S
Eu40 O62 2.471 . S
Eu40 O63 2.349 . S
Eu41 O50 2.373 . S
Eu41 O54 2.488 . S
Eu41 O55 2.471 . S
Eu41 O56 2.349 . S
Eu41 O59 2.392 . S
Eu41 O60 2.418 . S
Eu41 C70 2.828 . S
C42 O60 1.244 . S
C42 O63 1.265 . S
C43 C44 1.379 . S
C43 C47 1.373 . S
C43 C49 1.505 . S
C44 C43 1.379 . S
C44 C46 1.369 . S
C44 H72 0.930 . S
C45 C47 1.383 . S
C45 C48 1.382 . S
C45 H73 0.930 . S
C46 C44 1.369 . S
C46 C48 1.392 . S
C46 H74 0.930 . S
C47 C43 1.373 . S
C47 C45 1.383 . S
C47 H75 0.931 . S
C48 C45 1.382 . S
C48 C46 1.392 . S
C49 Eu40 2.828 . S
C49 C43 1.505 . S
C49 O61 1.249 . S
C49 O62 1.244 . S
O50 Eu41 2.373 . S
O50 C52 1.258 . S
O51 Eu40 2.392 . S
O51 C52 1.242 . S
C52 O50 1.258 . S
C52 O51 1.242 . S
O53 Eu40 2.418 . S
O53 C57 1.244 . S
O54 Eu41 2.488 . S
O54 C70 1.249 . S
O55 Eu41 2.471 . S
O55 C70 1.244 . S
O56 Eu41 2.349 . S
O56 C57 1.265 . S
C57 O53 1.244 . S
C57 O56 1.265 . S
O58 Eu40 2.373 . S
O58 C71 1.258 . S
O59 Eu41 2.392 . S
O59 C71 1.242 . S
O60 Eu41 2.418 . S
O60 C42 1.244 . S
O61 Eu40 2.488 . S
O61 C49 1.249 . S
O62 Eu40 2.471 . S
O62 C49 1.244 . S
O63 Eu40 2.349 . S
O63 C42 1.265 . S
C64 C65 1.379 . S
C64 C68 1.373 . S
C64 C70 1.505 . S
C65 C64 1.379 . S
C65 C67 1.369 . S
C65 H76 0.930 . S
C66 C68 1.383 . S
C66 C69 1.382 . S
C66 H77 0.930 . S
C67 C65 1.369 . S
C67 C69 1.392 . S
C67 H78 0.930 . S
C68 C64 1.373 . S
C68 C66 1.383 . S
C68 H79 0.931 . S
C69 C66 1.382 . S
C69 C67 1.392 . S
C70 Eu41 2.828 . S
C70 O54 1.249 . S
C70 O55 1.244 . S
C70 C64 1.505 . S
C71 O58 1.258 . S
C71 O59 1.242 . S
H72 C44 0.930 . S
H73 C45 0.930 . S
H74 C46 0.930 . S
H75 C47 0.931 . S
H76 C65 0.930 . S
H77 C66 0.930 . S
H78 C67 0.930 . S
H79 C68 0.931 . S
Eu80 C89 2.828 . S
Eu80 O91 2.392 . S
Eu80 O93 2.418 . S
Eu80 O98 2.373 . S
Eu80 O101 2.488 . S
Eu80 O102 2.471 . S
Eu80 O103 2.349 . S
Eu81 O90 2.373 . S
Eu81 O94 2.488 . S
Eu81 O95 2.471 . S
Eu81 O96 2.349 . S
Eu81 O99 2.392 . S
Eu81 O100 2.418 . S
Eu81 C110 2.828 . S
C82 O100 1.244 . S
C82 O103 1.265 . S
C83 C84 1.379 . S
C83 C87 1.373 . S
C83 C89 1.505 . S
C84 C83 1.379 . S
C84 C86 1.369 . S
C84 H112 0.930 . S
C85 C87 1.383 . S
C85 C88 1.382 . S
C85 H113 0.930 . S
C86 C84 1.369 . S
C86 C88 1.392 . S
C86 H114 0.930 . S
C87 C83 1.373 . S
C87 C85 1.383 . S
C87 H115 0.931 . S
C88 C85 1.382 . S
C88 C86 1.392 . S
C89 Eu80 2.828 . S
C89 C83 1.505 . S
C89 O101 1.249 . S
C89 O102 1.244 . S
O90 Eu81 2.373 . S
O90 C92 1.258 . S
O91 Eu80 2.392 . S
O91 C92 1.242 . S
C92 O90 1.258 . S
C92 O91 1.242 . S
O93 Eu80 2.418 . S
O93 C97 1.244 . S
O94 Eu81 2.488 . S
O94 C110 1.249 . S
O95 Eu81 2.471 . S
O95 C110 1.244 . S
O96 Eu81 2.349 . S
O96 C97 1.265 . S
C97 O93 1.244 . S
C97 O96 1.265 . S
O98 Eu80 2.373 . S
O98 C111 1.258 . S
O99 Eu81 2.392 . S
O99 C111 1.242 . S
O100 Eu81 2.418 . S
O100 C82 1.244 . S
O101 Eu80 2.488 . S
O101 C89 1.249 . S
O102 Eu80 2.471 . S
O102 C89 1.244 . S
O103 Eu80 2.349 . S
O103 C82 1.265 . S
C104 C105 1.379 . S
C104 C108 1.373 . S
C104 C110 1.505 . S
C105 C104 1.379 . S
C105 C107 1.369 . S
C105 H116 0.930 . S
C106 C108 1.383 . S
C106 C109 1.382 . S
C106 H117 0.930 . S
C107 C105 1.369 . S
C107 C109 1.392 . S
C107 H118 0.930 . S
C108 C104 1.373 . S
C108 C106 1.383 . S
C108 H119 0.931 . S
C109 C106 1.382 . S
C109 C107 1.392 . S
C110 Eu81 2.828 . S
C110 O94 1.249 . S
C110 O95 1.244 . S
C110 C104 1.505 . S
C111 O98 1.258 . S
C111 O99 1.242 . S
H112 C84 0.930 . S
H113 C85 0.930 . S
H114 C86 0.930 . S
H115 C87 0.931 . S
H116 C105 0.930 . S
H117 C106 0.930 . S
H118 C107 0.930 . S
H119 C108 0.931 . S
Eu120 C129 2.828 . S
Eu120 O131 2.392 . S
Eu120 O133 2.418 . S
Eu120 O138 2.373 . S
Eu120 O141 2.488 . S
Eu120 O142 2.471 . S
Eu120 O143 2.349 . S
Eu121 O130 2.373 . S
Eu121 O134 2.488 . S
Eu121 O135 2.471 . S
Eu121 O136 2.349 . S
Eu121 O139 2.392 . S
Eu121 O140 2.418 . S
Eu121 C150 2.828 . S
C122 O140 1.244 . S
C122 O143 1.265 . S
C123 C124 1.379 . S
C123 C127 1.373 . S
C123 C129 1.505 . S
C124 C123 1.379 . S
C124 C126 1.369 . S
C124 H152 0.930 . S
C125 C127 1.383 . S
C125 C128 1.382 . S
C125 H153 0.930 . S
C126 C124 1.369 . S
C126 C128 1.392 . S
C126 H154 0.930 . S
C127 C123 1.373 . S
C127 C125 1.383 . S
C127 H155 0.931 . S
C128 C125 1.382 . S
C128 C126 1.392 . S
C129 Eu120 2.828 . S
C129 C123 1.505 . S
C129 O141 1.249 . S
C129 O142 1.244 . S
O130 Eu121 2.373 . S
O130 C132 1.258 . S
O131 Eu120 2.392 . S
O131 C132 1.242 . S
C132 O130 1.258 . S
C132 O131 1.242 . S
O133 Eu120 2.418 . S
O133 C137 1.244 . S
O134 Eu121 2.488 . S
O134 C150 1.249 . S
O135 Eu121 2.471 . S
O135 C150 1.244 . S
O136 Eu121 2.349 . S
O136 C137 1.265 . S
C137 O133 1.244 . S
C137 O136 1.265 . S
O138 Eu120 2.373 . S
O138 C151 1.258 . S
O139 Eu121 2.392 . S
O139 C151 1.242 . S
O140 Eu121 2.418 . S
O140 C122 1.244 . S
O141 Eu120 2.488 . S
O141 C129 1.249 . S
O142 Eu120 2.471 . S
O142 C129 1.244 . S
O143 Eu120 2.349 . S
O143 C122 1.265 . S
C144 C145 1.379 . S
C144 C148 1.373 . S
C144 C150 1.505 . S
C145 C144 1.379 . S
C145 C147 1.369 . S
C145 H156 0.930 . S
C146 C148 1.383 . S
C146 C149 1.382 . S
C146 H157 0.930 . S
C147 C145 1.369 . S
C147 C149 1.392 . S
C147 H158 0.930 . S
C148 C144 1.373 . S
C148 C146 1.383 . S
C148 H159 0.931 . S
C149 C146 1.382 . S
C149 C147 1.392 . S
C150 Eu121 2.828 . S
C150 O134 1.249 . S
C150 O135 1.244 . S
C150 C144 1.505 . S
C151 O138 1.258 . S
C151 O139 1.242 . S
H152 C124 0.930 . S
H153 C125 0.930 . S
H154 C126 0.930 . S
H155 C127 0.931 . S
H156 C145 0.930 . S
H157 C146 0.930 . S
H158 C147 0.930 . S
H159 C148 0.931 . S
Eu160 C169 2.828 . S
Eu160 O171 2.392 . S
Eu160 O173 2.418 . S
Eu160 O178 2.373 . S
Eu160 O181 2.488 . S
Eu160 O182 2.471 . S
Eu160 O183 2.349 . S
Eu161 O170 2.373 . S
Eu161 O174 2.488 . S
Eu161 O175 2.471 . S
Eu161 O176 2.349 . S
Eu161 O179 2.392 . S
Eu161 O180 2.418 . S
Eu161 C190 2.828 . S
C162 O180 1.244 . S
C162 O183 1.265 . S
C163 C164 1.379 . S
C163 C167 1.373 . S
C163 C169 1.505 . S
C164 C163 1.379 . S
C164 C166 1.369 . S
C164 H192 0.930 . S
C165 C167 1.383 . S
C165 C168 1.382 . S
C165 H193 0.930 . S
C166 C164 1.369 . S
C166 C168 1.392 . S
C166 H194 0.930 . S
C167 C163 1.373 . S
C167 C165 1.383 . S
C167 H195 0.931 . S
C168 C165 1.382 . S
C168 C166 1.392 . S
C169 Eu160 2.828 . S
C169 C163 1.505 . S
C169 O181 1.249 . S
C169 O182 1.244 . S
O170 Eu161 2.373 . S
O170 C172 1.258 . S
O171 Eu160 2.392 . S
O171 C172 1.242 . S
C172 O170 1.258 . S
C172 O171 1.242 . S
O173 Eu160 2.418 . S
O173 C177 1.244 . S
O174 Eu161 2.488 . S
O174 C190 1.249 . S
O175 Eu161 2.471 . S
O175 C190 1.244 . S
O176 Eu161 2.349 . S
O176 C177 1.265 . S
C177 O173 1.244 . S
C177 O176 1.265 . S
O178 Eu160 2.373 . S
O178 C191 1.258 . S
O179 Eu161 2.392 . S
O179 C191 1.242 . S
O180 Eu161 2.418 . S
O180 C162 1.244 . S
O181 Eu160 2.488 . S
O181 C169 1.249 . S
O182 Eu160 2.471 . S
O182 C169 1.244 . S
O183 Eu160 2.349 . S
O183 C162 1.265 . S
C184 C185 1.379 . S
C184 C188 1.373 . S
C184 C190 1.505 . S
C185 C184 1.379 . S
C185 C187 1.369 . S
C185 H196 0.930 . S
C186 C188 1.383 . S
C186 C189 1.382 . S
C186 H197 0.930 . S
C187 C185 1.369 . S
C187 C189 1.392 . S
C187 H198 0.930 . S
C188 C184 1.373 . S
C188 C186 1.383 . S
C188 H199 0.931 . S
C189 C186 1.382 . S
C189 C187 1.392 . S
C190 Eu161 2.828 . S
C190 O174 1.249 . S
C190 O175 1.244 . S
C190 C184 1.505 . S
C191 O178 1.258 . S
C191 O179 1.242 . S
H192 C164 0.930 . S
H193 C165 0.930 . S
H194 C166 0.930 . S
H195 C167 0.931 . S
H196 C185 0.930 . S
H197 C186 0.930 . S
H198 C187 0.930 . S
H199 C188 0.931 . S
Eu200 C209 2.828 . S
Eu200 O211 2.392 . S
Eu200 O213 2.418 . S
Eu200 O218 2.373 . S
Eu200 O221 2.488 . S
Eu200 O222 2.471 . S
Eu200 O223 2.349 . S
Eu201 O210 2.373 . S
Eu201 O214 2.488 . S
Eu201 O215 2.471 . S
Eu201 O216 2.349 . S
Eu201 O219 2.392 . S
Eu201 O220 2.418 . S
Eu201 C230 2.828 . S
C202 O220 1.244 . S
C202 O223 1.265 . S
C203 C204 1.379 . S
C203 C207 1.373 . S
C203 C209 1.505 . S
C204 C203 1.379 . S
C204 C206 1.369 . S
C204 H232 0.930 . S
C205 C207 1.383 . S
C205 C208 1.382 . S
C205 H233 0.930 . S
C206 C204 1.369 . S
C206 C208 1.392 . S
C206 H234 0.930 . S
C207 C203 1.373 . S
C207 C205 1.383 . S
C207 H235 0.931 . S
C208 C205 1.382 . S
C208 C206 1.392 . S
C209 Eu200 2.828 . S
C209 C203 1.505 . S
C209 O221 1.249 . S
C209 O222 1.244 . S
O210 Eu201 2.373 . S
O210 C212 1.258 . S
O211 Eu200 2.392 . S
O211 C212 1.242 . S
C212 O210 1.258 . S
C212 O211 1.242 . S
O213 Eu200 2.418 . S
O213 C217 1.244 . S
O214 Eu201 2.488 . S
O214 C230 1.249 . S
O215 Eu201 2.471 . S
O215 C230 1.244 . S
O216 Eu201 2.349 . S
O216 C217 1.265 . S
C217 O213 1.244 . S
C217 O216 1.265 . S
O218 Eu200 2.373 . S
O218 C231 1.258 . S
O219 Eu201 2.392 . S
O219 C231 1.242 . S
O220 Eu201 2.418 . S
O220 C202 1.244 . S
O221 Eu200 2.488 . S
O221 C209 1.249 . S
O222 Eu200 2.471 . S
O222 C209 1.244 . S
O223 Eu200 2.349 . S
O223 C202 1.265 . S
C224 C225 1.379 . S
C224 C228 1.373 . S
C224 C230 1.505 . S
C225 C224 1.379 . S
C225 C227 1.369 . S
C225 H236 0.930 . S
C226 C228 1.383 . S
C226 C229 1.382 . S
C226 H237 0.930 . S
C227 C225 1.369 . S
C227 C229 1.392 . S
C227 H238 0.930 . S
C228 C224 1.373 . S
C228 C226 1.383 . S
C228 H239 0.931 . S
C229 C226 1.382 . S
C229 C227 1.392 . S
C230 Eu201 2.828 . S
C230 O214 1.249 . S
C230 O215 1.244 . S
C230 C224 1.505 . S
C231 O218 1.258 . S
C231 O219 1.242 . S
H232 C204 0.930 . S
H233 C205 0.930 . S
H234 C206 0.930 . S
H235 C207 0.931 . S
H236 C225 0.930 . S
H237 C226 0.930 . S
H238 C227 0.930 . S
H239 C228 0.931 . S
Eu240 C249 2.828 . S
Eu240 O251 2.392 . S
Eu240 O253 2.418 . S
Eu240 O258 2.373 . S
Eu240 O261 2.488 . S
Eu240 O262 2.471 . S
Eu240 O263 2.349 . S
Eu241 O250 2.373 . S
Eu241 O254 2.488 . S
Eu241 O255 2.471 . S
Eu241 O256 2.349 . S
Eu241 O259 2.392 . S
Eu241 O260 2.418 . S
Eu241 C270 2.828 . S
C242 O260 1.244 . S
C242 O263 1.265 . S
C243 C244 1.379 . S
C243 C247 1.373 . S
C243 C249 1.505 . S
C244 C243 1.379 . S
C244 C246 1.369 . S
C244 H272 0.930 . S
C245 C247 1.383 . S
C245 C248 1.382 . S
C245 H273 0.930 . S
C246 C244 1.369 . S
C246 C248 1.392 . S
C246 H274 0.930 . S
C247 C243 1.373 . S
C247 C245 1.383 . S
C247 H275 0.931 . S
C248 C245 1.382 . S
C248 C246 1.392 . S
C249 Eu240 2.828 . S
C249 C243 1.505 . S
C249 O261 1.249 . S
C249 O262 1.244 . S
O250 Eu241 2.373 . S
O250 C252 1.258 . S
O251 Eu240 2.392 . S
O251 C252 1.242 . S
C252 O250 1.258 . S
C252 O251 1.242 . S
O253 Eu240 2.418 . S
O253 C257 1.244 . S
O254 Eu241 2.488 . S
O254 C270 1.249 . S
O255 Eu241 2.471 . S
O255 C270 1.244 . S
O256 Eu241 2.349 . S
O256 C257 1.265 . S
C257 O253 1.244 . S
C257 O256 1.265 . S
O258 Eu240 2.373 . S
O258 C271 1.258 . S
O259 Eu241 2.392 . S
O259 C271 1.242 . S
O260 Eu241 2.418 . S
O260 C242 1.244 . S
O261 Eu240 2.488 . S
O261 C249 1.249 . S
O262 Eu240 2.471 . S
O262 C249 1.244 . S
O263 Eu240 2.349 . S
O263 C242 1.265 . S
C264 C265 1.379 . S
C264 C268 1.373 . S
C264 C270 1.505 . S
C265 C264 1.379 . S
C265 C267 1.369 . S
C265 H276 0.930 . S
C266 C268 1.383 . S
C266 C269 1.382 . S
C266 H277 0.930 . S
C267 C265 1.369 . S
C267 C269 1.392 . S
C267 H278 0.930 . S
C268 C264 1.373 . S
C268 C266 1.383 . S
C268 H279 0.931 . S
C269 C266 1.382 . S
C269 C267 1.392 . S
C270 Eu241 2.828 . S
C270 O254 1.249 . S
C270 O255 1.244 . S
C270 C264 1.505 . S
C271 O258 1.258 . S
C271 O259 1.242 . S
H272 C244 0.930 . S
H273 C245 0.930 . S
H274 C246 0.930 . S
H275 C247 0.931 . S
H276 C265 0.930 . S
H277 C266 0.930 . S
H278 C267 0.930 . S
H279 C268 0.931 . S
Eu280 C289 2.828 . S
Eu280 O291 2.392 . S
Eu280 O293 2.418 . S
Eu280 O298 2.373 . S
Eu280 O301 2.488 . S
Eu280 O302 2.471 . S
Eu280 O303 2.349 . S
Eu281 O290 2.373 . S
Eu281 O294 2.488 . S
Eu281 O295 2.471 . S
Eu281 O296 2.349 . S
Eu281 O299 2.392 . S
Eu281 O300 2.418 . S
Eu281 C310 2.828 . S
C282 O300 1.244 . S
C282 O303 1.265 . S
C283 C284 1.379 . S
C283 C287 1.373 . S
C283 C289 1.505 . S
C284 C283 1.379 . S
C284 C286 1.369 . S
C284 H312 0.930 . S
C285 C287 1.383 . S
C285 C288 1.382 . S
C285 H313 0.930 . S
C286 C284 1.369 . S
C286 C288 1.392 . S
C286 H314 0.930 . S
C287 C283 1.373 . S
C287 C285 1.383 . S
C287 H315 0.931 . S
C288 C285 1.382 . S
C288 C286 1.392 . S
C289 Eu280 2.828 . S
C289 C283 1.505 . S
C289 O301 1.249 . S
C289 O302 1.244 . S
O290 Eu281 2.373 . S
O290 C292 1.258 . S
O291 Eu280 2.392 . S
O291 C292 1.242 . S
C292 O290 1.258 . S
C292 O291 1.242 . S
O293 Eu280 2.418 . S
O293 C297 1.244 . S
O294 Eu281 2.488 . S
O294 C310 1.249 . S
O295 Eu281 2.471 . S
O295 C310 1.244 . S
O296 Eu281 2.349 . S
O296 C297 1.265 . S
C297 O293 1.244 . S
C297 O296 1.265 . S
O298 Eu280 2.373 . S
O298 C311 1.258 . S
O299 Eu281 2.392 . S
O299 C311 1.242 . S
O300 Eu281 2.418 . S
O300 C282 1.244 . S
O301 Eu280 2.488 . S
O301 C289 1.249 . S
O302 Eu280 2.471 . S
O302 C289 1.244 . S
O303 Eu280 2.349 . S
O303 C282 1.265 . S
C304 C305 1.379 . S
C304 C308 1.373 . S
C304 C310 1.505 . S
C305 C304 1.379 . S
C305 C307 1.369 . S
C305 H316 0.930 . S
C306 C308 1.383 . S
C306 C309 1.382 . S
C306 H317 0.930 . S
C307 C305 1.369 . S
C307 C309 1.392 . S
C307 H318 0.930 . S
C308 C304 1.373 . S
C308 C306 1.383 . S
C308 H319 0.931 . S
C309 C306 1.382 . S
C309 C307 1.392 . S
C310 Eu281 2.828 . S
C310 O294 1.249 . S
C310 O295 1.244 . S
C310 C304 1.505 . S
C311 O298 1.258 . S
C311 O299 1.242 . S
H312 C284 0.930 . S
H313 C285 0.930 . S
H314 C286 0.930 . S
H315 C287 0.931 . S
H316 C305 0.930 . S
H317 C306 0.930 . S
H318 C307 0.930 . S
H319 C308 0.931 . S
C320 O332 1.241 . S
C320 O333 1.280 . S
C321 O334 1.277 . S
C321 O335 1.245 . S
C322 O346 1.247 . S
C322 O348 1.289 . S
Mg323 O324 1.929 1_455 S
Mg323 O333 1.962 1_455 S
Mg323 O335 1.975 1_455 S
Mg323 O336 2.089 . S
O324 Mg323 1.929 1_655 S
O324 Mg325 1.986 1_545 S
O324 Mg326 1.927 1_655 S
Mg325 O324 1.986 1_565 S
Mg325 O332 2.042 1_565 S
Mg325 O334 2.041 1_565 S
Mg325 O340 2.038 . S
Mg325 O348 2.238 . S
Mg326 O324 1.927 1_455 S
Mg326 O327 1.907 1_545 S
Mg326 O337 2.107 . S
Mg326 O339 2.073 1_445 S
Mg326 O348 2.106 1_445 S
Mg326 O349 2.085 . S
O327 Mg326 1.907 1_565 S
O327 Mg328 1.926 . S
O327 Mg329 1.986 1_565 S
Mg328 O327 1.926 . S
Mg328 O342 1.984 . S
Mg328 O345 1.988 . S
Mg328 O346 2.061 1_455 S
Mg329 O327 1.986 1_545 S
Mg329 O337 2.238 . S
Mg329 O341 2.042 1_545 S
Mg329 O343 2.041 1_545 S
Mg329 O350 2.038 . S
C330 O336 1.247 . S
C330 O337 1.289 . S
C331 O349 1.245 . S
C331 O350 1.274 . S
O332 C320 1.241 . S
O332 Mg325 2.042 1_545 S
O333 C320 1.280 . S
O333 Mg323 1.962 1_655 S
O334 C321 1.277 . S
O334 Mg325 2.041 1_545 S
O335 C321 1.245 . S
O335 Mg323 1.975 1_655 S
O336 Mg323 2.089 . S
O336 C330 1.247 . S
O337 Mg326 2.107 . S
O337 Mg329 2.238 . S
O337 C330 1.289 . S
C338 O339 1.245 . S
C338 O340 1.274 . S
O339 Mg326 2.073 1_665 S
O339 C338 1.245 . S
O340 Mg325 2.038 . S
O340 C338 1.274 . S
O341 Mg329 2.042 1_565 S
O341 C344 1.241 . S
O342 Mg328 1.984 . S
O342 C344 1.280 . S
O343 Mg329 2.041 1_565 S
O343 C347 1.277 . S
C344 O341 1.241 . S
C344 O342 1.280 . S
O345 Mg328 1.988 . S
O345 C347 1.245 . S
O346 C322 1.247 . S
O346 Mg328 2.061 1_655 S
C347 O343 1.277 . S
C347 O345 1.245 . S
O348 C322 1.289 . S
O348 Mg325 2.238 . S
O348 Mg326 2.106 1_665 S
O349 Mg326 2.085 . S
O349 C331 1.245 . S
O350 Mg329 2.038 . S
O350 C331 1.274 . S
C351 O363 1.241 . S
C351 O364 1.280 . S
C352 O365 1.277 . S
C352 O366 1.245 . S
C353 O377 1.247 . S
C353 O379 1.289 . S
Mg354 O355 1.926 . S
Mg354 O364 1.984 . S
Mg354 O366 1.988 1_554 S
Mg354 O367 2.061 . S
O355 Mg354 1.926 . S
O355 Mg356 1.986 1_545 S
O355 Mg357 1.930 . S
Mg356 O355 1.986 1_565 S
Mg356 O363 2.042 1_565 S
Mg356 O365 2.041 1_564 S
Mg356 O371 2.038 . S
Mg356 O379 2.238 1_554 S
Mg357 O355 1.930 . S
Mg357 O358 1.903 1_544 S
Mg357 O368 2.117 . S
Mg357 O370 2.087 1_545 S
Mg357 O379 2.096 1_544 S
Mg357 O380 2.071 1_554 S
O358 Mg357 1.903 1_566 S
O358 Mg359 1.926 . S
O358 Mg360 1.986 1_565 S
Mg359 O358 1.926 . S
Mg359 O373 1.984 . S
Mg359 O376 1.988 1_556 S
Mg359 O377 2.061 . S
Mg360 O358 1.986 1_545 S
Mg360 O368 2.238 1_556 S
Mg360 O372 2.042 1_545 S
Mg360 O374 2.041 1_546 S
Mg360 O381 2.038 . S
C361 O367 1.247 . S
C361 O368 1.289 . S
C362 O380 1.245 . S
C362 O381 1.274 . S
O363 C351 1.241 . S
O363 Mg356 2.042 1_545 S
O364 C351 1.280 . S
O364 Mg354 1.984 . S
O365 C352 1.277 . S
O365 Mg356 2.041 1_546 S
O366 C352 1.245 . S
O366 Mg354 1.988 1_556 S
O367 Mg354 2.061 . S
O367 C361 1.247 . S
O368 Mg357 2.117 . S
O368 Mg360 2.238 1_554 S
O368 C361 1.289 . S
C369 O370 1.245 . S
C369 O371 1.274 . S
O370 Mg357 2.087 1_565 S
O370 C369 1.245 . S
O371 Mg356 2.038 . S
O371 C369 1.274 . S
O372 Mg360 2.042 1_565 S
O372 C375 1.241 . S
O373 Mg359 1.984 . S
O373 C375 1.280 . S
O374 Mg360 2.041 1_564 S
O374 C378 1.277 . S
C375 O372 1.241 . S
C375 O373 1.280 . S
O376 Mg359 1.988 1_554 S
O376 C378 1.245 . S
O377 C353 1.247 . S
O377 Mg359 2.061 . S
C378 O374 1.277 . S
C378 O376 1.245 . S
O379 C353 1.289 . S
O379 Mg356 2.238 1_556 S
O379 Mg357 2.096 1_566 S
O380 Mg357 2.071 1_556 S
O380 C362 1.245 . S
O381 Mg360 2.038 . S
O381 C362 1.274 . S
C382 O394 1.241 . S
C382 O395 1.280 . S
C383 O396 1.277 . S
C383 O397 1.245 . S
C384 O408 1.247 . S
C384 O410 1.289 . S
Mg385 O386 1.929 1_455 S
Mg385 O395 1.962 1_455 S
Mg385 O397 1.975 1_454 S
Mg385 O398 2.089 . S
O386 Mg385 1.929 1_655 S
O386 Mg387 1.986 . S
O386 Mg388 1.920 1_655 S
Mg387 O386 1.986 . S
Mg387 O394 2.042 . S
Mg387 O396 2.041 1_554 S
Mg387 O402 2.038 . S
Mg387 O410 2.238 1_554 S
Mg388 O386 1.920 1_455 S
Mg388 O389 1.914 1_554 S
Mg388 O399 2.116 . S
Mg388 O401 2.093 1_455 S
Mg388 O410 2.097 1_454 S
Mg388 O411 2.064 1_554 S
O389 Mg388 1.914 1_556 S
O389 Mg390 1.926 . S
O389 Mg391 1.986 . S
Mg390 O389 1.926 . S
Mg390 O404 1.984 . S
Mg390 O407 1.988 1_556 S
Mg390 O408 2.061 1_455 S
Mg391 O389 1.986 . S
Mg391 O399 2.238 1_556 S
Mg391 O403 2.042 . S
Mg391 O405 2.041 1_556 S
Mg391 O412 2.038 . S
C392 O398 1.247 . S
C392 O399 1.289 . S
C393 O411 1.245 . S
C393 O412 1.274 . S
O394 C382 1.241 . S
O394 Mg387 2.042 . S
O395 C382 1.280 . S
O395 Mg385 1.962 1_655 S
O396 C383 1.277 . S
O396 Mg387 2.041 1_556 S
O397 C383 1.245 . S
O397 Mg385 1.975 1_656 S
O398 Mg385 2.089 . S
O398 C392 1.247 . S
O399 Mg388 2.116 . S
O399 Mg391 2.238 1_554 S
O399 C392 1.289 . S
C400 O401 1.245 . S
C400 O402 1.274 . S
O401 Mg388 2.093 1_655 S
O401 C400 1.245 . S
O402 Mg387 2.038 . S
O402 C400 1.274 . S
O403 Mg391 2.042 . S
O403 C406 1.241 . S
O404 Mg390 1.984 . S
O404 C406 1.280 . S
O405 Mg391 2.041 1_554 S
O405 C409 1.277 . S
C406 O403 1.241 . S
C406 O404 1.280 . S
O407 Mg390 1.988 1_554 S
O407 C409 1.245 . S
O408 C384 1.247 . S
O408 Mg390 2.061 1_655 S
C409 O405 1.277 . S
C409 O407 1.245 . S
O410 C384 1.289 . S
O410 Mg387 2.238 1_556 S
O410 Mg388 2.097 1_656 S
O411 Mg388 2.064 1_556 S
O411 C393 1.245 . S
O412 Mg391 2.038 . S
O412 C393 1.274 . S
C413 O425 1.241 . S
C413 O426 1.280 . S
C414 O427 1.277 . S
C414 O428 1.245 . S
C415 O439 1.247 . S
C415 O441 1.289 . S
Mg416 O417 1.926 . S
Mg416 O426 1.984 . S
Mg416 O428 1.988 1_554 S
Mg416 O429 2.061 . S
O417 Mg416 1.926 . S
O417 Mg418 1.986 . S
O417 Mg419 1.920 . S
Mg418 O417 1.986 . S
Mg418 O425 2.042 . S
Mg418 O427 2.041 1_554 S
Mg418 O433 2.038 . S
Mg418 O441 2.238 1_554 S
Mg419 O417 1.920 . S
Mg419 O420 1.914 1_554 S
Mg419 O430 2.116 . S
Mg419 O432 2.093 . S
Mg419 O441 2.097 1_554 S
Mg419 O442 2.064 1_554 S
O420 Mg419 1.914 1_556 S
O420 Mg421 1.926 . S
O420 Mg422 1.986 . S
Mg421 O420 1.926 . S
Mg421 O435 1.984 . S
Mg421 O438 1.988 1_556 S
Mg421 O439 2.061 . S
Mg422 O420 1.986 . S
Mg422 O430 2.238 1_556 S
Mg422 O434 2.042 . S
Mg422 O436 2.041 1_556 S
Mg422 O443 2.038 . S
C423 O429 1.247 . S
C423 O430 1.289 . S
C424 O442 1.245 . S
C424 O443 1.274 . S
O425 C413 1.241 . S
O425 Mg418 2.042 . S
O426 C413 1.280 . S
O426 Mg416 1.984 . S
O427 C414 1.277 . S
O427 Mg418 2.041 1_556 S
O428 C414 1.245 . S
O428 Mg416 1.988 1_556 S
O429 Mg416 2.061 . S
O429 C423 1.247 . S
O430 Mg419 2.116 . S
O430 Mg422 2.238 1_554 S
O430 C423 1.289 . S
C431 O432 1.245 . S
C431 O433 1.274 . S
O432 Mg419 2.093 . S
O432 C431 1.245 . S
O433 Mg418 2.038 . S
O433 C431 1.274 . S
O434 Mg422 2.042 . S
O434 C437 1.241 . S
O435 Mg421 1.984 . S
O435 C437 1.280 . S
O436 Mg422 2.041 1_554 S
O436 C440 1.277 . S
C437 O434 1.241 . S
C437 O435 1.280 . S
O438 Mg421 1.988 1_554 S
O438 C440 1.245 . S
O439 C415 1.247 . S
O439 Mg421 2.061 . S
C440 O436 1.277 . S
C440 O438 1.245 . S
O441 C415 1.289 . S
O441 Mg418 2.238 1_556 S
O441 Mg419 2.097 1_556 S
O442 Mg419 2.064 1_556 S
O442 C424 1.245 . S
O443 Mg422 2.038 . S
O443 C424 1.274 . S
C444 O456 1.241 . S
C444 O457 1.280 . S
C445 O458 1.277 . S
C445 O459 1.245 . S
C446 O470 1.247 . S
C446 O472 1.289 . S
Mg447 O448 1.929 1_455 S
Mg447 O457 1.962 1_455 S
Mg447 O459 1.975 1_455 S
Mg447 O460 2.089 . S
O448 Mg447 1.929 1_655 S
O448 Mg449 1.986 . S
O448 Mg450 1.917 1_655 S
Mg449 O448 1.986 . S
Mg449 O456 2.042 . S
Mg449 O458 2.041 . S
Mg449 O464 2.038 . S
Mg449 O472 2.238 . S
Mg450 O448 1.917 1_455 S
Mg450 O451 1.917 . S
Mg450 O461 2.106 . S
Mg450 O463 2.079 1_455 S
Mg450 O472 2.106 1_455 S
Mg450 O473 2.079 . S
O451 Mg450 1.917 . S
O451 Mg452 1.926 . S
O451 Mg453 1.986 . S
Mg452 O451 1.926 . S
Mg452 O466 1.984 . S
Mg452 O469 1.988 . S
Mg452 O470 2.061 1_455 S
Mg453 O451 1.986 . S
Mg453 O461 2.238 . S
Mg453 O465 2.042 . S
Mg453 O467 2.041 . S
Mg453 O474 2.038 . S
C454 O460 1.247 . S
C454 O461 1.289 . S
C455 O473 1.245 . S
C455 O474 1.274 . S
O456 C444 1.241 . S
O456 Mg449 2.042 . S
O457 C444 1.280 . S
O457 Mg447 1.962 1_655 S
O458 C445 1.277 . S
O458 Mg449 2.041 . S
O459 C445 1.245 . S
O459 Mg447 1.975 1_655 S
O460 Mg447 2.089 . S
O460 C454 1.247 . S
O461 Mg450 2.106 . S
O461 Mg453 2.238 . S
O461 C454 1.289 . S
C462 O463 1.245 . S
C462 O464 1.274 . S
O463 Mg450 2.079 1_655 S
O463 C462 1.245 . S
O464 Mg449 2.038 . S
O464 C462 1.274 . S
O465 Mg453 2.042 . S
O465 C468 1.241 . S
O466 Mg452 1.984 . S
O466 C468 1.280 . S
O467 Mg453 2.041 . S
O467 C471 1.277 . S
C468 O465 1.241 . S
C468 O466 1.280 . S
O469 Mg452 1.988 . S
O469 C471 1.245 . S
O470 C446 1.247 . S
O470 Mg452 2.061 1_655 S
C471 O467 1.277 . S
C471 O469 1.245 . S
O472 C446 1.289 . S
O472 Mg449 2.238 . S
O472 Mg450 2.106 1_655 S
O473 Mg450 2.079 . S
O473 C455 1.245 . S
O474 Mg453 2.038 . S
O474 C455 1.274 . S
C475 O487 1.241 . S
C475 O488 1.280 . S
C476 O489 1.277 . S
C476 O490 1.245 . S
C477 O501 1.247 . S
C477 O503 1.289 . S
Mg478 O479 1.926 . S
Mg478 O488 1.984 . S
Mg478 O490 1.988 . S
Mg478 O491 2.061 . S
O479 Mg478 1.926 . S
O479 Mg480 1.986 1_545 S
O479 Mg481 1.927 . S
Mg480 O479 1.986 1_565 S
Mg480 O487 2.042 1_565 S
Mg480 O489 2.041 1_565 S
Mg480 O495 2.038 . S
Mg480 O503 2.238 . S
Mg481 O479 1.927 . S
Mg481 O482 1.907 1_545 S
Mg481 O492 2.107 . S
Mg481 O494 2.072 1_545 S
Mg481 O503 2.106 1_545 S
Mg481 O504 2.085 . S
O482 Mg481 1.907 1_565 S
O482 Mg483 1.926 . S
O482 Mg484 1.986 1_565 S
Mg483 O482 1.926 . S
Mg483 O497 1.984 . S
Mg483 O500 1.988 . S
Mg483 O501 2.061 . S
Mg484 O482 1.986 1_545 S
Mg484 O492 2.238 . S
Mg484 O496 2.042 1_545 S
Mg484 O498 2.041 1_545 S
Mg484 O505 2.038 . S
C485 O491 1.247 . S
C485 O492 1.289 . S
C486 O504 1.245 . S
C486 O505 1.274 . S
O487 C475 1.241 . S
O487 Mg480 2.042 1_545 S
O488 C475 1.280 . S
O488 Mg478 1.984 . S
O489 C476 1.277 . S
O489 Mg480 2.041 1_545 S
O490 C476 1.245 . S
O490 Mg478 1.988 . S
O491 Mg478 2.061 . S
O491 C485 1.247 . S
O492 Mg481 2.107 . S
O492 Mg484 2.238 . S
O492 C485 1.289 . S
C493 O494 1.245 . S
C493 O495 1.274 . S
O494 Mg481 2.072 1_565 S
O494 C493 1.245 . S
O495 Mg480 2.038 . S
O495 C493 1.274 . S
O496 Mg484 2.042 1_565 S
O496 C499 1.241 . S
O497 Mg483 1.984 . S
O497 C499 1.280 . S
O498 Mg484 2.041 1_565 S
O498 C502 1.277 . S
C499 O496 1.241 . S
C499 O497 1.280 . S
O500 Mg483 1.988 . S
O500 C502 1.245 . S
O501 C477 1.247 . S
O501 Mg483 2.061 . S
C502 O498 1.277 . S
C502 O500 1.245 . S
O503 C477 1.289 . S
O503 Mg480 2.238 . S
O503 Mg481 2.106 1_565 S
O504 Mg481 2.085 . S
O504 C486 1.245 . S
O505 Mg484 2.038 . S
O505 C486 1.274 . S
H506 C512 0.930 . S
H507 C515 0.930 . S
H508 C516 0.930 . S
H509 C517 0.930 . S
H510 C520 0.930 . S
H511 C521 0.930 . S
C512 H506 0.930 . S
C512 C513 1.355 . S
C512 C514 1.415 . S
C513 C512 1.355 . S
C513 C515 1.419 . S
C514 C512 1.415 . S
C514 C519 1.425 . S
C514 C521 1.409 . S
C515 H507 0.930 . S
C515 C513 1.419 . S
C515 C516 1.362 . S
C516 H508 0.930 . S
C516 C515 1.362 . S
C516 C519 1.409 . S
C517 H509 0.930 . S
C517 C518 1.355 . S
C517 C519 1.415 . S
C518 C517 1.355 . S
C518 C520 1.419 . S
C519 C514 1.425 . S
C519 C516 1.409 . S
C519 C517 1.415 . S
C520 H510 0.930 . S
C520 C518 1.419 . S
C520 C521 1.362 . S
C521 H511 0.930 . S
C521 C514 1.409 . S
C521 C520 1.362 . S
H522 C528 0.930 . S
H523 C531 0.930 . S
H524 C532 0.930 . S
H525 C533 0.930 . S
H526 C536 0.930 . S
H527 C537 0.930 . S
C528 H522 0.930 . S
C528 C529 1.355 . S
C528 C530 1.415 . S
C529 C528 1.355 . S
C529 C531 1.419 . S
C530 C528 1.415 . S
C530 C535 1.425 . S
C530 C537 1.409 . S
C531 H523 0.930 . S
C531 C529 1.419 . S
C531 C532 1.362 . S
C532 H524 0.930 . S
C532 C531 1.362 . S
C532 C535 1.409 . S
C533 H525 0.930 . S
C533 C534 1.355 . S
C533 C535 1.415 . S
C534 C533 1.355 . S
C534 C536 1.419 . S
C535 C530 1.425 . S
C535 C532 1.409 . S
C535 C533 1.415 . S
C536 H526 0.930 . S
C536 C534 1.419 . S
C536 C537 1.362 . S
C537 H527 0.930 . S
C537 C530 1.409 . S
C537 C536 1.362 . S
H538 C544 0.930 . S
H539 C547 0.930 . S
H540 C548 0.930 . S
H541 C549 0.930 . S
H542 C552 0.930 . S
H543 C553 0.930 . S
C544 H538 0.930 . S
C544 C545 1.355 . S
C544 C546 1.415 . S
C545 C544 1.355 . S
C545 C547 1.419 . S
C546 C544 1.415 . S
C546 C551 1.425 . S
C546 C553 1.409 . S
C547 H539 0.930 . S
C547 C545 1.419 . S
C547 C548 1.362 . S
C548 H540 0.930 . S
C548 C547 1.362 . S
C548 C551 1.409 . S
C549 H541 0.930 . S
C549 C550 1.355 . S
C549 C551 1.415 . S
C550 C549 1.355 . S
C550 C552 1.419 . S
C551 C546 1.425 . S
C551 C548 1.409 . S
C551 C549 1.415 . S
C552 H542 0.930 . S
C552 C550 1.419 . S
C552 C553 1.362 . S
C553 H543 0.930 . S
C553 C546 1.409 . S
C553 C552 1.362 . S
H554 C560 0.930 . S
H555 C563 0.930 . S
H556 C564 0.930 . S
H557 C565 0.930 . S
H558 C568 0.930 . S
H559 C569 0.930 . S
C560 H554 0.930 . S
C560 C561 1.355 . S
C560 C562 1.415 . S
C561 C560 1.355 . S
C561 C563 1.419 . S
C562 C560 1.415 . S
C562 C567 1.425 . S
C562 C569 1.409 . S
C563 H555 0.930 . S
C563 C561 1.419 . S
C563 C564 1.362 . S
C564 H556 0.930 . S
C564 C563 1.362 . S
C564 C567 1.409 . S
C565 H557 0.930 . S
C565 C566 1.355 . S
C565 C567 1.415 . S
C566 C565 1.355 . S
C566 C568 1.419 . S
C567 C562 1.425 . S
C567 C564 1.409 . S
C567 C565 1.415 . S
C568 H558 0.930 . S
C568 C566 1.419 . S
C568 C569 1.362 . S
C569 H559 0.930 . S
C569 C562 1.409 . S
C569 C568 1.362 . S
H570 C576 0.930 . S
H571 C579 0.930 . S
H572 C580 0.930 . S
H573 C581 0.930 . S
H574 C584 0.930 . S
H575 C585 0.930 . S
C576 H570 0.930 . S
C576 C577 1.355 . S
C576 C578 1.415 . S
C577 C576 1.355 . S
C577 C579 1.419 . S
C578 C576 1.415 . S
C578 C583 1.425 . S
C578 C585 1.409 . S
C579 H571 0.930 . S
C579 C577 1.419 . S
C579 C580 1.362 . S
C580 H572 0.930 . S
C580 C579 1.362 . S
C580 C583 1.409 . S
C581 H573 0.930 . S
C581 C582 1.355 . S
C581 C583 1.415 . S
C582 C581 1.355 . S
C582 C584 1.419 . S
C583 C578 1.425 . S
C583 C580 1.409 . S
C583 C581 1.415 . S
C584 H574 0.930 . S
C584 C582 1.419 . S
C584 C585 1.362 . S
C585 H575 0.930 . S
C585 C578 1.409 . S
C585 C584 1.362 . S
H586 C592 0.930 . S
H587 C595 0.930 . S
H588 C596 0.930 . S
H589 C597 0.930 . S
H590 C600 0.930 . S
H591 C601 0.930 . S
C592 H586 0.930 . S
C592 C593 1.355 . S
C592 C594 1.415 . S
C593 C592 1.355 . S
C593 C595 1.419 . S
C594 C592 1.415 . S
C594 C599 1.425 . S
C594 C601 1.409 . S
C595 H587 0.930 . S
C595 C593 1.419 . S
C595 C596 1.362 . S
C596 H588 0.930 . S
C596 C595 1.362 . S
C596 C599 1.409 . S
C597 H589 0.930 . S
C597 C598 1.355 . S
C597 C599 1.415 . S
C598 C597 1.355 . S
C598 C600 1.419 . S
C599 C594 1.425 . S
C599 C596 1.409 . S
C599 C597 1.415 . S
C600 H590 0.930 . S
C600 C598 1.419 . S
C600 C601 1.362 . S
C601 H591 0.930 . S
C601 C594 1.409 . S
C601 C600 1.362 . S
H602 C608 0.930 . S
H603 C611 0.930 . S
H604 C612 0.930 . S
H605 C613 0.930 . S
H606 C616 0.930 . S
H607 C617 0.930 . S
C608 H602 0.930 . S
C608 C609 1.355 . S
C608 C610 1.415 . S
C609 C608 1.355 . S
C609 C611 1.419 . S
C610 C608 1.415 . S
C610 C615 1.425 . S
C610 C617 1.409 . S
C611 H603 0.930 . S
C611 C609 1.419 . S
C611 C612 1.362 . S
C612 H604 0.930 . S
C612 C611 1.362 . S
C612 C615 1.409 . S
C613 H605 0.930 . S
C613 C614 1.355 . S
C613 C615 1.415 . S
C614 C613 1.355 . S
C614 C616 1.419 . S
C615 C610 1.425 . S
C615 C612 1.409 . S
C615 C613 1.415 . S
C616 H606 0.930 . S
C616 C614 1.419 . S
C616 C617 1.362 . S
C617 H607 0.930 . S
C617 C610 1.409 . S
C617 C616 1.362 . S
H618 C624 0.930 . S
H619 C627 0.930 . S
H620 C628 0.930 . S
H621 C629 0.930 . S
H622 C632 0.930 . S
H623 C633 0.930 . S
C624 H618 0.930 . S
C624 C625 1.355 . S
C624 C626 1.415 . S
C625 C624 1.355 . S
C625 C627 1.419 . S
C626 C624 1.415 . S
C626 C631 1.425 . S
C626 C633 1.409 . S
C627 H619 0.930 . S
C627 C625 1.419 . S
C627 C628 1.362 . S
C628 H620 0.930 . S
C628 C627 1.362 . S
C628 C631 1.409 . S
C629 H621 0.930 . S
C629 C630 1.355 . S
C629 C631 1.415 . S
C630 C629 1.355 . S
C630 C632 1.419 . S
C631 C626 1.425 . S
C631 C628 1.409 . S
C631 C629 1.415 . S
C632 H622 0.930 . S
C632 C630 1.419 . S
C632 C633 1.362 . S
C633 H623 0.930 . S
C633 C626 1.409 . S
C633 C632 1.362 . S
H634 C640 0.930 . S
H635 C643 0.930 . S
H636 C644 0.930 . S
H637 C645 0.930 . S
H638 C648 0.930 . S
H639 C649 0.930 . S
C640 H634 0.930 . S
C640 C641 1.355 . S
C640 C642 1.415 . S
C641 C640 1.355 . S
C641 C643 1.419 . S
C642 C640 1.415 . S
C642 C647 1.425 . S
C642 C649 1.409 . S
C643 H635 0.930 . S
C643 C641 1.419 . S
C643 C644 1.362 . S
C644 H636 0.930 . S
C644 C643 1.362 . S
C644 C647 1.409 . S
C645 H637 0.930 . S
C645 C646 1.355 . S
C645 C647 1.415 . S
C646 C645 1.355 . S
C646 C648 1.419 . S
C647 C642 1.425 . S
C647 C644 1.409 . S
C647 C645 1.415 . S
C648 H638 0.930 . S
C648 C646 1.419 . S
C648 C649 1.362 . S
C649 H639 0.930 . S
C649 C642 1.409 . S
C649 C648 1.362 . S
H650 C656 0.930 . S
H651 C659 0.930 . S
H652 C660 0.930 . S
H653 C661 0.930 . S
H654 C664 0.930 . S
H655 C665 0.930 . S
C656 H650 0.930 . S
C656 C657 1.355 . S
C656 C658 1.415 . S
C657 C656 1.355 . S
C657 C659 1.419 . S
C658 C656 1.415 . S
C658 C663 1.425 . S
C658 C665 1.409 . S
C659 H651 0.930 . S
C659 C657 1.419 . S
C659 C660 1.362 . S
C660 H652 0.930 . S
C660 C659 1.362 . S
C660 C663 1.409 . S
C661 H653 0.930 . S
C661 C662 1.355 . S
C661 C663 1.415 . S
C662 C661 1.355 . S
C662 C664 1.419 . S
C663 C658 1.425 . S
C663 C660 1.409 . S
C663 C661 1.415 . S
C664 H654 0.930 . S
C664 C662 1.419 . S
C664 C665 1.362 . S
C665 H655 0.930 . S
C665 C658 1.409 . S
C665 C664 1.362 . S
H666 C672 0.930 . S
H667 C675 0.930 . S
H668 C676 0.930 . S
H669 C677 0.930 . S
H670 C680 0.930 . S
H671 C681 0.930 . S
C672 H666 0.930 . S
C672 C673 1.355 . S
C672 C674 1.415 . S
C673 C672 1.355 . S
C673 C675 1.419 . S
C674 C672 1.415 . S
C674 C679 1.425 . S
C674 C681 1.409 . S
C675 H667 0.930 . S
C675 C673 1.419 . S
C675 C676 1.362 . S
C676 H668 0.930 . S
C676 C675 1.362 . S
C676 C679 1.409 . S
C677 H669 0.930 . S
C677 C678 1.355 . S
C677 C679 1.415 . S
C678 C677 1.355 . S
C678 C680 1.419 . S
C679 C674 1.425 . S
C679 C676 1.409 . S
C679 C677 1.415 . S
C680 H670 0.930 . S
C680 C678 1.419 . S
C680 C681 1.362 . S
C681 H671 0.930 . S
C681 C674 1.409 . S
C681 C680 1.362 . S
H682 C688 0.930 . S
H683 C691 0.930 . S
H684 C692 0.930 . S
H685 C693 0.930 . S
H686 C696 0.930 . S
H687 C697 0.930 . S
C688 H682 0.930 . S
C688 C689 1.355 . S
C688 C690 1.415 . S
C689 C688 1.355 . S
C689 C691 1.419 . S
C690 C688 1.415 . S
C690 C695 1.425 . S
C690 C697 1.409 . S
C691 H683 0.930 . S
C691 C689 1.419 . S
C691 C692 1.362 . S
C692 H684 0.930 . S
C692 C691 1.362 . S
C692 C695 1.409 . S
C693 H685 0.930 . S
C693 C694 1.355 . S
C693 C695 1.415 . S
C694 C693 1.355 . S
C694 C696 1.419 . S
C695 C690 1.425 . S
C695 C692 1.409 . S
C695 C693 1.415 . S
C696 H686 0.930 . S
C696 C694 1.419 . S
C696 C697 1.362 . S
C697 H687 0.930 . S
C697 C690 1.409 . S
C697 C696 1.362 . S
H698 C704 0.930 . S
H699 C707 0.930 . S
H700 C708 0.930 . S
H701 C709 0.930 . S
H702 C712 0.930 . S
H703 C713 0.930 . S
C704 H698 0.930 . S
C704 C705 1.355 . S
C704 C706 1.415 . S
C705 C704 1.355 . S
C705 C707 1.419 . S
C706 C704 1.415 . S
C706 C711 1.425 . S
C706 C713 1.409 . S
C707 H699 0.930 . S
C707 C705 1.419 . S
C707 C708 1.362 . S
C708 H700 0.930 . S
C708 C707 1.362 . S
C708 C711 1.409 . S
C709 H701 0.930 . S
C709 C710 1.355 . S
C709 C711 1.415 . S
C710 C709 1.355 . S
C710 C712 1.419 . S
C711 C706 1.425 . S
C711 C708 1.409 . S
C711 C709 1.415 . S
C712 H702 0.930 . S
C712 C710 1.419 . S
C712 C713 1.362 . S
C713 H703 0.930 . S
C713 C706 1.409 . S
C713 C712 1.362 . S
H714 C720 0.930 . S
H715 C723 0.930 . S
H716 C724 0.930 . S
H717 C725 0.930 . S
H718 C728 0.930 . S
H719 C729 0.930 . S
C720 H714 0.930 . S
C720 C721 1.355 . S
C720 C722 1.415 . S
C721 C720 1.355 . S
C721 C723 1.419 . S
C722 C720 1.415 . S
C722 C727 1.425 . S
C722 C729 1.409 . S
C723 H715 0.930 . S
C723 C721 1.419 . S
C723 C724 1.362 . S
C724 H716 0.930 . S
C724 C723 1.362 . S
C724 C727 1.409 . S
C725 H717 0.930 . S
C725 C726 1.355 . S
C725 C727 1.415 . S
C726 C725 1.355 . S
C726 C728 1.419 . S
C727 C722 1.425 . S
C727 C724 1.409 . S
C727 C725 1.415 . S
C728 H718 0.930 . S
C728 C726 1.419 . S
C728 C729 1.362 . S
C729 H719 0.930 . S
C729 C722 1.409 . S
C729 C728 1.362 . S
H730 C736 0.930 . S
H731 C739 0.930 . S
H732 C740 0.930 . S
H733 C741 0.930 . S
H734 C744 0.930 . S
H735 C745 0.930 . S
C736 H730 0.930 . S
C736 C737 1.355 . S
C736 C738 1.415 . S
C737 C736 1.355 . S
C737 C739 1.419 . S
C738 C736 1.415 . S
C738 C743 1.425 . S
C738 C745 1.409 . S
C739 H731 0.930 . S
C739 C737 1.419 . S
C739 C740 1.362 . S
C740 H732 0.930 . S
C740 C739 1.362 . S
C740 C743 1.409 . S
C741 H733 0.930 . S
C741 C742 1.355 . S
C741 C743 1.415 . S
C742 C741 1.355 . S
C742 C744 1.419 . S
C743 C738 1.425 . S
C743 C740 1.409 . S
C743 C741 1.415 . S
C744 H734 0.930 . S
C744 C742 1.419 . S
C744 C745 1.362 . S
C745 H735 0.930 . S
C745 C738 1.409 . S
C745 C744 1.362 . S
H746 C752 0.930 . S
H747 C755 0.930 . S
H748 C756 0.930 . S
H749 C757 0.930 . S
H750 C760 0.930 1_455 S
H751 C761 0.930 1_455 S
C752 H746 0.930 . S
C752 C753 1.355 . S
C752 C754 1.415 . S
C753 C752 1.355 . S
C753 C755 1.419 . S
C754 C752 1.415 . S
C754 C759 1.425 . S
C754 C761 1.409 . S
C755 H747 0.930 . S
C755 C753 1.419 . S
C755 C756 1.362 . S
C756 H748 0.930 . S
C756 C755 1.362 . S
C756 C759 1.409 . S
C757 H749 0.930 . S
C757 C758 1.355 . S
C757 C759 1.415 . S
C758 C757 1.355 . S
C758 C760 1.419 . S
C759 C754 1.425 . S
C759 C756 1.409 . S
C759 C757 1.415 . S
C760 H750 0.930 1_655 S
C760 C758 1.419 . S
C760 C761 1.362 . S
C761 H751 0.930 1_655 S
C761 C754 1.409 . S
C761 C760 1.362 . S
H762 C768 0.930 . S
H763 C771 0.930 . S
H764 C772 0.930 . S
H765 C773 0.930 . S
H766 C776 0.930 . S
H767 C777 0.930 . S
C768 H762 0.930 . S
C768 C769 1.355 . S
C768 C770 1.415 . S
C769 C768 1.355 . S
C769 C771 1.419 . S
C770 C768 1.415 . S
C770 C775 1.425 . S
C770 C777 1.409 . S
C771 H763 0.930 . S
C771 C769 1.419 . S
C771 C772 1.362 . S
C772 H764 0.930 . S
C772 C771 1.362 . S
C772 C775 1.409 . S
C773 H765 0.930 . S
C773 C774 1.355 . S
C773 C775 1.415 . S
C774 C773 1.355 . S
C774 C776 1.419 . S
C775 C770 1.425 . S
C775 C772 1.409 . S
C775 C773 1.415 . S
C776 H766 0.930 . S
C776 C774 1.419 . S
C776 C777 1.362 . S
C777 H767 0.930 . S
C777 C770 1.409 . S
C777 C776 1.362 . S
H778 C784 0.930 . S
H779 C787 0.930 . S
H780 C788 0.930 . S
H781 C789 0.930 . S
H782 C792 0.930 . S
H783 C793 0.930 . S
C784 H778 0.930 . S
C784 C785 1.355 . S
C784 C786 1.415 . S
C785 C784 1.355 . S
C785 C787 1.419 . S
C786 C784 1.415 . S
C786 C791 1.425 . S
C786 C793 1.409 . S
C787 H779 0.930 . S
C787 C785 1.419 . S
C787 C788 1.362 . S
C788 H780 0.930 . S
C788 C787 1.362 . S
C788 C791 1.409 . S
C789 H781 0.930 . S
C789 C790 1.355 . S
C789 C791 1.415 . S
C790 C789 1.355 . S
C790 C792 1.419 . S
C791 C786 1.425 . S
C791 C788 1.409 . S
C791 C789 1.415 . S
C792 H782 0.930 . S
C792 C790 1.419 . S
C792 C793 1.362 . S
C793 H783 0.930 . S
C793 C786 1.409 . S
C793 C792 1.362 . S
H794 C800 0.930 . S
H795 C803 0.930 . S
H796 C804 0.930 . S
H797 C805 0.930 . S
H798 C808 0.930 . S
H799 C809 0.930 . S
C800 H794 0.930 . S
C800 C801 1.355 . S
C800 C802 1.415 . S
C801 C800 1.355 . S
C801 C803 1.419 . S
C802 C800 1.415 . S
C802 C807 1.425 . S
C802 C809 1.409 . S
C803 H795 0.930 . S
C803 C801 1.419 . S
C803 C804 1.362 . S
C804 H796 0.930 . S
C804 C803 1.362 . S
C804 C807 1.409 . S
C805 H797 0.930 . S
C805 C806 1.355 . S
C805 C807 1.415 . S
C806 C805 1.355 . S
C806 C808 1.419 . S
C807 C802 1.425 . S
C807 C804 1.409 . S
C807 C805 1.415 . S
C808 H798 0.930 . S
C808 C806 1.419 . S
C808 C809 1.362 . S
C809 H799 0.930 . S
C809 C802 1.409 . S
C809 C808 1.362 . S
H810 C816 0.930 . S
H811 C819 0.930 . S
H812 C820 0.930 . S
H813 C821 0.930 . S
H814 C824 0.930 . S
H815 C825 0.930 . S
C816 H810 0.930 . S
C816 C817 1.355 . S
C816 C818 1.415 . S
C817 C816 1.355 . S
C817 C819 1.419 . S
C818 C816 1.415 . S
C818 C823 1.425 . S
C818 C825 1.409 . S
C819 H811 0.930 . S
C819 C817 1.419 . S
C819 C820 1.362 . S
C820 H812 0.930 . S
C820 C819 1.362 . S
C820 C823 1.409 . S
C821 H813 0.930 . S
C821 C822 1.355 . S
C821 C823 1.415 . S
C822 C821 1.355 . S
C822 C824 1.419 . S
C823 C818 1.425 . S
C823 C820 1.409 . S
C823 C821 1.415 . S
C824 H814 0.930 . S
C824 C822 1.419 . S
C824 C825 1.362 . S
C825 H815 0.930 . S
C825 C818 1.409 . S
C825 C824 1.362 . S
H826 C832 0.930 . S
H827 C835 0.930 . S
H828 C836 0.930 . S
H829 C837 0.930 . S
H830 C840 0.930 . S
H831 C841 0.930 . S
C832 H826 0.930 . S
C832 C833 1.355 . S
C832 C834 1.415 . S
C833 C832 1.355 . S
C833 C835 1.419 . S
C834 C832 1.415 . S
C834 C839 1.425 . S
C834 C841 1.409 . S
C835 H827 0.930 . S
C835 C833 1.419 . S
C835 C836 1.362 . S
C836 H828 0.930 . S
C836 C835 1.362 . S
C836 C839 1.409 . S
C837 H829 0.930 . S
C837 C838 1.355 . S
C837 C839 1.415 . S
C838 C837 1.355 . S
C838 C840 1.419 . S
C839 C834 1.425 . S
C839 C836 1.409 . S
C839 C837 1.415 . S
C840 H830 0.930 . S
C840 C838 1.419 . S
C840 C841 1.362 . S
C841 H831 0.930 . S
C841 C834 1.409 . S
C841 C840 1.362 . S
H842 C848 0.930 . S
H843 C851 0.930 . S
H844 C852 0.930 . S
H845 C853 0.930 . S
H846 C856 0.930 . S
H847 C857 0.930 . S
C848 H842 0.930 . S
C848 C849 1.355 . S
C848 C850 1.415 . S
C849 C848 1.355 . S
C849 C851 1.419 . S
C850 C848 1.415 . S
C850 C855 1.425 . S
C850 C857 1.409 . S
C851 H843 0.930 . S
C851 C849 1.419 . S
C851 C852 1.362 . S
C852 H844 0.930 . S
C852 C851 1.362 . S
C852 C855 1.409 . S
C853 H845 0.930 . S
C853 C854 1.355 . S
C853 C855 1.415 . S
C854 C853 1.355 . S
C854 C856 1.419 . S
C855 C850 1.425 . S
C855 C852 1.409 . S
C855 C853 1.415 . S
C856 H846 0.930 . S
C856 C854 1.419 . S
C856 C857 1.362 . S
C857 H847 0.930 . S
C857 C850 1.409 . S
C857 C856 1.362 . S
H858 C864 0.930 . S
H859 C867 0.930 . S
H860 C868 0.930 . S
H861 C869 0.930 . S
H862 C872 0.930 . S
H863 C873 0.930 . S
C864 H858 0.930 . S
C864 C865 1.355 . S
C864 C866 1.415 . S
C865 C864 1.355 . S
C865 C867 1.419 . S
C866 C864 1.415 . S
C866 C871 1.425 . S
C866 C873 1.409 . S
C867 H859 0.930 . S
C867 C865 1.419 . S
C867 C868 1.362 . S
C868 H860 0.930 . S
C868 C867 1.362 . S
C868 C871 1.409 . S
C869 H861 0.930 . S
C869 C870 1.355 . S
C869 C871 1.415 . S
C870 C869 1.355 . S
C870 C872 1.419 . S
C871 C866 1.425 . S
C871 C868 1.409 . S
C871 C869 1.415 . S
C872 H862 0.930 . S
C872 C870 1.419 . S
C872 C873 1.362 . S
C873 H863 0.930 . S
C873 C866 1.409 . S
C873 C872 1.362 . S
H874 C880 0.930 . S
H875 C883 0.930 . S
H876 C884 0.930 . S
H877 C885 0.930 . S
H878 C888 0.930 . S
H879 C889 0.930 . S
C880 H874 0.930 . S
C880 C881 1.355 . S
C880 C882 1.415 . S
C881 C880 1.355 . S
C881 C883 1.419 . S
C882 C880 1.415 . S
C882 C887 1.425 . S
C882 C889 1.409 . S
C883 H875 0.930 . S
C883 C881 1.419 . S
C883 C884 1.362 . S
C884 H876 0.930 . S
C884 C883 1.362 . S
C884 C887 1.409 . S
C885 H877 0.930 . S
C885 C886 1.355 . S
C885 C887 1.415 . S
C886 C885 1.355 . S
C886 C888 1.419 . S
C887 C882 1.425 . S
C887 C884 1.409 . S
C887 C885 1.415 . S
C888 H878 0.930 . S
C888 C886 1.419 . S
C888 C889 1.362 . S
C889 H879 0.930 . S
C889 C882 1.409 . S
C889 C888 1.362 . S
H890 C896 0.930 . S
H891 C899 0.930 . S
H892 C900 0.930 . S
H893 C901 0.930 . S
H894 C904 0.930 . S
H895 C905 0.930 . S
C896 H890 0.930 . S
C896 C897 1.355 . S
C896 C898 1.415 . S
C897 C896 1.355 . S
C897 C899 1.419 . S
C898 C896 1.415 . S
C898 C903 1.425 . S
C898 C905 1.409 . S
C899 H891 0.930 . S
C899 C897 1.419 . S
C899 C900 1.362 . S
C900 H892 0.930 . S
C900 C899 1.362 . S
C900 C903 1.409 . S
C901 H893 0.930 . S
C901 C902 1.355 . S
C901 C903 1.415 . S
C902 C901 1.355 . S
C902 C904 1.419 . S
C903 C898 1.425 . S
C903 C900 1.409 . S
C903 C901 1.415 . S
C904 H894 0.930 . S
C904 C902 1.419 . S
C904 C905 1.362 . S
C905 H895 0.930 . S
C905 C898 1.409 . S
C905 C904 1.362 . S
H906 C912 0.930 . S
H907 C915 0.930 . S
H908 C916 0.930 . S
H909 C917 0.930 . S
H910 C920 0.930 . S
H911 C921 0.930 . S
C912 H906 0.930 . S
C912 C913 1.355 . S
C912 C914 1.415 . S
C913 C912 1.355 . S
C913 C915 1.419 . S
C914 C912 1.415 . S
C914 C919 1.425 . S
C914 C921 1.409 . S
C915 H907 0.930 . S
C915 C913 1.419 . S
C915 C916 1.362 . S
C916 H908 0.930 . S
C916 C915 1.362 . S
C916 C919 1.409 . S
C917 H909 0.930 . S
C917 C918 1.355 . S
C917 C919 1.415 . S
C918 C917 1.355 . S
C918 C920 1.419 . S
C919 C914 1.425 . S
C919 C916 1.409 . S
C919 C917 1.415 . S
C920 H910 0.930 . S
C920 C918 1.419 . S
C920 C921 1.362 . S
C921 H911 0.930 . S
C921 C914 1.409 . S
C921 C920 1.362 . S
H922 C928 0.930 . S
H923 C931 0.930 . S
H924 C932 0.930 . S
H925 C933 0.930 . S
H926 C936 0.930 . S
H927 C937 0.930 . S
C928 H922 0.930 . S
C928 C929 1.355 . S
C928 C930 1.415 . S
C929 C928 1.355 . S
C929 C931 1.419 . S
C930 C928 1.415 . S
C930 C935 1.425 . S
C930 C937 1.409 . S
C931 H923 0.930 . S
C931 C929 1.419 . S
C931 C932 1.362 . S
C932 H924 0.930 . S
C932 C931 1.362 . S
C932 C935 1.409 . S
C933 H925 0.930 . S
C933 C934 1.355 . S
C933 C935 1.415 . S
C934 C933 1.355 . S
C934 C936 1.419 . S
C935 C930 1.425 . S
C935 C932 1.409 . S
C935 C933 1.415 . S
C936 H926 0.930 . S
C936 C934 1.419 . S
C936 C937 1.362 . S
C937 H927 0.930 . S
C937 C930 1.409 . S
C937 C936 1.362 . S
H938 C944 0.930 . S
H939 C947 0.930 . S
H940 C948 0.930 . S
H941 C949 0.930 . S
H942 C952 0.930 . S
H943 C953 0.930 . S
C944 H938 0.930 . S
C944 C945 1.355 . S
C944 C946 1.415 . S
C945 C944 1.355 . S
C945 C947 1.419 . S
C946 C944 1.415 . S
C946 C951 1.425 . S
C946 C953 1.409 . S
C947 H939 0.930 . S
C947 C945 1.419 . S
C947 C948 1.362 . S
C948 H940 0.930 . S
C948 C947 1.362 . S
C948 C951 1.409 . S
C949 H941 0.930 . S
C949 C950 1.355 . S
C949 C951 1.415 . S
C950 C949 1.355 . S
C950 C952 1.419 . S
C951 C946 1.425 . S
C951 C948 1.409 . S
C951 C949 1.415 . S
C952 H942 0.930 . S
C952 C950 1.419 . S
C952 C953 1.362 . S
C953 H943 0.930 . S
C953 C946 1.409 . S
C953 C952 1.362 . S
H954 C960 0.930 . S
H955 C963 0.930 . S
H956 C964 0.930 . S
H957 C965 0.930 . S
H958 C968 0.930 . S
H959 C969 0.930 . S
C960 H954 0.930 . S
C960 C961 1.355 . S
C960 C962 1.415 . S
C961 C960 1.355 . S
C961 C963 1.419 . S
C962 C960 1.415 . S
C962 C967 1.425 . S
C962 C969 1.409 . S
C963 H955 0.930 . S
C963 C961 1.419 . S
C963 C964 1.362 . S
C964 H956 0.930 . S
C964 C963 1.362 . S
C964 C967 1.409 . S
C965 H957 0.930 . S
C965 C966 1.355 . S
C965 C967 1.415 . S
C966 C965 1.355 . S
C966 C968 1.419 . S
C967 C962 1.425 . S
C967 C964 1.409 . S
C967 C965 1.415 . S
C968 H958 0.930 . S
C968 C966 1.419 . S
C968 C969 1.362 . S
C969 H959 0.930 . S
C969 C962 1.409 . S
C969 C968 1.362 . S
H970 C976 0.930 . S
H971 C979 0.930 . S
H972 C980 0.930 . S
H973 C981 0.930 . S
H974 C984 0.930 . S
H975 C985 0.930 . S
C976 H970 0.930 . S
C976 C977 1.355 . S
C976 C978 1.415 . S
C977 C976 1.355 . S
C977 C979 1.419 . S
C978 C976 1.415 . S
C978 C983 1.425 . S
C978 C985 1.409 . S
C979 H971 0.930 . S
C979 C977 1.419 . S
C979 C980 1.362 . S
C980 H972 0.930 . S
C980 C979 1.362 . S
C980 C983 1.409 . S
C981 H973 0.930 . S
C981 C982 1.355 . S
C981 C983 1.415 . S
C982 C981 1.355 . S
C982 C984 1.419 . S
C983 C978 1.425 . S
C983 C980 1.409 . S
C983 C981 1.415 . S
C984 H974 0.930 . S
C984 C982 1.419 . S
C984 C985 1.362 . S
C985 H975 0.930 . S
C985 C978 1.409 . S
C985 C984 1.362 . S
H986 C992 0.930 . S
H987 C995 0.930 . S
H988 C996 0.930 . S
H989 C997 0.930 . S
H990 C1000 0.930 . S
H991 C1001 0.930 . S
C992 H986 0.930 . S
C992 C993 1.355 . S
C992 C994 1.415 . S
C993 C992 1.355 . S
C993 C995 1.419 . S
C994 C992 1.415 . S
C994 C999 1.425 . S
C994 C1001 1.409 . S
C995 H987 0.930 . S
C995 C993 1.419 . S
C995 C996 1.362 . S
C996 H988 0.930 . S
C996 C995 1.362 . S
C996 C999 1.409 . S
C997 H989 0.930 . S
C997 C998 1.355 . S
C997 C999 1.415 . S
C998 C997 1.355 . S
C998 C1000 1.419 . S
C999 C994 1.425 . S
C999 C996 1.409 . S
C999 C997 1.415 . S
C1000 H990 0.930 . S
C1000 C998 1.419 . S
C1000 C1001 1.362 . S
C1001 H991 0.930 . S
C1001 C994 1.409 . S
C1001 C1000 1.362 . S
H1002 C1008 0.930 . S
H1003 C1011 0.930 . S
H1004 C1012 0.930 . S
H1005 C1013 0.930 . S
H1006 C1016 0.930 . S
H1007 C1017 0.930 . S
C1008 H1002 0.930 . S
C1008 C1009 1.355 . S
C1008 C1010 1.415 . S
C1009 C1008 1.355 . S
C1009 C1011 1.419 . S
C1010 C1008 1.415 . S
C1010 C1015 1.425 . S
C1010 C1017 1.409 . S
C1011 H1003 0.930 . S
C1011 C1009 1.419 . S
C1011 C1012 1.362 . S
C1012 H1004 0.930 . S
C1012 C1011 1.362 . S
C1012 C1015 1.409 . S
C1013 H1005 0.930 . S
C1013 C1014 1.355 . S
C1013 C1015 1.415 . S
C1014 C1013 1.355 . S
C1014 C1016 1.419 . S
C1015 C1010 1.425 . S
C1015 C1012 1.409 . S
C1015 C1013 1.415 . S
C1016 H1006 0.930 . S
C1016 C1014 1.419 . S
C1016 C1017 1.362 . S
C1017 H1007 0.930 . S
C1017 C1010 1.409 . S
C1017 C1016 1.362 . S
H1018 C1024 0.930 . S
H1019 C1027 0.930 . S
H1020 C1028 0.930 . S
H1021 C1029 0.930 . S
H1022 C1032 0.930 . S
H1023 C1033 0.930 . S
C1024 H1018 0.930 . S
C1024 C1025 1.355 . S
C1024 C1026 1.415 . S
C1025 C1024 1.355 . S
C1025 C1027 1.419 . S
C1026 C1024 1.415 . S
C1026 C1031 1.425 . S
C1026 C1033 1.409 . S
C1027 H1019 0.930 . S
C1027 C1025 1.419 . S
C1027 C1028 1.362 . S
C1028 H1020 0.930 . S
C1028 C1027 1.362 . S
C1028 C1031 1.409 . S
C1029 H1021 0.930 . S
C1029 C1030 1.355 . S
C1029 C1031 1.415 . S
C1030 C1029 1.355 . S
C1030 C1032 1.419 . S
C1031 C1026 1.425 . S
C1031 C1028 1.409 . S
C1031 C1029 1.415 . S
C1032 H1022 0.930 . S
C1032 C1030 1.419 . S
C1032 C1033 1.362 . S
C1033 H1023 0.930 . S
C1033 C1026 1.409 . S
C1033 C1032 1.362 . S
H1034 C1040 0.930 . S
H1035 C1043 0.930 . S
H1036 C1044 0.930 . S
H1037 C1045 0.930 . S
H1038 C1048 0.930 . S
H1039 C1049 0.930 . S
C1040 H1034 0.930 . S
C1040 C1041 1.355 . S
C1040 C1042 1.415 . S
C1041 C1040 1.355 . S
C1041 C1043 1.419 . S
C1042 C1040 1.415 . S
C1042 C1047 1.425 . S
C1042 C1049 1.409 . S
C1043 H1035 0.930 . S
C1043 C1041 1.419 . S
C1043 C1044 1.362 . S
C1044 H1036 0.930 . S
C1044 C1043 1.362 . S
C1044 C1047 1.409 . S
C1045 H1037 0.930 . S
C1045 C1046 1.355 . S
C1045 C1047 1.415 . S
C1046 C1045 1.355 . S
C1046 C1048 1.419 . S
C1047 C1042 1.425 . S
C1047 C1044 1.409 . S
C1047 C1045 1.415 . S
C1048 H1038 0.930 . S
C1048 C1046 1.419 . S
C1048 C1049 1.362 . S
C1049 H1039 0.930 . S
C1049 C1042 1.409 . S
C1049 C1048 1.362 . S
H1050 C1056 0.930 . S
H1051 C1059 0.930 . S
H1052 C1060 0.930 . S
H1053 C1061 0.930 . S
H1054 C1064 0.930 . S
H1055 C1065 0.930 . S
C1056 H1050 0.930 . S
C1056 C1057 1.355 . S
C1056 C1058 1.415 . S
C1057 C1056 1.355 . S
C1057 C1059 1.419 . S
C1058 C1056 1.415 . S
C1058 C1063 1.425 . S
C1058 C1065 1.409 . S
C1059 H1051 0.930 . S
C1059 C1057 1.419 . S
C1059 C1060 1.362 . S
C1060 H1052 0.930 . S
C1060 C1059 1.362 . S
C1060 C1063 1.409 . S
C1061 H1053 0.930 . S
C1061 C1062 1.355 . S
C1061 C1063 1.415 . S
C1062 C1061 1.355 . S
C1062 C1064 1.419 . S
C1063 C1058 1.425 . S
C1063 C1060 1.409 . S
C1063 C1061 1.415 . S
C1064 H1054 0.930 . S
C1064 C1062 1.419 . S
C1064 C1065 1.362 . S
C1065 H1055 0.930 . S
C1065 C1058 1.409 . S
C1065 C1064 1.362 . S
H1066 C1072 0.930 . S
H1067 C1075 0.930 . S
H1068 C1076 0.930 . S
H1069 C1077 0.930 . S
H1070 C1080 0.930 . S
H1071 C1081 0.930 . S
C1072 H1066 0.930 . S
C1072 C1073 1.355 . S
C1072 C1074 1.415 . S
C1073 C1072 1.355 . S
C1073 C1075 1.419 . S
C1074 C1072 1.415 . S
C1074 C1079 1.425 . S
C1074 C1081 1.409 . S
C1075 H1067 0.930 . S
C1075 C1073 1.419 . S
C1075 C1076 1.362 . S
C1076 H1068 0.930 . S
C1076 C1075 1.362 . S
C1076 C1079 1.409 . S
C1077 H1069 0.930 . S
C1077 C1078 1.355 . S
C1077 C1079 1.415 . S
C1078 C1077 1.355 . S
C1078 C1080 1.419 . S
C1079 C1074 1.425 . S
C1079 C1076 1.409 . S
C1079 C1077 1.415 . S
C1080 H1070 0.930 . S
C1080 C1078 1.419 . S
C1080 C1081 1.362 . S
C1081 H1071 0.930 . S
C1081 C1074 1.409 . S
C1081 C1080 1.362 . S
H1082 C1088 0.930 . S
H1083 C1091 0.930 . S
H1084 C1092 0.930 . S
H1085 C1093 0.930 . S
H1086 C1096 0.930 . S
H1087 C1097 0.930 . S
C1088 H1082 0.930 . S
C1088 C1089 1.355 . S
C1088 C1090 1.415 . S
C1089 C1088 1.355 . S
C1089 C1091 1.419 . S
C1090 C1088 1.415 . S
C1090 C1095 1.425 . S
C1090 C1097 1.409 . S
C1091 H1083 0.930 . S
C1091 C1089 1.419 . S
C1091 C1092 1.362 . S
C1092 H1084 0.930 . S
C1092 C1091 1.362 . S
C1092 C1095 1.409 . S
C1093 H1085 0.930 . S
C1093 C1094 1.355 . S
C1093 C1095 1.415 . S
C1094 C1093 1.355 . S
C1094 C1096 1.419 . S
C1095 C1090 1.425 . S
C1095 C1092 1.409 . S
C1095 C1093 1.415 . S
C1096 H1086 0.930 . S
C1096 C1094 1.419 . S
C1096 C1097 1.362 . S
C1097 H1087 0.930 . S
C1097 C1090 1.409 . S
C1097 C1096 1.362 . S
H1098 C1104 0.930 . S
H1099 C1107 0.930 . S
H1100 C1108 0.930 . S
H1101 C1109 0.930 . S
H1102 C1112 0.930 . S
H1103 C1113 0.930 . S
C1104 H1098 0.930 . S
C1104 C1105 1.355 . S
C1104 C1106 1.415 . S
C1105 C1104 1.355 . S
C1105 C1107 1.419 . S
C1106 C1104 1.415 . S
C1106 C1111 1.425 . S
C1106 C1113 1.409 . S
C1107 H1099 0.930 . S
C1107 C1105 1.419 . S
C1107 C1108 1.362 . S
C1108 H1100 0.930 . S
C1108 C1107 1.362 . S
C1108 C1111 1.409 . S
C1109 H1101 0.930 . S
C1109 C1110 1.355 . S
C1109 C1111 1.415 . S
C1110 C1109 1.355 . S
C1110 C1112 1.419 . S
C1111 C1106 1.425 . S
C1111 C1108 1.409 . S
C1111 C1109 1.415 . S
C1112 H1102 0.930 . S
C1112 C1110 1.419 . S
C1112 C1113 1.362 . S
C1113 H1103 0.930 . S
C1113 C1106 1.409 . S
C1113 C1112 1.362 . S
H1114 C1120 0.930 . S
H1115 C1123 0.930 . S
H1116 C1124 0.930 . S
H1117 C1125 0.930 . S
H1118 C1128 0.930 . S
H1119 C1129 0.930 . S
C1120 H1114 0.930 . S
C1120 C1121 1.355 . S
C1120 C1122 1.415 . S
C1121 C1120 1.355 . S
C1121 C1123 1.419 . S
C1122 C1120 1.415 . S
C1122 C1127 1.425 . S
C1122 C1129 1.409 . S
C1123 H1115 0.930 . S
C1123 C1121 1.419 . S
C1123 C1124 1.362 . S
C1124 H1116 0.930 . S
C1124 C1123 1.362 . S
C1124 C1127 1.409 . S
C1125 H1117 0.930 . S
C1125 C1126 1.355 . S
C1125 C1127 1.415 . S
C1126 C1125 1.355 . S
C1126 C1128 1.419 . S
C1127 C1122 1.425 . S
C1127 C1124 1.409 . S
C1127 C1125 1.415 . S
C1128 H1118 0.930 . S
C1128 C1126 1.419 . S
C1128 C1129 1.362 . S
C1129 H1119 0.930 . S
C1129 C1122 1.409 . S
C1129 C1128 1.362 . S
H1130 C1136 0.930 . S
H1131 C1139 0.930 . S
H1132 C1140 0.930 . S
H1133 C1141 0.930 . S
H1134 C1144 0.930 . S
H1135 C1145 0.930 . S
C1136 H1130 0.930 . S
C1136 C1137 1.355 . S
C1136 C1138 1.415 . S
C1137 C1136 1.355 . S
C1137 C1139 1.419 . S
C1138 C1136 1.415 . S
C1138 C1143 1.425 . S
C1138 C1145 1.409 . S
C1139 H1131 0.930 . S
C1139 C1137 1.419 . S
C1139 C1140 1.362 . S
C1140 H1132 0.930 . S
C1140 C1139 1.362 . S
C1140 C1143 1.409 . S
C1141 H1133 0.930 . S
C1141 C1142 1.355 . S
C1141 C1143 1.415 . S
C1142 C1141 1.355 . S
C1142 C1144 1.419 . S
C1143 C1138 1.425 . S
C1143 C1140 1.409 . S
C1143 C1141 1.415 . S
C1144 H1134 0.930 . S
C1144 C1142 1.419 . S
C1144 C1145 1.362 . S
C1145 H1135 0.930 . S
C1145 C1138 1.409 . S
C1145 C1144 1.362 . S
H1146 C1152 0.930 . S
H1147 C1155 0.930 . S
H1148 C1156 0.930 . S
H1149 C1157 0.930 . S
H1150 C1160 0.930 . S
H1151 C1161 0.930 . S
C1152 H1146 0.930 . S
C1152 C1153 1.355 . S
C1152 C1154 1.415 . S
C1153 C1152 1.355 . S
C1153 C1155 1.419 . S
C1154 C1152 1.415 . S
C1154 C1159 1.425 . S
C1154 C1161 1.409 . S
C1155 H1147 0.930 . S
C1155 C1153 1.419 . S
C1155 C1156 1.362 . S
C1156 H1148 0.930 . S
C1156 C1155 1.362 . S
C1156 C1159 1.409 . S
C1157 H1149 0.930 . S
C1157 C1158 1.355 . S
C1157 C1159 1.415 . S
C1158 C1157 1.355 . S
C1158 C1160 1.419 . S
C1159 C1154 1.425 . S
C1159 C1156 1.409 . S
C1159 C1157 1.415 . S
C1160 H1150 0.930 . S
C1160 C1158 1.419 . S
C1160 C1161 1.362 . S
C1161 H1151 0.930 . S
C1161 C1154 1.409 . S
C1161 C1160 1.362 . S
H1162 C1168 0.930 . S
H1163 C1171 0.930 . S
H1164 C1172 0.930 . S
H1165 C1173 0.930 . S
H1166 C1176 0.930 . S
H1167 C1177 0.930 . S
C1168 H1162 0.930 . S
C1168 C1169 1.355 . S
C1168 C1170 1.415 . S
C1169 C1168 1.355 . S
C1169 C1171 1.419 . S
C1170 C1168 1.415 . S
C1170 C1175 1.425 . S
C1170 C1177 1.409 . S
C1171 H1163 0.930 . S
C1171 C1169 1.419 . S
C1171 C1172 1.362 . S
C1172 H1164 0.930 . S
C1172 C1171 1.362 . S
C1172 C1175 1.409 . S
C1173 H1165 0.930 . S
C1173 C1174 1.355 . S
C1173 C1175 1.415 . S
C1174 C1173 1.355 . S
C1174 C1176 1.419 . S
C1175 C1170 1.425 . S
C1175 C1172 1.409 . S
C1175 C1173 1.415 . S
C1176 H1166 0.930 . S
C1176 C1174 1.419 . S
C1176 C1177 1.362 . S
C1177 H1167 0.930 . S
C1177 C1170 1.409 . S
C1177 C1176 1.362 . S
H1178 C1184 0.930 . S
H1179 C1187 0.930 . S
H1180 C1188 0.930 . S
H1181 C1189 0.930 . S
H1182 C1192 0.930 . S
H1183 C1193 0.930 . S
C1184 H1178 0.930 . S
C1184 C1185 1.355 . S
C1184 C1186 1.415 . S
C1185 C1184 1.355 . S
C1185 C1187 1.419 . S
C1186 C1184 1.415 . S
C1186 C1191 1.425 . S
C1186 C1193 1.409 . S
C1187 H1179 0.930 . S
C1187 C1185 1.419 . S
C1187 C1188 1.362 . S
C1188 H1180 0.930 . S
C1188 C1187 1.362 . S
C1188 C1191 1.409 . S
C1189 H1181 0.930 . S
C1189 C1190 1.355 . S
C1189 C1191 1.415 . S
C1190 C1189 1.355 . S
C1190 C1192 1.419 . S
C1191 C1186 1.425 . S
C1191 C1188 1.409 . S
C1191 C1189 1.415 . S
C1192 H1182 0.930 . S
C1192 C1190 1.419 . S
C1192 C1193 1.362 . S
C1193 H1183 0.930 . S
C1193 C1186 1.409 . S
C1193 C1192 1.362 . S
H1194 C1200 0.930 . S
H1195 C1203 0.930 . S
H1196 C1204 0.930 . S
H1197 C1205 0.930 . S
H1198 C1208 0.930 . S
H1199 C1209 0.930 . S
C1200 H1194 0.930 . S
C1200 C1201 1.355 . S
C1200 C1202 1.415 . S
C1201 C1200 1.355 . S
C1201 C1203 1.419 . S
C1202 C1200 1.415 . S
C1202 C1207 1.425 . S
C1202 C1209 1.409 . S
C1203 H1195 0.930 . S
C1203 C1201 1.419 . S
C1203 C1204 1.362 . S
C1204 H1196 0.930 . S
C1204 C1203 1.362 . S
C1204 C1207 1.409 . S
C1205 H1197 0.930 . S
C1205 C1206 1.355 . S
C1205 C1207 1.415 . S
C1206 C1205 1.355 . S
C1206 C1208 1.419 . S
C1207 C1202 1.425 . S
C1207 C1204 1.409 . S
C1207 C1205 1.415 . S
C1208 H1198 0.930 . S
C1208 C1206 1.419 . S
C1208 C1209 1.362 . S
C1209 H1199 0.930 . S
C1209 C1202 1.409 . S
C1209 C1208 1.362 . S
H1210 C1216 0.930 . S
H1211 C1219 0.930 . S
H1212 C1220 0.930 . S
H1213 C1221 0.930 . S
H1214 C1224 0.930 . S
H1215 C1225 0.930 . S
C1216 H1210 0.930 . S
C1216 C1217 1.355 . S
C1216 C1218 1.415 . S
C1217 C1216 1.355 . S
C1217 C1219 1.419 . S
C1218 C1216 1.415 . S
C1218 C1223 1.425 . S
C1218 C1225 1.409 . S
C1219 H1211 0.930 . S
C1219 C1217 1.419 . S
C1219 C1220 1.362 . S
C1220 H1212 0.930 . S
C1220 C1219 1.362 . S
C1220 C1223 1.409 . S
C1221 H1213 0.930 . S
C1221 C1222 1.355 . S
C1221 C1223 1.415 . S
C1222 C1221 1.355 . S
C1222 C1224 1.419 . S
C1223 C1218 1.425 . S
C1223 C1220 1.409 . S
C1223 C1221 1.415 . S
C1224 H1214 0.930 . S
C1224 C1222 1.419 . S
C1224 C1225 1.362 . S
C1225 H1215 0.930 . S
C1225 C1218 1.409 . S
C1225 C1224 1.362 . S
H1226 C1232 0.930 . S
H1227 C1235 0.930 . S
H1228 C1236 0.930 . S
H1229 C1237 0.930 . S
H1230 C1240 0.930 . S
H1231 C1241 0.930 . S
C1232 H1226 0.930 . S
C1232 C1233 1.355 . S
C1232 C1234 1.415 . S
C1233 C1232 1.355 . S
C1233 C1235 1.419 . S
C1234 C1232 1.415 . S
C1234 C1239 1.425 . S
C1234 C1241 1.409 . S
C1235 H1227 0.930 . S
C1235 C1233 1.419 . S
C1235 C1236 1.362 . S
C1236 H1228 0.930 . S
C1236 C1235 1.362 . S
C1236 C1239 1.409 . S
C1237 H1229 0.930 . S
C1237 C1238 1.355 . S
C1237 C1239 1.415 . S
C1238 C1237 1.355 . S
C1238 C1240 1.419 . S
C1239 C1234 1.425 . S
C1239 C1236 1.409 . S
C1239 C1237 1.415 . S
C1240 H1230 0.930 . S
C1240 C1238 1.419 . S
C1240 C1241 1.362 . S
C1241 H1231 0.930 . S
C1241 C1234 1.409 . S
C1241 C1240 1.362 . S
H1242 C1248 0.930 . S
H1243 C1251 0.930 . S
H1244 C1252 0.930 . S
H1245 C1253 0.930 . S
H1246 C1256 0.930 . S
H1247 C1257 0.930 . S
C1248 H1242 0.930 . S
C1248 C1249 1.355 . S
C1248 C1250 1.415 . S
C1249 C1248 1.355 . S
C1249 C1251 1.419 . S
C1250 C1248 1.415 . S
C1250 C1255 1.425 . S
C1250 C1257 1.409 . S
C1251 H1243 0.930 . S
C1251 C1249 1.419 . S
C1251 C1252 1.362 . S
C1252 H1244 0.930 . S
C1252 C1251 1.362 . S
C1252 C1255 1.409 . S
C1253 H1245 0.930 . S
C1253 C1254 1.355 . S
C1253 C1255 1.415 . S
C1254 C1253 1.355 . S
C1254 C1256 1.419 . S
C1255 C1250 1.425 . S
C1255 C1252 1.409 . S
C1255 C1253 1.415 . S
C1256 H1246 0.930 . S
C1256 C1254 1.419 . S
C1256 C1257 1.362 . S
C1257 H1247 0.930 . S
C1257 C1250 1.409 . S
C1257 C1256 1.362 . S
H1258 C1264 0.930 . S
H1259 C1267 0.930 . S
H1260 C1268 0.930 . S
H1261 C1269 0.930 . S
H1262 C1272 0.930 . S
H1263 C1273 0.930 . S
C1264 H1258 0.930 . S
C1264 C1265 1.355 . S
C1264 C1266 1.415 . S
C1265 C1264 1.355 . S
C1265 C1267 1.419 . S
C1266 C1264 1.415 . S
C1266 C1271 1.425 . S
C1266 C1273 1.409 . S
C1267 H1259 0.930 . S
C1267 C1265 1.419 . S
C1267 C1268 1.362 . S
C1268 H1260 0.930 . S
C1268 C1267 1.362 . S
C1268 C1271 1.409 . S
C1269 H1261 0.930 . S
C1269 C1270 1.355 . S
C1269 C1271 1.415 . S
C1270 C1269 1.355 . S
C1270 C1272 1.419 . S
C1271 C1266 1.425 . S
C1271 C1268 1.409 . S
C1271 C1269 1.415 . S
C1272 H1262 0.930 . S
C1272 C1270 1.419 . S
C1272 C1273 1.362 . S
C1273 H1263 0.930 . S
C1273 C1266 1.409 . S
C1273 C1272 1.362 . S
C518 C331 1.864 . S
C513 C2 1.876 . S
C534 C321 1.433 . S
C529 C48 1.451 . S
C550 C322 1.167 . S
C545 C97 1.165 . S
C561 C149 0.579 . S
C566 C344 0.763 . S
C577 C189 1.434 . S
C582 C347 1.447 . S
C598 C330 1.116 . S
C593 C202 1.139 . S
C609 C248 0.615 . S
C614 C320 0.794 . S
C625 C297 1.856 . S
C630 C338 1.830 . S
C646 C351 2.636 . S
C641 C31 2.747 . S
C657 C52 1.743 . S
C662 C400 1.709 . S
C678 C378 1.417 . S
C673 C88 1.471 . S
C694 C392 1.066 . S
C689 C122 1.132 . S
C705 C162 1.119 . S
C710 C353 1.110 . S
C726 C406 2.620 . S
C721 C231 2.751 . S
C737 C252 1.743 . S
C742 C362 1.704 . S
C753 C288 1.385 . S
C758 C383 1.411 . S
C769 C29 1.410 . S
C774 C409 1.380 . S
C785 C191 1.738 . S
C790 C393 1.703 . S
C806 C352 1.420 . S
C801 C229 1.480 . S
C822 C384 1.129 . S
C817 C257 1.078 . S
C833 C292 2.750 . S
C838 C375 2.634 . S
C849 C92 2.756 . S
C854 C382 2.641 . S
C870 C369 1.737 . S
C865 C151 1.734 . S
C881 C57 1.135 . S
C886 C361 1.156 . S
C897 C282 1.869 . S
C902 C424 1.856 . S
C913 C168 1.382 . S
C918 C414 1.401 . S
C934 C415 1.143 . S
C929 C217 1.152 . S
C950 C437 0.713 . S
C945 C269 0.603 . S
C961 C69 1.431 . S
C966 C440 1.446 . S
C982 C423 1.119 . S
C977 C82 1.141 . S
C993 C128 0.564 . S
C998 C413 0.749 . S
C1009 C17 1.879 . S
C1014 C431 1.860 . S
C1025 C311 2.754 . S
C1030 C444 2.638 . S
C1046 C493 1.679 . S
C1041 C172 1.734 . S
C1057 C208 1.444 . S
C1062 C471 1.481 . S
C1073 C242 1.129 . S
C1078 C485 1.077 . S
C1094 C446 1.158 . S
C1089 C42 1.137 . S
C1105 C111 2.737 . S
C1110 C499 2.639 . S
C1126 C455 1.703 . S
C1121 C132 1.745 . S
C1142 C476 1.421 . S
C1137 C8 1.435 . S
C1158 C502 1.438 . S
C1153 C309 1.412 . S
C1169 C71 1.745 . S
C1174 C486 1.719 . S
C1185 C109 1.491 . S
C1190 C445 1.430 . S
C1206 C477 1.115 . S
C1201 C137 1.060 . S
C1217 C12 2.753 . S
C1222 C468 2.636 . S
C1233 C212 2.739 . S
C1238 C475 2.653 . S
C1254 C462 1.708 . S
C1249 C271 1.739 . S
C1270 C454 1.145 . S
C1265 C177 1.156 . S
