# Generated by pormake.
# Topology nia, (6,6)-cn, num edge types: 1
# Building blocks:
#     Node 0, Type 0, BuildingBlock: CUWYAW_clean_sbu_0, # of connection points: 6
#     Node 1, Type 0, BuildingBlock: CUWYAW_clean_sbu_0, # of connection points: 6
#     Node 2, Type 1, BuildingBlock: MIDCAF_clean_sbu_0, # of connection points: 6
#     Node 3, Type 1, BuildingBlock: MIDCAF_clean_sbu_0, # of connection points: 6
#     Edge 4, Type (0, 1), BuildingBlock: FUNLAD_clean_linker_1, # of connection points: 2
#     Edge 5, Type (0, 1), BuildingBlock: FUNLAD_clean_linker_1, # of connection points: 2
#     Edge 6, Type (0, 1), BuildingBlock: FUNLAD_clean_linker_1, # of connection points: 2
#     Edge 7, Type (0, 1), BuildingBlock: FUNLAD_clean_linker_1, # of connection points: 2
#     Edge 8, Type (0, 1), BuildingBlock: FUNLAD_clean_linker_1, # of connection points: 2
#     Edge 9, Type (0, 1), BuildingBlock: FUNLAD_clean_linker_1, # of connection points: 2
#     Edge 10, Type (0, 1), BuildingBlock: FUNLAD_clean_linker_1, # of connection points: 2
#     Edge 11, Type (0, 1), BuildingBlock: FUNLAD_clean_linker_1, # of connection points: 2
#     Edge 12, Type (0, 1), BuildingBlock: FUNLAD_clean_linker_1, # of connection points: 2
#     Edge 13, Type (0, 1), BuildingBlock: FUNLAD_clean_linker_1, # of connection points: 2
#     Edge 14, Type (0, 1), BuildingBlock: FUNLAD_clean_linker_1, # of connection points: 2
#     Edge 15, Type (0, 1), BuildingBlock: FUNLAD_clean_linker_1, # of connection points: 2
# Relax obj value: 0.281
# Max RMSD: 0.269
# Mean RMSD: 0.234
data_MOF--net-nia--node1-CUWYAW_clean_sbu_0--node2-MIDCAF_clean_sbu_0--edge1-FUNLAD_clean_linker_1
_symmetry_space_group_name_H-M    P1
_symmetry_Int_Tables_number       1
_symmetry_cell_setting            triclinic
loop_
_symmetry_equiv_pos_as_xyz
'x, y, z'
_cell_length_a     29.168612
_cell_length_b     25.949931
_cell_length_c     36.075708
_cell_angle_alpha  101.3629
_cell_angle_beta   70.723783
_cell_angle_gamma 128.46914
loop_
_atom_site_label
_atom_site_type_symbol
_atom_site_fract_x
_atom_site_fract_y
_atom_site_fract_z
_atom_type_partial_charge
C0 C 0.07536 0.90736 0.04305 0.0
Eu1 Eu 0.03092 0.96422 0.03466 0.0
C2 C 0.09335 0.89821 0.07331 0.0
C3 C 0.09346 0.93014 0.10956 0.0
C4 C 0.11309 0.92255 0.1373 0.0
C5 C 0.13238 0.88257 0.12937 0.0
C6 C 0.13224 0.85091 0.09279 0.0
C7 C 0.11267 0.85855 0.06518 0.0
C8 C 0.92348 0.94287 0.07449 0.0
C9 C 0.98458 0.92201 0.95431 0.0
C10 C 0.94246 0.08783 0.99506 0.0
Eu11 Eu 0.99908 0.04624 1.00501 0.0
C12 C 0.93607 0.11094 0.96384 0.0
C13 C 0.97217 0.17852 0.95558 0.0
C14 C 0.96142 0.20123 0.92973 0.0
C15 C 0.91433 0.15717 0.91148 0.0
C16 C 0.87927 0.08925 0.91879 0.0
C17 C 0.89002 0.06649 0.94471 0.0
C18 C 0.11554 0.08717 0.96858 0.0
C19 C 0.05569 0.09379 0.07995 0.0
O20 O 0.01701 0.87683 0.04892 0.0
O21 O 0.10911 0.96752 0.02938 0.0
O22 O 0.95433 0.93765 0.09062 0.0
O23 O 0.9483 0.95381 0.03818 0.0
O24 O 0.00616 0.91387 0.97799 0.0
O25 O 0.97604 0.96768 0.95911 0.0
O26 O 0.99432 0.12656 1.00438 0.0
O27 O 0.91898 0.02534 0.99556 0.0
O28 O 0.09275 0.11206 0.96024 0.0
O29 O 0.07518 0.04405 0.9945 0.0
O30 O 0.01752 0.0889 0.06455 0.0
O31 O 0.07543 0.05764 0.06839 0.0
H32 H 0.079 0.96137 0.11618 0.0
H33 H 0.11336 0.94811 0.16496 0.0
H34 H 0.14872 0.82162 0.08473 0.0
H35 H 0.11353 0.8342 0.03713 0.0
H36 H 0.00754 0.21426 0.97009 0.0
H37 H 0.98885 0.25381 0.925 0.0
H38 H 0.84165 0.05355 0.90616 0.0
H39 H 0.86075 0.01414 0.95081 0.0
C40 C 0.95437 0.97733 0.41317 0.0
Eu41 Eu 0.98586 0.98636 0.4749 0.0
C42 C 0.93057 1.00241 0.39817 0.0
C43 C 0.93065 0.99311 0.3586 0.0
C44 C 0.89525 1.0011 0.34569 0.0
C45 C 0.85851 0.01741 0.37253 0.0
C46 C 0.86437 0.03432 0.41102 0.0
C47 C 0.90004 0.02659 0.42387 0.0
C48 C 0.93688 0.8874 0.52411 0.0
C49 C 0.93987 0.05236 0.54971 0.0
C50 C 0.04397 0.02149 0.61975 0.0
Eu51 Eu 0.03357 0.02684 0.55199 0.0
C52 C 0.09164 0.05116 0.63951 0.0
C53 C 0.15271 0.08424 0.61794 0.0
C54 C 0.19783 0.11374 0.6373 0.0
C55 C 0.18239 0.1104 0.67858 0.0
C56 C 0.12118 0.07805 0.69998 0.0
C57 C 0.07606 0.04831 0.68055 0.0
C58 C 0.10361 0.1303 0.50001 0.0
C59 C 0.08801 0.97225 0.47393 0.0
O60 O 0.01071 0.01899 0.41539 0.0
O61 O 0.91699 0.93749 0.44365 0.0
O62 O 0.94544 0.88137 0.4864 0.0
O63 O 0.95043 0.94368 0.53454 0.0
O64 O 0.94823 0.04042 0.51156 0.0
O65 O 0.95995 0.04022 0.57223 0.0
O66 O 0.04277 0.98136 0.59091 0.0
O67 O 0.03519 0.06143 0.61188 0.0
O68 O 0.11493 0.13463 0.53291 0.0
O69 O 0.05927 0.07211 0.49709 0.0
O70 O 0.07793 0.98093 0.5125 0.0
O71 O 0.06477 0.98139 0.45216 0.0
H72 H 0.95485 0.97545 0.33826 0.0
H73 H 0.89378 0.99042 0.31537 0.0
H74 H 0.83729 0.04798 0.43212 0.0
H75 H 0.90018 0.03489 0.45446 0.0
H76 H 0.16548 0.08777 0.58622 0.0
H77 H 0.24472 0.14023 0.61988 0.0
H78 H 0.10823 0.07542 0.73176 0.0
H79 H 0.02902 0.02342 0.69758 0.0
Zn80 Zn 0.35488 0.64367 0.2053 0.0
Zn81 Zn 0.30706 0.65976 0.36213 0.0
Zn82 Zn 0.32811 0.64998 0.28269 0.0
C83 C 0.43338 0.73736 0.32801 0.0
C84 C 0.25244 0.52595 0.34313 0.0
O85 O 0.29268 0.69223 0.26333 0.0
O86 O 0.3127 0.67739 0.19899 0.0
C87 C 0.46575 0.71853 0.22028 0.0
O88 O 0.41609 0.712 0.29639 0.0
O89 O 0.3948 0.72359 0.36105 0.0
O90 O 0.2623 0.56418 0.37218 0.0
O91 O 0.27184 0.54914 0.3083 0.0
O92 O 0.445 0.70052 0.1908 0.0
O93 O 0.4291 0.70328 0.25528 0.0
O94 O 0.2756 0.54424 0.26768 0.0
O95 O 0.30916 0.54676 0.20292 0.0
C96 C 0.27499 0.51418 0.23464 0.0
O97 O 0.28276 0.69864 0.30467 0.0
O98 O 0.26223 0.69685 0.3695 0.0
C99 C 0.29028 0.69682 0.22916 0.0
C100 C 0.26017 0.71182 0.33911 0.0
Zn101 Zn 0.69175 0.38439 0.82858 0.0
Zn102 Zn 0.72004 0.3676 0.6722 0.0
Zn103 Zn 0.70389 0.37798 0.75097 0.0
C104 C 0.77657 0.502 0.69203 0.0
C105 C 0.59484 0.29933 0.70982 0.0
O106 O 0.73923 0.33055 0.76448 0.0
O107 O 0.73143 0.34387 0.82825 0.0
C108 C 0.76375 0.51367 0.79974 0.0
O109 O 0.75821 0.47902 0.72675 0.0
O110 O 0.76622 0.46374 0.663 0.0
O111 O 0.63152 0.30893 0.67645 0.0
O112 O 0.61359 0.32192 0.74106 0.0
O113 O 0.7401 0.48148 0.83114 0.0
O114 O 0.75527 0.4834 0.76698 0.0
O115 O 0.6049 0.32182 0.78242 0.0
O116 O 0.60115 0.32991 0.84545 0.0
C117 C 0.57406 0.30844 0.81885 0.0
O118 O 0.75034 0.33096 0.72365 0.0
O119 O 0.76312 0.3275 0.65942 0.0
C120 C 0.74693 0.32274 0.79559 0.0
C121 C 0.76971 0.31567 0.68885 0.0
H122 H 0.17144 0.91645 0.18029 0.0
C123 C 0.15548 0.87767 0.15872 0.0
H124 H 0.13806 0.78582 0.1404 0.0
H125 H 0.36102 0.88722 0.20956 0.0
H126 H 0.42544 0.97736 0.16236 0.0
H127 H 0.38086 0.99831 0.12533 0.0
H128 H 0.27189 0.92989 0.13544 0.0
C129 C 0.15816 0.82792 0.15933 0.0
C130 C 0.18513 0.82519 0.18681 0.0
C131 C 0.24918 0.86643 0.18068 0.0
C132 C 0.27508 0.85365 0.20149 0.0
C133 C 0.3391 0.89457 0.19437 0.0
C134 C 0.37658 0.94647 0.16738 0.0
C135 C 0.35147 0.95831 0.14657 0.0
C136 C 0.28863 0.91871 0.15282 0.0
H137 H 0.23162 0.69392 0.20228 0.0
C138 C 0.2575 0.71955 0.22395 0.0
H139 H 0.29534 0.80483 0.25847 0.0
H140 H 0.06095 0.74475 0.21042 0.0
H141 H 0.99666 0.65689 0.25937 0.0
H142 H 0.04185 0.63351 0.2943 0.0
H143 H 0.15155 0.69836 0.28094 0.0
C144 C 0.26442 0.77437 0.24008 0.0
C145 C 0.23713 0.79869 0.22734 0.0
C146 C 0.17307 0.76142 0.23611 0.0
C147 C 0.14708 0.7747 0.21582 0.0
C148 C 0.08296 0.73612 0.22473 0.0
C149 C 0.04562 0.68583 0.25284 0.0
C150 C 0.07106 0.67275 0.27258 0.0
C151 C 0.13402 0.71002 0.26449 0.0
H152 H 0.21967 0.15726 0.73016 0.0
C153 C 0.22926 0.14194 0.70005 0.0
H154 H 0.29136 0.13151 0.65519 0.0
H155 H 0.50345 0.38025 0.72941 0.0
H156 H 0.48466 0.44475 0.70542 0.0
H157 H 0.3946 0.39056 0.68109 0.0
H158 H 0.32276 0.27151 0.68072 0.0
C159 C 0.28221 0.15064 0.68403 0.0
C160 C 0.32922 0.18343 0.70549 0.0
C161 C 0.36998 0.25305 0.70616 0.0
C162 C 0.42202 0.28424 0.71999 0.0
C163 C 0.46311 0.35389 0.7193 0.0
C164 C 0.45287 0.39156 0.7056 0.0
C165 C 0.40217 0.36106 0.69191 0.0
C166 C 0.36121 0.29264 0.69193 0.0
H167 H 0.51401 0.22724 0.6884 0.0
C168 C 0.53055 0.2625 0.71156 0.0
H169 H 0.51246 0.3167 0.75759 0.0
H170 H 0.25403 0.04958 0.71416 0.0
H171 H 0.26978 0.98489 0.74149 0.0
H172 H 0.36002 0.03894 0.76555 0.0
H173 H 0.43449 0.15803 0.76315 0.0
C174 C 0.49457 0.27689 0.73688 0.0
C175 C 0.43332 0.2455 0.73243 0.0
C176 C 0.38922 0.17612 0.73548 0.0
C177 C 0.33724 0.14501 0.7217 0.0
C178 C 0.29454 0.07556 0.72407 0.0
C179 C 0.30291 0.03795 0.7398 0.0
C180 C 0.35367 0.0684 0.75343 0.0
C181 C 0.39631 0.13669 0.75158 0.0
H182 H 0.12183 0.15739 0.11455 0.0
C183 C 0.08056 0.14378 0.1099 0.0
H184 H 0.01543 0.1618 0.12546 0.0
H185 H 0.20197 0.32428 0.24572 0.0
H186 H 0.15482 0.21634 0.27034 0.0
H187 H 0.07627 0.11542 0.24295 0.0
H188 H 0.04501 0.12182 0.1903 0.0
C189 C 0.05649 0.17478 0.12999 0.0
C190 C 0.09078 0.23372 0.15385 0.0
C191 C 0.1067 0.22921 0.18567 0.0
C192 C 0.15057 0.28745 0.20236 0.0
C193 C 0.16806 0.2816 0.23257 0.0
C194 C 0.14138 0.21997 0.24693 0.0
C195 C 0.09722 0.16312 0.23144 0.0
C196 C 0.07997 0.1674 0.20112 0.0
H197 H 0.18792 0.41741 0.25698 0.0
C198 C 0.22853 0.4423 0.23254 0.0
H199 H 0.27188 0.43706 0.17391 0.0
H200 H 0.06294 0.25999 0.09767 0.0
H201 H 0.10243 0.36743 0.07788 0.0
H202 H 0.17499 0.46805 0.10888 0.0
H203 H 0.20886 0.46164 0.15965 0.0
C204 C 0.2314 0.41098 0.19834 0.0
C205 C 0.17679 0.34982 0.18797 0.0
C206 C 0.15558 0.35412 0.15935 0.0
C207 C 0.1128 0.29607 0.14209 0.0
C208 C 0.09469 0.30224 0.11227 0.0
C209 C 0.11705 0.36374 0.10055 0.0
C210 C 0.15796 0.42038 0.11795 0.0
C211 C 0.17723 0.41596 0.14694 0.0
H212 H 0.88882 0.08867 0.54926 0.0
C213 C 0.91005 0.0845 0.56709 0.0
H214 H 0.93531 0.11101 0.62026 0.0
H215 H 0.89417 0.32675 0.59448 0.0
H216 H 0.98264 0.3661 0.53846 0.0
H217 H 0.03171 0.31094 0.519 0.0
H218 H 0.99138 0.21479 0.5545 0.0
C219 C 0.91392 0.1144 0.6022 0.0
C220 C 0.89018 0.15375 0.61721 0.0
C221 C 0.91479 0.21043 0.59632 0.0
C222 C 0.88754 0.24339 0.6083 0.0
C223 C 0.91274 0.29948 0.5866 0.0
C224 C 0.9638 0.32292 0.55451 0.0
C225 C 0.99128 0.29172 0.54345 0.0
C226 C 0.96731 0.23617 0.56395 0.0
H227 H 0.81766 0.28746 0.70617 0.0
C228 C 0.79961 0.28397 0.68313 0.0
H229 H 0.78637 0.24776 0.62707 0.0
H230 H 0.84043 0.05545 0.66825 0.0
H231 H 0.7581 0.0222 0.72786 0.0
H232 H 0.70871 0.07703 0.74782 0.0
H233 H 0.74147 0.1655 0.70864 0.0
C234 C 0.80388 0.25036 0.65026 0.0
C235 C 0.8367 0.2208 0.64176 0.0
C236 C 0.81531 0.16741 0.66456 0.0
C237 C 0.84282 0.13459 0.65253 0.0
C238 C 0.82109 0.08191 0.67591 0.0
C239 C 0.77377 0.0622 0.71017 0.0
C240 C 0.74603 0.09315 0.72144 0.0
C241 C 0.76578 0.14449 0.69877 0.0
H242 H 0.83963 0.92785 0.07605 0.0
C243 C 0.86162 0.92412 0.09345 0.0
H244 H 0.85105 0.89129 0.14679 0.0
H245 H 0.61745 0.90452 0.18863 0.0
H246 H 0.69395 0.02326 0.18452 0.0
H247 H 0.80322 0.07261 0.16394 0.0
H248 H 0.83687 1.00365 0.14669 0.0
C249 C 0.83039 0.89809 0.12992 0.0
C250 C 0.76446 0.86915 0.1458 0.0
C251 C 0.74548 0.91007 0.15638 0.0
C252 C 0.68232 0.88155 0.16881 0.0
C253 C 0.66477 0.92363 0.17879 0.0
C254 C 0.70818 0.9918 0.17669 0.0
C255 C 0.76974 0.01961 0.16508 0.0
C256 C 0.78844 0.97948 0.1551 0.0
H257 H 0.54724 0.75291 0.23729 0.0
C258 C 0.53177 0.75365 0.21407 0.0
H259 H 0.55792 0.78484 0.15604 0.0
H260 H 0.78495 0.77646 0.13026 0.0
H261 H 0.70859 0.65802 0.13513 0.0
H262 H 0.59932 0.60866 0.15615 0.0
H263 H 0.56569 0.67737 0.1726 0.0
C264 C 0.57242 0.78251 0.17941 0.0
C265 C 0.63811 0.81217 0.17116 0.0
C266 C 0.65708 0.77126 0.16199 0.0
C267 C 0.72023 0.79978 0.14956 0.0
C268 C 0.73772 0.7576 0.14 0.0
C269 C 0.69434 0.68946 0.14259 0.0
C270 C 0.63282 0.66167 0.15443 0.0
C271 C 0.61414 0.70178 0.16392 0.0
H272 H 0.9128 0.7921 0.53481 0.0
C273 C 0.91927 0.83624 0.54936 0.0
H274 H 0.9154 0.88365 0.60386 0.0
H275 H 0.7319 0.60057 0.68903 0.0
H276 H 0.66873 0.63697 0.70513 0.0
H277 H 0.70758 0.74219 0.67903 0.0
H278 H 0.80993 0.81152 0.63637 0.0
C279 C 0.91136 0.84115 0.58841 0.0
C280 C 0.89301 0.78579 0.61115 0.0
C281 C 0.83405 0.74712 0.63732 0.0
C282 C 0.81189 0.68665 0.65278 0.0
C283 C 0.75153 0.64731 0.67699 0.0
C284 C 0.71465 0.66756 0.68639 0.0
C285 C 0.73651 0.72679 0.67167 0.0
C286 C 0.79534 0.76613 0.64724 0.0
H287 H 0.8134 0.60495 0.71109 0.0
C288 C 0.80679 0.57267 0.68597 0.0
H289 H 0.81729 0.56466 0.62479 0.0
H290 H 0.01274 0.85557 0.56937 0.0
H291 H 0.07789 0.82189 0.55558 0.0
H292 H 0.03929 0.71672 0.58167 0.0
H293 H 0.93534 0.64477 0.62194 0.0
C294 C 0.82265 0.59636 0.65023 0.0
C295 C 0.84928 0.66565 0.64253 0.0
C296 C 0.91011 0.70741 0.61929 0.0
C297 C 0.93215 0.76769 0.60385 0.0
C298 C 0.9933 0.80856 0.58103 0.0
C299 C 0.03127 0.79002 0.57312 0.0
C300 C 0.00954 0.73082 0.58782 0.0
C301 C 0.94975 0.68985 0.61071 0.0
H302 H 0.14165 0.93917 0.47395 0.0
C303 C 0.12306 0.94615 0.45542 0.0
H304 H 0.10713 0.92909 0.39969 0.0
H305 H 0.31939 0.88659 0.37944 0.0
H306 H 0.38585 1.00387 0.39107 0.0
H307 H 0.34748 0.06985 0.40696 0.0
H308 H 0.2423 0.01886 0.41159 0.0
C309 C 0.12786 0.92524 0.41805 0.0
C310 C 0.15388 0.88816 0.40281 0.0
C311 C 0.21578 0.91895 0.39941 0.0
C312 C 0.2381 0.88105 0.38968 0.0
C313 C 0.29994 0.91295 0.38697 0.0
C314 C 0.33867 0.98028 0.39339 0.0
C315 C 0.31705 0.01742 0.40238 0.0
C316 C 0.25645 0.98744 0.40525 0.0
H317 H 0.22497 0.75268 0.31828 0.0
C318 C 0.23319 0.74642 0.34356 0.0
H319 H 0.23107 0.76881 0.40335 0.0
H320 H 0.03462 0.81516 0.40237 0.0
H321 H 0.96948 0.69901 0.38809 0.0
H322 H 0.008 0.6332 0.37178 0.0
H323 H 0.11214 0.68331 0.36907 0.0
C324 C 0.22057 0.77221 0.3781 0.0
C325 C 0.19887 0.81266 0.38264 0.0
C326 C 0.13801 0.78268 0.38353 0.0
C327 C 0.11561 0.82059 0.39339 0.0
C328 C 0.05424 0.78902 0.3949 0.0
C329 C 0.01622 0.72225 0.38686 0.0
C330 C 0.03792 0.68521 0.37765 0.0
C331 C 0.09795 0.71471 0.37608 0.0
H332 H 0.19286 0.08649 0.96354 0.0
C333 C 0.17785 0.10666 0.95098 0.0
H334 H 0.20145 0.17138 0.90927 0.0
H335 H 0.48196 0.36585 0.89097 0.0
H336 H 0.4499 0.43394 0.92284 0.0
H337 H 0.34102 0.38587 0.94816 0.0
H338 H 0.26358 0.26958 0.94144 0.0
C339 C 0.21646 0.15031 0.92101 0.0
C340 C 0.28218 0.17795 0.90635 0.0
C341 C 0.32708 0.24604 0.91098 0.0
C342 C 0.38992 0.27352 0.8972 0.0
C343 C 0.43359 0.34197 0.90158 0.0
C344 C 0.41585 0.38179 0.91971 0.0
C345 C 0.35457 0.35476 0.93388 0.0
C346 C 0.31055 0.28781 0.92969 0.0
H347 H 0.48347 0.24851 0.80737 0.0
C348 C 0.50683 0.26966 0.83012 0.0
H349 H 0.49721 0.28456 0.89103 0.0
H350 H 0.20903 0.04785 0.88762 0.0
H351 H 0.24094 0.97888 0.8577 0.0
H352 H 0.34916 0.02444 0.83907 0.0
H353 H 0.42643 0.13979 0.84875 0.0
C354 C 0.47417 0.26212 0.86787 0.0
C355 C 0.40812 0.23285 0.87933 0.0
C356 C 0.3633 0.16478 0.8745 0.0
C357 C 0.3004 0.13765 0.88721 0.0
C358 C 0.25703 0.07038 0.88008 0.0
C359 C 0.27477 0.0303 0.86274 0.0
C360 C 0.33573 0.05602 0.85211 0.0
C361 C 0.37969 0.12245 0.8577 0.0
H362 H 0.16872 0.235 0.48232 0.0
C363 C 0.13167 0.18687 0.47486 0.0
H364 H 0.07093 0.13425 0.43963 0.0
H365 H 0.08764 0.37494 0.4043 0.0
H366 H 0.98039 0.29691 0.43718 0.0
H367 H 0.94155 0.19271 0.46473 0.0
H368 H 0.00935 0.16606 0.46007 0.0
C369 C 0.10986 0.1817 0.44567 0.0
C370 C 0.13231 0.24114 0.42488 0.0
C371 C 0.09177 0.25582 0.4278 0.0
C372 C 0.11419 0.31621 0.41214 0.0
C373 C 0.07294 0.33004 0.41599 0.0
C374 C 0.01131 0.2856 0.43461 0.0
C375 C 0.98942 0.22687 0.45005 0.0
C376 C 0.02897 0.21213 0.44708 0.0
H377 H 0.21785 0.42356 0.32387 0.0
C378 C 0.22172 0.4551 0.34928 0.0
H379 H 0.2048 0.46161 0.41105 0.0
H380 H 0.21903 0.2211 0.40548 0.0
H381 H 0.32543 0.29752 0.37077 0.0
H382 H 0.36536 0.40465 0.34682 0.0
H383 H 0.29902 0.43554 0.35677 0.0
C384 C 0.20216 0.43056 0.38552 0.0
C385 C 0.17696 0.36185 0.39346 0.0
C386 C 0.21662 0.34497 0.38798 0.0
C387 C 0.19407 0.28415 0.40313 0.0
C388 C 0.23426 0.26769 0.39601 0.0
C389 C 0.29533 0.31088 0.37585 0.0
C390 C 0.31777 0.37113 0.36228 0.0
C391 C 0.27913 0.38826 0.3682 0.0
H392 H 0.91718 0.23622 0.89402 0.0
C393 C 0.89906 0.18474 0.88913 0.0
H394 H 0.84366 0.09927 0.85828 0.0
H395 H 0.73103 0.26575 0.88886 0.0
H396 H 0.68928 0.22464 0.95547 0.0
H397 H 0.71414 0.16091 0.97539 0.0
H398 H 0.78096 0.13798 0.9287 0.0
C399 C 0.86115 0.14987 0.86583 0.0
C400 C 0.83914 0.17944 0.85197 0.0
C401 C 0.79928 0.19166 0.87944 0.0
C402 C 0.78493 0.22828 0.86788 0.0
C403 C 0.74467 0.23939 0.89606 0.0
C404 C 0.71991 0.21562 0.93441 0.0
C405 C 0.7339 0.17977 0.94563 0.0
C406 C 0.77279 0.16747 0.91857 0.0
H407 H 0.75736 0.24337 0.77491 0.0
C408 C 0.77014 0.28531 0.79429 0.0
H409 H 0.81331 0.34118 0.8387 0.0
H410 H 0.90647 0.15276 0.79077 0.0
H411 H 0.94501 0.18935 0.72295 0.0
H412 H 0.92527 0.25836 0.70339 0.0
H413 H 0.86609 0.29014 0.7511 0.0
C414 C 0.80148 0.29903 0.81953 0.0
C415 C 0.8104 0.25273 0.82878 0.0
C416 C 0.84687 0.23647 0.80058 0.0
C417 C 0.86015 0.19855 0.81213 0.0
C418 C 0.8958 0.18207 0.7835 0.0
C419 C 0.91819 0.2028 0.74458 0.0
C420 C 0.90692 0.24151 0.73354 0.0
C421 C 0.87226 0.25886 0.76117 0.0
H422 H 0.78643 0.0292 0.38257 0.0
C423 C 0.80692 1.00645 0.3636 0.0
H424 H 0.79194 0.92925 0.32353 0.0
H425 H 0.51121 0.75717 0.40768 0.0
H426 H 0.54326 0.72381 0.44602 0.0
H427 H 0.65216 0.78233 0.43916 0.0
H428 H 0.72956 0.8744 0.39389 0.0
C429 C 0.77566 0.95708 0.34028 0.0
C430 C 0.71061 0.92569 0.34586 0.0
C431 C 0.66593 0.87228 0.37281 0.0
C432 C 0.60326 0.83879 0.3769 0.0
C433 C 0.55955 0.78486 0.40357 0.0
C434 C 0.57729 0.76505 0.42576 0.0
C435 C 0.63857 0.79796 0.42189 0.0
C436 C 0.68256 0.85084 0.39576 0.0
H437 H 0.53062 0.78577 0.29832 0.0
C438 C 0.49874 0.78251 0.32557 0.0
H439 H 0.48894 0.81638 0.38386 0.0
H440 H 0.78514 0.02666 0.29235 0.0
H441 H 0.75332 0.06232 0.25502 0.0
H442 H 0.64439 1.00627 0.26339 0.0
H443 H 0.56665 0.91389 0.30868 0.0
C444 C 0.52001 0.81935 0.35597 0.0
C445 C 0.5855 0.85851 0.35381 0.0
C446 C 0.63021 0.91332 0.32776 0.0
C447 C 0.69298 0.9466 0.32355 0.0
C448 C 0.73686 1.00017 0.2968 0.0
C449 C 0.71921 0.02108 0.27526 0.0
C450 C 0.65787 0.98944 0.27992 0.0
C451 C 0.61369 0.93622 0.30584 0.0
H452 H 0.96537 0.83192 0.92273 0.0
C453 C 0.96521 0.87372 0.92271 0.0
H454 H 0.94133 0.91691 0.89647 0.0
H455 H 0.92034 0.65662 0.79482 0.0
H456 H 0.03058 0.72648 0.77872 0.0
H457 H 0.0879 0.84015 0.80328 0.0
H458 H 0.03493 0.88419 0.84475 0.0
C459 C 0.94308 0.87627 0.89633 0.0
C460 C 0.91205 0.81838 0.87105 0.0
C461 C 0.94366 0.79465 0.84523 0.0
C462 C 0.91069 0.72988 0.83009 0.0
C463 C 0.94313 0.70582 0.80654 0.0
C464 C 0.00643 0.74545 0.79707 0.0
C465 C 0.03872 0.80942 0.81096 0.0
C466 C 0.0079 0.83396 0.83485 0.0
H467 H 0.82282 0.61466 0.77442 0.0
C468 C 0.80152 0.58638 0.80123 0.0
H469 H 0.78759 0.58938 0.86265 0.0
H470 H 0.83871 0.85473 0.91237 0.0
H471 H 0.72963 0.78895 0.92302 0.0
H472 H 0.67294 0.67784 0.89503 0.0
H473 H 0.72529 0.63178 0.85628 0.0
C474 C 0.8102 0.61756 0.83555 0.0
C475 C 0.84636 0.6901 0.83991 0.0
C476 C 0.81574 0.71735 0.86113 0.0
C477 C 0.84857 0.78165 0.87681 0.0
C478 C 0.81624 0.80637 0.89949 0.0
C479 C 0.75355 0.76911 0.90581 0.0
C480 C 0.72161 0.70652 0.8901 0.0
C481 C 0.75208 0.6806 0.86809 0.0
loop_
_geom_bond_atom_site_label_1
_geom_bond_atom_site_label_2
_geom_bond_distance
_geom_bond_site_symmetry_2
_ccdc_geom_bond_type
C0 Eu1 2.835 . S
C0 C2 1.500 . S
C0 O20 1.257 . S
C0 O21 1.260 . S
Eu1 C0 2.835 . S
Eu1 O20 2.473 . S
Eu1 O21 2.480 . S
Eu1 O22 2.430 1_455 S
Eu1 O23 2.670 1_455 S
Eu1 O24 2.394 1_455 S
Eu1 O29 2.355 1_564 S
Eu1 O31 2.374 1_565 S
C2 C0 1.500 . S
C2 C3 1.377 . S
C2 C7 1.377 . S
C3 C2 1.377 . S
C3 C4 1.395 . S
C3 H32 0.931 1_455 S
C4 C3 1.395 . S
C4 C5 1.383 . S
C4 H33 0.931 . S
C5 C4 1.383 . S
C5 C6 1.394 . S
C6 C5 1.394 . S
C6 C7 1.378 . S
C6 H34 0.931 . S
C7 C2 1.377 . S
C7 C6 1.378 . S
C7 H35 0.931 . S
C8 O22 1.259 . S
C8 O23 1.270 . S
C9 O24 1.251 1_556 S
C9 O25 1.251 . S
C10 Eu11 2.835 . S
C10 C12 1.500 . S
C10 O26 1.257 . S
C10 O27 1.260 1_655 S
Eu11 C10 2.835 . S
Eu11 O23 2.355 1_546 S
Eu11 O25 2.374 1_545 S
Eu11 O26 2.473 . S
Eu11 O27 2.480 1_655 S
Eu11 O28 2.430 1_655 S
Eu11 O29 2.670 1_655 S
Eu11 O30 2.394 1_656 S
C12 C10 1.500 . S
C12 C13 1.377 1_655 S
C12 C17 1.377 . S
C13 C12 1.377 1_455 S
C13 C14 1.395 1_455 S
C13 H36 0.931 . S
C14 C13 1.395 1_655 S
C14 C15 1.383 . S
C14 H37 0.931 1_655 S
C15 C14 1.383 . S
C15 C16 1.394 . S
C16 C15 1.394 . S
C16 C17 1.378 . S
C16 H38 0.931 . S
C17 C12 1.377 . S
C17 C16 1.378 . S
C17 H39 0.931 . S
C18 O28 1.259 . S
C18 O29 1.270 . S
C19 O30 1.251 . S
C19 O31 1.251 . S
O20 C0 1.257 . S
O20 Eu1 2.473 . S
O21 C0 1.260 . S
O21 Eu1 2.480 . S
O22 Eu1 2.430 1_655 S
O22 C8 1.259 . S
O23 Eu1 2.670 1_655 S
O23 C8 1.270 . S
O23 Eu11 2.355 1_564 S
O24 Eu1 2.394 1_655 S
O24 C9 1.251 1_554 S
O25 C9 1.251 . S
O25 Eu11 2.374 1_565 S
O26 C10 1.257 . S
O26 Eu11 2.473 . S
O27 C10 1.260 1_455 S
O27 Eu11 2.480 1_455 S
O28 Eu11 2.430 1_455 S
O28 C18 1.259 . S
O29 Eu1 2.355 1_546 S
O29 Eu11 2.670 1_455 S
O29 C18 1.270 . S
O30 Eu11 2.394 1_454 S
O30 C19 1.251 . S
O31 Eu1 2.374 1_545 S
O31 C19 1.251 . S
H32 C3 0.931 1_655 S
H33 C4 0.931 . S
H34 C6 0.931 . S
H35 C7 0.931 . S
H36 C13 0.931 . S
H37 C14 0.931 1_455 S
H38 C16 0.931 . S
H39 C17 0.931 . S
C40 Eu41 2.835 . S
C40 C42 1.500 . S
C40 O60 1.257 . S
C40 O61 1.260 . S
Eu41 C40 2.835 . S
Eu41 O60 2.473 . S
Eu41 O61 2.480 . S
Eu41 O62 2.430 . S
Eu41 O63 2.660 1_655 S
Eu41 O64 2.394 . S
Eu41 O69 2.355 1_665 S
Eu41 O71 2.374 1_655 S
C42 C40 1.500 . S
C42 C43 1.377 . S
C42 C47 1.377 . S
C43 C42 1.377 . S
C43 C44 1.395 . S
C43 H72 0.931 . S
C44 C43 1.395 . S
C44 C45 1.383 . S
C44 H73 0.931 . S
C45 C44 1.383 . S
C45 C46 1.394 . S
C46 C45 1.394 . S
C46 C47 1.378 . S
C46 H74 0.931 . S
C47 C42 1.377 . S
C47 C46 1.378 . S
C47 H75 0.931 1_565 S
C48 O62 1.259 . S
C48 O63 1.265 1_655 S
C49 O64 1.251 1_545 S
C49 O65 1.251 . S
C50 Eu51 2.835 . S
C50 C52 1.500 . S
C50 O66 1.257 . S
C50 O67 1.260 . S
Eu51 C50 2.835 . S
Eu51 O63 2.358 1_545 S
Eu51 O65 2.374 1_455 S
Eu51 O66 2.473 . S
Eu51 O67 2.480 . S
Eu51 O68 2.430 . S
Eu51 O69 2.670 . S
Eu51 O70 2.394 . S
C52 C50 1.500 . S
C52 C53 1.377 . S
C52 C57 1.377 . S
C53 C52 1.377 . S
C53 C54 1.395 . S
C53 H76 0.931 . S
C54 C53 1.395 . S
C54 C55 1.383 . S
C54 H77 0.931 . S
C55 C54 1.383 . S
C55 C56 1.394 . S
C56 C55 1.394 . S
C56 C57 1.378 . S
C56 H78 0.931 . S
C57 C52 1.377 . S
C57 C56 1.378 . S
C57 H79 0.931 . S
C58 O68 1.259 . S
C58 O69 1.270 . S
C59 O70 1.251 1_565 S
C59 O71 1.251 . S
O60 C40 1.257 . S
O60 Eu41 2.473 . S
O61 C40 1.260 . S
O61 Eu41 2.480 . S
O62 Eu41 2.430 . S
O62 C48 1.259 . S
O63 Eu41 2.660 1_455 S
O63 C48 1.265 1_455 S
O63 Eu51 2.358 1_565 S
O64 Eu41 2.394 . S
O64 C49 1.251 1_565 S
O65 C49 1.251 . S
O65 Eu51 2.374 1_655 S
O66 C50 1.257 . S
O66 Eu51 2.473 . S
O67 C50 1.260 . S
O67 Eu51 2.480 . S
O68 Eu51 2.430 . S
O68 C58 1.259 . S
O69 Eu41 2.355 1_445 S
O69 Eu51 2.670 . S
O69 C58 1.270 . S
O70 Eu51 2.394 . S
O70 C59 1.251 1_545 S
O71 Eu41 2.374 1_455 S
O71 C59 1.251 . S
H72 C43 0.931 . S
H73 C44 0.931 . S
H74 C46 0.931 . S
H75 C47 0.931 1_545 S
H76 C53 0.931 . S
H77 C54 0.931 . S
H78 C56 0.931 . S
H79 C57 0.931 . S
Zn80 O86 1.920 . S
Zn80 O92 1.898 . S
Zn80 O95 1.905 . S
Zn81 O89 1.905 . S
Zn81 O90 1.898 . S
Zn81 O98 1.920 . S
Zn82 O85 2.080 . S
Zn82 O88 2.114 . S
Zn82 O91 2.120 . S
Zn82 O93 2.120 . S
Zn82 O94 2.114 . S
Zn82 O97 2.080 . S
C83 O88 1.166 . S
C83 O89 1.182 . S
C84 O90 1.167 . S
C84 O91 1.299 . S
O85 Zn82 2.080 . S
O85 C99 1.305 . S
O86 Zn80 1.920 . S
O86 C99 1.234 . S
C87 O92 1.167 . S
C87 O93 1.299 . S
O88 Zn82 2.114 . S
O88 C83 1.166 . S
O89 Zn81 1.905 . S
O89 C83 1.182 . S
O90 Zn81 1.898 . S
O90 C84 1.167 . S
O91 Zn82 2.120 . S
O91 C84 1.299 . S
O92 Zn80 1.898 . S
O92 C87 1.167 . S
O93 Zn82 2.120 . S
O93 C87 1.299 . S
O94 Zn82 2.114 . S
O94 C96 1.166 . S
O95 Zn80 1.905 . S
O95 C96 1.182 . S
C96 O94 1.166 . S
C96 O95 1.182 . S
O97 Zn82 2.080 . S
O97 C100 1.305 . S
O98 Zn81 1.920 . S
O98 C100 1.234 . S
C99 O85 1.305 . S
C99 O86 1.234 . S
C100 O97 1.305 . S
C100 O98 1.234 . S
Zn101 O107 1.920 . S
Zn101 O113 1.898 . S
Zn101 O116 1.905 . S
Zn102 O110 1.905 . S
Zn102 O111 1.898 . S
Zn102 O119 1.920 . S
Zn103 O106 2.080 . S
Zn103 O109 2.114 . S
Zn103 O112 2.120 . S
Zn103 O114 2.120 . S
Zn103 O115 2.114 . S
Zn103 O118 2.080 . S
C104 O109 1.166 . S
C104 O110 1.182 . S
C105 O111 1.167 . S
C105 O112 1.299 . S
O106 Zn103 2.080 . S
O106 C120 1.305 . S
O107 Zn101 1.920 . S
O107 C120 1.234 . S
C108 O113 1.167 . S
C108 O114 1.299 . S
O109 Zn103 2.114 . S
O109 C104 1.166 . S
O110 Zn102 1.905 . S
O110 C104 1.182 . S
O111 Zn102 1.898 . S
O111 C105 1.167 . S
O112 Zn103 2.120 . S
O112 C105 1.299 . S
O113 Zn101 1.898 . S
O113 C108 1.167 . S
O114 Zn103 2.120 . S
O114 C108 1.299 . S
O115 Zn103 2.114 . S
O115 C117 1.166 . S
O116 Zn101 1.905 . S
O116 C117 1.182 . S
C117 O115 1.166 . S
C117 O116 1.182 . S
O118 Zn103 2.080 . S
O118 C121 1.305 . S
O119 Zn102 1.920 . S
O119 C121 1.234 . S
C120 O106 1.305 . S
C120 O107 1.234 . S
C121 O118 1.305 . S
C121 O119 1.234 . S
H122 C123 0.951 . S
C123 H122 0.951 . S
C123 C129 1.265 . S
H124 C129 0.950 . S
H125 C133 0.949 . S
H126 C134 0.950 . S
H127 C135 0.951 . S
H128 C136 0.951 . S
C129 C123 1.265 . S
C129 H124 0.950 . S
C129 C130 1.478 . S
C130 C129 1.478 . S
C130 C131 1.397 . S
C130 C147 1.394 . S
C131 C130 1.397 . S
C131 C132 1.438 . S
C131 C136 1.429 . S
C132 C131 1.438 . S
C132 C133 1.428 . S
C132 C145 1.394 . S
C133 H125 0.949 . S
C133 C132 1.428 . S
C133 C134 1.345 . S
C134 H126 0.950 . S
C134 C133 1.345 . S
C134 C135 1.424 . S
C135 H127 0.951 . S
C135 C134 1.424 . S
C135 C136 1.347 . S
C136 H128 0.951 . S
C136 C131 1.429 . S
C136 C135 1.347 . S
H137 C138 0.951 . S
C138 H137 0.951 . S
C138 C144 1.265 . S
H139 C144 0.950 . S
H140 C148 0.949 . S
H141 C149 0.950 . S
H142 C150 0.951 1_655 S
H143 C151 0.951 . S
C144 C138 1.265 . S
C144 H139 0.950 . S
C144 C145 1.478 . S
C145 C132 1.394 . S
C145 C144 1.478 . S
C145 C146 1.397 . S
C146 C145 1.397 . S
C146 C147 1.438 . S
C146 C151 1.429 . S
C147 C130 1.394 . S
C147 C146 1.438 . S
C147 C148 1.428 . S
C148 H140 0.949 . S
C148 C147 1.428 . S
C148 C149 1.345 1_455 S
C149 H141 0.950 . S
C149 C148 1.345 1_655 S
C149 C150 1.424 1_655 S
C150 H142 0.951 1_455 S
C150 C149 1.424 1_455 S
C150 C151 1.347 . S
C151 H143 0.951 . S
C151 C146 1.429 . S
C151 C150 1.347 . S
H152 C153 0.951 . S
C153 H152 0.951 . S
C153 C159 1.265 . S
H154 C159 0.950 . S
H155 C163 0.949 . S
H156 C164 0.950 . S
H157 C165 0.951 . S
H158 C166 0.951 . S
C159 C153 1.265 . S
C159 H154 0.950 . S
C159 C160 1.478 . S
C160 C159 1.478 . S
C160 C161 1.397 . S
C160 C177 1.394 . S
C161 C160 1.397 . S
C161 C162 1.438 . S
C161 C166 1.429 . S
C162 C161 1.438 . S
C162 C163 1.428 . S
C162 C175 1.394 . S
C163 H155 0.949 . S
C163 C162 1.428 . S
C163 C164 1.345 . S
C164 H156 0.950 . S
C164 C163 1.345 . S
C164 C165 1.424 . S
C165 H157 0.951 . S
C165 C164 1.424 . S
C165 C166 1.347 . S
C166 H158 0.951 . S
C166 C161 1.429 . S
C166 C165 1.347 . S
H167 C168 0.951 . S
C168 H167 0.951 . S
C168 C174 1.265 . S
H169 C174 0.950 . S
H170 C178 0.949 . S
H171 C179 0.950 1_565 S
H172 C180 0.951 . S
H173 C181 0.951 . S
C174 C168 1.265 . S
C174 H169 0.950 . S
C174 C175 1.478 . S
C175 C162 1.394 . S
C175 C174 1.478 . S
C175 C176 1.397 . S
C176 C175 1.397 . S
C176 C177 1.438 . S
C176 C181 1.429 . S
C177 C160 1.394 . S
C177 C176 1.438 . S
C177 C178 1.428 . S
C178 H170 0.949 . S
C178 C177 1.428 . S
C178 C179 1.345 . S
C179 H171 0.950 1_545 S
C179 C178 1.345 . S
C179 C180 1.424 . S
C180 H172 0.951 . S
C180 C179 1.424 . S
C180 C181 1.347 . S
C181 H173 0.951 . S
C181 C176 1.429 . S
C181 C180 1.347 . S
H182 C183 0.951 . S
C183 H182 0.951 . S
C183 C189 1.265 . S
H184 C189 0.950 . S
H185 C193 0.949 . S
H186 C194 0.950 . S
H187 C195 0.951 . S
H188 C196 0.951 . S
C189 C183 1.265 . S
C189 H184 0.950 . S
C189 C190 1.478 . S
C190 C189 1.478 . S
C190 C191 1.397 . S
C190 C207 1.394 . S
C191 C190 1.397 . S
C191 C192 1.438 . S
C191 C196 1.429 . S
C192 C191 1.438 . S
C192 C193 1.428 . S
C192 C205 1.394 . S
C193 H185 0.949 . S
C193 C192 1.428 . S
C193 C194 1.345 . S
C194 H186 0.950 . S
C194 C193 1.345 . S
C194 C195 1.424 . S
C195 H187 0.951 . S
C195 C194 1.424 . S
C195 C196 1.347 . S
C196 H188 0.951 . S
C196 C191 1.429 . S
C196 C195 1.347 . S
H197 C198 0.951 . S
C198 H197 0.951 . S
C198 C204 1.265 . S
H199 C204 0.950 . S
H200 C208 0.949 . S
H201 C209 0.950 1_556 S
H202 C210 0.951 . S
H203 C211 0.951 . S
C204 C198 1.265 . S
C204 H199 0.950 . S
C204 C205 1.478 . S
C205 C192 1.394 . S
C205 C204 1.478 . S
C205 C206 1.397 . S
C206 C205 1.397 . S
C206 C207 1.438 . S
C206 C211 1.429 . S
C207 C190 1.394 . S
C207 C206 1.438 . S
C207 C208 1.428 . S
C208 H200 0.949 . S
C208 C207 1.428 . S
C208 C209 1.345 . S
C209 H201 0.950 1_554 S
C209 C208 1.345 . S
C209 C210 1.424 . S
C210 H202 0.951 . S
C210 C209 1.424 . S
C210 C211 1.347 . S
C211 H203 0.951 . S
C211 C206 1.429 . S
C211 C210 1.347 . S
H212 C213 0.951 . S
C213 H212 0.951 . S
C213 C219 1.265 . S
H214 C219 0.950 . S
H215 C223 0.949 . S
H216 C224 0.950 . S
H217 C225 0.951 . S
H218 C226 0.951 . S
C219 C213 1.265 . S
C219 H214 0.950 . S
C219 C220 1.478 . S
C220 C219 1.478 . S
C220 C221 1.397 . S
C220 C237 1.394 . S
C221 C220 1.397 . S
C221 C222 1.438 . S
C221 C226 1.429 . S
C222 C221 1.438 . S
C222 C223 1.428 . S
C222 C235 1.394 . S
C223 H215 0.949 . S
C223 C222 1.428 . S
C223 C224 1.345 . S
C224 H216 0.950 . S
C224 C223 1.345 . S
C224 C225 1.424 . S
C225 H217 0.951 . S
C225 C224 1.424 . S
C225 C226 1.347 . S
C226 H218 0.951 . S
C226 C221 1.429 . S
C226 C225 1.347 . S
H227 C228 0.951 . S
C228 H227 0.951 . S
C228 C234 1.265 . S
H229 C234 0.950 . S
H230 C238 0.949 . S
H231 C239 0.950 . S
H232 C240 0.951 . S
H233 C241 0.951 . S
C234 C228 1.265 . S
C234 H229 0.950 . S
C234 C235 1.478 . S
C235 C222 1.394 . S
C235 C234 1.478 . S
C235 C236 1.397 . S
C236 C235 1.397 . S
C236 C237 1.438 . S
C236 C241 1.429 . S
C237 C220 1.394 . S
C237 C236 1.438 . S
C237 C238 1.428 . S
C238 H230 0.949 . S
C238 C237 1.428 . S
C238 C239 1.345 . S
C239 H231 0.950 . S
C239 C238 1.345 . S
C239 C240 1.424 . S
C240 H232 0.951 . S
C240 C239 1.424 . S
C240 C241 1.347 . S
C241 H233 0.951 . S
C241 C236 1.429 . S
C241 C240 1.347 . S
H242 C243 0.951 . S
C243 H242 0.951 . S
C243 C249 1.265 . S
H244 C249 0.950 . S
H245 C253 0.949 . S
H246 C254 0.950 . S
H247 C255 0.960 . S
H248 C256 0.951 . S
C249 C243 1.265 . S
C249 H244 0.950 . S
C249 C250 1.478 . S
C250 C249 1.478 . S
C250 C251 1.397 . S
C250 C267 1.394 . S
C251 C250 1.397 . S
C251 C252 1.438 . S
C251 C256 1.429 . S
C252 C251 1.438 . S
C252 C253 1.428 . S
C252 C265 1.394 . S
C253 H245 0.949 . S
C253 C252 1.428 . S
C253 C254 1.345 . S
C254 H246 0.950 . S
C254 C253 1.345 . S
C254 C255 1.428 1_565 S
C255 H247 0.960 . S
C255 C254 1.428 1_545 S
C255 C256 1.334 1_545 S
C256 H248 0.951 . S
C256 C251 1.429 . S
C256 C255 1.334 1_565 S
H257 C258 0.951 . S
C258 H257 0.951 . S
C258 C264 1.265 . S
H259 C264 0.950 . S
H260 C268 0.949 . S
H261 C269 0.950 . S
H262 C270 0.951 . S
H263 C271 0.951 . S
C264 C258 1.265 . S
C264 H259 0.950 . S
C264 C265 1.478 . S
C265 C252 1.394 . S
C265 C264 1.478 . S
C265 C266 1.397 . S
C266 C265 1.397 . S
C266 C267 1.438 . S
C266 C271 1.429 . S
C267 C250 1.394 . S
C267 C266 1.438 . S
C267 C268 1.428 . S
C268 H260 0.949 . S
C268 C267 1.428 . S
C268 C269 1.345 . S
C269 H261 0.950 . S
C269 C268 1.345 . S
C269 C270 1.424 . S
C270 H262 0.951 . S
C270 C269 1.424 . S
C270 C271 1.347 . S
C271 H263 0.951 . S
C271 C266 1.429 . S
C271 C270 1.347 . S
H272 C273 0.951 . S
C273 H272 0.951 . S
C273 C279 1.265 . S
H274 C279 0.950 . S
H275 C283 0.949 . S
H276 C284 0.950 . S
H277 C285 0.951 . S
H278 C286 0.951 . S
C279 C273 1.265 . S
C279 H274 0.950 . S
C279 C280 1.478 . S
C280 C279 1.478 . S
C280 C281 1.397 . S
C280 C297 1.394 . S
C281 C280 1.397 . S
C281 C282 1.438 . S
C281 C286 1.429 . S
C282 C281 1.438 . S
C282 C283 1.428 . S
C282 C295 1.394 . S
C283 H275 0.949 . S
C283 C282 1.428 . S
C283 C284 1.345 . S
C284 H276 0.950 . S
C284 C283 1.345 . S
C284 C285 1.424 . S
C285 H277 0.951 . S
C285 C284 1.424 . S
C285 C286 1.347 . S
C286 H278 0.951 . S
C286 C281 1.429 . S
C286 C285 1.347 . S
H287 C288 0.951 . S
C288 H287 0.951 . S
C288 C294 1.265 . S
H289 C294 0.950 . S
H290 C298 0.949 . S
H291 C299 0.950 1_455 S
H292 C300 0.951 . S
H293 C301 0.951 . S
C294 C288 1.265 . S
C294 H289 0.950 . S
C294 C295 1.478 . S
C295 C282 1.394 . S
C295 C294 1.478 . S
C295 C296 1.397 . S
C296 C295 1.397 . S
C296 C297 1.438 . S
C296 C301 1.429 . S
C297 C280 1.394 . S
C297 C296 1.438 . S
C297 C298 1.428 . S
C298 H290 0.949 . S
C298 C297 1.428 . S
C298 C299 1.345 . S
C299 H291 0.950 1_655 S
C299 C298 1.345 . S
C299 C300 1.424 . S
C300 H292 0.951 . S
C300 C299 1.424 . S
C300 C301 1.347 . S
C301 H293 0.951 . S
C301 C296 1.429 . S
C301 C300 1.347 . S
H302 C303 0.951 . S
C303 H302 0.951 . S
C303 C309 1.265 . S
H304 C309 0.950 . S
H305 C313 0.949 . S
H306 C314 0.950 . S
H307 C315 0.951 . S
H308 C316 0.951 1_545 S
C309 C303 1.265 . S
C309 H304 0.950 . S
C309 C310 1.478 . S
C310 C309 1.478 . S
C310 C311 1.397 . S
C310 C327 1.394 . S
C311 C310 1.397 . S
C311 C312 1.438 . S
C311 C316 1.429 . S
C312 C311 1.438 . S
C312 C313 1.428 . S
C312 C325 1.394 . S
C313 H305 0.949 . S
C313 C312 1.428 . S
C313 C314 1.345 . S
C314 H306 0.950 . S
C314 C313 1.345 . S
C314 C315 1.424 1_565 S
C315 H307 0.951 . S
C315 C314 1.424 1_545 S
C315 C316 1.347 1_545 S
C316 H308 0.951 1_565 S
C316 C311 1.429 . S
C316 C315 1.347 1_565 S
H317 C318 0.951 . S
C318 H317 0.951 . S
C318 C324 1.265 . S
H319 C324 0.950 . S
H320 C328 0.949 . S
H321 C329 0.950 1_655 S
H322 C330 0.951 . S
H323 C331 0.951 . S
C324 C318 1.265 . S
C324 H319 0.950 . S
C324 C325 1.478 . S
C325 C312 1.394 . S
C325 C324 1.478 . S
C325 C326 1.397 . S
C326 C325 1.397 . S
C326 C327 1.438 . S
C326 C331 1.429 . S
C327 C310 1.394 . S
C327 C326 1.438 . S
C327 C328 1.428 . S
C328 H320 0.949 . S
C328 C327 1.428 . S
C328 C329 1.345 . S
C329 H321 0.950 1_455 S
C329 C328 1.345 . S
C329 C330 1.424 . S
C330 H322 0.951 . S
C330 C329 1.424 . S
C330 C331 1.347 . S
C331 H323 0.951 . S
C331 C326 1.429 . S
C331 C330 1.347 . S
H332 C333 0.951 . S
C333 H332 0.951 . S
C333 C339 1.265 . S
H334 C339 0.950 . S
H335 C343 0.949 . S
H336 C344 0.950 . S
H337 C345 0.951 . S
H338 C346 0.951 . S
C339 C333 1.265 . S
C339 H334 0.950 . S
C339 C340 1.478 . S
C340 C339 1.478 . S
C340 C341 1.397 . S
C340 C357 1.394 . S
C341 C340 1.397 . S
C341 C342 1.438 . S
C341 C346 1.429 . S
C342 C341 1.438 . S
C342 C343 1.428 . S
C342 C355 1.394 . S
C343 H335 0.949 . S
C343 C342 1.428 . S
C343 C344 1.345 . S
C344 H336 0.950 . S
C344 C343 1.345 . S
C344 C345 1.424 . S
C345 H337 0.951 . S
C345 C344 1.424 . S
C345 C346 1.347 . S
C346 H338 0.951 . S
C346 C341 1.429 . S
C346 C345 1.347 . S
H347 C348 0.951 . S
C348 H347 0.951 . S
C348 C354 1.265 . S
H349 C354 0.950 . S
H350 C358 0.949 . S
H351 C359 0.950 . S
H352 C360 0.951 . S
H353 C361 0.951 . S
C354 C348 1.265 . S
C354 H349 0.950 . S
C354 C355 1.478 . S
C355 C342 1.394 . S
C355 C354 1.478 . S
C355 C356 1.397 . S
C356 C355 1.397 . S
C356 C357 1.438 . S
C356 C361 1.429 . S
C357 C340 1.394 . S
C357 C356 1.438 . S
C357 C358 1.428 . S
C358 H350 0.949 . S
C358 C357 1.428 . S
C358 C359 1.345 . S
C359 H351 0.950 . S
C359 C358 1.345 . S
C359 C360 1.424 . S
C360 H352 0.951 . S
C360 C359 1.424 . S
C360 C361 1.347 . S
C361 H353 0.951 . S
C361 C356 1.429 . S
C361 C360 1.347 . S
H362 C363 0.951 . S
C363 H362 0.951 . S
C363 C369 1.265 . S
H364 C369 0.950 . S
H365 C373 0.949 . S
H366 C374 0.950 . S
H367 C375 0.951 1_655 S
H368 C376 0.951 . S
C369 C363 1.265 . S
C369 H364 0.950 . S
C369 C370 1.478 . S
C370 C369 1.478 . S
C370 C371 1.397 . S
C370 C387 1.394 . S
C371 C370 1.397 . S
C371 C372 1.438 . S
C371 C376 1.429 . S
C372 C371 1.438 . S
C372 C373 1.428 . S
C372 C385 1.394 . S
C373 H365 0.949 . S
C373 C372 1.428 . S
C373 C374 1.345 . S
C374 H366 0.950 . S
C374 C373 1.345 . S
C374 C375 1.424 . S
C375 H367 0.951 1_455 S
C375 C374 1.424 . S
C375 C376 1.347 . S
C376 H368 0.951 . S
C376 C371 1.429 . S
C376 C375 1.347 . S
H377 C378 0.951 . S
C378 H377 0.951 . S
C378 C384 1.265 . S
H379 C384 0.950 . S
H380 C388 0.949 . S
H381 C389 0.950 . S
H382 C390 0.951 . S
H383 C391 0.951 . S
C384 C378 1.265 . S
C384 H379 0.950 . S
C384 C385 1.478 . S
C385 C372 1.394 . S
C385 C384 1.478 . S
C385 C386 1.397 . S
C386 C385 1.397 . S
C386 C387 1.438 . S
C386 C391 1.429 . S
C387 C370 1.394 . S
C387 C386 1.438 . S
C387 C388 1.428 . S
C388 H380 0.949 . S
C388 C387 1.428 . S
C388 C389 1.345 . S
C389 H381 0.950 . S
C389 C388 1.345 . S
C389 C390 1.424 . S
C390 H382 0.951 . S
C390 C389 1.424 . S
C390 C391 1.347 . S
C391 H383 0.951 . S
C391 C386 1.429 . S
C391 C390 1.347 . S
H392 C393 0.951 . S
C393 H392 0.951 . S
C393 C399 1.265 . S
H394 C399 0.950 . S
H395 C403 0.949 . S
H396 C404 0.950 . S
H397 C405 0.951 . S
H398 C406 0.951 . S
C399 C393 1.265 . S
C399 H394 0.950 . S
C399 C400 1.478 . S
C400 C399 1.478 . S
C400 C401 1.397 . S
C400 C417 1.394 . S
C401 C400 1.397 . S
C401 C402 1.438 . S
C401 C406 1.429 . S
C402 C401 1.438 . S
C402 C403 1.428 . S
C402 C415 1.394 . S
C403 H395 0.949 . S
C403 C402 1.428 . S
C403 C404 1.345 . S
C404 H396 0.950 . S
C404 C403 1.345 . S
C404 C405 1.424 . S
C405 H397 0.951 . S
C405 C404 1.424 . S
C405 C406 1.347 . S
C406 H398 0.951 . S
C406 C401 1.429 . S
C406 C405 1.347 . S
H407 C408 0.951 . S
C408 H407 0.951 . S
C408 C414 1.265 . S
H409 C414 0.950 . S
H410 C418 0.949 . S
H411 C419 0.950 . S
H412 C420 0.951 . S
H413 C421 0.951 . S
C414 C408 1.265 . S
C414 H409 0.950 . S
C414 C415 1.478 . S
C415 C402 1.394 . S
C415 C414 1.478 . S
C415 C416 1.397 . S
C416 C415 1.397 . S
C416 C417 1.438 . S
C416 C421 1.429 . S
C417 C400 1.394 . S
C417 C416 1.438 . S
C417 C418 1.428 . S
C418 H410 0.949 . S
C418 C417 1.428 . S
C418 C419 1.345 . S
C419 H411 0.950 . S
C419 C418 1.345 . S
C419 C420 1.424 . S
C420 H412 0.951 . S
C420 C419 1.424 . S
C420 C421 1.347 . S
C421 H413 0.951 . S
C421 C416 1.429 . S
C421 C420 1.347 . S
H422 C423 0.951 . S
C423 H422 0.951 . S
C423 C429 1.265 . S
H424 C429 0.950 . S
H425 C433 0.949 . S
H426 C434 0.950 . S
H427 C435 0.951 . S
H428 C436 0.951 . S
C429 C423 1.265 . S
C429 H424 0.950 . S
C429 C430 1.478 . S
C430 C429 1.478 . S
C430 C431 1.397 . S
C430 C447 1.394 . S
C431 C430 1.397 . S
C431 C432 1.438 . S
C431 C436 1.429 . S
C432 C431 1.438 . S
C432 C433 1.428 . S
C432 C445 1.394 . S
C433 H425 0.949 . S
C433 C432 1.428 . S
C433 C434 1.345 . S
C434 H426 0.950 . S
C434 C433 1.345 . S
C434 C435 1.424 . S
C435 H427 0.951 . S
C435 C434 1.424 . S
C435 C436 1.347 . S
C436 H428 0.951 . S
C436 C431 1.429 . S
C436 C435 1.347 . S
H437 C438 0.951 . S
C438 H437 0.951 . S
C438 C444 1.265 . S
H439 C444 0.950 . S
H440 C448 0.949 . S
H441 C449 0.950 . S
H442 C450 0.951 . S
H443 C451 0.951 . S
C444 C438 1.265 . S
C444 H439 0.950 . S
C444 C445 1.478 . S
C445 C432 1.394 . S
C445 C444 1.478 . S
C445 C446 1.397 . S
C446 C445 1.397 . S
C446 C447 1.438 . S
C446 C451 1.429 . S
C447 C430 1.394 . S
C447 C446 1.438 . S
C447 C448 1.428 . S
C448 H440 0.949 . S
C448 C447 1.428 . S
C448 C449 1.345 . S
C449 H441 0.950 . S
C449 C448 1.345 . S
C449 C450 1.424 . S
C450 H442 0.951 . S
C450 C449 1.424 . S
C450 C451 1.347 . S
C451 H443 0.951 . S
C451 C446 1.429 . S
C451 C450 1.347 . S
H452 C453 0.951 . S
C453 H452 0.951 . S
C453 C459 1.265 . S
H454 C459 0.950 . S
H455 C463 0.949 . S
H456 C464 0.950 . S
H457 C465 0.951 . S
H458 C466 0.951 1_455 S
C459 C453 1.265 . S
C459 H454 0.950 . S
C459 C460 1.478 . S
C460 C459 1.478 . S
C460 C461 1.397 . S
C460 C477 1.394 . S
C461 C460 1.397 . S
C461 C462 1.438 . S
C461 C466 1.429 . S
C462 C461 1.438 . S
C462 C463 1.428 . S
C462 C475 1.394 . S
C463 H455 0.949 . S
C463 C462 1.428 . S
C463 C464 1.345 1_655 S
C464 H456 0.950 . S
C464 C463 1.345 1_455 S
C464 C465 1.424 . S
C465 H457 0.951 . S
C465 C464 1.424 . S
C465 C466 1.347 1_455 S
C466 H458 0.951 1_655 S
C466 C461 1.429 . S
C466 C465 1.347 1_655 S
H467 C468 0.951 . S
C468 H467 0.951 . S
C468 C474 1.265 . S
H469 C474 0.950 . S
H470 C478 0.949 . S
H471 C479 0.950 1_554 S
H472 C480 0.951 . S
H473 C481 0.951 . S
C474 C468 1.265 . S
C474 H469 0.950 . S
C474 C475 1.478 . S
C475 C462 1.394 . S
C475 C474 1.478 . S
C475 C476 1.397 . S
C476 C475 1.397 . S
C476 C477 1.438 . S
C476 C481 1.429 . S
C477 C460 1.394 . S
C477 C476 1.438 . S
C477 C478 1.428 . S
C478 H470 0.949 . S
C478 C477 1.428 . S
C478 C479 1.345 . S
C479 H471 0.950 1_556 S
C479 C478 1.345 . S
C479 C480 1.424 . S
C480 H472 0.951 . S
C480 C479 1.424 . S
C480 C481 1.347 . S
C481 H473 0.951 . S
C481 C476 1.429 . S
C481 C480 1.347 . S
C123 C5 1.198 . S
C138 C99 1.041 . S
C153 C55 0.966 . S
C168 C105 0.823 . S
C183 C19 1.235 . S
C198 C96 1.202 . S
C213 C49 2.114 . S
C228 C121 2.002 . S
C243 C8 2.013 . S
C258 C87 1.939 . S
C288 C104 1.877 . S
C273 C48 1.873 . S
C303 C59 1.871 . S
C318 C100 1.815 . S
C348 C117 2.095 . S
C333 C18 2.154 . S
C378 C84 2.111 . S
C363 C58 2.205 . S
C408 C120 1.179 . S
C393 C15 1.355 . S
C438 C83 1.009 . S
C423 C45 1.076 . S
C468 C108 1.068 . S
C453 C9 1.109 . S
