# Generated by pormake.
# Topology ocu, (6,8)-cn, num edge types: 1
# Building blocks:
#     Node 0, Type 0, BuildingBlock: CUWYAW_clean_sbu_0, # of connection points: 6
#     Node 1, Type 0, BuildingBlock: CUWYAW_clean_sbu_0, # of connection points: 6
#     Node 2, Type 0, BuildingBlock: CUWYAW_clean_sbu_0, # of connection points: 6
#     Node 3, Type 0, BuildingBlock: CUWYAW_clean_sbu_0, # of connection points: 6
#     Node 4, Type 0, BuildingBlock: CUWYAW_clean_sbu_0, # of connection points: 6
#     Node 5, Type 0, BuildingBlock: CUWYAW_clean_sbu_0, # of connection points: 6
#     Node 6, Type 0, BuildingBlock: CUWYAW_clean_sbu_0, # of connection points: 6
#     Node 7, Type 0, BuildingBlock: CUWYAW_clean_sbu_0, # of connection points: 6
#     Node 8, Type 1, BuildingBlock: VETTIZ_charged_sbu_0, # of connection points: 8
#     Node 9, Type 1, BuildingBlock: VETTIZ_charged_sbu_0, # of connection points: 8
#     Node 10, Type 1, BuildingBlock: VETTIZ_charged_sbu_0, # of connection points: 8
#     Node 11, Type 1, BuildingBlock: VETTIZ_charged_sbu_0, # of connection points: 8
#     Node 12, Type 1, BuildingBlock: VETTIZ_charged_sbu_0, # of connection points: 8
#     Node 13, Type 1, BuildingBlock: VETTIZ_charged_sbu_0, # of connection points: 8
#     Edge 14, Type (0, 1), BuildingBlock: UVAHIK_clean_linker_0, # of connection points: 2
#     Edge 15, Type (0, 1), BuildingBlock: UVAHIK_clean_linker_0, # of connection points: 2
#     Edge 16, Type (0, 1), BuildingBlock: UVAHIK_clean_linker_0, # of connection points: 2
#     Edge 17, Type (0, 1), BuildingBlock: UVAHIK_clean_linker_0, # of connection points: 2
#     Edge 18, Type (0, 1), BuildingBlock: UVAHIK_clean_linker_0, # of connection points: 2
#     Edge 19, Type (0, 1), BuildingBlock: UVAHIK_clean_linker_0, # of connection points: 2
#     Edge 20, Type (0, 1), BuildingBlock: UVAHIK_clean_linker_0, # of connection points: 2
#     Edge 21, Type (0, 1), BuildingBlock: UVAHIK_clean_linker_0, # of connection points: 2
#     Edge 22, Type (0, 1), BuildingBlock: UVAHIK_clean_linker_0, # of connection points: 2
#     Edge 23, Type (0, 1), BuildingBlock: UVAHIK_clean_linker_0, # of connection points: 2
#     Edge 24, Type (0, 1), BuildingBlock: UVAHIK_clean_linker_0, # of connection points: 2
#     Edge 25, Type (0, 1), BuildingBlock: UVAHIK_clean_linker_0, # of connection points: 2
#     Edge 26, Type (0, 1), BuildingBlock: UVAHIK_clean_linker_0, # of connection points: 2
#     Edge 27, Type (0, 1), BuildingBlock: UVAHIK_clean_linker_0, # of connection points: 2
#     Edge 28, Type (0, 1), BuildingBlock: UVAHIK_clean_linker_0, # of connection points: 2
#     Edge 29, Type (0, 1), BuildingBlock: UVAHIK_clean_linker_0, # of connection points: 2
#     Edge 30, Type (0, 1), BuildingBlock: UVAHIK_clean_linker_0, # of connection points: 2
#     Edge 31, Type (0, 1), BuildingBlock: UVAHIK_clean_linker_0, # of connection points: 2
#     Edge 32, Type (0, 1), BuildingBlock: UVAHIK_clean_linker_0, # of connection points: 2
#     Edge 33, Type (0, 1), BuildingBlock: UVAHIK_clean_linker_0, # of connection points: 2
#     Edge 34, Type (0, 1), BuildingBlock: UVAHIK_clean_linker_0, # of connection points: 2
#     Edge 35, Type (0, 1), BuildingBlock: UVAHIK_clean_linker_0, # of connection points: 2
#     Edge 36, Type (0, 1), BuildingBlock: UVAHIK_clean_linker_0, # of connection points: 2
#     Edge 37, Type (0, 1), BuildingBlock: UVAHIK_clean_linker_0, # of connection points: 2
#     Edge 38, Type (0, 1), BuildingBlock: UVAHIK_clean_linker_0, # of connection points: 2
#     Edge 39, Type (0, 1), BuildingBlock: UVAHIK_clean_linker_0, # of connection points: 2
#     Edge 40, Type (0, 1), BuildingBlock: UVAHIK_clean_linker_0, # of connection points: 2
#     Edge 41, Type (0, 1), BuildingBlock: UVAHIK_clean_linker_0, # of connection points: 2
#     Edge 42, Type (0, 1), BuildingBlock: UVAHIK_clean_linker_0, # of connection points: 2
#     Edge 43, Type (0, 1), BuildingBlock: UVAHIK_clean_linker_0, # of connection points: 2
#     Edge 44, Type (0, 1), BuildingBlock: UVAHIK_clean_linker_0, # of connection points: 2
#     Edge 45, Type (0, 1), BuildingBlock: UVAHIK_clean_linker_0, # of connection points: 2
#     Edge 46, Type (0, 1), BuildingBlock: UVAHIK_clean_linker_0, # of connection points: 2
#     Edge 47, Type (0, 1), BuildingBlock: UVAHIK_clean_linker_0, # of connection points: 2
#     Edge 48, Type (0, 1), BuildingBlock: UVAHIK_clean_linker_0, # of connection points: 2
#     Edge 49, Type (0, 1), BuildingBlock: UVAHIK_clean_linker_0, # of connection points: 2
#     Edge 50, Type (0, 1), BuildingBlock: UVAHIK_clean_linker_0, # of connection points: 2
#     Edge 51, Type (0, 1), BuildingBlock: UVAHIK_clean_linker_0, # of connection points: 2
#     Edge 52, Type (0, 1), BuildingBlock: UVAHIK_clean_linker_0, # of connection points: 2
#     Edge 53, Type (0, 1), BuildingBlock: UVAHIK_clean_linker_0, # of connection points: 2
#     Edge 54, Type (0, 1), BuildingBlock: UVAHIK_clean_linker_0, # of connection points: 2
#     Edge 55, Type (0, 1), BuildingBlock: UVAHIK_clean_linker_0, # of connection points: 2
#     Edge 56, Type (0, 1), BuildingBlock: UVAHIK_clean_linker_0, # of connection points: 2
#     Edge 57, Type (0, 1), BuildingBlock: UVAHIK_clean_linker_0, # of connection points: 2
#     Edge 58, Type (0, 1), BuildingBlock: UVAHIK_clean_linker_0, # of connection points: 2
#     Edge 59, Type (0, 1), BuildingBlock: UVAHIK_clean_linker_0, # of connection points: 2
#     Edge 60, Type (0, 1), BuildingBlock: UVAHIK_clean_linker_0, # of connection points: 2
#     Edge 61, Type (0, 1), BuildingBlock: UVAHIK_clean_linker_0, # of connection points: 2
# Relax obj value: 0.115
# Max RMSD: 0.192
# Mean RMSD: 0.121
data_MOF--net-ocu--node1-CUWYAW_clean_sbu_0--node2-VETTIZ_charged_sbu_0--edge1-UVAHIK_clean_linker_0
_symmetry_space_group_name_H-M    P1
_symmetry_Int_Tables_number       1
_symmetry_cell_setting            triclinic
loop_
_symmetry_equiv_pos_as_xyz
'x, y, z'
_cell_length_a     51.550164
_cell_length_b     51.85756
_cell_length_c     49.639446
_cell_angle_alpha  86.841705
_cell_angle_beta   99.096654
_cell_angle_gamma 98.559209
loop_
_atom_site_label
_atom_site_type_symbol
_atom_site_fract_x
_atom_site_fract_y
_atom_site_fract_z
_atom_type_partial_charge
C0 C 0.29598 0.32659 0.33478 0.0
Eu1 Eu 0.28974 0.29246 0.29685 0.0
C2 C 0.28087 0.34721 0.3395 0.0
C3 C 0.29357 0.36912 0.354 0.0
C4 C 0.27862 0.38712 0.36151 0.0
C5 C 0.25084 0.38334 0.35448 0.0
C6 C 0.23844 0.36237 0.33825 0.0
C7 C 0.25333 0.34436 0.33095 0.0
C8 C 0.31755 0.30353 0.25319 0.0
C9 C 0.23906 0.30695 0.25158 0.0
C10 C 0.26182 0.22158 0.22429 0.0
Eu11 Eu 0.26945 0.25727 0.26073 0.0
C12 C 0.28082 0.2057 0.21736 0.0
C13 C 0.27282 0.17965 0.2102 0.0
C14 C 0.29163 0.1644 0.20511 0.0
C15 C 0.31858 0.17511 0.20733 0.0
C16 C 0.32636 0.20117 0.21481 0.0
C17 C 0.30772 0.21624 0.21989 0.0
C18 C 0.24223 0.24703 0.30493 0.0
C19 C 0.32161 0.24394 0.30436 0.0
O20 O 0.28366 0.3029 0.33688 0.0
O21 O 0.3084 0.33004 0.3137 0.0
O22 O 0.32815 0.30165 0.27865 0.0
O23 O 0.29246 0.29685 0.25161 0.0
O24 O 0.25367 0.31223 0.27561 0.0
O25 O 0.24201 0.28561 0.23994 0.0
O26 O 0.26696 0.24647 0.21855 0.0
O27 O 0.25556 0.21707 0.24864 0.0
O28 O 0.23121 0.24977 0.27976 0.0
O29 O 0.26728 0.25267 0.30578 0.0
O30 O 0.30802 0.2399 0.27954 0.0
O31 O 0.31691 0.26378 0.31735 0.0
H32 H 0.31484 0.37168 0.36053 0.0
H33 H 0.28857 0.40327 0.37392 0.0
H34 H 0.21704 0.35879 0.3329 0.0
H35 H 0.24306 0.32748 0.31992 0.0
H36 H 0.25215 0.17115 0.20865 0.0
H37 H 0.28513 0.14434 0.1994 0.0
H38 H 0.34682 0.21027 0.21601 0.0
H39 H 0.31442 0.23625 0.22571 0.0
C40 C 0.83651 0.30314 0.2327 0.0
Eu41 Eu 0.79821 0.28139 0.25707 0.0
C42 C 0.83529 0.31496 0.20502 0.0
C43 C 0.82772 0.2998 0.18156 0.0
C44 C 0.82421 0.31188 0.15558 0.0
C45 C 0.82749 0.33913 0.15295 0.0
C46 C 0.83487 0.35411 0.17644 0.0
C47 C 0.83899 0.34218 0.2021 0.0
C48 C 0.75556 0.24786 0.23378 0.0
C49 C 0.74629 0.31444 0.24365 0.0
C50 C 0.71802 0.25203 0.32354 0.0
Eu51 Eu 0.7538 0.27371 0.29625 0.0
C52 C 0.72524 0.2395 0.35035 0.0
C53 C 0.74549 0.25236 0.36958 0.0
C54 C 0.75995 0.23811 0.38976 0.0
C55 C 0.75462 0.21087 0.39067 0.0
C56 C 0.7328 0.19834 0.37295 0.0
C57 C 0.71823 0.21252 0.3531 0.0
C58 C 0.79701 0.30833 0.31716 0.0
C59 C 0.80568 0.24057 0.31 0.0
O60 O 0.82603 0.31559 0.24967 0.0
O61 O 0.83037 0.27766 0.23464 0.0
O62 O 0.77733 0.2545 0.22355 0.0
O63 O 0.75818 0.25869 0.25657 0.0
O64 O 0.76984 0.31035 0.23805 0.0
O65 O 0.73565 0.30217 0.26445 0.0
O66 O 0.72488 0.24024 0.30356 0.0
O67 O 0.72399 0.27755 0.32189 0.0
O68 O 0.77617 0.30229 0.329 0.0
O69 O 0.79291 0.29592 0.29553 0.0
O70 O 0.78194 0.24441 0.31524 0.0
O71 O 0.81629 0.25313 0.28935 0.0
H72 H 0.82445 0.2787 0.18324 0.0
H73 H 0.81925 0.30009 0.13765 0.0
H74 H 0.83837 0.37523 0.1749 0.0
H75 H 0.84475 0.35432 0.21976 0.0
H76 H 0.75141 0.27323 0.36797 0.0
H77 H 0.77591 0.24822 0.40389 0.0
H78 H 0.72717 0.17739 0.37399 0.0
H79 H 0.70292 0.20216 0.33846 0.0
C80 C 0.7882 0.72924 0.33804 0.0
Eu81 Eu 0.77653 0.76208 0.29889 0.0
C82 C 0.80097 0.70598 0.3365 0.0
C83 C 0.78585 0.68217 0.32796 0.0
C84 C 0.79836 0.66076 0.32467 0.0
C85 C 0.82611 0.66293 0.32975 0.0
C86 C 0.84121 0.68699 0.3372 0.0
C87 C 0.82878 0.70822 0.3408 0.0
C88 C 0.73606 0.75104 0.25746 0.0
C89 C 0.8121 0.74798 0.25063 0.0
C90 C 0.77547 0.83187 0.21737 0.0
Eu91 Eu 0.78238 0.79801 0.25692 0.0
C92 C 0.7537 0.84721 0.21263 0.0
C93 C 0.7584 0.87406 0.20671 0.0
C94 C 0.73795 0.88905 0.20602 0.0
C95 C 0.71294 0.87707 0.21132 0.0
C96 C 0.70848 0.85038 0.21764 0.0
C97 C 0.72869 0.83553 0.21831 0.0
C98 C 0.82225 0.80746 0.29956 0.0
C99 C 0.74379 0.81018 0.30312 0.0
O100 O 0.80319 0.7515 0.33467 0.0
O101 O 0.76413 0.72863 0.32468 0.0
O102 O 0.7332 0.75059 0.283 0.0
O103 O 0.76015 0.75794 0.25484 0.0
O104 O 0.80422 0.74162 0.27491 0.0
O105 O 0.80539 0.76995 0.2385 0.0
O106 O 0.76849 0.80682 0.21425 0.0
O107 O 0.79186 0.83723 0.23981 0.0
O108 O 0.82598 0.80679 0.27442 0.0
O109 O 0.79782 0.80217 0.30083 0.0
O110 O 0.7494 0.81447 0.27756 0.0
O111 O 0.75437 0.79092 0.31747 0.0
H112 H 0.76438 0.67999 0.32408 0.0
H113 H 0.78642 0.64222 0.31934 0.0
H114 H 0.86265 0.68901 0.34204 0.0
H115 H 0.84103 0.72634 0.34717 0.0
H116 H 0.77784 0.88337 0.20303 0.0
H117 H 0.74141 0.90972 0.20084 0.0
H118 H 0.68922 0.841 0.22182 0.0
H119 H 0.7248 0.81495 0.22378 0.0
C120 C 0.24867 0.83803 0.30197 0.0
Eu121 Eu 0.26678 0.80084 0.28163 0.0
C122 C 0.22598 0.83948 0.31589 0.0
C123 C 0.19988 0.83054 0.30375 0.0
C124 C 0.17864 0.83253 0.31737 0.0
C125 C 0.1833 0.84313 0.34337 0.0
C126 C 0.20945 0.85114 0.35583 0.0
C127 C 0.23062 0.84944 0.34213 0.0
C128 C 0.24093 0.76798 0.24282 0.0
C129 C 0.24955 0.74443 0.31625 0.0
C130 C 0.31146 0.71852 0.25457 0.0
Eu131 Eu 0.29343 0.75538 0.27537 0.0
C132 C 0.33312 0.7184 0.23874 0.0
C133 C 0.35968 0.7256 0.25053 0.0
C134 C 0.38003 0.72455 0.23547 0.0
C135 C 0.3741 0.71648 0.20844 0.0
C136 C 0.34757 0.71074 0.19614 0.0
C137 C 0.32719 0.71155 0.21128 0.0
C138 C 0.31808 0.78661 0.31598 0.0
C139 C 0.3097 0.8106 0.23961 0.0
O140 O 0.26712 0.82551 0.31563 0.0
O141 O 0.24344 0.83277 0.27598 0.0
O142 O 0.24169 0.7931 0.23975 0.0
O143 O 0.25234 0.76217 0.26596 0.0
O144 O 0.24885 0.77021 0.31327 0.0
O145 O 0.26408 0.73353 0.30155 0.0
O146 O 0.29125 0.72935 0.24209 0.0
O147 O 0.31824 0.72468 0.28024 0.0
O148 O 0.31637 0.76137 0.31796 0.0
O149 O 0.30821 0.79398 0.29256 0.0
O150 O 0.30962 0.78483 0.24233 0.0
O151 O 0.29633 0.82207 0.25508 0.0
H152 H 0.19581 0.82236 0.28365 0.0
H153 H 0.15858 0.82626 0.30744 0.0
H154 H 0.21349 0.8598 0.37571 0.0
H155 H 0.25063 0.85622 0.35187 0.0
H156 H 0.36485 0.73143 0.27153 0.0
H157 H 0.40044 0.72903 0.24523 0.0
H158 H 0.34263 0.70413 0.17539 0.0
H159 H 0.30681 0.70624 0.20173 0.0
C160 C 0.33914 0.81529 0.74518 0.0
Eu161 Eu 0.30198 0.78666 0.76662 0.0
C162 C 0.33593 0.83203 0.72057 0.0
C163 C 0.31465 0.82528 0.69957 0.0
C164 C 0.31222 0.84028 0.67541 0.0
C165 C 0.33076 0.86245 0.6722 0.0
C166 C 0.3507 0.87037 0.69413 0.0
C167 C 0.35333 0.85514 0.7182 0.0
C168 C 0.26889 0.74618 0.74318 0.0
C169 C 0.24792 0.81511 0.74442 0.0
C170 C 0.21662 0.74475 0.81426 0.0
Eu171 Eu 0.2541 0.77164 0.79199 0.0
C172 C 0.21925 0.7292 0.83979 0.0
C173 C 0.23608 0.73918 0.86317 0.0
C174 C 0.24035 0.72341 0.88666 0.0
C175 C 0.22821 0.69735 0.88693 0.0
C176 C 0.21197 0.68731 0.86323 0.0
C177 C 0.20752 0.70312 0.83989 0.0
C178 C 0.28768 0.8118 0.81536 0.0
C179 C 0.3081 0.74255 0.81402 0.0
O180 O 0.3294 0.82284 0.76574 0.0
O181 O 0.33307 0.7902 0.74124 0.0
O182 O 0.29449 0.74729 0.74687 0.0
O183 O 0.26217 0.76661 0.75072 0.0
O184 O 0.2742 0.81657 0.74706 0.0
O185 O 0.23432 0.79621 0.75759 0.0
O186 O 0.22673 0.73577 0.79468 0.0
O187 O 0.22246 0.77008 0.81647 0.0
O188 O 0.26213 0.81129 0.81125 0.0
O189 O 0.29399 0.79118 0.80793 0.0
O190 O 0.28219 0.74279 0.81355 0.0
O191 O 0.32157 0.75983 0.79889 0.0
H192 H 0.30045 0.80788 0.70145 0.0
H193 H 0.29674 0.83389 0.65875 0.0
H194 H 0.3654 0.8873 0.69195 0.0
H195 H 0.36939 0.86094 0.73454 0.0
H196 H 0.24604 0.75911 0.86331 0.0
H197 H 0.2528 0.73163 0.90469 0.0
H198 H 0.20179 0.66747 0.86301 0.0
H199 H 0.19499 0.69496 0.82186 0.0
C200 C 0.31873 0.25431 0.71917 0.0
Eu201 Eu 0.29424 0.27372 0.75486 0.0
C202 C 0.3341 0.23411 0.71068 0.0
C203 C 0.36216 0.23746 0.71544 0.0
C204 C 0.37661 0.22087 0.70385 0.0
C205 C 0.36355 0.20065 0.68665 0.0
C206 C 0.33557 0.19698 0.68229 0.0
C207 C 0.32113 0.2133 0.69417 0.0
C208 C 0.31569 0.31185 0.79078 0.0
C209 C 0.29886 0.23966 0.81175 0.0
C210 C 0.2389 0.30442 0.83796 0.0
Eu211 Eu 0.26031 0.28283 0.80124 0.0
C212 C 0.21972 0.32157 0.84519 0.0
C213 C 0.19531 0.31057 0.85328 0.0
C214 C 0.17914 0.32598 0.86403 0.0
C215 C 0.18673 0.35313 0.86736 0.0
C216 C 0.2109 0.36418 0.85855 0.0
C217 C 0.22706 0.34875 0.84784 0.0
C218 C 0.23816 0.24485 0.76539 0.0
C219 C 0.25569 0.31694 0.74288 0.0
O220 O 0.29323 0.24856 0.72015 0.0
O221 O 0.33038 0.27137 0.73733 0.0
O222 O 0.3189 0.31293 0.76526 0.0
O223 O 0.30279 0.29018 0.79649 0.0
O224 O 0.29768 0.23986 0.78496 0.0
O225 O 0.28842 0.25675 0.82413 0.0
O226 O 0.26019 0.31518 0.828 0.0
O227 O 0.23006 0.28113 0.82845 0.0
O228 O 0.23434 0.24424 0.79074 0.0
O229 O 0.2516 0.2663 0.75974 0.0
O230 O 0.25168 0.3139 0.76864 0.0
O231 O 0.26964 0.30228 0.73147 0.0
H232 H 0.37309 0.25348 0.72746 0.0
H233 H 0.3981 0.2245 0.70752 0.0
H234 H 0.32479 0.18162 0.66927 0.0
H235 H 0.29967 0.21013 0.68959 0.0
H236 H 0.18901 0.28973 0.85216 0.0
H237 H 0.16108 0.31625 0.87069 0.0
H238 H 0.21761 0.38491 0.86007 0.0
H239 H 0.24576 0.35814 0.84227 0.0
C240 C 0.72756 0.33523 0.77188 0.0
Eu241 Eu 0.75969 0.30097 0.77287 0.0
C242 C 0.7111 0.33993 0.79204 0.0
C243 C 0.6867 0.34882 0.78357 0.0
C244 C 0.67075 0.35264 0.80282 0.0
C245 C 0.67905 0.34757 0.83074 0.0
C246 C 0.70332 0.3382 0.83906 0.0
C247 C 0.71921 0.33437 0.81985 0.0
C248 C 0.74997 0.26212 0.73566 0.0
C249 C 0.74316 0.25526 0.81797 0.0
C250 C 0.82573 0.22916 0.78952 0.0
Eu251 Eu 0.7938 0.26383 0.78806 0.0
C252 C 0.84359 0.22287 0.77125 0.0
C253 C 0.87084 0.22419 0.7808 0.0
C254 C 0.888 0.21807 0.76377 0.0
C255 C 0.87813 0.21038 0.73695 0.0
C256 C 0.8509 0.20961 0.72726 0.0
C257 C 0.83381 0.21588 0.7442 0.0
C258 C 0.80375 0.30343 0.82446 0.0
C259 C 0.81166 0.31089 0.74547 0.0
O260 O 0.75311 0.34038 0.77966 0.0
O261 O 0.72073 0.31303 0.75978 0.0
O262 O 0.75235 0.28691 0.72942 0.0
O263 O 0.75418 0.25895 0.76144 0.0
O264 O 0.74149 0.27955 0.80895 0.0
O265 O 0.76148 0.24309 0.81067 0.0
O266 O 0.8003 0.22454 0.78064 0.0
O267 O 0.83254 0.25138 0.80161 0.0
O268 O 0.8021 0.27881 0.83134 0.0
O269 O 0.79931 0.3059 0.79874 0.0
O270 O 0.81248 0.28598 0.7525 0.0
O271 O 0.79364 0.3229 0.75351 0.0
H272 H 0.68009 0.35292 0.76215 0.0
H273 H 0.65225 0.3602 0.79593 0.0
H274 H 0.71004 0.33392 0.86042 0.0
H275 H 0.73788 0.32715 0.82677 0.0
H276 H 0.87882 0.2298 0.80151 0.0
H277 H 0.90895 0.21911 0.77166 0.0
H278 H 0.84261 0.20336 0.70684 0.0
H279 H 0.81291 0.21489 0.73614 0.0
C280 C 0.76429 0.82208 0.83921 0.0
Eu281 Eu 0.7786 0.79819 0.80051 0.0
C282 C 0.74658 0.84171 0.8409 0.0
C283 C 0.75707 0.86711 0.84916 0.0
C284 C 0.74015 0.88487 0.85311 0.0
C285 C 0.71244 0.87746 0.84901 0.0
C286 C 0.70205 0.85238 0.83972 0.0
C287 C 0.71886 0.83475 0.83571 0.0
C288 C 0.8089 0.82024 0.76085 0.0
C289 C 0.73691 0.80092 0.74307 0.0
C290 C 0.79158 0.73319 0.71811 0.0
Eu291 Eu 0.77535 0.75638 0.75603 0.0
C292 C 0.80673 0.71153 0.71577 0.0
C293 C 0.79392 0.68794 0.70436 0.0
C294 C 0.80871 0.66876 0.69906 0.0
C295 C 0.83662 0.67292 0.70481 0.0
C296 C 0.84927 0.69602 0.7174 0.0
C297 C 0.83454 0.71507 0.72282 0.0
C298 C 0.74416 0.73501 0.79518 0.0
C299 C 0.81478 0.7515 0.81425 0.0
O300 O 0.75265 0.79928 0.83047 0.0
O301 O 0.78653 0.82977 0.82961 0.0
O302 O 0.80657 0.83124 0.78308 0.0
O303 O 0.79576 0.79724 0.76186 0.0
O304 O 0.74472 0.8089 0.76842 0.0
O305 O 0.74624 0.78145 0.7334 0.0
O306 O 0.80499 0.75378 0.7305 0.0
O307 O 0.76739 0.72751 0.72403 0.0
O308 O 0.74629 0.72382 0.77293 0.0
O309 O 0.75786 0.75771 0.79425 0.0
O310 O 0.80601 0.74277 0.78944 0.0
O311 O 0.80797 0.77283 0.82308 0.0
H312 H 0.77834 0.87301 0.85324 0.0
H313 H 0.74875 0.90415 0.86003 0.0
H314 H 0.68088 0.8458 0.83685 0.0
H315 H 0.71 0.81535 0.82936 0.0
H316 H 0.77255 0.68467 0.69873 0.0
H317 H 0.79833 0.651 0.68968 0.0
H318 H 0.87071 0.70011 0.72175 0.0
H319 H 0.84517 0.73302 0.73157 0.0
Fe320 Fe 0.0296 0.08699 0.50807 0.0
O321 O 0.02454 0.04846 0.51199 0.0
Fe322 Fe 0.05907 0.03187 0.53128 0.0
Fe323 Fe 0.99514 0.02748 0.53017 0.0
O324 O 0.02829 0.04899 0.51218 0.0
O325 O 0.0298 0.01106 0.54974 0.0
O326 O 0.02598 0.01056 0.54961 0.0
Fe327 Fe 0.02525 0.97258 0.55384 0.0
C328 C 0.99975 0.07774 0.55758 0.0
O329 O 0.99476 0.07952 0.48087 0.0
O330 O 0.96742 0.05078 0.50508 0.0
O331 O 0.04988 0.96905 0.52612 0.0
O332 O 0.05287 1.00581 0.50056 0.0
O333 O 0.08526 0.05821 0.50672 0.0
O334 O 0.05618 0.08341 0.48184 0.0
O335 O 0.98786 1.00134 0.49909 0.0
O336 O 0.99315 0.96448 0.52333 0.0
C337 C 0.07936 0.07573 0.48695 0.0
O338 O 0.05987 0.9806 0.5812 0.0
O339 O 0.08682 1.00832 0.55575 0.0
O340 O 1.00556 0.09086 0.5364 0.0
O341 O 1.00101 0.05347 0.56092 0.0
C342 C 0.97138 0.0686 0.48537 0.0
C343 C 0.98446 0.97654 0.50147 0.0
C344 C 0.97444 0.98277 0.57367 0.0
O345 O 0.96884 1.00073 0.55427 0.0
O346 O 0.99781 0.97555 0.57948 0.0
C347 C 0.05529 0.98183 0.50465 0.0
O348 O 0.06664 0.05789 0.56241 0.0
O349 O 0.06267 0.09477 0.5379 0.0
C350 C 0.08312 0.99022 0.57522 0.0
C351 C 0.07155 0.08258 0.55961 0.0
Fe352 Fe 0.50451 0.01356 0.01848 0.0
O353 O 0.52632 0.04206 0.99892 0.0
Fe354 Fe 0.45027 0.04251 0.02689 0.0
Fe355 Fe 0.56541 0.04502 1.00204 0.0
O356 O 0.48837 0.04299 0.0295 0.0
O357 O 0.48928 0.04582 0.02959 0.0
O358 O 0.52706 0.04504 0.99863 0.0
Fe359 Fe 0.51204 0.0746 0.01129 0.0
C360 C 0.55541 0.01595 0.05508 0.0
O361 O 0.52534 0.98653 1.00338 0.0
O362 O 0.5548 0.01248 0.97897 0.0
O363 O 0.48452 0.07318 0.97631 0.0
O364 O 0.44679 0.06811 0.99416 0.0
O365 O 0.44042 0.01205 0.99999 0.0
O366 O 0.4777 1.00826 0.98396 0.0
O367 O 0.5622 0.07331 0.97113 0.0
O368 O 0.53865 0.1009 0.98917 0.0
C369 C 0.4527 1.00406 0.98242 0.0
O370 O 0.49284 0.1013 0.02807 0.0
O371 O 0.46139 0.07508 0.05018 0.0
O372 O 0.53122 0.01864 0.0528 0.0
O373 O 0.56854 0.01928 0.03521 0.0
C374 C 0.54157 0.99028 0.98532 0.0
C375 C 0.55467 0.09595 0.97251 0.0
C376 C 0.56463 0.08364 0.04691 0.0
O377 O 0.57574 0.07606 0.02818 0.0
O378 O 0.53969 0.07816 0.04665 0.0
C379 C 0.45982 0.07443 0.97448 0.0
O380 O 0.45341 0.01386 0.058 0.0
O381 O 0.47869 0.98689 0.04182 0.0
C382 C 0.47644 0.09692 0.04582 0.0
C383 C 0.46182 0.99143 0.05781 0.0
Fe384 Fe 1.00623 0.59725 0.05458 0.0
O385 O 0.996 0.55751 0.0545 0.0
Fe386 Fe 0.04237 0.53485 0.06874 0.0
Fe387 Fe 0.95964 0.53713 0.05629 0.0
O388 O 1.00938 0.55703 0.05142 0.0
O389 O 1.00573 0.51503 0.07216 0.0
O390 O 0.99416 0.51681 0.07351 0.0
Fe391 Fe 0.99719 0.47612 0.07057 0.0
C392 C 0.96196 0.58586 0.09484 0.0
O393 O 0.97465 0.59828 0.02467 0.0
O394 O 0.94298 0.56345 0.02639 0.0
O395 O 0.01574 0.47733 0.03542 0.0
O396 O 0.0439 0.51472 0.03395 0.0
O397 O 0.03712 0.56654 0.04409 0.0
O398 O 0.03014 0.60159 0.02356 0.0
O399 O 0.95914 0.51235 0.02342 0.0
O400 O 0.96036 0.47472 0.04672 0.0
C401 C 0.04323 0.58285 0.02559 0.0
O402 O 0.03338 0.47275 0.09525 0.0
O403 O 0.06423 0.50742 0.09231 0.0
O404 O 0.98147 0.59891 0.08462 0.0
O405 O 0.95388 0.56187 0.08814 0.0
C406 C 0.95202 0.58568 0.0159 0.0
C407 C 0.95453 0.4873 0.02441 0.0
C408 C 0.96861 0.49274 0.10879 0.0
O409 O 0.9652 0.50953 0.089 0.0
O410 O 0.98032 0.47366 0.10517 0.0
C411 C 0.03394 0.49221 0.02472 0.0
O412 O 0.04318 0.55637 0.10256 0.0
O413 O 0.03894 0.59706 0.08489 0.0
C414 C 0.05729 0.48398 0.10106 0.0
C415 C 0.04992 0.58116 0.10227 0.0
Fe416 Fe 0.52123 0.5468 0.96601 0.0
O417 O 0.52814 0.54509 1.00652 0.0
Fe418 Fe 0.49596 0.52392 0.02614 0.0
Fe419 Fe 0.55961 0.53051 0.02819 0.0
O420 O 0.52446 0.54375 1.00604 0.0
O421 O 0.52737 0.50891 0.0473 0.0
O422 O 0.5311 0.51031 0.04786 0.0
Fe423 Fe 0.53394 0.50721 0.08782 0.0
C424 C 0.55339 0.50117 0.97694 0.0
O425 O 0.55538 0.57466 0.97059 0.0
O426 O 0.58494 0.55483 1.00193 0.0
O427 O 0.50758 0.53254 0.09184 0.0
O428 O 0.50222 0.55402 0.05182 0.0
O429 O 0.4676 0.54538 0.99969 0.0
O430 O 0.49302 0.57024 0.97039 0.0
O431 O 0.56622 0.56099 0.0548 0.0
O432 O 0.56444 0.53797 0.09394 0.0
C433 C 0.47119 0.56416 0.98083 0.0
O434 O 0.50105 0.47872 0.08216 0.0
O435 O 0.47062 0.49935 0.05301 0.0
O436 O 0.54611 0.52014 0.96171 0.0
O437 O 0.55476 0.50035 1.00264 0.0
C438 C 0.57947 0.57202 0.98181 0.0
C439 C 0.57132 0.55901 0.08077 0.0
C440 C 0.58478 0.4911 0.07363 0.0
O441 O 0.5882 0.50994 0.05491 0.0
O442 O 0.56303 0.48468 0.08404 0.0
C443 C 0.50172 0.5524 0.07725 0.0
O444 O 0.48841 0.4936 0.99944 0.0
O445 O 0.48975 0.51693 0.96043 0.0
C446 C 0.47668 0.48176 0.07268 0.0
C447 C 0.48279 0.49587 0.97355 0.0
Fe448 Fe 0.02481 0.45567 0.53894 0.0
O449 O 0.02813 0.49375 0.54079 0.0
Fe450 Fe 0.04703 0.51783 0.51108 0.0
Fe451 Fe 0.04588 0.51232 0.57441 0.0
O452 O 0.02849 0.49409 0.53789 0.0
O453 O 0.06584 0.5357 0.54487 0.0
O454 O 0.06544 0.53538 0.54796 0.0
Fe455 Fe 0.06993 0.57367 0.54866 0.0
C456 C 1.00168 0.46643 0.58934 0.0
O457 O 0.05173 0.45104 0.57371 0.0
O458 O 0.0758 0.48999 0.57977 0.0
O459 O 0.09557 0.57367 0.5202 0.0
O460 O 0.07046 0.54693 0.48729 0.0
O461 O 0.07647 0.4954 0.51354 0.0
O462 O 0.0542 0.45498 0.51534 0.0
O463 O 0.06844 0.53518 0.6063 0.0
O464 O 0.09503 0.56643 0.58381 0.0
C465 C 0.07415 0.47104 0.51025 0.0
O466 O 0.04197 0.57929 0.51559 0.0
O467 O 0.01751 0.54036 0.50817 0.0
O468 O 0.99785 0.45684 0.56518 0.0
O469 O 0.02136 0.48483 0.59775 0.0
C470 C 0.07267 0.46553 0.58387 0.0
C471 C 0.08922 0.55286 0.60541 0.0
C472 C 0.02007 0.559 0.57656 0.0
O473 O 0.01648 0.53518 0.57042 0.0
O474 O 0.04145 0.57411 0.5738 0.0
C475 C 0.08979 0.56607 0.4951 0.0
O476 O 0.02331 0.49406 0.47929 0.0
O477 O 1.00024 0.46062 0.50285 0.0
C478 C 0.02029 0.56507 0.50716 0.0
C479 C 1.00488 0.4737 0.48065 0.0
Fe480 Fe 0.5646 0.9898 0.49575 0.0
O481 O 0.56001 0.01702 0.52171 0.0
Fe482 Fe 0.53418 0.01487 0.43311 0.0
Fe483 Fe 0.56185 0.01395 0.56103 0.0
O484 O 0.54283 0.01409 0.47203 0.0
O485 O 0.53577 0.01643 0.47359 0.0
O486 O 0.56328 0.02114 0.52178 0.0
Fe487 Fe 0.54534 0.04793 0.4977 0.0
C488 C 0.52581 0.96509 0.53496 0.0
O489 O 0.58498 0.96729 0.52661 0.0
O490 O 0.59439 0.9946 0.56225 0.0
O491 O 0.57687 0.05777 0.47629 0.0
O492 O 0.56138 0.04735 0.43202 0.0
O493 O 0.5638 0.9894 0.42873 0.0
O494 O 0.57323 0.96515 0.4666 0.0
O495 O 0.58328 0.05103 0.56365 0.0
O496 O 0.56374 0.07627 0.52821 0.0
C497 C 0.57523 0.97038 0.44128 0.0
O498 O 0.52253 0.07075 0.46844 0.0
O499 O 0.50631 0.04178 0.43418 0.0
O500 O 0.53208 0.96819 0.51056 0.0
O501 O 0.53732 0.97854 0.55558 0.0
C502 C 0.59663 0.97339 0.55101 0.0
C503 C 0.5793 0.07339 0.55174 0.0
C504 C 0.51137 0.04161 0.54428 0.0
O505 O 0.52925 0.03259 0.56132 0.0
O506 O 0.51181 0.04181 0.51837 0.0
C507 C 0.57677 0.06113 0.45035 0.0
O508 O 0.50847 0.9816 0.43969 0.0
O509 O 0.52598 0.96699 0.48326 0.0
C510 C 0.50643 0.06378 0.44605 0.0
C511 C 0.50816 0.96571 0.46087 0.0
C512 C 0.20016 0.22748 0.32466 0.0
C513 C 0.228 0.22984 0.32597 0.0
C514 C 0.18629 0.21067 0.34291 0.0
C515 C 0.19063 0.15157 0.39212 0.0
H516 H 0.13006 0.174 0.41626 0.0
C517 C 0.12679 0.08808 0.47171 0.0
C518 C 0.0994 0.0903 0.46906 0.0
C519 C 0.14405 0.10399 0.45531 0.0
C520 C 0.14658 0.16682 0.40959 0.0
H521 H 0.26262 0.21503 0.34822 0.0
H522 H 0.23859 0.18549 0.37952 0.0
H523 H 0.15562 0.20255 0.38657 0.0
H524 H 0.06981 0.11177 0.44527 0.0
H525 H 0.09863 0.13802 0.41802 0.0
H526 H 0.18122 0.11558 0.41513 0.0
C527 C 0.22732 0.19698 0.36439 0.0
C528 C 0.16155 0.1836 0.39228 0.0
C529 C 0.24131 0.21428 0.34642 0.0
C530 C 0.09045 0.10886 0.44889 0.0
C531 C 0.10743 0.1246 0.43296 0.0
C532 C 0.17543 0.13458 0.40938 0.0
C533 C 0.19938 0.19478 0.36322 0.0
C534 C 0.18388 0.17646 0.3828 0.0
C535 C 0.13482 0.12309 0.43577 0.0
C536 C 0.15271 0.14161 0.41836 0.0
H537 H 0.18886 0.23873 0.30929 0.0
H538 H 0.16494 0.20979 0.3406 0.0
H539 H 0.20741 0.14481 0.38552 0.0
H540 H 0.13504 0.07436 0.48668 0.0
H541 H 0.16485 0.1017 0.45848 0.0
C542 C 0.84314 0.21221 0.32029 0.0
C543 C 0.82125 0.22165 0.32827 0.0
C544 C 0.85756 0.19459 0.33721 0.0
C545 C 0.86943 0.16605 0.41023 0.0
H546 H 0.90113 0.11565 0.3763 0.0
C547 C 0.92649 0.08662 0.47627 0.0
C548 C 0.94879 0.07951 0.4668 0.0
C549 C 0.90923 0.10229 0.45974 0.0
C550 C 0.89285 0.1297 0.38648 0.0
H551 H 0.79854 0.21996 0.36152 0.0
H552 H 0.82386 0.19018 0.39111 0.0
H553 H 0.87633 0.1461 0.34804 0.0
H554 H 0.96942 0.08336 0.43168 0.0
H555 H 0.94017 0.1099 0.40359 0.0
H556 H 0.88609 0.14952 0.44874 0.0
C557 C 0.8296 0.19584 0.37138 0.0
C558 C 0.87839 0.14749 0.36997 0.0
C559 C 0.81486 0.21306 0.35423 0.0
C560 C 0.95243 0.08792 0.4399 0.0
C561 C 0.93535 0.10335 0.42351 0.0
C562 C 0.88397 0.14822 0.4268 0.0
C563 C 0.85109 0.18578 0.36318 0.0
C564 C 0.86646 0.16632 0.38134 0.0
C565 C 0.91352 0.11141 0.43304 0.0
C566 C 0.89631 0.12972 0.41536 0.0
H567 H 0.84913 0.21831 0.3007 0.0
H568 H 0.87418 0.18821 0.32991 0.0
H569 H 0.86104 0.18009 0.42033 0.0
H570 H 0.92309 0.0812 0.49694 0.0
H571 H 0.89267 0.10753 0.46815 0.0
C572 C 0.86109 0.81695 0.33649 0.0
C573 C 0.83989 0.82542 0.3187 0.0
C574 C 0.87706 0.83406 0.35529 0.0
C575 C 0.89814 0.90389 0.3697 0.0
H576 H 0.91409 0.87858 0.44453 0.0
C577 C 0.95162 0.97163 0.45785 0.0
C578 C 0.96899 0.96074 0.47863 0.0
C579 C 0.93599 0.95593 0.43746 0.0
C580 C 0.91024 0.88594 0.42366 0.0
H581 H 0.81876 0.85816 0.30601 0.0
H582 H 0.84686 0.88823 0.33858 0.0
H583 H 0.88742 0.84962 0.41059 0.0
H584 H 0.98448 0.92504 0.49339 0.0
H585 H 0.95807 0.89809 0.45775 0.0
H586 H 0.9213 0.94015 0.38268 0.0
C587 C 0.85124 0.86848 0.33812 0.0
C588 C 0.89485 0.86928 0.4042 0.0
C589 C 0.83511 0.85129 0.31959 0.0
C590 C 0.97099 0.93404 0.478 0.0
C591 C 0.95566 0.91848 0.45757 0.0
C592 C 0.91381 0.92055 0.38916 0.0
C593 C 0.87227 0.86002 0.35638 0.0
C594 C 0.8887 0.87797 0.37696 0.0
C595 C 0.93756 0.92902 0.43726 0.0
C596 C 0.92025 0.91174 0.41642 0.0
H597 H 0.86506 0.79705 0.33609 0.0
H598 H 0.89325 0.82701 0.36893 0.0
H599 H 0.89384 0.91115 0.34883 0.0
H600 H 0.94957 0.99213 0.45773 0.0
H601 H 0.92219 0.96477 0.42231 0.0
C602 C 0.16116 0.84416 0.38428 0.0
C603 C 0.1612 0.84909 0.35622 0.0
C604 C 0.14427 0.85558 0.39775 0.0
C605 C 0.11689 0.91579 0.39262 0.0
H606 H 0.08139 0.88588 0.45269 0.0
C607 C 0.06335 0.97466 0.45742 0.0
C608 C 0.06717 0.96847 0.48549 0.0
C609 C 0.07289 0.95981 0.43949 0.0
C610 C 0.09135 0.89449 0.43601 0.0
H611 H 0.14233 0.8678 0.31971 0.0
H612 H 0.11261 0.88767 0.34331 0.0
H613 H 0.09865 0.85738 0.42449 0.0
H614 H 0.08569 0.94367 0.51725 0.0
H615 H 0.10271 0.91831 0.48617 0.0
H616 H 0.11052 0.95301 0.40478 0.0
C617 C 0.12577 0.8752 0.35485 0.0
C618 C 0.10104 0.87818 0.41986 0.0
C619 C 0.14255 0.86365 0.34136 0.0
C620 C 0.08186 0.94835 0.49556 0.0
C621 C 0.09153 0.93379 0.4778 0.0
C622 C 0.10731 0.93214 0.40887 0.0
C623 C 0.12735 0.87215 0.38328 0.0
C624 C 0.11417 0.88874 0.39827 0.0
C625 C 0.08647 0.93884 0.44958 0.0
C626 C 0.09487 0.92164 0.43098 0.0
H627 H 0.17531 0.8328 0.39603 0.0
H628 H 0.14587 0.853 0.41973 0.0
H629 H 0.12745 0.92442 0.37637 0.0
H630 H 0.05219 0.99022 0.44931 0.0
H631 H 0.06887 0.96413 0.41776 0.0
C632 C 0.24573 0.85991 0.72015 0.0
C633 C 0.2334 0.83444 0.72593 0.0
C634 C 0.23171 0.87801 0.70348 0.0
C635 C 0.1739 0.88199 0.64809 0.0
H636 H 0.17617 0.95317 0.66933 0.0
C637 C 0.09959 0.94761 0.58961 0.0
C638 C 0.10506 0.9751 0.58873 0.0
C639 C 0.117 0.93198 0.60503 0.0
C640 C 0.1755 0.93355 0.66261 0.0
H641 H 0.19637 0.80835 0.71768 0.0
H642 H 0.17251 0.83922 0.688 0.0
H643 H 0.20259 0.92364 0.6982 0.0
H644 H 0.13425 1.00745 0.60387 0.0
H645 H 0.16526 0.9802 0.6305 0.0
H646 H 0.14772 0.89164 0.61225 0.0
C647 C 0.19294 0.84548 0.69675 0.0
C648 C 0.19071 0.91643 0.67943 0.0
C649 C 0.20669 0.82768 0.71398 0.0
C650 C 0.12934 0.98642 0.60356 0.0
C651 C 0.147 0.9706 0.61926 0.0
C652 C 0.15911 0.89913 0.6311 0.0
C653 C 0.20505 0.87111 0.69126 0.0
C654 C 0.18989 0.89014 0.67272 0.0
C655 C 0.14109 0.94291 0.62054 0.0
C656 C 0.15904 0.92525 0.63811 0.0
H657 H 0.2662 0.86605 0.72889 0.0
H658 H 0.24196 0.89736 0.69979 0.0
H659 H 0.17296 0.8622 0.64169 0.0
H660 H 0.08113 0.93794 0.57869 0.0
H661 H 0.11082 0.91112 0.60539 0.0
C662 C 0.2251 0.23043 0.71696 0.0
C663 C 0.22343 0.22609 0.74486 0.0
C664 C 0.20989 0.21346 0.69753 0.0
C665 C 0.14908 0.16408 0.68807 0.0
H666 H 0.1761 0.14814 0.62325 0.0
C667 C 0.09099 0.08918 0.60902 0.0
C668 C 0.08954 0.09764 0.58148 0.0
C669 C 0.10786 0.10376 0.6295 0.0
C670 C 0.16822 0.15252 0.64118 0.0
H671 H 0.20492 0.20022 0.77431 0.0
H672 H 0.17865 0.17051 0.74061 0.0
H673 H 0.20488 0.17518 0.6579 0.0
H674 H 0.10514 0.12768 0.55383 0.0
H675 H 0.13493 0.15272 0.58942 0.0
H676 H 0.11247 0.14123 0.67132 0.0
C677 C 0.19136 0.18721 0.73356 0.0
C678 C 0.1847 0.16811 0.66105 0.0
C679 C 0.20659 0.20416 0.75295 0.0
C680 C 0.10563 0.12074 0.57487 0.0
C681 C 0.12287 0.13499 0.59524 0.0
C682 C 0.13269 0.14832 0.6683 0.0
C683 C 0.19255 0.19174 0.70551 0.0
C684 C 0.17532 0.17431 0.6847 0.0
C685 C 0.1241 0.12679 0.62284 0.0
C686 C 0.14197 0.14253 0.64449 0.0
H687 H 0.23776 0.24726 0.71005 0.0
H688 H 0.21118 0.21783 0.67616 0.0
H689 H 0.14092 0.16873 0.70571 0.0
H690 H 0.07879 0.0715 0.61476 0.0
H691 H 0.10843 0.09685 0.65055 0.0
C692 C 0.91372 0.18431 0.73094 0.0
C693 C 0.89557 0.20116 0.71971 0.0
C694 C 0.92731 0.17239 0.7141 0.0
C695 C 0.91853 0.15111 0.64407 0.0
H696 H 0.99165 0.13836 0.66226 0.0
C697 C 0.97429 0.11168 0.56834 0.0
C698 C 0.9885 0.09096 0.57742 0.0
C699 C 0.96333 0.12453 0.58663 0.0
C700 C 0.97112 0.14155 0.6572 0.0
H701 H 0.87901 0.2204 0.68239 0.0
H702 H 0.90276 0.19949 0.65292 0.0
H703 H 0.97343 0.16473 0.69212 0.0
H704 H 1.00248 0.0673 0.61255 0.0
H705 H 0.98357 0.09042 0.64501 0.0
H706 H 0.9163 0.12822 0.60903 0.0
C707 C 0.90602 0.19511 0.67469 0.0
C708 C 0.96075 0.15668 0.67415 0.0
C709 C 0.89247 0.20707 0.69152 0.0
C710 C 0.99157 0.08323 0.60515 0.0
C711 C 0.98091 0.09646 0.62363 0.0
C712 C 0.92892 0.13614 0.62712 0.0
C713 C 0.92295 0.17707 0.68575 0.0
C714 C 0.9344 0.16171 0.66762 0.0
C715 C 0.96665 0.11714 0.6144 0.0
C716 C 0.95532 0.13139 0.63346 0.0
H717 H 0.91635 0.17918 0.75254 0.0
H718 H 0.94012 0.15844 0.72315 0.0
H719 H 0.89796 0.15411 0.6389 0.0
H720 H 0.97137 0.11782 0.54698 0.0
H721 H 0.95256 0.14053 0.5791 0.0
C722 C 0.82804 0.82442 0.71434 0.0
C723 C 0.82412 0.83495 0.73887 0.0
C724 C 0.84234 0.83978 0.69501 0.0
C725 C 0.86929 0.91127 0.67605 0.0
H726 H 0.91013 0.8798 0.63132 0.0
C727 C 0.92954 0.97459 0.59445 0.0
C728 C 0.95365 0.96682 0.58982 0.0
C729 C 0.91228 0.95886 0.61097 0.0
C730 C 0.8991 0.88933 0.64365 0.0
H731 H 0.83295 0.87075 0.76121 0.0
H732 H 0.85713 0.89662 0.72864 0.0
H733 H 0.88453 0.85248 0.66221 0.0
H734 H 0.9769 0.93486 0.59936 0.0
H735 H 0.94798 0.90869 0.62702 0.0
H736 H 0.88418 0.94817 0.65774 0.0
C737 C 0.84909 0.87668 0.72369 0.0
C738 C 0.88387 0.87326 0.66147 0.0
C739 C 0.83513 0.86143 0.74286 0.0
C740 C 0.959 0.94236 0.60207 0.0
C741 C 0.94189 0.92676 0.6181 0.0
C742 C 0.8844 0.92732 0.65811 0.0
C743 C 0.85317 0.8665 0.69909 0.0
C744 C 0.86872 0.88373 0.67852 0.0
C745 C 0.91802 0.93439 0.62327 0.0
C746 C 0.90009 0.91692 0.64158 0.0
H747 H 0.82006 0.80434 0.70997 0.0
H748 H 0.84452 0.83066 0.67657 0.0
H749 H 0.85785 0.92073 0.68801 0.0
H750 H 0.92417 0.99301 0.58575 0.0
H751 H 0.89422 0.9659 0.61387 0.0
C752 C 0.3328 0.14662 0.17516 0.0
C753 C 0.33854 0.16052 0.19939 0.0
C754 C 0.35329 0.13884 0.16374 0.0
C755 C 0.41858 0.16519 0.15488 0.0
H756 H 0.42293 0.09884 0.12478 0.0
C757 C 0.45677 0.13426 0.05789 0.0
C758 C 0.47573 0.1173 0.0645 0.0
C759 C 0.44687 0.14489 0.07873 0.0
C760 C 0.42203 0.11738 0.1334 0.0
H761 H 0.36955 0.17416 0.23249 0.0
H762 H 0.40548 0.16138 0.21179 0.0
H763 H 0.39001 0.10138 0.15482 0.0
H764 H 0.50138 0.10008 0.0971 0.0
H765 H 0.48376 0.11839 0.13356 0.0
H766 H 0.4495 0.18144 0.13192 0.0
C767 C 0.3852 0.15676 0.2017 0.0
C768 C 0.40331 0.11879 0.15042 0.0
C769 C 0.3647 0.16409 0.21339 0.0
C770 C 0.48706 0.11356 0.09176 0.0
C771 C 0.47696 0.12388 0.11254 0.0
C772 C 0.43699 0.16386 0.13738 0.0
C773 C 0.37969 0.1451 0.17628 0.0
C774 C 0.40135 0.14274 0.16108 0.0
C775 C 0.45577 0.13826 0.10606 0.0
C776 C 0.43861 0.13997 0.1265 0.0
H777 H 0.31287 0.14367 0.16387 0.0
H778 H 0.34873 0.12984 0.14404 0.0
H779 H 0.41697 0.18393 0.16262 0.0
H780 H 0.44747 0.13681 0.03694 0.0
H781 H 0.43023 0.15571 0.07351 0.0
C782 C 0.81366 0.37383 0.12133 0.0
C783 C 0.82851 0.35295 0.12642 0.0
C784 C 0.82709 0.39904 0.11852 0.0
C785 C 0.8847 0.41984 0.16043 0.0
H786 H 0.88523 0.48998 0.12985 0.0
C787 C 0.96621 0.47785 0.15686 0.0
C788 C 0.96021 0.49564 0.1352 0.0
C789 C 0.95011 0.47379 0.17719 0.0
C790 C 0.88505 0.47071 0.13939 0.0
H791 H 0.8649 0.33969 0.12044 0.0
H792 H 0.88842 0.38342 0.11543 0.0
H793 H 0.85767 0.45429 0.10542 0.0
H794 H 0.93966 0.52902 0.12326 0.0
H795 H 0.91211 0.52124 0.15913 0.0
H796 H 0.91158 0.4357 0.19457 0.0
C797 C 0.8672 0.38102 0.11561 0.0
C798 C 0.86948 0.45023 0.12482 0.0
C799 C 0.85357 0.35591 0.11811 0.0
C800 C 0.94335 0.51379 0.13844 0.0
C801 C 0.92787 0.5095 0.1594 0.0
C802 C 0.89987 0.44029 0.1753 0.0
C803 C 0.8547 0.40252 0.11951 0.0
C804 C 0.87039 0.42462 0.13457 0.0
C805 C 0.92635 0.48485 0.17284 0.0
C806 C 0.90199 0.46588 0.16405 0.0
H807 H 0.79373 0.37165 0.12634 0.0
H808 H 0.81693 0.41547 0.12073 0.0
H809 H 0.88455 0.40013 0.16895 0.0
H810 H 0.98106 0.46517 0.15649 0.0
H811 H 0.95265 0.45741 0.19134 0.0
C812 C 0.6691 0.88311 0.18697 0.0
C813 C 0.69037 0.89135 0.20719 0.0
C814 C 0.64737 0.89634 0.18216 0.0
C815 C 0.63317 0.96146 0.18513 0.0
H816 H 0.5655 0.92776 0.14849 0.0
C817 C 0.56509 0.01411 0.10514 0.0
C818 C 0.56631 1.00347 0.08012 0.0
C819 C 0.57298 1.00072 0.12937 0.0
C820 C 0.58393 0.93747 0.15941 0.0
H821 H 0.70589 0.91874 0.23912 0.0
H822 H 0.66725 0.94231 0.23078 0.0
H823 H 0.59371 0.90231 0.18025 0.0
H824 H 0.57496 0.97051 0.05988 0.0
H825 H 0.58877 0.94681 0.10251 0.0
H826 H 0.62397 0.99622 0.16297 0.0
C827 C 0.66751 0.92567 0.2186 0.0
C828 C 0.6001 0.92301 0.17739 0.0
C829 C 0.68955 0.91248 0.22323 0.0
C830 C 0.57467 0.97915 0.07921 0.0
C831 C 0.58191 0.96548 0.10339 0.0
C832 C 0.61673 0.97602 0.16767 0.0
C833 C 0.64643 0.91793 0.1977 0.0
C834 C 0.6257 0.93447 0.18862 0.0
C835 C 0.58125 0.97632 0.12852 0.0
C836 C 0.59294 0.96365 0.15342 0.0
H837 H 0.66968 0.86684 0.17437 0.0
H838 H 0.63197 0.8904 0.16527 0.0
H839 H 0.65284 0.97081 0.19329 0.0
H840 H 0.55817 0.03277 0.10585 0.0
H841 H 0.57281 1.00938 0.1487 0.0
C842 C 0.21191 0.72584 0.24078 0.0
C843 C 0.22227 0.7484 0.22688 0.0
C844 C 0.19539 0.70593 0.22664 0.0
C845 C 0.17949 0.6735 0.16349 0.0
H846 H 0.11173 0.64981 0.18783 0.0
C847 C 0.09357 0.60781 0.10331 0.0
C848 C 0.07544 0.59188 0.11753 0.0
C849 C 0.1156 0.62271 0.11742 0.0
C850 C 0.13084 0.65574 0.18124 0.0
H851 H 0.22372 0.76802 0.1874 0.0
H852 H 0.19448 0.73229 0.16206 0.0
H853 H 0.14046 0.68713 0.20882 0.0
H854 H 0.06714 0.57654 0.15712 0.0
H855 H 0.10613 0.60282 0.18229 0.0
H856 H 0.16991 0.64192 0.13596 0.0
C857 C 0.19932 0.73045 0.18406 0.0
C858 C 0.14704 0.67734 0.19293 0.0
C859 C 0.21572 0.75083 0.19843 0.0
C860 C 0.08086 0.58899 0.14594 0.0
C861 C 0.10299 0.60407 0.16019 0.0
C862 C 0.16332 0.65166 0.15186 0.0
C863 C 0.18904 0.70797 0.19825 0.0
C864 C 0.17138 0.68642 0.1841 0.0
C865 C 0.11979 0.62198 0.14603 0.0
C866 C 0.13876 0.64268 0.16056 0.0
H867 H 0.21656 0.72349 0.26275 0.0
H868 H 0.1878 0.6887 0.23792 0.0
H869 H 0.19847 0.68 0.1568 0.0
H870 H 0.08987 0.60984 0.08122 0.0
H871 H 0.12807 0.63629 0.10589 0.0
C872 C 0.30081 0.8578 0.8296 0.0
C873 C 0.30691 0.8324 0.82916 0.0
C874 C 0.31927 0.87718 0.84307 0.0
C875 C 0.37146 0.88477 0.90063 0.0
H876 H 0.39113 0.95412 0.87008 0.0
C877 C 0.44654 0.96124 0.96112 0.0
C878 C 0.43822 0.98567 0.96209 0.0
C879 C 0.43263 0.943 0.94262 0.0
C880 C 0.38564 0.93486 0.87884 0.0
H881 H 0.33686 0.80712 0.84182 0.0
H882 H 0.36876 0.84081 0.86622 0.0
H883 H 0.36265 0.92091 0.84123 0.0
H884 H 0.40989 0.01096 0.94414 0.0
H885 H 0.38555 0.979 0.91107 0.0
H886 H 0.39374 0.89865 0.93834 0.0
C887 C 0.34994 0.84582 0.85591 0.0
C888 C 0.36947 0.91595 0.86239 0.0
C889 C 0.33174 0.82663 0.84199 0.0
C890 C 0.41632 0.99204 0.94379 0.0
C891 C 0.40266 0.97391 0.92483 0.0
C892 C 0.38748 0.90364 0.91706 0.0
C893 C 0.34377 0.87119 0.8567 0.0
C894 C 0.3621 0.89085 0.87328 0.0
C895 C 0.41043 0.94906 0.92446 0.0
C896 C 0.39455 0.92891 0.9064 0.0
H897 H 0.28184 0.86265 0.81955 0.0
H898 H 0.31409 0.89663 0.84357 0.0
H899 H 0.36572 0.86563 0.90954 0.0
H900 H 0.46345 0.95605 0.97515 0.0
H901 H 0.43913 0.92407 0.94263 0.0
C902 C 0.14225 0.36321 0.8787 0.0
C903 C 0.17013 0.3695 0.88071 0.0
C904 C 0.12711 0.37779 0.89193 0.0
C905 C 0.13418 0.4278 0.94724 0.0
H906 H 0.05987 0.43045 0.92015 0.0
C907 C 0.07247 0.49264 0.99801 0.0
C908 C 0.04692 0.48138 1.00311 0.0
C909 C 0.08668 0.48049 0.9814 0.0
C910 C 0.08056 0.42985 0.92821 0.0
H911 H 0.20329 0.39712 0.89885 0.0
H912 H 0.17724 0.42273 0.92065 0.0
H913 H 0.08582 0.40737 0.89489 0.0
H914 H 0.01621 0.44858 0.99295 0.0
H915 H 0.04053 0.42795 0.96342 0.0
H916 H 0.12893 0.45073 0.98026 0.0
C917 C 0.16687 0.40606 0.90933 0.0
C918 C 0.09563 0.41637 0.91366 0.0
C919 C 0.18201 0.3914 0.89623 0.0
C920 C 0.03571 0.45806 0.98972 0.0
C921 C 0.04977 0.44615 0.97266 0.0
C922 C 0.11922 0.44154 0.96154 0.0
C923 C 0.13904 0.3995 0.90779 0.0
C924 C 0.12281 0.41479 0.92293 0.0
C925 C 0.07585 0.45675 0.96871 0.0
C926 C 0.09203 0.44271 0.9525 0.0
H927 H 0.13188 0.34693 0.86676 0.0
H928 H 0.10595 0.37153 0.89005 0.0
H929 H 0.15468 0.42697 0.95582 0.0
H930 H 0.08211 0.51046 0.00779 0.0
H931 H 0.10643 0.48969 0.97871 0.0
C932 C 0.72518 0.21513 0.84474 0.0
C933 C 0.72374 0.24117 0.83558 0.0
C934 C 0.70627 0.20129 0.85981 0.0
C935 C 0.65114 0.20916 0.89978 0.0
H936 H 0.63259 0.13497 0.88876 0.0
C937 C 0.58225 0.14035 0.96662 0.0
C938 C 0.56772 0.11728 0.95524 0.0
C939 C 0.59983 0.15704 0.95191 0.0
C940 C 0.63706 0.15572 0.89202 0.0
H941 H 0.70087 0.27296 0.8359 0.0
H942 H 0.66788 0.24892 0.86181 0.0
H943 H 0.6652 0.1602 0.86404 0.0
H944 H 0.5595 0.09464 0.91878 0.0
H945 H 0.58849 0.12398 0.89285 0.0
H946 H 0.62235 0.20463 0.92732 0.0
C947 C 0.68387 0.23913 0.85762 0.0
C948 C 0.6564 0.1703 0.87801 0.0
C949 C 0.70286 0.25301 0.84253 0.0
C950 C 0.57023 0.11223 0.92825 0.0
C951 C 0.58739 0.12898 0.91347 0.0
C952 C 0.63168 0.19452 0.91381 0.0
C953 C 0.68498 0.21284 0.86634 0.0
C954 C 0.66397 0.19734 0.88157 0.0
C955 C 0.60333 0.15129 0.92525 0.0
C956 C 0.62414 0.16745 0.91019 0.0
H957 H 0.74089 0.20519 0.84005 0.0
H958 H 0.70852 0.1814 0.86645 0.0
H959 H 0.65635 0.22978 0.90355 0.0
H960 H 0.58137 0.14463 0.98754 0.0
H961 H 0.61162 0.17378 0.96206 0.0
C962 C 0.85324 0.74323 0.85069 0.0
C963 C 0.82941 0.73411 0.83389 0.0
C964 C 0.86637 0.72596 0.86904 0.0
C965 C 0.855 0.66606 0.91045 0.0
H966 H 0.92779 0.65774 0.90711 0.0
C967 C 0.90936 0.59113 0.98287 0.0
C968 C 0.93644 0.59895 0.99238 0.0
C969 C 0.89558 0.60576 0.96192 0.0
C970 C 0.90759 0.66001 0.90881 0.0
H971 H 0.80028 0.70012 0.82366 0.0
H972 H 0.8225 0.67042 0.8564 0.0
H973 H 0.90615 0.68861 0.87577 0.0
H974 H 0.97018 0.62816 0.98604 0.0
H975 H 0.94654 0.65335 0.95143 0.0
H976 H 0.85656 0.63836 0.94415 0.0
C977 C 0.83138 0.69064 0.85501 0.0
C978 C 0.89518 0.67774 0.89064 0.0
C979 C 0.81877 0.70762 0.83617 0.0
C980 C 0.94931 0.62129 0.97977 0.0
C981 C 0.93568 0.63582 0.95931 0.0
C982 C 0.86758 0.64871 0.92906 0.0
C983 C 0.85539 0.69951 0.87158 0.0
C984 C 0.86878 0.68105 0.8913 0.0
C985 C 0.90854 0.62856 0.94999 0.0
C986 C 0.8942 0.64551 0.92874 0.0
H987 H 0.86186 0.76354 0.84935 0.0
H988 H 0.88487 0.73334 0.88158 0.0
H989 H 0.83458 0.6682 0.91141 0.0
H990 H 0.89874 0.57406 0.99187 0.0
H991 H 0.87476 0.5992 0.95514 0.0
C992 C 0.20631 0.32063 0.21048 0.0
C993 C 0.22041 0.32558 0.23694 0.0
C994 C 0.18984 0.33816 0.19619 0.0
C995 C 0.17253 0.40789 0.19612 0.0
H996 H 0.11313 0.38052 0.14274 0.0
C997 C 0.10453 0.47722 0.12582 0.0
C998 C 0.0774 0.46766 0.1175 0.0
C999 C 0.12253 0.46095 0.14027 0.0
C1000 C 0.1294 0.38885 0.15768 0.0
H1001 H 0.2275 0.35401 0.2686 0.0
H1002 H 0.19874 0.38408 0.24426 0.0
H1003 H 0.14146 0.35118 0.16787 0.0
H1004 H 0.04889 0.43246 0.11864 0.0
H1005 H 0.07933 0.40499 0.1433 0.0
H1006 H 0.15989 0.4456 0.18613 0.0
C1007 C 0.2006 0.36665 0.23412 0.0
C1008 C 0.14622 0.37172 0.1721 0.0
C1009 C 0.21714 0.34906 0.24842 0.0
C1010 C 0.06934 0.44112 0.12439 0.0
C1011 C 0.08719 0.42496 0.13856 0.0
C1012 C 0.15565 0.42509 0.1816 0.0
C1013 C 0.18643 0.36173 0.20754 0.0
C1014 C 0.16827 0.38064 0.19185 0.0
C1015 C 0.11434 0.43424 0.14687 0.0
C1016 C 0.13345 0.41602 0.16209 0.0
H1017 H 0.20819 0.30313 0.20045 0.0
H1018 H 0.18012 0.33325 0.17581 0.0
H1019 H 0.18918 0.41622 0.21062 0.0
H1020 H 0.11198 0.49732 0.12104 0.0
H1021 H 0.14308 0.46931 0.14582 0.0
C1022 C 0.22111 0.69237 0.93522 0.0
C1023 C 0.22841 0.68168 0.91264 0.0
C1024 C 0.20907 0.67598 0.95422 0.0
C1025 C 0.18045 0.60788 0.97027 0.0
H1026 H 0.11596 0.63972 0.96028 0.0
C1027 C 0.08848 0.57371 0.02238 0.0
C1028 C 0.0645 0.58153 0.00975 0.0
C1029 C 0.11085 0.57876 0.00929 0.0
C1030 C 0.13359 0.63024 0.96283 0.0
H1031 H 0.23479 0.64602 0.89553 0.0
H1032 H 0.21276 0.61737 0.92812 0.0
H1033 H 0.15586 0.66408 0.94749 0.0
H1034 H 0.0434 0.5967 0.97249 0.0
H1035 H 0.08202 0.60416 0.94892 0.0
H1036 H 0.15745 0.57365 0.98517 0.0
C1037 C 0.216 0.6382 0.93114 0.0
C1038 C 0.15673 0.64454 0.95619 0.0
C1039 C 0.22841 0.6546 0.91234 0.0
C1040 C 0.06203 0.59117 0.98273 0.0
C1041 C 0.0841 0.59544 0.96935 0.0
C1042 C 0.15705 0.59342 0.97705 0.0
C1043 C 0.20391 0.64893 0.95043 0.0
C1044 C 0.18049 0.63372 0.96018 0.0
C1045 C 0.10914 0.5912 0.98331 0.0
C1046 C 0.13342 0.60457 0.97345 0.0
H1047 H 0.22125 0.71321 0.93624 0.0
H1048 H 0.20055 0.68463 0.96954 0.0
H1049 H 0.19844 0.59898 0.97296 0.0
H1050 H 0.09054 0.56598 0.04323 0.0
H1051 H 0.12981 0.57516 0.02054 0.0
C1052 C 0.33748 0.21595 0.81578 0.0
C1053 C 0.31638 0.22256 0.82755 0.0
C1054 C 0.35492 0.20027 0.83003 0.0
C1055 C 0.37837 0.17458 0.89879 0.0
H1056 H 0.40109 0.12218 0.85824 0.0
C1057 C 0.41803 0.08279 0.94543 0.0
C1058 C 0.44593 0.08692 0.95021 0.0
C1059 C 0.40418 0.09881 0.92691 0.0
C1060 C 0.39512 0.13699 0.86958 0.0
H1061 H 0.29719 0.21843 0.86361 0.0
H1062 H 0.3273 0.18973 0.88847 0.0
H1063 H 0.37165 0.15174 0.83443 0.0
H1064 H 0.48123 0.10933 0.93752 0.0
H1065 H 0.45656 0.13745 0.90461 0.0
H1066 H 0.40103 0.15876 0.93412 0.0
C1067 C 0.33055 0.19723 0.86831 0.0
C1068 C 0.37833 0.1539 0.8561 0.0
C1069 C 0.31322 0.21344 0.8541 0.0
C1070 C 0.45974 0.10578 0.93424 0.0
C1071 C 0.44574 0.12187 0.91558 0.0
C1072 C 0.39497 0.15752 0.91225 0.0
C1073 C 0.35148 0.19039 0.85626 0.0
C1074 C 0.36961 0.17275 0.87061 0.0
C1075 C 0.41798 0.11898 0.91272 0.0
C1076 C 0.40323 0.1386 0.89772 0.0
H1077 H 0.3409 0.22329 0.79559 0.0
H1078 H 0.37124 0.19604 0.82047 0.0
H1079 H 0.37238 0.18913 0.91044 0.0
H1080 H 0.40687 0.06813 0.95715 0.0
H1081 H 0.38271 0.09634 0.92472 0.0
C1082 C 0.8258 0.31917 0.87099 0.0
C1083 C 0.81866 0.32452 0.84292 0.0
C1084 C 0.84111 0.33825 0.88822 0.0
C1085 C 0.86497 0.41046 0.89379 0.0
H1086 H 0.91416 0.38667 0.95392 0.0
C1087 C 0.93584 0.48123 0.97343 0.0
C1088 C 0.93892 0.47174 1.00079 0.0
C1089 C 0.92219 0.465 0.95202 0.0
C1090 C 0.90038 0.39381 0.93744 0.0
H1091 H 0.82213 0.35464 0.81117 0.0
H1092 H 0.849 0.38787 0.84109 0.0
H1093 H 0.88882 0.35558 0.92153 0.0
H1094 H 0.92875 0.43768 0.02657 0.0
H1095 H 0.90522 0.41035 0.99023 0.0
H1096 H 0.87682 0.44888 0.91004 0.0
C1097 C 0.84249 0.36894 0.84997 0.0
C1098 C 0.88565 0.37579 0.91873 0.0
C1099 C 0.82707 0.34978 0.83269 0.0
C1100 C 0.92738 0.44588 1.00593 0.0
C1101 C 0.91386 0.42992 0.98484 0.0
C1102 C 0.87983 0.42862 0.91263 0.0
C1103 C 0.85003 0.36347 0.87808 0.0
C1104 C 0.86716 0.38356 0.89686 0.0
C1105 C 0.91128 0.43887 0.95742 0.0
C1106 C 0.89733 0.42048 0.93523 0.0
H1107 H 0.81968 0.30004 0.8797 0.0
H1108 H 0.8458 0.33316 0.9097 0.0
H1109 H 0.85108 0.41746 0.87734 0.0
H1110 H 0.94443 0.50094 0.96849 0.0
H1111 H 0.92071 0.47275 0.93122 0.0
C1112 C 0.66883 0.89492 0.84257 0.0
C1113 C 0.69439 0.89432 0.85736 0.0
C1114 C 0.65002 0.90638 0.85338 0.0
C1115 C 0.64157 0.94794 0.90937 0.0
H1116 H 0.57258 0.90526 0.90578 0.0
C1117 C 0.57327 0.9596 0.98551 0.0
C1118 C 0.54939 0.96801 0.97338 0.0
C1119 C 0.58838 0.94816 0.96982 0.0
C1120 C 0.59172 0.91737 0.90678 0.0
H1121 H 0.72071 0.90686 0.89428 0.0
H1122 H 0.68817 0.92688 0.913 0.0
H1123 H 0.6051 0.89393 0.87906 0.0
H1124 H 0.52145 0.96945 0.9361 0.0
H1125 H 0.54733 0.94803 0.90879 0.0
H1126 H 0.62849 0.97074 0.93788 0.0
C1127 C 0.68256 0.91862 0.89299 0.0
C1128 C 0.61026 0.9111 0.89133 0.0
C1129 C 0.70132 0.90716 0.88221 0.0
C1130 C 0.53946 0.9624 0.94602 0.0
C1131 C 0.5544 0.9505 0.93036 0.0
C1132 C 0.62321 0.95396 0.92502 0.0
C1133 C 0.65642 0.91757 0.87917 0.0
C1134 C 0.6356 0.92607 0.89283 0.0
C1135 C 0.57965 0.94469 0.94183 0.0
C1136 C 0.59834 0.93845 0.92425 0.0
H1137 H 0.66305 0.88564 0.82308 0.0
H1138 H 0.63025 0.90579 0.84192 0.0
H1139 H 0.66063 0.96021 0.91055 0.0
H1140 H 0.58165 0.96445 1.00635 0.0
H1141 H 0.60774 0.94368 0.9791 0.0
C1142 C 0.83546 0.73742 0.21006 0.0
C1143 C 0.82784 0.73032 0.23609 0.0
C1144 C 0.84943 0.72166 0.19605 0.0
C1145 C 0.87293 0.65285 0.19631 0.0
H1146 H 0.91183 0.68522 0.13986 0.0
C1147 C 0.92504 0.58912 0.12603 0.0
C1148 C 0.94709 0.60071 0.11335 0.0
C1149 C 0.91093 0.60385 0.14131 0.0
C1150 C 0.90138 0.67533 0.15559 0.0
H1151 H 0.83022 0.69913 0.26685 0.0
H1152 H 0.85426 0.67213 0.24304 0.0
H1153 H 0.88856 0.71125 0.16466 0.0
H1154 H 0.97016 0.63862 0.10796 0.0
H1155 H 0.94637 0.66348 0.13361 0.0
H1156 H 0.88607 0.61688 0.18717 0.0
C1157 C 0.84925 0.69015 0.23298 0.0
C1158 C 0.88733 0.69067 0.17005 0.0
C1159 C 0.83526 0.70605 0.24709 0.0
C1160 C 0.95378 0.62808 0.11707 0.0
C1161 C 0.93957 0.64279 0.13196 0.0
C1162 C 0.88685 0.63742 0.18164 0.0
C1163 C 0.85698 0.69734 0.20684 0.0
C1164 C 0.8725 0.68016 0.19107 0.0
C1165 C 0.91749 0.63139 0.14466 0.0
C1166 C 0.90176 0.64806 0.16072 0.0
H1167 H 0.83045 0.75551 0.20009 0.0
H1168 H 0.85392 0.72871 0.17617 0.0
H1169 H 0.86211 0.64295 0.21176 0.0
H1170 H 0.91828 0.56845 0.12395 0.0
H1171 H 0.89428 0.59344 0.15003 0.0
C1172 C 0.33555 0.81682 0.19837 0.0
C1173 C 0.32599 0.82738 0.21998 0.0
C1174 C 0.35055 0.83289 0.18036 0.0
C1175 C 0.3922 0.89963 0.175 0.0
H1176 H 0.38496 0.88678 0.09786 0.0
C1177 C 0.44157 0.97724 0.10087 0.0
C1178 C 0.44997 0.97014 0.07688 0.0
C1179 C 0.42775 0.95888 0.11761 0.0
C1180 C 0.38769 0.89068 0.1194 0.0
H1181 H 0.32553 0.86395 0.23885 0.0
H1182 H 0.3516 0.89138 0.2084 0.0
H1183 H 0.3589 0.85745 0.1273 0.0
H1184 H 0.44947 0.9369 0.05218 0.0
H1185 H 0.42548 0.90478 0.08132 0.0
H1186 H 0.42111 0.93247 0.16752 0.0
C1187 C 0.34759 0.87061 0.20511 0.0
C1188 C 0.3725 0.87365 0.1365 0.0
C1189 C 0.33227 0.85469 0.22272 0.0
C1190 C 0.44395 0.94342 0.07057 0.0
C1191 C 0.42972 0.92491 0.0873 0.0
C1192 C 0.40743 0.91648 0.15804 0.0
C1193 C 0.3572 0.86022 0.18344 0.0
C1194 C 0.37414 0.87786 0.16474 0.0
C1195 C 0.42118 0.9322 0.11131 0.0
C1196 C 0.40544 0.91276 0.12967 0.0
H1197 H 0.33129 0.79603 0.19519 0.0
H1198 H 0.35738 0.82369 0.16426 0.0
H1199 H 0.39494 0.90364 0.19651 0.0
H1200 H 0.4454 0.99743 0.10669 0.0
H1201 H 0.42153 0.96605 0.13527 0.0
C1202 C 0.73091 0.23143 0.18964 0.0
C1203 C 0.73172 0.23241 0.21803 0.0
C1204 C 0.71086 0.21545 0.17361 0.0
C1205 C 0.64372 0.17709 0.16905 0.0
H1206 H 0.66969 0.14122 0.1145 0.0
C1207 C 0.57469 0.10199 0.09451 0.0
C1208 C 0.58132 0.10079 0.0682 0.0
C1209 C 0.59152 0.11754 0.11446 0.0
C1210 C 0.66182 0.15129 0.12924 0.0
H1211 H 0.71102 0.21782 0.25167 0.0
H1212 H 0.67552 0.18926 0.22336 0.0
H1213 H 0.70073 0.16884 0.14619 0.0
H1214 H 0.61009 0.11633 0.0419 0.0
H1215 H 0.63852 0.14384 0.07578 0.0
H1216 H 0.60459 0.15962 0.15159 0.0
C1217 C 0.6907 0.20121 0.21363 0.0
C1218 C 0.67979 0.16715 0.14765 0.0
C1219 C 0.71101 0.21756 0.22989 0.0
C1220 C 0.60461 0.11623 0.0621 0.0
C1221 C 0.6211 0.13199 0.08175 0.0
C1222 C 0.62555 0.1612 0.15037 0.0
C1223 C 0.69079 0.19949 0.18529 0.0
C1224 C 0.6711 0.18075 0.16755 0.0
C1225 C 0.61525 0.13257 0.1085 0.0
C1226 C 0.63429 0.14842 0.12978 0.0
H1227 H 0.74619 0.24289 0.17961 0.0
H1228 H 0.71131 0.2154 0.15187 0.0
H1229 H 0.63623 0.18722 0.18404 0.0
H1230 H 0.55686 0.09039 0.09989 0.0
H1231 H 0.58623 0.11726 0.13473 0.0
C1232 C 0.71151 0.69728 0.81043 0.0
C1233 C 0.72789 0.72125 0.81679 0.0
C1234 C 0.69713 0.68247 0.82953 0.0
C1235 C 0.67324 0.68338 0.89909 0.0
H1236 H 0.65919 0.6087 0.89006 0.0
C1237 C 0.61634 0.61138 0.97684 0.0
C1238 C 0.60122 0.58771 0.96722 0.0
C1239 C 0.63278 0.62791 0.9603 0.0
C1240 C 0.66229 0.6295 0.89304 0.0
H1241 H 0.74124 0.74784 0.84987 0.0
H1242 H 0.71627 0.72213 0.8833 0.0
H1243 H 0.68445 0.63616 0.85952 0.0
H1244 H 0.59159 0.56406 0.93157 0.0
H1245 H 0.61966 0.59186 0.9034 0.0
H1246 H 0.65102 0.67642 0.9329 0.0
C1247 C 0.71433 0.7148 0.86298 0.0
C1248 C 0.67714 0.64564 0.87508 0.0
C1249 C 0.72885 0.72981 0.8436 0.0
C1250 C 0.60337 0.5815 0.94037 0.0
C1251 C 0.61975 0.59781 0.92396 0.0
C1252 C 0.65826 0.66713 0.91714 0.0
C1253 C 0.69823 0.69045 0.85655 0.0
C1254 C 0.68288 0.67314 0.87724 0.0
C1255 C 0.63488 0.62169 0.93321 0.0
C1256 C 0.65206 0.63964 0.9145 0.0
H1257 H 0.70977 0.68963 0.79026 0.0
H1258 H 0.68482 0.66458 0.82269 0.0
H1259 H 0.6767 0.7042 0.902 0.0
H1260 H 0.61487 0.61761 0.99695 0.0
H1261 H 0.64379 0.64574 0.9689 0.0
C1262 C 0.34208 0.71078 0.82324 0.0
C1263 C 0.3225 0.72303 0.83233 0.0
C1264 C 0.3557 0.69262 0.84013 0.0
C1265 C 0.37782 0.67267 0.91262 0.0
H1266 H 0.3851 0.607 0.88321 0.0
C1267 C 0.43542 0.59443 0.98005 0.0
C1268 C 0.44867 0.57821 0.96667 0.0
C1269 C 0.41828 0.6111 0.96496 0.0
C1270 C 0.38394 0.62535 0.89197 0.0
H1271 H 0.30255 0.72562 0.86711 0.0
H1272 H 0.32722 0.69508 0.897 0.0
H1273 H 0.36057 0.63785 0.85499 0.0
H1274 H 0.45371 0.56714 0.92666 0.0
H1275 H 0.42473 0.59539 0.90093 0.0
H1276 H 0.40202 0.66073 0.94927 0.0
C1277 C 0.33165 0.69913 0.87646 0.0
C1278 C 0.36948 0.64317 0.87555 0.0
C1279 C 0.31734 0.71664 0.85919 0.0
C1280 C 0.44365 0.57891 0.93789 0.0
C1281 C 0.42668 0.59533 0.92294 0.0
C1282 C 0.39278 0.65503 0.92896 0.0
C1283 C 0.35102 0.68659 0.86722 0.0
C1284 C 0.36616 0.66726 0.88541 0.0
C1285 C 0.41371 0.61218 0.93592 0.0
C1286 C 0.39642 0.63092 0.919 0.0
H1287 H 0.34664 0.71497 0.80275 0.0
H1288 H 0.37036 0.6836 0.83206 0.0
H1289 H 0.376 0.69099 0.92112 0.0
H1290 H 0.43913 0.59508 1.00211 0.0
H1291 H 0.40881 0.62332 0.97623 0.0
C1292 C 0.32934 0.32584 0.83933 0.0
C1293 C 0.33066 0.33038 0.81134 0.0
C1294 C 0.3452 0.3424 0.85878 0.0
C1295 C 0.40767 0.38852 0.86733 0.0
H1296 H 0.38201 0.41294 0.92932 0.0
C1297 C 0.46533 0.47459 0.92907 0.0
C1298 C 0.46647 0.47409 0.95759 0.0
C1299 C 0.44914 0.45526 0.91328 0.0
C1300 C 0.3896 0.40596 0.91235 0.0
H1301 H 0.34891 0.3563 0.78176 0.0
H1302 H 0.37642 0.38514 0.8155 0.0
H1303 H 0.35217 0.38324 0.89764 0.0
H1304 H 0.45145 0.45248 0.99188 0.0
H1305 H 0.42295 0.41843 0.96407 0.0
H1306 H 0.44495 0.41117 0.88173 0.0
C1307 C 0.36347 0.36861 0.82255 0.0
C1308 C 0.37247 0.38899 0.89416 0.0
C1309 C 0.34757 0.35218 0.80317 0.0
C1310 C 0.45113 0.45342 0.96998 0.0
C1311 C 0.43465 0.43403 0.95403 0.0
C1312 C 0.42473 0.40533 0.88546 0.0
C1313 C 0.36285 0.36372 0.85063 0.0
C1314 C 0.38118 0.38048 0.87111 0.0
C1315 C 0.43347 0.43477 0.92544 0.0
C1316 C 0.41582 0.41472 0.90792 0.0
H1317 H 0.31648 0.30917 0.84625 0.0
H1318 H 0.34426 0.33803 0.88022 0.0
H1319 H 0.41527 0.38183 0.85022 0.0
H1320 H 0.47689 0.49011 0.91874 0.0
H1321 H 0.4485 0.45674 0.89134 0.0
C1322 C 0.67579 0.368 0.87413 0.0
C1323 C 0.66327 0.3538 0.85121 0.0
C1324 C 0.66071 0.37714 0.89151 0.0
C1325 C 0.5972 0.39946 0.88684 0.0
H1326 H 0.61685 0.40697 0.96497 0.0
C1327 C 0.54612 0.46492 0.9449 0.0
C1328 C 0.5629 0.4802 0.96471 0.0
C1329 C 0.55533 0.44454 0.93374 0.0
C1330 C 0.61119 0.40513 0.94313 0.0
H1331 H 0.62548 0.33614 0.82964 0.0
H1332 H 0.59901 0.35228 0.86008 0.0
H1333 H 0.63879 0.37844 0.94132 0.0
H1334 H 0.60203 0.48691 0.98861 0.0
H1335 H 0.61883 0.45245 0.96795 0.0
H1336 H 0.57084 0.42719 0.8881 0.0
C1337 C 0.62044 0.35661 0.86432 0.0
C1338 C 0.62362 0.38868 0.92968 0.0
C1339 C 0.63553 0.34748 0.84692 0.0
C1340 C 0.58887 0.4751 0.97334 0.0
C1341 C 0.5983 0.4552 0.96174 0.0
C1342 C 0.58499 0.41609 0.90019 0.0
C1343 C 0.63289 0.37221 0.88623 0.0
C1344 C 0.6171 0.38614 0.90133 0.0
C1345 C 0.58164 0.43967 0.9418 0.0
C1346 C 0.59227 0.41958 0.92838 0.0
H1347 H 0.69715 0.37334 0.87777 0.0
H1348 H 0.6708 0.38942 0.90804 0.0
H1349 H 0.59211 0.39821 0.86488 0.0
H1350 H 0.52586 0.46851 0.93839 0.0
H1351 H 0.54186 0.43268 0.91878 0.0
C1352 C 0.71475 0.34872 0.23592 0.0
C1353 C 0.73094 0.33326 0.22543 0.0
C1354 C 0.70062 0.36643 0.2189 0.0
C1355 C 0.67057 0.38013 0.14707 0.0
H1356 H 0.67502 0.4513 0.16905 0.0
C1357 C 0.6162 0.45693 0.07542 0.0
C1358 C 0.6074 0.47734 0.08751 0.0
C1359 C 0.63262 0.44013 0.09118 0.0
C1360 C 0.67289 0.43146 0.16249 0.0
H1361 H 0.74403 0.32424 0.18813 0.0
H1362 H 0.71856 0.35408 0.15839 0.0
H1363 H 0.69883 0.42059 0.19842 0.0
H1364 H 0.60897 0.49553 0.12597 0.0
H1365 H 0.63695 0.46697 0.15306 0.0
H1366 H 0.64386 0.39045 0.11171 0.0
C1367 C 0.71723 0.35293 0.17998 0.0
C1368 C 0.68689 0.41372 0.17953 0.0
C1369 C 0.73202 0.33583 0.19715 0.0
C1370 C 0.61593 0.48058 0.11567 0.0
C1371 C 0.63216 0.46391 0.13137 0.0
C1372 C 0.65609 0.39773 0.13023 0.0
C1373 C 0.70142 0.36877 0.19053 0.0
C1374 C 0.6861 0.38771 0.17218 0.0
C1375 C 0.64065 0.44293 0.11972 0.0
C1376 C 0.65687 0.42391 0.13747 0.0
H1377 H 0.71331 0.34744 0.2575 0.0
H1378 H 0.68869 0.37808 0.22794 0.0
H1379 H 0.66912 0.36028 0.14065 0.0
H1380 H 0.60944 0.45318 0.05402 0.0
H1381 H 0.63865 0.42469 0.08086 0.0
C1382 C 0.69702 0.71631 0.24609 0.0
C1383 C 0.71733 0.7345 0.23737 0.0
C1384 C 0.68124 0.69854 0.22793 0.0
C1385 C 0.6568 0.68617 0.15548 0.0
H1386 H 0.64812 0.61353 0.17986 0.0
C1387 C 0.6018 0.60224 0.08456 0.0
C1388 C 0.58692 0.58115 0.09683 0.0
C1389 C 0.61785 0.62182 0.10059 0.0
C1390 C 0.64993 0.63375 0.17277 0.0
H1391 H 0.7364 0.74887 0.20255 0.0
H1392 H 0.70816 0.71825 0.17049 0.0
H1393 H 0.67499 0.6462 0.20977 0.0
H1394 H 0.57642 0.56495 0.13558 0.0
H1395 H 0.60352 0.59898 0.16307 0.0
H1396 H 0.6312 0.67382 0.11869 0.0
C1397 C 0.70469 0.71763 0.19149 0.0
C1398 C 0.66548 0.65248 0.18996 0.0
C1399 C 0.72085 0.73513 0.20982 0.0
C1400 C 0.58786 0.58063 0.12535 0.0
C1401 C 0.60365 0.60016 0.14124 0.0
C1402 C 0.64093 0.66742 0.13834 0.0
C1403 C 0.68502 0.69881 0.20047 0.0
C1404 C 0.66896 0.67895 0.18164 0.0
C1405 C 0.61928 0.62085 0.12925 0.0
C1406 C 0.63705 0.64094 0.14684 0.0
H1407 H 0.69386 0.71518 0.26721 0.0
H1408 H 0.6661 0.68445 0.23544 0.0
H1409 H 0.65902 0.70644 0.14854 0.0
H1410 H 0.6016 0.60327 0.06267 0.0
H1411 H 0.62966 0.63734 0.09056 0.0
C1412 C 0.39698 0.71725 0.16763 0.0
C1413 C 0.39514 0.70942 0.19483 0.0
C1414 C 0.41384 0.70635 0.15356 0.0
C1415 C 0.46647 0.66326 0.163 0.0
H1416 H 0.43143 0.63785 0.09249 0.0
C1417 C 0.48857 0.57161 0.11715 0.0
C1418 C 0.49262 0.57375 0.08976 0.0
C1419 C 0.47947 0.59176 0.12868 0.0
C1420 C 0.44156 0.64513 0.112 0.0
H1421 H 0.40956 0.68487 0.229 0.0
H1422 H 0.43823 0.66536 0.20448 0.0
H1423 H 0.41214 0.66928 0.11505 0.0
H1424 H 0.49036 0.59862 0.05295 0.0
H1425 H 0.4744 0.63374 0.07327 0.0
H1426 H 0.49495 0.63776 0.16056 0.0
C1427 C 0.42762 0.68048 0.1941 0.0
C1428 C 0.43069 0.66326 0.12481 0.0
C1429 C 0.41114 0.69159 0.20818 0.0
C1430 C 0.48741 0.59637 0.07413 0.0
C1431 C 0.47822 0.61644 0.08564 0.0
C1432 C 0.47708 0.64487 0.15037 0.0
C1433 C 0.42866 0.68723 0.16646 0.0
C1434 C 0.4427 0.67199 0.15076 0.0
C1435 C 0.47429 0.61428 0.11298 0.0
C1436 C 0.46437 0.63531 0.12509 0.0
H1437 H 0.3847 0.73102 0.15707 0.0
H1438 H 0.41453 0.71212 0.13235 0.0
H1439 H 0.47638 0.66998 0.18278 0.0
H1440 H 0.49218 0.55432 0.12962 0.0
H1441 H 0.47611 0.58962 0.14974 0.0
C1442 C 0.31887 0.32829 0.20615 0.0
C1443 C 0.33171 0.32114 0.23228 0.0
C1444 C 0.33231 0.34573 0.18782 0.0
C1445 C 0.39498 0.39617 0.1859 0.0
H1446 H 0.3774 0.39206 0.10731 0.0
C1447 C 0.46514 0.45561 0.11529 0.0
C1448 C 0.45617 0.46505 0.08855 0.0
C1449 C 0.44847 0.43927 0.13113 0.0
C1450 C 0.38259 0.39389 0.12918 0.0
H1451 H 0.36962 0.32744 0.25863 0.0
H1452 H 0.39263 0.35695 0.22742 0.0
H1453 H 0.3524 0.36189 0.13703 0.0
H1454 H 0.42076 0.46361 0.0584 0.0
H1455 H 0.39142 0.43493 0.08608 0.0
H1456 H 0.42487 0.4281 0.17838 0.0
C1457 C 0.37197 0.34957 0.22083 0.0
C1458 C 0.36805 0.3763 0.14652 0.0
C1459 C 0.35863 0.33215 0.23897 0.0
C1460 C 0.42894 0.4572 0.07867 0.0
C1461 C 0.41202 0.44038 0.09471 0.0
C1462 C 0.40939 0.41365 0.16867 0.0
C1463 C 0.35925 0.35711 0.19473 0.0
C1464 C 0.37407 0.37668 0.17547 0.0
C1465 C 0.4214 0.43101 0.12153 0.0
C1466 C 0.404 0.41288 0.13977 0.0
H1467 H 0.2982 0.32063 0.1999 0.0
H1468 H 0.32123 0.35069 0.16832 0.0
H1469 H 0.40027 0.39829 0.20772 0.0
H1470 H 0.48563 0.46084 0.12446 0.0
H1471 H 0.45734 0.43267 0.15105 0.0
C1472 C 0.87712 0.65015 0.71009 0.0
C1473 C 0.85272 0.65492 0.69493 0.0
C1474 C 0.89419 0.63682 0.69865 0.0
C1475 C 0.90998 0.62583 0.63141 0.0
H1476 H 0.95214 0.57502 0.66908 0.0
C1477 C 0.99891 0.59573 0.58997 0.0
C1478 C 0.99993 0.56883 0.58979 0.0
C1479 C 0.98063 0.6051 0.60351 0.0
C1480 C 0.94037 0.58911 0.65832 0.0
H1481 H 0.82664 0.64819 0.65637 0.0
H1482 H 0.85604 0.62445 0.63684 0.0
H1483 H 0.91979 0.59193 0.69216 0.0
H1484 H 0.98284 0.53064 0.60393 0.0
H1485 H 0.951 0.54713 0.62778 0.0
H1486 H 0.93052 0.62317 0.59767 0.0
C1487 C 0.86215 0.63141 0.65738 0.0
C1488 C 0.92203 0.59888 0.67156 0.0
C1489 C 0.84513 0.64471 0.66875 0.0
C1490 C 0.98235 0.55148 0.60349 0.0
C1491 C 0.96432 0.56089 0.61737 0.0
C1492 C 0.92842 0.61627 0.61832 0.0
C1493 C 0.88718 0.62804 0.67185 0.0
C1494 C 0.90654 0.61723 0.65813 0.0
C1495 C 0.96325 0.58778 0.61745 0.0
C1496 C 0.94376 0.5978 0.63159 0.0
H1497 H 0.88341 0.65745 0.73046 0.0
H1498 H 0.91338 0.6345 0.71029 0.0
H1499 H 0.89865 0.64027 0.62069 0.0
H1500 H 1.01223 0.60954 0.57962 0.0
H1501 H 0.98032 0.62594 0.60341 0.0
C1502 C 0.33807 0.85764 0.62496 0.0
C1503 C 0.3333 0.87385 0.64482 0.0
C1504 C 0.35062 0.86836 0.60325 0.0
C1505 C 0.40051 0.92453 0.59698 0.0
H1506 H 0.40692 0.8927 0.52983 0.0
C1507 C 0.47716 0.95902 0.52479 0.0
C1508 C 0.50027 0.94962 0.53777 0.0
C1509 C 0.45242 0.94766 0.53073 0.0
C1510 C 0.40513 0.90169 0.54851 0.0
H1511 H 0.33349 0.91376 0.65546 0.0
H1512 H 0.35411 0.93276 0.61651 0.0
H1513 H 0.36653 0.88042 0.55083 0.0
H1514 H 0.51615 0.92077 0.56628 0.0
H1515 H 0.47238 0.90067 0.5769 0.0
H1516 H 0.43922 0.94536 0.59487 0.0
C1517 C 0.3494 0.91174 0.61837 0.0
C1518 C 0.38214 0.89481 0.56048 0.0
C1519 C 0.3374 0.90097 0.6405 0.0
C1520 C 0.49842 0.928 0.5559 0.0
C1521 C 0.47357 0.91653 0.5618 0.0
C1522 C 0.4233 0.93132 0.58506 0.0
C1523 C 0.35819 0.89547 0.60095 0.0
C1524 C 0.37978 0.90588 0.58513 0.0
C1525 C 0.4506 0.9268 0.54976 0.0
C1526 C 0.42592 0.91961 0.56113 0.0
H1527 H 0.33506 0.83661 0.62795 0.0
H1528 H 0.35697 0.85519 0.59025 0.0
H1529 H 0.39986 0.93299 0.61628 0.0
H1530 H 0.47841 0.97622 0.51137 0.0
H1531 H 0.43494 0.95621 0.52188 0.0
C1532 C 0.25118 0.35241 0.70681 0.0
C1533 C 0.24015 0.33476 0.72578 0.0
C1534 C 0.23558 0.36949 0.69133 0.0
C1535 C 0.16895 0.37222 0.66042 0.0
H1536 H 0.17933 0.44734 0.66743 0.0
C1537 C 0.08641 0.43034 0.61659 0.0
C1538 C 0.09332 0.45365 0.60207 0.0
C1539 C 0.10593 0.41823 0.63286 0.0
C1540 C 0.17641 0.42644 0.66499 0.0
H1541 H 0.2046 0.32048 0.74339 0.0
H1542 H 0.17726 0.34949 0.71572 0.0
H1543 H 0.21235 0.42145 0.69209 0.0
H1544 H 0.12574 0.4834 0.59415 0.0
H1545 H 0.1602 0.46155 0.62184 0.0
H1546 H 0.13335 0.37669 0.63343 0.0
C1547 C 0.19792 0.35062 0.71322 0.0
C1548 C 0.19527 0.41175 0.679 0.0
C1549 C 0.21352 0.33412 0.72898 0.0
C1550 C 0.11998 0.46526 0.60499 0.0
C1551 C 0.13965 0.45287 0.62096 0.0
C1552 C 0.15035 0.3868 0.64628 0.0
C1553 C 0.20879 0.36837 0.69433 0.0
C1554 C 0.19132 0.38453 0.67707 0.0
C1555 C 0.13283 0.42888 0.63449 0.0
C1556 C 0.15354 0.41399 0.64883 0.0
H1557 H 0.27178 0.35321 0.70427 0.0
H1558 H 0.24416 0.38309 0.6767 0.0
H1559 H 0.16568 0.3512 0.6587 0.0
H1560 H 0.06589 0.42137 0.6153 0.0
H1561 H 0.09996 0.40021 0.6438 0.0
C1562 C 0.72919 0.24803 0.68807 0.0
C1563 C 0.73408 0.24213 0.71631 0.0
C1564 C 0.7126 0.23048 0.66989 0.0
C1565 C 0.6576 0.17415 0.66744 0.0
H1566 H 0.67315 0.1658 0.59479 0.0
C1567 C 0.59619 0.09347 0.59721 0.0
C1568 C 0.59308 0.0964 0.56846 0.0
C1569 C 0.61226 0.11213 0.61426 0.0
C1570 C 0.66809 0.16811 0.61478 0.0
H1571 H 0.72526 0.21247 0.74728 0.0
H1572 H 0.69628 0.18191 0.71574 0.0
H1573 H 0.70373 0.19494 0.62616 0.0
H1574 H 0.6044 0.12244 0.53545 0.0
H1575 H 0.63216 0.15565 0.56527 0.0
H1576 H 0.62185 0.14777 0.65615 0.0
C1577 C 0.70521 0.2003 0.70755 0.0
C1578 C 0.68586 0.18488 0.63298 0.0
C1579 C 0.72209 0.21779 0.72572 0.0
C1580 C 0.606 0.11947 0.55738 0.0
C1581 C 0.62231 0.13837 0.57464 0.0
C1582 C 0.63975 0.15759 0.64921 0.0
C1583 C 0.69996 0.20639 0.67927 0.0
C1584 C 0.68104 0.18815 0.65974 0.0
C1585 C 0.62607 0.13486 0.6035 0.0
C1586 C 0.64466 0.154 0.6225 0.0
H1587 H 0.73794 0.26655 0.67997 0.0
H1588 H 0.70907 0.23621 0.64848 0.0
H1589 H 0.65269 0.17634 0.68753 0.0
H1590 H 0.58663 0.0761 0.60677 0.0
H1591 H 0.61456 0.10803 0.63605 0.0
C1592 C 0.83839 0.31687 0.35099 0.0
C1593 C 0.82132 0.32569 0.32868 0.0
C1594 C 0.85934 0.33404 0.36474 0.0
C1595 C 0.89778 0.40205 0.36052 0.0
H1596 H 0.9194 0.38759 0.43755 0.0
C1597 C 0.96998 0.47336 0.43832 0.0
C1598 C 0.98928 0.46129 0.45565 0.0
C1599 C 0.95026 0.45838 0.42015 0.0
C1600 C 0.91369 0.3919 0.416 0.0
H1601 H 0.81229 0.3595 0.30356 0.0
H1602 H 0.84826 0.38979 0.32782 0.0
H1603 H 0.88357 0.35869 0.41211 0.0
H1604 H 1.00368 0.42437 0.46659 0.0
H1605 H 0.96972 0.39861 0.43535 0.0
H1606 H 0.92765 0.43598 0.36516 0.0
C1607 C 0.84634 0.36943 0.33433 0.0
C1608 C 0.89316 0.3751 0.4012 0.0
C1609 C 0.82561 0.35207 0.32031 0.0
C1610 C 0.98927 0.43434 0.45332 0.0
C1611 C 0.96958 0.41947 0.43563 0.0
C1612 C 0.91807 0.41916 0.37554 0.0
C1613 C 0.86347 0.36081 0.35705 0.0
C1614 C 0.88503 0.37954 0.37303 0.0
C1615 C 0.94929 0.43106 0.4194 0.0
C1616 C 0.92657 0.41409 0.40339 0.0
H1617 H 0.83526 0.29667 0.3581 0.0
H1618 H 0.87218 0.32617 0.38157 0.0
H1619 H 0.89257 0.40626 0.33892 0.0
H1620 H 0.96904 0.49391 0.44009 0.0
H1621 H 0.93489 0.46791 0.40791 0.0
C1622 C 0.71278 0.84712 0.30216 0.0
C1623 C 0.72596 0.82693 0.31631 0.0
C1624 C 0.6968 0.8622 0.31483 0.0
C1625 C 0.67713 0.8765 0.38597 0.0
H1626 H 0.62637 0.91538 0.34217 0.0
C1627 C 0.60597 0.93408 0.44003 0.0
C1628 C 0.59195 0.9539 0.42627 0.0
C1629 C 0.62167 0.91923 0.42688 0.0
C1630 C 0.64045 0.90504 0.35532 0.0
H1631 H 0.73119 0.80817 0.35647 0.0
H1632 H 0.70422 0.83349 0.37791 0.0
H1633 H 0.65309 0.89023 0.32026 0.0
H1634 H 0.58495 0.97231 0.38611 0.0
H1635 H 0.6116 0.94716 0.36362 0.0
H1636 H 0.66466 0.8913 0.42101 0.0
C1637 C 0.70612 0.83822 0.35677 0.0
C1638 C 0.65629 0.89013 0.34232 0.0
C1639 C 0.72192 0.82312 0.34409 0.0
C1640 C 0.59485 0.95759 0.39819 0.0
C1641 C 0.6105 0.94265 0.38497 0.0
C1642 C 0.66133 0.89141 0.39895 0.0
C1643 C 0.69281 0.85847 0.34277 0.0
C1644 C 0.67534 0.87513 0.35704 0.0
C1645 C 0.62471 0.92282 0.39873 0.0
C1646 C 0.64222 0.90636 0.38426 0.0
H1647 H 0.7148 0.85146 0.28095 0.0
H1648 H 0.68778 0.87723 0.30238 0.0
H1649 H 0.69124 0.86621 0.39915 0.0
H1650 H 0.60495 0.92989 0.46147 0.0
H1651 H 0.63128 0.90453 0.43922 0.0
C1652 C 0.21324 0.73539 0.34773 0.0
C1653 C 0.23252 0.72662 0.33452 0.0
C1654 C 0.19716 0.71807 0.36378 0.0
C1655 C 0.17661 0.64487 0.38044 0.0
H1656 H 0.14843 0.67131 0.43944 0.0
C1657 C 0.10419 0.57682 0.44693 0.0
C1658 C 0.10562 0.58254 0.47473 0.0
C1659 C 0.11881 0.5936 0.42899 0.0
C1660 C 0.15619 0.6632 0.42326 0.0
H1661 H 0.24942 0.69183 0.32878 0.0
H1662 H 0.22251 0.66244 0.35662 0.0
H1663 H 0.17505 0.70111 0.41169 0.0
H1664 H 0.12452 0.61147 0.50445 0.0
H1665 H 0.14916 0.6396 0.47418 0.0
H1666 H 0.15808 0.60679 0.39259 0.0
C1667 C 0.21906 0.68257 0.35433 0.0
C1668 C 0.17144 0.6807 0.40679 0.0
C1669 C 0.23496 0.69978 0.33828 0.0
C1670 C 0.1224 0.60574 0.48349 0.0
C1671 C 0.13664 0.62242 0.46572 0.0
C1672 C 0.16128 0.62734 0.39694 0.0
C1673 C 0.19957 0.69109 0.36751 0.0
C1674 C 0.18231 0.67208 0.38498 0.0
C1675 C 0.13523 0.61706 0.43792 0.0
C1676 C 0.15084 0.63598 0.41901 0.0
H1677 H 0.21027 0.75568 0.34545 0.0
H1678 H 0.18245 0.72599 0.37289 0.0
H1679 H 0.18381 0.63683 0.36387 0.0
H1680 H 0.0917 0.55942 0.43894 0.0
H1681 H 0.11678 0.58834 0.40789 0.0
C1682 C 0.3466 0.20383 0.30559 0.0
C1683 C 0.34125 0.22582 0.31831 0.0
C1684 C 0.364 0.18667 0.31931 0.0
C1685 C 0.41693 0.18021 0.38277 0.0
H1686 H 0.40633 0.10766 0.36385 0.0
C1687 C 0.48302 0.10506 0.4448 0.0
C1688 C 0.48694 0.08226 0.43241 0.0
C1689 C 0.46529 0.12216 0.43161 0.0
C1690 C 0.41022 0.12788 0.36946 0.0
H1691 H 0.35089 0.24609 0.3564 0.0
H1692 H 0.38048 0.21672 0.37996 0.0
H1693 H 0.3771 0.13703 0.3401 0.0
H1694 H 0.47422 0.06055 0.39543 0.0
H1695 H 0.4445 0.08993 0.37264 0.0
H1696 H 0.45011 0.17115 0.41204 0.0
C1697 C 0.37167 0.21267 0.35909 0.0
C1698 C 0.39304 0.14507 0.35553 0.0
C1699 C 0.35431 0.22976 0.3454 0.0
C1700 C 0.47208 0.07754 0.40618 0.0
C1701 C 0.45455 0.09466 0.39294 0.0
C1702 C 0.43419 0.16304 0.39664 0.0
C1703 C 0.37705 0.19053 0.34654 0.0
C1704 C 0.39585 0.1718 0.3617 0.0
C1705 C 0.45054 0.11757 0.40516 0.0
C1706 C 0.43147 0.1363 0.39039 0.0
H1707 H 0.3372 0.19971 0.28488 0.0
H1708 H 0.36738 0.17041 0.30821 0.0
H1709 H 0.42063 0.20043 0.38842 0.0
H1710 H 0.49365 0.10975 0.46494 0.0
H1711 H 0.46305 0.13895 0.44256 0.0
C1712 C 0.70898 0.80752 0.69721 0.0
C1713 C 0.71857 0.81581 0.72399 0.0
C1714 C 0.69431 0.82303 0.67828 0.0
C1715 C 0.68554 0.89201 0.6636 0.0
H1716 H 0.62445 0.86494 0.61177 0.0
C1717 C 0.62415 0.96152 0.59521 0.0
C1718 C 0.61218 0.95468 0.56852 0.0
C1719 C 0.6366 0.94379 0.61314 0.0
C1720 C 0.64172 0.87283 0.62578 0.0
H1721 H 0.71911 0.8467 0.75191 0.0
H1722 H 0.69371 0.87363 0.71899 0.0
H1723 H 0.64571 0.83531 0.64547 0.0
H1724 H 0.60435 0.92321 0.54008 0.0
H1725 H 0.62692 0.89233 0.57125 0.0
H1726 H 0.68221 0.92929 0.64387 0.0
C1727 C 0.69776 0.85521 0.71254 0.0
C1728 C 0.65385 0.8558 0.64525 0.0
C1729 C 0.71221 0.83962 0.73153 0.0
C1730 C 0.61349 0.92938 0.56029 0.0
C1731 C 0.6262 0.91153 0.57835 0.0
C1732 C 0.67365 0.90892 0.64407 0.0
C1733 C 0.68904 0.84739 0.68548 0.0
C1734 C 0.67581 0.86523 0.66461 0.0
C1735 C 0.63791 0.91847 0.60514 0.0
C1736 C 0.65134 0.89974 0.62498 0.0
H1737 H 0.71337 0.78932 0.69058 0.0
H1738 H 0.68802 0.81638 0.65766 0.0
H1739 H 0.70276 0.89994 0.6777 0.0
H1740 H 0.62347 0.98059 0.60271 0.0
H1741 H 0.64468 0.9499 0.63364 0.0
C1742 C 0.76382 0.19722 0.43835 0.0
C1743 C 0.7693 0.19511 0.41183 0.0
C1744 C 0.75045 0.17529 0.45039 0.0
C1745 C 0.70385 0.11922 0.4182 0.0
H1746 H 0.65528 0.1693 0.4208 0.0
C1747 C 0.61513 0.09592 0.45932 0.0
C1748 C 0.59539 0.08223 0.44067 0.0
C1749 C 0.63426 0.11417 0.44985 0.0
C1750 C 0.66875 0.15553 0.41891 0.0
H1751 H 0.77907 0.16804 0.38466 0.0
H1752 H 0.75497 0.13061 0.40449 0.0
H1753 H 0.70268 0.18328 0.43037 0.0
H1754 H 0.57783 0.0793 0.3978 0.0
H1755 H 0.61295 0.11016 0.38128 0.0
H1756 H 0.66925 0.09163 0.40663 0.0
C1757 C 0.75854 0.14857 0.41549 0.0
C1758 C 0.69586 0.16304 0.42561 0.0
C1759 C 0.77278 0.17029 0.4041 0.0
C1760 C 0.59358 0.08886 0.41256 0.0
C1761 C 0.61317 0.10679 0.40305 0.0
C1762 C 0.67667 0.11191 0.41088 0.0
C1763 C 0.74249 0.15289 0.43469 0.0
C1764 C 0.71364 0.14449 0.42721 0.0
C1765 C 0.63406 0.11859 0.42172 0.0
C1766 C 0.6591 0.12955 0.41329 0.0
H1767 H 0.76332 0.21617 0.44627 0.0
H1768 H 0.74037 0.17817 0.46734 0.0
H1769 H 0.717 0.10481 0.41803 0.0
H1770 H 0.6167 0.09164 0.48108 0.0
H1771 H 0.65066 0.12304 0.4644 0.0
C1772 C 0.86409 0.63976 0.32625 0.0
C1773 C 0.83927 0.63956 0.33453 0.0
C1774 C 0.88277 0.62609 0.34186 0.0
C1775 C 0.89494 0.58526 0.40558 0.0
H1776 H 0.95793 0.63688 0.41894 0.0
C1777 C 0.97585 0.5787 0.49844 0.0
C1778 C 1.00006 0.57711 0.48975 0.0
C1779 C 0.95543 0.58755 0.48014 0.0
C1780 C 0.94032 0.62247 0.41543 0.0
H1781 H 0.81251 0.62127 0.36179 0.0
H1782 H 0.84493 0.59796 0.38917 0.0
H1783 H 0.92343 0.64374 0.38088 0.0
H1784 H 0.02297 0.58353 0.45644 0.0
H1785 H 0.98715 0.5988 0.4242 0.0
H1786 H 0.91189 0.56446 0.44085 0.0
C1787 C 0.85037 0.60852 0.37099 0.0
C1788 C 0.92084 0.62603 0.39338 0.0
C1789 C 0.83162 0.62183 0.35514 0.0
C1790 C 1.00433 0.58511 0.46329 0.0
C1791 C 0.98401 0.59385 0.44506 0.0
C1792 C 0.91432 0.58189 0.42789 0.0
C1793 C 0.87669 0.61244 0.36586 0.0
C1794 C 0.89814 0.60724 0.38795 0.0
C1795 C 0.95934 0.59464 0.45322 0.0
C1796 C 0.93724 0.60029 0.43261 0.0
H1797 H 0.87017 0.65308 0.31006 0.0
H1798 H 0.90273 0.62855 0.33687 0.0
H1799 H 0.8776 0.57057 0.40202 0.0
H1800 H 0.9726 0.57254 0.51901 0.0
H1801 H 0.93645 0.58819 0.48667 0.0
C1802 C 0.33704 0.79634 0.36437 0.0
C1803 C 0.33284 0.8045 0.33683 0.0
C1804 C 0.35145 0.81341 0.38402 0.0
C1805 C 0.38024 0.88364 0.39347 0.0
H1806 H 0.42826 0.85503 0.4516 0.0
C1807 C 0.45948 0.95307 0.45581 0.0
C1808 C 0.48487 0.94561 0.45993 0.0
C1809 C 0.4371 0.93462 0.44907 0.0
C1810 C 0.41505 0.8634 0.43544 0.0
H1811 H 0.34014 0.83661 0.30796 0.0
H1812 H 0.36654 0.8658 0.34165 0.0
H1813 H 0.39682 0.82575 0.42168 0.0
H1814 H 0.50712 0.91321 0.46224 0.0
H1815 H 0.46832 0.88103 0.44865 0.0
H1816 H 0.39993 0.92116 0.40538 0.0
C1817 C 0.35795 0.84675 0.34861 0.0
C1818 C 0.39666 0.84654 0.41846 0.0
C1819 C 0.34304 0.82993 0.32916 0.0
C1820 C 0.48759 0.91924 0.45913 0.0
C1821 C 0.46525 0.90083 0.4515 0.0
C1822 C 0.39896 0.90043 0.41 0.0
C1823 C 0.36242 0.83876 0.37635 0.0
C1824 C 0.37952 0.85646 0.39672 0.0
C1825 C 0.4398 0.90853 0.44513 0.0
C1826 C 0.41713 0.89058 0.4308 0.0
H1827 H 0.32903 0.77685 0.37073 0.0
H1828 H 0.354 0.80667 0.40517 0.0
H1829 H 0.36688 0.89209 0.37752 0.0
H1830 H 0.45705 0.97339 0.45677 0.0
H1831 H 0.41782 0.94116 0.44546 0.0
C1832 C 0.2396 0.39996 0.39636 0.0
C1833 C 0.23442 0.39805 0.36786 0.0
C1834 C 0.2215 0.40904 0.41017 0.0
C1835 C 0.17296 0.44954 0.40945 0.0
H1836 H 0.13855 0.39741 0.45642 0.0
C1837 C 0.09286 0.47343 0.46766 0.0
C1838 C 0.09205 0.46236 0.49391 0.0
C1839 C 0.10906 0.46516 0.45104 0.0
C1840 C 0.14825 0.41228 0.44373 0.0
H1841 H 0.20708 0.40529 0.33123 0.0
H1842 H 0.17551 0.42207 0.3557 0.0
H1843 H 0.1698 0.38519 0.42886 0.0
H1844 H 0.10698 0.43418 0.52386 0.0
H1845 H 0.13694 0.42057 0.49536 0.0
H1846 H 0.15287 0.47706 0.42517 0.0
C1847 C 0.19352 0.41618 0.36709 0.0
C1848 C 0.16583 0.4052 0.42781 0.0
C1849 C 0.21149 0.40671 0.35322 0.0
C1850 C 0.10755 0.44288 0.50357 0.0
C1851 C 0.1244 0.43502 0.48715 0.0
C1852 C 0.1558 0.45679 0.42576 0.0
C1853 C 0.19819 0.41666 0.39566 0.0
C1854 C 0.17831 0.42384 0.41075 0.0
C1855 C 0.12531 0.44612 0.46068 0.0
C1856 C 0.1433 0.43825 0.44316 0.0
H1857 H 0.25686 0.39297 0.40816 0.0
H1858 H 0.22533 0.40944 0.43226 0.0
H1859 H 0.18272 0.46414 0.39651 0.0
H1860 H 0.08053 0.4882 0.45981 0.0
H1861 H 0.10865 0.47359 0.43056 0.0
C1862 C 0.37657 0.18557 0.64343 0.0
C1863 C 0.37882 0.18437 0.67209 0.0
C1864 C 0.39044 0.17034 0.6295 0.0
C1865 C 0.44484 0.12635 0.6404 0.0
H1866 H 0.41582 0.10748 0.5661 0.0
C1867 C 0.48941 0.05075 0.58443 0.0
C1868 C 0.49158 0.0548 0.5564 0.0
C1869 C 0.47511 0.06594 0.5978 0.0
C1870 C 0.42451 0.11267 0.58673 0.0
H1871 H 0.39772 0.16579 0.70848 0.0
H1872 H 0.42085 0.13839 0.6845 0.0
H1873 H 0.39295 0.13421 0.5906 0.0
H1874 H 0.47917 0.07839 0.52068 0.0
H1875 H 0.45387 0.10462 0.54381 0.0
H1876 H 0.47613 0.10427 0.63656 0.0
C1877 C 0.40902 0.15169 0.67245 0.0
C1878 C 0.41129 0.12831 0.60101 0.0
C1879 C 0.39552 0.16738 0.68641 0.0
C1880 C 0.47782 0.07418 0.54206 0.0
C1881 C 0.46333 0.08942 0.55552 0.0
C1882 C 0.45789 0.11049 0.62621 0.0
C1883 C 0.40679 0.15272 0.64357 0.0
C1884 C 0.42112 0.13564 0.62822 0.0
C1885 C 0.46215 0.08599 0.58386 0.0
C1886 C 0.44804 0.10327 0.59902 0.0
H1887 H 0.36421 0.19864 0.63168 0.0
H1888 H 0.3884 0.17273 0.60752 0.0
H1889 H 0.45379 0.1316 0.66093 0.0
H1890 H 0.49949 0.03612 0.59649 0.0
H1891 H 0.4744 0.06195 0.61933 0.0
C1892 C 0.84844 0.34841 0.74318 0.0
C1893 C 0.83255 0.32638 0.73096 0.0
C1894 C 0.8676 0.36389 0.72963 0.0
C1895 C 0.88209 0.38497 0.66101 0.0
H1896 H 0.9548 0.40557 0.69495 0.0
C1897 C 0.95988 0.43658 0.59659 0.0
C1898 C 0.98232 0.45384 0.6079 0.0
C1899 C 0.94233 0.42255 0.61276 0.0
C1900 C 0.9345 0.40049 0.68517 0.0
H1901 H 0.82437 0.30349 0.69471 0.0
H1902 H 0.85696 0.3312 0.67041 0.0
H1903 H 0.9236 0.3778 0.72045 0.0
H1904 H 1.00302 0.4698 0.6461 0.0
H1905 H 0.97176 0.44577 0.67455 0.0
H1906 H 0.89211 0.40826 0.62629 0.0
C1907 C 0.85496 0.3362 0.69081 0.0
C1908 C 0.91658 0.38431 0.69984 0.0
C1909 C 0.83633 0.32023 0.70474 0.0
C1910 C 0.98606 0.45689 0.6364 0.0
C1911 C 0.96815 0.44279 0.6528 0.0
C1912 C 0.89974 0.4015 0.6466 0.0
C1913 C 0.87092 0.35831 0.70304 0.0
C1914 C 0.89018 0.37595 0.68781 0.0
C1915 C 0.9459 0.42521 0.64122 0.0
C1916 C 0.92653 0.40924 0.65807 0.0
H1917 H 0.84607 0.35366 0.76339 0.0
H1918 H 0.87933 0.38072 0.73971 0.0
H1919 H 0.86184 0.37952 0.65122 0.0
H1920 H 0.95584 0.43334 0.57487 0.0
H1921 H 0.92621 0.40899 0.60265 0.0
C1922 C 0.25628 0.69823 0.73801 0.0
C1923 C 0.24986 0.7236 0.73313 0.0
C1924 C 0.23763 0.67675 0.7293 0.0
C1925 C 0.18585 0.65718 0.67538 0.0
H1926 H 0.15961 0.60019 0.72255 0.0
C1927 C 0.13446 0.56273 0.63052 0.0
C1928 C 0.10702 0.5603 0.6307 0.0
C1929 C 0.15197 0.5786 0.64904 0.0
C1930 C 0.16686 0.61602 0.7093 0.0
H1931 H 0.21934 0.74674 0.71548 0.0
H1932 H 0.18718 0.70914 0.69889 0.0
H1933 H 0.19018 0.63791 0.74255 0.0
H1934 H 0.07637 0.57028 0.65177 0.0
H1935 H 0.10734 0.59818 0.68462 0.0
H1936 H 0.16337 0.63525 0.64212 0.0
C1937 C 0.20632 0.70589 0.71002 0.0
C1938 C 0.18427 0.63742 0.72063 0.0
C1939 C 0.22467 0.72728 0.71938 0.0
C1940 C 0.09751 0.57159 0.6516 0.0
C1941 C 0.11516 0.5876 0.67023 0.0
C1942 C 0.169 0.63569 0.66409 0.0
C1943 C 0.21264 0.68049 0.71502 0.0
C1944 C 0.19385 0.65809 0.70366 0.0
C1945 C 0.14229 0.59228 0.66799 0.0
C1946 C 0.15951 0.61491 0.68091 0.0
H1947 H 0.27553 0.69502 0.74888 0.0
H1948 H 0.24291 0.65729 0.73312 0.0
H1949 H 0.1931 0.67289 0.66196 0.0
H1950 H 0.14214 0.55428 0.61446 0.0
H1951 H 0.17286 0.58196 0.64706 0.0
loop_
_geom_bond_atom_site_label_1
_geom_bond_atom_site_label_2
_geom_bond_distance
_geom_bond_site_symmetry_2
_ccdc_geom_bond_type
C0 Eu1 2.835 . S
C0 C2 1.500 . S
C0 O20 1.257 . S
C0 O21 1.260 . S
Eu1 C0 2.835 . S
Eu1 O20 2.473 . S
Eu1 O21 2.480 . S
Eu1 O22 2.430 . S
Eu1 O23 2.670 . S
Eu1 O24 2.394 . S
Eu1 O29 2.355 . S
Eu1 O31 2.374 . S
C2 C0 1.500 . S
C2 C3 1.377 . S
C2 C7 1.377 . S
C3 C2 1.377 . S
C3 C4 1.395 . S
C3 H32 0.931 . S
C4 C3 1.395 . S
C4 C5 1.383 . S
C4 H33 0.931 . S
C5 C4 1.383 . S
C5 C6 1.394 . S
C6 C5 1.394 . S
C6 C7 1.378 . S
C6 H34 0.931 . S
C7 C2 1.377 . S
C7 C6 1.378 . S
C7 H35 0.931 . S
C8 O22 1.259 . S
C8 O23 1.270 . S
C9 O24 1.251 . S
C9 O25 1.251 . S
C10 Eu11 2.835 . S
C10 C12 1.500 . S
C10 O26 1.257 . S
C10 O27 1.260 . S
Eu11 C10 2.835 . S
Eu11 O23 2.355 . S
Eu11 O25 2.374 . S
Eu11 O26 2.473 . S
Eu11 O27 2.480 . S
Eu11 O28 2.430 . S
Eu11 O29 2.670 . S
Eu11 O30 2.394 . S
C12 C10 1.500 . S
C12 C13 1.377 . S
C12 C17 1.377 . S
C13 C12 1.377 . S
C13 C14 1.395 . S
C13 H36 0.931 . S
C14 C13 1.395 . S
C14 C15 1.383 . S
C14 H37 0.931 . S
C15 C14 1.383 . S
C15 C16 1.394 . S
C16 C15 1.394 . S
C16 C17 1.378 . S
C16 H38 0.931 . S
C17 C12 1.377 . S
C17 C16 1.378 . S
C17 H39 0.931 . S
C18 O28 1.259 . S
C18 O29 1.270 . S
C19 O30 1.251 . S
C19 O31 1.251 . S
O20 C0 1.257 . S
O20 Eu1 2.473 . S
O21 C0 1.260 . S
O21 Eu1 2.480 . S
O22 Eu1 2.430 . S
O22 C8 1.259 . S
O23 Eu1 2.670 . S
O23 C8 1.270 . S
O23 Eu11 2.355 . S
O24 Eu1 2.394 . S
O24 C9 1.251 . S
O25 C9 1.251 . S
O25 Eu11 2.374 . S
O26 C10 1.257 . S
O26 Eu11 2.473 . S
O27 C10 1.260 . S
O27 Eu11 2.480 . S
O28 Eu11 2.430 . S
O28 C18 1.259 . S
O29 Eu1 2.355 . S
O29 Eu11 2.670 . S
O29 C18 1.270 . S
O30 Eu11 2.394 . S
O30 C19 1.251 . S
O31 Eu1 2.374 . S
O31 C19 1.251 . S
H32 C3 0.931 . S
H33 C4 0.931 . S
H34 C6 0.931 . S
H35 C7 0.931 . S
H36 C13 0.931 . S
H37 C14 0.931 . S
H38 C16 0.931 . S
H39 C17 0.931 . S
C40 Eu41 2.835 . S
C40 C42 1.500 . S
C40 O60 1.257 . S
C40 O61 1.260 . S
Eu41 C40 2.835 . S
Eu41 O60 2.473 . S
Eu41 O61 2.480 . S
Eu41 O62 2.430 . S
Eu41 O63 2.670 . S
Eu41 O64 2.394 . S
Eu41 O69 2.355 . S
Eu41 O71 2.374 . S
C42 C40 1.500 . S
C42 C43 1.377 . S
C42 C47 1.377 . S
C43 C42 1.377 . S
C43 C44 1.395 . S
C43 H72 0.931 . S
C44 C43 1.395 . S
C44 C45 1.383 . S
C44 H73 0.931 . S
C45 C44 1.383 . S
C45 C46 1.394 . S
C46 C45 1.394 . S
C46 C47 1.378 . S
C46 H74 0.931 . S
C47 C42 1.377 . S
C47 C46 1.378 . S
C47 H75 0.931 . S
C48 O62 1.259 . S
C48 O63 1.270 . S
C49 O64 1.251 . S
C49 O65 1.251 . S
C50 Eu51 2.835 . S
C50 C52 1.500 . S
C50 O66 1.257 . S
C50 O67 1.260 . S
Eu51 C50 2.835 . S
Eu51 O63 2.355 . S
Eu51 O65 2.374 . S
Eu51 O66 2.473 . S
Eu51 O67 2.480 . S
Eu51 O68 2.430 . S
Eu51 O69 2.670 . S
Eu51 O70 2.394 . S
C52 C50 1.500 . S
C52 C53 1.377 . S
C52 C57 1.377 . S
C53 C52 1.377 . S
C53 C54 1.395 . S
C53 H76 0.931 . S
C54 C53 1.395 . S
C54 C55 1.383 . S
C54 H77 0.931 . S
C55 C54 1.383 . S
C55 C56 1.394 . S
C56 C55 1.394 . S
C56 C57 1.378 . S
C56 H78 0.931 . S
C57 C52 1.377 . S
C57 C56 1.378 . S
C57 H79 0.931 . S
C58 O68 1.259 . S
C58 O69 1.270 . S
C59 O70 1.251 . S
C59 O71 1.251 . S
O60 C40 1.257 . S
O60 Eu41 2.473 . S
O61 C40 1.260 . S
O61 Eu41 2.480 . S
O62 Eu41 2.430 . S
O62 C48 1.259 . S
O63 Eu41 2.670 . S
O63 C48 1.270 . S
O63 Eu51 2.355 . S
O64 Eu41 2.394 . S
O64 C49 1.251 . S
O65 C49 1.251 . S
O65 Eu51 2.374 . S
O66 C50 1.257 . S
O66 Eu51 2.473 . S
O67 C50 1.260 . S
O67 Eu51 2.480 . S
O68 Eu51 2.430 . S
O68 C58 1.259 . S
O69 Eu41 2.355 . S
O69 Eu51 2.670 . S
O69 C58 1.270 . S
O70 Eu51 2.394 . S
O70 C59 1.251 . S
O71 Eu41 2.374 . S
O71 C59 1.251 . S
H72 C43 0.931 . S
H73 C44 0.931 . S
H74 C46 0.931 . S
H75 C47 0.931 . S
H76 C53 0.931 . S
H77 C54 0.931 . S
H78 C56 0.931 . S
H79 C57 0.931 . S
C80 Eu81 2.835 . S
C80 C82 1.500 . S
C80 O100 1.257 . S
C80 O101 1.260 . S
Eu81 C80 2.835 . S
Eu81 O100 2.473 . S
Eu81 O101 2.480 . S
Eu81 O102 2.430 . S
Eu81 O103 2.670 . S
Eu81 O104 2.394 . S
Eu81 O109 2.355 . S
Eu81 O111 2.374 . S
C82 C80 1.500 . S
C82 C83 1.377 . S
C82 C87 1.377 . S
C83 C82 1.377 . S
C83 C84 1.395 . S
C83 H112 0.931 . S
C84 C83 1.395 . S
C84 C85 1.383 . S
C84 H113 0.931 . S
C85 C84 1.383 . S
C85 C86 1.394 . S
C86 C85 1.394 . S
C86 C87 1.378 . S
C86 H114 0.931 . S
C87 C82 1.377 . S
C87 C86 1.378 . S
C87 H115 0.931 . S
C88 O102 1.259 . S
C88 O103 1.270 . S
C89 O104 1.251 . S
C89 O105 1.251 . S
C90 Eu91 2.835 . S
C90 C92 1.500 . S
C90 O106 1.257 . S
C90 O107 1.260 . S
Eu91 C90 2.835 . S
Eu91 O103 2.355 . S
Eu91 O105 2.374 . S
Eu91 O106 2.473 . S
Eu91 O107 2.480 . S
Eu91 O108 2.430 . S
Eu91 O109 2.670 . S
Eu91 O110 2.394 . S
C92 C90 1.500 . S
C92 C93 1.377 . S
C92 C97 1.377 . S
C93 C92 1.377 . S
C93 C94 1.395 . S
C93 H116 0.931 . S
C94 C93 1.395 . S
C94 C95 1.383 . S
C94 H117 0.931 . S
C95 C94 1.383 . S
C95 C96 1.394 . S
C96 C95 1.394 . S
C96 C97 1.378 . S
C96 H118 0.931 . S
C97 C92 1.377 . S
C97 C96 1.378 . S
C97 H119 0.931 . S
C98 O108 1.259 . S
C98 O109 1.270 . S
C99 O110 1.251 . S
C99 O111 1.251 . S
O100 C80 1.257 . S
O100 Eu81 2.473 . S
O101 C80 1.260 . S
O101 Eu81 2.480 . S
O102 Eu81 2.430 . S
O102 C88 1.259 . S
O103 Eu81 2.670 . S
O103 C88 1.270 . S
O103 Eu91 2.355 . S
O104 Eu81 2.394 . S
O104 C89 1.251 . S
O105 C89 1.251 . S
O105 Eu91 2.374 . S
O106 C90 1.257 . S
O106 Eu91 2.473 . S
O107 C90 1.260 . S
O107 Eu91 2.480 . S
O108 Eu91 2.430 . S
O108 C98 1.259 . S
O109 Eu81 2.355 . S
O109 Eu91 2.670 . S
O109 C98 1.270 . S
O110 Eu91 2.394 . S
O110 C99 1.251 . S
O111 Eu81 2.374 . S
O111 C99 1.251 . S
H112 C83 0.931 . S
H113 C84 0.931 . S
H114 C86 0.931 . S
H115 C87 0.931 . S
H116 C93 0.931 . S
H117 C94 0.931 . S
H118 C96 0.931 . S
H119 C97 0.931 . S
C120 Eu121 2.835 . S
C120 C122 1.500 . S
C120 O140 1.257 . S
C120 O141 1.260 . S
Eu121 C120 2.835 . S
Eu121 O140 2.473 . S
Eu121 O141 2.480 . S
Eu121 O142 2.430 . S
Eu121 O143 2.670 . S
Eu121 O144 2.394 . S
Eu121 O149 2.355 . S
Eu121 O151 2.374 . S
C122 C120 1.500 . S
C122 C123 1.377 . S
C122 C127 1.377 . S
C123 C122 1.377 . S
C123 C124 1.395 . S
C123 H152 0.931 . S
C124 C123 1.395 . S
C124 C125 1.383 . S
C124 H153 0.931 . S
C125 C124 1.383 . S
C125 C126 1.394 . S
C126 C125 1.394 . S
C126 C127 1.378 . S
C126 H154 0.931 . S
C127 C122 1.377 . S
C127 C126 1.378 . S
C127 H155 0.931 . S
C128 O142 1.259 . S
C128 O143 1.270 . S
C129 O144 1.251 . S
C129 O145 1.251 . S
C130 Eu131 2.835 . S
C130 C132 1.500 . S
C130 O146 1.257 . S
C130 O147 1.260 . S
Eu131 C130 2.835 . S
Eu131 O143 2.355 . S
Eu131 O145 2.374 . S
Eu131 O146 2.473 . S
Eu131 O147 2.480 . S
Eu131 O148 2.430 . S
Eu131 O149 2.670 . S
Eu131 O150 2.394 . S
C132 C130 1.500 . S
C132 C133 1.377 . S
C132 C137 1.377 . S
C133 C132 1.377 . S
C133 C134 1.395 . S
C133 H156 0.931 . S
C134 C133 1.395 . S
C134 C135 1.383 . S
C134 H157 0.931 . S
C135 C134 1.383 . S
C135 C136 1.394 . S
C136 C135 1.394 . S
C136 C137 1.378 . S
C136 H158 0.931 . S
C137 C132 1.377 . S
C137 C136 1.378 . S
C137 H159 0.931 . S
C138 O148 1.259 . S
C138 O149 1.270 . S
C139 O150 1.251 . S
C139 O151 1.251 . S
O140 C120 1.257 . S
O140 Eu121 2.473 . S
O141 C120 1.260 . S
O141 Eu121 2.480 . S
O142 Eu121 2.430 . S
O142 C128 1.259 . S
O143 Eu121 2.670 . S
O143 C128 1.270 . S
O143 Eu131 2.355 . S
O144 Eu121 2.394 . S
O144 C129 1.251 . S
O145 C129 1.251 . S
O145 Eu131 2.374 . S
O146 C130 1.257 . S
O146 Eu131 2.473 . S
O147 C130 1.260 . S
O147 Eu131 2.480 . S
O148 Eu131 2.430 . S
O148 C138 1.259 . S
O149 Eu121 2.355 . S
O149 Eu131 2.670 . S
O149 C138 1.270 . S
O150 Eu131 2.394 . S
O150 C139 1.251 . S
O151 Eu121 2.374 . S
O151 C139 1.251 . S
H152 C123 0.931 . S
H153 C124 0.931 . S
H154 C126 0.931 . S
H155 C127 0.931 . S
H156 C133 0.931 . S
H157 C134 0.931 . S
H158 C136 0.931 . S
H159 C137 0.931 . S
C160 Eu161 2.835 . S
C160 C162 1.500 . S
C160 O180 1.257 . S
C160 O181 1.260 . S
Eu161 C160 2.835 . S
Eu161 O180 2.473 . S
Eu161 O181 2.480 . S
Eu161 O182 2.430 . S
Eu161 O183 2.670 . S
Eu161 O184 2.394 . S
Eu161 O189 2.355 . S
Eu161 O191 2.374 . S
C162 C160 1.500 . S
C162 C163 1.377 . S
C162 C167 1.377 . S
C163 C162 1.377 . S
C163 C164 1.395 . S
C163 H192 0.931 . S
C164 C163 1.395 . S
C164 C165 1.383 . S
C164 H193 0.931 . S
C165 C164 1.383 . S
C165 C166 1.394 . S
C166 C165 1.394 . S
C166 C167 1.378 . S
C166 H194 0.931 . S
C167 C162 1.377 . S
C167 C166 1.378 . S
C167 H195 0.931 . S
C168 O182 1.259 . S
C168 O183 1.270 . S
C169 O184 1.251 . S
C169 O185 1.251 . S
C170 Eu171 2.835 . S
C170 C172 1.500 . S
C170 O186 1.257 . S
C170 O187 1.260 . S
Eu171 C170 2.835 . S
Eu171 O183 2.355 . S
Eu171 O185 2.374 . S
Eu171 O186 2.473 . S
Eu171 O187 2.480 . S
Eu171 O188 2.430 . S
Eu171 O189 2.670 . S
Eu171 O190 2.394 . S
C172 C170 1.500 . S
C172 C173 1.377 . S
C172 C177 1.377 . S
C173 C172 1.377 . S
C173 C174 1.395 . S
C173 H196 0.931 . S
C174 C173 1.395 . S
C174 C175 1.383 . S
C174 H197 0.931 . S
C175 C174 1.383 . S
C175 C176 1.394 . S
C176 C175 1.394 . S
C176 C177 1.378 . S
C176 H198 0.931 . S
C177 C172 1.377 . S
C177 C176 1.378 . S
C177 H199 0.931 . S
C178 O188 1.259 . S
C178 O189 1.270 . S
C179 O190 1.251 . S
C179 O191 1.251 . S
O180 C160 1.257 . S
O180 Eu161 2.473 . S
O181 C160 1.260 . S
O181 Eu161 2.480 . S
O182 Eu161 2.430 . S
O182 C168 1.259 . S
O183 Eu161 2.670 . S
O183 C168 1.270 . S
O183 Eu171 2.355 . S
O184 Eu161 2.394 . S
O184 C169 1.251 . S
O185 C169 1.251 . S
O185 Eu171 2.374 . S
O186 C170 1.257 . S
O186 Eu171 2.473 . S
O187 C170 1.260 . S
O187 Eu171 2.480 . S
O188 Eu171 2.430 . S
O188 C178 1.259 . S
O189 Eu161 2.355 . S
O189 Eu171 2.670 . S
O189 C178 1.270 . S
O190 Eu171 2.394 . S
O190 C179 1.251 . S
O191 Eu161 2.374 . S
O191 C179 1.251 . S
H192 C163 0.931 . S
H193 C164 0.931 . S
H194 C166 0.931 . S
H195 C167 0.931 . S
H196 C173 0.931 . S
H197 C174 0.931 . S
H198 C176 0.931 . S
H199 C177 0.931 . S
C200 Eu201 2.835 . S
C200 C202 1.500 . S
C200 O220 1.257 . S
C200 O221 1.260 . S
Eu201 C200 2.835 . S
Eu201 O220 2.473 . S
Eu201 O221 2.480 . S
Eu201 O222 2.430 . S
Eu201 O223 2.670 . S
Eu201 O224 2.394 . S
Eu201 O229 2.355 . S
Eu201 O231 2.374 . S
C202 C200 1.500 . S
C202 C203 1.377 . S
C202 C207 1.377 . S
C203 C202 1.377 . S
C203 C204 1.395 . S
C203 H232 0.931 . S
C204 C203 1.395 . S
C204 C205 1.383 . S
C204 H233 0.931 . S
C205 C204 1.383 . S
C205 C206 1.394 . S
C206 C205 1.394 . S
C206 C207 1.378 . S
C206 H234 0.931 . S
C207 C202 1.377 . S
C207 C206 1.378 . S
C207 H235 0.931 . S
C208 O222 1.259 . S
C208 O223 1.270 . S
C209 O224 1.251 . S
C209 O225 1.251 . S
C210 Eu211 2.835 . S
C210 C212 1.500 . S
C210 O226 1.257 . S
C210 O227 1.260 . S
Eu211 C210 2.835 . S
Eu211 O223 2.355 . S
Eu211 O225 2.374 . S
Eu211 O226 2.473 . S
Eu211 O227 2.480 . S
Eu211 O228 2.430 . S
Eu211 O229 2.670 . S
Eu211 O230 2.394 . S
C212 C210 1.500 . S
C212 C213 1.377 . S
C212 C217 1.377 . S
C213 C212 1.377 . S
C213 C214 1.395 . S
C213 H236 0.931 . S
C214 C213 1.395 . S
C214 C215 1.383 . S
C214 H237 0.931 . S
C215 C214 1.383 . S
C215 C216 1.394 . S
C216 C215 1.394 . S
C216 C217 1.378 . S
C216 H238 0.931 . S
C217 C212 1.377 . S
C217 C216 1.378 . S
C217 H239 0.931 . S
C218 O228 1.259 . S
C218 O229 1.270 . S
C219 O230 1.251 . S
C219 O231 1.251 . S
O220 C200 1.257 . S
O220 Eu201 2.473 . S
O221 C200 1.260 . S
O221 Eu201 2.480 . S
O222 Eu201 2.430 . S
O222 C208 1.259 . S
O223 Eu201 2.670 . S
O223 C208 1.270 . S
O223 Eu211 2.355 . S
O224 Eu201 2.394 . S
O224 C209 1.251 . S
O225 C209 1.251 . S
O225 Eu211 2.374 . S
O226 C210 1.257 . S
O226 Eu211 2.473 . S
O227 C210 1.260 . S
O227 Eu211 2.480 . S
O228 Eu211 2.430 . S
O228 C218 1.259 . S
O229 Eu201 2.355 . S
O229 Eu211 2.670 . S
O229 C218 1.270 . S
O230 Eu211 2.394 . S
O230 C219 1.251 . S
O231 Eu201 2.374 . S
O231 C219 1.251 . S
H232 C203 0.931 . S
H233 C204 0.931 . S
H234 C206 0.931 . S
H235 C207 0.931 . S
H236 C213 0.931 . S
H237 C214 0.931 . S
H238 C216 0.931 . S
H239 C217 0.931 . S
C240 Eu241 2.835 . S
C240 C242 1.500 . S
C240 O260 1.257 . S
C240 O261 1.260 . S
Eu241 C240 2.835 . S
Eu241 O260 2.473 . S
Eu241 O261 2.480 . S
Eu241 O262 2.430 . S
Eu241 O263 2.670 . S
Eu241 O264 2.394 . S
Eu241 O269 2.355 . S
Eu241 O271 2.374 . S
C242 C240 1.500 . S
C242 C243 1.377 . S
C242 C247 1.377 . S
C243 C242 1.377 . S
C243 C244 1.395 . S
C243 H272 0.931 . S
C244 C243 1.395 . S
C244 C245 1.383 . S
C244 H273 0.931 . S
C245 C244 1.383 . S
C245 C246 1.394 . S
C246 C245 1.394 . S
C246 C247 1.378 . S
C246 H274 0.931 . S
C247 C242 1.377 . S
C247 C246 1.378 . S
C247 H275 0.931 . S
C248 O262 1.259 . S
C248 O263 1.270 . S
C249 O264 1.251 . S
C249 O265 1.251 . S
C250 Eu251 2.835 . S
C250 C252 1.500 . S
C250 O266 1.257 . S
C250 O267 1.260 . S
Eu251 C250 2.835 . S
Eu251 O263 2.355 . S
Eu251 O265 2.374 . S
Eu251 O266 2.473 . S
Eu251 O267 2.480 . S
Eu251 O268 2.430 . S
Eu251 O269 2.670 . S
Eu251 O270 2.394 . S
C252 C250 1.500 . S
C252 C253 1.377 . S
C252 C257 1.377 . S
C253 C252 1.377 . S
C253 C254 1.395 . S
C253 H276 0.931 . S
C254 C253 1.395 . S
C254 C255 1.383 . S
C254 H277 0.931 . S
C255 C254 1.383 . S
C255 C256 1.394 . S
C256 C255 1.394 . S
C256 C257 1.378 . S
C256 H278 0.931 . S
C257 C252 1.377 . S
C257 C256 1.378 . S
C257 H279 0.931 . S
C258 O268 1.259 . S
C258 O269 1.270 . S
C259 O270 1.251 . S
C259 O271 1.251 . S
O260 C240 1.257 . S
O260 Eu241 2.473 . S
O261 C240 1.260 . S
O261 Eu241 2.480 . S
O262 Eu241 2.430 . S
O262 C248 1.259 . S
O263 Eu241 2.670 . S
O263 C248 1.270 . S
O263 Eu251 2.355 . S
O264 Eu241 2.394 . S
O264 C249 1.251 . S
O265 C249 1.251 . S
O265 Eu251 2.374 . S
O266 C250 1.257 . S
O266 Eu251 2.473 . S
O267 C250 1.260 . S
O267 Eu251 2.480 . S
O268 Eu251 2.430 . S
O268 C258 1.259 . S
O269 Eu241 2.355 . S
O269 Eu251 2.670 . S
O269 C258 1.270 . S
O270 Eu251 2.394 . S
O270 C259 1.251 . S
O271 Eu241 2.374 . S
O271 C259 1.251 . S
H272 C243 0.931 . S
H273 C244 0.931 . S
H274 C246 0.931 . S
H275 C247 0.931 . S
H276 C253 0.931 . S
H277 C254 0.931 . S
H278 C256 0.931 . S
H279 C257 0.931 . S
C280 Eu281 2.835 . S
C280 C282 1.500 . S
C280 O300 1.257 . S
C280 O301 1.260 . S
Eu281 C280 2.835 . S
Eu281 O300 2.473 . S
Eu281 O301 2.480 . S
Eu281 O302 2.430 . S
Eu281 O303 2.670 . S
Eu281 O304 2.394 . S
Eu281 O309 2.355 . S
Eu281 O311 2.374 . S
C282 C280 1.500 . S
C282 C283 1.377 . S
C282 C287 1.377 . S
C283 C282 1.377 . S
C283 C284 1.395 . S
C283 H312 0.931 . S
C284 C283 1.395 . S
C284 C285 1.383 . S
C284 H313 0.931 . S
C285 C284 1.383 . S
C285 C286 1.394 . S
C286 C285 1.394 . S
C286 C287 1.378 . S
C286 H314 0.931 . S
C287 C282 1.377 . S
C287 C286 1.378 . S
C287 H315 0.931 . S
C288 O302 1.259 . S
C288 O303 1.270 . S
C289 O304 1.251 . S
C289 O305 1.251 . S
C290 Eu291 2.835 . S
C290 C292 1.500 . S
C290 O306 1.257 . S
C290 O307 1.260 . S
Eu291 C290 2.835 . S
Eu291 O303 2.355 . S
Eu291 O305 2.374 . S
Eu291 O306 2.473 . S
Eu291 O307 2.480 . S
Eu291 O308 2.430 . S
Eu291 O309 2.670 . S
Eu291 O310 2.394 . S
C292 C290 1.500 . S
C292 C293 1.377 . S
C292 C297 1.377 . S
C293 C292 1.377 . S
C293 C294 1.395 . S
C293 H316 0.931 . S
C294 C293 1.395 . S
C294 C295 1.383 . S
C294 H317 0.931 . S
C295 C294 1.383 . S
C295 C296 1.394 . S
C296 C295 1.394 . S
C296 C297 1.378 . S
C296 H318 0.931 . S
C297 C292 1.377 . S
C297 C296 1.378 . S
C297 H319 0.931 . S
C298 O308 1.259 . S
C298 O309 1.270 . S
C299 O310 1.251 . S
C299 O311 1.251 . S
O300 C280 1.257 . S
O300 Eu281 2.473 . S
O301 C280 1.260 . S
O301 Eu281 2.480 . S
O302 Eu281 2.430 . S
O302 C288 1.259 . S
O303 Eu281 2.670 . S
O303 C288 1.270 . S
O303 Eu291 2.355 . S
O304 Eu281 2.394 . S
O304 C289 1.251 . S
O305 C289 1.251 . S
O305 Eu291 2.374 . S
O306 C290 1.257 . S
O306 Eu291 2.473 . S
O307 C290 1.260 . S
O307 Eu291 2.480 . S
O308 Eu291 2.430 . S
O308 C298 1.259 . S
O309 Eu281 2.355 . S
O309 Eu291 2.670 . S
O309 C298 1.270 . S
O310 Eu291 2.394 . S
O310 C299 1.251 . S
O311 Eu281 2.374 . S
O311 C299 1.251 . S
H312 C283 0.931 . S
H313 C284 0.931 . S
H314 C286 0.931 . S
H315 C287 0.931 . S
H316 C293 0.931 . S
H317 C294 0.931 . S
H318 C296 0.931 . S
H319 C297 0.931 . S
Fe320 O321 1.886 1_455 S
Fe320 O324 1.715 . S
Fe320 O329 2.077 1_455 S
Fe320 O334 1.935 . S
Fe320 O340 2.077 1_455 S
Fe320 O349 1.935 . S
O321 Fe320 1.886 1_655 S
O321 Fe323 1.715 . S
Fe322 O324 1.886 . S
Fe322 O325 1.715 1_545 S
Fe322 O332 1.935 . S
Fe322 O333 2.077 . S
Fe322 O339 1.935 . S
Fe322 O348 2.077 . S
Fe323 O321 1.715 . S
Fe323 O326 1.886 1_545 S
Fe323 O330 1.935 . S
Fe323 O335 2.077 1_545 S
Fe323 O341 1.935 . S
Fe323 O345 2.077 1_545 S
O324 Fe320 1.715 . S
O324 Fe322 1.886 . S
O325 Fe322 1.715 1_565 S
O325 Fe327 1.886 . S
O326 Fe323 1.886 1_565 S
O326 Fe327 1.715 1_655 S
Fe327 O325 1.886 . S
Fe327 O326 1.715 1_455 S
Fe327 O331 2.077 . S
Fe327 O336 1.935 1_455 S
Fe327 O338 2.077 . S
Fe327 O346 1.935 1_455 S
C328 O340 1.381 . S
C328 O341 1.421 . S
O329 Fe320 2.077 1_655 S
O329 C342 1.381 . S
O330 Fe323 1.935 . S
O330 C342 1.421 . S
O331 Fe327 2.077 . S
O331 C347 1.381 . S
O332 Fe322 1.935 . S
O332 C347 1.421 1_545 S
O333 Fe322 2.077 . S
O333 C337 1.381 . S
O334 Fe320 1.935 . S
O334 C337 1.421 . S
O335 Fe323 2.077 1_565 S
O335 C343 1.381 . S
O336 Fe327 1.935 1_655 S
O336 C343 1.421 . S
C337 O333 1.381 . S
C337 O334 1.421 . S
O338 Fe327 2.077 . S
O338 C350 1.381 . S
O339 Fe322 1.935 . S
O339 C350 1.421 1_545 S
O340 Fe320 2.077 1_655 S
O340 C328 1.381 . S
O341 Fe323 1.935 . S
O341 C328 1.421 . S
C342 O329 1.381 . S
C342 O330 1.421 . S
C343 O335 1.381 . S
C343 O336 1.421 . S
C344 O345 1.381 . S
C344 O346 1.421 . S
O345 Fe323 2.077 1_565 S
O345 C344 1.381 . S
O346 Fe327 1.935 1_655 S
O346 C344 1.421 . S
C347 O331 1.381 . S
C347 O332 1.421 1_565 S
O348 Fe322 2.077 . S
O348 C351 1.381 . S
O349 Fe320 1.935 . S
O349 C351 1.421 . S
C350 O338 1.381 . S
C350 O339 1.421 1_565 S
C351 O348 1.381 . S
C351 O349 1.421 . S
Fe352 O353 1.885 1_565 S
Fe352 O356 1.716 1_564 S
Fe352 O361 2.073 1_554 S
Fe352 O366 1.931 1_554 S
Fe352 O372 2.081 . S
Fe352 O381 1.940 . S
O353 Fe352 1.885 1_545 S
O353 Fe355 1.715 . S
Fe354 O356 1.886 . S
Fe354 O357 1.715 . S
Fe354 O364 1.935 . S
Fe354 O365 2.077 1_545 S
Fe354 O371 1.935 1_556 S
Fe354 O380 2.077 1_546 S
Fe355 O353 1.715 . S
Fe355 O358 1.886 . S
Fe355 O362 1.935 1_554 S
Fe355 O367 2.077 1_554 S
Fe355 O373 1.935 . S
Fe355 O377 2.077 . S
O356 Fe352 1.716 1_546 S
O356 Fe354 1.886 . S
O357 Fe354 1.715 . S
O357 Fe359 1.886 . S
O358 Fe355 1.886 . S
O358 Fe359 1.715 1_554 S
Fe359 O357 1.886 . S
Fe359 O358 1.715 1_556 S
Fe359 O363 2.074 . S
Fe359 O368 1.931 . S
Fe359 O370 2.080 1_556 S
Fe359 O378 1.938 1_556 S
C360 O372 1.381 . S
C360 O373 1.421 1_565 S
O361 Fe352 2.073 1_556 S
O361 C374 1.381 . S
O362 Fe355 1.935 1_556 S
O362 C374 1.421 1_545 S
O363 Fe359 2.074 . S
O363 C379 1.381 . S
O364 Fe354 1.935 . S
O364 C379 1.421 . S
O365 Fe354 2.077 1_565 S
O365 C369 1.381 . S
O366 Fe352 1.931 1_556 S
O366 C369 1.421 . S
O367 Fe355 2.077 1_556 S
O367 C375 1.381 . S
O368 Fe359 1.931 . S
O368 C375 1.421 . S
C369 O365 1.381 . S
C369 O366 1.421 . S
O370 Fe359 2.080 1_554 S
O370 C382 1.381 . S
O371 Fe354 1.935 1_554 S
O371 C382 1.421 . S
O372 Fe352 2.081 . S
O372 C360 1.381 . S
O373 Fe355 1.935 . S
O373 C360 1.421 1_545 S
C374 O361 1.381 . S
C374 O362 1.421 1_565 S
C375 O367 1.381 . S
C375 O368 1.421 . S
C376 O377 1.381 . S
C376 O378 1.421 . S
O377 Fe355 2.077 . S
O377 C376 1.381 . S
O378 Fe359 1.938 1_554 S
O378 C376 1.421 . S
C379 O363 1.381 . S
C379 O364 1.421 . S
O380 Fe354 2.077 1_564 S
O380 C383 1.381 . S
O381 Fe352 1.940 . S
O381 C383 1.421 . S
C382 O370 1.381 . S
C382 O371 1.421 . S
C383 O380 1.381 . S
C383 O381 1.421 . S
Fe384 O385 1.886 1_455 S
Fe384 O388 1.715 . S
Fe384 O393 2.077 1_455 S
Fe384 O398 1.935 . S
Fe384 O404 2.077 1_455 S
Fe384 O413 1.935 . S
O385 Fe384 1.886 1_655 S
O385 Fe387 1.715 . S
Fe386 O388 1.886 . S
Fe386 O389 1.715 . S
Fe386 O396 1.935 . S
Fe386 O397 2.077 . S
Fe386 O403 1.935 . S
Fe386 O412 2.077 . S
Fe387 O385 1.715 . S
Fe387 O390 1.886 . S
Fe387 O394 1.944 . S
Fe387 O399 2.077 . S
Fe387 O405 1.935 . S
Fe387 O409 2.077 . S
O388 Fe384 1.715 . S
O388 Fe386 1.886 . S
O389 Fe386 1.715 . S
O389 Fe391 1.878 1_455 S
O390 Fe387 1.886 . S
O390 Fe391 1.724 . S
Fe391 O389 1.878 1_655 S
Fe391 O390 1.724 . S
Fe391 O395 2.069 1_655 S
Fe391 O400 1.940 . S
Fe391 O402 2.070 1_655 S
Fe391 O410 1.942 . S
C392 O404 1.381 . S
C392 O405 1.421 . S
O393 Fe384 2.077 1_655 S
O393 C406 1.381 1_554 S
O394 Fe387 1.944 . S
O394 C406 1.418 1_554 S
O395 Fe391 2.069 1_455 S
O395 C411 1.381 . S
O396 Fe386 1.935 . S
O396 C411 1.421 . S
O397 Fe386 2.077 . S
O397 C401 1.381 . S
O398 Fe384 1.935 . S
O398 C401 1.421 . S
O399 Fe387 2.077 . S
O399 C407 1.381 1_554 S
O400 Fe391 1.940 . S
O400 C407 1.421 1_554 S
C401 O397 1.381 . S
C401 O398 1.421 . S
O402 Fe391 2.070 1_455 S
O402 C414 1.381 . S
O403 Fe386 1.935 . S
O403 C414 1.421 . S
O404 Fe384 2.077 1_655 S
O404 C392 1.381 . S
O405 Fe387 1.935 . S
O405 C392 1.421 . S
C406 O393 1.381 1_556 S
C406 O394 1.418 1_556 S
C407 O399 1.381 1_556 S
C407 O400 1.421 1_556 S
C408 O409 1.381 . S
C408 O410 1.421 . S
O409 Fe387 2.077 . S
O409 C408 1.381 . S
O410 Fe391 1.942 . S
O410 C408 1.421 . S
C411 O395 1.381 . S
C411 O396 1.421 . S
O412 Fe386 2.077 . S
O412 C415 1.381 . S
O413 Fe384 1.935 . S
O413 C415 1.421 . S
C414 O402 1.381 . S
C414 O403 1.421 . S
C415 O412 1.381 . S
C415 O413 1.421 . S
Fe416 O417 1.886 . S
Fe416 O420 1.715 . S
Fe416 O425 2.077 . S
Fe416 O430 1.935 . S
Fe416 O436 2.077 . S
Fe416 O445 1.935 . S
O417 Fe416 1.886 . S
O417 Fe419 1.715 1_556 S
Fe418 O420 1.886 1_554 S
Fe418 O421 1.715 . S
Fe418 O428 1.935 . S
Fe418 O429 2.077 1_554 S
Fe418 O435 1.935 . S
Fe418 O444 2.077 1_554 S
Fe419 O417 1.715 1_554 S
Fe419 O422 1.886 . S
Fe419 O426 1.935 . S
Fe419 O431 2.077 . S
Fe419 O437 1.935 . S
Fe419 O441 2.077 . S
O420 Fe416 1.715 . S
O420 Fe418 1.886 1_556 S
O421 Fe418 1.715 . S
O421 Fe423 1.886 . S
O422 Fe419 1.886 . S
O422 Fe423 1.715 . S
Fe423 O421 1.886 . S
Fe423 O422 1.715 . S
Fe423 O427 2.077 . S
Fe423 O432 1.935 . S
Fe423 O434 2.077 . S
Fe423 O442 1.935 . S
C424 O436 1.381 . S
C424 O437 1.421 1_556 S
O425 Fe416 2.077 . S
O425 C438 1.381 . S
O426 Fe419 1.935 . S
O426 C438 1.421 1_554 S
O427 Fe423 2.077 . S
O427 C443 1.381 . S
O428 Fe418 1.935 . S
O428 C443 1.421 . S
O429 Fe418 2.077 1_556 S
O429 C433 1.381 . S
O430 Fe416 1.935 . S
O430 C433 1.421 . S
O431 Fe419 2.077 . S
O431 C439 1.381 . S
O432 Fe423 1.935 . S
O432 C439 1.421 . S
C433 O429 1.381 . S
C433 O430 1.421 . S
O434 Fe423 2.077 . S
O434 C446 1.381 . S
O435 Fe418 1.935 . S
O435 C446 1.421 . S
O436 Fe416 2.077 . S
O436 C424 1.381 . S
O437 Fe419 1.935 . S
O437 C424 1.421 1_554 S
C438 O425 1.381 . S
C438 O426 1.421 1_556 S
C439 O431 1.381 . S
C439 O432 1.421 . S
C440 O441 1.381 . S
C440 O442 1.421 . S
O441 Fe419 2.077 . S
O441 C440 1.381 . S
O442 Fe423 1.935 . S
O442 C440 1.421 . S
C443 O427 1.381 . S
C443 O428 1.421 . S
O444 Fe418 2.077 1_556 S
O444 C447 1.381 . S
O445 Fe416 1.935 . S
O445 C447 1.421 . S
C446 O434 1.381 . S
C446 O435 1.421 . S
C447 O444 1.381 . S
C447 O445 1.421 . S
Fe448 O449 1.886 . S
Fe448 O452 1.715 . S
Fe448 O457 2.077 . S
Fe448 O462 1.935 . S
Fe448 O468 2.094 . S
Fe448 O477 1.935 1_455 S
O449 Fe448 1.886 . S
O449 Fe451 1.715 . S
Fe450 O452 1.886 . S
Fe450 O453 1.715 . S
Fe450 O460 1.935 . S
Fe450 O461 2.077 . S
Fe450 O467 1.935 1_455 S
Fe450 O476 2.077 1_455 S
Fe451 O449 1.715 . S
Fe451 O454 1.886 . S
Fe451 O458 1.935 . S
Fe451 O463 2.077 . S
Fe451 O469 1.935 . S
Fe451 O473 2.077 . S
O452 Fe448 1.715 . S
O452 Fe450 1.886 . S
O453 Fe450 1.715 . S
O453 Fe455 1.886 . S
O454 Fe451 1.886 . S
O454 Fe455 1.715 . S
Fe455 O453 1.886 . S
Fe455 O454 1.715 . S
Fe455 O459 2.077 . S
Fe455 O464 1.935 . S
Fe455 O466 2.077 . S
Fe455 O474 1.935 . S
C456 O468 1.371 1_655 S
C456 O469 1.421 1_655 S
O457 Fe448 2.077 . S
O457 C470 1.381 . S
O458 Fe451 1.935 . S
O458 C470 1.421 . S
O459 Fe455 2.077 . S
O459 C475 1.381 . S
O460 Fe450 1.935 . S
O460 C475 1.421 . S
O461 Fe450 2.077 . S
O461 C465 1.381 . S
O462 Fe448 1.935 . S
O462 C465 1.421 . S
O463 Fe451 2.077 . S
O463 C471 1.381 . S
O464 Fe455 1.935 . S
O464 C471 1.421 . S
C465 O461 1.381 . S
C465 O462 1.421 . S
O466 Fe455 2.077 . S
O466 C478 1.381 1_455 S
O467 Fe450 1.935 1_655 S
O467 C478 1.421 . S
O468 Fe448 2.094 . S
O468 C456 1.371 1_455 S
O469 Fe451 1.935 . S
O469 C456 1.421 1_455 S
C470 O457 1.381 . S
C470 O458 1.421 . S
C471 O463 1.381 . S
C471 O464 1.421 . S
C472 O473 1.381 . S
C472 O474 1.421 . S
O473 Fe451 2.077 . S
O473 C472 1.381 . S
O474 Fe455 1.935 . S
O474 C472 1.421 . S
C475 O459 1.381 . S
C475 O460 1.421 . S
O476 Fe450 2.077 1_655 S
O476 C479 1.381 . S
O477 Fe448 1.935 1_655 S
O477 C479 1.421 . S
C478 O466 1.381 1_655 S
C478 O467 1.421 . S
C479 O476 1.381 . S
C479 O477 1.421 . S
Fe480 O481 1.886 . S
Fe480 O484 1.715 . S
Fe480 O489 2.077 . S
Fe480 O494 1.935 . S
Fe480 O500 2.077 . S
Fe480 O509 1.935 . S
O481 Fe480 1.886 . S
O481 Fe483 1.715 1_565 S
Fe482 O484 1.886 1_545 S
Fe482 O485 1.715 . S
Fe482 O492 1.935 . S
Fe482 O493 2.077 1_545 S
Fe482 O499 1.935 . S
Fe482 O508 2.077 1_545 S
Fe483 O481 1.715 1_545 S
Fe483 O486 1.886 . S
Fe483 O490 1.935 1_545 S
Fe483 O495 2.077 . S
Fe483 O501 1.935 1_545 S
Fe483 O505 2.077 . S
O484 Fe480 1.715 . S
O484 Fe482 1.886 1_565 S
O485 Fe482 1.715 . S
O485 Fe487 1.886 . S
O486 Fe483 1.886 . S
O486 Fe487 1.715 . S
Fe487 O485 1.886 . S
Fe487 O486 1.715 . S
Fe487 O491 2.077 . S
Fe487 O496 1.935 . S
Fe487 O498 2.077 . S
Fe487 O506 1.935 . S
C488 O500 1.381 . S
C488 O501 1.421 . S
O489 Fe480 2.077 . S
O489 C502 1.381 . S
O490 Fe483 1.935 1_565 S
O490 C502 1.421 . S
O491 Fe487 2.077 . S
O491 C507 1.381 . S
O492 Fe482 1.935 . S
O492 C507 1.421 . S
O493 Fe482 2.077 1_565 S
O493 C497 1.381 . S
O494 Fe480 1.935 . S
O494 C497 1.421 . S
O495 Fe483 2.077 . S
O495 C503 1.381 . S
O496 Fe487 1.935 . S
O496 C503 1.421 . S
C497 O493 1.381 . S
C497 O494 1.421 . S
O498 Fe487 2.077 . S
O498 C510 1.381 . S
O499 Fe482 1.935 . S
O499 C510 1.421 . S
O500 Fe480 2.077 . S
O500 C488 1.381 . S
O501 Fe483 1.935 1_565 S
O501 C488 1.421 . S
C502 O489 1.381 . S
C502 O490 1.421 . S
C503 O495 1.381 . S
C503 O496 1.421 . S
C504 O505 1.381 . S
C504 O506 1.421 . S
O505 Fe483 2.077 . S
O505 C504 1.381 . S
O506 Fe487 1.935 . S
O506 C504 1.421 . S
C507 O491 1.381 . S
C507 O492 1.421 . S
O508 Fe482 2.077 1_565 S
O508 C511 1.381 . S
O509 Fe480 1.935 . S
O509 C511 1.421 . S
C510 O498 1.381 . S
C510 O499 1.421 . S
C511 O508 1.381 . S
C511 O509 1.421 . S
C512 C513 1.349 . S
C512 C514 1.327 . S
C512 H537 0.950 . S
C513 C512 1.349 . S
C513 C529 1.349 . S
C514 C512 1.327 . S
C514 C533 1.429 . S
C514 H538 0.950 . S
C515 C532 1.574 . S
C515 C534 1.368 . S
C515 H539 0.949 . S
H516 C520 0.949 . S
C517 C518 1.349 . S
C517 C519 1.327 . S
C517 H540 0.950 . S
C518 C517 1.349 . S
C518 C530 1.349 . S
C519 C517 1.327 . S
C519 C535 1.429 . S
C519 H541 0.950 . S
C520 H516 0.949 . S
C520 C528 1.574 . S
C520 C536 1.368 . S
H521 C529 0.950 . S
H522 C527 0.950 . S
H523 C528 0.949 . S
H524 C530 0.950 . S
H525 C531 0.950 . S
H526 C532 0.949 . S
C527 H522 0.950 . S
C527 C529 1.327 . S
C527 C533 1.429 . S
C528 C520 1.574 . S
C528 H523 0.949 . S
C528 C534 1.368 . S
C529 C513 1.349 . S
C529 H521 0.950 . S
C529 C527 1.327 . S
C530 C518 1.349 . S
C530 H524 0.950 . S
C530 C531 1.327 . S
C531 H525 0.950 . S
C531 C530 1.327 . S
C531 C535 1.429 . S
C532 C515 1.574 . S
C532 H526 0.949 . S
C532 C536 1.368 . S
C533 C514 1.429 . S
C533 C527 1.429 . S
C533 C534 1.523 . S
C534 C515 1.368 . S
C534 C528 1.368 . S
C534 C533 1.523 . S
C535 C519 1.429 . S
C535 C531 1.429 . S
C535 C536 1.523 . S
C536 C520 1.368 . S
C536 C532 1.368 . S
C536 C535 1.523 . S
H537 C512 0.950 . S
H538 C514 0.950 . S
H539 C515 0.949 . S
H540 C517 0.950 . S
H541 C519 0.950 . S
C542 C543 1.349 . S
C542 C544 1.327 . S
C542 H567 0.950 . S
C543 C542 1.349 . S
C543 C559 1.349 . S
C544 C542 1.327 . S
C544 C563 1.429 . S
C544 H568 0.950 . S
C545 C562 1.574 . S
C545 C564 1.368 . S
C545 H569 0.949 . S
H546 C550 0.949 . S
C547 C548 1.349 . S
C547 C549 1.327 . S
C547 H570 0.950 . S
C548 C547 1.349 . S
C548 C560 1.349 . S
C549 C547 1.327 . S
C549 C565 1.429 . S
C549 H571 0.950 . S
C550 H546 0.949 . S
C550 C558 1.574 . S
C550 C566 1.368 . S
H551 C559 0.950 . S
H552 C557 0.950 . S
H553 C558 0.949 . S
H554 C560 0.950 . S
H555 C561 0.950 . S
H556 C562 0.949 . S
C557 H552 0.950 . S
C557 C559 1.327 . S
C557 C563 1.429 . S
C558 C550 1.574 . S
C558 H553 0.949 . S
C558 C564 1.368 . S
C559 C543 1.349 . S
C559 H551 0.950 . S
C559 C557 1.327 . S
C560 C548 1.349 . S
C560 H554 0.950 . S
C560 C561 1.327 . S
C561 H555 0.950 . S
C561 C560 1.327 . S
C561 C565 1.429 . S
C562 C545 1.574 . S
C562 H556 0.949 . S
C562 C566 1.368 . S
C563 C544 1.429 . S
C563 C557 1.429 . S
C563 C564 1.523 . S
C564 C545 1.368 . S
C564 C558 1.368 . S
C564 C563 1.523 . S
C565 C549 1.429 . S
C565 C561 1.429 . S
C565 C566 1.523 . S
C566 C550 1.368 . S
C566 C562 1.368 . S
C566 C565 1.523 . S
H567 C542 0.950 . S
H568 C544 0.950 . S
H569 C545 0.949 . S
H570 C547 0.950 . S
H571 C549 0.950 . S
C572 C573 1.349 . S
C572 C574 1.327 . S
C572 H597 0.950 . S
C573 C572 1.349 . S
C573 C589 1.349 . S
C574 C572 1.327 . S
C574 C593 1.429 . S
C574 H598 0.950 . S
C575 C592 1.574 . S
C575 C594 1.368 . S
C575 H599 0.949 . S
H576 C580 0.949 . S
C577 C578 1.349 . S
C577 C579 1.327 . S
C577 H600 0.950 . S
C578 C577 1.349 . S
C578 C590 1.349 . S
C579 C577 1.327 . S
C579 C595 1.429 . S
C579 H601 0.950 . S
C580 H576 0.949 . S
C580 C588 1.574 . S
C580 C596 1.368 . S
H581 C589 0.950 . S
H582 C587 0.950 . S
H583 C588 0.949 . S
H584 C590 0.950 . S
H585 C591 0.950 . S
H586 C592 0.949 . S
C587 H582 0.950 . S
C587 C589 1.327 . S
C587 C593 1.429 . S
C588 C580 1.574 . S
C588 H583 0.949 . S
C588 C594 1.368 . S
C589 C573 1.349 . S
C589 H581 0.950 . S
C589 C587 1.327 . S
C590 C578 1.349 . S
C590 H584 0.950 . S
C590 C591 1.327 . S
C591 H585 0.950 . S
C591 C590 1.327 . S
C591 C595 1.429 . S
C592 C575 1.574 . S
C592 H586 0.949 . S
C592 C596 1.368 . S
C593 C574 1.429 . S
C593 C587 1.429 . S
C593 C594 1.523 . S
C594 C575 1.368 . S
C594 C588 1.368 . S
C594 C593 1.523 . S
C595 C579 1.429 . S
C595 C591 1.429 . S
C595 C596 1.523 . S
C596 C580 1.368 . S
C596 C592 1.368 . S
C596 C595 1.523 . S
H597 C572 0.950 . S
H598 C574 0.950 . S
H599 C575 0.949 . S
H600 C577 0.950 . S
H601 C579 0.950 . S
C602 C603 1.349 . S
C602 C604 1.327 . S
C602 H627 0.950 . S
C603 C602 1.349 . S
C603 C619 1.349 . S
C604 C602 1.327 . S
C604 C623 1.429 . S
C604 H628 0.950 . S
C605 C622 1.574 . S
C605 C624 1.368 . S
C605 H629 0.949 . S
H606 C610 0.949 . S
C607 C608 1.349 . S
C607 C609 1.327 . S
C607 H630 0.950 . S
C608 C607 1.349 . S
C608 C620 1.349 . S
C609 C607 1.327 . S
C609 C625 1.429 . S
C609 H631 0.950 . S
C610 H606 0.949 . S
C610 C618 1.574 . S
C610 C626 1.368 . S
H611 C619 0.950 . S
H612 C617 0.950 . S
H613 C618 0.949 . S
H614 C620 0.950 . S
H615 C621 0.950 . S
H616 C622 0.949 . S
C617 H612 0.950 . S
C617 C619 1.327 . S
C617 C623 1.429 . S
C618 C610 1.574 . S
C618 H613 0.949 . S
C618 C624 1.368 . S
C619 C603 1.349 . S
C619 H611 0.950 . S
C619 C617 1.327 . S
C620 C608 1.349 . S
C620 H614 0.950 . S
C620 C621 1.327 . S
C621 H615 0.950 . S
C621 C620 1.327 . S
C621 C625 1.429 . S
C622 C605 1.574 . S
C622 H616 0.949 . S
C622 C626 1.368 . S
C623 C604 1.429 . S
C623 C617 1.429 . S
C623 C624 1.523 . S
C624 C605 1.368 . S
C624 C618 1.368 . S
C624 C623 1.523 . S
C625 C609 1.429 . S
C625 C621 1.429 . S
C625 C626 1.523 . S
C626 C610 1.368 . S
C626 C622 1.368 . S
C626 C625 1.523 . S
H627 C602 0.950 . S
H628 C604 0.950 . S
H629 C605 0.949 . S
H630 C607 0.950 . S
H631 C609 0.950 . S
C632 C633 1.349 . S
C632 C634 1.327 . S
C632 H657 0.950 . S
C633 C632 1.349 . S
C633 C649 1.349 . S
C634 C632 1.327 . S
C634 C653 1.429 . S
C634 H658 0.950 . S
C635 C652 1.574 . S
C635 C654 1.368 . S
C635 H659 0.949 . S
H636 C640 0.949 . S
C637 C638 1.349 . S
C637 C639 1.327 . S
C637 H660 0.950 . S
C638 C637 1.349 . S
C638 C650 1.349 . S
C639 C637 1.327 . S
C639 C655 1.429 . S
C639 H661 0.950 . S
C640 H636 0.949 . S
C640 C648 1.574 . S
C640 C656 1.368 . S
H641 C649 0.950 . S
H642 C647 0.950 . S
H643 C648 0.949 . S
H644 C650 0.950 . S
H645 C651 0.950 . S
H646 C652 0.949 . S
C647 H642 0.950 . S
C647 C649 1.327 . S
C647 C653 1.429 . S
C648 C640 1.574 . S
C648 H643 0.949 . S
C648 C654 1.368 . S
C649 C633 1.349 . S
C649 H641 0.950 . S
C649 C647 1.327 . S
C650 C638 1.349 . S
C650 H644 0.950 . S
C650 C651 1.327 . S
C651 H645 0.950 . S
C651 C650 1.327 . S
C651 C655 1.429 . S
C652 C635 1.574 . S
C652 H646 0.949 . S
C652 C656 1.368 . S
C653 C634 1.429 . S
C653 C647 1.429 . S
C653 C654 1.523 . S
C654 C635 1.368 . S
C654 C648 1.368 . S
C654 C653 1.523 . S
C655 C639 1.429 . S
C655 C651 1.429 . S
C655 C656 1.523 . S
C656 C640 1.368 . S
C656 C652 1.368 . S
C656 C655 1.523 . S
H657 C632 0.950 . S
H658 C634 0.950 . S
H659 C635 0.949 . S
H660 C637 0.950 . S
H661 C639 0.950 . S
C662 C663 1.349 . S
C662 C664 1.327 . S
C662 H687 0.950 . S
C663 C662 1.349 . S
C663 C679 1.349 . S
C664 C662 1.327 . S
C664 C683 1.429 . S
C664 H688 0.950 . S
C665 C682 1.574 . S
C665 C684 1.368 . S
C665 H689 0.949 . S
H666 C670 0.949 . S
C667 C668 1.349 . S
C667 C669 1.327 . S
C667 H690 0.950 . S
C668 C667 1.349 . S
C668 C680 1.349 . S
C669 C667 1.327 . S
C669 C685 1.429 . S
C669 H691 0.950 . S
C670 H666 0.949 . S
C670 C678 1.574 . S
C670 C686 1.368 . S
H671 C679 0.950 . S
H672 C677 0.950 . S
H673 C678 0.949 . S
H674 C680 0.950 . S
H675 C681 0.950 . S
H676 C682 0.949 . S
C677 H672 0.950 . S
C677 C679 1.327 . S
C677 C683 1.429 . S
C678 C670 1.574 . S
C678 H673 0.949 . S
C678 C684 1.368 . S
C679 C663 1.349 . S
C679 H671 0.950 . S
C679 C677 1.327 . S
C680 C668 1.349 . S
C680 H674 0.950 . S
C680 C681 1.327 . S
C681 H675 0.950 . S
C681 C680 1.327 . S
C681 C685 1.429 . S
C682 C665 1.574 . S
C682 H676 0.949 . S
C682 C686 1.368 . S
C683 C664 1.429 . S
C683 C677 1.429 . S
C683 C684 1.523 . S
C684 C665 1.368 . S
C684 C678 1.368 . S
C684 C683 1.523 . S
C685 C669 1.429 . S
C685 C681 1.429 . S
C685 C686 1.523 . S
C686 C670 1.368 . S
C686 C682 1.368 . S
C686 C685 1.523 . S
H687 C662 0.950 . S
H688 C664 0.950 . S
H689 C665 0.949 . S
H690 C667 0.950 . S
H691 C669 0.950 . S
C692 C693 1.349 . S
C692 C694 1.327 . S
C692 H717 0.950 . S
C693 C692 1.349 . S
C693 C709 1.349 . S
C694 C692 1.327 . S
C694 C713 1.429 . S
C694 H718 0.950 . S
C695 C712 1.574 . S
C695 C714 1.368 . S
C695 H719 0.949 . S
H696 C700 0.949 . S
C697 C698 1.349 . S
C697 C699 1.327 . S
C697 H720 0.950 . S
C698 C697 1.349 . S
C698 C710 1.349 . S
C699 C697 1.327 . S
C699 C715 1.429 . S
C699 H721 0.950 . S
C700 H696 0.949 . S
C700 C708 1.574 . S
C700 C716 1.368 . S
H701 C709 0.950 . S
H702 C707 0.950 . S
H703 C708 0.949 . S
H704 C710 0.950 . S
H705 C711 0.950 . S
H706 C712 0.949 . S
C707 H702 0.950 . S
C707 C709 1.327 . S
C707 C713 1.429 . S
C708 C700 1.574 . S
C708 H703 0.949 . S
C708 C714 1.368 . S
C709 C693 1.349 . S
C709 H701 0.950 . S
C709 C707 1.327 . S
C710 C698 1.349 . S
C710 H704 0.950 . S
C710 C711 1.327 . S
C711 H705 0.950 . S
C711 C710 1.327 . S
C711 C715 1.429 . S
C712 C695 1.574 . S
C712 H706 0.949 . S
C712 C716 1.368 . S
C713 C694 1.429 . S
C713 C707 1.429 . S
C713 C714 1.523 . S
C714 C695 1.368 . S
C714 C708 1.368 . S
C714 C713 1.523 . S
C715 C699 1.429 . S
C715 C711 1.429 . S
C715 C716 1.523 . S
C716 C700 1.368 . S
C716 C712 1.368 . S
C716 C715 1.523 . S
H717 C692 0.950 . S
H718 C694 0.950 . S
H719 C695 0.949 . S
H720 C697 0.950 . S
H721 C699 0.950 . S
C722 C723 1.349 . S
C722 C724 1.327 . S
C722 H747 0.950 . S
C723 C722 1.349 . S
C723 C739 1.349 . S
C724 C722 1.327 . S
C724 C743 1.429 . S
C724 H748 0.950 . S
C725 C742 1.574 . S
C725 C744 1.368 . S
C725 H749 0.949 . S
H726 C730 0.949 . S
C727 C728 1.349 . S
C727 C729 1.327 . S
C727 H750 0.950 . S
C728 C727 1.349 . S
C728 C740 1.349 . S
C729 C727 1.327 . S
C729 C745 1.429 . S
C729 H751 0.950 . S
C730 H726 0.949 . S
C730 C738 1.574 . S
C730 C746 1.368 . S
H731 C739 0.950 . S
H732 C737 0.950 . S
H733 C738 0.949 . S
H734 C740 0.950 . S
H735 C741 0.950 . S
H736 C742 0.949 . S
C737 H732 0.950 . S
C737 C739 1.327 . S
C737 C743 1.429 . S
C738 C730 1.574 . S
C738 H733 0.949 . S
C738 C744 1.368 . S
C739 C723 1.349 . S
C739 H731 0.950 . S
C739 C737 1.327 . S
C740 C728 1.349 . S
C740 H734 0.950 . S
C740 C741 1.327 . S
C741 H735 0.950 . S
C741 C740 1.327 . S
C741 C745 1.429 . S
C742 C725 1.574 . S
C742 H736 0.949 . S
C742 C746 1.368 . S
C743 C724 1.429 . S
C743 C737 1.429 . S
C743 C744 1.523 . S
C744 C725 1.368 . S
C744 C738 1.368 . S
C744 C743 1.523 . S
C745 C729 1.429 . S
C745 C741 1.429 . S
C745 C746 1.523 . S
C746 C730 1.368 . S
C746 C742 1.368 . S
C746 C745 1.523 . S
H747 C722 0.950 . S
H748 C724 0.950 . S
H749 C725 0.949 . S
H750 C727 0.950 . S
H751 C729 0.950 . S
C752 C753 1.349 . S
C752 C754 1.327 . S
C752 H777 0.950 . S
C753 C752 1.349 . S
C753 C769 1.349 . S
C754 C752 1.327 . S
C754 C773 1.429 . S
C754 H778 0.950 . S
C755 C772 1.574 . S
C755 C774 1.368 . S
C755 H779 0.949 . S
H756 C760 0.949 . S
C757 C758 1.349 . S
C757 C759 1.327 . S
C757 H780 0.950 . S
C758 C757 1.349 . S
C758 C770 1.349 . S
C759 C757 1.327 . S
C759 C775 1.429 . S
C759 H781 0.950 . S
C760 H756 0.949 . S
C760 C768 1.574 . S
C760 C776 1.368 . S
H761 C769 0.950 . S
H762 C767 0.950 . S
H763 C768 0.949 . S
H764 C770 0.950 . S
H765 C771 0.950 . S
H766 C772 0.949 . S
C767 H762 0.950 . S
C767 C769 1.327 . S
C767 C773 1.429 . S
C768 C760 1.574 . S
C768 H763 0.949 . S
C768 C774 1.368 . S
C769 C753 1.349 . S
C769 H761 0.950 . S
C769 C767 1.327 . S
C770 C758 1.349 . S
C770 H764 0.950 . S
C770 C771 1.327 . S
C771 H765 0.950 . S
C771 C770 1.327 . S
C771 C775 1.429 . S
C772 C755 1.574 . S
C772 H766 0.949 . S
C772 C776 1.368 . S
C773 C754 1.429 . S
C773 C767 1.429 . S
C773 C774 1.523 . S
C774 C755 1.368 . S
C774 C768 1.368 . S
C774 C773 1.523 . S
C775 C759 1.429 . S
C775 C771 1.429 . S
C775 C776 1.523 . S
C776 C760 1.368 . S
C776 C772 1.368 . S
C776 C775 1.523 . S
H777 C752 0.950 . S
H778 C754 0.950 . S
H779 C755 0.949 . S
H780 C757 0.950 . S
H781 C759 0.950 . S
C782 C783 1.349 . S
C782 C784 1.327 . S
C782 H807 0.950 . S
C783 C782 1.349 . S
C783 C799 1.349 . S
C784 C782 1.327 . S
C784 C803 1.429 . S
C784 H808 0.950 . S
C785 C802 1.574 . S
C785 C804 1.368 . S
C785 H809 0.949 . S
H786 C790 0.949 . S
C787 C788 1.349 . S
C787 C789 1.327 . S
C787 H810 0.950 . S
C788 C787 1.349 . S
C788 C800 1.349 . S
C789 C787 1.327 . S
C789 C805 1.429 . S
C789 H811 0.950 . S
C790 H786 0.949 . S
C790 C798 1.574 . S
C790 C806 1.368 . S
H791 C799 0.950 . S
H792 C797 0.950 . S
H793 C798 0.949 . S
H794 C800 0.950 . S
H795 C801 0.950 . S
H796 C802 0.949 . S
C797 H792 0.950 . S
C797 C799 1.327 . S
C797 C803 1.429 . S
C798 C790 1.574 . S
C798 H793 0.949 . S
C798 C804 1.368 . S
C799 C783 1.349 . S
C799 H791 0.950 . S
C799 C797 1.327 . S
C800 C788 1.349 . S
C800 H794 0.950 . S
C800 C801 1.327 . S
C801 H795 0.950 . S
C801 C800 1.327 . S
C801 C805 1.429 . S
C802 C785 1.574 . S
C802 H796 0.949 . S
C802 C806 1.368 . S
C803 C784 1.429 . S
C803 C797 1.429 . S
C803 C804 1.523 . S
C804 C785 1.368 . S
C804 C798 1.368 . S
C804 C803 1.523 . S
C805 C789 1.429 . S
C805 C801 1.429 . S
C805 C806 1.523 . S
C806 C790 1.368 . S
C806 C802 1.368 . S
C806 C805 1.523 . S
H807 C782 0.950 . S
H808 C784 0.950 . S
H809 C785 0.949 . S
H810 C787 0.950 . S
H811 C789 0.950 . S
C812 C813 1.349 . S
C812 C814 1.327 . S
C812 H837 0.950 . S
C813 C812 1.349 . S
C813 C829 1.349 . S
C814 C812 1.327 . S
C814 C833 1.429 . S
C814 H838 0.950 . S
C815 C832 1.574 . S
C815 C834 1.368 . S
C815 H839 0.949 . S
H816 C820 0.949 . S
C817 C818 1.349 1_545 S
C817 C819 1.327 1_545 S
C817 H840 0.950 . S
C818 C817 1.349 1_565 S
C818 C830 1.349 . S
C819 C817 1.327 1_565 S
C819 C835 1.429 . S
C819 H841 0.950 . S
C820 H816 0.949 . S
C820 C828 1.574 . S
C820 C836 1.368 . S
H821 C829 0.950 . S
H822 C827 0.950 . S
H823 C828 0.949 . S
H824 C830 0.950 . S
H825 C831 0.950 . S
H826 C832 0.949 . S
C827 H822 0.950 . S
C827 C829 1.327 . S
C827 C833 1.429 . S
C828 C820 1.574 . S
C828 H823 0.949 . S
C828 C834 1.368 . S
C829 C813 1.349 . S
C829 H821 0.950 . S
C829 C827 1.327 . S
C830 C818 1.349 . S
C830 H824 0.950 . S
C830 C831 1.327 . S
C831 H825 0.950 . S
C831 C830 1.327 . S
C831 C835 1.429 . S
C832 C815 1.574 . S
C832 H826 0.949 . S
C832 C836 1.368 . S
C833 C814 1.429 . S
C833 C827 1.429 . S
C833 C834 1.523 . S
C834 C815 1.368 . S
C834 C828 1.368 . S
C834 C833 1.523 . S
C835 C819 1.429 . S
C835 C831 1.429 . S
C835 C836 1.523 . S
C836 C820 1.368 . S
C836 C832 1.368 . S
C836 C835 1.523 . S
H837 C812 0.950 . S
H838 C814 0.950 . S
H839 C815 0.949 . S
H840 C817 0.950 . S
H841 C819 0.950 . S
C842 C843 1.349 . S
C842 C844 1.327 . S
C842 H867 0.950 . S
C843 C842 1.349 . S
C843 C859 1.349 . S
C844 C842 1.327 . S
C844 C863 1.429 . S
C844 H868 0.950 . S
C845 C862 1.574 . S
C845 C864 1.368 . S
C845 H869 0.949 . S
H846 C850 0.949 . S
C847 C848 1.349 . S
C847 C849 1.327 . S
C847 H870 0.950 . S
C848 C847 1.349 . S
C848 C860 1.349 . S
C849 C847 1.327 . S
C849 C865 1.429 . S
C849 H871 0.950 . S
C850 H846 0.949 . S
C850 C858 1.574 . S
C850 C866 1.368 . S
H851 C859 0.950 . S
H852 C857 0.950 . S
H853 C858 0.949 . S
H854 C860 0.950 . S
H855 C861 0.950 . S
H856 C862 0.949 . S
C857 H852 0.950 . S
C857 C859 1.327 . S
C857 C863 1.429 . S
C858 C850 1.574 . S
C858 H853 0.949 . S
C858 C864 1.368 . S
C859 C843 1.349 . S
C859 H851 0.950 . S
C859 C857 1.327 . S
C860 C848 1.349 . S
C860 H854 0.950 . S
C860 C861 1.327 . S
C861 H855 0.950 . S
C861 C860 1.327 . S
C861 C865 1.429 . S
C862 C845 1.574 . S
C862 H856 0.949 . S
C862 C866 1.368 . S
C863 C844 1.429 . S
C863 C857 1.429 . S
C863 C864 1.523 . S
C864 C845 1.368 . S
C864 C858 1.368 . S
C864 C863 1.523 . S
C865 C849 1.429 . S
C865 C861 1.429 . S
C865 C866 1.523 . S
C866 C850 1.368 . S
C866 C862 1.368 . S
C866 C865 1.523 . S
H867 C842 0.950 . S
H868 C844 0.950 . S
H869 C845 0.949 . S
H870 C847 0.950 . S
H871 C849 0.950 . S
C872 C873 1.349 . S
C872 C874 1.327 . S
C872 H897 0.950 . S
C873 C872 1.349 . S
C873 C889 1.349 . S
C874 C872 1.327 . S
C874 C893 1.429 . S
C874 H898 0.950 . S
C875 C892 1.574 . S
C875 C894 1.368 . S
C875 H899 0.949 . S
H876 C880 0.949 . S
C877 C878 1.349 . S
C877 C879 1.327 . S
C877 H900 0.950 . S
C878 C877 1.349 . S
C878 C890 1.349 . S
C879 C877 1.327 . S
C879 C895 1.429 . S
C879 H901 0.950 . S
C880 H876 0.949 . S
C880 C888 1.574 . S
C880 C896 1.368 . S
H881 C889 0.950 . S
H882 C887 0.950 . S
H883 C888 0.949 . S
H884 C890 0.950 . S
H885 C891 0.950 . S
H886 C892 0.949 . S
C887 H882 0.950 . S
C887 C889 1.327 . S
C887 C893 1.429 . S
C888 C880 1.574 . S
C888 H883 0.949 . S
C888 C894 1.368 . S
C889 C873 1.349 . S
C889 H881 0.950 . S
C889 C887 1.327 . S
C890 C878 1.349 . S
C890 H884 0.950 . S
C890 C891 1.327 . S
C891 H885 0.950 . S
C891 C890 1.327 . S
C891 C895 1.429 . S
C892 C875 1.574 . S
C892 H886 0.949 . S
C892 C896 1.368 . S
C893 C874 1.429 . S
C893 C887 1.429 . S
C893 C894 1.523 . S
C894 C875 1.368 . S
C894 C888 1.368 . S
C894 C893 1.523 . S
C895 C879 1.429 . S
C895 C891 1.429 . S
C895 C896 1.523 . S
C896 C880 1.368 . S
C896 C892 1.368 . S
C896 C895 1.523 . S
H897 C872 0.950 . S
H898 C874 0.950 . S
H899 C875 0.949 . S
H900 C877 0.950 . S
H901 C879 0.950 . S
C902 C903 1.349 . S
C902 C904 1.327 . S
C902 H927 0.950 . S
C903 C902 1.349 . S
C903 C919 1.349 . S
C904 C902 1.327 . S
C904 C923 1.429 . S
C904 H928 0.950 . S
C905 C922 1.574 . S
C905 C924 1.368 . S
C905 H929 0.949 . S
H906 C910 0.949 . S
C907 C908 1.349 . S
C907 C909 1.327 . S
C907 H930 0.950 1_556 S
C908 C907 1.349 . S
C908 C920 1.349 . S
C909 C907 1.327 . S
C909 C925 1.429 . S
C909 H931 0.950 . S
C910 H906 0.949 . S
C910 C918 1.574 . S
C910 C926 1.368 . S
H911 C919 0.950 . S
H912 C917 0.950 . S
H913 C918 0.949 . S
H914 C920 0.950 . S
H915 C921 0.950 . S
H916 C922 0.949 . S
C917 H912 0.950 . S
C917 C919 1.327 . S
C917 C923 1.429 . S
C918 C910 1.574 . S
C918 H913 0.949 . S
C918 C924 1.368 . S
C919 C903 1.349 . S
C919 H911 0.950 . S
C919 C917 1.327 . S
C920 C908 1.349 . S
C920 H914 0.950 . S
C920 C921 1.327 . S
C921 H915 0.950 . S
C921 C920 1.327 . S
C921 C925 1.429 . S
C922 C905 1.574 . S
C922 H916 0.949 . S
C922 C926 1.368 . S
C923 C904 1.429 . S
C923 C917 1.429 . S
C923 C924 1.523 . S
C924 C905 1.368 . S
C924 C918 1.368 . S
C924 C923 1.523 . S
C925 C909 1.429 . S
C925 C921 1.429 . S
C925 C926 1.523 . S
C926 C910 1.368 . S
C926 C922 1.368 . S
C926 C925 1.523 . S
H927 C902 0.950 . S
H928 C904 0.950 . S
H929 C905 0.949 . S
H930 C907 0.950 1_554 S
H931 C909 0.950 . S
C932 C933 1.349 . S
C932 C934 1.327 . S
C932 H957 0.950 . S
C933 C932 1.349 . S
C933 C949 1.349 . S
C934 C932 1.327 . S
C934 C953 1.429 . S
C934 H958 0.950 . S
C935 C952 1.574 . S
C935 C954 1.368 . S
C935 H959 0.949 . S
H936 C940 0.949 . S
C937 C938 1.349 . S
C937 C939 1.327 . S
C937 H960 0.950 . S
C938 C937 1.349 . S
C938 C950 1.349 . S
C939 C937 1.327 . S
C939 C955 1.429 . S
C939 H961 0.950 . S
C940 H936 0.949 . S
C940 C948 1.574 . S
C940 C956 1.368 . S
H941 C949 0.950 . S
H942 C947 0.950 . S
H943 C948 0.949 . S
H944 C950 0.950 . S
H945 C951 0.950 . S
H946 C952 0.949 . S
C947 H942 0.950 . S
C947 C949 1.327 . S
C947 C953 1.429 . S
C948 C940 1.574 . S
C948 H943 0.949 . S
C948 C954 1.368 . S
C949 C933 1.349 . S
C949 H941 0.950 . S
C949 C947 1.327 . S
C950 C938 1.349 . S
C950 H944 0.950 . S
C950 C951 1.327 . S
C951 H945 0.950 . S
C951 C950 1.327 . S
C951 C955 1.429 . S
C952 C935 1.574 . S
C952 H946 0.949 . S
C952 C956 1.368 . S
C953 C934 1.429 . S
C953 C947 1.429 . S
C953 C954 1.523 . S
C954 C935 1.368 . S
C954 C948 1.368 . S
C954 C953 1.523 . S
C955 C939 1.429 . S
C955 C951 1.429 . S
C955 C956 1.523 . S
C956 C940 1.368 . S
C956 C952 1.368 . S
C956 C955 1.523 . S
H957 C932 0.950 . S
H958 C934 0.950 . S
H959 C935 0.949 . S
H960 C937 0.950 . S
H961 C939 0.950 . S
C962 C963 1.349 . S
C962 C964 1.327 . S
C962 H987 0.950 . S
C963 C962 1.349 . S
C963 C979 1.349 . S
C964 C962 1.327 . S
C964 C983 1.429 . S
C964 H988 0.950 . S
C965 C982 1.574 . S
C965 C984 1.368 . S
C965 H989 0.949 . S
H966 C970 0.949 . S
C967 C968 1.349 . S
C967 C969 1.327 . S
C967 H990 0.950 . S
C968 C967 1.349 . S
C968 C980 1.349 . S
C969 C967 1.327 . S
C969 C985 1.429 . S
C969 H991 0.950 . S
C970 H966 0.949 . S
C970 C978 1.574 . S
C970 C986 1.368 . S
H971 C979 0.950 . S
H972 C977 0.950 . S
H973 C978 0.949 . S
H974 C980 0.950 . S
H975 C981 0.950 . S
H976 C982 0.949 . S
C977 H972 0.950 . S
C977 C979 1.327 . S
C977 C983 1.429 . S
C978 C970 1.574 . S
C978 H973 0.949 . S
C978 C984 1.368 . S
C979 C963 1.349 . S
C979 H971 0.950 . S
C979 C977 1.327 . S
C980 C968 1.349 . S
C980 H974 0.950 . S
C980 C981 1.327 . S
C981 H975 0.950 . S
C981 C980 1.327 . S
C981 C985 1.429 . S
C982 C965 1.574 . S
C982 H976 0.949 . S
C982 C986 1.368 . S
C983 C964 1.429 . S
C983 C977 1.429 . S
C983 C984 1.523 . S
C984 C965 1.368 . S
C984 C978 1.368 . S
C984 C983 1.523 . S
C985 C969 1.429 . S
C985 C981 1.429 . S
C985 C986 1.523 . S
C986 C970 1.368 . S
C986 C982 1.368 . S
C986 C985 1.523 . S
H987 C962 0.950 . S
H988 C964 0.950 . S
H989 C965 0.949 . S
H990 C967 0.950 . S
H991 C969 0.950 . S
C992 C993 1.349 . S
C992 C994 1.327 . S
C992 H1017 0.950 . S
C993 C992 1.349 . S
C993 C1009 1.349 . S
C994 C992 1.327 . S
C994 C1013 1.429 . S
C994 H1018 0.950 . S
C995 C1012 1.574 . S
C995 C1014 1.368 . S
C995 H1019 0.949 . S
H996 C1000 0.949 . S
C997 C998 1.349 . S
C997 C999 1.327 . S
C997 H1020 0.950 . S
C998 C997 1.349 . S
C998 C1010 1.349 . S
C999 C997 1.327 . S
C999 C1015 1.429 . S
C999 H1021 0.950 . S
C1000 H996 0.949 . S
C1000 C1008 1.574 . S
C1000 C1016 1.368 . S
H1001 C1009 0.950 . S
H1002 C1007 0.950 . S
H1003 C1008 0.949 . S
H1004 C1010 0.950 . S
H1005 C1011 0.950 . S
H1006 C1012 0.949 . S
C1007 H1002 0.950 . S
C1007 C1009 1.327 . S
C1007 C1013 1.429 . S
C1008 C1000 1.574 . S
C1008 H1003 0.949 . S
C1008 C1014 1.368 . S
C1009 C993 1.349 . S
C1009 H1001 0.950 . S
C1009 C1007 1.327 . S
C1010 C998 1.349 . S
C1010 H1004 0.950 . S
C1010 C1011 1.327 . S
C1011 H1005 0.950 . S
C1011 C1010 1.327 . S
C1011 C1015 1.429 . S
C1012 C995 1.574 . S
C1012 H1006 0.949 . S
C1012 C1016 1.368 . S
C1013 C994 1.429 . S
C1013 C1007 1.429 . S
C1013 C1014 1.523 . S
C1014 C995 1.368 . S
C1014 C1008 1.368 . S
C1014 C1013 1.523 . S
C1015 C999 1.429 . S
C1015 C1011 1.429 . S
C1015 C1016 1.523 . S
C1016 C1000 1.368 . S
C1016 C1012 1.368 . S
C1016 C1015 1.523 . S
H1017 C992 0.950 . S
H1018 C994 0.950 . S
H1019 C995 0.949 . S
H1020 C997 0.950 . S
H1021 C999 0.950 . S
C1022 C1023 1.349 . S
C1022 C1024 1.327 . S
C1022 H1047 0.950 . S
C1023 C1022 1.349 . S
C1023 C1039 1.349 . S
C1024 C1022 1.327 . S
C1024 C1043 1.429 . S
C1024 H1048 0.950 . S
C1025 C1042 1.574 . S
C1025 C1044 1.368 . S
C1025 H1049 0.949 . S
H1026 C1030 0.949 . S
C1027 C1028 1.349 1_554 S
C1027 C1029 1.327 1_554 S
C1027 H1050 0.950 . S
C1028 C1027 1.349 1_556 S
C1028 C1040 1.349 . S
C1029 C1027 1.327 1_556 S
C1029 C1045 1.429 . S
C1029 H1051 0.950 . S
C1030 H1026 0.949 . S
C1030 C1038 1.574 . S
C1030 C1046 1.368 . S
H1031 C1039 0.950 . S
H1032 C1037 0.950 . S
H1033 C1038 0.949 . S
H1034 C1040 0.950 . S
H1035 C1041 0.950 . S
H1036 C1042 0.949 . S
C1037 H1032 0.950 . S
C1037 C1039 1.327 . S
C1037 C1043 1.429 . S
C1038 C1030 1.574 . S
C1038 H1033 0.949 . S
C1038 C1044 1.368 . S
C1039 C1023 1.349 . S
C1039 H1031 0.950 . S
C1039 C1037 1.327 . S
C1040 C1028 1.349 . S
C1040 H1034 0.950 . S
C1040 C1041 1.327 . S
C1041 H1035 0.950 . S
C1041 C1040 1.327 . S
C1041 C1045 1.429 . S
C1042 C1025 1.574 . S
C1042 H1036 0.949 . S
C1042 C1046 1.368 . S
C1043 C1024 1.429 . S
C1043 C1037 1.429 . S
C1043 C1044 1.523 . S
C1044 C1025 1.368 . S
C1044 C1038 1.368 . S
C1044 C1043 1.523 . S
C1045 C1029 1.429 . S
C1045 C1041 1.429 . S
C1045 C1046 1.523 . S
C1046 C1030 1.368 . S
C1046 C1042 1.368 . S
C1046 C1045 1.523 . S
H1047 C1022 0.950 . S
H1048 C1024 0.950 . S
H1049 C1025 0.949 . S
H1050 C1027 0.950 . S
H1051 C1029 0.950 . S
C1052 C1053 1.349 . S
C1052 C1054 1.327 . S
C1052 H1077 0.950 . S
C1053 C1052 1.349 . S
C1053 C1069 1.349 . S
C1054 C1052 1.327 . S
C1054 C1073 1.429 . S
C1054 H1078 0.950 . S
C1055 C1072 1.574 . S
C1055 C1074 1.368 . S
C1055 H1079 0.949 . S
H1056 C1060 0.949 . S
C1057 C1058 1.349 . S
C1057 C1059 1.327 . S
C1057 H1080 0.950 . S
C1058 C1057 1.349 . S
C1058 C1070 1.349 . S
C1059 C1057 1.327 . S
C1059 C1075 1.429 . S
C1059 H1081 0.950 . S
C1060 H1056 0.949 . S
C1060 C1068 1.574 . S
C1060 C1076 1.368 . S
H1061 C1069 0.950 . S
H1062 C1067 0.950 . S
H1063 C1068 0.949 . S
H1064 C1070 0.950 . S
H1065 C1071 0.950 . S
H1066 C1072 0.949 . S
C1067 H1062 0.950 . S
C1067 C1069 1.327 . S
C1067 C1073 1.429 . S
C1068 C1060 1.574 . S
C1068 H1063 0.949 . S
C1068 C1074 1.368 . S
C1069 C1053 1.349 . S
C1069 H1061 0.950 . S
C1069 C1067 1.327 . S
C1070 C1058 1.349 . S
C1070 H1064 0.950 . S
C1070 C1071 1.327 . S
C1071 H1065 0.950 . S
C1071 C1070 1.327 . S
C1071 C1075 1.429 . S
C1072 C1055 1.574 . S
C1072 H1066 0.949 . S
C1072 C1076 1.368 . S
C1073 C1054 1.429 . S
C1073 C1067 1.429 . S
C1073 C1074 1.523 . S
C1074 C1055 1.368 . S
C1074 C1068 1.368 . S
C1074 C1073 1.523 . S
C1075 C1059 1.429 . S
C1075 C1071 1.429 . S
C1075 C1076 1.523 . S
C1076 C1060 1.368 . S
C1076 C1072 1.368 . S
C1076 C1075 1.523 . S
H1077 C1052 0.950 . S
H1078 C1054 0.950 . S
H1079 C1055 0.949 . S
H1080 C1057 0.950 . S
H1081 C1059 0.950 . S
C1082 C1083 1.349 . S
C1082 C1084 1.327 . S
C1082 H1107 0.950 . S
C1083 C1082 1.349 . S
C1083 C1099 1.349 . S
C1084 C1082 1.327 . S
C1084 C1103 1.429 . S
C1084 H1108 0.950 . S
C1085 C1102 1.574 . S
C1085 C1104 1.368 . S
C1085 H1109 0.949 . S
H1086 C1090 0.949 . S
C1087 C1088 1.349 . S
C1087 C1089 1.327 . S
C1087 H1110 0.950 . S
C1088 C1087 1.349 . S
C1088 C1100 1.349 . S
C1089 C1087 1.327 . S
C1089 C1105 1.429 . S
C1089 H1111 0.950 . S
C1090 H1086 0.949 . S
C1090 C1098 1.574 . S
C1090 C1106 1.368 . S
H1091 C1099 0.950 . S
H1092 C1097 0.950 . S
H1093 C1098 0.949 . S
H1094 C1100 0.950 . S
H1095 C1101 0.950 . S
H1096 C1102 0.949 . S
C1097 H1092 0.950 . S
C1097 C1099 1.327 . S
C1097 C1103 1.429 . S
C1098 C1090 1.574 . S
C1098 H1093 0.949 . S
C1098 C1104 1.368 . S
C1099 C1083 1.349 . S
C1099 H1091 0.950 . S
C1099 C1097 1.327 . S
C1100 C1088 1.349 . S
C1100 H1094 0.950 . S
C1100 C1101 1.327 . S
C1101 H1095 0.950 . S
C1101 C1100 1.327 . S
C1101 C1105 1.429 . S
C1102 C1085 1.574 . S
C1102 H1096 0.949 . S
C1102 C1106 1.368 . S
C1103 C1084 1.429 . S
C1103 C1097 1.429 . S
C1103 C1104 1.523 . S
C1104 C1085 1.368 . S
C1104 C1098 1.368 . S
C1104 C1103 1.523 . S
C1105 C1089 1.429 . S
C1105 C1101 1.429 . S
C1105 C1106 1.523 . S
C1106 C1090 1.368 . S
C1106 C1102 1.368 . S
C1106 C1105 1.523 . S
H1107 C1082 0.950 . S
H1108 C1084 0.950 . S
H1109 C1085 0.949 . S
H1110 C1087 0.950 . S
H1111 C1089 0.950 . S
C1112 C1113 1.349 . S
C1112 C1114 1.327 . S
C1112 H1137 0.950 . S
C1113 C1112 1.349 . S
C1113 C1129 1.349 . S
C1114 C1112 1.327 . S
C1114 C1133 1.429 . S
C1114 H1138 0.950 . S
C1115 C1132 1.574 . S
C1115 C1134 1.368 . S
C1115 H1139 0.949 . S
H1116 C1120 0.949 . S
C1117 C1118 1.349 . S
C1117 C1119 1.327 . S
C1117 H1140 0.950 1_565 S
C1118 C1117 1.349 . S
C1118 C1130 1.349 . S
C1119 C1117 1.327 . S
C1119 C1135 1.429 . S
C1119 H1141 0.950 . S
C1120 H1116 0.949 . S
C1120 C1128 1.574 . S
C1120 C1136 1.368 . S
H1121 C1129 0.950 . S
H1122 C1127 0.950 . S
H1123 C1128 0.949 . S
H1124 C1130 0.950 . S
H1125 C1131 0.950 . S
H1126 C1132 0.949 . S
C1127 H1122 0.950 . S
C1127 C1129 1.327 . S
C1127 C1133 1.429 . S
C1128 C1120 1.574 . S
C1128 H1123 0.949 . S
C1128 C1134 1.368 . S
C1129 C1113 1.349 . S
C1129 H1121 0.950 . S
C1129 C1127 1.327 . S
C1130 C1118 1.349 . S
C1130 H1124 0.950 . S
C1130 C1131 1.327 . S
C1131 H1125 0.950 . S
C1131 C1130 1.327 . S
C1131 C1135 1.429 . S
C1132 C1115 1.574 . S
C1132 H1126 0.949 . S
C1132 C1136 1.368 . S
C1133 C1114 1.429 . S
C1133 C1127 1.429 . S
C1133 C1134 1.523 . S
C1134 C1115 1.368 . S
C1134 C1128 1.368 . S
C1134 C1133 1.523 . S
C1135 C1119 1.429 . S
C1135 C1131 1.429 . S
C1135 C1136 1.523 . S
C1136 C1120 1.368 . S
C1136 C1132 1.368 . S
C1136 C1135 1.523 . S
H1137 C1112 0.950 . S
H1138 C1114 0.950 . S
H1139 C1115 0.949 . S
H1140 C1117 0.950 1_545 S
H1141 C1119 0.950 . S
C1142 C1143 1.349 . S
C1142 C1144 1.327 . S
C1142 H1167 0.950 . S
C1143 C1142 1.349 . S
C1143 C1159 1.349 . S
C1144 C1142 1.327 . S
C1144 C1163 1.429 . S
C1144 H1168 0.950 . S
C1145 C1162 1.574 . S
C1145 C1164 1.368 . S
C1145 H1169 0.949 . S
H1146 C1150 0.949 . S
C1147 C1148 1.349 . S
C1147 C1149 1.327 . S
C1147 H1170 0.950 . S
C1148 C1147 1.349 . S
C1148 C1160 1.349 . S
C1149 C1147 1.327 . S
C1149 C1165 1.429 . S
C1149 H1171 0.950 . S
C1150 H1146 0.949 . S
C1150 C1158 1.574 . S
C1150 C1166 1.368 . S
H1151 C1159 0.950 . S
H1152 C1157 0.950 . S
H1153 C1158 0.949 . S
H1154 C1160 0.950 . S
H1155 C1161 0.950 . S
H1156 C1162 0.949 . S
C1157 H1152 0.950 . S
C1157 C1159 1.327 . S
C1157 C1163 1.429 . S
C1158 C1150 1.574 . S
C1158 H1153 0.949 . S
C1158 C1164 1.368 . S
C1159 C1143 1.349 . S
C1159 H1151 0.950 . S
C1159 C1157 1.327 . S
C1160 C1148 1.349 . S
C1160 H1154 0.950 . S
C1160 C1161 1.327 . S
C1161 H1155 0.950 . S
C1161 C1160 1.327 . S
C1161 C1165 1.429 . S
C1162 C1145 1.574 . S
C1162 H1156 0.949 . S
C1162 C1166 1.368 . S
C1163 C1144 1.429 . S
C1163 C1157 1.429 . S
C1163 C1164 1.523 . S
C1164 C1145 1.368 . S
C1164 C1158 1.368 . S
C1164 C1163 1.523 . S
C1165 C1149 1.429 . S
C1165 C1161 1.429 . S
C1165 C1166 1.523 . S
C1166 C1150 1.368 . S
C1166 C1162 1.368 . S
C1166 C1165 1.523 . S
H1167 C1142 0.950 . S
H1168 C1144 0.950 . S
H1169 C1145 0.949 . S
H1170 C1147 0.950 . S
H1171 C1149 0.950 . S
C1172 C1173 1.349 . S
C1172 C1174 1.327 . S
C1172 H1197 0.950 . S
C1173 C1172 1.349 . S
C1173 C1189 1.349 . S
C1174 C1172 1.327 . S
C1174 C1193 1.429 . S
C1174 H1198 0.950 . S
C1175 C1192 1.574 . S
C1175 C1194 1.368 . S
C1175 H1199 0.949 . S
H1176 C1180 0.949 . S
C1177 C1178 1.349 . S
C1177 C1179 1.327 . S
C1177 H1200 0.950 . S
C1178 C1177 1.349 . S
C1178 C1190 1.349 . S
C1179 C1177 1.327 . S
C1179 C1195 1.429 . S
C1179 H1201 0.950 . S
C1180 H1176 0.949 . S
C1180 C1188 1.574 . S
C1180 C1196 1.368 . S
H1181 C1189 0.950 . S
H1182 C1187 0.950 . S
H1183 C1188 0.949 . S
H1184 C1190 0.950 . S
H1185 C1191 0.950 . S
H1186 C1192 0.949 . S
C1187 H1182 0.950 . S
C1187 C1189 1.327 . S
C1187 C1193 1.429 . S
C1188 C1180 1.574 . S
C1188 H1183 0.949 . S
C1188 C1194 1.368 . S
C1189 C1173 1.349 . S
C1189 H1181 0.950 . S
C1189 C1187 1.327 . S
C1190 C1178 1.349 . S
C1190 H1184 0.950 . S
C1190 C1191 1.327 . S
C1191 H1185 0.950 . S
C1191 C1190 1.327 . S
C1191 C1195 1.429 . S
C1192 C1175 1.574 . S
C1192 H1186 0.949 . S
C1192 C1196 1.368 . S
C1193 C1174 1.429 . S
C1193 C1187 1.429 . S
C1193 C1194 1.523 . S
C1194 C1175 1.368 . S
C1194 C1188 1.368 . S
C1194 C1193 1.523 . S
C1195 C1179 1.429 . S
C1195 C1191 1.429 . S
C1195 C1196 1.523 . S
C1196 C1180 1.368 . S
C1196 C1192 1.368 . S
C1196 C1195 1.523 . S
H1197 C1172 0.950 . S
H1198 C1174 0.950 . S
H1199 C1175 0.949 . S
H1200 C1177 0.950 . S
H1201 C1179 0.950 . S
C1202 C1203 1.349 . S
C1202 C1204 1.327 . S
C1202 H1227 0.950 . S
C1203 C1202 1.349 . S
C1203 C1219 1.349 . S
C1204 C1202 1.327 . S
C1204 C1223 1.429 . S
C1204 H1228 0.950 . S
C1205 C1222 1.574 . S
C1205 C1224 1.368 . S
C1205 H1229 0.949 . S
H1206 C1210 0.949 . S
C1207 C1208 1.349 . S
C1207 C1209 1.327 . S
C1207 H1230 0.950 . S
C1208 C1207 1.349 . S
C1208 C1220 1.349 . S
C1209 C1207 1.327 . S
C1209 C1225 1.429 . S
C1209 H1231 0.950 . S
C1210 H1206 0.949 . S
C1210 C1218 1.574 . S
C1210 C1226 1.368 . S
H1211 C1219 0.950 . S
H1212 C1217 0.950 . S
H1213 C1218 0.949 . S
H1214 C1220 0.950 . S
H1215 C1221 0.950 . S
H1216 C1222 0.949 . S
C1217 H1212 0.950 . S
C1217 C1219 1.327 . S
C1217 C1223 1.429 . S
C1218 C1210 1.574 . S
C1218 H1213 0.949 . S
C1218 C1224 1.368 . S
C1219 C1203 1.349 . S
C1219 H1211 0.950 . S
C1219 C1217 1.327 . S
C1220 C1208 1.349 . S
C1220 H1214 0.950 . S
C1220 C1221 1.327 . S
C1221 H1215 0.950 . S
C1221 C1220 1.327 . S
C1221 C1225 1.429 . S
C1222 C1205 1.574 . S
C1222 H1216 0.949 . S
C1222 C1226 1.368 . S
C1223 C1204 1.429 . S
C1223 C1217 1.429 . S
C1223 C1224 1.523 . S
C1224 C1205 1.368 . S
C1224 C1218 1.368 . S
C1224 C1223 1.523 . S
C1225 C1209 1.429 . S
C1225 C1221 1.429 . S
C1225 C1226 1.523 . S
C1226 C1210 1.368 . S
C1226 C1222 1.368 . S
C1226 C1225 1.523 . S
H1227 C1202 0.950 . S
H1228 C1204 0.950 . S
H1229 C1205 0.949 . S
H1230 C1207 0.950 . S
H1231 C1209 0.950 . S
C1232 C1233 1.349 . S
C1232 C1234 1.327 . S
C1232 H1257 0.950 . S
C1233 C1232 1.349 . S
C1233 C1249 1.349 . S
C1234 C1232 1.327 . S
C1234 C1253 1.429 . S
C1234 H1258 0.950 . S
C1235 C1252 1.574 . S
C1235 C1254 1.368 . S
C1235 H1259 0.949 . S
H1236 C1240 0.949 . S
C1237 C1238 1.349 . S
C1237 C1239 1.327 . S
C1237 H1260 0.950 . S
C1238 C1237 1.349 . S
C1238 C1250 1.349 . S
C1239 C1237 1.327 . S
C1239 C1255 1.429 . S
C1239 H1261 0.950 . S
C1240 H1236 0.949 . S
C1240 C1248 1.574 . S
C1240 C1256 1.368 . S
H1241 C1249 0.950 . S
H1242 C1247 0.950 . S
H1243 C1248 0.949 . S
H1244 C1250 0.950 . S
H1245 C1251 0.950 . S
H1246 C1252 0.949 . S
C1247 H1242 0.950 . S
C1247 C1249 1.327 . S
C1247 C1253 1.429 . S
C1248 C1240 1.574 . S
C1248 H1243 0.949 . S
C1248 C1254 1.368 . S
C1249 C1233 1.349 . S
C1249 H1241 0.950 . S
C1249 C1247 1.327 . S
C1250 C1238 1.349 . S
C1250 H1244 0.950 . S
C1250 C1251 1.327 . S
C1251 H1245 0.950 . S
C1251 C1250 1.327 . S
C1251 C1255 1.429 . S
C1252 C1235 1.574 . S
C1252 H1246 0.949 . S
C1252 C1256 1.368 . S
C1253 C1234 1.429 . S
C1253 C1247 1.429 . S
C1253 C1254 1.523 . S
C1254 C1235 1.368 . S
C1254 C1248 1.368 . S
C1254 C1253 1.523 . S
C1255 C1239 1.429 . S
C1255 C1251 1.429 . S
C1255 C1256 1.523 . S
C1256 C1240 1.368 . S
C1256 C1252 1.368 . S
C1256 C1255 1.523 . S
H1257 C1232 0.950 . S
H1258 C1234 0.950 . S
H1259 C1235 0.949 . S
H1260 C1237 0.950 . S
H1261 C1239 0.950 . S
C1262 C1263 1.349 . S
C1262 C1264 1.327 . S
C1262 H1287 0.950 . S
C1263 C1262 1.349 . S
C1263 C1279 1.349 . S
C1264 C1262 1.327 . S
C1264 C1283 1.429 . S
C1264 H1288 0.950 . S
C1265 C1282 1.574 . S
C1265 C1284 1.368 . S
C1265 H1289 0.949 . S
H1266 C1270 0.949 . S
C1267 C1268 1.349 . S
C1267 C1269 1.327 . S
C1267 H1290 0.950 . S
C1268 C1267 1.349 . S
C1268 C1280 1.349 . S
C1269 C1267 1.327 . S
C1269 C1285 1.429 . S
C1269 H1291 0.950 . S
C1270 H1266 0.949 . S
C1270 C1278 1.574 . S
C1270 C1286 1.368 . S
H1271 C1279 0.950 . S
H1272 C1277 0.950 . S
H1273 C1278 0.949 . S
H1274 C1280 0.950 . S
H1275 C1281 0.950 . S
H1276 C1282 0.949 . S
C1277 H1272 0.950 . S
C1277 C1279 1.327 . S
C1277 C1283 1.429 . S
C1278 C1270 1.574 . S
C1278 H1273 0.949 . S
C1278 C1284 1.368 . S
C1279 C1263 1.349 . S
C1279 H1271 0.950 . S
C1279 C1277 1.327 . S
C1280 C1268 1.349 . S
C1280 H1274 0.950 . S
C1280 C1281 1.327 . S
C1281 H1275 0.950 . S
C1281 C1280 1.327 . S
C1281 C1285 1.429 . S
C1282 C1265 1.574 . S
C1282 H1276 0.949 . S
C1282 C1286 1.368 . S
C1283 C1264 1.429 . S
C1283 C1277 1.429 . S
C1283 C1284 1.523 . S
C1284 C1265 1.368 . S
C1284 C1278 1.368 . S
C1284 C1283 1.523 . S
C1285 C1269 1.429 . S
C1285 C1281 1.429 . S
C1285 C1286 1.523 . S
C1286 C1270 1.368 . S
C1286 C1282 1.368 . S
C1286 C1285 1.523 . S
H1287 C1262 0.950 . S
H1288 C1264 0.950 . S
H1289 C1265 0.949 . S
H1290 C1267 0.950 . S
H1291 C1269 0.950 . S
C1292 C1293 1.349 . S
C1292 C1294 1.327 . S
C1292 H1317 0.950 . S
C1293 C1292 1.349 . S
C1293 C1309 1.349 . S
C1294 C1292 1.327 . S
C1294 C1313 1.429 . S
C1294 H1318 0.950 . S
C1295 C1312 1.574 . S
C1295 C1314 1.368 . S
C1295 H1319 0.949 . S
H1296 C1300 0.949 . S
C1297 C1298 1.349 . S
C1297 C1299 1.327 . S
C1297 H1320 0.950 . S
C1298 C1297 1.349 . S
C1298 C1310 1.349 . S
C1299 C1297 1.327 . S
C1299 C1315 1.429 . S
C1299 H1321 0.950 . S
C1300 H1296 0.949 . S
C1300 C1308 1.574 . S
C1300 C1316 1.368 . S
H1301 C1309 0.950 . S
H1302 C1307 0.950 . S
H1303 C1308 0.949 . S
H1304 C1310 0.950 . S
H1305 C1311 0.950 . S
H1306 C1312 0.949 . S
C1307 H1302 0.950 . S
C1307 C1309 1.327 . S
C1307 C1313 1.429 . S
C1308 C1300 1.574 . S
C1308 H1303 0.949 . S
C1308 C1314 1.368 . S
C1309 C1293 1.349 . S
C1309 H1301 0.950 . S
C1309 C1307 1.327 . S
C1310 C1298 1.349 . S
C1310 H1304 0.950 . S
C1310 C1311 1.327 . S
C1311 H1305 0.950 . S
C1311 C1310 1.327 . S
C1311 C1315 1.429 . S
C1312 C1295 1.574 . S
C1312 H1306 0.949 . S
C1312 C1316 1.368 . S
C1313 C1294 1.429 . S
C1313 C1307 1.429 . S
C1313 C1314 1.523 . S
C1314 C1295 1.368 . S
C1314 C1308 1.368 . S
C1314 C1313 1.523 . S
C1315 C1299 1.429 . S
C1315 C1311 1.429 . S
C1315 C1316 1.523 . S
C1316 C1300 1.368 . S
C1316 C1312 1.368 . S
C1316 C1315 1.523 . S
H1317 C1292 0.950 . S
H1318 C1294 0.950 . S
H1319 C1295 0.949 . S
H1320 C1297 0.950 . S
H1321 C1299 0.950 . S
C1322 C1323 1.349 . S
C1322 C1324 1.327 . S
C1322 H1347 0.950 . S
C1323 C1322 1.349 . S
C1323 C1339 1.349 . S
C1324 C1322 1.327 . S
C1324 C1343 1.429 . S
C1324 H1348 0.950 . S
C1325 C1342 1.574 . S
C1325 C1344 1.368 . S
C1325 H1349 0.949 . S
H1326 C1330 0.949 . S
C1327 C1328 1.349 . S
C1327 C1329 1.327 . S
C1327 H1350 0.950 . S
C1328 C1327 1.349 . S
C1328 C1340 1.349 . S
C1329 C1327 1.327 . S
C1329 C1345 1.429 . S
C1329 H1351 0.950 . S
C1330 H1326 0.949 . S
C1330 C1338 1.574 . S
C1330 C1346 1.368 . S
H1331 C1339 0.950 . S
H1332 C1337 0.950 . S
H1333 C1338 0.949 . S
H1334 C1340 0.950 . S
H1335 C1341 0.950 . S
H1336 C1342 0.949 . S
C1337 H1332 0.950 . S
C1337 C1339 1.327 . S
C1337 C1343 1.429 . S
C1338 C1330 1.574 . S
C1338 H1333 0.949 . S
C1338 C1344 1.368 . S
C1339 C1323 1.349 . S
C1339 H1331 0.950 . S
C1339 C1337 1.327 . S
C1340 C1328 1.349 . S
C1340 H1334 0.950 . S
C1340 C1341 1.327 . S
C1341 H1335 0.950 . S
C1341 C1340 1.327 . S
C1341 C1345 1.429 . S
C1342 C1325 1.574 . S
C1342 H1336 0.949 . S
C1342 C1346 1.368 . S
C1343 C1324 1.429 . S
C1343 C1337 1.429 . S
C1343 C1344 1.523 . S
C1344 C1325 1.368 . S
C1344 C1338 1.368 . S
C1344 C1343 1.523 . S
C1345 C1329 1.429 . S
C1345 C1341 1.429 . S
C1345 C1346 1.523 . S
C1346 C1330 1.368 . S
C1346 C1342 1.368 . S
C1346 C1345 1.523 . S
H1347 C1322 0.950 . S
H1348 C1324 0.950 . S
H1349 C1325 0.949 . S
H1350 C1327 0.950 . S
H1351 C1329 0.950 . S
C1352 C1353 1.349 . S
C1352 C1354 1.327 . S
C1352 H1377 0.950 . S
C1353 C1352 1.349 . S
C1353 C1369 1.349 . S
C1354 C1352 1.327 . S
C1354 C1373 1.429 . S
C1354 H1378 0.950 . S
C1355 C1372 1.574 . S
C1355 C1374 1.368 . S
C1355 H1379 0.949 . S
H1356 C1360 0.949 . S
C1357 C1358 1.349 . S
C1357 C1359 1.327 . S
C1357 H1380 0.950 . S
C1358 C1357 1.349 . S
C1358 C1370 1.349 . S
C1359 C1357 1.327 . S
C1359 C1375 1.429 . S
C1359 H1381 0.950 . S
C1360 H1356 0.949 . S
C1360 C1368 1.574 . S
C1360 C1376 1.368 . S
H1361 C1369 0.950 . S
H1362 C1367 0.950 . S
H1363 C1368 0.949 . S
H1364 C1370 0.950 . S
H1365 C1371 0.950 . S
H1366 C1372 0.949 . S
C1367 H1362 0.950 . S
C1367 C1369 1.327 . S
C1367 C1373 1.429 . S
C1368 C1360 1.574 . S
C1368 H1363 0.949 . S
C1368 C1374 1.368 . S
C1369 C1353 1.349 . S
C1369 H1361 0.950 . S
C1369 C1367 1.327 . S
C1370 C1358 1.349 . S
C1370 H1364 0.950 . S
C1370 C1371 1.327 . S
C1371 H1365 0.950 . S
C1371 C1370 1.327 . S
C1371 C1375 1.429 . S
C1372 C1355 1.574 . S
C1372 H1366 0.949 . S
C1372 C1376 1.368 . S
C1373 C1354 1.429 . S
C1373 C1367 1.429 . S
C1373 C1374 1.523 . S
C1374 C1355 1.368 . S
C1374 C1368 1.368 . S
C1374 C1373 1.523 . S
C1375 C1359 1.429 . S
C1375 C1371 1.429 . S
C1375 C1376 1.523 . S
C1376 C1360 1.368 . S
C1376 C1372 1.368 . S
C1376 C1375 1.523 . S
H1377 C1352 0.950 . S
H1378 C1354 0.950 . S
H1379 C1355 0.949 . S
H1380 C1357 0.950 . S
H1381 C1359 0.950 . S
C1382 C1383 1.349 . S
C1382 C1384 1.327 . S
C1382 H1407 0.950 . S
C1383 C1382 1.349 . S
C1383 C1399 1.349 . S
C1384 C1382 1.327 . S
C1384 C1403 1.429 . S
C1384 H1408 0.950 . S
C1385 C1402 1.574 . S
C1385 C1404 1.368 . S
C1385 H1409 0.949 . S
H1386 C1390 0.949 . S
C1387 C1388 1.349 . S
C1387 C1389 1.327 . S
C1387 H1410 0.950 . S
C1388 C1387 1.349 . S
C1388 C1400 1.349 . S
C1389 C1387 1.327 . S
C1389 C1405 1.429 . S
C1389 H1411 0.950 . S
C1390 H1386 0.949 . S
C1390 C1398 1.574 . S
C1390 C1406 1.368 . S
H1391 C1399 0.950 . S
H1392 C1397 0.950 . S
H1393 C1398 0.949 . S
H1394 C1400 0.950 . S
H1395 C1401 0.950 . S
H1396 C1402 0.949 . S
C1397 H1392 0.950 . S
C1397 C1399 1.327 . S
C1397 C1403 1.429 . S
C1398 C1390 1.574 . S
C1398 H1393 0.949 . S
C1398 C1404 1.368 . S
C1399 C1383 1.349 . S
C1399 H1391 0.950 . S
C1399 C1397 1.327 . S
C1400 C1388 1.349 . S
C1400 H1394 0.950 . S
C1400 C1401 1.327 . S
C1401 H1395 0.950 . S
C1401 C1400 1.327 . S
C1401 C1405 1.429 . S
C1402 C1385 1.574 . S
C1402 H1396 0.949 . S
C1402 C1406 1.368 . S
C1403 C1384 1.429 . S
C1403 C1397 1.429 . S
C1403 C1404 1.523 . S
C1404 C1385 1.368 . S
C1404 C1398 1.368 . S
C1404 C1403 1.523 . S
C1405 C1389 1.429 . S
C1405 C1401 1.429 . S
C1405 C1406 1.523 . S
C1406 C1390 1.368 . S
C1406 C1402 1.368 . S
C1406 C1405 1.523 . S
H1407 C1382 0.950 . S
H1408 C1384 0.950 . S
H1409 C1385 0.949 . S
H1410 C1387 0.950 . S
H1411 C1389 0.950 . S
C1412 C1413 1.349 . S
C1412 C1414 1.327 . S
C1412 H1437 0.950 . S
C1413 C1412 1.349 . S
C1413 C1429 1.349 . S
C1414 C1412 1.327 . S
C1414 C1433 1.429 . S
C1414 H1438 0.950 . S
C1415 C1432 1.574 . S
C1415 C1434 1.368 . S
C1415 H1439 0.949 . S
H1416 C1420 0.949 . S
C1417 C1418 1.349 . S
C1417 C1419 1.327 . S
C1417 H1440 0.950 . S
C1418 C1417 1.349 . S
C1418 C1430 1.349 . S
C1419 C1417 1.327 . S
C1419 C1435 1.429 . S
C1419 H1441 0.950 . S
C1420 H1416 0.949 . S
C1420 C1428 1.574 . S
C1420 C1436 1.368 . S
H1421 C1429 0.950 . S
H1422 C1427 0.950 . S
H1423 C1428 0.949 . S
H1424 C1430 0.950 . S
H1425 C1431 0.950 . S
H1426 C1432 0.949 . S
C1427 H1422 0.950 . S
C1427 C1429 1.327 . S
C1427 C1433 1.429 . S
C1428 C1420 1.574 . S
C1428 H1423 0.949 . S
C1428 C1434 1.368 . S
C1429 C1413 1.349 . S
C1429 H1421 0.950 . S
C1429 C1427 1.327 . S
C1430 C1418 1.349 . S
C1430 H1424 0.950 . S
C1430 C1431 1.327 . S
C1431 H1425 0.950 . S
C1431 C1430 1.327 . S
C1431 C1435 1.429 . S
C1432 C1415 1.574 . S
C1432 H1426 0.949 . S
C1432 C1436 1.368 . S
C1433 C1414 1.429 . S
C1433 C1427 1.429 . S
C1433 C1434 1.523 . S
C1434 C1415 1.368 . S
C1434 C1428 1.368 . S
C1434 C1433 1.523 . S
C1435 C1419 1.429 . S
C1435 C1431 1.429 . S
C1435 C1436 1.523 . S
C1436 C1420 1.368 . S
C1436 C1432 1.368 . S
C1436 C1435 1.523 . S
H1437 C1412 0.950 . S
H1438 C1414 0.950 . S
H1439 C1415 0.949 . S
H1440 C1417 0.950 . S
H1441 C1419 0.950 . S
C1442 C1443 1.349 . S
C1442 C1444 1.327 . S
C1442 H1467 0.950 . S
C1443 C1442 1.349 . S
C1443 C1459 1.349 . S
C1444 C1442 1.327 . S
C1444 C1463 1.429 . S
C1444 H1468 0.950 . S
C1445 C1462 1.574 . S
C1445 C1464 1.368 . S
C1445 H1469 0.949 . S
H1446 C1450 0.949 . S
C1447 C1448 1.349 . S
C1447 C1449 1.327 . S
C1447 H1470 0.950 . S
C1448 C1447 1.349 . S
C1448 C1460 1.349 . S
C1449 C1447 1.327 . S
C1449 C1465 1.429 . S
C1449 H1471 0.950 . S
C1450 H1446 0.949 . S
C1450 C1458 1.574 . S
C1450 C1466 1.368 . S
H1451 C1459 0.950 . S
H1452 C1457 0.950 . S
H1453 C1458 0.949 . S
H1454 C1460 0.950 . S
H1455 C1461 0.950 . S
H1456 C1462 0.949 . S
C1457 H1452 0.950 . S
C1457 C1459 1.327 . S
C1457 C1463 1.429 . S
C1458 C1450 1.574 . S
C1458 H1453 0.949 . S
C1458 C1464 1.368 . S
C1459 C1443 1.349 . S
C1459 H1451 0.950 . S
C1459 C1457 1.327 . S
C1460 C1448 1.349 . S
C1460 H1454 0.950 . S
C1460 C1461 1.327 . S
C1461 H1455 0.950 . S
C1461 C1460 1.327 . S
C1461 C1465 1.429 . S
C1462 C1445 1.574 . S
C1462 H1456 0.949 . S
C1462 C1466 1.368 . S
C1463 C1444 1.429 . S
C1463 C1457 1.429 . S
C1463 C1464 1.523 . S
C1464 C1445 1.368 . S
C1464 C1458 1.368 . S
C1464 C1463 1.523 . S
C1465 C1449 1.429 . S
C1465 C1461 1.429 . S
C1465 C1466 1.523 . S
C1466 C1450 1.368 . S
C1466 C1462 1.368 . S
C1466 C1465 1.523 . S
H1467 C1442 0.950 . S
H1468 C1444 0.950 . S
H1469 C1445 0.949 . S
H1470 C1447 0.950 . S
H1471 C1449 0.950 . S
C1472 C1473 1.349 . S
C1472 C1474 1.327 . S
C1472 H1497 0.950 . S
C1473 C1472 1.349 . S
C1473 C1489 1.349 . S
C1474 C1472 1.327 . S
C1474 C1493 1.429 . S
C1474 H1498 0.950 . S
C1475 C1492 1.574 . S
C1475 C1494 1.368 . S
C1475 H1499 0.949 . S
H1476 C1480 0.949 . S
C1477 C1478 1.349 . S
C1477 C1479 1.327 . S
C1477 H1500 0.950 . S
C1478 C1477 1.349 . S
C1478 C1490 1.349 . S
C1479 C1477 1.327 . S
C1479 C1495 1.429 . S
C1479 H1501 0.950 . S
C1480 H1476 0.949 . S
C1480 C1488 1.574 . S
C1480 C1496 1.368 . S
H1481 C1489 0.950 . S
H1482 C1487 0.950 . S
H1483 C1488 0.949 . S
H1484 C1490 0.950 . S
H1485 C1491 0.950 . S
H1486 C1492 0.949 . S
C1487 H1482 0.950 . S
C1487 C1489 1.327 . S
C1487 C1493 1.429 . S
C1488 C1480 1.574 . S
C1488 H1483 0.949 . S
C1488 C1494 1.368 . S
C1489 C1473 1.349 . S
C1489 H1481 0.950 . S
C1489 C1487 1.327 . S
C1490 C1478 1.349 . S
C1490 H1484 0.950 . S
C1490 C1491 1.327 . S
C1491 H1485 0.950 . S
C1491 C1490 1.327 . S
C1491 C1495 1.429 . S
C1492 C1475 1.574 . S
C1492 H1486 0.949 . S
C1492 C1496 1.368 . S
C1493 C1474 1.429 . S
C1493 C1487 1.429 . S
C1493 C1494 1.523 . S
C1494 C1475 1.368 . S
C1494 C1488 1.368 . S
C1494 C1493 1.523 . S
C1495 C1479 1.429 . S
C1495 C1491 1.429 . S
C1495 C1496 1.523 . S
C1496 C1480 1.368 . S
C1496 C1492 1.368 . S
C1496 C1495 1.523 . S
H1497 C1472 0.950 . S
H1498 C1474 0.950 . S
H1499 C1475 0.949 . S
H1500 C1477 0.950 . S
H1501 C1479 0.950 . S
C1502 C1503 1.349 . S
C1502 C1504 1.327 . S
C1502 H1527 0.950 . S
C1503 C1502 1.349 . S
C1503 C1519 1.349 . S
C1504 C1502 1.327 . S
C1504 C1523 1.429 . S
C1504 H1528 0.950 . S
C1505 C1522 1.574 . S
C1505 C1524 1.368 . S
C1505 H1529 0.949 . S
H1506 C1510 0.949 . S
C1507 C1508 1.349 . S
C1507 C1509 1.327 . S
C1507 H1530 0.950 . S
C1508 C1507 1.349 . S
C1508 C1520 1.349 . S
C1509 C1507 1.327 . S
C1509 C1525 1.429 . S
C1509 H1531 0.950 . S
C1510 H1506 0.949 . S
C1510 C1518 1.574 . S
C1510 C1526 1.368 . S
H1511 C1519 0.950 . S
H1512 C1517 0.950 . S
H1513 C1518 0.949 . S
H1514 C1520 0.950 . S
H1515 C1521 0.950 . S
H1516 C1522 0.949 . S
C1517 H1512 0.950 . S
C1517 C1519 1.327 . S
C1517 C1523 1.429 . S
C1518 C1510 1.574 . S
C1518 H1513 0.949 . S
C1518 C1524 1.368 . S
C1519 C1503 1.349 . S
C1519 H1511 0.950 . S
C1519 C1517 1.327 . S
C1520 C1508 1.349 . S
C1520 H1514 0.950 . S
C1520 C1521 1.327 . S
C1521 H1515 0.950 . S
C1521 C1520 1.327 . S
C1521 C1525 1.429 . S
C1522 C1505 1.574 . S
C1522 H1516 0.949 . S
C1522 C1526 1.368 . S
C1523 C1504 1.429 . S
C1523 C1517 1.429 . S
C1523 C1524 1.523 . S
C1524 C1505 1.368 . S
C1524 C1518 1.368 . S
C1524 C1523 1.523 . S
C1525 C1509 1.429 . S
C1525 C1521 1.429 . S
C1525 C1526 1.523 . S
C1526 C1510 1.368 . S
C1526 C1522 1.368 . S
C1526 C1525 1.523 . S
H1527 C1502 0.950 . S
H1528 C1504 0.950 . S
H1529 C1505 0.949 . S
H1530 C1507 0.950 . S
H1531 C1509 0.950 . S
C1532 C1533 1.349 . S
C1532 C1534 1.327 . S
C1532 H1557 0.950 . S
C1533 C1532 1.349 . S
C1533 C1549 1.349 . S
C1534 C1532 1.327 . S
C1534 C1553 1.429 . S
C1534 H1558 0.950 . S
C1535 C1552 1.574 . S
C1535 C1554 1.368 . S
C1535 H1559 0.949 . S
H1536 C1540 0.949 . S
C1537 C1538 1.349 . S
C1537 C1539 1.327 . S
C1537 H1560 0.950 . S
C1538 C1537 1.349 . S
C1538 C1550 1.349 . S
C1539 C1537 1.327 . S
C1539 C1555 1.429 . S
C1539 H1561 0.950 . S
C1540 H1536 0.949 . S
C1540 C1548 1.574 . S
C1540 C1556 1.368 . S
H1541 C1549 0.950 . S
H1542 C1547 0.950 . S
H1543 C1548 0.949 . S
H1544 C1550 0.950 . S
H1545 C1551 0.950 . S
H1546 C1552 0.949 . S
C1547 H1542 0.950 . S
C1547 C1549 1.327 . S
C1547 C1553 1.429 . S
C1548 C1540 1.574 . S
C1548 H1543 0.949 . S
C1548 C1554 1.368 . S
C1549 C1533 1.349 . S
C1549 H1541 0.950 . S
C1549 C1547 1.327 . S
C1550 C1538 1.349 . S
C1550 H1544 0.950 . S
C1550 C1551 1.327 . S
C1551 H1545 0.950 . S
C1551 C1550 1.327 . S
C1551 C1555 1.429 . S
C1552 C1535 1.574 . S
C1552 H1546 0.949 . S
C1552 C1556 1.368 . S
C1553 C1534 1.429 . S
C1553 C1547 1.429 . S
C1553 C1554 1.523 . S
C1554 C1535 1.368 . S
C1554 C1548 1.368 . S
C1554 C1553 1.523 . S
C1555 C1539 1.429 . S
C1555 C1551 1.429 . S
C1555 C1556 1.523 . S
C1556 C1540 1.368 . S
C1556 C1552 1.368 . S
C1556 C1555 1.523 . S
H1557 C1532 0.950 . S
H1558 C1534 0.950 . S
H1559 C1535 0.949 . S
H1560 C1537 0.950 . S
H1561 C1539 0.950 . S
C1562 C1563 1.349 . S
C1562 C1564 1.327 . S
C1562 H1587 0.950 . S
C1563 C1562 1.349 . S
C1563 C1579 1.349 . S
C1564 C1562 1.327 . S
C1564 C1583 1.429 . S
C1564 H1588 0.950 . S
C1565 C1582 1.574 . S
C1565 C1584 1.368 . S
C1565 H1589 0.949 . S
H1566 C1570 0.949 . S
C1567 C1568 1.349 . S
C1567 C1569 1.327 . S
C1567 H1590 0.950 . S
C1568 C1567 1.349 . S
C1568 C1580 1.349 . S
C1569 C1567 1.327 . S
C1569 C1585 1.429 . S
C1569 H1591 0.950 . S
C1570 H1566 0.949 . S
C1570 C1578 1.574 . S
C1570 C1586 1.368 . S
H1571 C1579 0.950 . S
H1572 C1577 0.950 . S
H1573 C1578 0.949 . S
H1574 C1580 0.950 . S
H1575 C1581 0.950 . S
H1576 C1582 0.949 . S
C1577 H1572 0.950 . S
C1577 C1579 1.327 . S
C1577 C1583 1.429 . S
C1578 C1570 1.574 . S
C1578 H1573 0.949 . S
C1578 C1584 1.368 . S
C1579 C1563 1.349 . S
C1579 H1571 0.950 . S
C1579 C1577 1.327 . S
C1580 C1568 1.349 . S
C1580 H1574 0.950 . S
C1580 C1581 1.327 . S
C1581 H1575 0.950 . S
C1581 C1580 1.327 . S
C1581 C1585 1.429 . S
C1582 C1565 1.574 . S
C1582 H1576 0.949 . S
C1582 C1586 1.368 . S
C1583 C1564 1.429 . S
C1583 C1577 1.429 . S
C1583 C1584 1.523 . S
C1584 C1565 1.368 . S
C1584 C1578 1.368 . S
C1584 C1583 1.523 . S
C1585 C1569 1.429 . S
C1585 C1581 1.429 . S
C1585 C1586 1.523 . S
C1586 C1570 1.368 . S
C1586 C1582 1.368 . S
C1586 C1585 1.523 . S
H1587 C1562 0.950 . S
H1588 C1564 0.950 . S
H1589 C1565 0.949 . S
H1590 C1567 0.950 . S
H1591 C1569 0.950 . S
C1592 C1593 1.349 . S
C1592 C1594 1.327 . S
C1592 H1617 0.950 . S
C1593 C1592 1.349 . S
C1593 C1609 1.349 . S
C1594 C1592 1.327 . S
C1594 C1613 1.429 . S
C1594 H1618 0.950 . S
C1595 C1612 1.574 . S
C1595 C1614 1.368 . S
C1595 H1619 0.949 . S
H1596 C1600 0.949 . S
C1597 C1598 1.349 . S
C1597 C1599 1.327 . S
C1597 H1620 0.950 . S
C1598 C1597 1.349 . S
C1598 C1610 1.349 . S
C1599 C1597 1.327 . S
C1599 C1615 1.429 . S
C1599 H1621 0.950 . S
C1600 H1596 0.949 . S
C1600 C1608 1.574 . S
C1600 C1616 1.368 . S
H1601 C1609 0.950 . S
H1602 C1607 0.950 . S
H1603 C1608 0.949 . S
H1604 C1610 0.950 . S
H1605 C1611 0.950 . S
H1606 C1612 0.949 . S
C1607 H1602 0.950 . S
C1607 C1609 1.327 . S
C1607 C1613 1.429 . S
C1608 C1600 1.574 . S
C1608 H1603 0.949 . S
C1608 C1614 1.368 . S
C1609 C1593 1.349 . S
C1609 H1601 0.950 . S
C1609 C1607 1.327 . S
C1610 C1598 1.349 . S
C1610 H1604 0.950 . S
C1610 C1611 1.327 . S
C1611 H1605 0.950 . S
C1611 C1610 1.327 . S
C1611 C1615 1.429 . S
C1612 C1595 1.574 . S
C1612 H1606 0.949 . S
C1612 C1616 1.368 . S
C1613 C1594 1.429 . S
C1613 C1607 1.429 . S
C1613 C1614 1.523 . S
C1614 C1595 1.368 . S
C1614 C1608 1.368 . S
C1614 C1613 1.523 . S
C1615 C1599 1.429 . S
C1615 C1611 1.429 . S
C1615 C1616 1.523 . S
C1616 C1600 1.368 . S
C1616 C1612 1.368 . S
C1616 C1615 1.523 . S
H1617 C1592 0.950 . S
H1618 C1594 0.950 . S
H1619 C1595 0.949 . S
H1620 C1597 0.950 . S
H1621 C1599 0.950 . S
C1622 C1623 1.349 . S
C1622 C1624 1.327 . S
C1622 H1647 0.950 . S
C1623 C1622 1.349 . S
C1623 C1639 1.349 . S
C1624 C1622 1.327 . S
C1624 C1643 1.429 . S
C1624 H1648 0.950 . S
C1625 C1642 1.574 . S
C1625 C1644 1.368 . S
C1625 H1649 0.949 . S
H1626 C1630 0.949 . S
C1627 C1628 1.349 . S
C1627 C1629 1.327 . S
C1627 H1650 0.950 . S
C1628 C1627 1.349 . S
C1628 C1640 1.349 . S
C1629 C1627 1.327 . S
C1629 C1645 1.429 . S
C1629 H1651 0.950 . S
C1630 H1626 0.949 . S
C1630 C1638 1.574 . S
C1630 C1646 1.368 . S
H1631 C1639 0.950 . S
H1632 C1637 0.950 . S
H1633 C1638 0.949 . S
H1634 C1640 0.950 . S
H1635 C1641 0.950 . S
H1636 C1642 0.949 . S
C1637 H1632 0.950 . S
C1637 C1639 1.327 . S
C1637 C1643 1.429 . S
C1638 C1630 1.574 . S
C1638 H1633 0.949 . S
C1638 C1644 1.368 . S
C1639 C1623 1.349 . S
C1639 H1631 0.950 . S
C1639 C1637 1.327 . S
C1640 C1628 1.349 . S
C1640 H1634 0.950 . S
C1640 C1641 1.327 . S
C1641 H1635 0.950 . S
C1641 C1640 1.327 . S
C1641 C1645 1.429 . S
C1642 C1625 1.574 . S
C1642 H1636 0.949 . S
C1642 C1646 1.368 . S
C1643 C1624 1.429 . S
C1643 C1637 1.429 . S
C1643 C1644 1.523 . S
C1644 C1625 1.368 . S
C1644 C1638 1.368 . S
C1644 C1643 1.523 . S
C1645 C1629 1.429 . S
C1645 C1641 1.429 . S
C1645 C1646 1.523 . S
C1646 C1630 1.368 . S
C1646 C1642 1.368 . S
C1646 C1645 1.523 . S
H1647 C1622 0.950 . S
H1648 C1624 0.950 . S
H1649 C1625 0.949 . S
H1650 C1627 0.950 . S
H1651 C1629 0.950 . S
C1652 C1653 1.349 . S
C1652 C1654 1.327 . S
C1652 H1677 0.950 . S
C1653 C1652 1.349 . S
C1653 C1669 1.349 . S
C1654 C1652 1.327 . S
C1654 C1673 1.429 . S
C1654 H1678 0.950 . S
C1655 C1672 1.574 . S
C1655 C1674 1.368 . S
C1655 H1679 0.949 . S
H1656 C1660 0.949 . S
C1657 C1658 1.349 . S
C1657 C1659 1.327 . S
C1657 H1680 0.950 . S
C1658 C1657 1.349 . S
C1658 C1670 1.349 . S
C1659 C1657 1.327 . S
C1659 C1675 1.429 . S
C1659 H1681 0.950 . S
C1660 H1656 0.949 . S
C1660 C1668 1.574 . S
C1660 C1676 1.368 . S
H1661 C1669 0.950 . S
H1662 C1667 0.950 . S
H1663 C1668 0.949 . S
H1664 C1670 0.950 . S
H1665 C1671 0.950 . S
H1666 C1672 0.949 . S
C1667 H1662 0.950 . S
C1667 C1669 1.327 . S
C1667 C1673 1.429 . S
C1668 C1660 1.574 . S
C1668 H1663 0.949 . S
C1668 C1674 1.368 . S
C1669 C1653 1.349 . S
C1669 H1661 0.950 . S
C1669 C1667 1.327 . S
C1670 C1658 1.349 . S
C1670 H1664 0.950 . S
C1670 C1671 1.327 . S
C1671 H1665 0.950 . S
C1671 C1670 1.327 . S
C1671 C1675 1.429 . S
C1672 C1655 1.574 . S
C1672 H1666 0.949 . S
C1672 C1676 1.368 . S
C1673 C1654 1.429 . S
C1673 C1667 1.429 . S
C1673 C1674 1.523 . S
C1674 C1655 1.368 . S
C1674 C1668 1.368 . S
C1674 C1673 1.523 . S
C1675 C1659 1.429 . S
C1675 C1671 1.429 . S
C1675 C1676 1.523 . S
C1676 C1660 1.368 . S
C1676 C1672 1.368 . S
C1676 C1675 1.523 . S
H1677 C1652 0.950 . S
H1678 C1654 0.950 . S
H1679 C1655 0.949 . S
H1680 C1657 0.950 . S
H1681 C1659 0.950 . S
C1682 C1683 1.349 . S
C1682 C1684 1.327 . S
C1682 H1707 0.950 . S
C1683 C1682 1.349 . S
C1683 C1699 1.349 . S
C1684 C1682 1.327 . S
C1684 C1703 1.429 . S
C1684 H1708 0.950 . S
C1685 C1702 1.574 . S
C1685 C1704 1.368 . S
C1685 H1709 0.949 . S
H1686 C1690 0.949 . S
C1687 C1688 1.349 . S
C1687 C1689 1.327 . S
C1687 H1710 0.950 . S
C1688 C1687 1.349 . S
C1688 C1700 1.349 . S
C1689 C1687 1.327 . S
C1689 C1705 1.429 . S
C1689 H1711 0.950 . S
C1690 H1686 0.949 . S
C1690 C1698 1.574 . S
C1690 C1706 1.368 . S
H1691 C1699 0.950 . S
H1692 C1697 0.950 . S
H1693 C1698 0.949 . S
H1694 C1700 0.950 . S
H1695 C1701 0.950 . S
H1696 C1702 0.949 . S
C1697 H1692 0.950 . S
C1697 C1699 1.327 . S
C1697 C1703 1.429 . S
C1698 C1690 1.574 . S
C1698 H1693 0.949 . S
C1698 C1704 1.368 . S
C1699 C1683 1.349 . S
C1699 H1691 0.950 . S
C1699 C1697 1.327 . S
C1700 C1688 1.349 . S
C1700 H1694 0.950 . S
C1700 C1701 1.327 . S
C1701 H1695 0.950 . S
C1701 C1700 1.327 . S
C1701 C1705 1.429 . S
C1702 C1685 1.574 . S
C1702 H1696 0.949 . S
C1702 C1706 1.368 . S
C1703 C1684 1.429 . S
C1703 C1697 1.429 . S
C1703 C1704 1.523 . S
C1704 C1685 1.368 . S
C1704 C1698 1.368 . S
C1704 C1703 1.523 . S
C1705 C1689 1.429 . S
C1705 C1701 1.429 . S
C1705 C1706 1.523 . S
C1706 C1690 1.368 . S
C1706 C1702 1.368 . S
C1706 C1705 1.523 . S
H1707 C1682 0.950 . S
H1708 C1684 0.950 . S
H1709 C1685 0.949 . S
H1710 C1687 0.950 . S
H1711 C1689 0.950 . S
C1712 C1713 1.349 . S
C1712 C1714 1.327 . S
C1712 H1737 0.950 . S
C1713 C1712 1.349 . S
C1713 C1729 1.349 . S
C1714 C1712 1.327 . S
C1714 C1733 1.429 . S
C1714 H1738 0.950 . S
C1715 C1732 1.574 . S
C1715 C1734 1.368 . S
C1715 H1739 0.949 . S
H1716 C1720 0.949 . S
C1717 C1718 1.349 . S
C1717 C1719 1.327 . S
C1717 H1740 0.950 . S
C1718 C1717 1.349 . S
C1718 C1730 1.349 . S
C1719 C1717 1.327 . S
C1719 C1735 1.429 . S
C1719 H1741 0.950 . S
C1720 H1716 0.949 . S
C1720 C1728 1.574 . S
C1720 C1736 1.368 . S
H1721 C1729 0.950 . S
H1722 C1727 0.950 . S
H1723 C1728 0.949 . S
H1724 C1730 0.950 . S
H1725 C1731 0.950 . S
H1726 C1732 0.949 . S
C1727 H1722 0.950 . S
C1727 C1729 1.327 . S
C1727 C1733 1.429 . S
C1728 C1720 1.574 . S
C1728 H1723 0.949 . S
C1728 C1734 1.368 . S
C1729 C1713 1.349 . S
C1729 H1721 0.950 . S
C1729 C1727 1.327 . S
C1730 C1718 1.349 . S
C1730 H1724 0.950 . S
C1730 C1731 1.327 . S
C1731 H1725 0.950 . S
C1731 C1730 1.327 . S
C1731 C1735 1.429 . S
C1732 C1715 1.574 . S
C1732 H1726 0.949 . S
C1732 C1736 1.368 . S
C1733 C1714 1.429 . S
C1733 C1727 1.429 . S
C1733 C1734 1.523 . S
C1734 C1715 1.368 . S
C1734 C1728 1.368 . S
C1734 C1733 1.523 . S
C1735 C1719 1.429 . S
C1735 C1731 1.429 . S
C1735 C1736 1.523 . S
C1736 C1720 1.368 . S
C1736 C1732 1.368 . S
C1736 C1735 1.523 . S
H1737 C1712 0.950 . S
H1738 C1714 0.950 . S
H1739 C1715 0.949 . S
H1740 C1717 0.950 . S
H1741 C1719 0.950 . S
C1742 C1743 1.349 . S
C1742 C1744 1.327 . S
C1742 H1767 0.950 . S
C1743 C1742 1.349 . S
C1743 C1759 1.349 . S
C1744 C1742 1.327 . S
C1744 C1763 1.429 . S
C1744 H1768 0.950 . S
C1745 C1762 1.574 . S
C1745 C1764 1.368 . S
C1745 H1769 0.949 . S
H1746 C1750 0.949 . S
C1747 C1748 1.349 . S
C1747 C1749 1.327 . S
C1747 H1770 0.950 . S
C1748 C1747 1.349 . S
C1748 C1760 1.349 . S
C1749 C1747 1.327 . S
C1749 C1765 1.429 . S
C1749 H1771 0.950 . S
C1750 H1746 0.949 . S
C1750 C1758 1.574 . S
C1750 C1766 1.368 . S
H1751 C1759 0.950 . S
H1752 C1757 0.950 . S
H1753 C1758 0.949 . S
H1754 C1760 0.950 . S
H1755 C1761 0.950 . S
H1756 C1762 0.949 . S
C1757 H1752 0.950 . S
C1757 C1759 1.327 . S
C1757 C1763 1.429 . S
C1758 C1750 1.574 . S
C1758 H1753 0.949 . S
C1758 C1764 1.368 . S
C1759 C1743 1.349 . S
C1759 H1751 0.950 . S
C1759 C1757 1.327 . S
C1760 C1748 1.349 . S
C1760 H1754 0.950 . S
C1760 C1761 1.327 . S
C1761 H1755 0.950 . S
C1761 C1760 1.327 . S
C1761 C1765 1.429 . S
C1762 C1745 1.574 . S
C1762 H1756 0.949 . S
C1762 C1766 1.368 . S
C1763 C1744 1.429 . S
C1763 C1757 1.429 . S
C1763 C1764 1.523 . S
C1764 C1745 1.368 . S
C1764 C1758 1.368 . S
C1764 C1763 1.523 . S
C1765 C1749 1.429 . S
C1765 C1761 1.429 . S
C1765 C1766 1.523 . S
C1766 C1750 1.368 . S
C1766 C1762 1.368 . S
C1766 C1765 1.523 . S
H1767 C1742 0.950 . S
H1768 C1744 0.950 . S
H1769 C1745 0.949 . S
H1770 C1747 0.950 . S
H1771 C1749 0.950 . S
C1772 C1773 1.349 . S
C1772 C1774 1.327 . S
C1772 H1797 0.950 . S
C1773 C1772 1.349 . S
C1773 C1789 1.349 . S
C1774 C1772 1.327 . S
C1774 C1793 1.429 . S
C1774 H1798 0.950 . S
C1775 C1792 1.574 . S
C1775 C1794 1.368 . S
C1775 H1799 0.949 . S
H1776 C1780 0.949 . S
C1777 C1778 1.349 . S
C1777 C1779 1.327 . S
C1777 H1800 0.950 . S
C1778 C1777 1.349 . S
C1778 C1790 1.349 . S
C1779 C1777 1.327 . S
C1779 C1795 1.429 . S
C1779 H1801 0.950 . S
C1780 H1776 0.949 . S
C1780 C1788 1.574 . S
C1780 C1796 1.368 . S
H1781 C1789 0.950 . S
H1782 C1787 0.950 . S
H1783 C1788 0.949 . S
H1784 C1790 0.950 1_455 S
H1785 C1791 0.950 . S
H1786 C1792 0.949 . S
C1787 H1782 0.950 . S
C1787 C1789 1.327 . S
C1787 C1793 1.429 . S
C1788 C1780 1.574 . S
C1788 H1783 0.949 . S
C1788 C1794 1.368 . S
C1789 C1773 1.349 . S
C1789 H1781 0.950 . S
C1789 C1787 1.327 . S
C1790 C1778 1.349 . S
C1790 H1784 0.950 1_655 S
C1790 C1791 1.327 . S
C1791 H1785 0.950 . S
C1791 C1790 1.327 . S
C1791 C1795 1.429 . S
C1792 C1775 1.574 . S
C1792 H1786 0.949 . S
C1792 C1796 1.368 . S
C1793 C1774 1.429 . S
C1793 C1787 1.429 . S
C1793 C1794 1.523 . S
C1794 C1775 1.368 . S
C1794 C1788 1.368 . S
C1794 C1793 1.523 . S
C1795 C1779 1.429 . S
C1795 C1791 1.429 . S
C1795 C1796 1.523 . S
C1796 C1780 1.368 . S
C1796 C1792 1.368 . S
C1796 C1795 1.523 . S
H1797 C1772 0.950 . S
H1798 C1774 0.950 . S
H1799 C1775 0.949 . S
H1800 C1777 0.950 . S
H1801 C1779 0.950 . S
C1802 C1803 1.349 . S
C1802 C1804 1.327 . S
C1802 H1827 0.950 . S
C1803 C1802 1.349 . S
C1803 C1819 1.349 . S
C1804 C1802 1.327 . S
C1804 C1823 1.429 . S
C1804 H1828 0.950 . S
C1805 C1822 1.574 . S
C1805 C1824 1.368 . S
C1805 H1829 0.949 . S
H1806 C1810 0.949 . S
C1807 C1808 1.349 . S
C1807 C1809 1.327 . S
C1807 H1830 0.950 . S
C1808 C1807 1.349 . S
C1808 C1820 1.349 . S
C1809 C1807 1.327 . S
C1809 C1825 1.429 . S
C1809 H1831 0.950 . S
C1810 H1806 0.949 . S
C1810 C1818 1.574 . S
C1810 C1826 1.368 . S
H1811 C1819 0.950 . S
H1812 C1817 0.950 . S
H1813 C1818 0.949 . S
H1814 C1820 0.950 . S
H1815 C1821 0.950 . S
H1816 C1822 0.949 . S
C1817 H1812 0.950 . S
C1817 C1819 1.327 . S
C1817 C1823 1.429 . S
C1818 C1810 1.574 . S
C1818 H1813 0.949 . S
C1818 C1824 1.368 . S
C1819 C1803 1.349 . S
C1819 H1811 0.950 . S
C1819 C1817 1.327 . S
C1820 C1808 1.349 . S
C1820 H1814 0.950 . S
C1820 C1821 1.327 . S
C1821 H1815 0.950 . S
C1821 C1820 1.327 . S
C1821 C1825 1.429 . S
C1822 C1805 1.574 . S
C1822 H1816 0.949 . S
C1822 C1826 1.368 . S
C1823 C1804 1.429 . S
C1823 C1817 1.429 . S
C1823 C1824 1.523 . S
C1824 C1805 1.368 . S
C1824 C1818 1.368 . S
C1824 C1823 1.523 . S
C1825 C1809 1.429 . S
C1825 C1821 1.429 . S
C1825 C1826 1.523 . S
C1826 C1810 1.368 . S
C1826 C1822 1.368 . S
C1826 C1825 1.523 . S
H1827 C1802 0.950 . S
H1828 C1804 0.950 . S
H1829 C1805 0.949 . S
H1830 C1807 0.950 . S
H1831 C1809 0.950 . S
C1832 C1833 1.349 . S
C1832 C1834 1.327 . S
C1832 H1857 0.950 . S
C1833 C1832 1.349 . S
C1833 C1849 1.349 . S
C1834 C1832 1.327 . S
C1834 C1853 1.429 . S
C1834 H1858 0.950 . S
C1835 C1852 1.574 . S
C1835 C1854 1.368 . S
C1835 H1859 0.949 . S
H1836 C1840 0.949 . S
C1837 C1838 1.349 . S
C1837 C1839 1.327 . S
C1837 H1860 0.950 . S
C1838 C1837 1.349 . S
C1838 C1850 1.349 . S
C1839 C1837 1.327 . S
C1839 C1855 1.429 . S
C1839 H1861 0.950 . S
C1840 H1836 0.949 . S
C1840 C1848 1.574 . S
C1840 C1856 1.368 . S
H1841 C1849 0.950 . S
H1842 C1847 0.950 . S
H1843 C1848 0.949 . S
H1844 C1850 0.950 . S
H1845 C1851 0.950 . S
H1846 C1852 0.949 . S
C1847 H1842 0.950 . S
C1847 C1849 1.327 . S
C1847 C1853 1.429 . S
C1848 C1840 1.574 . S
C1848 H1843 0.949 . S
C1848 C1854 1.368 . S
C1849 C1833 1.349 . S
C1849 H1841 0.950 . S
C1849 C1847 1.327 . S
C1850 C1838 1.349 . S
C1850 H1844 0.950 . S
C1850 C1851 1.327 . S
C1851 H1845 0.950 . S
C1851 C1850 1.327 . S
C1851 C1855 1.429 . S
C1852 C1835 1.574 . S
C1852 H1846 0.949 . S
C1852 C1856 1.368 . S
C1853 C1834 1.429 . S
C1853 C1847 1.429 . S
C1853 C1854 1.523 . S
C1854 C1835 1.368 . S
C1854 C1848 1.368 . S
C1854 C1853 1.523 . S
C1855 C1839 1.429 . S
C1855 C1851 1.429 . S
C1855 C1856 1.523 . S
C1856 C1840 1.368 . S
C1856 C1852 1.368 . S
C1856 C1855 1.523 . S
H1857 C1832 0.950 . S
H1858 C1834 0.950 . S
H1859 C1835 0.949 . S
H1860 C1837 0.950 . S
H1861 C1839 0.950 . S
C1862 C1863 1.349 . S
C1862 C1864 1.327 . S
C1862 H1887 0.950 . S
C1863 C1862 1.349 . S
C1863 C1879 1.349 . S
C1864 C1862 1.327 . S
C1864 C1883 1.429 . S
C1864 H1888 0.950 . S
C1865 C1882 1.574 . S
C1865 C1884 1.368 . S
C1865 H1889 0.949 . S
H1866 C1870 0.949 . S
C1867 C1868 1.349 . S
C1867 C1869 1.327 . S
C1867 H1890 0.950 . S
C1868 C1867 1.349 . S
C1868 C1880 1.349 . S
C1869 C1867 1.327 . S
C1869 C1885 1.429 . S
C1869 H1891 0.950 . S
C1870 H1866 0.949 . S
C1870 C1878 1.574 . S
C1870 C1886 1.368 . S
H1871 C1879 0.950 . S
H1872 C1877 0.950 . S
H1873 C1878 0.949 . S
H1874 C1880 0.950 . S
H1875 C1881 0.950 . S
H1876 C1882 0.949 . S
C1877 H1872 0.950 . S
C1877 C1879 1.327 . S
C1877 C1883 1.429 . S
C1878 C1870 1.574 . S
C1878 H1873 0.949 . S
C1878 C1884 1.368 . S
C1879 C1863 1.349 . S
C1879 H1871 0.950 . S
C1879 C1877 1.327 . S
C1880 C1868 1.349 . S
C1880 H1874 0.950 . S
C1880 C1881 1.327 . S
C1881 H1875 0.950 . S
C1881 C1880 1.327 . S
C1881 C1885 1.429 . S
C1882 C1865 1.574 . S
C1882 H1876 0.949 . S
C1882 C1886 1.368 . S
C1883 C1864 1.429 . S
C1883 C1877 1.429 . S
C1883 C1884 1.523 . S
C1884 C1865 1.368 . S
C1884 C1878 1.368 . S
C1884 C1883 1.523 . S
C1885 C1869 1.429 . S
C1885 C1881 1.429 . S
C1885 C1886 1.523 . S
C1886 C1870 1.368 . S
C1886 C1882 1.368 . S
C1886 C1885 1.523 . S
H1887 C1862 0.950 . S
H1888 C1864 0.950 . S
H1889 C1865 0.949 . S
H1890 C1867 0.950 . S
H1891 C1869 0.950 . S
C1892 C1893 1.349 . S
C1892 C1894 1.327 . S
C1892 H1917 0.950 . S
C1893 C1892 1.349 . S
C1893 C1909 1.349 . S
C1894 C1892 1.327 . S
C1894 C1913 1.429 . S
C1894 H1918 0.950 . S
C1895 C1912 1.574 . S
C1895 C1914 1.368 . S
C1895 H1919 0.949 . S
H1896 C1900 0.949 . S
C1897 C1898 1.349 . S
C1897 C1899 1.327 . S
C1897 H1920 0.950 . S
C1898 C1897 1.349 . S
C1898 C1910 1.349 . S
C1899 C1897 1.327 . S
C1899 C1915 1.429 . S
C1899 H1921 0.950 . S
C1900 H1896 0.949 . S
C1900 C1908 1.574 . S
C1900 C1916 1.368 . S
H1901 C1909 0.950 . S
H1902 C1907 0.950 . S
H1903 C1908 0.949 . S
H1904 C1910 0.950 . S
H1905 C1911 0.950 . S
H1906 C1912 0.949 . S
C1907 H1902 0.950 . S
C1907 C1909 1.327 . S
C1907 C1913 1.429 . S
C1908 C1900 1.574 . S
C1908 H1903 0.949 . S
C1908 C1914 1.368 . S
C1909 C1893 1.349 . S
C1909 H1901 0.950 . S
C1909 C1907 1.327 . S
C1910 C1898 1.349 . S
C1910 H1904 0.950 . S
C1910 C1911 1.327 . S
C1911 H1905 0.950 . S
C1911 C1910 1.327 . S
C1911 C1915 1.429 . S
C1912 C1895 1.574 . S
C1912 H1906 0.949 . S
C1912 C1916 1.368 . S
C1913 C1894 1.429 . S
C1913 C1907 1.429 . S
C1913 C1914 1.523 . S
C1914 C1895 1.368 . S
C1914 C1908 1.368 . S
C1914 C1913 1.523 . S
C1915 C1899 1.429 . S
C1915 C1911 1.429 . S
C1915 C1916 1.523 . S
C1916 C1900 1.368 . S
C1916 C1912 1.368 . S
C1916 C1915 1.523 . S
H1917 C1892 0.950 . S
H1918 C1894 0.950 . S
H1919 C1895 0.949 . S
H1920 C1897 0.950 . S
H1921 C1899 0.950 . S
C1922 C1923 1.349 . S
C1922 C1924 1.327 . S
C1922 H1947 0.950 . S
C1923 C1922 1.349 . S
C1923 C1939 1.349 . S
C1924 C1922 1.327 . S
C1924 C1943 1.429 . S
C1924 H1948 0.950 . S
C1925 C1942 1.574 . S
C1925 C1944 1.368 . S
C1925 H1949 0.949 . S
H1926 C1930 0.949 . S
C1927 C1928 1.349 . S
C1927 C1929 1.327 . S
C1927 H1950 0.950 . S
C1928 C1927 1.349 . S
C1928 C1940 1.349 . S
C1929 C1927 1.327 . S
C1929 C1945 1.429 . S
C1929 H1951 0.950 . S
C1930 H1926 0.949 . S
C1930 C1938 1.574 . S
C1930 C1946 1.368 . S
H1931 C1939 0.950 . S
H1932 C1937 0.950 . S
H1933 C1938 0.949 . S
H1934 C1940 0.950 . S
H1935 C1941 0.950 . S
H1936 C1942 0.949 . S
C1937 H1932 0.950 . S
C1937 C1939 1.327 . S
C1937 C1943 1.429 . S
C1938 C1930 1.574 . S
C1938 H1933 0.949 . S
C1938 C1944 1.368 . S
C1939 C1923 1.349 . S
C1939 H1931 0.950 . S
C1939 C1937 1.327 . S
C1940 C1928 1.349 . S
C1940 H1934 0.950 . S
C1940 C1941 1.327 . S
C1941 H1935 0.950 . S
C1941 C1940 1.327 . S
C1941 C1945 1.429 . S
C1942 C1925 1.574 . S
C1942 H1936 0.949 . S
C1942 C1946 1.368 . S
C1943 C1924 1.429 . S
C1943 C1937 1.429 . S
C1943 C1944 1.523 . S
C1944 C1925 1.368 . S
C1944 C1938 1.368 . S
C1944 C1943 1.523 . S
C1945 C1929 1.429 . S
C1945 C1941 1.429 . S
C1945 C1946 1.523 . S
C1946 C1930 1.368 . S
C1946 C1942 1.368 . S
C1946 C1945 1.523 . S
H1947 C1922 0.950 . S
H1948 C1924 0.950 . S
H1949 C1925 0.949 . S
H1950 C1927 0.950 . S
H1951 C1929 0.950 . S
C518 C337 2.565 . S
C513 C18 2.589 . S
C548 C342 2.252 . S
C543 C59 2.288 . S
C578 C343 1.268 . S
C573 C98 1.281 . S
C603 C125 0.818 . S
C608 C347 0.811 . S
C633 C169 2.213 . S
C638 C350 2.163 . S
C668 C351 1.274 . S
C663 C218 1.294 . S
C693 C255 0.951 . S
C698 C328 0.940 . S
C723 C288 2.592 . S
C728 C344 2.571 . S
C758 C382 0.765 . S
C753 C15 0.763 . S
C783 C45 0.715 . S
C788 C408 0.913 . S
C818 C360 0.393 . S
C813 C95 0.112 . S
C848 C415 0.954 . S
C843 C128 0.971 . S
C873 C178 0.981 . S
C878 C369 0.968 . S
C908 C411 1.445 1_556 S
C903 C215 1.478 . S
C933 C249 2.225 . S
C938 C375 2.213 . S
C963 C299 2.005 . S
C968 C406 2.007 . S
C993 C9 2.464 . S
C998 C414 2.412 . S
C1023 C175 0.313 . S
C1028 C401 0.459 1_556 S
C1058 C379 1.456 . S
C1053 C209 1.499 . S
C1088 C407 1.579 . S
C1083 C258 1.623 . S
C1113 C285 1.133 . S
C1118 C374 1.098 . S
C1143 C89 3.040 . S
C1148 C392 3.021 . S
C1178 C383 2.655 . S
C1173 C139 2.650 . S
C1203 C48 1.592 . S
C1208 C376 1.576 . S
C1233 C298 2.558 . S
C1238 C438 2.492 . S
C1263 C179 2.182 . S
C1268 C433 2.182 . S
C1298 C447 1.244 . S
C1293 C208 1.260 . S
C1328 C424 0.916 . S
C1323 C245 0.924 . S
C1353 C49 2.256 . S
C1358 C440 2.263 . S
C1388 C439 1.246 . S
C1383 C88 1.253 . S
C1413 C135 0.792 . S
C1418 C443 0.789 . S
C1443 C8 2.558 . S
C1448 C446 2.492 . S
C1473 C295 1.136 . S
C1478 C472 1.133 1_655 S
C1508 C488 0.297 . S
C1503 C165 0.299 . S
C1533 C219 1.508 . S
C1538 C470 1.495 . S
C1563 C248 1.644 . S
C1568 C503 1.570 . S
C1598 C479 1.587 . S
C1593 C58 1.604 . S
C1623 C99 3.085 . S
C1628 C497 3.078 . S
C1658 C475 2.622 . S
C1653 C129 2.650 . S
C1688 C510 2.497 . S
C1683 C19 2.507 . S
C1718 C502 2.034 . S
C1713 C289 2.049 . S
C1743 C55 0.692 . S
C1748 C507 0.716 . S
C1773 C85 0.116 . S
C1778 C478 0.333 . S
C1808 C511 0.983 . S
C1803 C138 0.993 . S
C1833 C5 0.776 . S
C1838 C465 0.775 . S
C1863 C205 1.506 . S
C1868 C504 1.452 . S
C1898 C456 2.244 . S
C1893 C259 2.222 . S
C1928 C471 0.970 . S
C1923 C168 0.989 . S
