# Generated by pormake.
# Topology tsx, (6,3)-cn, num edge types: 1
# Building blocks:
#     Node 0, Type 0, BuildingBlock: JUFBIX_clean_sbu_0, # of connection points: 6
#     Node 1, Type 0, BuildingBlock: JUFBIX_clean_sbu_0, # of connection points: 6
#     Node 2, Type 1, BuildingBlock: OLANEW_clean_sbu_2, # of connection points: 3
#     Node 3, Type 1, BuildingBlock: OLANEW_clean_sbu_2, # of connection points: 3
#     Node 4, Type 1, BuildingBlock: OLANEW_clean_sbu_2, # of connection points: 3
#     Node 5, Type 1, BuildingBlock: OLANEW_clean_sbu_2, # of connection points: 3
#     Edge 6, Type (0, 1), BuildingBlock: TEMPAE_clean_linker_10, # of connection points: 2
#     Edge 7, Type (0, 1), BuildingBlock: TEMPAE_clean_linker_10, # of connection points: 2
#     Edge 8, Type (0, 1), BuildingBlock: TEMPAE_clean_linker_10, # of connection points: 2
#     Edge 9, Type (0, 1), BuildingBlock: TEMPAE_clean_linker_10, # of connection points: 2
#     Edge 10, Type (0, 1), BuildingBlock: TEMPAE_clean_linker_10, # of connection points: 2
#     Edge 11, Type (0, 1), BuildingBlock: TEMPAE_clean_linker_10, # of connection points: 2
#     Edge 12, Type (0, 1), BuildingBlock: TEMPAE_clean_linker_10, # of connection points: 2
#     Edge 13, Type (0, 1), BuildingBlock: TEMPAE_clean_linker_10, # of connection points: 2
#     Edge 14, Type (0, 1), BuildingBlock: TEMPAE_clean_linker_10, # of connection points: 2
#     Edge 15, Type (0, 1), BuildingBlock: TEMPAE_clean_linker_10, # of connection points: 2
#     Edge 16, Type (0, 1), BuildingBlock: TEMPAE_clean_linker_10, # of connection points: 2
#     Edge 17, Type (0, 1), BuildingBlock: TEMPAE_clean_linker_10, # of connection points: 2
# Relax obj value: 0.062
# Max RMSD: 0.104
# Mean RMSD: 0.074
data_MOF--net-tsx--node1-JUFBIX_clean_sbu_0--node2-OLANEW_clean_sbu_2--edge1-TEMPAE_clean_linker_10
_symmetry_space_group_name_H-M    P1
_symmetry_Int_Tables_number       1
_symmetry_cell_setting            triclinic
loop_
_symmetry_equiv_pos_as_xyz
'x, y, z'
_cell_length_a     22.675804
_cell_length_b     25.982866
_cell_length_c     34.19508
_cell_angle_alpha  98.254148
_cell_angle_beta   88.130152
_cell_angle_gamma 97.969547
loop_
_atom_site_label
_atom_site_type_symbol
_atom_site_fract_x
_atom_site_fract_y
_atom_site_fract_z
_atom_type_partial_charge
Co0 Co 0.03226 0.98339 0.00122 0.0
C1 C 0.97947 0.01621 0.93758 0.0
Co2 Co 0.96274 0.03471 0.01738 0.0
C3 C 0.11331 0.90517 0.00017 0.0
C4 C 0.13002 0.95235 0.95355 0.0
N5 N 0.09338 0.94442 0.98457 0.0
N6 N 0.16118 0.88847 0.98009 0.0
C7 C 0.17127 0.91805 0.95058 0.0
H8 H 0.09381 0.89005 0.02623 0.0
H9 H 0.12732 0.98167 0.93443 0.0
C10 C 0.01599 1.00206 0.08119 0.0
N11 N 0.90157 0.07363 0.03409 0.0
C12 C 0.88577 0.11652 0.02117 0.0
C13 C 0.86165 0.06295 0.06292 0.0
N14 N 0.83772 0.13305 0.04105 0.0
C15 C 0.82258 0.09932 0.06731 0.0
C16 C 0.92206 0.92675 0.00504 0.0
O17 O 0.04858 0.98022 0.05473 0.0
O18 O 0.97579 0.02679 0.0709 0.0
O19 O 0.90695 0.97254 0.01179 0.0
O20 O 0.97678 0.9213 0.0001 0.0
O21 O 0.95102 0.04264 0.96403 0.0
H22 H 0.86052 0.03027 0.07941 0.0
H23 H 0.90915 0.13525 -0.00224 0.0
O24 O 0.015 0.98682 0.94758 0.0
O25 O 0.08732 0.04609 0.00277 0.0
O26 O 0.01869 0.09618 0.02249 0.0
C27 C 0.07265 0.09161 0.01328 0.0
H28 H 0.20572 0.91502 0.92805 0.0
H29 H 0.7849 0.09997 0.08755 0.0
Co30 Co 0.546 0.48226 0.51442 0.0
C31 C 0.49495 0.51146 0.44863 0.0
Co32 Co 0.47407 0.53181 0.52804 0.0
C33 C 0.62593 0.40271 0.51346 0.0
C34 C 0.6494 0.45608 0.47148 0.0
N35 N 0.60887 0.4446 0.49973 0.0
N36 N 0.67578 0.38785 0.49484 0.0
C37 C 0.69018 0.42139 0.4683 0.0
H38 H 0.60262 0.38402 0.5369 0.0
H39 H 0.64931 0.48779 0.45417 0.0
C40 C 0.5262 0.50329 0.59391 0.0
N41 N 0.4112 0.56962 0.54251 0.0
C42 C 0.39401 0.61037 0.52735 0.0
C43 C 0.37031 0.55927 0.57084 0.0
N44 N 0.34398 0.62585 0.54523 0.0
C45 C 0.32916 0.59362 0.57261 0.0
C46 C 0.43623 0.42311 0.51738 0.0
O47 O 0.55951 0.48032 0.56851 0.0
O48 O 0.48645 0.52738 0.58221 0.0
O49 O 0.4198 0.46843 0.52372 0.0
O50 O 0.49136 0.41896 0.51268 0.0
O51 O 0.46271 0.53587 0.4739 0.0
H52 H 0.36974 0.52791 0.58858 0.0
H53 H 0.41765 0.6281 0.50358 0.0
O54 O 0.53221 0.48488 0.4603 0.0
O55 O 0.59967 0.5457 0.51635 0.0
O56 O 0.529 0.59502 0.53191 0.0
C57 C 0.58363 0.59104 0.52438 0.0
H58 H 0.72699 0.4205 0.44737 0.0
H59 H 0.29019 0.59362 0.59175 0.0
O60 O 0.00585 0.94592 0.38703 0.0
Cd61 Cd -0.00364 0.94216 0.45801 0.0
O62 O 0.05069 0.02724 0.39516 0.0
Cd63 Cd 0.02042 0.04233 0.45649 0.0
O64 O 0.95439 0.08822 0.48677 0.0
C65 C 0.90762 0.0872 0.46703 0.0
O66 O 0.90187 0.05678 0.43279 0.0
C67 C 0.03329 0.98502 0.37247 0.0
C68 C 0.07433 0.87682 0.47922 0.0
O69 O 0.02106 0.85845 0.46835 0.0
O70 O 0.09041 0.92634 0.48072 0.0
O71 O 0.97599 0.06289 0.62833 0.0
Cd72 Cd 0.99204 0.06807 0.5578 0.0
O73 O 0.03957 0.00631 0.6284 0.0
Cd74 Cd 0.01614 0.97346 0.56758 0.0
O75 O 0.95022 0.90447 0.55027 0.0
C76 C 0.90374 0.90411 0.53035 0.0
O77 O 0.89539 0.94661 0.51577 0.0
C78 C 0.00771 0.03842 0.6472 0.0
C79 C 0.0935 0.13932 0.54561 0.0
O80 O 0.04397 0.1551 0.5573 0.0
O81 O 0.0954 0.08975 0.5392 0.0
O82 O 0.50602 0.46732 0.90331 0.0
Cd83 Cd 0.49843 0.46638 0.97464 0.0
O84 O 0.5589 0.54548 0.90944 0.0
Cd85 Cd 0.52797 0.56447 0.97019 0.0
O86 O 0.45927 0.60965 -0.00257 0.0
C87 C 0.41081 0.60222 0.97852 0.0
O88 O 0.40503 0.56616 0.94722 0.0
C89 C 0.53733 0.50369 0.88769 0.0
C90 C 0.57454 0.39841 -0.00597 0.0
O91 O 0.51996 0.38189 0.9854 0.0
O92 O 0.59273 0.44746 -0.00548 0.0
O93 O 0.47858 0.58742 0.14761 0.0
Cd94 Cd 0.47283 0.59909 0.07845 0.0
O95 O 0.49337 0.50483 0.13374 0.0
Cd96 Cd 0.47546 0.49656 0.07072 0.0
O97 O 0.41053 0.43429 0.04161 0.0
C98 C 0.39005 0.40305 0.06571 0.0
O99 O 0.41048 0.41199 0.10193 0.0
C100 C 0.48853 0.54502 0.15895 0.0
C101 C 0.5744 0.66243 0.05696 0.0
O102 O 0.53056 0.68227 0.0749 0.0
O103 O 0.5702 0.61239 0.04864 0.0
C104 C 0.17831 0.13286 0.00737 0.0
C105 C 0.11829 0.13848 0.01545 0.0
C106 C 0.22263 0.17655 0.01164 0.0
C107 C 0.20654 0.22708 0.02422 0.0
C108 C 0.14582 0.2333 0.03089 0.0
C109 C 0.10239 0.18888 0.02648 0.0
C110 C 0.28693 0.16835 0.0043 0.0
C111 C 0.12695 0.28661 0.04423 0.0
C112 C 0.32083 0.32607 0.08253 0.0
C113 C 0.34342 0.35808 0.05428 0.0
C114 C 0.27624 0.28352 0.07303 0.0
C115 C 0.25359 0.27251 0.03423 0.0
C116 C 0.27615 0.30449 0.00544 0.0
C117 C 0.32091 0.34703 0.01581 0.0
C118 C 0.25338 0.25033 0.1046 0.0
C119 C 0.25299 0.29375 0.96377 0.0
H120 H 0.19097 0.09409 -0.00143 0.0
H121 H 0.05606 0.19362 0.03245 0.0
H122 H 0.3087 0.19532 0.98415 0.0
H123 H 0.31135 0.17756 0.03259 0.0
H124 H 0.29154 0.12737 0.99129 0.0
H125 H 0.07777 0.28542 0.04453 0.0
H126 H 0.14348 0.30157 0.07448 0.0
H127 H 0.14682 0.31504 0.02458 0.0
H128 H 0.33786 0.33427 0.11235 0.0
H129 H 0.3382 0.3716 -0.00616 0.0
H130 H 0.26054 0.20898 0.09512 0.0
H131 H 0.20474 0.25069 0.10904 0.0
H132 H 0.27565 0.26431 0.13338 0.0
H133 H 0.26015 0.25368 0.95011 0.0
H134 H 0.27506 0.3224 0.9449 0.0
H135 H 0.20431 0.29521 0.96413 0.0
C136 C 0.2536 0.84751 0.97323 0.0
C137 C 0.19507 0.8479 0.98787 0.0
C138 C 0.28563 0.80622 0.97715 0.0
C139 C 0.25915 0.76446 -0.00302 0.0
C140 C 0.2014 0.76583 0.01383 0.0
C141 C 0.16982 0.80736 0.00883 0.0
C142 C 0.34708 0.80634 0.95861 0.0
C143 C 0.17217 0.72255 0.03589 0.0
C144 C 0.31987 0.63737 0.96063 0.0
C145 C 0.36585 0.63876 0.98738 0.0
C146 C 0.28245 0.67652 0.96478 0.0
C147 C 0.29054 0.71774 -0.00316 0.0
C148 C 0.3339 0.71722 0.02563 0.0
C149 C 0.37144 0.67792 0.0204 0.0
C150 C 0.23711 0.67574 0.93322 0.0
C151 C 0.34293 0.75976 0.06074 0.0
H152 H 0.27443 0.87928 0.95811 0.0
H153 H 0.12475 0.80711 0.02031 0.0
H154 H 0.37991 0.8026 0.98102 0.0
H155 H 0.34721 0.77209 0.93513 0.0
H156 H 0.36207 0.84262 0.94534 0.0
H157 H 0.13105 0.73294 0.05184 0.0
H158 H 0.16027 0.68626 0.01477 0.0
H159 H 0.20342 0.71354 0.05748 0.0
H160 H 0.31489 0.60711 0.93516 0.0
H161 H 0.40642 0.67893 0.04148 0.0
H162 H 0.25058 0.70895 0.91628 0.0
H163 H 0.19285 0.68088 0.94677 0.0
H164 H 0.2327 0.63864 0.91221 0.0
H165 H 0.36507 0.79661 0.05088 0.0
H166 H 0.37102 0.74913 0.08357 0.0
H167 H 0.29949 0.76786 0.07436 0.0
C168 C 0.8192 0.88241 0.99101 0.0
C169 C 0.87598 0.88092 0.00535 0.0
C170 C 0.77238 0.84232 -0.0045 0.0
C171 C 0.78219 0.80078 0.01607 0.0
C172 C 0.84011 0.79814 0.02936 0.0
C173 C 0.88668 0.83799 0.02328 0.0
C174 C 0.71176 0.84579 0.97983 0.0
C175 C 0.85205 0.75525 0.05229 0.0
C176 C 0.64573 0.74439 0.07071 0.0
C177 C 0.62854 0.69658 0.04678 0.0
C178 C 0.69689 0.77768 0.0617 0.0
C179 C 0.73058 0.76355 0.02718 0.0
C180 C 0.71333 0.71527 0.0028 0.0
C181 C 0.66289 0.68187 0.01327 0.0
C182 C 0.71461 0.82819 0.08902 0.0
C183 C 0.74709 0.69964 0.96518 0.0
H184 H 0.81115 0.91553 0.97688 0.0
H185 H 0.93057 0.83719 0.03467 0.0
H186 H 0.69277 0.80749 0.96328 0.0
H187 H 0.68095 0.85536 0.00485 0.0
H188 H 0.71346 0.8764 0.96007 0.0
H189 H 0.90035 0.75593 0.05725 0.0
H190 H 0.82901 0.76012 0.08146 0.0
H191 H 0.83404 0.71615 0.0366 0.0
H192 H 0.61949 0.75551 0.09686 0.0
H193 H 0.64931 0.64497 -0.00536 0.0
H194 H 0.71105 0.86223 0.07344 0.0
H195 H 0.76171 0.83092 0.09789 0.0
H196 H 0.68622 0.83145 0.11613 0.0
H197 H 0.74528 0.72885 0.94469 0.0
H198 H 0.72874 0.66024 0.94999 0.0
H199 H 0.79469 0.6995 0.97159 0.0
C200 C 0.8033 0.18994 -0.00313 0.0
C201 C 0.80641 0.17577 0.03472 0.0
C202 C 0.76837 0.22831 0.98992 0.0
C203 C 0.7361 0.25321 0.02164 0.0
C204 C 0.74087 0.2404 0.06015 0.0
C205 C 0.77588 0.20185 0.06619 0.0
C206 C 0.76436 0.24088 0.94842 0.0
C207 C 0.70768 0.26637 0.09484 0.0
C208 C 0.67565 0.37988 0.01084 0.0
C209 C 0.61576 0.36158 0.0019 0.0
C210 C 0.71548 0.34508 0.01713 0.0
C211 C 0.69496 0.29069 0.01435 0.0
C212 C 0.63456 0.27202 0.0054 0.0
C213 C 0.59571 0.30767 -0.00065 0.0
C214 C 0.77949 0.36648 0.02679 0.0
C215 C 0.61092 0.21432 0.00222 0.0
H216 H 0.82639 0.16967 0.97241 0.0
H217 H 0.77901 0.19175 0.09562 0.0
H218 H 0.71814 0.22899 0.93769 0.0
H219 H 0.77503 0.28378 0.94806 0.0
H220 H 0.79498 0.22049 0.92752 0.0
H221 H 0.71869 0.25408 0.12323 0.0
H222 H 0.71822 0.30969 0.09721 0.0
H223 H 0.659 0.25632 0.09024 0.0
H224 H 0.69157 0.42146 0.01281 0.0
H225 H 0.54957 0.29315 0.99236 0.0
H226 H 0.80963 0.34797 0.0045 0.0
H227 H 0.79072 0.35659 0.05592 0.0
H228 H 0.78852 0.40975 0.02761 0.0
H229 H 0.63654 0.19154 0.97938 0.0
H230 H 0.563 0.20607 -0.00552 0.0
H231 H 0.61671 0.19992 0.03068 0.0
C232 C 0.68149 0.6342 0.5018 0.0
C233 C 0.62846 0.63816 0.52366 0.0
C234 C 0.72515 0.67792 0.50083 0.0
C235 C 0.7163 0.72665 0.523 0.0
C236 C 0.66266 0.73102 0.54497 0.0
C237 C 0.61901 0.68682 0.54466 0.0
C238 C 0.78106 0.67179 0.47636 0.0
C239 C 0.65204 0.78204 0.56958 0.0
C240 C 0.85598 0.82094 0.5535 0.0
C241 C 0.85681 0.8579 0.52725 0.0
C242 C 0.81008 0.7786 0.55276 0.0
C243 C 0.76441 0.77228 0.52452 0.0
C244 C 0.7655 0.80891 0.49745 0.0
C245 C 0.81136 0.85161 0.49941 0.0
C246 C 0.81017 0.7409 0.58252 0.0
C247 C 0.71836 0.80285 0.46633 0.0
H248 H 0.68875 0.59682 0.48509 0.0
H249 H 0.57814 0.69003 0.56164 0.0
H250 H 0.78804 0.70156 0.45582 0.0
H251 H 0.82028 0.67854 0.49591 0.0
H252 H 0.77941 0.63216 0.45883 0.0
H253 H 0.60755 0.77928 0.58433 0.0
H254 H 0.68667 0.79354 0.59257 0.0
H255 H 0.65574 0.81383 0.55083 0.0
H256 H 0.89061 0.82572 0.57535 0.0
H257 H 0.81181 0.87993 0.47897 0.0
H258 H 0.81306 0.70077 0.56704 0.0
H259 H 0.76785 0.7392 0.59983 0.0
H260 H 0.84787 0.75225 0.60333 0.0
H261 H 0.71746 0.7642 0.44755 0.0
H262 H 0.72606 0.83419 0.44708 0.0
H263 H 0.67381 0.8038 0.48058 0.0
C264 C 0.76704 0.34543 0.48895 0.0
C265 C 0.70695 0.34461 0.50041 0.0
C266 C 0.79647 0.30155 0.48923 0.0
C267 C 0.76558 0.25576 0.50217 0.0
C268 C 0.70621 0.25572 0.51643 0.0
C269 C 0.67738 0.30007 0.51511 0.0
C270 C 0.85977 0.30337 0.47365 0.0
C271 C 0.67229 0.2081 0.53138 0.0
C272 C 0.82257 0.13235 0.4521 0.0
C273 C 0.86485 0.125 0.4791 0.0
C274 C 0.78751 0.17308 0.46027 0.0
C275 C 0.79401 0.20683 0.4967 0.0
C276 C 0.83341 0.19724 0.52532 0.0
C277 C 0.86888 0.15671 0.51603 0.0
C278 C 0.74654 0.18218 0.42871 0.0
C279 C 0.84042 0.23145 0.5649 0.0
H280 H 0.79099 0.38015 0.4788 0.0
H281 H 0.63107 0.29896 0.52416 0.0
H282 H 0.88889 0.2925 0.49569 0.0
H283 H 0.86133 0.27441 0.44654 0.0
H284 H 0.87834 0.34278 0.46639 0.0
H285 H 0.63065 0.21715 0.54729 0.0
H286 H 0.66036 0.17692 0.5061 0.0
H287 H 0.70028 0.19209 0.55147 0.0
H288 H 0.81886 0.10791 0.42357 0.0
H289 H 0.90097 0.15089 0.53726 0.0
H290 H 0.76348 0.2196 0.41755 0.0
H291 H 0.70128 0.18578 0.44114 0.0
H292 H 0.74305 0.15005 0.40334 0.0
H293 H 0.86598 0.27004 0.56105 0.0
H294 H 0.86442 0.21354 0.58616 0.0
H295 H 0.79629 0.2388 0.57776 0.0
C296 C 0.40054 0.3346 0.53655 0.0
C297 C 0.39099 0.3763 0.51679 0.0
C298 C 0.3546 0.29318 0.54043 0.0
C299 C 0.29864 0.29269 0.5229 0.0
C300 C 0.29015 0.33342 0.50106 0.0
C301 C 0.336 0.37524 0.49898 0.0
C302 C 0.36493 0.25151 0.565 0.0
C303 C 0.23204 0.33361 0.48076 0.0
C304 C 0.18888 0.16631 0.51031 0.0
C305 C 0.14698 0.17746 0.54029 0.0
C306 C 0.23855 0.20338 0.50418 0.0
C307 C 0.24757 0.25187 0.52959 0.0
C308 C 0.20622 0.26244 0.5607 0.0
C309 C 0.15588 0.22555 0.56518 0.0
C310 C 0.28035 0.19134 0.46986 0.0
C311 C 0.21499 0.31288 0.58922 0.0
H312 H 0.44291 0.33578 0.5507 0.0
H313 H 0.32877 0.40743 0.48351 0.0
H314 H 0.33531 0.25385 0.5915 0.0
H315 H 0.35353 0.21185 0.54804 0.0
H316 H 0.41179 0.2559 0.57486 0.0
H317 H 0.23498 0.36469 0.46132 0.0
H318 H 0.21843 0.29499 0.46272 0.0
H319 H 0.19646 0.34025 0.5032 0.0
H320 H 0.1818 0.12924 0.49087 0.0
H321 H 0.12381 0.234 0.58863 0.0
H322 H 0.32651 0.19403 0.48048 0.0
H323 H 0.28058 0.22086 0.44937 0.0
H324 H 0.26755 0.15164 0.45312 0.0
H325 H 0.26012 0.3188 0.60212 0.0
H326 H 0.18148 0.31322 0.61366 0.0
H327 H 0.21168 0.34667 0.57334 0.0
C328 C 0.27414 0.69018 0.5649 0.0
C329 C 0.31065 0.66597 0.53598 0.0
C330 C 0.23778 0.72623 0.55586 0.0
C331 C 0.23807 0.73881 0.51694 0.0
C332 C 0.27616 0.71588 0.48785 0.0
C333 C 0.31196 0.67968 0.49771 0.0
C334 C 0.19798 0.74993 0.58778 0.0
C335 C 0.27786 0.72845 0.44605 0.0
C336 C 0.09903 0.78723 0.4849 0.0
C337 C 0.11631 0.84169 0.48897 0.0
C338 C 0.1385 0.75333 0.49342 0.0
C339 C 0.19666 0.77434 0.50647 0.0
C340 C 0.21445 0.82925 0.5106 0.0
C341 C 0.17409 0.86227 0.50177 0.0
C342 C 0.1178 0.69499 0.48867 0.0
C343 C 0.276 0.85314 0.52458 0.0
H344 H 0.27368 0.68068 0.59472 0.0
H345 H 0.33956 0.66093 0.47508 0.0
H346 H 0.20657 0.79339 0.59088 0.0
H347 H 0.15063 0.73807 0.57949 0.0
H348 H 0.20462 0.73753 0.61691 0.0
H349 H 0.31231 0.70968 0.42752 0.0
H350 H 0.23382 0.71478 0.43222 0.0
H351 H 0.28692 0.77153 0.44606 0.0
H352 H 0.05456 0.77095 0.47493 0.0
H353 H 0.18785 0.90429 0.50497 0.0
H354 H 0.11958 0.68043 0.5175 0.0
H355 H 0.14792 0.6739 0.46792 0.0
H356 H 0.07163 0.68483 0.47742 0.0
H357 H 0.28299 0.8438 0.5546 0.0
H358 H 0.28334 0.89646 0.52548 0.0
H359 H 0.31016 0.83602 0.50478 0.0
C360 C 0.0704 0.97421 0.13564 0.0
C361 C 0.02366 0.99817 0.12347 0.0
C362 C 0.07736 0.96996 0.17569 0.0
C363 C 0.03638 0.98983 0.20412 0.0
C364 C 0.98917 0.01403 0.19198 0.0
C365 C 0.98351 0.01804 0.15187 0.0
C366 C 0.12844 0.94422 0.1876 0.0
C367 C 0.94434 0.03548 0.22135 0.0
C368 C 0.0116 0.94072 0.30345 0.0
C369 C 0.04051 0.98312 0.32904 0.0
C370 C 0.01193 0.94141 0.26247 0.0
C371 C 0.04224 0.98537 0.24667 0.0
C372 C 0.07406 0.02704 0.27211 0.0
C373 C 0.07266 0.02551 0.31299 0.0
C374 C 0.97736 0.89625 0.2363 0.0
C375 C 0.10741 0.07437 0.25633 0.0
H376 H 0.10165 0.9588 0.11387 0.0
H377 H 0.94715 0.03647 0.14275 0.0
H378 H 0.15661 0.97195 0.20937 0.0
H379 H 0.11108 0.9096 0.20218 0.0
H380 H 0.15679 0.93129 0.16194 0.0
H381 H 0.9101 0.05296 0.20706 0.0
H382 H 0.92156 0.00368 0.23711 0.0
H383 H 0.96737 0.06599 0.24389 0.0
H384 H 0.98673 0.90775 0.31553 0.0
H385 H 0.0955 0.05829 0.33248 0.0
H386 H 0.00567 0.88158 0.21124 0.0
H387 H 0.9389 0.90996 0.2236 0.0
H388 H 0.96038 0.86314 0.25266 0.0
H389 H 0.13715 0.06191 0.2314 0.0
H390 H 0.13456 0.10092 0.27939 0.0
H391 H 0.07528 0.09685 0.24479 0.0
C392 C 0.9794 0.07223 0.88444 0.0
C393 C 0.97533 0.02213 0.89571 0.0
C394 C 0.98388 0.07891 0.84437 0.0
C395 C 0.98193 0.03421 0.8151 0.0
C396 C 0.97484 0.98337 0.8265 0.0
C397 C 0.97295 0.97803 0.86676 0.0
C398 C 0.99349 0.13376 0.83345 0.0
C399 C 0.97038 0.93464 0.79621 0.0
C400 C 0.9469 0.04571 0.70912 0.0
C401 C 0.0026 0.04271 0.69059 0.0
C402 C 0.93952 0.04358 0.74979 0.0
C403 C 0.98954 0.04033 0.77258 0.0
C404 C 0.04647 0.03994 0.75425 0.0
C405 C 0.0521 0.04002 0.71325 0.0
C406 C 0.87781 0.04219 0.76795 0.0
C407 C 0.10122 0.03833 0.77778 0.0
H408 H 0.98219 0.10631 0.90703 0.0
H409 H 0.96978 0.93933 0.8757 0.0
H410 H 0.03744 0.14063 0.81846 0.0
H411 H 0.9592 0.13849 0.81234 0.0
H412 H 0.99208 0.16426 0.85967 0.0
H413 H 0.95916 0.89817 0.8099 0.0
H414 H 0.93588 0.93586 0.7742 0.0
H415 H 0.01335 0.93283 0.77998 0.0
H416 H 0.90847 0.04712 0.69145 0.0
H417 H 0.09519 0.03792 0.69886 0.0
H418 H 0.87714 0.07361 0.79352 0.0
H419 H 0.86483 0.00417 0.77921 0.0
H420 H 0.84396 0.04695 0.74645 0.0
H421 H 0.10414 0.0693 0.80389 0.0
H422 H 0.14282 0.04386 0.7599 0.0
H423 H 0.09826 0.99999 0.7889 0.0
C424 C 0.49276 0.52413 0.66398 0.0
C425 C 0.53269 0.50169 0.63665 0.0
C426 C 0.49745 0.52259 0.70454 0.0
C427 C 0.54334 0.49819 0.71823 0.0
C428 C 0.58401 0.47565 0.69088 0.0
C429 C 0.57813 0.47755 0.65035 0.0
C430 C 0.45302 0.54692 0.73275 0.0
C431 C 0.63362 0.4495 0.70445 0.0
C432 C 0.57875 0.53955 0.82678 0.0
C433 C 0.54477 0.49921 0.84415 0.0
C434 C 0.58089 0.53854 0.78562 0.0
C435 C 0.5481 0.49631 0.76125 0.0
C436 C 0.51585 0.45435 0.77844 0.0
C437 C 0.51467 0.45625 0.81968 0.0
C438 C 0.61615 0.58383 0.76834 0.0
C439 C 0.48029 0.40863 0.75342 0.0
H440 H 0.45742 0.54275 0.65369 0.0
H441 H 0.60917 0.46014 0.62942 0.0
H442 H 0.4288 0.51682 0.74952 0.0
H443 H 0.47659 0.57811 0.75456 0.0
H444 H 0.41995 0.56432 0.71731 0.0
H445 H 0.66186 0.43424 0.67947 0.0
H446 H 0.66225 0.4778 0.72561 0.0
H447 H 0.61475 0.41643 0.72028 0.0
H448 H 0.60248 0.57275 0.8454 0.0
H449 H 0.48845 0.4248 0.83278 0.0
H450 H 0.58525 0.60622 0.75542 0.0
H451 H 0.64588 0.56911 0.74413 0.0
H452 H 0.64358 0.61112 0.79085 0.0
H453 H 0.44285 0.42246 0.73965 0.0
H454 H 0.46176 0.37713 0.77095 0.0
H455 H 0.50845 0.39168 0.72912 0.0
C456 C 0.44166 0.53011 0.39033 0.0
C457 C 0.49247 0.51642 0.40628 0.0
C458 C 0.4398 0.5354 0.35008 0.0
C459 C 0.49055 0.52817 0.32567 0.0
C460 C 0.54226 0.5152 0.34188 0.0
C461 C 0.54231 0.50883 0.38186 0.0
C462 C 0.38341 0.54808 0.33359 0.0
C463 C 0.5977 0.50833 0.31705 0.0
C464 C 0.47496 0.49221 0.2147 0.0
C465 C 0.49044 0.54106 0.20155 0.0
C466 C 0.4735 0.48771 0.25509 0.0
C467 C 0.4894 0.53297 0.28293 0.0
C468 C 0.50581 0.58233 0.26982 0.0
C469 C 0.50536 0.58591 0.22924 0.0
C470 C 0.4546 0.43457 0.26796 0.0
C471 C 0.52449 0.6312 0.29861 0.0
H472 H 0.40308 0.53595 0.40918 0.0
H473 H 0.582 0.49892 0.39422 0.0
H474 H 0.39265 0.58523 0.3207 0.0
H475 H 0.36679 0.51671 0.30941 0.0
H476 H 0.34773 0.55205 0.35643 0.0
H477 H 0.63502 0.5005 0.33462 0.0
H478 H 0.58802 0.47522 0.29281 0.0
H479 H 0.61234 0.54414 0.30318 0.0
H480 H 0.46262 0.45752 0.1934 0.0
H481 H 0.51744 0.6237 0.21913 0.0
H482 H 0.41677 0.43664 0.28929 0.0
H483 H 0.49174 0.42259 0.28332 0.0
H484 H 0.441 0.40374 0.24268 0.0
H485 H 0.48796 0.63853 0.32018 0.0
H486 H 0.53648 0.66646 0.2836 0.0
H487 H 0.56342 0.62565 0.31564 0.0
loop_
_geom_bond_atom_site_label_1
_geom_bond_atom_site_label_2
_geom_bond_distance
_geom_bond_site_symmetry_2
_ccdc_geom_bond_type
Co0 N5 2.057 . S
Co0 O17 2.021 . S
Co0 O20 2.062 1_455 S
Co0 O24 2.117 1_554 S
Co0 O25 2.020 1_565 S
C1 O21 1.259 . S
C1 O24 1.258 1_645 S
Co2 N11 2.057 . S
Co2 O18 2.117 . S
Co2 O19 2.020 1_545 S
Co2 O21 2.021 1_554 S
Co2 O26 2.062 1_655 S
C3 N5 1.316 . S
C3 N6 1.347 . S
C3 H8 0.931 . S
C4 N5 1.375 1_556 S
C4 C7 1.350 . S
C4 H9 0.930 . S
N5 Co0 2.057 . S
N5 C3 1.316 . S
N5 C4 1.375 1_554 S
N6 C3 1.347 . S
N6 C7 1.373 1_554 S
C7 C4 1.350 . S
C7 N6 1.373 1_556 S
C7 H28 0.931 . S
H8 C3 0.931 . S
H9 C4 0.930 . S
C10 O17 1.259 1_545 S
C10 O18 1.258 1_455 S
N11 Co2 2.057 . S
N11 C12 1.316 . S
N11 C13 1.375 . S
C12 N11 1.316 . S
C12 N14 1.347 . S
C12 H23 0.931 1_554 S
C13 N11 1.375 . S
C13 C15 1.350 . S
C13 H22 0.930 . S
N14 C12 1.347 . S
N14 C15 1.373 . S
C15 C13 1.350 . S
C15 N14 1.373 . S
C15 H29 0.931 . S
C16 O19 1.256 . S
C16 O20 1.255 . S
O17 Co0 2.021 . S
O17 C10 1.259 1_565 S
O18 Co2 2.117 . S
O18 C10 1.258 1_655 S
O19 Co2 2.020 1_565 S
O19 C16 1.256 . S
O20 Co0 2.062 1_655 S
O20 C16 1.255 . S
O21 C1 1.259 . S
O21 Co2 2.021 1_556 S
H22 C13 0.930 . S
H23 C12 0.931 1_556 S
O24 Co0 2.117 1_556 S
O24 C1 1.258 1_465 S
O25 Co0 2.020 1_545 S
O25 C27 1.256 . S
O26 Co2 2.062 1_455 S
O26 C27 1.255 . S
C27 O25 1.256 . S
C27 O26 1.255 . S
H28 C7 0.931 . S
H29 C15 0.931 . S
Co30 N35 2.057 . S
Co30 O47 2.021 . S
Co30 O50 2.062 . S
Co30 O54 2.117 . S
Co30 O55 2.020 . S
C31 O51 1.259 . S
C31 O54 1.258 . S
Co32 N41 2.057 . S
Co32 O48 2.117 . S
Co32 O49 2.020 . S
Co32 O51 2.021 . S
Co32 O56 2.062 . S
C33 N35 1.316 . S
C33 N36 1.347 . S
C33 H38 0.931 . S
C34 N35 1.375 . S
C34 C37 1.350 . S
C34 H39 0.930 . S
N35 Co30 2.057 . S
N35 C33 1.316 . S
N35 C34 1.375 . S
N36 C33 1.347 . S
N36 C37 1.373 . S
C37 C34 1.350 . S
C37 N36 1.373 . S
C37 H58 0.931 . S
H38 C33 0.931 . S
H39 C34 0.930 . S
C40 O47 1.259 . S
C40 O48 1.258 . S
N41 Co32 2.057 . S
N41 C42 1.316 . S
N41 C43 1.375 . S
C42 N41 1.316 . S
C42 N44 1.347 . S
C42 H53 0.931 . S
C43 N41 1.375 . S
C43 C45 1.350 . S
C43 H52 0.930 . S
N44 C42 1.347 . S
N44 C45 1.373 . S
C45 C43 1.350 . S
C45 N44 1.373 . S
C45 H59 0.931 . S
C46 O49 1.256 . S
C46 O50 1.255 . S
O47 Co30 2.021 . S
O47 C40 1.259 . S
O48 Co32 2.117 . S
O48 C40 1.258 . S
O49 Co32 2.020 . S
O49 C46 1.256 . S
O50 Co30 2.062 . S
O50 C46 1.255 . S
O51 C31 1.259 . S
O51 Co32 2.021 . S
H52 C43 0.930 . S
H53 C42 0.931 . S
O54 Co30 2.117 . S
O54 C31 1.258 . S
O55 Co30 2.020 . S
O55 C57 1.256 . S
O56 Co32 2.062 . S
O56 C57 1.255 . S
C57 O55 1.256 . S
C57 O56 1.255 . S
H58 C37 0.931 . S
H59 C45 0.931 . S
O60 Cd61 2.300 . S
O60 C67 1.275 1_565 S
Cd61 O60 2.300 . S
Cd61 O69 2.382 . S
Cd61 O70 2.378 . S
O62 Cd63 2.385 . S
O62 C67 1.255 . S
Cd63 O62 2.385 . S
Cd63 O64 2.317 1_455 S
O64 Cd63 2.317 1_655 S
O64 C65 1.232 . S
C65 O64 1.232 . S
C65 O66 1.218 . S
O66 C65 1.218 . S
C67 O60 1.275 1_545 S
C67 O62 1.255 . S
C68 O69 1.258 . S
C68 O70 1.256 . S
O69 Cd61 2.382 . S
O69 C68 1.258 . S
O70 Cd61 2.378 . S
O70 C68 1.256 . S
O71 Cd72 2.300 . S
O71 C78 1.275 1_545 S
Cd72 O71 2.300 . S
Cd72 O80 2.381 . S
Cd72 O81 2.378 . S
O73 Cd74 2.385 . S
O73 C78 1.255 . S
Cd74 O73 2.385 . S
Cd74 O75 2.317 1_455 S
O75 Cd74 2.317 1_655 S
O75 C76 1.232 . S
C76 O75 1.232 . S
C76 O77 1.218 . S
O77 C76 1.218 . S
C78 O71 1.275 1_565 S
C78 O73 1.255 . S
C79 O80 1.258 . S
C79 O81 1.256 . S
O80 Cd72 2.381 . S
O80 C79 1.258 . S
O81 Cd72 2.378 . S
O81 C79 1.256 . S
O82 Cd83 2.300 . S
O82 C89 1.275 . S
Cd83 O82 2.300 . S
Cd83 O91 2.381 . S
Cd83 O92 2.378 1_556 S
O84 Cd85 2.385 . S
O84 C89 1.255 . S
Cd85 O84 2.385 . S
Cd85 O86 2.317 . S
O86 Cd85 2.317 . S
O86 C87 1.232 . S
C87 O86 1.232 . S
C87 O88 1.218 . S
O88 C87 1.218 . S
C89 O82 1.275 . S
C89 O84 1.255 . S
C90 O91 1.258 . S
C90 O92 1.256 1_556 S
O91 Cd83 2.381 . S
O91 C90 1.258 . S
O92 Cd83 2.378 1_554 S
O92 C90 1.256 1_554 S
O93 Cd94 2.300 . S
O93 C100 1.275 . S
Cd94 O93 2.300 . S
Cd94 O102 2.381 . S
Cd94 O103 2.378 . S
O95 Cd96 2.385 . S
O95 C100 1.255 . S
Cd96 O95 2.385 . S
Cd96 O97 2.317 . S
O97 Cd96 2.317 . S
O97 C98 1.232 . S
C98 O97 1.232 . S
C98 O99 1.218 . S
O99 C98 1.218 . S
C100 O93 1.275 . S
C100 O95 1.255 . S
C101 O102 1.258 . S
C101 O103 1.256 . S
O102 Cd94 2.381 . S
O102 C101 1.258 . S
O103 Cd94 2.378 . S
O103 C101 1.256 . S
C104 C105 1.391 . S
C104 C106 1.394 . S
C104 H120 0.931 . S
C105 C104 1.391 . S
C105 C109 1.376 . S
C106 C104 1.394 . S
C106 C107 1.369 . S
C106 C110 1.531 . S
C107 C106 1.369 . S
C107 C108 1.410 . S
C107 C115 1.503 . S
C108 C107 1.410 . S
C108 C109 1.392 . S
C108 C111 1.511 . S
C109 C105 1.376 . S
C109 C108 1.392 . S
C109 H121 0.929 . S
C110 C106 1.531 . S
C110 H122 0.960 1_554 S
C110 H123 0.962 . S
C110 H124 0.960 1_554 S
C111 C108 1.511 . S
C111 H125 0.961 . S
C111 H126 0.961 . S
C111 H127 0.961 . S
C112 C113 1.370 . S
C112 C114 1.363 . S
C112 H128 0.931 . S
C113 C112 1.370 . S
C113 C117 1.408 . S
C114 C112 1.363 . S
C114 C115 1.370 . S
C114 C118 1.524 . S
C115 C107 1.503 . S
C115 C114 1.370 . S
C115 C116 1.403 1_554 S
C116 C115 1.403 1_556 S
C116 C117 1.404 1_556 S
C116 C119 1.539 . S
C117 C113 1.408 . S
C117 C116 1.404 1_554 S
C117 H129 0.930 1_554 S
C118 C114 1.524 . S
C118 H130 0.956 . S
C118 H131 0.961 . S
C118 H132 0.961 . S
C119 C116 1.539 . S
C119 H133 0.958 . S
C119 H134 0.961 . S
C119 H135 0.960 . S
H120 C104 0.931 . S
H121 C109 0.929 . S
H122 C110 0.960 1_556 S
H123 C110 0.962 . S
H124 C110 0.960 1_556 S
H125 C111 0.961 . S
H126 C111 0.961 . S
H127 C111 0.961 . S
H128 C112 0.931 . S
H129 C117 0.930 1_556 S
H130 C118 0.956 . S
H131 C118 0.961 . S
H132 C118 0.961 . S
H133 C119 0.958 . S
H134 C119 0.961 . S
H135 C119 0.960 . S
C136 C137 1.391 1_556 S
C136 C138 1.394 . S
C136 H152 0.931 . S
C137 C136 1.391 1_554 S
C137 C141 1.376 . S
C138 C136 1.394 . S
C138 C139 1.369 1_556 S
C138 C142 1.531 . S
C139 C138 1.369 1_554 S
C139 C140 1.410 . S
C139 C147 1.503 . S
C140 C139 1.410 . S
C140 C141 1.392 . S
C140 C143 1.511 . S
C141 C137 1.376 . S
C141 C140 1.392 . S
C141 H153 0.929 . S
C142 C138 1.531 . S
C142 H154 0.960 . S
C142 H155 0.962 . S
C142 H156 0.960 . S
C143 C140 1.511 . S
C143 H157 0.961 . S
C143 H158 0.961 . S
C143 H159 0.961 . S
C144 C145 1.370 . S
C144 C146 1.363 . S
C144 H160 0.931 . S
C145 C144 1.370 . S
C145 C149 1.408 1_556 S
C146 C144 1.363 . S
C146 C147 1.370 1_556 S
C146 C150 1.524 . S
C147 C139 1.503 . S
C147 C146 1.370 1_554 S
C147 C148 1.403 . S
C148 C147 1.403 . S
C148 C149 1.404 . S
C148 C151 1.539 . S
C149 C145 1.408 1_554 S
C149 C148 1.404 . S
C149 H161 0.930 . S
C150 C146 1.524 . S
C150 H162 0.956 . S
C150 H163 0.961 . S
C150 H164 0.961 . S
C151 C148 1.539 . S
C151 H165 0.958 . S
C151 H166 0.961 . S
C151 H167 0.960 . S
H152 C136 0.931 . S
H153 C141 0.929 . S
H154 C142 0.960 . S
H155 C142 0.962 . S
H156 C142 0.960 . S
H157 C143 0.961 . S
H158 C143 0.961 . S
H159 C143 0.961 . S
H160 C144 0.931 . S
H161 C149 0.930 . S
H162 C150 0.956 . S
H163 C150 0.961 . S
H164 C150 0.961 . S
H165 C151 0.958 . S
H166 C151 0.961 . S
H167 C151 0.960 . S
C168 C169 1.391 1_556 S
C168 C170 1.394 . S
C168 H184 0.931 . S
C169 C168 1.391 1_554 S
C169 C173 1.376 . S
C170 C168 1.394 . S
C170 C171 1.369 1_556 S
C170 C174 1.531 . S
C171 C170 1.369 1_554 S
C171 C172 1.410 . S
C171 C179 1.503 . S
C172 C171 1.410 . S
C172 C173 1.392 . S
C172 C175 1.511 . S
C173 C169 1.376 . S
C173 C172 1.392 . S
C173 H185 0.929 . S
C174 C170 1.531 . S
C174 H186 0.960 . S
C174 H187 0.962 . S
C174 H188 0.960 . S
C175 C172 1.511 . S
C175 H189 0.961 . S
C175 H190 0.961 . S
C175 H191 0.961 . S
C176 C177 1.370 . S
C176 C178 1.363 . S
C176 H192 0.931 . S
C177 C176 1.370 . S
C177 C181 1.408 . S
C178 C176 1.363 . S
C178 C179 1.370 . S
C178 C182 1.524 . S
C179 C171 1.503 . S
C179 C178 1.370 . S
C179 C180 1.403 1_554 S
C180 C179 1.403 1_556 S
C180 C181 1.404 1_556 S
C180 C183 1.539 . S
C181 C177 1.408 . S
C181 C180 1.404 1_554 S
C181 H193 0.930 1_554 S
C182 C178 1.524 . S
C182 H194 0.956 . S
C182 H195 0.961 . S
C182 H196 0.961 . S
C183 C180 1.539 . S
C183 H197 0.958 . S
C183 H198 0.961 . S
C183 H199 0.960 . S
H184 C168 0.931 . S
H185 C173 0.929 . S
H186 C174 0.960 . S
H187 C174 0.962 . S
H188 C174 0.960 . S
H189 C175 0.961 . S
H190 C175 0.961 . S
H191 C175 0.961 . S
H192 C176 0.931 . S
H193 C181 0.930 1_556 S
H194 C182 0.956 . S
H195 C182 0.961 . S
H196 C182 0.961 . S
H197 C183 0.958 . S
H198 C183 0.961 . S
H199 C183 0.960 . S
C200 C201 1.391 1_556 S
C200 C202 1.394 . S
C200 H216 0.931 . S
C201 C200 1.391 1_554 S
C201 C205 1.376 . S
C202 C200 1.394 . S
C202 C203 1.369 1_556 S
C202 C206 1.531 . S
C203 C202 1.369 1_554 S
C203 C204 1.410 . S
C203 C211 1.503 . S
C204 C203 1.410 . S
C204 C205 1.392 . S
C204 C207 1.511 . S
C205 C201 1.376 . S
C205 C204 1.392 . S
C205 H217 0.929 . S
C206 C202 1.531 . S
C206 H218 0.960 . S
C206 H219 0.962 . S
C206 H220 0.960 . S
C207 C204 1.511 . S
C207 H221 0.961 . S
C207 H222 0.961 . S
C207 H223 0.961 . S
C208 C209 1.370 . S
C208 C210 1.363 . S
C208 H224 0.931 . S
C209 C208 1.370 . S
C209 C213 1.406 1_554 S
C210 C208 1.363 . S
C210 C211 1.370 . S
C210 C214 1.524 . S
C211 C203 1.503 . S
C211 C210 1.370 . S
C211 C212 1.403 . S
C212 C211 1.403 . S
C212 C213 1.399 1_554 S
C212 C215 1.539 1_554 S
C213 C209 1.406 1_556 S
C213 C212 1.399 1_556 S
C213 H225 0.938 . S
C214 C210 1.524 . S
C214 H226 0.956 . S
C214 H227 0.961 . S
C214 H228 0.961 . S
C215 C212 1.539 1_556 S
C215 H229 0.958 . S
C215 H230 0.961 1_556 S
C215 H231 0.960 1_556 S
H216 C200 0.931 . S
H217 C205 0.929 . S
H218 C206 0.960 . S
H219 C206 0.962 . S
H220 C206 0.960 . S
H221 C207 0.961 . S
H222 C207 0.961 . S
H223 C207 0.961 . S
H224 C208 0.931 . S
H225 C213 0.938 . S
H226 C214 0.956 . S
H227 C214 0.961 . S
H228 C214 0.961 . S
H229 C215 0.958 . S
H230 C215 0.961 1_554 S
H231 C215 0.960 1_554 S
C232 C233 1.391 . S
C232 C234 1.394 . S
C232 H248 0.931 . S
C233 C232 1.391 . S
C233 C237 1.376 . S
C234 C232 1.394 . S
C234 C235 1.369 . S
C234 C238 1.531 . S
C235 C234 1.369 . S
C235 C236 1.410 . S
C235 C243 1.503 . S
C236 C235 1.410 . S
C236 C237 1.392 . S
C236 C239 1.511 . S
C237 C233 1.376 . S
C237 C236 1.392 . S
C237 H249 0.929 . S
C238 C234 1.531 . S
C238 H250 0.960 . S
C238 H251 0.962 . S
C238 H252 0.960 . S
C239 C236 1.511 . S
C239 H253 0.961 . S
C239 H254 0.961 . S
C239 H255 0.961 . S
C240 C241 1.370 . S
C240 C242 1.363 . S
C240 H256 0.931 . S
C241 C240 1.370 . S
C241 C245 1.408 . S
C242 C240 1.363 . S
C242 C243 1.370 . S
C242 C246 1.524 . S
C243 C235 1.503 . S
C243 C242 1.370 . S
C243 C244 1.403 . S
C244 C243 1.403 . S
C244 C245 1.404 . S
C244 C247 1.539 . S
C245 C241 1.408 . S
C245 C244 1.404 . S
C245 H257 0.930 . S
C246 C242 1.524 . S
C246 H258 0.956 . S
C246 H259 0.961 . S
C246 H260 0.961 . S
C247 C244 1.539 . S
C247 H261 0.958 . S
C247 H262 0.961 . S
C247 H263 0.960 . S
H248 C232 0.931 . S
H249 C237 0.929 . S
H250 C238 0.960 . S
H251 C238 0.962 . S
H252 C238 0.960 . S
H253 C239 0.961 . S
H254 C239 0.961 . S
H255 C239 0.961 . S
H256 C240 0.931 . S
H257 C245 0.930 . S
H258 C246 0.956 . S
H259 C246 0.961 . S
H260 C246 0.961 . S
H261 C247 0.958 . S
H262 C247 0.961 . S
H263 C247 0.960 . S
C264 C265 1.391 . S
C264 C266 1.394 . S
C264 H280 0.931 . S
C265 C264 1.391 . S
C265 C269 1.376 . S
C266 C264 1.394 . S
C266 C267 1.369 . S
C266 C270 1.531 . S
C267 C266 1.369 . S
C267 C268 1.410 . S
C267 C275 1.503 . S
C268 C267 1.410 . S
C268 C269 1.392 . S
C268 C271 1.511 . S
C269 C265 1.376 . S
C269 C268 1.392 . S
C269 H281 0.929 . S
C270 C266 1.531 . S
C270 H282 0.960 . S
C270 H283 0.962 . S
C270 H284 0.960 . S
C271 C268 1.511 . S
C271 H285 0.961 . S
C271 H286 0.961 . S
C271 H287 0.961 . S
C272 C273 1.370 . S
C272 C274 1.363 . S
C272 H288 0.931 . S
C273 C272 1.370 . S
C273 C277 1.408 . S
C274 C272 1.363 . S
C274 C275 1.370 . S
C274 C278 1.524 . S
C275 C267 1.503 . S
C275 C274 1.370 . S
C275 C276 1.403 . S
C276 C275 1.403 . S
C276 C277 1.404 . S
C276 C279 1.539 . S
C277 C273 1.408 . S
C277 C276 1.404 . S
C277 H289 0.930 . S
C278 C274 1.524 . S
C278 H290 0.956 . S
C278 H291 0.961 . S
C278 H292 0.961 . S
C279 C276 1.539 . S
C279 H293 0.958 . S
C279 H294 0.961 . S
C279 H295 0.960 . S
H280 C264 0.931 . S
H281 C269 0.929 . S
H282 C270 0.960 . S
H283 C270 0.962 . S
H284 C270 0.960 . S
H285 C271 0.961 . S
H286 C271 0.961 . S
H287 C271 0.961 . S
H288 C272 0.931 . S
H289 C277 0.930 . S
H290 C278 0.956 . S
H291 C278 0.961 . S
H292 C278 0.961 . S
H293 C279 0.958 . S
H294 C279 0.961 . S
H295 C279 0.960 . S
C296 C297 1.391 . S
C296 C298 1.394 . S
C296 H312 0.931 . S
C297 C296 1.391 . S
C297 C301 1.376 . S
C298 C296 1.394 . S
C298 C299 1.369 . S
C298 C302 1.531 . S
C299 C298 1.369 . S
C299 C300 1.410 . S
C299 C307 1.503 . S
C300 C299 1.410 . S
C300 C301 1.392 . S
C300 C303 1.511 . S
C301 C297 1.376 . S
C301 C300 1.392 . S
C301 H313 0.929 . S
C302 C298 1.531 . S
C302 H314 0.960 . S
C302 H315 0.962 . S
C302 H316 0.960 . S
C303 C300 1.511 . S
C303 H317 0.961 . S
C303 H318 0.961 . S
C303 H319 0.961 . S
C304 C305 1.370 . S
C304 C306 1.363 . S
C304 H320 0.931 . S
C305 C304 1.370 . S
C305 C309 1.408 . S
C306 C304 1.363 . S
C306 C307 1.370 . S
C306 C310 1.524 . S
C307 C299 1.503 . S
C307 C306 1.370 . S
C307 C308 1.403 . S
C308 C307 1.403 . S
C308 C309 1.404 . S
C308 C311 1.539 . S
C309 C305 1.408 . S
C309 C308 1.404 . S
C309 H321 0.930 . S
C310 C306 1.524 . S
C310 H322 0.956 . S
C310 H323 0.961 . S
C310 H324 0.961 . S
C311 C308 1.539 . S
C311 H325 0.958 . S
C311 H326 0.961 . S
C311 H327 0.960 . S
H312 C296 0.931 . S
H313 C301 0.929 . S
H314 C302 0.960 . S
H315 C302 0.962 . S
H316 C302 0.960 . S
H317 C303 0.961 . S
H318 C303 0.961 . S
H319 C303 0.961 . S
H320 C304 0.931 . S
H321 C309 0.930 . S
H322 C310 0.956 . S
H323 C310 0.961 . S
H324 C310 0.961 . S
H325 C311 0.958 . S
H326 C311 0.961 . S
H327 C311 0.960 . S
C328 C329 1.391 . S
C328 C330 1.394 . S
C328 H344 0.931 . S
C329 C328 1.391 . S
C329 C333 1.376 . S
C330 C328 1.394 . S
C330 C331 1.369 . S
C330 C334 1.531 . S
C331 C330 1.369 . S
C331 C332 1.410 . S
C331 C339 1.503 . S
C332 C331 1.410 . S
C332 C333 1.392 . S
C332 C335 1.511 . S
C333 C329 1.376 . S
C333 C332 1.392 . S
C333 H345 0.929 . S
C334 C330 1.531 . S
C334 H346 0.960 . S
C334 H347 0.962 . S
C334 H348 0.960 . S
C335 C332 1.511 . S
C335 H349 0.961 . S
C335 H350 0.961 . S
C335 H351 0.961 . S
C336 C337 1.370 . S
C336 C338 1.363 . S
C336 H352 0.931 . S
C337 C336 1.370 . S
C337 C341 1.408 . S
C338 C336 1.363 . S
C338 C339 1.370 . S
C338 C342 1.524 . S
C339 C331 1.503 . S
C339 C338 1.370 . S
C339 C340 1.403 . S
C340 C339 1.403 . S
C340 C341 1.404 . S
C340 C343 1.539 . S
C341 C337 1.408 . S
C341 C340 1.404 . S
C341 H353 0.930 . S
C342 C338 1.524 . S
C342 H354 0.956 . S
C342 H355 0.961 . S
C342 H356 0.961 . S
C343 C340 1.539 . S
C343 H357 0.958 . S
C343 H358 0.961 . S
C343 H359 0.960 . S
H344 C328 0.931 . S
H345 C333 0.929 . S
H346 C334 0.960 . S
H347 C334 0.962 . S
H348 C334 0.960 . S
H349 C335 0.961 . S
H350 C335 0.961 . S
H351 C335 0.961 . S
H352 C336 0.931 . S
H353 C341 0.930 . S
H354 C342 0.956 . S
H355 C342 0.961 . S
H356 C342 0.961 . S
H357 C343 0.958 . S
H358 C343 0.961 . S
H359 C343 0.960 . S
C360 C361 1.391 1_665 S
C360 C362 1.394 . S
C360 H376 0.931 . S
C361 C360 1.391 1_445 S
C361 C365 1.376 . S
C362 C360 1.394 . S
C362 C363 1.369 1_665 S
C362 C366 1.531 . S
C363 C362 1.369 1_445 S
C363 C364 1.410 . S
C363 C371 1.503 . S
C364 C363 1.410 . S
C364 C365 1.392 . S
C364 C367 1.511 . S
C365 C361 1.376 . S
C365 C364 1.392 . S
C365 H377 0.929 . S
C366 C362 1.531 . S
C366 H378 0.960 1_655 S
C366 H379 0.962 . S
C366 H380 0.960 . S
C367 C364 1.511 . S
C367 H381 0.961 . S
C367 H382 0.961 . S
C367 H383 0.961 . S
C368 C369 1.370 1_655 S
C368 C370 1.363 . S
C368 H384 0.931 . S
C369 C368 1.370 1_455 S
C369 C373 1.408 . S
C370 C368 1.363 . S
C370 C371 1.370 1_655 S
C370 C374 1.524 . S
C371 C363 1.503 . S
C371 C370 1.370 1_455 S
C371 C372 1.403 . S
C372 C371 1.403 . S
C372 C373 1.404 . S
C372 C375 1.539 . S
C373 C369 1.408 . S
C373 C372 1.404 . S
C373 H385 0.930 . S
C374 C370 1.524 . S
C374 H386 0.956 1_545 S
C374 H387 0.961 . S
C374 H388 0.961 . S
C375 C372 1.539 . S
C375 H389 0.958 1_545 S
C375 H390 0.961 . S
C375 H391 0.960 . S
H376 C360 0.931 . S
H377 C365 0.929 . S
H378 C366 0.960 1_455 S
H379 C366 0.962 . S
H380 C366 0.960 . S
H381 C367 0.961 . S
H382 C367 0.961 . S
H383 C367 0.961 . S
H384 C368 0.931 . S
H385 C373 0.930 . S
H386 C374 0.956 1_565 S
H387 C374 0.961 . S
H388 C374 0.961 . S
H389 C375 0.958 1_565 S
H390 C375 0.961 . S
H391 C375 0.960 . S
C392 C393 1.387 1_545 S
C392 C394 1.394 . S
C392 H408 0.931 . S
C393 C392 1.387 1_565 S
C393 C397 1.379 1_455 S
C394 C392 1.394 . S
C394 C395 1.369 1_545 S
C394 C398 1.531 . S
C395 C394 1.369 1_565 S
C395 C396 1.410 1_455 S
C395 C403 1.503 . S
C396 C395 1.410 1_655 S
C396 C397 1.392 . S
C396 C399 1.511 . S
C397 C393 1.379 1_655 S
C397 C396 1.392 . S
C397 H409 0.929 . S
C398 C394 1.531 . S
C398 H410 0.960 . S
C398 H411 0.962 . S
C398 H412 0.960 . S
C399 C396 1.511 . S
C399 H413 0.961 . S
C399 H414 0.961 . S
C399 H415 0.961 1_655 S
C400 C401 1.364 1_645 S
C400 C402 1.363 . S
C400 H416 0.931 . S
C401 C400 1.364 1_465 S
C401 C405 1.416 . S
C402 C400 1.363 . S
C402 C403 1.370 1_645 S
C402 C406 1.524 . S
C403 C395 1.503 . S
C403 C402 1.370 1_465 S
C403 C404 1.403 . S
C404 C403 1.403 . S
C404 C405 1.404 . S
C404 C407 1.539 . S
C405 C401 1.416 . S
C405 C404 1.404 . S
C405 H417 0.930 . S
C406 C402 1.524 . S
C406 H418 0.956 . S
C406 H419 0.961 1_545 S
C406 H420 0.961 . S
C407 C404 1.539 . S
C407 H421 0.958 1_565 S
C407 H422 0.961 . S
C407 H423 0.960 . S
H408 C392 0.931 . S
H409 C397 0.929 . S
H410 C398 0.960 . S
H411 C398 0.962 . S
H412 C398 0.960 . S
H413 C399 0.961 . S
H414 C399 0.961 . S
H415 C399 0.961 1_455 S
H416 C400 0.931 . S
H417 C405 0.930 . S
H418 C406 0.956 . S
H419 C406 0.961 1_565 S
H420 C406 0.961 . S
H421 C407 0.958 1_545 S
H422 C407 0.961 . S
H423 C407 0.960 . S
C424 C425 1.391 . S
C424 C426 1.394 . S
C424 H440 0.931 . S
C425 C424 1.391 . S
C425 C429 1.376 . S
C426 C424 1.394 . S
C426 C427 1.369 . S
C426 C430 1.531 . S
C427 C426 1.369 . S
C427 C428 1.410 . S
C427 C435 1.503 . S
C428 C427 1.410 . S
C428 C429 1.392 . S
C428 C431 1.511 . S
C429 C425 1.376 . S
C429 C428 1.392 . S
C429 H441 0.929 . S
C430 C426 1.531 . S
C430 H442 0.960 . S
C430 H443 0.962 . S
C430 H444 0.960 . S
C431 C428 1.511 . S
C431 H445 0.961 . S
C431 H446 0.961 . S
C431 H447 0.961 . S
C432 C433 1.370 . S
C432 C434 1.363 . S
C432 H448 0.931 . S
C433 C432 1.370 . S
C433 C437 1.408 . S
C434 C432 1.363 . S
C434 C435 1.370 . S
C434 C438 1.524 . S
C435 C427 1.503 . S
C435 C434 1.370 . S
C435 C436 1.403 . S
C436 C435 1.403 . S
C436 C437 1.404 . S
C436 C439 1.539 . S
C437 C433 1.408 . S
C437 C436 1.404 . S
C437 H449 0.930 . S
C438 C434 1.524 . S
C438 H450 0.956 . S
C438 H451 0.961 . S
C438 H452 0.961 . S
C439 C436 1.539 . S
C439 H453 0.958 . S
C439 H454 0.961 . S
C439 H455 0.960 . S
H440 C424 0.931 . S
H441 C429 0.929 . S
H442 C430 0.960 . S
H443 C430 0.962 . S
H444 C430 0.960 . S
H445 C431 0.961 . S
H446 C431 0.961 . S
H447 C431 0.961 . S
H448 C432 0.931 . S
H449 C437 0.930 . S
H450 C438 0.956 . S
H451 C438 0.961 . S
H452 C438 0.961 . S
H453 C439 0.958 . S
H454 C439 0.961 . S
H455 C439 0.960 . S
C456 C457 1.391 . S
C456 C458 1.394 . S
C456 H472 0.931 . S
C457 C456 1.391 . S
C457 C461 1.376 . S
C458 C456 1.394 . S
C458 C459 1.369 . S
C458 C462 1.531 . S
C459 C458 1.369 . S
C459 C460 1.410 . S
C459 C467 1.503 . S
C460 C459 1.410 . S
C460 C461 1.392 . S
C460 C463 1.511 . S
C461 C457 1.376 . S
C461 C460 1.392 . S
C461 H473 0.929 . S
C462 C458 1.531 . S
C462 H474 0.960 . S
C462 H475 0.962 . S
C462 H476 0.960 . S
C463 C460 1.511 . S
C463 H477 0.961 . S
C463 H478 0.961 . S
C463 H479 0.961 . S
C464 C465 1.370 . S
C464 C466 1.363 . S
C464 H480 0.931 . S
C465 C464 1.370 . S
C465 C469 1.408 . S
C466 C464 1.363 . S
C466 C467 1.370 . S
C466 C470 1.524 . S
C467 C459 1.503 . S
C467 C466 1.370 . S
C467 C468 1.403 . S
C468 C467 1.403 . S
C468 C469 1.404 . S
C468 C471 1.539 . S
C469 C465 1.408 . S
C469 C468 1.404 . S
C469 H481 0.930 . S
C470 C466 1.524 . S
C470 H482 0.956 . S
C470 H483 0.961 . S
C470 H484 0.961 . S
C471 C468 1.539 . S
C471 H485 0.958 . S
C471 H486 0.961 . S
C471 H487 0.960 . S
H472 C456 0.931 . S
H473 C461 0.929 . S
H474 C462 0.960 . S
H475 C462 0.962 . S
H476 C462 0.960 . S
H477 C463 0.961 . S
H478 C463 0.961 . S
H479 C463 0.961 . S
H480 C464 0.931 . S
H481 C469 0.930 . S
H482 C470 0.956 . S
H483 C470 0.961 . S
H484 C470 0.961 . S
H485 C471 0.958 . S
H486 C471 0.961 . S
H487 C471 0.960 . S
C113 C98 1.269 . S
C105 C27 1.476 . S
C137 N6 1.418 . S
C145 C87 1.231 . S
C169 C16 1.449 . S
C177 C101 1.418 . S
C201 N14 1.403 . S
C209 C90 1.408 1_554 S
C233 C57 1.476 . S
C241 C76 1.277 . S
C265 N36 1.430 . S
C273 C65 1.245 . S
C305 C79 1.416 . S
C297 C46 1.441 . S
C337 C68 1.411 . S
C329 N44 1.394 . S
C361 C10 1.440 . S
C369 C67 1.394 . S
C393 C1 1.536 1_465 S
C401 C78 1.474 . S
C433 C89 1.401 . S
C425 C40 1.443 . S
C457 C31 1.528 . S
C465 C100 1.472 . S
