# Generated by pormake.
# Topology ocu, (6,8)-cn, num edge types: 1
# Building blocks:
#     Node 0, Type 0, BuildingBlock: JUFBIX_clean_sbu_0, # of connection points: 6
#     Node 1, Type 0, BuildingBlock: JUFBIX_clean_sbu_0, # of connection points: 6
#     Node 2, Type 0, BuildingBlock: JUFBIX_clean_sbu_0, # of connection points: 6
#     Node 3, Type 0, BuildingBlock: JUFBIX_clean_sbu_0, # of connection points: 6
#     Node 4, Type 0, BuildingBlock: JUFBIX_clean_sbu_0, # of connection points: 6
#     Node 5, Type 0, BuildingBlock: JUFBIX_clean_sbu_0, # of connection points: 6
#     Node 6, Type 0, BuildingBlock: JUFBIX_clean_sbu_0, # of connection points: 6
#     Node 7, Type 0, BuildingBlock: JUFBIX_clean_sbu_0, # of connection points: 6
#     Node 8, Type 1, BuildingBlock: TAGTUT_clean_sbu_1, # of connection points: 8
#     Node 9, Type 1, BuildingBlock: TAGTUT_clean_sbu_1, # of connection points: 8
#     Node 10, Type 1, BuildingBlock: TAGTUT_clean_sbu_1, # of connection points: 8
#     Node 11, Type 1, BuildingBlock: TAGTUT_clean_sbu_1, # of connection points: 8
#     Node 12, Type 1, BuildingBlock: TAGTUT_clean_sbu_1, # of connection points: 8
#     Node 13, Type 1, BuildingBlock: TAGTUT_clean_sbu_1, # of connection points: 8
#     Edge 14, Type (0, 1), BuildingBlock: AJUNOK_clean_linker_0, # of connection points: 2
#     Edge 15, Type (0, 1), BuildingBlock: AJUNOK_clean_linker_0, # of connection points: 2
#     Edge 16, Type (0, 1), BuildingBlock: AJUNOK_clean_linker_0, # of connection points: 2
#     Edge 17, Type (0, 1), BuildingBlock: AJUNOK_clean_linker_0, # of connection points: 2
#     Edge 18, Type (0, 1), BuildingBlock: AJUNOK_clean_linker_0, # of connection points: 2
#     Edge 19, Type (0, 1), BuildingBlock: AJUNOK_clean_linker_0, # of connection points: 2
#     Edge 20, Type (0, 1), BuildingBlock: AJUNOK_clean_linker_0, # of connection points: 2
#     Edge 21, Type (0, 1), BuildingBlock: AJUNOK_clean_linker_0, # of connection points: 2
#     Edge 22, Type (0, 1), BuildingBlock: AJUNOK_clean_linker_0, # of connection points: 2
#     Edge 23, Type (0, 1), BuildingBlock: AJUNOK_clean_linker_0, # of connection points: 2
#     Edge 24, Type (0, 1), BuildingBlock: AJUNOK_clean_linker_0, # of connection points: 2
#     Edge 25, Type (0, 1), BuildingBlock: AJUNOK_clean_linker_0, # of connection points: 2
#     Edge 26, Type (0, 1), BuildingBlock: AJUNOK_clean_linker_0, # of connection points: 2
#     Edge 27, Type (0, 1), BuildingBlock: AJUNOK_clean_linker_0, # of connection points: 2
#     Edge 28, Type (0, 1), BuildingBlock: AJUNOK_clean_linker_0, # of connection points: 2
#     Edge 29, Type (0, 1), BuildingBlock: AJUNOK_clean_linker_0, # of connection points: 2
#     Edge 30, Type (0, 1), BuildingBlock: AJUNOK_clean_linker_0, # of connection points: 2
#     Edge 31, Type (0, 1), BuildingBlock: AJUNOK_clean_linker_0, # of connection points: 2
#     Edge 32, Type (0, 1), BuildingBlock: AJUNOK_clean_linker_0, # of connection points: 2
#     Edge 33, Type (0, 1), BuildingBlock: AJUNOK_clean_linker_0, # of connection points: 2
#     Edge 34, Type (0, 1), BuildingBlock: AJUNOK_clean_linker_0, # of connection points: 2
#     Edge 35, Type (0, 1), BuildingBlock: AJUNOK_clean_linker_0, # of connection points: 2
#     Edge 36, Type (0, 1), BuildingBlock: AJUNOK_clean_linker_0, # of connection points: 2
#     Edge 37, Type (0, 1), BuildingBlock: AJUNOK_clean_linker_0, # of connection points: 2
#     Edge 38, Type (0, 1), BuildingBlock: AJUNOK_clean_linker_0, # of connection points: 2
#     Edge 39, Type (0, 1), BuildingBlock: AJUNOK_clean_linker_0, # of connection points: 2
#     Edge 40, Type (0, 1), BuildingBlock: AJUNOK_clean_linker_0, # of connection points: 2
#     Edge 41, Type (0, 1), BuildingBlock: AJUNOK_clean_linker_0, # of connection points: 2
#     Edge 42, Type (0, 1), BuildingBlock: AJUNOK_clean_linker_0, # of connection points: 2
#     Edge 43, Type (0, 1), BuildingBlock: AJUNOK_clean_linker_0, # of connection points: 2
#     Edge 44, Type (0, 1), BuildingBlock: AJUNOK_clean_linker_0, # of connection points: 2
#     Edge 45, Type (0, 1), BuildingBlock: AJUNOK_clean_linker_0, # of connection points: 2
#     Edge 46, Type (0, 1), BuildingBlock: AJUNOK_clean_linker_0, # of connection points: 2
#     Edge 47, Type (0, 1), BuildingBlock: AJUNOK_clean_linker_0, # of connection points: 2
#     Edge 48, Type (0, 1), BuildingBlock: AJUNOK_clean_linker_0, # of connection points: 2
#     Edge 49, Type (0, 1), BuildingBlock: AJUNOK_clean_linker_0, # of connection points: 2
#     Edge 50, Type (0, 1), BuildingBlock: AJUNOK_clean_linker_0, # of connection points: 2
#     Edge 51, Type (0, 1), BuildingBlock: AJUNOK_clean_linker_0, # of connection points: 2
#     Edge 52, Type (0, 1), BuildingBlock: AJUNOK_clean_linker_0, # of connection points: 2
#     Edge 53, Type (0, 1), BuildingBlock: AJUNOK_clean_linker_0, # of connection points: 2
#     Edge 54, Type (0, 1), BuildingBlock: AJUNOK_clean_linker_0, # of connection points: 2
#     Edge 55, Type (0, 1), BuildingBlock: AJUNOK_clean_linker_0, # of connection points: 2
#     Edge 56, Type (0, 1), BuildingBlock: AJUNOK_clean_linker_0, # of connection points: 2
#     Edge 57, Type (0, 1), BuildingBlock: AJUNOK_clean_linker_0, # of connection points: 2
#     Edge 58, Type (0, 1), BuildingBlock: AJUNOK_clean_linker_0, # of connection points: 2
#     Edge 59, Type (0, 1), BuildingBlock: AJUNOK_clean_linker_0, # of connection points: 2
#     Edge 60, Type (0, 1), BuildingBlock: AJUNOK_clean_linker_0, # of connection points: 2
#     Edge 61, Type (0, 1), BuildingBlock: AJUNOK_clean_linker_0, # of connection points: 2
# Relax obj value: 0.217
# Max RMSD: 0.322
# Mean RMSD: 0.177
data_MOF--net-ocu--node1-JUFBIX_clean_sbu_0--node2-TAGTUT_clean_sbu_1--edge1-AJUNOK_clean_linker_0
_symmetry_space_group_name_H-M    P1
_symmetry_Int_Tables_number       1
_symmetry_cell_setting            triclinic
loop_
_symmetry_equiv_pos_as_xyz
'x, y, z'
_cell_length_a     28.664653
_cell_length_b     28.203644
_cell_length_c     30.198092
_cell_angle_alpha  93.683609
_cell_angle_beta   95.553295
_cell_angle_gamma 102.12701
loop_
_atom_site_label
_atom_site_type_symbol
_atom_site_fract_x
_atom_site_fract_y
_atom_site_fract_z
_atom_type_partial_charge
Co0 Co 0.24095 0.22818 0.26129 0.0
C1 C 0.24769 0.31066 0.32633 0.0
Co2 Co 0.30399 0.28881 0.26744 0.0
C3 C 0.15075 0.14587 0.25261 0.0
C4 C 0.1795 0.1813 0.31692 0.0
N5 N 0.18701 0.18181 0.27334 0.0
N6 N 0.12021 0.12648 0.28183 0.0
C7 C 0.13857 0.14961 0.32185 0.0
H8 H 0.14789 0.13291 0.21773 0.0
H9 H 0.20386 0.20104 0.34476 0.0
C10 C 0.29871 0.20734 0.2018 0.0
N11 N 0.35835 0.33485 0.26418 0.0
C12 C 0.37853 0.34571 0.22689 0.0
C13 C 0.38933 0.36124 0.29784 0.0
N14 N 0.42105 0.37724 0.23575 0.0
C15 C 0.42805 0.38799 0.28023 0.0
C16 C 0.3215 0.21659 0.32004 0.0
O17 O 0.25822 0.18755 0.21427 0.0
O18 O 0.32057 0.24896 0.22033 0.0
O19 O 0.34062 0.25864 0.30982 0.0
O20 O 0.27851 0.19848 0.30371 0.0
O21 O 0.28812 0.32888 0.31441 0.0
H22 H 0.38447 0.36038 0.33288 0.0
H23 H 0.36219 0.33102 0.19364 0.0
O24 O 0.22499 0.27031 0.307 0.0
O25 O 0.20387 0.25802 0.21815 0.0
O26 O 0.26677 0.31899 0.22383 0.0
C27 C 0.22369 0.29985 0.20674 0.0
H28 H 0.12617 0.13995 0.35355 0.0
H29 H 0.45884 0.41295 0.29843 0.0
Co30 Co 0.81027 0.27405 0.2333 0.0
C31 C 0.7946 0.3242 0.31341 0.0
Co32 Co 0.74341 0.2478 0.26056 0.0
C33 C 0.89118 0.34425 0.2214 0.0
C34 C 0.90912 0.27475 0.2244 0.0
N35 N 0.87174 0.29694 0.22221 0.0
N36 N 0.9394 0.35333 0.22336 0.0
C37 C 0.95083 0.30938 0.22513 0.0
H38 H 0.8697 0.37133 0.21826 0.0
H39 H 0.90643 0.23614 0.22638 0.0
C40 C 0.75928 0.19667 0.18136 0.0
N41 N 0.68165 0.22556 0.27094 0.0
C42 C 0.66441 0.21051 0.30838 0.0
C43 C 0.64325 0.21617 0.23941 0.0
N44 N 0.61699 0.19129 0.30127 0.0
C45 C 0.6034 0.19427 0.25796 0.0
C46 C 0.74213 0.32079 0.19814 0.0
O47 O 0.7991 0.22695 0.18295 0.0
O48 O 0.73198 0.20078 0.21122 0.0
O49 O 0.71948 0.29337 0.22427 0.0
O50 O 0.78588 0.31928 0.19559 0.0
O51 O 0.75473 0.29394 0.31104 0.0
H52 H 0.64482 0.22162 0.2044 0.0
H53 H 0.68687 0.20907 0.33904 0.0
O54 O 0.8218 0.32139 0.28314 0.0
O55 O 0.83449 0.22994 0.27056 0.0
O56 O 0.7677 0.2019 0.298 0.0
C57 C 0.81215 0.20229 0.29665 0.0
H58 H 0.98655 0.30244 0.22517 0.0
H59 H 0.56839 0.17784 0.24041 0.0
Co60 Co 0.76769 0.722 0.27436 0.0
C61 C 0.83858 0.80027 0.3188 0.0
Co62 Co 0.78448 0.78832 0.24001 0.0
C63 C 0.78883 0.63171 0.29369 0.0
C64 C 0.75878 0.66297 0.34739 0.0
N65 N 0.76448 0.66613 0.30386 0.0
N66 N 0.80556 0.61314 0.33003 0.0
C67 C 0.78391 0.63015 0.3635 0.0
H68 H 0.80324 0.62752 0.2624 0.0
H69 H 0.74564 0.68905 0.36791 0.0
C70 C 0.71384 0.70919 0.19543 0.0
N71 N 0.78602 0.84359 0.21147 0.0
C72 C 0.74556 0.85965 0.20308 0.0
C73 C 0.81641 0.86618 0.18413 0.0
N74 N 0.74792 0.88923 0.17037 0.0
C75 C 0.79248 0.89394 0.15802 0.0
C76 C 0.83689 0.7281 0.21039 0.0
O77 O 0.7219 0.68763 0.22987 0.0
O78 O 0.73431 0.75377 0.19482 0.0
O79 O 0.82967 0.77 0.20427 0.0
O80 O 0.81643 0.70504 0.24043 0.0
O81 O 0.83353 0.82155 0.28345 0.0
H82 H 0.85097 0.85821 0.17935 0.0
H83 H 0.71176 0.84318 0.21458 0.0
O84 O 0.81465 0.75715 0.32028 0.0
O85 O 0.71933 0.73937 0.30695 0.0
O86 O 0.73947 0.80759 0.27686 0.0
C87 C 0.71534 0.78292 0.30375 0.0
H88 H 0.79415 0.62767 0.39862 0.0
H89 H 0.80455 0.91092 0.12879 0.0
Co90 Co 0.24521 0.78068 0.2409 0.0
C91 C 0.30486 0.81752 0.3186 0.0
Co92 Co 0.30012 0.73961 0.25755 0.0
C93 C 0.15221 0.80115 0.23893 0.0
C94 C 0.20296 0.86133 0.22066 0.0
N95 N 0.19701 0.81386 0.22715 0.0
N96 N 0.1333 0.83993 0.24822 0.0
C97 C 0.16343 0.87711 0.23278 0.0
H98 H 0.13762 0.76601 0.25007 0.0
H99 H 0.23652 0.88464 0.2149 0.0
C100 C 0.24019 0.70152 0.18085 0.0
N101 N 0.34682 0.70543 0.2709 0.0
C102 C 0.37662 0.6978 0.24109 0.0
C103 C 0.34808 0.67059 0.29944 0.0
N104 N 0.394 0.65799 0.24753 0.0
C105 C 0.3765 0.64051 0.28439 0.0
C106 C 0.21489 0.7034 0.29978 0.0
O107 O 0.21965 0.73565 0.19129 0.0
O108 O 0.27693 0.69625 0.20526 0.0
O109 O 0.25595 0.69562 0.29263 0.0
O110 O 0.20322 0.73936 0.28125 0.0
O111 O 0.32252 0.78104 0.30917 0.0
H112 H 0.32502 0.66331 0.32561 0.0
H113 H 0.3782 0.715 0.21009 0.0
O114 O 0.27157 0.82695 0.29181 0.0
O115 O 0.28728 0.82068 0.20118 0.0
O116 O 0.34503 0.78502 0.22147 0.0
C117 C 0.33054 0.81655 0.19795 0.0
H118 H 0.16198 0.91489 0.2384 0.0
H119 H 0.3788 0.60542 0.2959 0.0
Co120 Co 0.30043 0.76543 0.74321 0.0
C121 C 0.29313 0.82436 0.82094 0.0
Co122 Co 0.23472 0.74717 0.774 0.0
C123 C 0.3777 0.79687 0.69184 0.0
C124 C 0.4014 0.78534 0.75877 0.0
N125 N 0.3617 0.78032 0.72923 0.0
N126 N 0.42556 0.81364 0.69734 0.0
C127 C 0.44082 0.80626 0.7392 0.0
H128 H 0.3543 0.80296 0.66338 0.0
H129 H 0.40125 0.77929 0.79376 0.0
C130 C 0.24103 0.68937 0.69593 0.0
N131 N 0.17428 0.7314 0.78921 0.0
C132 C 0.15106 0.68633 0.79498 0.0
C133 C 0.1419 0.75946 0.79304 0.0
N134 N 0.10574 0.68478 0.80343 0.0
C135 C 0.09951 0.73072 0.8021 0.0
C136 C 0.2352 0.81403 0.70612 0.0
O137 O 0.2823 0.71625 0.6949 0.0
O138 O 0.21707 0.69708 0.72769 0.0
O139 O 0.21228 0.79027 0.73443 0.0
O140 O 0.27886 0.81139 0.70432 0.0
O141 O 0.25182 0.79748 0.82119 0.0
H142 H 0.14903 0.79836 0.79054 0.0
H143 H 0.16818 0.65558 0.79617 0.0
O144 O 0.31873 0.8157 0.79074 0.0
O145 O 0.32135 0.71959 0.78041 0.0
O146 O 0.25699 0.70222 0.81385 0.0
C147 C 0.29901 0.69604 0.80903 0.0
H148 H 0.47655 0.82091 0.75605 0.0
H149 H 0.06803 0.74315 0.81068 0.0
Co150 Co 0.25006 0.2045 0.76966 0.0
C151 C 0.32653 0.28343 0.80987 0.0
Co152 Co 0.26447 0.27175 0.73768 0.0
C153 C 0.29732 0.13765 0.80303 0.0
C154 C 0.22824 0.12607 0.82663 0.0
N155 N 0.25413 0.14876 0.79612 0.0
N156 N 0.30145 0.11285 0.83876 0.0
C157 C 0.25775 0.10421 0.85346 0.0
H158 H 0.3286 0.15643 0.78886 0.0
H159 H 0.19333 0.13148 0.83359 0.0
C160 C 0.18901 0.19472 0.69543 0.0
N161 N 0.25984 0.3279 0.71378 0.0
C162 C 0.21852 0.34281 0.71422 0.0
C163 C 0.28669 0.35837 0.68883 0.0
N164 N 0.21707 0.37985 0.68977 0.0
C165 C 0.25992 0.39071 0.6736 0.0
C166 C 0.31267 0.21454 0.69871 0.0
O167 O 0.19946 0.16999 0.7272 0.0
O168 O 0.21006 0.23919 0.69718 0.0
O169 O 0.30429 0.25654 0.69493 0.0
O170 O 0.29412 0.1897 0.72869 0.0
O171 O 0.31743 0.30416 0.77526 0.0
H172 H 0.32153 0.35507 0.67976 0.0
H173 H 0.18769 0.32423 0.72893 0.0
O174 O 0.30244 0.24068 0.81358 0.0
O175 O 0.20538 0.21884 0.80976 0.0
O176 O 0.22585 0.28812 0.78222 0.0
C177 C 0.20328 0.26322 0.80972 0.0
H178 H 0.24998 0.09001 0.88504 0.0
H179 H 0.26941 0.41701 0.6496 0.0
Co180 Co 0.7493 0.28172 0.74205 0.0
C181 C 0.80942 0.31571 0.81949 0.0
Co182 Co 0.80388 0.23954 0.756 0.0
C183 C 0.66969 0.32001 0.75774 0.0
C184 C 0.70243 0.35378 0.70397 0.0
N185 N 0.70265 0.31652 0.72996 0.0
N186 N 0.65123 0.35941 0.75272 0.0
C187 C 0.67155 0.38109 0.71884 0.0
H188 H 0.66596 0.30008 0.78706 0.0
H189 H 0.72725 0.36432 0.67978 0.0
C190 C 0.74365 0.20485 0.67926 0.0
N191 N 0.85108 0.20454 0.76712 0.0
C192 C 0.89523 0.21704 0.75397 0.0
C193 C 0.8426 0.15582 0.76777 0.0
N194 N 0.91145 0.17809 0.7395 0.0
C195 C 0.87979 0.13954 0.75092 0.0
C196 C 0.71864 0.20268 0.79983 0.0
O197 O 0.72594 0.2412 0.68926 0.0
O198 O 0.77748 0.19568 0.70516 0.0
O199 O 0.76138 0.19754 0.795 0.0
O200 O 0.70484 0.2357 0.77792 0.0
O201 O 0.82977 0.28219 0.80675 0.0
H202 H 0.80809 0.133 0.77156 0.0
H203 H 0.91082 0.25327 0.74576 0.0
O204 O 0.77316 0.32321 0.79561 0.0
O205 O 0.79302 0.32668 0.70747 0.0
O206 O 0.84619 0.28308 0.71579 0.0
C207 C 0.83387 0.31971 0.69872 0.0
H208 H 0.66916 0.41705 0.70964 0.0
H209 H 0.87807 0.1021 0.73893 0.0
Co210 Co 0.74574 0.72764 0.74703 0.0
C211 C 0.74417 0.80003 0.81582 0.0
Co212 Co 0.80792 0.7886 0.75593 0.0
C213 C 0.66881 0.66366 0.77664 0.0
C214 C 0.66286 0.65526 0.70536 0.0
N215 N 0.69151 0.67893 0.74171 0.0
N216 N 0.62678 0.63243 0.76399 0.0
C217 C 0.62281 0.62592 0.71915 0.0
H218 H 0.68268 0.67553 0.81112 0.0
H219 H 0.66998 0.66003 0.67121 0.0
C220 C 0.80869 0.7174 0.68598 0.0
N221 N 0.86204 0.8379 0.7616 0.0
C222 C 0.87767 0.86453 0.72857 0.0
C223 C 0.89536 0.85411 0.79716 0.0
N224 N 0.91918 0.89651 0.74185 0.0
C225 C 0.93101 0.89037 0.7849 0.0
C226 C 0.82194 0.70987 0.80612 0.0
O227 O 0.76914 0.6965 0.69872 0.0
O228 O 0.83096 0.75798 0.70629 0.0
O229 O 0.84108 0.75231 0.79622 0.0
O230 O 0.77891 0.69157 0.789 0.0
O231 O 0.78503 0.81965 0.80497 0.0
H232 H 0.894 0.84027 0.8297 0.0
H233 H 0.8594 0.86012 0.69497 0.0
O234 O 0.72215 0.75969 0.79524 0.0
O235 O 0.71269 0.76283 0.70575 0.0
O236 O 0.77393 0.82462 0.71529 0.0
C237 C 0.73148 0.80578 0.69706 0.0
H238 H 0.59294 0.60266 0.69815 0.0
H239 H 0.96264 0.9107 0.80573 0.0
C240 C 0.96035 0.14626 0.56462 0.0
C241 C 0.9301 0.10863 0.42056 0.0
C242 C 0.93263 0.92024 0.47875 0.0
Mg243 Mg 0.02288 0.12627 0.49166 0.0
O244 O 0.99953 0.06449 0.51172 0.0
Mg245 Mg 0.9295 0.03708 0.50726 0.0
Mg246 Mg 0.02439 1.0045 0.49848 0.0
O247 O 0.04949 0.94529 0.48484 0.0
Mg248 Mg 0.02655 0.88276 0.50201 0.0
Mg249 Mg 0.11933 0.97288 0.48728 0.0
C250 C 0.11312 0.08925 0.52288 0.0
C251 C 0.06716 0.01657 0.40315 0.0
O252 O 0.92794 0.10906 0.54748 0.0
O253 O 1.0014 0.15894 0.55019 0.0
O254 O 0.91165 0.07232 0.44136 0.0
O255 O 0.97305 0.13303 0.4328 0.0
O256 O 0.09442 0.1085 0.49007 0.0
O257 O 0.10236 0.0429 0.52414 0.0
C258 C 0.97734 0.99021 0.59105 0.0
O259 O 1.01282 0.9845 0.57031 0.0
O260 O 0.94351 0.00722 0.57237 0.0
O261 O 0.1214 0.90208 0.44701 0.0
O262 O 0.04697 0.85395 0.44051 0.0
O263 O 0.13863 0.93745 0.55313 0.0
C264 C 0.08839 0.86723 0.42681 0.0
O265 O 0.078 0.87483 0.55902 0.0
O266 O 0.95513 0.9002 0.50862 0.0
C267 C 0.12043 0.89985 0.57254 0.0
O268 O 0.94733 0.96552 0.47318 0.0
O269 O 0.03367 0.02324 0.42613 0.0
O270 O 0.10287 1.0016 0.42084 0.0
C271 C 0.41125 0.11864 0.08023 0.0
C272 C 0.46075 0.12289 0.94852 0.0
C273 C 0.43783 0.93083 0.94571 0.0
Mg274 Mg 0.50979 0.12342 0.0408 0.0
O275 O 0.48912 0.05498 0.03518 0.0
Mg276 Mg 0.42199 0.02663 0.00495 0.0
Mg277 Mg 0.52495 0.01234 0.00191 0.0
O278 O 0.56043 0.9689 0.96978 0.0
Mg279 Mg 0.53819 0.90102 0.97031 0.0
Mg280 Mg 0.6274 0.99731 1.00065 0.0
C281 C 0.61146 0.09398 0.06041 0.0
C282 C 0.60788 0.07672 0.93118 0.0
O283 O 0.39362 0.07952 0.05444 0.0
O284 O 0.45558 0.14062 0.08167 0.0
O285 O 0.43423 0.08323 0.95719 0.0
O286 O 0.49504 0.14722 0.97612 0.0
O287 O 0.58546 0.12598 0.06239 0.0
O288 O 0.59416 0.0495 0.04486 0.0
C289 C 0.44195 0.94413 0.06999 0.0
O290 O 0.48603 0.9517 0.05829 0.0
O291 O 0.41352 0.9694 0.05378 0.0
O292 O 0.65369 0.94027 0.95413 0.0
O293 O 0.59062 0.8785 0.93128 0.0
O294 O 0.61631 0.94399 0.05112 0.0
C295 C 0.63505 0.89929 0.93135 0.0
O296 O 0.55374 0.88128 0.03647 0.0
O297 O 0.46315 0.8982 0.94707 0.0
C298 C 0.58968 0.90571 0.06216 0.0
O299 O 0.45555 0.97592 0.95893 0.0
O300 O 0.56427 0.07145 0.94395 0.0
O301 O 0.63593 0.05186 0.94894 0.0
C302 C 0.92543 0.6281 0.07699 0.0
C303 C 0.92856 0.60796 0.93485 0.0
C304 C 0.93085 0.41307 0.96999 0.0
Mg305 Mg 1.00712 0.62087 0.01829 0.0
O306 O 0.98858 0.5549 0.02654 0.0
Mg307 Mg 0.91964 0.52267 0.01329 0.0
Mg308 Mg 1.0212 0.50241 0.00512 0.0
O309 O 0.05367 0.44991 0.98338 0.0
Mg310 Mg 0.03506 0.38513 0.99683 0.0
Mg311 Mg 0.12286 0.48236 0.99626 0.0
C312 C 0.11124 0.59146 0.04265 0.0
C313 C 0.07084 0.54021 0.92178 0.0
O314 O 0.90305 0.58612 0.05832 0.0
O315 O 0.9676 0.6481 0.06825 0.0
O316 O 0.90684 0.56851 0.9501 0.0
O317 O 0.96962 0.63143 0.95393 0.0
O318 O 0.08421 0.62244 0.03703 0.0
O319 O 0.09484 0.54512 0.03575 0.0
C320 C 0.97389 0.47141 0.09144 0.0
O321 O 1.00888 0.47157 0.0686 0.0
O322 O 0.93619 0.48593 0.07695 0.0
O323 O 0.13786 0.41659 0.95111 0.0
O324 O 0.07391 0.35412 0.94865 0.0
O325 O 0.13654 0.43685 0.05883 0.0
C326 C 0.11522 0.37278 0.93702 0.0
O327 O 0.07375 0.37531 0.0608 0.0
O328 O 0.95744 0.3823 0.97906 0.0
C329 C 0.116 0.39877 0.0767 0.0
O330 O 0.94776 0.45942 0.97478 0.0
O331 O 0.03409 0.53524 0.94275 0.0
O332 O 0.10825 0.52447 0.93498 0.0
C333 C 0.41326 0.59882 0.06983 0.0
C334 C 0.40893 0.58823 0.92447 0.0
C335 C 0.44279 0.40259 0.96022 0.0
Mg336 Mg 0.48928 0.60927 0.00318 0.0
O337 O 0.47779 0.54469 0.01671 0.0
Mg338 Mg 0.41314 0.50211 1.00122 0.0
Mg339 Mg 0.5196 0.50306 0.99781 0.0
O340 O 0.56162 0.46109 0.97967 0.0
Mg341 Mg 0.55017 0.39793 0.99756 0.0
Mg342 Mg 0.62621 0.50389 0.99669 0.0
C343 C 0.59643 0.60324 0.03884 0.0
C344 C 0.5688 0.54998 0.91693 0.0
O345 O 0.39129 0.55677 0.05103 0.0
O346 O 0.4489 0.62551 0.05452 0.0
O347 O 0.39235 0.54806 0.94122 0.0
O348 O 0.44943 0.61544 0.94027 0.0
O349 O 0.56672 0.62873 0.02435 0.0
O350 O 0.58589 0.55642 0.03409 0.0
C351 C 0.47127 0.45441 0.07815 0.0
O352 O 0.51008 0.46615 0.06063 0.0
O353 O 0.43163 0.46267 0.06108 0.0
O354 O 0.64915 0.44785 0.95004 0.0
O355 O 0.59121 0.37942 0.94731 0.0
O356 O 0.64647 0.4606 0.05884 0.0
C357 C 0.62672 0.40583 0.93157 0.0
O358 O 0.58925 0.3941 0.06171 0.0
O359 O 0.47232 0.37835 0.97749 0.0
C360 C 0.62969 0.42159 0.07719 0.0
O361 O 0.45278 0.44947 0.96165 0.0
O362 O 0.52983 0.53999 0.93462 0.0
O363 O 0.60804 0.54129 0.93473 0.0
C364 C 0.90543 0.62681 0.55253 0.0
C365 C 0.95961 0.59981 0.41979 0.0
C366 C 0.93742 0.42284 0.44594 0.0
Mg367 Mg 1.00344 0.62453 0.51547 0.0
O368 O 0.98253 0.55769 0.52418 0.0
Mg369 Mg 0.91703 0.52317 0.49369 0.0
Mg370 Mg 1.02022 0.51349 0.49715 0.0
O371 O 0.05872 0.46974 0.47035 0.0
Mg372 Mg 0.03941 0.40325 0.47996 0.0
Mg373 Mg 0.12386 0.50527 0.50212 0.0
C374 C 0.10233 0.6023 0.55242 0.0
C375 C 0.10234 0.57495 0.42546 0.0
O376 O 0.88838 0.58328 0.53414 0.0
O377 O 0.94848 0.64958 0.54899 0.0
O378 O 0.92965 0.56694 0.43544 0.0
O379 O 0.99378 0.62839 0.44463 0.0
O380 O 0.07697 0.63446 0.5473 0.0
O381 O 0.08598 0.5574 0.53884 0.0
C382 C 0.93967 0.45219 0.57045 0.0
O383 O 0.98314 0.45884 0.55763 0.0
O384 O 0.90962 0.47427 0.55138 0.0
O385 O 0.15522 0.44752 0.4639 0.0
O386 O 0.09646 0.38016 0.44772 0.0
O387 O 0.11224 0.46155 0.5585 0.0
C388 C 0.13961 0.4039 0.44572 0.0
O389 O 0.04984 0.39888 0.55057 0.0
O390 O 0.96454 0.39221 0.45145 0.0
C391 C 0.08433 0.42776 0.57467 0.0
O392 O 0.95315 0.46878 0.45613 0.0
O393 O 0.05827 0.56808 0.4369 0.0
O394 O 0.13195 0.55333 0.44553 0.0
C395 C 0.41868 0.12177 0.57591 0.0
C396 C 0.43134 0.10976 0.43742 0.0
C397 C 0.43566 0.917 0.46179 0.0
Mg398 Mg 0.50496 0.1198 0.52128 0.0
O399 O 0.4881 0.05349 0.52957 0.0
Mg400 Mg 0.42016 0.01982 0.50976 0.0
Mg401 Mg 0.52332 1.00591 0.50313 0.0
O402 O 0.55814 0.9578 0.4773 0.0
Mg403 Mg 0.54059 0.89239 0.48968 0.0
Mg404 Mg 0.62651 0.9915 0.49503 0.0
C405 C 0.61044 0.09518 0.54446 0.0
C406 C 0.57622 0.05491 0.42583 0.0
O407 O 0.39872 0.07874 0.55773 0.0
O408 O 0.46065 0.14386 0.56827 0.0
O409 O 0.41001 0.06983 0.45159 0.0
O410 O 0.47201 0.13325 0.45679 0.0
O411 O 0.58226 0.12504 0.53891 0.0
O412 O 0.59532 0.04866 0.53799 0.0
C413 C 0.46928 0.95659 0.57937 0.0
O414 O 0.50747 0.9635 0.56028 0.0
O415 O 0.4327 0.97379 0.56673 0.0
O416 O 0.64474 0.93013 0.44682 0.0
O417 O 0.58198 0.86587 0.44182 0.0
O418 O 0.63993 0.94346 0.55448 0.0
C419 C 0.62307 0.88656 0.43103 0.0
O420 O 0.57802 0.88082 0.55399 0.0
O421 O 0.46258 0.88643 0.47033 0.0
C422 C 0.61975 0.90454 0.57101 0.0
O423 O 0.4519 0.96337 0.46745 0.0
O424 O 0.53879 0.04851 0.44597 0.0
O425 O 0.61267 0.037 0.43725 0.0
C426 C 0.04508 0.08062 0.2993 0.0
C427 C 0.08806 0.07998 0.2803 0.0
C428 C 0.03559 0.05682 0.33804 0.0
C429 C 0.0666 0.02845 0.35582 0.0
H430 H 0.02545 0.10836 0.29108 0.0
H431 H 1.00715 0.06492 0.35641 0.0
S432 S 0.16631 0.99358 0.30112 0.0
N433 N 0.14869 0.03376 0.26972 0.0
N434 N 0.12987 0.98601 0.34037 0.0
C435 C 0.10092 0.01679 0.32895 0.0
C436 C 0.11044 0.04168 0.29005 0.0
C437 C 0.89081 0.18455 0.32867 0.0
C438 C 0.84007 0.1743 0.32627 0.0
C439 C 0.91921 0.16192 0.35764 0.0
C440 C 0.89858 0.12721 0.38564 0.0
H441 H 0.9093 0.21148 0.30871 0.0
H442 H 0.9579 0.17254 0.35863 0.0
S443 S 0.7672 0.0853 0.39147 0.0
N444 N 0.77044 0.1257 0.35402 0.0
N445 N 0.8232 0.08268 0.40794 0.0
C446 C 0.84769 0.1154 0.38271 0.0
C447 C 0.81873 0.13901 0.35338 0.0
C448 C 0.89632 0.8734 0.35711 0.0
C449 C 0.86565 0.82798 0.35988 0.0
C450 C 0.91787 0.90313 0.39564 0.0
C451 C 0.90967 0.88844 0.43844 0.0
H452 H 0.90321 0.88652 0.32492 0.0
H453 H 0.94121 0.93781 0.39171 0.0
S454 S 0.83273 0.77302 0.46435 0.0
N455 N 0.82799 0.76993 0.40929 0.0
N456 N 0.86975 0.82554 0.48158 0.0
C457 C 0.88 0.8428 0.44181 0.0
C458 C 0.8576 0.81267 0.4026 0.0
C459 C 0.15543 0.85328 0.32866 0.0
C460 C 0.11937 0.84516 0.29226 0.0
C461 C 0.14429 0.85533 0.37236 0.0
C462 C 0.09657 0.85034 0.38166 0.0
H463 H 0.19281 0.8581 0.32302 0.0
H464 H 0.17362 0.86312 0.39909 0.0
S465 S 0.98859 0.82494 0.29785 0.0
N466 N 0.03412 0.82807 0.26767 0.0
N467 N 1.01237 0.83455 0.35063 0.0
C468 C 0.05974 0.84027 0.34555 0.0
C469 C 0.07136 0.8373 0.30062 0.0
C470 C 0.15835 0.82001 0.66162 0.0
C471 C 0.20804 0.83879 0.67299 0.0
C472 C 0.13084 0.84023 0.62987 0.0
C473 C 0.15092 0.88154 0.60859 0.0
H474 H 0.14044 0.78826 0.67661 0.0
H475 H 0.09329 0.82274 0.62175 0.0
S476 S 0.27984 0.9456 0.62673 0.0
N477 N 0.27658 0.90102 0.66 0.0
N478 N 0.22488 0.94058 0.60176 0.0
C479 C 0.20074 0.90125 0.62006 0.0
C480 C 0.22915 0.87962 0.65177 0.0
C481 C 0.14324 0.11979 0.64861 0.0
C482 C 0.16156 0.17036 0.65266 0.0
C483 C 0.12585 0.09428 0.6069 0.0
C484 C 0.12593 0.11815 0.56715 0.0
H485 H 0.14405 0.09926 0.67769 0.0
H486 H 0.11358 0.05515 0.60592 0.0
S487 S 0.16704 0.25081 0.55935 0.0
N488 N 0.1765 0.24385 0.61308 0.0
N489 N 0.14325 0.19582 0.53501 0.0
C490 C 0.14176 0.16903 0.57091 0.0
C491 C 0.15969 0.1951 0.61346 0.0
C492 C 0.89476 0.17868 0.65873 0.0
C493 C 0.92759 0.17729 0.69619 0.0
C494 C 0.90731 0.17345 0.61557 0.0
C495 C 0.95326 0.16708 0.60848 0.0
H496 H 0.8584 0.18173 0.66305 0.0
H497 H 0.88009 0.17154 0.58758 0.0
S498 S 0.05303 0.16503 0.69597 0.0
N499 N 1.00822 0.1727 0.72419 0.0
N500 N 0.03271 0.16245 0.64252 0.0
C501 C 0.98741 0.16867 0.64579 0.0
C502 C 0.97427 0.17373 0.6899 0.0
C503 C 0.92007 0.96437 0.69636 0.0
C504 C 0.94367 0.93005 0.71405 0.0
C505 C 0.9343 0.98683 0.65864 0.0
C506 C 0.97202 0.97477 0.63656 0.0
H507 H 0.88822 0.97112 0.70996 0.0
H508 H 0.91328 0.01139 0.64512 0.0
S509 S 0.05044 0.89342 0.67595 0.0
N510 N 1.01025 0.88993 0.71191 0.0
N511 N 0.03743 0.93175 0.63995 0.0
C512 C 0.99895 0.94403 0.6568 0.0
C513 C 0.98451 0.92158 0.6958 0.0
C514 C 0.36684 0.20979 0.15519 0.0
C515 C 0.32345 0.18325 0.16805 0.0
C516 C 0.39417 0.18867 0.12678 0.0
C517 C 0.37964 0.1398 0.10918 0.0
H518 H 0.38064 0.24748 0.1677 0.0
H519 H 0.42726 0.21115 0.11869 0.0
S520 S 0.26838 0.05387 0.13094 0.0
N521 N 0.26683 0.10509 0.15999 0.0
N522 N 0.31792 0.0653 0.10606 0.0
C523 C 0.33571 0.11283 0.1207 0.0
C524 C 0.30779 0.13448 0.15014 0.0
C525 C 1.00084 0.38995 0.17846 0.0
C526 C 0.96748 0.39616 0.2082 0.0
C527 C 1.00523 0.41736 0.14194 0.0
C528 C 0.97734 0.45217 0.13501 0.0
H529 H 1.01791 0.35922 0.17905 0.0
H530 H 0.02689 0.40779 0.11694 0.0
S531 S 0.90749 0.50015 0.21739 0.0
N532 N 0.92375 0.45322 0.2396 0.0
N533 N 0.9301 0.50384 0.16909 0.0
C534 C 0.95275 0.46608 0.16977 0.0
C535 C 0.94939 0.43886 0.20764 0.0
C536 C 0.67106 0.91309 0.16165 0.0
C537 C 0.70506 0.89089 0.14326 0.0
C538 C 0.62586 0.9097 0.13826 0.0
C539 C 0.61343 0.88301 0.09641 0.0
H540 H 0.68019 0.93407 0.19378 0.0
H541 H 0.60262 0.93207 0.15061 0.0
S542 S 0.68609 0.80939 0.03907 0.0
N543 N 0.7209 0.83519 0.08476 0.0
N544 N 0.6351 0.82746 0.04117 0.0
C545 C 0.64476 0.85537 0.08078 0.0
C546 C 0.69127 0.86034 0.10369 0.0
C547 C 0.21212 0.68702 0.10013 0.0
C548 C 0.22002 0.66794 0.14128 0.0
C549 C 0.18185 0.65871 0.06466 0.0
C550 C 0.15787 0.61074 0.0696 0.0
H551 H 0.22669 0.72508 0.09641 0.0
H552 H 0.17326 0.67607 0.03485 0.0
S553 S 0.17078 0.54291 0.16971 0.0
N554 N 0.20561 0.59739 0.18401 0.0
N555 N 0.14832 0.54387 0.11739 0.0
C556 C 0.16953 0.58977 0.10913 0.0
C557 C 0.20053 0.61869 0.14524 0.0
C558 C 0.32353 0.8441 0.90084 0.0
C559 C 0.31541 0.86034 0.85839 0.0
C560 C 0.36016 0.87097 0.93244 0.0
C561 C 0.3888 0.91525 0.92274 0.0
H562 H 0.30543 0.80804 0.90781 0.0
H563 H 0.36916 0.85482 0.96286 0.0
S564 S 0.37432 0.97775 0.81998 0.0
N565 N 0.33356 0.9262 0.81065 0.0
N566 N 0.40121 0.97775 0.87088 0.0
C567 C 0.37654 0.93476 0.88281 0.0
C568 C 0.34013 0.90686 0.85024 0.0
C569 C 0.19342 0.33997 0.85005 0.0
C570 C 0.1797 0.28873 0.84292 0.0
C571 C 0.17292 0.36643 0.88076 0.0
C572 C 0.13713 0.3431 0.90554 0.0
H573 H 0.22072 0.36021 0.8319 0.0
H574 H 0.18491 0.40569 0.88458 0.0
S575 S 0.08859 0.2094 0.90015 0.0
N576 N 0.1286 0.21552 0.86389 0.0
N577 N 0.08922 0.26506 0.92131 0.0
C578 C 0.12301 0.29173 0.89894 0.0
C579 C 0.14451 0.26464 0.86786 0.0
C580 C 0.70275 0.13307 0.85217 0.0
C581 C 0.68663 0.17116 0.83143 0.0
C582 C 0.67638 0.10401 0.88234 0.0
C583 C 0.63105 0.10992 0.89536 0.0
H584 H 0.73689 0.12533 0.84522 0.0
H585 H 0.6928 0.07607 0.89595 0.0
S586 S 0.57022 0.20435 0.85118 0.0
N587 N 0.62007 0.21269 0.82655 0.0
N588 N 0.57147 0.15878 0.88281 0.0
C589 C 0.61378 0.14771 0.87455 0.0
C590 C 0.64098 0.17771 0.84323 0.0
C591 C 0.82786 0.6384 0.85335 0.0
C592 C 0.85001 0.68237 0.83676 0.0
C593 C 0.85359 0.61352 0.88327 0.0
C594 C 0.90302 0.63101 0.89809 0.0
H595 H 0.78994 0.62344 0.8439 0.0
H596 H 0.83404 0.58095 0.89585 0.0
S597 S 0.97925 0.74262 0.86214 0.0
N598 N 0.92553 0.74059 0.83602 0.0
N599 N 0.9732 0.69451 0.89113 0.0
C600 C 0.9258 0.67409 0.88045 0.0
C601 C 0.89964 0.69944 0.85028 0.0
C602 C 0.14615 0.31477 0.16659 0.0
C603 C 0.1968 0.32668 0.17461 0.0
C604 C 0.12047 0.33938 0.13656 0.0
C605 C 0.14394 0.37731 0.11277 0.0
H606 H 0.12594 0.286 0.18364 0.0
H607 H 0.0817 0.32791 0.1315 0.0
S608 S 0.27657 0.42049 0.1191 0.0
N609 N 0.26944 0.37821 0.15465 0.0
N610 N 0.22192 0.42388 0.0987 0.0
C611 C 0.19469 0.38963 0.12064 0.0
C612 C 0.22077 0.36457 0.15124 0.0
C613 C 0.07699 0.59919 0.81387 0.0
C614 C 0.08223 0.64847 0.82908 0.0
C615 C 0.07302 0.56315 0.84384 0.0
C616 C 0.07382 0.57604 0.88942 0.0
H617 H 0.07979 0.58929 0.7792 0.0
H618 H 0.0707 0.52565 0.83167 0.0
S619 S 0.08503 0.6991 0.9457 0.0
N620 N 0.08655 0.70755 0.89229 0.0
N621 N 0.07766 0.63982 0.94832 0.0
C622 C 0.07594 0.62449 0.90453 0.0
C623 C 0.08011 0.66086 0.87432 0.0
C624 C 0.3854 0.1069 0.84756 0.0
C625 C 0.34676 0.12175 0.86529 0.0
C626 C 0.43129 0.11876 0.87108 0.0
C627 C 0.43919 0.14561 0.9129 0.0
H628 H 0.37948 0.08477 0.81605 0.0
H629 H 0.45871 0.10121 0.85969 0.0
S630 S 0.35364 0.20567 0.96639 0.0
N631 N 0.3219 0.17398 0.9215 0.0
N632 N 0.40881 0.19733 0.9651 0.0
C633 C 0.40321 0.16822 0.92641 0.0
C634 C 0.3562 0.15474 0.90352 0.0
C635 C 0.83918 0.31792 0.89927 0.0
C636 C 0.82727 0.34337 0.86292 0.0
C637 C 0.86697 0.34234 0.93782 0.0
C638 C 0.88531 0.39299 0.94075 0.0
H639 H 0.8295 0.27849 0.89678 0.0
H640 H 0.87823 0.32067 0.9635 0.0
S641 S 0.85486 0.4769 0.85794 0.0
N642 N 0.82752 0.42212 0.83503 0.0
N643 N 0.88171 0.46853 0.90684 0.0
C644 C 0.86843 0.41938 0.90676 0.0
C645 C 0.83913 0.39433 0.86774 0.0
C646 C 0.67425 0.80197 0.85924 0.0
C647 C 0.71983 0.82522 0.84873 0.0
C648 C 0.64777 0.82601 0.88625 0.0
C649 C 0.6655 0.87456 0.90425 0.0
H650 H 0.65821 0.76496 0.8458 0.0
H651 H 0.61274 0.80623 0.89267 0.0
S652 S 0.78394 0.95163 0.88855 0.0
N653 N 0.78235 0.89941 0.85979 0.0
N654 N 0.73269 0.94459 0.91063 0.0
C655 C 0.71168 0.89794 0.8951 0.0
C656 C 0.73874 0.87334 0.8674 0.0
C657 C 0.90095 0.72672 0.15911 0.0
C658 C 0.86058 0.70235 0.17784 0.0
C659 C 0.92185 0.70251 0.12669 0.0
C660 C 0.90254 0.65329 0.1111 0.0
H661 H 0.9166 0.76462 0.16974 0.0
H662 H 0.95316 0.72274 0.11349 0.0
S663 S 0.79458 0.57447 0.1476 0.0
N664 N 0.80042 0.62726 0.17674 0.0
N665 N 0.83956 0.58174 0.11674 0.0
C666 C 0.86164 0.62891 0.12932 0.0
C667 C 0.84073 0.65343 0.1624 0.0
C668 C 0.41263 0.86292 0.17173 0.0
C669 C 0.36159 0.84587 0.16468 0.0
C670 C 0.43979 0.89215 0.14112 0.0
C671 C 0.41785 0.90536 0.10072 0.0
H672 H 0.43182 0.855 0.20206 0.0
H673 H 0.47798 0.90577 0.15009 0.0
S674 S 0.28656 0.86409 0.0623 0.0
N675 N 0.29207 0.84196 0.1113 0.0
N676 N 0.34107 0.89293 0.05454 0.0
C677 C 0.36727 0.88586 0.0926 0.0
C678 C 0.33997 0.85752 0.12392 0.0
C679 C 0.72766 0.18016 0.10177 0.0
C680 C 0.73926 0.16177 0.14254 0.0
C681 C 0.68894 0.15451 0.07157 0.0
C682 C 0.66158 0.10941 0.08092 0.0
H683 H 0.7443 0.21706 0.09583 0.0
H684 H 0.6774 0.17222 0.04297 0.0
S685 S 0.68383 0.04215 0.17919 0.0
N686 N 0.7252 0.09327 0.1878 0.0
N687 N 0.6534 0.04434 0.13031 0.0
C688 C 0.67711 0.08786 0.11856 0.0
C689 C 0.71588 0.11433 0.14965 0.0
C690 C 0.58682 0.63924 0.83105 0.0
C691 C 0.59578 0.6101 0.79456 0.0
C692 C 0.57333 0.6188 0.87005 0.0
C693 C 0.5685 0.5688 0.87322 0.0
H694 H 0.59464 0.67849 0.83077 0.0
H695 H 0.57066 0.64258 0.89892 0.0
S696 S 0.57843 0.47619 0.78424 0.0
N697 N 0.59172 0.52846 0.76165 0.0
N698 N 0.56635 0.48963 0.83536 0.0
C699 C 0.57216 0.53871 0.8355 0.0
C700 C 0.58556 0.55953 0.79573 0.0
C701 C 0.3739 0.66777 0.83509 0.0
C702 C 0.3241 0.66404 0.83646 0.0
C703 C 0.4002 0.64113 0.86169 0.0
C704 C 0.37815 0.60841 0.8906 0.0
H705 H 0.39348 0.69269 0.81409 0.0
H706 H 0.43863 0.64722 0.86036 0.0
S707 S 0.24808 0.58191 0.90512 0.0
N708 N 0.25335 0.62288 0.86812 0.0
N709 N 0.30253 0.57216 0.9176 0.0
C710 C 0.32796 0.60249 0.89105 0.0
C711 C 0.30111 0.63042 0.86429 0.0
C712 C 0.35104 0.30172 0.89207 0.0
C713 C 0.35811 0.31256 0.84803 0.0
C714 C 0.37679 0.33234 0.92885 0.0
C715 C 0.40923 0.37557 0.92267 0.0
H716 H 0.32473 0.26992 0.89812 0.0
H717 H 0.37154 0.3221 0.96227 0.0
S718 S 0.44323 0.419 0.81442 0.0
N719 N 0.4021 0.36836 0.8006 0.0
N720 N 0.44924 0.42636 0.86949 0.0
C721 C 0.41669 0.38679 0.87888 0.0
C722 C 0.3914 0.35522 0.84161 0.0
C723 C 0.67551 0.41375 0.82001 0.0
C724 C 0.63851 0.3828 0.79131 0.0
C725 C 0.67227 0.41969 0.86578 0.0
C726 C 0.63181 0.39494 0.88419 0.0
H727 H 0.70889 0.42983 0.8075 0.0
H728 H 0.70211 0.44294 0.88692 0.0
S729 S 0.52211 0.31579 0.82052 0.0
N730 N 0.55896 0.33131 0.78259 0.0
N731 N 0.55103 0.343 0.86839 0.0
C732 C 0.59308 0.36647 0.85492 0.0
C733 C 0.59674 0.36069 0.8085 0.0
C734 C 0.66517 0.34288 0.16763 0.0
C735 C 0.71577 0.35141 0.17012 0.0
C736 C 0.6382 0.3677 0.13958 0.0
C737 C 0.66021 0.40307 0.11278 0.0
H738 H 0.6457 0.31546 0.18655 0.0
H739 H 0.59941 0.35797 0.13801 0.0
S740 S 0.792 0.4426 0.10925 0.0
N741 N 0.78703 0.40028 0.14492 0.0
N742 N 0.73662 0.44732 0.09265 0.0
C743 C 0.711 0.41385 0.11646 0.0
C744 C 0.73859 0.38795 0.1448 0.0
C745 C 0.67396 0.70528 0.11739 0.0
C746 C 0.68622 0.68109 0.1546 0.0
C747 C 0.64857 0.67939 0.07817 0.0
C748 C 0.63463 0.62817 0.07445 0.0
H749 H 0.68296 0.74463 0.11894 0.0
H750 H 0.63785 0.69982 0.05126 0.0
S751 S 0.66183 0.547 0.16112 0.0
N752 N 0.68535 0.60254 0.18422 0.0
N753 N 0.63807 0.55407 0.11069 0.0
C754 C 0.64905 0.60337 0.11061 0.0
C755 C 0.67443 0.62976 0.15071 0.0
C756 C 0.44464 0.6517 0.18945 0.0
C757 C 0.40434 0.631 0.20972 0.0
C758 C 0.44624 0.642 0.14395 0.0
C759 C 0.40753 0.61081 0.1169 0.0
H760 H 0.47332 0.67877 0.20835 0.0
H761 H 0.47817 0.65971 0.13003 0.0
S762 S 0.2951 0.54482 0.15554 0.0
N763 N 0.32591 0.57629 0.20088 0.0
N764 N 0.3291 0.55661 0.11478 0.0
C765 C 0.36814 0.58748 0.13745 0.0
C766 C 0.36665 0.59761 0.18403 0.0
C767 C 0.45582 0.36771 0.16609 0.0
C768 C 0.4488 0.39818 0.20246 0.0
C769 C 0.46772 0.38677 0.12614 0.0
C770 C 0.47276 0.43663 0.12203 0.0
H771 H 0.44815 0.3286 0.16752 0.0
H772 H 0.46922 0.36216 0.09749 0.0
S773 S 0.46497 0.53206 0.20917 0.0
N774 N 0.45315 0.48073 0.23346 0.0
N775 N 0.47566 0.51686 0.15798 0.0
C776 C 0.47037 0.46794 0.15925 0.0
C777 C 0.45854 0.44858 0.19989 0.0
C778 C 0.8717 0.7202 0.63339 0.0
C779 C 0.82974 0.69447 0.64901 0.0
C780 C 0.89447 0.69869 0.60093 0.0
C781 C 0.87654 0.65028 0.5825 0.0
H782 H 0.88779 0.75718 0.6469 0.0
H783 H 0.92722 0.72009 0.59107 0.0
S784 S 0.76592 0.56768 0.61002 0.0
N785 N 0.76972 0.61844 0.64188 0.0
N786 N 0.81255 0.57794 0.58116 0.0
C787 C 0.83357 0.62461 0.59665 0.0
C788 C 0.81025 0.64664 0.62977 0.0
C789 C 0.46978 0.84374 0.63692 0.0
C790 C 0.44735 0.85299 0.67451 0.0
C791 C 0.47921 0.87912 0.60702 0.0
C792 C 0.46587 0.92391 0.61426 0.0
H793 H 0.47686 0.80805 0.62924 0.0
H794 H 0.4935 0.87005 0.5765 0.0
S795 S 0.4089 0.96557 0.70965 0.0
N796 N 0.41463 0.90998 0.7194 0.0
N797 N 0.43204 0.97686 0.66245 0.0
C798 C 0.44569 0.93435 0.65295 0.0
C799 C 0.4367 0.89868 0.68355 0.0
C800 C 0.17406 0.44206 0.66982 0.0
C801 C 0.17371 0.39321 0.67401 0.0
C802 C 0.1367 0.45478 0.64405 0.0
C803 C 0.09972 0.41859 0.62009 0.0
H804 H 0.20527 0.46995 0.68306 0.0
H805 H 0.14181 0.49223 0.63637 0.0
S806 S 0.07382 0.28703 0.63426 0.0
N807 N 0.12647 0.3093 0.66348 0.0
N808 N 0.0567 0.33422 0.61368 0.0
C809 C 0.09405 0.37076 0.63139 0.0
C810 C 0.13178 0.35755 0.65817 0.0
C811 C 0.70921 0.1938 0.60015 0.0
C812 C 0.72295 0.17284 0.63883 0.0
C813 C 0.67784 0.1658 0.56537 0.0
C814 C 0.65816 0.11625 0.56881 0.0
H815 H 0.72001 0.23274 0.59816 0.0
H816 H 0.66492 0.18423 0.53784 0.0
S817 S 0.69043 0.04287 0.65999 0.0
N818 N 0.72157 0.09864 0.67569 0.0
N819 N 0.66092 0.04583 0.61082 0.0
C820 C 0.67642 0.09369 0.60485 0.0
C821 C 0.70913 0.12224 0.64004 0.0
C822 C 0.83896 0.4036 0.3513 0.0
C823 C 0.81532 0.35515 0.35452 0.0
C824 C 0.8748 0.4282 0.38475 0.0
C825 C 0.88922 0.40439 0.42145 0.0
H826 H 0.83269 0.42106 0.321 0.0
H827 H 0.89479 0.46396 0.37938 0.0
S828 S 0.83355 0.28019 0.4483 0.0
N829 N 0.80405 0.28669 0.4001 0.0
N830 N 0.87277 0.33223 0.46216 0.0
C831 C 0.86259 0.35773 0.42712 0.0
C832 C 0.82521 0.33322 0.39373 0.0
C833 C 0.69749 0.85894 0.33897 0.0
C834 C 0.6888 0.8076 0.33469 0.0
C835 C 0.67671 0.88412 0.3705 0.0
C836 C 0.64566 0.85909 0.39865 0.0
H837 H 0.72145 0.88018 0.31841 0.0
H838 H 0.68473 0.92355 0.37251 0.0
S839 S 0.61083 0.72474 0.40112 0.0
N840 N 0.64704 0.73271 0.36164 0.0
N841 N 0.60722 0.77985 0.42036 0.0
C842 C 0.63613 0.80773 0.39446 0.0
C843 C 0.65786 0.78208 0.36268 0.0
C844 C 0.19301 0.62688 0.34254 0.0
C845 C 0.18195 0.67078 0.32928 0.0
C846 C 0.16536 0.59648 0.37084 0.0
C847 C 0.12413 0.60707 0.38897 0.0
H848 H 0.22406 0.61567 0.33121 0.0
H849 H 0.17755 0.56402 0.37934 0.0
S850 S 0.07786 0.71765 0.36502 0.0
N851 N 0.12479 0.72273 0.33651 0.0
N852 N 0.07404 0.66656 0.38977 0.0
C853 C 0.11179 0.65053 0.37533 0.0
C854 C 0.14012 0.68176 0.3459 0.0
C855 C 0.39722 0.20806 0.36659 0.0
C856 C 0.34947 0.1878 0.34836 0.0
C857 C 0.42415 0.18174 0.39321 0.0
C858 C 0.40476 0.13371 0.40299 0.0
H859 H 0.41395 0.24494 0.36076 0.0
H860 H 0.46015 0.19993 0.40725 0.0
S861 S 0.28251 0.06205 0.36054 0.0
N862 N 0.2849 0.11526 0.34009 0.0
N863 N 0.33518 0.06614 0.38963 0.0
C864 C 0.35758 0.11238 0.38361 0.0
C865 C 0.3301 0.13925 0.35661 0.0
C866 C 0.65441 0.81421 0.65209 0.0
C867 C 0.70353 0.83329 0.66671 0.0
C868 C 0.6274 0.83834 0.623 0.0
C869 C 0.64795 0.88291 0.60661 0.0
H870 H 0.63646 0.77989 0.66292 0.0
H871 H 0.59014 0.82115 0.61255 0.0
S872 S 0.77525 0.94945 0.63512 0.0
N873 N 0.77123 0.90064 0.66312 0.0
N874 N 0.72134 0.9453 0.60833 0.0
C875 C 0.69696 0.90287 0.62163 0.0
C876 C 0.72438 0.87836 0.65152 0.0
C877 C 0.59089 0.10719 0.31633 0.0
C878 C 0.59393 0.15676 0.32839 0.0
C879 C 0.58403 0.07345 0.34808 0.0
C880 C 0.57927 0.08885 0.39202 0.0
H881 H 0.5978 0.09537 0.28322 0.0
H882 H 0.58403 0.0357 0.33874 0.0
S883 S 0.58169 0.21405 0.43872 0.0
N884 N 0.58968 0.21929 0.38566 0.0
N885 N 0.57543 0.15553 0.44576 0.0
C886 C 0.57925 0.13773 0.40369 0.0
C887 C 0.58683 0.17194 0.37156 0.0
C888 C 0.87144 0.56958 0.33026 0.0
C889 C 0.85549 0.61285 0.33616 0.0
C890 C 0.91861 0.56853 0.34659 0.0
C891 C 0.94711 0.609 0.3736 0.0
H892 H 0.84668 0.53624 0.31652 0.0
H893 H 0.92857 0.5336 0.3468 0.0
S894 S 0.92988 0.73469 0.3769 0.0
N895 N 0.87867 0.70088 0.35224 0.0
N896 N 0.96544 0.69673 0.38692 0.0
C897 C 0.93629 0.65427 0.36855 0.0
C898 C 0.88942 0.65626 0.35059 0.0
C899 C 0.34325 0.89737 0.36133 0.0
C900 C 0.32389 0.84728 0.36092 0.0
C901 C 0.37544 0.92224 0.39768 0.0
C902 C 0.38912 0.89745 0.43427 0.0
H903 H 0.3373 0.91622 0.33186 0.0
H904 H 0.39339 0.95958 0.39482 0.0
S905 S 0.33786 0.76948 0.45351 0.0
N906 N 0.31276 0.77632 0.40343 0.0
N907 N 0.373 0.82285 0.47151 0.0
C908 C 0.36485 0.8491 0.43646 0.0
C909 C 0.33233 0.82398 0.3997 0.0
C910 C 0.18369 0.30874 0.37683 0.0
C911 C 0.2249 0.33528 0.36054 0.0
C912 C 0.15766 0.33094 0.40549 0.0
C913 C 0.17141 0.3809 0.41924 0.0
H914 H 0.17043 0.27041 0.36665 0.0
H915 H 0.12579 0.30869 0.41614 0.0
S916 S 0.27799 0.46681 0.38791 0.0
N917 N 0.27956 0.41402 0.36175 0.0
N918 N 0.23049 0.45627 0.41567 0.0
C919 C 0.21365 0.4078 0.40458 0.0
C920 C 0.24037 0.38491 0.37526 0.0
C921 C 0.33366 0.14145 0.66111 0.0
C922 C 0.34077 0.19254 0.66744 0.0
C923 C 0.35856 0.11899 0.63121 0.0
C924 C 0.39239 0.14665 0.60696 0.0
H925 H 0.30806 0.11839 0.67899 0.0
H926 H 0.35162 0.07958 0.62751 0.0
S927 S 0.42464 0.28171 0.61148 0.0
N928 N 0.38395 0.27016 0.64676 0.0
N929 N 0.43158 0.22814 0.59121 0.0
C930 C 0.40017 0.19783 0.61319 0.0
C931 C 0.37414 0.2207 0.64316 0.0
C932 C 0.90225 0.3413 0.64506 0.0
C933 C 0.8655 0.35431 0.66911 0.0
C934 C 0.92837 0.37283 0.61538 0.0
C935 C 0.91997 0.41992 0.60798 0.0
H936 H 0.91001 0.30561 0.648 0.0
H937 H 0.95404 0.35925 0.59686 0.0
S938 S 0.83242 0.47504 0.66632 0.0
N939 N 0.82611 0.42057 0.68487 0.0
N940 N 0.87381 0.47817 0.63163 0.0
C941 C 0.88487 0.43371 0.63351 0.0
C942 C 0.85835 0.4018 0.66304 0.0
C943 C 0.22112 0.66936 0.6138 0.0
C944 C 0.21579 0.656 0.65749 0.0
C945 C 0.18562 0.64929 0.57827 0.0
C946 C 0.14468 0.61477 0.58555 0.0
H947 H 0.25027 0.69871 0.60781 0.0
H948 H 0.18873 0.66291 0.5457 0.0
S949 S 0.11535 0.56602 0.69282 0.0
N950 N 0.16826 0.6035 0.70502 0.0
N951 N 0.10131 0.56716 0.63863 0.0
C952 C 0.14076 0.59869 0.62823 0.0
C953 C 0.17665 0.61878 0.66413 0.0
loop_
_geom_bond_atom_site_label_1
_geom_bond_atom_site_label_2
_geom_bond_distance
_geom_bond_site_symmetry_2
_ccdc_geom_bond_type
Co0 N5 2.057 . S
Co0 O17 2.021 . S
Co0 O20 2.062 . S
Co0 O24 2.117 . S
Co0 O25 2.020 . S
C1 O21 1.259 . S
C1 O24 1.258 . S
Co2 N11 2.057 . S
Co2 O18 2.117 . S
Co2 O19 2.020 . S
Co2 O21 2.021 . S
Co2 O26 2.062 . S
C3 N5 1.316 . S
C3 N6 1.347 . S
C3 H8 0.931 . S
C4 N5 1.375 . S
C4 C7 1.350 . S
C4 H9 0.930 . S
N5 Co0 2.057 . S
N5 C3 1.316 . S
N5 C4 1.375 . S
N6 C3 1.347 . S
N6 C7 1.373 . S
C7 C4 1.350 . S
C7 N6 1.373 . S
C7 H28 0.931 . S
H8 C3 0.931 . S
H9 C4 0.930 . S
C10 O17 1.259 . S
C10 O18 1.258 . S
N11 Co2 2.057 . S
N11 C12 1.316 . S
N11 C13 1.375 . S
C12 N11 1.316 . S
C12 N14 1.347 . S
C12 H23 0.931 . S
C13 N11 1.375 . S
C13 C15 1.350 . S
C13 H22 0.930 . S
N14 C12 1.347 . S
N14 C15 1.373 . S
C15 C13 1.350 . S
C15 N14 1.373 . S
C15 H29 0.931 . S
C16 O19 1.256 . S
C16 O20 1.255 . S
O17 Co0 2.021 . S
O17 C10 1.259 . S
O18 Co2 2.117 . S
O18 C10 1.258 . S
O19 Co2 2.020 . S
O19 C16 1.256 . S
O20 Co0 2.062 . S
O20 C16 1.255 . S
O21 C1 1.259 . S
O21 Co2 2.021 . S
H22 C13 0.930 . S
H23 C12 0.931 . S
O24 Co0 2.117 . S
O24 C1 1.258 . S
O25 Co0 2.020 . S
O25 C27 1.256 . S
O26 Co2 2.062 . S
O26 C27 1.255 . S
C27 O25 1.256 . S
C27 O26 1.255 . S
H28 C7 0.931 . S
H29 C15 0.931 . S
Co30 N35 2.057 . S
Co30 O47 2.021 . S
Co30 O50 2.062 . S
Co30 O54 2.117 . S
Co30 O55 2.020 . S
C31 O51 1.259 . S
C31 O54 1.258 . S
Co32 N41 2.057 . S
Co32 O48 2.117 . S
Co32 O49 2.020 . S
Co32 O51 2.021 . S
Co32 O56 2.062 . S
C33 N35 1.316 . S
C33 N36 1.347 . S
C33 H38 0.931 . S
C34 N35 1.375 . S
C34 C37 1.350 . S
C34 H39 0.930 . S
N35 Co30 2.057 . S
N35 C33 1.316 . S
N35 C34 1.375 . S
N36 C33 1.347 . S
N36 C37 1.373 . S
C37 C34 1.350 . S
C37 N36 1.373 . S
C37 H58 0.931 . S
H38 C33 0.931 . S
H39 C34 0.930 . S
C40 O47 1.259 . S
C40 O48 1.258 . S
N41 Co32 2.057 . S
N41 C42 1.316 . S
N41 C43 1.375 . S
C42 N41 1.316 . S
C42 N44 1.347 . S
C42 H53 0.931 . S
C43 N41 1.375 . S
C43 C45 1.350 . S
C43 H52 0.930 . S
N44 C42 1.347 . S
N44 C45 1.373 . S
C45 C43 1.350 . S
C45 N44 1.373 . S
C45 H59 0.931 . S
C46 O49 1.256 . S
C46 O50 1.255 . S
O47 Co30 2.021 . S
O47 C40 1.259 . S
O48 Co32 2.117 . S
O48 C40 1.258 . S
O49 Co32 2.020 . S
O49 C46 1.256 . S
O50 Co30 2.062 . S
O50 C46 1.255 . S
O51 C31 1.259 . S
O51 Co32 2.021 . S
H52 C43 0.930 . S
H53 C42 0.931 . S
O54 Co30 2.117 . S
O54 C31 1.258 . S
O55 Co30 2.020 . S
O55 C57 1.256 . S
O56 Co32 2.062 . S
O56 C57 1.255 . S
C57 O55 1.256 . S
C57 O56 1.255 . S
H58 C37 0.931 . S
H59 C45 0.931 . S
Co60 N65 2.057 . S
Co60 O77 2.021 . S
Co60 O80 2.062 . S
Co60 O84 2.117 . S
Co60 O85 2.020 . S
C61 O81 1.259 . S
C61 O84 1.258 . S
Co62 N71 2.057 . S
Co62 O78 2.117 . S
Co62 O79 2.020 . S
Co62 O81 2.021 . S
Co62 O86 2.062 . S
C63 N65 1.316 . S
C63 N66 1.347 . S
C63 H68 0.931 . S
C64 N65 1.375 . S
C64 C67 1.350 . S
C64 H69 0.930 . S
N65 Co60 2.057 . S
N65 C63 1.316 . S
N65 C64 1.375 . S
N66 C63 1.347 . S
N66 C67 1.373 . S
C67 C64 1.350 . S
C67 N66 1.373 . S
C67 H88 0.931 . S
H68 C63 0.931 . S
H69 C64 0.930 . S
C70 O77 1.259 . S
C70 O78 1.258 . S
N71 Co62 2.057 . S
N71 C72 1.316 . S
N71 C73 1.375 . S
C72 N71 1.316 . S
C72 N74 1.347 . S
C72 H83 0.931 . S
C73 N71 1.375 . S
C73 C75 1.350 . S
C73 H82 0.930 . S
N74 C72 1.347 . S
N74 C75 1.373 . S
C75 C73 1.350 . S
C75 N74 1.373 . S
C75 H89 0.931 . S
C76 O79 1.256 . S
C76 O80 1.255 . S
O77 Co60 2.021 . S
O77 C70 1.259 . S
O78 Co62 2.117 . S
O78 C70 1.258 . S
O79 Co62 2.020 . S
O79 C76 1.256 . S
O80 Co60 2.062 . S
O80 C76 1.255 . S
O81 C61 1.259 . S
O81 Co62 2.021 . S
H82 C73 0.930 . S
H83 C72 0.931 . S
O84 Co60 2.117 . S
O84 C61 1.258 . S
O85 Co60 2.020 . S
O85 C87 1.256 . S
O86 Co62 2.062 . S
O86 C87 1.255 . S
C87 O85 1.256 . S
C87 O86 1.255 . S
H88 C67 0.931 . S
H89 C75 0.931 . S
Co90 N95 2.057 . S
Co90 O107 2.021 . S
Co90 O110 2.062 . S
Co90 O114 2.117 . S
Co90 O115 2.020 . S
C91 O111 1.259 . S
C91 O114 1.258 . S
Co92 N101 2.057 . S
Co92 O108 2.117 . S
Co92 O109 2.020 . S
Co92 O111 2.021 . S
Co92 O116 2.062 . S
C93 N95 1.316 . S
C93 N96 1.347 . S
C93 H98 0.931 . S
C94 N95 1.375 . S
C94 C97 1.350 . S
C94 H99 0.930 . S
N95 Co90 2.057 . S
N95 C93 1.316 . S
N95 C94 1.375 . S
N96 C93 1.347 . S
N96 C97 1.373 . S
C97 C94 1.350 . S
C97 N96 1.373 . S
C97 H118 0.931 . S
H98 C93 0.931 . S
H99 C94 0.930 . S
C100 O107 1.259 . S
C100 O108 1.258 . S
N101 Co92 2.057 . S
N101 C102 1.316 . S
N101 C103 1.375 . S
C102 N101 1.316 . S
C102 N104 1.347 . S
C102 H113 0.931 . S
C103 N101 1.375 . S
C103 C105 1.350 . S
C103 H112 0.930 . S
N104 C102 1.347 . S
N104 C105 1.373 . S
C105 C103 1.350 . S
C105 N104 1.373 . S
C105 H119 0.931 . S
C106 O109 1.256 . S
C106 O110 1.255 . S
O107 Co90 2.021 . S
O107 C100 1.259 . S
O108 Co92 2.117 . S
O108 C100 1.258 . S
O109 Co92 2.020 . S
O109 C106 1.256 . S
O110 Co90 2.062 . S
O110 C106 1.255 . S
O111 C91 1.259 . S
O111 Co92 2.021 . S
H112 C103 0.930 . S
H113 C102 0.931 . S
O114 Co90 2.117 . S
O114 C91 1.258 . S
O115 Co90 2.020 . S
O115 C117 1.256 . S
O116 Co92 2.062 . S
O116 C117 1.255 . S
C117 O115 1.256 . S
C117 O116 1.255 . S
H118 C97 0.931 . S
H119 C105 0.931 . S
Co120 N125 2.057 . S
Co120 O137 2.021 . S
Co120 O140 2.062 . S
Co120 O144 2.117 . S
Co120 O145 2.020 . S
C121 O141 1.259 . S
C121 O144 1.258 . S
Co122 N131 2.057 . S
Co122 O138 2.117 . S
Co122 O139 2.020 . S
Co122 O141 2.021 . S
Co122 O146 2.062 . S
C123 N125 1.316 . S
C123 N126 1.347 . S
C123 H128 0.931 . S
C124 N125 1.375 . S
C124 C127 1.350 . S
C124 H129 0.930 . S
N125 Co120 2.057 . S
N125 C123 1.316 . S
N125 C124 1.375 . S
N126 C123 1.347 . S
N126 C127 1.373 . S
C127 C124 1.350 . S
C127 N126 1.373 . S
C127 H148 0.931 . S
H128 C123 0.931 . S
H129 C124 0.930 . S
C130 O137 1.259 . S
C130 O138 1.258 . S
N131 Co122 2.057 . S
N131 C132 1.316 . S
N131 C133 1.375 . S
C132 N131 1.316 . S
C132 N134 1.347 . S
C132 H143 0.931 . S
C133 N131 1.375 . S
C133 C135 1.350 . S
C133 H142 0.930 . S
N134 C132 1.347 . S
N134 C135 1.373 . S
C135 C133 1.350 . S
C135 N134 1.373 . S
C135 H149 0.931 . S
C136 O139 1.256 . S
C136 O140 1.255 . S
O137 Co120 2.021 . S
O137 C130 1.259 . S
O138 Co122 2.117 . S
O138 C130 1.258 . S
O139 Co122 2.020 . S
O139 C136 1.256 . S
O140 Co120 2.062 . S
O140 C136 1.255 . S
O141 C121 1.259 . S
O141 Co122 2.021 . S
H142 C133 0.930 . S
H143 C132 0.931 . S
O144 Co120 2.117 . S
O144 C121 1.258 . S
O145 Co120 2.020 . S
O145 C147 1.256 . S
O146 Co122 2.062 . S
O146 C147 1.255 . S
C147 O145 1.256 . S
C147 O146 1.255 . S
H148 C127 0.931 . S
H149 C135 0.931 . S
Co150 N155 2.057 . S
Co150 O167 2.021 . S
Co150 O170 2.062 . S
Co150 O174 2.117 . S
Co150 O175 2.020 . S
C151 O171 1.259 . S
C151 O174 1.258 . S
Co152 N161 2.057 . S
Co152 O168 2.117 . S
Co152 O169 2.020 . S
Co152 O171 2.021 . S
Co152 O176 2.062 . S
C153 N155 1.316 . S
C153 N156 1.347 . S
C153 H158 0.931 . S
C154 N155 1.375 . S
C154 C157 1.350 . S
C154 H159 0.930 . S
N155 Co150 2.057 . S
N155 C153 1.316 . S
N155 C154 1.375 . S
N156 C153 1.347 . S
N156 C157 1.373 . S
C157 C154 1.350 . S
C157 N156 1.373 . S
C157 H178 0.931 . S
H158 C153 0.931 . S
H159 C154 0.930 . S
C160 O167 1.259 . S
C160 O168 1.258 . S
N161 Co152 2.057 . S
N161 C162 1.316 . S
N161 C163 1.375 . S
C162 N161 1.316 . S
C162 N164 1.347 . S
C162 H173 0.931 . S
C163 N161 1.375 . S
C163 C165 1.350 . S
C163 H172 0.930 . S
N164 C162 1.347 . S
N164 C165 1.373 . S
C165 C163 1.350 . S
C165 N164 1.373 . S
C165 H179 0.931 . S
C166 O169 1.256 . S
C166 O170 1.255 . S
O167 Co150 2.021 . S
O167 C160 1.259 . S
O168 Co152 2.117 . S
O168 C160 1.258 . S
O169 Co152 2.020 . S
O169 C166 1.256 . S
O170 Co150 2.062 . S
O170 C166 1.255 . S
O171 C151 1.259 . S
O171 Co152 2.021 . S
H172 C163 0.930 . S
H173 C162 0.931 . S
O174 Co150 2.117 . S
O174 C151 1.258 . S
O175 Co150 2.020 . S
O175 C177 1.256 . S
O176 Co152 2.062 . S
O176 C177 1.255 . S
C177 O175 1.256 . S
C177 O176 1.255 . S
H178 C157 0.931 . S
H179 C165 0.931 . S
Co180 N185 2.057 . S
Co180 O197 2.021 . S
Co180 O200 2.062 . S
Co180 O204 2.117 . S
Co180 O205 2.020 . S
C181 O201 1.259 . S
C181 O204 1.258 . S
Co182 N191 2.057 . S
Co182 O198 2.117 . S
Co182 O199 2.020 . S
Co182 O201 2.021 . S
Co182 O206 2.062 . S
C183 N185 1.316 . S
C183 N186 1.347 . S
C183 H188 0.931 . S
C184 N185 1.375 . S
C184 C187 1.350 . S
C184 H189 0.930 . S
N185 Co180 2.057 . S
N185 C183 1.316 . S
N185 C184 1.375 . S
N186 C183 1.347 . S
N186 C187 1.373 . S
C187 C184 1.350 . S
C187 N186 1.373 . S
C187 H208 0.931 . S
H188 C183 0.931 . S
H189 C184 0.930 . S
C190 O197 1.259 . S
C190 O198 1.258 . S
N191 Co182 2.057 . S
N191 C192 1.316 . S
N191 C193 1.375 . S
C192 N191 1.316 . S
C192 N194 1.347 . S
C192 H203 0.931 . S
C193 N191 1.375 . S
C193 C195 1.350 . S
C193 H202 0.930 . S
N194 C192 1.347 . S
N194 C195 1.373 . S
C195 C193 1.350 . S
C195 N194 1.373 . S
C195 H209 0.931 . S
C196 O199 1.256 . S
C196 O200 1.255 . S
O197 Co180 2.021 . S
O197 C190 1.259 . S
O198 Co182 2.117 . S
O198 C190 1.258 . S
O199 Co182 2.020 . S
O199 C196 1.256 . S
O200 Co180 2.062 . S
O200 C196 1.255 . S
O201 C181 1.259 . S
O201 Co182 2.021 . S
H202 C193 0.930 . S
H203 C192 0.931 . S
O204 Co180 2.117 . S
O204 C181 1.258 . S
O205 Co180 2.020 . S
O205 C207 1.256 . S
O206 Co182 2.062 . S
O206 C207 1.255 . S
C207 O205 1.256 . S
C207 O206 1.255 . S
H208 C187 0.931 . S
H209 C195 0.931 . S
Co210 N215 2.057 . S
Co210 O227 2.021 . S
Co210 O230 2.062 . S
Co210 O234 2.117 . S
Co210 O235 2.020 . S
C211 O231 1.259 . S
C211 O234 1.258 . S
Co212 N221 2.057 . S
Co212 O228 2.117 . S
Co212 O229 2.020 . S
Co212 O231 2.021 . S
Co212 O236 2.062 . S
C213 N215 1.316 . S
C213 N216 1.347 . S
C213 H218 0.931 . S
C214 N215 1.375 . S
C214 C217 1.350 . S
C214 H219 0.930 . S
N215 Co210 2.057 . S
N215 C213 1.316 . S
N215 C214 1.375 . S
N216 C213 1.347 . S
N216 C217 1.373 . S
C217 C214 1.350 . S
C217 N216 1.373 . S
C217 H238 0.931 . S
H218 C213 0.931 . S
H219 C214 0.930 . S
C220 O227 1.259 . S
C220 O228 1.258 . S
N221 Co212 2.057 . S
N221 C222 1.316 . S
N221 C223 1.375 . S
C222 N221 1.316 . S
C222 N224 1.347 . S
C222 H233 0.931 . S
C223 N221 1.375 . S
C223 C225 1.350 . S
C223 H232 0.930 . S
N224 C222 1.347 . S
N224 C225 1.373 . S
C225 C223 1.350 . S
C225 N224 1.373 . S
C225 H239 0.931 . S
C226 O229 1.256 . S
C226 O230 1.255 . S
O227 Co210 2.021 . S
O227 C220 1.259 . S
O228 Co212 2.117 . S
O228 C220 1.258 . S
O229 Co212 2.020 . S
O229 C226 1.256 . S
O230 Co210 2.062 . S
O230 C226 1.255 . S
O231 C211 1.259 . S
O231 Co212 2.021 . S
H232 C223 0.930 . S
H233 C222 0.931 . S
O234 Co210 2.117 . S
O234 C211 1.258 . S
O235 Co210 2.020 . S
O235 C237 1.256 . S
O236 Co212 2.062 . S
O236 C237 1.255 . S
C237 O235 1.256 . S
C237 O236 1.255 . S
H238 C217 0.931 . S
H239 C225 0.931 . S
C240 O252 1.241 . S
C240 O253 1.280 . S
C241 O254 1.277 . S
C241 O255 1.245 . S
C242 O266 1.247 . S
C242 O268 1.289 . S
Mg243 O244 1.926 . S
Mg243 O253 1.984 . S
Mg243 O255 1.988 . S
Mg243 O256 2.061 1_655 S
O244 Mg243 1.926 . S
O244 Mg245 1.986 . S
O244 Mg246 1.917 1_655 S
Mg245 O244 1.986 . S
Mg245 O252 2.042 . S
Mg245 O254 2.041 . S
Mg245 O260 2.038 1_545 S
Mg245 O268 2.238 1_545 S
Mg246 O244 1.917 1_455 S
Mg246 O247 1.917 1_545 S
Mg246 O257 2.106 . S
Mg246 O259 2.079 1_445 S
Mg246 O268 2.106 1_445 S
Mg246 O269 2.079 . S
O247 Mg246 1.917 1_565 S
O247 Mg248 1.926 . S
O247 Mg249 1.986 . S
Mg248 O247 1.926 . S
Mg248 O262 1.984 . S
Mg248 O265 1.988 . S
Mg248 O266 2.061 1_455 S
Mg249 O247 1.986 . S
Mg249 O257 2.238 1_565 S
Mg249 O261 2.042 . S
Mg249 O263 2.041 . S
Mg249 O270 2.038 1_565 S
C250 O256 1.247 . S
C250 O257 1.289 . S
C251 O269 1.245 . S
C251 O270 1.274 . S
O252 C240 1.241 . S
O252 Mg245 2.042 . S
O253 C240 1.280 . S
O253 Mg243 1.984 . S
O254 C241 1.277 . S
O254 Mg245 2.041 . S
O255 C241 1.245 . S
O255 Mg243 1.988 . S
O256 Mg243 2.061 1_455 S
O256 C250 1.247 . S
O257 Mg246 2.106 . S
O257 Mg249 2.238 1_545 S
O257 C250 1.289 . S
C258 O259 1.245 . S
C258 O260 1.274 . S
O259 Mg246 2.079 1_665 S
O259 C258 1.245 . S
O260 Mg245 2.038 1_565 S
O260 C258 1.274 . S
O261 Mg249 2.042 . S
O261 C264 1.241 . S
O262 Mg248 1.984 . S
O262 C264 1.280 . S
O263 Mg249 2.041 . S
O263 C267 1.277 . S
C264 O261 1.241 . S
C264 O262 1.280 . S
O265 Mg248 1.988 . S
O265 C267 1.245 . S
O266 C242 1.247 . S
O266 Mg248 2.061 1_655 S
C267 O263 1.277 . S
C267 O265 1.245 . S
O268 C242 1.289 . S
O268 Mg245 2.238 1_565 S
O268 Mg246 2.106 1_665 S
O269 Mg246 2.079 . S
O269 C251 1.245 . S
O270 Mg249 2.038 1_545 S
O270 C251 1.274 . S
C271 O283 1.241 . S
C271 O284 1.280 . S
C272 O285 1.277 . S
C272 O286 1.245 . S
C273 O297 1.247 . S
C273 O299 1.289 . S
Mg274 O275 1.926 . S
Mg274 O284 1.984 . S
Mg274 O286 1.988 1_554 S
Mg274 O287 2.061 . S
O275 Mg274 1.926 . S
O275 Mg276 1.986 1_554 S
O275 Mg277 1.918 . S
Mg276 O275 1.986 1_556 S
Mg276 O283 2.042 1_556 S
Mg276 O285 2.041 . S
Mg276 O291 2.038 1_546 S
Mg276 O299 2.238 1_545 S
Mg277 O275 1.918 . S
Mg277 O278 1.916 1_544 S
Mg277 O288 2.108 . S
Mg277 O290 2.082 1_545 S
Mg277 O299 2.104 1_544 S
Mg277 O300 2.075 1_554 S
O278 Mg277 1.916 1_566 S
O278 Mg279 1.926 . S
O278 Mg280 1.986 1_556 S
Mg279 O278 1.926 . S
Mg279 O293 1.984 . S
Mg279 O296 1.988 1_556 S
Mg279 O297 2.061 . S
Mg280 O278 1.986 1_554 S
Mg280 O288 2.238 1_565 S
Mg280 O292 2.042 1_554 S
Mg280 O294 2.041 . S
Mg280 O301 2.038 1_564 S
C281 O287 1.247 . S
C281 O288 1.289 . S
C282 O300 1.245 . S
C282 O301 1.274 . S
O283 C271 1.241 . S
O283 Mg276 2.042 1_554 S
O284 C271 1.280 . S
O284 Mg274 1.984 . S
O285 C272 1.277 . S
O285 Mg276 2.041 . S
O286 C272 1.245 . S
O286 Mg274 1.988 1_556 S
O287 Mg274 2.061 . S
O287 C281 1.247 . S
O288 Mg277 2.108 . S
O288 Mg280 2.238 1_545 S
O288 C281 1.289 . S
C289 O290 1.245 . S
C289 O291 1.274 . S
O290 Mg277 2.082 1_565 S
O290 C289 1.245 . S
O291 Mg276 2.038 1_564 S
O291 C289 1.274 . S
O292 Mg280 2.042 1_556 S
O292 C295 1.241 . S
O293 Mg279 1.984 . S
O293 C295 1.280 . S
O294 Mg280 2.041 . S
O294 C298 1.277 . S
C295 O292 1.241 . S
C295 O293 1.280 . S
O296 Mg279 1.988 1_554 S
O296 C298 1.245 . S
O297 C273 1.247 . S
O297 Mg279 2.061 . S
C298 O294 1.277 . S
C298 O296 1.245 . S
O299 C273 1.289 . S
O299 Mg276 2.238 1_565 S
O299 Mg277 2.104 1_566 S
O300 Mg277 2.075 1_556 S
O300 C282 1.245 . S
O301 Mg280 2.038 1_546 S
O301 C282 1.274 . S
C302 O314 1.241 . S
C302 O315 1.280 . S
C303 O316 1.277 . S
C303 O317 1.245 . S
C304 O328 1.247 . S
C304 O330 1.289 . S
Mg305 O306 1.926 . S
Mg305 O315 1.984 . S
Mg305 O317 1.988 1_554 S
Mg305 O318 2.061 1_655 S
O306 Mg305 1.926 . S
O306 Mg307 1.986 1_554 S
O306 Mg308 1.918 1_655 S
Mg307 O306 1.986 1_556 S
Mg307 O314 2.042 1_556 S
Mg307 O316 2.041 . S
Mg307 O322 2.038 1_556 S
Mg307 O330 2.238 . S
Mg308 O306 1.918 1_455 S
Mg308 O309 1.916 1_554 S
Mg308 O319 2.108 . S
Mg308 O321 2.082 1_455 S
Mg308 O330 2.104 1_454 S
Mg308 O331 2.075 1_554 S
O309 Mg308 1.916 1_556 S
O309 Mg310 1.926 . S
O309 Mg311 1.986 1_556 S
Mg310 O309 1.926 . S
Mg310 O324 1.984 . S
Mg310 O327 1.988 1_556 S
Mg310 O328 2.061 1_455 S
Mg311 O309 1.986 1_554 S
Mg311 O319 2.238 . S
Mg311 O323 2.042 1_554 S
Mg311 O325 2.041 . S
Mg311 O332 2.038 1_554 S
C312 O318 1.247 . S
C312 O319 1.289 . S
C313 O331 1.245 . S
C313 O332 1.274 . S
O314 C302 1.241 . S
O314 Mg307 2.042 1_554 S
O315 C302 1.280 . S
O315 Mg305 1.984 . S
O316 C303 1.277 . S
O316 Mg307 2.041 . S
O317 C303 1.245 . S
O317 Mg305 1.988 1_556 S
O318 Mg305 2.061 1_455 S
O318 C312 1.247 . S
O319 Mg308 2.108 . S
O319 Mg311 2.238 . S
O319 C312 1.289 . S
C320 O321 1.245 . S
C320 O322 1.274 . S
O321 Mg308 2.082 1_655 S
O321 C320 1.245 . S
O322 Mg307 2.038 1_554 S
O322 C320 1.274 . S
O323 Mg311 2.042 1_556 S
O323 C326 1.241 . S
O324 Mg310 1.984 . S
O324 C326 1.280 . S
O325 Mg311 2.041 . S
O325 C329 1.277 . S
C326 O323 1.241 . S
C326 O324 1.280 . S
O327 Mg310 1.988 1_554 S
O327 C329 1.245 . S
O328 C304 1.247 . S
O328 Mg310 2.061 1_655 S
C329 O325 1.277 . S
C329 O327 1.245 . S
O330 C304 1.289 . S
O330 Mg307 2.238 . S
O330 Mg308 2.104 1_656 S
O331 Mg308 2.075 1_556 S
O331 C313 1.245 . S
O332 Mg311 2.038 1_556 S
O332 C313 1.274 . S
C333 O345 1.241 . S
C333 O346 1.280 . S
C334 O347 1.277 . S
C334 O348 1.245 . S
C335 O359 1.247 . S
C335 O361 1.289 . S
Mg336 O337 1.926 . S
Mg336 O346 1.984 . S
Mg336 O348 1.988 1_554 S
Mg336 O349 2.061 . S
O337 Mg336 1.926 . S
O337 Mg338 1.986 1_554 S
O337 Mg339 1.918 . S
Mg338 O337 1.986 1_556 S
Mg338 O345 2.042 1_556 S
Mg338 O347 2.041 . S
Mg338 O353 2.038 1_556 S
Mg338 O361 2.238 . S
Mg339 O337 1.918 . S
Mg339 O340 1.916 1_554 S
Mg339 O350 2.108 . S
Mg339 O352 2.082 . S
Mg339 O361 2.105 1_554 S
Mg339 O362 2.075 1_554 S
O340 Mg339 1.916 1_556 S
O340 Mg341 1.926 . S
O340 Mg342 1.986 1_556 S
Mg341 O340 1.926 . S
Mg341 O355 1.984 . S
Mg341 O358 1.988 1_556 S
Mg341 O359 2.061 . S
Mg342 O340 1.986 1_554 S
Mg342 O350 2.238 . S
Mg342 O354 2.042 1_554 S
Mg342 O356 2.041 . S
Mg342 O363 2.038 1_554 S
C343 O349 1.247 . S
C343 O350 1.289 . S
C344 O362 1.245 . S
C344 O363 1.274 . S
O345 C333 1.241 . S
O345 Mg338 2.042 1_554 S
O346 C333 1.280 . S
O346 Mg336 1.984 . S
O347 C334 1.277 . S
O347 Mg338 2.041 . S
O348 C334 1.245 . S
O348 Mg336 1.988 1_556 S
O349 Mg336 2.061 . S
O349 C343 1.247 . S
O350 Mg339 2.108 . S
O350 Mg342 2.238 . S
O350 C343 1.289 . S
C351 O352 1.245 . S
C351 O353 1.274 . S
O352 Mg339 2.082 . S
O352 C351 1.245 . S
O353 Mg338 2.038 1_554 S
O353 C351 1.274 . S
O354 Mg342 2.042 1_556 S
O354 C357 1.241 . S
O355 Mg341 1.984 . S
O355 C357 1.280 . S
O356 Mg342 2.041 . S
O356 C360 1.277 . S
C357 O354 1.241 . S
C357 O355 1.280 . S
O358 Mg341 1.988 1_554 S
O358 C360 1.245 . S
O359 C335 1.247 . S
O359 Mg341 2.061 . S
C360 O356 1.277 . S
C360 O358 1.245 . S
O361 C335 1.289 . S
O361 Mg338 2.238 . S
O361 Mg339 2.105 1_556 S
O362 Mg339 2.075 1_556 S
O362 C344 1.245 . S
O363 Mg342 2.038 1_556 S
O363 C344 1.274 . S
C364 O376 1.241 . S
C364 O377 1.280 . S
C365 O378 1.277 . S
C365 O379 1.245 . S
C366 O390 1.247 . S
C366 O392 1.289 . S
Mg367 O368 1.926 . S
Mg367 O377 1.984 . S
Mg367 O379 1.988 . S
Mg367 O380 2.061 1_655 S
O368 Mg367 1.926 . S
O368 Mg369 1.986 . S
O368 Mg370 1.917 1_655 S
Mg369 O368 1.986 . S
Mg369 O376 2.042 . S
Mg369 O378 2.041 . S
Mg369 O384 2.038 . S
Mg369 O392 2.238 . S
Mg370 O368 1.917 1_455 S
Mg370 O371 1.917 . S
Mg370 O381 2.106 . S
Mg370 O383 2.079 1_455 S
Mg370 O392 2.106 1_455 S
Mg370 O393 2.079 . S
O371 Mg370 1.917 . S
O371 Mg372 1.926 . S
O371 Mg373 1.986 . S
Mg372 O371 1.926 . S
Mg372 O386 1.984 . S
Mg372 O389 1.988 . S
Mg372 O390 2.061 1_455 S
Mg373 O371 1.986 . S
Mg373 O381 2.238 . S
Mg373 O385 2.042 . S
Mg373 O387 2.041 . S
Mg373 O394 2.038 . S
C374 O380 1.247 . S
C374 O381 1.289 . S
C375 O393 1.245 . S
C375 O394 1.274 . S
O376 C364 1.241 . S
O376 Mg369 2.042 . S
O377 C364 1.280 . S
O377 Mg367 1.984 . S
O378 C365 1.277 . S
O378 Mg369 2.041 . S
O379 C365 1.245 . S
O379 Mg367 1.988 . S
O380 Mg367 2.061 1_455 S
O380 C374 1.247 . S
O381 Mg370 2.106 . S
O381 Mg373 2.238 . S
O381 C374 1.289 . S
C382 O383 1.245 . S
C382 O384 1.274 . S
O383 Mg370 2.079 1_655 S
O383 C382 1.245 . S
O384 Mg369 2.038 . S
O384 C382 1.274 . S
O385 Mg373 2.042 . S
O385 C388 1.241 . S
O386 Mg372 1.984 . S
O386 C388 1.280 . S
O387 Mg373 2.041 . S
O387 C391 1.277 . S
C388 O385 1.241 . S
C388 O386 1.280 . S
O389 Mg372 1.988 . S
O389 C391 1.245 . S
O390 C366 1.247 . S
O390 Mg372 2.061 1_655 S
C391 O387 1.277 . S
C391 O389 1.245 . S
O392 C366 1.289 . S
O392 Mg369 2.238 . S
O392 Mg370 2.106 1_655 S
O393 Mg370 2.079 . S
O393 C375 1.245 . S
O394 Mg373 2.038 . S
O394 C375 1.274 . S
C395 O407 1.241 . S
C395 O408 1.280 . S
C396 O409 1.277 . S
C396 O410 1.245 . S
C397 O421 1.247 . S
C397 O423 1.289 . S
Mg398 O399 1.926 . S
Mg398 O408 1.984 . S
Mg398 O410 1.988 . S
Mg398 O411 2.061 . S
O399 Mg398 1.926 . S
O399 Mg400 1.986 . S
O399 Mg401 1.917 . S
Mg400 O399 1.986 . S
Mg400 O407 2.042 . S
Mg400 O409 2.041 . S
Mg400 O415 2.038 1_545 S
Mg400 O423 2.238 1_545 S
Mg401 O399 1.917 . S
Mg401 O402 1.917 1_545 S
Mg401 O412 2.106 . S
Mg401 O414 2.079 1_545 S
Mg401 O423 2.106 1_545 S
Mg401 O424 2.079 . S
O402 Mg401 1.917 1_565 S
O402 Mg403 1.926 . S
O402 Mg404 1.986 . S
Mg403 O402 1.926 . S
Mg403 O417 1.984 . S
Mg403 O420 1.988 . S
Mg403 O421 2.061 . S
Mg404 O402 1.986 . S
Mg404 O412 2.238 1_565 S
Mg404 O416 2.042 . S
Mg404 O418 2.041 . S
Mg404 O425 2.038 1_565 S
C405 O411 1.247 . S
C405 O412 1.289 . S
C406 O424 1.245 . S
C406 O425 1.274 . S
O407 C395 1.241 . S
O407 Mg400 2.042 . S
O408 C395 1.280 . S
O408 Mg398 1.984 . S
O409 C396 1.277 . S
O409 Mg400 2.041 . S
O410 C396 1.245 . S
O410 Mg398 1.988 . S
O411 Mg398 2.061 . S
O411 C405 1.247 . S
O412 Mg401 2.106 . S
O412 Mg404 2.238 1_545 S
O412 C405 1.289 . S
C413 O414 1.245 . S
C413 O415 1.274 . S
O414 Mg401 2.079 1_565 S
O414 C413 1.245 . S
O415 Mg400 2.038 1_565 S
O415 C413 1.274 . S
O416 Mg404 2.042 . S
O416 C419 1.241 . S
O417 Mg403 1.984 . S
O417 C419 1.280 . S
O418 Mg404 2.041 . S
O418 C422 1.277 . S
C419 O416 1.241 . S
C419 O417 1.280 . S
O420 Mg403 1.988 . S
O420 C422 1.245 . S
O421 C397 1.247 . S
O421 Mg403 2.061 . S
C422 O418 1.277 . S
C422 O420 1.245 . S
O423 C397 1.289 . S
O423 Mg400 2.238 1_565 S
O423 Mg401 2.106 1_565 S
O424 Mg401 2.079 . S
O424 C406 1.245 . S
O425 Mg404 2.038 1_545 S
O425 C406 1.274 . S
C426 C427 1.369 . S
C426 C428 1.419 . S
C426 H430 0.930 . S
C427 C426 1.369 . S
C427 C436 1.429 . S
C428 C426 1.419 . S
C428 C429 1.363 . S
C428 H431 0.929 . S
C429 C428 1.363 . S
C429 C435 1.428 . S
H430 C426 0.930 . S
H431 C428 0.929 . S
S432 N433 1.613 . S
S432 N434 1.610 . S
N433 S432 1.613 . S
N433 C436 1.350 1_565 S
N434 S432 1.610 . S
N434 C435 1.351 1_565 S
C435 C429 1.428 . S
C435 N434 1.351 1_545 S
C435 C436 1.434 . S
C436 C427 1.429 . S
C436 N433 1.350 1_545 S
C436 C435 1.434 . S
C437 C438 1.369 . S
C437 C439 1.419 . S
C437 H441 0.930 . S
C438 C437 1.369 . S
C438 C447 1.429 . S
C439 C437 1.419 . S
C439 C440 1.363 . S
C439 H442 0.929 . S
C440 C439 1.363 . S
C440 C446 1.428 . S
H441 C437 0.930 . S
H442 C439 0.929 . S
S443 N444 1.613 . S
S443 N445 1.610 . S
N444 S443 1.613 . S
N444 C447 1.350 . S
N445 S443 1.610 . S
N445 C446 1.351 . S
C446 C440 1.428 . S
C446 N445 1.351 . S
C446 C447 1.434 . S
C447 C438 1.429 . S
C447 N444 1.350 . S
C447 C446 1.434 . S
C448 C449 1.369 . S
C448 C450 1.419 . S
C448 H452 0.930 . S
C449 C448 1.369 . S
C449 C458 1.429 . S
C450 C448 1.419 . S
C450 C451 1.363 . S
C450 H453 0.929 . S
C451 C450 1.363 . S
C451 C457 1.428 . S
H452 C448 0.930 . S
H453 C450 0.929 . S
S454 N455 1.613 . S
S454 N456 1.610 . S
N455 S454 1.613 . S
N455 C458 1.350 . S
N456 S454 1.610 . S
N456 C457 1.351 . S
C457 C451 1.428 . S
C457 N456 1.351 . S
C457 C458 1.434 . S
C458 C449 1.429 . S
C458 N455 1.350 . S
C458 C457 1.434 . S
C459 C460 1.369 . S
C459 C461 1.419 . S
C459 H463 0.930 . S
C460 C459 1.369 . S
C460 C469 1.429 . S
C461 C459 1.419 . S
C461 C462 1.363 . S
C461 H464 0.929 . S
C462 C461 1.363 . S
C462 C468 1.428 . S
H463 C459 0.930 . S
H464 C461 0.929 . S
S465 N466 1.613 . S
S465 N467 1.610 . S
N466 S465 1.613 . S
N466 C469 1.350 . S
N467 S465 1.610 . S
N467 C468 1.351 . S
C468 C462 1.428 . S
C468 N467 1.351 . S
C468 C469 1.434 . S
C469 C460 1.429 . S
C469 N466 1.350 . S
C469 C468 1.434 . S
C470 C471 1.369 . S
C470 C472 1.419 . S
C470 H474 0.930 . S
C471 C470 1.369 . S
C471 C480 1.429 . S
C472 C470 1.419 . S
C472 C473 1.363 . S
C472 H475 0.929 . S
C473 C472 1.363 . S
C473 C479 1.428 . S
H474 C470 0.930 . S
H475 C472 0.929 . S
S476 N477 1.613 . S
S476 N478 1.610 . S
N477 S476 1.613 . S
N477 C480 1.350 . S
N478 S476 1.610 . S
N478 C479 1.351 . S
C479 C473 1.428 . S
C479 N478 1.351 . S
C479 C480 1.434 . S
C480 C471 1.429 . S
C480 N477 1.350 . S
C480 C479 1.434 . S
C481 C482 1.369 . S
C481 C483 1.419 . S
C481 H485 0.930 . S
C482 C481 1.369 . S
C482 C491 1.429 . S
C483 C481 1.419 . S
C483 C484 1.363 . S
C483 H486 0.929 . S
C484 C483 1.363 . S
C484 C490 1.428 . S
H485 C481 0.930 . S
H486 C483 0.929 . S
S487 N488 1.613 . S
S487 N489 1.610 . S
N488 S487 1.613 . S
N488 C491 1.350 . S
N489 S487 1.610 . S
N489 C490 1.351 . S
C490 C484 1.428 . S
C490 N489 1.351 . S
C490 C491 1.434 . S
C491 C482 1.429 . S
C491 N488 1.350 . S
C491 C490 1.434 . S
C492 C493 1.369 . S
C492 C494 1.419 . S
C492 H496 0.930 . S
C493 C492 1.369 . S
C493 C502 1.429 . S
C494 C492 1.419 . S
C494 C495 1.363 . S
C494 H497 0.929 . S
C495 C494 1.363 . S
C495 C501 1.428 . S
H496 C492 0.930 . S
H497 C494 0.929 . S
S498 N499 1.613 . S
S498 N500 1.610 . S
N499 S498 1.613 . S
N499 C502 1.350 . S
N500 S498 1.610 . S
N500 C501 1.351 . S
C501 C495 1.428 . S
C501 N500 1.351 . S
C501 C502 1.434 . S
C502 C493 1.429 . S
C502 N499 1.350 . S
C502 C501 1.434 . S
C503 C504 1.369 . S
C503 C505 1.419 . S
C503 H507 0.930 . S
C504 C503 1.369 . S
C504 C513 1.429 . S
C505 C503 1.419 . S
C505 C506 1.363 . S
C505 H508 0.929 . S
C506 C505 1.363 . S
C506 C512 1.428 . S
H507 C503 0.930 . S
H508 C505 0.929 . S
S509 N510 1.613 . S
S509 N511 1.610 . S
N510 S509 1.613 . S
N510 C513 1.350 . S
N511 S509 1.610 . S
N511 C512 1.351 . S
C512 C506 1.428 . S
C512 N511 1.351 . S
C512 C513 1.434 . S
C513 C504 1.429 . S
C513 N510 1.350 . S
C513 C512 1.434 . S
C514 C515 1.369 . S
C514 C516 1.419 . S
C514 H518 0.930 . S
C515 C514 1.369 . S
C515 C524 1.429 . S
C516 C514 1.419 . S
C516 C517 1.363 . S
C516 H519 0.929 . S
C517 C516 1.363 . S
C517 C523 1.428 . S
H518 C514 0.930 . S
H519 C516 0.929 . S
S520 N521 1.613 . S
S520 N522 1.610 . S
N521 S520 1.613 . S
N521 C524 1.350 . S
N522 S520 1.610 . S
N522 C523 1.351 . S
C523 C517 1.428 . S
C523 N522 1.351 . S
C523 C524 1.434 . S
C524 C515 1.429 . S
C524 N521 1.350 . S
C524 C523 1.434 . S
C525 C526 1.369 . S
C525 C527 1.419 . S
C525 H529 0.930 . S
C526 C525 1.369 . S
C526 C535 1.429 . S
C527 C525 1.419 . S
C527 C528 1.363 . S
C527 H530 0.929 . S
C528 C527 1.363 . S
C528 C534 1.428 . S
H529 C525 0.930 . S
H530 C527 0.929 . S
S531 N532 1.613 . S
S531 N533 1.610 . S
N532 S531 1.613 . S
N532 C535 1.350 . S
N533 S531 1.610 . S
N533 C534 1.351 . S
C534 C528 1.428 . S
C534 N533 1.351 . S
C534 C535 1.434 . S
C535 C526 1.429 . S
C535 N532 1.350 . S
C535 C534 1.434 . S
C536 C537 1.369 . S
C536 C538 1.419 . S
C536 H540 0.930 . S
C537 C536 1.369 . S
C537 C546 1.429 . S
C538 C536 1.419 . S
C538 C539 1.363 . S
C538 H541 0.929 . S
C539 C538 1.363 . S
C539 C545 1.428 . S
H540 C536 0.930 . S
H541 C538 0.929 . S
S542 N543 1.613 . S
S542 N544 1.610 . S
N543 S542 1.613 . S
N543 C546 1.350 . S
N544 S542 1.610 . S
N544 C545 1.351 . S
C545 C539 1.428 . S
C545 N544 1.351 . S
C545 C546 1.434 . S
C546 C537 1.429 . S
C546 N543 1.350 . S
C546 C545 1.434 . S
C547 C548 1.369 . S
C547 C549 1.419 . S
C547 H551 0.930 . S
C548 C547 1.369 . S
C548 C557 1.429 . S
C549 C547 1.419 . S
C549 C550 1.363 . S
C549 H552 0.929 . S
C550 C549 1.363 . S
C550 C556 1.428 . S
H551 C547 0.930 . S
H552 C549 0.929 . S
S553 N554 1.613 . S
S553 N555 1.610 . S
N554 S553 1.613 . S
N554 C557 1.350 . S
N555 S553 1.610 . S
N555 C556 1.351 . S
C556 C550 1.428 . S
C556 N555 1.351 . S
C556 C557 1.434 . S
C557 C548 1.429 . S
C557 N554 1.350 . S
C557 C556 1.434 . S
C558 C559 1.369 . S
C558 C560 1.419 . S
C558 H562 0.930 . S
C559 C558 1.369 . S
C559 C568 1.429 . S
C560 C558 1.419 . S
C560 C561 1.363 . S
C560 H563 0.929 . S
C561 C560 1.363 . S
C561 C567 1.428 . S
H562 C558 0.930 . S
H563 C560 0.929 . S
S564 N565 1.613 . S
S564 N566 1.610 . S
N565 S564 1.613 . S
N565 C568 1.350 . S
N566 S564 1.610 . S
N566 C567 1.351 . S
C567 C561 1.428 . S
C567 N566 1.351 . S
C567 C568 1.434 . S
C568 C559 1.429 . S
C568 N565 1.350 . S
C568 C567 1.434 . S
C569 C570 1.369 . S
C569 C571 1.419 . S
C569 H573 0.930 . S
C570 C569 1.369 . S
C570 C579 1.429 . S
C571 C569 1.419 . S
C571 C572 1.363 . S
C571 H574 0.929 . S
C572 C571 1.363 . S
C572 C578 1.428 . S
H573 C569 0.930 . S
H574 C571 0.929 . S
S575 N576 1.613 . S
S575 N577 1.610 . S
N576 S575 1.613 . S
N576 C579 1.350 . S
N577 S575 1.610 . S
N577 C578 1.351 . S
C578 C572 1.428 . S
C578 N577 1.351 . S
C578 C579 1.434 . S
C579 C570 1.429 . S
C579 N576 1.350 . S
C579 C578 1.434 . S
C580 C581 1.369 . S
C580 C582 1.419 . S
C580 H584 0.930 . S
C581 C580 1.369 . S
C581 C590 1.429 . S
C582 C580 1.419 . S
C582 C583 1.363 . S
C582 H585 0.929 . S
C583 C582 1.363 . S
C583 C589 1.428 . S
H584 C580 0.930 . S
H585 C582 0.929 . S
S586 N587 1.613 . S
S586 N588 1.610 . S
N587 S586 1.613 . S
N587 C590 1.350 . S
N588 S586 1.610 . S
N588 C589 1.351 . S
C589 C583 1.428 . S
C589 N588 1.351 . S
C589 C590 1.434 . S
C590 C581 1.429 . S
C590 N587 1.350 . S
C590 C589 1.434 . S
C591 C592 1.369 . S
C591 C593 1.419 . S
C591 H595 0.930 . S
C592 C591 1.369 . S
C592 C601 1.429 . S
C593 C591 1.419 . S
C593 C594 1.363 . S
C593 H596 0.929 . S
C594 C593 1.363 . S
C594 C600 1.428 . S
H595 C591 0.930 . S
H596 C593 0.929 . S
S597 N598 1.613 . S
S597 N599 1.610 . S
N598 S597 1.613 . S
N598 C601 1.350 . S
N599 S597 1.610 . S
N599 C600 1.351 . S
C600 C594 1.428 . S
C600 N599 1.351 . S
C600 C601 1.434 . S
C601 C592 1.429 . S
C601 N598 1.350 . S
C601 C600 1.434 . S
C602 C603 1.369 . S
C602 C604 1.419 . S
C602 H606 0.930 . S
C603 C602 1.369 . S
C603 C612 1.429 . S
C604 C602 1.419 . S
C604 C605 1.363 . S
C604 H607 0.929 . S
C605 C604 1.363 . S
C605 C611 1.428 . S
H606 C602 0.930 . S
H607 C604 0.929 . S
S608 N609 1.613 . S
S608 N610 1.610 . S
N609 S608 1.613 . S
N609 C612 1.350 . S
N610 S608 1.610 . S
N610 C611 1.351 . S
C611 C605 1.428 . S
C611 N610 1.351 . S
C611 C612 1.434 . S
C612 C603 1.429 . S
C612 N609 1.350 . S
C612 C611 1.434 . S
C613 C614 1.369 . S
C613 C615 1.419 . S
C613 H617 0.930 . S
C614 C613 1.369 . S
C614 C623 1.429 . S
C615 C613 1.419 . S
C615 C616 1.363 . S
C615 H618 0.929 . S
C616 C615 1.363 . S
C616 C622 1.428 . S
H617 C613 0.930 . S
H618 C615 0.929 . S
S619 N620 1.613 . S
S619 N621 1.610 . S
N620 S619 1.613 . S
N620 C623 1.350 . S
N621 S619 1.610 . S
N621 C622 1.351 . S
C622 C616 1.428 . S
C622 N621 1.351 . S
C622 C623 1.434 . S
C623 C614 1.429 . S
C623 N620 1.350 . S
C623 C622 1.434 . S
C624 C625 1.369 . S
C624 C626 1.419 . S
C624 H628 0.930 . S
C625 C624 1.369 . S
C625 C634 1.429 . S
C626 C624 1.419 . S
C626 C627 1.363 . S
C626 H629 0.929 . S
C627 C626 1.363 . S
C627 C633 1.428 . S
H628 C624 0.930 . S
H629 C626 0.929 . S
S630 N631 1.613 . S
S630 N632 1.610 . S
N631 S630 1.613 . S
N631 C634 1.350 . S
N632 S630 1.610 . S
N632 C633 1.351 . S
C633 C627 1.428 . S
C633 N632 1.351 . S
C633 C634 1.434 . S
C634 C625 1.429 . S
C634 N631 1.350 . S
C634 C633 1.434 . S
C635 C636 1.369 . S
C635 C637 1.419 . S
C635 H639 0.930 . S
C636 C635 1.369 . S
C636 C645 1.429 . S
C637 C635 1.419 . S
C637 C638 1.363 . S
C637 H640 0.929 . S
C638 C637 1.363 . S
C638 C644 1.428 . S
H639 C635 0.930 . S
H640 C637 0.929 . S
S641 N642 1.613 . S
S641 N643 1.610 . S
N642 S641 1.613 . S
N642 C645 1.350 . S
N643 S641 1.610 . S
N643 C644 1.351 . S
C644 C638 1.428 . S
C644 N643 1.351 . S
C644 C645 1.434 . S
C645 C636 1.429 . S
C645 N642 1.350 . S
C645 C644 1.434 . S
C646 C647 1.369 . S
C646 C648 1.419 . S
C646 H650 0.930 . S
C647 C646 1.369 . S
C647 C656 1.429 . S
C648 C646 1.419 . S
C648 C649 1.363 . S
C648 H651 0.929 . S
C649 C648 1.363 . S
C649 C655 1.428 . S
H650 C646 0.930 . S
H651 C648 0.929 . S
S652 N653 1.613 . S
S652 N654 1.610 . S
N653 S652 1.613 . S
N653 C656 1.350 . S
N654 S652 1.610 . S
N654 C655 1.351 . S
C655 C649 1.428 . S
C655 N654 1.351 . S
C655 C656 1.434 . S
C656 C647 1.429 . S
C656 N653 1.350 . S
C656 C655 1.434 . S
C657 C658 1.369 . S
C657 C659 1.419 . S
C657 H661 0.930 . S
C658 C657 1.369 . S
C658 C667 1.429 . S
C659 C657 1.419 . S
C659 C660 1.363 . S
C659 H662 0.929 . S
C660 C659 1.363 . S
C660 C666 1.428 . S
H661 C657 0.930 . S
H662 C659 0.929 . S
S663 N664 1.613 . S
S663 N665 1.610 . S
N664 S663 1.613 . S
N664 C667 1.350 . S
N665 S663 1.610 . S
N665 C666 1.351 . S
C666 C660 1.428 . S
C666 N665 1.351 . S
C666 C667 1.434 . S
C667 C658 1.429 . S
C667 N664 1.350 . S
C667 C666 1.434 . S
C668 C669 1.369 . S
C668 C670 1.419 . S
C668 H672 0.930 . S
C669 C668 1.369 . S
C669 C678 1.429 . S
C670 C668 1.419 . S
C670 C671 1.363 . S
C670 H673 0.929 . S
C671 C670 1.363 . S
C671 C677 1.428 . S
H672 C668 0.930 . S
H673 C670 0.929 . S
S674 N675 1.613 . S
S674 N676 1.610 . S
N675 S674 1.613 . S
N675 C678 1.350 . S
N676 S674 1.610 . S
N676 C677 1.351 . S
C677 C671 1.428 . S
C677 N676 1.351 . S
C677 C678 1.434 . S
C678 C669 1.429 . S
C678 N675 1.350 . S
C678 C677 1.434 . S
C679 C680 1.369 . S
C679 C681 1.419 . S
C679 H683 0.930 . S
C680 C679 1.369 . S
C680 C689 1.429 . S
C681 C679 1.419 . S
C681 C682 1.363 . S
C681 H684 0.929 . S
C682 C681 1.363 . S
C682 C688 1.428 . S
H683 C679 0.930 . S
H684 C681 0.929 . S
S685 N686 1.613 . S
S685 N687 1.610 . S
N686 S685 1.613 . S
N686 C689 1.350 . S
N687 S685 1.610 . S
N687 C688 1.351 . S
C688 C682 1.428 . S
C688 N687 1.351 . S
C688 C689 1.434 . S
C689 C680 1.429 . S
C689 N686 1.350 . S
C689 C688 1.434 . S
C690 C691 1.369 . S
C690 C692 1.419 . S
C690 H694 0.930 . S
C691 C690 1.369 . S
C691 C700 1.429 . S
C692 C690 1.419 . S
C692 C693 1.363 . S
C692 H695 0.929 . S
C693 C692 1.363 . S
C693 C699 1.428 . S
H694 C690 0.930 . S
H695 C692 0.929 . S
S696 N697 1.613 . S
S696 N698 1.610 . S
N697 S696 1.613 . S
N697 C700 1.350 . S
N698 S696 1.610 . S
N698 C699 1.351 . S
C699 C693 1.428 . S
C699 N698 1.351 . S
C699 C700 1.434 . S
C700 C691 1.429 . S
C700 N697 1.350 . S
C700 C699 1.434 . S
C701 C702 1.369 . S
C701 C703 1.419 . S
C701 H705 0.930 . S
C702 C701 1.369 . S
C702 C711 1.429 . S
C703 C701 1.419 . S
C703 C704 1.363 . S
C703 H706 0.929 . S
C704 C703 1.363 . S
C704 C710 1.428 . S
H705 C701 0.930 . S
H706 C703 0.929 . S
S707 N708 1.613 . S
S707 N709 1.610 . S
N708 S707 1.613 . S
N708 C711 1.350 . S
N709 S707 1.610 . S
N709 C710 1.351 . S
C710 C704 1.428 . S
C710 N709 1.351 . S
C710 C711 1.434 . S
C711 C702 1.429 . S
C711 N708 1.350 . S
C711 C710 1.434 . S
C712 C713 1.369 . S
C712 C714 1.419 . S
C712 H716 0.930 . S
C713 C712 1.369 . S
C713 C722 1.429 . S
C714 C712 1.419 . S
C714 C715 1.363 . S
C714 H717 0.929 . S
C715 C714 1.363 . S
C715 C721 1.428 . S
H716 C712 0.930 . S
H717 C714 0.929 . S
S718 N719 1.613 . S
S718 N720 1.610 . S
N719 S718 1.613 . S
N719 C722 1.350 . S
N720 S718 1.610 . S
N720 C721 1.351 . S
C721 C715 1.428 . S
C721 N720 1.351 . S
C721 C722 1.434 . S
C722 C713 1.429 . S
C722 N719 1.350 . S
C722 C721 1.434 . S
C723 C724 1.369 . S
C723 C725 1.419 . S
C723 H727 0.930 . S
C724 C723 1.369 . S
C724 C733 1.429 . S
C725 C723 1.419 . S
C725 C726 1.363 . S
C725 H728 0.929 . S
C726 C725 1.363 . S
C726 C732 1.428 . S
H727 C723 0.930 . S
H728 C725 0.929 . S
S729 N730 1.613 . S
S729 N731 1.610 . S
N730 S729 1.613 . S
N730 C733 1.350 . S
N731 S729 1.610 . S
N731 C732 1.351 . S
C732 C726 1.428 . S
C732 N731 1.351 . S
C732 C733 1.434 . S
C733 C724 1.429 . S
C733 N730 1.350 . S
C733 C732 1.434 . S
C734 C735 1.369 . S
C734 C736 1.419 . S
C734 H738 0.930 . S
C735 C734 1.369 . S
C735 C744 1.429 . S
C736 C734 1.419 . S
C736 C737 1.363 . S
C736 H739 0.929 . S
C737 C736 1.363 . S
C737 C743 1.428 . S
H738 C734 0.930 . S
H739 C736 0.929 . S
S740 N741 1.613 . S
S740 N742 1.610 . S
N741 S740 1.613 . S
N741 C744 1.350 . S
N742 S740 1.610 . S
N742 C743 1.351 . S
C743 C737 1.428 . S
C743 N742 1.351 . S
C743 C744 1.434 . S
C744 C735 1.429 . S
C744 N741 1.350 . S
C744 C743 1.434 . S
C745 C746 1.369 . S
C745 C747 1.419 . S
C745 H749 0.930 . S
C746 C745 1.369 . S
C746 C755 1.429 . S
C747 C745 1.419 . S
C747 C748 1.363 . S
C747 H750 0.929 . S
C748 C747 1.363 . S
C748 C754 1.428 . S
H749 C745 0.930 . S
H750 C747 0.929 . S
S751 N752 1.613 . S
S751 N753 1.610 . S
N752 S751 1.613 . S
N752 C755 1.350 . S
N753 S751 1.610 . S
N753 C754 1.351 . S
C754 C748 1.428 . S
C754 N753 1.351 . S
C754 C755 1.434 . S
C755 C746 1.429 . S
C755 N752 1.350 . S
C755 C754 1.434 . S
C756 C757 1.369 . S
C756 C758 1.419 . S
C756 H760 0.930 . S
C757 C756 1.369 . S
C757 C766 1.429 . S
C758 C756 1.419 . S
C758 C759 1.363 . S
C758 H761 0.929 . S
C759 C758 1.363 . S
C759 C765 1.428 . S
H760 C756 0.930 . S
H761 C758 0.929 . S
S762 N763 1.613 . S
S762 N764 1.610 . S
N763 S762 1.613 . S
N763 C766 1.350 . S
N764 S762 1.610 . S
N764 C765 1.351 . S
C765 C759 1.428 . S
C765 N764 1.351 . S
C765 C766 1.434 . S
C766 C757 1.429 . S
C766 N763 1.350 . S
C766 C765 1.434 . S
C767 C768 1.369 . S
C767 C769 1.419 . S
C767 H771 0.930 . S
C768 C767 1.369 . S
C768 C777 1.429 . S
C769 C767 1.419 . S
C769 C770 1.363 . S
C769 H772 0.929 . S
C770 C769 1.363 . S
C770 C776 1.428 . S
H771 C767 0.930 . S
H772 C769 0.929 . S
S773 N774 1.613 . S
S773 N775 1.610 . S
N774 S773 1.613 . S
N774 C777 1.350 . S
N775 S773 1.610 . S
N775 C776 1.351 . S
C776 C770 1.428 . S
C776 N775 1.351 . S
C776 C777 1.434 . S
C777 C768 1.429 . S
C777 N774 1.350 . S
C777 C776 1.434 . S
C778 C779 1.369 . S
C778 C780 1.419 . S
C778 H782 0.930 . S
C779 C778 1.369 . S
C779 C788 1.429 . S
C780 C778 1.419 . S
C780 C781 1.363 . S
C780 H783 0.929 . S
C781 C780 1.363 . S
C781 C787 1.428 . S
H782 C778 0.930 . S
H783 C780 0.929 . S
S784 N785 1.613 . S
S784 N786 1.610 . S
N785 S784 1.613 . S
N785 C788 1.350 . S
N786 S784 1.610 . S
N786 C787 1.351 . S
C787 C781 1.428 . S
C787 N786 1.351 . S
C787 C788 1.434 . S
C788 C779 1.429 . S
C788 N785 1.350 . S
C788 C787 1.434 . S
C789 C790 1.369 . S
C789 C791 1.419 . S
C789 H793 0.930 . S
C790 C789 1.369 . S
C790 C799 1.429 . S
C791 C789 1.419 . S
C791 C792 1.363 . S
C791 H794 0.929 . S
C792 C791 1.363 . S
C792 C798 1.428 . S
H793 C789 0.930 . S
H794 C791 0.929 . S
S795 N796 1.613 . S
S795 N797 1.610 . S
N796 S795 1.613 . S
N796 C799 1.350 . S
N797 S795 1.610 . S
N797 C798 1.351 . S
C798 C792 1.428 . S
C798 N797 1.351 . S
C798 C799 1.434 . S
C799 C790 1.429 . S
C799 N796 1.350 . S
C799 C798 1.434 . S
C800 C801 1.369 . S
C800 C802 1.419 . S
C800 H804 0.930 . S
C801 C800 1.369 . S
C801 C810 1.429 . S
C802 C800 1.419 . S
C802 C803 1.363 . S
C802 H805 0.929 . S
C803 C802 1.363 . S
C803 C809 1.428 . S
H804 C800 0.930 . S
H805 C802 0.929 . S
S806 N807 1.613 . S
S806 N808 1.610 . S
N807 S806 1.613 . S
N807 C810 1.350 . S
N808 S806 1.610 . S
N808 C809 1.351 . S
C809 C803 1.428 . S
C809 N808 1.351 . S
C809 C810 1.434 . S
C810 C801 1.429 . S
C810 N807 1.350 . S
C810 C809 1.434 . S
C811 C812 1.369 . S
C811 C813 1.419 . S
C811 H815 0.930 . S
C812 C811 1.369 . S
C812 C821 1.429 . S
C813 C811 1.419 . S
C813 C814 1.363 . S
C813 H816 0.929 . S
C814 C813 1.363 . S
C814 C820 1.428 . S
H815 C811 0.930 . S
H816 C813 0.929 . S
S817 N818 1.613 . S
S817 N819 1.610 . S
N818 S817 1.613 . S
N818 C821 1.350 . S
N819 S817 1.610 . S
N819 C820 1.351 . S
C820 C814 1.428 . S
C820 N819 1.351 . S
C820 C821 1.434 . S
C821 C812 1.429 . S
C821 N818 1.350 . S
C821 C820 1.434 . S
C822 C823 1.369 . S
C822 C824 1.419 . S
C822 H826 0.930 . S
C823 C822 1.369 . S
C823 C832 1.429 . S
C824 C822 1.419 . S
C824 C825 1.363 . S
C824 H827 0.929 . S
C825 C824 1.363 . S
C825 C831 1.428 . S
H826 C822 0.930 . S
H827 C824 0.929 . S
S828 N829 1.613 . S
S828 N830 1.610 . S
N829 S828 1.613 . S
N829 C832 1.350 . S
N830 S828 1.610 . S
N830 C831 1.351 . S
C831 C825 1.428 . S
C831 N830 1.351 . S
C831 C832 1.434 . S
C832 C823 1.429 . S
C832 N829 1.350 . S
C832 C831 1.434 . S
C833 C834 1.369 . S
C833 C835 1.419 . S
C833 H837 0.930 . S
C834 C833 1.369 . S
C834 C843 1.429 . S
C835 C833 1.419 . S
C835 C836 1.363 . S
C835 H838 0.929 . S
C836 C835 1.363 . S
C836 C842 1.428 . S
H837 C833 0.930 . S
H838 C835 0.929 . S
S839 N840 1.613 . S
S839 N841 1.610 . S
N840 S839 1.613 . S
N840 C843 1.350 . S
N841 S839 1.610 . S
N841 C842 1.351 . S
C842 C836 1.428 . S
C842 N841 1.351 . S
C842 C843 1.434 . S
C843 C834 1.429 . S
C843 N840 1.350 . S
C843 C842 1.434 . S
C844 C845 1.369 . S
C844 C846 1.419 . S
C844 H848 0.930 . S
C845 C844 1.369 . S
C845 C854 1.429 . S
C846 C844 1.419 . S
C846 C847 1.363 . S
C846 H849 0.929 . S
C847 C846 1.363 . S
C847 C853 1.428 . S
H848 C844 0.930 . S
H849 C846 0.929 . S
S850 N851 1.613 . S
S850 N852 1.610 . S
N851 S850 1.613 . S
N851 C854 1.350 . S
N852 S850 1.610 . S
N852 C853 1.351 . S
C853 C847 1.428 . S
C853 N852 1.351 . S
C853 C854 1.434 . S
C854 C845 1.429 . S
C854 N851 1.350 . S
C854 C853 1.434 . S
C855 C856 1.369 . S
C855 C857 1.419 . S
C855 H859 0.930 . S
C856 C855 1.369 . S
C856 C865 1.429 . S
C857 C855 1.419 . S
C857 C858 1.363 . S
C857 H860 0.929 . S
C858 C857 1.363 . S
C858 C864 1.428 . S
H859 C855 0.930 . S
H860 C857 0.929 . S
S861 N862 1.613 . S
S861 N863 1.610 . S
N862 S861 1.613 . S
N862 C865 1.350 . S
N863 S861 1.610 . S
N863 C864 1.351 . S
C864 C858 1.428 . S
C864 N863 1.351 . S
C864 C865 1.434 . S
C865 C856 1.429 . S
C865 N862 1.350 . S
C865 C864 1.434 . S
C866 C867 1.369 . S
C866 C868 1.419 . S
C866 H870 0.930 . S
C867 C866 1.369 . S
C867 C876 1.429 . S
C868 C866 1.419 . S
C868 C869 1.363 . S
C868 H871 0.929 . S
C869 C868 1.363 . S
C869 C875 1.428 . S
H870 C866 0.930 . S
H871 C868 0.929 . S
S872 N873 1.613 . S
S872 N874 1.610 . S
N873 S872 1.613 . S
N873 C876 1.350 . S
N874 S872 1.610 . S
N874 C875 1.351 . S
C875 C869 1.428 . S
C875 N874 1.351 . S
C875 C876 1.434 . S
C876 C867 1.429 . S
C876 N873 1.350 . S
C876 C875 1.434 . S
C877 C878 1.369 . S
C877 C879 1.419 . S
C877 H881 0.930 . S
C878 C877 1.369 . S
C878 C887 1.429 . S
C879 C877 1.419 . S
C879 C880 1.363 . S
C879 H882 0.929 . S
C880 C879 1.363 . S
C880 C886 1.428 . S
H881 C877 0.930 . S
H882 C879 0.929 . S
S883 N884 1.613 . S
S883 N885 1.610 . S
N884 S883 1.613 . S
N884 C887 1.350 . S
N885 S883 1.610 . S
N885 C886 1.351 . S
C886 C880 1.428 . S
C886 N885 1.351 . S
C886 C887 1.434 . S
C887 C878 1.429 . S
C887 N884 1.350 . S
C887 C886 1.434 . S
C888 C889 1.369 . S
C888 C890 1.419 . S
C888 H892 0.930 . S
C889 C888 1.369 . S
C889 C898 1.429 . S
C890 C888 1.419 . S
C890 C891 1.363 . S
C890 H893 0.929 . S
C891 C890 1.363 . S
C891 C897 1.428 . S
H892 C888 0.930 . S
H893 C890 0.929 . S
S894 N895 1.613 . S
S894 N896 1.610 . S
N895 S894 1.613 . S
N895 C898 1.350 . S
N896 S894 1.610 . S
N896 C897 1.351 . S
C897 C891 1.428 . S
C897 N896 1.351 . S
C897 C898 1.434 . S
C898 C889 1.429 . S
C898 N895 1.350 . S
C898 C897 1.434 . S
C899 C900 1.369 . S
C899 C901 1.419 . S
C899 H903 0.930 . S
C900 C899 1.369 . S
C900 C909 1.429 . S
C901 C899 1.419 . S
C901 C902 1.363 . S
C901 H904 0.929 . S
C902 C901 1.363 . S
C902 C908 1.428 . S
H903 C899 0.930 . S
H904 C901 0.929 . S
S905 N906 1.613 . S
S905 N907 1.610 . S
N906 S905 1.613 . S
N906 C909 1.350 . S
N907 S905 1.610 . S
N907 C908 1.351 . S
C908 C902 1.428 . S
C908 N907 1.351 . S
C908 C909 1.434 . S
C909 C900 1.429 . S
C909 N906 1.350 . S
C909 C908 1.434 . S
C910 C911 1.369 . S
C910 C912 1.419 . S
C910 H914 0.930 . S
C911 C910 1.369 . S
C911 C920 1.429 . S
C912 C910 1.419 . S
C912 C913 1.363 . S
C912 H915 0.929 . S
C913 C912 1.363 . S
C913 C919 1.428 . S
H914 C910 0.930 . S
H915 C912 0.929 . S
S916 N917 1.613 . S
S916 N918 1.610 . S
N917 S916 1.613 . S
N917 C920 1.350 . S
N918 S916 1.610 . S
N918 C919 1.351 . S
C919 C913 1.428 . S
C919 N918 1.351 . S
C919 C920 1.434 . S
C920 C911 1.429 . S
C920 N917 1.350 . S
C920 C919 1.434 . S
C921 C922 1.369 . S
C921 C923 1.419 . S
C921 H925 0.930 . S
C922 C921 1.369 . S
C922 C931 1.429 . S
C923 C921 1.419 . S
C923 C924 1.363 . S
C923 H926 0.929 . S
C924 C923 1.363 . S
C924 C930 1.428 . S
H925 C921 0.930 . S
H926 C923 0.929 . S
S927 N928 1.613 . S
S927 N929 1.610 . S
N928 S927 1.613 . S
N928 C931 1.350 . S
N929 S927 1.610 . S
N929 C930 1.351 . S
C930 C924 1.428 . S
C930 N929 1.351 . S
C930 C931 1.434 . S
C931 C922 1.429 . S
C931 N928 1.350 . S
C931 C930 1.434 . S
C932 C933 1.369 . S
C932 C934 1.419 . S
C932 H936 0.930 . S
C933 C932 1.369 . S
C933 C942 1.429 . S
C934 C932 1.419 . S
C934 C935 1.363 . S
C934 H937 0.929 . S
C935 C934 1.363 . S
C935 C941 1.428 . S
H936 C932 0.930 . S
H937 C934 0.929 . S
S938 N939 1.613 . S
S938 N940 1.610 . S
N939 S938 1.613 . S
N939 C942 1.350 . S
N940 S938 1.610 . S
N940 C941 1.351 . S
C941 C935 1.428 . S
C941 N940 1.351 . S
C941 C942 1.434 . S
C942 C933 1.429 . S
C942 N939 1.350 . S
C942 C941 1.434 . S
C943 C944 1.369 . S
C943 C945 1.419 . S
C943 H947 0.930 . S
C944 C943 1.369 . S
C944 C953 1.429 . S
C945 C943 1.419 . S
C945 C946 1.363 . S
C945 H948 0.929 . S
C946 C945 1.363 . S
C946 C952 1.428 . S
H947 C943 0.930 . S
H948 C945 0.929 . S
S949 N950 1.613 . S
S949 N951 1.610 . S
N950 S949 1.613 . S
N950 C953 1.350 . S
N951 S949 1.610 . S
N951 C952 1.351 . S
C952 C946 1.428 . S
C952 N951 1.351 . S
C952 C953 1.434 . S
C953 C944 1.429 . S
C953 N950 1.350 . S
C953 C952 1.434 . S
C429 C251 1.151 . S
C427 N6 1.044 . S
C440 C241 2.044 . S
C438 C57 2.029 . S
C451 C242 1.175 . S
C449 C61 1.196 . S
C460 N96 0.807 . S
C462 C264 0.836 . S
C471 C136 2.033 . S
C473 C267 2.045 . S
C484 C250 1.177 . S
C482 C160 1.197 . S
C493 N194 0.793 . S
C495 C240 0.839 . S
C504 N224 1.031 . S
C506 C258 1.159 . S
C517 C271 1.943 . S
C515 C10 1.974 . S
C526 N36 0.958 . S
C528 C320 0.995 . S
C539 C298 0.841 . S
C537 N74 0.797 . S
C550 C312 1.134 . S
C548 C100 1.199 . S
C559 C121 1.188 . S
C561 C273 1.152 . S
C572 C326 1.889 . S
C570 C177 1.931 . S
C581 C196 2.335 . S
C583 C282 2.246 . S
C592 C226 2.039 . S
C594 C303 2.008 . S
C603 C27 2.035 . S
C605 C329 2.010 . S
C614 N134 0.977 . S
C616 C313 0.985 . S
C627 C272 0.845 . S
C625 N156 0.798 . S
C638 C304 1.137 . S
C636 C181 1.199 . S
C647 C211 1.974 . S
C649 C295 1.940 . S
C658 C76 1.929 . S
C660 C302 1.893 . S
C671 C289 2.246 . S
C669 C117 2.336 . S
C680 C40 1.190 . S
C682 C281 1.153 . S
C691 N216 1.041 . S
C693 C344 1.155 . S
C702 C147 2.029 . S
C704 C334 2.043 . S
C715 C335 1.179 . S
C713 C151 1.199 . S
C726 C357 0.838 . S
C724 N186 0.799 . S
C735 C46 2.032 . S
C737 C360 2.044 . S
C748 C343 1.182 . S
C746 C70 1.199 . S
C757 N104 0.781 . S
C759 C333 0.845 . S
C768 N14 1.045 . S
C770 C351 1.153 . S
C779 C220 1.974 . S
C781 C364 1.946 . S
C792 C413 0.995 . S
C790 N126 0.958 . S
C801 N164 0.796 . S
C803 C391 0.844 . S
C812 C190 1.199 . S
C814 C405 1.136 . S
C825 C366 1.145 . S
C823 C31 1.190 . S
C834 C87 1.931 . S
C836 C419 1.892 . S
C847 C375 2.247 . S
C845 C106 2.334 . S
C858 C396 2.008 . S
C856 C16 2.035 . S
C869 C422 2.007 . S
C867 C237 2.037 . S
C878 N44 0.977 . S
C880 C406 0.984 . S
C889 N66 0.822 . S
C891 C365 0.839 . S
C902 C397 1.126 . S
C900 C91 1.203 . S
C911 C1 1.975 . S
C913 C388 1.939 . S
C922 C166 1.932 . S
C924 C395 1.886 . S
C935 C382 2.248 . S
C933 C207 2.337 . S
C946 C374 1.149 . S
C944 C130 1.187 . S
