# Generated by pormake.
# Topology pyr, (3,6)-cn, num edge types: 1
# Building blocks:
#     Node 0, Type 0, BuildingBlock: WUSLED_clean_sbu_0, # of connection points: 3
#     Node 1, Type 0, BuildingBlock: WUSLED_clean_sbu_0, # of connection points: 3
#     Node 2, Type 0, BuildingBlock: WUSLED_clean_sbu_0, # of connection points: 3
#     Node 3, Type 0, BuildingBlock: WUSLED_clean_sbu_0, # of connection points: 3
#     Node 4, Type 0, BuildingBlock: WUSLED_clean_sbu_0, # of connection points: 3
#     Node 5, Type 0, BuildingBlock: WUSLED_clean_sbu_0, # of connection points: 3
#     Node 6, Type 0, BuildingBlock: WUSLED_clean_sbu_0, # of connection points: 3
#     Node 7, Type 0, BuildingBlock: WUSLED_clean_sbu_0, # of connection points: 3
#     Node 8, Type 1, BuildingBlock: PAMTOO_clean_sbu_0, # of connection points: 6
#     Node 9, Type 1, BuildingBlock: PAMTOO_clean_sbu_0, # of connection points: 6
#     Node 10, Type 1, BuildingBlock: PAMTOO_clean_sbu_0, # of connection points: 6
#     Node 11, Type 1, BuildingBlock: PAMTOO_clean_sbu_0, # of connection points: 6
#     Edge 12, Type (0, 1), BuildingBlock: OJICUG_clean_linker_0, # of connection points: 2
#     Edge 13, Type (0, 1), BuildingBlock: OJICUG_clean_linker_0, # of connection points: 2
#     Edge 14, Type (0, 1), BuildingBlock: OJICUG_clean_linker_0, # of connection points: 2
#     Edge 15, Type (0, 1), BuildingBlock: OJICUG_clean_linker_0, # of connection points: 2
#     Edge 16, Type (0, 1), BuildingBlock: OJICUG_clean_linker_0, # of connection points: 2
#     Edge 17, Type (0, 1), BuildingBlock: OJICUG_clean_linker_0, # of connection points: 2
#     Edge 18, Type (0, 1), BuildingBlock: OJICUG_clean_linker_0, # of connection points: 2
#     Edge 19, Type (0, 1), BuildingBlock: OJICUG_clean_linker_0, # of connection points: 2
#     Edge 20, Type (0, 1), BuildingBlock: OJICUG_clean_linker_0, # of connection points: 2
#     Edge 21, Type (0, 1), BuildingBlock: OJICUG_clean_linker_0, # of connection points: 2
#     Edge 22, Type (0, 1), BuildingBlock: OJICUG_clean_linker_0, # of connection points: 2
#     Edge 23, Type (0, 1), BuildingBlock: OJICUG_clean_linker_0, # of connection points: 2
#     Edge 24, Type (0, 1), BuildingBlock: OJICUG_clean_linker_0, # of connection points: 2
#     Edge 25, Type (0, 1), BuildingBlock: OJICUG_clean_linker_0, # of connection points: 2
#     Edge 26, Type (0, 1), BuildingBlock: OJICUG_clean_linker_0, # of connection points: 2
#     Edge 27, Type (0, 1), BuildingBlock: OJICUG_clean_linker_0, # of connection points: 2
#     Edge 28, Type (0, 1), BuildingBlock: OJICUG_clean_linker_0, # of connection points: 2
#     Edge 29, Type (0, 1), BuildingBlock: OJICUG_clean_linker_0, # of connection points: 2
#     Edge 30, Type (0, 1), BuildingBlock: OJICUG_clean_linker_0, # of connection points: 2
#     Edge 31, Type (0, 1), BuildingBlock: OJICUG_clean_linker_0, # of connection points: 2
#     Edge 32, Type (0, 1), BuildingBlock: OJICUG_clean_linker_0, # of connection points: 2
#     Edge 33, Type (0, 1), BuildingBlock: OJICUG_clean_linker_0, # of connection points: 2
#     Edge 34, Type (0, 1), BuildingBlock: OJICUG_clean_linker_0, # of connection points: 2
#     Edge 35, Type (0, 1), BuildingBlock: OJICUG_clean_linker_0, # of connection points: 2
# Relax obj value: 0.108
# Max RMSD: 0.168
# Mean RMSD: 0.068
data_MOF--net-pyr--node1-WUSLED_clean_sbu_0--node2-PAMTOO_clean_sbu_0--edge1-OJICUG_clean_linker_0
_symmetry_space_group_name_H-M    P1
_symmetry_Int_Tables_number       1
_symmetry_cell_setting            triclinic
loop_
_symmetry_equiv_pos_as_xyz
'x, y, z'
_cell_length_a     37.579879
_cell_length_b     40.432264
_cell_length_c     40.834493
_cell_angle_alpha  89.891385
_cell_angle_beta   90.276266
_cell_angle_gamma 102.40848
loop_
_atom_site_label
_atom_site_type_symbol
_atom_site_fract_x
_atom_site_fract_y
_atom_site_fract_z
_atom_type_partial_charge
C0 C 0.32955 0.34333 0.16003 0.0
C1 C 0.30056 0.34098 0.18203 0.0
C2 C 0.27288 0.37769 0.1474 0.0
C3 C 0.27248 0.35775 0.17573 0.0
C4 C 0.303 0.3813 0.12616 0.0
C5 C 0.33101 0.36408 0.13235 0.0
U6 U 0.36073 0.28172 0.21457 0.0
O7 O 0.36708 0.22983 0.20665 0.0
O8 O 0.41351 0.268 0.22514 0.0
C9 C 0.40155 0.23654 0.21541 0.0
C10 C 0.35585 0.32153 0.16493 0.0
C11 C 0.42544 0.22145 0.19446 0.0
C12 C 0.44233 0.20501 0.14054 0.0
C13 C 0.4254 0.22527 0.16033 0.0
C14 C 0.46118 0.17841 0.18894 0.0
C15 C 0.45929 0.18045 0.15461 0.0
C16 C 0.4444 0.19873 0.20864 0.0
C17 C 0.30656 0.26152 0.29301 0.0
C18 C 0.29579 0.20582 0.31797 0.0
C19 C 0.27119 0.25046 0.34288 0.0
C20 C 0.28707 0.27283 0.31826 0.0
C21 C 0.27432 0.21645 0.34221 0.0
C22 C 0.31197 0.22825 0.29364 0.0
C23 C 0.3168 0.2828 0.26402 0.0
O24 O 0.37946 0.33043 0.18894 0.0
O25 O 0.34071 0.28907 0.16512 0.0
O26 O 0.30652 0.26731 0.23625 0.0
O27 O 0.35023 0.30117 0.26332 0.0
H28 H 0.29889 0.32499 0.20352 0.0
H29 H 0.24966 0.35377 0.19243 0.0
H30 H 0.30462 0.3969 0.10442 0.0
H31 H 0.35323 0.36625 0.11513 0.0
H32 H 0.441 0.20773 0.11421 0.0
H33 H 0.41082 0.2427 0.14898 0.0
H34 H 0.47366 0.15968 0.20068 0.0
H35 H 0.44446 0.1953 0.23497 0.0
H36 H 0.29902 0.17984 0.31722 0.0
H37 H 0.25472 0.25924 0.36128 0.0
H38 H 0.28262 0.29843 0.31805 0.0
H39 H 0.3271 0.21914 0.27435 0.0
C40 C 0.11555 0.81375 0.65984 0.0
C41 C 0.10884 0.83732 0.68303 0.0
C42 C 0.08722 0.86968 0.63985 0.0
C43 C 0.09447 0.86501 0.67311 0.0
C44 C 0.09236 0.84518 0.61702 0.0
C45 C 0.1063 0.81738 0.62697 0.0
U46 U 0.1765 0.78156 0.72024 0.0
O47 O 0.18703 0.73076 0.73091 0.0
O48 O 0.23113 0.77207 0.7139 0.0
C49 C 0.22156 0.74015 0.72272 0.0
C50 C 0.13707 0.78862 0.66864 0.0
C51 C 0.23811 0.71658 0.70371 0.0
C52 C 0.2647 0.70263 0.6528 0.0
C53 C 0.24053 0.71863 0.66942 0.0
C54 C 0.28173 0.68013 0.7042 0.0
C55 C 0.28629 0.68422 0.67028 0.0
C56 C 0.25784 0.69626 0.7208 0.0
C57 C 0.20199 0.82755 0.79921 0.0
C58 C 0.26049 0.82556 0.82374 0.0
C59 C 0.22137 0.85852 0.84921 0.0
C60 C 0.19524 0.84848 0.82466 0.0
C61 C 0.25473 0.84808 0.84827 0.0
C62 C 0.23416 0.81516 0.79951 0.0
C63 C 0.17802 0.822 0.7704 0.0
O64 O 0.17222 0.80135 0.6707 0.0
O65 O 0.12467 0.76777 0.69282 0.0
O66 O 0.15537 0.79233 0.76852 0.0
O67 O 0.19504 0.83137 0.74282 0.0
H68 H 0.11631 0.83517 0.70848 0.0
H69 H 0.09092 0.8837 0.69109 0.0
H70 H 0.08671 0.84819 0.59127 0.0
H71 H 0.11152 0.7996 0.60873 0.0
H72 H 0.26808 0.7062 0.62661 0.0
H73 H 0.22568 0.73439 0.65585 0.0
H74 H 0.29857 0.66647 0.71814 0.0
H75 H 0.25673 0.69481 0.7473 0.0
H76 H 0.28594 0.81713 0.82257 0.0
H77 H 0.2165 0.8762 0.86768 0.0
H78 H 0.17063 0.85835 0.82468 0.0
H79 H 0.23976 0.79889 0.78001 0.0
C80 C 0.622 0.40947 0.77468 0.0
C81 C 0.63966 0.44333 0.76839 0.0
C82 C 0.60425 0.44455 0.71711 0.0
C83 C 0.63088 0.46062 0.74006 0.0
C84 C 0.58646 0.41087 0.72418 0.0
C85 C 0.5952 0.39381 0.75219 0.0
U86 U 0.66536 0.37456 0.85669 0.0
O87 O 0.62995 0.34444 0.89469 0.0
O88 O 0.66559 0.32019 0.86415 0.0
C89 C 0.64122 0.31667 0.88759 0.0
C90 C 0.62948 0.38913 0.80403 0.0
C91 C 0.62844 0.28375 0.9054 0.0
C92 C 0.57944 0.23621 0.92194 0.0
C93 C 0.59129 0.26772 0.90612 0.0
C94 C 0.64146 0.23645 0.93771 0.0
C95 C 0.60429 0.21995 0.93811 0.0
C96 C 0.65334 0.26764 0.92137 0.0
C97 C 0.75742 0.42506 0.9001 0.0
C98 C 0.78915 0.42091 0.95223 0.0
C99 C 0.81729 0.46124 0.91138 0.0
C100 C 0.78729 0.45039 0.89051 0.0
C101 C 0.81875 0.44713 0.94281 0.0
C102 C 0.7587 0.41015 0.9312 0.0
C103 C 0.72557 0.41664 0.87705 0.0
O104 O 0.65568 0.37225 0.8029 0.0
O105 O 0.62357 0.39891 0.83384 0.0
O106 O 0.69284 0.41738 0.88787 0.0
O107 O 0.72526 0.39299 0.85495 0.0
H108 H 0.66033 0.45637 0.78519 0.0
H109 H 0.64547 0.48641 0.73589 0.0
H110 H 0.56517 0.39747 0.70816 0.0
H111 H 0.58066 0.36796 0.75635 0.0
H112 H 0.55061 0.22477 0.92181 0.0
H113 H 0.57137 0.27936 0.89401 0.0
H114 H 0.66163 0.22493 0.94952 0.0
H115 H 0.68213 0.27928 0.92132 0.0
H116 H 0.78908 0.40934 0.97617 0.0
H117 H 0.83956 0.48087 0.90269 0.0
H118 H 0.78727 0.46232 0.86673 0.0
H119 H 0.73611 0.39055 0.93938 0.0
C120 C 0.79263 0.63975 0.40094 0.0
C121 C 0.78916 0.65758 0.42997 0.0
C122 C 0.73155 0.6177 0.44354 0.0
C123 C 0.75885 0.64678 0.45093 0.0
C124 C 0.73527 0.60047 0.4142 0.0
C125 C 0.76515 0.6113 0.3934 0.0
U126 U 0.88438 0.68966 0.35632 0.0
O127 O 0.92532 0.66407 0.33402 0.0
O128 O 0.89262 0.68989 0.30239 0.0
C129 C 0.91887 0.67308 0.30399 0.0
C130 C 0.82417 0.6487 0.37786 0.0
C131 C 0.92725 0.65303 0.27485 0.0
C132 C 0.91568 0.6043 0.23707 0.0
C133 C 0.90639 0.62116 0.26534 0.0
C134 C 0.96678 0.65058 0.22744 0.0
C135 C 0.9459 0.61893 0.21724 0.0
C136 C 0.95766 0.66714 0.25552 0.0
C137 C 0.92256 0.78023 0.40483 0.0
C138 C 0.96683 0.83325 0.41561 0.0
C139 C 0.91152 0.81991 0.44719 0.0
C140 C 0.90044 0.78925 0.42954 0.0
C141 C 0.94506 0.84261 0.44062 0.0
C142 C 0.95583 0.80267 0.3982 0.0
C143 C 0.91174 0.74817 0.38523 0.0
O144 O 0.82424 0.6725 0.35586 0.0
O145 O 0.85703 0.6476 0.38836 0.0
O146 O 0.92075 0.71971 0.39392 0.0
O147 O 0.88691 0.74477 0.36199 0.0
H148 H 0.80988 0.67961 0.43654 0.0
H149 H 0.7572 0.66078 0.47325 0.0
H150 H 0.7148 0.57851 0.407 0.0
H151 H 0.76687 0.59708 0.37121 0.0
H152 H 0.89865 0.58011 0.23036 0.0
H153 H 0.8828 0.60938 0.27956 0.0
H154 H 0.99067 0.6627 0.21377 0.0
H155 H 0.97459 0.69145 0.26212 0.0
H156 H 0.99238 0.84982 0.40891 0.0
H157 H 0.89389 0.82554 0.46632 0.0
H158 H 0.87463 0.77254 0.43531 0.0
H159 H 0.97342 0.79667 0.37918 0.0
C160 C 0.71451 0.70983 0.9099 0.0
C161 C 0.73954 0.70835 0.88483 0.0
C162 C 0.77389 0.679 0.92108 0.0
C163 C 0.76907 0.69323 0.89042 0.0
C164 C 0.74737 0.67837 0.94542 0.0
C165 C 0.71797 0.69398 0.93994 0.0
U166 U 0.68292 0.77234 0.85673 0.0
O167 O 0.63087 0.78861 0.84943 0.0
O168 O 0.68008 0.82504 0.86538 0.0
C169 C 0.64499 0.81971 0.85914 0.0
C170 C 0.68892 0.73241 0.906 0.0
C171 C 0.62379 0.83545 0.8823 0.0
C172 C 0.61664 0.85787 0.93646 0.0
C173 C 0.63188 0.83699 0.91594 0.0
C174 C 0.58321 0.87401 0.89037 0.0
C175 C 0.59297 0.87735 0.92368 0.0
C176 C 0.59861 0.85332 0.86986 0.0
C177 C 0.73253 0.79098 0.77608 0.0
C178 C 0.74265 0.84722 0.75243 0.0
C179 C 0.76822 0.80372 0.72651 0.0
C180 C 0.75241 0.78058 0.75058 0.0
C181 C 0.76466 0.83755 0.7281 0.0
C182 C 0.7265 0.82404 0.77615 0.0
C183 C 0.72313 0.7694 0.80499 0.0
O184 O 0.70525 0.76455 0.90514 0.0
O185 O 0.66395 0.72403 0.88299 0.0
O186 O 0.68917 0.75249 0.80718 0.0
O187 O 0.73588 0.78422 0.83247 0.0
H188 H 0.73737 0.72057 0.8615 0.0
H189 H 0.78894 0.69379 0.87117 0.0
H190 H 0.75058 0.66767 0.96932 0.0
H191 H 0.69907 0.69515 0.95964 0.0
H192 H 0.62419 0.85954 0.96214 0.0
H193 H 0.65123 0.82331 0.92603 0.0
H194 H 0.56523 0.88883 0.87975 0.0
H195 H 0.59225 0.85262 0.84393 0.0
H196 H 0.73932 0.87314 0.75393 0.0
H197 H 0.78518 0.79578 0.708 0.0
H198 H 0.7574 0.75516 0.7503 0.0
H199 H 0.71118 0.83247 0.79569 0.0
C200 C 0.81224 0.26729 0.27908 0.0
C201 C 0.82004 0.23489 0.27836 0.0
C202 C 0.77996 0.22022 0.23134 0.0
C203 C 0.80389 0.21147 0.25474 0.0
C204 C 0.77445 0.25353 0.2306 0.0
C205 C 0.79035 0.27688 0.2545 0.0
U206 U 0.86485 0.28625 0.35841 0.0
O207 O 0.88427 0.33427 0.38502 0.0
O208 O 0.84417 0.2931 0.40749 0.0
C209 C 0.86061 0.32518 0.4088 0.0
C210 C 0.82222 0.28889 0.30792 0.0
C211 C 0.83562 0.34785 0.41526 0.0
C212 C 0.78295 0.3697 0.39826 0.0
C213 C 0.81154 0.35389 0.39069 0.0
C214 C 0.80338 0.37523 0.45473 0.0
C215 C 0.77783 0.37964 0.43062 0.0
C216 C 0.83191 0.35933 0.44713 0.0
C217 C 0.92671 0.22377 0.38026 0.0
C218 C 0.94221 0.20729 0.43483 0.0
C219 C 0.9613 0.17992 0.38731 0.0
C220 C 0.94531 0.20047 0.3669 0.0
C221 C 0.95895 0.1823 0.42157 0.0
C222 C 0.92609 0.22778 0.41434 0.0
C223 C 0.90397 0.23963 0.35847 0.0
O224 O 0.81089 0.27374 0.33558 0.0
O225 O 0.85598 0.30645 0.30942 0.0
O226 O 0.91703 0.27104 0.34909 0.0
O227 O 0.86929 0.23373 0.3662 0.0
H228 H 0.83696 0.2271 0.29718 0.0
H229 H 0.80895 0.18609 0.25555 0.0
H230 H 0.75606 0.26087 0.21285 0.0
H231 H 0.78399 0.30177 0.25482 0.0
H232 H 0.76373 0.37237 0.37912 0.0
H233 H 0.81372 0.34481 0.36599 0.0
H234 H 0.80067 0.38314 0.47975 0.0
H235 H 0.85011 0.3547 0.46644 0.0
H236 H 0.94055 0.21031 0.46109 0.0
H237 H 0.97364 0.16088 0.37616 0.0
H238 H 0.94582 0.19688 0.34062 0.0
H239 H 0.91179 0.24565 0.42509 0.0
C240 C 0.2859 0.63849 0.1859 0.0
C241 C 0.28284 0.65682 0.157 0.0
C242 C 0.22562 0.61701 0.1419 0.0
C243 C 0.25292 0.6463 0.13534 0.0
C244 C 0.22886 0.59938 0.1712 0.0
C245 C 0.25835 0.60992 0.19267 0.0
U246 U 0.37743 0.68911 0.22974 0.0
O247 O 0.38746 0.69158 0.28353 0.0
O248 O 0.41937 0.66486 0.2524 0.0
C249 C 0.4137 0.67476 0.28222 0.0
C250 C 0.31721 0.64698 0.20949 0.0
C251 C 0.42189 0.65481 0.3116 0.0
C252 C 0.41811 0.60276 0.34414 0.0
C253 C 0.40814 0.61981 0.31616 0.0
C254 C 0.4559 0.65509 0.36323 0.0
C255 C 0.44212 0.62016 0.36843 0.0
C256 C 0.44594 0.67194 0.33556 0.0
C257 C 0.4146 0.77915 0.1801 0.0
C258 C 0.45905 0.83259 0.17244 0.0
C259 C 0.40722 0.81854 0.13606 0.0
C260 C 0.39492 0.78787 0.15323 0.0
C261 C 0.43965 0.84154 0.14524 0.0
C262 C 0.44676 0.80194 0.1895 0.0
C263 C 0.40174 0.74669 0.1985 0.0
O264 O 0.35001 0.64584 0.19916 0.0
O265 O 0.31743 0.67107 0.23111 0.0
O266 O 0.37826 0.74384 0.22263 0.0
O267 O 0.41188 0.71851 0.1909 0.0
H268 H 0.30363 0.67899 0.15104 0.0
H269 H 0.25162 0.66065 0.11312 0.0
H270 H 0.20831 0.57728 0.17781 0.0
H271 H 0.25976 0.59534 0.21476 0.0
H272 H 0.40658 0.57597 0.34691 0.0
H273 H 0.38972 0.60564 0.29819 0.0
H274 H 0.47508 0.66965 0.38039 0.0
H275 H 0.45755 0.69873 0.33272 0.0
H276 H 0.48367 0.84949 0.18099 0.0
H277 H 0.3915 0.82388 0.11519 0.0
H278 H 0.37003 0.77084 0.14537 0.0
H279 H 0.46243 0.7961 0.21023 0.0
C280 C 0.11944 0.28414 0.68889 0.0
C281 C 0.1273 0.2842 0.65513 0.0
C282 C 0.09968 0.22301 0.65061 0.0
C283 C 0.11776 0.25403 0.63632 0.0
C284 C 0.09269 0.22331 0.68452 0.0
C285 C 0.10231 0.25316 0.70314 0.0
U286 U 0.16594 0.37597 0.72541 0.0
O287 O 0.1366 0.41394 0.74574 0.0
O288 O 0.16953 0.38906 0.77835 0.0
C289 C 0.1494 0.41177 0.77553 0.0
C290 C 0.1257 0.31545 0.70999 0.0
C291 C 0.13282 0.42474 0.8053 0.0
C292 C 0.09211 0.41778 0.85315 0.0
C293 C 0.10542 0.40458 0.82455 0.0
C294 C 0.13322 0.47148 0.84403 0.0
C295 C 0.10586 0.45159 0.8637 0.0
C296 C 0.14625 0.45837 0.81553 0.0
C297 C 0.258 0.41541 0.67119 0.0
C298 C 0.31504 0.4573 0.6637 0.0
C299 C 0.29566 0.41445 0.62244 0.0
C300 C 0.26427 0.40102 0.641 0.0
C301 C 0.32163 0.44299 0.63334 0.0
C302 C 0.28384 0.44365 0.68233 0.0
C303 C 0.22468 0.40116 0.69085 0.0
O304 O 0.15241 0.32011 0.73154 0.0
O305 O 0.12052 0.34404 0.69745 0.0
O306 O 0.19229 0.40629 0.68314 0.0
O307 O 0.22551 0.38245 0.71709 0.0
H308 H 0.14029 0.30758 0.64317 0.0
H309 H 0.12369 0.25529 0.61037 0.0
H310 H 0.07968 0.20028 0.69701 0.0
H311 H 0.09568 0.25208 0.72897 0.0
H312 H 0.07075 0.40138 0.86683 0.0
H313 H 0.09433 0.37857 0.81757 0.0
H314 H 0.14545 0.49725 0.85094 0.0
H315 H 0.16757 0.47462 0.8016 0.0
H316 H 0.33432 0.4789 0.67343 0.0
H317 H 0.29922 0.40273 0.59923 0.0
H318 H 0.24485 0.37924 0.63174 0.0
H319 H 0.27983 0.45533 0.7055 0.0
Dy320 Dy 0.062 0.0382 0.52414 0.0
Dy321 Dy 0.9852 0.02849 0.56452 0.0
C322 C 0.05155 0.09422 0.57786 0.0
O323 O 0.07062 1.01093 0.57009 0.0
O324 O 1.01136 0.98763 0.58344 0.0
O325 O 0.12069 0.05161 0.52212 0.0
O326 O 0.0894 0.031 0.47923 0.0
O327 O 0.97282 0.98883 0.52442 0.0
O328 O 0.03128 0.98513 0.51221 0.0
O329 O 0.98477 0.07188 0.53098 0.0
O330 O 0.02716 0.06416 0.4931 0.0
O331 O 0.92659 1.02125 0.56609 0.0
O332 O 0.95839 0.02781 0.61107 0.0
C333 C 0.04631 0.98821 0.58561 0.0
O334 O 0.06757 0.08827 0.55049 0.0
O335 O 0.02392 0.07166 0.58978 0.0
C336 C 0.14409 0.07039 0.47019 0.0
C337 C 0.18681 0.11871 0.42881 0.0
C338 C 0.16629 0.12897 0.45409 0.0
C339 C 0.14496 0.10496 0.47457 0.0
C340 C 0.16437 0.06004 0.44502 0.0
C341 C 0.18557 0.08397 0.42449 0.0
C342 C 0.1215 0.04466 0.49097 0.0
C343 C 0.9959 0.97276 0.51055 0.0
C344 C 1.00113 0.07892 0.50275 0.0
C345 C 0.89984 0.99352 0.61381 0.0
C346 C 0.85381 0.94136 0.6487 0.0
C347 C 0.87357 0.93372 0.62158 0.0
C348 C 0.89658 0.95966 0.60431 0.0
C349 C 0.87962 1.00125 0.64029 0.0
C350 C 0.85674 0.97545 0.65754 0.0
C351 C 0.92589 1.021 0.59806 0.0
H352 H 0.16626 0.15549 0.45771 0.0
H353 H 0.12904 0.11335 0.49367 0.0
H354 H 0.16376 0.0334 0.44121 0.0
H355 H 0.20131 0.07527 0.40544 0.0
H356 H 0.87214 0.90771 0.61436 0.0
H357 H 0.91237 0.95328 0.58404 0.0
H358 H 0.88203 0.02728 0.648 0.0
H359 H 0.8415 0.98223 0.67799 0.0
Dy360 Dy 0.48718 1.02352 1.01682 0.0
Dy361 Dy 0.56281 0.033 0.05948 0.0
C362 C 0.49512 0.96943 0.07364 0.0
O363 O 0.48556 0.0672 0.04932 0.0
O364 O 0.52793 0.06067 0.08828 0.0
O365 O 0.42869 1.01552 1.01158 0.0
O366 O 0.4635 1.02295 0.96869 0.0
O367 O 0.56835 0.083 1.03337 0.0
O368 O 0.52765 0.06546 0.99176 0.0
O369 O 0.57172 1.00523 1.01395 0.0
O370 O 0.51246 0.98114 1.00164 0.0
O371 O 0.6215 0.04488 0.06181 0.0
O372 O 0.58992 0.02788 0.10536 0.0
C373 C 0.50189 0.07508 0.07758 0.0
O374 O 0.47288 0.98536 0.05802 0.0
O375 O 0.53065 0.98105 0.07291 0.0
C376 C 0.40628 0.98691 0.96254 0.0
C377 C 0.36279 0.93365 0.92696 0.0
C378 C 0.37635 0.92751 0.958 0.0
C379 C 0.39832 0.95397 0.97559 0.0
C380 C 0.39273 0.99296 0.93163 0.0
C381 C 0.37129 0.96656 0.91392 0.0
C382 C 0.43023 1.01507 0.97963 0.0
C383 C 0.5541 0.08848 1.00488 0.0
C384 C 0.54731 0.98194 0.99909 0.0
C385 C 0.64553 0.06673 0.11261 0.0
C386 C 0.69024 0.11733 0.15059 0.0
C387 C 0.66706 0.12605 0.12641 0.0
C388 C 0.64478 0.10092 0.10762 0.0
C389 C 0.66846 0.0579 0.13666 0.0
C390 C 0.69067 0.08295 0.15549 0.0
C391 C 0.62221 0.03995 0.09338 0.0
H392 H 0.37018 0.90229 0.96843 0.0
H393 H 0.40912 0.94872 0.99923 0.0
H394 H 0.39889 1.01817 0.92111 0.0
H395 H 0.36075 0.97198 0.89022 0.0
H396 H 0.6657 0.15223 0.12238 0.0
H397 H 0.62688 0.10812 0.08931 0.0
H398 H 0.6692 0.03158 0.14087 0.0
H399 H 0.70845 0.0754 0.17367 0.0
Dy400 Dy 0.52918 0.49803 0.52083 0.0
Dy401 Dy 0.52675 0.56791 0.56127 0.0
C402 C 0.55921 0.50787 0.59655 0.0
O403 O 0.47255 0.48418 0.5421 0.0
O404 O 0.47316 0.53257 0.57201 0.0
O405 O 0.53063 0.44487 0.51767 0.0
O406 O 0.53855 0.47602 0.47424 0.0
O407 O 0.49922 0.5755 0.51339 0.0
O408 O 0.50189 0.52734 0.48452 0.0
O409 O 0.57963 0.58333 0.53354 0.0
O410 O 0.58572 0.53061 0.51693 0.0
O411 O 0.52524 0.62104 0.56412 0.0
O412 O 0.52014 0.59075 0.60806 0.0
C413 C 0.4571 0.50177 0.56282 0.0
O414 O 0.546 0.48734 0.57229 0.0
O415 O 0.55956 0.54058 0.5948 0.0
C416 C 0.57573 0.4365 0.47983 0.0
C417 C 0.6431 0.42023 0.46375 0.0
C418 C 0.63614 0.42946 0.49591 0.0
C419 C 0.60292 0.43769 0.50383 0.0
C420 C 0.58258 0.42733 0.44772 0.0
C421 C 0.61596 0.41935 0.43971 0.0
C422 C 0.54154 0.44738 0.48733 0.0
C423 C 0.49338 0.5573 0.48638 0.0
C424 C 0.59842 0.56352 0.51908 0.0
C425 C 0.48238 0.62969 0.60341 0.0
C426 C 0.41649 0.64719 0.62193 0.0
C427 C 0.41686 0.62358 0.59677 0.0
C428 C 0.44953 0.61495 0.58757 0.0
C429 C 0.48214 0.6531 0.62857 0.0
C430 C 0.44952 0.66185 0.63772 0.0
C431 C 0.51636 0.61916 0.59497 0.0
H432 H 0.65665 0.43087 0.51489 0.0
H433 H 0.59873 0.44542 0.52866 0.0
H434 H 0.56222 0.4267 0.42872 0.0
H435 H 0.62034 0.4121 0.41478 0.0
H436 H 0.39197 0.612 0.58402 0.0
H437 H 0.44912 0.59656 0.56822 0.0
H438 H 0.50711 0.66433 0.6414 0.0
H439 H 0.45006 0.67967 0.65757 0.0
Dy440 Dy 0.02259 0.56776 1.02104 0.0
Dy441 Dy 0.02388 0.49735 0.06056 0.0
C442 C 0.99148 0.55719 0.09652 0.0
O443 O 0.07689 0.58289 0.04653 0.0
O444 O 0.07961 0.53092 0.06811 0.0
O445 O 1.01883 0.62035 1.0183 0.0
O446 O 1.01728 0.59107 0.97403 0.0
O447 O 0.04131 0.48709 1.00922 0.0
O448 O 0.05499 0.54062 0.98747 0.0
O449 O 0.96777 0.48331 0.038 0.0
O450 O 0.96781 0.53354 1.01137 0.0
O451 O 0.02628 0.44439 0.06275 0.0
O452 O 0.03234 0.4742 0.10695 0.0
C453 C 0.09397 0.56331 0.06356 0.0
O454 O 1.00216 0.57735 0.07139 0.0
O455 O 0.9937 0.52502 0.09582 0.0
C456 C 0.97692 0.62774 0.97714 0.0
C457 C 0.90989 0.64182 0.95616 0.0
C458 C 0.91204 0.62366 0.98529 0.0
C459 C 0.94513 0.61653 0.99555 0.0
C460 C 0.97501 0.6456 0.94801 0.0
C461 C 0.94183 0.65252 0.93755 0.0
C462 C 1.01134 0.61868 0.98709 0.0
C463 C 0.05451 0.50794 0.98525 0.0
C464 C 0.95196 0.50209 1.01869 0.0
C465 C 0.07138 0.43669 0.1006 0.0
C466 C 0.13946 0.42172 0.11635 0.0
C467 C 0.13594 0.44238 0.08933 0.0
C468 C 0.10226 0.44991 0.08162 0.0
C469 C 0.07475 0.41622 0.12767 0.0
C470 C 0.10852 0.4088 0.13551 0.0
C471 C 0.03646 0.4462 0.09335 0.0
H472 H 0.8883 0.61533 1.00053 0.0
H473 H 0.94586 0.60216 1.01787 0.0
H474 H 0.99909 0.65388 0.93314 0.0
H475 H 0.94119 0.66594 0.91466 0.0
H476 H 0.15933 0.45309 0.07438 0.0
H477 H 0.1004 0.4663 0.06094 0.0
H478 H 0.05133 0.40613 0.14282 0.0
H479 H 0.11031 0.39258 0.15632 0.0
C480 C 0.25152 0.19808 0.39844 0.0
C481 C 0.25264 0.19142 0.36478 0.0
H482 H 0.23028 0.17996 0.44526 0.0
C483 C 0.23173 0.16102 0.35229 0.0
H484 H 0.26748 0.22133 0.40864 0.0
C485 C 0.21021 0.13761 0.37304 0.0
C486 C 0.20928 0.144 0.4068 0.0
H487 H 0.23147 0.15561 0.3263 0.0
H488 H 0.19389 0.11469 0.36255 0.0
C489 C 0.23012 0.17451 0.4193 0.0
C490 C 0.31834 0.88067 0.8561 0.0
C491 C 0.28499 0.86443 0.86994 0.0
H492 H 0.36938 0.91545 0.8636 0.0
C493 C 0.27952 0.86761 0.90368 0.0
H494 H 0.32313 0.87883 0.83009 0.0
C495 C 0.30617 0.88831 0.92291 0.0
C496 C 0.33829 0.90656 0.90849 0.0
H497 H 0.25405 0.85517 0.91486 0.0
H498 H 0.30067 0.89172 0.94856 0.0
C499 C 0.34467 0.90175 0.87517 0.0
C500 C 0.59488 0.49695 0.68449 0.0
C501 C 0.59485 0.46195 0.68589 0.0
H502 H 0.58388 0.5388 0.65609 0.0
C503 C 0.58458 0.44314 0.65693 0.0
H504 H 0.6023 0.51262 0.70595 0.0
C505 C 0.57389 0.45816 0.62835 0.0
C506 C 0.57303 0.49286 0.6271 0.0
H507 H 0.58484 0.41644 0.65613 0.0
H508 H 0.56596 0.44221 0.60713 0.0
C509 C 0.58411 0.51208 0.65569 0.0
C510 C 0.95245 0.5668 0.18311 0.0
C511 C 0.95575 0.60222 0.18594 0.0
H512 H 0.96105 0.5249 0.15365 0.0
C513 C 0.96968 0.622 0.15843 0.0
H514 H 0.94216 0.55042 0.20349 0.0
C515 C 0.98033 0.60732 0.12974 0.0
C516 C 0.97784 0.57209 0.12707 0.0
H517 H 0.97228 0.64918 0.15888 0.0
H518 H 0.99109 0.62395 0.10965 0.0
C519 C 0.9635 0.55207 0.15435 0.0
C520 C 0.50297 0.1427 0.14224 0.0
C521 C 0.47175 0.15491 0.13386 0.0
H522 H 0.53688 0.10783 0.13129 0.0
C523 C 0.45085 0.14074 0.10668 0.0
H524 H 0.51993 0.15328 0.16279 0.0
C525 C 0.46063 0.11484 0.08858 0.0
C526 C 0.49144 0.10223 0.09728 0.0
H527 H 0.42625 0.14897 0.09985 0.0
H528 H 0.44366 0.10442 0.06796 0.0
C529 C 0.51265 0.11659 0.12421 0.0
C530 C 0.09964 0.92129 0.60476 0.0
C531 C 0.07763 0.9014 0.62824 0.0
H532 H 0.10746 0.9647 0.57354 0.0
C533 C 0.04648 0.91164 0.63965 0.0
H534 H 0.12398 0.91404 0.59583 0.0
C535 C 0.03662 0.94051 0.62651 0.0
C536 C 0.05833 0.96001 0.60244 0.0
H537 H 0.0292 0.89672 0.65786 0.0
H538 H 1.01181 0.94729 0.63483 0.0
C539 C 0.09032 0.95044 0.59224 0.0
C540 C 0.86618 0.49575 0.96606 0.0
C541 C 0.85084 0.46073 0.96521 0.0
H542 H 0.90873 0.53591 0.98341 0.0
C543 C 0.86764 0.4394 0.98461 0.0
H544 H 0.85384 0.51328 0.95224 0.0
C545 C 0.89964 0.45261 1.00294 0.0
C546 C 0.91567 0.48757 1.00258 0.0
H547 H 0.85685 0.41232 0.98469 0.0
H548 H 0.9124 0.43526 1.01658 0.0
C549 C 0.89784 0.50886 0.98428 0.0
C550 C 0.68033 0.62643 0.48185 0.0
C551 C 0.69938 0.60462 0.46583 0.0
H552 H 0.6339 0.63106 0.51099 0.0
C553 C 0.68621 0.56948 0.46997 0.0
H554 H 0.68934 0.65361 0.47935 0.0
C555 C 0.65454 0.55658 0.48808 0.0
C556 C 0.63453 0.57821 0.50297 0.0
H557 H 0.70027 0.55164 0.45885 0.0
H558 H 0.64536 0.52934 0.48976 0.0
C559 C 0.64834 0.61344 0.50002 0.0
C560 C 0.22858 0.39295 0.10653 0.0
C561 C 0.24074 0.39239 0.13914 0.0
H562 H 0.18714 0.40242 0.07386 0.0
C563 C 0.22025 0.40359 0.16398 0.0
H564 H 0.24318 0.38407 0.08676 0.0
C565 C 0.18772 0.41358 0.15657 0.0
C566 C 0.17509 0.41307 0.1241 0.0
H567 H 0.22908 0.40427 0.1893 0.0
H568 H 0.17237 0.4216 0.1763 0.0
C569 C 0.19627 0.4033 0.09911 0.0
C570 C 0.56393 0.16051 0.94154 0.0
C571 C 0.59164 0.18606 0.95512 0.0
H572 H 0.53086 0.11023 0.94588 0.0
C573 C 0.60715 0.17876 0.98512 0.0
H574 H 0.55148 0.16467 0.91836 0.0
C575 C 0.59527 0.14731 1.00101 0.0
C576 C 0.56756 0.1218 0.98741 0.0
H577 H 0.62818 0.19766 0.99676 0.0
H578 H 0.60775 0.14313 1.02418 0.0
C579 C 0.5522 0.12898 0.95732 0.0
C580 C 0.99497 0.88931 0.46509 0.0
C581 C 0.95757 0.87568 0.45943 0.0
H582 H 0.03603 0.92953 0.48501 0.0
C583 C 0.9327 0.89442 0.47156 0.0
H584 H 1.01531 0.87579 0.45716 0.0
C585 C 0.9448 0.92557 0.48815 0.0
C586 C 0.98225 0.9393 0.49318 0.0
H587 H 0.90372 0.88541 0.46772 0.0
H588 H 0.9247 0.93907 0.49677 0.0
C589 C 1.007 0.92039 0.48145 0.0
C590 C 0.34953 0.69945 0.6495 0.0
C591 C 0.31782 0.67453 0.65462 0.0
H592 H 0.40548 0.71037 0.63506 0.0
C593 C 0.31793 0.64059 0.64769 0.0
H594 H 0.35002 0.72573 0.65509 0.0
C595 C 0.34967 0.6317 0.63609 0.0
C596 C 0.38192 0.65657 0.63191 0.0
H597 H 0.29375 0.621 0.65181 0.0
H598 H 0.34934 0.60526 0.63149 0.0
C599 C 0.38128 0.69058 0.63837 0.0
C600 C 0.80964 0.89196 0.72197 0.0
C601 C 0.78722 0.86364 0.70721 0.0
H602 H 0.84897 0.93803 0.71516 0.0
C603 C 0.7874 0.86028 0.67302 0.0
H604 H 0.81061 0.89466 0.74838 0.0
C605 C 0.80912 0.88542 0.65382 0.0
C606 C 0.83121 0.91408 0.66862 0.0
H607 H 0.77036 0.83853 0.66119 0.0
H608 H 0.80816 0.88273 0.62743 0.0
C609 C 0.83153 0.91679 0.70293 0.0
C610 C 0.73976 0.16303 0.22396 0.0
C611 C 0.75803 0.19379 0.21011 0.0
H612 H 0.70339 0.11525 0.21627 0.0
C613 C 0.75382 0.19947 0.17653 0.0
H614 H 0.74187 0.15831 0.24995 0.0
C615 C 0.7319 0.17463 0.1571 0.0
C616 C 0.71358 0.14382 0.17099 0.0
H617 H 0.76769 0.22297 0.16528 0.0
H618 H 0.72961 0.17942 0.13115 0.0
C619 C 0.71771 0.13837 0.20466 0.0
C620 C 0.45988 0.62028 0.42908 0.0
C621 C 0.4531 0.60273 0.39899 0.0
H622 H 0.47715 0.62029 0.47927 0.0
C623 C 0.45816 0.56906 0.39858 0.0
H624 H 0.45578 0.64588 0.43117 0.0
C625 C 0.47049 0.55409 0.42673 0.0
C626 C 0.47796 0.57207 0.45653 0.0
H627 H 0.45359 0.55444 0.3762 0.0
H628 H 0.47464 0.52847 0.42494 0.0
C629 C 0.47198 0.60534 0.45711 0.0
C630 C 0.09255 0.50096 0.89813 0.0
C631 C 0.09242 0.46603 0.89493 0.0
H632 H 0.08131 0.54133 0.92805 0.0
C633 C 0.07983 0.44535 0.92227 0.0
H634 H 0.10121 0.51812 0.87795 0.0
C635 C 0.06808 0.45888 0.95127 0.0
C636 C 0.06835 0.49375 0.95439 0.0
H637 H 0.0795 0.41854 0.92163 0.0
H638 H 0.05869 0.44176 0.97136 0.0
C639 C 0.08084 0.51447 0.92715 0.0
C640 C 0.54463 0.90723 0.94246 0.0
C641 C 0.58073 0.90303 0.9442 0.0
H642 H 0.50577 0.93536 0.95835 0.0
C643 C 0.60576 0.92491 0.96428 0.0
H644 H 0.52469 0.89065 0.92733 0.0
C645 C 0.59506 0.95074 0.98188 0.0
C646 C 0.55901 0.95509 0.97996 0.0
H647 H 0.63391 0.9226 0.96579 0.0
H648 H 0.61506 0.96724 0.99701 0.0
C649 C 0.53384 0.93286 0.96026 0.0
C650 C 1.00225 0.14444 0.43566 0.0
C651 C 0.97104 0.15694 0.4431 0.0
H652 H 0.03617 0.10995 0.44841 0.0
C653 C 0.95001 0.14348 0.47033 0.0
H654 H 1.01932 0.15444 0.41509 0.0
C655 C 0.95975 0.11815 0.48948 0.0
C656 C 0.99067 0.10537 0.48184 0.0
H657 H 0.92539 0.1519 0.47645 0.0
H658 H 0.94271 0.10834 0.51013 0.0
C659 C 1.0119 0.11889 0.45476 0.0
C660 C 0.18101 0.56897 0.11429 0.0
C661 C 0.194 0.60409 0.11877 0.0
H662 H 0.14055 0.52893 0.0936 0.0
C663 C 0.17527 0.626 0.10225 0.0
H664 H 0.1949 0.55108 0.12572 0.0
C665 C 0.1437 0.61308 0.08328 0.0
C666 C 0.12995 0.57786 0.08014 0.0
H667 H 0.18416 0.65316 0.10497 0.0
H668 H 0.12939 0.63075 0.072 0.0
C669 C 0.14969 0.55616 0.0955 0.0
C670 C 0.36942 0.49311 0.61271 0.0
C671 C 0.35524 0.45787 0.61338 0.0
H672 H 0.41146 0.53427 0.59629 0.0
C673 C 0.37397 0.43724 0.59524 0.0
H674 H 0.35568 0.51016 0.62551 0.0
C675 C 0.40619 0.45129 0.57792 0.0
C676 C 0.42083 0.48645 0.57819 0.0
H677 H 0.36438 0.41001 0.59516 0.0
H678 H 0.4202 0.43443 0.56513 0.0
C679 C 0.40154 0.50707 0.59557 0.0
C680 C 0.84182 0.69039 0.92213 0.0
C681 C 0.80834 0.66827 0.92861 0.0
H682 H 0.89974 0.69997 0.92648 0.0
C683 C 0.80826 0.63687 0.94335 0.0
H684 H 0.84264 0.71501 0.91125 0.0
C685 C 0.84115 0.62786 0.95157 0.0
C686 C 0.87479 0.65034 0.94576 0.0
H687 H 0.78277 0.61929 0.94837 0.0
H688 H 0.84015 0.60324 0.96246 0.0
C689 C 0.8746 0.68166 0.93077 0.0
C690 C 0.42943 0.89274 0.11203 0.0
C691 C 0.45345 0.87436 0.12657 0.0
H692 H 0.42318 0.93659 0.08434 0.0
C693 C 0.49113 0.88782 0.12312 0.0
H694 H 0.40026 0.88379 0.11421 0.0
C695 C 0.50426 0.91836 0.10622 0.0
C696 C 0.48034 0.93681 0.09186 0.0
H697 H 0.51083 0.8745 0.13311 0.0
H698 H 0.53347 0.92738 0.10428 0.0
C699 C 0.44263 0.92337 0.09497 0.0
C700 C 0.10762 0.18205 0.60424 0.0
C701 C 0.08734 0.19056 0.63083 0.0
H702 H 0.11287 0.14558 0.56703 0.0
C703 C 0.05496 0.16711 0.63896 0.0
H704 H 0.13276 0.19898 0.59704 0.0
C705 C 0.04377 0.1363 0.62197 0.0
C706 C 0.06424 0.1275 0.59581 0.0
H707 H 0.03774 0.17261 0.65849 0.0
H708 H 1.01868 0.11939 0.62936 0.0
C709 C 0.09627 0.15111 0.58704 0.0
C710 C 0.72957 0.41299 0.41861 0.0
C711 C 0.74442 0.39181 0.43967 0.0
H712 H 0.68621 0.43885 0.40979 0.0
C713 C 0.72593 0.38069 0.46888 0.0
H714 H 0.74324 0.42232 0.39608 0.0
C715 C 0.6934 0.39021 0.47674 0.0
C716 C 0.67831 0.411 0.45555 0.0
H717 H 0.73601 0.36373 0.48534 0.0
H718 H 0.67954 0.38053 0.49909 0.0
C719 C 0.69686 0.42243 0.42644 0.0
loop_
_geom_bond_atom_site_label_1
_geom_bond_atom_site_label_2
_geom_bond_distance
_geom_bond_site_symmetry_2
_ccdc_geom_bond_type
C0 C1 1.264 . S
C0 C5 1.479 . S
C0 C10 1.465 . S
C1 C0 1.264 . S
C1 C3 1.339 . S
C1 H28 0.931 . S
C2 C3 1.395 . S
C2 C4 1.320 . S
C3 C1 1.339 . S
C3 C2 1.395 . S
C3 H29 0.929 . S
C4 C2 1.320 . S
C4 C5 1.405 . S
C4 H30 0.930 . S
C5 C0 1.479 . S
C5 C4 1.405 . S
C5 H31 0.931 . S
U6 O7 2.454 . S
U6 O8 2.458 . S
U6 C9 2.984 . S
U6 C10 2.847 . S
U6 C23 2.882 . S
U6 O24 2.441 . S
U6 O25 2.420 . S
U6 O26 2.455 . S
U6 O27 2.449 . S
O7 U6 2.454 . S
O7 C9 1.353 . S
O8 U6 2.458 . S
O8 C9 1.286 . S
C9 U6 2.984 . S
C9 O7 1.353 . S
C9 O8 1.286 . S
C9 C11 1.363 . S
C10 C0 1.465 . S
C10 U6 2.847 . S
C10 O24 1.249 . S
C10 O25 1.202 . S
C11 C9 1.363 . S
C11 C13 1.408 . S
C11 C16 1.342 . S
C12 C13 1.310 . S
C12 C15 1.461 . S
C12 H32 0.932 . S
C13 C11 1.408 . S
C13 C12 1.310 . S
C13 H33 0.930 . S
C14 C15 1.474 . S
C14 C16 1.285 . S
C14 H34 0.929 . S
C15 C12 1.461 . S
C15 C14 1.474 . S
C16 C11 1.342 . S
C16 C14 1.285 . S
C16 H35 0.930 . S
C17 C20 1.424 . S
C17 C22 1.245 . S
C17 C23 1.428 . S
C18 C21 1.260 . S
C18 C22 1.477 . S
C18 H36 0.932 . S
C19 C20 1.384 . S
C19 C21 1.479 . S
C19 H37 0.929 . S
C20 C17 1.424 . S
C20 C19 1.384 . S
C20 H38 0.928 . S
C21 C18 1.260 . S
C21 C19 1.479 . S
C22 C17 1.245 . S
C22 C18 1.477 . S
C22 H39 0.932 . S
C23 U6 2.882 . S
C23 C17 1.428 . S
C23 O26 1.301 . S
C23 O27 1.282 . S
O24 U6 2.441 . S
O24 C10 1.249 . S
O25 U6 2.420 . S
O25 C10 1.202 . S
O26 U6 2.455 . S
O26 C23 1.301 . S
O27 U6 2.449 . S
O27 C23 1.282 . S
H28 C1 0.931 . S
H29 C3 0.929 . S
H30 C4 0.930 . S
H31 C5 0.931 . S
H32 C12 0.932 . S
H33 C13 0.930 . S
H34 C14 0.929 . S
H35 C16 0.930 . S
H36 C18 0.932 . S
H37 C19 0.929 . S
H38 C20 0.928 . S
H39 C22 0.932 . S
C40 C41 1.264 . S
C40 C45 1.479 . S
C40 C50 1.465 . S
C41 C40 1.264 . S
C41 C43 1.339 . S
C41 H68 0.931 . S
C42 C43 1.395 . S
C42 C44 1.320 . S
C43 C41 1.339 . S
C43 C42 1.395 . S
C43 H69 0.929 . S
C44 C42 1.320 . S
C44 C45 1.405 . S
C44 H70 0.930 . S
C45 C40 1.479 . S
C45 C44 1.405 . S
C45 H71 0.931 . S
U46 O47 2.454 . S
U46 O48 2.458 . S
U46 C49 2.984 . S
U46 C50 2.847 . S
U46 C63 2.882 . S
U46 O64 2.441 . S
U46 O65 2.420 . S
U46 O66 2.455 . S
U46 O67 2.449 . S
O47 U46 2.454 . S
O47 C49 1.353 . S
O48 U46 2.458 . S
O48 C49 1.286 . S
C49 U46 2.984 . S
C49 O47 1.353 . S
C49 O48 1.286 . S
C49 C51 1.363 . S
C50 C40 1.465 . S
C50 U46 2.847 . S
C50 O64 1.249 . S
C50 O65 1.202 . S
C51 C49 1.363 . S
C51 C53 1.408 . S
C51 C56 1.342 . S
C52 C53 1.310 . S
C52 C55 1.461 . S
C52 H72 0.932 . S
C53 C51 1.408 . S
C53 C52 1.310 . S
C53 H73 0.930 . S
C54 C55 1.474 . S
C54 C56 1.285 . S
C54 H74 0.929 . S
C55 C52 1.461 . S
C55 C54 1.474 . S
C56 C51 1.342 . S
C56 C54 1.285 . S
C56 H75 0.930 . S
C57 C60 1.424 . S
C57 C62 1.245 . S
C57 C63 1.428 . S
C58 C61 1.260 . S
C58 C62 1.477 . S
C58 H76 0.932 . S
C59 C60 1.384 . S
C59 C61 1.479 . S
C59 H77 0.929 . S
C60 C57 1.424 . S
C60 C59 1.384 . S
C60 H78 0.928 . S
C61 C58 1.260 . S
C61 C59 1.479 . S
C62 C57 1.245 . S
C62 C58 1.477 . S
C62 H79 0.932 . S
C63 U46 2.882 . S
C63 C57 1.428 . S
C63 O66 1.301 . S
C63 O67 1.282 . S
O64 U46 2.441 . S
O64 C50 1.249 . S
O65 U46 2.420 . S
O65 C50 1.202 . S
O66 U46 2.455 . S
O66 C63 1.301 . S
O67 U46 2.449 . S
O67 C63 1.282 . S
H68 C41 0.931 . S
H69 C43 0.929 . S
H70 C44 0.930 . S
H71 C45 0.931 . S
H72 C52 0.932 . S
H73 C53 0.930 . S
H74 C54 0.929 . S
H75 C56 0.930 . S
H76 C58 0.932 . S
H77 C59 0.929 . S
H78 C60 0.928 . S
H79 C62 0.932 . S
C80 C81 1.264 . S
C80 C85 1.479 . S
C80 C90 1.465 . S
C81 C80 1.264 . S
C81 C83 1.339 . S
C81 H108 0.931 . S
C82 C83 1.395 . S
C82 C84 1.320 . S
C83 C81 1.339 . S
C83 C82 1.395 . S
C83 H109 0.929 . S
C84 C82 1.320 . S
C84 C85 1.405 . S
C84 H110 0.930 . S
C85 C80 1.479 . S
C85 C84 1.405 . S
C85 H111 0.931 . S
U86 O87 2.454 . S
U86 O88 2.458 . S
U86 C89 2.984 . S
U86 C90 2.847 . S
U86 C103 2.882 . S
U86 O104 2.441 . S
U86 O105 2.420 . S
U86 O106 2.455 . S
U86 O107 2.449 . S
O87 U86 2.454 . S
O87 C89 1.353 . S
O88 U86 2.458 . S
O88 C89 1.286 . S
C89 U86 2.984 . S
C89 O87 1.353 . S
C89 O88 1.286 . S
C89 C91 1.363 . S
C90 C80 1.465 . S
C90 U86 2.847 . S
C90 O104 1.249 . S
C90 O105 1.202 . S
C91 C89 1.363 . S
C91 C93 1.408 . S
C91 C96 1.342 . S
C92 C93 1.310 . S
C92 C95 1.461 . S
C92 H112 0.932 . S
C93 C91 1.408 . S
C93 C92 1.310 . S
C93 H113 0.930 . S
C94 C95 1.474 . S
C94 C96 1.285 . S
C94 H114 0.929 . S
C95 C92 1.461 . S
C95 C94 1.474 . S
C96 C91 1.342 . S
C96 C94 1.285 . S
C96 H115 0.930 . S
C97 C100 1.424 . S
C97 C102 1.245 . S
C97 C103 1.428 . S
C98 C101 1.260 . S
C98 C102 1.477 . S
C98 H116 0.932 . S
C99 C100 1.384 . S
C99 C101 1.479 . S
C99 H117 0.929 . S
C100 C97 1.424 . S
C100 C99 1.384 . S
C100 H118 0.928 . S
C101 C98 1.260 . S
C101 C99 1.479 . S
C102 C97 1.245 . S
C102 C98 1.477 . S
C102 H119 0.932 . S
C103 U86 2.882 . S
C103 C97 1.428 . S
C103 O106 1.301 . S
C103 O107 1.282 . S
O104 U86 2.441 . S
O104 C90 1.249 . S
O105 U86 2.420 . S
O105 C90 1.202 . S
O106 U86 2.455 . S
O106 C103 1.301 . S
O107 U86 2.449 . S
O107 C103 1.282 . S
H108 C81 0.931 . S
H109 C83 0.929 . S
H110 C84 0.930 . S
H111 C85 0.931 . S
H112 C92 0.932 . S
H113 C93 0.930 . S
H114 C94 0.929 . S
H115 C96 0.930 . S
H116 C98 0.932 . S
H117 C99 0.929 . S
H118 C100 0.928 . S
H119 C102 0.932 . S
C120 C121 1.264 . S
C120 C125 1.479 . S
C120 C130 1.465 . S
C121 C120 1.264 . S
C121 C123 1.339 . S
C121 H148 0.931 . S
C122 C123 1.395 . S
C122 C124 1.320 . S
C123 C121 1.339 . S
C123 C122 1.395 . S
C123 H149 0.929 . S
C124 C122 1.320 . S
C124 C125 1.405 . S
C124 H150 0.930 . S
C125 C120 1.479 . S
C125 C124 1.405 . S
C125 H151 0.931 . S
U126 O127 2.454 . S
U126 O128 2.458 . S
U126 C129 2.984 . S
U126 C130 2.847 . S
U126 C143 2.882 . S
U126 O144 2.441 . S
U126 O145 2.420 . S
U126 O146 2.455 . S
U126 O147 2.449 . S
O127 U126 2.454 . S
O127 C129 1.353 . S
O128 U126 2.458 . S
O128 C129 1.286 . S
C129 U126 2.984 . S
C129 O127 1.353 . S
C129 O128 1.286 . S
C129 C131 1.363 . S
C130 C120 1.465 . S
C130 U126 2.847 . S
C130 O144 1.249 . S
C130 O145 1.202 . S
C131 C129 1.363 . S
C131 C133 1.408 . S
C131 C136 1.342 . S
C132 C133 1.310 . S
C132 C135 1.461 . S
C132 H152 0.932 . S
C133 C131 1.408 . S
C133 C132 1.310 . S
C133 H153 0.930 . S
C134 C135 1.474 . S
C134 C136 1.285 . S
C134 H154 0.929 . S
C135 C132 1.461 . S
C135 C134 1.474 . S
C136 C131 1.342 . S
C136 C134 1.285 . S
C136 H155 0.930 . S
C137 C140 1.424 . S
C137 C142 1.245 . S
C137 C143 1.428 . S
C138 C141 1.260 . S
C138 C142 1.477 . S
C138 H156 0.932 . S
C139 C140 1.384 . S
C139 C141 1.479 . S
C139 H157 0.929 . S
C140 C137 1.424 . S
C140 C139 1.384 . S
C140 H158 0.928 . S
C141 C138 1.260 . S
C141 C139 1.479 . S
C142 C137 1.245 . S
C142 C138 1.477 . S
C142 H159 0.932 . S
C143 U126 2.882 . S
C143 C137 1.428 . S
C143 O146 1.301 . S
C143 O147 1.282 . S
O144 U126 2.441 . S
O144 C130 1.249 . S
O145 U126 2.420 . S
O145 C130 1.202 . S
O146 U126 2.455 . S
O146 C143 1.301 . S
O147 U126 2.449 . S
O147 C143 1.282 . S
H148 C121 0.931 . S
H149 C123 0.929 . S
H150 C124 0.930 . S
H151 C125 0.931 . S
H152 C132 0.932 . S
H153 C133 0.930 . S
H154 C134 0.929 . S
H155 C136 0.930 . S
H156 C138 0.932 . S
H157 C139 0.929 . S
H158 C140 0.928 . S
H159 C142 0.932 . S
C160 C161 1.264 . S
C160 C165 1.479 . S
C160 C170 1.465 . S
C161 C160 1.264 . S
C161 C163 1.339 . S
C161 H188 0.931 . S
C162 C163 1.395 . S
C162 C164 1.320 . S
C163 C161 1.339 . S
C163 C162 1.395 . S
C163 H189 0.929 . S
C164 C162 1.320 . S
C164 C165 1.405 . S
C164 H190 0.930 . S
C165 C160 1.479 . S
C165 C164 1.405 . S
C165 H191 0.931 . S
U166 O167 2.454 . S
U166 O168 2.458 . S
U166 C169 2.984 . S
U166 C170 2.847 . S
U166 C183 2.882 . S
U166 O184 2.441 . S
U166 O185 2.420 . S
U166 O186 2.455 . S
U166 O187 2.449 . S
O167 U166 2.454 . S
O167 C169 1.353 . S
O168 U166 2.458 . S
O168 C169 1.286 . S
C169 U166 2.984 . S
C169 O167 1.353 . S
C169 O168 1.286 . S
C169 C171 1.363 . S
C170 C160 1.465 . S
C170 U166 2.847 . S
C170 O184 1.249 . S
C170 O185 1.202 . S
C171 C169 1.363 . S
C171 C173 1.408 . S
C171 C176 1.342 . S
C172 C173 1.310 . S
C172 C175 1.461 . S
C172 H192 0.932 . S
C173 C171 1.408 . S
C173 C172 1.310 . S
C173 H193 0.930 . S
C174 C175 1.474 . S
C174 C176 1.285 . S
C174 H194 0.929 . S
C175 C172 1.461 . S
C175 C174 1.474 . S
C176 C171 1.342 . S
C176 C174 1.285 . S
C176 H195 0.930 . S
C177 C180 1.424 . S
C177 C182 1.245 . S
C177 C183 1.428 . S
C178 C181 1.260 . S
C178 C182 1.477 . S
C178 H196 0.932 . S
C179 C180 1.384 . S
C179 C181 1.479 . S
C179 H197 0.929 . S
C180 C177 1.424 . S
C180 C179 1.384 . S
C180 H198 0.928 . S
C181 C178 1.260 . S
C181 C179 1.479 . S
C182 C177 1.245 . S
C182 C178 1.477 . S
C182 H199 0.932 . S
C183 U166 2.882 . S
C183 C177 1.428 . S
C183 O186 1.301 . S
C183 O187 1.282 . S
O184 U166 2.441 . S
O184 C170 1.249 . S
O185 U166 2.420 . S
O185 C170 1.202 . S
O186 U166 2.455 . S
O186 C183 1.301 . S
O187 U166 2.449 . S
O187 C183 1.282 . S
H188 C161 0.931 . S
H189 C163 0.929 . S
H190 C164 0.930 . S
H191 C165 0.931 . S
H192 C172 0.932 . S
H193 C173 0.930 . S
H194 C174 0.929 . S
H195 C176 0.930 . S
H196 C178 0.932 . S
H197 C179 0.929 . S
H198 C180 0.928 . S
H199 C182 0.932 . S
C200 C201 1.264 . S
C200 C205 1.479 . S
C200 C210 1.465 . S
C201 C200 1.264 . S
C201 C203 1.339 . S
C201 H228 0.931 . S
C202 C203 1.395 . S
C202 C204 1.320 . S
C203 C201 1.339 . S
C203 C202 1.395 . S
C203 H229 0.929 . S
C204 C202 1.320 . S
C204 C205 1.405 . S
C204 H230 0.930 . S
C205 C200 1.479 . S
C205 C204 1.405 . S
C205 H231 0.931 . S
U206 O207 2.454 . S
U206 O208 2.458 . S
U206 C209 2.984 . S
U206 C210 2.847 . S
U206 C223 2.882 . S
U206 O224 2.441 . S
U206 O225 2.420 . S
U206 O226 2.455 . S
U206 O227 2.449 . S
O207 U206 2.454 . S
O207 C209 1.353 . S
O208 U206 2.458 . S
O208 C209 1.286 . S
C209 U206 2.984 . S
C209 O207 1.353 . S
C209 O208 1.286 . S
C209 C211 1.363 . S
C210 C200 1.465 . S
C210 U206 2.847 . S
C210 O224 1.249 . S
C210 O225 1.202 . S
C211 C209 1.363 . S
C211 C213 1.408 . S
C211 C216 1.342 . S
C212 C213 1.310 . S
C212 C215 1.461 . S
C212 H232 0.932 . S
C213 C211 1.408 . S
C213 C212 1.310 . S
C213 H233 0.930 . S
C214 C215 1.474 . S
C214 C216 1.285 . S
C214 H234 0.929 . S
C215 C212 1.461 . S
C215 C214 1.474 . S
C216 C211 1.342 . S
C216 C214 1.285 . S
C216 H235 0.930 . S
C217 C220 1.424 . S
C217 C222 1.245 . S
C217 C223 1.428 . S
C218 C221 1.260 . S
C218 C222 1.477 . S
C218 H236 0.932 . S
C219 C220 1.384 . S
C219 C221 1.479 . S
C219 H237 0.929 . S
C220 C217 1.424 . S
C220 C219 1.384 . S
C220 H238 0.928 . S
C221 C218 1.260 . S
C221 C219 1.479 . S
C222 C217 1.245 . S
C222 C218 1.477 . S
C222 H239 0.932 . S
C223 U206 2.882 . S
C223 C217 1.428 . S
C223 O226 1.301 . S
C223 O227 1.282 . S
O224 U206 2.441 . S
O224 C210 1.249 . S
O225 U206 2.420 . S
O225 C210 1.202 . S
O226 U206 2.455 . S
O226 C223 1.301 . S
O227 U206 2.449 . S
O227 C223 1.282 . S
H228 C201 0.931 . S
H229 C203 0.929 . S
H230 C204 0.930 . S
H231 C205 0.931 . S
H232 C212 0.932 . S
H233 C213 0.930 . S
H234 C214 0.929 . S
H235 C216 0.930 . S
H236 C218 0.932 . S
H237 C219 0.929 . S
H238 C220 0.928 . S
H239 C222 0.932 . S
C240 C241 1.264 . S
C240 C245 1.479 . S
C240 C250 1.465 . S
C241 C240 1.264 . S
C241 C243 1.339 . S
C241 H268 0.931 . S
C242 C243 1.395 . S
C242 C244 1.320 . S
C243 C241 1.339 . S
C243 C242 1.395 . S
C243 H269 0.929 . S
C244 C242 1.320 . S
C244 C245 1.405 . S
C244 H270 0.930 . S
C245 C240 1.479 . S
C245 C244 1.405 . S
C245 H271 0.931 . S
U246 O247 2.454 . S
U246 O248 2.458 . S
U246 C249 2.984 . S
U246 C250 2.847 . S
U246 C263 2.882 . S
U246 O264 2.441 . S
U246 O265 2.420 . S
U246 O266 2.455 . S
U246 O267 2.449 . S
O247 U246 2.454 . S
O247 C249 1.353 . S
O248 U246 2.458 . S
O248 C249 1.286 . S
C249 U246 2.984 . S
C249 O247 1.353 . S
C249 O248 1.286 . S
C249 C251 1.363 . S
C250 C240 1.465 . S
C250 U246 2.847 . S
C250 O264 1.249 . S
C250 O265 1.202 . S
C251 C249 1.363 . S
C251 C253 1.408 . S
C251 C256 1.342 . S
C252 C253 1.310 . S
C252 C255 1.461 . S
C252 H272 0.932 . S
C253 C251 1.408 . S
C253 C252 1.310 . S
C253 H273 0.930 . S
C254 C255 1.474 . S
C254 C256 1.285 . S
C254 H274 0.929 . S
C255 C252 1.461 . S
C255 C254 1.474 . S
C256 C251 1.342 . S
C256 C254 1.285 . S
C256 H275 0.930 . S
C257 C260 1.424 . S
C257 C262 1.245 . S
C257 C263 1.428 . S
C258 C261 1.260 . S
C258 C262 1.477 . S
C258 H276 0.932 . S
C259 C260 1.384 . S
C259 C261 1.479 . S
C259 H277 0.929 . S
C260 C257 1.424 . S
C260 C259 1.384 . S
C260 H278 0.928 . S
C261 C258 1.260 . S
C261 C259 1.479 . S
C262 C257 1.245 . S
C262 C258 1.477 . S
C262 H279 0.932 . S
C263 U246 2.882 . S
C263 C257 1.428 . S
C263 O266 1.301 . S
C263 O267 1.282 . S
O264 U246 2.441 . S
O264 C250 1.249 . S
O265 U246 2.420 . S
O265 C250 1.202 . S
O266 U246 2.455 . S
O266 C263 1.301 . S
O267 U246 2.449 . S
O267 C263 1.282 . S
H268 C241 0.931 . S
H269 C243 0.929 . S
H270 C244 0.930 . S
H271 C245 0.931 . S
H272 C252 0.932 . S
H273 C253 0.930 . S
H274 C254 0.929 . S
H275 C256 0.930 . S
H276 C258 0.932 . S
H277 C259 0.929 . S
H278 C260 0.928 . S
H279 C262 0.932 . S
C280 C281 1.264 . S
C280 C285 1.479 . S
C280 C290 1.465 . S
C281 C280 1.264 . S
C281 C283 1.339 . S
C281 H308 0.931 . S
C282 C283 1.395 . S
C282 C284 1.320 . S
C283 C281 1.339 . S
C283 C282 1.395 . S
C283 H309 0.929 . S
C284 C282 1.320 . S
C284 C285 1.405 . S
C284 H310 0.930 . S
C285 C280 1.479 . S
C285 C284 1.405 . S
C285 H311 0.931 . S
U286 O287 2.454 . S
U286 O288 2.458 . S
U286 C289 2.984 . S
U286 C290 2.847 . S
U286 C303 2.882 . S
U286 O304 2.441 . S
U286 O305 2.420 . S
U286 O306 2.455 . S
U286 O307 2.449 . S
O287 U286 2.454 . S
O287 C289 1.353 . S
O288 U286 2.458 . S
O288 C289 1.286 . S
C289 U286 2.984 . S
C289 O287 1.353 . S
C289 O288 1.286 . S
C289 C291 1.363 . S
C290 C280 1.465 . S
C290 U286 2.847 . S
C290 O304 1.249 . S
C290 O305 1.202 . S
C291 C289 1.363 . S
C291 C293 1.408 . S
C291 C296 1.342 . S
C292 C293 1.310 . S
C292 C295 1.461 . S
C292 H312 0.932 . S
C293 C291 1.408 . S
C293 C292 1.310 . S
C293 H313 0.930 . S
C294 C295 1.474 . S
C294 C296 1.285 . S
C294 H314 0.929 . S
C295 C292 1.461 . S
C295 C294 1.474 . S
C296 C291 1.342 . S
C296 C294 1.285 . S
C296 H315 0.930 . S
C297 C300 1.424 . S
C297 C302 1.245 . S
C297 C303 1.428 . S
C298 C301 1.260 . S
C298 C302 1.477 . S
C298 H316 0.932 . S
C299 C300 1.384 . S
C299 C301 1.479 . S
C299 H317 0.929 . S
C300 C297 1.424 . S
C300 C299 1.384 . S
C300 H318 0.928 . S
C301 C298 1.260 . S
C301 C299 1.479 . S
C302 C297 1.245 . S
C302 C298 1.477 . S
C302 H319 0.932 . S
C303 U286 2.882 . S
C303 C297 1.428 . S
C303 O306 1.301 . S
C303 O307 1.282 . S
O304 U286 2.441 . S
O304 C290 1.249 . S
O305 U286 2.420 . S
O305 C290 1.202 . S
O306 U286 2.455 . S
O306 C303 1.301 . S
O307 U286 2.449 . S
O307 C303 1.282 . S
H308 C281 0.931 . S
H309 C283 0.929 . S
H310 C284 0.930 . S
H311 C285 0.931 . S
H312 C292 0.932 . S
H313 C293 0.930 . S
H314 C294 0.929 . S
H315 C296 0.930 . S
H316 C298 0.932 . S
H317 C299 0.929 . S
H318 C300 0.928 . S
H319 C302 0.932 . S
Dy320 O323 2.307 1_545 S
Dy320 O325 2.395 . S
Dy320 O326 2.379 . S
Dy320 O328 2.339 1_545 S
Dy320 O330 2.311 . S
Dy320 O334 2.275 . S
Dy320 C342 2.738 . S
Dy321 O324 2.283 1_645 S
Dy321 O327 2.260 1_545 S
Dy321 O329 2.325 . S
Dy321 O331 2.373 1_545 S
Dy321 O332 2.376 1_545 S
Dy321 O335 2.359 . S
Dy321 C351 2.724 1_545 S
C322 O334 1.254 . S
C322 O335 1.257 1_455 S
O323 Dy320 2.307 1_565 S
O323 C333 1.266 . S
O324 Dy321 2.283 1_465 S
O324 C333 1.236 . S
O325 Dy320 2.395 . S
O325 C342 1.255 . S
O326 Dy320 2.379 . S
O326 C342 1.249 . S
O327 Dy321 2.260 1_565 S
O327 C343 1.254 . S
O328 Dy320 2.339 1_565 S
O328 C343 1.257 1_455 S
O329 Dy321 2.325 . S
O329 C344 1.266 . S
O330 Dy320 2.311 . S
O330 C344 1.222 1_455 S
O331 Dy321 2.373 1_565 S
O331 C351 1.255 . S
O332 Dy321 2.376 1_565 S
O332 C351 1.249 . S
C333 O323 1.266 . S
C333 O324 1.236 . S
O334 Dy320 2.275 . S
O334 C322 1.254 . S
O335 Dy321 2.359 . S
O335 C322 1.257 1_655 S
C336 C339 1.344 . S
C336 C340 1.328 . S
C336 C342 1.516 . S
C337 C338 1.304 . S
C337 C341 1.323 . S
C338 C337 1.304 . S
C338 C339 1.371 . S
C338 H352 0.930 . S
C339 C336 1.344 . S
C339 C338 1.371 . S
C339 H353 0.931 . S
C340 C336 1.328 . S
C340 C341 1.433 . S
C340 H354 0.931 . S
C341 C337 1.323 . S
C341 C340 1.433 . S
C341 H355 0.933 . S
C342 Dy320 2.738 . S
C342 O325 1.255 . S
C342 O326 1.249 . S
C342 C336 1.516 . S
C343 O327 1.254 . S
C343 O328 1.257 1_655 S
C344 O329 1.266 . S
C344 O330 1.222 1_655 S
C345 C348 1.344 . S
C345 C349 1.328 . S
C345 C351 1.516 . S
C346 C347 1.304 . S
C346 C350 1.323 . S
C347 C346 1.304 . S
C347 C348 1.371 . S
C347 H356 0.930 . S
C348 C345 1.344 . S
C348 C347 1.371 . S
C348 H357 0.931 . S
C349 C345 1.328 . S
C349 C350 1.433 . S
C349 H358 0.931 . S
C350 C346 1.323 . S
C350 C349 1.433 . S
C350 H359 0.933 . S
C351 Dy321 2.724 1_565 S
C351 O331 1.255 . S
C351 O332 1.249 . S
C351 C345 1.516 . S
H352 C338 0.930 . S
H353 C339 0.931 . S
H354 C340 0.931 . S
H355 C341 0.933 . S
H356 C347 0.930 . S
H357 C348 0.931 . S
H358 C349 0.931 . S
H359 C350 0.933 . S
Dy360 O363 2.307 1_566 S
Dy360 O365 2.395 . S
Dy360 O366 2.379 . S
Dy360 O368 2.339 1_565 S
Dy360 O370 2.298 . S
Dy360 O374 2.275 1_556 S
Dy360 C382 2.738 . S
Dy361 O364 2.298 . S
Dy361 O367 2.275 1_554 S
Dy361 O369 2.307 1_544 S
Dy361 O371 2.395 . S
Dy361 O372 2.379 . S
Dy361 O375 2.339 1_545 S
Dy361 C391 2.738 . S
C362 O374 1.254 . S
C362 O375 1.257 . S
O363 Dy360 2.307 1_544 S
O363 C373 1.266 . S
O364 Dy361 2.298 . S
O364 C373 1.236 . S
O365 Dy360 2.395 . S
O365 C382 1.255 . S
O366 Dy360 2.379 . S
O366 C382 1.249 . S
O367 Dy361 2.275 1_556 S
O367 C383 1.254 . S
O368 Dy360 2.339 1_545 S
O368 C383 1.257 . S
O369 Dy361 2.307 1_566 S
O369 C384 1.266 . S
O370 Dy360 2.298 . S
O370 C384 1.236 . S
O371 Dy361 2.395 . S
O371 C391 1.255 . S
O372 Dy361 2.379 . S
O372 C391 1.249 . S
C373 O363 1.266 . S
C373 O364 1.236 . S
O374 Dy360 2.275 1_554 S
O374 C362 1.254 . S
O375 Dy361 2.339 1_565 S
O375 C362 1.257 . S
C376 C379 1.344 . S
C376 C380 1.328 . S
C376 C382 1.516 . S
C377 C378 1.304 . S
C377 C381 1.323 . S
C378 C377 1.304 . S
C378 C379 1.371 . S
C378 H392 0.930 . S
C379 C376 1.344 . S
C379 C378 1.371 . S
C379 H393 0.931 . S
C380 C376 1.328 . S
C380 C381 1.433 . S
C380 H394 0.931 . S
C381 C377 1.323 . S
C381 C380 1.433 . S
C381 H395 0.933 . S
C382 Dy360 2.738 . S
C382 O365 1.255 . S
C382 O366 1.249 . S
C382 C376 1.516 . S
C383 O367 1.254 . S
C383 O368 1.257 . S
C384 O369 1.266 . S
C384 O370 1.236 . S
C385 C388 1.344 . S
C385 C389 1.328 . S
C385 C391 1.516 . S
C386 C387 1.304 . S
C386 C390 1.323 . S
C387 C386 1.304 . S
C387 C388 1.371 . S
C387 H396 0.930 . S
C388 C385 1.344 . S
C388 C387 1.371 . S
C388 H397 0.931 . S
C389 C385 1.328 . S
C389 C390 1.433 . S
C389 H398 0.931 . S
C390 C386 1.323 . S
C390 C389 1.433 . S
C390 H399 0.933 . S
C391 Dy361 2.738 . S
C391 O371 1.255 . S
C391 O372 1.249 . S
C391 C385 1.516 . S
H392 C378 0.930 . S
H393 C379 0.931 . S
H394 C380 0.931 . S
H395 C381 0.933 . S
H396 C387 0.930 . S
H397 C388 0.931 . S
H398 C389 0.931 . S
H399 C390 0.933 . S
Dy400 O403 2.307 . S
Dy400 O405 2.395 . S
Dy400 O406 2.379 . S
Dy400 O408 2.339 . S
Dy400 O410 2.298 . S
Dy400 O414 2.275 . S
Dy400 C422 2.738 . S
Dy401 O404 2.298 . S
Dy401 O407 2.275 . S
Dy401 O409 2.307 . S
Dy401 O411 2.395 . S
Dy401 O412 2.379 . S
Dy401 O415 2.339 . S
Dy401 C431 2.738 . S
C402 O414 1.254 . S
C402 O415 1.257 . S
O403 Dy400 2.307 . S
O403 C413 1.266 . S
O404 Dy401 2.298 . S
O404 C413 1.236 . S
O405 Dy400 2.395 . S
O405 C422 1.255 . S
O406 Dy400 2.379 . S
O406 C422 1.249 . S
O407 Dy401 2.275 . S
O407 C423 1.254 . S
O408 Dy400 2.339 . S
O408 C423 1.257 . S
O409 Dy401 2.307 . S
O409 C424 1.266 . S
O410 Dy400 2.298 . S
O410 C424 1.236 . S
O411 Dy401 2.395 . S
O411 C431 1.255 . S
O412 Dy401 2.379 . S
O412 C431 1.249 . S
C413 O403 1.266 . S
C413 O404 1.236 . S
O414 Dy400 2.275 . S
O414 C402 1.254 . S
O415 Dy401 2.339 . S
O415 C402 1.257 . S
C416 C419 1.344 . S
C416 C420 1.328 . S
C416 C422 1.516 . S
C417 C418 1.304 . S
C417 C421 1.323 . S
C418 C417 1.304 . S
C418 C419 1.371 . S
C418 H432 0.930 . S
C419 C416 1.344 . S
C419 C418 1.371 . S
C419 H433 0.931 . S
C420 C416 1.328 . S
C420 C421 1.433 . S
C420 H434 0.931 . S
C421 C417 1.323 . S
C421 C420 1.433 . S
C421 H435 0.933 . S
C422 Dy400 2.738 . S
C422 O405 1.255 . S
C422 O406 1.249 . S
C422 C416 1.516 . S
C423 O407 1.254 . S
C423 O408 1.257 . S
C424 O409 1.266 . S
C424 O410 1.236 . S
C425 C428 1.344 . S
C425 C429 1.328 . S
C425 C431 1.516 . S
C426 C427 1.304 . S
C426 C430 1.323 . S
C427 C426 1.304 . S
C427 C428 1.371 . S
C427 H436 0.930 . S
C428 C425 1.344 . S
C428 C427 1.371 . S
C428 H437 0.931 . S
C429 C425 1.328 . S
C429 C430 1.433 . S
C429 H438 0.931 . S
C430 C426 1.323 . S
C430 C429 1.433 . S
C430 H439 0.933 . S
C431 Dy401 2.738 . S
C431 O411 1.255 . S
C431 O412 1.249 . S
C431 C425 1.516 . S
H432 C418 0.930 . S
H433 C419 0.931 . S
H434 C420 0.931 . S
H435 C421 0.933 . S
H436 C427 0.930 . S
H437 C428 0.931 . S
H438 C429 0.931 . S
H439 C430 0.933 . S
Dy440 O443 2.307 1_556 S
Dy440 O445 2.395 1_455 S
Dy440 O446 2.379 1_455 S
Dy440 O448 2.339 . S
Dy440 O450 2.298 1_455 S
Dy440 O454 2.275 1_456 S
Dy440 C462 2.738 1_455 S
Dy441 O444 2.298 . S
Dy441 O447 2.275 1_554 S
Dy441 O449 2.307 1_455 S
Dy441 O451 2.395 . S
Dy441 O452 2.379 . S
Dy441 O455 2.339 1_455 S
Dy441 C471 2.738 . S
C442 O454 1.254 . S
C442 O455 1.257 . S
O443 Dy440 2.307 1_554 S
O443 C453 1.266 . S
O444 Dy441 2.298 . S
O444 C453 1.236 . S
O445 Dy440 2.395 1_655 S
O445 C462 1.255 . S
O446 Dy440 2.379 1_655 S
O446 C462 1.249 . S
O447 Dy441 2.275 1_556 S
O447 C463 1.254 . S
O448 Dy440 2.339 . S
O448 C463 1.257 . S
O449 Dy441 2.307 1_655 S
O449 C464 1.266 1_554 S
O450 Dy440 2.298 1_655 S
O450 C464 1.236 . S
O451 Dy441 2.395 . S
O451 C471 1.255 . S
O452 Dy441 2.379 . S
O452 C471 1.249 . S
C453 O443 1.266 . S
C453 O444 1.236 . S
O454 Dy440 2.275 1_654 S
O454 C442 1.254 . S
O455 Dy441 2.339 1_655 S
O455 C442 1.257 . S
C456 C459 1.344 . S
C456 C460 1.328 . S
C456 C462 1.516 . S
C457 C458 1.304 . S
C457 C461 1.323 . S
C458 C457 1.304 . S
C458 C459 1.371 . S
C458 H472 0.930 . S
C459 C456 1.344 . S
C459 C458 1.371 . S
C459 H473 0.931 . S
C460 C456 1.328 . S
C460 C461 1.433 . S
C460 H474 0.931 . S
C461 C457 1.323 . S
C461 C460 1.433 . S
C461 H475 0.933 . S
C462 Dy440 2.738 1_655 S
C462 O445 1.255 . S
C462 O446 1.249 . S
C462 C456 1.516 . S
C463 O447 1.254 . S
C463 O448 1.257 . S
C464 O449 1.266 1_556 S
C464 O450 1.236 . S
C465 C468 1.344 . S
C465 C469 1.328 . S
C465 C471 1.516 . S
C466 C467 1.304 . S
C466 C470 1.323 . S
C467 C466 1.304 . S
C467 C468 1.371 . S
C467 H476 0.930 . S
C468 C465 1.344 . S
C468 C467 1.371 . S
C468 H477 0.931 . S
C469 C465 1.328 . S
C469 C470 1.433 . S
C469 H478 0.931 . S
C470 C466 1.323 . S
C470 C469 1.433 . S
C470 H479 0.933 . S
C471 Dy441 2.738 . S
C471 O451 1.255 . S
C471 O452 1.249 . S
C471 C465 1.516 . S
H472 C458 0.930 . S
H473 C459 0.931 . S
H474 C460 0.931 . S
H475 C461 0.933 . S
H476 C467 0.930 . S
H477 C468 0.931 . S
H478 C469 0.931 . S
H479 C470 0.933 . S
C480 C481 1.387 . S
C480 H484 0.950 . S
C480 C489 1.390 . S
C481 C480 1.387 . S
C481 C483 1.387 . S
H482 C489 0.950 . S
C483 C481 1.387 . S
C483 C485 1.390 . S
C483 H487 0.950 . S
H484 C480 0.950 . S
C485 C483 1.390 . S
C485 C486 1.387 . S
C485 H488 0.950 . S
C486 C485 1.387 . S
C486 C489 1.387 . S
H487 C483 0.950 . S
H488 C485 0.950 . S
C489 C480 1.390 . S
C489 H482 0.950 . S
C489 C486 1.387 . S
C490 C491 1.387 . S
C490 H494 0.950 . S
C490 C499 1.390 . S
C491 C490 1.387 . S
C491 C493 1.387 . S
H492 C499 0.950 . S
C493 C491 1.387 . S
C493 C495 1.390 . S
C493 H497 0.950 . S
H494 C490 0.950 . S
C495 C493 1.390 . S
C495 C496 1.387 . S
C495 H498 0.950 . S
C496 C495 1.387 . S
C496 C499 1.387 . S
H497 C493 0.950 . S
H498 C495 0.950 . S
C499 C490 1.390 . S
C499 H492 0.950 . S
C499 C496 1.387 . S
C500 C501 1.387 . S
C500 H504 0.950 . S
C500 C509 1.390 . S
C501 C500 1.387 . S
C501 C503 1.387 . S
H502 C509 0.950 . S
C503 C501 1.387 . S
C503 C505 1.390 . S
C503 H507 0.950 . S
H504 C500 0.950 . S
C505 C503 1.390 . S
C505 C506 1.387 . S
C505 H508 0.950 . S
C506 C505 1.387 . S
C506 C509 1.387 . S
H507 C503 0.950 . S
H508 C505 0.950 . S
C509 C500 1.390 . S
C509 H502 0.950 . S
C509 C506 1.387 . S
C510 C511 1.387 . S
C510 H514 0.950 . S
C510 C519 1.390 . S
C511 C510 1.387 . S
C511 C513 1.387 . S
H512 C519 0.950 . S
C513 C511 1.387 . S
C513 C515 1.390 . S
C513 H517 0.950 . S
H514 C510 0.950 . S
C515 C513 1.390 . S
C515 C516 1.387 . S
C515 H518 0.950 . S
C516 C515 1.387 . S
C516 C519 1.387 . S
H517 C513 0.950 . S
H518 C515 0.950 . S
C519 C510 1.390 . S
C519 H512 0.950 . S
C519 C516 1.387 . S
C520 C521 1.387 . S
C520 H524 0.950 . S
C520 C529 1.390 . S
C521 C520 1.387 . S
C521 C523 1.387 . S
H522 C529 0.950 . S
C523 C521 1.387 . S
C523 C525 1.390 . S
C523 H527 0.950 . S
H524 C520 0.950 . S
C525 C523 1.390 . S
C525 C526 1.387 . S
C525 H528 0.950 . S
C526 C525 1.387 . S
C526 C529 1.387 . S
H527 C523 0.950 . S
H528 C525 0.950 . S
C529 C520 1.390 . S
C529 H522 0.950 . S
C529 C526 1.387 . S
C530 C531 1.387 . S
C530 H534 0.950 . S
C530 C539 1.390 . S
C531 C530 1.387 . S
C531 C533 1.387 1_455 S
H532 C539 0.950 . S
C533 C531 1.387 1_655 S
C533 C535 1.392 1_655 S
C533 H537 0.950 . S
H534 C530 0.950 . S
C535 C533 1.392 1_455 S
C535 C536 1.405 . S
C535 H538 0.931 1_455 S
C536 C535 1.405 . S
C536 C539 1.387 . S
H537 C533 0.950 . S
H538 C535 0.931 1_655 S
C539 C530 1.390 . S
C539 H532 0.950 . S
C539 C536 1.387 . S
C540 C541 1.387 . S
C540 H544 0.950 . S
C540 C549 1.390 . S
C541 C540 1.387 . S
C541 C543 1.387 . S
H542 C549 0.950 . S
C543 C541 1.387 . S
C543 C545 1.390 . S
C543 H547 0.950 . S
H544 C540 0.950 . S
C545 C543 1.390 . S
C545 C546 1.387 . S
C545 H548 0.950 . S
C546 C545 1.387 . S
C546 C549 1.387 . S
H547 C543 0.950 . S
H548 C545 0.950 . S
C549 C540 1.390 . S
C549 H542 0.950 . S
C549 C546 1.387 . S
C550 C551 1.387 . S
C550 H554 0.950 . S
C550 C559 1.390 . S
C551 C550 1.387 . S
C551 C553 1.387 . S
H552 C559 0.950 . S
C553 C551 1.387 . S
C553 C555 1.390 . S
C553 H557 0.950 . S
H554 C550 0.950 . S
C555 C553 1.390 . S
C555 C556 1.387 . S
C555 H558 0.950 . S
C556 C555 1.387 . S
C556 C559 1.387 . S
H557 C553 0.950 . S
H558 C555 0.950 . S
C559 C550 1.390 . S
C559 H552 0.950 . S
C559 C556 1.387 . S
C560 C561 1.387 . S
C560 H564 0.950 . S
C560 C569 1.390 . S
C561 C560 1.387 . S
C561 C563 1.387 . S
H562 C569 0.950 . S
C563 C561 1.387 . S
C563 C565 1.390 . S
C563 H567 0.950 . S
H564 C560 0.950 . S
C565 C563 1.390 . S
C565 C566 1.387 . S
C565 H568 0.950 . S
C566 C565 1.387 . S
C566 C569 1.387 . S
H567 C563 0.950 . S
H568 C565 0.950 . S
C569 C560 1.390 . S
C569 H562 0.950 . S
C569 C566 1.387 . S
C570 C571 1.387 . S
C570 H574 0.950 . S
C570 C579 1.390 . S
C571 C570 1.387 . S
C571 C573 1.387 . S
H572 C579 0.950 . S
C573 C571 1.387 . S
C573 C575 1.390 . S
C573 H577 0.950 . S
H574 C570 0.950 . S
C575 C573 1.390 . S
C575 C576 1.387 . S
C575 H578 0.950 . S
C576 C575 1.387 . S
C576 C579 1.387 . S
H577 C573 0.950 . S
H578 C575 0.950 . S
C579 C570 1.390 . S
C579 H572 0.950 . S
C579 C576 1.387 . S
C580 C581 1.387 . S
C580 H584 0.950 1_655 S
C580 C589 1.390 . S
C581 C580 1.387 . S
C581 C583 1.387 . S
H582 C589 0.950 1_455 S
C583 C581 1.387 . S
C583 C585 1.390 . S
C583 H587 0.950 . S
H584 C580 0.950 1_455 S
C585 C583 1.390 . S
C585 C586 1.387 . S
C585 H588 0.950 . S
C586 C585 1.387 . S
C586 C589 1.387 . S
H587 C583 0.950 . S
H588 C585 0.950 . S
C589 C580 1.390 . S
C589 H582 0.950 1_655 S
C589 C586 1.387 . S
C590 C591 1.387 . S
C590 H594 0.950 . S
C590 C599 1.390 . S
C591 C590 1.387 . S
C591 C593 1.387 . S
H592 C599 0.950 . S
C593 C591 1.387 . S
C593 C595 1.390 . S
C593 H597 0.950 . S
H594 C590 0.950 . S
C595 C593 1.390 . S
C595 C596 1.387 . S
C595 H598 0.950 . S
C596 C595 1.387 . S
C596 C599 1.387 . S
H597 C593 0.950 . S
H598 C595 0.950 . S
C599 C590 1.390 . S
C599 H592 0.950 . S
C599 C596 1.387 . S
C600 C601 1.387 . S
C600 H604 0.950 . S
C600 C609 1.390 . S
C601 C600 1.387 . S
C601 C603 1.387 . S
H602 C609 0.950 . S
C603 C601 1.387 . S
C603 C605 1.390 . S
C603 H607 0.950 . S
H604 C600 0.950 . S
C605 C603 1.390 . S
C605 C606 1.387 . S
C605 H608 0.950 . S
C606 C605 1.387 . S
C606 C609 1.387 . S
H607 C603 0.950 . S
H608 C605 0.950 . S
C609 C600 1.390 . S
C609 H602 0.950 . S
C609 C606 1.387 . S
C610 C611 1.387 . S
C610 H614 0.950 . S
C610 C619 1.390 . S
C611 C610 1.387 . S
C611 C613 1.387 . S
H612 C619 0.950 . S
C613 C611 1.387 . S
C613 C615 1.390 . S
C613 H617 0.950 . S
H614 C610 0.950 . S
C615 C613 1.390 . S
C615 C616 1.387 . S
C615 H618 0.950 . S
C616 C615 1.387 . S
C616 C619 1.387 . S
H617 C613 0.950 . S
H618 C615 0.950 . S
C619 C610 1.390 . S
C619 H612 0.950 . S
C619 C616 1.387 . S
C620 C621 1.387 . S
C620 H624 0.950 . S
C620 C629 1.390 . S
C621 C620 1.387 . S
C621 C623 1.387 . S
H622 C629 0.950 . S
C623 C621 1.387 . S
C623 C625 1.390 . S
C623 H627 0.950 . S
H624 C620 0.950 . S
C625 C623 1.390 . S
C625 C626 1.387 . S
C625 H628 0.950 . S
C626 C625 1.387 . S
C626 C629 1.387 . S
H627 C623 0.950 . S
H628 C625 0.950 . S
C629 C620 1.390 . S
C629 H622 0.950 . S
C629 C626 1.387 . S
C630 C631 1.387 . S
C630 H634 0.950 . S
C630 C639 1.390 . S
C631 C630 1.387 . S
C631 C633 1.387 . S
H632 C639 0.950 . S
C633 C631 1.387 . S
C633 C635 1.390 . S
C633 H637 0.950 . S
H634 C630 0.950 . S
C635 C633 1.390 . S
C635 C636 1.387 . S
C635 H638 0.950 . S
C636 C635 1.387 . S
C636 C639 1.387 . S
H637 C633 0.950 . S
H638 C635 0.950 . S
C639 C630 1.390 . S
C639 H632 0.950 . S
C639 C636 1.387 . S
C640 C641 1.387 . S
C640 H644 0.950 . S
C640 C649 1.390 . S
C641 C640 1.387 . S
C641 C643 1.387 . S
H642 C649 0.950 . S
C643 C641 1.387 . S
C643 C645 1.390 . S
C643 H647 0.950 . S
H644 C640 0.950 . S
C645 C643 1.390 . S
C645 C646 1.387 . S
C645 H648 0.950 . S
C646 C645 1.387 . S
C646 C649 1.387 . S
H647 C643 0.950 . S
H648 C645 0.950 . S
C649 C640 1.390 . S
C649 H642 0.950 . S
C649 C646 1.387 . S
C650 C651 1.387 1_455 S
C650 H654 0.950 . S
C650 C659 1.390 . S
C651 C650 1.387 1_655 S
C651 C653 1.387 . S
H652 C659 0.950 . S
C653 C651 1.387 . S
C653 C655 1.390 . S
C653 H657 0.950 . S
H654 C650 0.950 . S
C655 C653 1.390 . S
C655 C656 1.387 . S
C655 H658 0.950 . S
C656 C655 1.387 . S
C656 C659 1.387 1_655 S
H657 C653 0.950 . S
H658 C655 0.950 . S
C659 C650 1.390 . S
C659 H652 0.950 . S
C659 C656 1.387 1_455 S
C660 C661 1.387 . S
C660 H664 0.950 . S
C660 C669 1.390 . S
C661 C660 1.387 . S
C661 C663 1.387 . S
H662 C669 0.950 . S
C663 C661 1.387 . S
C663 C665 1.390 . S
C663 H667 0.950 . S
H664 C660 0.950 . S
C665 C663 1.390 . S
C665 C666 1.387 . S
C665 H668 0.950 . S
C666 C665 1.387 . S
C666 C669 1.387 . S
H667 C663 0.950 . S
H668 C665 0.950 . S
C669 C660 1.390 . S
C669 H662 0.950 . S
C669 C666 1.387 . S
C670 C671 1.387 . S
C670 H674 0.950 . S
C670 C679 1.390 . S
C671 C670 1.387 . S
C671 C673 1.387 . S
H672 C679 0.950 . S
C673 C671 1.387 . S
C673 C675 1.390 . S
C673 H677 0.950 . S
H674 C670 0.950 . S
C675 C673 1.390 . S
C675 C676 1.387 . S
C675 H678 0.950 . S
C676 C675 1.387 . S
C676 C679 1.387 . S
H677 C673 0.950 . S
H678 C675 0.950 . S
C679 C670 1.390 . S
C679 H672 0.950 . S
C679 C676 1.387 . S
C680 C681 1.387 . S
C680 H684 0.950 . S
C680 C689 1.390 . S
C681 C680 1.387 . S
C681 C683 1.387 . S
H682 C689 0.950 . S
C683 C681 1.387 . S
C683 C685 1.390 . S
C683 H687 0.950 . S
H684 C680 0.950 . S
C685 C683 1.390 . S
C685 C686 1.387 . S
C685 H688 0.950 . S
C686 C685 1.387 . S
C686 C689 1.387 . S
H687 C683 0.950 . S
H688 C685 0.950 . S
C689 C680 1.390 . S
C689 H682 0.950 . S
C689 C686 1.387 . S
C690 C691 1.387 . S
C690 H694 0.950 . S
C690 C699 1.390 . S
C691 C690 1.387 . S
C691 C693 1.387 . S
H692 C699 0.950 . S
C693 C691 1.387 . S
C693 C695 1.390 . S
C693 H697 0.950 . S
H694 C690 0.950 . S
C695 C693 1.390 . S
C695 C696 1.387 . S
C695 H698 0.950 . S
C696 C695 1.387 . S
C696 C699 1.387 . S
H697 C693 0.950 . S
H698 C695 0.950 . S
C699 C690 1.390 . S
C699 H692 0.950 . S
C699 C696 1.387 . S
C700 C701 1.387 . S
C700 H704 0.950 . S
C700 C709 1.390 . S
C701 C700 1.387 . S
C701 C703 1.387 . S
H702 C709 0.950 . S
C703 C701 1.387 . S
C703 C705 1.390 . S
C703 H707 0.950 . S
H704 C700 0.950 . S
C705 C703 1.390 . S
C705 C706 1.387 . S
C705 H708 0.950 . S
C706 C705 1.387 . S
C706 C709 1.387 . S
H707 C703 0.950 . S
H708 C705 0.950 . S
C709 C700 1.390 . S
C709 H702 0.950 . S
C709 C706 1.387 . S
C710 C711 1.387 . S
C710 H714 0.950 . S
C710 C719 1.390 . S
C711 C710 1.387 . S
C711 C713 1.387 . S
H712 C719 0.950 . S
C713 C711 1.387 . S
C713 C715 1.390 . S
C713 H717 0.950 . S
H714 C710 0.950 . S
C715 C713 1.390 . S
C715 C716 1.387 . S
C715 H718 0.950 . S
C716 C715 1.387 . S
C716 C719 1.387 . S
H717 C713 0.950 . S
H718 C715 0.950 . S
C719 C710 1.390 . S
C719 H712 0.950 . S
C719 C716 1.387 . S
C481 C21 1.330 . S
C486 C337 1.513 . S
C491 C61 1.510 . S
C496 C377 1.516 . S
C506 C402 2.358 . S
C501 C82 2.423 . S
C511 C135 2.497 . S
C516 C442 2.432 . S
C526 C373 2.136 . S
C521 C15 1.960 . S
C536 C333 2.121 . S
C531 C42 2.052 . S
C546 C464 1.780 . S
C541 C101 1.798 . S
C556 C424 1.728 . S
C551 C122 1.766 . S
C561 C2 1.608 . S
C566 C466 1.735 . S
C576 C383 2.124 . S
C571 C95 2.177 . S
C581 C141 2.273 . S
C586 C343 2.224 . S
C591 C55 1.702 . S
C596 C426 1.762 . S
C606 C346 1.519 . S
C601 C181 1.508 . S
C611 C202 1.468 . S
C616 C386 1.505 . S
C621 C255 2.438 . S
C626 C423 2.373 . S
C631 C295 2.466 . S
C636 C463 2.400 . S
C641 C175 1.952 . S
C646 C384 2.112 . S
C656 C344 2.112 . S
C651 C221 2.033 . S
C666 C453 1.704 . S
C661 C242 1.748 . S
C676 C413 1.784 . S
C671 C301 1.792 . S
C681 C162 1.775 . S
C686 C457 1.737 . S
C696 C362 2.172 . S
C691 C261 2.195 . S
C706 C322 2.191 . S
C701 C282 2.255 . S
C711 C215 1.687 . S
C716 C417 1.757 . S
