# Generated by pormake.
# Topology pyr, (3,6)-cn, num edge types: 1
# Building blocks:
#     Node 0, Type 0, BuildingBlock: OLANEW_clean_sbu_2, # of connection points: 3
#     Node 1, Type 0, BuildingBlock: OLANEW_clean_sbu_2, # of connection points: 3
#     Node 2, Type 0, BuildingBlock: OLANEW_clean_sbu_2, # of connection points: 3
#     Node 3, Type 0, BuildingBlock: OLANEW_clean_sbu_2, # of connection points: 3
#     Node 4, Type 0, BuildingBlock: OLANEW_clean_sbu_2, # of connection points: 3
#     Node 5, Type 0, BuildingBlock: OLANEW_clean_sbu_2, # of connection points: 3
#     Node 6, Type 0, BuildingBlock: OLANEW_clean_sbu_2, # of connection points: 3
#     Node 7, Type 0, BuildingBlock: OLANEW_clean_sbu_2, # of connection points: 3
#     Node 8, Type 1, BuildingBlock: BETDAH_clean_sbu_0, # of connection points: 6
#     Node 9, Type 1, BuildingBlock: BETDAH_clean_sbu_0, # of connection points: 6
#     Node 10, Type 1, BuildingBlock: BETDAH_clean_sbu_0, # of connection points: 6
#     Node 11, Type 1, BuildingBlock: BETDAH_clean_sbu_0, # of connection points: 6
#     Edge 12, Type (0, 1), BuildingBlock: ZUJKAS_clean_linker_0, # of connection points: 2
#     Edge 13, Type (0, 1), BuildingBlock: ZUJKAS_clean_linker_0, # of connection points: 2
#     Edge 14, Type (0, 1), BuildingBlock: ZUJKAS_clean_linker_0, # of connection points: 2
#     Edge 15, Type (0, 1), BuildingBlock: ZUJKAS_clean_linker_0, # of connection points: 2
#     Edge 16, Type (0, 1), BuildingBlock: ZUJKAS_clean_linker_0, # of connection points: 2
#     Edge 17, Type (0, 1), BuildingBlock: ZUJKAS_clean_linker_0, # of connection points: 2
#     Edge 18, Type (0, 1), BuildingBlock: ZUJKAS_clean_linker_0, # of connection points: 2
#     Edge 19, Type (0, 1), BuildingBlock: ZUJKAS_clean_linker_0, # of connection points: 2
#     Edge 20, Type (0, 1), BuildingBlock: ZUJKAS_clean_linker_0, # of connection points: 2
#     Edge 21, Type (0, 1), BuildingBlock: ZUJKAS_clean_linker_0, # of connection points: 2
#     Edge 22, Type (0, 1), BuildingBlock: ZUJKAS_clean_linker_0, # of connection points: 2
#     Edge 23, Type (0, 1), BuildingBlock: ZUJKAS_clean_linker_0, # of connection points: 2
#     Edge 24, Type (0, 1), BuildingBlock: ZUJKAS_clean_linker_0, # of connection points: 2
#     Edge 25, Type (0, 1), BuildingBlock: ZUJKAS_clean_linker_0, # of connection points: 2
#     Edge 26, Type (0, 1), BuildingBlock: ZUJKAS_clean_linker_0, # of connection points: 2
#     Edge 27, Type (0, 1), BuildingBlock: ZUJKAS_clean_linker_0, # of connection points: 2
#     Edge 28, Type (0, 1), BuildingBlock: ZUJKAS_clean_linker_0, # of connection points: 2
#     Edge 29, Type (0, 1), BuildingBlock: ZUJKAS_clean_linker_0, # of connection points: 2
#     Edge 30, Type (0, 1), BuildingBlock: ZUJKAS_clean_linker_0, # of connection points: 2
#     Edge 31, Type (0, 1), BuildingBlock: ZUJKAS_clean_linker_0, # of connection points: 2
#     Edge 32, Type (0, 1), BuildingBlock: ZUJKAS_clean_linker_0, # of connection points: 2
#     Edge 33, Type (0, 1), BuildingBlock: ZUJKAS_clean_linker_0, # of connection points: 2
#     Edge 34, Type (0, 1), BuildingBlock: ZUJKAS_clean_linker_0, # of connection points: 2
#     Edge 35, Type (0, 1), BuildingBlock: ZUJKAS_clean_linker_0, # of connection points: 2
# Relax obj value: 0.095
# Max RMSD: 0.161
# Mean RMSD: 0.120
data_MOF--net-pyr--node1-OLANEW_clean_sbu_2--node2-BETDAH_clean_sbu_0--edge1-ZUJKAS_clean_linker_0
_symmetry_space_group_name_H-M    P1
_symmetry_Int_Tables_number       1
_symmetry_cell_setting            triclinic
loop_
_symmetry_equiv_pos_as_xyz
'x, y, z'
_cell_length_a     52.217707
_cell_length_b     55.35918
_cell_length_c     48.560987
_cell_angle_alpha  95.332234
_cell_angle_beta   87.948465
_cell_angle_gamma 102.18698
loop_
_atom_site_label
_atom_site_type_symbol
_atom_site_fract_x
_atom_site_fract_y
_atom_site_fract_z
_atom_type_partial_charge
O0 O 0.35832 0.29312 0.18885 0.0
Cd1 Cd 0.3452 0.33237 0.2042 0.0
O2 O 0.33681 0.27703 0.22442 0.0
Cd3 Cd 0.32096 0.25161 0.25578 0.0
O4 O 0.29431 0.23257 0.28637 0.0
C5 C 0.27561 0.24277 0.29526 0.0
O6 O 0.27377 0.2639 0.28601 0.0
C7 C 0.35156 0.27472 0.2033 0.0
C8 C 0.3026 0.34362 0.17844 0.0
O9 O 0.32591 0.34949 0.16841 0.0
O10 O 0.29931 0.33166 0.20012 0.0
O11 O 0.32289 0.8949 0.68125 0.0
Cd12 Cd 0.30298 0.89055 0.63574 0.0
O13 O 0.29499 0.86327 0.69681 0.0
Cd14 Cd 0.26854 0.8612 0.66271 0.0
O15 O 0.23894 0.87224 0.63907 0.0
C16 C 0.24183 0.89528 0.63644 0.0
O17 O 0.26215 0.91075 0.64763 0.0
C18 C 0.31555 0.88022 0.70004 0.0
C19 C 0.32199 0.85449 0.60248 0.0
O20 O 0.33322 0.87744 0.60252 0.0
O21 O 0.30131 0.84878 0.61751 0.0
O22 O 0.69963 0.40172 0.87734 0.0
Cd23 Cd 0.65792 0.38547 0.85221 0.0
O24 O 0.69833 0.37451 0.90868 0.0
Cd25 Cd 0.6623 0.34495 0.90452 0.0
O26 O 0.63647 0.30999 0.9168 0.0
C27 C 0.6409 0.30226 0.93975 0.0
O28 O 0.66013 0.31543 0.95492 0.0
C29 C 0.70981 0.39409 0.89759 0.0
C30 C 0.64444 0.41327 0.81056 0.0
O31 O 0.63767 0.41722 0.83595 0.0
O32 O 0.65826 0.39681 0.80484 0.0
O33 O 0.88159 0.73403 0.37089 0.0
Cd34 Cd 0.85618 0.69359 0.3525 0.0
O35 O 0.88685 0.72072 0.41119 0.0
Cd36 Cd 0.86075 0.68463 0.40255 0.0
O37 O 0.82323 0.66174 0.41418 0.0
C38 C 0.81057 0.67287 0.43223 0.0
O39 O 0.82095 0.69584 0.44133 0.0
C40 C 0.89099 0.73806 0.39511 0.0
C41 C 0.88039 0.66907 0.3094 0.0
O42 O 0.86656 0.68473 0.30455 0.0
O43 O 0.88322 0.66537 0.33469 0.0
O44 O 0.71723 0.75808 0.79793 0.0
Cd45 Cd 0.69006 0.7246 0.82181 0.0
O46 O 0.6985 0.78545 0.82153 0.0
Cd47 Cd 0.689 0.82149 0.83493 0.0
O48 O 0.67158 0.85118 0.85554 0.0
C49 C 0.65466 0.8452 0.87454 0.0
O50 O 0.6488 0.82199 0.88054 0.0
C51 C 0.71553 0.78056 0.80366 0.0
C52 C 0.72198 0.70341 0.85297 0.0
O53 O 0.71657 0.69511 0.82787 0.0
O54 O 0.7119 0.72146 0.86348 0.0
O55 O 0.72397 0.19289 0.46772 0.0
Cd56 Cd 0.74143 0.21225 0.51233 0.0
O57 O 0.76072 0.205 0.44451 0.0
Cd58 Cd 0.77444 0.23321 0.47796 0.0
O59 O 0.75915 0.26435 0.49748 0.0
C60 C 0.73928 0.26701 0.48465 0.0
O61 O 0.73162 0.25177 0.46271 0.0
C62 C 0.73741 0.19228 0.44538 0.0
C63 C 0.77726 0.18582 0.52877 0.0
O64 O 0.75298 0.17983 0.53568 0.0
O65 O 0.78463 0.20468 0.51485 0.0
O66 O 0.40019 0.76806 0.24412 0.0
Cd67 Cd 0.38589 0.72511 0.25882 0.0
O68 O 0.37576 0.76113 0.20658 0.0
Cd69 Cd 0.34964 0.72444 0.20962 0.0
O70 O 0.31429 0.69641 0.19634 0.0
C71 C 0.30496 0.69823 0.1729 0.0
O72 O 0.31705 0.71607 0.15809 0.0
C73 C 0.39314 0.77531 0.22186 0.0
C74 C 0.4067 0.70932 0.30575 0.0
O75 O 0.41987 0.71164 0.283 0.0
O76 O 0.38435 0.71552 0.30691 0.0
O77 O 0.16841 0.41683 0.75654 0.0
Cd78 Cd 0.18604 0.39265 0.71847 0.0
O79 O 0.15373 0.38411 0.77958 0.0
Cd80 Cd 0.16168 0.3564 0.7471 0.0
O81 O 0.15356 0.32101 0.72155 0.0
C82 C 0.15245 0.30117 0.73322 0.0
O83 O 0.15756 0.30283 0.75971 0.0
C84 C 0.15736 0.4074 0.77797 0.0
C85 C 0.23217 0.41903 0.69528 0.0
O86 O 0.20975 0.41895 0.68529 0.0
O87 O 0.23275 0.40678 0.7163 0.0
Ho88 Ho 0.00384 0.03498 0.53889 0.0
Ho89 Ho 0.99756 1.01182 0.59405 0.0
C90 C 0.02982 0.06696 0.59428 0.0
C91 C 0.0056 0.06314 0.499 0.0
C92 C 0.02673 0.08177 0.48791 0.0
C93 C 0.02263 0.09321 0.4644 0.0
C94 C 0.04345 0.10919 0.45226 0.0
C95 C 0.06872 0.11381 0.46341 0.0
C96 C 0.0725 0.10278 0.48748 0.0
C97 C 0.05167 0.08691 0.49964 0.0
C98 C 0.04182 1.01094 0.54958 0.0
C99 C 0.97522 0.97908 0.53764 0.0
C100 C 0.99425 0.98422 0.63474 0.0
C101 C 0.9719 0.96812 0.64751 0.0
C102 C 0.97541 0.95624 0.67089 0.0
C103 C 0.95381 0.94211 0.684 0.0
C104 C 0.92836 0.93977 0.67396 0.0
C105 C 0.92507 0.95148 0.65022 0.0
C106 C 0.94666 0.96552 0.63711 0.0
C107 C 0.95956 0.03584 0.58323 0.0
O108 O 0.01909 0.06738 0.57009 0.0
O109 O 0.02828 0.04586 0.60564 0.0
O110 O 0.00926 0.04043 0.49549 0.0
O111 O 0.99708 0.06874 0.52396 0.0
O112 O 0.03452 1.01297 0.52488 0.0
O113 O 0.03097 0.02401 0.56678 0.0
O114 O 0.9855 0.97925 0.5622 0.0
O115 O 0.97513 0.99994 0.52649 0.0
O116 O 0.99398 1.00785 0.63792 0.0
O117 O 0.0004 0.97699 0.60943 0.0
O118 O 0.96747 0.03435 0.60777 0.0
O119 O 0.97019 0.02253 0.56603 0.0
H120 H 0.00351 0.08929 0.45502 0.0
H121 H 0.03997 0.1172 0.43359 0.0
H122 H 0.09165 0.10622 0.49674 0.0
H123 H 0.05513 0.07817 0.51783 0.0
H124 H 0.99477 0.95821 0.67925 0.0
H125 H 0.95696 0.93351 0.70239 0.0
H126 H 0.9058 0.94975 0.64174 0.0
H127 H 0.94364 0.97463 0.61904 0.0
Ho128 Ho 0.5275 0.05409 0.09198 0.0
Ho129 Ho 0.47578 0.03189 0.06741 0.0
C130 C 0.47522 0.0723 0.11662 0.0
C131 C 0.56998 0.08228 0.1119 0.0
C132 C 0.58105 0.09099 0.13922 0.0
C133 C 0.60272 0.11078 0.14155 0.0
C134 C 0.61482 0.11818 0.16701 0.0
C135 C 0.60546 0.10579 0.19055 0.0
C136 C 0.58321 0.08634 0.18823 0.0
C137 C 0.57107 0.07901 0.16273 0.0
C138 C 0.50315 1.01121 0.11311 0.0
C139 C 0.52772 1.01583 0.04007 0.0
C140 C 0.43447 1.00245 0.04667 0.0
C141 C 0.42883 0.98771 0.02011 0.0
C142 C 0.40398 0.97266 1.01551 0.0
C143 C 0.3981 0.95945 0.98979 0.0
C144 C 0.41703 0.96115 0.96829 0.0
C145 C 0.44214 0.97591 0.97327 0.0
C146 C 0.44798 0.98911 0.99899 0.0
C147 C 0.50051 0.07499 0.04679 0.0
O148 O 0.50091 0.07827 0.11255 0.0
O149 O 0.46124 0.05153 0.10486 0.0
O150 O 0.56739 0.05856 0.10492 0.0
O151 O 0.54967 0.09075 0.10541 0.0
O152 O 0.52814 1.01782 0.10919 0.0
O153 O 0.49229 0.02843 0.10757 0.0
O154 O 0.50239 1.00873 0.04528 0.0
O155 O 0.54122 0.03666 0.0523 0.0
O156 O 0.43945 0.02646 0.04552 0.0
O157 O 0.45074 0.99532 0.06242 0.0
O158 O 0.47542 0.06868 0.05074 0.0
O159 O 0.51097 0.05752 0.05217 0.0
H160 H 0.61057 0.12026 0.12357 0.0
H161 H 0.63159 0.13353 0.16822 0.0
H162 H 0.57564 0.07631 0.2059 0.0
H163 H 0.55429 0.06366 0.16121 0.0
H164 H 0.389 0.97145 0.03164 0.0
H165 H 0.37849 0.9485 0.98649 0.0
H166 H 0.45722 0.97737 0.95725 0.0
H167 H 0.4673 1.00068 1.00226 0.0
Ho168 Ho 0.51997 0.53452 0.53614 0.0
Ho169 Ho 0.51307 0.57462 0.58109 0.0
C170 C 0.53854 0.53206 0.59987 0.0
C171 C 0.53814 0.50261 0.50302 0.0
C172 C 0.55357 0.4839 0.5066 0.0
C173 C 0.56814 0.47572 0.48424 0.0
C174 C 0.58347 0.45838 0.48757 0.0
C175 C 0.58458 0.44912 0.51342 0.0
C176 C 0.57 0.45747 0.53584 0.0
C177 C 0.5545 0.47463 0.53241 0.0
C178 C 0.47229 0.52812 0.56075 0.0
C179 C 0.49605 0.57837 0.51709 0.0
C180 C 0.49342 0.6063 0.61267 0.0
C181 C 0.48025 0.62606 0.60626 0.0
C182 C 0.46263 0.62228 0.58428 0.0
C183 C 0.45151 0.64161 0.5772 0.0
C184 C 0.45776 0.66508 0.59195 0.0
C185 C 0.47535 0.66877 0.614 0.0
C186 C 0.4865 0.64941 0.62106 0.0
C187 C 0.56072 0.58088 0.55666 0.0
O188 O 0.54131 0.52567 0.57303 0.0
O189 O 0.52509 0.54906 0.60873 0.0
O190 O 0.51438 0.49837 0.51353 0.0
O191 O 0.55047 0.52565 0.50814 0.0
O192 O 0.47608 0.52256 0.53459 0.0
O193 O 0.49393 0.53562 0.57262 0.0
O194 O 0.49465 0.58581 0.54376 0.0
O195 O 0.50718 0.55967 0.50826 0.0
O196 O 0.51833 0.60978 0.60598 0.0
O197 O 0.48079 0.58353 0.60613 0.0
O198 O 0.55698 0.58685 0.58279 0.0
O199 O 0.53909 0.5734 0.54478 0.0
H200 H 0.56775 0.48282 0.46424 0.0
H201 H 0.59473 0.45245 0.47002 0.0
H202 H 0.57028 0.45045 0.5559 0.0
H203 H 0.5432 0.48061 0.54986 0.0
H204 H 0.45751 0.60443 0.57244 0.0
H205 H 0.43779 0.63807 0.56035 0.0
H206 H 0.48082 0.68674 0.62553 0.0
H207 H 0.50027 0.65276 0.63786 0.0
Ho208 Ho 0.0147 0.51178 0.04195 0.0
Ho209 Ho 0.00656 0.56347 0.03126 0.0
C210 C 0.05978 0.56139 0.06003 0.0
C211 C 0.0331 0.47195 0.0426 0.0
C212 C 0.05527 0.46378 0.05427 0.0
C213 C 0.07015 0.45021 0.03683 0.0
C214 C 0.09072 0.44145 0.04731 0.0
C215 C 0.09674 0.44596 0.07556 0.0
C216 C 0.08197 0.45979 0.09299 0.0
C217 C 0.06148 0.46872 0.08244 0.0
C218 C 0.98924 0.53446 0.0825 0.0
C219 C 0.96122 0.51407 1.01359 0.0
C220 C 0.98876 0.60339 0.02895 0.0
C221 C 0.96627 0.61012 1.01638 0.0
C222 C 0.94118 0.59474 0.01688 0.0
C223 C 0.92023 0.60128 1.00434 0.0
C224 C 0.92399 0.62333 0.99107 0.0
C225 C 0.94914 0.63872 0.99077 0.0
C226 C 0.97006 0.63215 1.0033 0.0
C227 C 0.03303 0.54119 0.99152 0.0
O228 O 0.05394 0.53699 0.05372 0.0
O229 O 0.04284 0.57551 0.05644 0.0
O230 O 0.01493 0.4775 0.05983 0.0
O231 O 0.039 0.48729 0.0233 0.0
O232 O 0.98417 0.51063 0.0763 0.0
O233 O 0.00849 0.54452 0.06834 0.0
O234 O 0.96721 0.53842 0.02006 0.0
O235 O 0.97806 0.49982 0.01709 0.0
O236 O 0.00645 0.59701 1.01166 0.0
O237 O 0.98354 0.58919 0.0494 0.0
O238 O 0.03826 0.56492 0.99834 0.0
O239 O 0.01322 0.53092 1.00484 0.0
H240 H 0.06567 0.44615 1.01505 0.0
H241 H 0.10152 0.43064 0.03339 0.0
H242 H 0.08634 0.46381 0.11478 0.0
H243 H 0.05044 0.47931 0.09633 0.0
H244 H 0.93777 0.57765 0.0269 0.0
H245 H 0.90118 0.58889 1.00469 0.0
H246 H 0.95262 0.656 0.98109 0.0
H247 H 0.98926 0.64429 1.00276 0.0
H248 H 0.27354 0.19932 0.31902 0.0
H249 H 0.23917 0.17884 0.34984 0.0
H250 H 0.19827 0.23849 0.34673 0.0
H251 H 0.23234 0.25905 0.31593 0.0
H252 H 0.21974 0.1983 0.40298 0.0
H253 H 0.14391 0.1742 0.32177 0.0
H254 H 0.17849 0.18273 0.31368 0.0
H255 H 0.16064 0.20618 0.32565 0.0
C256 C 0.25727 0.20811 0.32494 0.0
C257 C 0.25558 0.23073 0.31484 0.0
C258 C 0.2377 0.19641 0.34258 0.0
C259 C 0.21607 0.20702 0.35022 0.0
C260 C 0.21464 0.22984 0.34072 0.0
H261 H 0.07079 0.15778 0.44089 0.0
H262 H 0.10735 0.1815 0.4152 0.0
C263 C 0.23419 0.24158 0.32318 0.0
C264 C 0.19475 0.19409 0.36781 0.0
H265 H 0.13002 0.16582 0.36736 0.0
C266 C 0.20012 0.19113 0.39524 0.0
C267 C 0.16921 0.18488 0.3576 0.0
C268 C 0.16263 0.18692 0.32801 0.0
C269 C 0.18042 0.17946 0.41295 0.0
C270 C 0.15488 0.17007 0.40268 0.0
C271 C 0.14957 0.17311 0.37522 0.0
C272 C 0.13342 0.15653 0.41977 0.0
C273 C 0.18702 0.17778 0.44262 0.0
C274 C 0.13591 0.13461 0.43079 0.0
C275 C 0.11511 0.12108 0.44549 0.0
C276 C 0.09126 0.12905 0.44919 0.0
C277 C 0.08885 0.15108 0.43823 0.0
C278 C 0.10973 0.16468 0.42364 0.0
H279 H 0.20461 0.19198 0.44924 0.0
H280 H 0.1704 0.18014 0.4568 0.0
H281 H 0.19132 0.15925 0.44471 0.0
H282 H 0.15373 0.12759 0.42741 0.0
H283 H 0.11741 0.10394 0.45322 0.0
H284 H 0.35736 0.91712 0.71599 0.0
H285 H 0.37799 0.92533 0.76117 0.0
H286 H 0.32719 0.85971 0.78871 0.0
H287 H 0.30609 0.85153 0.74371 0.0
H288 H 0.32655 0.90119 0.8236 0.0
H289 H 0.42913 0.89364 0.79903 0.0
H290 H 0.41762 0.91401 0.778 0.0
H291 H 0.4027 0.88149 0.77531 0.0
C292 C 0.35084 0.90419 0.73148 0.0
C293 C 0.32998 0.88373 0.72627 0.0
C294 C 0.3628 0.90882 0.75725 0.0
C295 C 0.35435 0.89294 0.77816 0.0
C296 C 0.33409 0.8721 0.77277 0.0
H297 H 0.38848 0.9142 0.95518 0.0
H298 H 0.37417 0.89506 0.90924 0.0
C299 C 0.32205 0.86749 0.74704 0.0
C300 C 0.3648 0.8995 0.80643 0.0
H301 H 0.42135 0.91448 0.84313 0.0
C302 C 0.34722 0.90372 0.82799 0.0
C303 C 0.39178 0.90289 0.81199 0.0
C304 C 0.41137 0.89754 0.78991 0.0
C305 C 0.35602 0.91219 0.85479 0.0
C306 C 0.38308 0.91614 0.86022 0.0
C307 C 0.40062 0.9114 0.83883 0.0
C308 C 0.39359 0.92655 0.88766 0.0
C309 C 0.33644 0.91783 0.8768 0.0
C310 C 0.40992 0.9502 0.89052 0.0
C311 C 0.4181 0.96117 0.91666 0.0
C312 C 0.41013 0.9486 0.9404 0.0
C313 C 0.39455 0.9245 0.93732 0.0
C314 C 0.38642 0.91353 0.91114 0.0
H315 H 0.31737 0.91864 0.86787 0.0
H316 H 0.33282 0.90305 0.89126 0.0
H317 H 0.34412 0.93577 0.88891 0.0
H318 H 0.41563 0.96053 0.87261 0.0
H319 H 0.42986 0.97984 0.91835 0.0
H320 H 0.65446 0.40804 0.75461 0.0
H321 H 0.63858 0.42874 0.71822 0.0
H322 H 0.5981 0.46877 0.77967 0.0
H323 H 0.61415 0.44844 0.81615 0.0
H324 H 0.58792 0.42764 0.70346 0.0
H325 H 0.63725 0.52438 0.73576 0.0
H326 H 0.64609 0.498 0.74923 0.0
H327 H 0.61783 0.50918 0.76287 0.0
C328 C 0.64239 0.42143 0.76045 0.0
C329 C 0.63576 0.42664 0.78843 0.0
C330 C 0.63325 0.43323 0.73956 0.0
C331 C 0.61741 0.45065 0.74611 0.0
C332 C 0.61075 0.45586 0.77402 0.0
H333 H 0.5332 0.53707 0.65639 0.0
H334 H 0.55266 0.51685 0.69047 0.0
C335 C 0.61987 0.44408 0.79491 0.0
C336 C 0.60709 0.46269 0.72374 0.0
H337 H 0.60424 0.51906 0.70183 0.0
C338 C 0.59168 0.44763 0.70298 0.0
C339 C 0.61193 0.48879 0.723 0.0
C340 C 0.62938 0.50605 0.74374 0.0
C341 C 0.58038 0.4579 0.68213 0.0
C342 C 0.58494 0.48402 0.68162 0.0
C343 C 0.60061 0.49906 0.70218 0.0
C344 C 0.57314 0.49617 0.66041 0.0
C345 C 0.56294 0.44066 0.66136 0.0
C346 C 0.57832 0.49161 0.63199 0.0
C347 C 0.56713 0.50318 0.61232 0.0
C348 C 0.5506 0.51971 0.62061 0.0
C349 C 0.54575 0.52445 0.64912 0.0
C350 C 0.55691 0.51288 0.66872 0.0
H351 H 0.55601 0.42193 0.66872 0.0
H352 H 0.54561 0.44823 0.65688 0.0
H353 H 0.57413 0.43853 0.64175 0.0
H354 H 0.59125 0.47929 0.62497 0.0
H355 H 0.57166 0.4993 0.59065 0.0
H356 H 0.88041 0.67489 0.25406 0.0
H357 H 0.89852 0.65103 0.21615 0.0
H358 H 0.92444 0.60762 0.27466 0.0
H359 H 0.90687 0.63175 0.31277 0.0
H360 H 0.96189 0.62183 0.23578 0.0
H361 H 0.86733 0.5809 0.18499 0.0
H362 H 0.8738 0.61416 0.18944 0.0
H363 H 0.86923 0.59668 0.21932 0.0
C364 C 0.88997 0.66027 0.25889 0.0
C365 C 0.89208 0.65515 0.28645 0.0
C366 C 0.90014 0.64652 0.23716 0.0
C367 C 0.91235 0.62718 0.24251 0.0
C368 C 0.91493 0.62234 0.27003 0.0
H369 H 0.94929 0.51507 0.11714 0.0
H370 H 0.93077 0.53691 0.15677 0.0
C371 C 0.90488 0.63616 0.29179 0.0
C372 C 0.9229 0.61234 0.21946 0.0
H373 H 0.906 0.57602 0.15938 0.0
C374 C 0.94964 0.61171 0.21915 0.0
C375 C 0.90683 0.59878 0.19799 0.0
C376 C 0.87766 0.59741 0.19802 0.0
C377 C 0.96088 0.5984 0.19765 0.0
C378 C 0.94505 0.58581 0.17553 0.0
C379 C 0.91818 0.58591 0.17618 0.0
C380 C 0.95607 0.57261 0.15141 0.0
C381 C 0.98954 0.59771 0.19907 0.0
C382 C 0.97609 0.58549 0.13498 0.0
C383 C 0.98675 0.57305 0.11253 0.0
C384 C 0.97735 0.54754 0.10583 0.0
C385 C 0.95693 0.53473 0.1219 0.0
C386 C 0.94634 0.54718 0.14449 0.0
H387 H 0.99673 0.60177 0.22061 0.0
H388 H 0.99324 0.57935 0.19082 0.0
H389 H 0.00115 0.61203 0.18646 0.0
H390 H 0.98348 0.60522 0.1395 0.0
H391 H 0.00248 0.58342 0.10052 0.0
H392 H 0.39438 0.27056 0.17113 0.0
H393 H 0.41304 0.23387 0.15972 0.0
H394 H 0.35188 0.1907 0.20745 0.0
H395 H 0.33244 0.22708 0.21816 0.0
H396 H 0.40963 0.18826 0.21704 0.0
H397 H 0.3763 0.16987 0.10811 0.0
H398 H 0.39102 0.20149 0.11942 0.0
H399 H 0.36027 0.18712 0.1343 0.0
C400 C 0.38474 0.25326 0.17914 0.0
C401 C 0.36213 0.25199 0.1961 0.0
C402 C 0.39551 0.23234 0.17264 0.0
C403 C 0.3839 0.20967 0.18287 0.0
C404 C 0.36126 0.20815 0.19962 0.0
H405 H 0.42242 0.06798 0.12497 0.0
H406 H 0.39953 0.10006 0.14417 0.0
C407 C 0.35033 0.22908 0.20598 0.0
C408 C 0.39547 0.1876 0.17584 0.0
H409 H 0.40633 0.14683 0.12175 0.0
C410 C 0.40879 0.17904 0.19629 0.0
C411 C 0.39417 0.17561 0.14879 0.0
C412 C 0.37954 0.18378 0.12633 0.0
C413 C 0.42147 0.1591 0.19013 0.0
C414 C 0.42082 0.14758 0.16285 0.0
C415 C 0.40689 0.15576 0.14263 0.0
C416 C 0.43482 0.12729 0.15451 0.0
C417 C 0.43541 0.15046 0.21281 0.0
C418 C 0.46231 0.13183 0.15436 0.0
C419 C 0.47554 0.11352 0.1433 0.0
C420 C 0.46149 0.09034 0.13213 0.0
C421 C 0.43392 0.08556 0.1334 0.0
C422 C 0.42075 0.10391 0.14433 0.0
H423 H 0.42906 0.15725 0.23366 0.0
H424 H 0.43189 0.12989 0.21136 0.0
H425 H 0.45682 0.15768 0.21056 0.0
H426 H 0.47356 0.14988 0.16175 0.0
H427 H 0.49676 0.11788 0.14256 0.0
H428 H 0.19013 0.87382 0.62938 0.0
H429 H 0.15647 0.89221 0.6108 0.0
H430 H 0.21531 0.95653 0.5929 0.0
H431 H 0.24874 0.93876 0.61273 0.0
H432 H 0.17622 0.97042 0.61877 0.0
H433 H 0.13618 0.89987 0.53445 0.0
H434 H 0.13456 0.88667 0.56696 0.0
H435 H 0.16599 0.89935 0.55183 0.0
C436 C 0.19589 0.89172 0.6211 0.0
C437 C 0.22198 0.90494 0.62254 0.0
C438 C 0.17668 0.90214 0.61029 0.0
C439 C 0.1834 0.92561 0.60004 0.0
C440 C 0.20966 0.9384 0.60066 0.0
H441 H 0.07516 0.99153 0.51394 0.0
H442 H 0.1101 0.97106 0.52571 0.0
C443 C 0.22873 0.92824 0.61198 0.0
C444 C 0.16289 0.93784 0.59093 0.0
H445 H 0.11006 0.92972 0.54911 0.0
C446 C 0.16193 0.96159 0.60331 0.0
C447 C 0.14443 0.92648 0.57054 0.0
C448 C 0.1455 0.90181 0.55498 0.0
C449 C 0.14285 0.97417 0.59618 0.0
C450 C 0.12348 0.96223 0.57696 0.0
C451 C 0.12469 0.93868 0.56416 0.0
C452 C 0.10192 0.97398 0.5698 0.0
C453 C 0.14403 1.00029 0.609 0.0
C454 C 0.08544 0.98196 0.5906 0.0
C455 C 0.06592 0.99408 0.58398 0.0
C456 C 0.0621 0.99779 0.55636 0.0
C457 C 0.07787 0.98897 0.53541 0.0
C458 C 0.09773 0.97724 0.5421 0.0
H459 H 0.16417 1.0093 0.61576 0.0
H460 H 0.1376 1.01195 0.59431 0.0
H461 H 0.13097 0.99976 0.62756 0.0
H462 H 0.08776 0.97894 0.612 0.0
H463 H 0.05378 1.00048 0.60045 0.0
H464 H 0.7349 0.38532 0.94307 0.0
H465 H 0.77707 0.40752 0.96144 0.0
H466 H 0.78585 0.45656 0.89626 0.0
H467 H 0.74347 0.43431 0.87749 0.0
H468 H 0.83154 0.43772 0.90522 0.0
H469 H 0.79299 0.47714 1.00334 0.0
H470 H 0.78179 0.4442 0.99664 0.0
H471 H 0.77241 0.4647 0.97409 0.0
C472 C 0.74565 0.40087 0.93257 0.0
C473 C 0.73557 0.40802 0.90876 0.0
C474 C 0.76979 0.41365 0.94326 0.0
C475 C 0.78453 0.43395 0.93051 0.0
C476 C 0.77476 0.44104 0.90657 0.0
H477 H 0.92083 0.53682 1.00385 0.0
H478 H 0.87861 0.51817 0.98279 0.0
C479 C 0.75048 0.42831 0.89589 0.0
C480 C 0.81031 0.44734 0.94199 0.0
H481 H 0.83909 0.47985 1.00021 0.0
C482 C 0.83318 0.44707 0.92592 0.0
C483 C 0.8125 0.45978 0.9689 0.0
C484 C 0.78862 0.46174 0.98671 0.0
C485 C 0.85815 0.45825 0.93632 0.0
C486 C 0.86039 0.46985 0.96364 0.0
C487 C 0.83746 0.47075 0.97939 0.0
C488 C 0.88631 0.48116 0.97628 0.0
C489 C 0.88191 0.45774 0.91786 0.0
C490 C 0.9047 0.46657 0.98003 0.0
C491 C 0.92891 0.47719 0.9922 0.0
C492 C 0.93531 0.50268 1.00099 0.0
C493 C 0.91672 0.51718 0.99738 0.0
C494 C 0.89249 0.50653 0.9853 0.0
H495 H 0.87661 0.45406 0.89568 0.0
H496 H 0.89642 0.47557 0.92067 0.0
H497 H 0.89141 0.44272 0.92331 0.0
H498 H 0.90024 0.44687 0.97376 0.0
H499 H 0.9426 0.46536 0.99468 0.0
H500 H 0.77943 0.69261 0.47025 0.0
H501 H 0.73686 0.67276 0.48848 0.0
H502 H 0.74014 0.60562 0.43705 0.0
H503 H 0.78313 0.62534 0.41874 0.0
H504 H 0.69101 0.65266 0.45848 0.0
H505 H 0.7236 0.58211 0.5155 0.0
H506 H 0.74617 0.60871 0.50372 0.0
H507 H 0.73317 0.58282 0.47959 0.0
C508 C 0.77122 0.67359 0.46281 0.0
C509 C 0.78473 0.66053 0.44307 0.0
C510 C 0.74685 0.66229 0.47326 0.0
C511 C 0.73549 0.63767 0.46432 0.0
C512 C 0.74879 0.62453 0.44452 0.0
H513 H 0.5703 0.57595 0.50107 0.0
H514 H 0.61254 0.58716 0.47688 0.0
C515 C 0.77326 0.63586 0.43399 0.0
C516 C 0.70946 0.62623 0.47553 0.0
H517 H 0.67835 0.58197 0.51683 0.0
C518 C 0.68815 0.63707 0.47106 0.0
C519 C 0.70595 0.60606 0.49212 0.0
C520 C 0.72841 0.59428 0.49828 0.0
C521 C 0.66347 0.62855 0.48311 0.0
C522 C 0.65993 0.60839 0.49972 0.0
C523 C 0.68114 0.59731 0.50391 0.0
C524 C 0.63471 0.59957 0.51422 0.0
C525 C 0.64164 0.6418 0.47878 0.0
C526 C 0.63337 0.60206 0.54323 0.0
C527 C 0.60932 0.59552 0.55708 0.0
C528 C 0.58628 0.58629 0.54212 0.0
C529 C 0.58777 0.58306 0.5131 0.0
C530 C 0.61184 0.58957 0.49926 0.0
H531 H 0.64907 0.66007 0.47049 0.0
H532 H 0.62762 0.63027 0.46374 0.0
H533 H 0.63079 0.64475 0.49847 0.0
H534 H 0.65084 0.60969 0.55513 0.0
H535 H 0.60871 0.59808 0.57947 0.0
H536 H 0.25197 0.33778 0.19778 0.0
H537 H 0.21632 0.35379 0.17957 0.0
H538 H 0.26742 0.38403 0.11391 0.0
H539 H 0.30316 0.36803 0.13186 0.0
H540 H 0.2177 0.40481 0.17277 0.0
H541 H 0.20059 0.34593 0.07342 0.0
H542 H 0.21796 0.33789 0.10158 0.0
H543 H 0.23412 0.36105 0.07963 0.0
C544 C 0.25556 0.34757 0.17926 0.0
C545 C 0.28042 0.35158 0.16624 0.0
C546 C 0.23517 0.35676 0.16893 0.0
C547 C 0.23916 0.36989 0.14525 0.0
C548 C 0.2638 0.3736 0.13195 0.0
H549 H 0.14556 0.44573 0.05314 0.0
H550 H 0.17998 0.42772 0.07085 0.0
C551 C 0.28424 0.36451 0.14232 0.0
C552 C 0.21796 0.38083 0.13529 0.0
H553 H 0.17894 0.37966 0.08004 0.0
C554 C 0.20908 0.39923 0.15256 0.0
C555 C 0.20691 0.3736 0.10888 0.0
C556 C 0.21517 0.35339 0.08983 0.0
C557 C 0.18979 0.411 0.14391 0.0
C558 C 0.17865 0.40374 0.11749 0.0
C559 C 0.1875 0.38524 0.10027 0.0
C560 C 0.15787 0.41512 0.10723 0.0
C561 C 0.1821 0.43159 0.16284 0.0
C562 C 0.13392 0.41392 0.1217 0.0
C563 C 0.11426 0.4243 0.11168 0.0
C564 C 0.11802 0.43579 0.08678 0.0
C565 C 0.14198 0.43685 0.07227 0.0
C566 C 0.16169 0.42661 0.08239 0.0
H567 H 0.1974 0.43957 0.17838 0.0
H568 H 0.17856 0.44673 0.15094 0.0
H569 H 0.16376 0.42407 0.1742 0.0
H570 H 0.13025 0.4046 0.14053 0.0
H571 H 0.09586 0.42279 0.12307 0.0
H572 H 0.60084 0.26844 0.91323 0.0
H573 H 0.57539 0.22988 0.93009 0.0
H574 H 0.62003 0.24427 1.00497 0.0
H575 H 0.64525 0.28265 0.98853 0.0
H576 H 0.5925 0.18799 0.94548 0.0
H577 H 0.54431 0.23203 0.03422 0.0
H578 H 0.56057 0.24923 1.00646 0.0
H579 H 0.57934 0.24188 0.03368 0.0
C580 C 0.60515 0.26345 0.93334 0.0
C581 C 0.62505 0.27882 0.94954 0.0
C582 C 0.59061 0.24136 0.94294 0.0
C583 C 0.59548 0.2343 0.96902 0.0
C584 C 0.61548 0.2495 0.98505 0.0
H585 H 0.55287 0.08939 0.03472 0.0
H586 H 0.5754 0.1276 1.01499 0.0
C587 C 0.63002 0.27146 0.97549 0.0
C588 C 0.58011 0.21091 0.97945 0.0
H589 H 0.54117 0.18841 0.03342 0.0
C590 C 0.58115 0.18809 0.96462 0.0
C591 C 0.56502 0.21096 1.00429 0.0
C592 C 0.56197 0.23483 0.02048 0.0
C593 C 0.56813 0.1654 0.97429 0.0
C594 C 0.5539 0.16543 0.9997 0.0
C595 C 0.5523 0.18829 1.01413 0.0
C596 C 0.5403 0.14203 1.01156 0.0
C597 C 0.56947 0.14159 0.95701 0.0
C598 C 0.51316 0.13759 0.01694 0.0
C599 C 0.50029 0.11582 0.02835 0.0
C600 C 0.5143 0.09805 0.03479 0.0
C601 C 0.54151 0.10262 0.02975 0.0
C602 C 0.55438 0.1244 0.0183 0.0
H603 H 0.57489 0.14489 0.93514 0.0
H604 H 0.58461 0.13309 0.96545 0.0
H605 H 0.55043 0.12812 0.9575 0.0
H606 H 0.50186 0.15092 1.01214 0.0
H607 H 0.47934 0.1129 0.03213 0.0
H608 H 0.91385 0.75255 0.44538 0.0
H609 H 0.92982 0.79483 0.46573 0.0
H610 H 0.91406 0.82351 0.38997 0.0
H611 H 0.89769 0.78116 0.36942 0.0
H612 H 0.96962 0.83423 0.44948 0.0
H613 H 0.87078 0.85685 0.44879 0.0
H614 H 0.87574 0.82547 0.44304 0.0
H615 H 0.88301 0.84597 0.41591 0.0
C616 C 0.91403 0.76779 0.43286 0.0
C617 C 0.90422 0.76343 0.40583 0.0
C618 C 0.92317 0.79197 0.44456 0.0
C619 C 0.92262 0.8123 0.42956 0.0
C620 C 0.91414 0.80806 0.40209 0.0
H621 H 0.95656 0.97072 0.48474 0.0
H622 H 0.94417 0.93076 0.45728 0.0
C623 C 0.90499 0.78383 0.39031 0.0
C624 C 0.93005 0.83783 0.44321 0.0
H625 H 0.90524 0.88853 0.46651 0.0
C626 C 0.9556 0.84616 0.45311 0.0
C627 C 0.91168 0.85333 0.4479 0.0
C628 C 0.88369 0.84498 0.43859 0.0
C629 C 0.96327 0.86958 0.46767 0.0
C630 C 0.94474 0.88484 0.47292 0.0
C631 C 0.91936 0.87675 0.4625 0.0
C632 C 0.95115 0.90896 0.48989 0.0
C633 C 0.99121 0.87783 0.47717 0.0
C634 C 0.95837 0.90986 0.51757 0.0
C635 C 0.9654 0.9326 0.53333 0.0
C636 C 0.96519 0.95494 0.52176 0.0
C637 C 0.95698 0.9539 0.4943 0.0
C638 C 0.94995 0.93109 0.47854 0.0
H639 H 0.00448 0.86738 0.46511 0.0
H640 H 0.99855 0.89796 0.47528 0.0
H641 H 0.99212 0.8744 0.49923 0.0
H642 H 0.9588 0.89294 0.52695 0.0
H643 H 0.97144 0.93266 0.55445 0.0
H644 H 0.3644 0.86039 0.56709 0.0
H645 H 0.38851 0.82866 0.54947 0.0
H646 H 0.33153 0.77319 0.58813 0.0
H647 H 0.30701 0.80451 0.605 0.0
H648 H 0.41138 0.80577 0.58271 0.0
H649 H 0.34514 0.73393 0.51804 0.0
H650 H 0.3385 0.76448 0.52673 0.0
H651 H 0.32888 0.74053 0.55009 0.0
C652 C 0.35662 0.8413 0.57114 0.0
C653 C 0.33394 0.83498 0.58765 0.0
C654 C 0.3704 0.82318 0.56101 0.0
C655 C 0.36173 0.79847 0.56723 0.0
C656 C 0.33828 0.79195 0.58239 0.0
H657 H 0.4386 0.69843 0.6273 0.0
H658 H 0.41837 0.73196 0.6157 0.0
C659 C 0.32438 0.80998 0.5923 0.0
C660 C 0.37911 0.78048 0.56219 0.0
H661 H 0.37793 0.71929 0.54356 0.0
C662 C 0.40429 0.78705 0.57344 0.0
C663 C 0.37016 0.75615 0.54973 0.0
C664 C 0.34428 0.7485 0.5352 0.0
C665 C 0.41978 0.76942 0.5747 0.0
C666 C 0.4096 0.7445 0.56499 0.0
C667 C 0.38546 0.73834 0.55153 0.0
C668 C 0.42237 0.72434 0.5714 0.0
C669 C 0.44653 0.77745 0.5874 0.0
C670 C 0.43071 0.70857 0.55028 0.0
C671 C 0.44238 0.68935 0.55687 0.0
C672 C 0.44565 0.68553 0.58469 0.0
C673 C 0.43692 0.70122 0.60571 0.0
C674 C 0.42534 0.72037 0.59911 0.0
H675 H 0.45481 0.79739 0.58518 0.0
H676 H 0.44482 0.77487 0.60983 0.0
H677 H 0.46039 0.76631 0.57777 0.0
H678 H 0.42838 0.71125 0.52877 0.0
H679 H 0.44906 0.67765 0.54021 0.0
H680 H 0.73462 0.82883 0.82374 0.0
H681 H 0.76744 0.85993 0.80192 0.0
H682 H 0.7723 0.80703 0.73191 0.0
H683 H 0.73884 0.77623 0.7531 0.0
H684 H 0.81778 0.85614 0.7887 0.0
H685 H 0.76714 0.86835 0.69437 0.0
H686 H 0.74995 0.85372 0.72338 0.0
H687 H 0.76678 0.83637 0.69832 0.0
C688 C 0.74189 0.82413 0.80326 0.0
C689 C 0.73363 0.80026 0.78985 0.0
C690 C 0.76093 0.84182 0.79096 0.0
C691 C 0.77198 0.83595 0.76505 0.0
C692 C 0.76359 0.8122 0.75157 0.0
H693 H 0.92354 0.89489 0.69524 0.0
H694 H 0.88535 0.87141 0.71871 0.0
C695 C 0.74459 0.79455 0.76381 0.0
C696 C 0.79375 0.85385 0.75303 0.0
H697 H 0.8139 0.88217 0.69418 0.0
C698 C 0.81684 0.86208 0.76817 0.0
C699 C 0.79239 0.86182 0.72637 0.0
C700 C 0.76763 0.85482 0.70978 0.0
C701 C 0.83894 0.87731 0.75695 0.0
C702 C 0.83808 0.88409 0.72967 0.0
C703 C 0.81466 0.87667 0.71495 0.0
C704 C 0.86137 0.89852 0.71584 0.0
C705 C 0.863 0.88603 0.77445 0.0
C706 C 0.86036 0.92127 0.70585 0.0
C707 C 0.88211 0.93467 0.69231 0.0
C708 C 0.90527 0.92551 0.6884 0.0
C709 C 0.90616 0.90264 0.69832 0.0
C710 C 0.88436 0.88922 0.71178 0.0
H711 H 0.85806 0.88549 0.79686 0.0
H712 H 0.87693 0.87362 0.76921 0.0
H713 H 0.873 0.90523 0.77058 0.0
H714 H 0.84277 0.92875 0.70869 0.0
H715 H 0.88088 0.95235 0.68518 0.0
H716 H 0.68661 0.16747 0.43875 0.0
H717 H 0.66519 0.14923 0.39564 0.0
H718 H 0.73879 0.16765 0.35133 0.0
H719 H 0.76037 0.18642 0.39432 0.0
H720 H 0.69931 0.18415 0.32843 0.0
H721 H 0.66587 0.0852 0.34787 0.0
H722 H 0.65587 0.10621 0.37445 0.0
H723 H 0.69014 0.10638 0.36883 0.0
C724 C 0.69838 0.16728 0.41994 0.0
C725 C 0.7252 0.17849 0.41996 0.0
C726 C 0.68611 0.15669 0.39532 0.0
C727 C 0.70046 0.15683 0.37035 0.0
C728 C 0.7274 0.16727 0.37043 0.0
H729 H 0.65832 0.11734 0.19853 0.0
H730 H 0.68135 0.12945 0.24219 0.0
C731 C 0.73969 0.17797 0.39502 0.0
C732 C 0.68695 0.1482 0.34386 0.0
H733 H 0.6475 0.09852 0.30902 0.0
C734 C 0.6882 0.16536 0.32407 0.0
C735 C 0.6723 0.12373 0.33836 0.0
C736 C 0.67112 0.10424 0.35839 0.0
C737 C 0.67483 0.15884 0.29908 0.0
C738 C 0.66009 0.13445 0.29366 0.0
C739 C 0.65882 0.11723 0.31337 0.0
C740 C 0.64605 0.12649 0.26743 0.0
C741 C 0.67612 0.17823 0.27889 0.0
C742 C 0.61859 0.12041 0.26734 0.0
C743 C 0.60532 0.11365 0.2424 0.0
C744 C 0.61936 0.11274 0.21718 0.0
C745 C 0.64692 0.1184 0.21751 0.0
C746 C 0.66012 0.1252 0.24242 0.0
H747 H 0.68348 0.19729 0.28866 0.0
H748 H 0.68961 0.17474 0.26149 0.0
H749 H 0.65651 0.17728 0.27019 0.0
H750 H 0.60744 0.1213 0.28653 0.0
H751 H 0.5841 0.10957 0.24282 0.0
H752 H 0.45737 0.70829 0.31789 0.0
H753 H 0.47262 0.6882 0.35512 0.0
H754 H 0.3927 0.66377 0.38289 0.0
H755 H 0.37763 0.68529 0.34686 0.0
H756 H 0.42034 0.67515 0.42556 0.0
H757 H 0.47336 0.61764 0.35518 0.0
H758 H 0.48651 0.64996 0.35267 0.0
H759 H 0.45325 0.63673 0.34242 0.0
C760 C 0.44308 0.69877 0.33206 0.0
C761 C 0.41626 0.69832 0.32929 0.0
C762 C 0.4518 0.68697 0.35322 0.0
C763 C 0.43385 0.6736 0.37152 0.0
C764 C 0.40708 0.67372 0.36911 0.0
H765 H 0.47706 0.56117 0.46549 0.0
H766 H 0.46063 0.58414 0.43175 0.0
C767 C 0.39844 0.68607 0.34843 0.0
C768 C 0.44278 0.65955 0.39313 0.0
H769 H 0.48108 0.61812 0.40319 0.0
C770 C 0.43348 0.66253 0.42055 0.0
C771 C 0.45956 0.6426 0.38684 0.0
C772 C 0.46849 0.63632 0.35763 0.0
C773 C 0.44046 0.64934 0.44162 0.0
C774 C 0.45837 0.63341 0.43561 0.0
C775 C 0.46758 0.63039 0.40817 0.0
C776 C 0.46742 0.61922 0.45703 0.0
C777 C 0.42767 0.65209 0.46979 0.0
C778 C 0.47686 0.63096 0.48277 0.0
C779 C 0.48547 0.61756 0.50247 0.0
C780 C 0.48589 0.59228 0.49657 0.0
C781 C 0.47704 0.58062 0.47068 0.0
C782 C 0.46769 0.59384 0.45131 0.0
H783 H 0.4084 0.65735 0.46835 0.0
H784 H 0.42458 0.63467 0.48022 0.0
H785 H 0.44031 0.66711 0.48288 0.0
H786 H 0.47799 0.65063 0.48759 0.0
H787 H 0.4925 0.62721 0.52207 0.0
H788 H 0.15346 0.45606 0.77819 0.0
H789 H 0.13497 0.48105 0.81494 0.0
H790 H 0.12085 0.41947 0.86559 0.0
H791 H 0.13915 0.39435 0.8291 0.0
H792 H 0.08195 0.46707 0.83846 0.0
H793 H 0.15998 0.48031 0.91667 0.0
H794 H 0.16562 0.4722 0.88038 0.0
H795 H 0.14883 0.44897 0.9019 0.0
C796 C 0.14668 0.44791 0.79726 0.0
C797 C 0.14778 0.4232 0.80069 0.0
C798 C 0.13608 0.4622 0.81818 0.0
C799 C 0.12679 0.45214 0.84302 0.0
C800 C 0.12825 0.42766 0.8467 0.0
H801 H 0.01905 0.49338 0.96898 0.0
H802 H 0.04231 0.47247 0.93247 0.0
C803 C 0.13861 0.41331 0.82575 0.0
C804 C 0.11429 0.46672 0.86459 0.0
H805 H 0.12005 0.49188 0.93159 0.0
C806 C 0.09033 0.47265 0.85877 0.0
C807 C 0.12538 0.47404 0.89098 0.0
C808 C 0.15148 0.46878 0.89793 0.0
C809 C 0.07682 0.4852 0.87893 0.0
C810 C 0.08753 0.49187 0.90556 0.0
C811 C 0.11182 0.48653 0.91118 0.0
C812 C 0.07371 0.50437 0.92787 0.0
C813 C 0.05119 0.49129 0.87166 0.0
C814 C 0.08392 0.52907 0.93759 0.0
C815 C 0.07065 0.54105 0.95834 0.0
C816 C 0.04713 0.5284 0.96988 0.0
C817 C 0.03714 0.50355 0.96041 0.0
C818 C 0.05033 0.49163 0.93953 0.0
H819 H 0.04817 0.48925 0.84896 0.0
H820 H 0.03481 0.47852 0.88138 0.0
H821 H 0.05033 0.51055 0.87975 0.0
H822 H 0.102 0.53914 0.92889 0.0
H823 H 0.07881 0.56019 0.96536 0.0
H824 H 0.61896 0.83814 0.917 0.0
H825 H 0.59784 0.86888 0.94263 0.0
H826 H 0.64005 0.92539 0.8929 0.0
H827 H 0.66123 0.89466 0.86689 0.0
H828 H 0.62265 0.91283 0.97332 0.0
H829 H 0.56278 0.93189 0.88864 0.0
H830 H 0.5773 0.90492 0.88684 0.0
H831 H 0.59716 0.93471 0.88088 0.0
C832 C 0.62372 0.85707 0.91137 0.0
C833 C 0.64176 0.86393 0.88984 0.0
C834 C 0.61162 0.87461 0.92608 0.0
C835 C 0.61716 0.89932 0.91946 0.0
C836 C 0.63518 0.90631 0.89802 0.0
H837 H 0.57995 0.02312 0.0266 0.0
H838 H 0.60215 0.99593 0.99624 0.0
C839 C 0.64737 0.88876 0.88329 0.0
C840 C 0.60459 0.9178 0.93569 0.0
H841 H 0.56205 0.9564 0.93119 0.0
C842 C 0.60946 0.92242 0.96412 0.0
C843 C 0.5872 0.93007 0.92362 0.0
C844 C 0.58055 0.92508 0.89337 0.0
C845 C 0.59744 0.93903 0.98086 0.0
C846 C 0.58033 0.95156 0.96874 0.0
C847 C 0.57537 0.9469 0.94032 0.0
C848 C 0.56675 0.96892 0.98555 0.0
C849 C 0.60263 0.94259 1.0115 0.0
C850 C 0.53941 0.96309 0.9889 0.0
C851 C 0.52664 0.97859 1.0062 0.0
C852 C 0.541 1.0003 0.02032 0.0
C853 C 0.56832 1.00649 1.01615 0.0
C854 C 0.58106 0.99094 0.9989 0.0
H855 H 0.61164 0.92775 0.01839 0.0
H856 H 0.6163 0.96065 1.01635 0.0
H857 H 0.58421 0.94288 0.02356 0.0
H858 H 0.52803 0.94621 0.97866 0.0
H859 H 0.50557 0.97332 1.00882 0.0
H860 H 0.76828 0.14573 0.55944 0.0
H861 H 0.79931 0.12016 0.5691 0.0
H862 H 0.85941 0.16597 0.52247 0.0
H863 H 0.82877 0.19186 0.51317 0.0
H864 H 0.82581 0.09298 0.53175 0.0
H865 H 0.89555 0.16439 0.59498 0.0
H866 H 0.86329 0.16835 0.58695 0.0
H867 H 0.88953 0.17368 0.56178 0.0
C868 C 0.78817 0.1505 0.55147 0.0
C869 C 0.79612 0.17091 0.5357 0.0
C870 C 0.80583 0.13584 0.55694 0.0
C871 C 0.83171 0.14138 0.54679 0.0
C872 C 0.83967 0.16169 0.53098 0.0
H873 H 0.94231 0.0424 0.53249 0.0
H874 H 0.91079 0.06762 0.52277 0.0
C875 C 0.82209 0.17641 0.52561 0.0
C876 C 0.85022 0.12554 0.5521 0.0
H877 H 0.90919 0.12676 0.58082 0.0
C878 C 0.84401 0.1003 0.54257 0.0
C879 C 0.8738 0.13515 0.56642 0.0
C880 C 0.88088 0.16182 0.57837 0.0
C881 C 0.86092 0.08441 0.54677 0.0
C882 C 0.88484 0.09419 0.5604 0.0
C883 C 0.89093 0.11939 0.57012 0.0
C884 C 0.90346 0.07849 0.56586 0.0
C885 C 0.85276 0.05724 0.53712 0.0
C886 C 0.91012 0.07668 0.5932 0.0
C887 C 0.92824 0.0626 0.59872 0.0
C888 C 0.94001 0.05008 0.57699 0.0
C889 C 0.93334 0.05179 0.54959 0.0
C890 C 0.91526 0.06604 0.54405 0.0
H891 H 0.83135 0.05168 0.53348 0.0
H892 H 0.8631 0.05345 0.51734 0.0
H893 H 0.85802 0.0455 0.55246 0.0
H894 H 0.90129 0.0862 0.6103 0.0
H895 H 0.9331 0.06162 0.62003 0.0
H896 H 0.27295 0.66032 0.19857 0.0
H897 H 0.2323 0.63322 0.18097 0.0
H898 H 0.24095 0.6709 0.10633 0.0
H899 H 0.28147 0.6977 0.12346 0.0
H900 H 0.18642 0.6459 0.16649 0.0
H901 H 0.22818 0.59853 0.07577 0.0
H902 H 0.24824 0.61614 0.1033 0.0
H903 H 0.23732 0.63169 0.07642 0.0
C904 C 0.2663 0.66269 0.17831 0.0
C905 C 0.28061 0.68116 0.16241 0.0
C906 C 0.24304 0.6472 0.16829 0.0
C907 C 0.23375 0.6497 0.14209 0.0
C908 C 0.24798 0.66816 0.12629 0.0
H909 H 0.07817 0.61053 0.07631 0.0
H910 H 0.12002 0.63 0.09741 0.0
C911 C 0.27113 0.68362 0.13626 0.0
C912 C 0.20865 0.63388 0.13161 0.0
H913 H 0.1817 0.59553 0.0761 0.0
C914 C 0.18543 0.63468 0.14687 0.0
C915 C 0.20731 0.61891 0.10619 0.0
C916 C 0.23163 0.61602 0.0896 0.0
C917 C 0.16089 0.62178 0.13688 0.0
C918 C 0.15942 0.60799 0.11069 0.0
C919 C 0.18273 0.60634 0.09599 0.0
C920 C 0.13387 0.59586 0.09783 0.0
C921 C 0.13675 0.62306 0.15451 0.0
C922 C 0.1279 0.5702 0.0902 0.0
C923 C 0.10391 0.55894 0.07789 0.0
C924 C 0.08547 0.57316 0.07275 0.0
C925 C 0.09173 0.59891 0.08008 0.0
C926 C 0.11565 0.6101 0.09237 0.0
H927 H 0.14167 0.62776 0.1767 0.0
H928 H 0.12748 0.63777 0.14779 0.0
H929 H 0.12224 0.6052 0.15239 0.0
H930 H 0.14173 0.55884 0.09399 0.0
H931 H 0.09984 0.53909 0.07248 0.0
H932 H 0.23792 0.44148 0.64688 0.0
H933 H 0.2787 0.46199 0.62505 0.0
H934 H 0.32248 0.44823 0.69349 0.0
H935 H 0.28191 0.42713 0.71509 0.0
H936 H 0.31609 0.50256 0.64201 0.0
H937 H 0.3595 0.4189 0.62829 0.0
H938 H 0.32556 0.4174 0.63792 0.0
H939 H 0.35063 0.42669 0.66353 0.0
C940 C 0.25623 0.4428 0.65729 0.0
C941 C 0.25669 0.43245 0.6826 0.0
C942 C 0.27952 0.45457 0.6448 0.0
C943 C 0.3037 0.45624 0.65736 0.0
C944 C 0.30413 0.4466 0.68305 0.0
H945 H 0.46323 0.52879 0.6165 0.0
H946 H 0.42171 0.51302 0.64047 0.0
C947 C 0.28089 0.43466 0.69545 0.0
C948 C 0.32845 0.46794 0.64352 0.0
H949 H 0.38739 0.45706 0.61855 0.0
C950 C 0.33163 0.49258 0.63682 0.0
C951 C 0.34868 0.45485 0.63656 0.0
C952 C 0.34589 0.42793 0.64168 0.0
C953 C 0.35466 0.50453 0.62372 0.0
C954 C 0.37491 0.49154 0.61726 0.0
C955 C 0.37179 0.46696 0.62383 0.0
C956 C 0.39935 0.50292 0.603 0.0
C957 C 0.3574 0.53097 0.61686 0.0
C958 C 0.4003 0.50258 0.57408 0.0
C959 C 0.42395 0.51141 0.56035 0.0
C960 C 0.44696 0.52074 0.57538 0.0
C961 C 0.44578 0.52172 0.60442 0.0
C962 C 0.42214 0.51273 0.61812 0.0
H963 H 0.34049 0.53903 0.62466 0.0
H964 H 0.37566 0.54258 0.62589 0.0
H965 H 0.35904 0.53169 0.59407 0.0
H966 H 0.38286 0.49496 0.56213 0.0
H967 H 0.42432 0.51051 0.53797 0.0
H968 H 0.74797 0.66654 0.8357 0.0
H969 H 0.77999 0.65142 0.86129 0.0
H970 H 0.76907 0.70166 0.93198 0.0
H971 H 0.73727 0.71717 0.90642 0.0
H972 H 0.821 0.70404 0.91769 0.0
H973 H 0.76936 0.60632 0.92449 0.0
H974 H 0.77216 0.61571 0.88991 0.0
H975 H 0.75294 0.63002 0.91542 0.0
C976 C 0.75215 0.6742 0.85679 0.0
C977 C 0.74005 0.69306 0.86903 0.0
C978 C 0.77036 0.66542 0.87144 0.0
C979 C 0.77664 0.67518 0.89865 0.0
C980 C 0.76438 0.69379 0.91104 0.0
H981 H 0.87339 0.61943 1.01027 0.0
H982 H 0.83725 0.63194 0.98842 0.0
C983 C 0.7462 0.70261 0.8964 0.0
C984 C 0.79719 0.66709 0.91358 0.0
H985 H 0.81461 0.6163 0.9362 0.0
C986 C 0.81953 0.68489 0.92191 0.0
C987 C 0.7951 0.64214 0.9193 0.0
C988 C 0.77099 0.62247 0.91207 0.0
C989 C 0.84013 0.67832 0.93524 0.0
C990 C 0.83851 0.65321 0.93995 0.0
C991 C 0.8159 0.63549 0.93227 0.0
C992 C 0.86019 0.645 0.95274 0.0
C993 C 0.86337 0.69836 0.94436 0.0
C994 C 0.88489 0.64778 0.93963 0.0
C995 C 0.90552 0.6406 0.95198 0.0
C996 C 0.90181 0.63034 0.97763 0.0
C997 C 0.87685 0.62709 0.99042 0.0
C998 C 0.85622 0.63431 0.97803 0.0
H999 H 0.85858 0.71707 0.94586 0.0
H1000 H 0.87041 0.69516 0.96475 0.0
H1001 H 0.8796 0.69821 0.92901 0.0
H1002 H 0.88819 0.65549 0.91979 0.0
H1003 H 0.92434 0.64289 0.94132 0.0
H1004 H 0.39679 0.78962 0.16947 0.0
H1005 H 0.41511 0.83038 0.1539 0.0
H1006 H 0.43334 0.8592 0.23815 0.0
H1007 H 0.41618 0.81782 0.25369 0.0
H1008 H 0.40151 0.87204 0.16185 0.0
H1009 H 0.50148 0.8865 0.20342 0.0
H1010 H 0.47861 0.85718 0.20365 0.0
H1011 H 0.47661 0.88195 0.22994 0.0
C1012 C 0.40492 0.80455 0.18474 0.0
C1013 C 0.40513 0.80033 0.21286 0.0
C1014 C 0.41536 0.82798 0.17577 0.0
C1015 C 0.42605 0.84809 0.19465 0.0
C1016 C 0.42601 0.84401 0.2229 0.0
H1017 H 0.45449 0.99974 0.13828 0.0
H1018 H 0.43492 0.96148 0.15975 0.0
C1019 C 0.41602 0.82032 0.23185 0.0
C1020 C 0.43654 0.87316 0.18448 0.0
H1021 H 0.49035 0.92077 0.18454 0.0
C1022 C 0.421 0.88263 0.16681 0.0
C1023 C 0.46208 0.88709 0.19056 0.0
C1024 C 0.48076 0.87757 0.20769 0.0
C1025 C 0.43026 0.90513 0.15478 0.0
C1026 C 0.45553 0.91938 0.16144 0.0
C1027 C 0.47092 0.91011 0.17947 0.0
C1028 C 0.46713 0.9431 0.14879 0.0
C1029 C 0.41319 0.91273 0.13413 0.0
C1030 C 0.49215 0.94619 0.13621 0.0
C1031 C 0.5036 0.96828 0.1247 0.0
C1032 C 0.49024 0.98785 0.12508 0.0
C1033 C 0.46514 0.98488 0.13744 0.0
C1034 C 0.45386 0.96287 0.14953 0.0
H1035 H 0.39855 0.8966 0.12516 0.0
H1036 H 0.40227 0.92619 0.1447 0.0
H1037 H 0.42506 0.92159 0.11694 0.0
H1038 H 0.50292 0.9314 0.1352 0.0
H1039 H 0.52295 0.96997 0.11528 0.0
H1040 H 0.13579 0.29102 0.67967 0.0
H1041 H 0.11734 0.25036 0.65603 0.0
H1042 H 0.13031 0.21504 0.72826 0.0
H1043 H 0.14842 0.25554 0.7522 0.0
H1044 H 0.13832 0.20767 0.6439 0.0
H1045 H 0.05186 0.18976 0.71481 0.0
H1046 H 0.07296 0.22002 0.71371 0.0
H1047 H 0.08287 0.1967 0.73179 0.0
C1048 C 0.13485 0.2746 0.6905 0.0
C1049 C 0.14334 0.27656 0.71794 0.0
C1050 C 0.12431 0.25138 0.67694 0.0
C1051 C 0.122 0.22974 0.69059 0.0
C1052 C 0.13138 0.23156 0.71758 0.0
H1053 H 0.05265 0.07432 0.64518 0.0
H1054 H 0.07657 0.11343 0.66811 0.0
C1055 C 0.14186 0.25473 0.73117 0.0
C1056 C 0.10935 0.20533 0.67677 0.0
H1057 H 0.05716 0.15689 0.68179 0.0
C1058 C 0.12056 0.19657 0.65214 0.0
C1059 C 0.08617 0.1909 0.68757 0.0
C1060 C 0.07257 0.19986 0.71328 0.0
C1061 C 0.10935 0.17359 0.63818 0.0
C1062 C 0.08613 0.15922 0.64896 0.0
C1063 C 0.07503 0.16791 0.67366 0.0
C1064 C 0.07258 0.13541 0.63455 0.0
C1065 C 0.12265 0.16471 0.61224 0.0
C1066 C 0.06223 0.13487 0.60819 0.0
C1067 C 0.04852 0.1126 0.59505 0.0
C1068 C 0.0448 0.09043 0.60809 0.0
C1069 C 0.05523 0.09103 0.63452 0.0
C1070 C 0.06889 0.11335 0.64767 0.0
H1071 H 0.1435 0.17446 0.61083 0.0
H1072 H 0.12175 0.14443 0.61136 0.0
H1073 H 0.11248 0.16845 0.59392 0.0
H1074 H 0.06439 0.15176 0.59794 0.0
H1075 H 0.04072 0.11285 0.57474 0.0
H1076 H 0.69735 0.27713 0.45999 0.0
H1077 H 0.67297 0.30916 0.47451 0.0
H1078 H 0.72311 0.33303 0.54483 0.0
H1079 H 0.74809 0.30096 0.53017 0.0
H1080 H 0.64592 0.31565 0.52529 0.0
H1081 H 0.72555 0.3973 0.50666 0.0
H1082 H 0.72706 0.36629 0.49255 0.0
H1083 H 0.73266 0.37521 0.52865 0.0
C1084 C 0.70332 0.28917 0.47853 0.0
C1085 C 0.72474 0.28657 0.49388 0.0
C1086 C 0.6893 0.30744 0.48683 0.0
C1087 C 0.69637 0.32353 0.5106 0.0
C1088 C 0.7176 0.32096 0.5262 0.0
H1089 H 0.61822 0.44867 0.55523 0.0
H1090 H 0.64544 0.41816 0.56003 0.0
C1091 C 0.73176 0.30262 0.51785 0.0
C1092 C 0.68116 0.34286 0.51856 0.0
H1093 H 0.68384 0.40499 0.51848 0.0
C1094 C 0.65428 0.33523 0.52426 0.0
C1095 C 0.6922 0.36837 0.51732 0.0
C1096 C 0.72091 0.37744 0.51082 0.0
C1097 C 0.63787 0.35234 0.52743 0.0
C1098 C 0.64863 0.37763 0.52455 0.0
C1099 C 0.67574 0.38551 0.52057 0.0
C1100 C 0.63171 0.39562 0.52255 0.0
C1101 C 0.609 0.34317 0.53297 0.0
C1102 C 0.61528 0.39304 0.49978 0.0
C1103 C 0.5999 0.41037 0.49692 0.0
C1104 C 0.60069 0.43061 0.51682 0.0
C1105 C 0.61708 0.4331 0.53973 0.0
C1106 C 0.63266 0.41581 0.54246 0.0
H1107 H 0.60508 0.32504 0.54209 0.0
H1108 H 0.601 0.35679 0.54716 0.0
H1109 H 0.59838 0.34064 0.51317 0.0
H1110 H 0.61459 0.37772 0.48402 0.0
H1111 H 0.58729 0.40788 0.4792 0.0
loop_
_geom_bond_atom_site_label_1
_geom_bond_atom_site_label_2
_geom_bond_distance
_geom_bond_site_symmetry_2
_ccdc_geom_bond_type
O0 Cd1 2.300 . S
O0 C7 1.275 . S
Cd1 O0 2.300 . S
Cd1 O9 2.381 . S
Cd1 O10 2.378 . S
O2 Cd3 2.385 . S
O2 C7 1.255 . S
Cd3 O2 2.385 . S
Cd3 O4 2.317 . S
O4 Cd3 2.317 . S
O4 C5 1.232 . S
C5 O4 1.232 . S
C5 O6 1.218 . S
O6 C5 1.218 . S
C7 O0 1.275 . S
C7 O2 1.255 . S
C8 O9 1.258 . S
C8 O10 1.256 . S
O9 Cd1 2.381 . S
O9 C8 1.258 . S
O10 Cd1 2.378 . S
O10 C8 1.256 . S
O11 Cd12 2.300 . S
O11 C18 1.275 . S
Cd12 O11 2.300 . S
Cd12 O20 2.381 . S
Cd12 O21 2.378 . S
O13 Cd14 2.385 . S
O13 C18 1.255 . S
Cd14 O13 2.385 . S
Cd14 O15 2.317 . S
O15 Cd14 2.317 . S
O15 C16 1.232 . S
C16 O15 1.232 . S
C16 O17 1.218 . S
O17 C16 1.218 . S
C18 O11 1.275 . S
C18 O13 1.255 . S
C19 O20 1.258 . S
C19 O21 1.256 . S
O20 Cd12 2.381 . S
O20 C19 1.258 . S
O21 Cd12 2.378 . S
O21 C19 1.256 . S
O22 Cd23 2.300 . S
O22 C29 1.275 . S
Cd23 O22 2.300 . S
Cd23 O31 2.381 . S
Cd23 O32 2.378 . S
O24 Cd25 2.385 . S
O24 C29 1.255 . S
Cd25 O24 2.385 . S
Cd25 O26 2.317 . S
O26 Cd25 2.317 . S
O26 C27 1.232 . S
C27 O26 1.232 . S
C27 O28 1.218 . S
O28 C27 1.218 . S
C29 O22 1.275 . S
C29 O24 1.255 . S
C30 O31 1.258 . S
C30 O32 1.256 . S
O31 Cd23 2.381 . S
O31 C30 1.258 . S
O32 Cd23 2.378 . S
O32 C30 1.256 . S
O33 Cd34 2.300 . S
O33 C40 1.275 . S
Cd34 O33 2.300 . S
Cd34 O42 2.381 . S
Cd34 O43 2.378 . S
O35 Cd36 2.385 . S
O35 C40 1.255 . S
Cd36 O35 2.385 . S
Cd36 O37 2.317 . S
O37 Cd36 2.317 . S
O37 C38 1.232 . S
C38 O37 1.232 . S
C38 O39 1.218 . S
O39 C38 1.218 . S
C40 O33 1.275 . S
C40 O35 1.255 . S
C41 O42 1.258 . S
C41 O43 1.256 . S
O42 Cd34 2.381 . S
O42 C41 1.258 . S
O43 Cd34 2.378 . S
O43 C41 1.256 . S
O44 Cd45 2.300 . S
O44 C51 1.275 . S
Cd45 O44 2.300 . S
Cd45 O53 2.381 . S
Cd45 O54 2.378 . S
O46 Cd47 2.385 . S
O46 C51 1.255 . S
Cd47 O46 2.385 . S
Cd47 O48 2.317 . S
O48 Cd47 2.317 . S
O48 C49 1.232 . S
C49 O48 1.232 . S
C49 O50 1.218 . S
O50 C49 1.218 . S
C51 O44 1.275 . S
C51 O46 1.255 . S
C52 O53 1.258 . S
C52 O54 1.256 . S
O53 Cd45 2.381 . S
O53 C52 1.258 . S
O54 Cd45 2.378 . S
O54 C52 1.256 . S
O55 Cd56 2.300 . S
O55 C62 1.275 . S
Cd56 O55 2.300 . S
Cd56 O64 2.381 . S
Cd56 O65 2.378 . S
O57 Cd58 2.385 . S
O57 C62 1.255 . S
Cd58 O57 2.385 . S
Cd58 O59 2.317 . S
O59 Cd58 2.317 . S
O59 C60 1.232 . S
C60 O59 1.232 . S
C60 O61 1.218 . S
O61 C60 1.218 . S
C62 O55 1.275 . S
C62 O57 1.255 . S
C63 O64 1.258 . S
C63 O65 1.256 . S
O64 Cd56 2.381 . S
O64 C63 1.258 . S
O65 Cd56 2.378 . S
O65 C63 1.256 . S
O66 Cd67 2.300 . S
O66 C73 1.275 . S
Cd67 O66 2.300 . S
Cd67 O75 2.381 . S
Cd67 O76 2.378 . S
O68 Cd69 2.385 . S
O68 C73 1.255 . S
Cd69 O68 2.385 . S
Cd69 O70 2.317 . S
O70 Cd69 2.317 . S
O70 C71 1.232 . S
C71 O70 1.232 . S
C71 O72 1.218 . S
O72 C71 1.218 . S
C73 O66 1.275 . S
C73 O68 1.255 . S
C74 O75 1.258 . S
C74 O76 1.256 . S
O75 Cd67 2.381 . S
O75 C74 1.258 . S
O76 Cd67 2.378 . S
O76 C74 1.256 . S
O77 Cd78 2.300 . S
O77 C84 1.275 . S
Cd78 O77 2.300 . S
Cd78 O86 2.381 . S
Cd78 O87 2.378 . S
O79 Cd80 2.385 . S
O79 C84 1.255 . S
Cd80 O79 2.385 . S
Cd80 O81 2.317 . S
O81 Cd80 2.317 . S
O81 C82 1.232 . S
C82 O81 1.232 . S
C82 O83 1.218 . S
O83 C82 1.218 . S
C84 O77 1.275 . S
C84 O79 1.255 . S
C85 O86 1.258 . S
C85 O87 1.256 . S
O86 Cd78 2.381 . S
O86 C85 1.258 . S
O87 Cd78 2.378 . S
O87 C85 1.256 . S
Ho88 C91 2.811 . S
Ho88 O108 2.322 . S
Ho88 O110 2.378 . S
Ho88 O111 2.524 . S
Ho88 O112 2.381 1_545 S
Ho88 O113 2.669 1_545 S
Ho88 O115 2.346 1_445 S
Ho88 O119 2.305 1_455 S
Ho89 C100 2.811 1_545 S
Ho89 O109 2.346 1_655 S
Ho89 O113 2.305 1_645 S
Ho89 O114 2.322 1_545 S
Ho89 O116 2.378 1_545 S
Ho89 O117 2.524 1_545 S
Ho89 O118 2.381 . S
Ho89 O119 2.669 . S
C90 O108 1.259 . S
C90 O109 1.268 . S
C91 Ho88 2.811 . S
C91 C92 1.488 . S
C91 O110 1.215 . S
C91 O111 1.289 . S
C92 C91 1.488 . S
C92 C93 1.348 . S
C92 C97 1.413 . S
C93 C92 1.348 . S
C93 C94 1.442 . S
C93 H120 0.930 . S
C94 C93 1.442 . S
C94 C95 1.381 . S
C94 H121 0.931 . S
C95 C94 1.381 . S
C95 C96 1.321 . S
C96 C95 1.321 . S
C96 C97 1.403 . S
C96 H122 0.934 . S
C97 C92 1.413 . S
C97 C96 1.403 . S
C97 H123 0.930 . S
C98 O112 1.275 . S
C98 O113 1.256 . S
C99 O114 1.259 . S
C99 O115 1.268 . S
C100 Ho89 2.811 1_565 S
C100 C101 1.488 . S
C100 O116 1.215 . S
C100 O117 1.289 . S
C101 C100 1.488 . S
C101 C102 1.348 . S
C101 C106 1.413 . S
C102 C101 1.348 . S
C102 C103 1.442 . S
C102 H124 0.930 . S
C103 C102 1.442 . S
C103 C104 1.381 . S
C103 H125 0.931 . S
C104 C103 1.381 . S
C104 C105 1.321 . S
C105 C104 1.321 . S
C105 C106 1.403 . S
C105 H126 0.934 . S
C106 C101 1.413 . S
C106 C105 1.403 . S
C106 H127 0.930 . S
C107 O118 1.275 . S
C107 O119 1.256 . S
O108 Ho88 2.322 . S
O108 C90 1.259 . S
O109 Ho89 2.346 1_455 S
O109 C90 1.268 . S
O110 Ho88 2.378 . S
O110 C91 1.215 . S
O111 Ho88 2.524 . S
O111 C91 1.289 . S
O112 Ho88 2.381 1_565 S
O112 C98 1.275 . S
O113 Ho88 2.669 1_565 S
O113 Ho89 2.305 1_465 S
O113 C98 1.256 . S
O114 Ho89 2.322 1_565 S
O114 C99 1.259 . S
O115 Ho88 2.346 1_665 S
O115 C99 1.268 . S
O116 Ho89 2.378 1_565 S
O116 C100 1.215 . S
O117 Ho89 2.524 1_565 S
O117 C100 1.289 . S
O118 Ho89 2.381 . S
O118 C107 1.275 . S
O119 Ho88 2.305 1_655 S
O119 Ho89 2.669 . S
O119 C107 1.256 . S
H120 C93 0.930 . S
H121 C94 0.931 . S
H122 C96 0.934 . S
H123 C97 0.930 . S
H124 C102 0.930 . S
H125 C103 0.931 . S
H126 C105 0.934 . S
H127 C106 0.930 . S
Ho128 C131 2.811 . S
Ho128 O148 2.322 . S
Ho128 O150 2.378 . S
Ho128 O151 2.524 . S
Ho128 O152 2.381 1_545 S
Ho128 O153 2.669 . S
Ho128 O155 2.346 . S
Ho128 O159 2.305 . S
Ho129 C140 2.811 1_544 S
Ho129 O149 2.346 . S
Ho129 O153 2.305 . S
Ho129 O154 2.322 . S
Ho129 O156 2.378 1_554 S
Ho129 O157 2.535 1_545 S
Ho129 O158 2.381 . S
Ho129 O159 2.669 . S
C130 O148 1.259 . S
C130 O149 1.268 . S
C131 Ho128 2.811 . S
C131 C132 1.488 . S
C131 O150 1.215 . S
C131 O151 1.289 . S
C132 C131 1.488 . S
C132 C133 1.348 . S
C132 C137 1.413 . S
C133 C132 1.348 . S
C133 C134 1.442 . S
C133 H160 0.930 . S
C134 C133 1.442 . S
C134 C135 1.381 . S
C134 H161 0.931 . S
C135 C134 1.381 . S
C135 C136 1.321 . S
C136 C135 1.321 . S
C136 C137 1.403 . S
C136 H162 0.934 . S
C137 C132 1.413 . S
C137 C136 1.403 . S
C137 H163 0.930 . S
C138 O152 1.275 . S
C138 O153 1.256 1_565 S
C139 O154 1.259 1_565 S
C139 O155 1.268 1_565 S
C140 Ho129 2.811 1_566 S
C140 C141 1.488 . S
C140 O156 1.215 1_565 S
C140 O157 1.265 1_556 S
C141 C140 1.488 . S
C141 C142 1.348 . S
C141 C146 1.413 . S
C142 C141 1.348 . S
C142 C143 1.442 . S
C142 H164 0.930 . S
C143 C142 1.442 . S
C143 C144 1.381 . S
C143 H165 0.931 . S
C144 C143 1.381 . S
C144 C145 1.321 . S
C145 C144 1.321 . S
C145 C146 1.403 . S
C145 H166 0.934 . S
C146 C141 1.413 . S
C146 C145 1.403 . S
C146 H167 0.930 1_565 S
C147 O158 1.275 . S
C147 O159 1.256 . S
O148 Ho128 2.322 . S
O148 C130 1.259 . S
O149 Ho129 2.346 . S
O149 C130 1.268 . S
O150 Ho128 2.378 . S
O150 C131 1.215 . S
O151 Ho128 2.524 . S
O151 C131 1.289 . S
O152 Ho128 2.381 1_565 S
O152 C138 1.275 . S
O153 Ho128 2.669 . S
O153 Ho129 2.305 . S
O153 C138 1.256 1_545 S
O154 Ho129 2.322 . S
O154 C139 1.259 1_545 S
O155 Ho128 2.346 . S
O155 C139 1.268 1_545 S
O156 Ho129 2.378 1_556 S
O156 C140 1.215 1_545 S
O157 Ho129 2.535 1_565 S
O157 C140 1.265 1_554 S
O158 Ho129 2.381 . S
O158 C147 1.275 . S
O159 Ho128 2.305 . S
O159 Ho129 2.669 . S
O159 C147 1.256 . S
H160 C133 0.930 . S
H161 C134 0.931 . S
H162 C136 0.934 . S
H163 C137 0.930 . S
H164 C142 0.930 . S
H165 C143 0.931 . S
H166 C145 0.934 . S
H167 C146 0.930 1_545 S
Ho168 C171 2.811 . S
Ho168 O188 2.322 . S
Ho168 O190 2.378 . S
Ho168 O191 2.524 . S
Ho168 O192 2.381 . S
Ho168 O193 2.669 . S
Ho168 O195 2.346 . S
Ho168 O199 2.305 . S
Ho169 C180 2.811 . S
Ho169 O189 2.346 . S
Ho169 O193 2.305 . S
Ho169 O194 2.322 . S
Ho169 O196 2.378 . S
Ho169 O197 2.524 . S
Ho169 O198 2.381 . S
Ho169 O199 2.669 . S
C170 O188 1.259 . S
C170 O189 1.268 . S
C171 Ho168 2.811 . S
C171 C172 1.488 . S
C171 O190 1.215 . S
C171 O191 1.289 . S
C172 C171 1.488 . S
C172 C173 1.348 . S
C172 C177 1.413 . S
C173 C172 1.348 . S
C173 C174 1.442 . S
C173 H200 0.930 . S
C174 C173 1.442 . S
C174 C175 1.381 . S
C174 H201 0.931 . S
C175 C174 1.381 . S
C175 C176 1.321 . S
C176 C175 1.321 . S
C176 C177 1.403 . S
C176 H202 0.934 . S
C177 C172 1.413 . S
C177 C176 1.403 . S
C177 H203 0.930 . S
C178 O192 1.275 . S
C178 O193 1.256 . S
C179 O194 1.259 . S
C179 O195 1.268 . S
C180 Ho169 2.811 . S
C180 C181 1.488 . S
C180 O196 1.215 . S
C180 O197 1.289 . S
C181 C180 1.488 . S
C181 C182 1.348 . S
C181 C186 1.413 . S
C182 C181 1.348 . S
C182 C183 1.442 . S
C182 H204 0.930 . S
C183 C182 1.442 . S
C183 C184 1.381 . S
C183 H205 0.931 . S
C184 C183 1.381 . S
C184 C185 1.321 . S
C185 C184 1.321 . S
C185 C186 1.403 . S
C185 H206 0.934 . S
C186 C181 1.413 . S
C186 C185 1.403 . S
C186 H207 0.930 . S
C187 O198 1.275 . S
C187 O199 1.256 . S
O188 Ho168 2.322 . S
O188 C170 1.259 . S
O189 Ho169 2.346 . S
O189 C170 1.268 . S
O190 Ho168 2.378 . S
O190 C171 1.215 . S
O191 Ho168 2.524 . S
O191 C171 1.289 . S
O192 Ho168 2.381 . S
O192 C178 1.275 . S
O193 Ho168 2.669 . S
O193 Ho169 2.305 . S
O193 C178 1.256 . S
O194 Ho169 2.322 . S
O194 C179 1.259 . S
O195 Ho168 2.346 . S
O195 C179 1.268 . S
O196 Ho169 2.378 . S
O196 C180 1.215 . S
O197 Ho169 2.524 . S
O197 C180 1.289 . S
O198 Ho169 2.381 . S
O198 C187 1.275 . S
O199 Ho168 2.305 . S
O199 Ho169 2.669 . S
O199 C187 1.256 . S
H200 C173 0.930 . S
H201 C174 0.931 . S
H202 C176 0.934 . S
H203 C177 0.930 . S
H204 C182 0.930 . S
H205 C183 0.931 . S
H206 C185 0.934 . S
H207 C186 0.930 . S
Ho208 C211 2.811 . S
Ho208 O228 2.322 . S
Ho208 O230 2.378 . S
Ho208 O231 2.524 . S
Ho208 O232 2.381 . S
Ho208 O233 2.669 . S
Ho208 O235 2.346 1_455 S
Ho208 O239 2.305 1_554 S
Ho209 C220 2.811 1_455 S
Ho209 O229 2.346 1_556 S
Ho209 O233 2.305 1_556 S
Ho209 O234 2.322 1_455 S
Ho209 O236 2.364 1_455 S
Ho209 O237 2.524 1_455 S
Ho209 O238 2.381 . S
Ho209 O239 2.669 . S
C210 O228 1.259 . S
C210 O229 1.268 . S
C211 Ho208 2.811 . S
C211 C212 1.488 . S
C211 O230 1.215 . S
C211 O231 1.289 . S
C212 C211 1.488 . S
C212 C213 1.348 . S
C212 C217 1.413 . S
C213 C212 1.348 . S
C213 C214 1.442 . S
C213 H240 0.930 . S
C214 C213 1.442 . S
C214 C215 1.381 . S
C214 H241 0.931 . S
C215 C214 1.381 . S
C215 C216 1.321 . S
C216 C215 1.321 . S
C216 C217 1.403 . S
C216 H242 0.934 . S
C217 C212 1.413 . S
C217 C216 1.403 . S
C217 H243 0.930 . S
C218 O232 1.275 1_655 S
C218 O233 1.256 1_655 S
C219 O234 1.259 . S
C219 O235 1.268 1_556 S
C220 Ho209 2.811 1_655 S
C220 C221 1.488 . S
C220 O236 1.239 . S
C220 O237 1.289 . S
C221 C220 1.488 . S
C221 C222 1.348 . S
C221 C226 1.413 . S
C222 C221 1.348 . S
C222 C223 1.442 . S
C222 H244 0.930 . S
C223 C222 1.442 . S
C223 C224 1.381 . S
C223 H245 0.931 . S
C224 C223 1.381 . S
C224 C225 1.321 . S
C225 C224 1.321 . S
C225 C226 1.403 . S
C225 H246 0.934 . S
C226 C221 1.413 . S
C226 C225 1.403 . S
C226 H247 0.930 . S
C227 O238 1.275 . S
C227 O239 1.256 . S
O228 Ho208 2.322 . S
O228 C210 1.259 . S
O229 Ho209 2.346 1_554 S
O229 C210 1.268 . S
O230 Ho208 2.378 . S
O230 C211 1.215 . S
O231 Ho208 2.524 . S
O231 C211 1.289 . S
O232 Ho208 2.381 . S
O232 C218 1.275 1_455 S
O233 Ho208 2.669 . S
O233 Ho209 2.305 1_554 S
O233 C218 1.256 1_455 S
O234 Ho209 2.322 1_655 S
O234 C219 1.259 . S
O235 Ho208 2.346 1_655 S
O235 C219 1.268 1_554 S
O236 Ho209 2.364 1_655 S
O236 C220 1.239 . S
O237 Ho209 2.524 1_655 S
O237 C220 1.289 . S
O238 Ho209 2.381 . S
O238 C227 1.275 . S
O239 Ho208 2.305 1_556 S
O239 Ho209 2.669 . S
O239 C227 1.256 . S
H240 C213 0.930 . S
H241 C214 0.931 . S
H242 C216 0.934 . S
H243 C217 0.930 . S
H244 C222 0.930 . S
H245 C223 0.931 . S
H246 C225 0.934 . S
H247 C226 0.930 . S
H248 C256 0.929 . S
H249 C258 0.930 . S
H250 C260 0.930 . S
H251 C263 0.929 . S
H252 C266 0.930 . S
H253 C268 0.960 . S
H254 C268 0.960 . S
H255 C268 0.960 . S
C256 H248 0.929 . S
C256 C257 1.377 . S
C256 C258 1.384 . S
C257 C256 1.377 . S
C257 C263 1.390 . S
C258 H249 0.930 . S
C258 C256 1.384 . S
C258 C259 1.372 . S
C259 C258 1.372 . S
C259 C260 1.400 . S
C259 C264 1.490 . S
C260 H250 0.930 . S
C260 C259 1.400 . S
C260 C263 1.386 . S
H261 C277 0.930 . S
H262 C278 0.931 . S
C263 H251 0.929 . S
C263 C257 1.390 . S
C263 C260 1.386 . S
C264 C259 1.490 . S
C264 C266 1.395 . S
C264 C267 1.403 . S
H265 C271 0.930 . S
C266 H252 0.930 . S
C266 C264 1.395 . S
C266 C269 1.403 . S
C267 C264 1.403 . S
C267 C268 1.524 . S
C267 C271 1.400 . S
C268 H253 0.960 . S
C268 H254 0.960 . S
C268 H255 0.960 . S
C268 C267 1.524 . S
C269 C266 1.403 . S
C269 C270 1.392 . S
C269 C273 1.495 . S
C270 C269 1.392 . S
C270 C271 1.385 . S
C270 C272 1.478 . S
C271 H265 0.930 . S
C271 C267 1.400 . S
C271 C270 1.385 . S
C272 C270 1.478 . S
C272 C274 1.381 . S
C272 C278 1.383 . S
C273 C269 1.495 . S
C273 H279 0.959 . S
C273 H280 0.961 . S
C273 H281 0.960 . S
C274 C272 1.381 . S
C274 C275 1.394 . S
C274 H282 0.930 . S
C275 C274 1.394 . S
C275 C276 1.383 . S
C275 H283 0.929 . S
C276 C275 1.383 . S
C276 C277 1.377 . S
C277 H261 0.930 . S
C277 C276 1.377 . S
C277 C278 1.379 . S
C278 H262 0.931 . S
C278 C272 1.383 . S
C278 C277 1.379 . S
H279 C273 0.959 . S
H280 C273 0.961 . S
H281 C273 0.960 . S
H282 C274 0.930 . S
H283 C275 0.929 . S
H284 C292 0.929 . S
H285 C294 0.930 . S
H286 C296 0.930 . S
H287 C299 0.929 . S
H288 C302 0.930 . S
H289 C304 0.960 . S
H290 C304 0.960 . S
H291 C304 0.960 . S
C292 H284 0.929 . S
C292 C293 1.377 . S
C292 C294 1.384 . S
C293 C292 1.377 . S
C293 C299 1.390 . S
C294 H285 0.930 . S
C294 C292 1.384 . S
C294 C295 1.372 . S
C295 C294 1.372 . S
C295 C296 1.400 . S
C295 C300 1.490 . S
C296 H286 0.930 . S
C296 C295 1.400 . S
C296 C299 1.386 . S
H297 C313 0.930 . S
H298 C314 0.931 . S
C299 H287 0.929 . S
C299 C293 1.390 . S
C299 C296 1.386 . S
C300 C295 1.490 . S
C300 C302 1.395 . S
C300 C303 1.403 . S
H301 C307 0.930 . S
C302 H288 0.930 . S
C302 C300 1.395 . S
C302 C305 1.403 . S
C303 C300 1.403 . S
C303 C304 1.524 . S
C303 C307 1.400 . S
C304 H289 0.960 . S
C304 H290 0.960 . S
C304 H291 0.960 . S
C304 C303 1.524 . S
C305 C302 1.403 . S
C305 C306 1.392 . S
C305 C309 1.495 . S
C306 C305 1.392 . S
C306 C307 1.385 . S
C306 C308 1.478 . S
C307 H301 0.930 . S
C307 C303 1.400 . S
C307 C306 1.385 . S
C308 C306 1.478 . S
C308 C310 1.381 . S
C308 C314 1.383 . S
C309 C305 1.495 . S
C309 H315 0.959 . S
C309 H316 0.961 . S
C309 H317 0.960 . S
C310 C308 1.381 . S
C310 C311 1.394 . S
C310 H318 0.930 . S
C311 C310 1.394 . S
C311 C312 1.383 . S
C311 H319 0.929 . S
C312 C311 1.383 . S
C312 C313 1.377 . S
C313 H297 0.930 . S
C313 C312 1.377 . S
C313 C314 1.379 . S
C314 H298 0.931 . S
C314 C308 1.383 . S
C314 C313 1.379 . S
H315 C309 0.959 . S
H316 C309 0.961 . S
H317 C309 0.960 . S
H318 C310 0.930 . S
H319 C311 0.929 . S
H320 C328 0.929 . S
H321 C330 0.930 . S
H322 C332 0.930 . S
H323 C335 0.929 . S
H324 C338 0.930 . S
H325 C340 0.960 . S
H326 C340 0.960 . S
H327 C340 0.960 . S
C328 H320 0.929 . S
C328 C329 1.377 . S
C328 C330 1.384 . S
C329 C328 1.377 . S
C329 C335 1.390 . S
C330 H321 0.930 . S
C330 C328 1.384 . S
C330 C331 1.372 . S
C331 C330 1.372 . S
C331 C332 1.400 . S
C331 C336 1.490 . S
C332 H322 0.930 . S
C332 C331 1.400 . S
C332 C335 1.386 . S
H333 C349 0.930 . S
H334 C350 0.931 . S
C335 H323 0.929 . S
C335 C329 1.390 . S
C335 C332 1.386 . S
C336 C331 1.490 . S
C336 C338 1.395 . S
C336 C339 1.403 . S
H337 C343 0.930 . S
C338 H324 0.930 . S
C338 C336 1.395 . S
C338 C341 1.403 . S
C339 C336 1.403 . S
C339 C340 1.524 . S
C339 C343 1.400 . S
C340 H325 0.960 . S
C340 H326 0.960 . S
C340 H327 0.960 . S
C340 C339 1.524 . S
C341 C338 1.403 . S
C341 C342 1.392 . S
C341 C345 1.495 . S
C342 C341 1.392 . S
C342 C343 1.385 . S
C342 C344 1.478 . S
C343 H337 0.930 . S
C343 C339 1.400 . S
C343 C342 1.385 . S
C344 C342 1.478 . S
C344 C346 1.381 . S
C344 C350 1.383 . S
C345 C341 1.495 . S
C345 H351 0.959 . S
C345 H352 0.961 . S
C345 H353 0.960 . S
C346 C344 1.381 . S
C346 C347 1.394 . S
C346 H354 0.930 . S
C347 C346 1.394 . S
C347 C348 1.383 . S
C347 H355 0.929 . S
C348 C347 1.383 . S
C348 C349 1.377 . S
C349 H333 0.930 . S
C349 C348 1.377 . S
C349 C350 1.379 . S
C350 H334 0.931 . S
C350 C344 1.383 . S
C350 C349 1.379 . S
H351 C345 0.959 . S
H352 C345 0.961 . S
H353 C345 0.960 . S
H354 C346 0.930 . S
H355 C347 0.929 . S
H356 C364 0.929 . S
H357 C366 0.930 . S
H358 C368 0.930 . S
H359 C371 0.929 . S
H360 C374 0.930 . S
H361 C376 0.960 . S
H362 C376 0.960 . S
H363 C376 0.960 . S
C364 H356 0.929 . S
C364 C365 1.377 . S
C364 C366 1.384 . S
C365 C364 1.377 . S
C365 C371 1.390 . S
C366 H357 0.930 . S
C366 C364 1.384 . S
C366 C367 1.372 . S
C367 C366 1.372 . S
C367 C368 1.400 . S
C367 C372 1.490 . S
C368 H358 0.930 . S
C368 C367 1.400 . S
C368 C371 1.386 . S
H369 C385 0.930 . S
H370 C386 0.931 . S
C371 H359 0.929 . S
C371 C365 1.390 . S
C371 C368 1.386 . S
C372 C367 1.490 . S
C372 C374 1.395 . S
C372 C375 1.403 . S
H373 C379 0.930 . S
C374 H360 0.930 . S
C374 C372 1.395 . S
C374 C377 1.403 . S
C375 C372 1.403 . S
C375 C376 1.524 . S
C375 C379 1.400 . S
C376 H361 0.960 . S
C376 H362 0.960 . S
C376 H363 0.960 . S
C376 C375 1.524 . S
C377 C374 1.403 . S
C377 C378 1.392 . S
C377 C381 1.480 1_655 S
C378 C377 1.392 . S
C378 C379 1.385 . S
C378 C380 1.478 . S
C379 H373 0.930 . S
C379 C375 1.400 . S
C379 C378 1.385 . S
C380 C378 1.478 . S
C380 C382 1.381 . S
C380 C386 1.383 . S
C381 C377 1.480 1_455 S
C381 H387 0.963 . S
C381 H388 0.976 . S
C381 H389 0.956 1_455 S
C382 C380 1.381 . S
C382 C383 1.394 . S
C382 H390 0.930 . S
C383 C382 1.394 . S
C383 C384 1.383 . S
C383 H391 0.929 . S
C384 C383 1.383 . S
C384 C385 1.377 . S
C385 H369 0.930 . S
C385 C384 1.377 . S
C385 C386 1.379 . S
C386 H370 0.931 . S
C386 C380 1.383 . S
C386 C385 1.379 . S
H387 C381 0.963 . S
H388 C381 0.976 . S
H389 C381 0.956 1_655 S
H390 C382 0.930 . S
H391 C383 0.929 . S
H392 C400 0.929 . S
H393 C402 0.930 . S
H394 C404 0.930 . S
H395 C407 0.929 . S
H396 C410 0.930 . S
H397 C412 0.960 . S
H398 C412 0.960 . S
H399 C412 0.960 . S
C400 H392 0.929 . S
C400 C401 1.377 . S
C400 C402 1.384 . S
C401 C400 1.377 . S
C401 C407 1.390 . S
C402 H393 0.930 . S
C402 C400 1.384 . S
C402 C403 1.372 . S
C403 C402 1.372 . S
C403 C404 1.400 . S
C403 C408 1.490 . S
C404 H394 0.930 . S
C404 C403 1.400 . S
C404 C407 1.386 . S
H405 C421 0.930 . S
H406 C422 0.931 . S
C407 H395 0.929 . S
C407 C401 1.390 . S
C407 C404 1.386 . S
C408 C403 1.490 . S
C408 C410 1.395 . S
C408 C411 1.403 . S
H409 C415 0.930 . S
C410 H396 0.930 . S
C410 C408 1.395 . S
C410 C413 1.403 . S
C411 C408 1.403 . S
C411 C412 1.524 . S
C411 C415 1.400 . S
C412 H397 0.960 . S
C412 H398 0.960 . S
C412 H399 0.960 . S
C412 C411 1.524 . S
C413 C410 1.403 . S
C413 C414 1.392 . S
C413 C417 1.495 . S
C414 C413 1.392 . S
C414 C415 1.385 . S
C414 C416 1.478 . S
C415 H409 0.930 . S
C415 C411 1.400 . S
C415 C414 1.385 . S
C416 C414 1.478 . S
C416 C418 1.381 . S
C416 C422 1.383 . S
C417 C413 1.495 . S
C417 H423 0.959 . S
C417 H424 0.961 . S
C417 H425 0.960 . S
C418 C416 1.381 . S
C418 C419 1.394 . S
C418 H426 0.930 . S
C419 C418 1.394 . S
C419 C420 1.383 . S
C419 H427 0.929 . S
C420 C419 1.383 . S
C420 C421 1.377 . S
C421 H405 0.930 . S
C421 C420 1.377 . S
C421 C422 1.379 . S
C422 H406 0.931 . S
C422 C416 1.383 . S
C422 C421 1.379 . S
H423 C417 0.959 . S
H424 C417 0.961 . S
H425 C417 0.960 . S
H426 C418 0.930 . S
H427 C419 0.929 . S
H428 C436 0.929 . S
H429 C438 0.930 . S
H430 C440 0.930 . S
H431 C443 0.929 . S
H432 C446 0.930 . S
H433 C448 0.960 . S
H434 C448 0.960 . S
H435 C448 0.960 . S
C436 H428 0.929 . S
C436 C437 1.377 . S
C436 C438 1.384 . S
C437 C436 1.377 . S
C437 C443 1.390 . S
C438 H429 0.930 . S
C438 C436 1.384 . S
C438 C439 1.372 . S
C439 C438 1.372 . S
C439 C440 1.400 . S
C439 C444 1.490 . S
C440 H430 0.930 . S
C440 C439 1.400 . S
C440 C443 1.386 . S
H441 C457 0.930 . S
H442 C458 0.931 . S
C443 H431 0.929 . S
C443 C437 1.390 . S
C443 C440 1.386 . S
C444 C439 1.490 . S
C444 C446 1.395 . S
C444 C447 1.403 . S
H445 C451 0.930 . S
C446 H432 0.930 . S
C446 C444 1.395 . S
C446 C449 1.403 . S
C447 C444 1.403 . S
C447 C448 1.524 . S
C447 C451 1.400 . S
C448 H433 0.960 . S
C448 H434 0.960 . S
C448 H435 0.960 . S
C448 C447 1.524 . S
C449 C446 1.403 . S
C449 C450 1.392 . S
C449 C453 1.495 . S
C450 C449 1.392 . S
C450 C451 1.385 . S
C450 C452 1.478 . S
C451 H445 0.930 . S
C451 C447 1.400 . S
C451 C450 1.385 . S
C452 C450 1.478 . S
C452 C454 1.381 . S
C452 C458 1.383 . S
C453 C449 1.495 . S
C453 H459 0.959 . S
C453 H460 0.961 . S
C453 H461 0.960 . S
C454 C452 1.381 . S
C454 C455 1.394 . S
C454 H462 0.930 . S
C455 C454 1.394 . S
C455 C456 1.383 . S
C455 H463 0.929 . S
C456 C455 1.383 . S
C456 C457 1.377 . S
C457 H441 0.930 . S
C457 C456 1.377 . S
C457 C458 1.379 . S
C458 H442 0.931 . S
C458 C452 1.383 . S
C458 C457 1.379 . S
H459 C453 0.959 . S
H460 C453 0.961 . S
H461 C453 0.960 . S
H462 C454 0.930 . S
H463 C455 0.929 . S
H464 C472 0.929 . S
H465 C474 0.930 . S
H466 C476 0.930 . S
H467 C479 0.929 . S
H468 C482 0.930 . S
H469 C484 0.960 . S
H470 C484 0.960 . S
H471 C484 0.960 . S
C472 H464 0.929 . S
C472 C473 1.377 . S
C472 C474 1.384 . S
C473 C472 1.377 . S
C473 C479 1.390 . S
C474 H465 0.930 . S
C474 C472 1.384 . S
C474 C475 1.372 . S
C475 C474 1.372 . S
C475 C476 1.400 . S
C475 C480 1.490 . S
C476 H466 0.930 . S
C476 C475 1.400 . S
C476 C479 1.386 . S
H477 C493 0.930 . S
H478 C494 0.931 . S
C479 H467 0.929 . S
C479 C473 1.390 . S
C479 C476 1.386 . S
C480 C475 1.490 . S
C480 C482 1.395 . S
C480 C483 1.403 . S
H481 C487 0.930 . S
C482 H468 0.930 . S
C482 C480 1.395 . S
C482 C485 1.403 . S
C483 C480 1.403 . S
C483 C484 1.524 . S
C483 C487 1.400 . S
C484 H469 0.960 . S
C484 H470 0.960 . S
C484 H471 0.960 . S
C484 C483 1.524 . S
C485 C482 1.403 . S
C485 C486 1.392 . S
C485 C489 1.495 . S
C486 C485 1.392 . S
C486 C487 1.385 . S
C486 C488 1.478 . S
C487 H481 0.930 . S
C487 C483 1.400 . S
C487 C486 1.385 . S
C488 C486 1.478 . S
C488 C490 1.381 . S
C488 C494 1.383 . S
C489 C485 1.495 . S
C489 H495 0.959 . S
C489 H496 0.961 . S
C489 H497 0.960 . S
C490 C488 1.381 . S
C490 C491 1.394 . S
C490 H498 0.930 . S
C491 C490 1.394 . S
C491 C492 1.383 . S
C491 H499 0.929 . S
C492 C491 1.383 . S
C492 C493 1.377 . S
C493 H477 0.930 . S
C493 C492 1.377 . S
C493 C494 1.379 . S
C494 H478 0.931 . S
C494 C488 1.383 . S
C494 C493 1.379 . S
H495 C489 0.959 . S
H496 C489 0.961 . S
H497 C489 0.960 . S
H498 C490 0.930 . S
H499 C491 0.929 . S
H500 C508 0.929 . S
H501 C510 0.930 . S
H502 C512 0.930 . S
H503 C515 0.929 . S
H504 C518 0.930 . S
H505 C520 0.960 . S
H506 C520 0.960 . S
H507 C520 0.960 . S
C508 H500 0.929 . S
C508 C509 1.377 . S
C508 C510 1.384 . S
C509 C508 1.377 . S
C509 C515 1.390 . S
C510 H501 0.930 . S
C510 C508 1.384 . S
C510 C511 1.372 . S
C511 C510 1.372 . S
C511 C512 1.400 . S
C511 C516 1.490 . S
C512 H502 0.930 . S
C512 C511 1.400 . S
C512 C515 1.386 . S
H513 C529 0.930 . S
H514 C530 0.931 . S
C515 H503 0.929 . S
C515 C509 1.390 . S
C515 C512 1.386 . S
C516 C511 1.490 . S
C516 C518 1.395 . S
C516 C519 1.403 . S
H517 C523 0.930 . S
C518 H504 0.930 . S
C518 C516 1.395 . S
C518 C521 1.403 . S
C519 C516 1.403 . S
C519 C520 1.524 . S
C519 C523 1.400 . S
C520 H505 0.960 . S
C520 H506 0.960 . S
C520 H507 0.960 . S
C520 C519 1.524 . S
C521 C518 1.403 . S
C521 C522 1.392 . S
C521 C525 1.495 . S
C522 C521 1.392 . S
C522 C523 1.385 . S
C522 C524 1.478 . S
C523 H517 0.930 . S
C523 C519 1.400 . S
C523 C522 1.385 . S
C524 C522 1.478 . S
C524 C526 1.381 . S
C524 C530 1.383 . S
C525 C521 1.495 . S
C525 H531 0.959 . S
C525 H532 0.961 . S
C525 H533 0.960 . S
C526 C524 1.381 . S
C526 C527 1.394 . S
C526 H534 0.930 . S
C527 C526 1.394 . S
C527 C528 1.383 . S
C527 H535 0.929 . S
C528 C527 1.383 . S
C528 C529 1.377 . S
C529 H513 0.930 . S
C529 C528 1.377 . S
C529 C530 1.379 . S
C530 H514 0.931 . S
C530 C524 1.383 . S
C530 C529 1.379 . S
H531 C525 0.959 . S
H532 C525 0.961 . S
H533 C525 0.960 . S
H534 C526 0.930 . S
H535 C527 0.929 . S
H536 C544 0.929 . S
H537 C546 0.930 . S
H538 C548 0.930 . S
H539 C551 0.929 . S
H540 C554 0.930 . S
H541 C556 0.960 . S
H542 C556 0.960 . S
H543 C556 0.960 . S
C544 H536 0.929 . S
C544 C545 1.377 . S
C544 C546 1.384 . S
C545 C544 1.377 . S
C545 C551 1.390 . S
C546 H537 0.930 . S
C546 C544 1.384 . S
C546 C547 1.372 . S
C547 C546 1.372 . S
C547 C548 1.400 . S
C547 C552 1.490 . S
C548 H538 0.930 . S
C548 C547 1.400 . S
C548 C551 1.386 . S
H549 C565 0.930 . S
H550 C566 0.931 . S
C551 H539 0.929 . S
C551 C545 1.390 . S
C551 C548 1.386 . S
C552 C547 1.490 . S
C552 C554 1.395 . S
C552 C555 1.403 . S
H553 C559 0.930 . S
C554 H540 0.930 . S
C554 C552 1.395 . S
C554 C557 1.403 . S
C555 C552 1.403 . S
C555 C556 1.524 . S
C555 C559 1.400 . S
C556 H541 0.960 . S
C556 H542 0.960 . S
C556 H543 0.960 . S
C556 C555 1.524 . S
C557 C554 1.403 . S
C557 C558 1.392 . S
C557 C561 1.495 . S
C558 C557 1.392 . S
C558 C559 1.385 . S
C558 C560 1.478 . S
C559 H553 0.930 . S
C559 C555 1.400 . S
C559 C558 1.385 . S
C560 C558 1.478 . S
C560 C562 1.381 . S
C560 C566 1.383 . S
C561 C557 1.495 . S
C561 H567 0.959 . S
C561 H568 0.961 . S
C561 H569 0.960 . S
C562 C560 1.381 . S
C562 C563 1.394 . S
C562 H570 0.930 . S
C563 C562 1.394 . S
C563 C564 1.383 . S
C563 H571 0.929 . S
C564 C563 1.383 . S
C564 C565 1.377 . S
C565 H549 0.930 . S
C565 C564 1.377 . S
C565 C566 1.379 . S
C566 H550 0.931 . S
C566 C560 1.383 . S
C566 C565 1.379 . S
H567 C561 0.959 . S
H568 C561 0.961 . S
H569 C561 0.960 . S
H570 C562 0.930 . S
H571 C563 0.929 . S
H572 C580 0.929 . S
H573 C582 0.930 . S
H574 C584 0.930 . S
H575 C587 0.929 . S
H576 C590 0.930 . S
H577 C592 0.960 . S
H578 C592 0.960 . S
H579 C592 0.960 . S
C580 H572 0.929 . S
C580 C581 1.377 . S
C580 C582 1.384 . S
C581 C580 1.377 . S
C581 C587 1.390 . S
C582 H573 0.930 . S
C582 C580 1.384 . S
C582 C583 1.372 . S
C583 C582 1.372 . S
C583 C584 1.400 . S
C583 C588 1.490 . S
C584 H574 0.930 . S
C584 C583 1.400 . S
C584 C587 1.386 . S
H585 C601 0.930 . S
H586 C602 0.931 . S
C587 H575 0.929 . S
C587 C581 1.390 . S
C587 C584 1.386 . S
C588 C583 1.490 . S
C588 C590 1.395 . S
C588 C591 1.403 . S
H589 C595 0.930 . S
C590 H576 0.930 . S
C590 C588 1.395 . S
C590 C593 1.403 . S
C591 C588 1.403 . S
C591 C592 1.524 . S
C591 C595 1.400 . S
C592 H577 0.960 . S
C592 H578 0.960 . S
C592 H579 0.960 . S
C592 C591 1.524 . S
C593 C590 1.403 . S
C593 C594 1.392 . S
C593 C597 1.495 . S
C594 C593 1.392 . S
C594 C595 1.385 . S
C594 C596 1.478 . S
C595 H589 0.930 . S
C595 C591 1.400 . S
C595 C594 1.385 . S
C596 C594 1.478 . S
C596 C598 1.381 . S
C596 C602 1.383 1_556 S
C597 C593 1.495 . S
C597 H603 0.959 . S
C597 H604 0.961 . S
C597 H605 0.960 . S
C598 C596 1.381 . S
C598 C599 1.394 . S
C598 H606 0.930 . S
C599 C598 1.394 . S
C599 C600 1.383 1_556 S
C599 H607 0.929 . S
C600 C599 1.383 1_554 S
C600 C601 1.377 . S
C601 H585 0.930 . S
C601 C600 1.377 . S
C601 C602 1.379 . S
C602 H586 0.931 . S
C602 C596 1.383 1_554 S
C602 C601 1.379 . S
H603 C597 0.959 . S
H604 C597 0.961 . S
H605 C597 0.960 . S
H606 C598 0.930 . S
H607 C599 0.929 . S
H608 C616 0.929 . S
H609 C618 0.930 . S
H610 C620 0.930 . S
H611 C623 0.929 . S
H612 C626 0.930 . S
H613 C628 0.960 . S
H614 C628 0.960 . S
H615 C628 0.960 . S
C616 H608 0.929 . S
C616 C617 1.377 . S
C616 C618 1.384 . S
C617 C616 1.377 . S
C617 C623 1.390 . S
C618 H609 0.930 . S
C618 C616 1.384 . S
C618 C619 1.372 . S
C619 C618 1.372 . S
C619 C620 1.400 . S
C619 C624 1.490 . S
C620 H610 0.930 . S
C620 C619 1.400 . S
C620 C623 1.386 . S
H621 C637 0.930 . S
H622 C638 0.931 . S
C623 H611 0.929 . S
C623 C617 1.390 . S
C623 C620 1.386 . S
C624 C619 1.490 . S
C624 C626 1.395 . S
C624 C627 1.403 . S
H625 C631 0.930 . S
C626 H612 0.930 . S
C626 C624 1.395 . S
C626 C629 1.403 . S
C627 C624 1.403 . S
C627 C628 1.524 . S
C627 C631 1.400 . S
C628 H613 0.960 . S
C628 H614 0.960 . S
C628 H615 0.960 . S
C628 C627 1.524 . S
C629 C626 1.403 . S
C629 C630 1.392 . S
C629 C633 1.495 . S
C630 C629 1.392 . S
C630 C631 1.385 . S
C630 C632 1.478 . S
C631 H625 0.930 . S
C631 C627 1.400 . S
C631 C630 1.385 . S
C632 C630 1.478 . S
C632 C634 1.381 . S
C632 C638 1.383 . S
C633 C629 1.495 . S
C633 H639 0.959 . S
C633 H640 0.961 . S
C633 H641 0.960 . S
C634 C632 1.381 . S
C634 C635 1.394 . S
C634 H642 0.930 . S
C635 C634 1.394 . S
C635 C636 1.383 . S
C635 H643 0.929 . S
C636 C635 1.383 . S
C636 C637 1.377 . S
C637 H621 0.930 . S
C637 C636 1.377 . S
C637 C638 1.379 . S
C638 H622 0.931 . S
C638 C632 1.383 . S
C638 C637 1.379 . S
H639 C633 0.959 . S
H640 C633 0.961 . S
H641 C633 0.960 . S
H642 C634 0.930 . S
H643 C635 0.929 . S
H644 C652 0.929 . S
H645 C654 0.930 . S
H646 C656 0.930 . S
H647 C659 0.929 . S
H648 C662 0.930 . S
H649 C664 0.960 . S
H650 C664 0.960 . S
H651 C664 0.960 . S
C652 H644 0.929 . S
C652 C653 1.377 . S
C652 C654 1.384 . S
C653 C652 1.377 . S
C653 C659 1.390 . S
C654 H645 0.930 . S
C654 C652 1.384 . S
C654 C655 1.372 . S
C655 C654 1.372 . S
C655 C656 1.400 . S
C655 C660 1.490 . S
C656 H646 0.930 . S
C656 C655 1.400 . S
C656 C659 1.386 . S
H657 C673 0.930 . S
H658 C674 0.931 . S
C659 H647 0.929 . S
C659 C653 1.390 . S
C659 C656 1.386 . S
C660 C655 1.490 . S
C660 C662 1.395 . S
C660 C663 1.403 . S
H661 C667 0.930 . S
C662 H648 0.930 . S
C662 C660 1.395 . S
C662 C665 1.403 . S
C663 C660 1.403 . S
C663 C664 1.524 . S
C663 C667 1.400 . S
C664 H649 0.960 . S
C664 H650 0.960 . S
C664 H651 0.960 . S
C664 C663 1.524 . S
C665 C662 1.403 . S
C665 C666 1.392 . S
C665 C669 1.495 . S
C666 C665 1.392 . S
C666 C667 1.385 . S
C666 C668 1.478 . S
C667 H661 0.930 . S
C667 C663 1.400 . S
C667 C666 1.385 . S
C668 C666 1.478 . S
C668 C670 1.381 . S
C668 C674 1.383 . S
C669 C665 1.495 . S
C669 H675 0.959 . S
C669 H676 0.961 . S
C669 H677 0.960 . S
C670 C668 1.381 . S
C670 C671 1.394 . S
C670 H678 0.930 . S
C671 C670 1.394 . S
C671 C672 1.383 . S
C671 H679 0.929 . S
C672 C671 1.383 . S
C672 C673 1.377 . S
C673 H657 0.930 . S
C673 C672 1.377 . S
C673 C674 1.379 . S
C674 H658 0.931 . S
C674 C668 1.383 . S
C674 C673 1.379 . S
H675 C669 0.959 . S
H676 C669 0.961 . S
H677 C669 0.960 . S
H678 C670 0.930 . S
H679 C671 0.929 . S
H680 C688 0.929 . S
H681 C690 0.930 . S
H682 C692 0.930 . S
H683 C695 0.929 . S
H684 C698 0.930 . S
H685 C700 0.960 . S
H686 C700 0.960 . S
H687 C700 0.960 . S
C688 H680 0.929 . S
C688 C689 1.377 . S
C688 C690 1.384 . S
C689 C688 1.377 . S
C689 C695 1.390 . S
C690 H681 0.930 . S
C690 C688 1.384 . S
C690 C691 1.372 . S
C691 C690 1.372 . S
C691 C692 1.400 . S
C691 C696 1.490 . S
C692 H682 0.930 . S
C692 C691 1.400 . S
C692 C695 1.386 . S
H693 C709 0.930 . S
H694 C710 0.931 . S
C695 H683 0.929 . S
C695 C689 1.390 . S
C695 C692 1.386 . S
C696 C691 1.490 . S
C696 C698 1.395 . S
C696 C699 1.403 . S
H697 C703 0.930 . S
C698 H684 0.930 . S
C698 C696 1.395 . S
C698 C701 1.403 . S
C699 C696 1.403 . S
C699 C700 1.524 . S
C699 C703 1.400 . S
C700 H685 0.960 . S
C700 H686 0.960 . S
C700 H687 0.960 . S
C700 C699 1.524 . S
C701 C698 1.403 . S
C701 C702 1.392 . S
C701 C705 1.495 . S
C702 C701 1.392 . S
C702 C703 1.385 . S
C702 C704 1.478 . S
C703 H697 0.930 . S
C703 C699 1.400 . S
C703 C702 1.385 . S
C704 C702 1.478 . S
C704 C706 1.381 . S
C704 C710 1.383 . S
C705 C701 1.495 . S
C705 H711 0.959 . S
C705 H712 0.961 . S
C705 H713 0.960 . S
C706 C704 1.381 . S
C706 C707 1.394 . S
C706 H714 0.930 . S
C707 C706 1.394 . S
C707 C708 1.383 . S
C707 H715 0.929 . S
C708 C707 1.383 . S
C708 C709 1.377 . S
C709 H693 0.930 . S
C709 C708 1.377 . S
C709 C710 1.379 . S
C710 H694 0.931 . S
C710 C704 1.383 . S
C710 C709 1.379 . S
H711 C705 0.959 . S
H712 C705 0.961 . S
H713 C705 0.960 . S
H714 C706 0.930 . S
H715 C707 0.929 . S
H716 C724 0.929 . S
H717 C726 0.930 . S
H718 C728 0.930 . S
H719 C731 0.929 . S
H720 C734 0.930 . S
H721 C736 0.960 . S
H722 C736 0.960 . S
H723 C736 0.960 . S
C724 H716 0.929 . S
C724 C725 1.377 . S
C724 C726 1.384 . S
C725 C724 1.377 . S
C725 C731 1.390 . S
C726 H717 0.930 . S
C726 C724 1.384 . S
C726 C727 1.372 . S
C727 C726 1.372 . S
C727 C728 1.400 . S
C727 C732 1.490 . S
C728 H718 0.930 . S
C728 C727 1.400 . S
C728 C731 1.386 . S
H729 C745 0.930 . S
H730 C746 0.931 . S
C731 H719 0.929 . S
C731 C725 1.390 . S
C731 C728 1.386 . S
C732 C727 1.490 . S
C732 C734 1.395 . S
C732 C735 1.403 . S
H733 C739 0.930 . S
C734 H720 0.930 . S
C734 C732 1.395 . S
C734 C737 1.403 . S
C735 C732 1.403 . S
C735 C736 1.524 . S
C735 C739 1.400 . S
C736 H721 0.960 . S
C736 H722 0.960 . S
C736 H723 0.960 . S
C736 C735 1.524 . S
C737 C734 1.403 . S
C737 C738 1.392 . S
C737 C741 1.495 . S
C738 C737 1.392 . S
C738 C739 1.385 . S
C738 C740 1.478 . S
C739 H733 0.930 . S
C739 C735 1.400 . S
C739 C738 1.385 . S
C740 C738 1.478 . S
C740 C742 1.381 . S
C740 C746 1.383 . S
C741 C737 1.495 . S
C741 H747 0.959 . S
C741 H748 0.961 . S
C741 H749 0.960 . S
C742 C740 1.381 . S
C742 C743 1.394 . S
C742 H750 0.930 . S
C743 C742 1.394 . S
C743 C744 1.383 . S
C743 H751 0.929 . S
C744 C743 1.383 . S
C744 C745 1.377 . S
C745 H729 0.930 . S
C745 C744 1.377 . S
C745 C746 1.379 . S
C746 H730 0.931 . S
C746 C740 1.383 . S
C746 C745 1.379 . S
H747 C741 0.959 . S
H748 C741 0.961 . S
H749 C741 0.960 . S
H750 C742 0.930 . S
H751 C743 0.929 . S
H752 C760 0.929 . S
H753 C762 0.930 . S
H754 C764 0.930 . S
H755 C767 0.929 . S
H756 C770 0.930 . S
H757 C772 0.960 . S
H758 C772 0.960 . S
H759 C772 0.960 . S
C760 H752 0.929 . S
C760 C761 1.377 . S
C760 C762 1.384 . S
C761 C760 1.377 . S
C761 C767 1.390 . S
C762 H753 0.930 . S
C762 C760 1.384 . S
C762 C763 1.372 . S
C763 C762 1.372 . S
C763 C764 1.400 . S
C763 C768 1.490 . S
C764 H754 0.930 . S
C764 C763 1.400 . S
C764 C767 1.386 . S
H765 C781 0.930 . S
H766 C782 0.931 . S
C767 H755 0.929 . S
C767 C761 1.390 . S
C767 C764 1.386 . S
C768 C763 1.490 . S
C768 C770 1.395 . S
C768 C771 1.403 . S
H769 C775 0.930 . S
C770 H756 0.930 . S
C770 C768 1.395 . S
C770 C773 1.403 . S
C771 C768 1.403 . S
C771 C772 1.524 . S
C771 C775 1.400 . S
C772 H757 0.960 . S
C772 H758 0.960 . S
C772 H759 0.960 . S
C772 C771 1.524 . S
C773 C770 1.403 . S
C773 C774 1.392 . S
C773 C777 1.495 . S
C774 C773 1.392 . S
C774 C775 1.385 . S
C774 C776 1.478 . S
C775 H769 0.930 . S
C775 C771 1.400 . S
C775 C774 1.385 . S
C776 C774 1.478 . S
C776 C778 1.381 . S
C776 C782 1.383 . S
C777 C773 1.495 . S
C777 H783 0.959 . S
C777 H784 0.961 . S
C777 H785 0.960 . S
C778 C776 1.381 . S
C778 C779 1.394 . S
C778 H786 0.930 . S
C779 C778 1.394 . S
C779 C780 1.383 . S
C779 H787 0.929 . S
C780 C779 1.383 . S
C780 C781 1.377 . S
C781 H765 0.930 . S
C781 C780 1.377 . S
C781 C782 1.379 . S
C782 H766 0.931 . S
C782 C776 1.383 . S
C782 C781 1.379 . S
H783 C777 0.959 . S
H784 C777 0.961 . S
H785 C777 0.960 . S
H786 C778 0.930 . S
H787 C779 0.929 . S
H788 C796 0.929 . S
H789 C798 0.930 . S
H790 C800 0.930 . S
H791 C803 0.929 . S
H792 C806 0.930 . S
H793 C808 0.960 . S
H794 C808 0.960 . S
H795 C808 0.960 . S
C796 H788 0.929 . S
C796 C797 1.377 . S
C796 C798 1.384 . S
C797 C796 1.377 . S
C797 C803 1.390 . S
C798 H789 0.930 . S
C798 C796 1.384 . S
C798 C799 1.372 . S
C799 C798 1.372 . S
C799 C800 1.400 . S
C799 C804 1.490 . S
C800 H790 0.930 . S
C800 C799 1.400 . S
C800 C803 1.386 . S
H801 C817 0.930 . S
H802 C818 0.931 . S
C803 H791 0.929 . S
C803 C797 1.390 . S
C803 C800 1.386 . S
C804 C799 1.490 . S
C804 C806 1.395 . S
C804 C807 1.403 . S
H805 C811 0.930 . S
C806 H792 0.930 . S
C806 C804 1.395 . S
C806 C809 1.403 . S
C807 C804 1.403 . S
C807 C808 1.524 . S
C807 C811 1.400 . S
C808 H793 0.960 . S
C808 H794 0.960 . S
C808 H795 0.960 . S
C808 C807 1.524 . S
C809 C806 1.403 . S
C809 C810 1.392 . S
C809 C813 1.495 . S
C810 C809 1.392 . S
C810 C811 1.385 . S
C810 C812 1.478 . S
C811 H805 0.930 . S
C811 C807 1.400 . S
C811 C810 1.385 . S
C812 C810 1.478 . S
C812 C814 1.381 . S
C812 C818 1.383 . S
C813 C809 1.495 . S
C813 H819 0.959 . S
C813 H820 0.961 . S
C813 H821 0.960 . S
C814 C812 1.381 . S
C814 C815 1.394 . S
C814 H822 0.930 . S
C815 C814 1.394 . S
C815 C816 1.383 . S
C815 H823 0.929 . S
C816 C815 1.383 . S
C816 C817 1.377 . S
C817 H801 0.930 . S
C817 C816 1.377 . S
C817 C818 1.379 . S
C818 H802 0.931 . S
C818 C812 1.383 . S
C818 C817 1.379 . S
H819 C813 0.959 . S
H820 C813 0.961 . S
H821 C813 0.960 . S
H822 C814 0.930 . S
H823 C815 0.929 . S
H824 C832 0.929 . S
H825 C834 0.930 . S
H826 C836 0.930 . S
H827 C839 0.929 . S
H828 C842 0.930 . S
H829 C844 0.960 . S
H830 C844 0.960 . S
H831 C844 0.960 . S
C832 H824 0.929 . S
C832 C833 1.377 . S
C832 C834 1.384 . S
C833 C832 1.377 . S
C833 C839 1.390 . S
C834 H825 0.930 . S
C834 C832 1.384 . S
C834 C835 1.372 . S
C835 C834 1.372 . S
C835 C836 1.400 . S
C835 C840 1.490 . S
C836 H826 0.930 . S
C836 C835 1.400 . S
C836 C839 1.386 . S
H837 C853 0.930 . S
H838 C854 0.931 . S
C839 H827 0.929 . S
C839 C833 1.390 . S
C839 C836 1.386 . S
C840 C835 1.490 . S
C840 C842 1.395 . S
C840 C843 1.403 . S
H841 C847 0.930 . S
C842 H828 0.930 . S
C842 C840 1.395 . S
C842 C845 1.403 . S
C843 C840 1.403 . S
C843 C844 1.524 . S
C843 C847 1.400 . S
C844 H829 0.960 . S
C844 H830 0.960 . S
C844 H831 0.960 . S
C844 C843 1.524 . S
C845 C842 1.403 . S
C845 C846 1.392 . S
C845 C849 1.495 . S
C846 C845 1.392 . S
C846 C847 1.385 . S
C846 C848 1.478 . S
C847 H841 0.930 . S
C847 C843 1.400 . S
C847 C846 1.385 . S
C848 C846 1.478 . S
C848 C850 1.381 . S
C848 C854 1.383 . S
C849 C845 1.495 . S
C849 H855 0.959 . S
C849 H856 0.961 . S
C849 H857 0.960 . S
C850 C848 1.381 . S
C850 C851 1.394 . S
C850 H858 0.930 . S
C851 C850 1.394 . S
C851 C852 1.383 . S
C851 H859 0.929 1_556 S
C852 C851 1.383 . S
C852 C853 1.377 . S
C853 H837 0.930 . S
C853 C852 1.377 . S
C853 C854 1.379 . S
C854 H838 0.931 . S
C854 C848 1.383 . S
C854 C853 1.379 . S
H855 C849 0.959 . S
H856 C849 0.961 . S
H857 C849 0.960 . S
H858 C850 0.930 . S
H859 C851 0.929 1_554 S
H860 C868 0.929 . S
H861 C870 0.930 . S
H862 C872 0.930 . S
H863 C875 0.929 . S
H864 C878 0.930 . S
H865 C880 0.960 . S
H866 C880 0.960 . S
H867 C880 0.960 . S
C868 H860 0.929 . S
C868 C869 1.377 . S
C868 C870 1.384 . S
C869 C868 1.377 . S
C869 C875 1.390 . S
C870 H861 0.930 . S
C870 C868 1.384 . S
C870 C871 1.372 . S
C871 C870 1.372 . S
C871 C872 1.400 . S
C871 C876 1.490 . S
C872 H862 0.930 . S
C872 C871 1.400 . S
C872 C875 1.386 . S
H873 C889 0.930 . S
H874 C890 0.931 . S
C875 H863 0.929 . S
C875 C869 1.390 . S
C875 C872 1.386 . S
C876 C871 1.490 . S
C876 C878 1.395 . S
C876 C879 1.403 . S
H877 C883 0.930 . S
C878 H864 0.930 . S
C878 C876 1.395 . S
C878 C881 1.403 . S
C879 C876 1.403 . S
C879 C880 1.524 . S
C879 C883 1.400 . S
C880 H865 0.960 . S
C880 H866 0.960 . S
C880 H867 0.960 . S
C880 C879 1.524 . S
C881 C878 1.403 . S
C881 C882 1.392 . S
C881 C885 1.495 . S
C882 C881 1.392 . S
C882 C883 1.385 . S
C882 C884 1.478 . S
C883 H877 0.930 . S
C883 C879 1.400 . S
C883 C882 1.385 . S
C884 C882 1.478 . S
C884 C886 1.381 . S
C884 C890 1.383 . S
C885 C881 1.495 . S
C885 H891 0.959 . S
C885 H892 0.961 . S
C885 H893 0.960 . S
C886 C884 1.381 . S
C886 C887 1.394 . S
C886 H894 0.930 . S
C887 C886 1.394 . S
C887 C888 1.383 . S
C887 H895 0.929 . S
C888 C887 1.383 . S
C888 C889 1.377 . S
C889 H873 0.930 . S
C889 C888 1.377 . S
C889 C890 1.379 . S
C890 H874 0.931 . S
C890 C884 1.383 . S
C890 C889 1.379 . S
H891 C885 0.959 . S
H892 C885 0.961 . S
H893 C885 0.960 . S
H894 C886 0.930 . S
H895 C887 0.929 . S
H896 C904 0.929 . S
H897 C906 0.930 . S
H898 C908 0.930 . S
H899 C911 0.929 . S
H900 C914 0.930 . S
H901 C916 0.960 . S
H902 C916 0.960 . S
H903 C916 0.960 . S
C904 H896 0.929 . S
C904 C905 1.377 . S
C904 C906 1.384 . S
C905 C904 1.377 . S
C905 C911 1.390 . S
C906 H897 0.930 . S
C906 C904 1.384 . S
C906 C907 1.372 . S
C907 C906 1.372 . S
C907 C908 1.400 . S
C907 C912 1.490 . S
C908 H898 0.930 . S
C908 C907 1.400 . S
C908 C911 1.386 . S
H909 C925 0.930 . S
H910 C926 0.931 . S
C911 H899 0.929 . S
C911 C905 1.390 . S
C911 C908 1.386 . S
C912 C907 1.490 . S
C912 C914 1.395 . S
C912 C915 1.403 . S
H913 C919 0.930 . S
C914 H900 0.930 . S
C914 C912 1.395 . S
C914 C917 1.403 . S
C915 C912 1.403 . S
C915 C916 1.524 . S
C915 C919 1.400 . S
C916 H901 0.960 . S
C916 H902 0.960 . S
C916 H903 0.960 . S
C916 C915 1.524 . S
C917 C914 1.403 . S
C917 C918 1.392 . S
C917 C921 1.495 . S
C918 C917 1.392 . S
C918 C919 1.385 . S
C918 C920 1.478 . S
C919 H913 0.930 . S
C919 C915 1.400 . S
C919 C918 1.385 . S
C920 C918 1.478 . S
C920 C922 1.381 . S
C920 C926 1.383 . S
C921 C917 1.495 . S
C921 H927 0.959 . S
C921 H928 0.961 . S
C921 H929 0.960 . S
C922 C920 1.381 . S
C922 C923 1.394 . S
C922 H930 0.930 . S
C923 C922 1.394 . S
C923 C924 1.383 . S
C923 H931 0.929 . S
C924 C923 1.383 . S
C924 C925 1.377 . S
C925 H909 0.930 . S
C925 C924 1.377 . S
C925 C926 1.379 . S
C926 H910 0.931 . S
C926 C920 1.383 . S
C926 C925 1.379 . S
H927 C921 0.959 . S
H928 C921 0.961 . S
H929 C921 0.960 . S
H930 C922 0.930 . S
H931 C923 0.929 . S
H932 C940 0.929 . S
H933 C942 0.930 . S
H934 C944 0.930 . S
H935 C947 0.929 . S
H936 C950 0.930 . S
H937 C952 0.960 . S
H938 C952 0.960 . S
H939 C952 0.960 . S
C940 H932 0.929 . S
C940 C941 1.377 . S
C940 C942 1.384 . S
C941 C940 1.377 . S
C941 C947 1.390 . S
C942 H933 0.930 . S
C942 C940 1.384 . S
C942 C943 1.372 . S
C943 C942 1.372 . S
C943 C944 1.400 . S
C943 C948 1.490 . S
C944 H934 0.930 . S
C944 C943 1.400 . S
C944 C947 1.386 . S
H945 C961 0.930 . S
H946 C962 0.931 . S
C947 H935 0.929 . S
C947 C941 1.390 . S
C947 C944 1.386 . S
C948 C943 1.490 . S
C948 C950 1.395 . S
C948 C951 1.403 . S
H949 C955 0.930 . S
C950 H936 0.930 . S
C950 C948 1.395 . S
C950 C953 1.403 . S
C951 C948 1.403 . S
C951 C952 1.524 . S
C951 C955 1.400 . S
C952 H937 0.960 . S
C952 H938 0.960 . S
C952 H939 0.960 . S
C952 C951 1.524 . S
C953 C950 1.403 . S
C953 C954 1.392 . S
C953 C957 1.495 . S
C954 C953 1.392 . S
C954 C955 1.385 . S
C954 C956 1.478 . S
C955 H949 0.930 . S
C955 C951 1.400 . S
C955 C954 1.385 . S
C956 C954 1.478 . S
C956 C958 1.381 . S
C956 C962 1.383 . S
C957 C953 1.495 . S
C957 H963 0.959 . S
C957 H964 0.961 . S
C957 H965 0.960 . S
C958 C956 1.381 . S
C958 C959 1.394 . S
C958 H966 0.930 . S
C959 C958 1.394 . S
C959 C960 1.383 . S
C959 H967 0.929 . S
C960 C959 1.383 . S
C960 C961 1.377 . S
C961 H945 0.930 . S
C961 C960 1.377 . S
C961 C962 1.379 . S
C962 H946 0.931 . S
C962 C956 1.383 . S
C962 C961 1.379 . S
H963 C957 0.959 . S
H964 C957 0.961 . S
H965 C957 0.960 . S
H966 C958 0.930 . S
H967 C959 0.929 . S
H968 C976 0.929 . S
H969 C978 0.930 . S
H970 C980 0.930 . S
H971 C983 0.929 . S
H972 C986 0.930 . S
H973 C988 0.960 . S
H974 C988 0.960 . S
H975 C988 0.960 . S
C976 H968 0.929 . S
C976 C977 1.377 . S
C976 C978 1.384 . S
C977 C976 1.377 . S
C977 C983 1.390 . S
C978 H969 0.930 . S
C978 C976 1.384 . S
C978 C979 1.372 . S
C979 C978 1.372 . S
C979 C980 1.400 . S
C979 C984 1.490 . S
C980 H970 0.930 . S
C980 C979 1.400 . S
C980 C983 1.386 . S
H981 C997 0.930 . S
H982 C998 0.931 . S
C983 H971 0.929 . S
C983 C977 1.390 . S
C983 C980 1.386 . S
C984 C979 1.490 . S
C984 C986 1.395 . S
C984 C987 1.403 . S
H985 C991 0.930 . S
C986 H972 0.930 . S
C986 C984 1.395 . S
C986 C989 1.403 . S
C987 C984 1.403 . S
C987 C988 1.524 . S
C987 C991 1.400 . S
C988 H973 0.960 . S
C988 H974 0.960 . S
C988 H975 0.960 . S
C988 C987 1.524 . S
C989 C986 1.403 . S
C989 C990 1.392 . S
C989 C993 1.495 . S
C990 C989 1.392 . S
C990 C991 1.385 . S
C990 C992 1.478 . S
C991 H985 0.930 . S
C991 C987 1.400 . S
C991 C990 1.385 . S
C992 C990 1.478 . S
C992 C994 1.381 . S
C992 C998 1.383 . S
C993 C989 1.495 . S
C993 H999 0.959 . S
C993 H1000 0.961 . S
C993 H1001 0.960 . S
C994 C992 1.381 . S
C994 C995 1.394 . S
C994 H1002 0.930 . S
C995 C994 1.394 . S
C995 C996 1.383 . S
C995 H1003 0.929 . S
C996 C995 1.383 . S
C996 C997 1.377 . S
C997 H981 0.930 . S
C997 C996 1.377 . S
C997 C998 1.379 . S
C998 H982 0.931 . S
C998 C992 1.383 . S
C998 C997 1.379 . S
H999 C993 0.959 . S
H1000 C993 0.961 . S
H1001 C993 0.960 . S
H1002 C994 0.930 . S
H1003 C995 0.929 . S
H1004 C1012 0.929 . S
H1005 C1014 0.930 . S
H1006 C1016 0.930 . S
H1007 C1019 0.929 . S
H1008 C1022 0.930 . S
H1009 C1024 0.960 . S
H1010 C1024 0.960 . S
H1011 C1024 0.960 . S
C1012 H1004 0.929 . S
C1012 C1013 1.377 . S
C1012 C1014 1.384 . S
C1013 C1012 1.377 . S
C1013 C1019 1.390 . S
C1014 H1005 0.930 . S
C1014 C1012 1.384 . S
C1014 C1015 1.372 . S
C1015 C1014 1.372 . S
C1015 C1016 1.400 . S
C1015 C1020 1.490 . S
C1016 H1006 0.930 . S
C1016 C1015 1.400 . S
C1016 C1019 1.386 . S
H1017 C1033 0.930 . S
H1018 C1034 0.931 . S
C1019 H1007 0.929 . S
C1019 C1013 1.390 . S
C1019 C1016 1.386 . S
C1020 C1015 1.490 . S
C1020 C1022 1.395 . S
C1020 C1023 1.403 . S
H1021 C1027 0.930 . S
C1022 H1008 0.930 . S
C1022 C1020 1.395 . S
C1022 C1025 1.403 . S
C1023 C1020 1.403 . S
C1023 C1024 1.524 . S
C1023 C1027 1.400 . S
C1024 H1009 0.960 . S
C1024 H1010 0.960 . S
C1024 H1011 0.960 . S
C1024 C1023 1.524 . S
C1025 C1022 1.403 . S
C1025 C1026 1.392 . S
C1025 C1029 1.495 . S
C1026 C1025 1.392 . S
C1026 C1027 1.385 . S
C1026 C1028 1.478 . S
C1027 H1021 0.930 . S
C1027 C1023 1.400 . S
C1027 C1026 1.385 . S
C1028 C1026 1.478 . S
C1028 C1030 1.381 . S
C1028 C1034 1.383 . S
C1029 C1025 1.495 . S
C1029 H1035 0.959 . S
C1029 H1036 0.961 . S
C1029 H1037 0.960 . S
C1030 C1028 1.381 . S
C1030 C1031 1.394 . S
C1030 H1038 0.930 . S
C1031 C1030 1.394 . S
C1031 C1032 1.383 . S
C1031 H1039 0.929 . S
C1032 C1031 1.383 . S
C1032 C1033 1.377 . S
C1033 H1017 0.930 . S
C1033 C1032 1.377 . S
C1033 C1034 1.379 . S
C1034 H1018 0.931 . S
C1034 C1028 1.383 . S
C1034 C1033 1.379 . S
H1035 C1029 0.959 . S
H1036 C1029 0.961 . S
H1037 C1029 0.960 . S
H1038 C1030 0.930 . S
H1039 C1031 0.929 . S
H1040 C1048 0.929 . S
H1041 C1050 0.930 . S
H1042 C1052 0.930 . S
H1043 C1055 0.929 . S
H1044 C1058 0.930 . S
H1045 C1060 0.960 . S
H1046 C1060 0.960 . S
H1047 C1060 0.960 . S
C1048 H1040 0.929 . S
C1048 C1049 1.377 . S
C1048 C1050 1.384 . S
C1049 C1048 1.377 . S
C1049 C1055 1.390 . S
C1050 H1041 0.930 . S
C1050 C1048 1.384 . S
C1050 C1051 1.372 . S
C1051 C1050 1.372 . S
C1051 C1052 1.400 . S
C1051 C1056 1.490 . S
C1052 H1042 0.930 . S
C1052 C1051 1.400 . S
C1052 C1055 1.386 . S
H1053 C1069 0.930 . S
H1054 C1070 0.931 . S
C1055 H1043 0.929 . S
C1055 C1049 1.390 . S
C1055 C1052 1.386 . S
C1056 C1051 1.490 . S
C1056 C1058 1.395 . S
C1056 C1059 1.403 . S
H1057 C1063 0.930 . S
C1058 H1044 0.930 . S
C1058 C1056 1.395 . S
C1058 C1061 1.403 . S
C1059 C1056 1.403 . S
C1059 C1060 1.524 . S
C1059 C1063 1.400 . S
C1060 H1045 0.960 . S
C1060 H1046 0.960 . S
C1060 H1047 0.960 . S
C1060 C1059 1.524 . S
C1061 C1058 1.403 . S
C1061 C1062 1.392 . S
C1061 C1065 1.495 . S
C1062 C1061 1.392 . S
C1062 C1063 1.385 . S
C1062 C1064 1.478 . S
C1063 H1057 0.930 . S
C1063 C1059 1.400 . S
C1063 C1062 1.385 . S
C1064 C1062 1.478 . S
C1064 C1066 1.381 . S
C1064 C1070 1.383 . S
C1065 C1061 1.495 . S
C1065 H1071 0.959 . S
C1065 H1072 0.961 . S
C1065 H1073 0.960 . S
C1066 C1064 1.381 . S
C1066 C1067 1.394 . S
C1066 H1074 0.930 . S
C1067 C1066 1.394 . S
C1067 C1068 1.383 . S
C1067 H1075 0.929 . S
C1068 C1067 1.383 . S
C1068 C1069 1.377 . S
C1069 H1053 0.930 . S
C1069 C1068 1.377 . S
C1069 C1070 1.379 . S
C1070 H1054 0.931 . S
C1070 C1064 1.383 . S
C1070 C1069 1.379 . S
H1071 C1065 0.959 . S
H1072 C1065 0.961 . S
H1073 C1065 0.960 . S
H1074 C1066 0.930 . S
H1075 C1067 0.929 . S
H1076 C1084 0.929 . S
H1077 C1086 0.930 . S
H1078 C1088 0.930 . S
H1079 C1091 0.929 . S
H1080 C1094 0.930 . S
H1081 C1096 0.960 . S
H1082 C1096 0.960 . S
H1083 C1096 0.960 . S
C1084 H1076 0.929 . S
C1084 C1085 1.377 . S
C1084 C1086 1.384 . S
C1085 C1084 1.377 . S
C1085 C1091 1.390 . S
C1086 H1077 0.930 . S
C1086 C1084 1.384 . S
C1086 C1087 1.372 . S
C1087 C1086 1.372 . S
C1087 C1088 1.400 . S
C1087 C1092 1.490 . S
C1088 H1078 0.930 . S
C1088 C1087 1.400 . S
C1088 C1091 1.386 . S
H1089 C1105 0.930 . S
H1090 C1106 0.931 . S
C1091 H1079 0.929 . S
C1091 C1085 1.390 . S
C1091 C1088 1.386 . S
C1092 C1087 1.490 . S
C1092 C1094 1.395 . S
C1092 C1095 1.403 . S
H1093 C1099 0.930 . S
C1094 H1080 0.930 . S
C1094 C1092 1.395 . S
C1094 C1097 1.403 . S
C1095 C1092 1.403 . S
C1095 C1096 1.524 . S
C1095 C1099 1.400 . S
C1096 H1081 0.960 . S
C1096 H1082 0.960 . S
C1096 H1083 0.960 . S
C1096 C1095 1.524 . S
C1097 C1094 1.403 . S
C1097 C1098 1.392 . S
C1097 C1101 1.495 . S
C1098 C1097 1.392 . S
C1098 C1099 1.385 . S
C1098 C1100 1.478 . S
C1099 H1093 0.930 . S
C1099 C1095 1.400 . S
C1099 C1098 1.385 . S
C1100 C1098 1.478 . S
C1100 C1102 1.381 . S
C1100 C1106 1.383 . S
C1101 C1097 1.495 . S
C1101 H1107 0.959 . S
C1101 H1108 0.961 . S
C1101 H1109 0.960 . S
C1102 C1100 1.381 . S
C1102 C1103 1.394 . S
C1102 H1110 0.930 . S
C1103 C1102 1.394 . S
C1103 C1104 1.383 . S
C1103 H1111 0.929 . S
C1104 C1103 1.383 . S
C1104 C1105 1.377 . S
C1105 H1089 0.930 . S
C1105 C1104 1.377 . S
C1105 C1106 1.379 . S
C1106 H1090 0.931 . S
C1106 C1100 1.383 . S
C1106 C1105 1.379 . S
H1107 C1101 0.959 . S
H1108 C1101 0.961 . S
H1109 C1101 0.960 . S
H1110 C1102 0.930 . S
H1111 C1103 0.929 . S
C257 C5 1.013 . S
C276 C95 1.271 . S
C293 C18 1.020 . S
C312 C144 1.075 . S
C348 C170 2.249 . S
C329 C30 2.292 . S
C365 C41 1.929 . S
C384 C218 1.883 . S
C420 C130 2.477 . S
C401 C7 2.306 . S
C456 C98 1.094 . S
C437 C16 0.955 . S
C492 C219 1.893 . S
C473 C29 1.861 . S
C528 C187 1.032 . S
C509 C38 0.959 . S
C545 C8 1.594 . S
C564 C215 1.668 . S
C600 C147 2.575 . S
C581 C27 2.388 . S
C617 C40 2.418 . S
C636 C99 2.445 . S
C653 C19 0.512 . S
C672 C184 0.527 . S
C708 C104 1.123 . S
C689 C51 1.018 . S
C725 C62 1.369 . S
C744 C135 1.380 . S
C761 C74 2.386 . S
C780 C179 2.369 . S
C797 C84 2.073 . S
C816 C227 2.124 . S
C833 C49 2.173 . S
C852 C139 2.700 1_556 S
C888 C107 1.033 . S
C869 C63 1.050 . S
C924 C210 1.749 . S
C905 C71 1.634 . S
C960 C178 1.195 . S
C941 C85 1.186 . S
C977 C52 1.570 . S
C996 C224 1.646 . S
C1032 C138 2.644 . S
C1013 C73 2.665 . S
C1068 C90 1.872 . S
C1049 C82 1.614 . S
C1085 C60 0.727 . S
C1104 C175 0.743 . S
