# Generated by pormake.
# Topology rtl, (3,6)-cn, num edge types: 1
# Building blocks:
#     Node 0, Type 0, BuildingBlock: WUSLED_clean_sbu_0, # of connection points: 3
#     Node 1, Type 0, BuildingBlock: WUSLED_clean_sbu_0, # of connection points: 3
#     Node 2, Type 0, BuildingBlock: WUSLED_clean_sbu_0, # of connection points: 3
#     Node 3, Type 0, BuildingBlock: WUSLED_clean_sbu_0, # of connection points: 3
#     Node 4, Type 1, BuildingBlock: VOLQOD_clean_sbu_1, # of connection points: 6
#     Node 5, Type 1, BuildingBlock: VOLQOD_clean_sbu_1, # of connection points: 6
#     Edge 6, Type (0, 1), BuildingBlock: MIFKUJ_clean_linker_0, # of connection points: 2
#     Edge 7, Type (0, 1), BuildingBlock: MIFKUJ_clean_linker_0, # of connection points: 2
#     Edge 8, Type (0, 1), BuildingBlock: MIFKUJ_clean_linker_0, # of connection points: 2
#     Edge 9, Type (0, 1), BuildingBlock: MIFKUJ_clean_linker_0, # of connection points: 2
#     Edge 10, Type (0, 1), BuildingBlock: MIFKUJ_clean_linker_0, # of connection points: 2
#     Edge 11, Type (0, 1), BuildingBlock: MIFKUJ_clean_linker_0, # of connection points: 2
#     Edge 12, Type (0, 1), BuildingBlock: MIFKUJ_clean_linker_0, # of connection points: 2
#     Edge 13, Type (0, 1), BuildingBlock: MIFKUJ_clean_linker_0, # of connection points: 2
#     Edge 14, Type (0, 1), BuildingBlock: MIFKUJ_clean_linker_0, # of connection points: 2
#     Edge 15, Type (0, 1), BuildingBlock: MIFKUJ_clean_linker_0, # of connection points: 2
#     Edge 16, Type (0, 1), BuildingBlock: MIFKUJ_clean_linker_0, # of connection points: 2
#     Edge 17, Type (0, 1), BuildingBlock: MIFKUJ_clean_linker_0, # of connection points: 2
# Relax obj value: 0.076
# Max RMSD: 0.155
# Mean RMSD: 0.086
data_MOF--net-rtl--node1-WUSLED_clean_sbu_0--node2-VOLQOD_clean_sbu_1--edge1-MIFKUJ_clean_linker_0
_symmetry_space_group_name_H-M    P1
_symmetry_Int_Tables_number       1
_symmetry_cell_setting            triclinic
loop_
_symmetry_equiv_pos_as_xyz
'x, y, z'
_cell_length_a     58.521688
_cell_length_b     50.982714
_cell_length_c     37.735234
_cell_angle_alpha  90.3387
_cell_angle_beta   90.583156
_cell_angle_gamma 90.064061
loop_
_atom_site_label
_atom_site_type_symbol
_atom_site_fract_x
_atom_site_fract_y
_atom_site_fract_z
_atom_type_partial_charge
C0 C 0.13948 0.77082 0.1099 0.0
C1 C 0.12178 0.78836 0.10173 0.0
C2 C 0.11705 0.7983 0.1644 0.0
C3 C 0.11067 0.802 0.12874 0.0
C4 C 0.13445 0.78018 0.17247 0.0
C5 C 0.14561 0.76659 0.14537 0.0
U6 U 0.1488 0.75997 0.0121 0.0
O7 O 0.18022 0.75968 0.98085 0.0
O8 O 0.15834 0.72467 0.9817 0.0
C9 C 0.17792 0.73485 0.9719 0.0
C10 C 0.15223 0.75795 0.08138 0.0
C11 C 0.19819 0.71843 0.97801 0.0
C12 C 0.23064 0.70542 0.0145 0.0
C13 C 0.21078 0.72028 0.00979 0.0
C14 C 0.22513 0.68612 0.95619 0.0
C15 C 0.23811 0.68831 0.98764 0.0
C16 C 0.20537 0.70112 0.95141 0.0
C17 C 0.10975 0.796 0.94701 0.0
C18 C 0.11938 0.80471 0.88573 0.0
C19 C 0.08115 0.81366 0.90672 0.0
C20 C 0.08743 0.80471 0.94037 0.0
C21 C 0.09718 0.81417 0.8792 0.0
C22 C 0.12559 0.79558 0.91933 0.0
C23 C 0.11651 0.78865 0.98321 0.0
O24 O 0.14063 0.74065 0.06246 0.0
O25 O 0.16437 0.77397 0.06194 0.0
O26 O 0.1362 0.79823 0.99429 0.0
O27 O 0.11358 0.76388 0.99152 0.0
H28 H 0.11683 0.79182 0.0744 0.0
H29 H 0.09714 0.81555 0.12169 0.0
H30 H 0.13992 0.77711 0.19963 0.0
H31 H 0.15932 0.75318 0.15208 0.0
H32 H 0.24012 0.70727 0.03919 0.0
H33 H 0.20539 0.73342 0.03077 0.0
H34 H 0.23055 0.67328 0.93491 0.0
H35 H 0.19584 0.69946 0.92672 0.0
H36 H 0.132 0.80462 0.86493 0.0
H37 H 0.064 0.82107 0.90259 0.0
H38 H 0.075 0.80517 0.96145 0.0
H39 H 0.14289 0.78872 0.92392 0.0
C40 C 0.63985 0.74944 0.61817 0.0
C41 C 0.61644 0.74364 0.61517 0.0
C42 C 0.61721 0.72305 0.67332 0.0
C43 C 0.60521 0.73072 0.64256 0.0
C44 C 0.64065 0.72909 0.67619 0.0
C45 C 0.65182 0.7422 0.64891 0.0
U46 U 0.64829 0.75896 0.51959 0.0
O47 O 0.65726 0.79404 0.48883 0.0
O48 O 0.6795 0.75938 0.48781 0.0
C49 C 0.67692 0.78411 0.47891 0.0
C50 C 0.65226 0.76165 0.58878 0.0
C51 C 0.69703 0.80106 0.48461 0.0
C52 C 0.73115 0.81323 0.51815 0.0
C53 C 0.71166 0.79757 0.51393 0.0
C54 C 0.72121 0.83664 0.46447 0.0
C55 C 0.7362 0.83284 0.49335 0.0
C56 C 0.70184 0.82082 0.46011 0.0
C57 C 0.60815 0.7214 0.45617 0.0
C58 C 0.61634 0.70905 0.3953 0.0
C59 C 0.57815 0.70344 0.41833 0.0
C60 C 0.58537 0.71376 0.45095 0.0
C61 C 0.59366 0.70041 0.39034 0.0
C62 C 0.62351 0.71951 0.42794 0.0
C63 C 0.6158 0.72965 0.49177 0.0
O64 O 0.66414 0.74529 0.56927 0.0
O65 O 0.64077 0.77893 0.56996 0.0
O66 O 0.61286 0.75452 0.49988 0.0
O67 O 0.63573 0.72042 0.5021 0.0
H68 H 0.60689 0.74885 0.5915 0.0
H69 H 0.58711 0.72672 0.63958 0.0
H70 H 0.65057 0.72309 0.69912 0.0
H71 H 0.66994 0.74626 0.65154 0.0
H72 H 0.74223 0.81007 0.54089 0.0
H73 H 0.70814 0.7826 0.5334 0.0
H74 H 0.72475 0.85144 0.44479 0.0
H75 H 0.69072 0.82383 0.43736 0.0
H76 H 0.62877 0.70682 0.37445 0.0
H77 H 0.56047 0.69749 0.41522 0.0
H78 H 0.57325 0.71522 0.4724 0.0
H79 H 0.64119 0.72539 0.43144 0.0
C80 C 0.86728 0.24911 0.11229 0.0
C81 C 0.88282 0.22881 0.10557 0.0
C82 C 0.88898 0.22289 0.16896 0.0
C83 C 0.89355 0.21578 0.13362 0.0
C84 C 0.87367 0.24361 0.17547 0.0
C85 C 0.86289 0.25659 0.14733 0.0
U86 U 0.85826 0.25773 0.01377 0.0
O87 O 0.82662 0.25897 0.98186 0.0
O88 O 0.85022 0.2925 0.98178 0.0
C89 C 0.83014 0.28327 0.97184 0.0
C90 C 0.85506 0.26179 0.08286 0.0
C91 C 0.81062 0.30104 0.97629 0.0
C92 C 0.78879 0.33218 0.01129 0.0
C93 C 0.80789 0.31596 0.00737 0.0
C94 C 0.77495 0.31857 0.95327 0.0
C95 C 0.77202 0.33348 0.98437 0.0
C96 C 0.79409 0.30254 0.94929 0.0
C97 C 0.89591 0.21816 0.95071 0.0
C98 C 0.88612 0.20353 0.89101 0.0
C99 C 0.92574 0.20453 0.91029 0.0
C100 C 0.91907 0.21402 0.94343 0.0
C101 C 0.9093 0.19882 0.88391 0.0
C102 C 0.87948 0.21326 0.92406 0.0
C103 C 0.88923 0.22666 0.98651 0.0
O104 O 0.86733 0.27793 0.06374 0.0
O105 O 0.84227 0.24589 0.06359 0.0
O106 O 0.8692 0.21839 0.99732 0.0
O107 O 0.89328 0.25137 0.99449 0.0
H108 H 0.88634 0.22274 0.0786 0.0
H109 H 0.90496 0.19969 0.12761 0.0
H110 H 0.87 0.24981 0.20231 0.0
H111 H 0.85096 0.27227 0.15294 0.0
H112 H 0.78687 0.34326 0.03566 0.0
H113 H 0.82041 0.31487 0.02866 0.0
H114 H 0.76247 0.3194 0.93191 0.0
H115 H 0.79593 0.29114 0.92515 0.0
H116 H 0.87312 0.19957 0.87105 0.0
H117 H 0.9437 0.20086 0.90568 0.0
H118 H 0.93199 0.21769 0.96364 0.0
H119 H 0.8615 0.21656 0.92895 0.0
C120 C 0.36673 0.26918 0.39956 0.0
C121 C 0.38997 0.27605 0.40148 0.0
C122 C 0.3875 0.29545 0.34276 0.0
C123 C 0.4003 0.28893 0.37318 0.0
C124 C 0.36431 0.28827 0.34085 0.0
C125 C 0.35405 0.27519 0.36899 0.0
U126 U 0.36014 0.2607 0.49892 0.0
O127 O 0.32902 0.26073 0.53118 0.0
O128 O 0.35147 0.22624 0.53086 0.0
C129 C 0.33182 0.23621 0.54084 0.0
C130 C 0.35512 0.25729 0.42992 0.0
C131 C 0.31169 0.21925 0.53579 0.0
C132 C 0.28923 0.18852 0.50034 0.0
C133 C 0.30865 0.20428 0.50476 0.0
C134 C 0.27557 0.20284 0.55767 0.0
C135 C 0.27241 0.18761 0.52675 0.0
C136 C 0.29504 0.21844 0.56214 0.0
C137 C 0.40032 0.29799 0.56159 0.0
C138 C 0.39231 0.30507 0.62395 0.0
C139 C 0.42886 0.31818 0.60011 0.0
C140 C 0.42207 0.30895 0.56667 0.0
C141 C 0.41392 0.31671 0.629 0.0
C142 C 0.38559 0.2957 0.59053 0.0
C143 C 0.39287 0.29014 0.52577 0.0
O144 O 0.36709 0.24035 0.44859 0.0
O145 O 0.34358 0.27387 0.44958 0.0
O146 O 0.3729 0.29936 0.51566 0.0
O147 O 0.39575 0.26528 0.51755 0.0
H148 H 0.4 0.2719 0.42506 0.0
H149 H 0.41813 0.29449 0.37554 0.0
H150 H 0.35408 0.29285 0.31762 0.0
H151 H 0.33608 0.27015 0.36712 0.0
H152 H 0.28751 0.17686 0.47638 0.0
H153 H 0.32128 0.20477 0.48398 0.0
H154 H 0.26281 0.20304 0.57826 0.0
H155 H 0.29702 0.23006 0.58612 0.0
H156 H 0.38053 0.3034 0.64579 0.0
H157 H 0.44551 0.32728 0.60307 0.0
H158 H 0.43363 0.31088 0.54458 0.0
H159 H 0.36875 0.28712 0.5871 0.0
O160 O 0.94907 1.00084 0.50912 0.0
Zn161 Zn 0.97495 0.02718 0.50969 0.0
O162 O 0.00473 0.00955 0.50782 0.0
Zn163 Zn 0.02319 0.01948 0.54922 0.0
Zn164 Zn 1.00019 0.97141 0.50774 0.0
Zn165 Zn 0.02081 0.02017 0.46489 0.0
O166 O 0.0523 0.03751 0.53532 0.0
O167 O 0.05082 0.03817 0.47658 0.0
O168 O 0.97224 0.04926 0.55415 0.0
O169 O 0.0058 0.04395 0.5811 0.0
O170 O 0.03185 0.98796 0.57815 0.0
O171 O 0.01426 0.95468 0.55119 0.0
O172 O 0.01449 0.95478 0.46458 0.0
O173 O 0.97039 0.0509 0.46756 0.0
O174 O 0.02775 0.9887 0.4343 0.0
O175 O 1.00187 0.04541 0.43605 0.0
C176 C 0.9484 0.97586 0.50811 0.0
C177 C 0.06102 0.04358 0.50571 0.0
C178 C 0.02672 0.96372 0.57628 0.0
C179 C 0.9859 0.05402 0.57992 0.0
C180 C 0.02455 0.96411 0.43762 0.0
C181 C 0.98238 0.05599 0.44045 0.0
O182 O 0.96667 0.96231 0.50735 0.0
O183 O 0.56022 0.50178 0.01114 0.0
Zn184 Zn 0.53359 0.52716 0.01167 0.0
O185 O 0.50432 0.50836 0.00914 0.0
Zn186 Zn 0.48739 0.51893 0.96662 0.0
Zn187 Zn 0.50983 0.47043 0.00732 0.0
Zn188 Zn 0.48622 0.51698 0.05091 0.0
O189 O 0.45816 0.53739 0.97898 0.0
O190 O 0.4573 0.53633 0.03771 0.0
O191 O 0.53705 0.55134 0.96991 0.0
O192 O 0.50597 0.54383 0.93712 0.0
O193 O 0.4791 0.48772 0.9363 0.0
O194 O 0.49654 0.45424 0.96255 0.0
O195 O 0.49554 0.45215 0.04917 0.0
O196 O 0.53619 0.54894 0.05642 0.0
O197 O 0.47737 0.48433 0.07709 0.0
O198 O 0.50409 0.53999 0.08485 0.0
C199 C 0.56144 0.47684 0.00933 0.0
C200 C 0.44843 0.5429 0.0081 0.0
C201 C 0.48432 0.46351 0.93746 0.0
C202 C 0.52502 0.55544 0.94216 0.0
C203 C 0.4827 0.46021 0.07405 0.0
C204 C 0.52334 0.55158 0.08325 0.0
O205 O 0.54349 0.46272 0.00774 0.0
H206 H 0.2472 0.17911 0.46595 0.0
H207 H 0.2126 0.15269 0.45883 0.0
H208 H 0.21518 0.13328 0.56992 0.0
H209 H 0.25041 0.15851 0.57687 0.0
H210 H 0.204 0.09145 0.53245 0.0
H211 H 0.1788 0.18129 0.53625 0.0
H212 H 0.17766 0.22753 0.51752 0.0
H213 H 0.15594 0.20378 0.41313 0.0
H214 H 0.15724 0.15734 0.43113 0.0
H215 H 0.08939 0.05413 0.56206 0.0
H216 H 0.12613 0.07678 0.56168 0.0
H217 H 0.12042 0.08654 0.4485 0.0
H218 H 0.08347 0.06396 0.44856 0.0
H219 H 0.13369 0.13187 0.4826 0.0
H220 H 0.15644 0.0417 0.48114 0.0
H221 H 0.15695 0.99581 0.50137 0.0
H222 H 0.18268 0.02061 0.60315 0.0
H223 H 0.18202 0.06672 0.58369 0.0
C224 C 0.24062 0.16892 0.48878 0.0
C225 C 0.25157 0.17111 0.52206 0.0
C226 C 0.22066 0.15405 0.48474 0.0
C227 C 0.21105 0.14133 0.51397 0.0
C228 C 0.22219 0.14302 0.54701 0.0
C229 C 0.24222 0.1577 0.55102 0.0
C230 C 0.18925 0.12652 0.51036 0.0
C231 C 0.18858 0.10039 0.52187 0.0
C232 C 0.16923 0.13793 0.49575 0.0
C233 C 0.16836 0.16584 0.48493 0.0
C234 C 0.17395 0.18592 0.50923 0.0
C235 C 0.17324 0.21216 0.49876 0.0
C236 C 0.16679 0.21858 0.46413 0.0
C237 C 0.16097 0.19877 0.43992 0.0
C238 C 0.16167 0.17249 0.45025 0.0
C239 C 0.09591 0.06103 0.53702 0.0
C240 C 0.08345 0.05716 0.50531 0.0
C241 C 0.11699 0.07387 0.53685 0.0
C242 C 0.12612 0.0831 0.50502 0.0
C243 C 0.1137 0.0795 0.47334 0.0
C244 C 0.09262 0.06652 0.47344 0.0
C245 C 0.14842 0.09697 0.50509 0.0
C246 C 0.14917 0.1229 0.49292 0.0
C247 C 0.16847 0.08543 0.5193 0.0
C248 C 0.169 0.0577 0.53103 0.0
C249 C 0.16204 0.0374 0.50792 0.0
C250 C 0.16238 0.01134 0.51924 0.0
C251 C 0.16979 0.0053 0.55355 0.0
C252 C 0.17693 0.02532 0.57659 0.0
C253 C 0.1766 0.05141 0.56541 0.0
H254 H 0.17004 0.98512 0.56226 0.0
H255 H 0.16626 0.23892 0.45607 0.0
H256 H 0.24581 0.63669 0.97146 0.0
H257 H 0.28171 0.61236 0.97723 0.0
H258 H 0.31488 0.68153 0.01951 0.0
H259 H 0.27914 0.70606 0.01335 0.0
H260 H 0.34053 0.65736 0.9687 0.0
H261 H 0.30078 0.63351 0.07422 0.0
H262 H 0.26837 0.61696 0.10885 0.0
H263 H 0.27256 0.54264 0.0552 0.0
H264 H 0.30482 0.55889 0.01986 0.0
H265 H 0.42412 0.56164 0.06456 0.0
H266 H 0.38859 0.5868 0.06301 0.0
H267 H 0.38732 0.5818 0.94886 0.0
H268 H 0.423 0.5571 0.95006 0.0
H269 H 0.34647 0.5757 0.03913 0.0
H270 H 0.36521 0.63763 0.91506 0.0
H271 H 0.39848 0.655 0.88306 0.0
H272 H 0.43778 0.65607 0.97977 0.0
H273 H 0.40467 0.63902 0.01242 0.0
C274 C 0.26078 0.64672 0.98189 0.0
C275 C 0.25965 0.67327 0.99203 0.0
C276 C 0.28122 0.63277 0.98538 0.0
C277 C 0.30091 0.64512 0.999 0.0
C278 C 0.29987 0.67164 0.00899 0.0
C279 C 0.2794 0.68555 0.00573 0.0
C280 C 0.32267 0.63045 0.00244 0.0
C281 C 0.34184 0.63952 0.9841 0.0
C282 C 0.32444 0.60736 0.0229 0.0
C283 C 0.30508 0.59751 0.04416 0.0
C284 C 0.29467 0.61371 0.06959 0.0
C285 C 0.27635 0.60437 0.08939 0.0
C286 C 0.26837 0.57878 0.08417 0.0
C287 C 0.27874 0.56246 0.05919 0.0
C288 C 0.29706 0.57172 0.03929 0.0
C289 C 0.4163 0.56588 0.0391 0.0
C290 C 0.42653 0.55749 0.00742 0.0
C291 C 0.39595 0.5802 0.03829 0.0
C292 C 0.38545 0.58646 0.00581 0.0
C293 C 0.39533 0.57761 0.9742 0.0
C294 C 0.41572 0.5634 0.97496 0.0
C295 C 0.36426 0.6024 0.00498 0.0
C296 C 0.34517 0.59356 0.02374 0.0
C297 C 0.36266 0.62589 0.98527 0.0
C298 C 0.38251 0.63683 0.9661 0.0
C299 C 0.38091 0.64171 0.92953 0.0
C300 C 0.39975 0.65147 0.91127 0.0
C301 C 0.42026 0.65655 0.92935 0.0
C302 C 0.42192 0.65203 0.96577 0.0
C303 C 0.40313 0.6423 0.98416 0.0
H304 H 0.43484 0.66403 0.91514 0.0
H305 H 0.25419 0.57158 0.09953 0.0
H306 H 0.77929 0.81579 0.50913 0.0
H307 H 0.81429 0.84179 0.51367 0.0
H308 H 0.77593 0.91201 0.49068 0.0
H309 H 0.74087 0.88592 0.48547 0.0
H310 H 0.81362 0.91192 0.45415 0.0
H311 H 0.79602 0.89789 0.57576 0.0
H312 H 0.78622 0.87242 0.62884 0.0
H313 H 0.84911 0.82961 0.62068 0.0
H314 H 0.85915 0.85457 0.56723 0.0
H315 H 0.90567 0.99764 0.50251 0.0
H316 H 0.86884 0.97489 0.50176 0.0
H317 H 0.90341 0.90065 0.51244 0.0
H318 H 0.94028 0.92315 0.51333 0.0
H319 H 0.86664 0.90519 0.55712 0.0
H320 H 0.88284 0.91894 0.43335 0.0
H321 H 0.89224 0.94554 0.38109 0.0
H322 H 0.83107 0.99069 0.3952 0.0
H323 H 0.82147 0.96457 0.44786 0.0
C324 C 0.77828 0.83681 0.50542 0.0
C325 C 0.75732 0.84884 0.4971 0.0
C326 C 0.7983 0.85167 0.50807 0.0
C327 C 0.79774 0.87895 0.50306 0.0
C328 C 0.77681 0.89101 0.49469 0.0
C329 C 0.7568 0.8761 0.49169 0.0
C330 C 0.81909 0.89472 0.50559 0.0
C331 C 0.825 0.91077 0.47696 0.0
C332 C 0.83419 0.89296 0.53508 0.0
C333 C 0.82824 0.87795 0.5673 0.0
C334 C 0.80769 0.88291 0.58513 0.0
C335 C 0.8021 0.86858 0.61531 0.0
C336 C 0.81701 0.84937 0.62808 0.0
C337 C 0.83756 0.84448 0.61074 0.0
C338 C 0.84323 0.85873 0.58052 0.0
C339 C 0.90547 0.97648 0.50473 0.0
C340 C 0.92598 0.96224 0.50786 0.0
C341 C 0.88439 0.9635 0.5042 0.0
C342 C 0.88341 0.93607 0.50679 0.0
C343 C 0.90379 0.92184 0.5104 0.0
C344 C 0.92487 0.93475 0.51075 0.0
C345 C 0.86117 0.92208 0.5056 0.0
C346 C 0.85513 0.90641 0.53448 0.0
C347 C 0.84587 0.92437 0.47651 0.0
C348 C 0.85157 0.93998 0.44475 0.0
C349 C 0.87149 0.93468 0.42548 0.0
C350 C 0.87684 0.94964 0.39575 0.0
C351 C 0.8623 0.96984 0.38489 0.0
C352 C 0.84234 0.97506 0.40368 0.0
C353 C 0.83693 0.96018 0.43344 0.0
H354 H 0.86646 0.98141 0.36188 0.0
H355 H 0.81265 0.8383 0.65145 0.0
H356 H 0.72787 0.31993 0.96959 0.0
H357 H 0.69378 0.34715 0.97478 0.0
H358 H 0.73507 0.4114 0.01407 0.0
H359 H 0.76935 0.38399 0.00934 0.0
H360 H 0.69662 0.40802 0.05076 0.0
H361 H 0.71515 0.41076 0.92841 0.0
H362 H 0.72519 0.39312 0.86963 0.0
H363 H 0.66142 0.35148 0.8642 0.0
H364 H 0.65113 0.36857 0.9232 0.0
H365 H 0.60367 0.49875 0.02203 0.0
H366 H 0.64095 0.47701 0.01903 0.0
H367 H 0.60773 0.40415 0.99093 0.0
H368 H 0.57053 0.42554 0.99395 0.0
H369 H 0.64423 0.41644 0.94723 0.0
H370 H 0.62756 0.41268 0.07257 0.0
H371 H 0.61816 0.43176 0.13082 0.0
H372 H 0.67952 0.47797 0.12902 0.0
H373 H 0.68913 0.45941 0.07049 0.0
C374 C 0.72972 0.3399 0.97916 0.0
C375 C 0.75131 0.34992 0.98871 0.0
C376 C 0.71022 0.35546 0.9821 0.0
C377 C 0.71191 0.38151 0.99415 0.0
C378 C 0.73337 0.3914 0.00457 0.0
C379 C 0.75292 0.37573 0.0019 0.0
C380 C 0.69118 0.39826 0.99566 0.0
C381 C 0.68537 0.41023 0.02795 0.0
C382 C 0.67639 0.40104 0.96598 0.0
C383 C 0.68245 0.3908 0.93038 0.0
C384 C 0.70333 0.39769 0.9148 0.0
C385 C 0.70906 0.38781 0.88142 0.0
C386 C 0.69397 0.37115 0.86322 0.0
C387 C 0.6731 0.36438 0.87834 0.0
C388 C 0.66729 0.37418 0.91174 0.0
C389 C 0.6043 0.47808 0.01529 0.0
C390 C 0.58409 0.46389 0.00826 0.0
C391 C 0.6256 0.46569 0.0137 0.0
C392 C 0.62706 0.43897 0.00487 0.0
C393 C 0.60696 0.42481 0.99776 0.0
C394 C 0.5857 0.43707 0.99964 0.0
C395 C 0.64948 0.42561 0.00246 0.0
C396 C 0.65562 0.41438 0.96992 0.0
C397 C 0.66465 0.4238 0.03176 0.0
C398 C 0.65892 0.43489 0.06698 0.0
C399 C 0.63894 0.42708 0.08445 0.0
C400 C 0.6336 0.43777 0.11754 0.0
C401 C 0.6482 0.45613 0.13356 0.0
C402 C 0.66821 0.46379 0.11655 0.0
C403 C 0.67361 0.45318 0.08343 0.0
H404 H 0.64403 0.46438 0.15919 0.0
H405 H 0.69844 0.36352 0.83738 0.0
H406 H 0.10719 0.85062 0.16368 0.0
H407 H 0.09053 0.87707 0.21096 0.0
H408 H 0.08639 0.80861 0.2772 0.0
H409 H 0.10268 0.7818 0.22957 0.0
H410 H 0.0472 0.83925 0.27975 0.0
H411 H 0.12829 0.8512 0.29151 0.0
H412 H 0.16705 0.86149 0.27065 0.0
H413 H 0.1453 0.93906 0.24232 0.0
H414 H 0.1063 0.9291 0.26255 0.0
H415 H 0.02743 0.91047 0.43977 0.0
H416 H 0.04237 0.88102 0.39424 0.0
H417 H 0.05518 0.94728 0.32661 0.0
H418 H 0.04087 0.97687 0.3723 0.0
H419 H 0.09049 0.91596 0.32644 0.0
H420 H 0.00938 0.90424 0.31256 0.0
H421 H 0.97025 0.8943 0.33211 0.0
H422 H 0.99137 0.81706 0.36307 0.0
H423 H 0.03072 0.82666 0.34413 0.0
C424 C 0.10248 0.8411 0.18812 0.0
C425 C 0.10628 0.81411 0.19289 0.0
C426 C 0.09313 0.85629 0.21523 0.0
C427 C 0.08746 0.84485 0.24771 0.0
C428 C 0.09073 0.81782 0.25235 0.0
C429 C 0.10018 0.80259 0.22525 0.0
C430 C 0.07851 0.86132 0.27695 0.0
C431 C 0.05677 0.85581 0.29037 0.0
C432 C 0.09083 0.88321 0.29022 0.0
C433 C 0.11432 0.88932 0.27826 0.0
C434 C 0.13173 0.87038 0.28059 0.0
C435 C 0.15375 0.87617 0.26891 0.0
C436 C 0.15862 0.90089 0.25509 0.0
C437 C 0.14149 0.91991 0.253 0.0
C438 C 0.11943 0.91421 0.2646 0.0
C439 C 0.03334 0.91878 0.41515 0.0
C440 C 0.03294 0.94605 0.4097 0.0
C441 C 0.04179 0.90189 0.38906 0.0
C442 C 0.04968 0.91189 0.3568 0.0
C443 C 0.04922 0.93909 0.35129 0.0
C444 C 0.04097 0.956 0.37745 0.0
C445 C 0.05897 0.89418 0.32906 0.0
C446 C 0.08087 0.8994 0.31594 0.0
C447 C 0.04671 0.87212 0.31597 0.0
C448 C 0.02305 0.86627 0.32727 0.0
C449 C 0.00572 0.88521 0.32379 0.0
C450 C 0.9835 0.87962 0.33472 0.0
C451 C 0.97834 0.85509 0.34891 0.0
C452 C 0.9954 0.83607 0.35212 0.0
C453 C 0.01766 0.84156 0.34127 0.0
H454 H 0.96112 0.8508 0.35735 0.0
H455 H 0.17568 0.90533 0.24606 0.0
H456 H 0.62359 0.72732 0.74534 0.0
H457 H 0.60648 0.7005 0.79155 0.0
H458 H 0.56694 0.65864 0.71251 0.0
H459 H 0.58447 0.68472 0.66592 0.0
H460 H 0.54182 0.67269 0.7743 0.0
H461 H 0.61271 0.63067 0.74218 0.0
H462 H 0.65424 0.62934 0.73188 0.0
H463 H 0.66701 0.65189 0.8401 0.0
H464 H 0.62552 0.65372 0.85091 0.0
H465 H 0.50975 0.56131 0.87387 0.0
H466 H 0.52404 0.59151 0.82926 0.0
H467 H 0.57292 0.62249 0.90504 0.0
H468 H 0.55925 0.5917 0.94942 0.0
H469 H 0.59297 0.61534 0.84525 0.0
H470 H 0.5232 0.65652 0.87942 0.0
H471 H 0.4819 0.65924 0.89128 0.0
H472 H 0.46692 0.64067 0.78236 0.0
H473 H 0.50814 0.63747 0.76995 0.0
C474 C 0.61136 0.71232 0.73767 0.0
C475 C 0.60558 0.70808 0.70178 0.0
C476 C 0.60148 0.69715 0.76417 0.0
C477 C 0.58556 0.67751 0.75538 0.0
C478 C 0.57913 0.67379 0.71981 0.0
C479 C 0.58913 0.68881 0.69324 0.0
C480 C 0.57647 0.66001 0.78312 0.0
C481 C 0.55291 0.65992 0.78963 0.0
C482 C 0.59107 0.64391 0.80363 0.0
C483 C 0.61602 0.64259 0.79724 0.0
C484 C 0.62437 0.63555 0.7637 0.0
C485 C 0.6479 0.63467 0.75778 0.0
C486 C 0.66325 0.64059 0.78529 0.0
C487 C 0.6551 0.64734 0.81881 0.0
C488 C 0.63158 0.64828 0.82485 0.0
C489 C 0.52349 0.57461 0.8811 0.0
C490 C 0.53335 0.5741 0.91524 0.0
C491 C 0.53157 0.592 0.85559 0.0
C492 C 0.54935 0.60961 0.86389 0.0
C493 C 0.55919 0.60913 0.89798 0.0
C494 C 0.55133 0.59152 0.92336 0.0
C495 C 0.55819 0.62794 0.83675 0.0
C496 C 0.58177 0.62816 0.8302 0.0
C497 C 0.54359 0.64439 0.81654 0.0
C498 C 0.51877 0.64652 0.82383 0.0
C499 C 0.5111 0.65284 0.85804 0.0
C500 C 0.4877 0.65449 0.86486 0.0
C501 C 0.4718 0.65007 0.83761 0.0
C502 C 0.47926 0.64406 0.80346 0.0
C503 C 0.50264 0.64235 0.7965 0.0
H504 H 0.45369 0.65134 0.84296 0.0
H505 H 0.68146 0.6399 0.78066 0.0
H506 H 0.93292 0.20456 0.17436 0.0
H507 H 0.94951 0.17779 0.22155 0.0
H508 H 0.88602 0.18124 0.27839 0.0
H509 H 0.86914 0.20767 0.23105 0.0
H510 H 0.92342 0.18807 0.32245 0.0
H511 H 0.8985 0.12778 0.23143 0.0
H512 H 0.89613 0.10996 0.17061 0.0
H513 H 0.96872 0.09777 0.17079 0.0
H514 H 0.97157 0.11589 0.23147 0.0
H515 H 0.94102 0.08118 0.43936 0.0
H516 H 0.9263 0.11117 0.39441 0.0
H517 H 0.98877 0.10305 0.33568 0.0
H518 H 0.00353 0.07269 0.38019 0.0
H519 H 0.95256 0.09936 0.29265 0.0
H520 H 0.97766 0.15853 0.38406 0.0
H521 H 0.98027 0.17636 0.44485 0.0
H522 H 0.908 0.19085 0.44413 0.0
H523 H 0.9049 0.17275 0.38348 0.0
C524 C 0.92243 0.19955 0.19681 0.0
C525 C 0.89962 0.20813 0.19875 0.0
C526 C 0.93197 0.18433 0.22382 0.0
C527 C 0.91891 0.17729 0.25327 0.0
C528 C 0.8964 0.18649 0.2559 0.0
C529 C 0.88681 0.20167 0.22885 0.0
C530 C 0.92849 0.15968 0.28081 0.0
C531 C 0.92956 0.16856 0.31606 0.0
C532 C 0.93696 0.13446 0.27227 0.0
C533 C 0.93527 0.12345 0.23585 0.0
C534 C 0.91398 0.1215 0.21839 0.0
C535 C 0.91255 0.11131 0.18397 0.0
C536 C 0.93227 0.1028 0.16681 0.0
C537 C 0.95346 0.10441 0.18409 0.0
C538 C 0.95499 0.11462 0.21851 0.0
C539 C 0.95169 0.08579 0.41696 0.0
C540 C 0.97349 0.07451 0.41346 0.0
C541 C 0.94327 0.10307 0.39134 0.0
C542 C 0.95654 0.1096 0.36187 0.0
C543 C 0.97825 0.09832 0.35823 0.0
C544 C 0.98667 0.08099 0.38377 0.0
C545 C 0.94755 0.12771 0.3344 0.0
C546 C 0.94653 0.11891 0.29911 0.0
C547 C 0.9392 0.15301 0.34293 0.0
C548 C 0.94102 0.16405 0.37934 0.0
C549 C 0.96229 0.16533 0.39696 0.0
C550 C 0.96387 0.17552 0.43138 0.0
C551 C 0.94431 0.18467 0.44838 0.0
C552 C 0.92314 0.18372 0.43094 0.0
C553 C 0.92146 0.17352 0.39653 0.0
H554 H 0.94556 0.19254 0.47503 0.0
H555 H 0.93112 0.09491 0.14016 0.0
H556 H 0.45491 0.31309 0.66442 0.0
H557 H 0.46627 0.33552 0.71948 0.0
H558 H 0.39908 0.36967 0.72676 0.0
H559 H 0.38771 0.34761 0.67162 0.0
H560 H 0.434 0.40603 0.73404 0.0
H561 H 0.41415 0.32128 0.78155 0.0
H562 H 0.41651 0.2731 0.78572 0.0
H563 H 0.48813 0.27859 0.81054 0.0
H564 H 0.48627 0.3268 0.80604 0.0
H565 H 0.44433 0.46665 0.90047 0.0
H566 H 0.43151 0.43892 0.85116 0.0
H567 H 0.49396 0.39417 0.8587 0.0
H568 H 0.5061 0.42088 0.9097 0.0
H569 H 0.46197 0.36241 0.84332 0.0
H570 H 0.48391 0.44503 0.79444 0.0
H571 H 0.48407 0.49316 0.78813 0.0
H572 H 0.41242 0.49195 0.76249 0.0
H573 H 0.41177 0.44384 0.76908 0.0
C574 C 0.44255 0.32529 0.67787 0.0
C575 C 0.42041 0.32858 0.6637 0.0
C576 C 0.44901 0.33794 0.70941 0.0
C577 C 0.43347 0.35415 0.72726 0.0
C578 C 0.41129 0.35718 0.71343 0.0
C579 C 0.40478 0.34442 0.68207 0.0
C580 C 0.44063 0.36906 0.75934 0.0
C581 C 0.43982 0.39652 0.75814 0.0
C582 C 0.44902 0.35661 0.79022 0.0
C583 C 0.45011 0.32764 0.79313 0.0
C584 C 0.43044 0.31221 0.78762 0.0
C585 C 0.43168 0.28489 0.79009 0.0
C586 C 0.45247 0.27279 0.7983 0.0
C587 C 0.47205 0.28799 0.80415 0.0
C588 C 0.4709 0.31531 0.80167 0.0
C589 C 0.45524 0.45079 0.89169 0.0
C590 C 0.47628 0.44602 0.90863 0.0
C591 C 0.44799 0.43504 0.86334 0.0
C592 C 0.46204 0.41487 0.8504 0.0
C593 C 0.48283 0.40966 0.86798 0.0
C594 C 0.48979 0.42495 0.89706 0.0
C595 C 0.45522 0.39955 0.81825 0.0
C596 C 0.45615 0.37202 0.8193 0.0
C597 C 0.44737 0.41194 0.78686 0.0
C598 C 0.44776 0.44086 0.78256 0.0
C599 C 0.46817 0.45505 0.78765 0.0
C600 C 0.46834 0.48232 0.784 0.0
C601 C 0.44826 0.49561 0.775 0.0
C602 C 0.42796 0.48164 0.7695 0.0
C603 C 0.42768 0.45436 0.77315 0.0
H604 H 0.44843 0.51672 0.77221 0.0
H605 H 0.4534 0.25164 0.8002 0.0
H606 H 0.56601 0.65745 0.38313 0.0
H607 H 0.55516 0.63427 0.3289 0.0
H608 H 0.59503 0.6885 0.26762 0.0
H609 H 0.60526 0.7126 0.32189 0.0
H610 H 0.55518 0.67786 0.23476 0.0
H611 H 0.61554 0.62788 0.28551 0.0
H612 H 0.63677 0.60428 0.33218 0.0
H613 H 0.58128 0.54975 0.34215 0.0
H614 H 0.55954 0.57326 0.29588 0.0
H615 H 0.55592 0.59018 0.08339 0.0
H616 H 0.56859 0.61736 0.13371 0.0
H617 H 0.52118 0.5774 0.2015 0.0
H618 H 0.50811 0.55049 0.15135 0.0
H619 H 0.56772 0.58169 0.22827 0.0
H620 H 0.50714 0.63451 0.17778 0.0
H621 H 0.48755 0.65831 0.1296 0.0
H622 H 0.54642 0.70759 0.11696 0.0
H623 H 0.5665 0.6838 0.16476 0.0
C624 C 0.5722 0.66478 0.35812 0.0
C625 C 0.58652 0.68693 0.35692 0.0
C626 C 0.5662 0.65128 0.32713 0.0
C627 C 0.57459 0.65937 0.29425 0.0
C628 C 0.58847 0.68181 0.29274 0.0
C629 C 0.59445 0.69543 0.32381 0.0
C630 C 0.56896 0.64413 0.26167 0.0
C631 C 0.55827 0.65691 0.23312 0.0
C632 C 0.57282 0.61674 0.25959 0.0
C633 C 0.58582 0.60249 0.28743 0.0
C634 C 0.60778 0.61098 0.29785 0.0
C635 C 0.61992 0.5976 0.3242 0.0
C636 C 0.61036 0.57557 0.34018 0.0
C637 C 0.58865 0.56684 0.32978 0.0
C638 C 0.57642 0.58017 0.30346 0.0
C639 C 0.54817 0.58721 0.109 0.0
C640 C 0.531 0.5682 0.1134 0.0
C641 C 0.55538 0.6028 0.13764 0.0
C642 C 0.54576 0.59937 0.1712 0.0
C643 C 0.52877 0.5803 0.17575 0.0
C644 C 0.52128 0.56504 0.14705 0.0
C645 C 0.55361 0.61535 0.20184 0.0
C646 C 0.56479 0.60267 0.22992 0.0
C647 C 0.55048 0.64284 0.20324 0.0
C648 C 0.53842 0.65716 0.17454 0.0
C649 C 0.516 0.65024 0.16448 0.0
C650 C 0.50479 0.66377 0.1373 0.0
C651 C 0.51576 0.68439 0.12015 0.0
C652 C 0.53796 0.69158 0.13022 0.0
C653 C 0.54926 0.67808 0.15737 0.0
H654 H 0.50705 0.69486 0.09912 0.0
H655 H 0.61979 0.56523 0.36057 0.0
H656 H 0.8899 0.15687 0.84997 0.0
H657 H 0.90304 0.13488 0.79608 0.0
H658 H 0.95771 0.19117 0.78721 0.0
H659 H 0.94458 0.21338 0.84114 0.0
H660 H 0.93585 0.17886 0.72147 0.0
H661 H 0.97059 0.1357 0.82129 0.0
H662 H 0.97077 0.11348 0.87916 0.0
H663 H 0.92783 0.05247 0.83638 0.0
H664 H 0.92712 0.07455 0.77835 0.0
H665 H 0.00948 0.06622 0.64077 0.0
H666 H 0.9969 0.0935 0.69018 0.0
H667 H 0.93289 0.10777 0.63607 0.0
H668 H 0.94538 0.08063 0.58624 0.0
H669 H 0.96132 0.08647 0.73354 0.0
H670 H 0.91461 0.16984 0.6591 0.0
H671 H 0.91651 0.19278 0.60181 0.0
H672 H 0.98799 0.17485 0.59466 0.0
H673 H 0.98659 0.15213 0.65211 0.0
C674 C 0.9045 0.16482 0.83623 0.0
C675 C 0.91627 0.18679 0.8498 0.0
C676 C 0.91204 0.15217 0.80558 0.0
C677 C 0.93141 0.16133 0.78785 0.0
C678 C 0.94272 0.18382 0.80055 0.0
C679 C 0.93531 0.19635 0.83144 0.0
C680 C 0.94057 0.14653 0.75725 0.0
C681 C 0.94139 0.15865 0.72401 0.0
C682 C 0.94811 0.12032 0.7608 0.0
C683 C 0.94862 0.10692 0.79559 0.0
C684 C 0.96103 0.11766 0.82431 0.0
C685 C 0.96126 0.10507 0.85712 0.0
C686 C 0.94927 0.08161 0.86147 0.0
C687 C 0.93708 0.07066 0.83298 0.0
C688 C 0.93677 0.08319 0.80012 0.0
C689 C 0.99276 0.07524 0.63919 0.0
C690 C 0.97844 0.07119 0.60947 0.0
C691 C 0.98558 0.09079 0.66755 0.0
C692 C 0.96403 0.10278 0.66673 0.0
C693 C 0.94971 0.09895 0.63706 0.0
C694 C 0.95685 0.08333 0.60867 0.0
C695 C 0.95632 0.11861 0.69746 0.0
C696 C 0.95574 0.10666 0.73084 0.0
C697 C 0.94928 0.14505 0.69404 0.0
C698 C 0.95042 0.15906 0.65975 0.0
C699 C 0.93075 0.17089 0.64537 0.0
C700 C 0.93174 0.18384 0.61286 0.0
C701 C 0.95234 0.18519 0.59455 0.0
C702 C 0.97202 0.1737 0.6088 0.0
C703 C 0.97114 0.16075 0.64131 0.0
H704 H 0.95305 0.19519 0.56936 0.0
H705 H 0.94947 0.07189 0.88689 0.0
H706 H 0.42877 0.28699 0.31116 0.0
H707 H 0.4461 0.31242 0.26353 0.0
H708 H 0.38752 0.3638 0.26191 0.0
H709 H 0.36998 0.3381 0.30884 0.0
H710 H 0.39903 0.35317 0.19732 0.0
H711 H 0.43979 0.38107 0.30195 0.0
H712 H 0.46295 0.37564 0.35636 0.0
H713 H 0.51701 0.34128 0.29565 0.0
H714 H 0.49403 0.3462 0.24089 0.0
H715 H 0.44606 0.46652 0.11736 0.0
H716 H 0.43115 0.43551 0.16055 0.0
H717 H 0.48408 0.38038 0.13357 0.0
H718 H 0.49899 0.41118 0.08969 0.0
H719 H 0.4772 0.39015 0.20967 0.0
H720 H 0.43561 0.36607 0.10386 0.0
H721 H 0.41189 0.37453 0.05079 0.0
H722 H 0.35851 0.40529 0.11622 0.0
H723 H 0.38207 0.39737 0.16969 0.0
C724 C 0.41966 0.30376 0.30064 0.0
C725 C 0.39803 0.31057 0.31368 0.0
C726 C 0.42958 0.31831 0.2735 0.0
C727 C 0.41825 0.34025 0.25937 0.0
C728 C 0.39658 0.34692 0.27225 0.0
C729 C 0.38655 0.33221 0.29905 0.0
C730 C 0.42883 0.35633 0.23116 0.0
C731 C 0.41605 0.36141 0.20025 0.0
C732 C 0.45124 0.36671 0.23452 0.0
C733 C 0.46508 0.36372 0.26739 0.0
C734 C 0.45654 0.37216 0.30024 0.0
C735 C 0.46965 0.36921 0.33114 0.0
C736 C 0.49141 0.35804 0.32948 0.0
C737 C 0.50013 0.34987 0.2969 0.0
C738 C 0.48708 0.35275 0.26592 0.0
C739 C 0.45455 0.4478 0.12055 0.0
C740 C 0.47369 0.44129 0.10006 0.0
C741 C 0.44597 0.4301 0.14517 0.0
C742 C 0.45649 0.40568 0.15009 0.0
C743 C 0.47575 0.39916 0.13005 0.0
C744 C 0.48415 0.41671 0.10494 0.0
C745 C 0.44725 0.38711 0.17634 0.0
C746 C 0.46028 0.38163 0.20678 0.0
C747 C 0.42496 0.37669 0.17284 0.0
C748 C 0.4107 0.38134 0.14075 0.0
C749 C 0.4189 0.37485 0.10691 0.0
C750 C 0.40547 0.37951 0.07676 0.0
C751 C 0.38373 0.3905 0.08012 0.0
C752 C 0.37536 0.3968 0.11366 0.0
C753 C 0.38874 0.39221 0.1439 0.0
H754 H 0.37336 0.39409 0.05675 0.0
H755 H 0.50153 0.35579 0.35343 0.0
H756 H 0.12227 0.84886 0.84096 0.0
H757 H 0.11099 0.87137 0.78648 0.0
H758 H 0.04696 0.82941 0.78503 0.0
H759 H 0.05823 0.80659 0.83954 0.0
H760 H 0.06823 0.83399 0.71693 0.0
H761 H 0.04636 0.88806 0.81649 0.0
H762 H 0.05331 0.91174 0.87275 0.0
H763 H 0.10432 0.95911 0.82286 0.0
H764 H 0.09791 0.93542 0.76641 0.0
H765 H 0.00803 0.91724 0.59729 0.0
H766 H 0.02063 0.88943 0.64629 0.0
H767 H 0.0774 0.94174 0.66664 0.0
H768 H 0.06419 0.97023 0.6189 0.0
H769 H 0.05955 0.93061 0.72542 0.0
H770 H 0.08244 0.87798 0.62619 0.0
H771 H 0.07743 0.85409 0.56962 0.0
H772 H 0.02739 0.80407 0.61715 0.0
H773 H 0.03189 0.8279 0.6739 0.0
C774 C 0.10596 0.84406 0.82871 0.0
C775 C 0.09109 0.82603 0.84456 0.0
C776 C 0.0995 0.85704 0.79772 0.0
C777 C 0.07808 0.85218 0.78197 0.0
C778 C 0.06355 0.83342 0.79687 0.0
C779 C 0.06993 0.82057 0.82807 0.0
C780 C 0.07038 0.86781 0.75115 0.0
C781 C 0.06607 0.85508 0.71873 0.0
C782 C 0.06811 0.89537 0.75349 0.0
C783 C 0.07181 0.9098 0.78732 0.0
C784 C 0.05919 0.90339 0.81759 0.0
C785 C 0.06301 0.91683 0.8495 0.0
C786 C 0.07929 0.93687 0.8514 0.0
C787 C 0.09173 0.94356 0.82136 0.0
C788 C 0.088 0.93015 0.7894 0.0
C789 C 0.0233 0.92267 0.61208 0.0
C790 C 0.03511 0.94592 0.60432 0.0
C791 C 0.03058 0.90667 0.63998 0.0
C792 C 0.05018 0.91324 0.65999 0.0
C793 C 0.0622 0.93624 0.65174 0.0
C794 C 0.05466 0.9525 0.62438 0.0
C795 C 0.05762 0.89695 0.6906 0.0
C796 C 0.06178 0.90954 0.72325 0.0
C797 C 0.06003 0.86931 0.68825 0.0
C798 C 0.05735 0.85489 0.65419 0.0
C799 C 0.07025 0.86201 0.6245 0.0
C800 C 0.06752 0.84846 0.59242 0.0
C801 C 0.05206 0.82762 0.58977 0.0
C802 C 0.03934 0.82024 0.61923 0.0
C803 C 0.04199 0.83374 0.65137 0.0
H804 H 0.04996 0.81715 0.5649 0.0
H805 H 0.08222 0.94726 0.87613 0.0
loop_
_geom_bond_atom_site_label_1
_geom_bond_atom_site_label_2
_geom_bond_distance
_geom_bond_site_symmetry_2
_ccdc_geom_bond_type
C0 C1 1.264 . S
C0 C5 1.479 . S
C0 C10 1.465 . S
C1 C0 1.264 . S
C1 C3 1.339 . S
C1 H28 0.931 . S
C2 C3 1.395 . S
C2 C4 1.320 . S
C3 C1 1.339 . S
C3 C2 1.395 . S
C3 H29 0.929 . S
C4 C2 1.320 . S
C4 C5 1.405 . S
C4 H30 0.930 . S
C5 C0 1.479 . S
C5 C4 1.405 . S
C5 H31 0.931 . S
U6 O7 2.454 . S
U6 O8 2.458 1_554 S
U6 C9 2.984 . S
U6 C10 2.847 . S
U6 C23 2.882 1_554 S
U6 O24 2.441 . S
U6 O25 2.420 . S
U6 O26 2.455 1_554 S
U6 O27 2.449 1_554 S
O7 U6 2.454 . S
O7 C9 1.353 . S
O8 U6 2.458 1_556 S
O8 C9 1.286 1_556 S
C9 U6 2.984 . S
C9 O7 1.353 . S
C9 O8 1.286 1_554 S
C9 C11 1.363 . S
C10 C0 1.465 . S
C10 U6 2.847 . S
C10 O24 1.249 . S
C10 O25 1.202 . S
C11 C9 1.363 . S
C11 C13 1.408 . S
C11 C16 1.342 1_554 S
C12 C13 1.310 . S
C12 C15 1.461 . S
C12 H32 0.932 . S
C13 C11 1.408 . S
C13 C12 1.310 . S
C13 H33 0.930 . S
C14 C15 1.474 1_556 S
C14 C16 1.285 . S
C14 H34 0.929 . S
C15 C12 1.461 . S
C15 C14 1.474 1_554 S
C16 C11 1.342 1_556 S
C16 C14 1.285 . S
C16 H35 0.930 . S
C17 C20 1.424 . S
C17 C22 1.245 . S
C17 C23 1.428 . S
C18 C21 1.260 . S
C18 C22 1.477 . S
C18 H36 0.932 . S
C19 C20 1.384 . S
C19 C21 1.479 . S
C19 H37 0.929 . S
C20 C17 1.424 . S
C20 C19 1.384 . S
C20 H38 0.928 . S
C21 C18 1.260 . S
C21 C19 1.479 . S
C22 C17 1.245 . S
C22 C18 1.477 . S
C22 H39 0.932 . S
C23 U6 2.882 1_556 S
C23 C17 1.428 . S
C23 O26 1.301 . S
C23 O27 1.282 . S
O24 U6 2.441 . S
O24 C10 1.249 . S
O25 U6 2.420 . S
O25 C10 1.202 . S
O26 U6 2.455 1_556 S
O26 C23 1.301 . S
O27 U6 2.449 1_556 S
O27 C23 1.282 . S
H28 C1 0.931 . S
H29 C3 0.929 . S
H30 C4 0.930 . S
H31 C5 0.931 . S
H32 C12 0.932 . S
H33 C13 0.930 . S
H34 C14 0.929 . S
H35 C16 0.930 . S
H36 C18 0.932 . S
H37 C19 0.929 . S
H38 C20 0.928 . S
H39 C22 0.932 . S
C40 C41 1.264 . S
C40 C45 1.479 . S
C40 C50 1.465 . S
C41 C40 1.264 . S
C41 C43 1.339 . S
C41 H68 0.931 . S
C42 C43 1.395 . S
C42 C44 1.320 . S
C43 C41 1.339 . S
C43 C42 1.395 . S
C43 H69 0.929 . S
C44 C42 1.320 . S
C44 C45 1.405 . S
C44 H70 0.930 . S
C45 C40 1.479 . S
C45 C44 1.405 . S
C45 H71 0.931 . S
U46 O47 2.454 . S
U46 O48 2.458 . S
U46 C49 2.984 . S
U46 C50 2.847 . S
U46 C63 2.882 . S
U46 O64 2.441 . S
U46 O65 2.420 . S
U46 O66 2.455 . S
U46 O67 2.449 . S
O47 U46 2.454 . S
O47 C49 1.353 . S
O48 U46 2.458 . S
O48 C49 1.286 . S
C49 U46 2.984 . S
C49 O47 1.353 . S
C49 O48 1.286 . S
C49 C51 1.363 . S
C50 C40 1.465 . S
C50 U46 2.847 . S
C50 O64 1.249 . S
C50 O65 1.202 . S
C51 C49 1.363 . S
C51 C53 1.408 . S
C51 C56 1.342 . S
C52 C53 1.310 . S
C52 C55 1.461 . S
C52 H72 0.932 . S
C53 C51 1.408 . S
C53 C52 1.310 . S
C53 H73 0.930 . S
C54 C55 1.474 . S
C54 C56 1.285 . S
C54 H74 0.929 . S
C55 C52 1.461 . S
C55 C54 1.474 . S
C56 C51 1.342 . S
C56 C54 1.285 . S
C56 H75 0.930 . S
C57 C60 1.424 . S
C57 C62 1.245 . S
C57 C63 1.428 . S
C58 C61 1.260 . S
C58 C62 1.477 . S
C58 H76 0.932 . S
C59 C60 1.384 . S
C59 C61 1.479 . S
C59 H77 0.929 . S
C60 C57 1.424 . S
C60 C59 1.384 . S
C60 H78 0.928 . S
C61 C58 1.260 . S
C61 C59 1.479 . S
C62 C57 1.245 . S
C62 C58 1.477 . S
C62 H79 0.932 . S
C63 U46 2.882 . S
C63 C57 1.428 . S
C63 O66 1.301 . S
C63 O67 1.282 . S
O64 U46 2.441 . S
O64 C50 1.249 . S
O65 U46 2.420 . S
O65 C50 1.202 . S
O66 U46 2.455 . S
O66 C63 1.301 . S
O67 U46 2.449 . S
O67 C63 1.282 . S
H68 C41 0.931 . S
H69 C43 0.929 . S
H70 C44 0.930 . S
H71 C45 0.931 . S
H72 C52 0.932 . S
H73 C53 0.930 . S
H74 C54 0.929 . S
H75 C56 0.930 . S
H76 C58 0.932 . S
H77 C59 0.929 . S
H78 C60 0.928 . S
H79 C62 0.932 . S
C80 C81 1.264 . S
C80 C85 1.479 . S
C80 C90 1.465 . S
C81 C80 1.264 . S
C81 C83 1.339 . S
C81 H108 0.931 . S
C82 C83 1.395 . S
C82 C84 1.320 . S
C83 C81 1.339 . S
C83 C82 1.395 . S
C83 H109 0.929 . S
C84 C82 1.320 . S
C84 C85 1.405 . S
C84 H110 0.930 . S
C85 C80 1.479 . S
C85 C84 1.405 . S
C85 H111 0.931 . S
U86 O87 2.454 . S
U86 O88 2.458 1_554 S
U86 C89 2.984 . S
U86 C90 2.847 . S
U86 C103 2.882 1_554 S
U86 O104 2.441 . S
U86 O105 2.420 . S
U86 O106 2.455 1_554 S
U86 O107 2.449 1_554 S
O87 U86 2.454 . S
O87 C89 1.353 . S
O88 U86 2.458 1_556 S
O88 C89 1.286 1_556 S
C89 U86 2.984 . S
C89 O87 1.353 . S
C89 O88 1.286 1_554 S
C89 C91 1.363 . S
C90 C80 1.465 . S
C90 U86 2.847 . S
C90 O104 1.249 . S
C90 O105 1.202 . S
C91 C89 1.363 . S
C91 C93 1.408 . S
C91 C96 1.342 1_554 S
C92 C93 1.310 . S
C92 C95 1.461 . S
C92 H112 0.932 . S
C93 C91 1.408 . S
C93 C92 1.310 . S
C93 H113 0.930 . S
C94 C95 1.474 1_556 S
C94 C96 1.285 . S
C94 H114 0.929 . S
C95 C92 1.461 . S
C95 C94 1.474 1_554 S
C96 C91 1.342 1_556 S
C96 C94 1.285 . S
C96 H115 0.930 . S
C97 C100 1.424 . S
C97 C102 1.245 . S
C97 C103 1.428 . S
C98 C101 1.260 . S
C98 C102 1.477 . S
C98 H116 0.932 . S
C99 C100 1.384 . S
C99 C101 1.479 . S
C99 H117 0.929 . S
C100 C97 1.424 . S
C100 C99 1.384 . S
C100 H118 0.928 . S
C101 C98 1.260 . S
C101 C99 1.479 . S
C102 C97 1.245 . S
C102 C98 1.477 . S
C102 H119 0.932 . S
C103 U86 2.882 1_556 S
C103 C97 1.428 . S
C103 O106 1.301 . S
C103 O107 1.282 . S
O104 U86 2.441 . S
O104 C90 1.249 . S
O105 U86 2.420 . S
O105 C90 1.202 . S
O106 U86 2.455 1_556 S
O106 C103 1.301 . S
O107 U86 2.449 1_556 S
O107 C103 1.282 . S
H108 C81 0.931 . S
H109 C83 0.929 . S
H110 C84 0.930 . S
H111 C85 0.931 . S
H112 C92 0.932 . S
H113 C93 0.930 . S
H114 C94 0.929 . S
H115 C96 0.930 . S
H116 C98 0.932 . S
H117 C99 0.929 . S
H118 C100 0.928 . S
H119 C102 0.932 . S
C120 C121 1.264 . S
C120 C125 1.479 . S
C120 C130 1.465 . S
C121 C120 1.264 . S
C121 C123 1.339 . S
C121 H148 0.931 . S
C122 C123 1.395 . S
C122 C124 1.320 . S
C123 C121 1.339 . S
C123 C122 1.395 . S
C123 H149 0.929 . S
C124 C122 1.320 . S
C124 C125 1.405 . S
C124 H150 0.930 . S
C125 C120 1.479 . S
C125 C124 1.405 . S
C125 H151 0.931 . S
U126 O127 2.454 . S
U126 O128 2.458 . S
U126 C129 2.984 . S
U126 C130 2.847 . S
U126 C143 2.882 . S
U126 O144 2.441 . S
U126 O145 2.420 . S
U126 O146 2.455 . S
U126 O147 2.449 . S
O127 U126 2.454 . S
O127 C129 1.353 . S
O128 U126 2.458 . S
O128 C129 1.286 . S
C129 U126 2.984 . S
C129 O127 1.353 . S
C129 O128 1.286 . S
C129 C131 1.363 . S
C130 C120 1.465 . S
C130 U126 2.847 . S
C130 O144 1.249 . S
C130 O145 1.202 . S
C131 C129 1.363 . S
C131 C133 1.408 . S
C131 C136 1.342 . S
C132 C133 1.310 . S
C132 C135 1.461 . S
C132 H152 0.932 . S
C133 C131 1.408 . S
C133 C132 1.310 . S
C133 H153 0.930 . S
C134 C135 1.474 . S
C134 C136 1.285 . S
C134 H154 0.929 . S
C135 C132 1.461 . S
C135 C134 1.474 . S
C136 C131 1.342 . S
C136 C134 1.285 . S
C136 H155 0.930 . S
C137 C140 1.424 . S
C137 C142 1.245 . S
C137 C143 1.428 . S
C138 C141 1.260 . S
C138 C142 1.477 . S
C138 H156 0.932 . S
C139 C140 1.384 . S
C139 C141 1.479 . S
C139 H157 0.929 . S
C140 C137 1.424 . S
C140 C139 1.384 . S
C140 H158 0.928 . S
C141 C138 1.260 . S
C141 C139 1.479 . S
C142 C137 1.245 . S
C142 C138 1.477 . S
C142 H159 0.932 . S
C143 U126 2.882 . S
C143 C137 1.428 . S
C143 O146 1.301 . S
C143 O147 1.282 . S
O144 U126 2.441 . S
O144 C130 1.249 . S
O145 U126 2.420 . S
O145 C130 1.202 . S
O146 U126 2.455 . S
O146 C143 1.301 . S
O147 U126 2.449 . S
O147 C143 1.282 . S
H148 C121 0.931 . S
H149 C123 0.929 . S
H150 C124 0.930 . S
H151 C125 0.931 . S
H152 C132 0.932 . S
H153 C133 0.930 . S
H154 C134 0.929 . S
H155 C136 0.930 . S
H156 C138 0.932 . S
H157 C139 0.929 . S
H158 C140 0.928 . S
H159 C142 0.932 . S
O160 Zn161 1.949 1_565 S
O160 C176 1.232 . S
Zn161 O160 1.949 1_545 S
Zn161 O162 1.949 1_655 S
Zn161 O168 1.919 . S
Zn161 O173 1.924 . S
O162 Zn161 1.949 1_455 S
O162 Zn163 1.923 . S
O162 Zn164 1.950 1_445 S
O162 Zn165 1.945 . S
Zn163 O162 1.923 . S
Zn163 O166 1.933 . S
Zn163 O169 1.941 . S
Zn163 O170 1.965 1_545 S
Zn164 O162 1.950 1_665 S
Zn164 O171 1.938 1_655 S
Zn164 O172 1.906 1_655 S
Zn164 O182 1.953 . S
Zn165 O162 1.945 . S
Zn165 O167 1.932 . S
Zn165 O174 1.977 1_545 S
Zn165 O175 1.910 1_455 S
O166 Zn163 1.933 . S
O166 C177 1.226 . S
O167 Zn165 1.932 . S
O167 C177 1.307 . S
O168 Zn161 1.919 . S
O168 C179 1.253 . S
O169 Zn163 1.941 . S
O169 C179 1.283 1_455 S
O170 Zn163 1.965 1_565 S
O170 C178 1.303 . S
O171 Zn164 1.938 1_455 S
O171 C178 1.247 . S
O172 Zn164 1.906 1_455 S
O172 C180 1.304 . S
O173 Zn161 1.924 . S
O173 C181 1.311 . S
O174 Zn165 1.977 1_565 S
O174 C180 1.272 . S
O175 Zn165 1.910 1_655 S
O175 C181 1.231 . S
C176 O160 1.232 . S
C176 O182 1.298 . S
C177 O166 1.226 . S
C177 O167 1.307 . S
C178 O170 1.303 . S
C178 O171 1.247 . S
C179 O168 1.253 . S
C179 O169 1.283 1_655 S
C180 O172 1.304 . S
C180 O174 1.272 . S
C181 O173 1.311 . S
C181 O175 1.231 . S
O182 Zn164 1.953 . S
O182 C176 1.298 . S
O183 Zn184 1.954 . S
O183 C199 1.225 1_556 S
Zn184 O183 1.954 . S
Zn184 O185 1.946 1_556 S
Zn184 O191 1.934 . S
Zn184 O196 1.909 1_556 S
O185 Zn184 1.946 1_554 S
O185 Zn186 1.923 1_554 S
O185 Zn187 1.950 . S
O185 Zn188 1.945 . S
Zn186 O185 1.923 1_556 S
Zn186 O189 1.933 . S
Zn186 O192 1.941 . S
Zn186 O193 1.965 . S
Zn187 O185 1.950 . S
Zn187 O194 1.938 1_554 S
Zn187 O195 1.906 . S
Zn187 O205 1.953 . S
Zn188 O185 1.945 . S
Zn188 O190 1.932 . S
Zn188 O197 1.977 . S
Zn188 O198 1.910 . S
O189 Zn186 1.933 . S
O189 C200 1.226 1_556 S
O190 Zn188 1.932 . S
O190 C200 1.307 . S
O191 Zn184 1.934 . S
O191 C202 1.253 . S
O192 Zn186 1.941 . S
O192 C202 1.283 . S
O193 Zn186 1.965 . S
O193 C201 1.303 . S
O194 Zn187 1.938 1_556 S
O194 C201 1.247 . S
O195 Zn187 1.906 . S
O195 C203 1.304 . S
O196 Zn184 1.909 1_554 S
O196 C204 1.311 . S
O197 Zn188 1.977 . S
O197 C203 1.272 . S
O198 Zn188 1.910 . S
O198 C204 1.231 . S
C199 O183 1.225 1_554 S
C199 O205 1.298 . S
C200 O189 1.226 1_554 S
C200 O190 1.307 . S
C201 O193 1.303 . S
C201 O194 1.247 . S
C202 O191 1.253 . S
C202 O192 1.283 . S
C203 O195 1.304 . S
C203 O197 1.272 . S
C204 O196 1.311 . S
C204 O198 1.231 . S
O205 Zn187 1.953 . S
O205 C199 1.298 . S
H206 C224 0.951 . S
H207 C226 0.951 . S
H208 C228 0.950 . S
H209 C229 0.950 . S
H210 C231 0.950 . S
H211 C234 0.950 . S
H212 C235 0.950 . S
H213 C237 0.950 . S
H214 C238 0.950 . S
H215 C239 0.951 . S
H216 C241 0.951 . S
H217 C243 0.950 . S
H218 C244 0.950 . S
H219 C246 0.950 . S
H220 C249 0.950 . S
H221 C250 0.950 . S
H222 C252 0.950 . S
H223 C253 0.950 . S
C224 H206 0.951 . S
C224 C225 1.366 . S
C224 C226 1.388 . S
C225 C224 1.366 . S
C225 C229 1.385 . S
C226 H207 0.951 . S
C226 C224 1.388 . S
C226 C227 1.366 . S
C227 C226 1.366 . S
C227 C228 1.414 . S
C227 C230 1.499 . S
C228 H208 0.950 . S
C228 C227 1.414 . S
C228 C229 1.374 . S
C229 H209 0.950 . S
C229 C225 1.385 . S
C229 C228 1.374 . S
C230 C227 1.499 . S
C230 C231 1.373 . S
C230 C232 1.389 . S
C231 H210 0.950 . S
C231 C230 1.373 . S
C231 C247 1.377 . S
C232 C230 1.389 . S
C232 C233 1.524 . S
C232 C246 1.377 . S
C233 C232 1.524 . S
C233 C234 1.397 . S
C233 C238 1.363 . S
C234 H211 0.950 . S
C234 C233 1.397 . S
C234 C235 1.334 . S
C235 H212 0.950 . S
C235 C234 1.334 . S
C235 C236 1.287 . S
C236 C235 1.287 . S
C236 C237 1.524 . S
C236 H255 0.913 . S
C237 H213 0.950 . S
C237 C236 1.524 . S
C237 C238 1.415 . S
C238 H214 0.950 . S
C238 C233 1.363 . S
C238 C237 1.415 . S
C239 H215 0.951 . S
C239 C240 1.366 . S
C239 C241 1.388 . S
C240 C239 1.366 . S
C240 C244 1.385 . S
C241 H216 0.951 . S
C241 C239 1.388 . S
C241 C242 1.366 . S
C242 C241 1.366 . S
C242 C243 1.414 . S
C242 C245 1.499 . S
C243 H217 0.950 . S
C243 C242 1.414 . S
C243 C244 1.374 . S
C244 H218 0.950 . S
C244 C240 1.385 . S
C244 C243 1.374 . S
C245 C242 1.499 . S
C245 C246 1.373 . S
C245 C247 1.389 . S
C246 H219 0.950 . S
C246 C232 1.377 . S
C246 C245 1.373 . S
C247 C231 1.377 . S
C247 C245 1.389 . S
C247 C248 1.524 . S
C248 C247 1.524 . S
C248 C249 1.397 . S
C248 C253 1.363 . S
C249 H220 0.950 . S
C249 C248 1.397 . S
C249 C250 1.334 1_545 S
C250 H221 0.950 . S
C250 C249 1.334 1_565 S
C250 C251 1.287 . S
C251 C250 1.287 . S
C251 C252 1.524 1_565 S
C251 H254 0.999 . S
C252 H222 0.950 . S
C252 C251 1.524 1_545 S
C252 C253 1.415 . S
C253 H223 0.950 . S
C253 C248 1.363 . S
C253 C252 1.415 . S
H254 C251 0.999 . S
H255 C236 0.913 . S
H256 C274 0.954 . S
H257 C276 0.951 . S
H258 C278 0.950 . S
H259 C279 0.950 . S
H260 C281 0.950 . S
H261 C284 0.950 . S
H262 C285 0.950 . S
H263 C287 0.950 . S
H264 C288 0.950 . S
H265 C289 0.951 . S
H266 C291 0.951 . S
H267 C293 0.953 . S
H268 C294 0.950 . S
H269 C296 0.950 . S
H270 C299 0.950 . S
H271 C300 0.950 . S
H272 C302 0.950 . S
H273 C303 0.950 . S
C274 H256 0.954 . S
C274 C275 1.366 . S
C274 C276 1.388 . S
C275 C274 1.366 . S
C275 C279 1.385 . S
C276 H257 0.951 . S
C276 C274 1.388 . S
C276 C277 1.366 . S
C277 C276 1.366 . S
C277 C278 1.414 . S
C277 C280 1.499 . S
C278 H258 0.950 . S
C278 C277 1.414 . S
C278 C279 1.374 . S
C279 H259 0.950 . S
C279 C275 1.385 . S
C279 C278 1.374 . S
C280 C277 1.499 . S
C280 C281 1.373 1_554 S
C280 C282 1.389 . S
C281 H260 0.950 . S
C281 C280 1.373 1_556 S
C281 C297 1.377 . S
C282 C280 1.389 . S
C282 C283 1.524 . S
C282 C296 1.377 . S
C283 C282 1.524 . S
C283 C284 1.397 . S
C283 C288 1.363 . S
C284 H261 0.950 . S
C284 C283 1.397 . S
C284 C285 1.334 . S
C285 H262 0.950 . S
C285 C284 1.334 . S
C285 C286 1.287 . S
C286 C285 1.287 . S
C286 C287 1.524 . S
C286 H305 0.913 . S
C287 H263 0.950 . S
C287 C286 1.524 . S
C287 C288 1.415 . S
C288 H264 0.950 . S
C288 C283 1.363 . S
C288 C287 1.415 . S
C289 H265 0.951 . S
C289 C290 1.366 . S
C289 C291 1.388 . S
C290 C289 1.366 . S
C290 C294 1.385 . S
C291 H266 0.951 . S
C291 C289 1.388 . S
C291 C292 1.366 . S
C292 C291 1.366 . S
C292 C293 1.414 . S
C292 C295 1.499 . S
C293 H267 0.953 . S
C293 C292 1.414 . S
C293 C294 1.374 . S
C294 H268 0.950 . S
C294 C290 1.385 . S
C294 C293 1.374 . S
C295 C292 1.499 . S
C295 C296 1.373 . S
C295 C297 1.389 1_554 S
C296 H269 0.950 . S
C296 C282 1.377 . S
C296 C295 1.373 . S
C297 C281 1.377 . S
C297 C295 1.389 1_556 S
C297 C298 1.524 . S
C298 C297 1.524 . S
C298 C299 1.397 . S
C298 C303 1.363 . S
C299 H270 0.950 . S
C299 C298 1.397 . S
C299 C300 1.334 . S
C300 H271 0.950 . S
C300 C299 1.334 . S
C300 C301 1.287 . S
C301 C300 1.287 . S
C301 C302 1.524 . S
C301 H304 0.999 . S
C302 H272 0.950 . S
C302 C301 1.524 . S
C302 C303 1.415 . S
C303 H273 0.950 . S
C303 C298 1.363 . S
C303 C302 1.415 . S
H304 C301 0.999 . S
H305 C286 0.913 . S
H306 C324 0.951 . S
H307 C326 0.951 . S
H308 C328 0.950 . S
H309 C329 0.950 . S
H310 C331 0.950 . S
H311 C334 0.950 . S
H312 C335 0.950 . S
H313 C337 0.950 . S
H314 C338 0.950 . S
H315 C339 0.993 . S
H316 C341 0.951 . S
H317 C343 0.950 . S
H318 C344 0.950 . S
H319 C346 0.950 . S
H320 C349 0.950 . S
H321 C350 0.950 . S
H322 C352 0.950 . S
H323 C353 0.950 . S
C324 H306 0.951 . S
C324 C325 1.366 . S
C324 C326 1.388 . S
C325 C324 1.366 . S
C325 C329 1.385 . S
C326 H307 0.951 . S
C326 C324 1.388 . S
C326 C327 1.366 . S
C327 C326 1.366 . S
C327 C328 1.414 . S
C327 C330 1.499 . S
C328 H308 0.950 . S
C328 C327 1.414 . S
C328 C329 1.374 . S
C329 H309 0.950 . S
C329 C325 1.385 . S
C329 C328 1.374 . S
C330 C327 1.499 . S
C330 C331 1.373 . S
C330 C332 1.389 . S
C331 H310 0.950 . S
C331 C330 1.373 . S
C331 C347 1.377 . S
C332 C330 1.389 . S
C332 C333 1.524 . S
C332 C346 1.377 . S
C333 C332 1.524 . S
C333 C334 1.397 . S
C333 C338 1.363 . S
C334 H311 0.950 . S
C334 C333 1.397 . S
C334 C335 1.334 . S
C335 H312 0.950 . S
C335 C334 1.334 . S
C335 C336 1.287 . S
C336 C335 1.287 . S
C336 C337 1.524 . S
C336 H355 0.913 . S
C337 H313 0.950 . S
C337 C336 1.524 . S
C337 C338 1.415 . S
C338 H314 0.950 . S
C338 C333 1.363 . S
C338 C337 1.415 . S
C339 H315 0.993 . S
C339 C340 1.366 . S
C339 C341 1.388 . S
C340 C339 1.366 . S
C340 C344 1.385 . S
C341 H316 0.951 . S
C341 C339 1.388 . S
C341 C342 1.366 . S
C342 C341 1.366 . S
C342 C343 1.414 . S
C342 C345 1.499 . S
C343 H317 0.950 . S
C343 C342 1.414 . S
C343 C344 1.374 . S
C344 H318 0.950 . S
C344 C340 1.385 . S
C344 C343 1.374 . S
C345 C342 1.499 . S
C345 C346 1.373 . S
C345 C347 1.389 . S
C346 H319 0.950 . S
C346 C332 1.377 . S
C346 C345 1.373 . S
C347 C331 1.377 . S
C347 C345 1.389 . S
C347 C348 1.524 . S
C348 C347 1.524 . S
C348 C349 1.397 . S
C348 C353 1.363 . S
C349 H320 0.950 . S
C349 C348 1.397 . S
C349 C350 1.334 . S
C350 H321 0.950 . S
C350 C349 1.334 . S
C350 C351 1.287 . S
C351 C350 1.287 . S
C351 C352 1.524 1_565 S
C351 H354 0.999 1_565 S
C352 H322 0.950 . S
C352 C351 1.524 1_545 S
C352 C353 1.415 1_545 S
C353 H323 0.950 . S
C353 C348 1.363 . S
C353 C352 1.415 1_565 S
H354 C351 0.999 1_545 S
H355 C336 0.913 . S
H356 C374 0.951 . S
H357 C376 0.951 . S
H358 C378 0.950 . S
H359 C379 0.950 . S
H360 C381 0.950 . S
H361 C384 0.950 . S
H362 C385 0.950 . S
H363 C387 0.950 . S
H364 C388 0.950 . S
H365 C389 0.951 . S
H366 C391 0.951 . S
H367 C393 0.950 . S
H368 C394 0.950 . S
H369 C396 0.950 . S
H370 C399 0.950 . S
H371 C400 0.950 . S
H372 C402 0.950 . S
H373 C403 0.950 . S
C374 H356 0.951 . S
C374 C375 1.366 1_556 S
C374 C376 1.388 . S
C375 C374 1.366 1_554 S
C375 C379 1.385 . S
C376 H357 0.951 . S
C376 C374 1.388 . S
C376 C377 1.366 1_556 S
C377 C376 1.366 1_554 S
C377 C378 1.414 . S
C377 C380 1.499 . S
C378 H358 0.950 . S
C378 C377 1.414 . S
C378 C379 1.374 . S
C379 H359 0.950 . S
C379 C375 1.385 . S
C379 C378 1.374 . S
C380 C377 1.499 . S
C380 C381 1.373 . S
C380 C382 1.389 1_554 S
C381 H360 0.950 . S
C381 C380 1.373 . S
C381 C397 1.377 . S
C382 C380 1.389 1_556 S
C382 C383 1.524 . S
C382 C396 1.377 . S
C383 C382 1.524 . S
C383 C384 1.397 . S
C383 C388 1.363 . S
C384 H361 0.950 . S
C384 C383 1.397 . S
C384 C385 1.334 . S
C385 H362 0.950 . S
C385 C384 1.334 . S
C385 C386 1.287 . S
C386 C385 1.287 . S
C386 C387 1.524 . S
C386 H405 0.913 . S
C387 H363 0.950 . S
C387 C386 1.524 . S
C387 C388 1.415 . S
C388 H364 0.950 . S
C388 C383 1.363 . S
C388 C387 1.415 . S
C389 H365 0.951 . S
C389 C390 1.366 . S
C389 C391 1.388 . S
C390 C389 1.366 . S
C390 C394 1.385 1_554 S
C391 H366 0.951 . S
C391 C389 1.388 . S
C391 C392 1.366 . S
C392 C391 1.366 . S
C392 C393 1.414 1_554 S
C392 C395 1.499 . S
C393 H367 0.950 . S
C393 C392 1.414 1_556 S
C393 C394 1.374 . S
C394 H368 0.950 . S
C394 C390 1.385 1_556 S
C394 C393 1.374 . S
C395 C392 1.499 . S
C395 C396 1.373 1_554 S
C395 C397 1.389 . S
C396 H369 0.950 . S
C396 C382 1.377 . S
C396 C395 1.373 1_556 S
C397 C381 1.377 . S
C397 C395 1.389 . S
C397 C398 1.524 . S
C398 C397 1.524 . S
C398 C399 1.397 . S
C398 C403 1.363 . S
C399 H370 0.950 . S
C399 C398 1.397 . S
C399 C400 1.334 . S
C400 H371 0.950 . S
C400 C399 1.334 . S
C400 C401 1.287 . S
C401 C400 1.287 . S
C401 C402 1.524 . S
C401 H404 0.999 . S
C402 H372 0.950 . S
C402 C401 1.524 . S
C402 C403 1.415 . S
C403 H373 0.950 . S
C403 C398 1.363 . S
C403 C402 1.415 . S
H404 C401 0.999 . S
H405 C386 0.913 . S
H406 C424 0.951 . S
H407 C426 0.951 . S
H408 C428 0.950 . S
H409 C429 0.950 . S
H410 C431 0.950 . S
H411 C434 0.950 . S
H412 C435 0.950 . S
H413 C437 0.950 . S
H414 C438 0.950 . S
H415 C439 0.951 . S
H416 C441 0.951 . S
H417 C443 0.950 . S
H418 C444 0.950 . S
H419 C446 0.950 . S
H420 C449 0.952 . S
H421 C450 0.950 . S
H422 C452 0.948 1_655 S
H423 C453 0.950 . S
C424 H406 0.951 . S
C424 C425 1.366 . S
C424 C426 1.388 . S
C425 C424 1.366 . S
C425 C429 1.385 . S
C426 H407 0.951 . S
C426 C424 1.388 . S
C426 C427 1.366 . S
C427 C426 1.366 . S
C427 C428 1.414 . S
C427 C430 1.499 . S
C428 H408 0.950 . S
C428 C427 1.414 . S
C428 C429 1.374 . S
C429 H409 0.950 . S
C429 C425 1.385 . S
C429 C428 1.374 . S
C430 C427 1.499 . S
C430 C431 1.373 . S
C430 C432 1.389 . S
C431 H410 0.950 . S
C431 C430 1.373 . S
C431 C447 1.377 . S
C432 C430 1.389 . S
C432 C433 1.524 . S
C432 C446 1.377 . S
C433 C432 1.524 . S
C433 C434 1.397 . S
C433 C438 1.363 . S
C434 H411 0.950 . S
C434 C433 1.397 . S
C434 C435 1.334 . S
C435 H412 0.950 . S
C435 C434 1.334 . S
C435 C436 1.287 . S
C436 C435 1.287 . S
C436 C437 1.524 . S
C436 H455 0.913 . S
C437 H413 0.950 . S
C437 C436 1.524 . S
C437 C438 1.415 . S
C438 H414 0.950 . S
C438 C433 1.363 . S
C438 C437 1.415 . S
C439 H415 0.951 . S
C439 C440 1.366 . S
C439 C441 1.388 . S
C440 C439 1.366 . S
C440 C444 1.385 . S
C441 H416 0.951 . S
C441 C439 1.388 . S
C441 C442 1.366 . S
C442 C441 1.366 . S
C442 C443 1.414 . S
C442 C445 1.499 . S
C443 H417 0.950 . S
C443 C442 1.414 . S
C443 C444 1.374 . S
C444 H418 0.950 . S
C444 C440 1.385 . S
C444 C443 1.374 . S
C445 C442 1.499 . S
C445 C446 1.373 . S
C445 C447 1.389 . S
C446 H419 0.950 . S
C446 C432 1.377 . S
C446 C445 1.373 . S
C447 C431 1.377 . S
C447 C445 1.389 . S
C447 C448 1.524 . S
C448 C447 1.524 . S
C448 C449 1.429 . S
C448 C453 1.363 . S
C449 H420 0.952 . S
C449 C448 1.429 . S
C449 C450 1.301 1_455 S
C450 H421 0.950 . S
C450 C449 1.301 1_655 S
C450 C451 1.287 . S
C451 C450 1.287 . S
C451 C452 1.518 1_655 S
C451 H454 0.999 . S
C452 H422 0.948 1_455 S
C452 C451 1.518 1_455 S
C452 C453 1.422 . S
C453 H423 0.950 . S
C453 C448 1.363 . S
C453 C452 1.422 . S
H454 C451 0.999 . S
H455 C436 0.913 . S
H456 C474 0.951 . S
H457 C476 0.951 . S
H458 C478 0.950 . S
H459 C479 0.950 . S
H460 C481 0.950 . S
H461 C484 0.950 . S
H462 C485 0.950 . S
H463 C487 0.950 . S
H464 C488 0.950 . S
H465 C489 0.951 . S
H466 C491 0.951 . S
H467 C493 0.950 . S
H468 C494 0.950 . S
H469 C496 0.950 . S
H470 C499 0.950 . S
H471 C500 0.950 . S
H472 C502 0.950 . S
H473 C503 0.950 . S
C474 H456 0.951 . S
C474 C475 1.366 . S
C474 C476 1.388 . S
C475 C474 1.366 . S
C475 C479 1.385 . S
C476 H457 0.951 . S
C476 C474 1.388 . S
C476 C477 1.366 . S
C477 C476 1.366 . S
C477 C478 1.414 . S
C477 C480 1.499 . S
C478 H458 0.950 . S
C478 C477 1.414 . S
C478 C479 1.374 . S
C479 H459 0.950 . S
C479 C475 1.385 . S
C479 C478 1.374 . S
C480 C477 1.499 . S
C480 C481 1.373 . S
C480 C482 1.389 . S
C481 H460 0.950 . S
C481 C480 1.373 . S
C481 C497 1.377 . S
C482 C480 1.389 . S
C482 C483 1.524 . S
C482 C496 1.377 . S
C483 C482 1.524 . S
C483 C484 1.397 . S
C483 C488 1.363 . S
C484 H461 0.950 . S
C484 C483 1.397 . S
C484 C485 1.334 . S
C485 H462 0.950 . S
C485 C484 1.334 . S
C485 C486 1.287 . S
C486 C485 1.287 . S
C486 C487 1.524 . S
C486 H505 0.913 . S
C487 H463 0.950 . S
C487 C486 1.524 . S
C487 C488 1.415 . S
C488 H464 0.950 . S
C488 C483 1.363 . S
C488 C487 1.415 . S
C489 H465 0.951 . S
C489 C490 1.366 . S
C489 C491 1.388 . S
C490 C489 1.366 . S
C490 C494 1.385 . S
C491 H466 0.951 . S
C491 C489 1.388 . S
C491 C492 1.366 . S
C492 C491 1.366 . S
C492 C493 1.414 . S
C492 C495 1.499 . S
C493 H467 0.950 . S
C493 C492 1.414 . S
C493 C494 1.374 . S
C494 H468 0.950 . S
C494 C490 1.385 . S
C494 C493 1.374 . S
C495 C492 1.499 . S
C495 C496 1.373 . S
C495 C497 1.389 . S
C496 H469 0.950 . S
C496 C482 1.377 . S
C496 C495 1.373 . S
C497 C481 1.377 . S
C497 C495 1.389 . S
C497 C498 1.524 . S
C498 C497 1.524 . S
C498 C499 1.397 . S
C498 C503 1.363 . S
C499 H470 0.950 . S
C499 C498 1.397 . S
C499 C500 1.334 . S
C500 H471 0.950 . S
C500 C499 1.334 . S
C500 C501 1.287 . S
C501 C500 1.287 . S
C501 C502 1.524 . S
C501 H504 0.999 . S
C502 H472 0.950 . S
C502 C501 1.524 . S
C502 C503 1.415 . S
C503 H473 0.950 . S
C503 C498 1.363 . S
C503 C502 1.415 . S
H504 C501 0.999 . S
H505 C486 0.913 . S
H506 C524 0.951 . S
H507 C526 0.951 . S
H508 C528 0.950 . S
H509 C529 0.950 . S
H510 C531 0.950 . S
H511 C534 0.950 . S
H512 C535 0.950 . S
H513 C537 0.950 . S
H514 C538 0.950 . S
H515 C539 0.951 . S
H516 C541 0.951 . S
H517 C543 0.950 . S
H518 C544 0.950 . S
H519 C546 0.950 . S
H520 C549 0.950 . S
H521 C550 0.950 1_455 S
H522 C552 0.950 . S
H523 C553 0.950 . S
C524 H506 0.951 . S
C524 C525 1.366 . S
C524 C526 1.388 . S
C525 C524 1.366 . S
C525 C529 1.385 . S
C526 H507 0.951 . S
C526 C524 1.388 . S
C526 C527 1.366 . S
C527 C526 1.366 . S
C527 C528 1.414 . S
C527 C530 1.499 . S
C528 H508 0.950 . S
C528 C527 1.414 . S
C528 C529 1.374 . S
C529 H509 0.950 . S
C529 C525 1.385 . S
C529 C528 1.374 . S
C530 C527 1.499 . S
C530 C531 1.373 . S
C530 C532 1.389 . S
C531 H510 0.950 . S
C531 C530 1.373 . S
C531 C547 1.377 . S
C532 C530 1.389 . S
C532 C533 1.524 . S
C532 C546 1.377 . S
C533 C532 1.524 . S
C533 C534 1.397 . S
C533 C538 1.363 . S
C534 H511 0.950 . S
C534 C533 1.397 . S
C534 C535 1.334 . S
C535 H512 0.950 . S
C535 C534 1.334 . S
C535 C536 1.287 . S
C536 C535 1.287 . S
C536 C537 1.524 . S
C536 H555 0.913 . S
C537 H513 0.950 . S
C537 C536 1.524 . S
C537 C538 1.415 . S
C538 H514 0.950 . S
C538 C533 1.363 . S
C538 C537 1.415 . S
C539 H515 0.951 . S
C539 C540 1.366 . S
C539 C541 1.388 . S
C540 C539 1.366 . S
C540 C544 1.385 . S
C541 H516 0.951 . S
C541 C539 1.388 . S
C541 C542 1.366 . S
C542 C541 1.366 . S
C542 C543 1.414 . S
C542 C545 1.499 . S
C543 H517 0.950 . S
C543 C542 1.414 . S
C543 C544 1.374 . S
C544 H518 0.950 . S
C544 C540 1.385 . S
C544 C543 1.374 . S
C545 C542 1.499 . S
C545 C546 1.373 . S
C545 C547 1.389 . S
C546 H519 0.950 . S
C546 C532 1.377 . S
C546 C545 1.373 . S
C547 C531 1.377 . S
C547 C545 1.389 . S
C547 C548 1.524 . S
C548 C547 1.524 . S
C548 C549 1.397 . S
C548 C553 1.363 . S
C549 H520 0.950 . S
C549 C548 1.397 . S
C549 C550 1.334 . S
C550 H521 0.950 1_655 S
C550 C549 1.334 . S
C550 C551 1.287 . S
C551 C550 1.287 . S
C551 C552 1.524 . S
C551 H554 0.999 . S
C552 H522 0.950 . S
C552 C551 1.524 . S
C552 C553 1.415 . S
C553 H523 0.950 . S
C553 C548 1.363 . S
C553 C552 1.415 . S
H554 C551 0.999 . S
H555 C536 0.913 . S
H556 C574 0.951 . S
H557 C576 0.951 . S
H558 C578 0.950 . S
H559 C579 0.950 . S
H560 C581 0.950 . S
H561 C584 0.950 . S
H562 C585 0.950 . S
H563 C587 0.950 . S
H564 C588 0.950 . S
H565 C589 0.951 . S
H566 C591 0.951 . S
H567 C593 0.950 . S
H568 C594 0.950 . S
H569 C596 0.950 . S
H570 C599 0.950 . S
H571 C600 0.950 . S
H572 C602 0.950 . S
H573 C603 0.950 . S
C574 H556 0.951 . S
C574 C575 1.366 . S
C574 C576 1.388 . S
C575 C574 1.366 . S
C575 C579 1.385 . S
C576 H557 0.951 . S
C576 C574 1.388 . S
C576 C577 1.366 . S
C577 C576 1.366 . S
C577 C578 1.414 . S
C577 C580 1.499 . S
C578 H558 0.950 . S
C578 C577 1.414 . S
C578 C579 1.374 . S
C579 H559 0.950 . S
C579 C575 1.385 . S
C579 C578 1.374 . S
C580 C577 1.499 . S
C580 C581 1.373 . S
C580 C582 1.389 . S
C581 H560 0.950 . S
C581 C580 1.373 . S
C581 C597 1.377 . S
C582 C580 1.389 . S
C582 C583 1.524 . S
C582 C596 1.377 . S
C583 C582 1.524 . S
C583 C584 1.397 . S
C583 C588 1.363 . S
C584 H561 0.950 . S
C584 C583 1.397 . S
C584 C585 1.334 . S
C585 H562 0.950 . S
C585 C584 1.334 . S
C585 C586 1.287 . S
C586 C585 1.287 . S
C586 C587 1.524 . S
C586 H605 0.913 . S
C587 H563 0.950 . S
C587 C586 1.524 . S
C587 C588 1.415 . S
C588 H564 0.950 . S
C588 C583 1.363 . S
C588 C587 1.415 . S
C589 H565 0.951 . S
C589 C590 1.366 . S
C589 C591 1.388 . S
C590 C589 1.366 . S
C590 C594 1.385 . S
C591 H566 0.951 . S
C591 C589 1.388 . S
C591 C592 1.366 . S
C592 C591 1.366 . S
C592 C593 1.414 . S
C592 C595 1.499 . S
C593 H567 0.950 . S
C593 C592 1.414 . S
C593 C594 1.374 . S
C594 H568 0.950 . S
C594 C590 1.385 . S
C594 C593 1.374 . S
C595 C592 1.499 . S
C595 C596 1.373 . S
C595 C597 1.389 . S
C596 H569 0.950 . S
C596 C582 1.377 . S
C596 C595 1.373 . S
C597 C581 1.377 . S
C597 C595 1.389 . S
C597 C598 1.524 . S
C598 C597 1.524 . S
C598 C599 1.397 . S
C598 C603 1.363 . S
C599 H570 0.950 . S
C599 C598 1.397 . S
C599 C600 1.334 . S
C600 H571 0.950 . S
C600 C599 1.334 . S
C600 C601 1.287 . S
C601 C600 1.287 . S
C601 C602 1.524 . S
C601 H604 0.999 . S
C602 H572 0.950 . S
C602 C601 1.524 . S
C602 C603 1.415 . S
C603 H573 0.950 . S
C603 C598 1.363 . S
C603 C602 1.415 . S
H604 C601 0.999 . S
H605 C586 0.913 . S
H606 C624 0.951 . S
H607 C626 0.951 . S
H608 C628 0.950 . S
H609 C629 0.950 . S
H610 C631 0.950 . S
H611 C634 0.950 . S
H612 C635 0.950 . S
H613 C637 0.950 . S
H614 C638 0.950 . S
H615 C639 0.951 . S
H616 C641 0.951 . S
H617 C643 0.950 . S
H618 C644 0.950 . S
H619 C646 0.950 . S
H620 C649 0.950 . S
H621 C650 0.950 . S
H622 C652 0.950 . S
H623 C653 0.950 . S
C624 H606 0.951 . S
C624 C625 1.366 . S
C624 C626 1.388 . S
C625 C624 1.366 . S
C625 C629 1.385 . S
C626 H607 0.951 . S
C626 C624 1.388 . S
C626 C627 1.366 . S
C627 C626 1.366 . S
C627 C628 1.414 . S
C627 C630 1.499 . S
C628 H608 0.950 . S
C628 C627 1.414 . S
C628 C629 1.374 . S
C629 H609 0.950 . S
C629 C625 1.385 . S
C629 C628 1.374 . S
C630 C627 1.499 . S
C630 C631 1.373 . S
C630 C632 1.389 . S
C631 H610 0.950 . S
C631 C630 1.373 . S
C631 C647 1.377 . S
C632 C630 1.389 . S
C632 C633 1.524 . S
C632 C646 1.377 . S
C633 C632 1.524 . S
C633 C634 1.397 . S
C633 C638 1.363 . S
C634 H611 0.950 . S
C634 C633 1.397 . S
C634 C635 1.334 . S
C635 H612 0.950 . S
C635 C634 1.334 . S
C635 C636 1.287 . S
C636 C635 1.287 . S
C636 C637 1.524 . S
C636 H655 0.913 . S
C637 H613 0.950 . S
C637 C636 1.524 . S
C637 C638 1.415 . S
C638 H614 0.950 . S
C638 C633 1.363 . S
C638 C637 1.415 . S
C639 H615 0.951 . S
C639 C640 1.366 . S
C639 C641 1.388 . S
C640 C639 1.366 . S
C640 C644 1.385 . S
C641 H616 0.951 . S
C641 C639 1.388 . S
C641 C642 1.366 . S
C642 C641 1.366 . S
C642 C643 1.414 . S
C642 C645 1.499 . S
C643 H617 0.950 . S
C643 C642 1.414 . S
C643 C644 1.374 . S
C644 H618 0.950 . S
C644 C640 1.385 . S
C644 C643 1.374 . S
C645 C642 1.499 . S
C645 C646 1.373 . S
C645 C647 1.389 . S
C646 H619 0.950 . S
C646 C632 1.377 . S
C646 C645 1.373 . S
C647 C631 1.377 . S
C647 C645 1.389 . S
C647 C648 1.524 . S
C648 C647 1.524 . S
C648 C649 1.397 . S
C648 C653 1.363 . S
C649 H620 0.950 . S
C649 C648 1.397 . S
C649 C650 1.334 . S
C650 H621 0.950 . S
C650 C649 1.334 . S
C650 C651 1.287 . S
C651 C650 1.287 . S
C651 C652 1.524 . S
C651 H654 0.999 . S
C652 H622 0.950 . S
C652 C651 1.524 . S
C652 C653 1.415 . S
C653 H623 0.950 . S
C653 C648 1.363 . S
C653 C652 1.415 . S
H654 C651 0.999 . S
H655 C636 0.913 . S
H656 C674 0.951 . S
H657 C676 0.951 . S
H658 C678 0.950 . S
H659 C679 0.950 . S
H660 C681 0.950 . S
H661 C684 0.950 . S
H662 C685 0.950 . S
H663 C687 0.950 . S
H664 C688 0.950 . S
H665 C689 0.951 1_455 S
H666 C691 0.951 . S
H667 C693 0.950 . S
H668 C694 0.950 . S
H669 C696 0.950 . S
H670 C699 0.950 . S
H671 C700 0.950 . S
H672 C702 0.950 . S
H673 C703 0.950 . S
C674 H656 0.951 . S
C674 C675 1.366 . S
C674 C676 1.388 . S
C675 C674 1.366 . S
C675 C679 1.385 . S
C676 H657 0.951 . S
C676 C674 1.388 . S
C676 C677 1.366 . S
C677 C676 1.366 . S
C677 C678 1.414 . S
C677 C680 1.499 . S
C678 H658 0.950 . S
C678 C677 1.414 . S
C678 C679 1.374 . S
C679 H659 0.950 . S
C679 C675 1.385 . S
C679 C678 1.374 . S
C680 C677 1.499 . S
C680 C681 1.373 . S
C680 C682 1.389 . S
C681 H660 0.950 . S
C681 C680 1.373 . S
C681 C697 1.377 . S
C682 C680 1.389 . S
C682 C683 1.524 . S
C682 C696 1.377 . S
C683 C682 1.524 . S
C683 C684 1.397 . S
C683 C688 1.363 . S
C684 H661 0.950 . S
C684 C683 1.397 . S
C684 C685 1.334 . S
C685 H662 0.950 . S
C685 C684 1.334 . S
C685 C686 1.287 . S
C686 C685 1.287 . S
C686 C687 1.524 . S
C686 H705 0.913 . S
C687 H663 0.950 . S
C687 C686 1.524 . S
C687 C688 1.415 . S
C688 H664 0.950 . S
C688 C683 1.363 . S
C688 C687 1.415 . S
C689 H665 0.951 1_655 S
C689 C690 1.366 . S
C689 C691 1.388 . S
C690 C689 1.366 . S
C690 C694 1.385 . S
C691 H666 0.951 . S
C691 C689 1.388 . S
C691 C692 1.366 . S
C692 C691 1.366 . S
C692 C693 1.414 . S
C692 C695 1.499 . S
C693 H667 0.950 . S
C693 C692 1.414 . S
C693 C694 1.374 . S
C694 H668 0.950 . S
C694 C690 1.385 . S
C694 C693 1.374 . S
C695 C692 1.499 . S
C695 C696 1.373 . S
C695 C697 1.389 . S
C696 H669 0.950 . S
C696 C682 1.377 . S
C696 C695 1.373 . S
C697 C681 1.377 . S
C697 C695 1.389 . S
C697 C698 1.524 . S
C698 C697 1.524 . S
C698 C699 1.397 . S
C698 C703 1.363 . S
C699 H670 0.950 . S
C699 C698 1.397 . S
C699 C700 1.334 . S
C700 H671 0.950 . S
C700 C699 1.334 . S
C700 C701 1.287 . S
C701 C700 1.287 . S
C701 C702 1.524 . S
C701 H704 0.999 . S
C702 H672 0.950 . S
C702 C701 1.524 . S
C702 C703 1.415 . S
C703 H673 0.950 . S
C703 C698 1.363 . S
C703 C702 1.415 . S
H704 C701 0.999 . S
H705 C686 0.913 . S
H706 C724 0.951 . S
H707 C726 0.951 . S
H708 C728 0.950 . S
H709 C729 0.950 . S
H710 C731 0.950 . S
H711 C734 0.950 . S
H712 C735 0.950 . S
H713 C737 0.950 . S
H714 C738 0.950 . S
H715 C739 0.951 . S
H716 C741 0.951 . S
H717 C743 0.950 . S
H718 C744 0.950 . S
H719 C746 0.950 . S
H720 C749 0.950 . S
H721 C750 0.950 . S
H722 C752 0.950 . S
H723 C753 0.950 . S
C724 H706 0.951 . S
C724 C725 1.366 . S
C724 C726 1.388 . S
C725 C724 1.366 . S
C725 C729 1.385 . S
C726 H707 0.951 . S
C726 C724 1.388 . S
C726 C727 1.366 . S
C727 C726 1.366 . S
C727 C728 1.414 . S
C727 C730 1.499 . S
C728 H708 0.950 . S
C728 C727 1.414 . S
C728 C729 1.374 . S
C729 H709 0.950 . S
C729 C725 1.385 . S
C729 C728 1.374 . S
C730 C727 1.499 . S
C730 C731 1.373 . S
C730 C732 1.389 . S
C731 H710 0.950 . S
C731 C730 1.373 . S
C731 C747 1.377 . S
C732 C730 1.389 . S
C732 C733 1.524 . S
C732 C746 1.377 . S
C733 C732 1.524 . S
C733 C734 1.397 . S
C733 C738 1.363 . S
C734 H711 0.950 . S
C734 C733 1.397 . S
C734 C735 1.334 . S
C735 H712 0.950 . S
C735 C734 1.334 . S
C735 C736 1.287 . S
C736 C735 1.287 . S
C736 C737 1.524 . S
C736 H755 0.913 . S
C737 H713 0.950 . S
C737 C736 1.524 . S
C737 C738 1.415 . S
C738 H714 0.950 . S
C738 C733 1.363 . S
C738 C737 1.415 . S
C739 H715 0.951 . S
C739 C740 1.366 . S
C739 C741 1.388 . S
C740 C739 1.366 . S
C740 C744 1.385 . S
C741 H716 0.951 . S
C741 C739 1.388 . S
C741 C742 1.366 . S
C742 C741 1.366 . S
C742 C743 1.414 . S
C742 C745 1.499 . S
C743 H717 0.950 . S
C743 C742 1.414 . S
C743 C744 1.374 . S
C744 H718 0.950 . S
C744 C740 1.385 . S
C744 C743 1.374 . S
C745 C742 1.499 . S
C745 C746 1.373 . S
C745 C747 1.389 . S
C746 H719 0.950 . S
C746 C732 1.377 . S
C746 C745 1.373 . S
C747 C731 1.377 . S
C747 C745 1.389 . S
C747 C748 1.524 . S
C748 C747 1.524 . S
C748 C749 1.397 . S
C748 C753 1.363 . S
C749 H720 0.950 . S
C749 C748 1.397 . S
C749 C750 1.334 . S
C750 H721 0.950 . S
C750 C749 1.334 . S
C750 C751 1.287 . S
C751 C750 1.287 . S
C751 C752 1.524 . S
C751 H754 0.999 . S
C752 H722 0.950 . S
C752 C751 1.524 . S
C752 C753 1.415 . S
C753 H723 0.950 . S
C753 C748 1.363 . S
C753 C752 1.415 . S
H754 C751 0.999 . S
H755 C736 0.913 . S
H756 C774 0.951 . S
H757 C776 0.951 . S
H758 C778 0.950 . S
H759 C779 0.950 . S
H760 C781 0.950 . S
H761 C784 0.950 . S
H762 C785 0.950 . S
H763 C787 0.950 . S
H764 C788 0.950 . S
H765 C789 0.951 1_655 S
H766 C791 0.951 1_655 S
H767 C793 0.950 . S
H768 C794 0.950 . S
H769 C796 0.950 . S
H770 C799 0.950 . S
H771 C800 0.956 . S
H772 C802 0.950 . S
H773 C803 0.950 . S
C774 H756 0.951 . S
C774 C775 1.366 . S
C774 C776 1.388 . S
C775 C774 1.366 . S
C775 C779 1.385 . S
C776 H757 0.951 . S
C776 C774 1.388 . S
C776 C777 1.366 . S
C777 C776 1.366 . S
C777 C778 1.414 . S
C777 C780 1.499 . S
C778 H758 0.950 . S
C778 C777 1.414 . S
C778 C779 1.374 . S
C779 H759 0.950 . S
C779 C775 1.385 . S
C779 C778 1.374 . S
C780 C777 1.499 . S
C780 C781 1.373 . S
C780 C782 1.389 . S
C781 H760 0.950 . S
C781 C780 1.373 . S
C781 C797 1.377 . S
C782 C780 1.389 . S
C782 C783 1.524 . S
C782 C796 1.377 . S
C783 C782 1.524 . S
C783 C784 1.397 . S
C783 C788 1.363 . S
C784 H761 0.950 . S
C784 C783 1.397 . S
C784 C785 1.334 . S
C785 H762 0.950 . S
C785 C784 1.334 . S
C785 C786 1.287 . S
C786 C785 1.287 . S
C786 C787 1.524 . S
C786 H805 0.913 . S
C787 H763 0.950 . S
C787 C786 1.524 . S
C787 C788 1.415 . S
C788 H764 0.950 . S
C788 C783 1.363 . S
C788 C787 1.415 . S
C789 H765 0.951 1_455 S
C789 C790 1.366 . S
C789 C791 1.388 . S
C790 C789 1.366 . S
C790 C794 1.385 . S
C791 H766 0.951 1_455 S
C791 C789 1.388 . S
C791 C792 1.366 . S
C792 C791 1.366 . S
C792 C793 1.414 . S
C792 C795 1.499 . S
C793 H767 0.950 . S
C793 C792 1.414 . S
C793 C794 1.374 . S
C794 H768 0.950 . S
C794 C790 1.385 . S
C794 C793 1.374 . S
C795 C792 1.499 . S
C795 C796 1.373 . S
C795 C797 1.389 . S
C796 H769 0.950 . S
C796 C782 1.377 . S
C796 C795 1.373 . S
C797 C781 1.377 . S
C797 C795 1.389 . S
C797 C798 1.524 . S
C798 C797 1.524 . S
C798 C799 1.397 . S
C798 C803 1.363 1_455 S
C799 H770 0.950 . S
C799 C798 1.397 . S
C799 C800 1.348 . S
C800 H771 0.956 . S
C800 C799 1.348 . S
C800 C801 1.267 1_455 S
C801 C800 1.267 1_655 S
C801 C802 1.524 . S
C801 H804 0.999 . S
C802 H772 0.950 . S
C802 C801 1.524 . S
C802 C803 1.415 . S
C803 H773 0.950 . S
C803 C798 1.363 1_655 S
C803 C802 1.415 . S
H804 C801 0.999 . S
H805 C786 0.913 . S
C240 C177 1.661 . S
C225 C135 1.636 . S
C275 C15 1.637 . S
C290 C200 1.662 . S
C325 C55 1.668 . S
C340 C176 1.688 . S
C375 C95 1.659 . S
C390 C199 1.686 . S
C440 C180 1.597 . S
C425 C2 1.575 . S
C490 C202 1.632 . S
C475 C42 1.666 . S
C525 C82 1.591 . S
C540 C181 1.602 . S
C575 C141 1.569 . S
C590 C201 1.603 . S
C640 C204 1.636 . S
C625 C61 1.700 . S
C690 C179 1.668 . S
C675 C101 1.626 . S
C740 C203 1.629 . S
C725 C122 1.607 . S
C775 C21 1.602 . S
C790 C178 1.636 . S
