# Generated by pormake.
# Topology zzz, (3,6)-cn, num edge types: 1
# Building blocks:
#     Node 0, Type 0, BuildingBlock: OLANEW_clean_sbu_2, # of connection points: 3
#     Node 1, Type 0, BuildingBlock: OLANEW_clean_sbu_2, # of connection points: 3
#     Node 2, Type 0, BuildingBlock: OLANEW_clean_sbu_2, # of connection points: 3
#     Node 3, Type 0, BuildingBlock: OLANEW_clean_sbu_2, # of connection points: 3
#     Node 4, Type 0, BuildingBlock: OLANEW_clean_sbu_2, # of connection points: 3
#     Node 5, Type 0, BuildingBlock: OLANEW_clean_sbu_2, # of connection points: 3
#     Node 6, Type 0, BuildingBlock: OLANEW_clean_sbu_2, # of connection points: 3
#     Node 7, Type 0, BuildingBlock: OLANEW_clean_sbu_2, # of connection points: 3
#     Node 8, Type 1, BuildingBlock: KUMBOL_clean_sbu_0, # of connection points: 6
#     Node 9, Type 1, BuildingBlock: KUMBOL_clean_sbu_0, # of connection points: 6
#     Node 10, Type 1, BuildingBlock: KUMBOL_clean_sbu_0, # of connection points: 6
#     Node 11, Type 1, BuildingBlock: KUMBOL_clean_sbu_0, # of connection points: 6
#     Edge 12, Type (0, 1), BuildingBlock: EZIPEK_clean_linker_0, # of connection points: 2
#     Edge 13, Type (0, 1), BuildingBlock: EZIPEK_clean_linker_0, # of connection points: 2
#     Edge 14, Type (0, 1), BuildingBlock: EZIPEK_clean_linker_0, # of connection points: 2
#     Edge 15, Type (0, 1), BuildingBlock: EZIPEK_clean_linker_0, # of connection points: 2
#     Edge 16, Type (0, 1), BuildingBlock: EZIPEK_clean_linker_0, # of connection points: 2
#     Edge 17, Type (0, 1), BuildingBlock: EZIPEK_clean_linker_0, # of connection points: 2
#     Edge 18, Type (0, 1), BuildingBlock: EZIPEK_clean_linker_0, # of connection points: 2
#     Edge 19, Type (0, 1), BuildingBlock: EZIPEK_clean_linker_0, # of connection points: 2
#     Edge 20, Type (0, 1), BuildingBlock: EZIPEK_clean_linker_0, # of connection points: 2
#     Edge 21, Type (0, 1), BuildingBlock: EZIPEK_clean_linker_0, # of connection points: 2
#     Edge 22, Type (0, 1), BuildingBlock: EZIPEK_clean_linker_0, # of connection points: 2
#     Edge 23, Type (0, 1), BuildingBlock: EZIPEK_clean_linker_0, # of connection points: 2
#     Edge 24, Type (0, 1), BuildingBlock: EZIPEK_clean_linker_0, # of connection points: 2
#     Edge 25, Type (0, 1), BuildingBlock: EZIPEK_clean_linker_0, # of connection points: 2
#     Edge 26, Type (0, 1), BuildingBlock: EZIPEK_clean_linker_0, # of connection points: 2
#     Edge 27, Type (0, 1), BuildingBlock: EZIPEK_clean_linker_0, # of connection points: 2
#     Edge 28, Type (0, 1), BuildingBlock: EZIPEK_clean_linker_0, # of connection points: 2
#     Edge 29, Type (0, 1), BuildingBlock: EZIPEK_clean_linker_0, # of connection points: 2
#     Edge 30, Type (0, 1), BuildingBlock: EZIPEK_clean_linker_0, # of connection points: 2
#     Edge 31, Type (0, 1), BuildingBlock: EZIPEK_clean_linker_0, # of connection points: 2
#     Edge 32, Type (0, 1), BuildingBlock: EZIPEK_clean_linker_0, # of connection points: 2
#     Edge 33, Type (0, 1), BuildingBlock: EZIPEK_clean_linker_0, # of connection points: 2
#     Edge 34, Type (0, 1), BuildingBlock: EZIPEK_clean_linker_0, # of connection points: 2
#     Edge 35, Type (0, 1), BuildingBlock: EZIPEK_clean_linker_0, # of connection points: 2
# Relax obj value: 0.186
# Max RMSD: 0.178
# Mean RMSD: 0.127
data_MOF--net-zzz--node1-OLANEW_clean_sbu_2--node2-KUMBOL_clean_sbu_0--edge1-EZIPEK_clean_linker_0
_symmetry_space_group_name_H-M    P1
_symmetry_Int_Tables_number       1
_symmetry_cell_setting            triclinic
loop_
_symmetry_equiv_pos_as_xyz
'x, y, z'
_cell_length_a     40.810221
_cell_length_b     40.857229
_cell_length_c     12.672194
_cell_angle_alpha  90.196954
_cell_angle_beta   89.974617
_cell_angle_gamma 89.957228
loop_
_atom_site_label
_atom_site_type_symbol
_atom_site_fract_x
_atom_site_fract_y
_atom_site_fract_z
_atom_type_partial_charge
O0 O 0.77208 0.58909 0.85629 0.0
Cd1 Cd 0.73302 0.63382 0.85825 0.0
O2 O 0.76887 0.5909 0.029 0.0
Cd3 Cd 0.78815 0.57503 0.18086 0.0
O4 O 0.82624 0.56357 0.2952 0.0
C5 C 0.82354 0.54186 0.36615 0.0
O6 O 0.79616 0.52522 0.37522 0.0
C7 C 0.78041 0.57794 0.94557 0.0
C8 C 0.67105 0.60666 0.84954 0.0
O9 O 0.68712 0.61327 0.7654 0.0
O10 O 0.68383 0.61382 0.93903 0.0
O11 O 0.92515 0.75256 0.07722 0.0
Cd12 Cd 0.91068 0.70657 0.19097 0.0
O13 O 0.96932 0.74674 0.17209 0.0
Cd14 Cd 0.01694 0.76257 0.22869 0.0
O15 O 0.03546 0.80687 0.30084 0.0
C16 C 0.02954 0.8137 0.39669 0.0
O17 O 0.01675 0.79116 0.45785 0.0
C18 C 0.95427 0.76132 0.09796 0.0
C19 C 0.93031 0.64951 0.08903 0.0
O20 O 0.90027 0.65872 0.08871 0.0
O21 O 0.95106 0.66659 0.14123 0.0
O22 O 0.7589 0.94495 0.02301 0.0
Cd23 Cd 0.80835 0.92068 0.09846 0.0
O24 O 0.75596 0.9682 0.17844 0.0
Cd25 Cd 0.7297 0.99743 0.29484 0.0
O26 O 0.68353 0.00586 0.37545 0.0
C27 C 0.67965 0.01623 0.469 0.0
O28 O 0.70528 0.02394 0.52662 0.0
C29 C 0.74434 0.96428 0.08614 0.0
C30 C 0.86342 0.93766 0.98133 0.0
O31 O 0.85054 0.95778 0.0471 0.0
O32 O 0.85049 0.90922 0.97195 0.0
O33 O 0.51716 0.77859 0.25487 0.0
Cd34 Cd 0.52206 0.8298 0.35112 0.0
O35 O 0.46726 0.77627 0.31964 0.0
Cd36 Cd 0.42244 0.74719 0.32763 0.0
O37 O 0.43369 0.69528 0.3254 0.0
C38 C 0.44186 0.68245 0.41245 0.0
O39 O 0.43719 0.699 0.50028 0.0
C40 C 0.48945 0.76459 0.25974 0.0
C41 C 0.5158 0.87515 0.19041 0.0
O42 O 0.49065 0.86171 0.23242 0.0
O43 O 0.54392 0.86919 0.23112 0.0
O44 O 0.24835 0.439 0.48112 0.0
Cd45 Cd 0.29121 0.40696 0.39507 0.0
O46 O 0.25347 0.46327 0.32849 0.0
Cd47 Cd 0.23287 0.49705 0.21462 0.0
O48 O 0.19198 0.51207 0.1171 0.0
C49 C 0.18502 0.49416 0.03825 0.0
O50 O 0.20372 0.46896 0.0151 0.0
C51 C 0.23892 0.46073 0.41664 0.0
C52 C 0.35276 0.4301 0.45057 0.0
O53 O 0.33476 0.44587 0.38541 0.0
O54 O 0.34179 0.40312 0.48784 0.0
O55 O 0.07215 0.28004 0.27067 0.0
Cd56 Cd 0.09264 0.3291 0.18536 0.0
O57 O 0.08026 0.25616 0.11785 0.0
Cd58 Cd 0.07254 0.2127 0.02301 0.0
O59 O 0.06068 0.16741 0.94299 0.0
C60 C 0.03266 0.16404 0.90105 0.0
O61 O 0.01112 0.18785 0.90833 0.0
C62 C 0.0695 0.2551 0.21164 0.0
C63 C 0.07527 0.38241 0.30899 0.0
O64 O 0.0542 0.36852 0.24885 0.0
O65 O 0.10478 0.37166 0.30821 0.0
O66 O 0.28242 0.98804 0.1394 0.0
Cd67 Cd 0.24094 0.01813 0.04044 0.0
O68 O 0.29535 0.03195 0.23107 0.0
Cd69 Cd 0.28283 0.0602 0.09107 0.0
O70 O 0.31759 0.05787 0.96015 0.0
C71 C 0.31488 0.03716 0.88568 0.0
O72 O 0.28795 0.01979 0.87674 0.0
C73 C 0.29639 0.0011 0.21867 0.0
C74 C 0.18739 0.02107 0.17511 0.0
O75 O 0.19134 0.99682 0.11205 0.0
O76 O 0.2079 0.04476 0.17178 0.0
O77 O 0.43978 0.27803 0.44006 0.0
Cd78 Cd 0.40122 0.23514 0.39263 0.0
O79 O 0.45868 0.26905 0.2806 0.0
Cd80 Cd 0.48839 0.29041 0.15692 0.0
O81 O 0.50756 0.333 0.07604 0.0
C82 C 0.48745 0.35519 0.04909 0.0
O83 O 0.45613 0.35139 0.06962 0.0
C84 C 0.45952 0.28514 0.36634 0.0
C85 C 0.4337 0.17592 0.38588 0.0
O86 O 0.42024 0.18641 0.47083 0.0
O87 O 0.43172 0.19325 0.30207 0.0
Gd88 Gd 0.00091 0.00339 0.49141 0.0
Gd89 Gd 0.0567 0.98868 0.72274 0.0
C90 C 0.07961 0.07675 0.93661 0.0
C91 C 0.1343 0.09194 0.87967 0.0
C92 C 0.10716 0.04435 0.80406 0.0
C93 C 0.07968 0.05086 0.86257 0.0
C94 C 0.13549 0.06379 0.81581 0.0
C95 C 0.10631 0.0984 0.94039 0.0
C96 C 0.05387 0.0786 0.00928 0.0
C97 C 0.03077 0.05346 0.01209 0.0
N98 N 0.05485 0.02897 0.85774 0.0
C99 C 0.03242 0.02816 0.93749 0.0
H100 H 0.01668 0.00733 0.94675 0.0
C101 C 0.13702 0.00354 0.71492 0.0
N102 N 0.1076 0.01616 0.74777 0.0
C103 C 0.1657 0.02216 0.72182 0.0
C104 C 0.16473 0.05296 0.7698 0.0
H105 H 0.13812 0.97937 0.68097 0.0
H106 H 0.10646 0.11885 0.99502 0.0
H107 H 0.04342 0.97104 0.28537 0.0
H108 H 0.05288 0.09798 0.06781 0.0
H109 H 0.01219 0.05312 0.07309 0.0
H110 H 0.15558 0.10757 0.88816 0.0
H111 H 0.92357 0.02262 0.56027 0.0
H112 H 0.98518 0.89664 0.1438 0.0
H113 H 0.03676 0.92813 0.15259 0.0
H114 H 0.8829 0.90545 0.32048 0.0
H115 H 0.18857 0.01257 0.69139 0.0
H116 H 0.18706 0.06711 0.77699 0.0
H117 H 0.92917 0.88608 0.21314 0.0
H118 H 0.86801 0.99919 0.54332 0.0
N119 N 0.99803 0.96139 0.3632 0.0
C120 C 0.98886 0.91415 0.20685 0.0
C121 C 0.01779 0.93215 0.21097 0.0
C122 C 0.96378 0.9209 0.27852 0.0
C123 C 0.96874 0.94565 0.35491 0.0
C124 C 0.02171 0.95621 0.2886 0.0
N125 N 0.94666 0.98411 0.47418 0.0
C126 C 0.94231 0.95726 0.41264 0.0
C127 C 0.88868 0.98704 0.50668 0.0
C128 C 0.8841 0.95816 0.44956 0.0
C129 C 0.92012 0.00027 0.51579 0.0
C130 C 0.91086 0.94346 0.39899 0.0
H131 H 0.85964 0.94817 0.44138 0.0
O132 O 0.97112 0.02935 0.37639 0.0
O133 O 0.02584 0.0236 0.63279 0.0
O134 O 0.00318 0.9855 0.77542 0.0
O135 O 0.97123 0.98133 0.62308 0.0
O136 O 0.9826 0.04558 0.59119 0.0
O137 O 0.02089 0.04421 0.40369 0.0
O138 O 0.08971 0.95516 0.80181 0.0
O139 O 0.03 0.96765 0.58437 0.0
O140 O 0.05391 0.00187 0.43471 0.0
O141 O 0.08695 0.00831 0.58497 0.0
O142 O 0.07341 0.9457 0.6239 0.0
O143 O 0.0383 0.95505 0.84176 0.0
C144 C 0.00639 0.04644 0.65774 0.0
C145 C 0.90676 0.9166 0.33102 0.0
C146 C 0.93314 0.9055 0.27019 0.0
C147 C 0.99306 0.05187 0.361 0.0
C148 C 0.98255 0.08619 0.37449 0.0
C149 C 0.95359 0.09402 0.42952 0.0
C150 C 0.00255 0.11158 0.33691 0.0
C151 C 0.994 0.14438 0.35591 0.0
C152 C 0.94513 0.12661 0.44828 0.0
C153 C 0.96528 0.15174 0.41207 0.0
C154 C 0.97514 0.97888 0.72617 0.0
C155 C 0.0493 0.94476 0.55871 0.0
C156 C 0.06618 0.93982 0.85019 0.0
C157 C 0.06544 0.90369 0.84025 0.0
C158 C 0.09077 0.88679 0.78782 0.0
C159 C 0.03956 0.88569 0.88517 0.0
C160 C 0.03965 0.85124 0.88124 0.0
C161 C 0.09047 0.85269 0.78165 0.0
C162 C 0.06528 0.83496 0.82893 0.0
C163 C 0.08247 0.00809 0.48112 0.0
H164 H 0.93766 0.07501 0.45941 0.0
H165 H 0.02485 0.1059 0.294 0.0
H166 H 0.92295 0.13241 0.49135 0.0
H167 H 0.95841 0.17694 0.42717 0.0
H168 H 0.11097 0.89982 0.75188 0.0
H169 H 0.01983 0.89831 0.92576 0.0
H170 H 0.11008 0.83994 0.74127 0.0
H171 H 0.06584 0.80847 0.82523 0.0
Gd172 Gd 0.49125 0.97749 0.58528 0.0
Gd173 Gd 0.50037 0.03993 0.79116 0.0
C174 C 0.4116 0.09284 0.93379 0.0
C175 C 0.41873 0.14812 0.86824 0.0
C176 C 0.45853 0.10573 0.8248 0.0
C177 C 0.44021 0.08289 0.87948 0.0
C178 C 0.44844 0.13879 0.82112 0.0
C179 C 0.40044 0.12522 0.92504 0.0
C180 C 0.39568 0.07031 0.99858 0.0
C181 C 0.40849 0.03894 0.00925 0.0
N182 N 0.45148 0.0516 0.88577 0.0
C183 C 0.43665 0.03008 0.95326 0.0
H184 H 0.44632 0.00613 0.9673 0.0
C185 C 0.50935 0.11922 0.74723 0.0
N186 N 0.48756 0.09622 0.78256 0.0
C187 C 0.5002 0.1521 0.74001 0.0
C188 C 0.46927 0.16182 0.77482 0.0
H189 H 0.53361 0.11216 0.72223 0.0
H190 H 0.37823 0.13303 0.96469 0.0
H191 H 0.44235 0.99351 0.37763 0.0
H192 H 0.37414 0.07723 0.04339 0.0
H193 H 0.39693 0.02162 0.06173 0.0
H194 H 0.4104 0.17328 0.86505 0.0
H195 H 0.56142 0.93917 0.65684 0.0
H196 H 0.50014 0.99407 0.09689 0.0
H197 H 0.44699 0.00264 0.18642 0.0
H198 H 0.60133 0.94767 0.21162 0.0
H199 H 0.51714 0.16995 0.70864 0.0
H200 H 0.46235 0.18739 0.77024 0.0
H201 H 0.55739 0.97243 0.10669 0.0
H202 H 0.61282 0.9211 0.57705 0.0
N203 N 0.49322 0.98449 0.39987 0.0
C204 C 0.49844 0.99115 0.18167 0.0
C205 C 0.46844 0.99609 0.23183 0.0
C206 C 0.52527 0.98028 0.24054 0.0
C207 C 0.52195 0.97735 0.35118 0.0
C208 C 0.46599 0.99133 0.34066 0.0
N209 N 0.54265 0.9609 0.51677 0.0
C210 C 0.54724 0.96467 0.41112 0.0
C211 C 0.5947 0.93355 0.52947 0.0
C212 C 0.60037 0.93865 0.42239 0.0
C213 C 0.56538 0.9443 0.57501 0.0
C214 C 0.57623 0.95369 0.36123 0.0
H215 H 0.62298 0.93001 0.38719 0.0
O216 O 0.47027 0.93392 0.65762 0.0
O217 O 0.46516 0.0058 0.71331 0.0
O218 O 0.48734 0.99062 0.85602 0.0
O219 O 0.51312 0.95684 0.73656 0.0
O220 O 0.43885 0.99607 0.57921 0.0
O221 O 0.47665 0.93539 0.49052 0.0
O222 O 0.53639 0.01988 0.89954 0.0
O223 O 0.52728 0.00744 0.67523 0.0
O224 O 0.48507 0.02732 0.50577 0.0
O225 O 0.48765 0.06651 0.64131 0.0
O226 O 0.54463 0.05427 0.69399 0.0
O227 O 0.51828 0.06829 0.92522 0.0
C228 C 0.43783 0.01114 0.66863 0.0
C229 C 0.57964 0.95671 0.25143 0.0
C230 C 0.55451 0.97059 0.19148 0.0
C231 C 0.46366 0.91979 0.56883 0.0
C232 C 0.42965 0.90871 0.55505 0.0
C233 C 0.41844 0.88057 0.60681 0.0
C234 C 0.40764 0.92724 0.49496 0.0
C235 C 0.37476 0.91795 0.48614 0.0
C236 C 0.38559 0.87111 0.59786 0.0
C237 C 0.36374 0.88969 0.53757 0.0
C238 C 0.50237 0.96296 0.83326 0.0
C239 C 0.54841 0.02759 0.64118 0.0
C240 C 0.54017 0.04683 0.95159 0.0
C241 C 0.5742 0.05835 0.96656 0.0
C242 C 0.58173 0.09194 0.9663 0.0
C243 C 0.59957 0.03553 0.98216 0.0
C244 C 0.63205 0.04604 0.99646 0.0
C245 C 0.61396 0.10244 0.981 0.0
C246 C 0.63902 0.07967 0.99611 0.0
C247 C 0.48367 0.05791 0.54141 0.0
H248 H 0.43499 0.86614 0.65464 0.0
H249 H 0.4159 0.94904 0.45489 0.0
H250 H 0.37704 0.84936 0.63787 0.0
H251 H 0.33842 0.88206 0.53075 0.0
H252 H 0.56277 0.11016 0.95483 0.0
H253 H 0.59415 0.00956 0.98388 0.0
H254 H 0.61954 0.12834 0.98075 0.0
H255 H 0.66388 0.08824 0.00762 0.0
Gd256 Gd 0.48174 0.53878 0.72853 0.0
Gd257 Gd 0.54605 0.49999 0.56448 0.0
C258 C 0.63681 0.45436 0.71818 0.0
C259 C 0.6748 0.49994 0.72127 0.0
C260 C 0.62024 0.50669 0.64625 0.0
C261 C 0.61284 0.4746 0.67112 0.0
C262 C 0.65201 0.51904 0.66591 0.0
C263 C 0.66709 0.4677 0.74832 0.0
C264 C 0.63076 0.42075 0.72529 0.0
C265 C 0.60307 0.40773 0.67637 0.0
N266 N 0.58408 0.46198 0.63574 0.0
C267 C 0.58076 0.42871 0.62735 0.0
H268 H 0.56043 0.41837 0.58552 0.0
C269 C 0.60725 0.55272 0.54286 0.0
N270 N 0.59783 0.52447 0.59154 0.0
C271 C 0.63825 0.56613 0.56093 0.0
C272 C 0.66052 0.54954 0.62463 0.0
H273 H 0.59174 0.56431 0.48592 0.0
H274 H 0.68551 0.45268 0.78624 0.0
H275 H 0.42729 0.54406 0.52722 0.0
H276 H 0.64846 0.40442 0.76106 0.0
H277 H 0.59922 0.38153 0.67444 0.0
H278 H 0.69897 0.50939 0.73932 0.0
H279 H 0.48883 0.53392 0.98811 0.0
H280 H 0.33483 0.50848 0.63208 0.0
H281 H 0.36972 0.53208 0.49235 0.0
H282 H 0.35322 0.48455 0.99663 0.0
H283 H 0.6452 0.58888 0.5236 0.0
H284 H 0.68475 0.55964 0.63692 0.0
H285 H 0.32907 0.49015 0.81975 0.0
H286 H 0.45728 0.51564 0.14123 0.0
N287 N 0.42676 0.52569 0.68497 0.0
C288 C 0.36047 0.51332 0.64788 0.0
C289 C 0.38006 0.52666 0.56897 0.0
C290 C 0.37403 0.50712 0.74708 0.0
C291 C 0.40766 0.51359 0.76327 0.0
C292 C 0.41307 0.53323 0.58941 0.0
N293 N 0.45265 0.51978 0.87623 0.0
C294 C 0.42117 0.51028 0.86214 0.0
C295 C 0.44682 0.51346 0.06336 0.0
C296 C 0.41506 0.50163 0.04958 0.0
C297 C 0.46495 0.52334 0.97576 0.0
C298 C 0.40154 0.50063 0.9483 0.0
H299 H 0.40057 0.49503 0.11777 0.0
O300 O 0.49346 0.58277 0.81719 0.0
O301 O 0.53474 0.53956 0.67828 0.0
O302 O 0.5391 0.46944 0.71456 0.0
O303 O 0.49206 0.48946 0.80246 0.0
O304 O 0.52488 0.54267 0.83824 0.0
O305 O 0.4527 0.58327 0.71047 0.0
O306 O 0.53196 0.4951 0.39943 0.0
O307 O 0.49226 0.50627 0.59351 0.0
O308 O 0.48197 0.55586 0.55936 0.0
O309 O 0.53625 0.55264 0.51181 0.0
O310 O 0.50678 0.46129 0.54044 0.0
O311 O 0.58152 0.48567 0.44449 0.0
C312 C 0.54777 0.54215 0.7685 0.0
C313 C 0.36858 0.49232 0.9316 0.0
C314 C 0.35481 0.49564 0.83108 0.0
C315 C 0.46829 0.59896 0.78421 0.0
C316 C 0.44886 0.61442 0.8683 0.0
C317 C 0.41874 0.60123 0.90097 0.0
C318 C 0.46222 0.64113 0.92317 0.0
C319 C 0.44584 0.65442 0.01063 0.0
C320 C 0.40231 0.61458 0.98779 0.0
C321 C 0.41578 0.64107 0.04262 0.0
C322 C 0.51632 0.46787 0.78978 0.0
C323 C 0.48186 0.47767 0.5739 0.0
C324 C 0.56022 0.48402 0.3692 0.0
C325 C 0.56001 0.45325 0.30888 0.0
C326 C 0.57285 0.4521 0.20646 0.0
C327 C 0.54613 0.42497 0.35237 0.0
C328 C 0.5413 0.39688 0.29103 0.0
C329 C 0.57081 0.42319 0.14751 0.0
C330 C 0.55476 0.39583 0.18893 0.0
C331 C 0.50707 0.5666 0.5043 0.0
H332 H 0.40812 0.58045 0.86042 0.0
H333 H 0.4856 0.65127 0.899 0.0
H334 H 0.37918 0.60427 0.01294 0.0
H335 H 0.40277 0.65124 0.10967 0.0
H336 H 0.58409 0.47355 0.17187 0.0
H337 H 0.53687 0.42524 0.43151 0.0
H338 H 0.58074 0.42229 0.06832 0.0
H339 H 0.55258 0.37403 0.1409 0.0
Gd340 Gd 0.98826 0.47602 0.76636 0.0
Gd341 Gd 0.01746 0.55204 0.64564 0.0
C342 C 0.00733 0.6471 0.83597 0.0
C343 C 0.97275 0.67983 0.72214 0.0
C344 C 0.98564 0.62335 0.67473 0.0
C345 C 0.00494 0.62051 0.76445 0.0
C346 C 0.96938 0.65319 0.65302 0.0
C347 C 0.99154 0.67674 0.81362 0.0
C348 C 0.025 0.64307 0.92928 0.0
C349 C 0.0395 0.61304 0.9505 0.0
N350 N 0.02026 0.59156 0.78415 0.0
C351 C 0.03689 0.58757 0.87731 0.0
H352 H 0.04754 0.56472 0.89941 0.0
C353 C 0.96519 0.60033 0.51668 0.0
N354 N 0.98255 0.59714 0.60907 0.0
C355 C 0.94822 0.62906 0.49347 0.0
C356 C 0.9502 0.65559 0.56212 0.0
H357 H 0.96476 0.58096 0.4584 0.0
H358 H 0.99342 0.69729 0.86747 0.0
H359 H 0.95868 0.46244 0.51358 0.0
H360 H 0.02702 0.66277 0.98641 0.0
H361 H 0.05254 0.60934 0.02388 0.0
H362 H 0.96042 0.70276 0.70622 0.0
H363 H 0.03868 0.44797 0.96031 0.0
H364 H 0.98358 0.36537 0.42549 0.0
H365 H 0.95596 0.41775 0.3879 0.0
H366 H 0.04968 0.32705 0.70933 0.0
H367 H 0.93422 0.63096 0.4212 0.0
H368 H 0.93729 0.67802 0.54329 0.0
H369 H 0.01786 0.33178 0.54597 0.0
H370 H 0.07056 0.39872 0.99961 0.0
N371 N 0.98737 0.43672 0.62772 0.0
C372 C 0.98477 0.38511 0.48269 0.0
C373 C 0.96912 0.41457 0.46133 0.0
C374 C 0.00227 0.38162 0.57664 0.0
C375 C 0.00357 0.40827 0.64819 0.0
C376 C 0.97053 0.44008 0.53477 0.0
N377 N 0.02403 0.432 0.80624 0.0
C378 C 0.02234 0.40589 0.73946 0.0
C379 C 0.0575 0.40055 0.92555 0.0
C380 C 0.05731 0.37429 0.85545 0.0
C381 C 0.03989 0.42883 0.90132 0.0
C382 C 0.03914 0.37642 0.76232 0.0
H383 H 0.0706 0.35218 0.87524 0.0
O384 O 0.97828 0.46286 0.92916 0.0
O385 O 0.99592 0.53037 0.79021 0.0
O386 O 0.06006 0.53642 0.7453 0.0
O387 O 0.03965 0.4891 0.82651 0.0
O388 O 0.95245 0.51098 0.8424 0.0
O389 O 0.95066 0.44029 0.80156 0.0
O390 O 0.02388 0.56461 0.48101 0.0
O391 O 0.00969 0.49766 0.62108 0.0
O392 O 0.9456 0.4915 0.66641 0.0
O393 O 0.96608 0.53895 0.58679 0.0
O394 O 0.05394 0.51706 0.57523 0.0
O395 O 0.05698 0.58455 0.59902 0.0
C396 C 0.96849 0.53764 0.83132 0.0
C397 C 0.037 0.34976 0.69267 0.0
C398 C 0.01877 0.35241 0.59988 0.0
C399 C 0.95451 0.44296 0.90361 0.0
C400 C 0.92451 0.44548 0.96726 0.0
C401 C 0.92215 0.42817 0.06232 0.0
C402 C 0.89895 0.46637 0.93723 0.0
C403 C 0.87254 0.47216 0.00541 0.0
C404 C 0.89469 0.43215 0.1272 0.0
C405 C 0.87005 0.45429 0.09941 0.0
C406 C 0.06311 0.51108 0.80925 0.0
C407 C 0.03758 0.49049 0.58281 0.0
C408 C 0.05045 0.58146 0.49842 0.0
C409 C 0.07797 0.57445 0.42645 0.0
C410 C 0.07516 0.58325 0.31985 0.0
C411 C 0.10579 0.55707 0.46026 0.0
C412 C 0.12982 0.54743 0.38728 0.0
C413 C 0.09959 0.57454 0.24778 0.0
C414 C 0.12673 0.55652 0.2811 0.0
C415 C 0.94261 0.51697 0.60312 0.0
H416 H 0.94164 0.41185 0.08673 0.0
H417 H 0.90027 0.47935 0.86359 0.0
H418 H 0.89298 0.41879 0.20059 0.0
H419 H 0.84958 0.45818 0.15242 0.0
H420 H 0.05379 0.59642 0.29208 0.0
H421 H 0.10832 0.55012 0.54204 0.0
H422 H 0.09712 0.58113 0.16549 0.0
H423 H 0.14497 0.54905 0.22378 0.0
C424 C 0.13445 0.04083 0.25383 0.0
C425 C 0.16193 0.01983 0.25789 0.0
C426 C 0.13895 0.9921 0.41182 0.0
C427 C 0.11156 0.01383 0.41085 0.0
N428 N 0.08977 0.06544 0.35043 0.0
N429 N 0.19476 0.98156 0.3561 0.0
C430 C 0.11113 0.04009 0.33718 0.0
C431 C 0.16556 0.99741 0.34183 0.0
N432 N 0.13026 0.06112 0.16945 0.0
N433 N 0.139 0.96519 0.47498 0.0
H434 H 0.21474 0.98443 0.30561 0.0
H435 H 0.20025 0.96803 0.42338 0.0
H436 H 0.12009 0.95994 0.52635 0.0
H437 H 0.15621 0.94643 0.46914 0.0
H438 H 0.10896 0.07457 0.15712 0.0
H439 H 0.1471 0.06262 0.10768 0.0
H440 H 0.09011 0.08663 0.30499 0.0
H441 H 0.07468 0.06723 0.4159 0.0
C442 C 0.48304 0.14412 0.4376 0.0
C443 C 0.45211 0.14496 0.38796 0.0
C444 C 0.44551 0.08626 0.4114 0.0
C445 C 0.47578 0.08529 0.46779 0.0
N446 N 0.52787 0.11115 0.50237 0.0
N447 N 0.41021 0.11645 0.29204 0.0
C448 C 0.49613 0.11355 0.46955 0.0
C449 C 0.43578 0.11573 0.36149 0.0
N450 N 0.49916 0.17276 0.45818 0.0
N451 N 0.42426 0.06059 0.41484 0.0
H452 H 0.40246 0.13808 0.25625 0.0
H453 H 0.39922 0.0954 0.2618 0.0
H454 H 0.42889 0.0397 0.45791 0.0
H455 H 0.40052 0.06141 0.3848 0.0
H456 H 0.51992 0.17436 0.50563 0.0
H457 H 0.49084 0.19532 0.43043 0.0
H458 H 0.54485 0.13003 0.49586 0.0
H459 H 0.5379 0.08932 0.52885 0.0
C460 C 0.40668 0.45705 0.40854 0.0
C461 C 0.38518 0.44303 0.48359 0.0
C462 C 0.42784 0.44873 0.61766 0.0
C463 C 0.44743 0.46755 0.5472 0.0
N464 N 0.45151 0.49396 0.37808 0.0
N465 N 0.37304 0.43274 0.66727 0.0
C466 C 0.43548 0.47317 0.44371 0.0
C467 C 0.3951 0.44087 0.5904 0.0
N468 N 0.40147 0.45254 0.30304 0.0
N469 N 0.44038 0.43752 0.70979 0.0
H470 H 0.34807 0.42988 0.65301 0.0
H471 H 0.3787 0.43306 0.74743 0.0
H472 H 0.4641 0.44227 0.73104 0.0
H473 H 0.42848 0.42074 0.75829 0.0
H474 H 0.41913 0.45834 0.24673 0.0
H475 H 0.38195 0.43903 0.27282 0.0
H476 H 0.44147 0.50168 0.30691 0.0
H477 H 0.47268 0.50613 0.40073 0.0
C478 C 0.07511 0.4099 0.48634 0.0
C479 C 0.06562 0.41003 0.37866 0.0
C480 C 0.03707 0.46232 0.40544 0.0
C481 C 0.04632 0.46204 0.51379 0.0
N482 N 0.08307 0.44091 0.64628 0.0
N483 N 0.04446 0.43981 0.22943 0.0
C484 C 0.06829 0.43761 0.55045 0.0
C485 C 0.04814 0.43703 0.33646 0.0
N486 N 0.08912 0.38259 0.52943 0.0
N487 N 0.01893 0.48768 0.36734 0.0
H488 H 0.05436 0.42316 0.17576 0.0
H489 H 0.03438 0.46002 0.19183 0.0
H490 H 0.01494 0.50891 0.41064 0.0
H491 H 0.00714 0.48753 0.29455 0.0
H492 H 0.0947 0.38033 0.60919 0.0
H493 H 0.09205 0.36064 0.4885 0.0
H494 H 0.10284 0.42671 0.67072 0.0
H495 H 0.07679 0.45922 0.69907 0.0
C496 C 0.91761 0.96628 0.96092 0.0
C497 C 0.89204 0.94743 0.91609 0.0
C498 C 0.92276 0.94514 0.75023 0.0
C499 C 0.94597 0.96825 0.79033 0.0
N500 N 0.95533 0.00957 0.92415 0.0
N501 N 0.86629 0.92784 0.75584 0.0
C502 C 0.94068 0.98125 0.89324 0.0
C503 C 0.89339 0.93937 0.8072 0.0
N504 N 0.92056 0.96961 0.06777 0.0
N505 N 0.92864 0.92761 0.66035 0.0
H506 H 0.8435 0.92536 0.79199 0.0
H507 H 0.86555 0.92468 0.67417 0.0
H508 H 0.94977 0.92966 0.61566 0.0
H509 H 0.91365 0.90836 0.63592 0.0
H510 H 0.94058 0.98126 0.10268 0.0
H511 H 0.90533 0.95757 0.12104 0.0
H512 H 0.95 0.0212 0.99556 0.0
H513 H 0.96942 0.02332 0.87268 0.0
C514 C 0.48336 0.91457 0.08142 0.0
C515 C 0.51231 0.89616 0.09526 0.0
C516 C 0.53575 0.92199 0.93859 0.0
C517 C 0.50551 0.93808 0.91865 0.0
N518 N 0.44752 0.94077 0.95608 0.0
N519 N 0.56127 0.87416 0.01318 0.0
C520 C 0.47834 0.93185 0.9859 0.0
C521 C 0.53721 0.8974 0.01708 0.0
N522 N 0.46145 0.91599 0.16238 0.0
N523 N 0.56358 0.93102 0.887 0.0
H524 H 0.56153 0.85367 0.06185 0.0
H525 H 0.57832 0.87288 0.952 0.0
H526 H 0.56395 0.9498 0.83236 0.0
H527 H 0.58673 0.92227 0.9073 0.0
H528 H 0.44079 0.93103 0.16315 0.0
H529 H 0.44079 0.93103 0.16315 0.0
H530 H 0.42645 0.93386 0.99676 0.0
H531 H 0.44286 0.95181 0.88394 0.0
C532 C 0.61352 0.60816 0.78425 0.0
C533 C 0.63816 0.59163 0.84199 0.0
C534 C 0.6026 0.54337 0.85809 0.0
C535 C 0.57927 0.55883 0.79157 0.0
N536 N 0.55789 0.6094 0.7212 0.0
N537 N 0.65751 0.54342 0.93216 0.0
C538 C 0.58345 0.59216 0.76272 0.0
C539 C 0.63277 0.55949 0.88099 0.0
N540 N 0.61929 0.63899 0.74671 0.0
N541 N 0.59589 0.51313 0.8987 0.0
H542 H 0.68008 0.5541 0.94922 0.0
H543 H 0.65681 0.51879 0.95236 0.0
H544 H 0.57552 0.49947 0.87617 0.0
H545 H 0.60959 0.50193 0.9576 0.0
H546 H 0.60482 0.65024 0.68967 0.0
H547 H 0.63947 0.653 0.76939 0.0
H548 H 0.55724 0.63486 0.71808 0.0
H549 H 0.53632 0.59864 0.69507 0.0
C550 C 0.9315 0.61979 0.91657 0.0
C551 C 0.94099 0.62116 0.02403 0.0
C552 C 0.96969 0.56852 0.00439 0.0
C553 C 0.96001 0.56714 0.89642 0.0
N554 N 0.92341 0.58689 0.76133 0.0
N555 N 0.96406 0.59461 0.17646 0.0
C556 C 0.93823 0.59127 0.85649 0.0
C557 C 0.95915 0.59512 0.0696 0.0
N558 N 0.91762 0.64656 0.8696 0.0
N559 N 0.98779 0.54355 0.04566 0.0
H560 H 0.95538 0.61281 0.22709 0.0
H561 H 0.9745 0.57519 0.21727 0.0
H562 H 0.99153 0.52164 0.00543 0.0
H563 H 0.99963 0.54454 0.11827 0.0
H564 H 0.91217 0.64785 0.78951 0.0
H565 H 0.91474 0.66907 0.90742 0.0
H566 H 0.90361 0.60075 0.73513 0.0
H567 H 0.92971 0.56801 0.71114 0.0
C568 C 0.01978 0.21962 0.20217 0.0
C569 C 0.05091 0.22616 0.24746 0.0
C570 C 0.04482 0.17909 0.36514 0.0
C571 C 0.01464 0.17142 0.31523 0.0
N572 N 0.97614 0.18037 0.17401 0.0
N573 N 0.09581 0.20961 0.35848 0.0
C574 C 0.00295 0.19051 0.22992 0.0
C575 C 0.06426 0.20515 0.32516 0.0
N576 N 0.00572 0.24189 0.13566 0.0
N577 N 0.05429 0.16231 0.45315 0.0
H578 H 0.11054 0.2287 0.33159 0.0
H579 H 0.10826 0.19302 0.40605 0.0
H580 H 0.04087 0.14294 0.4846 0.0
H581 H 0.07415 0.16918 0.49962 0.0
H582 H 0.98159 0.24033 0.10951 0.0
H583 H 0.01719 0.26359 0.11325 0.0
H584 H 0.9683 0.19142 0.10455 0.0
H585 H 0.96332 0.15898 0.19154 0.0
C586 C 0.34278 0.9624 0.24673 0.0
C587 C 0.31639 0.98059 0.28987 0.0
C588 C 0.32889 0.95878 0.46527 0.0
C589 C 0.35264 0.93773 0.41898 0.0
N590 N 0.37741 0.91472 0.26246 0.0
N591 N 0.2813 0.99329 0.43778 0.0
C592 C 0.35807 0.93804 0.30859 0.0
C593 C 0.30858 0.97809 0.39869 0.0
N594 N 0.35457 0.96974 0.14875 0.0
N595 N 0.32652 0.96119 0.57259 0.0
H596 H 0.26605 0.0079 0.39165 0.0
H597 H 0.2724 0.98941 0.51376 0.0
H598 H 0.34051 0.94699 0.62379 0.0
H599 H 0.31248 0.97894 0.61078 0.0
H600 H 0.37584 0.95939 0.11761 0.0
H601 H 0.34536 0.98908 0.10424 0.0
H602 H 0.37934 0.91188 0.18092 0.0
H603 H 0.38894 0.89622 0.30525 0.0
C604 C 0.46678 0.34583 0.36712 0.0
C605 C 0.4809 0.31429 0.37307 0.0
C606 C 0.53563 0.33747 0.34312 0.0
C607 C 0.52125 0.369 0.332 0.0
N608 N 0.4743 0.40409 0.36579 0.0
N609 N 0.52854 0.28022 0.39125 0.0
C610 C 0.48737 0.37351 0.35544 0.0
C611 C 0.51538 0.3102 0.36896 0.0
N612 N 0.43342 0.34931 0.36352 0.0
N613 N 0.56863 0.33373 0.32881 0.0
H614 H 0.51409 0.26013 0.41162 0.0
H615 H 0.55352 0.27563 0.39776 0.0
H616 H 0.58454 0.35353 0.32057 0.0
H617 H 0.58034 0.31118 0.32279 0.0
H618 H 0.42176 0.3711 0.34321 0.0
H619 H 0.41713 0.32992 0.37317 0.0
H620 H 0.45188 0.40796 0.40277 0.0
H621 H 0.48586 0.42555 0.34283 0.0
C622 C 0.21548 0.51655 0.44773 0.0
C623 C 0.2105 0.48225 0.43894 0.0
C624 C 0.15163 0.49079 0.41493 0.0
C625 C 0.15674 0.52509 0.41906 0.0
N626 N 0.19124 0.57079 0.46316 0.0
N627 N 0.17352 0.43626 0.4414 0.0
C628 C 0.18801 0.53803 0.44362 0.0
C629 C 0.17839 0.46923 0.4323 0.0
N630 N 0.24666 0.52847 0.45667 0.0
N631 N 0.12155 0.47882 0.38779 0.0
H632 H 0.19261 0.41959 0.45087 0.0
H633 H 0.15045 0.42562 0.4487 0.0
H634 H 0.10095 0.49363 0.37821 0.0
H635 H 0.11768 0.45458 0.36607 0.0
H636 H 0.25265 0.55314 0.45065 0.0
H637 H 0.26698 0.51328 0.46684 0.0
H638 H 0.2127 0.58163 0.49039 0.0
H639 H 0.17146 0.58697 0.45978 0.0
C640 C 0.98467 0.8146 0.09469 0.0
C641 C 0.97064 0.78808 0.0384 0.0
C642 C 0.9941 0.80976 0.87454 0.0
C643 C 0.01363 0.8317 0.93459 0.0
N644 N 0.0302 0.85248 0.10506 0.0
N645 N 0.96313 0.75933 0.87301 0.0
C646 C 0.00941 0.83376 0.04566 0.0
C647 C 0.9752 0.7856 0.92745 0.0
N648 N 0.97404 0.82159 0.19447 0.0
N649 N 0.99335 0.81225 0.76703 0.0
H650 H 0.94936 0.74082 0.90778 0.0
H651 H 0.96899 0.75458 0.79449 0.0
H652 H 0.00691 0.82965 0.72584 0.0
H653 H 0.97699 0.79929 0.71967 0.0
H654 H 0.98121 0.84238 0.23619 0.0
H655 H 0.95559 0.80815 0.23142 0.0
H656 H 0.02878 0.85443 0.18666 0.0
H657 H 0.05036 0.86475 0.07396 0.0
C658 C 0.71395 0.00269 0.96474 0.0
C659 C 0.71395 0.98179 0.0542 0.0
C660 C 0.65957 0.00213 0.10427 0.0
C661 C 0.65899 0.02196 0.01261 0.0
N662 N 0.68134 0.03389 0.84083 0.0
N663 N 0.68297 0.95464 0.19017 0.0
C664 C 0.68484 0.01991 0.938 0.0
C665 C 0.68547 0.97927 0.11793 0.0
N666 N 0.74211 0.00765 0.90862 0.0
N667 N 0.63631 0.00619 0.18077 0.0
H668 H 0.70122 0.93703 0.20036 0.0
H669 H 0.66167 0.94982 0.23257 0.0
H670 H 0.6175 0.02338 0.17611 0.0
H671 H 0.63709 0.99431 0.25312 0.0
H672 H 0.74424 0.02538 0.85011 0.0
H673 H 0.76425 0.99623 0.92639 0.0
H674 H 0.69804 0.03042 0.77959 0.0
H675 H 0.66005 0.0461 0.81788 0.0
C676 C 0.49826 0.70633 0.19641 0.0
C677 C 0.48152 0.73667 0.18894 0.0
C678 C 0.44601 0.71443 0.04982 0.0
C679 C 0.45971 0.68303 0.06746 0.0
N680 N 0.49767 0.64792 0.15906 0.0
N681 N 0.44026 0.7705 0.11479 0.0
C682 C 0.48585 0.67869 0.14023 0.0
C683 C 0.45561 0.74086 0.11616 0.0
N684 N 0.52558 0.70385 0.25816 0.0
N685 N 0.4246 0.71893 0.96804 0.0
H686 H 0.41943 0.77601 0.07058 0.0
H687 H 0.41943 0.77601 0.07058 0.0
H688 H 0.41708 0.69994 0.91841 0.0
H689 H 0.41632 0.74168 0.94295 0.0
H690 H 0.54088 0.68347 0.25899 0.0
H691 H 0.53414 0.72302 0.30502 0.0
H692 H 0.5144 0.6424 0.21835 0.0
H693 H 0.48912 0.62716 0.11968 0.0
C694 C 0.83632 0.55799 0.99395 0.0
C695 C 0.8047 0.55116 0.95302 0.0
C696 C 0.81772 0.49252 0.94297 0.0
C697 C 0.8494 0.49937 0.9833 0.0
N698 N 0.89087 0.53829 0.03518 0.0
N699 N 0.76597 0.51344 0.87612 0.0
C700 C 0.85931 0.53206 0.00488 0.0
C701 C 0.79566 0.51884 0.9233 0.0
N702 N 0.8441 0.58932 0.0234 0.0
N703 N 0.80861 0.46072 0.92573 0.0
H704 H 0.74852 0.53178 0.86537 0.0
H705 H 0.75903 0.49129 0.84225 0.0
H706 H 0.82471 0.44107 0.93439 0.0
H707 H 0.78487 0.45339 0.9076 0.0
H708 H 0.86481 0.59571 0.06649 0.0
H709 H 0.8289 0.60933 0.00881 0.0
H710 H 0.90045 0.56159 0.04458 0.0
H711 H 0.90836 0.52013 0.04759 0.0
C712 C 0.99704 0.11591 0.85694 0.0
C713 C 0.02548 0.13465 0.83666 0.0
C714 C 0.04256 0.09504 0.70175 0.0
C715 C 0.01349 0.07655 0.72046 0.0
N716 N 0.9578 0.07752 0.78782 0.0
N717 N 0.0715 0.14649 0.72387 0.0
C718 C 0.98906 0.08948 0.78907 0.0
C719 C 0.04725 0.12543 0.75464 0.0
N720 N 0.97849 0.12201 0.94462 0.0
N721 N 0.06541 0.0841 0.63155 0.0
H722 H 0.07433 0.16989 0.75556 0.0
H723 H 0.08724 0.14228 0.66078 0.0
H724 H 0.06121 0.06463 0.58126 0.0
H725 H 0.08911 0.09332 0.62602 0.0
H726 H 0.95966 0.10658 0.9692 0.0
H727 H 0.98413 0.14037 0.99885 0.0
H728 H 0.93852 0.08892 0.82756 0.0
H729 H 0.95034 0.05774 0.74177 0.0
C730 C 0.35836 0.05436 0.75753 0.0
C731 C 0.344 0.02954 0.81993 0.0
C732 C 0.38775 0.99178 0.76779 0.0
C733 C 0.4055 0.018 0.72137 0.0
N734 N 0.40587 0.07418 0.66345 0.0
N735 N 0.34623 0.97479 0.8913 0.0
C736 C 0.39006 0.04922 0.71282 0.0
C737 C 0.35882 0.99823 0.82613 0.0
N738 N 0.34116 0.08252 0.73902 0.0
N739 N 0.39743 0.96025 0.75171 0.0
H740 H 0.32457 0.97762 0.93375 0.0
H741 H 0.35873 0.95331 0.9099 0.0
H742 H 0.41858 0.95434 0.71112 0.0
H743 H 0.38319 0.93998 0.77118 0.0
H744 H 0.34847 0.1006 0.68648 0.0
H745 H 0.31783 0.08669 0.76994 0.0
H746 H 0.3981 0.09843 0.66378 0.0
H747 H 0.42841 0.07099 0.6281 0.0
C748 C 0.51182 0.37852 0.88447 0.0
C749 C 0.49864 0.38359 0.98644 0.0
C750 C 0.50872 0.44232 0.96796 0.0
C751 C 0.51524 0.43812 0.85908 0.0
N752 N 0.51369 0.40044 0.71052 0.0
N753 N 0.47919 0.42175 0.11859 0.0
C754 C 0.51513 0.40569 0.81642 0.0
C755 C 0.49535 0.41594 0.02623 0.0
N756 N 0.51919 0.34775 0.84891 0.0
N757 N 0.51628 0.47113 0.01663 0.0
H758 H 0.46856 0.40313 0.16257 0.0
H759 H 0.4739 0.44527 0.14589 0.0
H760 H 0.52806 0.49008 0.977 0.0
H761 H 0.51402 0.47473 0.09778 0.0
H762 H 0.53247 0.3437 0.7797 0.0
H763 H 0.51413 0.32646 0.89073 0.0
H764 H 0.51002 0.37749 0.67629 0.0
H765 H 0.51142 0.41931 0.65761 0.0
C766 C 0.15501 0.50732 0.87163 0.0
C767 C 0.15416 0.49937 0.98007 0.0
C768 C 0.09442 0.50342 0.97939 0.0
C769 C 0.09471 0.50745 0.86793 0.0
N770 N 0.12628 0.50699 0.70577 0.0
N771 N 0.12293 0.48312 0.1328 0.0
C772 C 0.1253 0.50788 0.81333 0.0
C773 C 0.12384 0.49554 0.03283 0.0
N774 N 0.18414 0.51508 0.82463 0.0
N775 N 0.0664 0.5087 0.03549 0.0
H776 H 0.14392 0.47649 0.17449 0.0
H777 H 0.10121 0.47649 0.17022 0.0
H778 H 0.0446 0.51534 0.99963 0.0
H779 H 0.06573 0.50997 0.11764 0.0
H780 H 0.18583 0.52469 0.74875 0.0
H781 H 0.20644 0.51477 0.86486 0.0
H782 H 0.14773 0.50346 0.66263 0.0
H783 H 0.10541 0.50623 0.65949 0.0
C784 C 0.00945 0.86263 0.49992 0.0
C785 C 0.03367 0.84791 0.43477 0.0
C786 C 0.0624 0.90046 0.42836 0.0
C787 C 0.04086 0.91339 0.50602 0.0
N788 N 0.00213 0.90017 0.64392 0.0
N789 N 0.08776 0.85166 0.35748 0.0
C790 C 0.01655 0.89276 0.54982 0.0
C791 C 0.06145 0.86651 0.40416 0.0
N792 N 0.97925 0.8488 0.51209 0.0
N793 N 0.0837 0.92056 0.37718 0.0
H794 H 0.08918 0.82647 0.34501 0.0
H795 H 0.10974 0.86376 0.34266 0.0
H796 H 0.08394 0.94565 0.39045 0.0
H797 H 0.09793 0.91304 0.31323 0.0
H798 H 0.96051 0.86043 0.55397 0.0
H799 H 0.97167 0.82817 0.47018 0.0
H800 H 0.98652 0.88397 0.68271 0.0
H801 H 0.00796 0.92095 0.68757 0.0
C802 C 0.63804 0.00149 0.60683 0.0
C803 C 0.64607 0.01827 0.51285 0.0
C804 C 0.58832 0.03286 0.48985 0.0
C805 C 0.58088 0.0201 0.59123 0.0
N806 N 0.60133 0.9977 0.75456 0.0
N807 N 0.62984 0.05583 0.37596 0.0
C808 C 0.60656 0.00603 0.65216 0.0
C809 C 0.62147 0.03555 0.45718 0.0
N810 N 0.65985 0.98012 0.65088 0.0
N811 N 0.56378 0.04151 0.42281 0.0
H812 H 0.65399 0.05937 0.35158 0.0
H813 H 0.6132 0.07156 0.33974 0.0
H814 H 0.53934 0.03883 0.44292 0.0
H815 H 0.56764 0.04758 0.34396 0.0
H816 H 0.6538 0.96464 0.71308 0.0
H817 H 0.6829 0.97536 0.61883 0.0
H818 H 0.61998 0.99067 0.80586 0.0
H819 H 0.57861 0.00013 0.78981 0.0
C820 C 0.49529 0.65553 0.45761 0.0
C821 C 0.46342 0.65326 0.41226 0.0
C822 C 0.47337 0.5956 0.37213 0.0
C823 C 0.50093 0.59621 0.43899 0.0
N824 N 0.5462 0.62791 0.50137 0.0
N825 N 0.42232 0.62122 0.32141 0.0
C826 C 0.51446 0.62663 0.46881 0.0
C827 C 0.45274 0.62347 0.36583 0.0
N828 N 0.50694 0.68516 0.49124 0.0
N829 N 0.46822 0.56862 0.31111 0.0
H830 H 0.40624 0.64098 0.31649 0.0
H831 H 0.41212 0.59919 0.29611 0.0
H832 H 0.48569 0.54998 0.30812 0.0
H833 H 0.44985 0.56696 0.25435 0.0
H834 H 0.52773 0.68807 0.53774 0.0
H835 H 0.49558 0.7073 0.473 0.0
H836 H 0.55911 0.64938 0.51603 0.0
H837 H 0.56065 0.60706 0.50472 0.0
C838 C 0.85244 0.53534 0.54031 0.0
C839 C 0.85276 0.53282 0.42886 0.0
C840 C 0.91142 0.52038 0.43166 0.0
C841 C 0.91117 0.52113 0.54382 0.0
N842 N 0.87962 0.52421 0.70546 0.0
N843 N 0.8801 0.51442 0.27119 0.0
C844 C 0.88104 0.52671 0.5983 0.0
C845 C 0.88157 0.52299 0.37536 0.0
N846 N 0.82546 0.54777 0.59057 0.0
N847 N 0.94022 0.51726 0.37805 0.0
H848 H 0.85842 0.51494 0.2278 0.0
H849 H 0.89948 0.50339 0.23121 0.0
H850 H 0.96218 0.5126 0.41576 0.0
H851 H 0.94258 0.52132 0.29726 0.0
H852 H 0.82503 0.55396 0.67035 0.0
H853 H 0.80412 0.55445 0.55087 0.0
H854 H 0.85779 0.52354 0.74797 0.0
H855 H 0.90026 0.52115 0.75184 0.0
loop_
_geom_bond_atom_site_label_1
_geom_bond_atom_site_label_2
_geom_bond_distance
_geom_bond_site_symmetry_2
_ccdc_geom_bond_type
O0 Cd1 2.300 . S
O0 C7 1.275 . S
Cd1 O0 2.300 . S
Cd1 O9 2.381 . S
Cd1 O10 2.378 . S
O2 Cd3 2.385 . S
O2 C7 1.255 . S
Cd3 O2 2.385 . S
Cd3 O4 2.317 . S
O4 Cd3 2.317 . S
O4 C5 1.232 . S
C5 O4 1.232 . S
C5 O6 1.218 . S
O6 C5 1.218 . S
C7 O0 1.275 . S
C7 O2 1.255 . S
C8 O9 1.258 . S
C8 O10 1.256 . S
O9 Cd1 2.381 . S
O9 C8 1.258 . S
O10 Cd1 2.378 . S
O10 C8 1.256 . S
O11 Cd12 2.300 . S
O11 C18 1.275 . S
Cd12 O11 2.300 . S
Cd12 O20 2.381 . S
Cd12 O21 2.378 . S
O13 Cd14 2.385 1_655 S
O13 C18 1.255 . S
Cd14 O13 2.385 1_455 S
Cd14 O15 2.317 1_455 S
O15 Cd14 2.317 1_655 S
O15 C16 1.232 . S
C16 O15 1.232 . S
C16 O17 1.218 . S
O17 C16 1.218 . S
C18 O11 1.275 . S
C18 O13 1.255 . S
C19 O20 1.258 . S
C19 O21 1.256 . S
O20 Cd12 2.381 . S
O20 C19 1.258 . S
O21 Cd12 2.378 . S
O21 C19 1.256 . S
O22 Cd23 2.300 . S
O22 C29 1.275 . S
Cd23 O22 2.300 . S
Cd23 O31 2.381 . S
Cd23 O32 2.378 . S
O24 Cd25 2.385 1_565 S
O24 C29 1.255 . S
Cd25 O24 2.385 1_545 S
Cd25 O26 2.317 1_545 S
O26 Cd25 2.317 1_565 S
O26 C27 1.232 . S
C27 O26 1.232 . S
C27 O28 1.218 . S
O28 C27 1.218 . S
C29 O22 1.275 . S
C29 O24 1.255 . S
C30 O31 1.258 . S
C30 O32 1.256 . S
O31 Cd23 2.381 . S
O31 C30 1.258 . S
O32 Cd23 2.378 . S
O32 C30 1.256 . S
O33 Cd34 2.300 . S
O33 C40 1.275 . S
Cd34 O33 2.300 . S
Cd34 O42 2.381 . S
Cd34 O43 2.378 . S
O35 Cd36 2.385 . S
O35 C40 1.255 . S
Cd36 O35 2.385 . S
Cd36 O37 2.317 . S
O37 Cd36 2.317 . S
O37 C38 1.232 . S
C38 O37 1.232 . S
C38 O39 1.218 . S
O39 C38 1.218 . S
C40 O33 1.275 . S
C40 O35 1.255 . S
C41 O42 1.258 . S
C41 O43 1.256 . S
O42 Cd34 2.381 . S
O42 C41 1.258 . S
O43 Cd34 2.378 . S
O43 C41 1.256 . S
O44 Cd45 2.300 . S
O44 C51 1.275 . S
Cd45 O44 2.300 . S
Cd45 O53 2.381 . S
Cd45 O54 2.378 . S
O46 Cd47 2.385 1_554 S
O46 C51 1.255 . S
Cd47 O46 2.385 1_556 S
Cd47 O48 2.317 . S
O48 Cd47 2.317 . S
O48 C49 1.232 . S
C49 O48 1.232 . S
C49 O50 1.218 . S
O50 C49 1.218 . S
C51 O44 1.275 . S
C51 O46 1.255 . S
C52 O53 1.258 . S
C52 O54 1.256 . S
O53 Cd45 2.381 . S
O53 C52 1.258 . S
O54 Cd45 2.378 . S
O54 C52 1.256 . S
O55 Cd56 2.300 . S
O55 C62 1.275 . S
Cd56 O55 2.300 . S
Cd56 O64 2.381 . S
Cd56 O65 2.378 . S
O57 Cd58 2.385 1_554 S
O57 C62 1.255 . S
Cd58 O57 2.385 1_556 S
Cd58 O59 2.317 . S
O59 Cd58 2.317 . S
O59 C60 1.232 . S
C60 O59 1.232 . S
C60 O61 1.218 . S
O61 C60 1.218 . S
C62 O55 1.275 . S
C62 O57 1.255 . S
C63 O64 1.258 . S
C63 O65 1.256 . S
O64 Cd56 2.381 . S
O64 C63 1.258 . S
O65 Cd56 2.378 . S
O65 C63 1.256 . S
O66 Cd67 2.300 . S
O66 C73 1.275 . S
Cd67 O66 2.300 . S
Cd67 O75 2.381 . S
Cd67 O76 2.378 . S
O68 Cd69 2.385 1_554 S
O68 C73 1.255 . S
Cd69 O68 2.385 1_556 S
Cd69 O70 2.317 . S
O70 Cd69 2.317 . S
O70 C71 1.232 . S
C71 O70 1.232 . S
C71 O72 1.218 . S
O72 C71 1.218 . S
C73 O66 1.275 . S
C73 O68 1.255 . S
C74 O75 1.258 . S
C74 O76 1.256 . S
O75 Cd67 2.381 . S
O75 C74 1.258 . S
O76 Cd67 2.378 . S
O76 C74 1.256 . S
O77 Cd78 2.300 . S
O77 C84 1.275 . S
Cd78 O77 2.300 . S
Cd78 O86 2.381 . S
Cd78 O87 2.378 . S
O79 Cd80 2.385 1_554 S
O79 C84 1.255 . S
Cd80 O79 2.385 1_556 S
Cd80 O81 2.317 . S
O81 Cd80 2.317 . S
O81 C82 1.232 . S
C82 O81 1.232 . S
C82 O83 1.218 . S
O83 C82 1.218 . S
C84 O77 1.275 . S
C84 O79 1.255 . S
C85 O86 1.258 . S
C85 O87 1.256 . S
O86 Cd78 2.381 . S
O86 C85 1.258 . S
O87 Cd78 2.378 . S
O87 C85 1.256 . S
Gd88 N119 2.661 1_545 S
Gd88 N125 2.601 . S
Gd88 O132 2.545 . S
Gd88 O133 2.606 1_655 S
Gd88 O135 2.429 . S
Gd88 O136 2.545 1_655 S
Gd88 O137 2.412 . S
Gd88 O139 2.362 1_545 S
Gd88 O140 2.324 1_655 S
Gd88 C147 2.828 . S
Gd89 N98 2.661 1_565 S
Gd89 N102 2.596 1_565 S
Gd89 O133 2.362 1_565 S
Gd89 O134 2.324 1_455 S
Gd89 O138 2.545 . S
Gd89 O139 2.606 1_455 S
Gd89 O141 2.429 . S
Gd89 O142 2.545 . S
Gd89 O143 2.412 . S
Gd89 C156 2.828 . S
C90 C93 1.417 1_554 S
C90 C95 1.431 . S
C90 C96 1.412 . S
C91 C94 1.437 1_554 S
C91 C95 1.317 . S
C91 H110 0.929 . S
C92 C93 1.426 . S
C92 C94 1.413 . S
C92 N102 1.372 . S
C93 C90 1.417 1_556 S
C93 C92 1.426 . S
C93 N98 1.350 . S
C94 C91 1.437 1_556 S
C94 C92 1.413 . S
C94 C104 1.391 . S
C95 C90 1.431 . S
C95 C91 1.317 . S
C95 H106 0.930 . S
C96 C90 1.412 . S
C96 C97 1.355 . S
C96 H108 0.930 . S
C97 C96 1.355 . S
C97 C99 1.402 1_554 S
C97 H109 0.930 1_455 S
N98 Gd89 2.661 1_545 S
N98 C93 1.350 . S
N98 C99 1.307 . S
C99 C97 1.402 1_556 S
C99 N98 1.307 . S
C99 H100 0.930 1_455 S
H100 C99 0.930 1_655 S
C101 N102 1.325 1_565 S
C101 C103 1.394 . S
C101 H105 0.930 . S
N102 Gd89 2.596 1_545 S
N102 C92 1.372 . S
N102 C101 1.325 1_545 S
C103 C101 1.394 . S
C103 C104 1.359 1_565 S
C103 H115 0.930 . S
C104 C94 1.391 . S
C104 C103 1.359 1_545 S
C104 H116 0.929 . S
H105 C101 0.930 . S
H106 C95 0.930 . S
H107 C124 0.930 . S
H108 C96 0.930 . S
H109 C97 0.930 1_655 S
H110 C91 0.929 . S
H111 C129 0.930 . S
H112 C120 0.930 . S
H113 C121 0.930 . S
H114 C145 0.929 . S
H115 C103 0.930 . S
H116 C104 0.929 . S
H117 C146 0.930 . S
H118 C127 0.930 . S
N119 Gd88 2.661 1_565 S
N119 C123 1.350 . S
N119 C124 1.307 1_655 S
C120 H112 0.930 . S
C120 C121 1.355 1_655 S
C120 C122 1.412 . S
C121 H113 0.930 . S
C121 C120 1.355 1_455 S
C121 C124 1.402 . S
C122 C120 1.412 . S
C122 C123 1.417 . S
C122 C146 1.431 . S
C123 N119 1.350 . S
C123 C122 1.417 . S
C123 C126 1.426 1_565 S
C124 H107 0.930 . S
C124 N119 1.307 1_455 S
C124 C121 1.402 . S
N125 Gd88 2.601 . S
N125 C126 1.359 . S
N125 C129 1.334 . S
C126 C123 1.426 1_545 S
C126 N125 1.359 . S
C126 C130 1.413 1_545 S
C127 H118 0.930 . S
C127 C128 1.359 . S
C127 C129 1.394 . S
C128 C127 1.359 . S
C128 C130 1.391 1_545 S
C128 H131 0.929 . S
C129 H111 0.930 . S
C129 N125 1.334 . S
C129 C127 1.394 . S
C130 C126 1.413 1_565 S
C130 C128 1.391 1_565 S
C130 C145 1.437 . S
H131 C128 0.929 . S
O132 Gd88 2.545 . S
O132 C147 1.258 . S
O133 Gd88 2.606 1_455 S
O133 Gd89 2.362 1_545 S
O133 C144 1.284 . S
O134 Gd89 2.324 1_655 S
O134 C154 1.254 1_565 S
O135 Gd88 2.429 . S
O135 C154 1.268 . S
O136 Gd88 2.545 1_455 S
O136 C144 1.250 . S
O137 Gd88 2.412 . S
O137 C147 1.252 . S
O138 Gd89 2.545 . S
O138 C156 1.258 . S
O139 Gd88 2.362 1_565 S
O139 Gd89 2.606 1_655 S
O139 C155 1.284 . S
O140 Gd88 2.324 1_455 S
O140 C163 1.254 . S
O141 Gd89 2.429 . S
O141 C163 1.268 1_565 S
O142 Gd89 2.545 . S
O142 C155 1.250 1_455 S
O143 Gd89 2.412 . S
O143 C156 1.252 . S
C144 O133 1.284 . S
C144 O136 1.250 . S
C145 H114 0.929 . S
C145 C130 1.437 . S
C145 C146 1.317 . S
C146 H117 0.930 . S
C146 C122 1.431 . S
C146 C145 1.317 . S
C147 Gd88 2.828 . S
C147 O132 1.258 . S
C147 O137 1.252 . S
C147 C148 1.497 . S
C148 C147 1.497 . S
C148 C149 1.395 . S
C148 C150 1.380 . S
C149 C148 1.395 . S
C149 C152 1.398 . S
C149 H164 0.930 . S
C150 C148 1.380 . S
C150 C151 1.391 . S
C150 H165 0.930 1_655 S
C151 C150 1.391 . S
C151 C153 1.387 . S
C152 C149 1.398 . S
C152 C153 1.380 . S
C152 H166 0.930 . S
C153 C151 1.387 . S
C153 C152 1.380 . S
C153 H167 0.930 . S
C154 O134 1.254 1_545 S
C154 O135 1.268 . S
C155 O139 1.284 . S
C155 O142 1.250 1_655 S
C156 Gd89 2.828 . S
C156 O138 1.258 . S
C156 O143 1.252 . S
C156 C157 1.497 . S
C157 C156 1.497 . S
C157 C158 1.395 . S
C157 C159 1.380 1_556 S
C158 C157 1.395 . S
C158 C161 1.398 1_556 S
C158 H168 0.930 . S
C159 C157 1.380 1_554 S
C159 C160 1.391 . S
C159 H169 0.930 1_554 S
C160 C159 1.391 . S
C160 C162 1.387 . S
C161 C158 1.398 1_554 S
C161 C162 1.380 . S
C161 H170 0.930 . S
C162 C160 1.387 . S
C162 C161 1.380 . S
C162 H171 0.930 . S
C163 O140 1.254 . S
C163 O141 1.268 1_545 S
H164 C149 0.930 . S
H165 C150 0.930 1_455 S
H166 C152 0.930 . S
H167 C153 0.930 . S
H168 C158 0.930 . S
H169 C159 0.930 1_556 S
H170 C161 0.930 . S
H171 C162 0.930 . S
Gd172 N203 2.661 . S
Gd172 N209 2.601 . S
Gd172 O216 2.545 . S
Gd172 O217 2.606 1_565 S
Gd172 O219 2.429 . S
Gd172 O220 2.545 1_565 S
Gd172 O221 2.412 . S
Gd172 O223 2.362 . S
Gd172 O224 2.324 1_565 S
Gd172 C231 2.828 . S
Gd173 N182 2.661 . S
Gd173 N186 2.601 . S
Gd173 O217 2.362 . S
Gd173 O218 2.324 1_545 S
Gd173 O222 2.545 . S
Gd173 O223 2.606 1_545 S
Gd173 O225 2.429 . S
Gd173 O226 2.545 . S
Gd173 O227 2.412 . S
Gd173 C240 2.828 . S
C174 C177 1.417 1_554 S
C174 C179 1.431 . S
C174 C180 1.412 . S
C175 C178 1.437 1_554 S
C175 C179 1.317 . S
C175 H194 0.929 . S
C176 C177 1.426 . S
C176 C178 1.413 . S
C176 N186 1.359 . S
C177 C174 1.417 1_556 S
C177 C176 1.426 . S
C177 N182 1.350 . S
C178 C175 1.437 1_556 S
C178 C176 1.413 . S
C178 C188 1.391 . S
C179 C174 1.431 . S
C179 C175 1.317 . S
C179 H190 0.930 . S
C180 C174 1.412 . S
C180 C181 1.355 . S
C180 H192 0.930 . S
C181 C180 1.355 . S
C181 C183 1.402 1_554 S
C181 H193 0.930 1_545 S
N182 Gd173 2.661 . S
N182 C177 1.350 . S
N182 C183 1.307 . S
C183 C181 1.402 1_556 S
C183 N182 1.307 . S
C183 H184 0.930 1_545 S
H184 C183 0.930 1_565 S
C185 N186 1.334 . S
C185 C187 1.394 . S
C185 H189 0.930 . S
N186 Gd173 2.601 . S
N186 C176 1.359 . S
N186 C185 1.334 . S
C187 C185 1.394 . S
C187 C188 1.359 . S
C187 H199 0.930 . S
C188 C178 1.391 . S
C188 C187 1.359 . S
C188 H200 0.929 . S
H189 C185 0.930 . S
H190 C179 0.930 . S
H191 C208 0.930 . S
H192 C180 0.930 . S
H193 C181 0.930 1_565 S
H194 C175 0.929 . S
H195 C213 0.930 . S
H196 C204 0.930 . S
H197 C205 0.930 . S
H198 C229 0.929 . S
H199 C187 0.930 . S
H200 C188 0.929 . S
H201 C230 0.930 . S
H202 C211 0.930 . S
N203 Gd172 2.661 . S
N203 C207 1.350 . S
N203 C208 1.307 1_565 S
C204 H196 0.930 . S
C204 C205 1.355 1_565 S
C204 C206 1.412 . S
C205 H197 0.930 . S
C205 C204 1.355 1_545 S
C205 C208 1.402 . S
C206 C204 1.412 . S
C206 C207 1.417 . S
C206 C230 1.431 . S
C207 N203 1.350 . S
C207 C206 1.417 . S
C207 C210 1.426 . S
C208 H191 0.930 . S
C208 N203 1.307 1_545 S
C208 C205 1.402 . S
N209 Gd172 2.601 . S
N209 C210 1.359 . S
N209 C213 1.334 . S
C210 C207 1.426 . S
C210 N209 1.359 . S
C210 C214 1.413 . S
C211 H202 0.930 . S
C211 C212 1.359 . S
C211 C213 1.394 . S
C212 C211 1.359 . S
C212 C214 1.391 . S
C212 H215 0.929 . S
C213 H195 0.930 . S
C213 N209 1.334 . S
C213 C211 1.394 . S
C214 C210 1.413 . S
C214 C212 1.391 . S
C214 C229 1.437 . S
H215 C212 0.929 . S
O216 Gd172 2.545 . S
O216 C231 1.258 . S
O217 Gd172 2.606 1_545 S
O217 Gd173 2.362 . S
O217 C228 1.284 . S
O218 Gd173 2.324 1_565 S
O218 C238 1.254 . S
O219 Gd172 2.429 . S
O219 C238 1.268 . S
O220 Gd172 2.545 1_545 S
O220 C228 1.250 . S
O221 Gd172 2.412 . S
O221 C231 1.252 . S
O222 Gd173 2.545 . S
O222 C240 1.258 . S
O223 Gd172 2.362 . S
O223 Gd173 2.606 1_565 S
O223 C239 1.284 . S
O224 Gd172 2.324 1_545 S
O224 C247 1.254 . S
O225 Gd173 2.429 . S
O225 C247 1.268 . S
O226 Gd173 2.545 . S
O226 C239 1.250 1_545 S
O227 Gd173 2.412 . S
O227 C240 1.252 . S
C228 O217 1.284 . S
C228 O220 1.250 . S
C229 H198 0.929 . S
C229 C214 1.437 . S
C229 C230 1.317 . S
C230 H201 0.930 . S
C230 C206 1.431 . S
C230 C229 1.317 . S
C231 Gd172 2.828 . S
C231 O216 1.258 . S
C231 O221 1.252 . S
C231 C232 1.497 . S
C232 C231 1.497 . S
C232 C233 1.395 . S
C232 C234 1.380 . S
C233 C232 1.395 . S
C233 C236 1.398 . S
C233 H248 0.930 . S
C234 C232 1.380 . S
C234 C235 1.391 . S
C234 H249 0.930 1_565 S
C235 C234 1.391 . S
C235 C237 1.387 . S
C236 C233 1.398 . S
C236 C237 1.380 . S
C236 H250 0.930 . S
C237 C235 1.387 . S
C237 C236 1.380 . S
C237 H251 0.930 . S
C238 O218 1.254 . S
C238 O219 1.268 . S
C239 O223 1.284 . S
C239 O226 1.250 1_565 S
C240 Gd173 2.828 . S
C240 O222 1.258 . S
C240 O227 1.252 . S
C240 C241 1.497 . S
C241 C240 1.497 . S
C241 C242 1.395 . S
C241 C243 1.380 1_556 S
C242 C241 1.395 . S
C242 C245 1.398 1_556 S
C242 H252 0.930 . S
C243 C241 1.380 1_554 S
C243 C244 1.391 . S
C243 H253 0.931 . S
C244 C243 1.391 . S
C244 C246 1.387 . S
C245 C242 1.398 1_554 S
C245 C246 1.380 . S
C245 H254 0.930 . S
C246 C244 1.387 . S
C246 C245 1.380 . S
C246 H255 0.930 . S
C247 O224 1.254 . S
C247 O225 1.268 . S
H248 C233 0.930 . S
H249 C234 0.930 1_545 S
H250 C236 0.930 . S
H251 C237 0.930 . S
H252 C242 0.930 . S
H253 C243 0.931 . S
H254 C245 0.930 . S
H255 C246 0.930 . S
Gd256 N287 2.661 . S
Gd256 N293 2.601 . S
Gd256 O300 2.545 . S
Gd256 O301 2.606 . S
Gd256 O303 2.429 . S
Gd256 O304 2.545 . S
Gd256 O305 2.412 . S
Gd256 O307 2.362 . S
Gd256 O308 2.324 . S
Gd256 C315 2.828 . S
Gd257 N266 2.661 . S
Gd257 N270 2.601 . S
Gd257 O301 2.362 . S
Gd257 O302 2.324 . S
Gd257 O306 2.545 . S
Gd257 O307 2.606 . S
Gd257 O309 2.429 . S
Gd257 O310 2.545 . S
Gd257 O311 2.412 . S
Gd257 C324 2.828 . S
C258 C261 1.417 . S
C258 C263 1.431 . S
C258 C264 1.412 . S
C259 C262 1.437 . S
C259 C263 1.317 . S
C259 H278 0.929 . S
C260 C261 1.426 . S
C260 C262 1.413 . S
C260 N270 1.359 . S
C261 C258 1.417 . S
C261 C260 1.426 . S
C261 N266 1.350 . S
C262 C259 1.437 . S
C262 C260 1.413 . S
C262 C272 1.391 . S
C263 C258 1.431 . S
C263 C259 1.317 . S
C263 H274 0.930 . S
C264 C258 1.412 . S
C264 C265 1.355 . S
C264 H276 0.930 . S
C265 C264 1.355 . S
C265 C267 1.402 . S
C265 H277 0.930 . S
N266 Gd257 2.661 . S
N266 C261 1.350 . S
N266 C267 1.307 . S
C267 C265 1.402 . S
C267 N266 1.307 . S
C267 H268 0.930 . S
H268 C267 0.930 . S
C269 N270 1.334 . S
C269 C271 1.394 . S
C269 H273 0.930 . S
N270 Gd257 2.601 . S
N270 C260 1.359 . S
N270 C269 1.334 . S
C271 C269 1.394 . S
C271 C272 1.359 . S
C271 H283 0.930 . S
C272 C262 1.391 . S
C272 C271 1.359 . S
C272 H284 0.929 . S
H273 C269 0.930 . S
H274 C263 0.930 . S
H275 C292 0.930 . S
H276 C264 0.930 . S
H277 C265 0.930 . S
H278 C259 0.929 . S
H279 C297 0.930 . S
H280 C288 0.930 . S
H281 C289 0.930 . S
H282 C313 0.929 . S
H283 C271 0.930 . S
H284 C272 0.929 . S
H285 C314 0.930 . S
H286 C295 0.930 1_554 S
N287 Gd256 2.661 . S
N287 C291 1.350 . S
N287 C292 1.307 . S
C288 H280 0.930 . S
C288 C289 1.355 . S
C288 C290 1.412 . S
C289 H281 0.930 . S
C289 C288 1.355 . S
C289 C292 1.402 . S
C290 C288 1.412 . S
C290 C291 1.417 . S
C290 C314 1.431 . S
C291 N287 1.350 . S
C291 C290 1.417 . S
C291 C294 1.426 . S
C292 H275 0.930 . S
C292 N287 1.307 . S
C292 C289 1.402 . S
N293 Gd256 2.601 . S
N293 C294 1.359 . S
N293 C297 1.334 . S
C294 C291 1.426 . S
C294 N293 1.359 . S
C294 C298 1.413 . S
C295 H286 0.930 1_556 S
C295 C296 1.359 . S
C295 C297 1.394 . S
C296 C295 1.359 . S
C296 C298 1.391 . S
C296 H299 0.929 . S
C297 H279 0.930 . S
C297 N293 1.334 . S
C297 C295 1.394 . S
C298 C294 1.413 . S
C298 C296 1.391 . S
C298 C313 1.437 . S
H299 C296 0.929 . S
O300 Gd256 2.545 . S
O300 C315 1.258 . S
O301 Gd256 2.606 . S
O301 Gd257 2.362 . S
O301 C312 1.284 . S
O302 Gd257 2.324 . S
O302 C322 1.254 . S
O303 Gd256 2.429 . S
O303 C322 1.268 . S
O304 Gd256 2.545 . S
O304 C312 1.250 . S
O305 Gd256 2.412 . S
O305 C315 1.252 . S
O306 Gd257 2.545 . S
O306 C324 1.258 . S
O307 Gd256 2.362 . S
O307 Gd257 2.606 . S
O307 C323 1.284 . S
O308 Gd256 2.324 . S
O308 C331 1.254 . S
O309 Gd257 2.429 . S
O309 C331 1.268 . S
O310 Gd257 2.545 . S
O310 C323 1.250 . S
O311 Gd257 2.412 . S
O311 C324 1.252 . S
C312 O301 1.284 . S
C312 O304 1.250 . S
C313 H282 0.929 . S
C313 C298 1.437 . S
C313 C314 1.317 . S
C314 H285 0.930 . S
C314 C290 1.431 . S
C314 C313 1.317 . S
C315 Gd256 2.828 . S
C315 O300 1.258 . S
C315 O305 1.252 . S
C315 C316 1.497 1_556 S
C316 C315 1.497 1_554 S
C316 C317 1.395 . S
C316 C318 1.380 . S
C317 C316 1.395 . S
C317 C320 1.398 . S
C317 H332 0.930 . S
C318 C316 1.380 . S
C318 C319 1.391 . S
C318 H333 0.930 1_554 S
C319 C318 1.391 . S
C319 C321 1.387 . S
C320 C317 1.398 . S
C320 C321 1.380 . S
C320 H334 0.930 . S
C321 C319 1.387 . S
C321 C320 1.380 . S
C321 H335 0.930 . S
C322 O302 1.254 . S
C322 O303 1.268 . S
C323 O307 1.284 . S
C323 O310 1.250 . S
C324 Gd257 2.828 . S
C324 O306 1.258 . S
C324 O311 1.252 . S
C324 C325 1.497 . S
C325 C324 1.497 . S
C325 C326 1.395 . S
C325 C327 1.380 . S
C326 C325 1.395 . S
C326 C329 1.398 . S
C326 H336 0.930 . S
C327 C325 1.380 . S
C327 C328 1.391 . S
C327 H337 0.930 . S
C328 C327 1.391 . S
C328 C330 1.387 . S
C329 C326 1.398 . S
C329 C330 1.380 . S
C329 H338 0.930 . S
C330 C328 1.387 . S
C330 C329 1.380 . S
C330 H339 0.930 . S
C331 O308 1.254 . S
C331 O309 1.268 . S
H332 C317 0.930 . S
H333 C318 0.930 1_556 S
H334 C320 0.930 . S
H335 C321 0.930 . S
H336 C326 0.930 . S
H337 C327 0.930 . S
H338 C329 0.930 . S
H339 C330 0.930 . S
Gd340 N371 2.661 . S
Gd340 N377 2.601 . S
Gd340 O384 2.545 . S
Gd340 O385 2.597 1_655 S
Gd340 O387 2.429 1_655 S
Gd340 O388 2.545 . S
Gd340 O389 2.412 . S
Gd340 O391 2.362 1_655 S
Gd340 O392 2.324 . S
Gd340 C399 2.828 . S
Gd341 N350 2.661 . S
Gd341 N354 2.601 . S
Gd341 O385 2.377 . S
Gd341 O386 2.324 . S
Gd341 O390 2.545 . S
Gd341 O391 2.606 . S
Gd341 O393 2.429 1_455 S
Gd341 O394 2.545 . S
Gd341 O395 2.412 . S
Gd341 C408 2.828 . S
C342 C345 1.417 . S
C342 C347 1.431 . S
C342 C348 1.412 . S
C343 C346 1.437 . S
C343 C347 1.317 . S
C343 H362 0.929 . S
C344 C345 1.426 . S
C344 C346 1.413 . S
C344 N354 1.359 . S
C345 C342 1.417 . S
C345 C344 1.426 . S
C345 N350 1.350 . S
C346 C343 1.437 . S
C346 C344 1.413 . S
C346 C356 1.391 . S
C347 C342 1.431 . S
C347 C343 1.317 . S
C347 H358 0.930 . S
C348 C342 1.412 . S
C348 C349 1.355 . S
C348 H360 0.930 . S
C349 C348 1.355 . S
C349 C351 1.402 . S
C349 H361 0.930 . S
N350 Gd341 2.661 . S
N350 C345 1.350 . S
N350 C351 1.307 . S
C351 C349 1.402 . S
C351 N350 1.307 . S
C351 H352 0.930 . S
H352 C351 0.930 . S
C353 N354 1.334 1_655 S
C353 C355 1.394 . S
C353 H357 0.930 . S
N354 Gd341 2.601 . S
N354 C344 1.359 . S
N354 C353 1.334 1_455 S
C355 C353 1.394 . S
C355 C356 1.359 1_655 S
C355 H367 0.930 . S
C356 C346 1.391 . S
C356 C355 1.359 1_455 S
C356 H368 0.929 . S
H357 C353 0.930 . S
H358 C347 0.930 . S
H359 C376 0.930 . S
H360 C348 0.930 . S
H361 C349 0.930 . S
H362 C343 0.929 . S
H363 C381 0.930 . S
H364 C372 0.930 . S
H365 C373 0.930 . S
H366 C397 0.929 . S
H367 C355 0.930 . S
H368 C356 0.929 . S
H369 C398 0.930 . S
H370 C379 0.930 1_554 S
N371 Gd340 2.661 . S
N371 C375 1.350 . S
N371 C376 1.307 . S
C372 H364 0.930 . S
C372 C373 1.355 . S
C372 C374 1.412 . S
C373 H365 0.930 . S
C373 C372 1.355 . S
C373 C376 1.402 . S
C374 C372 1.412 . S
C374 C375 1.417 . S
C374 C398 1.431 . S
C375 N371 1.350 . S
C375 C374 1.417 . S
C375 C378 1.426 . S
C376 H359 0.930 . S
C376 N371 1.307 . S
C376 C373 1.402 . S
N377 Gd340 2.601 . S
N377 C378 1.359 . S
N377 C381 1.334 1_655 S
C378 C375 1.426 . S
C378 N377 1.359 . S
C378 C382 1.413 . S
C379 H370 0.930 1_556 S
C379 C380 1.359 . S
C379 C381 1.394 . S
C380 C379 1.359 . S
C380 C382 1.391 1_455 S
C380 H383 0.929 . S
C381 H363 0.930 . S
C381 N377 1.334 1_455 S
C381 C379 1.394 . S
C382 C378 1.413 . S
C382 C380 1.391 1_655 S
C382 C397 1.437 . S
H383 C380 0.929 . S
O384 Gd340 2.545 . S
O384 C399 1.258 . S
O385 Gd340 2.597 1_455 S
O385 Gd341 2.377 . S
O385 C396 1.274 1_455 S
O386 Gd341 2.324 . S
O386 C406 1.254 . S
O387 Gd340 2.429 1_455 S
O387 C406 1.268 . S
O388 Gd340 2.545 . S
O388 C396 1.250 . S
O389 Gd340 2.412 . S
O389 C399 1.252 . S
O390 Gd341 2.545 . S
O390 C408 1.258 . S
O391 Gd340 2.362 1_455 S
O391 Gd341 2.606 . S
O391 C407 1.284 . S
O392 Gd340 2.324 . S
O392 C415 1.254 . S
O393 Gd341 2.429 1_655 S
O393 C415 1.268 . S
O394 Gd341 2.545 . S
O394 C407 1.250 . S
O395 Gd341 2.412 . S
O395 C408 1.252 . S
C396 O385 1.274 1_655 S
C396 O388 1.250 . S
C397 H366 0.929 . S
C397 C382 1.437 . S
C397 C398 1.317 . S
C398 H369 0.930 . S
C398 C374 1.431 . S
C398 C397 1.317 . S
C399 Gd340 2.828 . S
C399 O384 1.258 . S
C399 O389 1.252 . S
C399 C400 1.497 1_556 S
C400 C399 1.497 1_554 S
C400 C401 1.395 . S
C400 C402 1.380 . S
C401 C400 1.395 . S
C401 C404 1.398 . S
C401 H416 0.930 . S
C402 C400 1.380 . S
C402 C403 1.391 . S
C402 H417 0.930 1_554 S
C403 C402 1.391 . S
C403 C405 1.387 . S
C404 C401 1.398 . S
C404 C405 1.380 . S
C404 H418 0.930 . S
C405 C403 1.387 . S
C405 C404 1.380 . S
C405 H419 0.930 . S
C406 O386 1.254 . S
C406 O387 1.268 . S
C407 O391 1.284 . S
C407 O394 1.250 . S
C408 Gd341 2.828 . S
C408 O390 1.258 . S
C408 O395 1.252 . S
C408 C409 1.497 . S
C409 C408 1.497 . S
C409 C410 1.395 . S
C409 C411 1.380 . S
C410 C409 1.395 . S
C410 C413 1.398 . S
C410 H420 0.930 . S
C411 C409 1.380 . S
C411 C412 1.391 . S
C411 H421 0.930 . S
C412 C411 1.391 . S
C412 C414 1.387 . S
C413 C410 1.398 . S
C413 C414 1.380 . S
C413 H422 0.930 . S
C414 C412 1.387 . S
C414 C413 1.380 . S
C414 H423 0.930 . S
C415 O392 1.254 . S
C415 O393 1.268 . S
H416 C401 0.930 . S
H417 C402 0.930 1_556 S
H418 C404 0.930 . S
H419 C405 0.930 . S
H420 C410 0.930 . S
H421 C411 0.930 . S
H422 C413 0.930 . S
H423 C414 0.930 . S
C424 C425 1.363 . S
C424 C430 1.379 . S
C424 N432 1.356 . S
C425 C424 1.363 . S
C425 C431 1.363 . S
C426 C427 1.363 . S
C426 C431 1.379 . S
C426 N433 1.356 1_545 S
C427 C426 1.363 . S
C427 C430 1.363 . S
N428 C430 1.356 . S
N428 H440 0.984 . S
N428 H441 0.985 . S
N429 C431 1.356 . S
N429 H434 0.984 . S
N429 H435 0.985 1_545 S
C430 C424 1.379 . S
C430 C427 1.363 . S
C430 N428 1.356 . S
C431 C425 1.363 . S
C431 C426 1.379 . S
C431 N429 1.356 . S
N432 C424 1.356 . S
N432 H438 0.984 . S
N432 H439 0.984 . S
N433 C426 1.356 1_565 S
N433 H436 0.984 . S
N433 H437 0.985 . S
H434 N429 0.984 . S
H435 N429 0.985 1_565 S
H436 N433 0.984 . S
H437 N433 0.985 . S
H438 N432 0.984 . S
H439 N432 0.984 . S
H440 N428 0.984 . S
H441 N428 0.985 . S
C442 C443 1.363 . S
C442 C448 1.379 . S
C442 N450 1.356 . S
C443 C442 1.363 . S
C443 C449 1.363 . S
C444 C445 1.363 . S
C444 C449 1.379 . S
C444 N451 1.356 . S
C445 C444 1.363 . S
C445 C448 1.363 . S
N446 C448 1.356 . S
N446 H458 0.984 . S
N446 H459 0.985 . S
N447 C449 1.356 . S
N447 H452 0.984 . S
N447 H453 0.985 . S
C448 C442 1.379 . S
C448 C445 1.363 . S
C448 N446 1.356 . S
C449 C443 1.363 . S
C449 C444 1.379 . S
C449 N447 1.356 . S
N450 C442 1.356 . S
N450 H456 0.984 . S
N450 H457 0.984 . S
N451 C444 1.356 . S
N451 H454 0.984 . S
N451 H455 0.985 . S
H452 N447 0.984 . S
H453 N447 0.985 . S
H454 N451 0.984 . S
H455 N451 0.985 . S
H456 N450 0.984 . S
H457 N450 0.984 . S
H458 N446 0.984 . S
H459 N446 0.985 . S
C460 C461 1.363 . S
C460 C466 1.379 . S
C460 N468 1.356 . S
C461 C460 1.363 . S
C461 C467 1.363 . S
C462 C463 1.363 . S
C462 C467 1.379 . S
C462 N469 1.356 . S
C463 C462 1.363 . S
C463 C466 1.363 . S
N464 C466 1.356 . S
N464 H476 0.984 . S
N464 H477 0.985 . S
N465 C467 1.356 . S
N465 H470 0.984 . S
N465 H471 0.985 . S
C466 C460 1.379 . S
C466 C463 1.363 . S
C466 N464 1.356 . S
C467 C461 1.363 . S
C467 C462 1.379 . S
C467 N465 1.356 . S
N468 C460 1.356 . S
N468 H474 0.984 . S
N468 H475 0.984 . S
N469 C462 1.356 . S
N469 H472 0.984 . S
N469 H473 0.985 . S
H470 N465 0.984 . S
H471 N465 0.985 . S
H472 N469 0.984 . S
H473 N469 0.985 . S
H474 N468 0.984 . S
H475 N468 0.984 . S
H476 N464 0.984 . S
H477 N464 0.985 . S
C478 C479 1.363 . S
C478 C484 1.379 . S
C478 N486 1.356 . S
C479 C478 1.363 . S
C479 C485 1.363 . S
C480 C481 1.363 . S
C480 C485 1.379 . S
C480 N487 1.356 . S
C481 C480 1.363 . S
C481 C484 1.363 . S
N482 C484 1.356 . S
N482 H494 0.984 . S
N482 H495 0.985 . S
N483 C485 1.356 . S
N483 H488 0.984 . S
N483 H489 0.985 . S
C484 C478 1.379 . S
C484 C481 1.363 . S
C484 N482 1.356 . S
C485 C479 1.363 . S
C485 C480 1.379 . S
C485 N483 1.356 . S
N486 C478 1.356 . S
N486 H492 0.984 . S
N486 H493 0.984 . S
N487 C480 1.356 . S
N487 H490 0.984 . S
N487 H491 0.985 . S
H488 N483 0.984 . S
H489 N483 0.985 . S
H490 N487 0.984 . S
H491 N487 0.985 . S
H492 N486 0.984 . S
H493 N486 0.984 . S
H494 N482 0.984 . S
H495 N482 0.985 . S
C496 C497 1.363 . S
C496 C502 1.379 1_564 S
C496 N504 1.356 1_565 S
C497 C496 1.363 . S
C497 C503 1.363 . S
C498 C499 1.363 . S
C498 C503 1.379 1_556 S
C498 N505 1.356 . S
C499 C498 1.363 . S
C499 C502 1.363 1_565 S
N500 C502 1.356 . S
N500 H512 0.984 . S
N500 H513 0.985 . S
N501 C503 1.356 . S
N501 H506 0.984 . S
N501 H507 0.985 . S
C502 C496 1.379 1_546 S
C502 C499 1.363 1_545 S
C502 N500 1.356 . S
C503 C497 1.363 . S
C503 C498 1.379 1_554 S
C503 N501 1.356 . S
N504 C496 1.356 1_545 S
N504 H510 0.984 . S
N504 H511 0.984 1_545 S
N505 C498 1.356 . S
N505 H508 0.984 . S
N505 H509 0.985 . S
H506 N501 0.984 . S
H507 N501 0.985 . S
H508 N505 0.984 . S
H509 N505 0.985 . S
H510 N504 0.984 . S
H511 N504 0.984 1_565 S
H512 N500 0.984 . S
H513 N500 0.985 . S
C514 C515 1.363 . S
C514 C520 1.375 1_554 S
C514 N522 1.356 . S
C515 C514 1.363 . S
C515 C521 1.363 . S
C516 C517 1.363 . S
C516 C521 1.379 1_556 S
C516 N523 1.356 . S
C517 C516 1.363 . S
C517 C520 1.366 . S
N518 C520 1.358 . S
N518 H530 0.984 1_556 S
N518 H531 0.985 . S
N519 C521 1.356 . S
N519 H524 0.984 . S
N519 H525 0.985 1_554 S
C520 C514 1.375 1_556 S
C520 C517 1.366 . S
C520 N518 1.358 . S
C521 C515 1.363 . S
C521 C516 1.379 1_554 S
C521 N519 1.356 . S
N522 C514 1.356 . S
N522 H528 0.984 . S
N522 H529 0.984 . S
N523 C516 1.356 . S
N523 H526 0.984 . S
N523 H527 0.985 . S
H524 N519 0.984 . S
H525 N519 0.985 1_556 S
H526 N523 0.984 . S
H527 N523 0.985 . S
H528 N522 0.984 . S
H529 N522 0.984 . S
H530 N518 0.984 1_554 S
H531 N518 0.985 . S
C532 C533 1.363 . S
C532 C538 1.379 1_554 S
C532 N540 1.356 . S
C533 C532 1.363 . S
C533 C539 1.363 . S
C534 C535 1.363 . S
C534 C539 1.379 1_556 S
C534 N541 1.356 . S
C535 C534 1.363 . S
C535 C538 1.363 . S
N536 C538 1.356 . S
N536 H548 0.984 . S
N536 H549 0.985 . S
N537 C539 1.356 . S
N537 H542 0.984 . S
N537 H543 0.985 . S
C538 C532 1.379 1_556 S
C538 C535 1.363 . S
C538 N536 1.356 . S
C539 C533 1.363 . S
C539 C534 1.379 1_554 S
C539 N537 1.356 . S
N540 C532 1.356 . S
N540 H546 0.984 . S
N540 H547 0.984 . S
N541 C534 1.356 . S
N541 H544 0.984 . S
N541 H545 0.985 . S
H542 N537 0.984 . S
H543 N537 0.985 . S
H544 N541 0.984 . S
H545 N541 0.985 . S
H546 N540 0.984 . S
H547 N540 0.984 . S
H548 N536 0.984 . S
H549 N536 0.985 . S
C550 C551 1.363 . S
C550 C556 1.379 1_554 S
C550 N558 1.356 . S
C551 C550 1.363 . S
C551 C557 1.363 . S
C552 C553 1.373 . S
C552 C557 1.369 1_556 S
C552 N559 1.360 1_655 S
C553 C552 1.373 . S
C553 C556 1.363 . S
N554 C556 1.356 . S
N554 H566 0.984 . S
N554 H567 0.985 . S
N555 C557 1.356 . S
N555 H560 0.984 . S
N555 H561 0.985 1_655 S
C556 C550 1.379 1_556 S
C556 C553 1.363 . S
C556 N554 1.356 . S
C557 C551 1.363 . S
C557 C552 1.369 1_554 S
C557 N555 1.356 . S
N558 C550 1.356 . S
N558 H564 0.984 1_554 S
N558 H565 0.984 . S
N559 C552 1.360 1_455 S
N559 H562 0.984 . S
N559 H563 0.985 1_556 S
H560 N555 0.984 . S
H561 N555 0.985 1_455 S
H562 N559 0.984 . S
H563 N559 0.985 1_554 S
H564 N558 0.984 1_556 S
H565 N558 0.984 . S
H566 N554 0.984 . S
H567 N554 0.985 . S
C568 C569 1.363 . S
C568 C574 1.379 . S
C568 N576 1.356 . S
C569 C568 1.363 . S
C569 C575 1.363 . S
C570 C571 1.363 . S
C570 C575 1.379 . S
C570 N577 1.356 . S
C571 C570 1.363 . S
C571 C574 1.363 . S
N572 C574 1.356 1_655 S
N572 H584 0.984 . S
N572 H585 0.985 . S
N573 C575 1.356 . S
N573 H578 0.984 . S
N573 H579 0.985 . S
C574 C568 1.379 . S
C574 C571 1.363 . S
C574 N572 1.356 1_455 S
C575 C569 1.363 . S
C575 C570 1.379 . S
C575 N573 1.356 . S
N576 C568 1.356 . S
N576 H582 0.984 1_554 S
N576 H583 0.984 . S
N577 C570 1.356 . S
N577 H580 0.984 . S
N577 H581 0.985 . S
H578 N573 0.984 . S
H579 N573 0.985 . S
H580 N577 0.984 . S
H581 N577 0.985 . S
H582 N576 0.984 1_556 S
H583 N576 0.984 . S
H584 N572 0.984 . S
H585 N572 0.985 . S
C586 C587 1.363 . S
C586 C592 1.379 . S
C586 N594 1.356 . S
C587 C586 1.363 . S
C587 C593 1.363 . S
C588 C589 1.363 . S
C588 C593 1.379 . S
C588 N595 1.356 1_545 S
C589 C588 1.363 . S
C589 C592 1.363 . S
N590 C592 1.356 . S
N590 H602 0.984 . S
N590 H603 0.968 1_545 S
N591 C593 1.356 . S
N591 H596 0.984 . S
N591 H597 0.985 . S
C592 C586 1.379 . S
C592 C589 1.363 . S
C592 N590 1.356 . S
C593 C587 1.363 . S
C593 C588 1.379 . S
C593 N591 1.356 . S
N594 C586 1.356 . S
N594 H600 0.984 . S
N594 H601 0.984 . S
N595 C588 1.356 1_565 S
N595 H598 0.984 . S
N595 H599 0.985 . S
H596 N591 0.984 . S
H597 N591 0.985 . S
H598 N595 0.984 . S
H599 N595 0.985 . S
H600 N594 0.984 . S
H601 N594 0.984 . S
H602 N590 0.984 . S
H603 N590 0.968 1_565 S
C604 C605 1.363 . S
C604 C610 1.379 . S
C604 N612 1.356 . S
C605 C604 1.363 . S
C605 C611 1.363 . S
C606 C607 1.363 . S
C606 C611 1.379 . S
C606 N613 1.356 . S
C607 C606 1.363 . S
C607 C610 1.363 . S
N608 C610 1.356 . S
N608 H620 0.984 . S
N608 H621 0.985 . S
N609 C611 1.356 . S
N609 H614 0.984 . S
N609 H615 0.985 1_554 S
C610 C604 1.379 . S
C610 C607 1.363 . S
C610 N608 1.356 . S
C611 C605 1.363 . S
C611 C606 1.379 . S
C611 N609 1.356 . S
N612 C604 1.356 . S
N612 H618 0.984 . S
N612 H619 0.984 . S
N613 C606 1.356 . S
N613 H616 0.984 . S
N613 H617 0.985 . S
H614 N609 0.984 . S
H615 N609 0.985 1_556 S
H616 N613 0.984 . S
H617 N613 0.985 . S
H618 N612 0.984 . S
H619 N612 0.984 . S
H620 N608 0.984 . S
H621 N608 0.985 . S
C622 C623 1.363 . S
C622 C628 1.379 . S
C622 N630 1.356 . S
C623 C622 1.363 . S
C623 C629 1.363 . S
C624 C625 1.363 . S
C624 C629 1.379 . S
C624 N631 1.356 . S
C625 C624 1.363 . S
C625 C628 1.363 . S
N626 C628 1.356 . S
N626 H638 0.984 . S
N626 H639 0.985 . S
N627 C629 1.356 . S
N627 H632 0.984 . S
N627 H633 0.985 . S
C628 C622 1.379 . S
C628 C625 1.363 . S
C628 N626 1.356 . S
C629 C623 1.363 . S
C629 C624 1.379 . S
C629 N627 1.356 . S
N630 C622 1.356 . S
N630 H636 0.984 . S
N630 H637 0.984 . S
N631 C624 1.356 . S
N631 H634 0.984 . S
N631 H635 0.985 . S
H632 N627 0.984 . S
H633 N627 0.985 . S
H634 N631 0.984 . S
H635 N631 0.985 . S
H636 N630 0.984 . S
H637 N630 0.984 . S
H638 N626 0.984 . S
H639 N626 0.985 . S
C640 C641 1.363 . S
C640 C646 1.379 1_655 S
C640 N648 1.356 . S
C641 C640 1.363 . S
C641 C647 1.363 . S
C642 C643 1.363 1_655 S
C642 C647 1.379 . S
C642 N649 1.356 1_554 S
C643 C642 1.363 1_455 S
C643 C646 1.363 . S
N644 C646 1.356 . S
N644 H656 0.984 . S
N644 H657 0.985 . S
N645 C647 1.356 . S
N645 H650 0.984 . S
N645 H651 0.985 1_554 S
C646 C640 1.379 1_455 S
C646 C643 1.363 . S
C646 N644 1.356 . S
C647 C641 1.363 . S
C647 C642 1.379 . S
C647 N645 1.356 . S
N648 C640 1.356 . S
N648 H654 0.984 . S
N648 H655 0.984 . S
N649 C642 1.356 1_556 S
N649 H652 0.984 1_655 S
N649 H653 0.985 . S
H650 N645 0.984 . S
H651 N645 0.985 1_556 S
H652 N649 0.984 1_455 S
H653 N649 0.985 . S
H654 N648 0.984 . S
H655 N648 0.984 . S
H656 N644 0.984 . S
H657 N644 0.985 . S
C658 C659 1.363 . S
C658 C664 1.379 1_565 S
C658 N666 1.356 . S
C659 C658 1.363 . S
C659 C665 1.363 . S
C660 C661 1.363 1_565 S
C660 C665 1.379 . S
C660 N667 1.356 1_565 S
C661 C660 1.363 1_545 S
C661 C664 1.363 . S
N662 C664 1.356 1_556 S
N662 H674 0.984 . S
N662 H675 0.985 . S
N663 C665 1.356 . S
N663 H668 0.984 . S
N663 H669 0.985 . S
C664 C658 1.379 1_545 S
C664 C661 1.363 . S
C664 N662 1.356 1_554 S
C665 C659 1.363 . S
C665 C660 1.379 . S
C665 N663 1.356 . S
N666 C658 1.356 . S
N666 H672 0.984 . S
N666 H673 0.984 . S
N667 C660 1.356 1_545 S
N667 H670 0.984 . S
N667 H671 0.985 1_545 S
H668 N663 0.984 . S
H669 N663 0.985 . S
H670 N667 0.984 . S
H671 N667 0.985 1_565 S
H672 N666 0.984 . S
H673 N666 0.984 . S
H674 N662 0.984 . S
H675 N662 0.985 . S
C676 C677 1.363 . S
C676 C682 1.379 . S
C676 N684 1.356 . S
C677 C676 1.363 . S
C677 C683 1.363 . S
C678 C679 1.363 . S
C678 C683 1.379 . S
C678 N685 1.356 . S
C679 C678 1.363 . S
C679 C682 1.363 . S
N680 C682 1.356 . S
N680 H692 0.984 . S
N680 H693 0.985 . S
N681 C683 1.356 . S
N681 H686 0.984 . S
N681 H687 0.985 . S
C682 C676 1.379 . S
C682 C679 1.363 . S
C682 N680 1.356 . S
C683 C677 1.363 . S
C683 C678 1.379 . S
C683 N681 1.356 . S
N684 C676 1.356 . S
N684 H690 0.984 . S
N684 H691 0.984 . S
N685 C678 1.356 . S
N685 H688 0.984 . S
N685 H689 0.985 . S
H686 N681 0.984 . S
H687 N681 0.985 . S
H688 N685 0.984 . S
H689 N685 0.985 . S
H690 N684 0.984 . S
H691 N684 0.984 . S
H692 N680 0.984 . S
H693 N680 0.985 . S
C694 C695 1.363 . S
C694 C700 1.379 . S
C694 N702 1.356 . S
C695 C694 1.363 . S
C695 C701 1.363 . S
C696 C697 1.363 . S
C696 C701 1.379 . S
C696 N703 1.356 1_554 S
C697 C696 1.363 . S
C697 C700 1.363 . S
N698 C700 1.356 . S
N698 H710 0.984 . S
N698 H711 0.985 . S
N699 C701 1.356 . S
N699 H704 0.984 . S
N699 H705 0.985 1_554 S
C700 C694 1.379 . S
C700 C697 1.363 . S
C700 N698 1.356 . S
C701 C695 1.363 . S
C701 C696 1.379 . S
C701 N699 1.356 . S
N702 C694 1.356 . S
N702 H708 0.984 . S
N702 H709 0.984 . S
N703 C696 1.356 1_556 S
N703 H706 0.984 . S
N703 H707 0.985 . S
H704 N699 0.984 . S
H705 N699 0.985 1_556 S
H706 N703 0.984 . S
H707 N703 0.985 . S
H708 N702 0.984 . S
H709 N702 0.984 . S
H710 N698 0.984 . S
H711 N698 0.985 . S
C712 C713 1.363 . S
C712 C718 1.379 . S
C712 N720 1.356 . S
C713 C712 1.363 . S
C713 C719 1.363 . S
C714 C715 1.363 . S
C714 C719 1.379 . S
C714 N721 1.356 . S
C715 C714 1.363 . S
C715 C718 1.363 . S
N716 C718 1.356 . S
N716 H728 0.975 1_455 S
N716 H729 0.985 . S
N717 C719 1.356 . S
N717 H722 0.984 . S
N717 H723 0.985 . S
C718 C712 1.379 . S
C718 C715 1.363 . S
C718 N716 1.356 . S
C719 C713 1.363 . S
C719 C714 1.379 . S
C719 N717 1.356 . S
N720 C712 1.356 . S
N720 H726 0.984 . S
N720 H727 0.984 . S
N721 C714 1.356 . S
N721 H724 0.984 . S
N721 H725 0.985 . S
H722 N717 0.984 . S
H723 N717 0.985 . S
H724 N721 0.984 . S
H725 N721 0.985 . S
H726 N720 0.984 . S
H727 N720 0.984 . S
H728 N716 0.975 1_655 S
H729 N716 0.985 . S
C730 C731 1.363 . S
C730 C736 1.379 . S
C730 N738 1.356 . S
C731 C730 1.363 . S
C731 C737 1.363 . S
C732 C733 1.363 . S
C732 C737 1.379 . S
C732 N739 1.356 . S
C733 C732 1.363 . S
C733 C736 1.363 . S
N734 C736 1.356 . S
N734 H746 0.984 . S
N734 H747 0.985 . S
N735 C737 1.356 . S
N735 H740 0.984 . S
N735 H741 0.985 . S
C736 C730 1.379 . S
C736 C733 1.363 . S
C736 N734 1.356 . S
C737 C731 1.363 . S
C737 C732 1.379 . S
C737 N735 1.356 . S
N738 C730 1.356 . S
N738 H744 0.984 . S
N738 H745 0.984 . S
N739 C732 1.356 . S
N739 H742 0.984 . S
N739 H743 0.985 1_545 S
H740 N735 0.984 . S
H741 N735 0.985 . S
H742 N739 0.984 . S
H743 N739 0.985 1_565 S
H744 N738 0.984 . S
H745 N738 0.984 . S
H746 N734 0.984 . S
H747 N734 0.985 . S
C748 C749 1.363 . S
C748 C754 1.379 . S
C748 N756 1.356 . S
C749 C748 1.363 . S
C749 C755 1.363 . S
C750 C751 1.363 . S
C750 C755 1.379 . S
C750 N757 1.356 . S
C751 C750 1.363 . S
C751 C754 1.363 . S
N752 C754 1.356 . S
N752 H764 0.984 . S
N752 H765 0.985 . S
N753 C755 1.356 . S
N753 H758 0.984 . S
N753 H759 0.985 . S
C754 C748 1.379 . S
C754 C751 1.363 . S
C754 N752 1.356 . S
C755 C749 1.363 . S
C755 C750 1.379 . S
C755 N753 1.356 . S
N756 C748 1.356 . S
N756 H762 0.984 . S
N756 H763 0.984 . S
N757 C750 1.356 . S
N757 H760 0.984 . S
N757 H761 0.985 . S
H758 N753 0.984 . S
H759 N753 0.985 . S
H760 N757 0.984 . S
H761 N757 0.985 . S
H762 N756 0.984 . S
H763 N756 0.984 . S
H764 N752 0.984 . S
H765 N752 0.985 . S
C766 C767 1.363 . S
C766 C772 1.379 . S
C766 N774 1.356 . S
C767 C766 1.363 . S
C767 C773 1.363 . S
C768 C769 1.363 . S
C768 C773 1.379 . S
C768 N775 1.356 . S
C769 C768 1.363 . S
C769 C772 1.363 . S
N770 C772 1.356 . S
N770 H782 0.984 . S
N770 H783 0.985 . S
N771 C773 1.356 . S
N771 H776 0.984 . S
N771 H777 0.985 . S
C772 C766 1.379 . S
C772 C769 1.363 . S
C772 N770 1.356 . S
C773 C767 1.363 . S
C773 C768 1.379 . S
C773 N771 1.356 . S
N774 C766 1.356 . S
N774 H780 0.984 . S
N774 H781 0.984 . S
N775 C768 1.356 . S
N775 H778 0.984 . S
N775 H779 0.985 . S
H776 N771 0.984 . S
H777 N771 0.985 . S
H778 N775 0.984 . S
H779 N775 0.985 . S
H780 N774 0.984 . S
H781 N774 0.984 . S
H782 N770 0.984 . S
H783 N770 0.985 . S
C784 C785 1.363 . S
C784 C790 1.379 . S
C784 N792 1.356 . S
C785 C784 1.363 . S
C785 C791 1.363 . S
C786 C787 1.363 . S
C786 C791 1.379 . S
C786 N793 1.356 . S
C787 C786 1.363 . S
C787 C790 1.363 . S
N788 C790 1.356 . S
N788 H800 0.984 . S
N788 H801 0.985 . S
N789 C791 1.356 . S
N789 H794 0.984 . S
N789 H795 0.985 . S
C790 C784 1.379 . S
C790 C787 1.363 . S
C790 N788 1.356 . S
C791 C785 1.363 . S
C791 C786 1.379 . S
C791 N789 1.356 . S
N792 C784 1.356 . S
N792 H798 0.984 . S
N792 H799 0.984 . S
N793 C786 1.356 . S
N793 H796 0.984 . S
N793 H797 0.985 1_655 S
H794 N789 0.984 . S
H795 N789 0.985 . S
H796 N793 0.984 . S
H797 N793 0.985 1_455 S
H798 N792 0.984 . S
H799 N792 0.984 . S
H800 N788 0.984 . S
H801 N788 0.985 . S
C802 C803 1.363 . S
C802 C808 1.379 . S
C802 N810 1.356 . S
C803 C802 1.363 . S
C803 C809 1.363 . S
C804 C805 1.363 . S
C804 C809 1.379 . S
C804 N811 1.356 1_565 S
C805 C804 1.363 . S
C805 C808 1.363 . S
N806 C808 1.356 . S
N806 H818 0.984 . S
N806 H819 0.985 . S
N807 C809 1.356 . S
N807 H812 0.984 . S
N807 H813 0.985 1_565 S
C808 C802 1.379 . S
C808 C805 1.363 . S
C808 N806 1.356 . S
C809 C803 1.363 . S
C809 C804 1.379 . S
C809 N807 1.356 . S
N810 C802 1.356 . S
N810 H816 0.984 . S
N810 H817 0.984 . S
N811 C804 1.356 1_545 S
N811 H814 0.984 . S
N811 H815 0.985 . S
H812 N807 0.984 . S
H813 N807 0.985 1_545 S
H814 N811 0.984 . S
H815 N811 0.985 . S
H816 N810 0.984 . S
H817 N810 0.984 . S
H818 N806 0.984 . S
H819 N806 0.985 . S
C820 C821 1.363 . S
C820 C826 1.379 . S
C820 N828 1.356 . S
C821 C820 1.363 . S
C821 C827 1.363 . S
C822 C823 1.363 . S
C822 C827 1.379 . S
C822 N829 1.356 . S
C823 C822 1.363 . S
C823 C826 1.363 . S
N824 C826 1.356 . S
N824 H836 0.984 . S
N824 H837 0.985 . S
N825 C827 1.356 . S
N825 H830 0.984 . S
N825 H831 0.985 . S
C826 C820 1.379 . S
C826 C823 1.363 . S
C826 N824 1.356 . S
C827 C821 1.363 . S
C827 C822 1.379 . S
C827 N825 1.356 . S
N828 C820 1.356 . S
N828 H834 0.984 . S
N828 H835 0.984 . S
N829 C822 1.356 . S
N829 H832 0.984 . S
N829 H833 0.985 . S
H830 N825 0.984 . S
H831 N825 0.985 . S
H832 N829 0.984 . S
H833 N829 0.985 . S
H834 N828 0.984 . S
H835 N828 0.984 . S
H836 N824 0.984 . S
H837 N824 0.985 . S
C838 C839 1.363 . S
C838 C844 1.379 . S
C838 N846 1.356 . S
C839 C838 1.363 . S
C839 C845 1.363 . S
C840 C841 1.363 . S
C840 C845 1.379 . S
C840 N847 1.356 . S
C841 C840 1.363 . S
C841 C844 1.363 . S
N842 C844 1.356 . S
N842 H854 0.984 . S
N842 H855 0.985 . S
N843 C845 1.356 . S
N843 H848 0.984 . S
N843 H849 0.985 . S
C844 C838 1.379 . S
C844 C841 1.363 . S
C844 N842 1.356 . S
C845 C839 1.363 . S
C845 C840 1.379 . S
C845 N843 1.356 . S
N846 C838 1.356 . S
N846 H852 0.984 . S
N846 H853 0.984 . S
N847 C840 1.356 . S
N847 H850 0.984 . S
N847 H851 0.985 . S
H848 N843 0.984 . S
H849 N843 0.985 . S
H850 N847 0.984 . S
H851 N847 0.985 . S
H852 N846 0.984 . S
H853 N846 0.984 . S
H854 N842 0.984 . S
H855 N842 0.985 . S
C425 C74 1.985 . S
C427 C163 2.038 . S
C445 C247 2.053 . S
C443 C85 1.999 . S
C463 C323 1.932 . S
C461 C52 2.071 . S
C481 C407 1.921 . S
C479 C63 2.058 . S
C499 C154 2.038 1_565 S
C497 C30 1.930 . S
C515 C41 1.937 . S
C517 C238 2.053 . S
C533 C8 2.005 . S
C535 C312 1.932 . S
C551 C19 1.998 . S
C553 C396 1.921 . S
C571 C151 1.051 1_455 S
C569 C62 1.030 . S
C589 C235 1.010 1_545 S
C587 C73 0.993 . S
C607 C328 0.969 . S
C605 C84 0.966 . S
C623 C51 1.001 . S
C625 C412 1.006 . S
C641 C18 0.922 . S
C643 C160 1.051 . S
C661 C244 1.010 . S
C659 C29 0.900 . S
C679 C319 0.969 . S
C677 C40 0.883 . S
C695 C7 0.905 . S
C697 C403 1.006 . S
C713 C60 1.950 . S
C715 C144 2.210 . S
C731 C71 1.916 . S
C733 C228 2.189 . S
C751 C322 2.306 . S
C749 C82 1.863 . S
C769 C406 2.325 . S
C767 C49 1.892 . S
C785 C16 1.752 . S
C787 C155 2.210 . S
C805 C239 2.189 . S
C803 C27 1.746 . S
C823 C331 2.306 . S
C821 C38 1.663 . S
C839 C5 1.671 . S
C841 C415 2.325 . S
