# Generated by pormake.
# Topology gar, (4,6)-cn, num edge types: 1
# Building blocks:
#     Node 0, Type 0, BuildingBlock: NAHDIM_clean_sbu_0, # of connection points: 4
#     Node 1, Type 0, BuildingBlock: NAHDIM_clean_sbu_0, # of connection points: 4
#     Node 2, Type 0, BuildingBlock: NAHDIM_clean_sbu_0, # of connection points: 4
#     Node 3, Type 0, BuildingBlock: NAHDIM_clean_sbu_0, # of connection points: 4
#     Node 4, Type 0, BuildingBlock: NAHDIM_clean_sbu_0, # of connection points: 4
#     Node 5, Type 0, BuildingBlock: NAHDIM_clean_sbu_0, # of connection points: 4
#     Node 6, Type 0, BuildingBlock: NAHDIM_clean_sbu_0, # of connection points: 4
#     Node 7, Type 0, BuildingBlock: NAHDIM_clean_sbu_0, # of connection points: 4
#     Node 8, Type 0, BuildingBlock: NAHDIM_clean_sbu_0, # of connection points: 4
#     Node 9, Type 0, BuildingBlock: NAHDIM_clean_sbu_0, # of connection points: 4
#     Node 10, Type 0, BuildingBlock: NAHDIM_clean_sbu_0, # of connection points: 4
#     Node 11, Type 0, BuildingBlock: NAHDIM_clean_sbu_0, # of connection points: 4
#     Node 12, Type 0, BuildingBlock: NAHDIM_clean_sbu_0, # of connection points: 4
#     Node 13, Type 0, BuildingBlock: NAHDIM_clean_sbu_0, # of connection points: 4
#     Node 14, Type 0, BuildingBlock: NAHDIM_clean_sbu_0, # of connection points: 4
#     Node 15, Type 0, BuildingBlock: NAHDIM_clean_sbu_0, # of connection points: 4
#     Node 16, Type 0, BuildingBlock: NAHDIM_clean_sbu_0, # of connection points: 4
#     Node 17, Type 0, BuildingBlock: NAHDIM_clean_sbu_0, # of connection points: 4
#     Node 18, Type 0, BuildingBlock: NAHDIM_clean_sbu_0, # of connection points: 4
#     Node 19, Type 0, BuildingBlock: NAHDIM_clean_sbu_0, # of connection points: 4
#     Node 20, Type 0, BuildingBlock: NAHDIM_clean_sbu_0, # of connection points: 4
#     Node 21, Type 0, BuildingBlock: NAHDIM_clean_sbu_0, # of connection points: 4
#     Node 22, Type 0, BuildingBlock: NAHDIM_clean_sbu_0, # of connection points: 4
#     Node 23, Type 0, BuildingBlock: NAHDIM_clean_sbu_0, # of connection points: 4
#     Node 24, Type 1, BuildingBlock: CUKXOW_clean_sbu_0, # of connection points: 6
#     Node 25, Type 1, BuildingBlock: CUKXOW_clean_sbu_0, # of connection points: 6
#     Node 26, Type 1, BuildingBlock: CUKXOW_clean_sbu_0, # of connection points: 6
#     Node 27, Type 1, BuildingBlock: CUKXOW_clean_sbu_0, # of connection points: 6
#     Node 28, Type 1, BuildingBlock: CUKXOW_clean_sbu_0, # of connection points: 6
#     Node 29, Type 1, BuildingBlock: CUKXOW_clean_sbu_0, # of connection points: 6
#     Node 30, Type 1, BuildingBlock: CUKXOW_clean_sbu_0, # of connection points: 6
#     Node 31, Type 1, BuildingBlock: CUKXOW_clean_sbu_0, # of connection points: 6
#     Node 32, Type 1, BuildingBlock: CUKXOW_clean_sbu_0, # of connection points: 6
#     Node 33, Type 1, BuildingBlock: CUKXOW_clean_sbu_0, # of connection points: 6
#     Node 34, Type 1, BuildingBlock: CUKXOW_clean_sbu_0, # of connection points: 6
#     Node 35, Type 1, BuildingBlock: CUKXOW_clean_sbu_0, # of connection points: 6
#     Node 36, Type 1, BuildingBlock: CUKXOW_clean_sbu_0, # of connection points: 6
#     Node 37, Type 1, BuildingBlock: CUKXOW_clean_sbu_0, # of connection points: 6
#     Node 38, Type 1, BuildingBlock: CUKXOW_clean_sbu_0, # of connection points: 6
#     Node 39, Type 1, BuildingBlock: CUKXOW_clean_sbu_0, # of connection points: 6
#     Edge 40, Type (0, 1), BuildingBlock: EZIPEK_clean_linker_0, # of connection points: 2
#     Edge 41, Type (0, 1), BuildingBlock: EZIPEK_clean_linker_0, # of connection points: 2
#     Edge 42, Type (0, 1), BuildingBlock: EZIPEK_clean_linker_0, # of connection points: 2
#     Edge 43, Type (0, 1), BuildingBlock: EZIPEK_clean_linker_0, # of connection points: 2
#     Edge 44, Type (0, 1), BuildingBlock: EZIPEK_clean_linker_0, # of connection points: 2
#     Edge 45, Type (0, 1), BuildingBlock: EZIPEK_clean_linker_0, # of connection points: 2
#     Edge 46, Type (0, 1), BuildingBlock: EZIPEK_clean_linker_0, # of connection points: 2
#     Edge 47, Type (0, 1), BuildingBlock: EZIPEK_clean_linker_0, # of connection points: 2
#     Edge 48, Type (0, 1), BuildingBlock: EZIPEK_clean_linker_0, # of connection points: 2
#     Edge 49, Type (0, 1), BuildingBlock: EZIPEK_clean_linker_0, # of connection points: 2
#     Edge 50, Type (0, 1), BuildingBlock: EZIPEK_clean_linker_0, # of connection points: 2
#     Edge 51, Type (0, 1), BuildingBlock: EZIPEK_clean_linker_0, # of connection points: 2
#     Edge 52, Type (0, 1), BuildingBlock: EZIPEK_clean_linker_0, # of connection points: 2
#     Edge 53, Type (0, 1), BuildingBlock: EZIPEK_clean_linker_0, # of connection points: 2
#     Edge 54, Type (0, 1), BuildingBlock: EZIPEK_clean_linker_0, # of connection points: 2
#     Edge 55, Type (0, 1), BuildingBlock: EZIPEK_clean_linker_0, # of connection points: 2
#     Edge 56, Type (0, 1), BuildingBlock: EZIPEK_clean_linker_0, # of connection points: 2
#     Edge 57, Type (0, 1), BuildingBlock: EZIPEK_clean_linker_0, # of connection points: 2
#     Edge 58, Type (0, 1), BuildingBlock: EZIPEK_clean_linker_0, # of connection points: 2
#     Edge 59, Type (0, 1), BuildingBlock: EZIPEK_clean_linker_0, # of connection points: 2
#     Edge 60, Type (0, 1), BuildingBlock: EZIPEK_clean_linker_0, # of connection points: 2
#     Edge 61, Type (0, 1), BuildingBlock: EZIPEK_clean_linker_0, # of connection points: 2
#     Edge 62, Type (0, 1), BuildingBlock: EZIPEK_clean_linker_0, # of connection points: 2
#     Edge 63, Type (0, 1), BuildingBlock: EZIPEK_clean_linker_0, # of connection points: 2
#     Edge 64, Type (0, 1), BuildingBlock: EZIPEK_clean_linker_0, # of connection points: 2
#     Edge 65, Type (0, 1), BuildingBlock: EZIPEK_clean_linker_0, # of connection points: 2
#     Edge 66, Type (0, 1), BuildingBlock: EZIPEK_clean_linker_0, # of connection points: 2
#     Edge 67, Type (0, 1), BuildingBlock: EZIPEK_clean_linker_0, # of connection points: 2
#     Edge 68, Type (0, 1), BuildingBlock: EZIPEK_clean_linker_0, # of connection points: 2
#     Edge 69, Type (0, 1), BuildingBlock: EZIPEK_clean_linker_0, # of connection points: 2
#     Edge 70, Type (0, 1), BuildingBlock: EZIPEK_clean_linker_0, # of connection points: 2
#     Edge 71, Type (0, 1), BuildingBlock: EZIPEK_clean_linker_0, # of connection points: 2
#     Edge 72, Type (0, 1), BuildingBlock: EZIPEK_clean_linker_0, # of connection points: 2
#     Edge 73, Type (0, 1), BuildingBlock: EZIPEK_clean_linker_0, # of connection points: 2
#     Edge 74, Type (0, 1), BuildingBlock: EZIPEK_clean_linker_0, # of connection points: 2
#     Edge 75, Type (0, 1), BuildingBlock: EZIPEK_clean_linker_0, # of connection points: 2
#     Edge 76, Type (0, 1), BuildingBlock: EZIPEK_clean_linker_0, # of connection points: 2
#     Edge 77, Type (0, 1), BuildingBlock: EZIPEK_clean_linker_0, # of connection points: 2
#     Edge 78, Type (0, 1), BuildingBlock: EZIPEK_clean_linker_0, # of connection points: 2
#     Edge 79, Type (0, 1), BuildingBlock: EZIPEK_clean_linker_0, # of connection points: 2
#     Edge 80, Type (0, 1), BuildingBlock: EZIPEK_clean_linker_0, # of connection points: 2
#     Edge 81, Type (0, 1), BuildingBlock: EZIPEK_clean_linker_0, # of connection points: 2
#     Edge 82, Type (0, 1), BuildingBlock: EZIPEK_clean_linker_0, # of connection points: 2
#     Edge 83, Type (0, 1), BuildingBlock: EZIPEK_clean_linker_0, # of connection points: 2
#     Edge 84, Type (0, 1), BuildingBlock: EZIPEK_clean_linker_0, # of connection points: 2
#     Edge 85, Type (0, 1), BuildingBlock: EZIPEK_clean_linker_0, # of connection points: 2
#     Edge 86, Type (0, 1), BuildingBlock: EZIPEK_clean_linker_0, # of connection points: 2
#     Edge 87, Type (0, 1), BuildingBlock: EZIPEK_clean_linker_0, # of connection points: 2
#     Edge 88, Type (0, 1), BuildingBlock: EZIPEK_clean_linker_0, # of connection points: 2
#     Edge 89, Type (0, 1), BuildingBlock: EZIPEK_clean_linker_0, # of connection points: 2
#     Edge 90, Type (0, 1), BuildingBlock: EZIPEK_clean_linker_0, # of connection points: 2
#     Edge 91, Type (0, 1), BuildingBlock: EZIPEK_clean_linker_0, # of connection points: 2
#     Edge 92, Type (0, 1), BuildingBlock: EZIPEK_clean_linker_0, # of connection points: 2
#     Edge 93, Type (0, 1), BuildingBlock: EZIPEK_clean_linker_0, # of connection points: 2
#     Edge 94, Type (0, 1), BuildingBlock: EZIPEK_clean_linker_0, # of connection points: 2
#     Edge 95, Type (0, 1), BuildingBlock: EZIPEK_clean_linker_0, # of connection points: 2
#     Edge 96, Type (0, 1), BuildingBlock: EZIPEK_clean_linker_0, # of connection points: 2
#     Edge 97, Type (0, 1), BuildingBlock: EZIPEK_clean_linker_0, # of connection points: 2
#     Edge 98, Type (0, 1), BuildingBlock: EZIPEK_clean_linker_0, # of connection points: 2
#     Edge 99, Type (0, 1), BuildingBlock: EZIPEK_clean_linker_0, # of connection points: 2
#     Edge 100, Type (0, 1), BuildingBlock: EZIPEK_clean_linker_0, # of connection points: 2
#     Edge 101, Type (0, 1), BuildingBlock: EZIPEK_clean_linker_0, # of connection points: 2
#     Edge 102, Type (0, 1), BuildingBlock: EZIPEK_clean_linker_0, # of connection points: 2
#     Edge 103, Type (0, 1), BuildingBlock: EZIPEK_clean_linker_0, # of connection points: 2
#     Edge 104, Type (0, 1), BuildingBlock: EZIPEK_clean_linker_0, # of connection points: 2
#     Edge 105, Type (0, 1), BuildingBlock: EZIPEK_clean_linker_0, # of connection points: 2
#     Edge 106, Type (0, 1), BuildingBlock: EZIPEK_clean_linker_0, # of connection points: 2
#     Edge 107, Type (0, 1), BuildingBlock: EZIPEK_clean_linker_0, # of connection points: 2
#     Edge 108, Type (0, 1), BuildingBlock: EZIPEK_clean_linker_0, # of connection points: 2
#     Edge 109, Type (0, 1), BuildingBlock: EZIPEK_clean_linker_0, # of connection points: 2
#     Edge 110, Type (0, 1), BuildingBlock: EZIPEK_clean_linker_0, # of connection points: 2
#     Edge 111, Type (0, 1), BuildingBlock: EZIPEK_clean_linker_0, # of connection points: 2
#     Edge 112, Type (0, 1), BuildingBlock: EZIPEK_clean_linker_0, # of connection points: 2
#     Edge 113, Type (0, 1), BuildingBlock: EZIPEK_clean_linker_0, # of connection points: 2
#     Edge 114, Type (0, 1), BuildingBlock: EZIPEK_clean_linker_0, # of connection points: 2
#     Edge 115, Type (0, 1), BuildingBlock: EZIPEK_clean_linker_0, # of connection points: 2
#     Edge 116, Type (0, 1), BuildingBlock: EZIPEK_clean_linker_0, # of connection points: 2
#     Edge 117, Type (0, 1), BuildingBlock: EZIPEK_clean_linker_0, # of connection points: 2
#     Edge 118, Type (0, 1), BuildingBlock: EZIPEK_clean_linker_0, # of connection points: 2
#     Edge 119, Type (0, 1), BuildingBlock: EZIPEK_clean_linker_0, # of connection points: 2
#     Edge 120, Type (0, 1), BuildingBlock: EZIPEK_clean_linker_0, # of connection points: 2
#     Edge 121, Type (0, 1), BuildingBlock: EZIPEK_clean_linker_0, # of connection points: 2
#     Edge 122, Type (0, 1), BuildingBlock: EZIPEK_clean_linker_0, # of connection points: 2
#     Edge 123, Type (0, 1), BuildingBlock: EZIPEK_clean_linker_0, # of connection points: 2
#     Edge 124, Type (0, 1), BuildingBlock: EZIPEK_clean_linker_0, # of connection points: 2
#     Edge 125, Type (0, 1), BuildingBlock: EZIPEK_clean_linker_0, # of connection points: 2
#     Edge 126, Type (0, 1), BuildingBlock: EZIPEK_clean_linker_0, # of connection points: 2
#     Edge 127, Type (0, 1), BuildingBlock: EZIPEK_clean_linker_0, # of connection points: 2
#     Edge 128, Type (0, 1), BuildingBlock: EZIPEK_clean_linker_0, # of connection points: 2
#     Edge 129, Type (0, 1), BuildingBlock: EZIPEK_clean_linker_0, # of connection points: 2
#     Edge 130, Type (0, 1), BuildingBlock: EZIPEK_clean_linker_0, # of connection points: 2
#     Edge 131, Type (0, 1), BuildingBlock: EZIPEK_clean_linker_0, # of connection points: 2
#     Edge 132, Type (0, 1), BuildingBlock: EZIPEK_clean_linker_0, # of connection points: 2
#     Edge 133, Type (0, 1), BuildingBlock: EZIPEK_clean_linker_0, # of connection points: 2
#     Edge 134, Type (0, 1), BuildingBlock: EZIPEK_clean_linker_0, # of connection points: 2
#     Edge 135, Type (0, 1), BuildingBlock: EZIPEK_clean_linker_0, # of connection points: 2
# Relax obj value: 0.133
# Max RMSD: 0.235
# Mean RMSD: 0.153
data_MOF--net-gar--node1-NAHDIM_clean_sbu_0--node2-CUKXOW_clean_sbu_0--edge1-EZIPEK_clean_linker_0
_symmetry_space_group_name_H-M    P1
_symmetry_Int_Tables_number       1
_symmetry_cell_setting            triclinic
loop_
_symmetry_equiv_pos_as_xyz
'x, y, z'
_cell_length_a     41.965376
_cell_length_b     39.684798
_cell_length_c     38.849835
_cell_angle_alpha  94.142787
_cell_angle_beta   95.551626
_cell_angle_gamma 99.499174
loop_
_atom_site_label
_atom_site_type_symbol
_atom_site_fract_x
_atom_site_fract_y
_atom_site_fract_z
_atom_type_partial_charge
C0 C 0.0775 0.24119 0.38739 0.0
O1 O 0.08328 0.22227 0.4129 0.0
O2 O 0.0198 0.21837 0.4501 0.0
Zn3 Zn 0.02496 0.26081 0.42501 0.0
O4 O 0.03816 0.30298 0.45849 0.0
C5 C 0.95697 0.2673 0.41277 0.0
O6 O 0.95576 0.26371 0.44596 0.0
O7 O 0.05505 0.25897 0.38828 0.0
C8 C 0.03284 0.33045 0.446 0.0
O9 O 0.02336 0.32988 0.41271 0.0
C10 C 0.01034 0.21928 0.48015 0.0
O11 O 0.00481 0.24813 0.49513 0.0
O12 O 0.98297 0.26545 0.39923 0.0
C13 C 0.95046 0.7827 0.65999 0.0
O14 O 0.97371 0.76695 0.67227 0.0
O15 O 0.98292 0.74198 0.57588 0.0
Zn16 Zn 0.98743 0.78822 0.60198 0.0
O17 O 0.99162 0.8272 0.57197 0.0
C18 C 0.0556 0.79584 0.62972 0.0
O19 O 0.06181 0.79814 0.59748 0.0
O20 O 0.95022 0.79234 0.62949 0.0
C21 C 0.00919 0.83409 0.54767 0.0
O22 O 0.02783 0.81272 0.53732 0.0
C23 C 0.97789 0.73353 0.54339 0.0
O24 O 0.97248 0.75643 0.52178 0.0
O25 O 0.02658 0.79271 0.63715 0.0
C26 C 0.56434 0.76901 0.87773 0.0
O27 O 0.5525 0.79747 0.87506 0.0
O28 O 0.51677 0.71928 0.96097 0.0
Zn29 Zn 0.52565 0.76089 0.93478 0.0
O30 O 0.54337 0.80496 0.96492 0.0
C31 C 0.45793 0.76078 0.91527 0.0
O32 O 0.45403 0.74727 0.94473 0.0
O33 O 0.55659 0.75009 0.90161 0.0
C34 C 0.52354 0.82019 0.98018 0.0
O35 O 0.49328 0.80501 0.97972 0.0
C36 C 0.50672 0.71675 0.99057 0.0
O37 O 0.50107 0.74385 0.0088 0.0
O38 O 0.48604 0.76799 0.90566 0.0
C39 C 0.43324 0.297 0.14783 0.0
O40 O 0.41444 0.28413 0.11933 0.0
O41 O 0.46911 0.23876 0.087 0.0
Zn42 Zn 0.48879 0.28489 0.11066 0.0
O43 O 0.49393 0.32172 0.07832 0.0
C44 C 0.5515 0.26266 0.12683 0.0
O45 O 0.54571 0.24459 0.09654 0.0
O46 O 0.4638 0.29955 0.14878 0.0
C47 C 0.51951 0.33096 0.06395 0.0
O48 O 0.54346 0.3135 0.06703 0.0
C49 C 0.47645 0.22823 0.0577 0.0
O50 O 0.49425 0.25009 0.04046 0.0
O51 O 0.53156 0.2813 0.13634 0.0
C52 C 0.93986 0.74212 0.20817 0.0
O53 O 0.94418 0.71193 0.19519 0.0
O54 O 0.9995 0.72404 0.14989 0.0
Zn55 Zn 1.00008 0.77003 0.17713 0.0
O56 O 0.99497 0.80738 0.1446 0.0
C57 C 0.06927 0.77376 0.19732 0.0
O58 O 0.06738 0.75925 0.16556 0.0
O59 O 0.96079 0.76857 0.20495 0.0
C60 C 0.01498 0.82134 0.12506 0.0
O61 O 0.04306 0.81111 0.12356 0.0
C62 C 0.99416 0.71846 0.117 0.0
O63 O 0.98632 0.74275 0.09833 0.0
O64 O 0.0437 0.78175 0.20868 0.0
C65 C 0.60334 0.79639 0.35485 0.0
O66 O 0.61052 0.80444 0.38841 0.0
O67 O 0.53426 0.75412 0.40372 0.0
Zn68 Zn 0.53528 0.79275 0.37135 0.0
O69 O 0.53996 0.83928 0.39959 0.0
C70 C 0.46465 0.7739 0.34982 0.0
O71 O 0.46484 0.76138 0.38018 0.0
O72 O 0.5736 0.79111 0.34188 0.0
C73 C 0.52263 0.84262 0.4244 0.0
O74 O 0.50392 0.8155 0.4333 0.0
C75 C 0.55062 0.75719 0.43355 0.0
O76 O 0.56885 0.78675 0.44512 0.0
O77 O 0.49155 0.78746 0.33983 0.0
C78 C 0.43055 0.2561 0.68493 0.0
O79 O 0.42538 0.24381 0.65219 0.0
O80 O 0.49797 0.21253 0.65003 0.0
Zn81 Zn 0.49926 0.26122 0.67227 0.0
O82 O 0.49794 0.2939 0.63433 0.0
C83 C 0.56941 0.27555 0.69051 0.0
O84 O 0.56845 0.26976 0.65667 0.0
O85 O 0.45973 0.26443 0.69941 0.0
C86 C 0.4965 0.32527 0.6418 0.0
O87 O 0.49675 0.33683 0.67435 0.0
C88 C 0.50201 0.2072 0.61812 0.0
O89 O 0.50454 0.23298 0.59863 0.0
O90 O 0.5427 0.27452 0.70392 0.0
C91 C 0.08514 0.29104 0.81899 0.0
O92 O 0.06725 0.26045 0.81195 0.0
O93 O 0.03794 0.25692 0.88748 0.0
Zn94 Zn 0.03441 0.30029 0.86339 0.0
O95 O 0.03043 0.33778 0.90052 0.0
C96 C 0.96541 0.28541 0.84137 0.0
O97 O 0.96509 0.28028 0.87433 0.0
O98 O 0.07573 0.31309 0.83941 0.0
C99 C 0.02899 0.36829 0.89353 0.0
O100 O 0.03209 0.37677 0.86183 0.0
C101 C 0.04402 0.2578 0.92036 0.0
O102 O 0.04849 0.28731 0.93928 0.0
O103 O 0.99263 0.29364 0.82946 0.0
C104 C 0.3667 0.1322 0.26951 0.0
O105 O 0.37157 0.12263 0.301 0.0
O106 O 0.43212 0.0691 0.21359 0.0
Zn107 Zn 0.40887 0.08256 0.25584 0.0
O108 O 0.43773 0.09355 0.30248 0.0
C109 C 0.36719 0.01463 0.24282 0.0
O110 O 0.37725 0.01405 0.21184 0.0
O111 O 0.38129 0.11982 0.24555 0.0
C112 C 0.45362 0.07098 0.31342 0.0
O113 O 0.45472 0.04381 0.29251 0.0
C114 C 0.46235 0.07243 0.20992 0.0
O115 O 0.48392 0.0873 0.23558 0.0
O116 O 0.3768 0.04081 0.26439 0.0
C117 C 0.32154 0.09214 0.49918 0.0
O118 O 0.33327 0.12146 0.48767 0.0
O119 O 0.26041 0.14422 0.52398 0.0
Zn120 Zn 0.26133 0.11379 0.48154 0.0
O121 O 0.27786 0.14433 0.44575 0.0
C122 C 0.19336 0.10265 0.47959 0.0
O123 O 0.2004 0.13471 0.49286 0.0
O124 O 0.29105 0.08226 0.49682 0.0
C125 C 0.25758 0.15625 0.42578 0.0
O126 O 0.22636 0.14567 0.42641 0.0
C127 C 0.28108 0.1711 0.53353 0.0
O128 O 0.30528 0.18022 0.51522 0.0
O129 O 0.21577 0.0878 0.46924 0.0
C130 C 0.18591 0.94222 0.78475 0.0
O131 O 0.1553 0.93206 0.77252 0.0
O132 O 0.13585 0.00338 0.75999 0.0
Zn133 Zn 0.16359 0.00542 0.80533 0.0
O134 O 0.1346 0.99556 0.84387 0.0
C135 C 0.17955 0.07786 0.79861 0.0
O136 O 0.15126 0.07154 0.77959 0.0
O137 O 0.19491 0.97209 0.80032 0.0
C138 C 0.11046 0.0111 0.84536 0.0
O139 O 0.10566 0.03333 0.82285 0.0
C140 C 0.10865 0.98415 0.75081 0.0
O141 O 0.09645 0.96142 0.77105 0.0
O142 O 0.18982 0.0538 0.81395 0.0
C143 C 0.15456 0.92844 0.03679 0.0
O144 O 0.13805 0.89812 0.02484 0.0
O145 O 0.22394 0.8737 0.08146 0.0
Zn146 Zn 0.21691 0.89735 0.03582 0.0
O147 O 0.20299 0.86347 0.99123 0.0
C148 C 0.28755 0.91741 0.03675 0.0
O149 O 0.28852 0.88967 0.05292 0.0
O150 O 0.18554 0.93253 0.04241 0.0
C151 C 0.22443 0.85026 0.97619 0.0
O152 O 0.25429 0.85513 0.99139 0.0
C153 C 0.23474 0.84562 0.08396 0.0
O154 O 0.24001 0.82815 0.05572 0.0
O155 O 0.26029 0.92614 0.02783 0.0
C156 C 0.2116 0.474 0.02011 0.0
O157 O 0.20078 0.44427 0.00219 0.0
O158 O 0.2434 0.40856 0.08204 0.0
Zn159 Zn 0.26183 0.43916 0.04706 0.0
O160 O 0.26036 0.41025 0.00235 0.0
C161 C 0.32596 0.459 0.08928 0.0
O162 O 0.31412 0.44282 0.11476 0.0
O163 O 0.23764 0.47785 0.04048 0.0
C164 C 0.28589 0.39916 0.99521 0.0
O165 O 0.31281 0.40732 0.0164 0.0
C166 C 0.25544 0.38174 0.08704 0.0
O167 O 0.27879 0.37471 0.06908 0.0
O168 O 0.30818 0.46042 0.06132 0.0
C169 C 0.85656 0.12407 0.98507 0.0
O170 O 0.84836 0.13255 0.95378 0.0
O171 O 0.81234 0.19315 0.05832 0.0
Zn172 Zn 0.80743 0.16651 0.00947 0.0
O173 O 0.80908 0.19696 0.96762 0.0
C174 C 0.73853 0.14612 0.01609 0.0
O175 O 0.74144 0.17801 0.02914 0.0
O176 O 0.84256 0.13495 0.01039 0.0
C177 C 0.78593 0.21244 0.95734 0.0
O178 O 0.76051 0.21083 0.97464 0.0
C179 C 0.8023 0.22079 0.06743 0.0
O180 O 0.79074 0.23858 0.04343 0.0
O181 O 0.76296 0.13531 0.00502 0.0
C182 C 0.15581 0.42477 0.31188 0.0
O183 O 0.14182 0.42925 0.34028 0.0
O184 O 0.09645 0.47625 0.23348 0.0
Zn185 Zn 0.1219 0.47983 0.28224 0.0
O186 O 0.09373 0.48309 0.32269 0.0
C187 C 0.15729 0.54237 0.25957 0.0
O188 O 0.13882 0.53235 0.23021 0.0
O189 O 0.14956 0.4418 0.28613 0.0
C190 C 0.07913 0.50852 0.32771 0.0
O191 O 0.08068 0.53199 0.30547 0.0
C192 C 0.06616 0.47105 0.22322 0.0
O193 O 0.045 0.46394 0.24558 0.0
O194 O 0.15444 0.52429 0.28528 0.0
C195 C 0.71668 0.97234 0.50187 0.0
O196 O 0.74514 0.97741 0.49001 0.0
O197 O 0.73504 0.90193 0.58258 0.0
Zn198 Zn 0.74816 0.93084 0.54427 0.0
O199 O 0.75808 0.90106 0.50401 0.0
C200 C 0.81315 0.9636 0.57426 0.0
O201 O 0.8134 0.93556 0.5902 0.0
O202 O 0.71167 0.95284 0.52602 0.0
C203 C 0.78569 0.89276 0.50076 0.0
O204 O 0.80996 0.90267 0.52514 0.0
C205 C 0.74094 0.87154 0.58318 0.0
O206 O 0.7552 0.85856 0.55806 0.0
O207 O 0.78685 0.9685 0.55806 0.0
C208 C 0.81104 0.08915 0.25333 0.0
O209 O 0.80955 0.06563 0.27547 0.0
O210 O 0.88468 0.05018 0.18667 0.0
Zn211 Zn 0.85554 0.04884 0.22599 0.0
O212 O 0.88677 0.0575 0.26963 0.0
C213 C 0.84178 0.97519 0.22095 0.0
O214 O 0.87126 0.97954 0.21139 0.0
O215 O 0.82783 0.0865 0.22788 0.0
C216 C 0.88029 0.04277 0.29664 0.0
O217 O 0.85258 0.02191 0.29675 0.0
C218 C 0.91024 0.07301 0.18947 0.0
O219 O 0.91532 0.09696 0.2155 0.0
O220 O 0.82854 0.00134 0.22689 0.0
C221 C 0.37245 0.63691 0.50113 0.0
O222 O 0.38488 0.66758 0.49315 0.0
O223 O 0.31578 0.6895 0.56253 0.0
Zn224 Zn 0.30988 0.66442 0.51276 0.0
O225 O 0.31008 0.69676 0.47308 0.0
C226 C 0.24123 0.63972 0.52098 0.0
O227 O 0.24369 0.66907 0.53967 0.0
O228 O 0.34335 0.63137 0.50914 0.0
C229 C 0.2851 0.70971 0.4633 0.0
O230 O 0.2593 0.70398 0.47999 0.0
C231 C 0.30452 0.71634 0.57187 0.0
O232 O 0.29169 0.73336 0.54796 0.0
O233 O 0.26563 0.63243 0.50679 0.0
C234 C 0.30413 0.59068 0.73972 0.0
O235 O 0.28642 0.56317 0.72241 0.0
O236 O 0.38813 0.55421 0.70391 0.0
Zn237 Zn 0.35879 0.55151 0.74293 0.0
O238 O 0.38708 0.55231 0.78756 0.0
C239 C 0.32249 0.48452 0.71267 0.0
O240 O 0.33182 0.49393 0.68296 0.0
O241 O 0.33418 0.59111 0.7488 0.0
C242 C 0.39724 0.52501 0.79493 0.0
O243 O 0.3906 0.49767 0.77261 0.0
C244 C 0.41663 0.57204 0.7085 0.0
O245 O 0.4266 0.59082 0.73796 0.0
O246 O 0.32918 0.50552 0.73964 0.0
C247 C 0.67194 0.93867 0.81745 0.0
O248 O 0.67246 0.95739 0.84687 0.0
O249 O 0.60456 0.98253 0.73882 0.0
Zn250 Zn 0.62867 0.98443 0.78817 0.0
O251 O 0.59986 0.98637 0.82855 0.0
C252 C 0.65562 0.05324 0.77686 0.0
O253 O 0.6265 0.05163 0.76043 0.0
O254 O 0.65439 0.94475 0.79065 0.0
C255 C 0.58518 0.01136 0.83556 0.0
O256 O 0.58697 0.03668 0.81548 0.0
C257 C 0.57465 0.983 0.72966 0.0
O258 O 0.55422 0.98201 0.75328 0.0
O259 O 0.66239 0.02766 0.79221 0.0
C260 C 0.79452 0.56688 0.00611 0.0
O261 O 0.76923 0.56163 0.02363 0.0
O262 O 0.76337 0.64329 0.02819 0.0
Zn263 Zn 0.76409 0.62038 0.98074 0.0
O264 O 0.77814 0.65744 0.95053 0.0
C265 C 0.69573 0.60758 0.97158 0.0
O266 O 0.7008 0.64076 0.98016 0.0
O267 O 0.79691 0.59006 0.98518 0.0
C268 C 0.76119 0.66311 0.9235 0.0
O269 O 0.73356 0.6427 0.91268 0.0
C270 C 0.75904 0.67419 0.0321 0.0
O271 O 0.75573 0.69174 0.00501 0.0
O272 O 0.71968 0.59285 0.96626 0.0
C273 C 0.87267 0.64296 0.77341 0.0
O274 O 0.88657 0.6425 0.8051 0.0
O275 O 0.93486 0.58292 0.71106 0.0
Zn276 Zn 0.91138 0.58883 0.75516 0.0
O277 O 0.94404 0.59835 0.79976 0.0
C278 C 0.86369 0.52382 0.73894 0.0
O279 O 0.86149 0.53105 0.70643 0.0
O280 O 0.8805 0.62398 0.74884 0.0
C281 C 0.93496 0.58721 0.82795 0.0
O282 O 0.90441 0.57339 0.82872 0.0
C283 C 0.94934 0.55767 0.70452 0.0
O284 O 0.95023 0.53456 0.72698 0.0
O285 O 0.88253 0.54415 0.76177 0.0
C286 C 0.65457 0.42817 0.54394 0.0
O287 O 0.63859 0.39654 0.54129 0.0
O288 O 0.72272 0.37372 0.58 0.0
Zn289 Zn 0.71615 0.39745 0.53429 0.0
O290 O 0.70203 0.36231 0.49051 0.0
C291 C 0.78687 0.42669 0.54164 0.0
O292 O 0.78854 0.41232 0.57091 0.0
O293 O 0.68512 0.43325 0.54126 0.0
C294 C 0.72439 0.35206 0.47433 0.0
O295 O 0.75478 0.36173 0.48752 0.0
C296 C 0.73926 0.34972 0.58384 0.0
O297 O 0.75233 0.33764 0.55726 0.0
O298 O 0.75952 0.42456 0.52361 0.0
C299 C 0.68345 0.44177 0.2968 0.0
O300 O 0.65224 0.43345 0.28642 0.0
O301 O 0.64254 0.50979 0.27174 0.0
Zn302 Zn 0.66472 0.5056 0.31849 0.0
O303 O 0.63223 0.49471 0.3533 0.0
C304 C 0.70577 0.56531 0.30682 0.0
O305 O 0.70679 0.5457 0.27837 0.0
O306 O 0.69454 0.47113 0.31266 0.0
C307 C 0.60767 0.50979 0.35222 0.0
O308 O 0.60401 0.53124 0.32863 0.0
C309 C 0.61529 0.4942 0.25723 0.0
O310 O 0.59746 0.47102 0.273 0.0
O311 O 0.69077 0.55276 0.33115 0.0
Tb312 Tb 0.03377 0.07484 0.02264 0.0
C313 C 0.03245 0.02002 0.95989 0.0
Tb314 Tb 1.00162 0.00136 0.02779 0.0
O315 O 0.08029 0.06825 0.05155 0.0
O316 O 0.0497 0.02707 0.0253 0.0
O317 O 0.0275 0.05131 0.96892 0.0
C318 C 0.9954 0.9401 0.05316 0.0
O319 O 0.02734 0.99564 0.98146 0.0
C320 C 0.96154 0.04244 0.00318 0.0
C321 C 1.00264 0.05747 0.09196 0.0
O322 O 0.98181 0.94581 0.02298 0.0
O323 O 0.01125 0.96869 0.06869 0.0
O324 O 0.95656 0.00906 0.99676 0.0
O325 O 0.98584 0.0494 0.02575 0.0
O326 O 0.99891 0.02449 0.0804 0.0
O327 O 0.0129 0.08184 0.07185 0.0
C328 C 0.04195 0.13383 0.99198 0.0
O329 O 0.05121 0.13089 0.02452 0.0
O330 O 0.02898 0.10384 0.97734 0.0
C331 C 0.07475 0.03488 0.0467 0.0
Tb332 Tb 0.27489 0.82193 0.28442 0.0
C333 C 0.33369 0.7806 0.28789 0.0
Tb334 Tb 0.26124 0.74308 0.26092 0.0
O335 O 0.27626 0.81722 0.34134 0.0
O336 O 0.26985 0.77533 0.30678 0.0
O337 O 0.32437 0.81075 0.28484 0.0
C338 C 0.23519 0.67686 0.26156 0.0
O339 O 0.31296 0.75101 0.28226 0.0
C340 C 0.27132 0.78379 0.21019 0.0
C341 C 0.20183 0.78608 0.26066 0.0
O342 O 0.26177 0.68818 0.24824 0.0
O343 O 0.22377 0.70278 0.2745 0.0
O344 O 0.27555 0.75191 0.20885 0.0
O345 O 0.2589 0.78918 0.23787 0.0
O346 O 0.21166 0.75577 0.25694 0.0
O347 O 0.22221 0.81545 0.27056 0.0
C348 C 0.29501 0.88723 0.27536 0.0
O349 O 0.275 0.87674 0.29758 0.0
O350 O 0.30352 0.86124 0.25878 0.0
C351 C 0.2719 0.78371 0.33888 0.0
Tb352 Tb 0.54839 0.03166 0.51264 0.0
C353 C 0.53314 0.00871 0.58688 0.0
Tb354 Tb 0.47856 0.02009 0.52771 0.0
O355 O 0.56161 0.07848 0.54761 0.0
O356 O 0.5142 0.06333 0.52365 0.0
O357 O 0.55553 0.01425 0.56483 0.0
C358 C 0.422 0.02812 0.55066 0.0
O359 O 0.50189 0.00956 0.57781 0.0
C360 C 0.49644 0.96839 0.49301 0.0
C361 C 0.49337 0.04677 0.45578 0.0
O362 O 0.42698 0.0023 0.53063 0.0
O363 O 0.4495 0.0489 0.55815 0.0
O364 O 0.46704 0.97487 0.48991 0.0
O365 O 0.51311 0.98836 0.51736 0.0
O366 O 0.47297 0.0453 0.47988 0.0
O367 O 0.52326 0.03992 0.4622 0.0
C368 C 0.60122 0.02095 0.48339 0.0
O369 O 0.576 0.99802 0.48615 0.0
O370 O 0.59713 0.04985 0.49873 0.0
C371 C 0.53187 0.08412 0.54683 0.0
Tb372 Tb 0.27654 0.29294 0.80092 0.0
C373 C 0.2781 0.34442 0.74115 0.0
Tb374 Tb 0.25066 0.26553 0.72359 0.0
O375 O 0.32763 0.29797 0.79118 0.0
O376 O 0.29201 0.26493 0.75941 0.0
O377 O 0.28092 0.34044 0.77496 0.0
C378 C 0.25767 0.24159 0.66026 0.0
O379 O 0.26769 0.31894 0.71667 0.0
C380 C 0.20433 0.28789 0.75704 0.0
C381 C 0.24268 0.21476 0.78225 0.0
O382 O 0.27917 0.26369 0.67999 0.0
O383 O 0.23182 0.23316 0.67589 0.0
O384 O 0.20014 0.27505 0.72465 0.0
O385 O 0.23373 0.2875 0.76718 0.0
O386 O 0.24384 0.21791 0.74857 0.0
O387 O 0.25173 0.24068 0.80686 0.0
C388 C 0.28126 0.31998 0.86561 0.0
O389 O 0.29067 0.29137 0.85638 0.0
O390 O 0.26937 0.33317 0.83875 0.0
C391 C 0.32157 0.27891 0.76187 0.0
Tb392 Tb 0.98699 0.02903 0.48632 0.0
C393 C 0.94267 0.0184 0.54565 0.0
Tb394 Tb 0.01806 0.03605 0.56413 0.0
O395 O 0.98473 0.97269 0.47668 0.0
O396 O 1.0017 0.99789 0.52351 0.0
O397 O 0.94608 0.03188 0.51578 0.0
C398 C 0.04888 0.02348 0.62399 0.0
O399 O 0.96762 0.01207 0.56616 0.0
C400 C 0.99973 0.09183 0.54213 0.0
C401 C 0.06304 0.04863 0.50295 0.0
O402 O 0.01906 0.02846 0.61943 0.0
O403 O 0.0616 0.02657 0.59506 0.0
O404 O 0.00478 0.08669 0.57474 0.0
O405 O 0.00992 0.06865 0.52494 0.0
O406 O 0.06114 0.04245 0.53603 0.0
O407 O 0.03735 0.04764 0.47988 0.0
C408 C 0.95902 0.0411 0.42515 0.0
O409 O 0.98821 0.03445 0.43092 0.0
O410 O 0.9458 0.04161 0.45399 0.0
C411 C 0.99792 0.96877 0.50749 0.0
Tb412 Tb 0.29075 0.78658 0.78933 0.0
C413 C 0.23333 0.78986 0.83898 0.0
Tb414 Tb 0.21783 0.76487 0.75844 0.0
O415 O 0.29411 0.83742 0.76975 0.0
O416 O 0.25016 0.81014 0.77946 0.0
O417 O 0.26513 0.7939 0.83572 0.0
C418 C 0.16288 0.77424 0.72412 0.0
O419 O 0.21044 0.77885 0.81246 0.0
C420 C 0.24558 0.71027 0.771 0.0
C421 C 0.27375 0.76157 0.70901 0.0
O422 O 0.16479 0.75313 0.74813 0.0
O423 O 0.19166 0.78992 0.71976 0.0
O424 O 0.21529 0.70851 0.75842 0.0
O425 O 0.25691 0.74183 0.77554 0.0
O426 O 0.24277 0.76394 0.71129 0.0
O427 O 0.29603 0.76622 0.73644 0.0
C428 C 0.34458 0.78313 0.83018 0.0
O429 O 0.3439 0.79537 0.80001 0.0
O430 O 0.31519 0.77354 0.83735 0.0
C431 C 0.26274 0.83649 0.76639 0.0
Tb432 Tb 0.47748 0.01302 0.00752 0.0
C433 C 0.52848 0.96204 0.02015 0.0
Tb434 Tb 0.5489 0.04186 0.02987 0.0
O435 O 0.48106 0.02181 0.95268 0.0
O436 O 0.52127 0.01488 0.98463 0.0
O437 O 0.49755 0.96611 0.01569 0.0
C438 C 0.61006 0.07125 0.02521 0.0
O439 O 0.55315 0.98806 0.02462 0.0
C440 C 0.51245 0.02962 0.08187 0.0
C441 C 0.49979 0.09354 0.01882 0.0
O442 O 0.58778 0.06146 0.99939 0.0
O443 O 0.598 0.06456 0.05404 0.0
O444 O 0.54366 0.02966 0.08355 0.0
O445 O 0.50464 0.03999 0.05279 0.0
O446 O 0.53061 0.08941 0.02068 0.0
O447 O 0.47538 0.06743 0.01729 0.0
C448 C 0.41651 0.98191 0.01254 0.0
O449 O 0.42469 0.00703 0.9937 0.0
O450 O 0.44277 0.97381 0.02764 0.0
C451 C 0.51251 0.02404 0.95532 0.0
Tb452 Tb 0.22405 0.25808 0.26135 0.0
C453 C 0.27432 0.2557 0.32944 0.0
Tb454 Tb 0.29629 0.29989 0.27023 0.0
O455 O 0.23575 0.20713 0.24542 0.0
O456 O 0.27091 0.25008 0.25627 0.0
O457 O 0.24403 0.25017 0.31382 0.0
C458 C 0.35742 0.32034 0.25609 0.0
O459 O 0.2993 0.27412 0.3172 0.0
C460 C 0.25024 0.33317 0.29127 0.0
C461 C 0.25134 0.29468 0.19876 0.0
O462 O 0.34662 0.29223 0.26961 0.0
O463 O 0.3336 0.33727 0.25186 0.0
O464 O 0.28107 0.34143 0.30278 0.0
O465 O 0.24814 0.30958 0.26728 0.0
O466 O 0.28106 0.2952 0.21432 0.0
O467 O 0.22436 0.28228 0.2126 0.0
C468 C 0.16655 0.25095 0.28496 0.0
O469 O 0.17224 0.23493 0.25613 0.0
O470 O 0.19256 0.2715 0.29892 0.0
C471 C 0.26715 0.21812 0.2491 0.0
Tb472 Tb 0.49508 0.51654 0.99262 0.0
C473 C 0.4534 0.50717 0.05592 0.0
Tb474 Tb 0.52897 0.53229 0.06579 0.0
O475 O 0.51582 0.46949 0.98655 0.0
O476 O 0.50636 0.48772 0.03464 0.0
O477 O 0.45305 0.51099 0.02225 0.0
C478 C 0.56784 0.52606 0.12246 0.0
O479 O 0.48052 0.51009 0.07714 0.0
C480 C 0.5063 0.58412 0.04096 0.0
C481 C 0.56985 0.54356 1.001 0.0
O482 O 0.5422 0.54046 0.12186 0.0
O483 O 0.57226 0.51637 0.09102 0.0
O484 O 0.51206 0.5809 0.07391 0.0
O485 O 0.5179 0.56139 0.02446 0.0
O486 O 0.57007 0.54097 0.03493 0.0
O487 O 0.54282 0.53772 0.9793 0.0
C488 C 0.4608 0.51873 0.93194 0.0
O489 O 0.47326 0.49265 0.94151 0.0
O490 O 0.46703 0.54338 0.95667 0.0
C491 C 0.51983 0.46573 0.01956 0.0
Tb492 Tb 0.7906 0.28859 0.28739 0.0
C493 C 0.73436 0.287 0.33906 0.0
Tb494 Tb 0.72189 0.26033 0.25946 0.0
O495 O 0.78899 0.33809 0.26664 0.0
O496 O 0.74754 0.30895 0.28068 0.0
O497 O 0.76602 0.29136 0.33535 0.0
C498 C 0.66581 0.25831 0.22062 0.0
O499 O 0.712 0.27624 0.31215 0.0
C500 C 0.756 0.21288 0.28 0.0
C501 C 0.77667 0.26455 0.20709 0.0
O502 O 0.67079 0.23734 0.24402 0.0
O503 O 0.69215 0.28016 0.21948 0.0
O504 O 0.72451 0.2101 0.27873 0.0
O505 O 0.76537 0.23991 0.26603 0.0
O506 O 0.74516 0.26005 0.21097 0.0
O507 O 0.79938 0.27321 0.234 0.0
C508 C 0.8463 0.29266 0.32708 0.0
O509 O 0.84196 0.31105 0.30124 0.0
O510 O 0.81973 0.27193 0.33022 0.0
C511 C 0.75769 0.33563 0.2666 0.0
Tb512 Tb 0.97368 0.51596 0.49993 0.0
C513 C 0.02405 0.46355 0.50619 0.0
Tb514 Tb 0.04763 0.54396 0.52282 0.0
O515 O 0.978 0.52762 0.44596 0.0
O516 O 0.01797 0.51943 0.47734 0.0
O517 O 0.99316 0.46785 0.50057 0.0
C518 C 0.11055 0.56769 0.52016 0.0
O519 O 0.04878 0.48926 0.51497 0.0
C520 C 0.01285 0.5425 0.57766 0.0
C521 C 0.99978 0.59565 0.51129 0.0
O522 O 0.09902 0.54358 0.53881 0.0
O523 O 0.08658 0.5783 0.5029 0.0
O524 O 0.04406 0.55309 0.57935 0.0
O525 O 0.00406 0.53423 0.54581 0.0
O526 O 0.02964 0.58984 0.50855 0.0
O527 O 0.97476 0.57075 0.51268 0.0
C528 C 0.91234 0.48626 0.50397 0.0
O529 O 0.92137 0.50893 0.48275 0.0
O530 O 0.93781 0.47979 0.52224 0.0
C531 C 0.00944 0.52943 0.44833 0.0
Tb532 Tb 0.78214 0.78373 0.31001 0.0
C533 C 0.78735 0.83887 0.25437 0.0
Tb534 Tb 0.75497 0.76175 0.23375 0.0
O535 O 0.82057 0.75319 0.30592 0.0
O536 O 0.8023 0.77444 0.2624 0.0
O537 O 0.78809 0.83316 0.28769 0.0
C538 C 0.75072 0.73581 0.16848 0.0
O539 O 0.77829 0.81419 0.22871 0.0
C540 C 0.70811 0.77768 0.27008 0.0
C541 C 0.75056 0.70772 0.29085 0.0
O542 O 0.75004 0.76765 0.17807 0.0
O543 O 0.75334 0.71862 0.19534 0.0
O544 O 0.70365 0.76811 0.23701 0.0
O545 O 0.73779 0.77848 0.27912 0.0
O546 O 0.75201 0.71296 0.25759 0.0
O547 O 0.75795 0.73256 0.31631 0.0
C548 C 0.79149 0.81293 0.37406 0.0
O549 O 0.76367 0.7977 0.35836 0.0
O550 O 0.81419 0.81208 0.35378 0.0
C551 C 0.82184 0.75518 0.27278 0.0
Tb552 Tb 0.77492 0.32814 0.78153 0.0
C553 C 0.83279 0.28634 0.78328 0.0
Tb554 Tb 0.76128 0.24815 0.76297 0.0
O555 O 0.7814 0.32682 0.83941 0.0
O556 O 0.77031 0.28346 0.80648 0.0
O557 O 0.8222 0.31404 0.77286 0.0
C558 C 0.73797 0.1822 0.76726 0.0
O559 O 0.81215 0.25754 0.78588 0.0
C560 C 0.77162 0.28628 0.71013 0.0
C561 C 0.70154 0.29021 0.75811 0.0
O562 O 0.75781 0.1937 0.74537 0.0
O563 O 0.73194 0.20766 0.78687 0.0
O564 O 0.77684 0.25481 0.71086 0.0
O565 O 0.7586 0.29293 0.73707 0.0
O566 O 0.71151 0.25988 0.75684 0.0
O567 O 0.72194 0.32004 0.76635 0.0
C568 C 0.7963 0.39344 0.77216 0.0
O569 O 0.7705 0.38283 0.78724 0.0
O570 O 0.80975 0.36761 0.76306 0.0
C571 C 0.77634 0.29343 0.8381 0.0
Tb572 Tb 0.71991 0.75691 0.7673 0.0
C573 C 0.77353 0.76387 0.83314 0.0
Tb574 Tb 0.79116 0.79606 0.76605 0.0
O575 O 0.73379 0.70563 0.76511 0.0
O576 O 0.76359 0.74726 0.75022 0.0
O577 O 0.74251 0.76076 0.82073 0.0
C578 C 0.85034 0.80633 0.74533 0.0
O579 O 0.79748 0.77333 0.81439 0.0
C580 C 0.75031 0.83155 0.79512 0.0
C581 C 0.73754 0.79341 0.70062 0.0
O582 O 0.83076 0.82858 0.74488 0.0
O583 O 0.8369 0.77919 0.75848 0.0
O584 O 0.78205 0.83872 0.80152 0.0
O585 O 0.7446 0.80802 0.77067 0.0
O586 O 0.7685 0.80065 0.71412 0.0
O587 O 0.71367 0.77666 0.71631 0.0
C588 C 0.66276 0.74903 0.79153 0.0
O589 O 0.66761 0.73537 0.7612 0.0
O590 O 0.68955 0.76676 0.80717 0.0
C591 C 0.76307 0.71679 0.7577 0.0
Tb592 Tb 0.5334 0.57371 0.53349 0.0
C593 C 0.53139 0.52185 0.46765 0.0
Tb594 Tb 0.50072 0.49898 0.53366 0.0
O595 O 0.57698 0.5652 0.56648 0.0
O596 O 0.54902 0.52554 0.53443 0.0
O597 O 0.52693 0.55304 0.47861 0.0
C598 C 0.49376 0.43702 0.55713 0.0
O599 O 0.52595 0.49589 0.48724 0.0
C600 C 0.46239 0.53958 0.50724 0.0
C601 C 0.49866 0.55359 0.59915 0.0
O602 O 0.47713 0.44463 0.52952 0.0
O603 O 0.51386 0.46394 0.57082 0.0
O604 O 0.45783 0.50644 0.49934 0.0
O605 O 0.48522 0.54667 0.53158 0.0
O606 O 0.49151 0.52139 0.58459 0.0
O607 O 0.51622 0.57858 0.5846 0.0
C608 C 0.54315 0.63779 0.51327 0.0
O609 O 0.51965 0.62459 0.53014 0.0
O610 O 0.56226 0.61551 0.50972 0.0
C611 C 0.57245 0.53215 0.55814 0.0
Tb612 Tb 0.04907 0.54655 0.01916 0.0
C613 C 0.02848 0.51011 0.08491 0.0
Tb614 Tb 0.97936 0.52317 0.02441 0.0
O615 O 0.0537 0.58632 0.0624 0.0
O616 O 0.01011 0.57164 0.03229 0.0
O617 O 0.05023 0.51394 0.06248 0.0
C618 C 0.91626 0.52107 0.02852 0.0
O619 O 0.99903 0.51683 0.07716 0.0
C620 C 0.00887 0.47497 0.99651 0.0
C621 C 0.99969 0.56159 0.9584 0.0
O622 O 0.93925 0.53239 0.05329 0.0
O623 O 0.9287 0.50944 0.0018 0.0
O624 O 0.98657 0.46951 0.01745 0.0
O625 O 0.01316 0.50649 0.9928 0.0
O626 O 0.97617 0.55139 0.97794 0.0
O627 O 0.03082 0.56043 0.96814 0.0
C628 C 0.11077 0.54572 0.011 0.0
O629 O 0.09585 0.571 0.0034 0.0
O630 O 0.09115 0.52169 0.02269 0.0
C631 C 0.02335 0.58954 0.0595 0.0
C632 C 0.0152 0.20079 0.93482 0.0
C633 C 0.04403 0.22564 0.93782 0.0
C634 C 0.07226 0.1896 0.97516 0.0
C635 C 0.04273 0.16604 0.9743 0.0
N636 N 0.98475 0.15155 0.95694 0.0
N637 N 0.09957 0.24546 0.96254 0.0
C638 C 0.01394 0.17212 0.95486 0.0
C639 C 0.07237 0.22064 0.9587 0.0
N640 N 0.98875 0.2045 0.91282 0.0
N641 N 0.1006 0.18134 0.98982 0.0
H642 H 0.10183 0.26695 0.94844 0.0
H643 H 0.11941 0.24569 0.9809 0.0
H644 H 0.10168 0.15864 1.00147 0.0
H645 H 0.1235 0.19542 0.98796 0.0
H646 H 0.96907 0.18484 0.90521 0.0
H647 H 0.98695 0.22656 0.90037 0.0
H648 H 0.96238 0.15753 0.94789 0.0
H649 H 0.98224 0.12961 0.97008 0.0
C650 C 0.12607 0.80674 0.20851 0.0
C651 C 0.10159 0.78152 0.21861 0.0
C652 C 0.14175 0.76575 0.26235 0.0
C653 C 0.16707 0.78725 0.24855 0.0
N654 N 0.18339 0.82547 0.20505 0.0
N655 N 0.08592 0.73542 0.25389 0.0
C656 C 0.15925 0.8074 0.22101 0.0
C657 C 0.10929 0.76082 0.24549 0.0
N658 N 0.11748 0.83039 0.18711 0.0
N659 N 0.14867 0.75065 0.29206 0.0
H660 H 0.0618 0.73175 0.24284 0.0
H661 H 0.09077 0.71673 0.27016 0.0
H662 H 0.17201 0.7542 0.30527 0.0
H663 H 0.13097 0.7373 0.30538 0.0
H664 H 0.13366 0.85165 0.18156 0.0
H665 H 0.09337 0.8307 0.17777 0.0
H666 H 0.17908 0.83688 0.18214 0.0
H667 H 0.20804 0.82665 0.2126 0.0
C668 C 0.50718 0.90117 0.42147 0.0
C669 C 0.52052 0.87702 0.44114 0.0
C670 C 0.5177 0.91238 0.49503 0.0
C671 C 0.50636 0.93768 0.47531 0.0
N672 N 0.49589 0.95883 0.41936 0.0
N673 N 0.54505 0.8631 0.49572 0.0
C674 C 0.50283 0.93285 0.43841 0.0
C675 C 0.52789 0.8838 0.47765 0.0
N676 N 0.49683 0.89315 0.38693 0.0
N677 N 0.51658 0.9142 0.53014 0.0
H678 H 0.55302 0.84211 0.48373 0.0
H679 H 0.55409 0.86869 0.5218 0.0
H680 H 0.50784 0.9337 0.54378 0.0
H681 H 0.52127 0.89463 0.54533 0.0
H682 H 0.48296 0.90767 0.37237 0.0
H683 H 0.49973 0.87053 0.37319 0.0
H684 H 0.49694 0.95855 0.39267 0.0
H685 H 0.49172 0.98197 0.43065 0.0
C686 C 0.37792 0.23383 0.7087 0.0
C687 C 0.40229 0.26193 0.70397 0.0
C688 C 0.37244 0.30111 0.73455 0.0
C689 C 0.34714 0.27312 0.73831 0.0
N690 N 0.32307 0.21359 0.72115 0.0
N691 N 0.41909 0.32306 0.70547 0.0
C692 C 0.34891 0.23978 0.72285 0.0
C693 C 0.3986 0.29574 0.71513 0.0
N694 N 0.38319 0.20112 0.70119 0.0
N695 N 0.37161 0.33325 0.74932 0.0
H696 H 0.43855 0.32032 0.69144 0.0
H697 H 0.41523 0.34831 0.70858 0.0
H698 H 0.35101 0.34047 0.75851 0.0
H699 H 0.39169 0.35295 0.75282 0.0
H700 H 0.36844 0.17941 0.70801 0.0
H701 H 0.40409 0.19568 0.69107 0.0
H702 H 0.32169 0.19027 0.7065 0.0
H703 H 0.30154 0.21575 0.73136 0.0
C704 C 0.00977 0.87598 0.50153 0.0
C705 C 0.01309 0.86937 0.53687 0.0
C706 C 0.01141 0.92923 0.55454 0.0
C707 C 0.00817 0.93641 0.51902 0.0
N708 N 0.01965 0.91899 0.46112 0.0
N709 N 0.03005 0.89231 0.59613 0.0
C710 C 0.01208 0.91051 0.49315 0.0
C711 C 0.01807 0.89687 0.56308 0.0
N712 N 1.00314 0.84957 0.47595 0.0
N713 N 0.00718 0.95239 0.58042 0.0
H714 H 0.03734 0.86952 0.6028 0.0
H715 H 0.03613 0.91211 0.61596 0.0
H716 H 0.00671 0.97761 0.57674 0.0
H717 H 0.00377 0.94615 0.60558 0.0
H718 H 0.99717 0.8532 0.44996 0.0
H719 H 1.00092 0.82389 0.481 0.0
H720 H 0.02493 0.90126 0.44231 0.0
H721 H 0.02531 0.94436 0.45523 0.0
C722 C 0.4056 0.73823 0.87928 0.0
C723 C 0.42955 0.76666 0.89281 0.0
C724 C 0.39945 0.80558 0.86239 0.0
C725 C 0.37394 0.77749 0.85153 0.0
N726 N 0.35069 0.71745 0.85355 0.0
N727 N 0.44824 0.82782 0.90145 0.0
C728 C 0.3763 0.74397 0.86125 0.0
C729 C 0.42639 0.80048 0.88529 0.0
N730 N 0.41156 0.70559 0.88212 0.0
N731 N 0.39776 0.83725 0.85131 0.0
H732 H 0.4683 0.82517 0.91841 0.0
H733 H 0.4453 0.85326 0.90028 0.0
H734 H 0.37724 0.84307 0.83726 0.0
H735 H 0.41734 0.85749 0.85451 0.0
H736 H 0.39677 0.68386 0.8691 0.0
H737 H 0.433 0.70023 0.89476 0.0
H738 H 0.34968 0.69406 0.8643 0.0
H739 H 0.32934 0.71904 0.83836 0.0
C740 C 0.47079 0.17902 0.01154 0.0
C741 C 0.47311 0.19074 0.04732 0.0
C742 C 0.49487 0.14 0.06327 0.0
C743 C 0.49253 0.128 0.0277 0.0
N744 N 0.47313 0.13233 0.9681 0.0
N745 N 0.47223 0.17337 0.10585 0.0
C746 C 0.47872 0.14631 0.00179 0.0
C747 C 0.48042 0.16851 0.07288 0.0
N748 N 0.4609 0.19926 0.98706 0.0
N749 N 0.51102 0.12436 0.08804 0.0
H750 H 0.45643 0.18975 0.11257 0.0
H751 H 0.47642 0.15714 0.12506 0.0
H752 H 0.52219 0.10341 0.08231 0.0
H753 H 0.51614 0.1343 0.11392 0.0
H754 H 0.46241 0.19461 0.96061 0.0
H755 H 0.45137 0.22127 0.99358 0.0
H756 H 0.4603 0.14263 0.94837 0.0
H757 H 0.48004 0.10916 0.96012 0.0
C758 C 0.1101 0.27465 0.34637 0.0
C759 C 0.0972 0.24244 0.35764 0.0
C760 C 0.12511 0.21339 0.31469 0.0
C761 C 0.13677 0.24562 0.30276 0.0
N762 N 0.13146 0.30456 0.29925 0.0
N763 N 0.0849 0.18076 0.34567 0.0
C764 C 0.12607 0.27541 0.31593 0.0
C765 C 0.10236 0.21161 0.33969 0.0
N766 N 0.10927 0.30454 0.36586 0.0
N767 N 0.13693 0.18486 0.30377 0.0
H768 H 0.0672 0.17847 0.36284 0.0
H769 H 0.08557 0.15792 0.33097 0.0
H770 H 0.15285 0.18477 0.28481 0.0
H771 H 0.13239 0.16177 0.31507 0.0
H772 H 0.1212 0.32835 0.36022 0.0
H773 H 0.09993 0.30539 0.38975 0.0
H774 H 0.12179 0.32638 0.30594 0.0
H775 H 0.14241 0.30514 0.27624 0.0
C776 C 0.94577 0.09683 0.14543 0.0
C777 C 0.93652 0.07023 0.1668 0.0
C778 C 0.98006 0.04091 0.14785 0.0
C779 C 0.98732 0.06626 0.12431 0.0
N780 N 0.98934 0.12649 0.11689 0.0
N781 N 0.94931 0.0211 0.19484 0.0
C782 C 0.97391 0.09679 0.12782 0.0
C783 C 0.955 0.04337 0.16993 0.0
N784 N 0.92727 0.12184 0.14122 0.0
N785 N 0.99804 0.01524 0.14974 0.0
H786 H 0.93171 0.02266 0.21178 0.0
H787 H 0.9629 0.00212 0.20032 0.0
H788 H 0.01969 0.01628 0.1384 0.0
H789 H 0.9923 0.99352 0.16288 0.0
H790 H 0.93097 0.13972 0.12301 0.0
H791 H 0.90645 0.12281 0.15367 0.0
H792 H 0.9815 0.14992 0.12072 0.0
H793 H 0.01276 0.129 0.10949 0.0
C794 C 0.28502 0.71125 0.39837 0.0
C795 C 0.28315 0.72835 0.43124 0.0
C796 C 0.2647 0.77576 0.40191 0.0
C797 C 0.27153 0.76157 0.36928 0.0
N798 N 0.28732 0.71371 0.33707 0.0
N799 N 0.27593 0.77956 0.46457 0.0
C800 C 0.28154 0.7288 0.36776 0.0
C801 C 0.27439 0.7614 0.43303 0.0
N802 N 0.28768 0.67727 0.39588 0.0
N803 N 0.24682 0.80156 0.40313 0.0
H804 H 0.28338 0.77015 0.48786 0.0
H805 H 0.27304 0.80517 0.46727 0.0
H806 H 0.23606 0.81015 0.38086 0.0
H807 H 0.23879 0.81095 0.42589 0.0
H808 H 0.285 0.66215 0.37237 0.0
H809 H 0.28974 0.66311 0.41731 0.0
H810 H 0.30119 0.69429 0.33508 0.0
H811 H 0.27621 0.71923 0.31382 0.0
C812 C 0.54908 0.01802 0.68651 0.0
C813 C 0.56376 0.98901 0.69305 0.0
C814 C 0.5606 0.974 0.62989 0.0
C815 C 0.54331 0.00141 0.62345 0.0
N816 N 0.51612 0.04591 0.64709 0.0
N817 N 0.57874 0.93614 0.67131 0.0
C818 C 0.53584 0.0221 0.65217 0.0
C819 C 0.5684 0.96621 0.66479 0.0
N820 N 0.54958 0.04309 0.71275 0.0
N821 N 0.56936 0.95501 0.60272 0.0
H822 H 0.58422 0.92934 0.69636 0.0
H823 H 0.57916 0.91651 0.65216 0.0
H824 H 0.56185 0.95744 0.57685 0.0
H825 H 0.58559 0.93795 0.60573 0.0
H826 H 0.543 0.06681 0.7087 0.0
H827 H 0.55977 0.04189 0.73808 0.0
H828 H 0.50623 0.05786 0.66726 0.0
H829 H 0.50796 0.05266 0.62283 0.0
C830 C 0.26853 0.34356 0.95865 0.0
C831 C 0.28575 0.37779 0.96277 0.0
C832 C 0.30597 0.37003 0.90646 0.0
C833 C 0.28591 0.33735 0.9007 0.0
N834 N 0.24701 0.29272 0.91955 0.0
N835 N 0.31772 0.42545 0.93966 0.0
C836 C 0.26711 0.3238 0.92644 0.0
C837 C 0.30385 0.3915 0.93653 0.0
N838 N 0.25427 0.32976 0.98579 0.0
N839 N 0.32765 0.38005 0.88349 0.0
H840 H 0.3167 0.44212 0.9614 0.0
H841 H 0.32781 0.43786 0.91955 0.0
H842 H 0.33021 0.36454 0.86141 0.0
H843 H 0.34522 0.40214 0.88793 0.0
H844 H 0.24444 0.30391 0.98585 0.0
H845 H 0.25414 0.34383 0.00943 0.0
H846 H 0.22945 0.2834 0.93529 0.0
H847 H 0.24679 0.27674 0.897 0.0
C848 C 0.92839 0.02603 0.32897 0.0
C849 C 0.90448 0.04727 0.32737 0.0
C850 C 0.92287 0.07079 0.38721 0.0
C851 C 0.94223 0.0448 0.39074 0.0
N852 N 0.95877 0.99344 0.36577 0.0
N853 N 0.87778 0.08966 0.35463 0.0
C854 C 0.94419 0.0215 0.36176 0.0
C855 C 0.90141 0.06972 0.35639 0.0
N856 N 0.93594 0.01008 0.29925 0.0
N857 N 0.92589 0.09714 0.41265 0.0
H858 H 0.86284 0.09083 0.3318 0.0
H859 H 0.87187 0.10355 0.37618 0.0
H860 H 0.94248 0.0996 0.43487 0.0
H861 H 0.91454 0.1184 0.41007 0.0
H862 H 0.95536 0.99679 0.29872 0.0
H863 H 0.92495 0.01318 0.27471 0.0
H864 H 0.95771 0.97401 0.34595 0.0
H865 H 0.96874 0.9873 0.38961 0.0
C866 C 0.28301 0.70284 0.62919 0.0
C867 C 0.30139 0.72622 0.60935 0.0
C868 C 0.3017 0.77306 0.65505 0.0
C869 C 0.28321 0.7497 0.67458 0.0
N870 N 0.25898 0.69179 0.6823 0.0
N871 N 0.33393 0.78162 0.60655 0.0
C872 C 0.27475 0.71447 0.66218 0.0
C873 C 0.31235 0.76081 0.62328 0.0
N874 N 0.27175 0.66977 0.61582 0.0
N875 N 0.30799 0.80719 0.66627 0.0
H876 H 0.34278 0.77309 0.58389 0.0
H877 H 0.34538 0.80613 0.61652 0.0
H878 H 0.30083 0.81682 0.68947 0.0
H879 H 0.31821 0.82631 0.65169 0.0
H880 H 0.25367 0.65332 0.62579 0.0
H881 H 0.27959 0.65862 0.59393 0.0
H882 H 0.25709 0.66528 0.67838 0.0
H883 H 0.24881 0.69961 0.70415 0.0
C884 C 0.54212 0.98635 0.87287 0.0
C885 C 0.56743 0.01329 0.86717 0.0
C886 C 0.554 0.04833 0.91693 0.0
C887 C 0.53098 0.02034 0.92465 0.0
N888 N 0.5064 0.96067 0.91305 0.0
N889 N 0.60231 0.0667 0.88912 0.0
C890 C 0.52604 0.98871 0.90353 0.0
C891 C 0.57471 0.0434 0.89071 0.0
N892 N 0.53225 0.95931 0.84823 0.0
N893 N 0.55544 0.08003 0.93384 0.0
H894 H 0.61888 0.06344 0.87134 0.0
H895 H 0.61056 0.08727 0.90781 0.0
H896 H 0.54047 0.08466 0.95295 0.0
H897 H 0.56935 0.10218 0.92678 0.0
H898 H 0.51167 0.94085 0.8491 0.0
H899 H 0.54285 0.95687 0.8252 0.0
H900 H 0.50473 0.93603 0.90102 0.0
H901 H 0.49395 0.96139 0.93498 0.0
C902 C 0.23458 0.32504 0.10866 0.0
C903 C 0.24691 0.36069 0.11577 0.0
C904 C 0.26164 0.35282 0.17642 0.0
C905 C 0.24887 0.31701 0.16989 0.0
N906 N 0.21893 0.26976 0.13123 0.0
N907 N 0.26166 0.40963 0.15833 0.0
C908 C 0.23371 0.30336 0.13645 0.0
C909 C 0.25705 0.37493 0.1502 0.0
N910 N 0.2241 0.31205 0.0752 0.0
N911 N 0.27864 0.36615 0.20759 0.0
H912 H 0.258 0.42713 0.14032 0.0
H913 H 0.26546 0.42096 0.18377 0.0
H914 H 0.27959 0.35294 0.22963 0.0
H915 H 0.29312 0.39041 0.21121 0.0
H916 H 0.21845 0.28596 0.0672 0.0
H917 H 0.22174 0.32778 0.05506 0.0
H918 H 0.20475 0.25892 0.10843 0.0
H919 H 0.21945 0.25289 0.15058 0.0
C920 C 0.14317 0.98732 0.02378 0.0
C921 C 0.137 0.95811 0.04289 0.0
C922 C 0.09558 0.98436 0.07126 0.0
C923 C 0.10015 0.01213 0.05023 0.0
N924 N 0.13737 0.04637 0.01771 0.0
N925 N 0.10706 0.9284 0.08492 0.0
C926 C 0.12664 0.01554 0.02981 0.0
C927 C 0.11323 0.95665 0.06686 0.0
N928 N 0.16319 0.98723 0.99802 0.0
N929 N 0.07615 0.98606 0.09736 0.0
H930 H 0.1211 0.90903 0.08462 0.0
H931 H 0.08728 0.92328 0.09911 0.0
H932 H 0.06479 0.00715 0.10222 0.0
H933 H 0.0734 0.9685 0.11593 0.0
H934 H 0.16525 0.00561 0.98015 0.0
H935 H 0.17549 0.96711 0.99227 0.0
H936 H 0.15847 0.05146 0.00555 0.0
H937 H 0.12758 0.06824 0.02357 0.0
C938 C 0.6598 0.55984 0.99566 0.0
C939 C 0.6633 0.58736 0.97407 0.0
C940 C 0.60459 0.58593 0.96895 0.0
C941 C 0.60101 0.55648 0.98796 0.0
N942 N 0.62438 0.50978 0.01038 0.0
N943 N 0.63831 0.62056 0.93299 0.0
C944 C 0.62837 0.54147 0.99814 0.0
C945 C 0.6354 0.59834 0.95824 0.0
N946 N 0.68581 0.55301 0.01629 0.0
N947 N 0.57956 0.60367 0.96328 0.0
H948 H 0.66054 0.62965 0.9241 0.0
H949 H 0.61832 0.62701 0.9185 0.0
H950 H 0.55696 0.5969 0.97219 0.0
H951 H 0.58233 0.62729 0.9528 0.0
H952 H 0.68356 0.53526 0.03479 0.0
H953 H 0.70889 0.56782 0.01818 0.0
H954 H 0.6436 0.49654 0.01528 0.0
H955 H 0.60153 0.4953 0.01203 0.0
C956 C 0.72632 0.40726 0.31526 0.0
C957 C 0.70563 0.41758 0.28841 0.0
C958 C 0.72201 0.37652 0.24605 0.0
C959 C 0.7429 0.36656 0.27277 0.0
N960 N 0.77074 0.37738 0.33099 0.0
N961 N 0.69044 0.41905 0.22709 0.0
C962 C 0.74708 0.38373 0.30675 0.0
C963 C 0.70535 0.40419 0.2534 0.0
N964 N 0.72472 0.4182 0.34917 0.0
N965 N 0.71773 0.35918 0.21378 0.0
H966 H 0.67963 0.4406 0.23142 0.0
H967 H 0.69167 0.41243 0.20089 0.0
H968 H 0.73116 0.34027 0.20701 0.0
H969 H 0.69975 0.36219 0.19438 0.0
H970 H 0.73669 0.40882 0.37016 0.0
H971 H 0.70911 0.43449 0.35682 0.0
H972 H 0.7774 0.39177 0.35484 0.0
H973 H 0.78587 0.35961 0.32637 0.0
C974 C 0.83993 0.42044 0.51922 0.0
C975 C 0.81734 0.44186 0.52796 0.0
C976 C 0.8561 0.49279 0.51798 0.0
C977 C 0.8784 0.47126 0.50866 0.0
N978 N 0.88884 0.41475 0.49231 0.0
N979 N 0.80113 0.49745 0.52967 0.0
C980 C 0.86951 0.43509 0.50696 0.0
C981 C 0.82446 0.47771 0.52513 0.0
N982 N 0.8333 0.38606 0.52298 0.0
N983 N 0.86577 0.52761 0.52225 0.0
H984 H 0.77835 0.4878 0.53691 0.0
H985 H 0.80343 0.52289 0.52389 0.0
H986 H 0.88848 0.53989 0.51708 0.0
H987 H 0.85224 0.5444 0.53337 0.0
H988 H 0.85042 0.36994 0.52149 0.0
H989 H 0.81109 0.37373 0.52951 0.0
H990 H 0.88222 0.38831 0.48689 0.0
H991 H 0.91031 0.42468 0.48236 0.0
C992 C 0.30948 0.14285 0.2714 0.0
C993 C 0.34102 0.15346 0.26157 0.0
C994 C 0.32259 0.20401 0.23839 0.0
C995 C 0.29275 0.19592 0.25297 0.0
N996 N 0.26183 0.16106 0.29121 0.0
N997 N 0.37903 0.19694 0.2397 0.0
C998 C 0.28717 0.16617 0.27147 0.0
C999 C 0.34799 0.1848 0.24605 0.0
N1000 N 0.30034 0.11005 0.27982 0.0
N1001 N 0.32627 0.229 0.21601 0.0
H1002 H 0.39829 0.18388 0.2451 0.0
H1003 H 0.38609 0.2213 0.23182 0.0
H1004 H 0.30775 0.24238 0.20862 0.0
H1005 H 0.34628 0.23398 0.20209 0.0
H1006 H 0.27657 0.10003 0.28387 0.0
H1007 H 0.31545 0.09168 0.27884 0.0
H1008 H 0.25862 0.14135 0.30754 0.0
H1009 H 0.24654 0.1788 0.29515 0.0
C1010 C 0.3421 0.0375 0.50999 0.0
C1011 C 0.3433 0.07305 0.51909 0.0
C1012 C 0.38864 0.07312 0.564 0.0
C1013 C 0.38994 0.03916 0.55116 0.0
N1014 N 0.35885 0.98496 0.5272 0.0
N1015 N 0.36089 0.12211 0.56131 0.0
C1016 C 0.36341 0.01992 0.52931 0.0
C1017 C 0.36445 0.09014 0.54831 0.0
N1018 N 0.32244 0.02108 0.48155 0.0
N1019 N 0.41083 0.08883 0.59078 0.0
H1020 H 0.34305 0.13501 0.55088 0.0
H1021 H 0.37406 0.13523 0.58371 0.0
H1022 H 0.42564 0.07505 0.60525 0.0
H1023 H 0.41441 0.11483 0.59899 0.0
H1024 H 0.32334 0.99611 0.47189 0.0
H1025 H 0.30724 0.03321 0.4657 0.0
H1026 H 0.33854 0.96932 0.51348 0.0
H1027 H 0.37356 0.97203 0.54284 0.0
C1028 C 0.75144 0.61347 0.30281 0.0
C1029 C 0.71852 0.60248 0.3081 0.0
C1030 C 0.70952 0.66204 0.31058 0.0
C1031 C 0.74076 0.67218 0.29988 0.0
N1032 N 0.79199 0.6582 0.28572 0.0
N1033 N 0.66456 0.6156 0.31174 0.0
C1034 C 0.76193 0.64806 0.29601 0.0
C1035 C 0.69714 0.62658 0.31104 0.0
N1036 N 0.77286 0.59103 0.30539 0.0
N1037 N 0.6916 0.6862 0.32026 0.0
H1038 H 0.65401 0.58987 0.31115 0.0
H1039 H 0.64744 0.6318 0.30962 0.0
H1040 H 0.69961 0.71243 0.31984 0.0
H1041 H 0.67013 0.68044 0.3317 0.0
H1042 H 0.79783 0.59814 0.30508 0.0
H1043 H 0.76602 0.56572 0.31105 0.0
H1044 H 0.80692 0.64121 0.27799 0.0
H1045 H 0.80155 0.68379 0.28352 0.0
C1046 C 0.81119 0.4821 0.73888 0.0
C1047 C 0.84519 0.49145 0.74913 0.0
C1048 C 0.84312 0.44142 0.78277 0.0
C1049 C 0.81073 0.42932 0.76803 0.0
N1050 N 0.76458 0.43605 0.72877 0.0
N1051 N 0.89469 0.47582 0.77571 0.0
C1052 C 0.79478 0.44915 0.74531 0.0
C1053 C 0.86151 0.47009 0.76989 0.0
N1054 N 0.79428 0.50509 0.72429 0.0
N1055 N 0.85615 0.4258 0.80962 0.0
H1056 H 0.90947 0.49526 0.76516 0.0
H1057 H 0.90772 0.45892 0.7878 0.0
H1058 H 0.84267 0.40563 0.82058 0.0
H1059 H 0.87875 0.43534 0.82348 0.0
H1060 H 0.76903 0.50074 0.71937 0.0
H1061 H 0.80509 0.52992 0.72039 0.0
H1062 H 0.75345 0.44762 0.70875 0.0
H1063 H 0.75163 0.41231 0.73333 0.0
C1064 C 0.99752 0.879 0.12282 0.0
C1065 C 0.00712 0.85027 0.10527 0.0
C1066 C 0.00645 0.87924 0.05137 0.0
C1067 C 0.99473 0.9068 0.06851 0.0
N1068 N 0.97104 0.92848 0.11775 0.0
N1069 N 0.01338 0.81977 0.05096 0.0
C1070 C 0.98765 0.90517 0.10335 0.0
C1071 C 0.00937 0.84938 0.06894 0.0
N1072 N 0.99975 0.88256 0.15829 0.0
N1073 N 0.01654 0.88219 0.01916 0.0
H1074 H 0.01504 0.79722 0.0627 0.0
H1075 H 0.01188 0.81661 0.02396 0.0
H1076 H 0.01476 0.90342 0.00528 0.0
H1077 H 0.02899 0.86471 0.00733 0.0
H1078 H 0.99632 0.90478 0.17239 0.0
H1079 H 0.00841 0.86502 0.17388 0.0
H1080 H 0.96247 0.92663 0.14196 0.0
H1081 H 0.96278 0.94754 0.10392 0.0
C1082 C 0.91467 0.25697 0.80297 0.0
C1083 C 0.93413 0.28704 0.82043 0.0
C1084 C 0.88832 0.31795 0.81219 0.0
C1085 C 0.86867 0.28799 0.79352 0.0
N1086 N 0.86804 0.23329 0.76153 0.0
N1087 N 0.94267 0.3483 0.83269 0.0
C1088 C 0.8833 0.25871 0.78607 0.0
C1089 C 0.922 0.31824 0.8218 0.0
N1090 N 0.92589 0.22657 0.80293 0.0
N1091 N 0.8749 0.34537 0.82329 0.0
H1092 H 0.96733 0.34933 0.8404 0.0
H1093 H 0.93614 0.37236 0.83063 0.0
H1094 H 0.85033 0.34658 0.81942 0.0
H1095 H 0.88761 0.36568 0.84032 0.0
H1096 H 0.91135 0.20305 0.79416 0.0
H1097 H 0.94924 0.22472 0.81371 0.0
H1098 H 0.87876 0.21277 0.75302 0.0
H1099 H 0.84641 0.23487 0.74657 0.0
C1100 C 0.53295 0.1577 0.61664 0.0
C1101 C 0.5067 0.173 0.60307 0.0
C1102 C 0.498 0.13166 0.5516 0.0
C1103 C 0.52212 0.11402 0.56656 0.0
N1104 N 0.55723 0.10668 0.61792 0.0
N1105 N 0.45884 0.16861 0.56233 0.0
C1106 C 0.53795 0.12592 0.60048 0.0
C1107 C 0.48739 0.15789 0.57216 0.0
N1108 N 0.55427 0.17421 0.64384 0.0
N1109 N 0.48719 0.12589 0.51703 0.0
H1110 H 0.45021 0.18755 0.57704 0.0
H1111 H 0.44224 0.15609 0.54184 0.0
H1112 H 0.4973 0.11064 0.49972 0.0
H1113 H 0.4715 0.14013 0.50462 0.0
H1114 H 0.57604 0.16626 0.65185 0.0
H1115 H 0.55187 0.19755 0.65651 0.0
H1116 H 0.56642 0.11259 0.64394 0.0
H1117 H 0.56096 0.08272 0.60812 0.0
C1118 C 0.62973 0.75957 0.31421 0.0
C1119 C 0.62995 0.79178 0.33278 0.0
C1120 C 0.68356 0.81338 0.31402 0.0
C1121 C 0.68189 0.78223 0.29281 0.0
N1122 N 0.65144 0.72656 0.27009 0.0
N1123 N 0.65476 0.85106 0.34648 0.0
C1124 C 0.65425 0.75576 0.29192 0.0
C1125 C 0.6564 0.81907 0.33186 0.0
N1126 N 0.60729 0.73182 0.3196 0.0
N1127 N 0.71094 0.83784 0.31684 0.0
H1128 H 0.63504 0.85646 0.35898 0.0
H1129 H 0.67141 0.87294 0.34364 0.0
H1130 H 0.73006 0.83613 0.30203 0.0
H1131 H 0.7156 0.85889 0.33533 0.0
H1132 H 0.60822 0.70678 0.31026 0.0
H1133 H 0.5894 0.73314 0.33625 0.0
H1134 H 0.6299 0.70894 0.26442 0.0
H1135 H 0.67021 0.72021 0.25662 0.0
C1136 C 0.03449 0.18044 0.51852 0.0
C1137 C 0.0069 0.1882 0.49877 0.0
C1138 C 0.97326 0.13633 0.51444 0.0
C1139 C 1.00162 0.12648 0.53047 0.0
N1140 N 0.05971 0.13755 0.54681 0.0
N1141 N 0.95048 0.17359 0.47558 0.0
C1142 C 0.03237 0.14824 0.53259 0.0
C1143 C 0.9763 0.16624 0.4962 0.0
N1144 N 0.06256 0.20411 0.52416 0.0
N1145 N 0.94347 0.11741 0.51736 0.0
H1146 H 0.95175 0.19567 0.4624 0.0
H1147 H 0.9284 0.15694 0.46973 0.0
H1148 H 0.94062 0.09591 0.53144 0.0
H1149 H 0.92153 0.12461 0.50874 0.0
H1150 H 0.08245 0.20167 0.54141 0.0
H1151 H 0.06517 0.22769 0.51354 0.0
H1152 H 0.08323 0.15014 0.54506 0.0
H1153 H 0.05924 0.11468 0.5585 0.0
C1154 C 0.60057 0.29183 0.16612 0.0
C1155 C 0.58077 0.26097 0.15064 0.0
C1156 C 0.61754 0.22764 0.18017 0.0
C1157 C 0.63516 0.25837 0.19847 0.0
N1158 N 0.63789 0.3187 0.21541 0.0
N1159 N 0.56606 0.1993 0.14967 0.0
C1160 C 0.62505 0.29021 0.19339 0.0
C1161 C 0.58796 0.22874 0.15954 0.0
N1162 N 0.59693 0.32262 0.15396 0.0
N1163 N 0.62961 0.19773 0.18094 0.0
H1164 H 0.54351 0.19897 0.1357 0.0
H1165 H 0.56886 0.17567 0.1585 0.0
H1166 H 0.65167 0.1958 0.19476 0.0
H1167 H 0.61925 0.17559 0.16504 0.0
H1168 H 0.61292 0.34539 0.16224 0.0
H1169 H 0.58018 0.3249 0.133 0.0
H1170 H 0.62924 0.34182 0.21458 0.0
H1171 H 0.65458 0.31822 0.23702 0.0
C1172 C 0.54162 0.88182 0.97014 0.0
C1173 C 0.5323 0.85679 0.99328 0.0
C1174 C 0.52544 0.90197 0.03704 0.0
C1175 C 0.53523 0.92686 0.01403 0.0
N1176 N 0.56155 0.94124 0.96295 0.0
N1177 N 0.52285 0.84304 0.0512 0.0
C1178 C 0.54665 0.91705 0.98222 0.0
C1179 C 0.52666 0.86694 0.02762 0.0
N1180 N 0.54279 0.87233 0.93577 0.0
N1181 N 0.5143 0.91181 0.06746 0.0
H1182 H 0.52415 0.81729 0.04503 0.0
H1183 H 0.52141 0.84913 0.07746 0.0
H1184 H 0.51489 0.93749 0.07593 0.0
H1185 H 0.50316 0.89459 0.08346 0.0
H1186 H 0.54531 0.88982 0.91704 0.0
H1187 H 0.53808 0.84699 0.92501 0.0
H1188 H 0.57345 0.93509 0.94163 0.0
H1189 H 0.56457 0.96751 0.96963 0.0
C1190 C 0.89197 0.78068 0.66864 0.0
C1191 C 0.92514 0.7903 0.68186 0.0
C1192 C 0.90942 0.81252 0.73717 0.0
C1193 C 0.8765 0.80539 0.72276 0.0
N1194 N 0.83698 0.79004 0.67224 0.0
N1195 N 0.96577 0.82242 0.72581 0.0
C1196 C 0.86799 0.79198 0.68762 0.0
C1197 C 0.93405 0.80819 0.71539 0.0
N1198 N 0.88314 0.75903 0.63899 0.0
N1199 N 0.9171 0.82297 0.77169 0.0
H1200 H 0.98442 0.82103 0.71015 0.0
H1201 H 0.97313 0.8385 0.74857 0.0
H1202 H 0.89968 0.82789 0.78794 0.0
H1203 H 0.94035 0.82469 0.78455 0.0
H1204 H 0.8591 0.74822 0.63034 0.0
H1205 H 0.89986 0.74886 0.62498 0.0
H1206 H 0.83031 0.78373 0.64573 0.0
H1207 H 0.81863 0.79797 0.68524 0.0
C1208 C 0.10433 0.03206 0.90584 0.0
C1209 C 0.09178 0.00977 0.87587 0.0
C1210 C 0.04175 0.99063 0.90259 0.0
C1211 C 0.05291 0.01568 0.93106 0.0
N1212 N 0.09406 0.0631 0.95792 0.0
N1213 N 0.04804 0.96941 0.84374 0.0
C1214 C 0.08397 0.03713 0.93216 0.0
C1215 C 0.06038 0.98932 0.87375 0.0
N1216 N 0.13615 0.04801 0.90959 0.0
N1217 N 0.01326 0.96834 0.903 0.0
H1218 H 0.06156 0.96685 0.82287 0.0
H1219 H 0.02403 0.95691 0.83869 0.0
H1220 H 0.99811 0.96988 0.92259 0.0
H1221 H 0.00544 0.94713 0.88504 0.0
H1222 H 0.14801 0.06092 0.93279 0.0
H1223 H 0.15172 0.04594 0.89049 0.0
H1224 H 0.11324 0.08309 0.95642 0.0
H1225 H 0.08291 0.0658 0.98042 0.0
C1226 C 0.76807 0.35251 0.64435 0.0
C1227 C 0.7442 0.33491 0.61791 0.0
C1228 C 0.73578 0.28607 0.6536 0.0
C1229 C 0.76328 0.30168 0.67714 0.0
N1230 N 0.80985 0.34665 0.6899 0.0
N1231 N 0.70676 0.28336 0.596 0.0
C1232 C 0.7806 0.33408 0.67111 0.0
C1233 C 0.72855 0.30113 0.62211 0.0
N1234 N 0.77822 0.38699 0.64455 0.0
N1235 N 0.71568 0.25777 0.66189 0.0
H1236 H 0.69936 0.29425 0.57358 0.0
H1237 H 0.69749 0.25731 0.59578 0.0
H1238 H 0.71971 0.24607 0.68469 0.0
H1239 H 0.69339 0.24773 0.64764 0.0
H1240 H 0.79377 0.4015 0.66478 0.0
H1241 H 0.76765 0.40159 0.62694 0.0
H1242 H 0.82484 0.36896 0.68472 0.0
H1243 H 0.82065 0.33262 0.708 0.0
C1244 C 0.49417 0.08414 0.36732 0.0
C1245 C 0.46258 0.06984 0.35133 0.0
C1246 C 0.45124 0.04004 0.40312 0.0
C1247 C 0.48221 0.05592 0.4203 0.0
N1248 N 0.52934 0.10029 0.42133 0.0
N1249 N 0.40812 0.04229 0.35764 0.0
C1250 C 0.50265 0.08007 0.40312 0.0
C1251 C 0.44018 0.05053 0.3705 0.0
N1252 N 0.51625 0.10114 0.3482 0.0
N1253 N 0.4331 0.01326 0.4165 0.0
H1254 H 0.39907 0.04977 0.33397 0.0
H1255 H 0.39009 0.0312 0.37202 0.0
H1256 H 0.44049 0.00317 0.43928 0.0
H1257 H 0.41223 0.99846 0.40293 0.0
H1258 H 0.54077 0.10874 0.35721 0.0
H1259 H 0.51034 0.10569 0.32243 0.0
H1260 H 0.54346 0.12038 0.41099 0.0
H1261 H 0.53536 0.0995 0.4479 0.0
C1262 C 0.73001 0.67803 0.08508 0.0
C1263 C 0.75682 0.69018 0.06694 0.0
C1264 C 0.77994 0.73218 0.11591 0.0
C1265 C 0.75202 0.72164 0.13286 0.0
N1266 N 0.69834 0.68876 0.13246 0.0
N1267 N 0.80577 0.73066 0.06284 0.0
C1268 C 0.72647 0.69565 0.11719 0.0
C1269 C 0.78123 0.718 0.0816 0.0
N1270 N 0.70807 0.64955 0.07181 0.0
N1271 N 0.80597 0.75426 0.13333 0.0
H1272 H 0.80916 0.71933 0.03871 0.0
H1273 H 0.82182 0.75354 0.07026 0.0
H1274 H 0.80609 0.76513 0.15861 0.0
H1275 H 0.82848 0.75981 0.12395 0.0
H1276 H 0.69038 0.63705 0.08572 0.0
H1277 H 0.70868 0.63678 0.04759 0.0
H1278 H 0.67737 0.6728 0.1206 0.0
H1279 H 0.69491 0.70133 0.156 0.0
C1280 C 0.09856 0.97675 0.68615 0.0
C1281 C 0.09009 0.98972 0.71826 0.0
C1282 C 0.05813 0.02728 0.68873 0.0
C1283 C 0.06428 0.01247 0.65619 0.0
N1284 N 0.08506 0.96759 0.62396 0.0
N1285 N 0.05551 0.02041 0.74978 0.0
C1286 C 0.08314 0.98572 0.65478 0.0
C1287 C 0.06772 0.01267 0.71941 0.0
N1288 N 0.12142 0.9559 0.68569 0.0
N1289 N 0.04498 0.05658 0.69066 0.0
H1290 H 0.06144 0.00934 0.77253 0.0
H1291 H 0.03686 0.03464 0.75137 0.0
H1292 H 0.03966 0.06966 0.66908 0.0
H1293 H 0.04293 0.07017 0.71408 0.0
H1294 H 0.13188 0.94925 0.66348 0.0
H1295 H 0.13117 0.94662 0.70808 0.0
H1296 H 0.09578 0.94576 0.62215 0.0
H1297 H 0.07311 0.97176 0.60036 0.0
C1298 C 0.70382 0.34249 0.40999 0.0
C1299 C 0.71782 0.33016 0.44036 0.0
C1300 C 0.73669 0.2853 0.40418 0.0
C1301 C 0.72449 0.29875 0.3736 0.0
N1302 N 0.69046 0.33583 0.34735 0.0
N1303 N 0.73887 0.28445 0.46695 0.0
C1304 C 0.70574 0.32562 0.37652 0.0
C1305 C 0.73154 0.29982 0.43751 0.0
N1306 N 0.69068 0.37177 0.41295 0.0
N1307 N 0.75367 0.25881 0.40134 0.0
H1308 H 0.7344 0.29403 0.49143 0.0
H1309 H 0.74634 0.26072 0.46702 0.0
H1310 H 0.75532 0.24542 0.37764 0.0
H1311 H 0.76707 0.25076 0.42218 0.0
H1312 H 0.68282 0.3844 0.39206 0.0
H1313 H 0.68861 0.38471 0.43667 0.0
H1314 H 0.673 0.35161 0.34779 0.0
H1315 H 0.69372 0.32741 0.3222 0.0
C1316 C 0.49453 0.03415 0.17754 0.0
C1317 C 0.47319 0.05857 0.1769 0.0
C1318 C 0.46819 0.052 0.1132 0.0
C1319 C 0.49476 0.03382 0.11381 0.0
N1320 N 0.52947 0.00222 0.1469 0.0
N1321 N 0.44255 0.09379 0.14346 0.0
C1322 C 0.50685 0.02335 0.14618 0.0
C1323 C 0.46076 0.06826 0.14453 0.0
N1324 N 0.50154 0.01981 0.20773 0.0
N1325 N 0.44849 0.05188 0.0832 0.0
H1326 H 0.43733 0.10726 0.16567 0.0
H1327 H 0.4354 0.10391 0.12051 0.0
H1328 H 0.44979 0.0356 0.06146 0.0
H1329 H 0.42751 0.0628 0.08174 0.0
H1330 H 0.51426 0.9995 0.20948 0.0
H1331 H 0.49216 0.02615 0.23076 0.0
H1332 H 0.54316 0.998 0.16949 0.0
H1333 H 0.5345 0.98872 0.12462 0.0
C1334 C 0.79912 0.70215 0.8918 0.0
C1335 C 0.77001 0.69569 0.90794 0.0
C1336 C 0.75503 0.74921 0.88974 0.0
C1337 C 0.7801 0.75123 0.86779 0.0
N1338 N 0.83512 0.74295 0.86342 0.0
N1339 N 0.72352 0.71594 0.92879 0.0
C1340 C 0.80531 0.73205 0.87385 0.0
C1341 C 0.74916 0.72048 0.9094 0.0
N1342 N 0.81952 0.67862 0.8914 0.0
N1343 N 0.73723 0.77507 0.89127 0.0
H1344 H 0.71945 0.69593 0.94465 0.0
H1345 H 0.70601 0.73162 0.92928 0.0
H1346 H 0.74293 0.79688 0.878 0.0
H1347 H 0.71872 0.77638 0.90701 0.0
H1348 H 0.83882 0.67991 0.87632 0.0
H1349 H 0.81579 0.6563 0.90414 0.0
H1350 H 0.85511 0.731 0.8688 0.0
H1351 H 0.84104 0.76678 0.85384 0.0
C1352 C 0.88141 0.07147 0.96995 0.0
C1353 C 0.88313 0.10301 0.99054 0.0
C1354 C 0.93834 0.09804 0.01538 0.0
C1355 C 0.9362 0.06546 0.99606 0.0
N1356 N 0.91036 0.0292 0.94519 0.0
N1357 N 0.91226 0.14463 0.03592 0.0
C1358 C 0.90891 0.05429 0.97072 0.0
C1359 C 0.91111 0.11548 0.01444 0.0
N1360 N 0.85272 0.05679 0.95092 0.0
N1361 N 0.96773 0.11482 0.03092 0.0
H1362 H 0.89548 0.16112 0.03327 0.0
H1363 H 0.92903 0.15162 0.05787 0.0
H1364 H 0.98912 0.10749 0.02471 0.0
H1365 H 0.97188 0.13935 0.04371 0.0
H1366 H 0.84856 0.03202 0.93862 0.0
H1367 H 0.83182 0.06786 0.95045 0.0
H1368 H 0.89268 0.0221 0.92405 0.0
H1369 H 0.93129 0.01884 0.94227 0.0
C1370 C 0.37287 0.50661 0.09276 0.0
C1371 C 0.36109 0.47088 0.08979 0.0
C1372 C 0.41237 0.45909 0.0708 0.0
C1373 C 0.4225 0.49488 0.06957 0.0
N1374 N 0.41452 0.55322 0.08071 0.0
N1375 N 0.36876 0.41251 0.07782 0.0
C1376 C 0.40349 0.51887 0.08131 0.0
C1377 C 0.38089 0.44689 0.08006 0.0
N1378 N 0.35465 0.52851 0.10684 0.0
N1379 N 0.43283 0.43688 0.06286 0.0
H1380 H 0.34643 0.40269 0.08604 0.0
H1381 H 0.38002 0.39355 0.06685 0.0
H1382 H 0.45504 0.44466 0.05348 0.0
H1383 H 0.4288 0.411 0.06704 0.0
H1384 H 0.36228 0.55483 0.11201 0.0
H1385 H 0.33237 0.51978 0.11583 0.0
H1386 H 0.40074 0.57221 0.08546 0.0
H1387 H 0.43763 0.56294 0.07432 0.0
C1388 C 0.30535 0.65425 0.74489 0.0
C1389 C 0.28924 0.62103 0.74987 0.0
C1390 C 0.24628 0.64685 0.77522 0.0
C1391 C 0.26339 0.68018 0.77125 0.0
N1392 N 0.31654 0.71306 0.76798 0.0
N1393 N 0.24868 0.58643 0.77856 0.0
C1394 C 0.29517 0.6832 0.76089 0.0
C1395 C 0.26078 0.61741 0.76744 0.0
N1396 N 0.32972 0.65853 0.72385 0.0
N1397 N 0.21651 0.6433 0.78728 0.0
H1398 H 0.25935 0.56471 0.77488 0.0
H1399 H 0.23001 0.58298 0.79444 0.0
H1400 H 0.20736 0.66402 0.79814 0.0
H1401 H 0.20078 0.6199 0.78599 0.0
H1402 H 0.33997 0.68258 0.71706 0.0
H1403 H 0.33699 0.63809 0.71007 0.0
H1404 H 0.34081 0.71576 0.76312 0.0
H1405 H 0.31115 0.73304 0.78367 0.0
C1406 C 0.18909 0.60859 0.48716 0.0
C1407 C 0.21035 0.61497 0.5184 0.0
C1408 C 0.16678 0.58941 0.55075 0.0
C1409 C 0.1455 0.58186 0.51941 0.0
N1410 N 0.13984 0.57468 0.45671 0.0
N1411 N 0.22277 0.59978 0.57632 0.0
C1412 C 0.15765 0.58858 0.4872 0.0
C1413 C 0.20022 0.60161 0.54907 0.0
N1414 N 0.19836 0.62255 0.45779 0.0
N1415 N 0.15506 0.58716 0.58228 0.0
H1416 H 0.24763 0.6063 0.57455 0.0
H1417 H 0.21704 0.58781 0.59848 0.0
H1418 H 0.13048 0.58042 0.5852 0.0
H1419 H 0.16943 0.59568 0.60568 0.0
H1420 H 0.18241 0.62203 0.43539 0.0
H1421 H 0.22152 0.6365 0.45657 0.0
H1422 H 0.14916 0.57572 0.43284 0.0
H1423 H 0.1173 0.55874 0.45568 0.0
C1424 C 0.72323 0.9131 0.83074 0.0
C1425 C 0.69048 0.90948 0.81567 0.0
C1426 C 0.69423 0.85234 0.78954 0.0
C1427 C 0.72704 0.85525 0.80561 0.0
N1428 N 0.7647 0.883 0.85445 0.0
N1429 N 0.64197 0.86995 0.79263 0.0
C1430 C 0.73906 0.88393 0.83029 0.0
C1431 C 0.67514 0.87741 0.79868 0.0
N1432 N 0.74001 0.94446 0.8442 0.0
N1433 N 0.68071 0.82647 0.76496 0.0
H1434 H 0.62695 0.88682 0.80058 0.0
H1435 H 0.62933 0.84552 0.7837 0.0
H1436 H 0.69052 0.80486 0.75991 0.0
H1437 H 0.65951 0.82709 0.7488 0.0
H1438 H 0.76483 0.9486 0.85256 0.0
H1439 H 0.73018 0.96689 0.84358 0.0
H1440 H 0.77283 0.90248 0.87435 0.0
H1441 H 0.77446 0.86079 0.85776 0.0
C1442 C 0.66236 0.96548 0.46775 0.0
C1443 C 0.68982 0.9875 0.48599 0.0
C1444 C 0.6614 0.03627 0.48253 0.0
C1445 C 0.63224 0.0128 0.47274 0.0
N1446 N 0.60714 0.96015 0.43957 0.0
N1447 N 0.71729 0.04435 0.50838 0.0
C1448 C 0.63341 0.97883 0.4599 0.0
C1449 C 0.69024 0.02329 0.49183 0.0
N1450 N 0.66384 0.93178 0.4592 0.0
N1451 N 0.66149 0.07061 0.48182 0.0
H1452 H 0.73905 0.03581 0.51519 0.0
H1453 H 0.71766 0.06987 0.51706 0.0
H1454 H 0.64102 0.08006 0.47195 0.0
H1455 H 0.68246 0.08913 0.48653 0.0
H1456 H 0.64389 0.91336 0.44916 0.0
H1457 H 0.68541 0.92197 0.46285 0.0
H1458 H 0.60635 0.93549 0.42807 0.0
H1459 H 0.587 0.97102 0.43134 0.0
C1460 C 0.2795 0.43974 0.7314 0.0
C1461 C 0.30907 0.4481 0.7165 0.0
C1462 C 0.31388 0.38725 0.71076 0.0
C1463 C 0.28702 0.37954 0.73021 0.0
N1464 N 0.24405 0.39821 0.75961 0.0
N1465 N 0.35796 0.43054 0.69868 0.0
C1466 C 0.26979 0.40578 0.74077 0.0
C1467 C 0.32708 0.42205 0.7076 0.0
N1468 N 0.26016 0.464 0.73542 0.0
N1469 N 0.3271 0.36154 0.69538 0.0
H1470 H 0.36951 0.45571 0.69756 0.0
H1471 H 0.37352 0.41281 0.69601 0.0
H1472 H 0.31953 0.33564 0.69807 0.0
H1473 H 0.34412 0.36583 0.67763 0.0
H1474 H 0.23685 0.45884 0.74297 0.0
H1475 H 0.26628 0.48886 0.72821 0.0
H1476 H 0.23311 0.41676 0.77188 0.0
H1477 H 0.23438 0.37323 0.76431 0.0
C1478 C 0.20123 0.5819 0.23585 0.0
C1479 C 0.1807 0.5751 0.26241 0.0
C1480 C 0.20423 0.63117 0.29248 0.0
C1481 C 0.21972 0.64053 0.26277 0.0
N1482 N 0.22837 0.62536 0.20322 0.0
N1483 N 0.15832 0.59666 0.31295 0.0
C1484 C 0.21733 0.61599 0.23369 0.0
C1485 C 0.18115 0.60052 0.29011 0.0
N1486 N 0.20587 0.55575 0.21305 0.0
N1487 N 0.21195 0.65108 0.32329 0.0
H1488 H 0.13959 0.57563 0.31092 0.0
H1489 H 0.15581 0.61613 0.33147 0.0
H1490 H 0.22984 0.67293 0.32672 0.0
H1491 H 0.20339 0.64359 0.34637 0.0
H1492 H 0.22291 0.55887 0.19521 0.0
H1493 H 0.19538 0.53024 0.21459 0.0
H1494 H 0.22388 0.60906 0.18037 0.0
H1495 H 0.23904 0.65022 0.19952 0.0
C1496 C 0.51802 0.70979 0.46174 0.0
C1497 C 0.54873 0.72771 0.45547 0.0
C1498 C 0.57525 0.69096 0.49325 0.0
C1499 C 0.54473 0.66987 0.49505 0.0
N1500 N 0.48757 0.65555 0.47305 0.0
N1501 N 0.60705 0.731 0.46037 0.0
C1502 C 0.51617 0.67831 0.47729 0.0
C1503 C 0.57755 0.71721 0.46999 0.0
N1504 N 0.49053 0.72323 0.45389 0.0
N1505 N 0.60194 0.68672 0.51448 0.0
H1506 H 0.60981 0.74924 0.44238 0.0
H1507 H 0.62835 0.72174 0.46748 0.0
H1508 H 0.60103 0.66868 0.53276 0.0
H1509 H 0.62404 0.70354 0.5166 0.0
H1510 H 0.46796 0.71276 0.4611 0.0
H1511 H 0.49092 0.7469 0.44379 0.0
H1512 H 0.46715 0.65932 0.45727 0.0
H1513 H 0.48518 0.63117 0.48162 0.0
C1514 C 0.60952 0.26167 0.73859 0.0
C1515 C 0.60174 0.28288 0.71214 0.0
C1516 C 0.65929 0.30992 0.71638 0.0
C1517 C 0.66683 0.29042 0.74453 0.0
N1518 N 0.64722 0.25371 0.78751 0.0
N1519 N 0.61777 0.33354 0.68306 0.0
C1520 C 0.64129 0.26818 0.75722 0.0
C1521 C 0.62621 0.30903 0.7034 0.0
N1522 N 0.58733 0.23405 0.74468 0.0
N1523 N 0.68354 0.32751 0.70021 0.0
H1524 H 0.59369 0.3343 0.67405 0.0
H1525 H 0.63412 0.3551 0.67848 0.0
H1526 H 0.70815 0.32813 0.7075 0.0
H1527 H 0.67917 0.33866 0.67713 0.0
H1528 H 0.59299 0.21547 0.76075 0.0
H1529 H 0.56405 0.22793 0.73141 0.0
H1530 H 0.62899 0.23992 0.79985 0.0
H1531 H 0.66989 0.2586 0.80217 0.0
C1532 C 0.99333 0.39322 0.93345 0.0
C1533 C 0.02408 0.3945 0.92087 0.0
C1534 C 0.04335 0.45067 0.95328 0.0
C1535 C 0.01339 0.44858 0.96822 0.0
N1536 N 0.95597 0.42496 0.9595 0.0
N1537 N 0.08027 0.42076 0.92377 0.0
C1538 C 0.98728 0.42153 0.95513 0.0
C1539 C 0.04958 0.4222 0.93218 0.0
N1540 N 0.96979 0.36488 0.92471 0.0
N1541 N 0.06474 0.48084 0.95622 0.0
H1542 H 0.08578 0.40034 0.90832 0.0
H1543 H 0.10078 0.43797 0.93489 0.0
H1544 H 0.05962 0.50362 0.96712 0.0
H1545 H 0.08526 0.48466 0.943 0.0
H1546 H 0.94844 0.36031 0.93653 0.0
H1547 H 0.97262 0.34446 0.90753 0.0
H1548 H 0.93566 0.40763 0.94818 0.0
H1549 H 0.94972 0.44761 0.96982 0.0
C1550 C 0.91184 0.76377 0.25803 0.0
C1551 C 0.90973 0.74563 0.22479 0.0
C1552 C 0.85058 0.73028 0.22523 0.0
C1553 C 0.85216 0.75184 0.25632 0.0
N1554 N 0.88463 0.79479 0.2987 0.0
N1555 N 0.87567 0.7184 0.17322 0.0
C1556 C 0.88289 0.77025 0.27171 0.0
C1557 C 0.87868 0.7308 0.20734 0.0
N1558 N 0.94135 0.77355 0.27738 0.0
N1559 N 0.82266 0.70801 0.21354 0.0
H1560 H 0.89531 0.71966 0.15857 0.0
H1561 H 0.85325 0.71027 0.15848 0.0
H1562 H 0.80252 0.70542 0.22736 0.0
H1563 H 0.82088 0.68951 0.19267 0.0
H1564 H 0.94391 0.78356 0.30324 0.0
H1565 H 0.96302 0.76838 0.26892 0.0
H1566 H 0.90603 0.81149 0.30817 0.0
H1567 H 0.8643 0.80099 0.3094 0.0
C1568 C 0.52341 0.3932 0.07939 0.0
C1569 C 0.52581 0.36648 0.05424 0.0
C1570 C 0.53888 0.40875 0.01275 0.0
C1571 C 0.52802 0.4339 0.03456 0.0
N1572 N 0.51393 0.45029 0.09191 0.0
N1573 N 0.53574 0.34806 0.9964 0.0
C1574 C 0.52156 0.42625 0.06887 0.0
C1575 C 0.53389 0.374 0.02081 0.0
N1576 N 0.52464 0.38742 0.11381 0.0
N1577 N 0.55535 0.41822 0.98538 0.0
H1578 H 0.53248 0.32236 1.00159 0.0
H1579 H 0.53809 0.3519 0.97045 0.0
H1580 H 0.56252 0.44384 0.98101 0.0
H1581 H 0.5658 0.40124 0.97017 0.0
H1582 H 0.52583 0.40665 0.13384 0.0
H1583 H 0.52815 0.36404 0.12288 0.0
H1584 H 0.50216 0.44433 0.11368 0.0
H1585 H 0.52082 0.47618 0.0901 0.0
C1586 C 0.91315 0.30261 0.40147 0.0
C1587 C 0.92882 0.27503 0.39092 0.0
C1588 C 0.89655 0.26802 0.33437 0.0
C1589 C 0.87741 0.29124 0.34703 0.0
N1590 N 0.86499 0.32875 0.39356 0.0
N1591 N 0.93066 0.22688 0.34965 0.0
C1592 C 0.88491 0.30799 0.38092 0.0
C1593 C 0.91931 0.25648 0.35791 0.0
N1594 N 0.92608 0.32473 0.42985 0.0
N1595 N 0.89321 0.25729 0.29982 0.0
H1596 H 0.94597 0.21631 0.36697 0.0
H1597 H 0.92197 0.21083 0.3271 0.0
H1598 H 0.87771 0.26675 0.28175 0.0
H1599 H 0.90844 0.24234 0.28877 0.0
H1600 H 0.9172 0.34702 0.43664 0.0
H1601 H 0.94774 0.32288 0.44452 0.0
H1602 H 0.86726 0.3385 0.41948 0.0
H1603 H 0.84498 0.33457 0.37847 0.0
C1604 C 0.96126 0.6761 0.50802 0.0
C1605 C 0.98461 0.69967 0.5305 0.0
C1606 C 0.0166 0.65483 0.54141 0.0
C1607 C 0.99493 0.63172 0.51674 0.0
N1608 N 0.95086 0.62311 0.47038 0.0
N1609 N 0.03973 0.7141 0.55813 0.0
C1610 C 0.96845 0.64314 0.49811 0.0
C1611 C 0.01398 0.68986 0.54381 0.0
N1612 N 0.93185 0.68449 0.49728 0.0
N1613 N 0.03831 0.64333 0.56432 0.0
H1614 H 0.03926 0.74031 0.55855 0.0
H1615 H 0.06258 0.70827 0.56565 0.0
H1616 H 0.03949 0.61749 0.56583 0.0
H1617 H 0.05236 0.65921 0.58471 0.0
H1618 H 0.91268 0.66687 0.48395 0.0
H1619 H 0.92573 0.70832 0.50404 0.0
H1620 H 0.93321 0.63153 0.45403 0.0
H1621 H 0.95623 0.59945 0.46155 0.0
C1622 C 0.58023 0.76038 0.81721 0.0
C1623 C 0.58722 0.75919 0.85365 0.0
C1624 C 0.63626 0.73609 0.84361 0.0
C1625 C 0.63287 0.74429 0.80881 0.0
N1626 N 0.60245 0.7661 0.76217 0.0
N1627 N 0.62568 0.75141 0.90196 0.0
C1628 C 0.60486 0.75653 0.79525 0.0
C1629 C 0.61605 0.74805 0.86705 0.0
N1630 N 0.54993 0.76412 0.80347 0.0
N1631 N 0.65938 0.71742 0.85435 0.0
H1632 H 0.61325 0.76281 0.92027 0.0
H1633 H 0.64813 0.74659 0.91242 0.0
H1634 H 0.67442 0.70811 0.83741 0.0
H1635 H 0.66103 0.70812 0.87876 0.0
H1636 H 0.54285 0.76218 0.77684 0.0
H1637 H 0.53084 0.7655 0.81852 0.0
H1638 H 0.58449 0.77925 0.75248 0.0
H1639 H 0.61957 0.76263 0.7451 0.0
C1640 C 0.44514 0.59491 0.65888 0.0
C1641 C 0.43967 0.56923 0.68216 0.0
C1642 C 0.48001 0.5396 0.65686 0.0
C1643 C 0.4816 0.56204 0.62994 0.0
N1644 N 0.46124 0.60885 0.60288 0.0
N1645 N 0.45012 0.51566 0.70239 0.0
C1646 C 0.46337 0.58948 0.63048 0.0
C1647 C 0.45662 0.54114 0.68088 0.0
N1648 N 0.43251 0.62433 0.66363 0.0
N1649 N 0.50179 0.51764 0.66024 0.0
H1650 H 0.43422 0.51657 0.72135 0.0
H1651 H 0.45875 0.49257 0.69986 0.0
H1652 H 0.52019 0.51704 0.64412 0.0
H1653 H 0.50392 0.50282 0.68112 0.0
H1654 H 0.43882 0.64578 0.65018 0.0
H1655 H 0.41783 0.62846 0.68317 0.0
H1656 H 0.44637 0.62732 0.60091 0.0
H1657 H 0.47139 0.60449 0.57997 0.0
C1658 C 0.75865 0.22259 0.89931 0.0
C1659 C 0.78593 0.23092 0.92503 0.0
C1660 C 0.80894 0.27741 0.89131 0.0
C1661 C 0.77987 0.27168 0.86791 0.0
N1662 N 0.72448 0.2427 0.85407 0.0
N1663 N 0.83494 0.26983 0.9481 0.0
C1664 C 0.75406 0.24519 0.87304 0.0
C1665 C 0.81065 0.25916 0.92162 0.0
N1666 N 0.73748 0.1925 0.89945 0.0
N1667 N 0.83542 0.29957 0.88411 0.0
H1668 H 0.83709 0.25741 0.97074 0.0
H1669 H 0.85142 0.29267 0.94893 0.0
H1670 H 0.835 0.31351 0.86254 0.0
H1671 H 0.85842 0.30182 0.8977 0.0
H1672 H 0.71836 0.18375 0.88008 0.0
H1673 H 0.74113 0.17442 0.91697 0.0
H1674 H 0.70369 0.22635 0.8591 0.0
H1675 H 0.71999 0.2593 0.8353 0.0
C1676 C 0.05721 0.45782 0.15784 0.0
C1677 C 0.05521 0.47992 0.18774 0.0
C1678 C 0.03886 0.52276 0.15011 0.0
C1679 C 0.03787 0.49952 0.12025 0.0
N1680 N 0.04226 0.44315 0.09582 0.0
N1681 N 0.04023 0.53181 0.21262 0.0
C1682 C 0.04613 0.46656 0.12415 0.0
C1683 C 0.04459 0.51175 0.18391 0.0
N1684 N 0.07004 0.42864 0.16164 0.0
N1685 N 0.03657 0.55624 0.14622 0.0
H1686 H 0.04613 0.52606 0.23795 0.0
H1687 H 0.02857 0.55298 0.21137 0.0
H1688 H 0.03416 0.5657 0.12205 0.0
H1689 H 0.04061 0.57543 0.16667 0.0
H1690 H 0.0757 0.4134 0.14093 0.0
H1691 H 0.077 0.42075 0.18587 0.0
H1692 H 0.0445 0.41754 0.09727 0.0
H1693 H 0.03428 0.44864 0.07091 0.0
C1694 C 0.78727 0.88806 0.43662 0.0
C1695 C 0.79073 0.87326 0.46871 0.0
C1696 C 0.79793 0.81919 0.43855 0.0
C1697 C 0.79499 0.83433 0.40682 0.0
N1698 N 0.79362 0.88426 0.37523 0.0
N1699 N 0.80472 0.82712 0.50138 0.0
C1700 C 0.79187 0.86917 0.40575 0.0
C1701 C 0.798 0.83961 0.47008 0.0
N1702 N 0.77883 0.91983 0.43547 0.0
N1703 N 0.79951 0.78501 0.43833 0.0
H1704 H 0.80338 0.84043 0.52515 0.0
H1705 H 0.81371 0.80442 0.50406 0.0
H1706 H 0.80095 0.76974 0.41569 0.0
H1707 H 0.79765 0.77127 0.46008 0.0
H1708 H 0.7716 0.92995 0.41259 0.0
H1709 H 0.77713 0.93558 0.45753 0.0
H1710 H 0.79521 0.91051 0.37346 0.0
H1711 H 0.79626 0.87098 0.35181 0.0
C1712 C 0.39776 0.50182 0.85304 0.0
C1713 C 0.41371 0.52308 0.82982 0.0
C1714 C 0.45915 0.54389 0.87477 0.0
C1715 C 0.44427 0.5208 0.89715 0.0
N1716 N 0.4016 0.47502 0.90704 0.0
N1717 N 0.46145 0.55989 0.81585 0.0
C1718 C 0.41429 0.4988 0.88604 0.0
C1719 C 0.44486 0.54309 0.83998 0.0
N1720 N 0.36622 0.48587 0.84422 0.0
N1721 N 0.48705 0.5664 0.88665 0.0
H1722 H 0.45195 0.5592 0.78996 0.0
H1723 H 0.48563 0.57197 0.82054 0.0
H1724 H 0.49969 0.56624 0.91107 0.0
H1725 H 0.49676 0.58664 0.87309 0.0
H1726 H 0.35204 0.47313 0.86142 0.0
H1727 H 0.35313 0.48764 0.82039 0.0
H1728 H 0.38222 0.45533 0.89864 0.0
H1729 H 0.41163 0.47357 0.93241 0.0
C1730 C 0.78241 0.20723 0.12553 0.0
C1731 C 0.7995 0.23086 0.10491 0.0
C1732 C 0.80223 0.27707 0.15184 0.0
C1733 C 0.78627 0.25313 0.17266 0.0
N1734 N 0.76835 0.19405 0.18257 0.0
N1735 N 0.83195 0.2864 0.10171 0.0
C1736 C 0.7786 0.21783 0.16046 0.0
C1737 C 0.81124 0.26528 0.11908 0.0
N1738 N 0.76795 0.17514 0.11144 0.0
N1739 N 0.80776 0.31124 0.16281 0.0
H1740 H 0.83976 0.27835 0.07828 0.0
H1741 H 0.84387 0.31066 0.11203 0.0
H1742 H 0.80195 0.32059 0.18678 0.0
H1743 H 0.8159 0.33044 0.14723 0.0
H1744 H 0.75136 0.15892 0.12368 0.0
H1745 H 0.77025 0.16531 0.0865 0.0
H1746 H 0.76656 0.16772 0.17672 0.0
H1747 H 0.7645 0.2006 0.20805 0.0
C1748 C 0.03657 0.48698 0.36684 0.0
C1749 C 0.06183 0.51301 0.3593 0.0
C1750 C 0.04979 0.55109 0.4076 0.0
C1751 C 0.02687 0.52399 0.41719 0.0
N1752 N 1.00131 0.46439 0.40873 0.0
N1753 N 0.09668 0.56747 0.37683 0.0
C1754 C 0.02109 0.49141 0.3976 0.0
C1755 C 0.06954 0.54448 0.38087 0.0
N1756 N 0.0261 0.45876 0.34373 0.0
N1757 N 0.05221 0.58338 0.42356 0.0
H1758 H 0.1131 0.56236 0.35953 0.0
H1759 H 0.10485 0.58993 0.39298 0.0
H1760 H 0.03795 0.58909 0.44298 0.0
H1761 H 0.06602 0.60503 0.41543 0.0
H1762 H 0.00542 0.44081 0.3458 0.0
H1763 H 0.03625 0.45475 0.32066 0.0
H1764 H 0.99949 0.43914 0.39826 0.0
H1765 H 0.98868 0.46661 0.43036 0.0
C1766 C 0.7438 0.86772 0.64752 0.0
C1767 C 0.7345 0.85175 0.61336 0.0
C1768 C 0.72143 0.79584 0.6368 0.0
C1769 C 0.72956 0.81242 0.67066 0.0
N1770 N 0.73682 0.86489 0.70806 0.0
N1771 N 0.70593 0.80229 0.57621 0.0
C1772 C 0.73661 0.84865 0.67584 0.0
C1773 C 0.7206 0.81624 0.60815 0.0
N1774 N 0.76187 0.89999 0.65338 0.0
N1775 N 0.7157 0.76087 0.63196 0.0
H1776 H 0.70358 0.81681 0.55507 0.0
H1777 H 0.69316 0.77726 0.57167 0.0
H1778 H 0.71522 0.7455 0.65266 0.0
H1779 H 0.71326 0.74733 0.60759 0.0
H1780 H 0.77188 0.91089 0.67809 0.0
H1781 H 0.77029 0.91447 0.63381 0.0
H1782 H 0.73899 0.89143 0.71266 0.0
H1783 H 0.73089 0.85149 0.7292 0.0
C1784 C 0.63935 0.48573 0.53021 0.0
C1785 C 0.63693 0.45771 0.55121 0.0
C1786 C 0.59677 0.4831 0.58281 0.0
C1787 C 0.59885 0.51044 0.56107 0.0
N1788 N 0.6333 0.54494 0.5263 0.0
N1789 N 0.61968 0.43476 0.60357 0.0
C1790 C 0.62355 0.51398 0.53848 0.0
C1791 C 0.61742 0.45785 0.57935 0.0
N1792 N 0.6552 0.48483 0.50115 0.0
N1793 N 0.57549 0.48181 0.60729 0.0
H1794 H 0.63551 0.41712 0.60277 0.0
H1795 H 0.60811 0.43478 0.62606 0.0
H1796 H 0.5628 0.50178 0.61245 0.0
H1797 H 0.5695 0.46081 0.62143 0.0
H1798 H 0.65453 0.50293 0.48305 0.0
H1799 H 0.66623 0.46433 0.49324 0.0
H1800 H 0.65312 0.54981 0.51206 0.0
H1801 H 0.62421 0.56678 0.53423 0.0
C1802 C 0.15307 0.05431 0.49707 0.0
C1803 C 0.15977 0.08417 0.47906 0.0
C1804 C 0.10261 0.09016 0.47529 0.0
C1805 C 0.09559 0.05944 0.49192 0.0
N1806 N 0.11231 0.00713 0.50888 0.0
N1807 N 0.13974 0.12397 0.44203 0.0
C1808 C 0.12026 0.03981 0.49964 0.0
C1809 C 0.13407 0.09985 0.46513 0.0
N1810 N 0.17775 0.04105 0.51374 0.0
N1811 N 0.08023 0.11141 0.47122 0.0
H1812 H 0.16252 0.13111 0.43355 0.0
H1813 H 0.12124 0.13396 0.42856 0.0
H1814 H 0.05713 0.10643 0.47932 0.0
H1815 H 0.08574 0.13588 0.46292 0.0
H1816 H 0.17379 0.02179 0.53049 0.0
H1817 H 0.20226 0.05107 0.51343 0.0
H1818 H 0.12909 0.9906 0.51166 0.0
H1819 H 0.08835 0.99532 0.51007 0.0
C1820 C 0.21237 0.90508 0.74534 0.0
C1821 C 0.20976 0.91906 0.77948 0.0
C1822 C 0.25016 0.88613 0.80292 0.0
C1823 C 0.24846 0.8681 0.76962 0.0
N1824 N 0.22841 0.85978 0.70896 0.0
N1825 N 0.2248 0.92185 0.84136 0.0
C1826 C 0.22985 0.87757 0.7407 0.0
C1827 C 0.22873 0.9098 0.80842 0.0
N1828 N 0.19918 0.91907 0.71736 0.0
N1829 N 0.27198 0.88032 0.8294 0.0
H1830 H 0.20846 0.93809 0.84683 0.0
H1831 H 0.23574 0.9137 0.8637 0.0
H1832 H 0.28738 0.86244 0.82691 0.0
H1833 H 0.27698 0.89519 0.8531 0.0
H1834 H 0.20243 0.912 0.69178 0.0
H1835 H 0.18765 0.94032 0.71988 0.0
H1836 H 0.21201 0.8623 0.68781 0.0
H1837 H 0.24255 0.84097 0.70433 0.0
C1838 C 0.3413 0.95285 0.0583 0.0
C1839 C 0.31854 0.93827 0.02973 0.0
C1840 C 0.3587 0.95585 0.98953 0.0
C1841 C 0.38267 0.96703 0.01842 0.0
N1842 N 0.39724 0.97346 0.0809 0.0
N1843 N 0.30497 0.92421 0.96811 0.0
C1844 C 0.37413 0.96471 0.05296 0.0
C1845 C 0.32689 0.93978 0.99527 0.0
N1846 N 0.33105 0.95662 0.09053 0.0
N1847 N 0.36645 0.95992 0.9565 0.0
H1848 H 0.28105 0.91375 0.97102 0.0
H1849 H 0.31068 0.92009 0.94285 0.0
H1850 H 0.39009 0.96758 0.95057 0.0
H1851 H 0.34927 0.95693 0.93482 0.0
H1852 H 0.34537 0.97049 0.11194 0.0
H1853 H 0.30696 0.94888 0.09515 0.0
H1854 H 0.39329 0.96759 0.106 0.0
H1855 H 0.42112 0.98473 0.07927 0.0
C1856 C 0.81719 0.65248 0.78664 0.0
C1857 C 0.84418 0.66091 0.76765 0.0
C1858 C 0.81543 0.70154 0.73764 0.0
C1859 C 0.79111 0.69752 0.76092 0.0
N1860 N 0.77258 0.67211 0.81209 0.0
N1861 N 0.87088 0.69704 0.72796 0.0
C1862 C 0.79294 0.67371 0.78661 0.0
C1863 C 0.84383 0.68643 0.7439 0.0
N1864 N 0.81411 0.6235 0.80395 0.0
N1865 N 0.81078 0.71808 0.7084 0.0
H1866 H 0.89204 0.68658 0.7318 0.0
H1867 H 0.8732 0.71819 0.7134 0.0
H1868 H 0.78983 0.72811 0.70174 0.0
H1869 H 0.8262 0.71856 0.6889 0.0
H1870 H 0.79321 0.61393 0.81501 0.0
H1871 H 0.83083 0.60675 0.80387 0.0
H1872 H 0.77407 0.65636 0.83226 0.0
H1873 H 0.75673 0.68921 0.81596 0.0
C1874 C 0.85129 0.5762 0.03302 0.0
C1875 C 0.8238 0.55296 0.01701 0.0
C1876 C 0.85572 0.50671 0.01567 0.0
C1877 C 0.88412 0.53136 0.02645 0.0
N1878 N 0.9095 0.5913 0.03753 0.0
N1879 N 0.799 0.49644 0.99159 0.0
C1880 C 0.88217 0.56657 0.03342 0.0
C1881 C 0.82561 0.51812 0.0082 0.0
N1882 N 0.84787 0.60754 0.04784 0.0
N1883 N 0.85754 0.47257 0.0131 0.0
H1884 H 0.77643 0.50393 0.98665 0.0
H1885 H 0.79971 0.47175 0.981 0.0
H1886 H 0.87931 0.46353 0.01846 0.0
H1887 H 0.83724 0.45318 0.00846 0.0
H1888 H 0.86683 0.6241 0.06284 0.0
H1889 H 0.82533 0.61534 0.04833 0.0
H1890 H 0.90873 0.61747 0.03938 0.0
H1891 H 0.93276 0.58627 0.03488 0.0
C1892 C 0.23023 0.11874 0.78909 0.0
C1893 C 0.19901 0.11294 0.80113 0.0
C1894 C 0.19741 0.17444 0.80307 0.0
C1895 C 0.22907 0.18047 0.79236 0.0
N1896 N 0.27871 0.15987 0.78336 0.0
N1897 N 0.15725 0.13593 0.82877 0.0
C1898 C 0.24651 0.15305 0.78809 0.0
C1899 C 0.18408 0.14109 0.81119 0.0
N1900 N 0.24347 0.09176 0.77652 0.0
N1901 N 0.17919 0.19995 0.80332 0.0
H1902 H 0.1473 0.11182 0.83572 0.0
H1903 H 0.14707 0.15591 0.83956 0.0
H1904 H 0.18761 0.22425 0.796 0.0
H1905 H 0.15474 0.19607 0.80745 0.0
H1906 H 0.2643 0.09475 0.76369 0.0
H1907 H 0.23237 0.06624 0.77634 0.0
H1908 H 0.29356 0.14129 0.78326 0.0
H1909 H 0.29129 0.18481 0.78302 0.0
C1910 C 0.31642 0.96997 0.23302 0.0
C1911 C 0.34627 0.98399 0.25335 0.0
C1912 C 0.33581 0.93984 0.29389 0.0
C1913 C 0.30882 0.92307 0.2708 0.0
N1914 N 0.27393 0.92029 0.2173 0.0
N1915 N 0.38724 0.97853 0.29986 0.0
C1916 C 0.29916 0.93767 0.24007 0.0
C1917 C 0.35657 0.96825 0.28324 0.0
N1918 N 0.30413 0.98798 0.20771 0.0
N1919 N 0.34202 0.92817 0.32568 0.0
H1920 H 0.40405 0.99771 0.29161 0.0
H1921 H 0.39724 0.96573 0.31957 0.0
H1922 H 0.32766 0.90689 0.33394 0.0
H1923 H 0.35946 0.94144 0.345 0.0
H1924 H 0.28107 0.98062 0.19419 0.0
H1925 H 0.31577 0.01205 0.20238 0.0
H1926 H 0.26808 0.92755 0.19256 0.0
H1927 H 0.25977 0.89742 0.22251 0.0
C1928 C 0.52222 0.36284 0.59911 0.0
C1929 C 0.49404 0.34888 0.61415 0.0
C1930 C 0.46327 0.38878 0.58595 0.0
C1931 C 0.49164 0.40323 0.57149 0.0
N1932 N 0.54534 0.39901 0.55677 0.0
N1933 N 0.43604 0.34171 0.61485 0.0
C1934 C 0.52026 0.38857 0.5757 0.0
C1935 C 0.46396 0.35967 0.60524 0.0
N1936 N 0.55111 0.35251 0.60836 0.0
N1937 N 0.43634 0.40404 0.58305 0.0
H1938 H 0.43585 0.31992 0.62839 0.0
H1939 H 0.4129 0.34626 0.60663 0.0
H1940 H 0.43467 0.42492 0.56857 0.0
H1941 H 0.41636 0.39739 0.59665 0.0
H1942 H 0.57339 0.36464 0.60187 0.0
H1943 H 0.55307 0.33269 0.62423 0.0
H1944 H 0.56576 0.38733 0.5561 0.0
H1945 H 0.54437 0.41751 0.53909 0.0
C1946 C 0.41965 0.75796 0.29975 0.0
C1947 C 0.43283 0.77809 0.33119 0.0
C1948 C 0.38118 0.79898 0.33452 0.0
C1949 C 0.36829 0.7804 0.30203 0.0
N1950 N 0.37751 0.74719 0.25068 0.0
N1951 N 0.42892 0.82388 0.37391 0.0
C1952 C 0.3882 0.76126 0.28376 0.0
C1953 C 0.41442 0.8005 0.34706 0.0
N1954 N 0.43672 0.7349 0.28578 0.0
N1955 N 0.36129 0.81353 0.35472 0.0
H1956 H 0.45314 0.82571 0.38398 0.0
H1957 H 0.41795 0.84363 0.38388 0.0
H1958 H 0.33671 0.8126 0.34733 0.0
H1959 H 0.3684 0.82362 0.38033 0.0
H1960 H 0.42709 0.71665 0.2652 0.0
H1961 H 0.46 0.73256 0.29631 0.0
H1962 H 0.39198 0.73583 0.23462 0.0
H1963 H 0.35497 0.74953 0.23811 0.0
C1964 C 0.98022 0.65428 0.10637 0.0
C1965 C 0.99944 0.68551 0.09975 0.0
C1966 C 0.02865 0.65362 0.06054 0.0
C1967 C 0.01316 0.62227 0.07156 0.0
N1968 N 0.97547 0.59279 0.10708 0.0
N1969 N 0.04509 0.71491 0.07399 0.0
C1970 C 0.98911 0.62258 0.0949 0.0
C1971 C 0.02438 0.68524 0.07757 0.0
N1972 N 0.95283 0.65492 0.12263 0.0
N1973 N 0.0467 0.65327 0.03309 0.0
H1974 H 0.04321 0.73862 0.08631 0.0
H1975 H 0.06592 0.71551 0.06132 0.0
H1976 H 0.04966 0.63069 0.01922 0.0
H1977 H 0.05579 0.67533 0.02172 0.0
H1978 H 0.93588 0.63308 0.12491 0.0
H1979 H 0.94536 0.6777 0.1308 0.0
H1980 H 0.96074 0.5918 0.1272 0.0
H1981 H 0.98083 0.56914 0.09872 0.0
C1982 C 0.14588 0.29542 0.82755 0.0
C1983 C 0.11753 0.29809 0.8057 0.0
C1984 C 0.1507 0.30824 0.75751 0.0
C1985 C 0.17745 0.29798 0.77688 0.0
N1986 N 0.20074 0.2842 0.83248 0.0
N1987 N 0.09243 0.307 0.7495 0.0
C1988 C 0.17537 0.29301 0.81273 0.0
C1989 C 0.11984 0.30469 0.7706 0.0
N1990 N 0.14465 0.2951 0.86259 0.0
N1991 N 0.15522 0.32292 0.72721 0.0
H1992 H 0.06976 0.30626 0.75861 0.0
H1993 H 0.09189 0.30763 0.72269 0.0
H1994 H 0.17808 0.32843 0.71841 0.0
H1995 H 0.13745 0.33352 0.71328 0.0
H1996 H 0.16517 0.29737 0.88053 0.0
H1997 H 0.12332 0.29548 0.8742 0.0
H1998 H 0.19874 0.27409 0.85631 0.0
H1999 H 0.22351 0.28551 0.82434 0.0
C2000 C 0.47746 0.65776 0.99721 0.0
C2001 C 0.50528 0.68371 0.00573 0.0
C2002 C 0.53457 0.64335 0.03451 0.0
C2003 C 0.50591 0.61814 0.02839 0.0
N2004 N 0.44904 0.60177 0.00781 0.0
N2005 N 0.55856 0.70342 0.03653 0.0
C2006 C 0.47701 0.62545 0.01083 0.0
C2007 C 0.53329 0.67718 0.02571 0.0
N2008 N 0.45185 0.66374 0.97536 0.0
N2009 N 0.56334 0.63462 0.04735 0.0
H2010 H 0.55884 0.72846 0.02988 0.0
H2011 H 0.57807 0.70109 0.05438 0.0
H2012 H 0.56548 0.61014 0.05426 0.0
H2013 H 0.58572 0.65075 0.04838 0.0
H2014 H 0.43259 0.64469 0.96474 0.0
H2015 H 0.4508 0.68753 0.96606 0.0
H2016 H 0.4263 0.60688 0.99881 0.0
H2017 H 0.44819 0.57741 0.01643 0.0
C2018 C 0.08498 0.75629 0.66225 0.0
C2019 C 0.08134 0.79034 0.65616 0.0
C2020 C 0.12669 0.81297 0.70052 0.0
C2021 C 0.13297 0.77913 0.70328 0.0
N2022 N 0.1211 0.71884 0.68317 0.0
N2023 N 0.09962 0.85137 0.66693 0.0
C2024 C 0.11273 0.75074 0.68352 0.0
C2025 C 0.10244 0.81882 0.6746 0.0
N2026 N 0.06192 0.72925 0.64769 0.0
N2027 N 0.14316 0.83926 0.72351 0.0
H2028 H 0.08135 0.85657 0.64894 0.0
H2029 H 0.11656 0.873 0.67663 0.0
H2030 H 0.16033 0.83563 0.74356 0.0
H2031 H 0.13768 0.86394 0.72491 0.0
H2032 H 0.0614 0.7042 0.65427 0.0
H2033 H 0.04167 0.73212 0.63109 0.0
H2034 H 0.10942 0.69811 0.66605 0.0
H2035 H 0.14153 0.71353 0.69781 0.0
C2036 C 0.05737 0.39179 0.45884 0.0
C2037 C 0.03643 0.36304 0.4681 0.0
C2038 C 0.01536 0.40015 0.51041 0.0
C2039 C 0.03157 0.42925 0.49618 0.0
N2040 N 0.06577 0.45257 0.45345 0.0
N2041 N 0.99439 0.3392 0.50216 0.0
C2042 C 0.05248 0.42517 0.4699 0.0
C2043 C 0.01548 0.36687 0.49421 0.0
N2044 N 0.082 0.38706 0.43939 0.0
N2045 N 1.0002 0.40439 0.53962 0.0
H2046 H 0.99404 0.31432 0.49144 0.0
H2047 H 0.97574 0.34116 0.51764 0.0
H2048 H 1.0001 0.42849 0.55225 0.0
H2049 H 0.99054 0.38411 0.55318 0.0
H2050 H 0.10011 0.40695 0.43463 0.0
H2051 H 0.08626 0.36272 0.43117 0.0
H2052 H 0.07768 0.45005 0.43134 0.0
H2053 H 0.06242 0.47762 0.45933 0.0
C2054 C 0.40213 0.33636 0.17876 0.0
C2055 C 0.4191 0.30819 0.17927 0.0
C2056 C 0.40791 0.30085 0.23937 0.0
C2057 C 0.38621 0.32442 0.23618 0.0
N2058 N 0.37589 0.37605 0.21192 0.0
N2059 N 0.44016 0.26447 0.21035 0.0
C2060 C 0.38734 0.34584 0.20858 0.0
C2061 C 0.42328 0.29117 0.21001 0.0
N2062 N 0.39973 0.35358 0.14963 0.0
N2063 N 0.41416 0.28858 0.27083 0.0
H2064 H 0.45077 0.25573 0.18903 0.0
H2065 H 0.44228 0.24942 0.231 0.0
H2066 H 0.40453 0.29744 0.29288 0.0
H2067 H 0.43117 0.27281 0.27614 0.0
H2068 H 0.38446 0.37148 0.14596 0.0
H2069 H 0.41207 0.3489 0.12821 0.0
H2070 H 0.37752 0.39404 0.19369 0.0
H2071 H 0.36854 0.38511 0.23523 0.0
C2072 C 0.60134 0.53446 0.41125 0.0
C2073 C 0.58862 0.51085 0.38222 0.0
C2074 C 0.53811 0.49399 0.40879 0.0
C2075 C 0.55064 0.51811 0.43772 0.0
N2076 N 0.59332 0.5629 0.46581 0.0
N2077 N 0.54734 0.4655 0.35376 0.0
C2078 C 0.58201 0.53871 0.43871 0.0
C2079 C 0.55761 0.48986 0.38106 0.0
N2080 N 0.63264 0.55179 0.41325 0.0
N2081 N 0.50701 0.47639 0.40722 0.0
H2082 H 0.5611 0.4622 0.33319 0.0
H2083 H 0.52625 0.4473 0.35203 0.0
H2084 H 0.49208 0.47939 0.42678 0.0
H2085 H 0.49507 0.46026 0.38597 0.0
H2086 H 0.64521 0.56571 0.43559 0.0
H2087 H 0.6473 0.55059 0.39316 0.0
H2088 H 0.61247 0.5831 0.46522 0.0
H2089 H 0.58324 0.56322 0.48915 0.0
C2090 C 0.26979 0.84775 0.14114 0.0
C2091 C 0.24183 0.83215 0.11837 0.0
C2092 C 0.23165 0.78627 0.15742 0.0
C2093 C 0.26162 0.79987 0.17801 0.0
N2094 N 0.31192 0.83999 0.18587 0.0
N2095 N 0.19705 0.78532 0.1034 0.0
C2096 C 0.28138 0.82973 0.16894 0.0
C2097 C 0.22305 0.80103 0.12616 0.0
N2098 N 0.2852 0.87992 0.13642 0.0
N2099 N 0.2108 0.75991 0.16826 0.0
H2100 H 0.18844 0.79654 0.08169 0.0
H2101 H 0.18499 0.76045 0.10497 0.0
H2102 H 0.21635 0.74744 0.19016 0.0
H2103 H 0.18692 0.75198 0.1571 0.0
H2104 H 0.30392 0.89391 0.15387 0.0
H2105 H 0.27712 0.89409 0.11686 0.0
H2106 H 0.32886 0.85956 0.17839 0.0
H2107 H 0.32142 0.82672 0.20555 0.0
C2108 C 0.9558 0.60704 0.89037 0.0
C2109 C 0.95837 0.58678 0.85941 0.0
C2110 C 0.99261 0.55298 0.89275 0.0
C2111 C 0.98976 0.57307 0.92378 0.0
N2112 N 0.97531 0.62385 0.95123 0.0
N2113 N 0.98483 0.54564 0.82967 0.0
C2114 C 0.97344 0.60163 0.92222 0.0
C2115 C 0.97892 0.56169 0.86014 0.0
N2116 N 0.93569 0.63085 0.88943 0.0
N2117 N 0.00624 0.52405 0.89462 0.0
H2118 H 0.97438 0.55041 0.80546 0.0
H2119 H 1.00217 0.52977 0.82808 0.0
H2120 H 0.01645 0.51666 0.91779 0.0
H2121 H 0.0054 0.50592 0.87367 0.0
H2122 H 0.92932 0.64346 0.91149 0.0
H2123 H 0.92417 0.63698 0.86628 0.0
H2124 H 0.96651 0.64688 0.95138 0.0
H2125 H 0.98834 0.62069 0.97472 0.0
C2126 C 0.27716 0.17303 0.59701 0.0
C2127 C 0.27835 0.19056 0.56648 0.0
C2128 C 0.26955 0.24292 0.59868 0.0
C2129 C 0.26447 0.22412 0.62792 0.0
N2130 N 0.26178 0.17107 0.65532 0.0
N2131 N 0.27233 0.24083 0.53662 0.0
C2132 C 0.26771 0.18908 0.62719 0.0
C2133 C 0.27403 0.22529 0.56688 0.0
N2134 N 0.28642 0.14155 0.59751 0.0
N2135 N 0.27001 0.27756 0.60128 0.0
H2136 H 0.27569 0.22895 0.51277 0.0
H2137 H 0.26524 0.2646 0.53456 0.0
H2138 H 0.26494 0.2911 0.62354 0.0
H2139 H 0.27748 0.2933 0.58222 0.0
H2140 H 0.2898 0.12921 0.61999 0.0
H2141 H 0.29366 0.12889 0.57594 0.0
H2142 H 0.25942 0.14449 0.65464 0.0
H2143 H 0.25742 0.18227 0.67911 0.0
C2144 C 0.60299 0.47729 0.19358 0.0
C2145 C 0.60455 0.50218 0.22203 0.0
C2146 C 0.59297 0.54482 0.18238 0.0
C2147 C 0.58616 0.5187 0.15464 0.0
N2148 N 0.58589 0.45975 0.13289 0.0
N2149 N 0.59908 0.55911 0.24439 0.0
C2150 C 0.59195 0.48493 0.15977 0.0
C2151 C 0.59929 0.53591 0.21667 0.0
N2152 N 0.61312 0.4468 0.19875 0.0
N2153 N 0.59448 0.57837 0.17562 0.0
H2154 H 0.60368 0.55371 0.27001 0.0
H2155 H 0.5917 0.58273 0.24217 0.0
H2156 H 0.59121 0.58575 0.15044 0.0
H2157 H 0.60247 0.59898 0.19429 0.0
H2158 H 0.61677 0.42942 0.17876 0.0
H2159 H 0.62031 0.43978 0.22325 0.0
H2160 H 0.58504 0.43383 0.13612 0.0
H2161 H 0.58092 0.46416 0.10709 0.0
C2162 C 0.22821 0.79843 0.93698 0.0
C2163 C 0.21747 0.83044 0.94114 0.0
C2164 C 0.20715 0.8295 0.87742 0.0
C2165 C 0.22359 0.80095 0.87359 0.0
N2166 N 0.24878 0.75721 0.8996 0.0
N2167 N 0.19643 0.87691 0.91526 0.0
C2168 C 0.2336 0.785 0.90339 0.0
C2169 C 0.20608 0.84571 0.91135 0.0
N2170 N 0.23244 0.78049 0.96533 0.0
N2171 N 0.19325 0.84176 0.84869 0.0
H2172 H 0.19544 0.88987 0.93928 0.0
H2173 H 0.19076 0.89114 0.89479 0.0
H2174 H 0.1957 0.83298 0.82337 0.0
H2175 H 0.17735 0.85926 0.84976 0.0
H2176 H 0.23747 0.75564 0.96403 0.0
H2177 H 0.22759 0.78925 0.98994 0.0
H2178 H 0.26059 0.74714 0.92025 0.0
H2179 H 0.25079 0.74494 0.87542 0.0
C2180 C 0.9974 0.54848 0.67281 0.0
C2181 C 0.96459 0.55339 0.67144 0.0
C2182 C 0.9607 0.54689 0.60741 0.0
C2183 C 0.99347 0.54105 0.6088 0.0
N2184 N 0.03731 0.52314 0.64379 0.0
N2185 N 0.91283 0.54961 0.63724 0.0
C2186 C 0.01014 0.53804 0.64183 0.0
C2187 C 0.94568 0.55069 0.63867 0.0
N2188 N 0.01698 0.5549 0.7036 0.0
N2189 N 0.94354 0.54887 0.57636 0.0
H2190 H 0.90077 0.55203 0.65924 0.0
H2191 H 0.89703 0.54339 0.61445 0.0
H2192 H 0.94995 0.53866 0.55339 0.0
H2193 H 0.92269 0.55994 0.57376 0.0
H2194 H 0.04196 0.55519 0.70542 0.0
H2195 H 0.00895 0.56346 0.72673 0.0
H2196 H 0.04885 0.51758 0.66714 0.0
H2197 H 0.04559 0.512 0.62198 0.0
C2198 C 0.29039 0.18309 0.38083 0.0
C2199 C 0.26854 0.18573 0.40614 0.0
C2200 C 0.25921 0.24124 0.38764 0.0
C2201 C 0.2796 0.23774 0.36105 0.0
N2202 N 0.3234 0.21192 0.34037 0.0
N2203 N 0.241 0.22181 0.4413 0.0
C2204 C 0.2984 0.21105 0.36053 0.0
C2205 C 0.25578 0.21633 0.41203 0.0
N2206 N 0.30169 0.15309 0.37444 0.0
N2207 N 0.24234 0.26789 0.38879 0.0
H2208 H 0.23873 0.20434 0.46011 0.0
H2209 H 0.23386 0.24493 0.44869 0.0
H2210 H 0.24627 0.28791 0.37288 0.0
H2211 H 0.22373 0.26947 0.4044 0.0
H2212 H 0.31449 0.1482 0.3535 0.0
H2213 H 0.29613 0.13183 0.3884 0.0
H2214 H 0.33967 0.19475 0.34153 0.0
H2215 H 0.33013 0.23163 0.32491 0.0
C2216 C 0.40752 0.60019 0.47111 0.0
C2217 C 0.3927 0.60896 0.50124 0.0
C2218 C 0.41681 0.56487 0.5311 0.0
C2219 C 0.43571 0.56035 0.50324 0.0
N2220 N 0.44891 0.57281 0.44616 0.0
N2221 N 0.38565 0.60148 0.56139 0.0
C2222 C 0.43077 0.57754 0.47292 0.0
C2223 C 0.39769 0.59149 0.53153 0.0
N2224 N 0.39836 0.61247 0.44036 0.0
N2225 N 0.41663 0.54317 0.55687 0.0
H2226 H 0.37274 0.62169 0.56347 0.0
H2227 H 0.39082 0.59184 0.58513 0.0
H2228 H 0.42974 0.52302 0.55692 0.0
H2229 H 0.40113 0.54286 0.57625 0.0
H2230 H 0.40581 0.60469 0.41672 0.0
H2231 H 0.38083 0.6282 0.4378 0.0
H2232 H 0.44966 0.58758 0.42509 0.0
H2233 H 0.46481 0.55518 0.446 0.0
C2234 C 0.85351 0.98061 0.5324 0.0
C2235 C 0.84455 0.98334 0.56674 0.0
C2236 C 0.89948 0.01448 0.58694 0.0
C2237 C 0.90929 0.00622 0.55383 0.0
N2238 N 0.897 0.97205 0.49856 0.0
N2239 N 0.85973 0.0012 0.62759 0.0
C2240 C 0.88671 0.98673 0.5275 0.0
C2241 C 0.86783 0.99971 0.59437 0.0
N2242 N 0.8308 0.9724 0.50415 0.0
N2243 N 0.91972 0.03731 0.61067 0.0
H2244 H 0.83619 0.99269 0.63357 0.0
H2245 H 0.87668 0.00926 0.64922 0.0
H2246 H 0.94261 0.04938 0.60569 0.0
H2247 H 0.91265 0.04666 0.63397 0.0
H2248 H 0.83678 0.97332 0.47876 0.0
H2249 H 0.80597 0.96867 0.50554 0.0
H2250 H 0.88145 0.95481 0.48035 0.0
H2251 H 0.92145 0.97347 0.49491 0.0
C2252 C 0.81845 0.15343 0.26372 0.0
C2253 C 0.79786 0.12109 0.26167 0.0
C2254 C 0.75589 0.14953 0.28527 0.0
C2255 C 0.77325 0.18218 0.27954 0.0
N2256 N 0.82358 0.21445 0.26461 0.0
N2257 N 0.74481 0.08877 0.26695 0.0
C2258 C 0.8052 0.18388 0.26909 0.0
C2259 C 0.76597 0.11923 0.27154 0.0
N2260 N 0.85129 0.15534 0.26335 0.0
N2261 N 0.73086 0.14722 0.30544 0.0
H2262 H 0.75083 0.06622 0.25596 0.0
H2263 H 0.72034 0.08683 0.27075 0.0
H2264 H 0.72536 0.16859 0.31937 0.0
H2265 H 0.71895 0.12393 0.31238 0.0
H2266 H 0.86783 0.17823 0.26857 0.0
H2267 H 0.86262 0.13389 0.26189 0.0
H2268 H 0.84311 0.21644 0.24976 0.0
H2269 H 0.81971 0.23743 0.27625 0.0
C2270 C 0.70241 0.09654 0.03714 0.0
C2271 C 0.70663 0.12344 0.01496 0.0
C2272 C 0.64767 0.1175 1.00162 0.0
C2273 C 0.64338 0.08908 0.02192 0.0
N2274 N 0.66679 0.04685 0.05291 0.0
N2275 N 0.68412 0.15388 0.96976 0.0
C2276 C 0.67079 0.07721 0.03799 0.0
C2277 C 0.67947 0.13209 0.99518 0.0
N2278 N 0.72827 0.09033 0.05846 0.0
N2279 N 0.62163 0.13199 0.99021 0.0
H2280 H 0.70719 0.16458 0.96409 0.0
H2281 H 0.66536 0.1584 0.95204 0.0
H2282 H 0.59804 0.12342 0.99588 0.0
H2283 H 0.62388 0.15481 0.97829 0.0
H2284 H 0.72591 0.07396 0.07819 0.0
H2285 H 0.75192 0.10335 0.05809 0.0
H2286 H 0.68613 0.03518 0.06179 0.0
H2287 H 0.64413 0.03161 0.05348 0.0
C2288 C 0.20403 0.39788 0.33497 0.0
C2289 C 0.17804 0.39901 0.30887 0.0
C2290 C 0.2003 0.35945 0.27051 0.0
C2291 C 0.22451 0.35504 0.2976 0.0
N2292 N 0.24311 0.36478 0.35895 0.0
N2293 N 0.14643 0.37193 0.25605 0.0
C2294 C 0.22442 0.37261 0.33088 0.0
C2295 C 0.17454 0.37682 0.27813 0.0
N2296 N 0.21064 0.42199 0.36279 0.0
N2297 N 0.20309 0.3501 0.23675 0.0
H2298 H 0.12627 0.3828 0.26148 0.0
H2299 H 0.14169 0.35362 0.23472 0.0
H2300 H 0.22387 0.34269 0.22923 0.0
H2301 H 0.18753 0.35536 0.21602 0.0
H2302 H 0.23134 0.42442 0.38053 0.0
H2303 H 0.19741 0.44177 0.36626 0.0
H2304 H 0.24144 0.37439 0.38427 0.0
H2305 H 0.25766 0.34597 0.35748 0.0
C2306 C 0.18207 0.51135 0.98404 0.0
C2307 C 0.19277 0.50229 0.01743 0.0
C2308 C 0.16229 0.54279 0.04387 0.0
C2309 C 0.14544 0.54425 0.01105 0.0
N2310 N 0.14071 0.5342 0.94912 0.0
N2311 N 0.19184 0.50884 0.07999 0.0
C2312 C 0.15634 0.53052 0.98073 0.0
C2313 C 0.18341 0.51862 0.04778 0.0
N2314 N 0.19659 0.50172 0.9558 0.0
N2315 N 0.15639 0.56327 0.07146 0.0
H2316 H 0.20564 0.48976 0.08442 0.0
H2317 H 0.18263 0.51751 0.1023 0.0
H2318 H 0.14029 0.5806 0.06852 0.0
H2319 H 0.16964 0.56552 0.09587 0.0
H2320 H 0.19143 0.5096 0.9312 0.0
H2321 H 0.21607 0.48842 0.95776 0.0
H2322 H 0.14466 0.52138 0.92599 0.0
H2323 H 0.1227 0.54943 0.94656 0.0
C2324 C 0.84441 0.92369 0.25418 0.0
C2325 C 0.82665 0.94087 0.23016 0.0
C2326 C 0.78104 0.8925 0.22503 0.0
C2327 C 0.80056 0.8739 0.24568 0.0
N2328 N 0.85351 0.86919 0.27327 0.0
N2329 N 0.77956 0.93979 0.18894 0.0
C2330 C 0.83299 0.88878 0.25843 0.0
C2331 C 0.79526 0.92484 0.21459 0.0
N2332 N 0.87151 0.94109 0.27417 0.0
N2333 N 0.74873 0.87982 0.21636 0.0
H2334 H 0.78927 0.96328 0.18048 0.0
H2335 H 0.75823 0.92763 0.17408 0.0
H2336 H 0.73751 0.85642 0.2238 0.0
H2337 H 0.73252 0.89379 0.20446 0.0
H2338 H 0.88343 0.9307 0.29456 0.0
H2339 H 0.87988 0.96711 0.27304 0.0
H2340 H 0.87833 0.8779 0.27976 0.0
H2341 H 0.8465 0.8431 0.27559 0.0
C2342 C 0.6862 0.0943 0.74092 0.0
C2343 C 0.68096 0.08342 0.77424 0.0
C2344 C 0.72152 0.13216 0.80084 0.0
C2345 C 0.72186 0.14627 0.76835 0.0
N2346 N 0.70105 0.14242 0.7076 0.0
N2347 N 0.69143 0.09393 0.83671 0.0
C2348 C 0.70361 0.12766 0.73825 0.0
C2349 C 0.69832 0.1026 0.80449 0.0
N2350 N 0.67513 0.07247 0.71182 0.0
N2351 N 0.74383 0.14664 0.82803 0.0
H2352 H 0.6742 0.07285 0.84065 0.0
H2353 H 0.70081 0.10937 0.85945 0.0
H2354 H 0.76147 0.16806 0.82604 0.0
H2355 H 0.74693 0.13534 0.85123 0.0
H2356 H 0.68094 0.07794 0.68711 0.0
H2357 H 0.6632 0.04737 0.7128 0.0
H2358 H 0.68492 0.13131 0.68616 0.0
H2359 H 0.71274 0.16704 0.70432 0.0
loop_
_geom_bond_atom_site_label_1
_geom_bond_atom_site_label_2
_geom_bond_distance
_geom_bond_site_symmetry_2
_ccdc_geom_bond_type
C0 O1 1.160 . S
C0 O7 1.185 . S
O1 C0 1.160 . S
O2 Zn3 1.899 . S
O2 C10 1.284 . S
Zn3 O2 1.899 . S
Zn3 O4 2.032 . S
Zn3 O7 2.086 . S
Zn3 O12 1.977 1_455 S
O4 Zn3 2.032 . S
O4 C8 1.278 . S
C5 O6 1.203 . S
C5 O12 1.267 . S
O6 C5 1.203 . S
O7 C0 1.185 . S
O7 Zn3 2.086 . S
C8 O4 1.278 . S
C8 O9 1.211 1_455 S
O9 C8 1.211 1_655 S
C10 O2 1.284 . S
C10 O11 1.273 . S
O11 C10 1.273 . S
O12 Zn3 1.977 1_655 S
O12 C5 1.267 . S
C13 O14 1.160 . S
C13 O20 1.185 . S
O14 C13 1.160 . S
O15 Zn16 1.899 . S
O15 C23 1.284 . S
Zn16 O15 1.899 . S
Zn16 O17 2.032 . S
Zn16 O20 2.086 . S
Zn16 O25 1.977 1_655 S
O17 Zn16 2.032 . S
O17 C21 1.278 1_655 S
C18 O19 1.203 . S
C18 O25 1.267 . S
O19 C18 1.203 . S
O20 C13 1.185 . S
O20 Zn16 2.086 . S
C21 O17 1.278 1_455 S
C21 O22 1.211 . S
O22 C21 1.211 . S
C23 O15 1.284 . S
C23 O24 1.273 1_655 S
O24 C23 1.273 1_455 S
O25 Zn16 1.977 1_455 S
O25 C18 1.267 . S
C26 O27 1.160 . S
C26 O33 1.185 . S
O27 C26 1.160 . S
O28 Zn29 1.899 . S
O28 C36 1.284 . S
Zn29 O28 1.899 . S
Zn29 O30 2.032 . S
Zn29 O33 2.086 . S
Zn29 O38 1.977 . S
O30 Zn29 2.032 . S
O30 C34 1.278 . S
C31 O32 1.203 . S
C31 O38 1.267 . S
O32 C31 1.203 . S
O33 C26 1.185 . S
O33 Zn29 2.086 . S
C34 O30 1.278 . S
C34 O35 1.211 . S
O35 C34 1.211 . S
C36 O28 1.284 . S
C36 O37 1.273 . S
O37 C36 1.273 . S
O38 Zn29 1.977 . S
O38 C31 1.267 . S
C39 O40 1.160 . S
C39 O46 1.185 . S
O40 C39 1.160 . S
O41 Zn42 1.899 . S
O41 C49 1.284 . S
Zn42 O41 1.899 . S
Zn42 O43 2.032 . S
Zn42 O46 2.086 . S
Zn42 O51 1.977 . S
O43 Zn42 2.032 . S
O43 C47 1.278 . S
C44 O45 1.203 . S
C44 O51 1.267 . S
O45 C44 1.203 . S
O46 C39 1.185 . S
O46 Zn42 2.086 . S
C47 O43 1.278 . S
C47 O48 1.211 . S
O48 C47 1.211 . S
C49 O41 1.284 . S
C49 O50 1.273 . S
O50 C49 1.273 . S
O51 Zn42 1.977 . S
O51 C44 1.267 . S
C52 O53 1.160 . S
C52 O59 1.185 . S
O53 C52 1.160 . S
O54 Zn55 1.902 1_655 S
O54 C62 1.276 1_655 S
Zn55 O54 1.902 1_455 S
Zn55 O56 2.032 1_455 S
Zn55 O59 2.086 1_455 S
Zn55 O64 1.977 . S
O56 Zn55 2.032 1_655 S
O56 C60 1.278 1_655 S
C57 O58 1.203 . S
C57 O64 1.267 . S
O58 C57 1.203 . S
O59 C52 1.185 . S
O59 Zn55 2.086 1_655 S
C60 O56 1.278 1_455 S
C60 O61 1.211 . S
O61 C60 1.211 . S
C62 O54 1.276 1_455 S
C62 O63 1.273 . S
O63 C62 1.273 . S
O64 Zn55 1.977 . S
O64 C57 1.267 . S
C65 O66 1.160 . S
C65 O72 1.185 . S
O66 C65 1.160 . S
O67 Zn68 1.899 . S
O67 C75 1.284 . S
Zn68 O67 1.899 . S
Zn68 O69 2.032 . S
Zn68 O72 2.086 . S
Zn68 O77 1.977 . S
O69 Zn68 2.032 . S
O69 C73 1.278 . S
C70 O71 1.203 . S
C70 O77 1.267 . S
O71 C70 1.203 . S
O72 C65 1.185 . S
O72 Zn68 2.086 . S
C73 O69 1.278 . S
C73 O74 1.211 . S
O74 C73 1.211 . S
C75 O67 1.284 . S
C75 O76 1.273 . S
O76 C75 1.273 . S
O77 Zn68 1.977 . S
O77 C70 1.267 . S
C78 O79 1.160 . S
C78 O85 1.185 . S
O79 C78 1.160 . S
O80 Zn81 1.899 . S
O80 C88 1.284 . S
Zn81 O80 1.899 . S
Zn81 O82 2.032 . S
Zn81 O85 2.086 . S
Zn81 O90 1.977 . S
O82 Zn81 2.032 . S
O82 C86 1.278 . S
C83 O84 1.203 . S
C83 O90 1.267 . S
O84 C83 1.203 . S
O85 C78 1.185 . S
O85 Zn81 2.086 . S
C86 O82 1.278 . S
C86 O87 1.211 . S
O87 C86 1.211 . S
C88 O80 1.284 . S
C88 O89 1.273 . S
O89 C88 1.273 . S
O90 Zn81 1.977 . S
O90 C83 1.267 . S
C91 O92 1.160 . S
C91 O98 1.185 . S
O92 C91 1.160 . S
O93 Zn94 1.899 . S
O93 C101 1.284 . S
Zn94 O93 1.899 . S
Zn94 O95 2.032 . S
Zn94 O98 2.086 . S
Zn94 O103 1.977 1_455 S
O95 Zn94 2.032 . S
O95 C99 1.278 . S
C96 O97 1.203 . S
C96 O103 1.267 . S
O97 C96 1.203 . S
O98 C91 1.185 . S
O98 Zn94 2.086 . S
C99 O95 1.278 . S
C99 O100 1.211 1_455 S
O100 C99 1.211 1_655 S
C101 O93 1.284 . S
C101 O102 1.273 1_455 S
O102 C101 1.273 1_655 S
O103 Zn94 1.977 1_655 S
O103 C96 1.267 . S
C104 O105 1.160 . S
C104 O111 1.185 . S
O105 C104 1.160 . S
O106 Zn107 1.899 . S
O106 C114 1.284 . S
Zn107 O106 1.899 . S
Zn107 O108 2.032 . S
Zn107 O111 2.086 . S
Zn107 O116 1.977 . S
O108 Zn107 2.032 . S
O108 C112 1.278 . S
C109 O110 1.203 . S
C109 O116 1.267 1_565 S
O110 C109 1.203 . S
O111 C104 1.185 . S
O111 Zn107 2.086 . S
C112 O108 1.278 . S
C112 O113 1.211 . S
O113 C112 1.211 . S
C114 O106 1.284 . S
C114 O115 1.273 . S
O115 C114 1.273 . S
O116 Zn107 1.977 . S
O116 C109 1.267 1_545 S
C117 O118 1.160 . S
C117 O124 1.185 . S
O118 C117 1.160 . S
O119 Zn120 1.899 . S
O119 C127 1.284 . S
Zn120 O119 1.899 . S
Zn120 O121 2.032 . S
Zn120 O124 2.086 . S
Zn120 O129 1.977 . S
O121 Zn120 2.032 . S
O121 C125 1.278 . S
C122 O123 1.203 . S
C122 O129 1.267 . S
O123 C122 1.203 . S
O124 C117 1.185 . S
O124 Zn120 2.086 . S
C125 O121 1.278 . S
C125 O126 1.211 . S
O126 C125 1.211 . S
C127 O119 1.284 . S
C127 O128 1.273 . S
O128 C127 1.273 . S
O129 Zn120 1.977 . S
O129 C122 1.267 . S
C130 O131 1.160 . S
C130 O137 1.185 . S
O131 C130 1.160 . S
O132 Zn133 1.899 . S
O132 C140 1.284 . S
Zn133 O132 1.899 . S
Zn133 O134 2.032 . S
Zn133 O137 2.086 . S
Zn133 O142 1.977 1_565 S
O134 Zn133 2.032 . S
O134 C138 1.278 1_565 S
C135 O136 1.203 . S
C135 O142 1.267 . S
O136 C135 1.203 . S
O137 C130 1.185 . S
O137 Zn133 2.086 . S
C138 O134 1.278 1_545 S
C138 O139 1.211 . S
O139 C138 1.211 . S
C140 O132 1.284 . S
C140 O141 1.273 1_565 S
O141 C140 1.273 1_545 S
O142 Zn133 1.977 1_545 S
O142 C135 1.267 . S
C143 O144 1.160 . S
C143 O150 1.185 . S
O144 C143 1.160 . S
O145 Zn146 1.899 . S
O145 C153 1.284 . S
Zn146 O145 1.899 . S
Zn146 O147 2.032 1_554 S
Zn146 O150 2.086 . S
Zn146 O155 1.977 . S
O147 Zn146 2.032 1_556 S
O147 C151 1.278 . S
C148 O149 1.203 . S
C148 O155 1.267 . S
O149 C148 1.203 . S
O150 C143 1.185 . S
O150 Zn146 2.086 . S
C151 O147 1.278 . S
C151 O152 1.211 . S
O152 C151 1.211 . S
C153 O145 1.284 . S
C153 O154 1.273 . S
O154 C153 1.273 . S
O155 Zn146 1.977 . S
O155 C148 1.267 . S
C156 O157 1.160 . S
C156 O163 1.185 . S
O157 C156 1.160 . S
O158 Zn159 1.899 . S
O158 C166 1.284 . S
Zn159 O158 1.899 . S
Zn159 O160 2.013 1_554 S
Zn159 O163 2.086 . S
Zn159 O168 1.977 . S
O160 Zn159 2.013 1_556 S
O160 C164 1.291 . S
C161 O162 1.203 . S
C161 O168 1.267 . S
O162 C161 1.203 . S
O163 C156 1.185 . S
O163 Zn159 2.086 . S
C164 O160 1.291 . S
C164 O165 1.211 . S
O165 C164 1.211 . S
C166 O158 1.284 . S
C166 O167 1.273 . S
O167 C166 1.273 . S
O168 Zn159 1.977 . S
O168 C161 1.267 . S
C169 O170 1.160 . S
C169 O176 1.180 1_554 S
O170 C169 1.160 . S
O171 Zn172 1.899 . S
O171 C179 1.284 . S
Zn172 O171 1.899 . S
Zn172 O173 2.032 1_554 S
Zn172 O176 2.082 1_554 S
Zn172 O181 1.977 1_554 S
O173 Zn172 2.032 1_556 S
O173 C177 1.278 . S
C174 O175 1.203 . S
C174 O181 1.267 1_554 S
O175 C174 1.203 . S
O176 C169 1.180 1_556 S
O176 Zn172 2.082 1_556 S
C177 O173 1.278 . S
C177 O178 1.211 . S
O178 C177 1.211 . S
C179 O171 1.284 . S
C179 O180 1.273 . S
O180 C179 1.273 . S
O181 Zn172 1.977 1_556 S
O181 C174 1.267 1_556 S
C182 O183 1.160 . S
C182 O189 1.185 . S
O183 C182 1.160 . S
O184 Zn185 1.899 . S
O184 C192 1.284 . S
Zn185 O184 1.899 . S
Zn185 O186 2.032 . S
Zn185 O189 2.086 . S
Zn185 O194 1.977 . S
O186 Zn185 2.032 . S
O186 C190 1.278 . S
C187 O188 1.203 . S
C187 O194 1.267 . S
O188 C187 1.203 . S
O189 C182 1.185 . S
O189 Zn185 2.086 . S
C190 O186 1.278 . S
C190 O191 1.211 . S
O191 C190 1.211 . S
C192 O184 1.284 . S
C192 O193 1.273 . S
O193 C192 1.273 . S
O194 Zn185 1.977 . S
O194 C187 1.267 . S
C195 O196 1.160 . S
C195 O202 1.185 . S
O196 C195 1.160 . S
O197 Zn198 1.899 . S
O197 C205 1.284 . S
Zn198 O197 1.899 . S
Zn198 O199 2.032 . S
Zn198 O202 2.086 . S
Zn198 O207 1.977 . S
O199 Zn198 2.032 . S
O199 C203 1.278 . S
C200 O201 1.203 . S
C200 O207 1.267 . S
O201 C200 1.203 . S
O202 C195 1.185 . S
O202 Zn198 2.086 . S
C203 O199 1.278 . S
C203 O204 1.211 . S
O204 C203 1.211 . S
C205 O197 1.284 . S
C205 O206 1.273 . S
O206 C205 1.273 . S
O207 Zn198 1.977 . S
O207 C200 1.267 . S
C208 O209 1.160 . S
C208 O215 1.185 . S
O209 C208 1.160 . S
O210 Zn211 1.899 . S
O210 C218 1.284 . S
Zn211 O210 1.899 . S
Zn211 O212 2.032 . S
Zn211 O215 2.086 . S
Zn211 O220 1.977 . S
O212 Zn211 2.032 . S
O212 C216 1.278 . S
C213 O214 1.203 . S
C213 O220 1.267 1_565 S
O214 C213 1.203 . S
O215 C208 1.185 . S
O215 Zn211 2.086 . S
C216 O212 1.278 . S
C216 O217 1.211 . S
O217 C216 1.211 . S
C218 O210 1.284 . S
C218 O219 1.273 . S
O219 C218 1.273 . S
O220 Zn211 1.977 . S
O220 C213 1.267 1_545 S
C221 O222 1.160 . S
C221 O228 1.185 . S
O222 C221 1.160 . S
O223 Zn224 1.899 . S
O223 C231 1.284 . S
Zn224 O223 1.899 . S
Zn224 O225 2.032 . S
Zn224 O228 2.086 . S
Zn224 O233 1.977 . S
O225 Zn224 2.032 . S
O225 C229 1.278 . S
C226 O227 1.203 . S
C226 O233 1.267 . S
O227 C226 1.203 . S
O228 C221 1.185 . S
O228 Zn224 2.086 . S
C229 O225 1.278 . S
C229 O230 1.211 . S
O230 C229 1.211 . S
C231 O223 1.284 . S
C231 O232 1.273 . S
O232 C231 1.273 . S
O233 Zn224 1.977 . S
O233 C226 1.267 . S
C234 O235 1.160 . S
C234 O241 1.185 . S
O235 C234 1.160 . S
O236 Zn237 1.899 . S
O236 C244 1.284 . S
Zn237 O236 1.899 . S
Zn237 O238 2.032 . S
Zn237 O241 2.086 . S
Zn237 O246 1.977 . S
O238 Zn237 2.032 . S
O238 C242 1.278 . S
C239 O240 1.203 . S
C239 O246 1.267 . S
O240 C239 1.203 . S
O241 C234 1.185 . S
O241 Zn237 2.086 . S
C242 O238 1.278 . S
C242 O243 1.211 . S
O243 C242 1.211 . S
C244 O236 1.284 . S
C244 O245 1.273 . S
O245 C244 1.273 . S
O246 Zn237 1.977 . S
O246 C239 1.267 . S
C247 O248 1.160 . S
C247 O254 1.185 . S
O248 C247 1.160 . S
O249 Zn250 1.899 1_565 S
O249 C257 1.284 1_565 S
Zn250 O249 1.899 1_545 S
Zn250 O251 2.032 1_545 S
Zn250 O254 2.086 1_545 S
Zn250 O259 1.977 . S
O251 Zn250 2.032 1_565 S
O251 C255 1.278 1_565 S
C252 O253 1.203 . S
C252 O259 1.267 . S
O253 C252 1.203 . S
O254 C247 1.185 . S
O254 Zn250 2.086 1_565 S
C255 O251 1.278 1_545 S
C255 O256 1.211 . S
O256 C255 1.211 . S
C257 O249 1.284 1_545 S
C257 O258 1.273 . S
O258 C257 1.273 . S
O259 Zn250 1.977 . S
O259 C252 1.267 . S
C260 O261 1.160 . S
C260 O267 1.185 1_554 S
O261 C260 1.160 . S
O262 Zn263 1.899 . S
O262 C270 1.284 . S
Zn263 O262 1.899 . S
Zn263 O264 2.032 1_554 S
Zn263 O267 2.086 1_554 S
Zn263 O272 1.977 1_554 S
O264 Zn263 2.032 1_556 S
O264 C268 1.278 . S
C265 O266 1.193 1_556 S
C265 O272 1.274 . S
O266 C265 1.193 1_554 S
O267 C260 1.185 1_556 S
O267 Zn263 2.086 1_556 S
C268 O264 1.278 . S
C268 O269 1.211 . S
O269 C268 1.211 . S
C270 O262 1.284 . S
C270 O271 1.273 . S
O271 C270 1.273 . S
O272 Zn263 1.977 1_556 S
O272 C265 1.274 . S
C273 O274 1.160 . S
C273 O280 1.185 . S
O274 C273 1.160 . S
O275 Zn276 1.899 . S
O275 C283 1.284 . S
Zn276 O275 1.899 . S
Zn276 O277 2.032 . S
Zn276 O280 2.086 . S
Zn276 O285 1.977 . S
O277 Zn276 2.032 . S
O277 C281 1.278 . S
C278 O279 1.203 . S
C278 O285 1.267 . S
O279 C278 1.203 . S
O280 C273 1.185 . S
O280 Zn276 2.086 . S
C281 O277 1.278 . S
C281 O282 1.211 . S
O282 C281 1.211 . S
C283 O275 1.284 . S
C283 O284 1.273 . S
O284 C283 1.273 . S
O285 Zn276 1.977 . S
O285 C278 1.267 . S
C286 O287 1.160 . S
C286 O293 1.185 . S
O287 C286 1.160 . S
O288 Zn289 1.899 . S
O288 C296 1.284 . S
Zn289 O288 1.899 . S
Zn289 O290 2.032 . S
Zn289 O293 2.086 . S
Zn289 O298 1.977 . S
O290 Zn289 2.032 . S
O290 C294 1.278 . S
C291 O292 1.203 . S
C291 O298 1.267 . S
O292 C291 1.203 . S
O293 C286 1.185 . S
O293 Zn289 2.086 . S
C294 O290 1.278 . S
C294 O295 1.211 . S
O295 C294 1.211 . S
C296 O288 1.284 . S
C296 O297 1.273 . S
O297 C296 1.273 . S
O298 Zn289 1.977 . S
O298 C291 1.267 . S
C299 O300 1.160 . S
C299 O306 1.185 . S
O300 C299 1.160 . S
O301 Zn302 1.899 . S
O301 C309 1.284 . S
Zn302 O301 1.899 . S
Zn302 O303 2.032 . S
Zn302 O306 2.086 . S
Zn302 O311 1.977 . S
O303 Zn302 2.032 . S
O303 C307 1.278 . S
C304 O305 1.203 . S
C304 O311 1.267 . S
O305 C304 1.203 . S
O306 C299 1.185 . S
O306 Zn302 2.086 . S
C307 O303 1.278 . S
C307 O308 1.211 . S
O308 C307 1.211 . S
C309 O301 1.284 . S
C309 O310 1.273 . S
O310 C309 1.273 . S
O311 Zn302 1.977 . S
O311 C304 1.267 . S
Tb312 O315 2.453 . S
Tb312 O316 2.596 . S
Tb312 O317 2.374 1_554 S
Tb312 O325 2.343 1_455 S
Tb312 O327 2.353 . S
Tb312 O329 2.427 . S
Tb312 O330 2.513 1_554 S
C313 O317 1.251 . S
C313 O319 1.263 1_445 S
Tb314 O316 2.343 1_665 S
Tb314 O319 2.353 1_554 S
Tb314 O322 2.427 . S
Tb314 O323 2.513 . S
Tb314 O324 2.453 1_564 S
Tb314 O325 2.596 1_565 S
Tb314 O326 2.374 1_565 S
O315 Tb312 2.453 . S
O315 C331 1.245 . S
O316 Tb312 2.596 . S
O316 Tb314 2.343 1_445 S
O316 C331 1.259 . S
O317 Tb312 2.374 1_556 S
O317 C313 1.251 . S
C318 O322 1.274 1_455 S
C318 O323 1.236 1_455 S
O319 C313 1.263 1_665 S
O319 Tb314 2.353 1_556 S
C320 O324 1.245 . S
C320 O325 1.259 1_556 S
C321 O326 1.250 . S
C321 O327 1.263 1_655 S
O322 Tb314 2.427 . S
O322 C318 1.274 1_655 S
O323 Tb314 2.513 . S
O323 C318 1.236 1_655 S
O324 Tb314 2.453 1_546 S
O324 C320 1.245 . S
O325 Tb312 2.343 1_655 S
O325 Tb314 2.596 1_545 S
O325 C320 1.259 1_554 S
O326 Tb314 2.374 1_545 S
O326 C321 1.250 . S
O327 Tb312 2.353 . S
O327 C321 1.263 1_455 S
C328 O329 1.275 1_556 S
C328 O330 1.246 . S
O329 Tb312 2.427 . S
O329 C328 1.275 1_554 S
O330 Tb312 2.513 1_556 S
O330 C328 1.246 . S
C331 O315 1.245 . S
C331 O316 1.259 . S
Tb332 O335 2.453 . S
Tb332 O336 2.596 . S
Tb332 O337 2.374 . S
Tb332 O345 2.343 . S
Tb332 O347 2.353 . S
Tb332 O349 2.427 . S
Tb332 O350 2.513 . S
C333 O337 1.251 . S
C333 O339 1.263 . S
Tb334 O336 2.343 . S
Tb334 O339 2.353 . S
Tb334 O342 2.427 . S
Tb334 O343 2.513 . S
Tb334 O344 2.453 . S
Tb334 O345 2.596 . S
Tb334 O346 2.374 . S
O335 Tb332 2.453 . S
O335 C351 1.245 . S
O336 Tb332 2.596 . S
O336 Tb334 2.343 . S
O336 C351 1.259 . S
O337 Tb332 2.374 . S
O337 C333 1.251 . S
C338 O342 1.275 . S
C338 O343 1.246 . S
O339 C333 1.263 . S
O339 Tb334 2.353 . S
C340 O344 1.245 . S
C340 O345 1.259 . S
C341 O346 1.250 . S
C341 O347 1.263 . S
O342 Tb334 2.427 . S
O342 C338 1.275 . S
O343 Tb334 2.513 . S
O343 C338 1.246 . S
O344 Tb334 2.453 . S
O344 C340 1.245 . S
O345 Tb332 2.343 . S
O345 Tb334 2.596 . S
O345 C340 1.259 . S
O346 Tb334 2.374 . S
O346 C341 1.250 . S
O347 Tb332 2.353 . S
O347 C341 1.263 . S
C348 O349 1.275 . S
C348 O350 1.246 . S
O349 Tb332 2.427 . S
O349 C348 1.275 . S
O350 Tb332 2.513 . S
O350 C348 1.246 . S
C351 O335 1.245 . S
C351 O336 1.259 . S
Tb352 O355 2.453 . S
Tb352 O356 2.596 . S
Tb352 O357 2.374 . S
Tb352 O365 2.343 1_545 S
Tb352 O367 2.353 . S
Tb352 O369 2.427 . S
Tb352 O370 2.513 1_545 S
C353 O357 1.251 . S
C353 O359 1.263 . S
Tb354 O356 2.343 . S
Tb354 O359 2.353 . S
Tb354 O362 2.427 . S
Tb354 O363 2.513 . S
Tb354 O364 2.453 1_545 S
Tb354 O365 2.596 1_545 S
Tb354 O366 2.374 . S
O355 Tb352 2.453 . S
O355 C371 1.245 . S
O356 Tb352 2.596 . S
O356 Tb354 2.343 . S
O356 C371 1.259 . S
O357 Tb352 2.374 . S
O357 C353 1.251 . S
C358 O362 1.275 . S
C358 O363 1.246 . S
O359 C353 1.263 . S
O359 Tb354 2.353 . S
C360 O364 1.245 . S
C360 O365 1.259 . S
C361 O366 1.250 . S
C361 O367 1.263 . S
O362 Tb354 2.427 . S
O362 C358 1.275 . S
O363 Tb354 2.513 . S
O363 C358 1.246 . S
O364 Tb354 2.453 1_565 S
O364 C360 1.245 . S
O365 Tb352 2.343 1_565 S
O365 Tb354 2.596 1_565 S
O365 C360 1.259 . S
O366 Tb354 2.374 . S
O366 C361 1.250 . S
O367 Tb352 2.353 . S
O367 C361 1.263 . S
C368 O369 1.275 1_565 S
C368 O370 1.246 . S
O369 Tb352 2.427 . S
O369 C368 1.275 1_545 S
O370 Tb352 2.513 1_565 S
O370 C368 1.246 . S
C371 O355 1.245 . S
C371 O356 1.259 . S
Tb372 O375 2.453 . S
Tb372 O376 2.596 . S
Tb372 O377 2.374 . S
Tb372 O385 2.343 . S
Tb372 O387 2.353 . S
Tb372 O389 2.427 . S
Tb372 O390 2.513 . S
C373 O377 1.251 . S
C373 O379 1.263 . S
Tb374 O376 2.343 . S
Tb374 O379 2.353 . S
Tb374 O382 2.427 . S
Tb374 O383 2.513 . S
Tb374 O384 2.453 . S
Tb374 O385 2.596 . S
Tb374 O386 2.374 . S
O375 Tb372 2.453 . S
O375 C391 1.245 . S
O376 Tb372 2.596 . S
O376 Tb374 2.343 . S
O376 C391 1.259 . S
O377 Tb372 2.374 . S
O377 C373 1.251 . S
C378 O382 1.275 . S
C378 O383 1.246 . S
O379 C373 1.263 . S
O379 Tb374 2.353 . S
C380 O384 1.245 . S
C380 O385 1.259 . S
C381 O386 1.250 . S
C381 O387 1.263 . S
O382 Tb374 2.427 . S
O382 C378 1.275 . S
O383 Tb374 2.513 . S
O383 C378 1.246 . S
O384 Tb374 2.453 . S
O384 C380 1.245 . S
O385 Tb372 2.343 . S
O385 Tb374 2.596 . S
O385 C380 1.259 . S
O386 Tb374 2.374 . S
O386 C381 1.250 . S
O387 Tb372 2.353 . S
O387 C381 1.263 . S
C388 O389 1.275 . S
C388 O390 1.246 . S
O389 Tb372 2.427 . S
O389 C388 1.275 . S
O390 Tb372 2.513 . S
O390 C388 1.246 . S
C391 O375 1.245 . S
C391 O376 1.259 . S
Tb392 O395 2.455 1_545 S
Tb392 O396 2.596 . S
Tb392 O397 2.368 1_455 S
Tb392 O405 2.342 . S
Tb392 O407 2.358 . S
Tb392 O409 2.428 . S
Tb392 O410 2.509 1_455 S
C393 O397 1.258 . S
C393 O399 1.263 . S
Tb394 O396 2.343 . S
Tb394 O399 2.353 1_455 S
Tb394 O402 2.427 . S
Tb394 O403 2.513 . S
Tb394 O404 2.453 . S
Tb394 O405 2.596 . S
Tb394 O406 2.374 . S
O395 Tb392 2.455 1_565 S
O395 C411 1.245 . S
O396 Tb392 2.596 . S
O396 Tb394 2.343 . S
O396 C411 1.259 1_545 S
O397 Tb392 2.368 1_655 S
O397 C393 1.258 . S
C398 O402 1.275 . S
C398 O403 1.246 . S
O399 C393 1.263 . S
O399 Tb394 2.353 1_655 S
C400 O404 1.245 . S
C400 O405 1.259 . S
C401 O406 1.250 . S
C401 O407 1.263 . S
O402 Tb394 2.427 . S
O402 C398 1.275 . S
O403 Tb394 2.513 . S
O403 C398 1.246 . S
O404 Tb394 2.453 . S
O404 C400 1.245 . S
O405 Tb392 2.342 . S
O405 Tb394 2.596 . S
O405 C400 1.259 . S
O406 Tb394 2.374 . S
O406 C401 1.250 . S
O407 Tb392 2.358 . S
O407 C401 1.263 . S
C408 O409 1.275 1_655 S
C408 O410 1.246 . S
O409 Tb392 2.428 . S
O409 C408 1.275 1_455 S
O410 Tb392 2.509 1_655 S
O410 C408 1.246 . S
C411 O395 1.245 . S
C411 O396 1.259 1_565 S
Tb412 O415 2.453 . S
Tb412 O416 2.596 . S
Tb412 O417 2.374 . S
Tb412 O425 2.343 . S
Tb412 O427 2.353 . S
Tb412 O429 2.427 . S
Tb412 O430 2.513 . S
C413 O417 1.251 . S
C413 O419 1.263 . S
Tb414 O416 2.343 . S
Tb414 O419 2.353 . S
Tb414 O422 2.427 . S
Tb414 O423 2.513 . S
Tb414 O424 2.453 . S
Tb414 O425 2.596 . S
Tb414 O426 2.374 . S
O415 Tb412 2.453 . S
O415 C431 1.245 . S
O416 Tb412 2.596 . S
O416 Tb414 2.343 . S
O416 C431 1.259 . S
O417 Tb412 2.374 . S
O417 C413 1.251 . S
C418 O422 1.275 . S
C418 O423 1.246 . S
O419 C413 1.263 . S
O419 Tb414 2.353 . S
C420 O424 1.245 . S
C420 O425 1.259 . S
C421 O426 1.250 . S
C421 O427 1.263 . S
O422 Tb414 2.427 . S
O422 C418 1.275 . S
O423 Tb414 2.513 . S
O423 C418 1.246 . S
O424 Tb414 2.453 . S
O424 C420 1.245 . S
O425 Tb412 2.343 . S
O425 Tb414 2.596 . S
O425 C420 1.259 . S
O426 Tb414 2.374 . S
O426 C421 1.250 . S
O427 Tb412 2.353 . S
O427 C421 1.263 . S
C428 O429 1.275 . S
C428 O430 1.246 . S
O429 Tb412 2.427 . S
O429 C428 1.275 . S
O430 Tb412 2.513 . S
O430 C428 1.246 . S
C431 O415 1.245 . S
C431 O416 1.259 . S
Tb432 O435 2.453 . S
Tb432 O436 2.596 . S
Tb432 O437 2.374 1_545 S
Tb432 O445 2.343 1_556 S
Tb432 O447 2.353 1_556 S
Tb432 O449 2.427 1_556 S
Tb432 O450 2.513 1_546 S
C433 O437 1.251 1_554 S
C433 O439 1.263 . S
Tb434 O436 2.343 1_554 S
Tb434 O439 2.353 1_545 S
Tb434 O442 2.427 . S
Tb434 O443 2.513 . S
Tb434 O444 2.453 . S
Tb434 O445 2.596 . S
Tb434 O446 2.374 . S
O435 Tb432 2.453 . S
O435 C451 1.245 . S
O436 Tb432 2.596 . S
O436 Tb434 2.343 1_556 S
O436 C451 1.259 . S
O437 Tb432 2.374 1_565 S
O437 C433 1.251 1_556 S
C438 O442 1.275 . S
C438 O443 1.246 . S
O439 C433 1.263 . S
O439 Tb434 2.353 1_565 S
C440 O444 1.245 . S
C440 O445 1.259 . S
C441 O446 1.250 . S
C441 O447 1.263 . S
O442 Tb434 2.427 . S
O442 C438 1.275 . S
O443 Tb434 2.513 . S
O443 C438 1.246 . S
O444 Tb434 2.453 . S
O444 C440 1.245 . S
O445 Tb432 2.343 1_554 S
O445 Tb434 2.596 . S
O445 C440 1.259 . S
O446 Tb434 2.374 . S
O446 C441 1.250 . S
O447 Tb432 2.353 1_554 S
O447 C441 1.263 . S
C448 O449 1.275 1_565 S
C448 O450 1.246 . S
O449 Tb432 2.427 1_554 S
O449 C448 1.275 1_545 S
O450 Tb432 2.513 1_564 S
O450 C448 1.246 . S
C451 O435 1.245 . S
C451 O436 1.259 . S
Tb452 O455 2.453 . S
Tb452 O456 2.596 . S
Tb452 O457 2.374 . S
Tb452 O465 2.343 . S
Tb452 O467 2.353 . S
Tb452 O469 2.427 . S
Tb452 O470 2.513 . S
C453 O457 1.251 . S
C453 O459 1.263 . S
Tb454 O456 2.343 . S
Tb454 O459 2.353 . S
Tb454 O462 2.427 . S
Tb454 O463 2.513 . S
Tb454 O464 2.453 . S
Tb454 O465 2.596 . S
Tb454 O466 2.374 . S
O455 Tb452 2.453 . S
O455 C471 1.245 . S
O456 Tb452 2.596 . S
O456 Tb454 2.343 . S
O456 C471 1.259 . S
O457 Tb452 2.374 . S
O457 C453 1.251 . S
C458 O462 1.275 . S
C458 O463 1.246 . S
O459 C453 1.263 . S
O459 Tb454 2.353 . S
C460 O464 1.245 . S
C460 O465 1.259 . S
C461 O466 1.250 . S
C461 O467 1.263 . S
O462 Tb454 2.427 . S
O462 C458 1.275 . S
O463 Tb454 2.513 . S
O463 C458 1.246 . S
O464 Tb454 2.453 . S
O464 C460 1.245 . S
O465 Tb452 2.343 . S
O465 Tb454 2.596 . S
O465 C460 1.259 . S
O466 Tb454 2.374 . S
O466 C461 1.250 . S
O467 Tb452 2.353 . S
O467 C461 1.263 . S
C468 O469 1.275 . S
C468 O470 1.246 . S
O469 Tb452 2.427 . S
O469 C468 1.275 . S
O470 Tb452 2.513 . S
O470 C468 1.246 . S
C471 O455 1.245 . S
C471 O456 1.259 . S
Tb472 O475 2.453 1_556 S
Tb472 O476 2.596 1_556 S
Tb472 O477 2.374 1_556 S
Tb472 O485 2.343 1_556 S
Tb472 O487 2.353 . S
Tb472 O489 2.427 . S
Tb472 O490 2.513 . S
C473 O477 1.251 . S
C473 O479 1.263 . S
Tb474 O476 2.343 . S
Tb474 O479 2.353 . S
Tb474 O482 2.427 . S
Tb474 O483 2.513 . S
Tb474 O484 2.453 . S
Tb474 O485 2.596 . S
Tb474 O486 2.374 . S
O475 Tb472 2.453 1_554 S
O475 C491 1.245 . S
O476 Tb472 2.596 1_554 S
O476 Tb474 2.343 . S
O476 C491 1.259 . S
O477 Tb472 2.374 1_554 S
O477 C473 1.251 . S
C478 O482 1.275 . S
C478 O483 1.246 . S
O479 C473 1.263 . S
O479 Tb474 2.353 . S
C480 O484 1.245 . S
C480 O485 1.259 . S
C481 O486 1.250 . S
C481 O487 1.263 1_554 S
O482 Tb474 2.427 . S
O482 C478 1.275 . S
O483 Tb474 2.513 . S
O483 C478 1.246 . S
O484 Tb474 2.453 . S
O484 C480 1.245 . S
O485 Tb472 2.343 1_554 S
O485 Tb474 2.596 . S
O485 C480 1.259 . S
O486 Tb474 2.374 . S
O486 C481 1.250 . S
O487 Tb472 2.353 . S
O487 C481 1.263 1_556 S
C488 O489 1.275 . S
C488 O490 1.246 . S
O489 Tb472 2.427 . S
O489 C488 1.275 . S
O490 Tb472 2.513 . S
O490 C488 1.246 . S
C491 O475 1.245 . S
C491 O476 1.259 . S
Tb492 O495 2.453 . S
Tb492 O496 2.596 . S
Tb492 O497 2.374 . S
Tb492 O505 2.343 . S
Tb492 O507 2.353 . S
Tb492 O509 2.427 . S
Tb492 O510 2.513 . S
C493 O497 1.251 . S
C493 O499 1.263 . S
Tb494 O496 2.343 . S
Tb494 O499 2.353 . S
Tb494 O502 2.427 . S
Tb494 O503 2.513 . S
Tb494 O504 2.453 . S
Tb494 O505 2.596 . S
Tb494 O506 2.374 . S
O495 Tb492 2.453 . S
O495 C511 1.245 . S
O496 Tb492 2.596 . S
O496 Tb494 2.343 . S
O496 C511 1.259 . S
O497 Tb492 2.374 . S
O497 C493 1.251 . S
C498 O502 1.275 . S
C498 O503 1.246 . S
O499 C493 1.263 . S
O499 Tb494 2.353 . S
C500 O504 1.245 . S
C500 O505 1.259 . S
C501 O506 1.250 . S
C501 O507 1.263 . S
O502 Tb494 2.427 . S
O502 C498 1.275 . S
O503 Tb494 2.513 . S
O503 C498 1.246 . S
O504 Tb494 2.453 . S
O504 C500 1.245 . S
O505 Tb492 2.343 . S
O505 Tb494 2.596 . S
O505 C500 1.259 . S
O506 Tb494 2.374 . S
O506 C501 1.250 . S
O507 Tb492 2.353 . S
O507 C501 1.263 . S
C508 O509 1.275 . S
C508 O510 1.246 . S
O509 Tb492 2.427 . S
O509 C508 1.275 . S
O510 Tb492 2.513 . S
O510 C508 1.246 . S
C511 O495 1.245 . S
C511 O496 1.259 . S
Tb512 O515 2.453 1_655 S
Tb512 O516 2.596 1_655 S
Tb512 O517 2.374 . S
Tb512 O525 2.343 . S
Tb512 O527 2.353 . S
Tb512 O529 2.427 . S
Tb512 O530 2.513 . S
C513 O517 1.251 1_455 S
C513 O519 1.263 . S
Tb514 O516 2.343 . S
Tb514 O519 2.353 . S
Tb514 O522 2.427 . S
Tb514 O523 2.513 . S
Tb514 O524 2.453 . S
Tb514 O525 2.596 1_455 S
Tb514 O526 2.374 . S
O515 Tb512 2.453 1_455 S
O515 C531 1.245 . S
O516 Tb512 2.596 1_455 S
O516 Tb514 2.343 . S
O516 C531 1.259 . S
O517 Tb512 2.374 . S
O517 C513 1.251 1_655 S
C518 O522 1.275 . S
C518 O523 1.246 . S
O519 C513 1.263 . S
O519 Tb514 2.353 . S
C520 O524 1.245 1_655 S
C520 O525 1.259 . S
C521 O526 1.250 . S
C521 O527 1.263 1_455 S
O522 Tb514 2.427 . S
O522 C518 1.275 . S
O523 Tb514 2.513 . S
O523 C518 1.246 . S
O524 Tb514 2.453 . S
O524 C520 1.245 1_455 S
O525 Tb512 2.343 . S
O525 Tb514 2.596 1_655 S
O525 C520 1.259 . S
O526 Tb514 2.374 . S
O526 C521 1.250 . S
O527 Tb512 2.353 . S
O527 C521 1.263 1_655 S
C528 O529 1.275 . S
C528 O530 1.246 . S
O529 Tb512 2.427 . S
O529 C528 1.275 . S
O530 Tb512 2.513 . S
O530 C528 1.246 . S
C531 O515 1.245 . S
C531 O516 1.259 . S
Tb532 O535 2.453 . S
Tb532 O536 2.596 . S
Tb532 O537 2.374 . S
Tb532 O545 2.343 . S
Tb532 O547 2.353 . S
Tb532 O549 2.427 . S
Tb532 O550 2.513 . S
C533 O537 1.251 . S
C533 O539 1.263 . S
Tb534 O536 2.343 . S
Tb534 O539 2.353 . S
Tb534 O542 2.427 . S
Tb534 O543 2.513 . S
Tb534 O544 2.453 . S
Tb534 O545 2.596 . S
Tb534 O546 2.374 . S
O535 Tb532 2.453 . S
O535 C551 1.245 . S
O536 Tb532 2.596 . S
O536 Tb534 2.343 . S
O536 C551 1.259 . S
O537 Tb532 2.374 . S
O537 C533 1.251 . S
C538 O542 1.275 . S
C538 O543 1.246 . S
O539 C533 1.263 . S
O539 Tb534 2.353 . S
C540 O544 1.245 . S
C540 O545 1.259 . S
C541 O546 1.250 . S
C541 O547 1.263 . S
O542 Tb534 2.427 . S
O542 C538 1.275 . S
O543 Tb534 2.513 . S
O543 C538 1.246 . S
O544 Tb534 2.453 . S
O544 C540 1.245 . S
O545 Tb532 2.343 . S
O545 Tb534 2.596 . S
O545 C540 1.259 . S
O546 Tb534 2.374 . S
O546 C541 1.250 . S
O547 Tb532 2.353 . S
O547 C541 1.263 . S
C548 O549 1.275 . S
C548 O550 1.246 . S
O549 Tb532 2.427 . S
O549 C548 1.275 . S
O550 Tb532 2.513 . S
O550 C548 1.246 . S
C551 O535 1.245 . S
C551 O536 1.259 . S
Tb552 O555 2.453 . S
Tb552 O556 2.596 . S
Tb552 O557 2.374 . S
Tb552 O565 2.343 . S
Tb552 O567 2.353 . S
Tb552 O569 2.427 . S
Tb552 O570 2.513 . S
C553 O557 1.251 . S
C553 O559 1.263 . S
Tb554 O556 2.343 . S
Tb554 O559 2.353 . S
Tb554 O562 2.427 . S
Tb554 O563 2.513 . S
Tb554 O564 2.453 . S
Tb554 O565 2.596 . S
Tb554 O566 2.374 . S
O555 Tb552 2.453 . S
O555 C571 1.245 . S
O556 Tb552 2.596 . S
O556 Tb554 2.343 . S
O556 C571 1.259 . S
O557 Tb552 2.374 . S
O557 C553 1.251 . S
C558 O562 1.275 . S
C558 O563 1.246 . S
O559 C553 1.263 . S
O559 Tb554 2.353 . S
C560 O564 1.245 . S
C560 O565 1.259 . S
C561 O566 1.250 . S
C561 O567 1.263 . S
O562 Tb554 2.427 . S
O562 C558 1.275 . S
O563 Tb554 2.513 . S
O563 C558 1.246 . S
O564 Tb554 2.453 . S
O564 C560 1.245 . S
O565 Tb552 2.343 . S
O565 Tb554 2.596 . S
O565 C560 1.259 . S
O566 Tb554 2.374 . S
O566 C561 1.250 . S
O567 Tb552 2.353 . S
O567 C561 1.263 . S
C568 O569 1.275 . S
C568 O570 1.246 . S
O569 Tb552 2.427 . S
O569 C568 1.275 . S
O570 Tb552 2.513 . S
O570 C568 1.246 . S
C571 O555 1.245 . S
C571 O556 1.259 . S
Tb572 O575 2.453 . S
Tb572 O576 2.596 . S
Tb572 O577 2.374 . S
Tb572 O585 2.343 . S
Tb572 O587 2.353 . S
Tb572 O589 2.427 . S
Tb572 O590 2.513 . S
C573 O577 1.251 . S
C573 O579 1.263 . S
Tb574 O576 2.343 . S
Tb574 O579 2.353 . S
Tb574 O582 2.427 . S
Tb574 O583 2.513 . S
Tb574 O584 2.453 . S
Tb574 O585 2.596 . S
Tb574 O586 2.374 . S
O575 Tb572 2.453 . S
O575 C591 1.245 . S
O576 Tb572 2.596 . S
O576 Tb574 2.343 . S
O576 C591 1.259 . S
O577 Tb572 2.374 . S
O577 C573 1.251 . S
C578 O582 1.275 . S
C578 O583 1.246 . S
O579 C573 1.263 . S
O579 Tb574 2.353 . S
C580 O584 1.245 . S
C580 O585 1.259 . S
C581 O586 1.250 . S
C581 O587 1.263 . S
O582 Tb574 2.427 . S
O582 C578 1.275 . S
O583 Tb574 2.513 . S
O583 C578 1.246 . S
O584 Tb574 2.453 . S
O584 C580 1.245 . S
O585 Tb572 2.343 . S
O585 Tb574 2.596 . S
O585 C580 1.259 . S
O586 Tb574 2.374 . S
O586 C581 1.250 . S
O587 Tb572 2.353 . S
O587 C581 1.263 . S
C588 O589 1.275 . S
C588 O590 1.246 . S
O589 Tb572 2.427 . S
O589 C588 1.275 . S
O590 Tb572 2.513 . S
O590 C588 1.246 . S
C591 O575 1.245 . S
C591 O576 1.259 . S
Tb592 O595 2.453 . S
Tb592 O596 2.596 . S
Tb592 O597 2.374 . S
Tb592 O605 2.343 . S
Tb592 O607 2.353 . S
Tb592 O609 2.427 . S
Tb592 O610 2.513 . S
C593 O597 1.251 . S
C593 O599 1.263 . S
Tb594 O596 2.343 . S
Tb594 O599 2.353 . S
Tb594 O602 2.427 . S
Tb594 O603 2.513 . S
Tb594 O604 2.453 . S
Tb594 O605 2.596 . S
Tb594 O606 2.374 . S
O595 Tb592 2.453 . S
O595 C611 1.245 . S
O596 Tb592 2.596 . S
O596 Tb594 2.343 . S
O596 C611 1.259 . S
O597 Tb592 2.374 . S
O597 C593 1.251 . S
C598 O602 1.275 . S
C598 O603 1.246 . S
O599 C593 1.263 . S
O599 Tb594 2.353 . S
C600 O604 1.245 . S
C600 O605 1.259 . S
C601 O606 1.250 . S
C601 O607 1.263 . S
O602 Tb594 2.427 . S
O602 C598 1.275 . S
O603 Tb594 2.513 . S
O603 C598 1.246 . S
O604 Tb594 2.453 . S
O604 C600 1.245 . S
O605 Tb592 2.343 . S
O605 Tb594 2.596 . S
O605 C600 1.259 . S
O606 Tb594 2.374 . S
O606 C601 1.250 . S
O607 Tb592 2.353 . S
O607 C601 1.263 . S
C608 O609 1.275 . S
C608 O610 1.246 . S
O609 Tb592 2.427 . S
O609 C608 1.275 . S
O610 Tb592 2.513 . S
O610 C608 1.246 . S
C611 O595 1.245 . S
C611 O596 1.259 . S
Tb612 O615 2.453 . S
Tb612 O616 2.596 . S
Tb612 O617 2.374 . S
Tb612 O625 2.343 . S
Tb612 O627 2.353 1_554 S
Tb612 O629 2.427 1_554 S
Tb612 O630 2.513 . S
C613 O617 1.251 . S
C613 O619 1.263 1_455 S
Tb614 O616 2.343 1_655 S
Tb614 O619 2.353 . S
Tb614 O622 2.427 . S
Tb614 O623 2.513 . S
Tb614 O624 2.458 . S
Tb614 O625 2.596 1_655 S
Tb614 O626 2.374 1_554 S
O615 Tb612 2.453 . S
O615 C631 1.245 . S
O616 Tb612 2.596 . S
O616 Tb614 2.343 1_455 S
O616 C631 1.259 . S
O617 Tb612 2.374 . S
O617 C613 1.251 . S
C618 O622 1.275 . S
C618 O623 1.246 . S
O619 C613 1.263 1_655 S
O619 Tb614 2.353 . S
C620 O624 1.238 1_456 S
C620 O625 1.259 1_556 S
C621 O626 1.228 1_455 S
C621 O627 1.286 . S
O622 Tb614 2.427 . S
O622 C618 1.275 . S
O623 Tb614 2.513 . S
O623 C618 1.246 . S
O624 Tb614 2.458 . S
O624 C620 1.238 1_654 S
O625 Tb612 2.343 . S
O625 Tb614 2.596 1_455 S
O625 C620 1.259 1_554 S
O626 Tb614 2.374 1_556 S
O626 C621 1.228 1_655 S
O627 Tb612 2.353 1_556 S
O627 C621 1.286 . S
C628 O629 1.275 . S
C628 O630 1.246 1_556 S
O629 Tb612 2.427 1_556 S
O629 C628 1.275 . S
O630 Tb612 2.513 . S
O630 C628 1.246 1_554 S
C631 O615 1.245 . S
C631 O616 1.259 . S
C632 C633 1.363 1_655 S
C632 C638 1.379 . S
C632 N640 1.356 . S
C633 C632 1.363 1_455 S
C633 C639 1.363 . S
C634 C635 1.363 . S
C634 C639 1.379 . S
C634 N641 1.356 1_556 S
C635 C634 1.363 . S
C635 C638 1.363 1_455 S
N636 C638 1.356 . S
N636 H648 0.984 . S
N636 H649 0.985 . S
N637 C639 1.356 . S
N637 H642 0.984 . S
N637 H643 0.985 . S
C638 C632 1.379 . S
C638 C635 1.363 1_655 S
C638 N636 1.356 . S
C639 C633 1.363 . S
C639 C634 1.379 . S
C639 N637 1.356 . S
N640 C632 1.356 . S
N640 H646 0.984 . S
N640 H647 0.984 . S
N641 C634 1.356 1_554 S
N641 H644 0.984 . S
N641 H645 0.985 . S
H642 N637 0.984 . S
H643 N637 0.985 . S
H644 N641 0.984 . S
H645 N641 0.985 . S
H646 N640 0.984 . S
H647 N640 0.984 . S
H648 N636 0.984 . S
H649 N636 0.985 . S
C650 C651 1.363 . S
C650 C656 1.379 . S
C650 N658 1.356 . S
C651 C650 1.363 . S
C651 C657 1.363 . S
C652 C653 1.363 . S
C652 C657 1.379 . S
C652 N659 1.356 . S
C653 C652 1.363 . S
C653 C656 1.363 . S
N654 C656 1.356 . S
N654 H666 0.984 . S
N654 H667 0.985 . S
N655 C657 1.356 . S
N655 H660 0.984 . S
N655 H661 0.985 . S
C656 C650 1.379 . S
C656 C653 1.363 . S
C656 N654 1.356 . S
C657 C651 1.363 . S
C657 C652 1.379 . S
C657 N655 1.356 . S
N658 C650 1.356 . S
N658 H664 0.984 . S
N658 H665 0.984 . S
N659 C652 1.356 . S
N659 H662 0.984 . S
N659 H663 0.985 . S
H660 N655 0.984 . S
H661 N655 0.985 . S
H662 N659 0.984 . S
H663 N659 0.985 . S
H664 N658 0.984 . S
H665 N658 0.984 . S
H666 N654 0.984 . S
H667 N654 0.985 . S
C668 C669 1.363 . S
C668 C674 1.379 . S
C668 N676 1.356 . S
C669 C668 1.363 . S
C669 C675 1.363 . S
C670 C671 1.363 . S
C670 C675 1.379 . S
C670 N677 1.356 . S
C671 C670 1.363 . S
C671 C674 1.363 . S
N672 C674 1.356 . S
N672 H684 0.984 . S
N672 H685 0.985 . S
N673 C675 1.356 . S
N673 H678 0.984 . S
N673 H679 0.985 . S
C674 C668 1.379 . S
C674 C671 1.363 . S
C674 N672 1.356 . S
C675 C669 1.363 . S
C675 C670 1.379 . S
C675 N673 1.356 . S
N676 C668 1.356 . S
N676 H682 0.984 . S
N676 H683 0.984 . S
N677 C670 1.356 . S
N677 H680 0.984 . S
N677 H681 0.985 . S
H678 N673 0.984 . S
H679 N673 0.985 . S
H680 N677 0.984 . S
H681 N677 0.985 . S
H682 N676 0.984 . S
H683 N676 0.984 . S
H684 N672 0.984 . S
H685 N672 0.985 . S
C686 C687 1.363 . S
C686 C692 1.379 . S
C686 N694 1.356 . S
C687 C686 1.363 . S
C687 C693 1.363 . S
C688 C689 1.363 . S
C688 C693 1.379 . S
C688 N695 1.356 . S
C689 C688 1.363 . S
C689 C692 1.363 . S
N690 C692 1.356 . S
N690 H702 0.984 . S
N690 H703 0.985 . S
N691 C693 1.356 . S
N691 H696 0.984 . S
N691 H697 0.985 . S
C692 C686 1.379 . S
C692 C689 1.363 . S
C692 N690 1.356 . S
C693 C687 1.363 . S
C693 C688 1.379 . S
C693 N691 1.356 . S
N694 C686 1.356 . S
N694 H700 0.984 . S
N694 H701 0.984 . S
N695 C688 1.356 . S
N695 H698 0.984 . S
N695 H699 0.985 . S
H696 N691 0.984 . S
H697 N691 0.985 . S
H698 N695 0.984 . S
H699 N695 0.985 . S
H700 N694 0.984 . S
H701 N694 0.984 . S
H702 N690 0.984 . S
H703 N690 0.985 . S
C704 C705 1.363 . S
C704 C710 1.379 . S
C704 N712 1.356 . S
C705 C704 1.363 . S
C705 C711 1.363 . S
C706 C707 1.363 . S
C706 C711 1.379 . S
C706 N713 1.356 . S
C707 C706 1.363 . S
C707 C710 1.363 . S
N708 C710 1.356 . S
N708 H720 0.984 . S
N708 H721 0.985 . S
N709 C711 1.356 . S
N709 H714 0.984 . S
N709 H715 0.985 . S
C710 C704 1.379 . S
C710 C707 1.363 . S
C710 N708 1.356 . S
C711 C705 1.363 . S
C711 C706 1.379 . S
C711 N709 1.356 . S
N712 C704 1.356 . S
N712 H718 0.984 . S
N712 H719 0.984 . S
N713 C706 1.356 . S
N713 H716 0.984 . S
N713 H717 0.985 . S
H714 N709 0.984 . S
H715 N709 0.985 . S
H716 N713 0.984 . S
H717 N713 0.985 . S
H718 N712 0.984 . S
H719 N712 0.984 . S
H720 N708 0.984 . S
H721 N708 0.985 . S
C722 C723 1.363 . S
C722 C728 1.379 . S
C722 N730 1.356 . S
C723 C722 1.363 . S
C723 C729 1.363 . S
C724 C725 1.363 . S
C724 C729 1.379 . S
C724 N731 1.356 . S
C725 C724 1.363 . S
C725 C728 1.363 . S
N726 C728 1.356 . S
N726 H738 0.984 . S
N726 H739 0.985 . S
N727 C729 1.356 . S
N727 H732 0.984 . S
N727 H733 0.985 . S
C728 C722 1.379 . S
C728 C725 1.363 . S
C728 N726 1.356 . S
C729 C723 1.363 . S
C729 C724 1.379 . S
C729 N727 1.356 . S
N730 C722 1.356 . S
N730 H736 0.984 . S
N730 H737 0.984 . S
N731 C724 1.356 . S
N731 H734 0.984 . S
N731 H735 0.985 . S
H732 N727 0.984 . S
H733 N727 0.985 . S
H734 N731 0.984 . S
H735 N731 0.985 . S
H736 N730 0.984 . S
H737 N730 0.984 . S
H738 N726 0.984 . S
H739 N726 0.985 . S
C740 C741 1.363 . S
C740 C746 1.379 . S
C740 N748 1.356 . S
C741 C740 1.363 . S
C741 C747 1.363 . S
C742 C743 1.363 . S
C742 C747 1.379 . S
C742 N749 1.356 . S
C743 C742 1.363 . S
C743 C746 1.363 . S
N744 C746 1.356 . S
N744 H756 0.984 1_554 S
N744 H757 0.985 . S
N745 C747 1.356 . S
N745 H750 0.984 . S
N745 H751 0.985 . S
C746 C740 1.379 . S
C746 C743 1.363 . S
C746 N744 1.356 . S
C747 C741 1.363 . S
C747 C742 1.379 . S
C747 N745 1.356 . S
N748 C740 1.356 . S
N748 H754 0.984 . S
N748 H755 0.984 . S
N749 C742 1.356 . S
N749 H752 0.984 . S
N749 H753 0.985 . S
H750 N745 0.984 . S
H751 N745 0.985 . S
H752 N749 0.984 . S
H753 N749 0.985 . S
H754 N748 0.984 . S
H755 N748 0.984 . S
H756 N744 0.984 1_556 S
H757 N744 0.985 . S
C758 C759 1.363 . S
C758 C764 1.379 . S
C758 N766 1.356 . S
C759 C758 1.363 . S
C759 C765 1.363 . S
C760 C761 1.363 . S
C760 C765 1.379 . S
C760 N767 1.356 . S
C761 C760 1.363 . S
C761 C764 1.363 . S
N762 C764 1.356 . S
N762 H774 0.984 . S
N762 H775 0.985 . S
N763 C765 1.356 . S
N763 H768 0.984 . S
N763 H769 0.985 . S
C764 C758 1.379 . S
C764 C761 1.363 . S
C764 N762 1.356 . S
C765 C759 1.363 . S
C765 C760 1.379 . S
C765 N763 1.356 . S
N766 C758 1.356 . S
N766 H772 0.984 . S
N766 H773 0.984 . S
N767 C760 1.356 . S
N767 H770 0.984 . S
N767 H771 0.985 . S
H768 N763 0.984 . S
H769 N763 0.985 . S
H770 N767 0.984 . S
H771 N767 0.985 . S
H772 N766 0.984 . S
H773 N766 0.984 . S
H774 N762 0.984 . S
H775 N762 0.985 . S
C776 C777 1.363 . S
C776 C782 1.379 . S
C776 N784 1.356 . S
C777 C776 1.363 . S
C777 C783 1.363 . S
C778 C779 1.363 . S
C778 C783 1.379 . S
C778 N785 1.356 . S
C779 C778 1.363 . S
C779 C782 1.363 . S
N780 C782 1.356 . S
N780 H792 0.984 . S
N780 H793 0.985 . S
N781 C783 1.356 . S
N781 H786 0.984 . S
N781 H787 0.985 . S
C782 C776 1.379 . S
C782 C779 1.363 . S
C782 N780 1.356 . S
C783 C777 1.363 . S
C783 C778 1.379 . S
C783 N781 1.356 . S
N784 C776 1.356 . S
N784 H790 0.984 . S
N784 H791 0.984 . S
N785 C778 1.356 . S
N785 H788 0.984 1_655 S
N785 H789 0.985 1_645 S
H786 N781 0.984 . S
H787 N781 0.985 . S
H788 N785 0.984 1_455 S
H789 N785 0.985 1_465 S
H790 N784 0.984 . S
H791 N784 0.984 . S
H792 N780 0.984 . S
H793 N780 0.985 . S
C794 C795 1.363 . S
C794 C800 1.379 . S
C794 N802 1.356 . S
C795 C794 1.363 . S
C795 C801 1.363 . S
C796 C797 1.363 . S
C796 C801 1.379 . S
C796 N803 1.356 . S
C797 C796 1.363 . S
C797 C800 1.363 . S
N798 C800 1.356 . S
N798 H810 0.984 . S
N798 H811 0.985 . S
N799 C801 1.356 . S
N799 H804 0.984 . S
N799 H805 0.985 . S
C800 C794 1.379 . S
C800 C797 1.363 . S
C800 N798 1.356 . S
C801 C795 1.363 . S
C801 C796 1.379 . S
C801 N799 1.356 . S
N802 C794 1.356 . S
N802 H808 0.984 . S
N802 H809 0.984 . S
N803 C796 1.356 . S
N803 H806 0.984 . S
N803 H807 0.985 . S
H804 N799 0.984 . S
H805 N799 0.985 . S
H806 N803 0.984 . S
H807 N803 0.985 . S
H808 N802 0.984 . S
H809 N802 0.984 . S
H810 N798 0.984 . S
H811 N798 0.985 . S
C812 C813 1.363 . S
C812 C818 1.379 . S
C812 N820 1.356 . S
C813 C812 1.363 . S
C813 C819 1.363 1_545 S
C814 C815 1.363 1_565 S
C814 C819 1.379 . S
C814 N821 1.356 . S
C815 C814 1.363 1_545 S
C815 C818 1.363 . S
N816 C818 1.356 . S
N816 H828 0.984 . S
N816 H829 0.985 . S
N817 C819 1.356 . S
N817 H822 0.984 . S
N817 H823 0.985 . S
C818 C812 1.379 . S
C818 C815 1.363 . S
C818 N816 1.356 . S
C819 C813 1.363 1_565 S
C819 C814 1.379 . S
C819 N817 1.356 . S
N820 C812 1.356 . S
N820 H826 0.984 . S
N820 H827 0.984 . S
N821 C814 1.356 . S
N821 H824 0.984 . S
N821 H825 0.985 . S
H822 N817 0.984 . S
H823 N817 0.985 . S
H824 N821 0.984 . S
H825 N821 0.985 . S
H826 N820 0.984 . S
H827 N820 0.984 . S
H828 N816 0.984 . S
H829 N816 0.985 . S
C830 C831 1.363 . S
C830 C836 1.379 . S
C830 N838 1.356 . S
C831 C830 1.363 . S
C831 C837 1.363 . S
C832 C833 1.363 . S
C832 C837 1.379 . S
C832 N839 1.356 . S
C833 C832 1.363 . S
C833 C836 1.363 . S
N834 C836 1.356 . S
N834 H846 0.984 . S
N834 H847 0.985 . S
N835 C837 1.356 . S
N835 H840 0.984 . S
N835 H841 0.985 . S
C836 C830 1.379 . S
C836 C833 1.363 . S
C836 N834 1.356 . S
C837 C831 1.363 . S
C837 C832 1.379 . S
C837 N835 1.356 . S
N838 C830 1.356 . S
N838 H844 0.984 . S
N838 H845 0.994 . S
N839 C832 1.356 . S
N839 H842 0.984 . S
N839 H843 0.985 . S
H840 N835 0.984 . S
H841 N835 0.985 . S
H842 N839 0.984 . S
H843 N839 0.985 . S
H844 N838 0.984 . S
H845 N838 0.994 . S
H846 N834 0.984 . S
H847 N834 0.985 . S
C848 C849 1.363 . S
C848 C854 1.379 . S
C848 N856 1.356 . S
C849 C848 1.363 . S
C849 C855 1.363 . S
C850 C851 1.363 . S
C850 C855 1.379 . S
C850 N857 1.356 . S
C851 C850 1.363 . S
C851 C854 1.363 . S
N852 C854 1.356 1_565 S
N852 H864 0.984 . S
N852 H865 0.985 . S
N853 C855 1.356 . S
N853 H858 0.984 . S
N853 H859 0.985 . S
C854 C848 1.379 . S
C854 C851 1.363 . S
C854 N852 1.356 1_545 S
C855 C849 1.363 . S
C855 C850 1.379 . S
C855 N853 1.356 . S
N856 C848 1.356 . S
N856 H862 0.984 1_545 S
N856 H863 0.984 . S
N857 C850 1.356 . S
N857 H860 0.984 . S
N857 H861 0.985 . S
H858 N853 0.984 . S
H859 N853 0.985 . S
H860 N857 0.984 . S
H861 N857 0.985 . S
H862 N856 0.984 1_565 S
H863 N856 0.984 . S
H864 N852 0.984 . S
H865 N852 0.985 . S
C866 C867 1.363 . S
C866 C872 1.379 . S
C866 N874 1.356 . S
C867 C866 1.363 . S
C867 C873 1.363 . S
C868 C869 1.363 . S
C868 C873 1.379 . S
C868 N875 1.356 . S
C869 C868 1.363 . S
C869 C872 1.363 . S
N870 C872 1.356 . S
N870 H882 0.984 . S
N870 H883 0.985 . S
N871 C873 1.356 . S
N871 H876 0.984 . S
N871 H877 0.985 . S
C872 C866 1.379 . S
C872 C869 1.363 . S
C872 N870 1.356 . S
C873 C867 1.363 . S
C873 C868 1.379 . S
C873 N871 1.356 . S
N874 C866 1.356 . S
N874 H880 0.984 . S
N874 H881 0.984 . S
N875 C868 1.356 . S
N875 H878 0.984 . S
N875 H879 0.985 . S
H876 N871 0.984 . S
H877 N871 0.985 . S
H878 N875 0.984 . S
H879 N875 0.985 . S
H880 N874 0.984 . S
H881 N874 0.984 . S
H882 N870 0.984 . S
H883 N870 0.985 . S
C884 C885 1.363 1_565 S
C884 C890 1.378 1_565 S
C884 N892 1.356 . S
C885 C884 1.363 1_545 S
C885 C891 1.363 . S
C886 C887 1.363 . S
C886 C891 1.379 . S
C886 N893 1.356 . S
C887 C886 1.363 . S
C887 C890 1.365 . S
N888 C890 1.356 1_565 S
N888 H900 0.984 . S
N888 H901 0.985 1_565 S
N889 C891 1.356 . S
N889 H894 0.984 . S
N889 H895 0.985 . S
C890 C884 1.378 1_545 S
C890 C887 1.365 . S
C890 N888 1.356 1_545 S
C891 C885 1.363 . S
C891 C886 1.379 . S
C891 N889 1.356 . S
N892 C884 1.356 . S
N892 H898 0.984 . S
N892 H899 0.984 . S
N893 C886 1.356 . S
N893 H896 0.984 . S
N893 H897 0.985 . S
H894 N889 0.984 . S
H895 N889 0.985 . S
H896 N893 0.984 . S
H897 N893 0.985 . S
H898 N892 0.984 . S
H899 N892 0.984 . S
H900 N888 0.984 . S
H901 N888 0.985 1_545 S
C902 C903 1.363 . S
C902 C908 1.379 . S
C902 N910 1.356 . S
C903 C902 1.363 . S
C903 C909 1.363 . S
C904 C905 1.363 . S
C904 C909 1.379 . S
C904 N911 1.356 . S
C905 C904 1.363 . S
C905 C908 1.363 . S
N906 C908 1.356 . S
N906 H918 0.984 . S
N906 H919 0.985 . S
N907 C909 1.356 . S
N907 H912 0.984 . S
N907 H913 0.985 . S
C908 C902 1.379 . S
C908 C905 1.363 . S
C908 N906 1.356 . S
C909 C903 1.363 . S
C909 C904 1.379 . S
C909 N907 1.356 . S
N910 C902 1.356 . S
N910 H916 0.984 . S
N910 H917 0.984 . S
N911 C904 1.356 . S
N911 H914 0.984 . S
N911 H915 0.985 . S
H912 N907 0.984 . S
H913 N907 0.985 . S
H914 N911 0.984 . S
H915 N911 0.985 . S
H916 N910 0.984 . S
H917 N910 0.984 . S
H918 N906 0.984 . S
H919 N906 0.985 . S
C920 C921 1.363 . S
C920 C926 1.379 . S
C920 N928 1.356 1_554 S
C921 C920 1.363 . S
C921 C927 1.363 . S
C922 C923 1.363 . S
C922 C927 1.379 . S
C922 N929 1.356 . S
C923 C922 1.363 . S
C923 C926 1.363 . S
N924 C926 1.356 1_545 S
N924 H936 0.984 1_554 S
N924 H937 0.985 . S
N925 C927 1.356 . S
N925 H930 0.984 . S
N925 H931 0.985 . S
C926 C920 1.379 . S
C926 C923 1.363 . S
C926 N924 1.356 1_565 S
C927 C921 1.363 . S
C927 C922 1.379 . S
C927 N925 1.356 . S
N928 C920 1.356 1_556 S
N928 H934 0.984 1_565 S
N928 H935 0.985 . S
N929 C922 1.356 . S
N929 H932 0.984 . S
N929 H933 0.985 . S
H930 N925 0.984 . S
H931 N925 0.985 . S
H932 N929 0.984 . S
H933 N929 0.985 . S
H934 N928 0.984 1_545 S
H935 N928 0.985 . S
H936 N924 0.984 1_556 S
H937 N924 0.985 . S
C938 C939 1.363 1_554 S
C938 C944 1.379 . S
C938 N946 1.356 . S
C939 C938 1.363 1_556 S
C939 C945 1.363 . S
C940 C941 1.363 1_556 S
C940 C945 1.379 . S
C940 N947 1.356 . S
C941 C940 1.363 1_554 S
C941 C944 1.363 . S
N942 C944 1.356 . S
N942 H954 0.984 . S
N942 H955 0.985 . S
N943 C945 1.356 . S
N943 H948 0.984 . S
N943 H949 0.985 . S
C944 C938 1.379 . S
C944 C941 1.363 . S
C944 N942 1.356 . S
C945 C939 1.363 . S
C945 C940 1.379 . S
C945 N943 1.356 . S
N946 C938 1.356 . S
N946 H952 0.984 . S
N946 H953 0.984 . S
N947 C940 1.356 . S
N947 H950 0.984 . S
N947 H951 0.985 . S
H948 N943 0.984 . S
H949 N943 0.985 . S
H950 N947 0.984 . S
H951 N947 0.985 . S
H952 N946 0.984 . S
H953 N946 0.984 . S
H954 N942 0.984 . S
H955 N942 0.985 . S
C956 C957 1.363 . S
C956 C962 1.379 . S
C956 N964 1.356 . S
C957 C956 1.363 . S
C957 C963 1.363 . S
C958 C959 1.363 . S
C958 C963 1.379 . S
C958 N965 1.356 . S
C959 C958 1.363 . S
C959 C962 1.363 . S
N960 C962 1.356 . S
N960 H972 0.984 . S
N960 H973 0.985 . S
N961 C963 1.356 . S
N961 H966 0.984 . S
N961 H967 0.985 . S
C962 C956 1.379 . S
C962 C959 1.363 . S
C962 N960 1.356 . S
C963 C957 1.363 . S
C963 C958 1.379 . S
C963 N961 1.356 . S
N964 C956 1.356 . S
N964 H970 0.984 . S
N964 H971 0.984 . S
N965 C958 1.356 . S
N965 H968 0.984 . S
N965 H969 0.985 . S
H966 N961 0.984 . S
H967 N961 0.985 . S
H968 N965 0.984 . S
H969 N965 0.985 . S
H970 N964 0.984 . S
H971 N964 0.984 . S
H972 N960 0.984 . S
H973 N960 0.985 . S
C974 C975 1.363 . S
C974 C980 1.379 . S
C974 N982 1.356 . S
C975 C974 1.363 . S
C975 C981 1.363 . S
C976 C977 1.363 . S
C976 C981 1.379 . S
C976 N983 1.356 . S
C977 C976 1.363 . S
C977 C980 1.363 . S
N978 C980 1.356 . S
N978 H990 0.984 . S
N978 H991 0.985 . S
N979 C981 1.356 . S
N979 H984 0.984 . S
N979 H985 0.985 . S
C980 C974 1.379 . S
C980 C977 1.363 . S
C980 N978 1.356 . S
C981 C975 1.363 . S
C981 C976 1.379 . S
C981 N979 1.356 . S
N982 C974 1.356 . S
N982 H988 0.984 . S
N982 H989 0.984 . S
N983 C976 1.356 . S
N983 H986 0.984 . S
N983 H987 0.985 . S
H984 N979 0.984 . S
H985 N979 0.985 . S
H986 N983 0.984 . S
H987 N983 0.985 . S
H988 N982 0.984 . S
H989 N982 0.984 . S
H990 N978 0.984 . S
H991 N978 0.985 . S
C992 C993 1.363 . S
C992 C998 1.379 . S
C992 N1000 1.356 . S
C993 C992 1.363 . S
C993 C999 1.363 . S
C994 C995 1.363 . S
C994 C999 1.379 . S
C994 N1001 1.356 . S
C995 C994 1.363 . S
C995 C998 1.363 . S
N996 C998 1.356 . S
N996 H1008 0.984 . S
N996 H1009 0.985 . S
N997 C999 1.356 . S
N997 H1002 0.984 . S
N997 H1003 0.985 . S
C998 C992 1.379 . S
C998 C995 1.363 . S
C998 N996 1.356 . S
C999 C993 1.363 . S
C999 C994 1.379 . S
C999 N997 1.356 . S
N1000 C992 1.356 . S
N1000 H1006 0.984 . S
N1000 H1007 0.984 . S
N1001 C994 1.356 . S
N1001 H1004 0.984 . S
N1001 H1005 0.985 . S
H1002 N997 0.984 . S
H1003 N997 0.985 . S
H1004 N1001 0.984 . S
H1005 N1001 0.985 . S
H1006 N1000 0.984 . S
H1007 N1000 0.984 . S
H1008 N996 0.984 . S
H1009 N996 0.985 . S
C1010 C1011 1.363 . S
C1010 C1016 1.379 . S
C1010 N1018 1.356 . S
C1011 C1010 1.363 . S
C1011 C1017 1.363 . S
C1012 C1013 1.363 . S
C1012 C1017 1.379 . S
C1012 N1019 1.356 . S
C1013 C1012 1.363 . S
C1013 C1016 1.363 . S
N1014 C1016 1.356 . S
N1014 H1026 0.984 . S
N1014 H1027 0.985 . S
N1015 C1017 1.356 . S
N1015 H1020 0.984 . S
N1015 H1021 0.985 . S
C1016 C1010 1.379 . S
C1016 C1013 1.363 . S
C1016 N1014 1.356 . S
C1017 C1011 1.363 . S
C1017 C1012 1.379 . S
C1017 N1015 1.356 . S
N1018 C1010 1.356 . S
N1018 H1024 0.984 . S
N1018 H1025 0.984 . S
N1019 C1012 1.356 . S
N1019 H1022 0.984 . S
N1019 H1023 0.985 . S
H1020 N1015 0.984 . S
H1021 N1015 0.985 . S
H1022 N1019 0.984 . S
H1023 N1019 0.985 . S
H1024 N1018 0.984 . S
H1025 N1018 0.984 . S
H1026 N1014 0.984 . S
H1027 N1014 0.985 . S
C1028 C1029 1.363 . S
C1028 C1034 1.379 . S
C1028 N1036 1.356 . S
C1029 C1028 1.363 . S
C1029 C1035 1.363 . S
C1030 C1031 1.363 . S
C1030 C1035 1.379 . S
C1030 N1037 1.356 . S
C1031 C1030 1.363 . S
C1031 C1034 1.363 . S
N1032 C1034 1.356 . S
N1032 H1044 0.984 . S
N1032 H1045 0.985 . S
N1033 C1035 1.356 . S
N1033 H1038 0.984 . S
N1033 H1039 0.985 . S
C1034 C1028 1.379 . S
C1034 C1031 1.363 . S
C1034 N1032 1.356 . S
C1035 C1029 1.363 . S
C1035 C1030 1.379 . S
C1035 N1033 1.356 . S
N1036 C1028 1.356 . S
N1036 H1042 0.984 . S
N1036 H1043 0.984 . S
N1037 C1030 1.356 . S
N1037 H1040 0.984 . S
N1037 H1041 0.985 . S
H1038 N1033 0.984 . S
H1039 N1033 0.985 . S
H1040 N1037 0.984 . S
H1041 N1037 0.985 . S
H1042 N1036 0.984 . S
H1043 N1036 0.984 . S
H1044 N1032 0.984 . S
H1045 N1032 0.985 . S
C1046 C1047 1.363 . S
C1046 C1052 1.379 . S
C1046 N1054 1.356 . S
C1047 C1046 1.363 . S
C1047 C1053 1.363 . S
C1048 C1049 1.363 . S
C1048 C1053 1.379 . S
C1048 N1055 1.356 . S
C1049 C1048 1.363 . S
C1049 C1052 1.363 . S
N1050 C1052 1.356 . S
N1050 H1062 0.984 . S
N1050 H1063 0.985 . S
N1051 C1053 1.356 . S
N1051 H1056 0.984 . S
N1051 H1057 0.985 . S
C1052 C1046 1.379 . S
C1052 C1049 1.363 . S
C1052 N1050 1.356 . S
C1053 C1047 1.363 . S
C1053 C1048 1.379 . S
C1053 N1051 1.356 . S
N1054 C1046 1.356 . S
N1054 H1060 0.984 . S
N1054 H1061 0.984 . S
N1055 C1048 1.356 . S
N1055 H1058 0.984 . S
N1055 H1059 0.985 . S
H1056 N1051 0.984 . S
H1057 N1051 0.985 . S
H1058 N1055 0.984 . S
H1059 N1055 0.985 . S
H1060 N1054 0.984 . S
H1061 N1054 0.984 . S
H1062 N1050 0.984 . S
H1063 N1050 0.985 . S
C1064 C1065 1.363 1_655 S
C1064 C1070 1.379 . S
C1064 N1072 1.356 . S
C1065 C1064 1.363 1_455 S
C1065 C1071 1.363 . S
C1066 C1067 1.363 . S
C1066 C1071 1.379 . S
C1066 N1073 1.356 . S
C1067 C1066 1.363 . S
C1067 C1070 1.363 1_455 S
N1068 C1070 1.356 . S
N1068 H1080 0.984 . S
N1068 H1081 0.985 . S
N1069 C1071 1.356 . S
N1069 H1074 0.984 . S
N1069 H1075 0.985 . S
C1070 C1064 1.379 . S
C1070 C1067 1.363 1_655 S
C1070 N1068 1.356 . S
C1071 C1065 1.363 . S
C1071 C1066 1.379 . S
C1071 N1069 1.356 . S
N1072 C1064 1.356 . S
N1072 H1078 0.984 . S
N1072 H1079 0.984 . S
N1073 C1066 1.356 . S
N1073 H1076 0.984 . S
N1073 H1077 0.985 . S
H1074 N1069 0.984 . S
H1075 N1069 0.985 . S
H1076 N1073 0.984 . S
H1077 N1073 0.985 . S
H1078 N1072 0.984 . S
H1079 N1072 0.984 . S
H1080 N1068 0.984 . S
H1081 N1068 0.985 . S
C1082 C1083 1.363 . S
C1082 C1088 1.379 . S
C1082 N1090 1.356 . S
C1083 C1082 1.363 . S
C1083 C1089 1.363 . S
C1084 C1085 1.363 . S
C1084 C1089 1.379 . S
C1084 N1091 1.356 . S
C1085 C1084 1.363 . S
C1085 C1088 1.363 . S
N1086 C1088 1.356 . S
N1086 H1098 0.984 . S
N1086 H1099 0.985 . S
N1087 C1089 1.356 . S
N1087 H1092 0.984 . S
N1087 H1093 0.985 . S
C1088 C1082 1.379 . S
C1088 C1085 1.363 . S
C1088 N1086 1.356 . S
C1089 C1083 1.363 . S
C1089 C1084 1.379 . S
C1089 N1087 1.356 . S
N1090 C1082 1.356 . S
N1090 H1096 0.984 . S
N1090 H1097 0.984 . S
N1091 C1084 1.356 . S
N1091 H1094 0.984 . S
N1091 H1095 0.985 . S
H1092 N1087 0.984 . S
H1093 N1087 0.985 . S
H1094 N1091 0.984 . S
H1095 N1091 0.985 . S
H1096 N1090 0.984 . S
H1097 N1090 0.984 . S
H1098 N1086 0.984 . S
H1099 N1086 0.985 . S
C1100 C1101 1.363 . S
C1100 C1106 1.379 . S
C1100 N1108 1.356 . S
C1101 C1100 1.363 . S
C1101 C1107 1.363 . S
C1102 C1103 1.363 . S
C1102 C1107 1.379 . S
C1102 N1109 1.356 . S
C1103 C1102 1.363 . S
C1103 C1106 1.363 . S
N1104 C1106 1.356 . S
N1104 H1116 0.984 . S
N1104 H1117 0.985 . S
N1105 C1107 1.356 . S
N1105 H1110 0.984 . S
N1105 H1111 0.985 . S
C1106 C1100 1.379 . S
C1106 C1103 1.363 . S
C1106 N1104 1.356 . S
C1107 C1101 1.363 . S
C1107 C1102 1.379 . S
C1107 N1105 1.356 . S
N1108 C1100 1.356 . S
N1108 H1114 0.984 . S
N1108 H1115 0.984 . S
N1109 C1102 1.356 . S
N1109 H1112 0.984 . S
N1109 H1113 0.985 . S
H1110 N1105 0.984 . S
H1111 N1105 0.985 . S
H1112 N1109 0.984 . S
H1113 N1109 0.985 . S
H1114 N1108 0.984 . S
H1115 N1108 0.984 . S
H1116 N1104 0.984 . S
H1117 N1104 0.985 . S
C1118 C1119 1.363 . S
C1118 C1124 1.379 . S
C1118 N1126 1.356 . S
C1119 C1118 1.363 . S
C1119 C1125 1.363 . S
C1120 C1121 1.363 . S
C1120 C1125 1.379 . S
C1120 N1127 1.356 . S
C1121 C1120 1.363 . S
C1121 C1124 1.363 . S
N1122 C1124 1.356 . S
N1122 H1134 0.984 . S
N1122 H1135 0.985 . S
N1123 C1125 1.356 . S
N1123 H1128 0.984 . S
N1123 H1129 0.985 . S
C1124 C1118 1.379 . S
C1124 C1121 1.363 . S
C1124 N1122 1.356 . S
C1125 C1119 1.363 . S
C1125 C1120 1.379 . S
C1125 N1123 1.356 . S
N1126 C1118 1.356 . S
N1126 H1132 0.984 . S
N1126 H1133 0.984 . S
N1127 C1120 1.356 . S
N1127 H1130 0.984 . S
N1127 H1131 0.985 . S
H1128 N1123 0.984 . S
H1129 N1123 0.985 . S
H1130 N1127 0.984 . S
H1131 N1127 0.985 . S
H1132 N1126 0.984 . S
H1133 N1126 0.984 . S
H1134 N1122 0.984 . S
H1135 N1122 0.985 . S
C1136 C1137 1.363 . S
C1136 C1142 1.379 . S
C1136 N1144 1.356 . S
C1137 C1136 1.363 . S
C1137 C1143 1.363 1_455 S
C1138 C1139 1.363 1_655 S
C1138 C1143 1.379 . S
C1138 N1145 1.356 . S
C1139 C1138 1.363 1_455 S
C1139 C1142 1.363 . S
N1140 C1142 1.356 . S
N1140 H1152 0.984 . S
N1140 H1153 0.985 . S
N1141 C1143 1.356 . S
N1141 H1146 0.984 . S
N1141 H1147 0.985 . S
C1142 C1136 1.379 . S
C1142 C1139 1.363 . S
C1142 N1140 1.356 . S
C1143 C1137 1.363 1_655 S
C1143 C1138 1.379 . S
C1143 N1141 1.356 . S
N1144 C1136 1.356 . S
N1144 H1150 0.984 . S
N1144 H1151 0.984 . S
N1145 C1138 1.356 . S
N1145 H1148 0.984 . S
N1145 H1149 0.985 . S
H1146 N1141 0.984 . S
H1147 N1141 0.985 . S
H1148 N1145 0.984 . S
H1149 N1145 0.985 . S
H1150 N1144 0.984 . S
H1151 N1144 0.984 . S
H1152 N1140 0.984 . S
H1153 N1140 0.985 . S
C1154 C1155 1.363 . S
C1154 C1160 1.379 . S
C1154 N1162 1.356 . S
C1155 C1154 1.363 . S
C1155 C1161 1.363 . S
C1156 C1157 1.363 . S
C1156 C1161 1.379 . S
C1156 N1163 1.356 . S
C1157 C1156 1.363 . S
C1157 C1160 1.363 . S
N1158 C1160 1.356 . S
N1158 H1170 0.984 . S
N1158 H1171 0.985 . S
N1159 C1161 1.356 . S
N1159 H1164 0.984 . S
N1159 H1165 0.985 . S
C1160 C1154 1.379 . S
C1160 C1157 1.363 . S
C1160 N1158 1.356 . S
C1161 C1155 1.363 . S
C1161 C1156 1.379 . S
C1161 N1159 1.356 . S
N1162 C1154 1.356 . S
N1162 H1168 0.984 . S
N1162 H1169 0.984 . S
N1163 C1156 1.356 . S
N1163 H1166 0.984 . S
N1163 H1167 0.985 . S
H1164 N1159 0.984 . S
H1165 N1159 0.985 . S
H1166 N1163 0.984 . S
H1167 N1163 0.985 . S
H1168 N1162 0.984 . S
H1169 N1162 0.984 . S
H1170 N1158 0.984 . S
H1171 N1158 0.985 . S
C1172 C1173 1.363 . S
C1172 C1178 1.379 . S
C1172 N1180 1.356 . S
C1173 C1172 1.363 . S
C1173 C1179 1.363 . S
C1174 C1175 1.363 . S
C1174 C1179 1.379 . S
C1174 N1181 1.356 1_556 S
C1175 C1174 1.363 . S
C1175 C1178 1.363 . S
N1176 C1178 1.356 . S
N1176 H1188 0.984 . S
N1176 H1189 0.985 . S
N1177 C1179 1.356 . S
N1177 H1182 0.984 . S
N1177 H1183 0.985 1_556 S
C1178 C1172 1.379 . S
C1178 C1175 1.363 . S
C1178 N1176 1.356 . S
C1179 C1173 1.363 . S
C1179 C1174 1.379 . S
C1179 N1177 1.356 . S
N1180 C1172 1.356 . S
N1180 H1186 0.984 . S
N1180 H1187 0.984 . S
N1181 C1174 1.356 1_554 S
N1181 H1184 0.984 . S
N1181 H1185 0.985 . S
H1182 N1177 0.984 . S
H1183 N1177 0.985 1_554 S
H1184 N1181 0.984 . S
H1185 N1181 0.985 . S
H1186 N1180 0.984 . S
H1187 N1180 0.984 . S
H1188 N1176 0.984 . S
H1189 N1176 0.985 . S
C1190 C1191 1.363 . S
C1190 C1196 1.379 . S
C1190 N1198 1.356 . S
C1191 C1190 1.363 . S
C1191 C1197 1.363 . S
C1192 C1193 1.363 . S
C1192 C1197 1.379 . S
C1192 N1199 1.356 . S
C1193 C1192 1.363 . S
C1193 C1196 1.363 . S
N1194 C1196 1.356 . S
N1194 H1206 0.984 . S
N1194 H1207 0.985 . S
N1195 C1197 1.356 . S
N1195 H1200 0.984 . S
N1195 H1201 0.985 . S
C1196 C1190 1.379 . S
C1196 C1193 1.363 . S
C1196 N1194 1.356 . S
C1197 C1191 1.363 . S
C1197 C1192 1.379 . S
C1197 N1195 1.356 . S
N1198 C1190 1.356 . S
N1198 H1204 0.984 . S
N1198 H1205 0.984 . S
N1199 C1192 1.356 . S
N1199 H1202 0.984 . S
N1199 H1203 0.985 . S
H1200 N1195 0.984 . S
H1201 N1195 0.985 . S
H1202 N1199 0.984 . S
H1203 N1199 0.985 . S
H1204 N1198 0.984 . S
H1205 N1198 0.984 . S
H1206 N1194 0.984 . S
H1207 N1194 0.985 . S
C1208 C1209 1.363 1_545 S
C1208 C1214 1.379 . S
C1208 N1216 1.356 . S
C1209 C1208 1.363 1_565 S
C1209 C1215 1.363 . S
C1210 C1211 1.363 . S
C1210 C1215 1.379 . S
C1210 N1217 1.356 . S
C1211 C1210 1.363 . S
C1211 C1214 1.363 1_565 S
N1212 C1214 1.356 . S
N1212 H1224 0.984 . S
N1212 H1225 0.985 . S
N1213 C1215 1.356 . S
N1213 H1218 0.984 . S
N1213 H1219 0.985 . S
C1214 C1208 1.379 . S
C1214 C1211 1.363 1_545 S
C1214 N1212 1.356 . S
C1215 C1209 1.363 . S
C1215 C1210 1.379 . S
C1215 N1213 1.356 . S
N1216 C1208 1.356 . S
N1216 H1222 0.984 . S
N1216 H1223 0.984 . S
N1217 C1210 1.356 . S
N1217 H1220 0.984 1_455 S
N1217 H1221 0.985 1_455 S
H1218 N1213 0.984 . S
H1219 N1213 0.985 . S
H1220 N1217 0.984 1_655 S
H1221 N1217 0.985 1_655 S
H1222 N1216 0.984 . S
H1223 N1216 0.984 . S
H1224 N1212 0.984 . S
H1225 N1212 0.985 . S
C1226 C1227 1.363 . S
C1226 C1232 1.379 . S
C1226 N1234 1.356 . S
C1227 C1226 1.363 . S
C1227 C1233 1.363 . S
C1228 C1229 1.363 . S
C1228 C1233 1.379 . S
C1228 N1235 1.356 . S
C1229 C1228 1.363 . S
C1229 C1232 1.363 . S
N1230 C1232 1.356 . S
N1230 H1242 0.984 . S
N1230 H1243 0.985 . S
N1231 C1233 1.356 . S
N1231 H1236 0.984 . S
N1231 H1237 0.985 . S
C1232 C1226 1.379 . S
C1232 C1229 1.363 . S
C1232 N1230 1.356 . S
C1233 C1227 1.363 . S
C1233 C1228 1.379 . S
C1233 N1231 1.356 . S
N1234 C1226 1.356 . S
N1234 H1240 0.984 . S
N1234 H1241 0.984 . S
N1235 C1228 1.356 . S
N1235 H1238 0.984 . S
N1235 H1239 0.985 . S
H1236 N1231 0.984 . S
H1237 N1231 0.985 . S
H1238 N1235 0.984 . S
H1239 N1235 0.985 . S
H1240 N1234 0.984 . S
H1241 N1234 0.984 . S
H1242 N1230 0.984 . S
H1243 N1230 0.985 . S
C1244 C1245 1.363 . S
C1244 C1250 1.379 . S
C1244 N1252 1.356 . S
C1245 C1244 1.363 . S
C1245 C1251 1.363 . S
C1246 C1247 1.363 . S
C1246 C1251 1.379 . S
C1246 N1253 1.356 1_545 S
C1247 C1246 1.363 . S
C1247 C1250 1.363 . S
N1248 C1250 1.356 . S
N1248 H1260 0.984 . S
N1248 H1261 0.985 . S
N1249 C1251 1.356 . S
N1249 H1254 0.984 . S
N1249 H1255 0.985 1_545 S
C1250 C1244 1.379 . S
C1250 C1247 1.363 . S
C1250 N1248 1.356 . S
C1251 C1245 1.363 . S
C1251 C1246 1.379 . S
C1251 N1249 1.356 . S
N1252 C1244 1.356 . S
N1252 H1258 0.984 . S
N1252 H1259 0.984 . S
N1253 C1246 1.356 1_565 S
N1253 H1256 0.984 . S
N1253 H1257 0.985 . S
H1254 N1249 0.984 . S
H1255 N1249 0.985 1_565 S
H1256 N1253 0.984 . S
H1257 N1253 0.985 . S
H1258 N1252 0.984 . S
H1259 N1252 0.984 . S
H1260 N1248 0.984 . S
H1261 N1248 0.985 . S
C1262 C1263 1.363 . S
C1262 C1268 1.379 . S
C1262 N1270 1.356 . S
C1263 C1262 1.363 . S
C1263 C1269 1.363 . S
C1264 C1265 1.363 . S
C1264 C1269 1.379 . S
C1264 N1271 1.356 . S
C1265 C1264 1.363 . S
C1265 C1268 1.363 . S
N1266 C1268 1.356 . S
N1266 H1278 0.984 . S
N1266 H1279 0.985 . S
N1267 C1269 1.356 . S
N1267 H1272 0.984 . S
N1267 H1273 0.985 . S
C1268 C1262 1.379 . S
C1268 C1265 1.363 . S
C1268 N1266 1.356 . S
C1269 C1263 1.363 . S
C1269 C1264 1.379 . S
C1269 N1267 1.356 . S
N1270 C1262 1.356 . S
N1270 H1276 0.984 . S
N1270 H1277 0.984 . S
N1271 C1264 1.356 . S
N1271 H1274 0.984 . S
N1271 H1275 0.985 . S
H1272 N1267 0.984 . S
H1273 N1267 0.985 . S
H1274 N1271 0.984 . S
H1275 N1271 0.985 . S
H1276 N1270 0.984 . S
H1277 N1270 0.984 . S
H1278 N1266 0.984 . S
H1279 N1266 0.985 . S
C1280 C1281 1.363 1_545 S
C1280 C1286 1.378 . S
C1280 N1288 1.357 1_545 S
C1281 C1280 1.363 1_565 S
C1281 C1287 1.363 1_565 S
C1282 C1283 1.363 . S
C1282 C1287 1.379 . S
C1282 N1289 1.341 1_455 S
C1283 C1282 1.363 . S
C1283 C1286 1.363 . S
N1284 C1286 1.356 . S
N1284 H1296 0.984 . S
N1284 H1297 0.985 . S
N1285 C1287 1.356 . S
N1285 H1290 0.984 1_545 S
N1285 H1291 0.985 . S
C1286 C1280 1.378 . S
C1286 C1283 1.363 . S
C1286 N1284 1.356 . S
C1287 C1281 1.363 1_545 S
C1287 C1282 1.379 . S
C1287 N1285 1.356 . S
N1288 C1280 1.357 1_565 S
N1288 H1294 0.984 . S
N1288 H1295 0.984 . S
N1289 C1282 1.341 1_655 S
N1289 H1292 0.987 . S
N1289 H1293 0.998 . S
H1290 N1285 0.984 1_565 S
H1291 N1285 0.985 . S
H1292 N1289 0.987 . S
H1293 N1289 0.998 . S
H1294 N1288 0.984 . S
H1295 N1288 0.984 . S
H1296 N1284 0.984 . S
H1297 N1284 0.985 . S
C1298 C1299 1.363 . S
C1298 C1304 1.379 . S
C1298 N1306 1.356 . S
C1299 C1298 1.363 . S
C1299 C1305 1.363 . S
C1300 C1301 1.363 . S
C1300 C1305 1.379 . S
C1300 N1307 1.356 . S
C1301 C1300 1.363 . S
C1301 C1304 1.363 . S
N1302 C1304 1.356 . S
N1302 H1314 0.984 . S
N1302 H1315 0.985 . S
N1303 C1305 1.356 . S
N1303 H1308 0.984 . S
N1303 H1309 0.985 . S
C1304 C1298 1.379 . S
C1304 C1301 1.363 . S
C1304 N1302 1.356 . S
C1305 C1299 1.363 . S
C1305 C1300 1.379 . S
C1305 N1303 1.356 . S
N1306 C1298 1.356 . S
N1306 H1312 0.984 . S
N1306 H1313 0.984 . S
N1307 C1300 1.356 . S
N1307 H1310 0.984 . S
N1307 H1311 0.985 . S
H1308 N1303 0.984 . S
H1309 N1303 0.985 . S
H1310 N1307 0.984 . S
H1311 N1307 0.985 . S
H1312 N1306 0.984 . S
H1313 N1306 0.984 . S
H1314 N1302 0.984 . S
H1315 N1302 0.985 . S
C1316 C1317 1.363 . S
C1316 C1322 1.379 . S
C1316 N1324 1.356 . S
C1317 C1316 1.363 . S
C1317 C1323 1.363 . S
C1318 C1319 1.363 . S
C1318 C1323 1.379 . S
C1318 N1325 1.356 . S
C1319 C1318 1.363 . S
C1319 C1322 1.363 . S
N1320 C1322 1.356 . S
N1320 H1332 0.985 . S
N1320 H1333 0.985 . S
N1321 C1323 1.356 . S
N1321 H1326 0.984 . S
N1321 H1327 0.985 . S
C1322 C1316 1.379 . S
C1322 C1319 1.363 . S
C1322 N1320 1.356 . S
C1323 C1317 1.363 . S
C1323 C1318 1.379 . S
C1323 N1321 1.356 . S
N1324 C1316 1.356 . S
N1324 H1330 0.984 . S
N1324 H1331 0.984 . S
N1325 C1318 1.356 . S
N1325 H1328 0.984 . S
N1325 H1329 0.985 . S
H1326 N1321 0.984 . S
H1327 N1321 0.985 . S
H1328 N1325 0.984 . S
H1329 N1325 0.985 . S
H1330 N1324 0.984 . S
H1331 N1324 0.984 . S
H1332 N1320 0.985 . S
H1333 N1320 0.985 . S
C1334 C1335 1.363 . S
C1334 C1340 1.379 . S
C1334 N1342 1.356 . S
C1335 C1334 1.363 . S
C1335 C1341 1.363 . S
C1336 C1337 1.363 . S
C1336 C1341 1.379 . S
C1336 N1343 1.356 . S
C1337 C1336 1.363 . S
C1337 C1340 1.363 . S
N1338 C1340 1.356 . S
N1338 H1350 0.984 . S
N1338 H1351 0.985 . S
N1339 C1341 1.356 . S
N1339 H1344 0.984 . S
N1339 H1345 0.985 . S
C1340 C1334 1.379 . S
C1340 C1337 1.363 . S
C1340 N1338 1.356 . S
C1341 C1335 1.363 . S
C1341 C1336 1.379 . S
C1341 N1339 1.356 . S
N1342 C1334 1.356 . S
N1342 H1348 0.984 . S
N1342 H1349 0.984 . S
N1343 C1336 1.356 . S
N1343 H1346 0.984 . S
N1343 H1347 0.985 . S
H1344 N1339 0.984 . S
H1345 N1339 0.985 . S
H1346 N1343 0.984 . S
H1347 N1343 0.985 . S
H1348 N1342 0.984 . S
H1349 N1342 0.984 . S
H1350 N1338 0.984 . S
H1351 N1338 0.985 . S
C1352 C1353 1.363 1_556 S
C1352 C1358 1.379 . S
C1352 N1360 1.356 . S
C1353 C1352 1.363 1_554 S
C1353 C1359 1.363 . S
C1354 C1355 1.363 1_554 S
C1354 C1359 1.379 . S
C1354 N1361 1.356 . S
C1355 C1354 1.363 1_556 S
C1355 C1358 1.363 . S
N1356 C1358 1.356 . S
N1356 H1368 0.984 . S
N1356 H1369 0.985 . S
N1357 C1359 1.356 . S
N1357 H1362 0.984 . S
N1357 H1363 0.985 . S
C1358 C1352 1.379 . S
C1358 C1355 1.363 . S
C1358 N1356 1.356 . S
C1359 C1353 1.363 . S
C1359 C1354 1.379 . S
C1359 N1357 1.356 . S
N1360 C1352 1.356 . S
N1360 H1366 0.984 . S
N1360 H1367 0.984 . S
N1361 C1354 1.356 . S
N1361 H1364 0.984 . S
N1361 H1365 0.985 . S
H1362 N1357 0.984 . S
H1363 N1357 0.985 . S
H1364 N1361 0.984 . S
H1365 N1361 0.985 . S
H1366 N1360 0.984 . S
H1367 N1360 0.984 . S
H1368 N1356 0.984 . S
H1369 N1356 0.985 . S
C1370 C1371 1.363 . S
C1370 C1376 1.379 . S
C1370 N1378 1.356 . S
C1371 C1370 1.363 . S
C1371 C1377 1.363 . S
C1372 C1373 1.363 . S
C1372 C1377 1.379 . S
C1372 N1379 1.356 . S
C1373 C1372 1.363 . S
C1373 C1376 1.363 . S
N1374 C1376 1.356 . S
N1374 H1386 0.984 . S
N1374 H1387 0.985 . S
N1375 C1377 1.356 . S
N1375 H1380 0.984 . S
N1375 H1381 0.985 . S
C1376 C1370 1.379 . S
C1376 C1373 1.363 . S
C1376 N1374 1.356 . S
C1377 C1371 1.363 . S
C1377 C1372 1.379 . S
C1377 N1375 1.356 . S
N1378 C1370 1.356 . S
N1378 H1384 0.984 . S
N1378 H1385 0.984 . S
N1379 C1372 1.356 . S
N1379 H1382 0.984 . S
N1379 H1383 0.985 . S
H1380 N1375 0.984 . S
H1381 N1375 0.985 . S
H1382 N1379 0.984 . S
H1383 N1379 0.985 . S
H1384 N1378 0.984 . S
H1385 N1378 0.984 . S
H1386 N1374 0.984 . S
H1387 N1374 0.985 . S
C1388 C1389 1.363 . S
C1388 C1394 1.379 . S
C1388 N1396 1.356 . S
C1389 C1388 1.363 . S
C1389 C1395 1.363 . S
C1390 C1391 1.363 . S
C1390 C1395 1.379 . S
C1390 N1397 1.356 . S
C1391 C1390 1.363 . S
C1391 C1394 1.363 . S
N1392 C1394 1.356 . S
N1392 H1404 0.984 . S
N1392 H1405 0.985 . S
N1393 C1395 1.356 . S
N1393 H1398 0.984 . S
N1393 H1399 0.985 . S
C1394 C1388 1.379 . S
C1394 C1391 1.363 . S
C1394 N1392 1.356 . S
C1395 C1389 1.363 . S
C1395 C1390 1.379 . S
C1395 N1393 1.356 . S
N1396 C1388 1.356 . S
N1396 H1402 0.984 . S
N1396 H1403 0.984 . S
N1397 C1390 1.356 . S
N1397 H1400 0.984 . S
N1397 H1401 0.985 . S
H1398 N1393 0.984 . S
H1399 N1393 0.985 . S
H1400 N1397 0.984 . S
H1401 N1397 0.985 . S
H1402 N1396 0.984 . S
H1403 N1396 0.984 . S
H1404 N1392 0.984 . S
H1405 N1392 0.985 . S
C1406 C1407 1.363 . S
C1406 C1412 1.379 . S
C1406 N1414 1.356 . S
C1407 C1406 1.363 . S
C1407 C1413 1.363 . S
C1408 C1409 1.363 . S
C1408 C1413 1.379 . S
C1408 N1415 1.356 . S
C1409 C1408 1.363 . S
C1409 C1412 1.363 . S
N1410 C1412 1.356 . S
N1410 H1422 0.984 . S
N1410 H1423 0.985 . S
N1411 C1413 1.356 . S
N1411 H1416 0.984 . S
N1411 H1417 0.985 . S
C1412 C1406 1.379 . S
C1412 C1409 1.363 . S
C1412 N1410 1.356 . S
C1413 C1407 1.363 . S
C1413 C1408 1.379 . S
C1413 N1411 1.356 . S
N1414 C1406 1.356 . S
N1414 H1420 0.984 . S
N1414 H1421 0.984 . S
N1415 C1408 1.356 . S
N1415 H1418 0.984 . S
N1415 H1419 0.985 . S
H1416 N1411 0.984 . S
H1417 N1411 0.985 . S
H1418 N1415 0.984 . S
H1419 N1415 0.985 . S
H1420 N1414 0.984 . S
H1421 N1414 0.984 . S
H1422 N1410 0.984 . S
H1423 N1410 0.985 . S
C1424 C1425 1.363 . S
C1424 C1430 1.379 . S
C1424 N1432 1.356 . S
C1425 C1424 1.363 . S
C1425 C1431 1.363 . S
C1426 C1427 1.363 . S
C1426 C1431 1.379 . S
C1426 N1433 1.356 . S
C1427 C1426 1.363 . S
C1427 C1430 1.363 . S
N1428 C1430 1.356 . S
N1428 H1440 0.984 . S
N1428 H1441 0.985 . S
N1429 C1431 1.356 . S
N1429 H1434 0.984 . S
N1429 H1435 0.985 . S
C1430 C1424 1.379 . S
C1430 C1427 1.363 . S
C1430 N1428 1.356 . S
C1431 C1425 1.363 . S
C1431 C1426 1.379 . S
C1431 N1429 1.356 . S
N1432 C1424 1.356 . S
N1432 H1438 0.984 . S
N1432 H1439 0.984 . S
N1433 C1426 1.356 . S
N1433 H1436 0.984 . S
N1433 H1437 0.985 . S
H1434 N1429 0.984 . S
H1435 N1429 0.985 . S
H1436 N1433 0.984 . S
H1437 N1433 0.985 . S
H1438 N1432 0.984 . S
H1439 N1432 0.984 . S
H1440 N1428 0.984 . S
H1441 N1428 0.985 . S
C1442 C1443 1.363 . S
C1442 C1448 1.379 . S
C1442 N1450 1.356 . S
C1443 C1442 1.363 . S
C1443 C1449 1.363 . S
C1444 C1445 1.363 . S
C1444 C1449 1.379 . S
C1444 N1451 1.356 . S
C1445 C1444 1.363 . S
C1445 C1448 1.363 . S
N1446 C1448 1.356 . S
N1446 H1458 0.984 . S
N1446 H1459 0.985 . S
N1447 C1449 1.356 . S
N1447 H1452 0.984 . S
N1447 H1453 0.985 . S
C1448 C1442 1.379 . S
C1448 C1445 1.363 . S
C1448 N1446 1.356 . S
C1449 C1443 1.363 . S
C1449 C1444 1.379 . S
C1449 N1447 1.356 . S
N1450 C1442 1.356 . S
N1450 H1456 0.984 . S
N1450 H1457 0.984 . S
N1451 C1444 1.356 . S
N1451 H1454 0.984 . S
N1451 H1455 0.985 . S
H1452 N1447 0.984 . S
H1453 N1447 0.985 . S
H1454 N1451 0.984 . S
H1455 N1451 0.985 . S
H1456 N1450 0.984 . S
H1457 N1450 0.984 . S
H1458 N1446 0.984 . S
H1459 N1446 0.985 . S
C1460 C1461 1.363 . S
C1460 C1466 1.379 . S
C1460 N1468 1.356 . S
C1461 C1460 1.363 . S
C1461 C1467 1.363 . S
C1462 C1463 1.363 . S
C1462 C1467 1.379 . S
C1462 N1469 1.356 . S
C1463 C1462 1.363 . S
C1463 C1466 1.363 . S
N1464 C1466 1.356 . S
N1464 H1476 0.984 . S
N1464 H1477 0.985 . S
N1465 C1467 1.356 . S
N1465 H1470 0.984 . S
N1465 H1471 0.985 . S
C1466 C1460 1.379 . S
C1466 C1463 1.363 . S
C1466 N1464 1.356 . S
C1467 C1461 1.363 . S
C1467 C1462 1.379 . S
C1467 N1465 1.356 . S
N1468 C1460 1.356 . S
N1468 H1474 0.984 . S
N1468 H1475 0.984 . S
N1469 C1462 1.356 . S
N1469 H1472 0.984 . S
N1469 H1473 0.985 . S
H1470 N1465 0.984 . S
H1471 N1465 0.985 . S
H1472 N1469 0.984 . S
H1473 N1469 0.985 . S
H1474 N1468 0.984 . S
H1475 N1468 0.984 . S
H1476 N1464 0.984 . S
H1477 N1464 0.985 . S
C1478 C1479 1.363 . S
C1478 C1484 1.379 . S
C1478 N1486 1.356 . S
C1479 C1478 1.363 . S
C1479 C1485 1.363 . S
C1480 C1481 1.363 . S
C1480 C1485 1.379 . S
C1480 N1487 1.356 . S
C1481 C1480 1.363 . S
C1481 C1484 1.363 . S
N1482 C1484 1.356 . S
N1482 H1494 0.984 . S
N1482 H1495 0.985 . S
N1483 C1485 1.356 . S
N1483 H1488 0.984 . S
N1483 H1489 0.985 . S
C1484 C1478 1.379 . S
C1484 C1481 1.363 . S
C1484 N1482 1.356 . S
C1485 C1479 1.363 . S
C1485 C1480 1.379 . S
C1485 N1483 1.356 . S
N1486 C1478 1.356 . S
N1486 H1492 0.984 . S
N1486 H1493 0.984 . S
N1487 C1480 1.356 . S
N1487 H1490 0.984 . S
N1487 H1491 0.985 . S
H1488 N1483 0.984 . S
H1489 N1483 0.985 . S
H1490 N1487 0.984 . S
H1491 N1487 0.985 . S
H1492 N1486 0.984 . S
H1493 N1486 0.984 . S
H1494 N1482 0.984 . S
H1495 N1482 0.985 . S
C1496 C1497 1.363 . S
C1496 C1502 1.379 . S
C1496 N1504 1.356 . S
C1497 C1496 1.363 . S
C1497 C1503 1.363 . S
C1498 C1499 1.363 . S
C1498 C1503 1.379 . S
C1498 N1505 1.356 . S
C1499 C1498 1.363 . S
C1499 C1502 1.363 . S
N1500 C1502 1.356 . S
N1500 H1512 0.984 . S
N1500 H1513 0.985 . S
N1501 C1503 1.356 . S
N1501 H1506 0.984 . S
N1501 H1507 0.985 . S
C1502 C1496 1.379 . S
C1502 C1499 1.363 . S
C1502 N1500 1.356 . S
C1503 C1497 1.363 . S
C1503 C1498 1.379 . S
C1503 N1501 1.356 . S
N1504 C1496 1.356 . S
N1504 H1510 0.984 . S
N1504 H1511 0.984 . S
N1505 C1498 1.356 . S
N1505 H1508 0.984 . S
N1505 H1509 0.985 . S
H1506 N1501 0.984 . S
H1507 N1501 0.985 . S
H1508 N1505 0.984 . S
H1509 N1505 0.985 . S
H1510 N1504 0.984 . S
H1511 N1504 0.984 . S
H1512 N1500 0.984 . S
H1513 N1500 0.985 . S
C1514 C1515 1.363 . S
C1514 C1520 1.379 . S
C1514 N1522 1.356 . S
C1515 C1514 1.363 . S
C1515 C1521 1.363 . S
C1516 C1517 1.363 . S
C1516 C1521 1.379 . S
C1516 N1523 1.356 . S
C1517 C1516 1.363 . S
C1517 C1520 1.363 . S
N1518 C1520 1.356 . S
N1518 H1530 0.984 . S
N1518 H1531 0.985 . S
N1519 C1521 1.356 . S
N1519 H1524 0.984 . S
N1519 H1525 0.985 . S
C1520 C1514 1.379 . S
C1520 C1517 1.363 . S
C1520 N1518 1.356 . S
C1521 C1515 1.363 . S
C1521 C1516 1.379 . S
C1521 N1519 1.356 . S
N1522 C1514 1.356 . S
N1522 H1528 0.984 . S
N1522 H1529 0.984 . S
N1523 C1516 1.356 . S
N1523 H1526 0.984 . S
N1523 H1527 0.985 . S
H1524 N1519 0.984 . S
H1525 N1519 0.985 . S
H1526 N1523 0.984 . S
H1527 N1523 0.985 . S
H1528 N1522 0.984 . S
H1529 N1522 0.984 . S
H1530 N1518 0.984 . S
H1531 N1518 0.985 . S
C1532 C1533 1.363 1_655 S
C1532 C1538 1.379 . S
C1532 N1540 1.356 . S
C1533 C1532 1.363 1_455 S
C1533 C1539 1.363 . S
C1534 C1535 1.363 . S
C1534 C1539 1.379 . S
C1534 N1541 1.356 . S
C1535 C1534 1.363 . S
C1535 C1538 1.363 1_455 S
N1536 C1538 1.356 . S
N1536 H1548 0.984 . S
N1536 H1549 0.985 . S
N1537 C1539 1.356 . S
N1537 H1542 0.984 . S
N1537 H1543 0.985 . S
C1538 C1532 1.379 . S
C1538 C1535 1.363 1_655 S
C1538 N1536 1.356 . S
C1539 C1533 1.363 . S
C1539 C1534 1.379 . S
C1539 N1537 1.356 . S
N1540 C1532 1.356 . S
N1540 H1546 0.984 . S
N1540 H1547 0.984 . S
N1541 C1534 1.356 . S
N1541 H1544 0.984 . S
N1541 H1545 0.985 . S
H1542 N1537 0.984 . S
H1543 N1537 0.985 . S
H1544 N1541 0.984 . S
H1545 N1541 0.985 . S
H1546 N1540 0.984 . S
H1547 N1540 0.984 . S
H1548 N1536 0.984 . S
H1549 N1536 0.985 . S
C1550 C1551 1.363 . S
C1550 C1556 1.379 . S
C1550 N1558 1.356 . S
C1551 C1550 1.363 . S
C1551 C1557 1.363 . S
C1552 C1553 1.363 . S
C1552 C1557 1.379 . S
C1552 N1559 1.356 . S
C1553 C1552 1.363 . S
C1553 C1556 1.363 . S
N1554 C1556 1.356 . S
N1554 H1566 0.984 . S
N1554 H1567 0.985 . S
N1555 C1557 1.356 . S
N1555 H1560 0.984 . S
N1555 H1561 0.985 . S
C1556 C1550 1.379 . S
C1556 C1553 1.363 . S
C1556 N1554 1.356 . S
C1557 C1551 1.363 . S
C1557 C1552 1.379 . S
C1557 N1555 1.356 . S
N1558 C1550 1.356 . S
N1558 H1564 0.984 . S
N1558 H1565 0.984 . S
N1559 C1552 1.356 . S
N1559 H1562 0.984 . S
N1559 H1563 0.985 . S
H1560 N1555 0.984 . S
H1561 N1555 0.985 . S
H1562 N1559 0.984 . S
H1563 N1559 0.985 . S
H1564 N1558 0.984 . S
H1565 N1558 0.984 . S
H1566 N1554 0.984 . S
H1567 N1554 0.985 . S
C1568 C1569 1.363 . S
C1568 C1574 1.379 . S
C1568 N1576 1.356 . S
C1569 C1568 1.363 . S
C1569 C1575 1.363 . S
C1570 C1571 1.363 . S
C1570 C1575 1.379 . S
C1570 N1577 1.356 . S
C1571 C1570 1.363 . S
C1571 C1574 1.363 . S
N1572 C1574 1.356 . S
N1572 H1584 0.984 . S
N1572 H1585 0.985 . S
N1573 C1575 1.356 . S
N1573 H1578 0.984 . S
N1573 H1579 0.985 . S
C1574 C1568 1.379 . S
C1574 C1571 1.363 . S
C1574 N1572 1.356 . S
C1575 C1569 1.363 . S
C1575 C1570 1.379 . S
C1575 N1573 1.356 . S
N1576 C1568 1.356 . S
N1576 H1582 0.984 . S
N1576 H1583 0.984 . S
N1577 C1570 1.356 . S
N1577 H1580 0.984 . S
N1577 H1581 0.985 . S
H1578 N1573 0.984 . S
H1579 N1573 0.985 . S
H1580 N1577 0.984 . S
H1581 N1577 0.985 . S
H1582 N1576 0.984 . S
H1583 N1576 0.984 . S
H1584 N1572 0.984 . S
H1585 N1572 0.985 . S
C1586 C1587 1.363 . S
C1586 C1592 1.379 . S
C1586 N1594 1.356 . S
C1587 C1586 1.363 . S
C1587 C1593 1.363 . S
C1588 C1589 1.363 . S
C1588 C1593 1.379 . S
C1588 N1595 1.356 . S
C1589 C1588 1.363 . S
C1589 C1592 1.363 . S
N1590 C1592 1.356 . S
N1590 H1602 0.984 . S
N1590 H1603 0.985 . S
N1591 C1593 1.356 . S
N1591 H1596 0.984 . S
N1591 H1597 0.985 . S
C1592 C1586 1.379 . S
C1592 C1589 1.363 . S
C1592 N1590 1.356 . S
C1593 C1587 1.363 . S
C1593 C1588 1.379 . S
C1593 N1591 1.356 . S
N1594 C1586 1.356 . S
N1594 H1600 0.984 . S
N1594 H1601 0.984 . S
N1595 C1588 1.356 . S
N1595 H1598 0.984 . S
N1595 H1599 0.985 . S
H1596 N1591 0.984 . S
H1597 N1591 0.985 . S
H1598 N1595 0.984 . S
H1599 N1595 0.985 . S
H1600 N1594 0.984 . S
H1601 N1594 0.984 . S
H1602 N1590 0.984 . S
H1603 N1590 0.985 . S
C1604 C1605 1.363 . S
C1604 C1610 1.379 . S
C1604 N1612 1.356 . S
C1605 C1604 1.363 . S
C1605 C1611 1.363 1_655 S
C1606 C1607 1.345 1_455 S
C1606 C1611 1.379 . S
C1606 N1613 1.356 . S
C1607 C1606 1.345 1_655 S
C1607 C1610 1.391 . S
N1608 C1610 1.356 . S
N1608 H1620 0.984 . S
N1608 H1621 0.985 . S
N1609 C1611 1.356 . S
N1609 H1614 0.984 . S
N1609 H1615 0.985 . S
C1610 C1604 1.379 . S
C1610 C1607 1.391 . S
C1610 N1608 1.356 . S
C1611 C1605 1.363 1_455 S
C1611 C1606 1.379 . S
C1611 N1609 1.356 . S
N1612 C1604 1.356 . S
N1612 H1618 0.984 . S
N1612 H1619 0.984 . S
N1613 C1606 1.356 . S
N1613 H1616 0.984 . S
N1613 H1617 0.985 . S
H1614 N1609 0.984 . S
H1615 N1609 0.985 . S
H1616 N1613 0.984 . S
H1617 N1613 0.985 . S
H1618 N1612 0.984 . S
H1619 N1612 0.984 . S
H1620 N1608 0.984 . S
H1621 N1608 0.985 . S
C1622 C1623 1.363 . S
C1622 C1628 1.379 . S
C1622 N1630 1.356 . S
C1623 C1622 1.363 . S
C1623 C1629 1.363 . S
C1624 C1625 1.363 . S
C1624 C1629 1.379 . S
C1624 N1631 1.356 . S
C1625 C1624 1.363 . S
C1625 C1628 1.363 . S
N1626 C1628 1.356 . S
N1626 H1638 0.984 . S
N1626 H1639 0.985 . S
N1627 C1629 1.356 . S
N1627 H1632 0.984 . S
N1627 H1633 0.985 . S
C1628 C1622 1.379 . S
C1628 C1625 1.363 . S
C1628 N1626 1.356 . S
C1629 C1623 1.363 . S
C1629 C1624 1.379 . S
C1629 N1627 1.356 . S
N1630 C1622 1.356 . S
N1630 H1636 0.984 . S
N1630 H1637 0.984 . S
N1631 C1624 1.356 . S
N1631 H1634 0.984 . S
N1631 H1635 0.985 . S
H1632 N1627 0.984 . S
H1633 N1627 0.985 . S
H1634 N1631 0.984 . S
H1635 N1631 0.985 . S
H1636 N1630 0.984 . S
H1637 N1630 0.984 . S
H1638 N1626 0.984 . S
H1639 N1626 0.985 . S
C1640 C1641 1.363 . S
C1640 C1646 1.379 . S
C1640 N1648 1.356 . S
C1641 C1640 1.363 . S
C1641 C1647 1.363 . S
C1642 C1643 1.363 . S
C1642 C1647 1.379 . S
C1642 N1649 1.356 . S
C1643 C1642 1.363 . S
C1643 C1646 1.363 . S
N1644 C1646 1.356 . S
N1644 H1656 0.984 . S
N1644 H1657 0.985 . S
N1645 C1647 1.356 . S
N1645 H1650 0.984 . S
N1645 H1651 0.985 . S
C1646 C1640 1.379 . S
C1646 C1643 1.363 . S
C1646 N1644 1.356 . S
C1647 C1641 1.363 . S
C1647 C1642 1.379 . S
C1647 N1645 1.356 . S
N1648 C1640 1.356 . S
N1648 H1654 0.984 . S
N1648 H1655 0.984 . S
N1649 C1642 1.356 . S
N1649 H1652 0.984 . S
N1649 H1653 0.985 . S
H1650 N1645 0.984 . S
H1651 N1645 0.985 . S
H1652 N1649 0.984 . S
H1653 N1649 0.985 . S
H1654 N1648 0.984 . S
H1655 N1648 0.984 . S
H1656 N1644 0.984 . S
H1657 N1644 0.985 . S
C1658 C1659 1.363 . S
C1658 C1664 1.379 . S
C1658 N1666 1.356 . S
C1659 C1658 1.363 . S
C1659 C1665 1.363 . S
C1660 C1661 1.363 . S
C1660 C1665 1.379 . S
C1660 N1667 1.356 . S
C1661 C1660 1.363 . S
C1661 C1664 1.363 . S
N1662 C1664 1.356 . S
N1662 H1674 0.984 . S
N1662 H1675 0.985 . S
N1663 C1665 1.356 . S
N1663 H1668 0.984 . S
N1663 H1669 0.985 . S
C1664 C1658 1.379 . S
C1664 C1661 1.363 . S
C1664 N1662 1.356 . S
C1665 C1659 1.363 . S
C1665 C1660 1.379 . S
C1665 N1663 1.356 . S
N1666 C1658 1.356 . S
N1666 H1672 0.984 . S
N1666 H1673 0.984 . S
N1667 C1660 1.356 . S
N1667 H1670 0.984 . S
N1667 H1671 0.985 . S
H1668 N1663 0.984 . S
H1669 N1663 0.985 . S
H1670 N1667 0.984 . S
H1671 N1667 0.985 . S
H1672 N1666 0.984 . S
H1673 N1666 0.984 . S
H1674 N1662 0.984 . S
H1675 N1662 0.985 . S
C1676 C1677 1.363 . S
C1676 C1682 1.379 . S
C1676 N1684 1.356 . S
C1677 C1676 1.363 . S
C1677 C1683 1.363 . S
C1678 C1679 1.363 . S
C1678 C1683 1.379 . S
C1678 N1685 1.356 . S
C1679 C1678 1.363 . S
C1679 C1682 1.363 . S
N1680 C1682 1.356 . S
N1680 H1692 0.984 . S
N1680 H1693 0.985 . S
N1681 C1683 1.356 . S
N1681 H1686 0.984 . S
N1681 H1687 0.985 . S
C1682 C1676 1.379 . S
C1682 C1679 1.363 . S
C1682 N1680 1.356 . S
C1683 C1677 1.363 . S
C1683 C1678 1.379 . S
C1683 N1681 1.356 . S
N1684 C1676 1.356 . S
N1684 H1690 0.984 . S
N1684 H1691 0.984 . S
N1685 C1678 1.356 . S
N1685 H1688 0.984 . S
N1685 H1689 0.985 . S
H1686 N1681 0.984 . S
H1687 N1681 0.985 . S
H1688 N1685 0.984 . S
H1689 N1685 0.985 . S
H1690 N1684 0.984 . S
H1691 N1684 0.984 . S
H1692 N1680 0.984 . S
H1693 N1680 0.985 . S
C1694 C1695 1.363 . S
C1694 C1700 1.379 . S
C1694 N1702 1.356 . S
C1695 C1694 1.363 . S
C1695 C1701 1.363 . S
C1696 C1697 1.363 . S
C1696 C1701 1.379 . S
C1696 N1703 1.356 . S
C1697 C1696 1.363 . S
C1697 C1700 1.363 . S
N1698 C1700 1.356 . S
N1698 H1710 0.984 . S
N1698 H1711 0.985 . S
N1699 C1701 1.356 . S
N1699 H1704 0.984 . S
N1699 H1705 0.985 . S
C1700 C1694 1.379 . S
C1700 C1697 1.363 . S
C1700 N1698 1.356 . S
C1701 C1695 1.363 . S
C1701 C1696 1.379 . S
C1701 N1699 1.356 . S
N1702 C1694 1.356 . S
N1702 H1708 0.984 . S
N1702 H1709 0.984 . S
N1703 C1696 1.356 . S
N1703 H1706 0.984 . S
N1703 H1707 0.985 . S
H1704 N1699 0.984 . S
H1705 N1699 0.985 . S
H1706 N1703 0.984 . S
H1707 N1703 0.985 . S
H1708 N1702 0.984 . S
H1709 N1702 0.984 . S
H1710 N1698 0.984 . S
H1711 N1698 0.985 . S
C1712 C1713 1.363 . S
C1712 C1718 1.379 . S
C1712 N1720 1.356 . S
C1713 C1712 1.363 . S
C1713 C1719 1.363 . S
C1714 C1715 1.363 . S
C1714 C1719 1.379 . S
C1714 N1721 1.356 . S
C1715 C1714 1.363 . S
C1715 C1718 1.363 . S
N1716 C1718 1.356 . S
N1716 H1728 0.984 . S
N1716 H1729 0.985 . S
N1717 C1719 1.356 . S
N1717 H1722 0.984 . S
N1717 H1723 0.985 . S
C1718 C1712 1.379 . S
C1718 C1715 1.363 . S
C1718 N1716 1.356 . S
C1719 C1713 1.363 . S
C1719 C1714 1.379 . S
C1719 N1717 1.356 . S
N1720 C1712 1.356 . S
N1720 H1726 0.984 . S
N1720 H1727 0.984 . S
N1721 C1714 1.356 . S
N1721 H1724 0.984 . S
N1721 H1725 0.985 . S
H1722 N1717 0.984 . S
H1723 N1717 0.985 . S
H1724 N1721 0.984 . S
H1725 N1721 0.985 . S
H1726 N1720 0.984 . S
H1727 N1720 0.984 . S
H1728 N1716 0.984 . S
H1729 N1716 0.985 . S
C1730 C1731 1.363 . S
C1730 C1736 1.379 . S
C1730 N1738 1.356 . S
C1731 C1730 1.363 . S
C1731 C1737 1.363 . S
C1732 C1733 1.363 . S
C1732 C1737 1.379 . S
C1732 N1739 1.356 . S
C1733 C1732 1.363 . S
C1733 C1736 1.363 . S
N1734 C1736 1.356 . S
N1734 H1746 0.984 . S
N1734 H1747 0.985 . S
N1735 C1737 1.356 . S
N1735 H1740 0.984 . S
N1735 H1741 0.985 . S
C1736 C1730 1.379 . S
C1736 C1733 1.363 . S
C1736 N1734 1.356 . S
C1737 C1731 1.363 . S
C1737 C1732 1.379 . S
C1737 N1735 1.356 . S
N1738 C1730 1.356 . S
N1738 H1744 0.984 . S
N1738 H1745 0.984 . S
N1739 C1732 1.356 . S
N1739 H1742 0.984 . S
N1739 H1743 0.985 . S
H1740 N1735 0.984 . S
H1741 N1735 0.985 . S
H1742 N1739 0.984 . S
H1743 N1739 0.985 . S
H1744 N1738 0.984 . S
H1745 N1738 0.984 . S
H1746 N1734 0.984 . S
H1747 N1734 0.985 . S
C1748 C1749 1.363 . S
C1748 C1754 1.379 . S
C1748 N1756 1.356 . S
C1749 C1748 1.363 . S
C1749 C1755 1.363 . S
C1750 C1751 1.363 . S
C1750 C1755 1.379 . S
C1750 N1757 1.356 . S
C1751 C1750 1.363 . S
C1751 C1754 1.363 . S
N1752 C1754 1.356 . S
N1752 H1764 0.984 1_455 S
N1752 H1765 0.985 . S
N1753 C1755 1.356 . S
N1753 H1758 0.984 . S
N1753 H1759 0.985 . S
C1754 C1748 1.379 . S
C1754 C1751 1.363 . S
C1754 N1752 1.356 . S
C1755 C1749 1.363 . S
C1755 C1750 1.379 . S
C1755 N1753 1.356 . S
N1756 C1748 1.356 . S
N1756 H1762 0.984 . S
N1756 H1763 0.984 . S
N1757 C1750 1.356 . S
N1757 H1760 0.984 . S
N1757 H1761 0.985 . S
H1758 N1753 0.984 . S
H1759 N1753 0.985 . S
H1760 N1757 0.984 . S
H1761 N1757 0.985 . S
H1762 N1756 0.984 . S
H1763 N1756 0.984 . S
H1764 N1752 0.984 1_655 S
H1765 N1752 0.985 . S
C1766 C1767 1.363 . S
C1766 C1772 1.379 . S
C1766 N1774 1.356 . S
C1767 C1766 1.363 . S
C1767 C1773 1.363 . S
C1768 C1769 1.363 . S
C1768 C1773 1.379 . S
C1768 N1775 1.356 . S
C1769 C1768 1.363 . S
C1769 C1772 1.363 . S
N1770 C1772 1.356 . S
N1770 H1782 0.984 . S
N1770 H1783 0.985 . S
N1771 C1773 1.356 . S
N1771 H1776 0.984 . S
N1771 H1777 0.985 . S
C1772 C1766 1.379 . S
C1772 C1769 1.363 . S
C1772 N1770 1.356 . S
C1773 C1767 1.363 . S
C1773 C1768 1.379 . S
C1773 N1771 1.356 . S
N1774 C1766 1.356 . S
N1774 H1780 0.984 . S
N1774 H1781 0.984 . S
N1775 C1768 1.356 . S
N1775 H1778 0.984 . S
N1775 H1779 0.985 . S
H1776 N1771 0.984 . S
H1777 N1771 0.985 . S
H1778 N1775 0.984 . S
H1779 N1775 0.985 . S
H1780 N1774 0.984 . S
H1781 N1774 0.984 . S
H1782 N1770 0.984 . S
H1783 N1770 0.985 . S
C1784 C1785 1.363 . S
C1784 C1790 1.379 . S
C1784 N1792 1.356 . S
C1785 C1784 1.363 . S
C1785 C1791 1.363 . S
C1786 C1787 1.363 . S
C1786 C1791 1.379 . S
C1786 N1793 1.356 . S
C1787 C1786 1.363 . S
C1787 C1790 1.363 . S
N1788 C1790 1.356 . S
N1788 H1800 0.984 . S
N1788 H1801 0.985 . S
N1789 C1791 1.356 . S
N1789 H1794 0.984 . S
N1789 H1795 0.985 . S
C1790 C1784 1.379 . S
C1790 C1787 1.363 . S
C1790 N1788 1.356 . S
C1791 C1785 1.363 . S
C1791 C1786 1.379 . S
C1791 N1789 1.356 . S
N1792 C1784 1.356 . S
N1792 H1798 0.984 . S
N1792 H1799 0.984 . S
N1793 C1786 1.356 . S
N1793 H1796 0.984 . S
N1793 H1797 0.985 . S
H1794 N1789 0.984 . S
H1795 N1789 0.985 . S
H1796 N1793 0.984 . S
H1797 N1793 0.985 . S
H1798 N1792 0.984 . S
H1799 N1792 0.984 . S
H1800 N1788 0.984 . S
H1801 N1788 0.985 . S
C1802 C1803 1.363 . S
C1802 C1808 1.379 . S
C1802 N1810 1.356 . S
C1803 C1802 1.363 . S
C1803 C1809 1.363 . S
C1804 C1805 1.363 . S
C1804 C1809 1.379 . S
C1804 N1811 1.356 . S
C1805 C1804 1.363 . S
C1805 C1808 1.363 . S
N1806 C1808 1.356 . S
N1806 H1818 0.984 . S
N1806 H1819 0.985 . S
N1807 C1809 1.356 . S
N1807 H1812 0.984 . S
N1807 H1813 0.985 . S
C1808 C1802 1.379 . S
C1808 C1805 1.363 . S
C1808 N1806 1.356 . S
C1809 C1803 1.363 . S
C1809 C1804 1.379 . S
C1809 N1807 1.356 . S
N1810 C1802 1.356 . S
N1810 H1816 0.984 . S
N1810 H1817 0.984 . S
N1811 C1804 1.356 . S
N1811 H1814 0.984 . S
N1811 H1815 0.985 . S
H1812 N1807 0.984 . S
H1813 N1807 0.985 . S
H1814 N1811 0.984 . S
H1815 N1811 0.985 . S
H1816 N1810 0.984 . S
H1817 N1810 0.984 . S
H1818 N1806 0.984 . S
H1819 N1806 0.985 . S
C1820 C1821 1.363 . S
C1820 C1826 1.379 . S
C1820 N1828 1.356 . S
C1821 C1820 1.363 . S
C1821 C1827 1.363 . S
C1822 C1823 1.363 . S
C1822 C1827 1.379 . S
C1822 N1829 1.356 . S
C1823 C1822 1.363 . S
C1823 C1826 1.363 . S
N1824 C1826 1.356 . S
N1824 H1836 0.984 . S
N1824 H1837 0.985 . S
N1825 C1827 1.356 . S
N1825 H1830 0.984 . S
N1825 H1831 0.985 . S
C1826 C1820 1.379 . S
C1826 C1823 1.363 . S
C1826 N1824 1.356 . S
C1827 C1821 1.363 . S
C1827 C1822 1.379 . S
C1827 N1825 1.356 . S
N1828 C1820 1.356 . S
N1828 H1834 0.984 . S
N1828 H1835 0.984 . S
N1829 C1822 1.356 . S
N1829 H1832 0.984 . S
N1829 H1833 0.985 . S
H1830 N1825 0.984 . S
H1831 N1825 0.985 . S
H1832 N1829 0.984 . S
H1833 N1829 0.985 . S
H1834 N1828 0.984 . S
H1835 N1828 0.984 . S
H1836 N1824 0.984 . S
H1837 N1824 0.985 . S
C1838 C1839 1.363 . S
C1838 C1844 1.379 . S
C1838 N1846 1.356 . S
C1839 C1838 1.363 . S
C1839 C1845 1.363 . S
C1840 C1841 1.363 . S
C1840 C1845 1.379 . S
C1840 N1847 1.356 1_554 S
C1841 C1840 1.363 . S
C1841 C1844 1.363 . S
N1842 C1844 1.356 1_545 S
N1842 H1854 0.984 . S
N1842 H1855 0.985 . S
N1843 C1845 1.356 1_556 S
N1843 H1848 0.984 1_556 S
N1843 H1849 0.985 . S
C1844 C1838 1.379 . S
C1844 C1841 1.363 . S
C1844 N1842 1.356 1_565 S
C1845 C1839 1.363 . S
C1845 C1840 1.379 . S
C1845 N1843 1.356 1_554 S
N1846 C1838 1.356 . S
N1846 H1852 0.984 . S
N1846 H1853 0.984 . S
N1847 C1840 1.356 1_556 S
N1847 H1850 0.984 . S
N1847 H1851 0.985 . S
H1848 N1843 0.984 1_554 S
H1849 N1843 0.985 . S
H1850 N1847 0.984 . S
H1851 N1847 0.985 . S
H1852 N1846 0.984 . S
H1853 N1846 0.984 . S
H1854 N1842 0.984 . S
H1855 N1842 0.985 . S
C1856 C1857 1.363 . S
C1856 C1862 1.379 . S
C1856 N1864 1.356 . S
C1857 C1856 1.363 . S
C1857 C1863 1.363 . S
C1858 C1859 1.363 . S
C1858 C1863 1.379 . S
C1858 N1865 1.356 . S
C1859 C1858 1.363 . S
C1859 C1862 1.363 . S
N1860 C1862 1.356 . S
N1860 H1872 0.984 . S
N1860 H1873 0.985 . S
N1861 C1863 1.356 . S
N1861 H1866 0.984 . S
N1861 H1867 0.985 . S
C1862 C1856 1.379 . S
C1862 C1859 1.363 . S
C1862 N1860 1.356 . S
C1863 C1857 1.363 . S
C1863 C1858 1.379 . S
C1863 N1861 1.356 . S
N1864 C1856 1.356 . S
N1864 H1870 0.984 . S
N1864 H1871 0.984 . S
N1865 C1858 1.356 . S
N1865 H1868 0.984 . S
N1865 H1869 0.985 . S
H1866 N1861 0.984 . S
H1867 N1861 0.985 . S
H1868 N1865 0.984 . S
H1869 N1865 0.985 . S
H1870 N1864 0.984 . S
H1871 N1864 0.984 . S
H1872 N1860 0.984 . S
H1873 N1860 0.985 . S
C1874 C1875 1.361 1_556 S
C1874 C1880 1.376 1_556 S
C1874 N1882 1.361 . S
C1875 C1874 1.361 1_554 S
C1875 C1881 1.363 . S
C1876 C1877 1.363 . S
C1876 C1881 1.379 . S
C1876 N1883 1.356 . S
C1877 C1876 1.363 . S
C1877 C1880 1.363 . S
N1878 C1880 1.356 . S
N1878 H1890 0.984 . S
N1878 H1891 0.985 . S
N1879 C1881 1.356 . S
N1879 H1884 0.984 . S
N1879 H1885 0.985 . S
C1880 C1874 1.376 1_554 S
C1880 C1877 1.363 . S
C1880 N1878 1.356 . S
C1881 C1875 1.363 . S
C1881 C1876 1.379 . S
C1881 N1879 1.356 . S
N1882 C1874 1.361 . S
N1882 H1888 0.984 . S
N1882 H1889 0.984 . S
N1883 C1876 1.356 . S
N1883 H1886 0.984 . S
N1883 H1887 0.985 . S
H1884 N1879 0.984 . S
H1885 N1879 0.985 . S
H1886 N1883 0.984 . S
H1887 N1883 0.985 . S
H1888 N1882 0.984 . S
H1889 N1882 0.984 . S
H1890 N1878 0.984 . S
H1891 N1878 0.985 . S
C1892 C1893 1.363 . S
C1892 C1898 1.379 . S
C1892 N1900 1.356 . S
C1893 C1892 1.363 . S
C1893 C1899 1.363 . S
C1894 C1895 1.363 . S
C1894 C1899 1.379 . S
C1894 N1901 1.356 . S
C1895 C1894 1.363 . S
C1895 C1898 1.363 . S
N1896 C1898 1.356 . S
N1896 H1908 0.984 . S
N1896 H1909 0.985 . S
N1897 C1899 1.356 . S
N1897 H1902 0.984 . S
N1897 H1903 0.985 . S
C1898 C1892 1.379 . S
C1898 C1895 1.363 . S
C1898 N1896 1.356 . S
C1899 C1893 1.363 . S
C1899 C1894 1.379 . S
C1899 N1897 1.356 . S
N1900 C1892 1.356 . S
N1900 H1906 0.984 . S
N1900 H1907 0.984 . S
N1901 C1894 1.356 . S
N1901 H1904 0.984 . S
N1901 H1905 0.985 . S
H1902 N1897 0.984 . S
H1903 N1897 0.985 . S
H1904 N1901 0.984 . S
H1905 N1901 0.985 . S
H1906 N1900 0.984 . S
H1907 N1900 0.984 . S
H1908 N1896 0.984 . S
H1909 N1896 0.985 . S
C1910 C1911 1.363 . S
C1910 C1916 1.379 . S
C1910 N1918 1.356 . S
C1911 C1910 1.363 . S
C1911 C1917 1.363 . S
C1912 C1913 1.363 . S
C1912 C1917 1.379 . S
C1912 N1919 1.356 . S
C1913 C1912 1.363 . S
C1913 C1916 1.363 . S
N1914 C1916 1.356 . S
N1914 H1926 0.984 . S
N1914 H1927 0.985 . S
N1915 C1917 1.356 . S
N1915 H1920 0.984 . S
N1915 H1921 0.985 . S
C1916 C1910 1.379 . S
C1916 C1913 1.363 . S
C1916 N1914 1.356 . S
C1917 C1911 1.363 . S
C1917 C1912 1.379 . S
C1917 N1915 1.356 . S
N1918 C1910 1.356 . S
N1918 H1924 0.984 . S
N1918 H1925 0.984 . S
N1919 C1912 1.356 . S
N1919 H1922 0.984 . S
N1919 H1923 0.985 . S
H1920 N1915 0.984 . S
H1921 N1915 0.985 . S
H1922 N1919 0.984 . S
H1923 N1919 0.985 . S
H1924 N1918 0.984 . S
H1925 N1918 0.984 . S
H1926 N1914 0.984 . S
H1927 N1914 0.985 . S
C1928 C1929 1.363 . S
C1928 C1934 1.379 . S
C1928 N1936 1.356 . S
C1929 C1928 1.363 . S
C1929 C1935 1.363 . S
C1930 C1931 1.363 . S
C1930 C1935 1.379 . S
C1930 N1937 1.356 . S
C1931 C1930 1.363 . S
C1931 C1934 1.363 . S
N1932 C1934 1.356 . S
N1932 H1944 0.984 . S
N1932 H1945 0.985 . S
N1933 C1935 1.356 . S
N1933 H1938 0.984 . S
N1933 H1939 0.985 . S
C1934 C1928 1.379 . S
C1934 C1931 1.363 . S
C1934 N1932 1.356 . S
C1935 C1929 1.363 . S
C1935 C1930 1.379 . S
C1935 N1933 1.356 . S
N1936 C1928 1.356 . S
N1936 H1942 0.984 . S
N1936 H1943 0.984 . S
N1937 C1930 1.356 . S
N1937 H1940 0.984 . S
N1937 H1941 0.985 . S
H1938 N1933 0.984 . S
H1939 N1933 0.985 . S
H1940 N1937 0.984 . S
H1941 N1937 0.985 . S
H1942 N1936 0.984 . S
H1943 N1936 0.984 . S
H1944 N1932 0.984 . S
H1945 N1932 0.985 . S
C1946 C1947 1.363 . S
C1946 C1952 1.379 . S
C1946 N1954 1.356 . S
C1947 C1946 1.363 . S
C1947 C1953 1.363 . S
C1948 C1949 1.363 . S
C1948 C1953 1.379 . S
C1948 N1955 1.356 . S
C1949 C1948 1.363 . S
C1949 C1952 1.363 . S
N1950 C1952 1.356 . S
N1950 H1962 0.984 . S
N1950 H1963 0.985 . S
N1951 C1953 1.356 . S
N1951 H1956 0.984 . S
N1951 H1957 0.985 . S
C1952 C1946 1.379 . S
C1952 C1949 1.363 . S
C1952 N1950 1.356 . S
C1953 C1947 1.363 . S
C1953 C1948 1.379 . S
C1953 N1951 1.356 . S
N1954 C1946 1.356 . S
N1954 H1960 0.984 . S
N1954 H1961 0.984 . S
N1955 C1948 1.356 . S
N1955 H1958 0.984 . S
N1955 H1959 0.985 . S
H1956 N1951 0.984 . S
H1957 N1951 0.985 . S
H1958 N1955 0.984 . S
H1959 N1955 0.985 . S
H1960 N1954 0.984 . S
H1961 N1954 0.984 . S
H1962 N1950 0.984 . S
H1963 N1950 0.985 . S
C1964 C1965 1.363 1_655 S
C1964 C1970 1.379 . S
C1964 N1972 1.356 . S
C1965 C1964 1.363 1_455 S
C1965 C1971 1.363 . S
C1966 C1967 1.363 . S
C1966 C1971 1.379 . S
C1966 N1973 1.356 . S
C1967 C1966 1.363 . S
C1967 C1970 1.363 1_455 S
N1968 C1970 1.356 . S
N1968 H1980 0.984 . S
N1968 H1981 0.985 . S
N1969 C1971 1.356 . S
N1969 H1974 0.984 . S
N1969 H1975 0.985 . S
C1970 C1964 1.379 . S
C1970 C1967 1.363 1_655 S
C1970 N1968 1.356 . S
C1971 C1965 1.363 . S
C1971 C1966 1.379 . S
C1971 N1969 1.356 . S
N1972 C1964 1.356 . S
N1972 H1978 0.984 . S
N1972 H1979 0.984 . S
N1973 C1966 1.356 . S
N1973 H1976 0.984 . S
N1973 H1977 0.985 . S
H1974 N1969 0.984 . S
H1975 N1969 0.985 . S
H1976 N1973 0.984 . S
H1977 N1973 0.985 . S
H1978 N1972 0.984 . S
H1979 N1972 0.984 . S
H1980 N1968 0.984 . S
H1981 N1968 0.985 . S
C1982 C1983 1.363 . S
C1982 C1988 1.379 . S
C1982 N1990 1.356 . S
C1983 C1982 1.363 . S
C1983 C1989 1.363 . S
C1984 C1985 1.363 . S
C1984 C1989 1.379 . S
C1984 N1991 1.356 . S
C1985 C1984 1.363 . S
C1985 C1988 1.363 . S
N1986 C1988 1.356 . S
N1986 H1998 0.984 . S
N1986 H1999 0.985 . S
N1987 C1989 1.356 . S
N1987 H1992 0.984 . S
N1987 H1993 0.985 . S
C1988 C1982 1.379 . S
C1988 C1985 1.363 . S
C1988 N1986 1.356 . S
C1989 C1983 1.363 . S
C1989 C1984 1.379 . S
C1989 N1987 1.356 . S
N1990 C1982 1.356 . S
N1990 H1996 0.984 . S
N1990 H1997 0.984 . S
N1991 C1984 1.356 . S
N1991 H1994 0.984 . S
N1991 H1995 0.985 . S
H1992 N1987 0.984 . S
H1993 N1987 0.985 . S
H1994 N1991 0.984 . S
H1995 N1991 0.985 . S
H1996 N1990 0.984 . S
H1997 N1990 0.984 . S
H1998 N1986 0.984 . S
H1999 N1986 0.985 . S
C2000 C2001 1.363 . S
C2000 C2006 1.379 . S
C2000 N2008 1.356 . S
C2001 C2000 1.363 . S
C2001 C2007 1.363 . S
C2002 C2003 1.370 . S
C2002 C2007 1.387 . S
C2002 N2009 1.341 1_556 S
C2003 C2002 1.370 . S
C2003 C2006 1.363 . S
N2004 C2006 1.356 . S
N2004 H2016 0.984 . S
N2004 H2017 0.985 . S
N2005 C2007 1.356 . S
N2005 H2010 0.984 . S
N2005 H2011 0.985 1_556 S
C2006 C2000 1.379 . S
C2006 C2003 1.363 . S
C2006 N2004 1.356 . S
C2007 C2001 1.363 . S
C2007 C2002 1.387 . S
C2007 N2005 1.356 . S
N2008 C2000 1.356 . S
N2008 H2014 0.984 . S
N2008 H2015 0.984 . S
N2009 C2002 1.341 1_554 S
N2009 H2012 0.984 . S
N2009 H2013 0.985 . S
H2010 N2005 0.984 . S
H2011 N2005 0.985 1_554 S
H2012 N2009 0.984 . S
H2013 N2009 0.985 . S
H2014 N2008 0.984 . S
H2015 N2008 0.984 . S
H2016 N2004 0.984 . S
H2017 N2004 0.985 . S
C2018 C2019 1.363 . S
C2018 C2024 1.379 . S
C2018 N2026 1.356 . S
C2019 C2018 1.363 . S
C2019 C2025 1.363 . S
C2020 C2021 1.363 . S
C2020 C2025 1.379 . S
C2020 N2027 1.356 . S
C2021 C2020 1.363 . S
C2021 C2024 1.363 . S
N2022 C2024 1.356 . S
N2022 H2034 0.984 . S
N2022 H2035 0.985 . S
N2023 C2025 1.356 . S
N2023 H2028 0.984 . S
N2023 H2029 0.985 . S
C2024 C2018 1.379 . S
C2024 C2021 1.363 . S
C2024 N2022 1.356 . S
C2025 C2019 1.363 . S
C2025 C2020 1.379 . S
C2025 N2023 1.356 . S
N2026 C2018 1.356 . S
N2026 H2032 0.984 . S
N2026 H2033 0.984 . S
N2027 C2020 1.356 . S
N2027 H2030 0.984 . S
N2027 H2031 0.985 . S
H2028 N2023 0.984 . S
H2029 N2023 0.985 . S
H2030 N2027 0.984 . S
H2031 N2027 0.985 . S
H2032 N2026 0.984 . S
H2033 N2026 0.984 . S
H2034 N2022 0.984 . S
H2035 N2022 0.985 . S
C2036 C2037 1.363 . S
C2036 C2042 1.379 . S
C2036 N2044 1.356 . S
C2037 C2036 1.363 . S
C2037 C2043 1.363 . S
C2038 C2039 1.363 . S
C2038 C2043 1.379 . S
C2038 N2045 1.356 . S
C2039 C2038 1.363 . S
C2039 C2042 1.363 . S
N2040 C2042 1.356 . S
N2040 H2052 0.984 . S
N2040 H2053 0.985 . S
N2041 C2043 1.356 . S
N2041 H2046 0.984 . S
N2041 H2047 0.985 . S
C2042 C2036 1.379 . S
C2042 C2039 1.363 . S
C2042 N2040 1.356 . S
C2043 C2037 1.363 . S
C2043 C2038 1.379 . S
C2043 N2041 1.356 . S
N2044 C2036 1.356 . S
N2044 H2050 0.984 . S
N2044 H2051 0.984 . S
N2045 C2038 1.356 . S
N2045 H2048 0.984 . S
N2045 H2049 0.985 1_455 S
H2046 N2041 0.984 . S
H2047 N2041 0.985 . S
H2048 N2045 0.984 . S
H2049 N2045 0.985 1_655 S
H2050 N2044 0.984 . S
H2051 N2044 0.984 . S
H2052 N2040 0.984 . S
H2053 N2040 0.985 . S
C2054 C2055 1.363 . S
C2054 C2060 1.379 . S
C2054 N2062 1.356 . S
C2055 C2054 1.363 . S
C2055 C2061 1.363 . S
C2056 C2057 1.363 . S
C2056 C2061 1.379 . S
C2056 N2063 1.356 . S
C2057 C2056 1.363 . S
C2057 C2060 1.363 . S
N2058 C2060 1.356 . S
N2058 H2070 0.984 . S
N2058 H2071 0.985 . S
N2059 C2061 1.356 . S
N2059 H2064 0.984 . S
N2059 H2065 0.985 . S
C2060 C2054 1.379 . S
C2060 C2057 1.363 . S
C2060 N2058 1.356 . S
C2061 C2055 1.363 . S
C2061 C2056 1.379 . S
C2061 N2059 1.356 . S
N2062 C2054 1.356 . S
N2062 H2068 0.984 . S
N2062 H2069 0.984 . S
N2063 C2056 1.356 . S
N2063 H2066 0.984 . S
N2063 H2067 0.985 . S
H2064 N2059 0.984 . S
H2065 N2059 0.985 . S
H2066 N2063 0.984 . S
H2067 N2063 0.985 . S
H2068 N2062 0.984 . S
H2069 N2062 0.984 . S
H2070 N2058 0.984 . S
H2071 N2058 0.985 . S
C2072 C2073 1.363 . S
C2072 C2078 1.379 . S
C2072 N2080 1.356 . S
C2073 C2072 1.363 . S
C2073 C2079 1.363 . S
C2074 C2075 1.363 . S
C2074 C2079 1.379 . S
C2074 N2081 1.356 . S
C2075 C2074 1.363 . S
C2075 C2078 1.363 . S
N2076 C2078 1.356 . S
N2076 H2088 0.984 . S
N2076 H2089 0.985 . S
N2077 C2079 1.356 . S
N2077 H2082 0.984 . S
N2077 H2083 0.985 . S
C2078 C2072 1.379 . S
C2078 C2075 1.363 . S
C2078 N2076 1.356 . S
C2079 C2073 1.363 . S
C2079 C2074 1.379 . S
C2079 N2077 1.356 . S
N2080 C2072 1.356 . S
N2080 H2086 0.984 . S
N2080 H2087 0.984 . S
N2081 C2074 1.356 . S
N2081 H2084 0.984 . S
N2081 H2085 0.985 . S
H2082 N2077 0.984 . S
H2083 N2077 0.985 . S
H2084 N2081 0.984 . S
H2085 N2081 0.985 . S
H2086 N2080 0.984 . S
H2087 N2080 0.984 . S
H2088 N2076 0.984 . S
H2089 N2076 0.985 . S
C2090 C2091 1.363 . S
C2090 C2096 1.379 . S
C2090 N2098 1.356 . S
C2091 C2090 1.363 . S
C2091 C2097 1.363 . S
C2092 C2093 1.363 . S
C2092 C2097 1.379 . S
C2092 N2099 1.356 . S
C2093 C2092 1.363 . S
C2093 C2096 1.363 . S
N2094 C2096 1.356 . S
N2094 H2106 0.984 . S
N2094 H2107 0.985 . S
N2095 C2097 1.356 . S
N2095 H2100 0.984 . S
N2095 H2101 0.985 . S
C2096 C2090 1.379 . S
C2096 C2093 1.363 . S
C2096 N2094 1.356 . S
C2097 C2091 1.363 . S
C2097 C2092 1.379 . S
C2097 N2095 1.356 . S
N2098 C2090 1.356 . S
N2098 H2104 0.984 . S
N2098 H2105 0.984 . S
N2099 C2092 1.356 . S
N2099 H2102 0.984 . S
N2099 H2103 0.985 . S
H2100 N2095 0.984 . S
H2101 N2095 0.985 . S
H2102 N2099 0.984 . S
H2103 N2099 0.985 . S
H2104 N2098 0.984 . S
H2105 N2098 0.984 . S
H2106 N2094 0.984 . S
H2107 N2094 0.985 . S
C2108 C2109 1.363 . S
C2108 C2114 1.379 . S
C2108 N2116 1.356 . S
C2109 C2108 1.363 . S
C2109 C2115 1.363 . S
C2110 C2111 1.363 . S
C2110 C2115 1.379 . S
C2110 N2117 1.356 . S
C2111 C2110 1.363 . S
C2111 C2114 1.363 . S
N2112 C2114 1.356 1_455 S
N2112 H2124 0.984 . S
N2112 H2125 0.985 . S
N2113 C2115 1.356 . S
N2113 H2118 0.984 . S
N2113 H2119 0.985 . S
C2114 C2108 1.379 . S
C2114 C2111 1.363 . S
C2114 N2112 1.356 1_655 S
C2115 C2109 1.363 . S
C2115 C2110 1.379 . S
C2115 N2113 1.356 . S
N2116 C2108 1.356 . S
N2116 H2122 0.984 . S
N2116 H2123 0.984 . S
N2117 C2110 1.356 . S
N2117 H2120 0.984 . S
N2117 H2121 0.985 . S
H2118 N2113 0.984 . S
H2119 N2113 0.985 . S
H2120 N2117 0.984 . S
H2121 N2117 0.985 . S
H2122 N2116 0.984 . S
H2123 N2116 0.984 . S
H2124 N2112 0.984 . S
H2125 N2112 0.985 . S
C2126 C2127 1.363 . S
C2126 C2132 1.379 . S
C2126 N2134 1.356 . S
C2127 C2126 1.363 . S
C2127 C2133 1.363 . S
C2128 C2129 1.363 . S
C2128 C2133 1.379 . S
C2128 N2135 1.356 . S
C2129 C2128 1.363 . S
C2129 C2132 1.363 . S
N2130 C2132 1.356 . S
N2130 H2142 0.984 . S
N2130 H2143 0.985 . S
N2131 C2133 1.356 . S
N2131 H2136 0.984 . S
N2131 H2137 0.985 . S
C2132 C2126 1.379 . S
C2132 C2129 1.363 . S
C2132 N2130 1.356 . S
C2133 C2127 1.363 . S
C2133 C2128 1.379 . S
C2133 N2131 1.356 . S
N2134 C2126 1.356 . S
N2134 H2140 0.984 . S
N2134 H2141 0.984 . S
N2135 C2128 1.356 . S
N2135 H2138 0.984 . S
N2135 H2139 0.985 . S
H2136 N2131 0.984 . S
H2137 N2131 0.985 . S
H2138 N2135 0.984 . S
H2139 N2135 0.985 . S
H2140 N2134 0.984 . S
H2141 N2134 0.984 . S
H2142 N2130 0.984 . S
H2143 N2130 0.985 . S
C2144 C2145 1.363 . S
C2144 C2150 1.379 . S
C2144 N2152 1.356 . S
C2145 C2144 1.363 . S
C2145 C2151 1.363 . S
C2146 C2147 1.363 . S
C2146 C2151 1.379 . S
C2146 N2153 1.356 . S
C2147 C2146 1.363 . S
C2147 C2150 1.363 . S
N2148 C2150 1.356 . S
N2148 H2160 0.984 . S
N2148 H2161 0.985 . S
N2149 C2151 1.356 . S
N2149 H2154 0.984 . S
N2149 H2155 0.985 . S
C2150 C2144 1.379 . S
C2150 C2147 1.363 . S
C2150 N2148 1.356 . S
C2151 C2145 1.363 . S
C2151 C2146 1.379 . S
C2151 N2149 1.356 . S
N2152 C2144 1.356 . S
N2152 H2158 0.984 . S
N2152 H2159 0.984 . S
N2153 C2146 1.356 . S
N2153 H2156 0.984 . S
N2153 H2157 0.985 . S
H2154 N2149 0.984 . S
H2155 N2149 0.985 . S
H2156 N2153 0.984 . S
H2157 N2153 0.985 . S
H2158 N2152 0.984 . S
H2159 N2152 0.984 . S
H2160 N2148 0.984 . S
H2161 N2148 0.985 . S
C2162 C2163 1.363 . S
C2162 C2168 1.379 . S
C2162 N2170 1.356 . S
C2163 C2162 1.363 . S
C2163 C2169 1.363 . S
C2164 C2165 1.363 . S
C2164 C2169 1.379 . S
C2164 N2171 1.356 . S
C2165 C2164 1.363 . S
C2165 C2168 1.363 . S
N2166 C2168 1.356 . S
N2166 H2178 0.984 . S
N2166 H2179 0.985 . S
N2167 C2169 1.356 . S
N2167 H2172 0.984 . S
N2167 H2173 0.985 . S
C2168 C2162 1.379 . S
C2168 C2165 1.363 . S
C2168 N2166 1.356 . S
C2169 C2163 1.363 . S
C2169 C2164 1.379 . S
C2169 N2167 1.356 . S
N2170 C2162 1.356 . S
N2170 H2176 0.984 . S
N2170 H2177 0.984 . S
N2171 C2164 1.356 . S
N2171 H2174 0.984 . S
N2171 H2175 0.985 . S
H2172 N2167 0.984 . S
H2173 N2167 0.985 . S
H2174 N2171 0.984 . S
H2175 N2171 0.985 . S
H2176 N2170 0.984 . S
H2177 N2170 0.984 . S
H2178 N2166 0.984 . S
H2179 N2166 0.985 . S
C2180 C2181 1.363 . S
C2180 C2186 1.379 . S
C2180 N2188 1.356 . S
C2181 C2180 1.363 . S
C2181 C2187 1.363 . S
C2182 C2183 1.363 . S
C2182 C2187 1.379 . S
C2182 N2189 1.356 . S
C2183 C2182 1.363 . S
C2183 C2186 1.363 . S
N2184 C2186 1.356 1_455 S
N2184 H2196 0.984 . S
N2184 H2197 0.985 . S
N2185 C2187 1.356 . S
N2185 H2190 0.984 . S
N2185 H2191 0.985 . S
C2186 C2180 1.379 . S
C2186 C2183 1.363 . S
C2186 N2184 1.356 1_655 S
C2187 C2181 1.363 . S
C2187 C2182 1.379 . S
C2187 N2185 1.356 . S
N2188 C2180 1.356 . S
N2188 H2194 0.984 1_655 S
N2188 H2195 0.984 . S
N2189 C2182 1.356 . S
N2189 H2192 0.984 . S
N2189 H2193 0.985 . S
H2190 N2185 0.984 . S
H2191 N2185 0.985 . S
H2192 N2189 0.984 . S
H2193 N2189 0.985 . S
H2194 N2188 0.984 1_455 S
H2195 N2188 0.984 . S
H2196 N2184 0.984 . S
H2197 N2184 0.985 . S
C2198 C2199 1.363 . S
C2198 C2204 1.379 . S
C2198 N2206 1.356 . S
C2199 C2198 1.363 . S
C2199 C2205 1.363 . S
C2200 C2201 1.363 . S
C2200 C2205 1.379 . S
C2200 N2207 1.356 . S
C2201 C2200 1.363 . S
C2201 C2204 1.363 . S
N2202 C2204 1.356 . S
N2202 H2214 0.984 . S
N2202 H2215 0.985 . S
N2203 C2205 1.356 . S
N2203 H2208 0.984 . S
N2203 H2209 0.985 . S
C2204 C2198 1.379 . S
C2204 C2201 1.363 . S
C2204 N2202 1.356 . S
C2205 C2199 1.363 . S
C2205 C2200 1.379 . S
C2205 N2203 1.356 . S
N2206 C2198 1.356 . S
N2206 H2212 0.984 . S
N2206 H2213 0.984 . S
N2207 C2200 1.356 . S
N2207 H2210 0.984 . S
N2207 H2211 0.985 . S
H2208 N2203 0.984 . S
H2209 N2203 0.985 . S
H2210 N2207 0.984 . S
H2211 N2207 0.985 . S
H2212 N2206 0.984 . S
H2213 N2206 0.984 . S
H2214 N2202 0.984 . S
H2215 N2202 0.985 . S
C2216 C2217 1.363 . S
C2216 C2222 1.379 . S
C2216 N2224 1.356 . S
C2217 C2216 1.363 . S
C2217 C2223 1.363 . S
C2218 C2219 1.363 . S
C2218 C2223 1.379 . S
C2218 N2225 1.356 . S
C2219 C2218 1.363 . S
C2219 C2222 1.363 . S
N2220 C2222 1.356 . S
N2220 H2232 0.984 . S
N2220 H2233 0.985 . S
N2221 C2223 1.356 . S
N2221 H2226 0.984 . S
N2221 H2227 0.985 . S
C2222 C2216 1.379 . S
C2222 C2219 1.363 . S
C2222 N2220 1.356 . S
C2223 C2217 1.363 . S
C2223 C2218 1.379 . S
C2223 N2221 1.356 . S
N2224 C2216 1.356 . S
N2224 H2230 0.984 . S
N2224 H2231 0.984 . S
N2225 C2218 1.356 . S
N2225 H2228 0.984 . S
N2225 H2229 0.985 . S
H2226 N2221 0.984 . S
H2227 N2221 0.985 . S
H2228 N2225 0.984 . S
H2229 N2225 0.985 . S
H2230 N2224 0.984 . S
H2231 N2224 0.984 . S
H2232 N2220 0.984 . S
H2233 N2220 0.985 . S
C2234 C2235 1.363 . S
C2234 C2240 1.379 . S
C2234 N2242 1.356 . S
C2235 C2234 1.363 . S
C2235 C2241 1.363 . S
C2236 C2237 1.363 . S
C2236 C2241 1.379 . S
C2236 N2243 1.356 1_565 S
C2237 C2236 1.363 . S
C2237 C2240 1.363 . S
N2238 C2240 1.356 . S
N2238 H2250 0.984 . S
N2238 H2251 0.985 . S
N2239 C2241 1.356 . S
N2239 H2244 0.984 . S
N2239 H2245 0.985 1_565 S
C2240 C2234 1.379 . S
C2240 C2237 1.363 . S
C2240 N2238 1.356 . S
C2241 C2235 1.363 . S
C2241 C2236 1.379 . S
C2241 N2239 1.356 . S
N2242 C2234 1.356 . S
N2242 H2248 0.984 . S
N2242 H2249 0.984 . S
N2243 C2236 1.356 1_545 S
N2243 H2246 0.984 . S
N2243 H2247 0.985 . S
H2244 N2239 0.984 . S
H2245 N2239 0.985 1_545 S
H2246 N2243 0.984 . S
H2247 N2243 0.985 . S
H2248 N2242 0.984 . S
H2249 N2242 0.984 . S
H2250 N2238 0.984 . S
H2251 N2238 0.985 . S
C2252 C2253 1.363 . S
C2252 C2258 1.379 . S
C2252 N2260 1.356 . S
C2253 C2252 1.363 . S
C2253 C2259 1.363 . S
C2254 C2255 1.363 . S
C2254 C2259 1.379 . S
C2254 N2261 1.356 . S
C2255 C2254 1.363 . S
C2255 C2258 1.363 . S
N2256 C2258 1.356 . S
N2256 H2268 0.984 . S
N2256 H2269 0.985 . S
N2257 C2259 1.356 . S
N2257 H2262 0.984 . S
N2257 H2263 0.985 . S
C2258 C2252 1.379 . S
C2258 C2255 1.363 . S
C2258 N2256 1.356 . S
C2259 C2253 1.363 . S
C2259 C2254 1.379 . S
C2259 N2257 1.356 . S
N2260 C2252 1.356 . S
N2260 H2266 0.984 . S
N2260 H2267 0.984 . S
N2261 C2254 1.356 . S
N2261 H2264 0.984 . S
N2261 H2265 0.985 . S
H2262 N2257 0.984 . S
H2263 N2257 0.985 . S
H2264 N2261 0.984 . S
H2265 N2261 0.985 . S
H2266 N2260 0.984 . S
H2267 N2260 0.984 . S
H2268 N2256 0.984 . S
H2269 N2256 0.985 . S
C2270 C2271 1.363 . S
C2270 C2276 1.379 . S
C2270 N2278 1.356 . S
C2271 C2270 1.363 . S
C2271 C2277 1.363 1_554 S
C2272 C2273 1.363 1_556 S
C2272 C2277 1.379 . S
C2272 N2279 1.356 . S
C2273 C2272 1.363 1_554 S
C2273 C2276 1.363 . S
N2274 C2276 1.356 . S
N2274 H2286 0.984 . S
N2274 H2287 0.985 . S
N2275 C2277 1.356 . S
N2275 H2280 0.984 . S
N2275 H2281 0.985 . S
C2276 C2270 1.379 . S
C2276 C2273 1.363 . S
C2276 N2274 1.356 . S
C2277 C2271 1.363 1_556 S
C2277 C2272 1.379 . S
C2277 N2275 1.356 . S
N2278 C2270 1.356 . S
N2278 H2284 0.984 . S
N2278 H2285 0.984 . S
N2279 C2272 1.356 . S
N2279 H2282 0.984 . S
N2279 H2283 0.985 . S
H2280 N2275 0.984 . S
H2281 N2275 0.985 . S
H2282 N2279 0.984 . S
H2283 N2279 0.985 . S
H2284 N2278 0.984 . S
H2285 N2278 0.984 . S
H2286 N2274 0.984 . S
H2287 N2274 0.985 . S
C2288 C2289 1.363 . S
C2288 C2294 1.379 . S
C2288 N2296 1.356 . S
C2289 C2288 1.363 . S
C2289 C2295 1.363 . S
C2290 C2291 1.363 . S
C2290 C2295 1.379 . S
C2290 N2297 1.356 . S
C2291 C2290 1.363 . S
C2291 C2294 1.363 . S
N2292 C2294 1.356 . S
N2292 H2304 0.984 . S
N2292 H2305 0.985 . S
N2293 C2295 1.356 . S
N2293 H2298 0.984 . S
N2293 H2299 0.985 . S
C2294 C2288 1.379 . S
C2294 C2291 1.363 . S
C2294 N2292 1.356 . S
C2295 C2289 1.363 . S
C2295 C2290 1.379 . S
C2295 N2293 1.356 . S
N2296 C2288 1.356 . S
N2296 H2302 0.984 . S
N2296 H2303 0.984 . S
N2297 C2290 1.356 . S
N2297 H2300 0.984 . S
N2297 H2301 0.985 . S
H2298 N2293 0.984 . S
H2299 N2293 0.985 . S
H2300 N2297 0.984 . S
H2301 N2297 0.985 . S
H2302 N2296 0.984 . S
H2303 N2296 0.984 . S
H2304 N2292 0.984 . S
H2305 N2292 0.985 . S
C2306 C2307 1.363 1_556 S
C2306 C2312 1.379 . S
C2306 N2314 1.356 . S
C2307 C2306 1.363 1_554 S
C2307 C2313 1.363 . S
C2308 C2309 1.363 1_554 S
C2308 C2313 1.379 . S
C2308 N2315 1.356 . S
C2309 C2308 1.363 1_556 S
C2309 C2312 1.363 . S
N2310 C2312 1.356 . S
N2310 H2322 0.984 . S
N2310 H2323 0.985 . S
N2311 C2313 1.356 . S
N2311 H2316 0.984 . S
N2311 H2317 0.985 . S
C2312 C2306 1.379 . S
C2312 C2309 1.363 . S
C2312 N2310 1.356 . S
C2313 C2307 1.363 . S
C2313 C2308 1.379 . S
C2313 N2311 1.356 . S
N2314 C2306 1.356 . S
N2314 H2320 0.984 . S
N2314 H2321 0.978 1_556 S
N2315 C2308 1.356 . S
N2315 H2318 0.984 . S
N2315 H2319 0.985 . S
H2316 N2311 0.984 . S
H2317 N2311 0.985 . S
H2318 N2315 0.984 . S
H2319 N2315 0.985 . S
H2320 N2314 0.984 . S
H2321 N2314 0.978 1_554 S
H2322 N2310 0.984 . S
H2323 N2310 0.985 . S
C2324 C2325 1.363 . S
C2324 C2330 1.379 . S
C2324 N2332 1.356 . S
C2325 C2324 1.363 . S
C2325 C2331 1.363 . S
C2326 C2327 1.363 . S
C2326 C2331 1.379 . S
C2326 N2333 1.356 . S
C2327 C2326 1.363 . S
C2327 C2330 1.363 . S
N2328 C2330 1.356 . S
N2328 H2340 0.984 . S
N2328 H2341 0.985 . S
N2329 C2331 1.356 . S
N2329 H2334 0.984 . S
N2329 H2335 0.985 . S
C2330 C2324 1.379 . S
C2330 C2327 1.363 . S
C2330 N2328 1.356 . S
C2331 C2325 1.363 . S
C2331 C2326 1.379 . S
C2331 N2329 1.356 . S
N2332 C2324 1.356 . S
N2332 H2338 0.984 . S
N2332 H2339 0.984 . S
N2333 C2326 1.356 . S
N2333 H2336 0.984 . S
N2333 H2337 0.985 . S
H2334 N2329 0.984 . S
H2335 N2329 0.985 . S
H2336 N2333 0.984 . S
H2337 N2333 0.985 . S
H2338 N2332 0.984 . S
H2339 N2332 0.984 . S
H2340 N2328 0.984 . S
H2341 N2328 0.985 . S
C2342 C2343 1.363 . S
C2342 C2348 1.379 . S
C2342 N2350 1.356 . S
C2343 C2342 1.363 . S
C2343 C2349 1.363 . S
C2344 C2345 1.363 . S
C2344 C2349 1.379 . S
C2344 N2351 1.356 . S
C2345 C2344 1.363 . S
C2345 C2348 1.363 . S
N2346 C2348 1.356 . S
N2346 H2358 0.984 . S
N2346 H2359 0.985 . S
N2347 C2349 1.356 . S
N2347 H2352 0.984 . S
N2347 H2353 0.985 . S
C2348 C2342 1.379 . S
C2348 C2345 1.363 . S
C2348 N2346 1.356 . S
C2349 C2343 1.363 . S
C2349 C2344 1.379 . S
C2349 N2347 1.356 . S
N2350 C2342 1.356 . S
N2350 H2356 0.984 . S
N2350 H2357 0.984 . S
N2351 C2344 1.356 . S
N2351 H2354 0.984 . S
N2351 H2355 0.985 . S
H2352 N2347 0.984 . S
H2353 N2347 0.985 . S
H2354 N2351 0.984 . S
H2355 N2351 0.985 . S
H2356 N2350 0.984 . S
H2357 N2350 0.984 . S
H2358 N2346 0.984 . S
H2359 N2346 0.985 . S
C633 C101 1.317 . S
C635 C328 1.286 . S
C651 C57 1.401 . S
C653 C341 1.422 . S
C669 C73 1.422 . S
C671 C360 1.470 . S
C689 C391 1.813 . S
C687 C78 1.840 . S
C705 C21 1.701 . S
C707 C411 1.695 . S
C725 C428 1.032 . S
C723 C31 1.030 . S
C743 C441 1.494 . S
C741 C49 1.501 . S
C759 C0 1.097 . S
C761 C468 1.076 . S
C779 C321 1.299 . S
C777 C218 1.310 . S
C795 C229 1.483 . S
C797 C351 1.532 . S
C815 C353 1.695 . S
C813 C257 1.741 . S
C833 C388 1.013 . S
C831 C164 0.975 . S
C849 C216 1.175 . S
C851 C408 1.245 . S
C869 C421 1.752 . S
C867 C231 1.747 . S
C887 C451 1.395 . S
C885 C255 1.361 . S
C905 C461 1.233 . S
C903 C166 1.276 . S
C923 C331 1.598 1_565 S
C921 C143 1.593 . S
C939 C265 1.661 . S
C941 C481 1.710 . S
C959 C511 1.588 . S
C957 C299 1.532 . S
C977 C528 1.298 . S
C975 C291 1.289 . S
C993 C104 1.784 . S
C995 C471 1.782 . S
C1011 C117 1.247 . S
C1013 C358 1.251 . S
C1029 C304 1.693 . S
C1031 C541 1.750 . S
C1049 C568 1.108 . S
C1047 C278 1.149 . S
C1067 C318 1.283 . S
C1065 C60 1.312 . S
C1085 C553 1.377 . S
C1083 C96 1.364 . S
C1101 C88 1.429 . S
C1103 C371 1.418 . S
C1119 C65 1.754 . S
C1121 C540 1.762 . S
C1139 C400 1.636 . S
C1137 C10 1.686 . S
C1155 C44 0.993 . S
C1157 C498 1.003 . S
C1175 C433 1.467 1_556 S
C1173 C34 1.410 . S
C1193 C578 1.080 . S
C1191 C13 1.127 . S
C1211 C313 1.272 1_565 S
C1209 C138 1.266 1_565 S
C1229 C560 1.466 . S
C1227 C296 1.496 . S
C1245 C112 1.609 . S
C1247 C361 1.647 . S
C1263 C270 0.948 . S
C1265 C538 0.941 . S
C1281 C140 1.176 . S
C1283 C398 1.175 . S
C1301 C493 1.722 . S
C1299 C294 1.627 . S
C1317 C114 1.381 . S
C1319 C440 1.345 . S
C1335 C268 1.232 . S
C1337 C573 1.205 . S
C1353 C169 1.583 . S
C1355 C320 1.572 . S
C1371 C161 1.650 . S
C1373 C473 1.672 . S
C1389 C234 1.580 . S
C1391 C420 1.551 . S
C1407 C226 1.223 . S
C1409 C518 1.240 . S
C1427 C580 1.772 . S
C1425 C247 1.749 . S
C1443 C195 1.322 . S
C1445 C368 1.222 . S
C1463 C373 1.706 . S
C1461 C239 1.682 . S
C1481 C338 1.072 . S
C1479 C187 1.102 . S
C1497 C75 1.318 . S
C1499 C608 1.286 . S
C1517 C561 1.422 . S
C1515 C83 1.401 . S
C1533 C99 1.422 . S
C1535 C620 1.470 . S
C1551 C52 1.840 . S
C1553 C551 1.813 . S
C1569 C47 1.701 . S
C1571 C491 1.695 . S
C1589 C508 1.032 . S
C1587 C5 1.030 . S
C1607 C521 1.482 1_655 S
C1605 C23 1.501 . S
C1625 C588 1.076 . S
C1623 C26 1.097 . S
C1643 C601 1.300 . S
C1641 C244 1.311 . S
C1659 C177 1.483 . S
C1661 C571 1.532 . S
C1679 C613 1.695 . S
C1677 C192 1.741 . S
C1697 C548 1.013 . S
C1695 C203 0.975 . S
C1715 C488 1.245 . S
C1713 C242 1.175 . S
C1731 C179 1.747 . S
C1733 C501 1.753 . S
C1751 C531 1.395 . S
C1749 C190 1.361 . S
C1767 C205 1.276 . S
C1769 C581 1.233 . S
C1787 C611 1.598 . S
C1785 C286 1.593 . S
C1803 C122 1.662 . S
C1805 C401 1.711 . S
C1823 C431 1.588 . S
C1821 C130 1.535 . S
C1841 C448 1.298 . S
C1839 C148 1.289 . S
C1859 C591 1.782 . S
C1857 C273 1.785 . S
C1875 C260 1.247 . S
C1877 C618 1.251 . S
C1895 C381 1.749 . S
C1893 C135 1.690 . S
C1913 C348 1.108 . S
C1911 C109 1.149 . S
C1929 C86 1.312 . S
C1931 C598 1.275 . S
C1949 C333 1.377 . S
C1947 C70 1.363 . S
C1965 C62 1.429 . S
C1967 C631 1.418 . S
C1983 C91 1.755 . S
C1985 C380 1.763 . S
C2001 C36 1.686 . S
C2003 C480 1.636 1_556 S
C2021 C418 1.003 . S
C2019 C18 0.993 . S
C2037 C8 1.410 . S
C2039 C513 1.467 . S
C2055 C39 1.126 . S
C2057 C458 1.079 . S
C2075 C593 1.272 . S
C2073 C307 1.265 . S
C2091 C153 1.496 . S
C2093 C340 1.466 . S
C2111 C621 1.641 1_655 S
C2109 C281 1.609 . S
C2127 C127 0.949 . S
C2129 C378 0.944 . S
C2145 C309 1.175 . S
C2147 C478 1.176 . S
C2165 C413 1.723 . S
C2163 C151 1.627 . S
C2181 C283 1.381 . S
C2183 C520 1.345 . S
C2201 C453 1.201 . S
C2199 C125 1.232 . S
C2219 C600 1.573 . S
C2217 C221 1.583 . S
C2237 C393 1.672 1_565 S
C2235 C200 1.649 . S
C2253 C208 1.580 . S
C2255 C500 1.551 . S
C2273 C438 1.241 . S
C2271 C174 1.224 . S
C2289 C182 1.750 . S
C2291 C460 1.772 . S
C2307 C156 1.322 . S
C2309 C628 1.222 . S
C2327 C533 1.706 . S
C2325 C213 1.682 . S
C2345 C558 1.072 . S
C2343 C252 1.102 . S
