# Generated by pormake.
# Topology ibd, (4,6)-cn, num edge types: 1
# Building blocks:
#     Node 0, Type 0, BuildingBlock: CEKHIL_clean_sbu_0, # of connection points: 4
#     Node 1, Type 0, BuildingBlock: CEKHIL_clean_sbu_0, # of connection points: 4
#     Node 2, Type 0, BuildingBlock: CEKHIL_clean_sbu_0, # of connection points: 4
#     Node 3, Type 0, BuildingBlock: CEKHIL_clean_sbu_0, # of connection points: 4
#     Node 4, Type 0, BuildingBlock: CEKHIL_clean_sbu_0, # of connection points: 4
#     Node 5, Type 0, BuildingBlock: CEKHIL_clean_sbu_0, # of connection points: 4
#     Node 6, Type 0, BuildingBlock: CEKHIL_clean_sbu_0, # of connection points: 4
#     Node 7, Type 0, BuildingBlock: CEKHIL_clean_sbu_0, # of connection points: 4
#     Node 8, Type 0, BuildingBlock: CEKHIL_clean_sbu_0, # of connection points: 4
#     Node 9, Type 0, BuildingBlock: CEKHIL_clean_sbu_0, # of connection points: 4
#     Node 10, Type 0, BuildingBlock: CEKHIL_clean_sbu_0, # of connection points: 4
#     Node 11, Type 0, BuildingBlock: CEKHIL_clean_sbu_0, # of connection points: 4
#     Node 12, Type 0, BuildingBlock: CEKHIL_clean_sbu_0, # of connection points: 4
#     Node 13, Type 0, BuildingBlock: CEKHIL_clean_sbu_0, # of connection points: 4
#     Node 14, Type 0, BuildingBlock: CEKHIL_clean_sbu_0, # of connection points: 4
#     Node 15, Type 0, BuildingBlock: CEKHIL_clean_sbu_0, # of connection points: 4
#     Node 16, Type 0, BuildingBlock: CEKHIL_clean_sbu_0, # of connection points: 4
#     Node 17, Type 0, BuildingBlock: CEKHIL_clean_sbu_0, # of connection points: 4
#     Node 18, Type 0, BuildingBlock: CEKHIL_clean_sbu_0, # of connection points: 4
#     Node 19, Type 0, BuildingBlock: CEKHIL_clean_sbu_0, # of connection points: 4
#     Node 20, Type 0, BuildingBlock: CEKHIL_clean_sbu_0, # of connection points: 4
#     Node 21, Type 0, BuildingBlock: CEKHIL_clean_sbu_0, # of connection points: 4
#     Node 22, Type 0, BuildingBlock: CEKHIL_clean_sbu_0, # of connection points: 4
#     Node 23, Type 0, BuildingBlock: CEKHIL_clean_sbu_0, # of connection points: 4
#     Node 24, Type 1, BuildingBlock: IZENUY_clean_sbu_0, # of connection points: 6
#     Node 25, Type 1, BuildingBlock: IZENUY_clean_sbu_0, # of connection points: 6
#     Node 26, Type 1, BuildingBlock: IZENUY_clean_sbu_0, # of connection points: 6
#     Node 27, Type 1, BuildingBlock: IZENUY_clean_sbu_0, # of connection points: 6
#     Node 28, Type 1, BuildingBlock: IZENUY_clean_sbu_0, # of connection points: 6
#     Node 29, Type 1, BuildingBlock: IZENUY_clean_sbu_0, # of connection points: 6
#     Node 30, Type 1, BuildingBlock: IZENUY_clean_sbu_0, # of connection points: 6
#     Node 31, Type 1, BuildingBlock: IZENUY_clean_sbu_0, # of connection points: 6
#     Node 32, Type 1, BuildingBlock: IZENUY_clean_sbu_0, # of connection points: 6
#     Node 33, Type 1, BuildingBlock: IZENUY_clean_sbu_0, # of connection points: 6
#     Node 34, Type 1, BuildingBlock: IZENUY_clean_sbu_0, # of connection points: 6
#     Node 35, Type 1, BuildingBlock: IZENUY_clean_sbu_0, # of connection points: 6
#     Node 36, Type 1, BuildingBlock: IZENUY_clean_sbu_0, # of connection points: 6
#     Node 37, Type 1, BuildingBlock: IZENUY_clean_sbu_0, # of connection points: 6
#     Node 38, Type 1, BuildingBlock: IZENUY_clean_sbu_0, # of connection points: 6
#     Node 39, Type 1, BuildingBlock: IZENUY_clean_sbu_0, # of connection points: 6
#     Edge 40, Type (0, 1), BuildingBlock: UVAHIK_clean_linker_0, # of connection points: 2
#     Edge 41, Type (0, 1), BuildingBlock: UVAHIK_clean_linker_0, # of connection points: 2
#     Edge 42, Type (0, 1), BuildingBlock: UVAHIK_clean_linker_0, # of connection points: 2
#     Edge 43, Type (0, 1), BuildingBlock: UVAHIK_clean_linker_0, # of connection points: 2
#     Edge 44, Type (0, 1), BuildingBlock: UVAHIK_clean_linker_0, # of connection points: 2
#     Edge 45, Type (0, 1), BuildingBlock: UVAHIK_clean_linker_0, # of connection points: 2
#     Edge 46, Type (0, 1), BuildingBlock: UVAHIK_clean_linker_0, # of connection points: 2
#     Edge 47, Type (0, 1), BuildingBlock: UVAHIK_clean_linker_0, # of connection points: 2
#     Edge 48, Type (0, 1), BuildingBlock: UVAHIK_clean_linker_0, # of connection points: 2
#     Edge 49, Type (0, 1), BuildingBlock: UVAHIK_clean_linker_0, # of connection points: 2
#     Edge 50, Type (0, 1), BuildingBlock: UVAHIK_clean_linker_0, # of connection points: 2
#     Edge 51, Type (0, 1), BuildingBlock: UVAHIK_clean_linker_0, # of connection points: 2
#     Edge 52, Type (0, 1), BuildingBlock: UVAHIK_clean_linker_0, # of connection points: 2
#     Edge 53, Type (0, 1), BuildingBlock: UVAHIK_clean_linker_0, # of connection points: 2
#     Edge 54, Type (0, 1), BuildingBlock: UVAHIK_clean_linker_0, # of connection points: 2
#     Edge 55, Type (0, 1), BuildingBlock: UVAHIK_clean_linker_0, # of connection points: 2
#     Edge 56, Type (0, 1), BuildingBlock: UVAHIK_clean_linker_0, # of connection points: 2
#     Edge 57, Type (0, 1), BuildingBlock: UVAHIK_clean_linker_0, # of connection points: 2
#     Edge 58, Type (0, 1), BuildingBlock: UVAHIK_clean_linker_0, # of connection points: 2
#     Edge 59, Type (0, 1), BuildingBlock: UVAHIK_clean_linker_0, # of connection points: 2
#     Edge 60, Type (0, 1), BuildingBlock: UVAHIK_clean_linker_0, # of connection points: 2
#     Edge 61, Type (0, 1), BuildingBlock: UVAHIK_clean_linker_0, # of connection points: 2
#     Edge 62, Type (0, 1), BuildingBlock: UVAHIK_clean_linker_0, # of connection points: 2
#     Edge 63, Type (0, 1), BuildingBlock: UVAHIK_clean_linker_0, # of connection points: 2
#     Edge 64, Type (0, 1), BuildingBlock: UVAHIK_clean_linker_0, # of connection points: 2
#     Edge 65, Type (0, 1), BuildingBlock: UVAHIK_clean_linker_0, # of connection points: 2
#     Edge 66, Type (0, 1), BuildingBlock: UVAHIK_clean_linker_0, # of connection points: 2
#     Edge 67, Type (0, 1), BuildingBlock: UVAHIK_clean_linker_0, # of connection points: 2
#     Edge 68, Type (0, 1), BuildingBlock: UVAHIK_clean_linker_0, # of connection points: 2
#     Edge 69, Type (0, 1), BuildingBlock: UVAHIK_clean_linker_0, # of connection points: 2
#     Edge 70, Type (0, 1), BuildingBlock: UVAHIK_clean_linker_0, # of connection points: 2
#     Edge 71, Type (0, 1), BuildingBlock: UVAHIK_clean_linker_0, # of connection points: 2
#     Edge 72, Type (0, 1), BuildingBlock: UVAHIK_clean_linker_0, # of connection points: 2
#     Edge 73, Type (0, 1), BuildingBlock: UVAHIK_clean_linker_0, # of connection points: 2
#     Edge 74, Type (0, 1), BuildingBlock: UVAHIK_clean_linker_0, # of connection points: 2
#     Edge 75, Type (0, 1), BuildingBlock: UVAHIK_clean_linker_0, # of connection points: 2
#     Edge 76, Type (0, 1), BuildingBlock: UVAHIK_clean_linker_0, # of connection points: 2
#     Edge 77, Type (0, 1), BuildingBlock: UVAHIK_clean_linker_0, # of connection points: 2
#     Edge 78, Type (0, 1), BuildingBlock: UVAHIK_clean_linker_0, # of connection points: 2
#     Edge 79, Type (0, 1), BuildingBlock: UVAHIK_clean_linker_0, # of connection points: 2
#     Edge 80, Type (0, 1), BuildingBlock: UVAHIK_clean_linker_0, # of connection points: 2
#     Edge 81, Type (0, 1), BuildingBlock: UVAHIK_clean_linker_0, # of connection points: 2
#     Edge 82, Type (0, 1), BuildingBlock: UVAHIK_clean_linker_0, # of connection points: 2
#     Edge 83, Type (0, 1), BuildingBlock: UVAHIK_clean_linker_0, # of connection points: 2
#     Edge 84, Type (0, 1), BuildingBlock: UVAHIK_clean_linker_0, # of connection points: 2
#     Edge 85, Type (0, 1), BuildingBlock: UVAHIK_clean_linker_0, # of connection points: 2
#     Edge 86, Type (0, 1), BuildingBlock: UVAHIK_clean_linker_0, # of connection points: 2
#     Edge 87, Type (0, 1), BuildingBlock: UVAHIK_clean_linker_0, # of connection points: 2
#     Edge 88, Type (0, 1), BuildingBlock: UVAHIK_clean_linker_0, # of connection points: 2
#     Edge 89, Type (0, 1), BuildingBlock: UVAHIK_clean_linker_0, # of connection points: 2
#     Edge 90, Type (0, 1), BuildingBlock: UVAHIK_clean_linker_0, # of connection points: 2
#     Edge 91, Type (0, 1), BuildingBlock: UVAHIK_clean_linker_0, # of connection points: 2
#     Edge 92, Type (0, 1), BuildingBlock: UVAHIK_clean_linker_0, # of connection points: 2
#     Edge 93, Type (0, 1), BuildingBlock: UVAHIK_clean_linker_0, # of connection points: 2
#     Edge 94, Type (0, 1), BuildingBlock: UVAHIK_clean_linker_0, # of connection points: 2
#     Edge 95, Type (0, 1), BuildingBlock: UVAHIK_clean_linker_0, # of connection points: 2
#     Edge 96, Type (0, 1), BuildingBlock: UVAHIK_clean_linker_0, # of connection points: 2
#     Edge 97, Type (0, 1), BuildingBlock: UVAHIK_clean_linker_0, # of connection points: 2
#     Edge 98, Type (0, 1), BuildingBlock: UVAHIK_clean_linker_0, # of connection points: 2
#     Edge 99, Type (0, 1), BuildingBlock: UVAHIK_clean_linker_0, # of connection points: 2
#     Edge 100, Type (0, 1), BuildingBlock: UVAHIK_clean_linker_0, # of connection points: 2
#     Edge 101, Type (0, 1), BuildingBlock: UVAHIK_clean_linker_0, # of connection points: 2
#     Edge 102, Type (0, 1), BuildingBlock: UVAHIK_clean_linker_0, # of connection points: 2
#     Edge 103, Type (0, 1), BuildingBlock: UVAHIK_clean_linker_0, # of connection points: 2
#     Edge 104, Type (0, 1), BuildingBlock: UVAHIK_clean_linker_0, # of connection points: 2
#     Edge 105, Type (0, 1), BuildingBlock: UVAHIK_clean_linker_0, # of connection points: 2
#     Edge 106, Type (0, 1), BuildingBlock: UVAHIK_clean_linker_0, # of connection points: 2
#     Edge 107, Type (0, 1), BuildingBlock: UVAHIK_clean_linker_0, # of connection points: 2
#     Edge 108, Type (0, 1), BuildingBlock: UVAHIK_clean_linker_0, # of connection points: 2
#     Edge 109, Type (0, 1), BuildingBlock: UVAHIK_clean_linker_0, # of connection points: 2
#     Edge 110, Type (0, 1), BuildingBlock: UVAHIK_clean_linker_0, # of connection points: 2
#     Edge 111, Type (0, 1), BuildingBlock: UVAHIK_clean_linker_0, # of connection points: 2
#     Edge 112, Type (0, 1), BuildingBlock: UVAHIK_clean_linker_0, # of connection points: 2
#     Edge 113, Type (0, 1), BuildingBlock: UVAHIK_clean_linker_0, # of connection points: 2
#     Edge 114, Type (0, 1), BuildingBlock: UVAHIK_clean_linker_0, # of connection points: 2
#     Edge 115, Type (0, 1), BuildingBlock: UVAHIK_clean_linker_0, # of connection points: 2
#     Edge 116, Type (0, 1), BuildingBlock: UVAHIK_clean_linker_0, # of connection points: 2
#     Edge 117, Type (0, 1), BuildingBlock: UVAHIK_clean_linker_0, # of connection points: 2
#     Edge 118, Type (0, 1), BuildingBlock: UVAHIK_clean_linker_0, # of connection points: 2
#     Edge 119, Type (0, 1), BuildingBlock: UVAHIK_clean_linker_0, # of connection points: 2
#     Edge 120, Type (0, 1), BuildingBlock: UVAHIK_clean_linker_0, # of connection points: 2
#     Edge 121, Type (0, 1), BuildingBlock: UVAHIK_clean_linker_0, # of connection points: 2
#     Edge 122, Type (0, 1), BuildingBlock: UVAHIK_clean_linker_0, # of connection points: 2
#     Edge 123, Type (0, 1), BuildingBlock: UVAHIK_clean_linker_0, # of connection points: 2
#     Edge 124, Type (0, 1), BuildingBlock: UVAHIK_clean_linker_0, # of connection points: 2
#     Edge 125, Type (0, 1), BuildingBlock: UVAHIK_clean_linker_0, # of connection points: 2
#     Edge 126, Type (0, 1), BuildingBlock: UVAHIK_clean_linker_0, # of connection points: 2
#     Edge 127, Type (0, 1), BuildingBlock: UVAHIK_clean_linker_0, # of connection points: 2
#     Edge 128, Type (0, 1), BuildingBlock: UVAHIK_clean_linker_0, # of connection points: 2
#     Edge 129, Type (0, 1), BuildingBlock: UVAHIK_clean_linker_0, # of connection points: 2
#     Edge 130, Type (0, 1), BuildingBlock: UVAHIK_clean_linker_0, # of connection points: 2
#     Edge 131, Type (0, 1), BuildingBlock: UVAHIK_clean_linker_0, # of connection points: 2
#     Edge 132, Type (0, 1), BuildingBlock: UVAHIK_clean_linker_0, # of connection points: 2
#     Edge 133, Type (0, 1), BuildingBlock: UVAHIK_clean_linker_0, # of connection points: 2
#     Edge 134, Type (0, 1), BuildingBlock: UVAHIK_clean_linker_0, # of connection points: 2
#     Edge 135, Type (0, 1), BuildingBlock: UVAHIK_clean_linker_0, # of connection points: 2
# Relax obj value: 0.304
# Max RMSD: 0.284
# Mean RMSD: 0.259
data_MOF--net-ibd--node1-CEKHIL_clean_sbu_0--node2-IZENUY_clean_sbu_0--edge1-UVAHIK_clean_linker_0
_symmetry_space_group_name_H-M    P1
_symmetry_Int_Tables_number       1
_symmetry_cell_setting            triclinic
loop_
_symmetry_equiv_pos_as_xyz
'x, y, z'
_cell_length_a     62.061493
_cell_length_b     62.041764
_cell_length_c     62.046681
_cell_angle_alpha  90.296846
_cell_angle_beta   90.283256
_cell_angle_gamma 90.756658
loop_
_atom_site_label
_atom_site_type_symbol
_atom_site_fract_x
_atom_site_fract_y
_atom_site_fract_z
_atom_type_partial_charge
Co0 Co 0.01737 0.24241 0.37697 0.0
O1 O 0.01414 0.2625 0.3535 0.0
O2 O 0.99371 0.23347 0.35891 0.0
C3 C 0.02155 0.26741 0.40296 0.0
O4 O 0.01374 0.21862 0.39891 0.0
Co5 Co 0.05727 0.23799 0.40624 0.0
O6 O 0.03947 0.21842 0.42429 0.0
C7 C 0.05884 0.22349 0.36091 0.0
C8 C -0.00209 0.25039 0.34741 0.0
C9 C 0.02161 0.21153 0.41663 0.0
O10 O 0.03826 0.22536 0.35923 0.0
O11 O 0.06953 0.22903 0.37778 0.0
O12 O 0.0023 0.26194 0.39636 0.0
O13 O 0.03744 0.2584 0.39322 0.0
Co14 Co 0.00215 0.72578 0.62823 0.0
O15 O 0.98493 0.72097 0.65368 0.0
O16 O 0.00193 0.75147 0.64555 0.0
C17 C 0.97853 0.71076 0.60482 0.0
O18 O 0.02019 0.73807 0.6041 0.0
Co19 Co 0.01919 0.6902 0.59778 0.0
O20 O 0.0282 0.71402 0.57845 0.0
C21 C 0.04069 0.69869 0.63984 0.0
C22 C 0.98925 0.74102 0.6585 0.0
C23 C 0.02846 0.73319 0.58584 0.0
O24 O 0.02872 0.71515 0.64331 0.0
O25 O 0.03829 0.68611 0.62355 0.0
O26 O 0.97604 0.73053 0.61131 0.0
O27 O 0.9943 0.70048 0.61342 0.0
Co28 Co 0.50776 0.76665 0.88045 0.0
O29 O 0.50418 0.78616 0.85672 0.0
O30 O 0.48456 0.75657 0.86232 0.0
C31 C 0.51046 0.79189 0.90631 0.0
O32 O 0.50504 0.74333 0.903 0.0
Co33 Co 0.54849 0.765 0.90922 0.0
O34 O 0.53166 0.74492 0.92759 0.0
C35 C 0.54984 0.74788 0.86493 0.0
C36 C 0.48834 0.77353 0.8507 0.0
C37 C 0.51384 0.73715 0.92064 0.0
O38 O 0.52928 0.74984 0.86325 0.0
O39 O 0.56071 0.75426 0.88139 0.0
O40 O 0.4916 0.78573 0.8992 0.0
O41 O 0.52692 0.78381 0.89663 0.0
Co42 Co 0.50158 0.23679 0.12951 0.0
O43 O 0.48196 0.23633 0.15349 0.0
O44 O 0.50524 0.26273 0.1464 0.0
C45 C 0.47752 0.22619 0.10424 0.0
O46 O 0.52363 0.24374 0.10653 0.0
Co47 Co 0.51237 0.19582 0.10264 0.0
O48 O 0.52766 0.21625 0.08328 0.0
C49 C 0.53078 0.20199 0.14623 0.0
C50 C 0.48991 0.25518 0.15853 0.0
C51 C 0.53172 0.23552 0.08939 0.0
O52 O 0.52402 0.2215 0.14701 0.0
O53 O 0.52599 0.18869 0.13106 0.0
O54 O 0.47857 0.24628 0.11027 0.0
O55 O 0.48966 0.21315 0.11474 0.0
Co56 Co 0.01891 0.75985 0.12902 0.0
O57 O 0.02282 0.7794 0.10534 0.0
O58 O 0.99359 0.75928 0.11093 0.0
C59 C 0.03117 0.78239 0.15481 0.0
O60 O 0.00832 0.73895 0.15178 0.0
Co61 Co 0.05727 0.74393 0.15684 0.0
O62 O 0.03427 0.73343 0.17644 0.0
C63 C 0.04949 0.72516 0.1137 0.0
C64 C 0.00345 0.77376 0.09939 0.0
C65 C 0.01488 0.73127 0.16982 0.0
O66 O 0.0318 0.73562 0.11203 0.0
O67 O 0.06271 0.72755 0.12947 0.0
O68 O 0.01146 0.78382 0.14783 0.0
O69 O 0.04319 0.76885 0.14477 0.0
Co70 Co 0.48182 0.73781 0.37335 0.0
O71 O 0.46425 0.74174 0.39849 0.0
O72 O 0.48925 0.76477 0.38696 0.0
C73 C 0.45474 0.72705 0.35173 0.0
O74 O 0.50247 0.74063 0.34833 0.0
Co75 Co 0.48824 0.69433 0.35015 0.0
O76 O 0.50524 0.71054 0.32849 0.0
C77 C 0.50806 0.70228 0.39274 0.0
C78 C 0.4744 0.76008 0.40089 0.0
C79 C 0.50998 0.73025 0.33213 0.0
O80 O 0.50365 0.72239 0.39118 0.0
O81 O 0.5019 0.68812 0.37886 0.0
O82 O 0.45828 0.74747 0.35525 0.0
O83 O 0.46689 0.7138 0.36207 0.0
Co84 Co 0.50435 0.2492 0.6272 0.0
O85 O 0.50872 0.26884 0.60371 0.0
O86 O 0.4805 0.24686 0.60727 0.0
C87 C 0.51261 0.27314 0.65334 0.0
O88 O 0.49354 0.22754 0.64913 0.0
Co89 Co 0.54107 0.23685 0.65876 0.0
O90 O 0.51779 0.22277 0.67557 0.0
C91 C 0.53897 0.2172 0.61527 0.0
C92 C 0.49009 0.26214 0.59655 0.0
C93 C 0.49924 0.21938 0.66725 0.0
O94 O 0.52067 0.22608 0.61164 0.0
O95 O 0.55025 0.22084 0.63227 0.0
O96 O 0.4934 0.27259 0.64494 0.0
O97 O 0.52647 0.26039 0.64476 0.0
Co98 Co 0.98187 0.25643 0.87555 0.0
O99 O 0.95755 0.26386 0.89304 0.0
O100 O 0.98826 0.28247 0.89141 0.0
C101 C 0.96293 0.24913 0.84545 0.0
O102 O 0.01 0.25512 0.85911 0.0
Co103 Co 0.98834 0.21141 0.85526 0.0
O104 O 0.0114 0.22563 0.83818 0.0
C105 C 0.99475 0.21778 0.90205 0.0
C106 C 0.96902 0.28044 0.89934 0.0
C107 C 0.0189 0.24389 0.84423 0.0
O108 O 0.99345 0.23831 0.89967 0.0
O109 O 0.99178 0.20428 0.8866 0.0
O110 O 0.96816 0.26894 0.85029 0.0
O111 O 0.96809 0.23471 0.85943 0.0
Co112 Co 0.37212 0.01784 0.23496 0.0
O113 O 0.40025 0.01616 0.22209 0.0
O114 O 0.38268 0.98915 0.23781 0.0
C115 C 0.3564 0.03575 0.2079 0.0
O116 O 0.3432 0.01202 0.24863 0.0
Co117 Co 0.34956 0.05985 0.24784 0.0
O118 O 0.32348 0.04167 0.25283 0.0
C119 C 0.3853 0.04376 0.27465 0.0
C120 C 0.39952 0.99588 0.2274 0.0
C121 C 0.32555 0.02131 0.25359 0.0
O122 O 0.38537 0.02627 0.26345 0.0
O123 O 0.37323 0.05972 0.27015 0.0
O124 O 0.3589 0.01502 0.20668 0.0
O125 O 0.36479 0.04526 0.22464 0.0
Co126 Co 0.27088 0.14871 0.52226 0.0
O127 O 0.27062 0.12746 0.54474 0.0
O128 O 0.29522 0.13008 0.51902 0.0
C129 C 0.26335 0.17665 0.54404 0.0
O130 O 0.27755 0.16838 0.49709 0.0
Co131 Co 0.23117 0.17561 0.50988 0.0
O132 O 0.25086 0.19137 0.4902 0.0
C133 C 0.23255 0.12945 0.4986 0.0
C134 C 0.28806 0.12014 0.53597 0.0
C135 C 0.26965 0.18423 0.48658 0.0
O136 O 0.25272 0.1291 0.50351 0.0
O137 O 0.22072 0.14589 0.50182 0.0
O138 O 0.28313 0.17018 0.54225 0.0
O139 O 0.24899 0.16561 0.53353 0.0
Co140 Co 0.11248 0.00497 0.71462 0.0
O141 O 0.1372 0.00164 0.69657 0.0
O142 O 0.12782 0.97946 0.72296 0.0
C143 C 0.08955 0.01239 0.68765 0.0
O144 O 0.08786 0.00234 0.73588 0.0
Co145 Co 0.08846 0.04818 0.71837 0.0
O146 O 0.06699 0.0316 0.73541 0.0
C147 C 0.13042 0.04319 0.74 0.0
C148 C 0.14101 0.98426 0.70744 0.0
C149 C 0.07111 0.01266 0.74196 0.0
O150 O 0.12991 0.02292 0.73555 0.0
O151 O 0.11634 0.05638 0.73304 0.0
O152 O 0.09406 0.99251 0.69216 0.0
O153 O 0.09999 0.02698 0.69853 0.0
Co154 Co 0.21059 0.87929 0.00624 0.0
O155 O 0.20976 0.85218 0.02152 0.0
O156 O 0.23929 0.87007 0.01175 0.0
C157 C 0.18586 0.89628 0.02612 0.0
O158 O 0.21924 0.90743 0.99243 0.0
Co159 Co 0.17314 0.89949 0.981 0.0
O160 O 0.19137 0.92607 0.97971 0.0
C161 C 0.19561 0.86182 0.96295 0.0
C162 C 0.23073 0.8537 0.02156 0.0
C163 C 0.21126 0.92461 0.98447 0.0
O164 O 0.21012 0.86369 0.97773 0.0
O165 O 0.17874 0.87349 0.96241 0.0
O166 O 0.20557 0.89458 0.03303 0.0
O167 O 0.18125 0.88628 0.00829 0.0
Co168 Co 0.29221 0.37851 0.98862 0.0
O169 O 0.31141 0.35632 0.97916 0.0
O170 O 0.2818 0.36641 0.96196 0.0
C171 C 0.31747 0.40342 0.99706 0.0
O172 O 0.26897 0.40084 0.99206 0.0
Co173 Co 0.29149 0.39688 0.03519 0.0
O174 O 0.27149 0.41869 0.0235 0.0
C175 C 0.27134 0.35443 0.02581 0.0
C176 C 0.29859 0.35416 0.96261 0.0
C177 C 0.26299 0.41584 0.00496 0.0
O178 O 0.27489 0.35685 0.00555 0.0
O179 O 0.27785 0.36788 0.04023 0.0
O180 O 0.31143 0.40064 0.97714 0.0
O181 O 0.30961 0.38986 0.01076 0.0
Co182 Co 0.72254 0.10823 0.00652 0.0
O183 O 0.73581 0.08103 0.01277 0.0
O184 O 0.72242 0.09035 0.98105 0.0
C185 C 0.748 0.12898 0.02249 0.0
O186 O 0.70902 0.1347 0.99315 0.0
Co187 Co 0.70764 0.14026 0.04199 0.0
O188 O 0.70547 0.16092 0.01789 0.0
C189 C 0.68113 0.10146 0.03168 0.0
C190 C 0.73262 0.07629 0.99257 0.0
C191 C 0.70485 0.15427 -0.00156 0.0
O192 O 0.69348 0.09664 0.01575 0.0
O193 O 0.68494 0.11725 0.04459 0.0
O194 O 0.75093 0.12169 0.00306 0.0
O195 O 0.73081 0.12222 0.03205 0.0
Co196 Co 0.13319 0.48529 0.23185 0.0
O197 O 0.16102 0.47247 0.22793 0.0
O198 O 0.14918 0.48682 0.2584 0.0
C199 C 0.11389 0.45883 0.21581 0.0
O200 O 0.1058 0.49881 0.24289 0.0
Co201 Co 0.10312 0.49811 0.19389 0.0
O202 O 0.0812 0.50258 0.21661 0.0
C203 C 0.14075 0.52567 0.20551 0.0
C204 C 0.16415 0.47645 0.24831 0.0
C205 C 0.08679 0.5036 0.23638 0.0
O206 O 0.14453 0.51429 0.22239 0.0
O207 O 0.12627 0.52077 0.19148 0.0
O208 O 0.12022 0.45681 0.23568 0.0
O209 O 0.12091 0.47571 0.20587 0.0
Co210 Co 0.79122 0.86675 0.49098 0.0
O211 O 0.80765 0.84149 0.48448 0.0
O212 O 0.77948 0.85292 0.46573 0.0
C213 C 0.81899 0.8895 0.49704 0.0
O214 O 0.77063 0.89176 0.4916 0.0
Co215 Co 0.7923 0.8898 0.53537 0.0
O216 O 0.77425 0.91202 0.52146 0.0
C217 C 0.76819 0.84883 0.53032 0.0
C218 C 0.79445 0.83874 0.46831 0.0
C219 C 0.76588 0.90834 0.50301 0.0
O220 O 0.77172 0.84909 0.50992 0.0
O221 O 0.77605 0.86286 0.54346 0.0
O222 O 0.81271 0.88527 0.47742 0.0
O223 O 0.80972 0.87842 0.51203 0.0
Co224 Co 0.88357 0.98794 0.24856 0.0
O225 O 0.90942 0.97207 0.25429 0.0
O226 O 0.89288 0.9933 0.27766 0.0
C227 C 0.86493 0.96108 0.23242 0.0
O228 O 0.85661 0.00589 0.24972 0.0
Co229 Co 0.86598 0.99717 0.20279 0.0
O230 O 0.8398 0.00754 0.21772 0.0
C231 C 0.90382 0.02156 0.21937 0.0
C232 C 0.90854 0.98025 0.27362 0.0
C233 C 0.84054 0.01132 0.23791 0.0
O234 O 0.90112 0.01318 0.23809 0.0
O235 O 0.89252 0.01607 0.20285 0.0
O236 O 0.8661 0.96218 0.25333 0.0
O237 O 0.87652 0.97499 0.22205 0.0
Co238 Co 0.23319 0.61863 0.51818 0.0
O239 O 0.24605 0.5907 0.52117 0.0
O240 O 0.23396 0.60442 0.49056 0.0
C241 C 0.25807 0.63706 0.53745 0.0
O242 O 0.22032 0.64683 0.50805 0.0
Co243 Co 0.21642 0.64522 0.55691 0.0
O244 O 0.2158 0.66928 0.53609 0.0
C245 C 0.19048 0.6085 0.5401 0.0
C246 C 0.24356 0.58879 0.50043 0.0
C247 C 0.21613 0.66553 0.5159 0.0
O248 O 0.20386 0.60594 0.52454 0.0
O249 O 0.19319 0.62248 0.55516 0.0
O250 O 0.2616 0.63207 0.51742 0.0
O251 O 0.24059 0.62917 0.5457 0.0
Co252 Co 0.38236 0.47209 0.75128 0.0
O253 O 0.40853 0.45673 0.7572 0.0
O254 O 0.39389 0.48116 0.77864 0.0
C255 C 0.36226 0.4437 0.74021 0.0
O256 O 0.35571 0.49044 0.75218 0.0
Co257 Co 0.36065 0.4752 0.7063 0.0
O258 O 0.33612 0.48836 0.72178 0.0
C259 C 0.39931 0.50187 0.71637 0.0
C260 C 0.4091 0.4674 0.77532 0.0
C261 C 0.33874 0.4947 0.74118 0.0
O262 O 0.39902 0.49552 0.73609 0.0
O263 O 0.38638 0.49451 0.70188 0.0
O264 O 0.36507 0.44743 0.76068 0.0
O265 O 0.37317 0.4559 0.72734 0.0
Co266 Co 0.63032 0.00849 0.74593 0.0
O267 O 0.65675 0.99347 0.7405 0.0
O268 O 0.64532 0.00388 0.77265 0.0
C269 C 0.60909 0.98728 0.72521 0.0
O270 O 0.60391 0.02276 0.75851 0.0
Co271 Co 0.6041 0.03128 0.7103 0.0
O272 O 0.58078 0.03108 0.73204 0.0
C273 C 0.64431 0.05144 0.72693 0.0
C274 C 0.65961 0.99387 0.76127 0.0
C275 C 0.58523 0.02865 0.75194 0.0
O276 O 0.64541 0.03709 0.74179 0.0
O277 O 0.62992 0.05105 0.71206 0.0
O278 O 0.61433 0.98138 0.74458 0.0
O279 O 0.61824 0.00477 0.71836 0.0
Co280 Co 0.76737 0.62727 0.02916 0.0
O281 O 0.76825 0.60832 0.05352 0.0
O282 O 0.79317 0.61038 0.02804 0.0
C283 C 0.75768 0.65661 0.04787 0.0
O284 O 0.77277 0.64529 0.00241 0.0
Co285 Co 0.72522 0.64956 0.01458 0.0
O286 O 0.74429 0.66598 0.99492 0.0
C287 C 0.7315 0.60344 0.0051 0.0
C288 C 0.78651 0.60177 0.04591 0.0
C289 C 0.76355 0.6601 0.9914 0.0
O290 O 0.75112 0.60476 0.01186 0.0
O291 O 0.71824 0.61902 0.00632 0.0
O292 O 0.77783 0.65113 0.04728 0.0
O293 O 0.74421 0.64351 0.0386 0.0
Co294 Co 0.87435 0.51345 0.75858 0.0
O295 O 0.90198 0.5122 0.74471 0.0
O296 O 0.8848 0.4845 0.7596 0.0
C297 C 0.85822 0.53278 0.73282 0.0
O298 O 0.84575 0.50733 0.77287 0.0
Co299 Co 0.85221 0.55514 0.77344 0.0
O300 O 0.82553 0.53695 0.77319 0.0
C301 C 0.88868 0.5378 0.79868 0.0
C302 C 0.90123 0.49165 0.74877 0.0
C303 C 0.82755 0.51664 0.77494 0.0
O304 O 0.88842 0.52062 0.78698 0.0
O305 O 0.87653 0.55393 0.79502 0.0
O306 O 0.86017 0.51206 0.73062 0.0
O307 O 0.86719 0.54133 0.74972 0.0
Co308 Co 0.71542 0.37058 0.50658 0.0
O309 O 0.71222 0.34528 0.5244 0.0
O310 O 0.74316 0.35908 0.51259 0.0
C311 C 0.69331 0.39151 0.52559 0.0
O312 O 0.72635 0.39612 0.48963 0.0
Co313 Co 0.67936 0.39186 0.48046 0.0
O314 O 0.70033 0.4155 0.47441 0.0
C315 C 0.69783 0.35088 0.46523 0.0
C316 C 0.73319 0.34482 0.52421 0.0
C317 C 0.72007 0.41255 0.479 0.0
O318 O 0.71261 0.3525 0.47975 0.0
O319 O 0.68213 0.36402 0.46389 0.0
O320 O 0.71303 0.38863 0.53187 0.0
O321 O 0.6869 0.38065 0.5088 0.0
Co322 Co 0.61149 0.49987 0.21477 0.0
O323 O 0.63355 0.49179 0.19473 0.0
O324 O 0.62335 0.47264 0.22311 0.0
C325 C 0.58684 0.50996 0.19034 0.0
O326 O 0.58947 0.50222 0.23869 0.0
Co327 Co 0.59494 0.54671 0.21864 0.0
O328 O 0.5737 0.53456 0.23927 0.0
C329 C 0.63778 0.53585 0.2358 0.0
C330 C 0.63593 0.47473 0.20655 0.0
C331 C 0.57564 0.51544 0.24634 0.0
O332 O 0.63363 0.51571 0.23272 0.0
O333 O 0.6252 0.55084 0.22965 0.0
O334 O 0.58895 0.48967 0.19502 0.0
O335 O 0.60076 0.52299 0.19908 0.0
Fe336 Fe 0.13643 0.11876 0.14399 0.0
Fe337 Fe 0.11358 0.15924 0.12806 0.0
O338 O 0.12906 0.13605 0.1227 0.0
Fe339 Fe 0.13735 0.1299 0.09612 0.0
O340 O 0.12292 0.10435 0.09651 0.0
O341 O 0.13655 0.09415 0.12737 0.0
O342 O 0.10855 0.11272 0.14986 0.0
C343 C 0.09455 0.12667 0.1541 0.0
C344 C 0.17388 0.1206 0.12153 0.0
O345 O 0.09763 0.14639 0.14953 0.0
C346 C 0.14451 0.17348 0.09748 0.0
O347 O 0.13753 0.13981 0.16474 0.0
O348 O 0.13336 0.16986 0.147 0.0
O349 O 0.16294 0.11757 0.10444 0.0
O350 O 0.16467 0.12417 0.13922 0.0
C351 C 0.09514 0.14581 0.09012 0.0
O352 O 0.12693 0.17589 0.1075 0.0
O353 O 0.15209 0.15504 0.09403 0.0
C354 C 0.13947 0.16006 0.16359 0.0
O355 O 0.09248 0.15064 0.10963 0.0
O356 O 0.11358 0.14122 0.08299 0.0
C357 C 0.1265 0.08978 0.11006 0.0
Fe358 Fe 0.10654 0.87167 0.3977 0.0
Fe359 Fe 0.12349 0.91199 0.37511 0.0
O360 O 0.12711 0.89115 0.39399 0.0
Fe361 Fe 0.15121 0.88989 0.40929 0.0
O362 O 0.15733 0.86341 0.39862 0.0
O363 O 0.12503 0.84979 0.4043 0.0
O364 O 0.10813 0.86293 0.36993 0.0
C365 C 0.10575 0.87524 0.35403 0.0
C366 C 0.11877 0.87827 0.43931 0.0
O367 O 0.10725 0.89552 0.35628 0.0
C368 C 0.14408 0.93311 0.41028 0.0
O369 O 0.08428 0.88994 0.39175 0.0
O370 O 0.09989 0.92169 0.38893 0.0
O371 O 0.13827 0.87824 0.43332 0.0
O372 O 0.10375 0.87933 0.42564 0.0
C373 C 0.1655 0.9029 0.3678 0.0
O374 O 0.13917 0.93221 0.39046 0.0
O375 O 0.14654 0.91614 0.42103 0.0
C376 C 0.0833 0.91031 0.39225 0.0
O377 O 0.14674 0.90363 0.36009 0.0
O378 O 0.16846 0.90138 0.38798 0.0
C379 C 0.1449 0.84729 0.40058 0.0
Fe380 Fe 0.3737 0.8901 0.64673 0.0
Fe381 Fe 0.35747 0.87476 0.60252 0.0
O382 O 0.37595 0.87274 0.62418 0.0
Fe383 Fe 0.39662 0.85338 0.62329 0.0
O384 O 0.38708 0.84058 0.64761 0.0
O385 O 0.38366 0.87049 0.66626 0.0
O386 O 0.34682 0.88007 0.65253 0.0
C387 C 0.33133 0.88084 0.63935 0.0
C388 C 0.41733 0.89025 0.64107 0.0
O389 O 0.33481 0.88309 0.61938 0.0
C390 C 0.39714 0.86725 0.5817 0.0
O391 O 0.36328 0.9129 0.63125 0.0
O392 O 0.36555 0.90245 0.59747 0.0
O393 O 0.41633 0.87005 0.63812 0.0
O394 O 0.40043 0.90123 0.64235 0.0
C395 C 0.36031 0.83105 0.60652 0.0
O396 O 0.37674 0.86681 0.58173 0.0
O397 O 0.40763 0.86482 0.59891 0.0
C398 C 0.36448 0.9173 0.61137 0.0
O399 O 0.34826 0.84725 0.60633 0.0
O400 O 0.38055 0.83325 0.60831 0.0
C401 C 0.38458 0.85014 0.66535 0.0
Fe402 Fe 0.38459 0.13957 0.86572 0.0
Fe403 Fe 0.3642 0.09518 0.85727 0.0
O404 O 0.36404 0.12037 0.87079 0.0
Fe405 Fe 0.3432 0.12644 0.88911 0.0
O406 O 0.3349 0.14943 0.87347 0.0
O407 O 0.36741 0.16309 0.86942 0.0
O408 O 0.37739 0.14054 0.83753 0.0
C409 C 0.37727 0.12451 0.82502 0.0
C410 C 0.38061 0.14436 0.90915 0.0
O411 O 0.37673 0.10553 0.83246 0.0
C412 C 0.34975 0.08456 0.89941 0.0
O413 O 0.40554 0.11949 0.86098 0.0
O414 O 0.39011 0.08847 0.86883 0.0
O415 O 0.36031 0.14323 0.90693 0.0
O416 O 0.39289 0.1399 0.89367 0.0
C417 C 0.32148 0.10483 0.855 0.0
O418 O 0.35156 0.08026 0.87951 0.0
O419 O 0.35 0.10382 0.90595 0.0
C420 C 0.40689 0.09985 0.86631 0.0
O421 O 0.33841 0.10046 0.84482 0.0
O422 O 0.32234 0.1108 0.87454 0.0
C423 C 0.34715 0.16486 0.86829 0.0
Fe424 Fe 0.60218 0.35788 0.88789 0.0
Fe425 Fe 0.61962 0.39895 0.86689 0.0
O426 O 0.62398 0.37552 0.8823 0.0
Fe427 Fe 0.65004 0.36968 0.89232 0.0
O428 O 0.65059 0.34427 0.8778 0.0
O429 O 0.61862 0.33352 0.88856 0.0
O430 O 0.59772 0.35253 0.85958 0.0
C431 C 0.59401 0.3669 0.84581 0.0
C432 C 0.62243 0.35836 0.92682 0.0
O433 O 0.59865 0.38653 0.84963 0.0
C434 C 0.6486 0.41304 0.89968 0.0
O435 O 0.58163 0.37885 0.88814 0.0
O436 O 0.60007 0.40903 0.88585 0.0
O437 O 0.64027 0.35659 0.91711 0.0
O438 O 0.60543 0.3624 0.91648 0.0
C439 C 0.65832 0.38699 0.85069 0.0
O440 O 0.63981 0.41544 0.88139 0.0
O441 O 0.65123 0.39457 0.90752 0.0
C442 C 0.58297 0.39908 0.89062 0.0
O443 O 0.6388 0.39065 0.84683 0.0
O444 O 0.66445 0.38192 0.8695 0.0
C445 C 0.63689 0.32938 0.88063 0.0
Fe446 Fe 0.84898 0.36279 0.11288 0.0
Fe447 Fe 0.86757 0.37242 0.15782 0.0
O448 O 0.86789 0.35735 0.13352 0.0
Fe449 Fe 0.88733 0.33705 0.12974 0.0
O450 O 0.89837 0.35065 0.10647 0.0
O451 O 0.86728 0.35656 0.09066 0.0
O452 O 0.85846 0.39039 0.11075 0.0
C453 C 0.85913 0.40374 0.12609 0.0
C454 C 0.8496 0.31891 0.11081 0.0
O455 O 0.85812 0.39743 0.14543 0.0
C456 C 0.87703 0.32997 0.17169 0.0
O457 O 0.82728 0.37012 0.13145 0.0
O458 O 0.84035 0.36355 0.16372 0.0
O459 O 0.86987 0.31974 0.11299 0.0
O460 O 0.83838 0.33549 0.1135 0.0
C461 C 0.91085 0.37034 0.15065 0.0
O462 O 0.87694 0.35019 0.17464 0.0
O463 O 0.87776 0.32213 0.15291 0.0
C464 C 0.82449 0.36621 0.15128 0.0
O465 O 0.89481 0.3823 0.15345 0.0
O466 O 0.90832 0.35067 0.14572 0.0
C467 C 0.88765 0.35606 0.09012 0.0
Fe468 Fe 0.85359 0.60638 0.38531 0.0
Fe469 Fe 0.89346 0.62853 0.36656 0.0
O470 O 0.87521 0.60653 0.36697 0.0
Fe471 Fe 0.87852 0.58471 0.34891 0.0
O472 O 0.85252 0.58938 0.33671 0.0
O473 O 0.83498 0.59152 0.3673 0.0
O474 O 0.84277 0.63073 0.374 0.0
C475 C 0.85309 0.64826 0.37257 0.0
C476 C 0.86486 0.56442 0.38761 0.0
O477 O 0.87345 0.6487 0.37425 0.0
C478 C 0.92025 0.59223 0.36012 0.0
O479 O 0.86827 0.62133 0.4066 0.0
O480 O 0.90129 0.62409 0.39424 0.0
O481 O 0.86721 0.56429 0.36731 0.0
O482 O 0.86309 0.58198 0.39767 0.0
C483 C 0.88873 0.62124 0.32357 0.0
O484 O 0.91679 0.61228 0.35862 0.0
O485 O 0.90474 0.5789 0.36009 0.0
C486 C 0.88831 0.62417 0.40979 0.0
O487 O 0.88655 0.63431 0.33896 0.0
O488 O 0.8903 0.6012 0.32712 0.0
C489 C 0.83504 0.58953 0.34696 0.0
Fe490 Fe 0.89749 0.85378 0.87223 0.0
Fe491 Fe 0.85562 0.86757 0.89367 0.0
O492 O 0.87489 0.8707 0.87308 0.0
Fe493 Fe 0.87144 0.8906 0.85317 0.0
O494 O 0.8964 0.9038 0.86084 0.0
O495 O 0.91569 0.87438 0.86055 0.0
O496 O 0.90655 0.86293 0.89842 0.0
C497 C 0.89553 0.86097 0.9153 0.0
C498 C 0.88723 0.85491 0.82967 0.0
O499 O 0.87519 0.85872 0.91421 0.0
C500 C 0.83008 0.87657 0.85661 0.0
O501 O 0.8834 0.83015 0.88362 0.0
O502 O 0.84968 0.84024 0.88518 0.0
O503 O 0.88455 0.87509 0.83139 0.0
O504 O 0.88961 0.84349 0.84615 0.0
C505 C 0.8572 0.91117 0.8917 0.0
O506 O 0.83258 0.87592 0.87691 0.0
O507 O 0.84618 0.87852 0.84444 0.0
C508 C 0.86345 0.82555 0.88396 0.0
O509 O 0.86037 0.89481 0.9032 0.0
O510 O 0.85768 0.9097 0.87128 0.0
C511 C 0.91446 0.8948 0.86041 0.0
Fe512 Fe 0.87353 0.11297 0.63321 0.0
Fe513 Fe 0.84665 0.13 0.59556 0.0
O514 O 0.87008 0.13145 0.61191 0.0
Fe515 Fe 0.89019 0.15129 0.60665 0.0
O516 O 0.89879 0.15418 0.63478 0.0
O517 O 0.87542 0.13462 0.6529 0.0
O518 O 0.8448 0.11119 0.63967 0.0
C519 C 0.82974 0.12422 0.63577 0.0
C520 C 0.91413 0.11537 0.61373 0.0
O521 O 0.82938 0.13491 0.61852 0.0
C522 C 0.8779 0.13695 0.56558 0.0
O523 O 0.87206 0.09022 0.61481 0.0
O524 O 0.8431 0.10082 0.59775 0.0
O525 O 0.91007 0.1308 0.60129 0.0
O526 O 0.90276 0.11166 0.63021 0.0
C527 C 0.85345 0.17436 0.60215 0.0
O528 O 0.86281 0.12476 0.57177 0.0
O529 O 0.88515 0.15193 0.57755 0.0
C530 C 0.85721 0.08677 0.60129 0.0
O531 O 0.84602 0.15904 0.59064 0.0
O532 O 0.87134 0.17277 0.61169 0.0
C533 C 0.88851 0.15029 0.65191 0.0
Fe534 Fe 0.61968 0.08321 0.36461 0.0
Fe535 Fe 0.64747 0.10532 0.39964 0.0
O536 O 0.62427 0.10479 0.38293 0.0
Fe537 Fe 0.6056 0.12599 0.38467 0.0
O538 O 0.61016 0.13324 0.357 0.0
O539 O 0.60712 0.1002 0.34395 0.0
O540 O 0.6447 0.08865 0.35104 0.0
C541 C 0.66302 0.08964 0.35973 0.0
C542 C 0.57864 0.08928 0.37867 0.0
O543 O 0.66502 0.09185 0.37996 0.0
C544 C 0.6142 0.11926 0.42708 0.0
O545 O 0.63192 0.06259 0.38202 0.0
O546 O 0.63966 0.08024 0.41195 0.0
O547 O 0.58202 0.10938 0.37751 0.0
O548 O 0.59396 0.07629 0.37675 0.0
C549 C 0.64578 0.14765 0.38863 0.0
O550 O 0.63406 0.11867 0.4224 0.0
O551 O 0.60007 0.11972 0.41245 0.0
C552 C 0.6359 0.06281 0.4021 0.0
O553 O 0.65673 0.1307 0.38842 0.0
O554 O 0.62569 0.14675 0.39203 0.0
C555 C 0.60845 0.12043 0.34125 0.0
Fe556 Fe 0.60674 0.84975 0.14157 0.0
Fe557 Fe 0.63714 0.87872 0.11555 0.0
O558 O 0.62168 0.87399 0.13893 0.0
Fe559 Fe 0.62113 0.8936 0.15966 0.0
O560 O 0.59254 0.89667 0.15628 0.0
O561 O 0.58458 0.86203 0.15684 0.0
O562 O 0.59122 0.85537 0.11763 0.0
C563 C 0.59905 0.85938 0.0994 0.0
C564 C 0.62171 0.85408 0.18252 0.0
O565 O 0.61896 0.8636 0.09736 0.0
C566 C 0.6637 0.89411 0.1493 0.0
O567 O 0.62629 0.83328 0.12689 0.0
O568 O 0.65343 0.8555 0.12066 0.0
O569 O 0.61748 0.87401 0.18172 0.0
O570 O 0.62136 0.84279 0.16564 0.0
C571 C 0.61945 0.91812 0.12151 0.0
O572 O 0.65811 0.89465 0.12964 0.0
O573 O 0.64985 0.8914 0.16387 0.0
C574 C 0.64618 0.83673 0.1236 0.0
O575 O 0.62169 0.9022 0.10913 0.0
O576 O 0.62425 0.91677 0.14136 0.0
C577 C 0.57885 0.88157 0.15738 0.0
Fe578 Fe 0.38002 0.66063 0.12952 0.0
Fe579 Fe 0.34099 0.64755 0.10161 0.0
O580 O 0.35796 0.64307 0.12406 0.0
Fe581 Fe 0.35262 0.6211 0.14133 0.0
O582 O 0.37833 0.60947 0.13539 0.0
O583 O 0.39714 0.63931 0.14083 0.0
O584 O 0.39209 0.65473 0.10395 0.0
C585 C 0.38296 0.65679 0.08596 0.0
C586 C 0.36428 0.65451 0.16997 0.0
O587 O 0.36266 0.65852 0.08443 0.0
C588 C 0.31229 0.63656 0.13485 0.0
O589 O 0.36686 0.68491 0.11898 0.0
O590 O 0.33387 0.67371 0.11173 0.0
O591 O 0.36285 0.63455 0.16584 0.0
O592 O 0.36914 0.66773 0.15543 0.0
C593 C 0.34484 0.60398 0.09986 0.0
O594 O 0.3163 0.63736 0.11484 0.0
O595 O 0.32678 0.63183 0.14816 0.0
C596 C 0.34697 0.68864 0.11649 0.0
O597 O 0.34723 0.62164 0.09028 0.0
O598 O 0.34137 0.60352 0.11997 0.0
C599 C 0.39619 0.61904 0.13784 0.0
Fe600 Fe 0.13041 0.59246 0.86103 0.0
Fe601 Fe 0.15548 0.61801 0.89566 0.0
O602 O 0.13322 0.61535 0.87791 0.0
Fe603 Fe 0.11355 0.63565 0.8771 0.0
O604 O 0.11956 0.64121 0.8493 0.0
O605 O 0.11774 0.60732 0.83879 0.0
O606 O 0.15562 0.59835 0.8481 0.0
C607 C 0.1735 0.60074 0.85746 0.0
C608 C 0.08875 0.59739 0.87335 0.0
O609 O 0.17456 0.60421 0.87762 0.0
C610 C 0.12 0.6317 0.92027 0.0
O611 O 0.14293 0.57367 0.88016 0.0
O612 O 0.14824 0.59339 0.90923 0.0
O613 O 0.09109 0.61738 0.86989 0.0
O614 O 0.10478 0.58519 0.87296 0.0
C615 C 0.15248 0.65947 0.88203 0.0
O616 O 0.14015 0.63198 0.91682 0.0
O617 O 0.10674 0.6309 0.90485 0.0
C618 C 0.14562 0.57527 0.90037 0.0
O619 O 0.16413 0.64305 0.88333 0.0
O620 O 0.13225 0.65781 0.88419 0.0
C621 C 0.11902 0.62727 0.83446 0.0
Fe622 Fe 0.1325 0.38793 0.61633 0.0
Fe623 Fe 0.10181 0.35554 0.63776 0.0
O624 O 0.11522 0.38084 0.63775 0.0
Fe625 Fe 0.11142 0.39927 0.65915 0.0
O626 O 0.13963 0.39845 0.66619 0.0
O627 O 0.15094 0.40431 0.63325 0.0
O628 O 0.14984 0.36563 0.62201 0.0
C629 C 0.14389 0.34622 0.6232 0.0
C630 C 0.11198 0.42582 0.6224 0.0
O631 O 0.12403 0.34116 0.62453 0.0
C632 C 0.07036 0.38475 0.65241 0.0
O633 O 0.11743 0.37261 0.59567 0.0
O634 O 0.08849 0.36113 0.61245 0.0
O635 O 0.1151 0.42354 0.64246 0.0
O636 O 0.11596 0.41069 0.6095 0.0
C637 C 0.11243 0.35888 0.68026 0.0
O638 O 0.07738 0.36567 0.65111 0.0
O639 O 0.08308 0.40075 0.65305 0.0
C640 C 0.09799 0.36613 0.59528 0.0
O641 O 0.11414 0.34824 0.66306 0.0
O642 O 0.10697 0.37849 0.6798 0.0
C643 C 0.1547 0.40257 0.65328 0.0
Fe644 Fe 0.64297 0.62545 0.60864 0.0
Fe645 Fe 0.63004 0.61326 0.65448 0.0
O646 O 0.62752 0.63047 0.63198 0.0
Fe647 Fe 0.60952 0.65241 0.63285 0.0
O648 O 0.5946 0.64249 0.60964 0.0
O649 O 0.62278 0.6353 0.58969 0.0
O650 O 0.63074 0.59902 0.60518 0.0
C651 C 0.63111 0.58446 0.61922 0.0
C652 C 0.64628 0.66929 0.61123 0.0
O653 O 0.63589 0.589 0.63858 0.0
C654 C 0.62585 0.65448 0.67366 0.0
O655 O 0.66623 0.61478 0.62342 0.0
O656 O 0.65827 0.62013 0.65746 0.0
O657 O 0.62653 0.6702 0.61626 0.0
O658 O 0.65596 0.65157 0.61046 0.0
C659 C 0.58646 0.61835 0.65286 0.0
O660 O 0.62457 0.63415 0.67464 0.0
O661 O 0.62304 0.66408 0.65608 0.0
C662 C 0.67205 0.61764 0.64284 0.0
O663 O 0.60201 0.60549 0.65263 0.0
O664 O 0.58939 0.63835 0.64962 0.0
C665 C 0.60275 0.63813 0.59162 0.0
Fe666 Fe 0.40975 0.37072 0.37824 0.0
Fe667 Fe 0.38353 0.40759 0.35838 0.0
O668 O 0.38577 0.38622 0.37724 0.0
Fe669 Fe 0.36404 0.38016 0.39488 0.0
O670 O 0.36849 0.35122 0.39475 0.0
O671 O 0.39505 0.34586 0.37202 0.0
O672 O 0.41545 0.3728 0.34951 0.0
C673 C 0.40304 0.37663 0.33387 0.0
C674 C 0.39828 0.37468 0.4222 0.0
O675 O 0.38745 0.3893 0.33575 0.0
C676 C 0.36511 0.42581 0.39411 0.0
O677 O 0.42631 0.39438 0.38442 0.0
O678 O 0.41203 0.415 0.35952 0.0
O679 O 0.38075 0.38409 0.4187 0.0
O680 O 0.40845 0.36567 0.40713 0.0
C681 C 0.34193 0.38857 0.35756 0.0
O682 O 0.37916 0.42747 0.37953 0.0
O683 O 0.35578 0.40805 0.39803 0.0
C684 C 0.42648 0.41142 0.37342 0.0
O685 O 0.35469 0.4041 0.3539 0.0
O686 O 0.3453 0.3756 0.37271 0.0
C687 C 0.37847 0.33925 0.38176 0.0
C688 C 0.09145 0.20691 0.34455 0.0
C689 C 0.07112 0.21634 0.34196 0.0
C690 C 0.10417 0.20238 0.32662 0.0
C691 C 0.11567 0.22035 0.27271 0.0
H692 H 0.13109 0.16154 0.25912 0.0
C693 C 0.13238 0.19179 0.18709 0.0
C694 C 0.14305 0.17227 0.18375 0.0
C695 C 0.13018 0.20011 0.20789 0.0
C696 C 0.1276 0.17819 0.26286 0.0
H697 H 0.0481 0.2283 0.31863 0.0
H698 H 0.07059 0.22071 0.2873 0.0
H699 H 0.11333 0.16945 0.29303 0.0
H700 H 0.1624 0.14775 0.1989 0.0
H701 H 0.15963 0.1629 0.2351 0.0
H702 H 0.12993 0.22928 0.24272 0.0
C703 C 0.07653 0.21675 0.30323 0.0
C704 C 0.11721 0.18262 0.28225 0.0
C705 C 0.0636 0.22085 0.3211 0.0
C706 C 0.15375 0.16265 0.20114 0.0
C707 C 0.15196 0.17122 0.22189 0.0
C708 C 0.12649 0.21603 0.25351 0.0
C709 C 0.09696 0.20769 0.3059 0.0
C710 C 0.11052 0.20358 0.28693 0.0
C711 C 0.13898 0.18927 0.22571 0.0
C712 C 0.13186 0.19475 0.24793 0.0
H713 H 0.09763 0.20329 0.36047 0.0
H714 H 0.11985 0.19526 0.32896 0.0
H715 H 0.1109 0.23672 0.27625 0.0
H716 H 0.12398 0.19959 0.17399 0.0
H717 H 0.12002 0.21399 0.21003 0.0
C718 C 0.04249 0.77102 0.58332 0.0
C719 C 0.03962 0.75053 0.5738 0.0
C720 C 0.05361 0.78734 0.57255 0.0
C721 C 0.09172 0.79683 0.52791 0.0
H722 H 0.06825 0.85447 0.52865 0.0
C723 C 0.09157 0.87191 0.46809 0.0
C724 C 0.11317 0.87163 0.46143 0.0
C725 C 0.08519 0.86096 0.48658 0.0
C726 C 0.07508 0.8385 0.52841 0.0
H727 H 0.04609 0.73123 0.54537 0.0
H728 H 0.06511 0.75997 0.52629 0.0
H729 H 0.05135 0.82625 0.55015 0.0
H730 H 0.14544 0.86178 0.47027 0.0
H731 H 0.13428 0.8428 0.50279 0.0
H732 H 0.11465 0.80872 0.5052 0.0
C733 C 0.05911 0.76321 0.54233 0.0
C734 C 0.0655 0.82235 0.54083 0.0
C735 C 0.04805 0.74679 0.55317 0.0
C736 C 0.12862 0.86207 0.47483 0.0
C737 C 0.12222 0.85108 0.49337 0.0
C738 C 0.10125 0.81295 0.51544 0.0
C739 C 0.06204 0.78365 0.55194 0.0
C740 C 0.07339 0.80121 0.54029 0.0
C741 C 0.1003 0.84955 0.49884 0.0
C742 C 0.09269 0.83382 0.51511 0.0
H743 H 0.03637 0.77447 0.59927 0.0
H744 H 0.05581 0.80281 0.5805 0.0
H745 H 0.09843 0.78081 0.52748 0.0
H746 H 0.07932 0.87941 0.45826 0.0
H747 H 0.06817 0.8601 0.49027 0.0
C748 C 0.45583 0.76642 0.82768 0.0
C749 C 0.47451 0.77876 0.83213 0.0
C750 C 0.44196 0.77224 0.81096 0.0
C751 C 0.42758 0.81915 0.77786 0.0
H752 H 0.40344 0.77661 0.73827 0.0
C753 C 0.3799 0.84707 0.70511 0.0
C754 C 0.3866 0.83793 0.68555 0.0
C755 C 0.38499 0.83728 0.72463 0.0
C756 C 0.41001 0.78867 0.74923 0.0
H757 H 0.49368 0.80641 0.82224 0.0
H758 H 0.46976 0.8163 0.79281 0.0
H759 H 0.42512 0.76489 0.76889 0.0
H760 H 0.4023 0.81049 0.67094 0.0
H761 H 0.41192 0.79384 0.70496 0.0
H762 H 0.4137 0.84301 0.75774 0.0
C763 C 0.46553 0.80245 0.80254 0.0
C764 C 0.42228 0.78195 0.76686 0.0
C765 C 0.47933 0.79669 0.81928 0.0
C766 C 0.39704 0.81798 0.68579 0.0
C767 C 0.40241 0.80835 0.70533 0.0
C768 C 0.41546 0.82586 0.76025 0.0
C769 C 0.44654 0.79047 0.79839 0.0
C770 C 0.43168 0.79719 0.781 0.0
C771 C 0.3972 0.81835 0.72498 0.0
C772 C 0.40696 0.81075 0.74541 0.0
H773 H 0.45168 0.75252 0.83737 0.0
H774 H 0.42741 0.76276 0.80821 0.0
H775 H 0.4342 0.83125 0.78875 0.0
H776 H 0.37141 0.86222 0.70536 0.0
H777 H 0.3802 0.84507 0.73948 0.0
C778 C 0.45585 0.23348 0.07089 0.0
C779 C 0.46524 0.21878 0.08515 0.0
C780 C 0.44564 0.2261 0.05203 0.0
C781 C 0.41599 0.2044 0.01844 0.0
H782 H 0.44476 0.15852 0.98765 0.0
C783 C 0.37667 0.15821 0.94692 0.0
C784 C 0.38997 0.1532 0.92935 0.0
C785 C 0.38549 0.16696 0.96584 0.0
C786 C 0.43661 0.17145 0.99593 0.0
H787 H 0.47049 0.18488 0.09147 0.0
H788 H 0.45248 0.17208 0.05891 0.0
H789 H 0.46054 0.17284 0.02076 0.0
H790 H 0.42297 0.15358 0.91788 0.0
H791 H 0.43826 0.16902 0.95077 0.0
H792 H 0.39224 0.20321 0.99328 0.0
C793 C 0.4534 0.18928 0.06193 0.0
C794 C 0.44551 0.17949 0.01506 0.0
C795 C 0.46363 0.19662 0.08064 0.0
C796 C 0.41227 0.15713 0.93114 0.0
C797 C 0.42105 0.16591 0.95002 0.0
C798 C 0.40705 0.19634 -0.00075 0.0
C799 C 0.44466 0.20393 0.0472 0.0
C800 C 0.43524 0.19593 0.02661 0.0
C801 C 0.40778 0.17089 0.9676 0.0
C802 C 0.41726 0.17974 0.98783 0.0
H803 H 0.45687 0.25066 0.07401 0.0
H804 H 0.43912 0.23778 0.04093 0.0
H805 H 0.40766 0.21701 0.02705 0.0
H806 H 0.35944 0.15533 0.9461 0.0
H807 H 0.37488 0.17034 0.97921 0.0
C808 C 0.02447 0.8051 0.18741 0.0
C809 C 0.03886 0.79383 0.17426 0.0
C810 C 0.03174 0.81497 0.20642 0.0
C811 C 0.08027 0.83588 0.23376 0.0
H812 H 0.04816 0.82505 0.28618 0.0
C813 C 0.09843 0.87919 0.31461 0.0
C814 C 0.0989 0.86611 0.33304 0.0
C815 C 0.09139 0.87077 0.29487 0.0
C816 C 0.05731 0.82813 0.27167 0.0
H817 H 0.07217 0.78441 0.17032 0.0
H818 H 0.08485 0.80176 0.20345 0.0
H819 H 0.03501 0.81016 0.25196 0.0
H820 H 0.09263 0.83387 0.34514 0.0
H821 H 0.08021 0.81925 0.31062 0.0
H822 H 0.10267 0.85371 0.25352 0.0
C823 C 0.068 0.803 0.19906 0.0
C824 C 0.04968 0.81982 0.2521 0.0
C825 C 0.06071 0.79298 0.18018 0.0
C826 C 0.09241 0.84438 0.33126 0.0
C827 C 0.08518 0.83603 0.31155 0.0
C828 C 0.0878 0.84437 0.25331 0.0
C829 C 0.05355 0.81389 0.21246 0.0
C830 C 0.06116 0.82352 0.233 0.0
C831 C 0.08452 0.84918 0.29321 0.0
C832 C 0.07645 0.84044 0.27245 0.0
H833 H 0.00755 0.80601 0.1832 0.0
H834 H 0.02033 0.82345 0.21641 0.0
H835 H 0.08936 0.83905 0.21923 0.0
H836 H 0.10343 0.89597 0.31543 0.0
H837 H 0.09092 0.88127 0.28098 0.0
C838 C 0.47879 0.79574 0.41945 0.0
C839 C 0.46866 0.77537 0.41809 0.0
C840 C 0.47243 0.8107 0.435 0.0
C841 C 0.46349 0.83337 0.47802 0.0
H842 H 0.40245 0.83625 0.49051 0.0
C843 C 0.42956 0.85836 0.55981 0.0
C844 C 0.40855 0.86642 0.56091 0.0
C845 C 0.43873 0.85359 0.53989 0.0
C846 C 0.41952 0.83612 0.48699 0.0
H847 H 0.44437 0.75444 0.43224 0.0
H848 H 0.43349 0.78036 0.45953 0.0
H849 H 0.41454 0.81468 0.46035 0.0
H850 H 0.3817 0.8783 0.5421 0.0
H851 H 0.39793 0.87047 0.50729 0.0
H852 H 0.46843 0.85469 0.50491 0.0
C853 C 0.44603 0.78497 0.44831 0.0
C854 C 0.42646 0.82343 0.46988 0.0
C855 C 0.45238 0.77006 0.4328 0.0
C856 C 0.39774 0.87162 0.54173 0.0
C857 C 0.40702 0.8671 0.52181 0.0
C858 C 0.45653 0.84617 0.49517 0.0
C859 C 0.45579 0.80553 0.44941 0.0
C860 C 0.44853 0.82132 0.46569 0.0
C861 C 0.42715 0.85702 0.5207 0.0
C862 C 0.43449 0.84713 0.50025 0.0
H863 H 0.4914 0.80028 0.40829 0.0
H864 H 0.4802 0.82643 0.43546 0.0
H865 H 0.48062 0.8321 0.47509 0.0
H866 H 0.43839 0.85435 0.57432 0.0
H867 H 0.45422 0.84576 0.53968 0.0
C868 C 0.46383 0.19951 0.66902 0.0
C869 C 0.48385 0.20495 0.67848 0.0
C870 C 0.44934 0.18583 0.67961 0.0
C871 C 0.44552 0.14659 0.72445 0.0
H872 H 0.38669 0.16631 0.72891 0.0
C873 C 0.37977 0.14902 0.79347 0.0
C874 C 0.38178 0.12822 0.80199 0.0
C875 C 0.38761 0.15375 0.77303 0.0
C876 C 0.403 0.16044 0.72764 0.0
H877 H 0.50437 0.20003 0.70641 0.0
H878 H 0.47899 0.17661 0.725 0.0
H879 H 0.41123 0.18375 0.70369 0.0
H880 H 0.39174 0.09554 0.79501 0.0
H881 H 0.40553 0.10387 0.75912 0.0
H882 H 0.43781 0.12439 0.74951 0.0
C883 C 0.47464 0.18256 0.7092 0.0
C884 C 0.41702 0.17032 0.71307 0.0
C885 C 0.48913 0.1962 0.69863 0.0
C886 C 0.39016 0.11178 0.78894 0.0
C887 C 0.39813 0.11656 0.76844 0.0
C888 C 0.43153 0.13677 0.73906 0.0
C889 C 0.45456 0.17729 0.69986 0.0
C890 C 0.43869 0.16412 0.71203 0.0
C891 C 0.39768 0.1378 0.76063 0.0
C892 C 0.4104 0.14425 0.74149 0.0
H893 H 0.45928 0.20583 0.65343 0.0
H894 H 0.43404 0.18196 0.67195 0.0
H895 H 0.46201 0.14113 0.72364 0.0
H896 H 0.3731 0.16196 0.80303 0.0
H897 H 0.38714 0.17032 0.76764 0.0
C898 C 0.00816 0.18843 0.92583 0.0
C899 C -0.0002 0.20924 0.92364 0.0
C900 C 0.01311 0.18032 0.94616 0.0
C901 C 0.02565 0.19852 0.00163 0.0
H902 H 0.0234 0.13706 0.01278 0.0
C903 C 0.06062 0.16321 0.07933 0.0
C904 C 0.07731 0.14883 0.07467 0.0
C905 C 0.04578 0.16875 0.06335 0.0
C906 C 0.0239 0.15427 0.00993 0.0
H907 H 0.98934 0.23759 0.94107 0.0
H908 H -0.00259 0.22321 0.97666 0.0
H909 H 0.00712 0.1511 0.97989 0.0
H910 H 0.09049 0.12759 0.05037 0.0
H911 H 0.06434 0.13702 0.02259 0.0
H912 H 0.0426 0.20157 0.03161 0.0
C913 C 0.00071 0.21336 0.96264 0.0
C914 C 0.01477 0.16233 0.99104 0.0
C915 C 0.99606 0.2216 0.94224 0.0
C916 C 0.07791 0.13888 0.05431 0.0
C917 C 0.06286 0.14414 0.03848 0.0
C918 C 0.03446 0.19049 0.02064 0.0
C919 C 0.00951 0.19269 0.96484 0.0
C920 C 0.0162 0.18448 0.98631 0.0
C921 C 0.04715 0.15967 0.04264 0.0
C922 C 0.03425 0.16825 0.02463 0.0
H923 H 0.01131 0.17854 0.91179 0.0
H924 H 0.02031 0.16456 0.94712 0.0
H925 H 0.02733 0.2156 -0.00152 0.0
H926 H 0.05973 0.17109 0.09491 0.0
H927 H 0.03372 0.18071 0.06693 0.0
C928 C 0.33803 0.03755 0.1721 0.0
C929 C 0.34365 0.04746 0.19177 0.0
C930 C 0.32465 0.048 0.15744 0.0
C931 C 0.29779 0.10053 0.14639 0.0
H932 H 0.25163 0.0633 0.12516 0.0
C933 C 0.21011 0.1253 0.13844 0.0
C934 C 0.19729 0.11685 0.12162 0.0
C935 C 0.23174 0.1198 0.14019 0.0
C936 C 0.26464 0.0739 0.13045 0.0
H937 H 0.34053 0.07637 0.21118 0.0
H938 H 0.31648 0.09424 0.18613 0.0
H939 H 0.28332 0.04746 0.14131 0.0
H940 H 0.19732 0.09709 0.09269 0.0
H941 H 0.23521 0.08699 0.09611 0.0
H942 H 0.27808 0.127 0.13689 0.0
C943 C 0.32277 0.07866 0.18164 0.0
C944 C 0.28289 0.06482 0.13973 0.0
C945 C 0.33639 0.06833 0.19616 0.0
C946 C 0.20682 0.10375 0.10588 0.0
C947 C 0.22845 0.09797 0.10782 0.0
C948 C 0.27939 0.10961 0.1373 0.0
C949 C 0.31636 0.06843 0.1623 0.0
C950 C 0.2993 0.07804 0.1486 0.0
C951 C 0.24094 0.10553 0.12531 0.0
C952 C 0.26232 0.09636 0.13002 0.0
H953 H 0.34371 0.02158 0.16817 0.0
H954 H 0.32039 0.03982 0.14253 0.0
H955 H 0.31038 0.11116 0.15254 0.0
H956 H 0.20324 0.13565 0.15066 0.0
H957 H 0.24091 0.1257 0.15396 0.0
C958 C 0.23489 0.09194 0.48369 0.0
C959 C 0.22239 0.10986 0.48913 0.0
C960 C 0.22515 0.07325 0.47539 0.0
C961 C 0.17533 0.05285 0.44912 0.0
H962 H 0.19616 0.99756 0.46854 0.0
C963 C 0.15369 0.95578 0.44247 0.0
C964 C 0.14983 0.95411 0.42019 0.0
C965 C 0.16063 0.97529 0.45158 0.0
C966 C 0.18996 0.01286 0.46315 0.0
H967 H 0.18979 0.1222 0.49001 0.0
H968 H 0.17285 0.0895 0.47587 0.0
H969 H 0.21221 0.03056 0.48303 0.0
H970 H 0.14957 0.9718 0.39009 0.0
H971 H 0.1621 0.00567 0.40592 0.0
H972 H 0.15279 0.03508 0.42953 0.0
C973 C 0.19021 0.09002 0.4777 0.0
C974 C 0.19938 0.03178 0.47122 0.0
C975 C 0.19995 0.10873 0.48591 0.0
C976 C 0.15239 0.97254 0.40732 0.0
C977 C 0.15946 0.99201 0.41641 0.0
C978 C 0.16584 0.0339 0.4411 0.0
C979 C 0.20269 0.07203 0.47245 0.0
C980 C 0.19231 0.05198 0.46416 0.0
C981 C 0.16398 0.99351 0.43859 0.0
C982 C 0.17316 0.01369 0.44791 0.0
H983 H 0.25223 0.09229 0.48585 0.0
H984 H 0.23525 0.05979 0.47115 0.0
H985 H 0.16961 0.06817 0.44325 0.0
H986 H 0.15161 0.94194 0.45287 0.0
H987 H 0.16357 0.97605 0.46879 0.0
C988 C 0.16733 0.95531 0.71649 0.0
C989 C 0.15931 0.97048 0.70188 0.0
C990 C 0.18516 0.94283 0.71107 0.0
C991 C 0.2309 0.94281 0.67289 0.0
H992 H 0.23638 0.88274 0.6889 0.0
C993 C 0.29268 0.88963 0.6333 0.0
C994 C 0.30925 0.88384 0.64758 0.0
C995 C 0.27297 0.89659 0.64119 0.0
C996 C 0.23495 0.89952 0.68444 0.0
H997 H 0.1629 0.98388 0.66988 0.0
H998 H 0.19324 0.96174 0.66013 0.0
H999 H 0.20458 0.90295 0.70035 0.0
H1000 H 0.31735 0.87868 0.68124 0.0
H1001 H 0.28256 0.89077 0.69497 0.0
H1002 H 0.26082 0.93921 0.65644 0.0
C1003 C 0.18646 0.95993 0.67607 0.0
C1004 C 0.21691 0.91112 0.69105 0.0
C1005 C 0.16896 0.97256 0.68161 0.0
C1006 C 0.30499 0.88328 0.66984 0.0
C1007 C 0.2851 0.89006 0.67772 0.0
C1008 C 0.24861 0.93118 0.66604 0.0
C1009 C 0.19506 0.94518 0.69084 0.0
C1010 C 0.21456 0.93285 0.68507 0.0
C1011 C 0.26935 0.89757 0.66345 0.0
C1012 C 0.25066 0.90944 0.67154 0.0
H1013 H 0.16013 0.95341 0.73225 0.0
H1014 H 0.19146 0.93173 0.72287 0.0
H1015 H 0.23002 0.95966 0.66855 0.0
H1016 H 0.29529 0.89001 0.61606 0.0
H1017 H 0.26091 0.90225 0.62994 0.0
C1018 C 0.22036 0.96043 0.96767 0.0
C1019 C 0.22626 0.94288 0.98053 0.0
C1020 C 0.23545 0.97668 0.96292 0.0
C1021 C 0.29393 0.98467 0.95844 0.0
H1022 H 0.27963 0.04514 0.95445 0.0
C1023 C 0.33388 0.07284 0.93456 0.0
C1024 C 0.34215 0.06748 0.91418 0.0
C1025 C 0.32255 0.0575 0.94657 0.0
C1026 C 0.28398 0.02836 0.95582 0.0
H1027 H 0.25226 0.92931 -0.00047 0.0
H1028 H 0.27827 0.95757 0.99137 0.0
H1029 H 0.2529 0.01945 0.96804 0.0
H1030 H 0.34682 0.04131 0.89141 0.0
H1031 H 0.32712 0.0146 0.91236 0.0
H1032 H 0.32487 0.99351 0.94592 0.0
C1033 C 0.26221 0.95857 0.98455 0.0
C1034 C 0.26858 0.01363 0.96333 0.0
C1035 C 0.24723 0.94239 0.98924 0.0
C1036 C 0.34047 0.04602 0.90694 0.0
C1037 C 0.32926 0.03067 0.919 0.0
C1038 C 0.30927 -0.00063 0.95086 0.0
C1039 C 0.25664 0.97565 0.971 0.0
C1040 C 0.2733 0.9916 0.96442 0.0
C1041 C 0.31947 0.03648 0.93852 0.0
C1042 C 0.30434 0.0213 0.94914 0.0
H1043 H 0.20433 0.96131 0.96078 0.0
H1044 H 0.23074 0.98962 0.95231 0.0
H1045 H 0.29799 0.96776 0.95893 0.0
H1046 H 0.33507 0.08918 0.94074 0.0
H1047 H 0.3155 0.06229 0.96176 0.0
C1048 C 0.30935 0.98497 0.26036 0.0
C1049 C 0.30764 0.00754 0.26147 0.0
C1050 C 0.29368 0.97167 0.26951 0.0
C1051 C 0.23809 0.9698 0.28956 0.0
H1052 H 0.25945 0.92373 0.32564 0.0
C1053 C 0.20391 0.91442 0.36223 0.0
C1054 C 0.18368 0.90866 0.35354 0.0
C1055 C 0.21975 0.92369 0.34916 0.0
C1056 C 0.25326 0.9365 0.3156 0.0
H1057 H 0.28754 0.03381 0.27223 0.0
H1058 H 0.26006 0.01042 0.28835 0.0
H1059 H 0.28486 0.94661 0.30605 0.0
H1060 H 0.16488 0.90634 0.32397 0.0
H1061 H 0.19256 0.9224 0.30124 0.0
H1062 H 0.20652 0.96004 0.29955 0.0
C1063 C 0.27361 0.00311 0.28031 0.0
C1064 C 0.26777 0.94948 0.30426 0.0
C1065 C 0.28937 0.0165 0.27114 0.0
C1066 C 0.18019 0.9109 0.33125 0.0
C1067 C 0.19598 0.9202 0.31823 0.0
C1068 C 0.22357 0.95673 0.30081 0.0
C1069 C 0.27588 0.98058 0.27996 0.0
C1070 C 0.26033 0.96637 0.29127 0.0
C1071 C 0.21563 0.92734 0.32718 0.0
C1072 C 0.23103 0.94007 0.31409 0.0
H1073 H 0.32305 0.97747 0.25277 0.0
H1074 H 0.29562 0.95436 0.26861 0.0
H1075 H 0.23191 0.98259 0.27955 0.0
H1076 H 0.20715 0.91285 0.37931 0.0
H1077 H 0.23475 0.92908 0.35651 0.0
C1078 C 0.29421 0.09368 0.56539 0.0
C1079 C 0.29882 0.10094 0.54453 0.0
C1080 C 0.30361 0.07495 0.57322 0.0
C1081 C 0.3472 0.03554 0.56263 0.0
H1082 H 0.31101 -0.00146 0.5978 0.0
C1083 C 0.36391 0.94562 0.58263 0.0
C1084 C 0.36098 0.9397 0.60429 0.0
C1085 C 0.35865 0.96632 0.57572 0.0
C1086 C 0.32136 0.00882 0.58816 0.0
H1087 H 0.317 0.09454 0.51551 0.0
H1088 H 0.33281 0.06137 0.52882 0.0
H1089 H 0.29703 0.03253 0.58486 0.0
H1090 H 0.35109 0.95117 0.63582 0.0
H1091 H 0.34165 0.98708 0.62361 0.0
H1092 H 0.37121 0.0111 0.56542 0.0
C1093 C 0.32241 0.07039 0.53942 0.0
C1094 C 0.31342 0.02837 0.58081 0.0
C1095 C 0.31325 0.08933 0.53172 0.0
C1096 C 0.35346 0.95514 0.61901 0.0
C1097 C 0.34797 0.97569 0.61204 0.0
C1098 C 0.35503 0.01576 0.56976 0.0
C1099 C 0.31753 0.06284 0.5602 0.0
C1100 C 0.32625 0.04207 0.56805 0.0
C1101 C 0.35015 0.98133 0.59029 0.0
C1102 C 0.3422 0.00232 0.58268 0.0
H1103 H 0.28331 0.10246 0.5757 0.0
H1104 H 0.29987 0.06995 0.58949 0.0
H1105 H 0.35763 0.04578 0.55306 0.0
H1106 H 0.36981 0.93412 0.57094 0.0
H1107 H 0.36042 0.97032 0.55884 0.0
C1108 C 0.15147 0.07393 0.75651 0.0
C1109 C 0.1481 0.0516 0.75387 0.0
C1110 C 0.16856 0.08178 0.76915 0.0
C1111 C 0.2064 0.06663 0.81213 0.0
H1112 H 0.24421 0.10982 0.78691 0.0
C1113 C 0.29903 0.0975 0.82216 0.0
C1114 C 0.30034 0.10121 0.84449 0.0
C1115 C 0.27912 0.09376 0.81222 0.0
C1116 C 0.23374 0.0978 0.79416 0.0
H1117 H 0.15979 0.02003 0.76289 0.0
H1118 H 0.18952 0.03379 0.78491 0.0
H1119 H 0.21135 0.09866 0.76784 0.0
H1120 H 0.28173 0.10417 0.87388 0.0
H1121 H 0.24691 0.09739 0.85644 0.0
H1122 H 0.22909 0.06537 0.83818 0.0
C1123 C 0.17888 0.04518 0.77726 0.0
C1124 C 0.21487 0.09156 0.78336 0.0
C1125 C 0.16194 0.03732 0.76449 0.0
C1126 C 0.28127 0.10132 0.85664 0.0
C1127 C 0.26135 0.09737 0.84671 0.0
C1128 C 0.22518 0.073 0.82302 0.0
C1129 C 0.18246 0.06747 0.77957 0.0
C1130 C 0.20125 0.07561 0.79205 0.0
C1131 C 0.26012 0.0935 0.82442 0.0
C1132 C 0.23923 0.08834 0.81392 0.0
H1133 H 0.1411 0.08538 0.74858 0.0
H1134 H 0.1709 0.09904 0.77079 0.0
H1135 H 0.19605 0.05444 0.81927 0.0
H1136 H 0.31341 0.09742 0.81233 0.0
H1137 H 0.27865 0.09057 0.79504 0.0
C1138 C 0.15193 0.91763 0.02583 0.0
C1139 C 0.1706 0.91091 0.03665 0.0
C1140 C 0.1389 0.93345 0.0349 0.0
C1141 C 0.13005 0.97952 0.04957 0.0
H1142 H 0.11814 0.98483 0.11064 0.0
C1143 C 0.13146 0.05034 0.11604 0.0
C1144 C 0.12223 0.06702 0.10405 0.0
C1145 C 0.12978 0.02903 0.10892 0.0
C1146 C 0.12131 0.98359 0.09353 0.0
H1147 H 0.18947 0.91426 0.066 0.0
H1148 H 0.16671 0.94174 0.08186 0.0
H1149 H 0.1294 0.9502 0.09587 0.0
H1150 H 0.10236 0.07423 0.0762 0.0
H1151 H 0.09906 0.0369 0.06398 0.0
H1152 H 0.12361 0.0131 0.04731 0.0
C1153 C 0.16212 0.93485 0.0664 0.0
C1154 C 0.12764 0.96376 0.08509 0.0
C1155 C 0.17527 0.91928 0.05722 0.0
C1156 C 0.11 0.06177 0.08559 0.0
C1157 C 0.10814 0.04038 0.07856 0.0
C1158 C 0.12394 -0.00061 0.05802 0.0
C1159 C 0.14415 0.94253 0.05508 0.0
C1160 C 0.13286 0.96178 0.06318 0.0
C1161 C 0.11863 0.02384 0.08975 0.0
C1162 C 0.12035 0.00188 0.08026 0.0
H1163 H 0.14787 0.91134 0.00999 0.0
H1164 H 0.12508 0.93905 0.02589 0.0
H1165 H 0.13415 0.97852 0.03264 0.0
H1166 H 0.14089 0.05382 0.13041 0.0
H1167 H 0.13831 0.01682 0.11785 0.0
C1168 C 0.24743 0.33631 0.0526 0.0
C1169 C 0.25839 0.33564 0.03286 0.0
C1170 C 0.23457 0.31896 0.05909 0.0
C1171 C 0.20694 0.26958 0.03817 0.0
H1172 H 0.20408 0.25531 0.0989 0.0
C1173 C 0.17078 0.19025 0.07198 0.0
C1174 C 0.15601 0.19252 0.08892 0.0
C1175 C 0.18233 0.2081 0.06443 0.0
C1176 C 0.20462 0.25926 0.08192 0.0
H1177 H 0.26479 0.31612 0.00459 0.0
H1178 H 0.24303 0.28538 0.01632 0.0
H1179 H 0.22704 0.28514 0.08724 0.0
H1180 H 0.14167 0.2152 0.11118 0.0
H1181 H 0.16233 0.24638 0.09824 0.0
H1182 H 0.18503 0.24302 0.03297 0.0
C1183 C 0.24381 0.29959 0.02651 0.0
C1184 C 0.2177 0.27639 0.07521 0.0
C1185 C 0.25642 0.31714 0.01984 0.0
C1186 C 0.15288 0.213 0.09805 0.0
C1187 C 0.16474 0.23078 0.09075 0.0
C1188 C 0.19413 0.25222 0.04488 0.0
C1189 C 0.23264 0.30033 0.04618 0.0
C1190 C 0.21896 0.28184 0.05325 0.0
C1191 C 0.17961 0.22844 0.07395 0.0
C1192 C 0.19282 0.24699 0.06681 0.0
H1193 H 0.24839 0.35047 0.06288 0.0
H1194 H 0.22587 0.32034 0.07411 0.0
H1195 H 0.20717 0.27353 0.0212 0.0
H1196 H 0.17347 0.17467 0.06458 0.0
H1197 H 0.19382 0.20591 0.05153 0.0
C1198 C 0.69981 0.16383 0.95945 0.0
C1199 C 0.69823 0.16945 0.9814 0.0
C1200 C 0.69286 0.178 0.94347 0.0
C1201 C 0.65582 0.22267 0.93547 0.0
H1202 H 0.69189 0.23909 0.88723 0.0
C1203 C 0.66585 0.30176 0.8825 0.0
C1204 C 0.64391 0.30672 0.88033 0.0
C1205 C 0.67201 0.281 0.88834 0.0
C1206 C 0.68157 0.23449 0.9005 0.0
H1207 H 0.68844 0.19456 0.00368 0.0
H1208 H 0.67628 0.21908 0.97586 0.0
H1209 H 0.70384 0.21093 0.91199 0.0
H1210 H 0.6115 0.29324 0.87951 0.0
H1211 H 0.6223 0.25693 0.88922 0.0
H1212 H 0.63404 0.2467 0.92489 0.0
C1213 C 0.68273 0.20365 0.97104 0.0
C1214 C 0.68835 0.21834 0.91458 0.0
C1215 C 0.68983 0.18964 0.98697 0.0
C1216 C 0.6285 0.28998 0.88152 0.0
C1217 C 0.63468 0.26921 0.88715 0.0
C1218 C 0.64901 0.23864 0.92141 0.0
C1219 C 0.68398 0.19791 0.94917 0.0
C1220 C 0.67581 0.2128 0.93256 0.0
C1221 C 0.65634 0.26484 0.89192 0.0
C1222 C 0.66204 0.24517 0.90409 0.0
H1223 H 0.70632 0.14844 0.9546 0.0
H1224 H 0.694 0.17321 0.9267 0.0
H1225 H 0.64571 0.21848 0.94904 0.0
H1226 H 0.67814 0.31427 0.88154 0.0
H1227 H 0.68884 0.27818 0.89187 0.0
C1228 C 0.09024 0.44823 0.18498 0.0
C1229 C 0.09645 0.44539 0.20655 0.0
C1230 C 0.07186 0.43787 0.17685 0.0
C1231 C 0.03154 0.39494 0.18745 0.0
H1232 H 0.99326 0.43283 0.15627 0.0
C1233 C 0.95066 0.3653 0.15172 0.0
C1234 C 0.93282 0.37864 0.1551 0.0
C1235 C 0.97145 0.3727 0.15642 0.0
C1236 C 0.00375 0.42209 0.16502 0.0
H1237 H 0.08915 0.42855 0.23622 0.0
H1238 H 0.0568 0.41062 0.2221 0.0
H1239 H 0.02883 0.44591 0.16727 0.0
H1240 H 0.92287 0.41035 0.16572 0.0
H1241 H 0.95928 0.42321 0.17417 0.0
H1242 H 0.00613 0.37136 0.18579 0.0
C1243 C 0.06622 0.42073 0.21141 0.0
C1244 C 0.02422 0.42947 0.17106 0.0
C1245 C 0.08469 0.43105 0.21953 0.0
C1246 C 0.93627 0.39968 0.16296 0.0
C1247 C 0.95711 0.40708 0.16768 0.0
C1248 C 0.01106 0.38755 0.18137 0.0
C1249 C 0.05931 0.42454 0.19018 0.0
C1250 C 0.03825 0.41603 0.1825 0.0
C1251 C 0.97488 0.39359 0.1646 0.0
C1252 C 0.99689 0.40114 0.17028 0.0
H1253 H 0.0992 0.459 0.17453 0.0
H1254 H 0.06715 0.44075 0.16029 0.0
H1255 H 0.04208 0.3842 0.19613 0.0
H1256 H 0.9486 0.34906 0.14549 0.0
H1257 H 0.98486 0.36208 0.15357 0.0
C1258 C 0.80706 0.80162 0.46051 0.0
C1259 C 0.79588 0.81995 0.45388 0.0
C1260 C 0.80781 0.78349 0.44721 0.0
C1261 C 0.80834 0.76604 0.3923 0.0
H1262 H 0.79576 0.70991 0.41683 0.0
C1263 C 0.85223 0.6885 0.37156 0.0
C1264 C 0.84112 0.66867 0.37277 0.0
C1265 C 0.84146 0.70774 0.37527 0.0
C1266 C 0.79888 0.72544 0.4095 0.0
H1267 H 0.77698 0.83393 0.42811 0.0
H1268 H 0.77894 0.80222 0.40445 0.0
H1269 H 0.78668 0.74238 0.43688 0.0
H1270 H 0.80958 0.6536 0.37665 0.0
H1271 H 0.79091 0.68727 0.38345 0.0
H1272 H 0.8218 0.74902 0.36549 0.0
C1273 C 0.78679 0.80191 0.42008 0.0
C1274 C 0.79386 0.74398 0.42107 0.0
C1275 C 0.78568 0.81995 0.43359 0.0
C1276 C 0.81869 0.66859 0.37595 0.0
C1277 C 0.80796 0.68784 0.37981 0.0
C1278 C 0.81363 0.74744 0.3808 0.0
C1279 C 0.79769 0.7835 0.42691 0.0
C1280 C 0.79924 0.76436 0.4129 0.0
C1281 C 0.81943 0.7075 0.38034 0.0
C1282 C 0.8096 0.72698 0.38966 0.0
H1283 H 0.81498 0.80117 0.4761 0.0
H1284 H 0.81654 0.76951 0.45266 0.0
H1285 H 0.8126 0.78166 0.38574 0.0
H1286 H 0.86945 0.68911 0.36881 0.0
H1287 H 0.85074 0.72265 0.37571 0.0
C1288 C 0.93381 0.04476 0.23434 0.0
C1289 C 0.92115 0.03793 0.21665 0.0
C1290 C 0.95115 0.059 0.23143 0.0
C1291 C 0.97651 0.09631 0.19195 0.0
H1292 H 0.02981 0.07778 0.21848 0.0
C1293 C 0.07163 0.09837 0.17154 0.0
C1294 C 0.0748 0.12002 0.16565 0.0
C1295 C 0.05264 0.09179 0.18159 0.0
C1296 C 0.01503 0.08322 0.21103 0.0
H1297 H 0.91628 0.0415 0.18217 0.0
H1298 H 0.94669 0.0659 0.17708 0.0
H1299 H 0.99592 0.06055 0.22862 0.0
H1300 H 0.06068 0.15185 0.16624 0.0
H1301 H 0.02743 0.14025 0.18387 0.0
H1302 H 0.99584 0.1181 0.17343 0.0
C1303 C 0.94306 0.06052 0.19325 0.0
C1304 C 0.99558 0.07353 0.21702 0.0
C1305 C 0.92571 0.04633 0.19615 0.0
C1306 C 0.05871 0.13503 0.17048 0.0
C1307 C 0.03965 0.12841 0.18052 0.0
C1308 C 0.99599 0.10599 0.18593 0.0
C1309 C 0.95621 0.0667 0.21078 0.0
C1310 C 0.97618 0.07949 0.20705 0.0
C1311 C 0.03635 0.10667 0.186 0.0
C1312 C 0.01552 0.09904 0.19491 0.0
H1313 H 0.93062 0.03878 0.2504 0.0
H1314 H 0.96083 0.0637 0.24529 0.0
H1315 H 0.96178 0.10148 0.18424 0.0
H1316 H 0.08366 0.08637 0.16807 0.0
H1317 H 0.05045 0.07485 0.18527 0.0
C1318 C 0.26701 0.65883 0.57039 0.0
C1319 C 0.27154 0.65314 0.54896 0.0
C1320 C 0.27861 0.67545 0.58058 0.0
C1321 C 0.29326 0.72119 0.59061 0.0
H1322 H 0.35322 0.7336 0.57779 0.0
C1323 C 0.32932 0.8066 0.5968 0.0
C1324 C 0.35089 0.80927 0.60333 0.0
C1325 C 0.32056 0.786 0.59357 0.0
C1326 C 0.33656 0.73025 0.58186 0.0
H1327 H 0.29228 0.6597 0.52168 0.0
H1328 H 0.31215 0.68893 0.53921 0.0
H1329 H 0.33733 0.69914 0.56691 0.0
H1330 H 0.37999 0.79242 0.6123 0.0
H1331 H 0.36458 0.75646 0.60701 0.0
H1332 H 0.2925 0.75226 0.60565 0.0
C1333 C 0.29992 0.68041 0.54834 0.0
C1334 C 0.32739 0.71059 0.57539 0.0
C1335 C 0.28841 0.66376 0.53821 0.0
C1336 C 0.36339 0.7909 0.60698 0.0
C1337 C 0.35457 0.77029 0.60392 0.0
C1338 C 0.30246 0.7408 0.59721 0.0
C1339 C 0.2949 0.68673 0.5695 0.0
C1340 C 0.30548 0.70609 0.57915 0.0
C1341 C 0.3331 0.7676 0.597 0.0
C1342 C 0.32405 0.7458 0.59237 0.0
H1343 H 0.2542 0.65076 0.57913 0.0
H1344 H 0.27458 0.67971 0.59701 0.0
H1345 H 0.2763 0.71833 0.59367 0.0
H1346 H 0.31927 0.82043 0.59383 0.0
H1347 H 0.30408 0.78454 0.58788 0.0
C1348 C 0.05135 0.52001 0.24585 0.0
C1349 C 0.07132 0.51182 0.25243 0.0
C1350 C 0.0375 0.52921 0.26087 0.0
C1351 C 0.02449 0.53135 0.31852 0.0
H1352 H 0.99626 0.58429 0.30232 0.0
C1353 C 0.95903 0.59834 0.35076 0.0
C1354 C 0.94224 0.58409 0.35648 0.0
C1355 C 0.97832 0.59041 0.3426 0.0
C1356 C 0.0043 0.56973 0.3073 0.0
H1357 H 0.09206 0.50627 0.28012 0.0
H1358 H 0.06781 0.52234 0.30626 0.0
H1359 H 0.02231 0.5683 0.27807 0.0
H1360 H 0.93344 0.55036 0.36041 0.0
H1361 H 0.96691 0.5366 0.34599 0.0
H1362 H 0.00616 0.53269 0.34768 0.0
C1363 C 0.06292 0.52161 0.28948 0.0
C1364 C 0.01897 0.5604 0.29324 0.0
C1365 C 0.07683 0.51249 0.27446 0.0
C1366 C 0.94594 0.56178 0.35587 0.0
C1367 C 0.96522 0.55387 0.34773 0.0
C1368 C 0.00971 0.54067 0.3326 0.0
C1369 C 0.04327 0.53035 0.28279 0.0
C1370 C 0.02887 0.54089 0.29849 0.0
C1371 C 0.9812 0.5681 0.34009 0.0
C1372 C -0.00083 0.55976 0.32695 0.0
H1373 H 0.04654 0.51968 0.22905 0.0
H1374 H 0.02225 0.53547 0.25531 0.0
H1375 H 0.0319 0.5163 0.32298 0.0
H1376 H 0.95684 0.61562 0.35131 0.0
H1377 H 0.99057 0.60175 0.33725 0.0
C1378 C 0.42519 0.47457 0.81173 0.0
C1379 C 0.42554 0.46329 0.79201 0.0
C1380 C 0.43979 0.46966 0.82815 0.0
C1381 C 0.47441 0.42568 0.84659 0.0
H1382 H 0.50607 0.47029 0.87781 0.0
C1383 C 0.56174 0.43248 0.88494 0.0
C1384 C 0.56284 0.41132 0.89281 0.0
C1385 C 0.5418 0.44154 0.88025 0.0
C1386 C 0.49722 0.45765 0.86937 0.0
H1387 H 0.44179 0.43848 0.77379 0.0
H1388 H 0.46742 0.43008 0.80231 0.0
H1389 H 0.47796 0.48031 0.85214 0.0
H1390 H 0.54409 0.38453 0.90539 0.0
H1391 H 0.50926 0.40063 0.89787 0.0
H1392 H 0.4943 0.40305 0.86256 0.0
C1393 C 0.4556 0.44244 0.80524 0.0
C1394 C 0.48106 0.46338 0.85476 0.0
C1395 C 0.44105 0.44737 0.78883 0.0
C1396 C 0.54371 0.40066 0.89882 0.0
C1397 C 0.52377 0.40985 0.89441 0.0
C1398 C 0.4905 0.41996 0.8611 0.0
C1399 C 0.45493 0.45332 0.82517 0.0
C1400 C 0.47005 0.44744 0.84268 0.0
C1401 C 0.52265 0.42969 0.88362 0.0
C1402 C 0.5026 0.43588 0.87217 0.0
H1403 H 0.4134 0.48695 0.81465 0.0
H1404 H 0.43887 0.47827 0.84334 0.0
H1405 H 0.46585 0.41302 0.83786 0.0
H1406 H 0.5762 0.44125 0.88037 0.0
H1407 H 0.54161 0.45689 0.87204 0.0
C1408 C 0.9823 0.77435 0.67992 0.0
C1409 C 0.97881 0.75213 0.67671 0.0
C1410 C 0.97086 0.7855 0.69565 0.0
C1411 C 0.94018 0.77841 0.74555 0.0
H1412 H 0.91551 0.83352 0.73051 0.0
C1413 C 0.8873 0.82275 0.80573 0.0
C1414 C 0.8918 0.84481 0.80866 0.0
C1415 C 0.89527 0.81176 0.78789 0.0
C1416 C 0.92242 0.81824 0.735 0.0
H1417 H 0.96107 0.72404 0.68789 0.0
H1418 H 0.94117 0.74353 0.71556 0.0
H1419 H 0.93581 0.81339 0.70362 0.0
H1420 H 0.90701 0.87302 0.79467 0.0
H1421 H 0.92142 0.8537 0.76355 0.0
H1422 H 0.92731 0.78333 0.777 0.0
C1423 C 0.95276 0.7523 0.70586 0.0
C1424 C 0.93405 0.80672 0.71962 0.0
C1425 C 0.96414 0.74114 0.69001 0.0
C1426 C 0.90322 0.85602 0.79269 0.0
C1427 C 0.91147 0.84493 0.7749 0.0
C1428 C 0.92867 0.78994 0.76094 0.0
C1429 C 0.95577 0.77466 0.7086 0.0
C1430 C 0.94311 0.78672 0.72478 0.0
C1431 C 0.90822 0.8225 0.77273 0.0
C1432 C 0.91966 0.81001 0.75588 0.0
H1433 H 0.99355 0.78328 0.66997 0.0
H1434 H 0.97381 0.80264 0.69765 0.0
H1435 H 0.94722 0.7632 0.75009 0.0
H1436 H 0.87829 0.81379 0.81771 0.0
H1437 H 0.89192 0.79464 0.78639 0.0
C1438 C 0.01754 0.18324 0.44536 0.0
C1439 C 0.00856 0.19563 0.42879 0.0
C1440 C 0.00451 0.16918 0.45737 0.0
C1441 C 0.94831 0.14555 0.45962 0.0
H1442 H 0.95916 0.14645 0.52117 0.0
C1443 C 0.88501 0.14531 0.52719 0.0
C1444 C 0.88913 0.13273 0.54538 0.0
C1445 C 0.89953 0.14547 0.51003 0.0
C1446 C 0.95613 0.14568 0.50396 0.0
H1447 H 0.97892 0.20278 0.41167 0.0
H1448 H 0.9563 0.17938 0.433 0.0
H1449 H 0.986 0.1614 0.49693 0.0
H1450 H 0.9107 0.10977 0.55988 0.0
H1451 H 0.93647 0.11047 0.53007 0.0
H1452 H 0.91747 0.13151 0.46717 0.0
C1453 C 0.97343 0.17967 0.43638 0.0
C1454 C 0.97157 0.15418 0.49 0.0
C1455 C 0.98645 0.19335 0.42421 0.0
C1456 C 0.90717 0.11936 0.54577 0.0
C1457 C 0.92189 0.11981 0.52884 0.0
C1458 C 0.93266 0.1375 0.47367 0.0
C1459 C 0.98218 0.16753 0.4533 0.0
C1460 C 0.96758 0.15491 0.46767 0.0
C1461 C 0.91855 0.13345 0.51119 0.0
C1462 C 0.93624 0.13802 0.49598 0.0
H1463 H 0.03457 0.18449 0.44913 0.0
H1464 H 0.01193 0.15985 0.47003 0.0
H1465 H 0.94491 0.1452 0.44249 0.0
H1466 H 0.87136 0.15601 0.52686 0.0
H1467 H 0.89677 0.1563 0.49669 0.0
C1468 C 0.54318 0.17292 0.17046 0.0
C1469 C 0.54485 0.19435 0.16361 0.0
C1470 C 0.55613 0.16554 0.18717 0.0
C1471 C 0.58862 0.18602 0.23333 0.0
H1472 H 0.59794 0.12478 0.23999 0.0
C1473 C 0.59568 0.14893 0.31654 0.0
C1474 C 0.60637 0.12942 0.31953 0.0
C1475 C 0.59365 0.15763 0.29601 0.0
C1476 C 0.59602 0.14201 0.23837 0.0
H1477 H 0.56205 0.22467 0.16788 0.0
H1478 H 0.5856 0.21156 0.19643 0.0
H1479 H 0.58612 0.13846 0.20557 0.0
H1480 H 0.62423 0.10411 0.30383 0.0
H1481 H 0.62169 0.11982 0.26793 0.0
H1482 H 0.59957 0.18971 0.26577 0.0
C1483 C 0.57367 0.2006 0.18959 0.0
C1484 C 0.58877 0.14984 0.21863 0.0
C1485 C 0.56024 0.20814 0.17321 0.0
C1486 C 0.61557 0.11901 0.30177 0.0
C1487 C 0.61406 0.12803 0.28123 0.0
C1488 C 0.5965 0.17827 0.25285 0.0
C1489 C 0.57152 0.17928 0.19707 0.0
C1490 C 0.58379 0.17177 0.21623 0.0
C1491 C 0.60281 0.14734 0.27803 0.0
C1492 C 0.59912 0.15602 0.25602 0.0
H1493 H 0.53136 0.16199 0.16331 0.0
H1494 H 0.55346 0.14923 0.19274 0.0
H1495 H 0.58516 0.20302 0.23224 0.0
H1496 H 0.5884 0.1572 0.33004 0.0
H1497 H 0.58433 0.17214 0.29428 0.0
C1498 C 0.53329 0.81602 0.9291 0.0
C1499 C 0.5132 0.80611 0.92517 0.0
C1500 C 0.53679 0.82806 0.9478 0.0
C1501 C 0.52075 0.82836 0.0032 0.0
H1502 H 0.5585 0.87864 0.0059 0.0
C1503 C 0.56268 0.85434 0.08229 0.0
C1504 C 0.58497 0.85815 0.08016 0.0
C1505 C 0.54939 0.85306 0.06409 0.0
C1506 C 0.54788 0.86465 0.00542 0.0
H1507 H 0.48069 0.80168 0.93714 0.0
H1508 H 0.48704 0.82246 0.97038 0.0
H1509 H 0.54219 0.86787 0.97153 0.0
H1510 H 0.61065 0.86425 0.05729 0.0
H1511 H 0.5876 0.86152 0.02559 0.0
H1512 H 0.52746 0.82427 0.03672 0.0
C1513 C 0.49996 0.82099 0.95882 0.0
C1514 C 0.53848 0.85857 0.98581 0.0
C1515 C 0.49636 0.80914 0.93987 0.0
C1516 C 0.59358 0.86117 0.05949 0.0
C1517 C 0.58031 0.85987 0.04133 0.0
C1518 C 0.53022 0.83438 0.02281 0.0
C1519 C 0.52034 0.83025 0.96309 0.0
C1520 C 0.52561 0.83983 0.98435 0.0
C1521 C 0.5581 0.8556 0.0434 0.0
C1522 C 0.54464 0.85203 0.02389 0.0
H1523 H 0.5465 0.81405 0.91794 0.0
H1524 H 0.55275 0.83474 0.95079 0.0
H1525 H 0.51101 0.81375 0.00251 0.0
H1526 H 0.55548 0.85224 0.09802 0.0
H1527 H 0.53232 0.84994 0.06621 0.0
C1528 C 0.95178 0.25711 0.80749 0.0
C1529 C 0.952 0.24308 0.82518 0.0
C1530 C 0.94209 0.25062 0.78806 0.0
C1531 C 0.90288 0.21223 0.76462 0.0
H1532 H 0.93955 0.21286 0.71423 0.0
C1533 C 0.88724 0.15645 0.69182 0.0
C1534 C 0.89296 0.16366 0.6712 0.0
C1535 C 0.89207 0.16903 0.70998 0.0
C1536 C 0.92886 0.21295 0.72797 0.0
H1537 H 0.94169 0.21169 0.83679 0.0
H1538 H 0.92455 0.20057 0.80307 0.0
H1539 H 0.95173 0.23073 0.74721 0.0
H1540 H 0.90724 0.19014 0.65329 0.0
H1541 H 0.91515 0.21229 0.68487 0.0
H1542 H 0.88005 0.19432 0.74554 0.0
C1543 C 0.93188 0.21649 0.80415 0.0
C1544 C 0.93588 0.22319 0.74686 0.0
C1545 C 0.94185 0.22279 0.82336 0.0
C1546 C 0.90298 0.18397 0.66903 0.0
C1547 C 0.90756 0.19666 0.68714 0.0
C1548 C 0.89573 0.2022 0.74566 0.0
C1549 C 0.93212 0.23022 0.78626 0.0
C1550 C 0.92321 0.22241 0.76549 0.0
C1551 C 0.90245 0.18922 0.70787 0.0
C1552 C 0.90888 0.20194 0.72727 0.0
H1553 H 0.95951 0.27284 0.80852 0.0
H1554 H 0.94245 0.26147 0.77444 0.0
H1555 H 0.89273 0.21163 0.77877 0.0
H1556 H 0.87947 0.14087 0.69398 0.0
H1557 H 0.88819 0.16263 0.72572 0.0
C1558 C 0.56801 0.19294 0.60188 0.0
C1559 C 0.54738 0.20174 0.59925 0.0
C1560 C 0.57615 0.17864 0.58663 0.0
C1561 C 0.56073 0.14298 0.5412 0.0
H1562 H 0.61684 0.15883 0.51857 0.0
C1563 C 0.58573 0.12532 0.45466 0.0
C1564 C 0.60752 0.12205 0.44972 0.0
C1565 C 0.57949 0.12963 0.47576 0.0
C1566 C 0.6014 0.15376 0.525 0.0
H1567 H 0.51889 0.20184 0.5788 0.0
H1568 H 0.53322 0.17703 0.55209 0.0
H1569 H 0.60361 0.17671 0.55074 0.0
H1570 H 0.63965 0.11926 0.46328 0.0
H1571 H 0.62866 0.12666 0.50029 0.0
H1572 H 0.55827 0.12045 0.51505 0.0
C1573 C 0.54299 0.18109 0.56609 0.0
C1574 C 0.59379 0.16407 0.54341 0.0
C1575 C 0.53488 0.19549 0.58128 0.0
C1576 C 0.62278 0.12206 0.46653 0.0
C1577 C 0.6165 0.1263 0.48771 0.0
C1578 C 0.5684 0.13255 0.52284 0.0
C1579 C 0.56379 0.17274 0.5685 0.0
C1580 C 0.57309 0.1593 0.55123 0.0
C1581 C 0.59485 0.13063 0.49245 0.0
C1582 C 0.58849 0.1384 0.5141 0.0
H1583 H 0.57805 0.19727 0.61561 0.0
H1584 H 0.59218 0.17233 0.58892 0.0
H1585 H 0.54487 0.13873 0.54717 0.0
H1586 H 0.57351 0.12525 0.44213 0.0
H1587 H 0.56273 0.13317 0.47877 0.0
C1588 C 0.5389 0.73018 0.30394 0.0
C1589 C 0.52551 0.74161 0.31803 0.0
C1590 C 0.55451 0.74107 0.29179 0.0
C1591 C 0.58406 0.79362 0.28847 0.0
H1592 H 0.59053 0.77785 0.22838 0.0
C1593 C 0.61087 0.85126 0.22118 0.0
C1594 C 0.62147 0.84255 0.20326 0.0
C1595 C 0.60527 0.83807 0.23853 0.0
C1596 C 0.58932 0.7822 0.24526 0.0
H1597 H 0.51763 0.77349 0.32999 0.0
H1598 H 0.54423 0.79241 0.30843 0.0
H1599 H 0.5677 0.75592 0.25142 0.0
H1600 H 0.6371 0.81408 0.19066 0.0
H1601 H 0.6275 0.79118 0.22101 0.0
H1602 H 0.60492 0.82059 0.28186 0.0
C1603 C 0.54323 0.775 0.30722 0.0
C1604 C 0.57618 0.76961 0.25848 0.0
C1605 C 0.5278 0.76414 0.31943 0.0
C1606 C 0.62854 0.82113 0.20409 0.0
C1607 C 0.623 0.80799 0.22142 0.0
C1608 C 0.59711 0.80632 0.27518 0.0
C1609 C 0.55691 0.76361 0.29338 0.0
C1610 C 0.57295 0.77547 0.2801 0.0
C1611 C 0.61028 0.81602 0.23822 0.0
C1612 C 0.59949 0.80099 0.25332 0.0
H1613 H 0.53766 0.71279 0.30261 0.0
H1614 H 0.56487 0.7318 0.28136 0.0
H1615 H 0.5823 0.7983 0.3052 0.0
H1616 H 0.60528 0.86773 0.22103 0.0
H1617 H 0.59546 0.84472 0.25126 0.0
C1618 C -0.00025 0.80465 0.07419 0.0
C1619 C 0.99271 0.78425 0.08107 0.0
C1620 C 0.98893 0.81525 0.05764 0.0
C1621 C 0.97121 0.82985 0.01493 0.0
H1622 H 0.90991 0.82029 0.00655 0.0
C1623 C 0.92882 0.85177 0.93586 0.0
C1624 C 0.90689 0.85709 0.93591 0.0
C1625 C 0.93913 0.84554 0.95479 0.0
C1626 C 0.92695 0.82352 0.00883 0.0
H1627 H 0.96919 0.75865 0.07582 0.0
H1628 H 0.95096 0.77653 0.04613 0.0
H1629 H 0.92782 0.80435 0.0373 0.0
H1630 H 0.87887 0.86128 0.95614 0.0
H1631 H 0.89711 0.85126 0.98951 0.0
H1632 H 0.97019 0.84979 0.98702 0.0
C1633 C 0.9643 0.78483 0.054 0.0
C1634 C 0.93736 0.81397 0.0263 0.0
C1635 C 0.97487 0.77444 0.07088 0.0
C1636 C 0.89574 0.85707 0.95556 0.0
C1637 C 0.90618 0.85115 0.97464 0.0
C1638 C 0.96075 0.83971 -0.00229 0.0
C1639 C 0.97106 0.80548 0.04726 0.0
C1640 C 0.95972 0.81666 0.02936 0.0
C1641 C 0.92789 0.84483 0.97441 0.0
C1642 C 0.93856 0.83631 0.99413 0.0
H1643 H 0.01332 0.81271 0.08196 0.0
H1644 H 0.99441 0.83127 0.05327 0.0
H1645 H 0.98846 0.8322 0.01654 0.0
H1646 H 0.9379 0.8515 0.92099 0.0
H1647 H 0.95571 0.84045 0.95378 0.0
C1648 C 0.67777 0.97967 0.79418 0.0
C1649 C 0.67706 0.98167 0.77165 0.0
C1650 C 0.69276 0.96622 0.80396 0.0
C1651 C 0.72762 0.91969 0.79227 0.0
H1652 H 0.75631 0.93712 0.84531 0.0
C1653 C 0.80562 0.88206 0.82501 0.0
C1654 C 0.80853 0.88094 0.84746 0.0
C1655 C 0.78694 0.8909 0.81633 0.0
C1656 C 0.74813 0.93182 0.83072 0.0
H1657 H 0.69195 0.97174 0.74172 0.0
H1658 H 0.71849 0.94867 0.75882 0.0
H1659 H 0.73014 0.9609 0.82886 0.0
H1660 H 0.7932 0.88636 0.87836 0.0
H1661 H 0.76055 0.90171 0.86314 0.0
H1662 H 0.74617 0.89084 0.7939 0.0
C1663 C 0.70712 0.95708 0.76891 0.0
C1664 C 0.73317 0.94549 0.82125 0.0
C1665 C 0.69207 0.97048 0.75912 0.0
C1666 C 0.79156 0.88713 0.861 0.0
C1667 C 0.77292 0.89609 0.8523 0.0
C1668 C 0.74268 0.90604 0.80171 0.0
C1669 C 0.70743 0.95455 0.79143 0.0
C1670 C 0.7229 0.9397 0.80179 0.0
C1671 C 0.77082 0.89884 0.82993 0.0
C1672 C 0.75323 0.91207 0.82094 0.0
H1673 H 0.66634 0.988 0.80427 0.0
H1674 H 0.69242 0.96451 0.82132 0.0
H1675 H 0.71966 0.91454 0.77751 0.0
H1676 H 0.8183 0.87724 0.81413 0.0
H1677 H 0.7858 0.89282 0.79902 0.0
C1678 C 0.83271 0.9264 0.48839 0.0
C1679 C 0.83199 0.90876 0.50245 0.0
C1680 C 0.84099 0.94624 0.49552 0.0
C1681 C 0.87131 0.97481 0.53834 0.0
H1682 H 0.82444 0.01543 0.53603 0.0
C1683 C 0.8668 0.048 0.59595 0.0
C1684 C 0.85674 0.06669 0.58854 0.0
C1685 C 0.86682 0.02936 0.58318 0.0
C1686 C 0.83798 0.00463 0.53646 0.0
H1687 H 0.84122 0.89721 0.53404 0.0
H1688 H 0.85604 0.93179 0.54635 0.0
H1689 H 0.82169 0.98197 0.51586 0.0
H1690 H 0.83978 0.08098 0.56163 0.0
H1691 H 0.84058 0.04899 0.53911 0.0
H1692 H 0.88765 0.99748 0.55899 0.0
C1693 C 0.85007 0.93038 0.52996 0.0
C1694 C 0.83636 0.9854 0.52486 0.0
C1695 C 0.84147 0.91066 0.52297 0.0
C1696 C 0.84719 0.06662 0.56799 0.0
C1697 C 0.84764 0.04822 0.55507 0.0
C1698 C 0.87314 0.99429 0.54968 0.0
C1699 C 0.849 0.94854 0.51664 0.0
C1700 C 0.85278 0.97015 0.52604 0.0
C1701 C 0.85719 0.02924 0.56257 0.0
C1702 C 0.85627 0.00925 0.54924 0.0
H1703 H 0.82551 0.92532 0.47247 0.0
H1704 H 0.84009 0.96006 0.48497 0.0
H1705 H 0.88416 0.96322 0.53948 0.0
H1706 H 0.87441 0.04771 0.6117 0.0
H1707 H 0.87405 0.01497 0.58966 0.0
C1708 C 0.8235 0.02708 0.27068 0.0
C1709 C 0.82249 0.02255 0.24846 0.0
C1710 C 0.80658 0.03736 0.28099 0.0
C1711 C 0.74864 0.0465 0.27648 0.0
H1712 H 0.75993 0.08825 0.32207 0.0
C1713 C 0.67982 0.0857 0.32346 0.0
C1714 C 0.68208 0.08602 0.34604 0.0
C1715 C 0.69727 0.08084 0.31034 0.0
C1716 C 0.75655 0.07654 0.30945 0.0
H1717 H 0.80288 0.02556 0.2196 0.0
H1718 H 0.77321 0.04367 0.23772 0.0
H1719 H 0.78977 0.07462 0.30069 0.0
H1720 H 0.70469 0.08232 0.37248 0.0
H1721 H 0.73522 0.07355 0.34948 0.0
H1722 H 0.71549 0.0481 0.28546 0.0
C1723 C 0.78714 0.03906 0.24712 0.0
C1724 C 0.77361 0.06875 0.2972 0.0
C1725 C 0.80416 0.02875 0.23674 0.0
C1726 C 0.70242 0.08215 0.35516 0.0
C1727 C 0.71992 0.07724 0.34198 0.0
C1728 C 0.73159 0.05431 0.2887 0.0
C1729 C 0.78818 0.04341 0.26938 0.0
C1730 C 0.76988 0.05336 0.28084 0.0
C1731 C 0.71741 0.07618 0.31944 0.0
C1732 C 0.7354 0.06916 0.30554 0.0
H1733 H 0.83732 0.02252 0.28028 0.0
H1734 H 0.80772 0.0401 0.29821 0.0
H1735 H 0.74527 0.03444 0.26418 0.0
H1736 H 0.66445 0.08893 0.31587 0.0
H1737 H 0.69494 0.08055 0.29302 0.0
C1738 C 0.64791 0.09329 0.05293 0.0
C1739 C 0.66232 0.08742 0.03651 0.0
C1740 C 0.63261 0.07856 0.06048 0.0
C1741 C 0.60785 0.02449 0.05222 0.0
H1742 H 0.6228 0.01671 0.1124 0.0
C1743 C 0.61484 0.94188 0.08959 0.0
C1744 C 0.61382 0.93909 0.11201 0.0
C1745 C 0.61149 0.96204 0.08051 0.0
C1746 C 0.61771 0.0188 0.09584 0.0
H1747 H 0.67033 0.0623 0.01357 0.0
H1748 H 0.64369 0.03648 0.02694 0.0
H1749 H 0.63296 0.04977 0.09452 0.0
H1750 H 0.60651 0.95477 0.14235 0.0
H1751 H 0.60009 0.99005 0.12643 0.0
H1752 H 0.59315 0.99316 0.05341 0.0
C1753 C 0.64426 0.05251 0.03393 0.0
C1754 C 0.62364 0.03785 0.08553 0.0
C1755 C 0.65966 0.06725 0.02639 0.0
C1756 C 0.60789 0.95658 0.12506 0.0
C1757 C 0.60421 0.97677 0.11591 0.0
C1758 C 0.60156 0.00553 0.06265 0.0
C1759 C 0.63131 0.05772 0.0517 0.0
C1760 C 0.61977 0.04039 0.06337 0.0
C1761 C 0.60671 0.97992 0.09359 0.0
C1762 C 0.60756 0.00195 0.08426 0.0
H1763 H 0.64917 0.10889 0.0608 0.0
H1764 H 0.62263 0.08304 0.07402 0.0
H1765 H 0.60439 0.02625 0.0352 0.0
H1766 H 0.61919 0.9287 0.07902 0.0
H1767 H 0.61393 0.96376 0.06334 0.0
C1768 C 0.67831 0.0688 0.74113 0.0
C1769 C 0.66143 0.06827 0.72592 0.0
C1770 C 0.69632 0.08215 0.73799 0.0
C1771 C 0.71981 0.12488 0.70251 0.0
H1772 H 0.77028 0.08889 0.70556 0.0
C1773 C 0.79112 0.13205 0.64413 0.0
C1774 C 0.81157 0.12538 0.65096 0.0
C1775 C 0.77361 0.13101 0.65821 0.0
C1776 C 0.75659 0.09952 0.70504 0.0
H1777 H 0.64931 0.083 0.69665 0.0
H1778 H 0.68081 0.10574 0.69096 0.0
H1779 H 0.73738 0.07716 0.72274 0.0
H1780 H 0.83023 0.11444 0.67834 0.0
H1781 H 0.79989 0.11315 0.703 0.0
H1782 H 0.73901 0.14678 0.68385 0.0
C1783 C 0.68015 0.09601 0.70539 0.0
C1784 C 0.73762 0.09276 0.71498 0.0
C1785 C 0.66213 0.08275 0.70856 0.0
C1786 C 0.81451 0.11914 0.67248 0.0
C1787 C 0.79713 0.11842 0.68661 0.0
C1788 C 0.73889 0.13171 0.69257 0.0
C1789 C 0.69784 0.09517 0.71956 0.0
C1790 C 0.7188 0.10495 0.71318 0.0
C1791 C 0.77632 0.12358 0.67945 0.0
C1792 C 0.75727 0.1187 0.69309 0.0
H1793 H 0.67815 0.05815 0.75491 0.0
H1794 H 0.70953 0.08147 0.74943 0.0
H1795 H 0.70563 0.13478 0.70112 0.0
H1796 H 0.78843 0.13711 0.62766 0.0
H1797 H 0.75779 0.13495 0.65207 0.0
C1798 C 0.7426 0.92121 0.47287 0.0
C1799 C 0.7494 0.92309 0.49446 0.0
C1800 C 0.7265 0.93442 0.46478 0.0
C1801 C 0.70005 0.98616 0.47469 0.0
H1802 H 0.65913 0.96421 0.43217 0.0
C1803 C 0.63974 0.04266 0.43641 0.0
C1804 C 0.64025 0.04266 0.41377 0.0
C1805 C 0.64831 0.02556 0.44796 0.0
C1806 C 0.67043 0.97053 0.44405 0.0
H1807 H 0.74449 0.9403 0.52452 0.0
H1808 H 0.71613 0.96326 0.51043 0.0
H1809 H 0.68403 0.93952 0.44966 0.0
H1810 H 0.6483 0.02393 0.38542 0.0
H1811 H 0.66358 0.99403 0.40565 0.0
H1812 H 0.6868 0.01717 0.46886 0.0
C1813 C 0.72349 0.95171 0.49969 0.0
C1814 C 0.68474 0.95644 0.45401 0.0
C1815 C 0.73975 0.93856 0.50777 0.0
C1816 C 0.64774 0.02436 0.40286 0.0
C1817 C 0.65645 0.00724 0.41446 0.0
C1818 C 0.68569 0.00018 0.46485 0.0
C1819 C 0.71667 0.94976 0.47809 0.0
C1820 C 0.70002 0.9642 0.46911 0.0
C1821 C 0.65767 0.00816 0.4371 0.0
C1822 C 0.67099 0.99259 0.44916 0.0
H1823 H 0.74979 0.90957 0.4621 0.0
H1824 H 0.72201 0.93281 0.44795 0.0
H1825 H 0.71178 0.99275 0.48599 0.0
H1826 H 0.6337 0.05641 0.44525 0.0
H1827 H 0.64858 0.02646 0.4654 0.0
C1828 C 0.84758 0.94709 0.19871 0.0
C1829 C 0.84865 0.9475 0.22132 0.0
C1830 C 0.8305 0.93655 0.18818 0.0
C1831 C 0.78357 0.8996 0.19643 0.0
H1832 H 0.75659 0.93571 0.15346 0.0
C1833 C 0.69322 0.89542 0.17686 0.0
C1834 C 0.68657 0.89748 0.15529 0.0
C1835 C 0.71486 0.89809 0.18251 0.0
C1836 C 0.7641 0.92521 0.16512 0.0
H1837 H 0.83354 0.93612 0.25064 0.0
H1838 H 0.80351 0.91812 0.23234 0.0
H1839 H 0.79202 0.94555 0.16751 0.0
H1840 H 0.69751 0.90364 0.12268 0.0
H1841 H 0.73536 0.9085 0.13267 0.0
H1842 H 0.75511 0.87977 0.19461 0.0
C1843 C 0.81594 0.92568 0.22267 0.0
C1844 C 0.78445 0.93081 0.17314 0.0
C1845 C 0.83307 0.93613 0.23319 0.0
C1846 C 0.70208 0.90211 0.13947 0.0
C1847 C 0.72374 0.90489 0.14516 0.0
C1848 C 0.76316 0.89404 0.18845 0.0
C1849 C 0.81414 0.92631 0.20008 0.0
C1850 C 0.79417 0.91838 0.18929 0.0
C1851 C 0.73033 0.90294 0.16675 0.0
C1852 C 0.75301 0.90712 0.17313 0.0
H1853 H 0.85954 0.9555 0.18914 0.0
H1854 H 0.82977 0.93698 0.17074 0.0
H1855 H 0.79082 0.8895 0.20859 0.0
H1856 H 0.68171 0.89174 0.18942 0.0
H1857 H 0.71942 0.89683 0.19933 0.0
C1858 C 0.7545 0.04279 0.99515 0.0
C1859 C 0.74252 0.05716 0.98258 0.0
C1860 C 0.76656 0.02661 0.98537 0.0
C1861 C 0.79379 0.01487 0.93434 0.0
H1862 H 0.79818 0.95705 0.95716 0.0
C1863 C 0.83712 0.94591 0.88961 0.0
C1864 C 0.84796 0.93052 0.90203 0.0
C1865 C 0.8253 0.96216 0.89958 0.0
C1866 C 0.7974 0.97323 0.95077 0.0
H1867 H 0.7329 0.06513 0.94995 0.0
H1868 H 0.75383 0.03679 0.9329 0.0
H1869 H 0.77396 0.98261 0.97413 0.0
H1870 H 0.85611 0.92107 0.93466 0.0
H1871 H 0.83591 0.94968 0.95201 0.0
H1872 H 0.81732 0.00557 0.91108 0.0
C1873 C 0.75416 0.03826 0.9503 0.0
C1874 C 0.78343 0.98784 0.96045 0.0
C1875 C 0.74202 0.05436 0.96009 0.0
C1876 C 0.84776 0.93252 0.92461 0.0
C1877 C 0.83603 0.94882 0.93457 0.0
C1878 C 0.80782 0.00029 0.92471 0.0
C1879 C 0.76695 0.02453 0.9628 0.0
C1880 C 0.78143 0.0088 0.95231 0.0
C1881 C 0.82416 0.96346 0.92219 0.0
C1882 C 0.80979 0.97928 0.93279 0.0
H1883 H 0.75522 0.04453 0.01252 0.0
H1884 H 0.7763 0.01633 0.99544 0.0
H1885 H 0.7929 0.03104 0.92794 0.0
H1886 H 0.83686 0.9448 0.87218 0.0
H1887 H 0.81626 0.97308 0.88955 0.0
C1888 C 0.76595 0.68631 0.9609 0.0
C1889 C 0.77582 0.67079 0.97395 0.0
C1890 C 0.77776 0.69726 0.94523 0.0
C1891 C 0.83256 0.71552 0.93502 0.0
H1892 H 0.80733 0.73582 0.88167 0.0
C1893 C 0.871 0.78639 0.89003 0.0
C1894 C 0.85617 0.80288 0.88613 0.0
C1895 C 0.86374 0.76552 0.89478 0.0
C1896 C 0.81467 0.73017 0.89644 0.0
H1897 H 0.80568 0.65394 0.98003 0.0
H1898 H 0.82631 0.67323 0.95268 0.0
H1899 H 0.78934 0.70704 0.90174 0.0
H1900 H 0.82221 0.81 0.88241 0.0
H1901 H 0.80963 0.77391 0.89099 0.0
H1902 H 0.8572 0.73937 0.93046 0.0
C1903 C 0.80944 0.67696 0.95474 0.0
C1904 C 0.80437 0.71373 0.90792 0.0
C1905 C 0.7976 0.66593 0.97041 0.0
C1906 C 0.83406 0.79774 0.88562 0.0
C1907 C 0.82684 0.77694 0.89029 0.0
C1908 C 0.84282 0.73196 0.92357 0.0
C1909 C 0.79973 0.69299 0.94224 0.0
C1910 C 0.81275 0.70688 0.92778 0.0
C1911 C 0.84155 0.76075 0.89559 0.0
C1912 C 0.8335 0.7401 0.90465 0.0
H1913 H 0.74918 0.69039 0.96307 0.0
H1914 H 0.76987 0.70975 0.93609 0.0
H1915 H 0.83936 0.7107 0.95034 0.0
H1916 H 0.88816 0.78977 0.89029 0.0
H1917 H 0.87546 0.7533 0.89854 0.0
C1918 C 0.23553 0.82279 0.04689 0.0
C1919 C 0.2445 0.83872 0.03356 0.0
C1920 C 0.24889 0.80996 0.05955 0.0
C1921 C 0.30435 0.79041 0.0631 0.0
H1922 H 0.28789 0.7751 0.12132 0.0
C1923 C 0.35246 0.72796 0.10912 0.0
C1924 C 0.33906 0.71087 0.11573 0.0
C1925 C 0.34356 0.74792 0.10406 0.0
C1926 C 0.29276 0.77938 0.10514 0.0
H1927 H 0.27444 0.85356 0.0228 0.0
H1928 H 0.29758 0.83126 0.04482 0.0
H1929 H 0.26622 0.80071 0.10106 0.0
H1930 H 0.30646 0.70175 0.12466 0.0
H1931 H 0.29099 0.7363 0.11579 0.0
H1932 H 0.33035 0.76852 0.06675 0.0
C1933 C 0.28032 0.82857 0.04546 0.0
C1934 C 0.28029 0.79389 0.09351 0.0
C1935 C 0.26702 0.84135 0.03286 0.0
C1936 C 0.31709 0.7146 0.11923 0.0
C1937 C 0.30826 0.73449 0.11437 0.0
C1938 C 0.31679 0.77592 0.0747 0.0
C1939 C 0.27141 0.81284 0.05904 0.0
C1940 C 0.28564 0.79908 0.07217 0.0
C1941 C 0.32121 0.75103 0.10578 0.0
C1942 C 0.31077 0.76976 0.0956 0.0
H1943 H 0.21824 0.82045 0.04779 0.0
H1944 H 0.2416 0.79768 0.06961 0.0
H1945 H 0.30882 0.79398 0.04664 0.0
H1946 H 0.36949 0.72552 0.10645 0.0
H1947 H 0.35394 0.76052 0.09774 0.0
C1948 C 0.91706 0.52161 0.82225 0.0
C1949 C 0.9049 0.53958 0.8162 0.0
C1950 C 0.93458 0.524 0.83632 0.0
C1951 C 0.96406 0.56346 0.87189 0.0
H1952 H 0.01435 0.53674 0.84703 0.0
C1953 C 0.04868 0.60129 0.87447 0.0
C1954 C 0.0668 0.58795 0.875 0.0
C1955 C 0.02793 0.59236 0.87403 0.0
C1956 C 0.00049 0.54396 0.85459 0.0
H1957 H 0.90062 0.57386 0.82155 0.0
H1958 H 0.93143 0.57813 0.84548 0.0
H1959 H 0.97878 0.52601 0.83447 0.0
H1960 H 0.07727 0.55476 0.87702 0.0
H1961 H 0.04096 0.53919 0.87619 0.0
H1962 H 0.98611 0.5823 0.89115 0.0
C1963 C 0.92732 0.56211 0.83966 0.0
C1964 C 0.98 0.53777 0.84739 0.0
C1965 C 0.9097 0.55969 0.82574 0.0
C1966 C 0.06367 0.5655 0.87629 0.0
C1967 C 0.04288 0.55657 0.87582 0.0
C1968 C 0.98462 0.56972 0.87904 0.0
C1969 C 0.94044 0.54444 0.84448 0.0
C1970 C 0.96157 0.54798 0.85539 0.0
C1971 C 0.02481 0.56989 0.87414 0.0
C1972 C 0.00306 0.56055 0.8699 0.0
H1973 H 0.91356 0.5058 0.81551 0.0
H1974 H 0.94407 0.50998 0.84009 0.0
H1975 H 0.95016 0.57134 0.87868 0.0
H1976 H 0.05051 0.61866 0.87368 0.0
H1977 H 0.01437 0.60308 0.8725 0.0
C1978 C 0.27138 0.21051 0.56528 0.0
C1979 C 0.25685 0.19429 0.55847 0.0
C1980 C 0.26422 0.22754 0.57825 0.0
C1981 C 0.21954 0.24358 0.61388 0.0
H1982 H 0.22557 0.30018 0.5883 0.0
C1983 C 0.15445 0.30744 0.62039 0.0
C1984 C 0.16038 0.32933 0.62143 0.0
C1985 C 0.17014 0.29169 0.61801 0.0
C1986 C 0.2241 0.28461 0.59602 0.0
H1987 H 0.22385 0.18252 0.56058 0.0
H1988 H 0.21157 0.21179 0.58317 0.0
H1989 H 0.2476 0.27066 0.57517 0.0
H1990 H 0.18758 0.35179 0.62178 0.0
H1991 H 0.21485 0.32425 0.61759 0.0
H1992 H 0.19531 0.25721 0.63401 0.0
C1993 C 0.22839 0.21154 0.5786 0.0
C1994 C 0.23678 0.26774 0.58852 0.0
C1995 C 0.23539 0.1949 0.56542 0.0
C1996 C 0.1824 0.33507 0.62072 0.0
C1997 C 0.19807 0.31932 0.61833 0.0
C1998 C 0.20692 0.26043 0.62141 0.0
C1999 C 0.24261 0.22817 0.58494 0.0
C2000 C 0.23387 0.24687 0.59671 0.0
C2001 C 0.19209 0.29748 0.61668 0.0
C2002 C 0.20837 0.28087 0.61187 0.0
H2003 H 0.28803 0.21033 0.56014 0.0
H2004 H 0.27544 0.24028 0.58288 0.0
H2005 H 0.21724 0.22765 0.62066 0.0
H2006 H 0.13766 0.30248 0.621 0.0
H2007 H 0.16498 0.275 0.61646 0.0
C2008 C 0.059 0.9804 0.76301 0.0
C2009 C 0.05637 0.00218 0.75754 0.0
C2010 C 0.04521 0.97043 0.77771 0.0
C2011 C 0.99104 0.97524 0.80093 0.0
H2012 H 0.01162 0.93177 0.84048 0.0
C2013 C 0.93245 0.93081 0.85643 0.0
C2014 C 0.93369 0.90821 0.85551 0.0
C2015 C 0.94917 0.94369 0.8485 0.0
C2016 C 0.00567 0.94386 0.8295 0.0
H2017 H 0.03736 0.03066 0.76364 0.0
H2018 H 0.01345 0.0133 0.78952 0.0
H2019 H 0.03738 0.95203 0.81854 0.0
H2020 H 0.95417 0.88144 0.84701 0.0
H2021 H 0.98335 0.90398 0.83298 0.0
H2022 H 0.95936 0.9669 0.81158 0.0
C2023 C 0.026 0.00385 0.78214 0.0
C2024 C 0.02038 0.95542 0.8169 0.0
C2025 C 0.03974 0.01381 0.76733 0.0
C2026 C 0.95268 0.89879 0.84788 0.0
C2027 C 0.96944 0.91172 0.83991 0.0
C2028 C 0.97638 0.96378 0.81358 0.0
C2029 C 0.0285 0.982 0.78741 0.0
C2030 C 0.01319 0.97099 0.80219 0.0
C2031 C 0.96752 0.93427 0.83947 0.0
C2032 C 0.98348 0.94775 0.82777 0.0
H2033 H 0.0716 0.97091 0.75575 0.0
H2034 H 0.04737 0.95348 0.7811 0.0
H2035 H 0.98489 0.98685 0.78955 0.0
H2036 H 0.91818 0.9386 0.86253 0.0
H2037 H 0.94744 0.96104 0.8488 0.0
C2038 C 0.68081 0.32756 0.43656 0.0
C2039 C 0.69853 0.33242 0.45001 0.0
C2040 C 0.68047 0.30881 0.42399 0.0
C2041 C 0.70299 0.25455 0.42465 0.0
H2042 H 0.67057 0.24854 0.37133 0.0
C2043 C 0.64456 0.18769 0.38536 0.0
C2044 C 0.65673 0.16895 0.38808 0.0
C2045 C 0.65427 0.20801 0.38724 0.0
C2046 C 0.67981 0.25 0.38614 0.0
H2047 H 0.73048 0.32213 0.45956 0.0
H2048 H 0.72998 0.28962 0.43739 0.0
H2049 H 0.67979 0.28448 0.38509 0.0
H2050 H 0.68892 0.15684 0.39357 0.0
H2051 H 0.70587 0.19251 0.39713 0.0
H2052 H 0.70235 0.22014 0.42614 0.0
C2053 C 0.71613 0.30005 0.43696 0.0
C2054 C 0.68502 0.27055 0.39406 0.0
C2055 C 0.71642 0.31873 0.44964 0.0
C2056 C 0.67907 0.17097 0.39155 0.0
C2057 C 0.68877 0.19137 0.39363 0.0
C2058 C 0.69788 0.23402 0.41668 0.0
C2059 C 0.6979 0.29455 0.42446 0.0
C2060 C 0.69596 0.27306 0.41384 0.0
C2061 C 0.67635 0.21008 0.39201 0.0
C2062 C 0.68554 0.23154 0.39777 0.0
H2063 H 0.66678 0.33775 0.43637 0.0
H2064 H 0.66604 0.30499 0.41478 0.0
H2065 H 0.71123 0.25581 0.44004 0.0
H2066 H 0.62735 0.18668 0.38243 0.0
H2067 H 0.64421 0.2221 0.38611 0.0
C2068 C 0.91608 0.45463 0.74443 0.0
C2069 C 0.91688 0.47669 0.73936 0.0
C2070 C 0.92909 0.44003 0.73347 0.0
C2071 C 0.9574 0.43362 0.68225 0.0
H2072 H 0.99499 0.39478 0.71294 0.0
C2073 C 0.03873 0.40866 0.65108 0.0
C2074 C 0.04741 0.38865 0.65653 0.0
C2075 C 0.01828 0.41424 0.65805 0.0
C2076 C 0.98416 0.40505 0.70405 0.0
H2077 H 0.93233 0.50088 0.71936 0.0
H2078 H 0.95503 0.47542 0.70029 0.0
H2079 H 0.96829 0.41535 0.73284 0.0
H2080 H 0.04103 0.35808 0.67218 0.0
H2081 H 0.00504 0.36801 0.6847 0.0
H2082 H 0.97373 0.42399 0.65358 0.0
C2083 C 0.94417 0.4694 0.71254 0.0
C2084 C 0.96899 0.41692 0.71548 0.0
C2085 C 0.93136 0.48399 0.72363 0.0
C2086 C 0.03468 0.37365 0.66782 0.0
C2087 C 0.01419 0.37936 0.67505 0.0
C2088 C 0.97243 0.42168 0.67082 0.0
C2089 C 0.94288 0.44726 0.7171 0.0
C2090 C 0.95616 0.43199 0.70477 0.0
C2091 C 0.0061 0.39997 0.67077 0.0
C2092 C 0.98663 0.40802 0.68174 0.0
H2093 H 0.90504 0.44856 0.75651 0.0
H2094 H 0.92791 0.42305 0.73733 0.0
H2095 H 0.9473 0.44479 0.67358 0.0
H2096 H 0.04815 0.42043 0.64219 0.0
H2097 H 0.01265 0.43033 0.65465 0.0
C2098 C 0.55138 0.50443 0.17147 0.0
C2099 C 0.56841 0.51815 0.17795 0.0
C2100 C 0.53304 0.5129 0.16163 0.0
C2101 C 0.5113 0.5626 0.13657 0.0
H2102 H 0.45773 0.54396 0.1629 0.0
C2103 C 0.4363 0.61591 0.14144 0.0
C2104 C 0.41598 0.60606 0.1385 0.0
C2105 C 0.45487 0.60344 0.14207 0.0
C2106 C 0.47248 0.54911 0.15509 0.0
H2107 H 0.58019 0.55124 0.17817 0.0
H2108 H 0.54825 0.56597 0.16143 0.0
H2109 H 0.49064 0.52444 0.17039 0.0
H2110 H 0.39931 0.57542 0.13327 0.0
H2111 H 0.43169 0.5538 0.13449 0.0
H2112 H 0.49317 0.58785 0.12201 0.0
C2113 C 0.54901 0.5487 0.16367 0.0
C2114 C 0.49134 0.53787 0.15931 0.0
C2115 C 0.56725 0.54027 0.17348 0.0
C2116 C 0.41468 0.58354 0.13582 0.0
C2117 C 0.43322 0.57111 0.13651 0.0
C2118 C 0.49244 0.5739 0.13243 0.0
C2119 C 0.53149 0.5352 0.15806 0.0
C2120 C 0.51107 0.54484 0.15058 0.0
C2121 C 0.45348 0.5809 0.13981 0.0
C2122 C 0.47296 0.56759 0.14209 0.0
H2123 H 0.55194 0.48728 0.17459 0.0
H2124 H 0.51988 0.50207 0.15726 0.0
H2125 H 0.5262 0.56812 0.1293 0.0
H2126 H 0.43786 0.63321 0.14342 0.0
H2127 H 0.47028 0.6114 0.14488 0.0
C2128 C 0.58136 0.72813 0.85004 0.0
C2129 C 0.56167 0.73859 0.84666 0.0
C2130 C 0.59296 0.7201 0.83259 0.0
C2131 C 0.60398 0.72824 0.77646 0.0
H2132 H 0.61051 0.66645 0.77068 0.0
C2133 C 0.61705 0.68744 0.69483 0.0
C2134 C 0.62654 0.66706 0.69386 0.0
C2135 C 0.61436 0.69779 0.71462 0.0
C2136 C 0.60946 0.68379 0.77219 0.0
H2137 H 0.53882 0.74912 0.82247 0.0
H2138 H 0.55946 0.73551 0.79191 0.0
H2139 H 0.59552 0.68133 0.80365 0.0
H2140 H 0.64252 0.64241 0.71241 0.0
H2141 H 0.63878 0.66094 0.74692 0.0
H2142 H 0.61802 0.73095 0.74522 0.0
C2143 C 0.5657 0.73339 0.80809 0.0
C2144 C 0.6007 0.69223 0.79105 0.0
C2145 C 0.55385 0.74097 0.82554 0.0
C2146 C 0.63481 0.65798 0.71279 0.0
C2147 C 0.63252 0.66854 0.73256 0.0
C2148 C 0.61319 0.71987 0.75778 0.0
C2149 C 0.58531 0.72292 0.81151 0.0
C2150 C 0.5973 0.71442 0.793 0.0
C2151 C 0.62149 0.68818 0.73384 0.0
C2152 C 0.61536 0.69746 0.75508 0.0
H2153 H 0.58772 0.72607 0.86618 0.0
H2154 H 0.60803 0.71195 0.83549 0.0
H2155 H 0.60167 0.74548 0.77784 0.0
H2156 H 0.61048 0.69482 0.68049 0.0
H2157 H 0.60554 0.71273 0.71487 0.0
C2158 C 0.55571 0.26797 0.08561 0.0
C2159 C 0.54675 0.24899 0.07665 0.0
C2160 C 0.56956 0.28102 0.07358 0.0
C2161 C 0.60196 0.2824 0.02325 0.0
H2162 H 0.59017 0.34359 0.02553 0.0
C2163 C 0.60118 0.3552 0.96063 0.0
C2164 C 0.62041 0.35146 0.94947 0.0
C2165 C 0.59744 0.34552 0.98048 0.0
C2166 C 0.59378 0.32656 0.02481 0.0
H2167 H 0.54566 0.2286 0.04816 0.0
H2168 H 0.56926 0.25171 0.0269 0.0
H2169 H 0.57315 0.31954 0.05134 0.0
H2170 H 0.65161 0.33616 0.95121 0.0
H2171 H 0.64506 0.31926 0.98611 0.0
H2172 H 0.62134 0.28925 0.9957 0.0
C2173 C 0.56601 0.25628 0.04342 0.0
C2174 C 0.58418 0.31277 0.03974 0.0
C2175 C 0.5523 0.24311 0.05553 0.0
C2176 C 0.63654 0.3392 0.95935 0.0
C2177 C 0.63276 0.32943 0.97927 0.0
C2178 C 0.61145 0.29618 0.00822 0.0
C2179 C 0.57464 0.2755 0.05223 0.0
C2180 C 0.58755 0.29042 0.03865 0.0
C2181 C 0.61285 0.33189 0.98966 0.0
C2182 C 0.60681 0.3183 0.00834 0.0
H2183 H 0.55202 0.27282 0.10197 0.0
H2184 H 0.57618 0.29552 0.08097 0.0
H2185 H 0.60526 0.26532 0.02228 0.0
H2186 H 0.58853 0.36478 0.95355 0.0
H2187 H 0.58185 0.34764 0.98791 0.0
C2188 C 0.98868 0.27419 0.31633 0.0
C2189 C 0.98417 0.25588 0.32879 0.0
C2190 C 0.97486 0.27995 0.29954 0.0
C2191 C 0.93123 0.25925 0.26381 0.0
H2192 H 0.9191 0.32004 0.25773 0.0
C2193 C 0.87702 0.32352 0.21126 0.0
C2194 C 0.8816 0.31612 0.19037 0.0
C2195 C 0.88573 0.31328 0.22919 0.0
C2196 C 0.92198 0.30295 0.25939 0.0
H2197 H 0.96194 0.22896 0.33315 0.0
H2198 H 0.93773 0.23919 0.30407 0.0
H2199 H 0.94279 0.3083 0.28645 0.0
H2200 H 0.89725 0.29106 0.17192 0.0
H2201 H 0.91289 0.27346 0.20319 0.0
H2202 H 0.91017 0.25396 0.23676 0.0
C2203 C 0.95203 0.24897 0.30708 0.0
C2204 C 0.9359 0.29627 0.27565 0.0
C2205 C 0.96586 0.24318 0.32383 0.0
C2206 C 0.89346 0.29715 0.18783 0.0
C2207 C 0.90241 0.28704 0.20579 0.0
C2208 C 0.91722 0.26595 0.24751 0.0
C2209 C 0.95622 0.26756 0.29492 0.0
C2210 C 0.94092 0.27439 0.27789 0.0
C2211 C 0.89944 0.2956 0.22659 0.0
C2212 C 0.91259 0.28791 0.245 0.0
H2213 H 0.00273 0.28421 0.31969 0.0
H2214 H 0.97875 0.29416 0.2902 0.0
H2215 H 0.93484 0.24227 0.26508 0.0
H2216 H 0.86762 0.33791 0.21369 0.0
H2217 H 0.8826 0.31988 0.24505 0.0
C2218 C 0.9531 0.71348 0.57347 0.0
C2219 C 0.96563 0.70089 0.58732 0.0
C2220 C 0.94255 0.70395 0.55577 0.0
C2221 C 0.94697 0.65643 0.52039 0.0
H2222 H 0.89132 0.67428 0.49876 0.0
C2223 C 0.88194 0.63221 0.44888 0.0
C2224 C 0.89623 0.63056 0.43144 0.0
C2225 C 0.88928 0.63956 0.46898 0.0
C2226 C 0.90677 0.66894 0.50475 0.0
H2227 H 0.97592 0.66841 0.59444 0.0
H2228 H 0.95719 0.65179 0.56402 0.0
H2229 H 0.9052 0.68946 0.53258 0.0
H2230 H 0.92951 0.63497 0.42158 0.0
H2231 H 0.94218 0.64795 0.45646 0.0
H2232 H 0.94852 0.63578 0.4928 0.0
C2233 C 0.95598 0.66904 0.56633 0.0
C2234 C 0.91482 0.67783 0.52397 0.0
C2235 C 0.96663 0.67856 0.58381 0.0
C2236 C 0.91807 0.636 0.43466 0.0
C2237 C 0.92537 0.64335 0.45471 0.0
C2238 C 0.93893 0.64755 0.50127 0.0
C2239 C 0.94427 0.68168 0.55179 0.0
C2240 C 0.93508 0.67176 0.53191 0.0
C2241 C 0.91104 0.64536 0.47205 0.0
C2242 C 0.91886 0.65387 0.49309 0.0
H2243 H 0.95206 0.73074 0.57585 0.0
H2244 H 0.93377 0.71415 0.54478 0.0
H2245 H 0.96277 0.6516 0.52588 0.0
H2246 H 0.86503 0.62807 0.44697 0.0
H2247 H 0.87792 0.64067 0.48213 0.0
C2248 C 0.50233 0.29809 0.68327 0.0
C2249 C 0.51828 0.28698 0.6719 0.0
C2250 C 0.5079 0.31074 0.70122 0.0
C2251 C 0.55378 0.33841 0.72778 0.0
H2252 H 0.52351 0.32631 0.78099 0.0
C2253 C 0.57375 0.34013 0.82299 0.0
C2254 C 0.58238 0.36102 0.82576 0.0
C2255 C 0.56299 0.33444 0.80398 0.0
C2256 C 0.532 0.32995 0.7662 0.0
H2257 H 0.55252 0.28073 0.66994 0.0
H2258 H 0.5622 0.30278 0.70114 0.0
H2259 H 0.51029 0.31058 0.74716 0.0
H2260 H 0.58625 0.39241 0.81086 0.0
H2261 H 0.5676 0.38229 0.77747 0.0
H2262 H 0.576 0.35705 0.74692 0.0
C2263 C 0.54545 0.30184 0.69618 0.0
C2264 C 0.52433 0.32113 0.74686 0.0
C2265 C 0.53988 0.28907 0.67844 0.0
C2266 C 0.57981 0.37617 0.8092 0.0
C2267 C 0.56918 0.37041 0.79009 0.0
C2268 C 0.56135 0.34736 0.74709 0.0
C2269 C 0.52952 0.31266 0.70784 0.0
C2270 C 0.53555 0.32475 0.72759 0.0
C2271 C 0.56076 0.34946 0.78729 0.0
C2272 C 0.55089 0.34268 0.76656 0.0
H2273 H 0.48554 0.29678 0.67851 0.0
H2274 H 0.49533 0.31897 0.70994 0.0
H2275 H 0.56258 0.34161 0.71307 0.0
H2276 H 0.57539 0.32808 0.83544 0.0
H2277 H 0.55694 0.31808 0.80211 0.0
C2278 C 0.94097 0.29198 0.92541 0.0
C2279 C 0.96072 0.29599 0.9152 0.0
C2280 C 0.93361 0.30594 0.94133 0.0
C2281 C 0.9168 0.34119 0.96955 0.0
H2282 H 0.95891 0.35798 0.01303 0.0
C2283 C 0.88831 0.3691 0.0521 0.0
C2284 C 0.89869 0.3588 0.06929 0.0
C2285 C 0.89756 0.36933 0.03163 0.0
C2286 C 0.94693 0.35348 0.00102 0.0
H2287 H 0.98788 0.31822 0.91298 0.0
H2288 H 0.97483 0.34287 0.94068 0.0
H2289 H 0.97096 0.34247 0.97915 0.0
H2290 H 0.92755 0.34199 0.07895 0.0
H2291 H 0.94321 0.34149 0.04323 0.0
H2292 H 0.89269 0.35035 0.99198 0.0
C2293 C 0.96522 0.32872 0.93661 0.0
C2294 C 0.95386 0.34484 0.98144 0.0
C2295 C 0.97266 0.31464 0.92072 0.0
C2296 C 0.9191 0.34995 0.06598 0.0
C2297 C 0.92819 0.34987 0.04546 0.0
C2298 C 0.90986 0.34955 0.98918 0.0
C2299 C 0.94574 0.32436 0.94731 0.0
C2300 C 0.9388 0.3377 0.96589 0.0
C2301 C 0.9172 0.35894 0.02787 0.0
C2302 C 0.92481 0.35491 0.00553 0.0
H2303 H 0.93144 0.27772 0.92153 0.0
H2304 H 0.91877 0.3018 0.94952 0.0
H2305 H 0.90481 0.3364 0.95765 0.0
H2306 H 0.87274 0.37648 0.05432 0.0
H2307 H 0.88891 0.37695 0.01859 0.0
C2308 C 0.97941 0.71216 0.1746 0.0
C2309 C -0.0007 0.71921 0.18326 0.0
C2310 C 0.96463 0.70088 0.18735 0.0
C2311 C 0.94888 0.6939 0.24338 0.0
H2312 H 0.92203 0.64013 0.22455 0.0
C2313 C 0.90688 0.6187 0.28769 0.0
C2314 C 0.89405 0.6302 0.30225 0.0
C2315 C 0.91581 0.6291 0.26981 0.0
C2316 C 0.92934 0.65518 0.22992 0.0
H2317 H 0.01928 0.71987 0.21208 0.0
H2318 H 0.99336 0.70041 0.23434 0.0
H2319 H 0.94668 0.65948 0.20037 0.0
H2320 H 0.87846 0.66072 0.30827 0.0
H2321 H 0.89383 0.67871 0.27701 0.0
H2322 H 0.9321 0.68957 0.273 0.0
C2323 C 0.98925 0.70363 0.21769 0.0
C2324 C 0.94332 0.66627 0.2161 0.0
C2325 C 0.00412 0.71468 0.20491 0.0
C2326 C 0.88864 0.65158 0.29753 0.0
C2327 C 0.89746 0.6619 0.27967 0.0
C2328 C 0.9348 0.68299 0.25704 0.0
C2329 C 0.96935 0.69671 0.20905 0.0
C2330 C 0.95349 0.68553 0.2229 0.0
C2331 C 0.91193 0.65107 0.26624 0.0
C2332 C 0.92509 0.66339 0.25059 0.0
H2333 H 0.97524 0.7153 0.15795 0.0
H2334 H 0.94935 0.6958 0.18037 0.0
H2335 H 0.95633 0.70883 0.24891 0.0
H2336 H 0.91127 0.60218 0.29091 0.0
H2337 H 0.92694 0.62037 0.25972 0.0
C2338 C 0.51898 0.70768 0.43106 0.0
C2339 C 0.51944 0.69503 0.41226 0.0
C2340 C 0.5278 0.70011 0.45021 0.0
C2341 C 0.54442 0.64961 0.47691 0.0
H2342 H 0.57027 0.68983 0.51785 0.0
C2343 C 0.59596 0.62958 0.55289 0.0
C2344 C 0.58961 0.64001 0.57195 0.0
C2345 C 0.58562 0.63395 0.53341 0.0
C2346 C 0.56292 0.6785 0.50659 0.0
H2347 H 0.53021 0.66485 0.39851 0.0
H2348 H 0.54653 0.65196 0.43181 0.0
H2349 H 0.55812 0.70281 0.48297 0.0
H2350 H 0.56679 0.66224 0.58588 0.0
H2351 H 0.54913 0.67034 0.55158 0.0
H2352 H 0.55027 0.62517 0.50055 0.0
C2353 C 0.5387 0.66745 0.43193 0.0
C2354 C 0.5559 0.68589 0.48664 0.0
C2355 C 0.52952 0.6749 0.41281 0.0
C2356 C 0.572 0.65398 0.57143 0.0
C2357 C 0.56196 0.65867 0.55187 0.0
C2358 C 0.55187 0.64215 0.49678 0.0
C2359 C 0.53766 0.67985 0.45094 0.0
C2360 C 0.54629 0.67161 0.47164 0.0
C2361 C 0.56908 0.64909 0.5327 0.0
C2362 C 0.5609 0.65662 0.51181 0.0
H2363 H 0.51107 0.72315 0.43124 0.0
H2364 H 0.52629 0.70994 0.46457 0.0
H2365 H 0.53683 0.6382 0.4659 0.0
H2366 H 0.60941 0.61861 0.55294 0.0
H2367 H 0.59135 0.62645 0.51875 0.0
C2368 C 0.8452 0.56806 0.71916 0.0
C2369 C 0.84451 0.54544 0.71834 0.0
C2370 C 0.83094 0.58007 0.70674 0.0
C2371 C 0.78955 0.57546 0.66291 0.0
H2372 H 0.76235 0.62138 0.69498 0.0
C2373 C 0.70104 0.6141 0.67063 0.0
C2374 C 0.69496 0.61525 0.64884 0.0
C2375 C 0.72236 0.61018 0.67635 0.0
C2376 C 0.76979 0.60863 0.68577 0.0
H2377 H 0.82905 0.51762 0.70337 0.0
H2378 H 0.80363 0.53843 0.68237 0.0
H2379 H 0.79454 0.60485 0.70935 0.0
H2380 H 0.70673 0.61446 0.61597 0.0
H2381 H 0.74413 0.60791 0.62602 0.0
H2382 H 0.76376 0.57812 0.64019 0.0
C2383 C 0.81548 0.54703 0.6921 0.0
C2384 C 0.78847 0.59932 0.69386 0.0
C2385 C 0.82993 0.53505 0.70429 0.0
C2386 C 0.71086 0.61336 0.63291 0.0
C2387 C 0.73228 0.60957 0.63865 0.0
C2388 C 0.77071 0.58461 0.65494 0.0
C2389 C 0.81551 0.56969 0.69349 0.0
C2390 C 0.79814 0.5821 0.68291 0.0
C2391 C 0.73818 0.60751 0.66044 0.0
C2392 C 0.76018 0.60075 0.6667 0.0
H2393 H 0.85651 0.57647 0.72967 0.0
H2394 H 0.8317 0.59749 0.7079 0.0
H2395 H 0.79688 0.56257 0.65381 0.0
H2396 H 0.68921 0.61554 0.68332 0.0
H2397 H 0.72621 0.60833 0.69328 0.0
C2398 C 0.70552 0.58322 0.9815 0.0
C2399 C 0.72387 0.58318 0.99488 0.0
C2400 C 0.69837 0.56431 0.97143 0.0
C2401 C 0.69784 0.50613 0.97561 0.0
H2402 H 0.68612 0.50729 0.91416 0.0
C2403 C 0.67291 0.42967 0.92763 0.0
C2404 C 0.65756 0.43206 0.91113 0.0
C2405 C 0.68176 0.44776 0.93803 0.0
C2406 C 0.68902 0.50675 0.93137 0.0
H2407 H 0.7489 0.56321 0.00848 0.0
H2408 H 0.73603 0.52991 0.99103 0.0
H2409 H 0.70019 0.53953 0.93218 0.0
H2410 H 0.63897 0.45518 0.89298 0.0
H2411 H 0.65385 0.48666 0.91155 0.0
H2412 H 0.68604 0.47359 0.97503 0.0
C2413 C 0.72738 0.54471 0.98832 0.0
C2414 C 0.69719 0.52517 0.94163 0.0
C2415 C 0.73477 0.56375 -0.00182 0.0
C2416 C 0.65096 0.45284 0.90547 0.0
C2417 C 0.6596 0.47089 0.91604 0.0
C2418 C 0.68939 0.48774 0.9654 0.0
C2419 C 0.70923 0.54492 0.97473 0.0
C2420 C 0.70154 0.52505 0.96384 0.0
C2421 C 0.67525 0.46859 0.93232 0.0
C2422 C 0.68475 0.48789 0.94317 0.0
H2423 H 0.69679 0.59793 0.97856 0.0
H2424 H 0.68421 0.5648 0.96116 0.0
H2425 H 0.70091 0.50576 0.99281 0.0
H2426 H 0.6784 0.41385 0.93227 0.0
H2427 H 0.69397 0.4454 0.95029 0.0
C2428 C 0.6708 0.46526 0.18949 0.0
C2429 C 0.65312 0.45917 0.2022 0.0
C2430 C 0.68796 0.45127 0.18667 0.0
C2431 C 0.70402 0.3963 0.18381 0.0
H2432 H 0.76067 0.4184 0.19991 0.0
C2433 C 0.80022 0.37243 0.18279 0.0
C2434 C 0.80277 0.36882 0.16056 0.0
C2435 C 0.78032 0.3787 0.19096 0.0
C2436 C 0.74494 0.41183 0.19567 0.0
H2437 H 0.63911 0.43346 0.22135 0.0
H2438 H 0.66906 0.40859 0.21575 0.0
H2439 H 0.7288 0.43967 0.20772 0.0
H2440 H 0.78602 0.36692 0.12982 0.0
H2441 H 0.75126 0.37773 0.14416 0.0
H2442 H 0.72036 0.36894 0.17067 0.0
C2443 C 0.66962 0.42434 0.2083 0.0
C2444 C 0.72678 0.42407 0.19998 0.0
C2445 C 0.65259 0.43855 0.2115 0.0
C2446 C 0.78462 0.36984 0.14698 0.0
C2447 C 0.76467 0.37586 0.1552 0.0
C2448 C 0.72229 0.38417 0.17913 0.0
C2449 C 0.68757 0.43079 0.19617 0.0
C2450 C 0.70626 0.4166 0.19371 0.0
C2451 C 0.76256 0.38115 0.17711 0.0
C2452 C 0.74293 0.39203 0.18471 0.0
H2453 H 0.67167 0.48108 0.18221 0.0
H2454 H 0.70164 0.45646 0.17713 0.0
H2455 H 0.68829 0.3903 0.17884 0.0
H2456 H 0.81385 0.37163 0.19372 0.0
H2457 H 0.77902 0.38253 0.20796 0.0
C2458 C 0.7586 0.42431 0.4764 0.0
C2459 C 0.73683 0.42774 0.47112 0.0
C2460 C 0.7748 0.43754 0.46806 0.0
C2461 C 0.78606 0.47433 0.42314 0.0
H2462 H 0.83473 0.49248 0.4586 0.0
C2463 C 0.85365 0.52551 0.38691 0.0
C2464 C 0.85831 0.54438 0.39876 0.0
C2465 C 0.84244 0.50841 0.39648 0.0
C2466 C 0.82127 0.48749 0.44849 0.0
H2467 H 0.71502 0.44821 0.45336 0.0
H2468 H 0.74343 0.47162 0.43899 0.0
H2469 H 0.80622 0.47014 0.47417 0.0
H2470 H 0.85711 0.5591 0.43056 0.0
H2471 H 0.83741 0.52951 0.44707 0.0
H2472 H 0.8006 0.49234 0.39771 0.0
C2473 C 0.7479 0.45837 0.44933 0.0
C2474 C 0.805 0.4746 0.45736 0.0
C2475 C 0.73161 0.44508 0.45768 0.0
C2476 C 0.8535 0.54491 0.42088 0.0
C2477 C 0.84228 0.52786 0.43041 0.0
C2478 C 0.80229 0.48722 0.41429 0.0
C2479 C 0.76968 0.45459 0.45427 0.0
C2480 C 0.7871 0.46808 0.44483 0.0
C2481 C 0.83576 0.50987 0.41805 0.0
C2482 C 0.81997 0.49414 0.42691 0.0
H2483 H 0.76328 0.41113 0.48672 0.0
H2484 H 0.79141 0.43404 0.472 0.0
H2485 H 0.77266 0.46927 0.41297 0.0
H2486 H 0.85738 0.52445 0.36991 0.0
H2487 H 0.83811 0.49449 0.3867 0.0
C2488 C 0.81144 0.48275 0.7892 0.0
C2489 C 0.80857 0.50288 0.77945 0.0
C2490 C 0.79403 0.46871 0.79207 0.0
C2491 C 0.73469 0.46665 0.79449 0.0
H2492 H 0.74462 0.40505 0.79185 0.0
C2493 C 0.66832 0.40625 0.8168 0.0
C2494 C 0.67453 0.39377 0.83461 0.0
C2495 C 0.68381 0.41697 0.80447 0.0
C2496 C 0.7416 0.4222 0.79244 0.0
H2497 H 0.78522 0.52418 0.76504 0.0
H2498 H 0.75464 0.49936 0.76966 0.0
H2499 H 0.77314 0.43019 0.78111 0.0
H2500 H 0.70188 0.38086 0.85195 0.0
H2501 H 0.72892 0.39936 0.83015 0.0
H2502 H 0.70318 0.45856 0.80599 0.0
C2503 C 0.77035 0.4946 0.77545 0.0
C2504 C 0.75794 0.43663 0.78649 0.0
C2505 C 0.78782 0.50884 0.77283 0.0
C2506 C 0.69658 0.39052 0.83848 0.0
C2507 C 0.71206 0.40104 0.82595 0.0
C2508 C 0.71825 0.45221 0.80013 0.0
C2509 C 0.77331 0.47427 0.78495 0.0
C2510 C 0.75494 0.45904 0.78818 0.0
C2511 C 0.70576 0.4151 0.80948 0.0
C2512 C 0.7218 0.4299 0.79978 0.0
H2513 H 0.82722 0.4778 0.79465 0.0
H2514 H 0.79685 0.45352 0.80006 0.0
H2515 H 0.73183 0.48376 0.79617 0.0
H2516 H 0.65148 0.40895 0.81321 0.0
H2517 H 0.6786 0.42755 0.79167 0.0
C2518 C 0.79508 0.58083 0.07891 0.0
C2519 C 0.79889 0.58508 0.05706 0.0
C2520 C 0.80583 0.56421 0.08929 0.0
C2521 C 0.85042 0.52478 0.08306 0.0
H2522 H 0.81417 0.49014 0.12045 0.0
C2523 C 0.86208 0.43444 0.10027 0.0
C2524 C 0.8581 0.42699 0.12125 0.0
C2525 C 0.85901 0.45606 0.09513 0.0
C2526 C 0.82465 0.49985 0.11038 0.0
H2527 H 0.81731 0.57578 0.02902 0.0
H2528 H 0.83539 0.54606 0.04681 0.0
H2529 H 0.80065 0.52372 0.10625 0.0
H2530 H 0.84894 0.43661 0.15359 0.0
H2531 H 0.84324 0.47435 0.14444 0.0
H2532 H 0.87393 0.49994 0.08636 0.0
C2533 C 0.82459 0.55591 0.05619 0.0
C2534 C 0.81693 0.51918 0.10225 0.0
C2535 C 0.8141 0.57283 0.04591 0.0
C2536 C 0.852 0.44181 0.13724 0.0
C2537 C 0.8487 0.46339 0.13203 0.0
C2538 C 0.85804 0.50524 0.091 0.0
C2539 C 0.8203 0.55116 0.07793 0.0
C2540 C 0.82956 0.53174 0.0882 0.0
C2541 C 0.85172 0.47059 0.11082 0.0
C2542 C 0.84506 0.49246 0.10447 0.0
H2543 H 0.78367 0.59029 0.08798 0.0
H2544 H 0.80252 0.56139 0.10617 0.0
H2545 H 0.86075 0.53423 0.07262 0.0
H2546 H 0.86701 0.42345 0.08765 0.0
H2547 H 0.8613 0.46117 0.07862 0.0
C2548 C 0.67244 0.52608 0.25389 0.0
C2549 C 0.65798 0.54198 0.24715 0.0
C2550 C 0.69149 0.53184 0.26457 0.0
C2551 C 0.71702 0.57553 0.29622 0.0
H2552 H 0.76988 0.54662 0.28096 0.0
C2553 C 0.8144 0.58292 0.31279 0.0
C2554 C 0.8146 0.58527 0.33533 0.0
C2555 C 0.79517 0.57843 0.30183 0.0
C2556 C 0.75529 0.55496 0.28528 0.0
H2557 H 0.65227 0.57645 0.24643 0.0
H2558 H 0.68565 0.58643 0.26493 0.0
H2559 H 0.73655 0.53735 0.26197 0.0
H2560 H 0.79471 0.58508 0.36402 0.0
H2561 H 0.76118 0.57702 0.34486 0.0
H2562 H 0.73586 0.59335 0.31934 0.0
C2563 C 0.68207 0.56951 0.26212 0.0
C2564 C 0.73617 0.54948 0.27458 0.0
C2565 C 0.66301 0.56377 0.2514 0.0
C2566 C 0.79511 0.58335 0.34664 0.0
C2567 C 0.77588 0.57886 0.33567 0.0
C2568 C 0.73616 0.581 0.30695 0.0
C2569 C 0.69652 0.5536 0.26877 0.0
C2570 C 0.71683 0.55966 0.27998 0.0
C2571 C 0.77574 0.57622 0.31317 0.0
C2572 C 0.75547 0.57074 0.30161 0.0
H2573 H 0.66907 0.50914 0.25094 0.0
H2574 H 0.7022 0.51921 0.26977 0.0
H2575 H 0.70232 0.58352 0.30084 0.0
H2576 H 0.8291 0.58448 0.30356 0.0
H2577 H 0.79549 0.5768 0.28445 0.0
C2578 C 0.6648 0.41954 0.52643 0.0
C2579 C 0.67924 0.40623 0.53736 0.0
C2580 C 0.65383 0.43561 0.53768 0.0
C2581 C 0.66105 0.46771 0.58749 0.0
H2582 H 0.60708 0.49317 0.56987 0.0
C2583 C 0.63264 0.54504 0.62727 0.0
C2584 C 0.62907 0.56165 0.61241 0.0
C2585 C 0.63327 0.52362 0.62036 0.0
C2586 C 0.6221 0.48609 0.57502 0.0
H2587 H 0.69211 0.39757 0.56857 0.0
H2588 H 0.67213 0.42461 0.58839 0.0
H2589 H 0.61822 0.459 0.55372 0.0
H2590 H 0.6215 0.56865 0.57899 0.0
H2591 H 0.62284 0.53122 0.56694 0.0
H2592 H 0.66514 0.49481 0.60848 0.0
C2593 C 0.66998 0.42359 0.57108 0.0
C2594 C 0.62855 0.46662 0.56572 0.0
C2595 C 0.68134 0.40801 0.55979 0.0
C2596 C 0.6246 0.55625 0.59079 0.0
C2597 C 0.62515 0.5348 0.58391 0.0
C2598 C 0.65449 0.48691 0.59692 0.0
C2599 C 0.65683 0.43823 0.56008 0.0
C2600 C 0.64835 0.45743 0.57154 0.0
C2601 C 0.63021 0.51839 0.5985 0.0
C2602 C 0.6352 0.49653 0.59049 0.0
H2603 H 0.66296 0.41837 0.50909 0.0
H2604 H 0.64397 0.44665 0.52861 0.0
H2605 H 0.67665 0.46154 0.59206 0.0
H2606 H 0.6358 0.5486 0.64411 0.0
H2607 H 0.63695 0.51121 0.63199 0.0
C2608 C 0.743 0.83451 0.5583 0.0
C2609 C 0.75428 0.83151 0.53897 0.0
C2610 C 0.72964 0.81816 0.56632 0.0
C2611 C 0.70252 0.76657 0.55003 0.0
H2612 H 0.6997 0.75733 0.61175 0.0
C2613 C 0.67489 0.68724 0.58941 0.0
C2614 C 0.65758 0.6889 0.60381 0.0
C2615 C 0.68519 0.70572 0.58171 0.0
C2616 C 0.70023 0.75992 0.59451 0.0
H2617 H 0.76079 0.80897 0.51307 0.0
H2618 H 0.73835 0.78014 0.52747 0.0
H2619 H 0.72098 0.7875 0.59777 0.0
H2620 H 0.63777 0.71111 0.62183 0.0
H2621 H 0.65646 0.74361 0.60879 0.0
H2622 H 0.68265 0.73821 0.54691 0.0
C2623 C 0.73908 0.79534 0.53611 0.0
C2624 C 0.71231 0.77723 0.58646 0.0
C2625 C 0.75211 0.81182 0.5279 0.0
C2626 C 0.65101 0.70941 0.61067 0.0
C2627 C 0.66168 0.72793 0.60331 0.0
C2628 C 0.69083 0.74907 0.55808 0.0
C2629 C 0.72757 0.79832 0.55537 0.0
C2630 C 0.7138 0.78064 0.56408 0.0
C2631 C 0.67868 0.72617 0.58861 0.0
C2632 C 0.68976 0.74553 0.58034 0.0
H2633 H 0.74421 0.84963 0.56706 0.0
H2634 H 0.72077 0.82121 0.58098 0.0
H2635 H 0.7028 0.76898 0.53276 0.0
H2636 H 0.68023 0.67165 0.58376 0.0
H2637 H 0.69838 0.70407 0.57047 0.0
C2638 C 0.21317 0.68062 0.47853 0.0
C2639 C 0.21068 0.68318 0.50093 0.0
C2640 C 0.20723 0.69705 0.46443 0.0
C2641 C 0.17069 0.74251 0.46104 0.0
H2642 H 0.20698 0.7629 0.41446 0.0
C2643 C 0.17618 0.82313 0.40795 0.0
C2644 C 0.1541 0.82563 0.40359 0.0
C2645 C 0.1839 0.80345 0.41547 0.0
C2646 C 0.19667 0.75726 0.42734 0.0
H2647 H 0.20047 0.70525 0.52606 0.0
H2648 H 0.19002 0.73372 0.50145 0.0
H2649 H 0.21931 0.73347 0.43755 0.0
H2650 H 0.12327 0.80883 0.40134 0.0
H2651 H 0.13678 0.77455 0.41424 0.0
H2652 H 0.14827 0.76643 0.45138 0.0
C2653 C 0.19643 0.71895 0.49483 0.0
C2654 C 0.20366 0.74041 0.44046 0.0
C2655 C 0.20252 0.70266 0.50892 0.0
C2656 C 0.1403 0.80755 0.40495 0.0
C2657 C 0.14801 0.78792 0.4124 0.0
C2658 C 0.16364 0.75914 0.44789 0.0
C2659 C 0.1985 0.71622 0.47245 0.0
C2660 C 0.19085 0.73315 0.45765 0.0
C2661 C 0.16967 0.78596 0.41867 0.0
C2662 C 0.17663 0.76688 0.43105 0.0
H2663 H 0.21954 0.66587 0.47185 0.0
H2664 H 0.20894 0.69453 0.44724 0.0
H2665 H 0.16038 0.73706 0.47402 0.0
H2666 H 0.18726 0.83672 0.40696 0.0
H2667 H 0.20068 0.80242 0.42019 0.0
C2668 C 0.58654 0.98291 0.69195 0.0
C2669 C 0.59205 0.97602 0.71276 0.0
C2670 C 0.5696 0.97292 0.68065 0.0
C2671 C 0.53463 0.92395 0.68004 0.0
H2672 H 0.4937 0.96118 0.65168 0.0
C2673 C 0.45757 0.88945 0.64062 0.0
C2674 C 0.43853 0.90064 0.64504 0.0
C2675 C 0.47764 0.89875 0.64532 0.0
C2676 C 0.50496 0.95058 0.65956 0.0
H2677 H 0.58455 0.95302 0.73792 0.0
H2678 H 0.5548 0.93587 0.71845 0.0
H2679 H 0.5267 0.97662 0.66702 0.0
H2680 H 0.42565 0.93065 0.65721 0.0
H2681 H 0.46065 0.94666 0.66595 0.0
H2682 H 0.51244 0.8981 0.67362 0.0
C2683 C 0.56373 0.94873 0.71065 0.0
C2684 C 0.52401 0.95938 0.66811 0.0
C2685 C 0.58068 0.95866 0.72189 0.0
C2686 C 0.44001 0.92159 0.65365 0.0
C2687 C 0.4601 0.93083 0.6585 0.0
C2688 C 0.51556 0.91518 0.67159 0.0
C2689 C 0.55785 0.95587 0.68999 0.0
C2690 C 0.53883 0.94622 0.67884 0.0
C2691 C 0.47914 0.9194 0.65466 0.0
C2692 C 0.50031 0.92845 0.66163 0.0
H2693 H 0.59514 0.99618 0.68446 0.0
H2694 H 0.56564 0.9786 0.66466 0.0
H2695 H 0.54589 0.91333 0.68791 0.0
H2696 H 0.45698 0.87339 0.63368 0.0
H2697 H 0.492 0.88968 0.64179 0.0
C2698 C 0.28962 0.33758 0.9268 0.0
C2699 C 0.30291 0.3386 0.9452 0.0
C2700 C 0.29352 0.32254 0.91049 0.0
C2701 C 0.29646 0.27887 0.88805 0.0
H2702 H 0.35485 0.26045 0.87723 0.0
C2703 C 0.31807 0.19159 0.87416 0.0
C2704 C 0.33799 0.18639 0.86503 0.0
C2705 C 0.31156 0.213 0.87518 0.0
C2706 C 0.33839 0.26557 0.87943 0.0
H2707 H 0.33085 0.32494 0.96086 0.0
H2708 H 0.33736 0.29842 0.93279 0.0
H2709 H 0.34891 0.29401 0.89616 0.0
H2710 H 0.36534 0.19889 0.84723 0.0
H2711 H 0.3536 0.23624 0.84827 0.0
H2712 H 0.28596 0.25026 0.87148 0.0
C2713 C 0.32421 0.30951 0.93063 0.0
C2714 C 0.33502 0.28472 0.89066 0.0
C2715 C 0.32035 0.32456 0.94686 0.0
C2716 C 0.35014 0.20259 0.85484 0.0
C2717 C 0.34343 0.22397 0.85549 0.0
C2718 C 0.29983 0.25979 0.87655 0.0
C2719 C 0.31079 0.30824 0.91231 0.0
C2720 C 0.31407 0.29094 0.89613 0.0
C2721 C 0.3247 0.22958 0.86677 0.0
C2722 C 0.32086 0.25232 0.87317 0.0
H2723 H 0.27611 0.34832 0.92503 0.0
H2724 H 0.28298 0.32204 0.89652 0.0
H2725 H 0.28009 0.28329 0.89186 0.0
H2726 H 0.30828 0.17939 0.88202 0.0
H2727 H 0.2971 0.21659 0.88412 0.0
C2728 C 0.4317 0.52537 0.72416 0.0
C2729 C 0.41535 0.51843 0.70987 0.0
C2730 C 0.44745 0.54013 0.71744 0.0
C2731 C 0.47449 0.57814 0.7012 0.0
H2732 H 0.49999 0.56368 0.64612 0.0
C2733 C 0.54824 0.62375 0.66467 0.0
C2734 C 0.56482 0.60991 0.65826 0.0
C2735 C 0.52794 0.61535 0.67006 0.0
C2736 C 0.49294 0.56799 0.66146 0.0
H2737 H 0.40212 0.52248 0.67767 0.0
H2738 H 0.42953 0.54817 0.66608 0.0
H2739 H 0.46781 0.54439 0.65798 0.0
H2740 H 0.57304 0.57654 0.65208 0.0
H2741 H 0.53774 0.56204 0.6613 0.0
H2742 H 0.50028 0.60123 0.7049 0.0
C2743 C 0.43035 0.54194 0.68235 0.0
C2744 C 0.47442 0.55709 0.66819 0.0
C2745 C 0.41464 0.5272 0.68902 0.0
C2746 C 0.56065 0.58763 0.65705 0.0
C2747 C 0.54038 0.57932 0.66216 0.0
C2748 C 0.49301 0.58917 0.69438 0.0
C2749 C 0.44716 0.54823 0.69633 0.0
C2750 C 0.46528 0.56169 0.68834 0.0
C2751 C 0.52386 0.59306 0.66876 0.0
C2752 C 0.50268 0.58376 0.6747 0.0
H2753 H 0.43267 0.51901 0.74036 0.0
H2754 H 0.46035 0.54453 0.72851 0.0
H2755 H 0.46763 0.58216 0.71671 0.0
H2756 H 0.55101 0.641 0.66576 0.0
H2757 H 0.51541 0.62626 0.67507 0.0
C2758 C 0.75886 0.15175 0.05381 0.0
C2759 C 0.76132 0.14641 0.03197 0.0
C2760 C 0.76967 0.16955 0.06261 0.0
C2761 C 0.78084 0.21584 0.07244 0.0
H2762 H 0.83953 0.23189 0.05785 0.0
C2763 C 0.81785 0.29846 0.09564 0.0
C2764 C 0.83941 0.2988 0.10265 0.0
C2765 C 0.80868 0.27962 0.08702 0.0
C2766 C 0.82318 0.22752 0.06222 0.0
H2767 H 0.77757 0.15492 0.00231 0.0
H2768 H 0.79627 0.18643 0.01762 0.0
H2769 H 0.8238 0.19865 0.0432 0.0
H2770 H 0.86808 0.27951 0.10663 0.0
H2771 H 0.85194 0.2466 0.09201 0.0
H2772 H 0.78033 0.24438 0.09184 0.0
C2773 C 0.78616 0.17668 0.02801 0.0
C2774 C 0.8141 0.20861 0.05363 0.0
C2775 C 0.77543 0.1587 0.01922 0.0
C2776 C 0.85147 0.27984 0.10121 0.0
C2777 C 0.84228 0.261 0.0927 0.0
C2778 C 0.78992 0.23468 0.08106 0.0
C2779 C 0.78303 0.18253 0.0497 0.0
C2780 C 0.79286 0.20254 0.05872 0.0
C2781 C 0.82083 0.26071 0.08536 0.0
C2782 C 0.81119 0.24073 0.07607 0.0
H2783 H 0.74827 0.14238 0.06407 0.0
H2784 H 0.76733 0.17332 0.0795 0.0
H2785 H 0.76431 0.2118 0.0764 0.0
H2786 H 0.80815 0.31283 0.09644 0.0
H2787 H 0.79217 0.27997 0.08128 0.0
C2788 C 0.57318 0.03243 0.79032 0.0
C2789 C 0.56834 0.03285 0.76814 0.0
C2790 C 0.55719 0.03631 0.80558 0.0
C2791 C 0.49816 0.03671 0.81233 0.0
H2792 H 0.50981 0.0785 0.85775 0.0
C2793 C 0.44669 0.10158 0.86054 0.0
C2794 C 0.42805 0.08922 0.86474 0.0
C2795 C 0.4658 0.09161 0.85462 0.0
C2796 C 0.50637 0.06666 0.84527 0.0
H2797 H 0.54277 0.03749 0.74467 0.0
H2798 H 0.515 0.04439 0.77125 0.0
H2799 H 0.53908 0.06684 0.8344 0.0
H2800 H 0.4155 0.05661 0.86825 0.0
H2801 H 0.44898 0.0392 0.858 0.0
H2802 H 0.46532 0.03732 0.82233 0.0
C2803 C 0.53113 0.04084 0.77684 0.0
C2804 C 0.52314 0.05988 0.832 0.0
C2805 C 0.54711 0.03708 0.76159 0.0
C2806 C 0.42948 0.06662 0.86482 0.0
C2807 C 0.44863 0.05664 0.85886 0.0
C2808 C 0.48144 0.04342 0.82561 0.0
C2809 C 0.53599 0.04053 0.79898 0.0
C2810 C 0.51903 0.04537 0.81496 0.0
C2811 C 0.4667 0.06906 0.85281 0.0
C2812 C 0.48522 0.05898 0.84179 0.0
H2813 H 0.58936 0.02917 0.79594 0.0
H2814 H 0.56137 0.03588 0.82254 0.0
H2815 H 0.49461 0.02523 0.79954 0.0
H2816 H 0.44623 0.11903 0.8606 0.0
H2817 H 0.47938 0.10168 0.84999 0.0
C2818 C 0.94031 0.95941 0.2862 0.0
C2819 C 0.92414 0.97439 0.29053 0.0
C2820 C 0.9545 0.95319 0.30244 0.0
C2821 C 0.97806 0.9704 0.35407 0.0
H2822 H 0.99483 0.91048 0.35622 0.0
C2823 C 0.05991 0.94181 0.38425 0.0
C2824 C 0.06194 0.92053 0.39156 0.0
C2825 C 0.03973 0.94973 0.37858 0.0
C2826 C 0.99004 0.9272 0.35628 0.0
H2827 H 0.91027 0.99483 0.31519 0.0
H2828 H 0.93516 0.98392 0.34361 0.0
H2829 H 0.96595 0.92113 0.33221 0.0
H2830 H 0.04422 0.8919 0.40144 0.0
H2831 H 0.00894 0.90591 0.39194 0.0
H2832 H 0.0025 0.97649 0.37792 0.0
C2833 C 0.93686 0.97706 0.32763 0.0
C2834 C 0.97369 0.93334 0.34223 0.0
C2835 C 0.9226 0.98325 0.31137 0.0
C2836 C 0.0432 0.90821 0.39538 0.0
C2837 C 0.023 0.9162 0.38988 0.0
C2838 C 0.99446 0.96424 0.3682 0.0
C2839 C 0.95283 0.96183 0.32336 0.0
C2840 C 0.96804 0.95509 0.34043 0.0
C2841 C 0.02119 0.93658 0.3803 0.0
C2842 C 0.00109 0.94267 0.36894 0.0
H2843 H 0.94194 0.95237 0.27029 0.0
H2844 H 0.96694 0.94174 0.29856 0.0
H2845 H 0.97399 0.98728 0.35306 0.0
H2846 H 0.07401 0.95182 0.38134 0.0
H2847 H 0.03897 0.96549 0.37122 0.0
C2848 C 0.4856 0.29013 0.17824 0.0
C2849 C 0.48118 0.26791 0.17659 0.0
C2850 C 0.47625 0.30243 0.19456 0.0
C2851 C 0.45331 0.29862 0.24843 0.0
H2852 H 0.42368 0.3514 0.23421 0.0
C2853 C 0.40543 0.34298 0.31282 0.0
C2854 C 0.40716 0.3655 0.31345 0.0
C2855 C 0.41274 0.33152 0.29498 0.0
C2856 C 0.4321 0.33685 0.2385 0.0
H2857 H 0.46392 0.24103 0.19097 0.0
H2858 H 0.44797 0.26246 0.21979 0.0
H2859 H 0.44105 0.3306 0.20572 0.0
H2860 H 0.41732 0.39397 0.29611 0.0
H2861 H 0.43078 0.37391 0.26489 0.0
H2862 H 0.44507 0.30494 0.28116 0.0
C2863 C 0.45853 0.27037 0.20834 0.0
C2864 C 0.442 0.32494 0.22218 0.0
C2865 C 0.46761 0.25813 0.19183 0.0
C2866 C 0.4156 0.37657 0.29571 0.0
C2867 C 0.42328 0.36505 0.2779 0.0
C2868 C 0.44367 0.31061 0.26474 0.0
C2869 C 0.46259 0.29267 0.20973 0.0
C2870 C 0.45256 0.30564 0.227 0.0
C2871 C 0.42245 0.34233 0.2776 0.0
C2872 C 0.43275 0.32978 0.26 0.0
H2873 H 0.49596 0.29811 0.16667 0.0
H2874 H 0.4798 0.31956 0.19541 0.0
H2875 H 0.46163 0.28397 0.25262 0.0
H2876 H 0.39895 0.33419 0.32644 0.0
H2877 H 0.41126 0.31411 0.29509 0.0
C2878 C 0.47919 0.72215 0.93397 0.0
C2879 C 0.50176 0.72163 0.93396 0.0
C2880 C 0.46738 0.70901 0.94782 0.0
C2881 C 0.44329 0.6771 0.97463 0.0
H2882 H 0.46855 0.66858 0.03103 0.0
C2883 C 0.39104 0.65041 0.04699 0.0
C2884 C 0.39665 0.6597 0.06692 0.0
C2885 C 0.40492 0.65248 0.02937 0.0
C2886 C 0.4611 0.67105 0.01545 0.0
H2887 H 0.52977 0.7061 0.94739 0.0
H2888 H 0.50914 0.68203 0.97078 0.0
H2889 H 0.49071 0.68244 0.00232 0.0
H2890 H 0.42064 0.67879 0.08415 0.0
H2891 H 0.44397 0.68375 0.05341 0.0
H2892 H 0.41317 0.66787 0.98843 0.0
C2893 C 0.50047 0.69327 0.9608 0.0
C2894 C 0.47402 0.67859 -0.0013 0.0
C2895 C 0.51235 0.70695 0.94732 0.0
C2896 C 0.41607 0.67131 0.06895 0.0
C2897 C 0.4296 0.67387 0.05132 0.0
C2898 C 0.43021 0.67023 0.99157 0.0
C2899 C 0.47781 0.69452 0.96166 0.0
C2900 C 0.46513 0.68255 0.97823 0.0
C2901 C 0.42439 0.66433 0.03129 0.0
C2902 C 0.43878 0.66794 0.01244 0.0
H2903 H 0.47061 0.73349 0.92397 0.0
H2904 H 0.4501 0.71104 0.94824 0.0
H2905 H 0.43596 0.67904 0.95891 0.0
H2906 H 0.37621 0.64114 0.0452 0.0
H2907 H 0.40041 0.64465 0.01435 0.0
C2908 C 0.07069 0.67528 0.65249 0.0
C2909 C 0.05768 0.69342 0.65569 0.0
C2910 C 0.08505 0.66877 0.66844 0.0
C2911 C 0.11116 0.68437 0.71999 0.0
H2912 H 0.09742 0.62555 0.73636 0.0
C2913 C 0.1143 0.65614 0.80709 0.0
C2914 C 0.11849 0.6345 0.81187 0.0
C2915 C 0.11343 0.66304 0.78579 0.0
C2916 C 0.10201 0.6418 0.73182 0.0
H2917 H 0.05083 0.7199 0.6775 0.0
H2918 H 0.07578 0.70836 0.70546 0.0
H2919 H 0.08487 0.63907 0.70201 0.0
H2920 H 0.1263 0.60335 0.79817 0.0
H2921 H 0.12507 0.61549 0.76083 0.0
H2922 H 0.12778 0.68727 0.75017 0.0
C2923 C 0.07488 0.69925 0.69054 0.0
C2924 C 0.09475 0.64956 0.71209 0.0
C2925 C 0.06042 0.70573 0.6746 0.0
C2926 C 0.1226 0.62004 0.79494 0.0
C2927 C 0.12195 0.62701 0.77357 0.0
C2928 C 0.11863 0.67653 0.73967 0.0
C2929 C 0.08679 0.68032 0.68787 0.0
C2930 C 0.0985 0.67116 0.7064 0.0
C2931 C 0.11699 0.64852 0.76875 0.0
C2932 C 0.1133 0.65544 0.7462 0.0
H2933 H 0.06928 0.66558 0.63797 0.0
H2934 H 0.09424 0.65425 0.66592 0.0
H2935 H 0.11453 0.701 0.71578 0.0
H2936 H 0.11115 0.66771 0.8198 0.0
H2937 H 0.10914 0.67961 0.78271 0.0
C2938 C 0.01131 0.28513 0.43781 0.0
C2939 C 0.02564 0.28291 0.42054 0.0
C2940 C 0.017 0.29809 0.45558 0.0
C2941 C 0.0664 0.31872 0.48215 0.0
H2942 H 0.02729 0.35141 0.51778 0.0
C2943 C 0.09803 0.36599 0.55495 0.0
C2944 C 0.0872 0.36184 0.57436 0.0
C2945 C 0.08872 0.36003 0.53526 0.0
C2946 C 0.03834 0.34232 0.50793 0.0
H2947 H 0.05608 0.29376 0.40722 0.0
H2948 H 0.06557 0.31693 0.43755 0.0
H2949 H 0.01392 0.33419 0.48454 0.0
H2950 H 0.05744 0.3495 0.58818 0.0
H2951 H 0.04134 0.33885 0.55373 0.0
H2952 H 0.09072 0.32653 0.50541 0.0
C2953 C 0.05042 0.30806 0.43801 0.0
C2954 C 0.0307 0.33242 0.48898 0.0
C2955 C 0.04496 0.29487 0.42058 0.0
C2956 C 0.06632 0.35271 0.57354 0.0
C2957 C 0.057 0.34677 0.5538 0.0
C2958 C 0.07401 0.32867 0.50088 0.0
C2959 C 0.03694 0.3092 0.45609 0.0
C2960 C 0.04469 0.32047 0.4759 0.0
C2961 C 0.06837 0.34983 0.53453 0.0
C2962 C 0.0601 0.34052 0.51402 0.0
H2963 H 0.99628 0.27605 0.43806 0.0
H2964 H 0.00626 0.29857 0.46927 0.0
H2965 H 0.07752 0.30915 0.47284 0.0
H2966 H 0.11398 0.37329 0.55497 0.0
H2967 H 0.09769 0.3629 0.5206 0.0
C2968 C 0.41826 0.73171 0.33555 0.0
C2969 C 0.43673 0.71921 0.33832 0.0
C2970 C 0.40097 0.72392 0.32312 0.0
C2971 C 0.38182 0.67464 0.29252 0.0
H2972 H 0.35924 0.71738 0.2535 0.0
C2973 C 0.35337 0.64926 0.20847 0.0
C2974 C 0.36236 0.66235 0.19234 0.0
C2975 C 0.35274 0.65654 0.22984 0.0
C2976 C 0.36535 0.70519 0.26428 0.0
H2977 H 0.45167 0.68879 0.33078 0.0
H2978 H 0.4225 0.67581 0.30792 0.0
H2979 H 0.37801 0.72901 0.28581 0.0
H2980 H 0.37668 0.69369 0.18568 0.0
H2981 H 0.37661 0.70587 0.2226 0.0
H2982 H 0.37151 0.65093 0.2696 0.0
C2983 C 0.42061 0.69117 0.31598 0.0
C2984 C 0.37588 0.71187 0.2831 0.0
C2985 C 0.43758 0.69873 0.32881 0.0
C2986 C 0.36976 0.68314 0.19775 0.0
C2987 C 0.3694 0.69028 0.21901 0.0
C2988 C 0.37187 0.66799 0.27336 0.0
C2989 C 0.4021 0.70371 0.31279 0.0
C2990 C 0.38554 0.69669 0.29671 0.0
C2991 C 0.36131 0.67693 0.23545 0.0
C2992 C 0.36489 0.68329 0.25833 0.0
H2993 H 0.41708 0.7474 0.34315 0.0
H2994 H 0.38689 0.73389 0.32141 0.0
H2995 H 0.38808 0.66244 0.30318 0.0
H2996 H 0.34712 0.6333 0.20466 0.0
H2997 H 0.34608 0.64596 0.242 0.0
C2998 C 0.07605 0.70255 0.09389 0.0
C2999 C 0.0548 0.70957 0.09655 0.0
C3000 C 0.08125 0.68881 0.07688 0.0
C3001 C 0.06164 0.6746 0.02281 0.0
H3002 H 0.10798 0.63328 0.02469 0.0
C3003 C 0.0894 0.63263 0.94613 0.0
C3004 C 0.11166 0.63446 0.94233 0.0
C3005 C 0.08112 0.63674 0.96654 0.0
C3006 C 0.09498 0.64474 0.024 0.0
H3007 H 0.02205 0.70654 0.08438 0.0
H3008 H 0.03104 0.68219 0.055 0.0
H3009 H 0.09516 0.64954 0.0582 0.0
H3010 H 0.14283 0.64068 0.95726 0.0
H3011 H 0.12825 0.64828 0.99294 0.0
H3012 H 0.06169 0.67023 0.98869 0.0
C3013 C 0.04381 0.68781 0.06566 0.0
C3014 C 0.08768 0.65408 0.04312 0.0
C3015 C 0.03866 0.70176 0.08249 0.0
C3016 C 0.12559 0.63936 0.95964 0.0
C3017 C 0.11727 0.64351 0.98011 0.0
C3018 C 0.06881 0.66519 0.0038 0.0
C3019 C 0.06526 0.68162 0.06232 0.0
C3020 C 0.07124 0.66948 0.04265 0.0
C3021 C 0.09491 0.64279 0.98357 0.0
C3022 C 0.08584 0.65053 0.00414 0.0
H3023 H 0.08884 0.70825 0.10451 0.0
H3024 H 0.09797 0.68459 0.07464 0.0
H3025 H 0.04926 0.68669 0.02176 0.0
H3026 H 0.07825 0.62845 0.93324 0.0
H3027 H 0.06385 0.63573 0.96887 0.0
C3028 C 0.04699 0.2729 0.84042 0.0
C3029 C 0.03773 0.2534 0.83299 0.0
C3030 C 0.06244 0.28376 0.82817 0.0
C3031 C 0.0982 0.28006 0.7806 0.0
H3032 H 0.07948 0.33855 0.77061 0.0
C3033 C 0.11281 0.32466 0.70137 0.0
C3034 C 0.1131 0.34731 0.70104 0.0
C3035 C 0.11017 0.31361 0.72072 0.0
C3036 C 0.08545 0.3225 0.77352 0.0
H3037 H 0.03875 0.22919 0.80766 0.0
H3038 H 0.06557 0.24833 0.78614 0.0
H3039 H 0.06319 0.31767 0.79919 0.0
H3040 H 0.11294 0.3761 0.72099 0.0
H3041 H 0.10893 0.35679 0.7549 0.0
H3042 H 0.12011 0.28478 0.75445 0.0
C3043 C 0.06093 0.25514 0.80152 0.0
C3044 C 0.07601 0.31047 0.78994 0.0
C3045 C 0.04545 0.24423 0.81379 0.0
C3046 C 0.11237 0.35865 0.72067 0.0
C3047 C 0.10999 0.34757 0.74009 0.0
C3048 C 0.10784 0.2922 0.76424 0.0
C3049 C 0.06898 0.27539 0.80822 0.0
C3050 C 0.08178 0.28892 0.79323 0.0
C3051 C 0.10801 0.32493 0.74026 0.0
C3052 C 0.10105 0.31335 0.76003 0.0
H3053 H 0.04171 0.28028 0.85531 0.0
H3054 H 0.06864 0.29917 0.8339 0.0
H3055 H 0.10315 0.26356 0.78297 0.0
H3056 H 0.11347 0.31539 0.68654 0.0
H3057 H 0.10852 0.29622 0.7201 0.0
C3058 C 0.45684 0.27166 0.57601 0.0
C3059 C 0.47929 0.27328 0.57864 0.0
C3060 C 0.44624 0.28473 0.56116 0.0
C3061 C 0.45444 0.33542 0.53033 0.0
H3062 H 0.40573 0.31425 0.49667 0.0
C3063 C 0.42759 0.36912 0.44881 0.0
C3064 C 0.40547 0.37064 0.44442 0.0
C3065 C 0.43472 0.36095 0.46844 0.0
C3066 C 0.41905 0.3205 0.50628 0.0
H3067 H 0.50841 0.2889 0.56705 0.0
H3068 H 0.49012 0.31097 0.54052 0.0
H3069 H 0.42232 0.29083 0.52327 0.0
H3070 H 0.37339 0.36598 0.45737 0.0
H3071 H 0.38594 0.35109 0.49173 0.0
H3072 H 0.45178 0.36469 0.51238 0.0
C3073 C 0.48052 0.30028 0.55045 0.0
C3074 C 0.42861 0.30708 0.5215 0.0
C3075 C 0.49106 0.28743 0.56547 0.0
C3076 C 0.39055 0.36509 0.46048 0.0
C3077 C 0.39769 0.35645 0.48 0.0
C3078 C 0.44505 0.34871 0.51492 0.0
C3079 C 0.45792 0.2995 0.54848 0.0
C3080 C 0.44672 0.31422 0.53339 0.0
C3081 C 0.41983 0.35377 0.48386 0.0
C3082 C 0.42753 0.34123 0.5025 0.0
H3083 H 0.44734 0.261 0.58608 0.0
H3084 H 0.42883 0.28376 0.56019 0.0
H3085 H 0.46796 0.34168 0.53963 0.0
H3086 H 0.43937 0.37332 0.43665 0.0
H3087 H 0.45186 0.35893 0.47095 0.0
C3088 C 0.19988 0.45832 0.2489 0.0
C3089 C 0.18242 0.46705 0.26009 0.0
C3090 C 0.21578 0.44698 0.25993 0.0
C3091 C 0.23725 0.43647 0.31497 0.0
H3092 H 0.26368 0.38796 0.28615 0.0
C3093 C 0.3018 0.38617 0.35695 0.0
C3094 C 0.32135 0.3881 0.34581 0.0
C3095 C 0.28243 0.39122 0.34662 0.0
C3096 C 0.25624 0.40134 0.29442 0.0
H3097 H 0.168 0.47106 0.2916 0.0
H3098 H 0.19523 0.45079 0.31072 0.0
H3099 H 0.23497 0.40755 0.26805 0.0
H3100 H 0.33608 0.39483 0.31498 0.0
H3101 H 0.30223 0.40291 0.29674 0.0
H3102 H 0.25855 0.4301 0.34135 0.0
C3103 C 0.19708 0.45307 0.29354 0.0
C3104 C 0.24001 0.41276 0.284 0.0
C3105 C 0.18141 0.46471 0.28256 0.0
C3106 C 0.32114 0.39324 0.32382 0.0
C3107 C 0.3018 0.39779 0.31341 0.0
C3108 C 0.25321 0.42482 0.32551 0.0
C3109 C 0.21433 0.44381 0.28234 0.0
C3110 C 0.23065 0.4308 0.29394 0.0
C3111 C 0.28242 0.39774 0.32495 0.0
C3112 C 0.26313 0.40745 0.31515 0.0
H3113 H 0.2011 0.45996 0.23158 0.0
H3114 H 0.22912 0.44061 0.25083 0.0
H3115 H 0.2307 0.4504 0.32307 0.0
H3116 H 0.30165 0.3824 0.37398 0.0
H3117 H 0.26762 0.39105 0.35579 0.0
C3118 C 0.33287 0.44017 0.99005 0.0
C3119 C 0.32883 0.42315 0.00436 0.0
C3120 C 0.34047 0.46005 -0.00218 0.0
C3121 C 0.36216 0.48817 0.04669 0.0
H3122 H 0.32697 0.53525 0.02654 0.0
C3123 C 0.34556 0.56369 0.09769 0.0
C3124 C 0.34569 0.58374 0.08729 0.0
C3125 C 0.34738 0.54467 0.08576 0.0
C3126 C 0.33721 0.52238 0.0321 0.0
H3127 H 0.33114 0.41294 0.03766 0.0
H3128 H 0.344 0.44756 0.05122 0.0
H3129 H 0.32508 0.50062 0.00806 0.0
H3130 H 0.34802 0.59957 0.05621 0.0
H3131 H 0.35097 0.56633 0.03546 0.0
H3132 H 0.37354 0.50982 0.07135 0.0
C3133 C 0.3415 0.44566 0.03402 0.0
C3134 C 0.33621 0.50255 0.02145 0.0
C3135 C 0.33393 0.42585 0.02628 0.0
C3136 C 0.34769 0.58437 0.06472 0.0
C3137 C 0.34939 0.56536 0.05281 0.0
C3138 C 0.36307 0.508 0.05741 0.0
C3139 C 0.34418 0.46319 0.02 0.0
C3140 C 0.34824 0.48506 0.02897 0.0
C3141 C 0.34927 0.54533 0.06321 0.0
C3142 C 0.35019 0.52511 0.05054 0.0
H3143 H 0.32926 0.43846 0.97302 0.0
H3144 H 0.34271 0.47319 0.98658 0.0
H3145 H 0.37188 0.47509 0.05264 0.0
H3146 H 0.34421 0.56267 0.11505 0.0
H3147 H 0.34694 0.52941 0.09416 0.0
C3148 C 0.30489 0.5165 0.73977 0.0
C3149 C 0.32209 0.50795 0.75164 0.0
C3150 C 0.28973 0.52958 0.74988 0.0
C3151 C 0.28158 0.56257 0.79922 0.0
H3152 H 0.22097 0.55335 0.78644 0.0
C3153 C 0.21211 0.58948 0.85481 0.0
C3154 C 0.19304 0.5963 0.84483 0.0
C3155 C 0.22925 0.5821 0.84231 0.0
C3156 C 0.23786 0.55639 0.78996 0.0
H3157 H 0.33659 0.5061 0.78353 0.0
H3158 H 0.31006 0.52839 0.80105 0.0
H3159 H 0.2478 0.53345 0.76631 0.0
H3160 H 0.17764 0.60258 0.81403 0.0
H3161 H 0.20753 0.58995 0.79238 0.0
H3162 H 0.27148 0.58509 0.82333 0.0
C3163 C 0.30854 0.52552 0.78387 0.0
C3164 C 0.25323 0.54498 0.77839 0.0
C3165 C 0.32367 0.51256 0.77381 0.0
C3166 C 0.19199 0.59702 0.8222 0.0
C3167 C 0.20907 0.58974 0.80978 0.0
C3168 C 0.26617 0.57392 0.81086 0.0
C3169 C 0.29146 0.53428 0.77204 0.0
C3170 C 0.27525 0.54772 0.78309 0.0
C3171 C 0.22757 0.58152 0.81968 0.0
C3172 C 0.24414 0.57077 0.80649 0.0
H3173 H 0.30326 0.51332 0.72266 0.0
H3174 H 0.2768 0.53621 0.7403 0.0
H3175 H 0.29846 0.56531 0.80296 0.0
H3176 H 0.21337 0.58878 0.87221 0.0
H3177 H 0.24332 0.57579 0.85038 0.0
C3178 C 0.15346 0.59944 0.55336 0.0
C3179 C 0.17186 0.59356 0.54173 0.0
C3180 C 0.13737 0.58417 0.55787 0.0
C3181 C 0.12176 0.52597 0.54863 0.0
H3182 H 0.10499 0.52966 0.60858 0.0
C3183 C 0.09778 0.44928 0.59316 0.0
C3184 C 0.10759 0.44731 0.61348 0.0
C3185 C 0.09643 0.4694 0.58327 0.0
C3186 C 0.10956 0.52829 0.59181 0.0
H3187 H 0.18723 0.56753 0.52451 0.0
H3188 H 0.15999 0.54073 0.53321 0.0
H3189 H 0.12052 0.56094 0.59118 0.0
H3190 H 0.12245 0.46486 0.64002 0.0
H3191 H 0.12127 0.49963 0.6225 0.0
H3192 H 0.11306 0.4927 0.54993 0.0
C3193 C 0.15739 0.55717 0.53839 0.0
C3194 C 0.11816 0.54646 0.58163 0.0
C3195 C 0.17321 0.57253 0.5335 0.0
C3196 C 0.11481 0.46593 0.62433 0.0
C3197 C 0.11393 0.48596 0.61426 0.0
C3198 C 0.11368 0.50767 0.55897 0.0
C3199 C 0.1396 0.56258 0.55129 0.0
C3200 C 0.12544 0.54522 0.5602 0.0
C3201 C 0.10536 0.48789 0.59328 0.0
C3202 C 0.10854 0.50831 0.58104 0.0
H3203 H 0.15182 0.61568 0.55957 0.0
H3204 H 0.12364 0.58914 0.56729 0.0
H3205 H 0.1264 0.52459 0.53188 0.0
H3206 H 0.0917 0.43516 0.58463 0.0
H3207 H 0.08914 0.47027 0.56741 0.0
C3208 C 0.15469 0.55444 0.18116 0.0
C3209 C 0.15364 0.54547 0.20187 0.0
C3210 C 0.16753 0.57256 0.17727 0.0
C3211 C 0.2161 0.59882 0.19898 0.0
H3212 H 0.20675 0.6367 0.15034 0.0
C3213 C 0.28694 0.64406 0.16465 0.0
C3214 C 0.29014 0.63825 0.14299 0.0
C3215 C 0.26671 0.64169 0.17399 0.0
C3216 C 0.20946 0.62642 0.16413 0.0
H3217 H 0.16407 0.54932 0.23509 0.0
H3218 H 0.1862 0.58138 0.22841 0.0
H3219 H 0.17669 0.61527 0.16449 0.0
H3220 H 0.2744 0.62773 0.11346 0.0
H3221 H 0.23897 0.62297 0.12998 0.0
H3222 H 0.2489 0.6093 0.19823 0.0
C3223 C 0.17754 0.57401 0.21503 0.0
C3224 C 0.19233 0.61406 0.17217 0.0
C3225 C 0.16491 0.55563 0.21886 0.0
C3226 C 0.27235 0.63211 0.13024 0.0
C3227 C 0.25206 0.62955 0.13968 0.0
C3228 C 0.23307 0.61133 0.19114 0.0
C3229 C 0.17944 0.58237 0.19405 0.0
C3230 C 0.19575 0.59932 0.189 0.0
C3231 C 0.24936 0.63328 0.1619 0.0
C3232 C 0.23017 0.62451 0.17304 0.0
H3233 H 0.14616 0.54702 0.16771 0.0
H3234 H 0.16887 0.57819 0.16084 0.0
H3235 H 0.21949 0.58755 0.21178 0.0
H3236 H 0.30034 0.64938 0.1747 0.0
H3237 H 0.26497 0.64507 0.19104 0.0
C3238 C 0.23707 0.42803 0.97676 0.0
C3239 C 0.24546 0.43011 -0.00223 0.0
C3240 C 0.22101 0.44172 0.96949 0.0
C3241 C 0.20004 0.49567 0.97914 0.0
H3242 H 0.15688 0.47718 0.93726 0.0
C3243 C 0.14841 0.55762 0.93625 0.0
C3244 C 0.14889 0.5559 0.91365 0.0
C3245 C 0.15469 0.54042 0.9491 0.0
C3246 C 0.1688 0.48254 0.94899 0.0
H3247 H 0.24298 0.44784 0.02788 0.0
H3248 H 0.21471 0.47174 0.01517 0.0
H3249 H 0.17842 0.4503 0.95594 0.0
H3250 H 0.15468 0.53425 0.88681 0.0
H3251 H 0.16602 0.50423 0.9093 0.0
H3252 H 0.19094 0.52788 0.9718 0.0
C3253 C 0.22083 0.45962 0.00426 0.0
C3254 C 0.18116 0.4672 0.95965 0.0
C3255 C 0.23701 0.44592 0.01154 0.0
C3256 C 0.15426 0.53609 0.90418 0.0
C3257 C 0.16065 0.51886 0.91707 0.0
C3258 C 0.18764 0.51097 0.96858 0.0
C3259 C 0.21284 0.45782 0.98305 0.0
C3260 C 0.19736 0.47365 0.97437 0.0
C3261 C 0.16165 0.52115 0.93963 0.0
C3262 C 0.1723 0.50461 0.95297 0.0
H3263 H 0.24317 0.41606 0.96567 0.0
H3264 H 0.21555 0.44014 0.95295 0.0
H3265 H 0.21254 0.50124 0.99014 0.0
H3266 H 0.14392 0.57255 0.94405 0.0
H3267 H 0.15487 0.54249 0.96644 0.0
C3268 C 0.34268 0.42595 0.70983 0.0
C3269 C 0.34392 0.4308 0.73193 0.0
C3270 C 0.32355 0.41802 0.7008 0.0
C3271 C 0.26876 0.39685 0.71266 0.0
H3272 H 0.25301 0.43116 0.66304 0.0
C3273 C 0.18095 0.40509 0.68392 0.0
C3274 C 0.17693 0.40511 0.6616 0.0
C3275 C 0.20203 0.40577 0.69182 0.0
C3276 C 0.25725 0.42116 0.67664 0.0
H3277 H 0.32682 0.42947 0.76227 0.0
H3278 H 0.29317 0.41585 0.74644 0.0
H3279 H 0.2891 0.43447 0.6781 0.0
H3280 H 0.1919 0.40579 0.63008 0.0
H3281 H 0.22872 0.40691 0.6439 0.0
H3282 H 0.23664 0.38387 0.71137 0.0
C3283 C 0.30703 0.41804 0.7361 0.0
C3284 C 0.27796 0.42302 0.68526 0.0
C3285 C 0.32628 0.42588 0.74517 0.0
C3286 C 0.19444 0.40603 0.64736 0.0
C3287 C 0.21554 0.40664 0.65528 0.0
C3288 C 0.24799 0.39495 0.70399 0.0
C3289 C 0.30524 0.41492 0.71368 0.0
C3290 C 0.28388 0.41108 0.7035 0.0
C3291 C 0.21956 0.40641 0.6776 0.0
C3292 C 0.24194 0.40732 0.68606 0.0
H3293 H 0.35618 0.42933 0.6993 0.0
H3294 H 0.32279 0.41527 0.68356 0.0
H3295 H 0.27294 0.38732 0.72662 0.0
H3296 H 0.16781 0.40437 0.69533 0.0
H3297 H 0.20458 0.40598 0.7091 0.0
C3298 C 0.26165 0.55307 0.49935 0.0
C3299 C 0.25337 0.5709 0.48837 0.0
C3300 C 0.27334 0.53746 0.48829 0.0
C3301 C 0.30794 0.53109 0.44152 0.0
H3302 H 0.29858 0.46995 0.45063 0.0
C3303 C 0.35316 0.46423 0.39434 0.0
C3304 C 0.35714 0.44501 0.4054 0.0
C3305 C 0.34141 0.48065 0.40425 0.0
C3306 C 0.30168 0.48698 0.44816 0.0
H3307 H 0.25024 0.58607 0.4571 0.0
H3308 H 0.27088 0.55884 0.43782 0.0
H3309 H 0.27493 0.49576 0.46786 0.0
H3310 H 0.35373 0.42845 0.43585 0.0
H3311 H 0.33426 0.45731 0.45345 0.0
H3312 H 0.33502 0.52236 0.4222 0.0
C3313 C 0.26834 0.55701 0.45498 0.0
C3314 C 0.288 0.50172 0.45793 0.0
C3315 C 0.25639 0.57247 0.46599 0.0
C3316 C 0.35063 0.44306 0.42692 0.0
C3317 C 0.33927 0.45951 0.4369 0.0
C3318 C 0.32181 0.51632 0.43189 0.0
C3319 C 0.27719 0.53955 0.46609 0.0
C3320 C 0.29106 0.52392 0.45482 0.0
C3321 C 0.33373 0.47813 0.42544 0.0
C3322 C 0.31896 0.49408 0.43527 0.0
H3323 H 0.25957 0.55144 0.51659 0.0
H3324 H 0.28005 0.52418 0.49725 0.0
H3325 H 0.31077 0.54817 0.43904 0.0
H3326 H 0.35789 0.466 0.37765 0.0
H3327 H 0.33742 0.49477 0.39494 0.0
C3328 C 0.27447 0.21042 0.45622 0.0
C3329 C 0.28288 0.19413 0.46934 0.0
C3330 C 0.2871 0.21986 0.44015 0.0
C3331 C 0.34319 0.23188 0.42777 0.0
H3332 H 0.31878 0.25186 0.37393 0.0
C3333 C 0.38524 0.29954 0.38195 0.0
C3334 C 0.371 0.31677 0.3798 0.0
C3335 C 0.37713 0.27867 0.38556 0.0
C3336 C 0.32594 0.24617 0.38877 0.0
H3337 H 0.31107 0.17461 0.47542 0.0
H3338 H 0.33308 0.19126 0.4475 0.0
H3339 H 0.29858 0.22608 0.39586 0.0
H3340 H 0.3375 0.32574 0.37736 0.0
H3341 H 0.32339 0.28969 0.38339 0.0
H3342 H 0.36986 0.253 0.4215 0.0
C3343 C 0.31673 0.19673 0.44972 0.0
C3344 C 0.31434 0.23152 0.40136 0.0
C3345 C 0.30408 0.18723 0.46572 0.0
C3346 C 0.34875 0.31264 0.37913 0.0
C3347 C 0.34069 0.29191 0.3824 0.0
C3348 C 0.35475 0.24661 0.41523 0.0
C3349 C 0.30844 0.21327 0.43689 0.0
C3350 C 0.32243 0.22501 0.42146 0.0
C3351 C 0.35473 0.27486 0.38672 0.0
C3352 C 0.34576 0.25474 0.39614 0.0
H3353 H 0.2582 0.21609 0.45847 0.0
H3354 H 0.28036 0.23283 0.43077 0.0
H3355 H 0.34985 0.22721 0.4432 0.0
H3356 H 0.40249 0.30244 0.38254 0.0
H3357 H 0.38832 0.26579 0.38867 0.0
C3358 C 0.73612 0.31116 0.54604 0.0
C3359 C 0.74551 0.33007 0.53786 0.0
C3360 C 0.74829 0.29731 0.55882 0.0
C3361 C 0.80502 0.28374 0.56952 0.0
H3362 H 0.77956 0.24706 0.6132 0.0
C3363 C 0.85239 0.21449 0.60663 0.0
C3364 C 0.84168 0.19477 0.60273 0.0
C3365 C 0.8412 0.23383 0.60496 0.0
C3366 C 0.78691 0.25742 0.60122 0.0
H3367 H 0.77447 0.35005 0.53753 0.0
H3368 H 0.79537 0.32641 0.5603 0.0
H3369 H 0.75848 0.27626 0.59777 0.0
H3370 H 0.8107 0.17954 0.59592 0.0
H3371 H 0.79125 0.21318 0.5931 0.0
H3372 H 0.83322 0.2646 0.57261 0.0
C3373 C 0.77894 0.32175 0.55631 0.0
C3374 C 0.77482 0.27397 0.59224 0.0
C3375 C 0.76695 0.33531 0.54325 0.0
C3376 C 0.81941 0.19457 0.59862 0.0
C3377 C 0.80822 0.2138 0.5973 0.0
C3378 C 0.81715 0.26739 0.57867 0.0
C3379 C 0.76993 0.30238 0.56392 0.0
C3380 C 0.78351 0.28684 0.57575 0.0
C3381 C 0.81911 0.23361 0.59982 0.0
C3382 C 0.80795 0.25363 0.59404 0.0
H3383 H 0.71958 0.30683 0.54217 0.0
H3384 H 0.74091 0.28236 0.56414 0.0
H3385 H 0.81219 0.2931 0.55668 0.0
H3386 H 0.86953 0.21503 0.61002 0.0
H3387 H 0.8499 0.24896 0.60701 0.0
C3388 C 0.40015 0.0639 0.30677 0.0
C3389 C 0.40061 0.04585 0.29299 0.0
C3390 C 0.41599 0.06691 0.32264 0.0
C3391 C 0.46191 0.04042 0.3507 0.0
H3392 H 0.48652 0.09814 0.34995 0.0
C3393 C 0.5509 0.06073 0.36995 0.0
C3394 C 0.5561 0.08127 0.37825 0.0
C3395 C 0.52941 0.05495 0.36573 0.0
C3396 C 0.47964 0.08203 0.35083 0.0
H3397 H 0.41747 0.0162 0.28592 0.0
H3398 H 0.44527 0.02172 0.31316 0.0
H3399 H 0.45296 0.09081 0.33111 0.0
H3400 H 0.54283 0.11093 0.39081 0.0
H3401 H 0.50541 0.1007 0.38387 0.0
H3402 H 0.48931 0.03155 0.36973 0.0
C3403 C 0.43252 0.03342 0.31196 0.0
C3404 C 0.46031 0.07782 0.33998 0.0
C3405 C 0.41664 0.03034 0.29618 0.0
C3406 C 0.53934 0.09515 0.384 0.0
C3407 C 0.5179 0.08931 0.37997 0.0
C3408 C 0.48135 0.04464 0.36156 0.0
C3409 C 0.43271 0.05201 0.32501 0.0
C3410 C 0.45147 0.05686 0.33931 0.0
C3411 C 0.51275 0.06955 0.36991 0.0
C3412 C 0.49068 0.06541 0.36131 0.0
H3413 H 0.38788 0.07601 0.30499 0.0
H3414 H 0.41544 0.08121 0.3327 0.0
H3415 H 0.45534 0.02416 0.35077 0.0
H3416 H 0.56345 0.04965 0.36541 0.0
H3417 H 0.52603 0.03963 0.35789 0.0
C3418 C 0.76318 0.68731 0.07391 0.0
C3419 C 0.75011 0.67607 0.05897 0.0
C3420 C 0.75476 0.70449 0.08581 0.0
C3421 C 0.70215 0.72599 0.1027 0.0
H3422 H 0.7324 0.78066 0.10924 0.0
C3423 C 0.6794 0.82016 0.10891 0.0
C3424 C 0.66096 0.8185 0.12181 0.0
C3425 C 0.69311 0.80268 0.10667 0.0
C3426 C 0.72372 0.76549 0.10753 0.0
H3427 H 0.7185 0.67457 0.0439 0.0
H3428 H 0.70415 0.70461 0.06398 0.0
H3429 H 0.75105 0.74989 0.09371 0.0
H3430 H 0.64315 0.79804 0.1438 0.0
H3431 H 0.66751 0.76767 0.14058 0.0
H3432 H 0.6744 0.74163 0.11476 0.0
C3433 C 0.72058 0.69984 0.06718 0.0
C3434 C 0.73452 0.74781 0.09889 0.0
C3435 C 0.72888 0.68273 0.05551 0.0
C3436 C 0.65701 0.79947 0.13331 0.0
C3437 C 0.67098 0.78213 0.13146 0.0
C3438 C 0.69132 0.74363 0.11102 0.0
C3439 C 0.73321 0.71059 0.08282 0.0
C3440 C 0.72351 0.72815 0.09558 0.0
C3441 C 0.68889 0.78331 0.11765 0.0
C3442 C 0.70171 0.76383 0.11279 0.0
H3443 H 0.77962 0.68243 0.07687 0.0
H3444 H 0.76487 0.71258 0.09768 0.0
H3445 H 0.69343 0.71084 0.10087 0.0
H3446 H 0.68286 0.83474 0.09995 0.0
H3447 H 0.70647 0.80414 0.0956 0.0
C3448 C 0.54694 0.52207 0.27397 0.0
C3449 C 0.56216 0.50828 0.26468 0.0
C3450 C 0.53453 0.51524 0.29146 0.0
C3451 C 0.5309 0.47354 0.33414 0.0
H3452 H 0.46948 0.4825 0.32871 0.0
C3453 C 0.46604 0.41748 0.36992 0.0
C3454 C 0.44545 0.42579 0.37341 0.0
C3455 C 0.48277 0.4311 0.36303 0.0
C3456 C 0.48662 0.48027 0.33093 0.0
H3457 H 0.57642 0.47655 0.26679 0.0
H3458 H 0.55458 0.46463 0.29693 0.0
H3459 H 0.4938 0.4998 0.30359 0.0
H3460 H 0.42661 0.45484 0.3751 0.0
H3461 H 0.45599 0.47879 0.36419 0.0
H3462 H 0.52352 0.45334 0.36111 0.0
C3463 C 0.55247 0.48083 0.29094 0.0
C3464 C 0.50059 0.49019 0.31641 0.0
C3465 C 0.56483 0.48762 0.27346 0.0
C3466 C 0.44239 0.44811 0.37232 0.0
C3467 C 0.45915 0.46175 0.36587 0.0
C3468 C 0.51689 0.46364 0.34877 0.0
C3469 C 0.5371 0.4945 0.30007 0.0
C3470 C 0.52282 0.48646 0.31745 0.0
C3471 C 0.47912 0.45322 0.35981 0.0
C3472 C 0.49451 0.46644 0.34698 0.0
H3473 H 0.54456 0.53814 0.26773 0.0
H3474 H 0.52288 0.52618 0.29824 0.0
H3475 H 0.54802 0.47067 0.33555 0.0
H3476 H 0.46867 0.40026 0.3705 0.0
H3477 H 0.4979 0.42394 0.35847 0.0
C3478 C 0.21631 0.83161 0.9461 0.0
C3479 C 0.19779 0.84443 0.94664 0.0
C3480 C 0.21709 0.81342 0.93274 0.0
C3481 C 0.18757 0.78365 0.88877 0.0
H3482 H 0.20623 0.73338 0.92029 0.0
C3483 C 0.1499 0.69949 0.87861 0.0
C3484 C 0.16266 0.68118 0.88146 0.0
C3485 C 0.15889 0.72014 0.88072 0.0
C3486 C 0.2014 0.74724 0.91098 0.0
H3487 H 0.16615 0.84892 0.9324 0.0
H3488 H 0.16728 0.81707 0.90966 0.0
H3489 H 0.21391 0.76908 0.93473 0.0
H3490 H 0.19523 0.6702 0.8873 0.0
H3491 H 0.21089 0.70635 0.89118 0.0
H3492 H 0.17392 0.76152 0.86566 0.0
C3493 C 0.18137 0.82115 0.91928 0.0
C3494 C 0.20584 0.76779 0.91926 0.0
C3495 C 0.18064 0.83939 0.93252 0.0
C3496 C 0.1849 0.68397 0.8852 0.0
C3497 C 0.19387 0.70466 0.88747 0.0
C3498 C 0.18302 0.76305 0.88054 0.0
C3499 C 0.19933 0.80757 0.91971 0.0
C3500 C 0.19831 0.78623 0.90866 0.0
C3501 C 0.18084 0.72294 0.88582 0.0
C3502 C 0.18925 0.74463 0.89196 0.0
H3503 H 0.22996 0.83518 0.95653 0.0
H3504 H 0.23135 0.80355 0.93314 0.0
H3505 H 0.18195 0.79753 0.87995 0.0
H3506 H 0.13276 0.69791 0.87549 0.0
H3507 H 0.14836 0.73387 0.87954 0.0
C3508 C 0.41533 0.95913 0.22744 0.0
C3509 C 0.41609 0.98064 0.22043 0.0
C3510 C 0.42977 0.9441 0.2193 0.0
C3511 C 0.4644 0.93427 0.17266 0.0
H3512 H 0.49791 0.89888 0.21137 0.0
C3513 C 0.54892 0.90733 0.15411 0.0
C3514 C 0.55621 0.88717 0.16097 0.0
C3515 C 0.52816 0.91389 0.15886 0.0
C3516 C 0.48828 0.9082 0.20029 0.0
H3517 H 0.43279 0.00345 0.19985 0.0
H3518 H 0.4581 0.97723 0.18572 0.0
H3519 H 0.46869 0.92062 0.22569 0.0
H3520 H 0.54729 0.85758 0.17728 0.0
H3521 H 0.51072 0.86937 0.18607 0.0
H3522 H 0.48451 0.92256 0.14741 0.0
C3523 C 0.44614 0.97194 0.19728 0.0
C3524 C 0.47165 0.92072 0.2085 0.0
C3525 C 0.43183 0.98699 0.20553 0.0
C3526 C 0.54203 0.87324 0.17189 0.0
C3527 C 0.5212 0.87997 0.17694 0.0
C3528 C 0.48093 0.92172 0.16446 0.0
C3529 C 0.44506 0.95032 0.20389 0.0
C3530 C 0.46019 0.93452 0.19486 0.0
C3531 C 0.51425 0.90051 0.17072 0.0
C3532 C 0.49362 0.90929 0.17834 0.0
H3533 H 0.40335 0.95378 0.23894 0.0
H3534 H 0.42865 0.92754 0.22468 0.0
H3535 H 0.45541 0.94438 0.16174 0.0
H3536 H 0.55946 0.91828 0.14543 0.0
H3537 H 0.52338 0.92992 0.15411 0.0
C3538 C 0.07239 0.0396 0.6641 0.0
C3539 C 0.0736 0.01818 0.67111 0.0
C3540 C 0.05662 0.0456 0.64933 0.0
C3541 C 0.00197 0.03193 0.63608 0.0
H3542 H 0.00925 0.07613 0.59264 0.0
C3543 C 0.92918 0.07899 0.60953 0.0
C3544 C 0.93246 0.10138 0.60956 0.0
C3545 C 0.94667 0.0652 0.60859 0.0
C3546 C 0.00693 0.06377 0.60469 0.0
H3547 H 0.06 0.98599 0.66752 0.0
H3548 H 0.03189 0.99667 0.64199 0.0
H3549 H 0.04081 0.05776 0.60697 0.0
H3550 H 0.95606 0.12717 0.60714 0.0
H3551 H 0.98696 0.10317 0.60691 0.0
H3552 H 0.96853 0.03887 0.63535 0.0
C3553 C 0.04329 0.00873 0.64785 0.0
C3554 C 0.02497 0.05318 0.61277 0.0
C3555 C 0.05929 0.00266 0.66248 0.0
C3556 C 0.95331 0.10989 0.60724 0.0
C3557 C 0.97093 0.09608 0.6069 0.0
C3558 C 0.98401 0.04264 0.62823 0.0
C3559 C 0.04161 0.03034 0.64145 0.0
C3560 C 0.02268 0.03777 0.62914 0.0
C3561 C 0.96783 0.07357 0.60842 0.0
C3562 C 0.98633 0.0593 0.61305 0.0
H3563 H 0.08335 0.05187 0.67034 0.0
H3564 H 0.0555 0.06243 0.64495 0.0
H3565 H -0.00026 0.02028 0.64886 0.0
H3566 H 0.91309 0.07215 0.61085 0.0
H3567 H 0.94361 0.04798 0.60906 0.0
loop_
_geom_bond_atom_site_label_1
_geom_bond_atom_site_label_2
_geom_bond_distance
_geom_bond_site_symmetry_2
_ccdc_geom_bond_type
Co0 O1 2.216 1_655 S
Co0 O2 2.091 . S
Co0 O4 2.004 . S
Co0 O10 2.021 1_655 S
Co0 O12 2.140 . S
Co0 O13 2.244 1_655 S
O1 Co0 2.216 1_455 S
O1 C8 1.247 1_455 S
O2 Co0 2.091 . S
O2 C8 1.261 . S
C3 O12 1.225 1_455 S
C3 O13 1.272 . S
O4 Co0 2.004 . S
O4 C9 1.259 . S
Co5 O6 2.061 . S
Co5 O11 2.052 . S
Co5 O13 2.135 . S
O6 Co5 2.061 . S
O6 C9 1.235 1_455 S
C7 O10 1.238 . S
C7 O11 1.241 . S
C8 O1 1.247 1_655 S
C8 O2 1.261 . S
C9 O4 1.259 . S
C9 O6 1.235 1_655 S
O10 Co0 2.021 1_455 S
O10 C7 1.238 . S
O11 Co5 2.052 . S
O11 C7 1.241 . S
O12 Co0 2.140 . S
O12 C3 1.225 1_655 S
O13 Co0 2.244 1_455 S
O13 C3 1.272 . S
O13 Co5 2.135 . S
Co14 O15 2.216 . S
Co14 O16 2.091 . S
Co14 O18 2.004 1_655 S
Co14 O24 2.021 1_655 S
Co14 O26 2.137 . S
Co14 O27 2.244 . S
O15 Co14 2.216 . S
O15 C22 1.247 . S
O16 Co14 2.091 . S
O16 C22 1.261 . S
C17 O26 1.247 . S
C17 O27 1.272 . S
O18 Co14 2.004 1_455 S
O18 C23 1.259 . S
Co19 O20 2.061 . S
Co19 O25 2.052 . S
Co19 O27 2.135 1_455 S
O20 Co19 2.061 . S
O20 C23 1.235 . S
C21 O24 1.238 . S
C21 O25 1.241 . S
C22 O15 1.247 . S
C22 O16 1.261 . S
C23 O18 1.259 . S
C23 O20 1.235 . S
O24 Co14 2.021 1_455 S
O24 C21 1.238 . S
O25 Co19 2.052 . S
O25 C21 1.241 . S
O26 Co14 2.137 . S
O26 C17 1.247 . S
O27 Co14 2.244 . S
O27 C17 1.272 . S
O27 Co19 2.135 1_655 S
Co28 O29 2.216 . S
Co28 O30 2.091 . S
Co28 O32 2.004 . S
Co28 O38 2.021 . S
Co28 O40 2.137 . S
Co28 O41 2.244 . S
O29 Co28 2.216 . S
O29 C36 1.247 . S
O30 Co28 2.091 . S
O30 C36 1.261 . S
C31 O40 1.247 . S
C31 O41 1.272 . S
O32 Co28 2.004 . S
O32 C37 1.259 . S
Co33 O34 2.061 . S
Co33 O39 2.052 . S
Co33 O41 2.135 . S
O34 Co33 2.061 . S
O34 C37 1.235 . S
C35 O38 1.238 . S
C35 O39 1.241 . S
C36 O29 1.247 . S
C36 O30 1.261 . S
C37 O32 1.259 . S
C37 O34 1.235 . S
O38 Co28 2.021 . S
O38 C35 1.238 . S
O39 Co33 2.052 . S
O39 C35 1.241 . S
O40 Co28 2.137 . S
O40 C31 1.247 . S
O41 Co28 2.244 . S
O41 C31 1.272 . S
O41 Co33 2.135 . S
Co42 O43 2.216 . S
Co42 O44 2.091 . S
Co42 O46 2.004 . S
Co42 O52 2.021 . S
Co42 O54 2.137 . S
Co42 O55 2.244 . S
O43 Co42 2.216 . S
O43 C50 1.247 . S
O44 Co42 2.091 . S
O44 C50 1.261 . S
C45 O54 1.247 . S
C45 O55 1.272 . S
O46 Co42 2.004 . S
O46 C51 1.259 . S
Co47 O48 2.061 . S
Co47 O53 2.052 . S
Co47 O55 2.135 . S
O48 Co47 2.061 . S
O48 C51 1.235 . S
C49 O52 1.238 . S
C49 O53 1.241 . S
C50 O43 1.247 . S
C50 O44 1.261 . S
C51 O46 1.259 . S
C51 O48 1.235 . S
O52 Co42 2.021 . S
O52 C49 1.238 . S
O53 Co47 2.052 . S
O53 C49 1.241 . S
O54 Co42 2.137 . S
O54 C45 1.247 . S
O55 Co42 2.244 . S
O55 C45 1.272 . S
O55 Co47 2.135 . S
Co56 O57 2.216 1_655 S
Co56 O58 2.091 . S
Co56 O60 2.004 . S
Co56 O66 2.021 1_655 S
Co56 O68 2.137 . S
Co56 O69 2.244 1_655 S
O57 Co56 2.216 1_455 S
O57 C64 1.247 1_455 S
O58 Co56 2.091 . S
O58 C64 1.261 . S
C59 O68 1.247 1_455 S
C59 O69 1.272 . S
O60 Co56 2.004 . S
O60 C65 1.259 . S
Co61 O62 2.061 . S
Co61 O67 2.052 . S
Co61 O69 2.135 . S
O62 Co61 2.061 . S
O62 C65 1.235 1_455 S
C63 O66 1.238 . S
C63 O67 1.241 . S
C64 O57 1.247 1_655 S
C64 O58 1.261 . S
C65 O60 1.259 . S
C65 O62 1.235 1_655 S
O66 Co56 2.021 1_455 S
O66 C63 1.238 . S
O67 Co61 2.052 . S
O67 C63 1.241 . S
O68 Co56 2.137 . S
O68 C59 1.247 1_655 S
O69 Co56 2.244 1_455 S
O69 C59 1.272 . S
O69 Co61 2.135 . S
Co70 O71 2.216 . S
Co70 O72 2.091 . S
Co70 O74 2.004 . S
Co70 O80 2.021 . S
Co70 O82 2.137 . S
Co70 O83 2.244 . S
O71 Co70 2.216 . S
O71 C78 1.247 . S
O72 Co70 2.091 . S
O72 C78 1.261 . S
C73 O82 1.247 . S
C73 O83 1.272 . S
O74 Co70 2.004 . S
O74 C79 1.259 . S
Co75 O76 2.061 . S
Co75 O81 2.052 . S
Co75 O83 2.135 . S
O76 Co75 2.061 . S
O76 C79 1.235 . S
C77 O80 1.238 . S
C77 O81 1.241 . S
C78 O71 1.247 . S
C78 O72 1.261 . S
C79 O74 1.259 . S
C79 O76 1.235 . S
O80 Co70 2.021 . S
O80 C77 1.238 . S
O81 Co75 2.052 . S
O81 C77 1.241 . S
O82 Co70 2.137 . S
O82 C73 1.247 . S
O83 Co70 2.244 . S
O83 C73 1.272 . S
O83 Co75 2.135 . S
Co84 O85 2.216 . S
Co84 O86 2.091 . S
Co84 O88 2.004 . S
Co84 O94 2.021 . S
Co84 O96 2.137 . S
Co84 O97 2.244 . S
O85 Co84 2.216 . S
O85 C92 1.247 . S
O86 Co84 2.091 . S
O86 C92 1.261 . S
C87 O96 1.247 . S
C87 O97 1.272 . S
O88 Co84 2.004 . S
O88 C93 1.259 . S
Co89 O90 2.061 . S
Co89 O95 2.052 . S
Co89 O97 2.135 . S
O90 Co89 2.061 . S
O90 C93 1.235 . S
C91 O94 1.238 . S
C91 O95 1.241 . S
C92 O85 1.247 . S
C92 O86 1.261 . S
C93 O88 1.259 . S
C93 O90 1.235 . S
O94 Co84 2.021 . S
O94 C91 1.238 . S
O95 Co89 2.052 . S
O95 C91 1.241 . S
O96 Co84 2.137 . S
O96 C87 1.247 . S
O97 Co84 2.244 . S
O97 C87 1.272 . S
O97 Co89 2.135 . S
Co98 O99 2.216 . S
Co98 O100 2.091 . S
Co98 O102 2.004 1_655 S
Co98 O108 2.021 1_655 S
Co98 O110 2.137 . S
Co98 O111 2.244 . S
O99 Co98 2.216 . S
O99 C106 1.247 . S
O100 Co98 2.091 . S
O100 C106 1.261 . S
C101 O110 1.247 . S
C101 O111 1.272 . S
O102 Co98 2.004 1_455 S
O102 C107 1.259 . S
Co103 O104 2.061 . S
Co103 O109 2.052 . S
Co103 O111 2.135 1_455 S
O104 Co103 2.061 . S
O104 C107 1.235 . S
C105 O108 1.238 . S
C105 O109 1.241 . S
C106 O99 1.247 . S
C106 O100 1.261 . S
C107 O102 1.259 . S
C107 O104 1.235 . S
O108 Co98 2.021 1_455 S
O108 C105 1.238 . S
O109 Co103 2.052 . S
O109 C105 1.241 . S
O110 Co98 2.137 . S
O110 C101 1.247 . S
O111 Co98 2.244 . S
O111 C101 1.272 . S
O111 Co103 2.135 1_655 S
Co112 O113 2.207 1_565 S
Co112 O114 2.091 . S
Co112 O116 2.004 . S
Co112 O122 2.021 1_565 S
Co112 O124 2.137 . S
Co112 O125 2.244 1_565 S
O113 Co112 2.207 1_545 S
O113 C120 1.195 1_545 S
O114 Co112 2.091 . S
O114 C120 1.261 . S
C115 O124 1.247 1_545 S
C115 O125 1.272 . S
O116 Co112 2.004 . S
O116 C121 1.259 . S
Co117 O118 2.061 . S
Co117 O123 2.052 . S
Co117 O125 2.135 . S
O118 Co117 2.061 . S
O118 C121 1.235 1_545 S
C119 O122 1.238 . S
C119 O123 1.241 . S
C120 O113 1.195 1_565 S
C120 O114 1.261 . S
C121 O116 1.259 . S
C121 O118 1.235 1_565 S
O122 Co112 2.021 1_545 S
O122 C119 1.238 . S
O123 Co117 2.052 . S
O123 C119 1.241 . S
O124 Co112 2.137 . S
O124 C115 1.247 1_565 S
O125 Co112 2.244 1_545 S
O125 C115 1.272 . S
O125 Co117 2.135 . S
Co126 O127 2.216 . S
Co126 O128 2.091 . S
Co126 O130 2.004 . S
Co126 O136 2.021 . S
Co126 O138 2.137 . S
Co126 O139 2.244 . S
O127 Co126 2.216 . S
O127 C134 1.247 . S
O128 Co126 2.091 . S
O128 C134 1.261 . S
C129 O138 1.247 . S
C129 O139 1.272 . S
O130 Co126 2.004 . S
O130 C135 1.259 . S
Co131 O132 2.061 . S
Co131 O137 2.052 . S
Co131 O139 2.135 . S
O132 Co131 2.061 . S
O132 C135 1.235 . S
C133 O136 1.238 . S
C133 O137 1.241 . S
C134 O127 1.247 . S
C134 O128 1.261 . S
C135 O130 1.259 . S
C135 O132 1.235 . S
O136 Co126 2.021 . S
O136 C133 1.238 . S
O137 Co131 2.052 . S
O137 C133 1.241 . S
O138 Co126 2.137 . S
O138 C129 1.247 . S
O139 Co126 2.244 . S
O139 C129 1.272 . S
O139 Co131 2.135 . S
Co140 O141 2.216 1_565 S
Co140 O142 2.091 . S
Co140 O144 2.004 . S
Co140 O150 2.021 1_565 S
Co140 O152 2.143 . S
Co140 O153 2.244 1_565 S
O141 Co140 2.216 1_545 S
O141 C148 1.247 1_545 S
O142 Co140 2.091 . S
O142 C148 1.261 . S
C143 O152 1.205 1_545 S
C143 O153 1.272 . S
O144 Co140 2.004 . S
O144 C149 1.259 . S
Co145 O146 2.061 . S
Co145 O151 2.052 . S
Co145 O153 2.135 . S
O146 Co145 2.061 . S
O146 C149 1.235 1_545 S
C147 O150 1.238 . S
C147 O151 1.241 . S
C148 O141 1.247 1_565 S
C148 O142 1.261 . S
C149 O144 1.259 . S
C149 O146 1.235 1_565 S
O150 Co140 2.021 1_545 S
O150 C147 1.238 . S
O151 Co145 2.052 . S
O151 C147 1.241 . S
O152 Co140 2.143 . S
O152 C143 1.205 1_565 S
O153 Co140 2.244 1_545 S
O153 C143 1.272 . S
O153 Co145 2.135 . S
Co154 O155 2.216 . S
Co154 O156 2.091 . S
Co154 O158 2.004 1_554 S
Co154 O164 2.021 1_554 S
Co154 O166 2.137 . S
Co154 O167 2.244 . S
O155 Co154 2.216 . S
O155 C162 1.247 . S
O156 Co154 2.091 . S
O156 C162 1.261 . S
C157 O166 1.247 . S
C157 O167 1.272 . S
O158 Co154 2.004 1_556 S
O158 C163 1.259 . S
Co159 O160 2.061 . S
Co159 O165 2.052 . S
Co159 O167 2.135 1_556 S
O160 Co159 2.061 . S
O160 C163 1.235 . S
C161 O164 1.238 . S
C161 O165 1.241 . S
C162 O155 1.247 . S
C162 O156 1.261 . S
C163 O158 1.259 . S
C163 O160 1.235 . S
O164 Co154 2.021 1_556 S
O164 C161 1.238 . S
O165 Co159 2.052 . S
O165 C161 1.241 . S
O166 Co154 2.137 . S
O166 C157 1.247 . S
O167 Co154 2.244 . S
O167 C157 1.272 . S
O167 Co159 2.135 1_554 S
Co168 O169 2.216 1_556 S
Co168 O170 2.091 . S
Co168 O172 2.004 . S
Co168 O178 2.021 1_556 S
Co168 O180 2.141 . S
Co168 O181 2.244 1_556 S
O169 Co168 2.216 1_554 S
O169 C176 1.247 1_554 S
O170 Co168 2.091 . S
O170 C176 1.261 . S
C171 O180 1.214 1_554 S
C171 O181 1.272 . S
O172 Co168 2.004 . S
O172 C177 1.259 . S
Co173 O174 2.061 . S
Co173 O179 2.052 . S
Co173 O181 2.135 . S
O174 Co173 2.061 . S
O174 C177 1.235 1_554 S
C175 O178 1.238 . S
C175 O179 1.241 . S
C176 O169 1.247 1_556 S
C176 O170 1.261 . S
C177 O172 1.259 . S
C177 O174 1.235 1_556 S
O178 Co168 2.021 1_554 S
O178 C175 1.238 . S
O179 Co173 2.052 . S
O179 C175 1.241 . S
O180 Co168 2.141 . S
O180 C171 1.214 1_556 S
O181 Co168 2.244 1_554 S
O181 C171 1.272 . S
O181 Co173 2.135 . S
Co182 O183 2.207 1_556 S
Co182 O184 2.091 . S
Co182 O186 2.004 . S
Co182 O192 2.021 1_556 S
Co182 O194 2.137 . S
Co182 O195 2.244 1_556 S
O183 Co182 2.207 1_554 S
O183 C190 1.197 1_554 S
O184 Co182 2.091 . S
O184 C190 1.261 . S
C185 O194 1.247 1_554 S
C185 O195 1.272 . S
O186 Co182 2.004 . S
O186 C191 1.259 . S
Co187 O188 2.061 . S
Co187 O193 2.052 . S
Co187 O195 2.135 . S
O188 Co187 2.061 . S
O188 C191 1.235 1_554 S
C189 O192 1.238 . S
C189 O193 1.241 . S
C190 O183 1.197 1_556 S
C190 O184 1.261 . S
C191 O186 1.259 . S
C191 O188 1.235 1_556 S
O192 Co182 2.021 1_554 S
O192 C189 1.238 . S
O193 Co187 2.052 . S
O193 C189 1.241 . S
O194 Co182 2.137 . S
O194 C185 1.247 1_556 S
O195 Co182 2.244 1_554 S
O195 C185 1.272 . S
O195 Co187 2.135 . S
Co196 O197 2.216 . S
Co196 O198 2.091 . S
Co196 O200 2.004 . S
Co196 O206 2.021 . S
Co196 O208 2.137 . S
Co196 O209 2.244 . S
O197 Co196 2.216 . S
O197 C204 1.247 . S
O198 Co196 2.091 . S
O198 C204 1.261 . S
C199 O208 1.247 . S
C199 O209 1.272 . S
O200 Co196 2.004 . S
O200 C205 1.259 . S
Co201 O202 2.061 . S
Co201 O207 2.052 . S
Co201 O209 2.135 . S
O202 Co201 2.061 . S
O202 C205 1.235 . S
C203 O206 1.238 . S
C203 O207 1.241 . S
C204 O197 1.247 . S
C204 O198 1.261 . S
C205 O200 1.259 . S
C205 O202 1.235 . S
O206 Co196 2.021 . S
O206 C203 1.238 . S
O207 Co201 2.052 . S
O207 C203 1.241 . S
O208 Co196 2.137 . S
O208 C199 1.247 . S
O209 Co196 2.244 . S
O209 C199 1.272 . S
O209 Co201 2.135 . S
Co210 O211 2.216 . S
Co210 O212 2.091 . S
Co210 O214 2.004 . S
Co210 O220 2.021 . S
Co210 O222 2.137 . S
Co210 O223 2.244 . S
O211 Co210 2.216 . S
O211 C218 1.247 . S
O212 Co210 2.091 . S
O212 C218 1.261 . S
C213 O222 1.247 . S
C213 O223 1.272 . S
O214 Co210 2.004 . S
O214 C219 1.259 . S
Co215 O216 2.061 . S
Co215 O221 2.052 . S
Co215 O223 2.135 . S
O216 Co215 2.061 . S
O216 C219 1.235 . S
C217 O220 1.238 . S
C217 O221 1.241 . S
C218 O211 1.247 . S
C218 O212 1.261 . S
C219 O214 1.259 . S
C219 O216 1.235 . S
O220 Co210 2.021 . S
O220 C217 1.238 . S
O221 Co215 2.052 . S
O221 C217 1.241 . S
O222 Co210 2.137 . S
O222 C213 1.247 . S
O223 Co210 2.244 . S
O223 C213 1.272 . S
O223 Co215 2.135 . S
Co224 O225 2.216 1_545 S
Co224 O226 2.091 1_545 S
Co224 O228 2.004 . S
Co224 O234 2.021 . S
Co224 O236 2.137 1_545 S
Co224 O237 2.240 1_545 S
O225 Co224 2.216 1_565 S
O225 C232 1.247 . S
O226 Co224 2.091 1_565 S
O226 C232 1.261 . S
C227 O236 1.247 . S
C227 O237 1.307 . S
O228 Co224 2.004 . S
O228 C233 1.259 . S
Co229 O230 2.061 . S
Co229 O235 2.052 . S
Co229 O237 2.094 1_545 S
O230 Co229 2.061 . S
O230 C233 1.235 . S
C231 O234 1.238 . S
C231 O235 1.241 . S
C232 O225 1.247 . S
C232 O226 1.261 . S
C233 O228 1.259 . S
C233 O230 1.235 . S
O234 Co224 2.021 . S
O234 C231 1.238 . S
O235 Co229 2.052 . S
O235 C231 1.241 . S
O236 Co224 2.137 1_565 S
O236 C227 1.247 . S
O237 Co224 2.240 1_565 S
O237 C227 1.307 . S
O237 Co229 2.094 1_565 S
Co238 O239 2.216 . S
Co238 O240 2.091 . S
Co238 O242 2.004 . S
Co238 O248 2.021 . S
Co238 O250 2.137 . S
Co238 O251 2.244 . S
O239 Co238 2.216 . S
O239 C246 1.247 . S
O240 Co238 2.091 . S
O240 C246 1.261 . S
C241 O250 1.247 . S
C241 O251 1.272 . S
O242 Co238 2.004 . S
O242 C247 1.259 . S
Co243 O244 2.061 . S
Co243 O249 2.052 . S
Co243 O251 2.135 . S
O244 Co243 2.061 . S
O244 C247 1.235 . S
C245 O248 1.238 . S
C245 O249 1.241 . S
C246 O239 1.247 . S
C246 O240 1.261 . S
C247 O242 1.259 . S
C247 O244 1.235 . S
O248 Co238 2.021 . S
O248 C245 1.238 . S
O249 Co243 2.052 . S
O249 C245 1.241 . S
O250 Co238 2.137 . S
O250 C241 1.247 . S
O251 Co238 2.244 . S
O251 C241 1.272 . S
O251 Co243 2.135 . S
Co252 O253 2.216 . S
Co252 O254 2.091 . S
Co252 O256 2.004 . S
Co252 O262 2.021 . S
Co252 O264 2.137 . S
Co252 O265 2.244 . S
O253 Co252 2.216 . S
O253 C260 1.247 . S
O254 Co252 2.091 . S
O254 C260 1.261 . S
C255 O264 1.247 . S
C255 O265 1.272 . S
O256 Co252 2.004 . S
O256 C261 1.259 . S
Co257 O258 2.061 . S
Co257 O263 2.052 . S
Co257 O265 2.135 . S
O258 Co257 2.061 . S
O258 C261 1.235 . S
C259 O262 1.238 . S
C259 O263 1.241 . S
C260 O253 1.247 . S
C260 O254 1.261 . S
C261 O256 1.259 . S
C261 O258 1.235 . S
O262 Co252 2.021 . S
O262 C259 1.238 . S
O263 Co257 2.052 . S
O263 C259 1.241 . S
O264 Co252 2.137 . S
O264 C255 1.247 . S
O265 Co252 2.244 . S
O265 C255 1.272 . S
O265 Co257 2.135 . S
Co266 O267 2.216 . S
Co266 O268 2.091 . S
Co266 O270 2.004 1_565 S
Co266 O276 2.021 1_565 S
Co266 O278 2.137 . S
Co266 O279 2.244 . S
O267 Co266 2.216 . S
O267 C274 1.247 . S
O268 Co266 2.091 . S
O268 C274 1.261 . S
C269 O278 1.247 . S
C269 O279 1.272 . S
O270 Co266 2.004 1_545 S
O270 C275 1.259 . S
Co271 O272 2.061 . S
Co271 O277 2.052 . S
Co271 O279 2.135 1_545 S
O272 Co271 2.061 . S
O272 C275 1.235 . S
C273 O276 1.238 . S
C273 O277 1.241 . S
C274 O267 1.247 . S
C274 O268 1.261 . S
C275 O270 1.259 . S
C275 O272 1.235 . S
O276 Co266 2.021 1_545 S
O276 C273 1.238 . S
O277 Co271 2.052 . S
O277 C273 1.241 . S
O278 Co266 2.137 . S
O278 C269 1.247 . S
O279 Co266 2.244 . S
O279 C269 1.272 . S
O279 Co271 2.135 1_565 S
Co280 O281 2.216 . S
Co280 O282 2.091 . S
Co280 O284 2.004 1_554 S
Co280 O290 2.021 1_554 S
Co280 O292 2.137 . S
Co280 O293 2.244 . S
O281 Co280 2.216 . S
O281 C288 1.247 . S
O282 Co280 2.091 . S
O282 C288 1.261 . S
C283 O292 1.247 . S
C283 O293 1.272 . S
O284 Co280 2.004 1_556 S
O284 C289 1.259 . S
Co285 O286 2.061 . S
Co285 O291 2.052 . S
Co285 O293 2.135 1_556 S
O286 Co285 2.061 . S
O286 C289 1.235 . S
C287 O290 1.238 . S
C287 O291 1.241 . S
C288 O281 1.247 . S
C288 O282 1.261 . S
C289 O284 1.259 . S
C289 O286 1.235 . S
O290 Co280 2.021 1_556 S
O290 C287 1.238 . S
O291 Co285 2.052 . S
O291 C287 1.241 . S
O292 Co280 2.137 . S
O292 C283 1.247 . S
O293 Co280 2.244 . S
O293 C283 1.272 . S
O293 Co285 2.135 1_554 S
Co294 O295 2.216 . S
Co294 O296 2.091 . S
Co294 O298 2.004 . S
Co294 O304 2.021 . S
Co294 O306 2.137 . S
Co294 O307 2.244 . S
O295 Co294 2.216 . S
O295 C302 1.247 . S
O296 Co294 2.091 . S
O296 C302 1.261 . S
C297 O306 1.247 . S
C297 O307 1.272 . S
O298 Co294 2.004 . S
O298 C303 1.259 . S
Co299 O300 2.061 . S
Co299 O305 2.052 . S
Co299 O307 2.135 . S
O300 Co299 2.061 . S
O300 C303 1.235 . S
C301 O304 1.238 . S
C301 O305 1.241 . S
C302 O295 1.247 . S
C302 O296 1.261 . S
C303 O298 1.259 . S
C303 O300 1.235 . S
O304 Co294 2.021 . S
O304 C301 1.238 . S
O305 Co299 2.052 . S
O305 C301 1.241 . S
O306 Co294 2.137 . S
O306 C297 1.247 . S
O307 Co294 2.244 . S
O307 C297 1.272 . S
O307 Co299 2.135 . S
Co308 O309 2.216 . S
Co308 O310 2.091 . S
Co308 O312 2.004 . S
Co308 O318 2.021 . S
Co308 O320 2.137 . S
Co308 O321 2.244 . S
O309 Co308 2.216 . S
O309 C316 1.247 . S
O310 Co308 2.091 . S
O310 C316 1.261 . S
C311 O320 1.247 . S
C311 O321 1.272 . S
O312 Co308 2.004 . S
O312 C317 1.259 . S
Co313 O314 2.061 . S
Co313 O319 2.052 . S
Co313 O321 2.135 . S
O314 Co313 2.061 . S
O314 C317 1.235 . S
C315 O318 1.238 . S
C315 O319 1.241 . S
C316 O309 1.247 . S
C316 O310 1.261 . S
C317 O312 1.259 . S
C317 O314 1.235 . S
O318 Co308 2.021 . S
O318 C315 1.238 . S
O319 Co313 2.052 . S
O319 C315 1.241 . S
O320 Co308 2.137 . S
O320 C311 1.247 . S
O321 Co308 2.244 . S
O321 C311 1.272 . S
O321 Co313 2.135 . S
Co322 O323 2.216 . S
Co322 O324 2.091 . S
Co322 O326 2.004 . S
Co322 O332 2.021 . S
Co322 O334 2.137 . S
Co322 O335 2.244 . S
O323 Co322 2.216 . S
O323 C330 1.247 . S
O324 Co322 2.091 . S
O324 C330 1.261 . S
C325 O334 1.247 . S
C325 O335 1.272 . S
O326 Co322 2.004 . S
O326 C331 1.259 . S
Co327 O328 2.061 . S
Co327 O333 2.052 . S
Co327 O335 2.135 . S
O328 Co327 2.061 . S
O328 C331 1.235 . S
C329 O332 1.238 . S
C329 O333 1.241 . S
C330 O323 1.247 . S
C330 O324 1.261 . S
C331 O326 1.259 . S
C331 O328 1.235 . S
O332 Co322 2.021 . S
O332 C329 1.238 . S
O333 Co327 2.052 . S
O333 C329 1.241 . S
O334 Co322 2.137 . S
O334 C325 1.247 . S
O335 Co322 2.244 . S
O335 C325 1.272 . S
O335 Co327 2.135 . S
Fe336 O338 1.918 . S
Fe336 O341 1.997 . S
Fe336 O342 2.002 . S
Fe336 O347 1.976 . S
Fe336 O350 1.996 . S
Fe337 O338 1.918 . S
Fe337 O345 1.997 . S
Fe337 O348 1.996 . S
Fe337 O352 1.976 . S
Fe337 O355 2.002 . S
O338 Fe336 1.918 . S
O338 Fe337 1.918 . S
O338 Fe339 1.918 . S
Fe339 O338 1.918 . S
Fe339 O340 2.002 . S
Fe339 O349 1.976 . S
Fe339 O353 1.996 . S
Fe339 O356 1.997 . S
O340 Fe339 2.002 . S
O340 C357 1.295 . S
O341 Fe336 1.997 . S
O341 C357 1.235 . S
O342 Fe336 2.002 . S
O342 C343 1.295 . S
C343 O342 1.295 . S
C343 O345 1.235 . S
C344 O349 1.287 . S
C344 O350 1.255 . S
O345 Fe337 1.997 . S
O345 C343 1.235 . S
C346 O352 1.287 . S
C346 O353 1.255 . S
O347 Fe336 1.976 . S
O347 C354 1.287 . S
O348 Fe337 1.996 . S
O348 C354 1.255 . S
O349 Fe339 1.976 . S
O349 C344 1.287 . S
O350 Fe336 1.996 . S
O350 C344 1.255 . S
C351 O355 1.295 . S
C351 O356 1.235 . S
O352 Fe337 1.976 . S
O352 C346 1.287 . S
O353 Fe339 1.996 . S
O353 C346 1.255 . S
C354 O347 1.287 . S
C354 O348 1.255 . S
O355 Fe337 2.002 . S
O355 C351 1.295 . S
O356 Fe339 1.997 . S
O356 C351 1.235 . S
C357 O340 1.295 . S
C357 O341 1.235 . S
Fe358 O360 1.918 . S
Fe358 O363 1.997 . S
Fe358 O364 2.002 . S
Fe358 O369 1.976 . S
Fe358 O372 1.996 . S
Fe359 O360 1.918 . S
Fe359 O367 1.997 . S
Fe359 O370 1.996 . S
Fe359 O374 1.976 . S
Fe359 O377 2.002 . S
O360 Fe358 1.918 . S
O360 Fe359 1.918 . S
O360 Fe361 1.918 . S
Fe361 O360 1.918 . S
Fe361 O362 2.002 . S
Fe361 O371 1.976 . S
Fe361 O375 1.996 . S
Fe361 O378 1.997 . S
O362 Fe361 2.002 . S
O362 C379 1.295 . S
O363 Fe358 1.997 . S
O363 C379 1.235 . S
O364 Fe358 2.002 . S
O364 C365 1.295 . S
C365 O364 1.295 . S
C365 O367 1.235 . S
C366 O371 1.287 . S
C366 O372 1.255 . S
O367 Fe359 1.997 . S
O367 C365 1.235 . S
C368 O374 1.287 . S
C368 O375 1.255 . S
O369 Fe358 1.976 . S
O369 C376 1.287 . S
O370 Fe359 1.996 . S
O370 C376 1.255 . S
O371 Fe361 1.976 . S
O371 C366 1.287 . S
O372 Fe358 1.996 . S
O372 C366 1.255 . S
C373 O377 1.295 . S
C373 O378 1.235 . S
O374 Fe359 1.976 . S
O374 C368 1.287 . S
O375 Fe361 1.996 . S
O375 C368 1.255 . S
C376 O369 1.287 . S
C376 O370 1.255 . S
O377 Fe359 2.002 . S
O377 C373 1.295 . S
O378 Fe361 1.997 . S
O378 C373 1.235 . S
C379 O362 1.295 . S
C379 O363 1.235 . S
Fe380 O382 1.918 . S
Fe380 O385 1.997 . S
Fe380 O386 2.002 . S
Fe380 O391 1.976 . S
Fe380 O394 1.996 . S
Fe381 O382 1.918 . S
Fe381 O389 1.997 . S
Fe381 O392 1.996 . S
Fe381 O396 1.976 . S
Fe381 O399 2.002 . S
O382 Fe380 1.918 . S
O382 Fe381 1.918 . S
O382 Fe383 1.918 . S
Fe383 O382 1.918 . S
Fe383 O384 2.002 . S
Fe383 O393 1.976 . S
Fe383 O397 1.996 . S
Fe383 O400 1.997 . S
O384 Fe383 2.002 . S
O384 C401 1.295 . S
O385 Fe380 1.997 . S
O385 C401 1.235 . S
O386 Fe380 2.002 . S
O386 C387 1.295 . S
C387 O386 1.295 . S
C387 O389 1.235 . S
C388 O393 1.287 . S
C388 O394 1.255 . S
O389 Fe381 1.997 . S
O389 C387 1.235 . S
C390 O396 1.287 . S
C390 O397 1.255 . S
O391 Fe380 1.976 . S
O391 C398 1.287 . S
O392 Fe381 1.996 . S
O392 C398 1.255 . S
O393 Fe383 1.976 . S
O393 C388 1.287 . S
O394 Fe380 1.996 . S
O394 C388 1.255 . S
C395 O399 1.295 . S
C395 O400 1.235 . S
O396 Fe381 1.976 . S
O396 C390 1.287 . S
O397 Fe383 1.996 . S
O397 C390 1.255 . S
C398 O391 1.287 . S
C398 O392 1.255 . S
O399 Fe381 2.002 . S
O399 C395 1.295 . S
O400 Fe383 1.997 . S
O400 C395 1.235 . S
C401 O384 1.295 . S
C401 O385 1.235 . S
Fe402 O404 1.918 . S
Fe402 O407 1.997 . S
Fe402 O408 2.002 . S
Fe402 O413 1.976 . S
Fe402 O416 1.996 . S
Fe403 O404 1.918 . S
Fe403 O411 1.997 . S
Fe403 O414 1.996 . S
Fe403 O418 1.976 . S
Fe403 O421 2.002 . S
O404 Fe402 1.918 . S
O404 Fe403 1.918 . S
O404 Fe405 1.918 . S
Fe405 O404 1.918 . S
Fe405 O406 2.002 . S
Fe405 O415 1.976 . S
Fe405 O419 1.996 . S
Fe405 O422 1.997 . S
O406 Fe405 2.002 . S
O406 C423 1.295 . S
O407 Fe402 1.997 . S
O407 C423 1.235 . S
O408 Fe402 2.002 . S
O408 C409 1.295 . S
C409 O408 1.295 . S
C409 O411 1.235 . S
C410 O415 1.287 . S
C410 O416 1.255 . S
O411 Fe403 1.997 . S
O411 C409 1.235 . S
C412 O418 1.287 . S
C412 O419 1.255 . S
O413 Fe402 1.976 . S
O413 C420 1.287 . S
O414 Fe403 1.996 . S
O414 C420 1.255 . S
O415 Fe405 1.976 . S
O415 C410 1.287 . S
O416 Fe402 1.996 . S
O416 C410 1.255 . S
C417 O421 1.295 . S
C417 O422 1.235 . S
O418 Fe403 1.976 . S
O418 C412 1.287 . S
O419 Fe405 1.996 . S
O419 C412 1.255 . S
C420 O413 1.287 . S
C420 O414 1.255 . S
O421 Fe403 2.002 . S
O421 C417 1.295 . S
O422 Fe405 1.997 . S
O422 C417 1.235 . S
C423 O406 1.295 . S
C423 O407 1.235 . S
Fe424 O426 1.918 . S
Fe424 O429 1.997 . S
Fe424 O430 2.002 . S
Fe424 O435 1.976 . S
Fe424 O438 1.996 . S
Fe425 O426 1.918 . S
Fe425 O433 1.997 . S
Fe425 O436 1.996 . S
Fe425 O440 1.976 . S
Fe425 O443 2.002 . S
O426 Fe424 1.918 . S
O426 Fe425 1.918 . S
O426 Fe427 1.918 . S
Fe427 O426 1.918 . S
Fe427 O428 2.002 . S
Fe427 O437 1.976 . S
Fe427 O441 1.996 . S
Fe427 O444 1.997 . S
O428 Fe427 2.002 . S
O428 C445 1.295 . S
O429 Fe424 1.997 . S
O429 C445 1.235 . S
O430 Fe424 2.002 . S
O430 C431 1.295 . S
C431 O430 1.295 . S
C431 O433 1.235 . S
C432 O437 1.287 . S
C432 O438 1.255 . S
O433 Fe425 1.997 . S
O433 C431 1.235 . S
C434 O440 1.287 . S
C434 O441 1.255 . S
O435 Fe424 1.976 . S
O435 C442 1.287 . S
O436 Fe425 1.996 . S
O436 C442 1.255 . S
O437 Fe427 1.976 . S
O437 C432 1.287 . S
O438 Fe424 1.996 . S
O438 C432 1.255 . S
C439 O443 1.295 . S
C439 O444 1.235 . S
O440 Fe425 1.976 . S
O440 C434 1.287 . S
O441 Fe427 1.996 . S
O441 C434 1.255 . S
C442 O435 1.287 . S
C442 O436 1.255 . S
O443 Fe425 2.002 . S
O443 C439 1.295 . S
O444 Fe427 1.997 . S
O444 C439 1.235 . S
C445 O428 1.295 . S
C445 O429 1.235 . S
Fe446 O448 1.918 . S
Fe446 O451 1.997 . S
Fe446 O452 2.002 . S
Fe446 O457 1.976 . S
Fe446 O460 1.996 . S
Fe447 O448 1.918 . S
Fe447 O455 1.997 . S
Fe447 O458 1.996 . S
Fe447 O462 1.976 . S
Fe447 O465 2.002 . S
O448 Fe446 1.918 . S
O448 Fe447 1.918 . S
O448 Fe449 1.918 . S
Fe449 O448 1.918 . S
Fe449 O450 2.002 . S
Fe449 O459 1.976 . S
Fe449 O463 1.996 . S
Fe449 O466 1.997 . S
O450 Fe449 2.002 . S
O450 C467 1.295 . S
O451 Fe446 1.997 . S
O451 C467 1.235 . S
O452 Fe446 2.002 . S
O452 C453 1.295 . S
C453 O452 1.295 . S
C453 O455 1.235 . S
C454 O459 1.287 . S
C454 O460 1.255 . S
O455 Fe447 1.997 . S
O455 C453 1.235 . S
C456 O462 1.287 . S
C456 O463 1.255 . S
O457 Fe446 1.976 . S
O457 C464 1.287 . S
O458 Fe447 1.996 . S
O458 C464 1.255 . S
O459 Fe449 1.976 . S
O459 C454 1.287 . S
O460 Fe446 1.996 . S
O460 C454 1.255 . S
C461 O465 1.295 . S
C461 O466 1.235 . S
O462 Fe447 1.976 . S
O462 C456 1.287 . S
O463 Fe449 1.996 . S
O463 C456 1.255 . S
C464 O457 1.287 . S
C464 O458 1.255 . S
O465 Fe447 2.002 . S
O465 C461 1.295 . S
O466 Fe449 1.997 . S
O466 C461 1.235 . S
C467 O450 1.295 . S
C467 O451 1.235 . S
Fe468 O470 1.918 . S
Fe468 O473 1.997 . S
Fe468 O474 2.002 . S
Fe468 O479 1.976 . S
Fe468 O482 1.996 . S
Fe469 O470 1.918 . S
Fe469 O477 1.997 . S
Fe469 O480 1.996 . S
Fe469 O484 1.976 . S
Fe469 O487 2.002 . S
O470 Fe468 1.918 . S
O470 Fe469 1.918 . S
O470 Fe471 1.918 . S
Fe471 O470 1.918 . S
Fe471 O472 2.002 . S
Fe471 O481 1.976 . S
Fe471 O485 1.996 . S
Fe471 O488 1.997 . S
O472 Fe471 2.002 . S
O472 C489 1.295 . S
O473 Fe468 1.997 . S
O473 C489 1.235 . S
O474 Fe468 2.002 . S
O474 C475 1.295 . S
C475 O474 1.295 . S
C475 O477 1.235 . S
C476 O481 1.287 . S
C476 O482 1.255 . S
O477 Fe469 1.997 . S
O477 C475 1.235 . S
C478 O484 1.287 . S
C478 O485 1.255 . S
O479 Fe468 1.976 . S
O479 C486 1.287 . S
O480 Fe469 1.996 . S
O480 C486 1.255 . S
O481 Fe471 1.976 . S
O481 C476 1.287 . S
O482 Fe468 1.996 . S
O482 C476 1.255 . S
C483 O487 1.295 . S
C483 O488 1.235 . S
O484 Fe469 1.976 . S
O484 C478 1.287 . S
O485 Fe471 1.996 . S
O485 C478 1.255 . S
C486 O479 1.287 . S
C486 O480 1.255 . S
O487 Fe469 2.002 . S
O487 C483 1.295 . S
O488 Fe471 1.997 . S
O488 C483 1.235 . S
C489 O472 1.295 . S
C489 O473 1.235 . S
Fe490 O492 1.918 . S
Fe490 O495 1.997 . S
Fe490 O496 2.002 . S
Fe490 O501 1.976 . S
Fe490 O504 1.996 . S
Fe491 O492 1.918 . S
Fe491 O499 1.997 . S
Fe491 O502 1.996 . S
Fe491 O506 1.976 . S
Fe491 O509 2.002 . S
O492 Fe490 1.918 . S
O492 Fe491 1.918 . S
O492 Fe493 1.918 . S
Fe493 O492 1.918 . S
Fe493 O494 2.002 . S
Fe493 O503 1.976 . S
Fe493 O507 1.996 . S
Fe493 O510 1.997 . S
O494 Fe493 2.002 . S
O494 C511 1.295 . S
O495 Fe490 1.997 . S
O495 C511 1.235 . S
O496 Fe490 2.002 . S
O496 C497 1.295 . S
C497 O496 1.295 . S
C497 O499 1.235 . S
C498 O503 1.287 . S
C498 O504 1.255 . S
O499 Fe491 1.997 . S
O499 C497 1.235 . S
C500 O506 1.287 . S
C500 O507 1.255 . S
O501 Fe490 1.976 . S
O501 C508 1.287 . S
O502 Fe491 1.996 . S
O502 C508 1.255 . S
O503 Fe493 1.976 . S
O503 C498 1.287 . S
O504 Fe490 1.996 . S
O504 C498 1.255 . S
C505 O509 1.295 . S
C505 O510 1.235 . S
O506 Fe491 1.976 . S
O506 C500 1.287 . S
O507 Fe493 1.996 . S
O507 C500 1.255 . S
C508 O501 1.287 . S
C508 O502 1.255 . S
O509 Fe491 2.002 . S
O509 C505 1.295 . S
O510 Fe493 1.997 . S
O510 C505 1.235 . S
C511 O494 1.295 . S
C511 O495 1.235 . S
Fe512 O514 1.918 . S
Fe512 O517 1.997 . S
Fe512 O518 2.002 . S
Fe512 O523 1.976 . S
Fe512 O526 1.996 . S
Fe513 O514 1.918 . S
Fe513 O521 1.997 . S
Fe513 O524 1.996 . S
Fe513 O528 1.976 . S
Fe513 O531 2.002 . S
O514 Fe512 1.918 . S
O514 Fe513 1.918 . S
O514 Fe515 1.918 . S
Fe515 O514 1.918 . S
Fe515 O516 2.002 . S
Fe515 O525 1.976 . S
Fe515 O529 1.996 . S
Fe515 O532 1.997 . S
O516 Fe515 2.002 . S
O516 C533 1.295 . S
O517 Fe512 1.997 . S
O517 C533 1.235 . S
O518 Fe512 2.002 . S
O518 C519 1.295 . S
C519 O518 1.295 . S
C519 O521 1.235 . S
C520 O525 1.287 . S
C520 O526 1.255 . S
O521 Fe513 1.997 . S
O521 C519 1.235 . S
C522 O528 1.287 . S
C522 O529 1.255 . S
O523 Fe512 1.976 . S
O523 C530 1.287 . S
O524 Fe513 1.996 . S
O524 C530 1.255 . S
O525 Fe515 1.976 . S
O525 C520 1.287 . S
O526 Fe512 1.996 . S
O526 C520 1.255 . S
C527 O531 1.295 . S
C527 O532 1.235 . S
O528 Fe513 1.976 . S
O528 C522 1.287 . S
O529 Fe515 1.996 . S
O529 C522 1.255 . S
C530 O523 1.287 . S
C530 O524 1.255 . S
O531 Fe513 2.002 . S
O531 C527 1.295 . S
O532 Fe515 1.997 . S
O532 C527 1.235 . S
C533 O516 1.295 . S
C533 O517 1.235 . S
Fe534 O536 1.918 . S
Fe534 O539 1.997 . S
Fe534 O540 2.002 . S
Fe534 O545 1.976 . S
Fe534 O548 1.996 . S
Fe535 O536 1.918 . S
Fe535 O543 1.997 . S
Fe535 O546 1.996 . S
Fe535 O550 1.976 . S
Fe535 O553 2.002 . S
O536 Fe534 1.918 . S
O536 Fe535 1.918 . S
O536 Fe537 1.918 . S
Fe537 O536 1.918 . S
Fe537 O538 2.002 . S
Fe537 O547 1.976 . S
Fe537 O551 1.996 . S
Fe537 O554 1.997 . S
O538 Fe537 2.002 . S
O538 C555 1.295 . S
O539 Fe534 1.997 . S
O539 C555 1.235 . S
O540 Fe534 2.002 . S
O540 C541 1.295 . S
C541 O540 1.295 . S
C541 O543 1.235 . S
C542 O547 1.287 . S
C542 O548 1.255 . S
O543 Fe535 1.997 . S
O543 C541 1.235 . S
C544 O550 1.287 . S
C544 O551 1.255 . S
O545 Fe534 1.976 . S
O545 C552 1.287 . S
O546 Fe535 1.996 . S
O546 C552 1.255 . S
O547 Fe537 1.976 . S
O547 C542 1.287 . S
O548 Fe534 1.996 . S
O548 C542 1.255 . S
C549 O553 1.295 . S
C549 O554 1.235 . S
O550 Fe535 1.976 . S
O550 C544 1.287 . S
O551 Fe537 1.996 . S
O551 C544 1.255 . S
C552 O545 1.287 . S
C552 O546 1.255 . S
O553 Fe535 2.002 . S
O553 C549 1.295 . S
O554 Fe537 1.997 . S
O554 C549 1.235 . S
C555 O538 1.295 . S
C555 O539 1.235 . S
Fe556 O558 1.918 . S
Fe556 O561 1.997 . S
Fe556 O562 2.002 . S
Fe556 O567 1.976 . S
Fe556 O570 1.996 . S
Fe557 O558 1.918 . S
Fe557 O565 1.997 . S
Fe557 O568 1.996 . S
Fe557 O572 1.976 . S
Fe557 O575 2.002 . S
O558 Fe556 1.918 . S
O558 Fe557 1.918 . S
O558 Fe559 1.918 . S
Fe559 O558 1.918 . S
Fe559 O560 2.002 . S
Fe559 O569 1.976 . S
Fe559 O573 1.996 . S
Fe559 O576 1.997 . S
O560 Fe559 2.002 . S
O560 C577 1.295 . S
O561 Fe556 1.997 . S
O561 C577 1.235 . S
O562 Fe556 2.002 . S
O562 C563 1.295 . S
C563 O562 1.295 . S
C563 O565 1.235 . S
C564 O569 1.287 . S
C564 O570 1.255 . S
O565 Fe557 1.997 . S
O565 C563 1.235 . S
C566 O572 1.287 . S
C566 O573 1.255 . S
O567 Fe556 1.976 . S
O567 C574 1.287 . S
O568 Fe557 1.996 . S
O568 C574 1.255 . S
O569 Fe559 1.976 . S
O569 C564 1.287 . S
O570 Fe556 1.996 . S
O570 C564 1.255 . S
C571 O575 1.295 . S
C571 O576 1.235 . S
O572 Fe557 1.976 . S
O572 C566 1.287 . S
O573 Fe559 1.996 . S
O573 C566 1.255 . S
C574 O567 1.287 . S
C574 O568 1.255 . S
O575 Fe557 2.002 . S
O575 C571 1.295 . S
O576 Fe559 1.997 . S
O576 C571 1.235 . S
C577 O560 1.295 . S
C577 O561 1.235 . S
Fe578 O580 1.918 . S
Fe578 O583 1.997 . S
Fe578 O584 2.002 . S
Fe578 O589 1.976 . S
Fe578 O592 1.996 . S
Fe579 O580 1.918 . S
Fe579 O587 1.997 . S
Fe579 O590 1.996 . S
Fe579 O594 1.976 . S
Fe579 O597 2.002 . S
O580 Fe578 1.918 . S
O580 Fe579 1.918 . S
O580 Fe581 1.918 . S
Fe581 O580 1.918 . S
Fe581 O582 2.002 . S
Fe581 O591 1.976 . S
Fe581 O595 1.996 . S
Fe581 O598 1.997 . S
O582 Fe581 2.002 . S
O582 C599 1.295 . S
O583 Fe578 1.997 . S
O583 C599 1.235 . S
O584 Fe578 2.002 . S
O584 C585 1.295 . S
C585 O584 1.295 . S
C585 O587 1.235 . S
C586 O591 1.287 . S
C586 O592 1.255 . S
O587 Fe579 1.997 . S
O587 C585 1.235 . S
C588 O594 1.287 . S
C588 O595 1.255 . S
O589 Fe578 1.976 . S
O589 C596 1.287 . S
O590 Fe579 1.996 . S
O590 C596 1.255 . S
O591 Fe581 1.976 . S
O591 C586 1.287 . S
O592 Fe578 1.996 . S
O592 C586 1.255 . S
C593 O597 1.295 . S
C593 O598 1.235 . S
O594 Fe579 1.976 . S
O594 C588 1.287 . S
O595 Fe581 1.996 . S
O595 C588 1.255 . S
C596 O589 1.287 . S
C596 O590 1.255 . S
O597 Fe579 2.002 . S
O597 C593 1.295 . S
O598 Fe581 1.997 . S
O598 C593 1.235 . S
C599 O582 1.295 . S
C599 O583 1.235 . S
Fe600 O602 1.918 . S
Fe600 O605 1.997 . S
Fe600 O606 2.002 . S
Fe600 O611 1.976 . S
Fe600 O614 1.996 . S
Fe601 O602 1.918 . S
Fe601 O609 1.997 . S
Fe601 O612 1.996 . S
Fe601 O616 1.976 . S
Fe601 O619 2.002 . S
O602 Fe600 1.918 . S
O602 Fe601 1.918 . S
O602 Fe603 1.918 . S
Fe603 O602 1.918 . S
Fe603 O604 2.002 . S
Fe603 O613 1.976 . S
Fe603 O617 1.996 . S
Fe603 O620 1.997 . S
O604 Fe603 2.002 . S
O604 C621 1.295 . S
O605 Fe600 1.997 . S
O605 C621 1.235 . S
O606 Fe600 2.002 . S
O606 C607 1.295 . S
C607 O606 1.295 . S
C607 O609 1.235 . S
C608 O613 1.287 . S
C608 O614 1.255 . S
O609 Fe601 1.997 . S
O609 C607 1.235 . S
C610 O616 1.287 . S
C610 O617 1.255 . S
O611 Fe600 1.976 . S
O611 C618 1.287 . S
O612 Fe601 1.996 . S
O612 C618 1.255 . S
O613 Fe603 1.976 . S
O613 C608 1.287 . S
O614 Fe600 1.996 . S
O614 C608 1.255 . S
C615 O619 1.295 . S
C615 O620 1.235 . S
O616 Fe601 1.976 . S
O616 C610 1.287 . S
O617 Fe603 1.996 . S
O617 C610 1.255 . S
C618 O611 1.287 . S
C618 O612 1.255 . S
O619 Fe601 2.002 . S
O619 C615 1.295 . S
O620 Fe603 1.997 . S
O620 C615 1.235 . S
C621 O604 1.295 . S
C621 O605 1.235 . S
Fe622 O624 1.918 . S
Fe622 O627 1.997 . S
Fe622 O628 2.002 . S
Fe622 O633 1.976 . S
Fe622 O636 1.996 . S
Fe623 O624 1.918 . S
Fe623 O631 1.997 . S
Fe623 O634 1.996 . S
Fe623 O638 1.976 . S
Fe623 O641 2.002 . S
O624 Fe622 1.918 . S
O624 Fe623 1.918 . S
O624 Fe625 1.918 . S
Fe625 O624 1.918 . S
Fe625 O626 2.002 . S
Fe625 O635 1.976 . S
Fe625 O639 1.996 . S
Fe625 O642 1.997 . S
O626 Fe625 2.002 . S
O626 C643 1.295 . S
O627 Fe622 1.997 . S
O627 C643 1.235 . S
O628 Fe622 2.002 . S
O628 C629 1.295 . S
C629 O628 1.295 . S
C629 O631 1.235 . S
C630 O635 1.287 . S
C630 O636 1.255 . S
O631 Fe623 1.997 . S
O631 C629 1.235 . S
C632 O638 1.287 . S
C632 O639 1.255 . S
O633 Fe622 1.976 . S
O633 C640 1.287 . S
O634 Fe623 1.996 . S
O634 C640 1.255 . S
O635 Fe625 1.976 . S
O635 C630 1.287 . S
O636 Fe622 1.996 . S
O636 C630 1.255 . S
C637 O641 1.295 . S
C637 O642 1.235 . S
O638 Fe623 1.976 . S
O638 C632 1.287 . S
O639 Fe625 1.996 . S
O639 C632 1.255 . S
C640 O633 1.287 . S
C640 O634 1.255 . S
O641 Fe623 2.002 . S
O641 C637 1.295 . S
O642 Fe625 1.997 . S
O642 C637 1.235 . S
C643 O626 1.295 . S
C643 O627 1.235 . S
Fe644 O646 1.918 . S
Fe644 O649 1.997 . S
Fe644 O650 2.002 . S
Fe644 O655 1.976 . S
Fe644 O658 1.996 . S
Fe645 O646 1.918 . S
Fe645 O653 1.997 . S
Fe645 O656 1.996 . S
Fe645 O660 1.976 . S
Fe645 O663 2.002 . S
O646 Fe644 1.918 . S
O646 Fe645 1.918 . S
O646 Fe647 1.918 . S
Fe647 O646 1.918 . S
Fe647 O648 2.002 . S
Fe647 O657 1.976 . S
Fe647 O661 1.996 . S
Fe647 O664 1.997 . S
O648 Fe647 2.002 . S
O648 C665 1.295 . S
O649 Fe644 1.997 . S
O649 C665 1.235 . S
O650 Fe644 2.002 . S
O650 C651 1.295 . S
C651 O650 1.295 . S
C651 O653 1.235 . S
C652 O657 1.287 . S
C652 O658 1.255 . S
O653 Fe645 1.997 . S
O653 C651 1.235 . S
C654 O660 1.287 . S
C654 O661 1.255 . S
O655 Fe644 1.976 . S
O655 C662 1.287 . S
O656 Fe645 1.996 . S
O656 C662 1.255 . S
O657 Fe647 1.976 . S
O657 C652 1.287 . S
O658 Fe644 1.996 . S
O658 C652 1.255 . S
C659 O663 1.295 . S
C659 O664 1.235 . S
O660 Fe645 1.976 . S
O660 C654 1.287 . S
O661 Fe647 1.996 . S
O661 C654 1.255 . S
C662 O655 1.287 . S
C662 O656 1.255 . S
O663 Fe645 2.002 . S
O663 C659 1.295 . S
O664 Fe647 1.997 . S
O664 C659 1.235 . S
C665 O648 1.295 . S
C665 O649 1.235 . S
Fe666 O668 1.918 . S
Fe666 O671 1.997 . S
Fe666 O672 2.002 . S
Fe666 O677 1.976 . S
Fe666 O680 1.996 . S
Fe667 O668 1.918 . S
Fe667 O675 1.997 . S
Fe667 O678 1.996 . S
Fe667 O682 1.976 . S
Fe667 O685 2.002 . S
O668 Fe666 1.918 . S
O668 Fe667 1.918 . S
O668 Fe669 1.918 . S
Fe669 O668 1.918 . S
Fe669 O670 2.002 . S
Fe669 O679 1.976 . S
Fe669 O683 1.996 . S
Fe669 O686 1.997 . S
O670 Fe669 2.002 . S
O670 C687 1.295 . S
O671 Fe666 1.997 . S
O671 C687 1.235 . S
O672 Fe666 2.002 . S
O672 C673 1.295 . S
C673 O672 1.295 . S
C673 O675 1.235 . S
C674 O679 1.287 . S
C674 O680 1.255 . S
O675 Fe667 1.997 . S
O675 C673 1.235 . S
C676 O682 1.287 . S
C676 O683 1.255 . S
O677 Fe666 1.976 . S
O677 C684 1.287 . S
O678 Fe667 1.996 . S
O678 C684 1.255 . S
O679 Fe669 1.976 . S
O679 C674 1.287 . S
O680 Fe666 1.996 . S
O680 C674 1.255 . S
C681 O685 1.295 . S
C681 O686 1.235 . S
O682 Fe667 1.976 . S
O682 C676 1.287 . S
O683 Fe669 1.996 . S
O683 C676 1.255 . S
C684 O677 1.287 . S
C684 O678 1.255 . S
O685 Fe667 2.002 . S
O685 C681 1.295 . S
O686 Fe669 1.997 . S
O686 C681 1.235 . S
C687 O670 1.295 . S
C687 O671 1.235 . S
C688 C689 1.349 . S
C688 C690 1.327 . S
C688 H713 0.950 . S
C689 C688 1.349 . S
C689 C705 1.349 . S
C690 C688 1.327 . S
C690 C709 1.429 . S
C690 H714 0.950 . S
C691 C708 1.574 . S
C691 C710 1.368 . S
C691 H715 0.949 . S
H692 C696 0.949 . S
C693 C694 1.349 . S
C693 C695 1.327 . S
C693 H716 0.950 . S
C694 C693 1.349 . S
C694 C706 1.349 . S
C695 C693 1.327 . S
C695 C711 1.429 . S
C695 H717 0.950 . S
C696 H692 0.949 . S
C696 C704 1.574 . S
C696 C712 1.368 . S
H697 C705 0.950 . S
H698 C703 0.950 . S
H699 C704 0.949 . S
H700 C706 0.950 . S
H701 C707 0.950 . S
H702 C708 0.949 . S
C703 H698 0.950 . S
C703 C705 1.327 . S
C703 C709 1.429 . S
C704 C696 1.574 . S
C704 H699 0.949 . S
C704 C710 1.368 . S
C705 C689 1.349 . S
C705 H697 0.950 . S
C705 C703 1.327 . S
C706 C694 1.349 . S
C706 H700 0.950 . S
C706 C707 1.327 . S
C707 H701 0.950 . S
C707 C706 1.327 . S
C707 C711 1.429 . S
C708 C691 1.574 . S
C708 H702 0.949 . S
C708 C712 1.368 . S
C709 C690 1.429 . S
C709 C703 1.429 . S
C709 C710 1.523 . S
C710 C691 1.368 . S
C710 C704 1.368 . S
C710 C709 1.523 . S
C711 C695 1.429 . S
C711 C707 1.429 . S
C711 C712 1.523 . S
C712 C696 1.368 . S
C712 C708 1.368 . S
C712 C711 1.523 . S
H713 C688 0.950 . S
H714 C690 0.950 . S
H715 C691 0.949 . S
H716 C693 0.950 . S
H717 C695 0.950 . S
C718 C719 1.349 . S
C718 C720 1.327 . S
C718 H743 0.950 . S
C719 C718 1.349 . S
C719 C735 1.349 . S
C720 C718 1.327 . S
C720 C739 1.429 . S
C720 H744 0.950 . S
C721 C738 1.574 . S
C721 C740 1.368 . S
C721 H745 0.949 . S
H722 C726 0.949 . S
C723 C724 1.349 . S
C723 C725 1.327 . S
C723 H746 0.950 . S
C724 C723 1.349 . S
C724 C736 1.349 . S
C725 C723 1.327 . S
C725 C741 1.429 . S
C725 H747 0.950 . S
C726 H722 0.949 . S
C726 C734 1.574 . S
C726 C742 1.368 . S
H727 C735 0.950 . S
H728 C733 0.950 . S
H729 C734 0.949 . S
H730 C736 0.950 . S
H731 C737 0.950 . S
H732 C738 0.949 . S
C733 H728 0.950 . S
C733 C735 1.327 . S
C733 C739 1.429 . S
C734 C726 1.574 . S
C734 H729 0.949 . S
C734 C740 1.368 . S
C735 C719 1.349 . S
C735 H727 0.950 . S
C735 C733 1.327 . S
C736 C724 1.349 . S
C736 H730 0.950 . S
C736 C737 1.327 . S
C737 H731 0.950 . S
C737 C736 1.327 . S
C737 C741 1.429 . S
C738 C721 1.574 . S
C738 H732 0.949 . S
C738 C742 1.368 . S
C739 C720 1.429 . S
C739 C733 1.429 . S
C739 C740 1.523 . S
C740 C721 1.368 . S
C740 C734 1.368 . S
C740 C739 1.523 . S
C741 C725 1.429 . S
C741 C737 1.429 . S
C741 C742 1.523 . S
C742 C726 1.368 . S
C742 C738 1.368 . S
C742 C741 1.523 . S
H743 C718 0.950 . S
H744 C720 0.950 . S
H745 C721 0.949 . S
H746 C723 0.950 . S
H747 C725 0.950 . S
C748 C749 1.349 . S
C748 C750 1.327 . S
C748 H773 0.950 . S
C749 C748 1.349 . S
C749 C765 1.349 . S
C750 C748 1.327 . S
C750 C769 1.429 . S
C750 H774 0.950 . S
C751 C768 1.574 . S
C751 C770 1.368 . S
C751 H775 0.949 . S
H752 C756 0.949 . S
C753 C754 1.349 . S
C753 C755 1.327 . S
C753 H776 0.950 . S
C754 C753 1.349 . S
C754 C766 1.349 . S
C755 C753 1.327 . S
C755 C771 1.429 . S
C755 H777 0.950 . S
C756 H752 0.949 . S
C756 C764 1.574 . S
C756 C772 1.368 . S
H757 C765 0.950 . S
H758 C763 0.950 . S
H759 C764 0.949 . S
H760 C766 0.950 . S
H761 C767 0.950 . S
H762 C768 0.949 . S
C763 H758 0.950 . S
C763 C765 1.327 . S
C763 C769 1.429 . S
C764 C756 1.574 . S
C764 H759 0.949 . S
C764 C770 1.368 . S
C765 C749 1.349 . S
C765 H757 0.950 . S
C765 C763 1.327 . S
C766 C754 1.349 . S
C766 H760 0.950 . S
C766 C767 1.327 . S
C767 H761 0.950 . S
C767 C766 1.327 . S
C767 C771 1.429 . S
C768 C751 1.574 . S
C768 H762 0.949 . S
C768 C772 1.368 . S
C769 C750 1.429 . S
C769 C763 1.429 . S
C769 C770 1.523 . S
C770 C751 1.368 . S
C770 C764 1.368 . S
C770 C769 1.523 . S
C771 C755 1.429 . S
C771 C767 1.429 . S
C771 C772 1.523 . S
C772 C756 1.368 . S
C772 C768 1.368 . S
C772 C771 1.523 . S
H773 C748 0.950 . S
H774 C750 0.950 . S
H775 C751 0.949 . S
H776 C753 0.950 . S
H777 C755 0.950 . S
C778 C779 1.349 . S
C778 C780 1.327 . S
C778 H803 0.950 . S
C779 C778 1.349 . S
C779 C795 1.349 . S
C780 C778 1.327 . S
C780 C799 1.429 . S
C780 H804 0.950 . S
C781 C798 1.574 . S
C781 C800 1.368 . S
C781 H805 0.949 . S
H782 C786 0.949 . S
C783 C784 1.349 . S
C783 C785 1.327 . S
C783 H806 0.950 . S
C784 C783 1.349 . S
C784 C796 1.349 . S
C785 C783 1.327 . S
C785 C801 1.429 . S
C785 H807 0.950 . S
C786 H782 0.949 . S
C786 C794 1.574 1_556 S
C786 C802 1.368 1_556 S
H787 C795 0.950 . S
H788 C793 0.950 . S
H789 C794 0.949 . S
H790 C796 0.950 . S
H791 C797 0.950 . S
H792 C798 0.949 . S
C793 H788 0.950 . S
C793 C795 1.327 . S
C793 C799 1.429 . S
C794 C786 1.574 1_554 S
C794 H789 0.949 . S
C794 C800 1.368 . S
C795 C779 1.349 . S
C795 H787 0.950 . S
C795 C793 1.327 . S
C796 C784 1.349 . S
C796 H790 0.950 . S
C796 C797 1.327 . S
C797 H791 0.950 . S
C797 C796 1.327 . S
C797 C801 1.429 . S
C798 C781 1.574 . S
C798 H792 0.949 . S
C798 C802 1.368 . S
C799 C780 1.429 . S
C799 C793 1.429 . S
C799 C800 1.523 . S
C800 C781 1.368 . S
C800 C794 1.368 . S
C800 C799 1.523 . S
C801 C785 1.429 . S
C801 C797 1.429 . S
C801 C802 1.523 1_556 S
C802 C786 1.368 1_554 S
C802 C798 1.368 . S
C802 C801 1.523 1_554 S
H803 C778 0.950 . S
H804 C780 0.950 . S
H805 C781 0.949 . S
H806 C783 0.950 . S
H807 C785 0.950 . S
C808 C809 1.349 . S
C808 C810 1.327 . S
C808 H833 0.950 . S
C809 C808 1.349 . S
C809 C825 1.349 . S
C810 C808 1.327 . S
C810 C829 1.429 . S
C810 H834 0.950 . S
C811 C828 1.574 . S
C811 C830 1.368 . S
C811 H835 0.949 . S
H812 C816 0.949 . S
C813 C814 1.349 . S
C813 C815 1.327 . S
C813 H836 0.950 . S
C814 C813 1.349 . S
C814 C826 1.349 . S
C815 C813 1.327 . S
C815 C831 1.429 . S
C815 H837 0.950 . S
C816 H812 0.949 . S
C816 C824 1.574 . S
C816 C832 1.368 . S
H817 C825 0.950 . S
H818 C823 0.950 . S
H819 C824 0.949 . S
H820 C826 0.950 . S
H821 C827 0.950 . S
H822 C828 0.949 . S
C823 H818 0.950 . S
C823 C825 1.327 . S
C823 C829 1.429 . S
C824 C816 1.574 . S
C824 H819 0.949 . S
C824 C830 1.368 . S
C825 C809 1.349 . S
C825 H817 0.950 . S
C825 C823 1.327 . S
C826 C814 1.349 . S
C826 H820 0.950 . S
C826 C827 1.327 . S
C827 H821 0.950 . S
C827 C826 1.327 . S
C827 C831 1.429 . S
C828 C811 1.574 . S
C828 H822 0.949 . S
C828 C832 1.368 . S
C829 C810 1.429 . S
C829 C823 1.429 . S
C829 C830 1.523 . S
C830 C811 1.368 . S
C830 C824 1.368 . S
C830 C829 1.523 . S
C831 C815 1.429 . S
C831 C827 1.429 . S
C831 C832 1.523 . S
C832 C816 1.368 . S
C832 C828 1.368 . S
C832 C831 1.523 . S
H833 C808 0.950 . S
H834 C810 0.950 . S
H835 C811 0.949 . S
H836 C813 0.950 . S
H837 C815 0.950 . S
C838 C839 1.349 . S
C838 C840 1.327 . S
C838 H863 0.950 . S
C839 C838 1.349 . S
C839 C855 1.349 . S
C840 C838 1.327 . S
C840 C859 1.429 . S
C840 H864 0.950 . S
C841 C858 1.574 . S
C841 C860 1.368 . S
C841 H865 0.949 . S
H842 C846 0.949 . S
C843 C844 1.349 . S
C843 C845 1.327 . S
C843 H866 0.950 . S
C844 C843 1.349 . S
C844 C856 1.349 . S
C845 C843 1.327 . S
C845 C861 1.429 . S
C845 H867 0.950 . S
C846 H842 0.949 . S
C846 C854 1.574 . S
C846 C862 1.368 . S
H847 C855 0.950 . S
H848 C853 0.950 . S
H849 C854 0.949 . S
H850 C856 0.950 . S
H851 C857 0.950 . S
H852 C858 0.949 . S
C853 H848 0.950 . S
C853 C855 1.327 . S
C853 C859 1.429 . S
C854 C846 1.574 . S
C854 H849 0.949 . S
C854 C860 1.368 . S
C855 C839 1.349 . S
C855 H847 0.950 . S
C855 C853 1.327 . S
C856 C844 1.349 . S
C856 H850 0.950 . S
C856 C857 1.327 . S
C857 H851 0.950 . S
C857 C856 1.327 . S
C857 C861 1.429 . S
C858 C841 1.574 . S
C858 H852 0.949 . S
C858 C862 1.368 . S
C859 C840 1.429 . S
C859 C853 1.429 . S
C859 C860 1.523 . S
C860 C841 1.368 . S
C860 C854 1.368 . S
C860 C859 1.523 . S
C861 C845 1.429 . S
C861 C857 1.429 . S
C861 C862 1.523 . S
C862 C846 1.368 . S
C862 C858 1.368 . S
C862 C861 1.523 . S
H863 C838 0.950 . S
H864 C840 0.950 . S
H865 C841 0.949 . S
H866 C843 0.950 . S
H867 C845 0.950 . S
C868 C869 1.349 . S
C868 C870 1.327 . S
C868 H893 0.950 . S
C869 C868 1.349 . S
C869 C885 1.349 . S
C870 C868 1.327 . S
C870 C889 1.429 . S
C870 H894 0.950 . S
C871 C888 1.574 . S
C871 C890 1.368 . S
C871 H895 0.949 . S
H872 C876 0.949 . S
C873 C874 1.349 . S
C873 C875 1.327 . S
C873 H896 0.950 . S
C874 C873 1.349 . S
C874 C886 1.349 . S
C875 C873 1.327 . S
C875 C891 1.429 . S
C875 H897 0.950 . S
C876 H872 0.949 . S
C876 C884 1.574 . S
C876 C892 1.368 . S
H877 C885 0.950 . S
H878 C883 0.950 . S
H879 C884 0.949 . S
H880 C886 0.950 . S
H881 C887 0.950 . S
H882 C888 0.949 . S
C883 H878 0.950 . S
C883 C885 1.327 . S
C883 C889 1.429 . S
C884 C876 1.574 . S
C884 H879 0.949 . S
C884 C890 1.368 . S
C885 C869 1.349 . S
C885 H877 0.950 . S
C885 C883 1.327 . S
C886 C874 1.349 . S
C886 H880 0.950 . S
C886 C887 1.327 . S
C887 H881 0.950 . S
C887 C886 1.327 . S
C887 C891 1.429 . S
C888 C871 1.574 . S
C888 H882 0.949 . S
C888 C892 1.368 . S
C889 C870 1.429 . S
C889 C883 1.429 . S
C889 C890 1.523 . S
C890 C871 1.368 . S
C890 C884 1.368 . S
C890 C889 1.523 . S
C891 C875 1.429 . S
C891 C887 1.429 . S
C891 C892 1.523 . S
C892 C876 1.368 . S
C892 C888 1.368 . S
C892 C891 1.523 . S
H893 C868 0.950 . S
H894 C870 0.950 . S
H895 C871 0.949 . S
H896 C873 0.950 . S
H897 C875 0.950 . S
C898 C899 1.349 . S
C898 C900 1.327 . S
C898 H923 0.950 . S
C899 C898 1.349 . S
C899 C915 1.349 . S
C900 C898 1.327 . S
C900 C919 1.429 . S
C900 H924 0.950 . S
C901 C918 1.574 1_556 S
C901 C920 1.368 . S
C901 H925 0.949 . S
H902 C906 0.949 . S
C903 C904 1.349 . S
C903 C905 1.327 . S
C903 H926 0.950 . S
C904 C903 1.349 . S
C904 C916 1.349 . S
C905 C903 1.327 . S
C905 C921 1.429 . S
C905 H927 0.950 . S
C906 H902 0.949 . S
C906 C914 1.574 . S
C906 C922 1.368 1_556 S
H907 C915 0.950 . S
H908 C913 0.950 . S
H909 C914 0.949 . S
H910 C916 0.950 . S
H911 C917 0.950 . S
H912 C918 0.949 . S
C913 H908 0.950 . S
C913 C915 1.327 . S
C913 C919 1.429 . S
C914 C906 1.574 . S
C914 H909 0.949 . S
C914 C920 1.368 . S
C915 C899 1.349 . S
C915 H907 0.950 . S
C915 C913 1.327 . S
C916 C904 1.349 . S
C916 H910 0.950 . S
C916 C917 1.327 . S
C917 H911 0.950 . S
C917 C916 1.327 . S
C917 C921 1.429 . S
C918 C901 1.574 1_554 S
C918 H912 0.949 . S
C918 C922 1.368 . S
C919 C900 1.429 . S
C919 C913 1.429 . S
C919 C920 1.523 . S
C920 C901 1.368 . S
C920 C914 1.368 . S
C920 C919 1.523 . S
C921 C905 1.429 . S
C921 C917 1.429 . S
C921 C922 1.523 . S
C922 C906 1.368 1_554 S
C922 C918 1.368 . S
C922 C921 1.523 . S
H923 C898 0.950 . S
H924 C900 0.950 . S
H925 C901 0.949 . S
H926 C903 0.950 . S
H927 C905 0.950 . S
C928 C929 1.349 . S
C928 C930 1.327 . S
C928 H953 0.901 1_545 S
C929 C928 1.349 . S
C929 C945 1.349 . S
C930 C928 1.327 . S
C930 C949 1.429 . S
C930 H954 0.950 . S
C931 C948 1.574 . S
C931 C950 1.368 . S
C931 H955 0.949 . S
H932 C936 0.949 . S
C933 C934 1.349 . S
C933 C935 1.327 . S
C933 H956 0.950 . S
C934 C933 1.349 . S
C934 C946 1.349 . S
C935 C933 1.327 . S
C935 C951 1.429 . S
C935 H957 0.950 . S
C936 H932 0.949 . S
C936 C944 1.574 . S
C936 C952 1.368 . S
H937 C945 0.950 . S
H938 C943 0.950 . S
H939 C944 0.949 . S
H940 C946 0.950 . S
H941 C947 0.950 . S
H942 C948 0.949 . S
C943 H938 0.950 . S
C943 C945 1.327 . S
C943 C949 1.429 . S
C944 C936 1.574 . S
C944 H939 0.949 . S
C944 C950 1.368 . S
C945 C929 1.349 . S
C945 H937 0.950 . S
C945 C943 1.327 . S
C946 C934 1.349 . S
C946 H940 0.950 . S
C946 C947 1.327 . S
C947 H941 0.950 . S
C947 C946 1.327 . S
C947 C951 1.429 . S
C948 C931 1.574 . S
C948 H942 0.949 . S
C948 C952 1.368 . S
C949 C930 1.429 . S
C949 C943 1.429 . S
C949 C950 1.523 . S
C950 C931 1.368 . S
C950 C944 1.368 . S
C950 C949 1.523 . S
C951 C935 1.429 . S
C951 C947 1.429 . S
C951 C952 1.523 . S
C952 C936 1.368 . S
C952 C948 1.368 . S
C952 C951 1.523 . S
H953 C928 0.901 1_565 S
H954 C930 0.950 . S
H955 C931 0.949 . S
H956 C933 0.950 . S
H957 C935 0.950 . S
C958 C959 1.349 . S
C958 C960 1.327 . S
C958 H983 0.950 . S
C959 C958 1.349 . S
C959 C975 1.349 . S
C960 C958 1.327 . S
C960 C979 1.429 . S
C960 H984 0.950 . S
C961 C978 1.574 . S
C961 C980 1.368 . S
C961 H985 0.949 . S
H962 C966 0.949 1_565 S
C963 C964 1.349 . S
C963 C965 1.327 . S
C963 H986 0.950 . S
C964 C963 1.349 . S
C964 C976 1.349 . S
C965 C963 1.327 . S
C965 C981 1.429 . S
C965 H987 0.950 . S
C966 H962 0.949 1_545 S
C966 C974 1.574 . S
C966 C982 1.374 . S
H967 C975 0.950 . S
H968 C973 0.950 . S
H969 C974 0.949 . S
H970 C976 0.950 . S
H971 C977 0.950 . S
H972 C978 0.949 . S
C973 H968 0.950 . S
C973 C975 1.327 . S
C973 C979 1.429 . S
C974 C966 1.574 . S
C974 H969 0.949 . S
C974 C980 1.368 . S
C975 C959 1.349 . S
C975 H967 0.950 . S
C975 C973 1.327 . S
C976 C964 1.349 . S
C976 H970 0.950 . S
C976 C977 1.327 . S
C977 H971 0.950 . S
C977 C976 1.327 . S
C977 C981 1.429 . S
C978 C961 1.574 . S
C978 H972 0.949 . S
C978 C982 1.391 . S
C979 C960 1.429 . S
C979 C973 1.429 . S
C979 C980 1.523 . S
C980 C961 1.368 . S
C980 C974 1.368 . S
C980 C979 1.523 . S
C981 C965 1.429 . S
C981 C977 1.429 . S
C981 C982 1.488 1_565 S
C982 C966 1.374 . S
C982 C978 1.391 . S
C982 C981 1.488 1_545 S
H983 C958 0.950 . S
H984 C960 0.950 . S
H985 C961 0.949 . S
H986 C963 0.950 . S
H987 C965 0.950 . S
C988 C989 1.349 . S
C988 C990 1.327 . S
C988 H1013 0.950 . S
C989 C988 1.349 . S
C989 C1005 1.349 . S
C990 C988 1.327 . S
C990 C1009 1.429 . S
C990 H1014 0.950 . S
C991 C1008 1.574 . S
C991 C1010 1.368 . S
C991 H1015 0.949 . S
H992 C996 0.949 . S
C993 C994 1.349 . S
C993 C995 1.327 . S
C993 H1016 0.950 . S
C994 C993 1.349 . S
C994 C1006 1.349 . S
C995 C993 1.327 . S
C995 C1011 1.429 . S
C995 H1017 0.950 . S
C996 H992 0.949 . S
C996 C1004 1.574 . S
C996 C1012 1.368 . S
H997 C1005 0.950 . S
H998 C1003 0.950 . S
H999 C1004 0.949 . S
H1000 C1006 0.950 . S
H1001 C1007 0.950 . S
H1002 C1008 0.949 . S
C1003 H998 0.950 . S
C1003 C1005 1.327 . S
C1003 C1009 1.429 . S
C1004 C996 1.574 . S
C1004 H999 0.949 . S
C1004 C1010 1.368 . S
C1005 C989 1.349 . S
C1005 H997 0.950 . S
C1005 C1003 1.327 . S
C1006 C994 1.349 . S
C1006 H1000 0.950 . S
C1006 C1007 1.327 . S
C1007 H1001 0.950 . S
C1007 C1006 1.327 . S
C1007 C1011 1.429 . S
C1008 C991 1.574 . S
C1008 H1002 0.949 . S
C1008 C1012 1.368 . S
C1009 C990 1.429 . S
C1009 C1003 1.429 . S
C1009 C1010 1.523 . S
C1010 C991 1.368 . S
C1010 C1004 1.368 . S
C1010 C1009 1.523 . S
C1011 C995 1.429 . S
C1011 C1007 1.429 . S
C1011 C1012 1.523 . S
C1012 C996 1.368 . S
C1012 C1008 1.368 . S
C1012 C1011 1.523 . S
H1013 C988 0.950 . S
H1014 C990 0.950 . S
H1015 C991 0.949 . S
H1016 C993 0.950 . S
H1017 C995 0.950 . S
C1018 C1019 1.349 . S
C1018 C1020 1.327 . S
C1018 H1043 0.950 . S
C1019 C1018 1.349 . S
C1019 C1035 1.349 . S
C1020 C1018 1.327 . S
C1020 C1039 1.429 . S
C1020 H1044 0.950 . S
C1021 C1038 1.574 . S
C1021 C1040 1.368 . S
C1021 H1045 0.949 . S
H1022 C1026 0.949 . S
C1023 C1024 1.349 . S
C1023 C1025 1.327 . S
C1023 H1046 0.950 . S
C1024 C1023 1.349 . S
C1024 C1036 1.349 . S
C1025 C1023 1.327 . S
C1025 C1041 1.429 . S
C1025 H1047 0.950 . S
C1026 H1022 0.949 . S
C1026 C1034 1.574 1_545 S
C1026 C1042 1.368 . S
H1027 C1035 0.950 . S
H1028 C1033 0.950 . S
H1029 C1034 0.949 . S
H1030 C1036 0.950 . S
H1031 C1037 0.950 . S
H1032 C1038 0.952 . S
C1033 H1028 0.950 . S
C1033 C1035 1.327 . S
C1033 C1039 1.429 . S
C1034 C1026 1.574 1_565 S
C1034 H1029 0.949 . S
C1034 C1040 1.368 . S
C1035 C1019 1.349 . S
C1035 H1027 0.950 . S
C1035 C1033 1.327 . S
C1036 C1024 1.349 . S
C1036 H1030 0.950 . S
C1036 C1037 1.327 . S
C1037 H1031 0.950 . S
C1037 C1036 1.327 . S
C1037 C1041 1.429 . S
C1038 C1021 1.574 . S
C1038 H1032 0.952 . S
C1038 C1042 1.368 1_565 S
C1039 C1020 1.429 . S
C1039 C1033 1.429 . S
C1039 C1040 1.523 . S
C1040 C1021 1.368 . S
C1040 C1034 1.368 . S
C1040 C1039 1.523 . S
C1041 C1025 1.429 . S
C1041 C1037 1.429 . S
C1041 C1042 1.523 . S
C1042 C1026 1.368 . S
C1042 C1038 1.368 1_545 S
C1042 C1041 1.523 . S
H1043 C1018 0.950 . S
H1044 C1020 0.950 . S
H1045 C1021 0.949 . S
H1046 C1023 0.950 . S
H1047 C1025 0.950 . S
C1048 C1049 1.349 . S
C1048 C1050 1.327 . S
C1048 H1073 0.950 . S
C1049 C1048 1.349 . S
C1049 C1065 1.349 . S
C1050 C1048 1.327 . S
C1050 C1069 1.429 . S
C1050 H1074 0.950 . S
C1051 C1068 1.574 . S
C1051 C1070 1.368 . S
C1051 H1075 0.949 . S
H1052 C1056 0.949 . S
C1053 C1054 1.349 . S
C1053 C1055 1.327 . S
C1053 H1076 0.950 . S
C1054 C1053 1.349 . S
C1054 C1066 1.349 . S
C1055 C1053 1.327 . S
C1055 C1071 1.429 . S
C1055 H1077 0.950 . S
C1056 H1052 0.949 . S
C1056 C1064 1.574 . S
C1056 C1072 1.368 . S
H1057 C1065 0.945 . S
H1058 C1063 0.950 . S
H1059 C1064 0.949 . S
H1060 C1066 0.950 . S
H1061 C1067 0.950 . S
H1062 C1068 0.949 . S
C1063 H1058 0.950 . S
C1063 C1065 1.327 . S
C1063 C1069 1.429 . S
C1064 C1056 1.574 . S
C1064 H1059 0.949 . S
C1064 C1070 1.368 . S
C1065 C1049 1.349 . S
C1065 H1057 0.945 . S
C1065 C1063 1.327 . S
C1066 C1054 1.349 . S
C1066 H1060 0.950 . S
C1066 C1067 1.327 . S
C1067 H1061 0.950 . S
C1067 C1066 1.327 . S
C1067 C1071 1.429 . S
C1068 C1051 1.574 . S
C1068 H1062 0.949 . S
C1068 C1072 1.368 . S
C1069 C1050 1.429 . S
C1069 C1063 1.429 . S
C1069 C1070 1.523 . S
C1070 C1051 1.368 . S
C1070 C1064 1.368 . S
C1070 C1069 1.523 . S
C1071 C1055 1.429 . S
C1071 C1067 1.429 . S
C1071 C1072 1.523 . S
C1072 C1056 1.368 . S
C1072 C1068 1.368 . S
C1072 C1071 1.523 . S
H1073 C1048 0.950 . S
H1074 C1050 0.950 . S
H1075 C1051 0.949 . S
H1076 C1053 0.950 . S
H1077 C1055 0.950 . S
C1078 C1079 1.349 . S
C1078 C1080 1.327 . S
C1078 H1103 0.950 . S
C1079 C1078 1.349 . S
C1079 C1095 1.349 . S
C1080 C1078 1.327 . S
C1080 C1099 1.429 . S
C1080 H1104 0.950 . S
C1081 C1098 1.574 . S
C1081 C1100 1.368 . S
C1081 H1105 0.949 . S
H1082 C1086 0.949 1_565 S
C1083 C1084 1.349 . S
C1083 C1085 1.327 . S
C1083 H1106 0.950 . S
C1084 C1083 1.349 . S
C1084 C1096 1.349 . S
C1085 C1083 1.327 . S
C1085 C1101 1.429 . S
C1085 H1107 0.950 . S
C1086 H1082 0.949 1_545 S
C1086 C1094 1.574 . S
C1086 C1102 1.368 1_545 S
H1087 C1095 0.950 . S
H1088 C1093 0.950 . S
H1089 C1094 0.949 . S
H1090 C1096 0.950 . S
H1091 C1097 0.950 . S
H1092 C1098 0.935 1_565 S
C1093 H1088 0.950 . S
C1093 C1095 1.327 . S
C1093 C1099 1.429 . S
C1094 C1086 1.574 . S
C1094 H1089 0.949 . S
C1094 C1100 1.368 . S
C1095 C1079 1.349 . S
C1095 H1087 0.950 . S
C1095 C1093 1.327 . S
C1096 C1084 1.349 . S
C1096 H1090 0.950 . S
C1096 C1097 1.327 . S
C1097 H1091 0.950 . S
C1097 C1096 1.327 . S
C1097 C1101 1.429 . S
C1098 C1081 1.574 . S
C1098 H1092 0.935 1_545 S
C1098 C1102 1.368 1_545 S
C1099 C1080 1.429 . S
C1099 C1093 1.429 . S
C1099 C1100 1.523 . S
C1100 C1081 1.368 . S
C1100 C1094 1.368 . S
C1100 C1099 1.523 . S
C1101 C1085 1.429 . S
C1101 C1097 1.429 . S
C1101 C1102 1.523 . S
C1102 C1086 1.368 1_565 S
C1102 C1098 1.368 1_565 S
C1102 C1101 1.523 . S
H1103 C1078 0.950 . S
H1104 C1080 0.950 . S
H1105 C1081 0.949 . S
H1106 C1083 0.950 . S
H1107 C1085 0.950 . S
C1108 C1109 1.349 . S
C1108 C1110 1.327 . S
C1108 H1133 0.950 . S
C1109 C1108 1.349 . S
C1109 C1125 1.349 . S
C1110 C1108 1.327 . S
C1110 C1129 1.429 . S
C1110 H1134 0.950 . S
C1111 C1128 1.574 . S
C1111 C1130 1.368 . S
C1111 H1135 0.949 . S
H1112 C1116 0.949 . S
C1113 C1114 1.349 . S
C1113 C1115 1.327 . S
C1113 H1136 0.950 . S
C1114 C1113 1.349 . S
C1114 C1126 1.349 . S
C1115 C1113 1.327 . S
C1115 C1131 1.429 . S
C1115 H1137 0.950 . S
C1116 H1112 0.949 . S
C1116 C1124 1.574 . S
C1116 C1132 1.368 . S
H1117 C1125 0.951 1_565 S
H1118 C1123 0.950 . S
H1119 C1124 0.949 . S
H1120 C1126 0.950 . S
H1121 C1127 0.950 . S
H1122 C1128 0.949 . S
C1123 H1118 0.950 . S
C1123 C1125 1.327 . S
C1123 C1129 1.429 . S
C1124 C1116 1.574 . S
C1124 H1119 0.949 . S
C1124 C1130 1.368 . S
C1125 C1109 1.349 . S
C1125 H1117 0.951 1_545 S
C1125 C1123 1.327 . S
C1126 C1114 1.349 . S
C1126 H1120 0.950 . S
C1126 C1127 1.327 . S
C1127 H1121 0.950 . S
C1127 C1126 1.327 . S
C1127 C1131 1.429 . S
C1128 C1111 1.574 . S
C1128 H1122 0.949 . S
C1128 C1132 1.368 . S
C1129 C1110 1.429 . S
C1129 C1123 1.429 . S
C1129 C1130 1.523 . S
C1130 C1111 1.368 . S
C1130 C1124 1.368 . S
C1130 C1129 1.523 . S
C1131 C1115 1.429 . S
C1131 C1127 1.429 . S
C1131 C1132 1.523 . S
C1132 C1116 1.368 . S
C1132 C1128 1.368 . S
C1132 C1131 1.523 . S
H1133 C1108 0.950 . S
H1134 C1110 0.950 . S
H1135 C1111 0.949 . S
H1136 C1113 0.950 . S
H1137 C1115 0.950 . S
C1138 C1139 1.349 . S
C1138 C1140 1.327 . S
C1138 H1163 0.950 . S
C1139 C1138 1.349 . S
C1139 C1155 1.349 . S
C1140 C1138 1.327 . S
C1140 C1159 1.429 . S
C1140 H1164 0.950 . S
C1141 C1158 1.574 1_565 S
C1141 C1160 1.368 . S
C1141 H1165 0.949 . S
H1142 C1146 0.949 . S
C1143 C1144 1.349 . S
C1143 C1145 1.327 . S
C1143 H1166 0.950 . S
C1144 C1143 1.349 . S
C1144 C1156 1.349 . S
C1145 C1143 1.327 . S
C1145 C1161 1.429 . S
C1145 H1167 0.950 . S
C1146 H1142 0.949 . S
C1146 C1154 1.574 1_545 S
C1146 C1162 1.368 . S
H1147 C1155 0.950 . S
H1148 C1153 0.950 . S
H1149 C1154 0.949 . S
H1150 C1156 0.950 . S
H1151 C1157 0.950 . S
H1152 C1158 0.949 . S
C1153 H1148 0.950 . S
C1153 C1155 1.327 . S
C1153 C1159 1.429 . S
C1154 C1146 1.574 1_565 S
C1154 H1149 0.949 . S
C1154 C1160 1.368 . S
C1155 C1139 1.349 . S
C1155 H1147 0.950 . S
C1155 C1153 1.327 . S
C1156 C1144 1.349 . S
C1156 H1150 0.950 . S
C1156 C1157 1.327 . S
C1157 H1151 0.950 . S
C1157 C1156 1.327 . S
C1157 C1161 1.429 . S
C1158 C1141 1.574 1_545 S
C1158 H1152 0.949 . S
C1158 C1162 1.368 . S
C1159 C1140 1.429 . S
C1159 C1153 1.429 . S
C1159 C1160 1.523 . S
C1160 C1141 1.368 . S
C1160 C1154 1.368 . S
C1160 C1159 1.523 . S
C1161 C1145 1.429 . S
C1161 C1157 1.429 . S
C1161 C1162 1.523 . S
C1162 C1146 1.368 . S
C1162 C1158 1.368 . S
C1162 C1161 1.523 . S
H1163 C1138 0.950 . S
H1164 C1140 0.950 . S
H1165 C1141 0.949 . S
H1166 C1143 0.950 . S
H1167 C1145 0.950 . S
C1168 C1169 1.349 . S
C1168 C1170 1.327 . S
C1168 H1193 0.950 . S
C1169 C1168 1.349 . S
C1169 C1185 1.349 . S
C1170 C1168 1.327 . S
C1170 C1189 1.429 . S
C1170 H1194 0.950 . S
C1171 C1188 1.574 . S
C1171 C1190 1.368 . S
C1171 H1195 0.949 . S
H1172 C1176 0.949 . S
C1173 C1174 1.349 . S
C1173 C1175 1.327 . S
C1173 H1196 0.950 . S
C1174 C1173 1.349 . S
C1174 C1186 1.349 . S
C1175 C1173 1.327 . S
C1175 C1191 1.429 . S
C1175 H1197 0.950 . S
C1176 H1172 0.949 . S
C1176 C1184 1.574 . S
C1176 C1192 1.368 . S
H1177 C1185 0.950 . S
H1178 C1183 0.950 . S
H1179 C1184 0.949 . S
H1180 C1186 0.950 . S
H1181 C1187 0.950 . S
H1182 C1188 0.949 . S
C1183 H1178 0.950 . S
C1183 C1185 1.327 . S
C1183 C1189 1.429 . S
C1184 C1176 1.574 . S
C1184 H1179 0.949 . S
C1184 C1190 1.368 . S
C1185 C1169 1.349 . S
C1185 H1177 0.950 . S
C1185 C1183 1.327 . S
C1186 C1174 1.349 . S
C1186 H1180 0.950 . S
C1186 C1187 1.327 . S
C1187 H1181 0.950 . S
C1187 C1186 1.327 . S
C1187 C1191 1.429 . S
C1188 C1171 1.574 . S
C1188 H1182 0.949 . S
C1188 C1192 1.368 . S
C1189 C1170 1.429 . S
C1189 C1183 1.429 . S
C1189 C1190 1.523 . S
C1190 C1171 1.368 . S
C1190 C1184 1.368 . S
C1190 C1189 1.523 . S
C1191 C1175 1.429 . S
C1191 C1187 1.429 . S
C1191 C1192 1.523 . S
C1192 C1176 1.368 . S
C1192 C1188 1.368 . S
C1192 C1191 1.523 . S
H1193 C1168 0.950 . S
H1194 C1170 0.950 . S
H1195 C1171 0.949 . S
H1196 C1173 0.950 . S
H1197 C1175 0.950 . S
C1198 C1199 1.349 . S
C1198 C1200 1.327 . S
C1198 H1223 0.950 . S
C1199 C1198 1.349 . S
C1199 C1215 1.349 . S
C1200 C1198 1.327 . S
C1200 C1219 1.429 . S
C1200 H1224 0.950 . S
C1201 C1218 1.574 . S
C1201 C1220 1.368 . S
C1201 H1225 0.949 . S
H1202 C1206 0.949 . S
C1203 C1204 1.349 . S
C1203 C1205 1.327 . S
C1203 H1226 0.950 . S
C1204 C1203 1.349 . S
C1204 C1216 1.349 . S
C1205 C1203 1.327 . S
C1205 C1221 1.429 . S
C1205 H1227 0.950 . S
C1206 H1202 0.949 . S
C1206 C1214 1.574 . S
C1206 C1222 1.368 . S
H1207 C1215 0.950 . S
H1208 C1213 0.950 . S
H1209 C1214 0.949 . S
H1210 C1216 0.950 . S
H1211 C1217 0.950 . S
H1212 C1218 0.949 . S
C1213 H1208 0.950 . S
C1213 C1215 1.327 . S
C1213 C1219 1.429 . S
C1214 C1206 1.574 . S
C1214 H1209 0.949 . S
C1214 C1220 1.368 . S
C1215 C1199 1.349 . S
C1215 H1207 0.950 . S
C1215 C1213 1.327 . S
C1216 C1204 1.349 . S
C1216 H1210 0.950 . S
C1216 C1217 1.327 . S
C1217 H1211 0.950 . S
C1217 C1216 1.327 . S
C1217 C1221 1.429 . S
C1218 C1201 1.574 . S
C1218 H1212 0.949 . S
C1218 C1222 1.368 . S
C1219 C1200 1.429 . S
C1219 C1213 1.429 . S
C1219 C1220 1.523 . S
C1220 C1201 1.368 . S
C1220 C1214 1.368 . S
C1220 C1219 1.523 . S
C1221 C1205 1.429 . S
C1221 C1217 1.429 . S
C1221 C1222 1.523 . S
C1222 C1206 1.368 . S
C1222 C1218 1.368 . S
C1222 C1221 1.523 . S
H1223 C1198 0.950 . S
H1224 C1200 0.950 . S
H1225 C1201 0.949 . S
H1226 C1203 0.950 . S
H1227 C1205 0.950 . S
C1228 C1229 1.349 . S
C1228 C1230 1.327 . S
C1228 H1253 0.950 . S
C1229 C1228 1.349 . S
C1229 C1245 1.349 . S
C1230 C1228 1.327 . S
C1230 C1249 1.429 . S
C1230 H1254 0.950 . S
C1231 C1248 1.574 . S
C1231 C1250 1.368 . S
C1231 H1255 0.949 . S
H1232 C1236 0.949 1_655 S
C1233 C1234 1.349 . S
C1233 C1235 1.327 . S
C1233 H1256 0.950 . S
C1234 C1233 1.349 . S
C1234 C1246 1.349 . S
C1235 C1233 1.327 . S
C1235 C1251 1.429 . S
C1235 H1257 0.950 . S
C1236 H1232 0.949 1_455 S
C1236 C1244 1.574 . S
C1236 C1252 1.368 1_455 S
H1237 C1245 0.950 . S
H1238 C1243 0.950 . S
H1239 C1244 0.949 . S
H1240 C1246 0.950 . S
H1241 C1247 0.950 . S
H1242 C1248 0.949 1_655 S
C1243 H1238 0.950 . S
C1243 C1245 1.327 . S
C1243 C1249 1.429 . S
C1244 C1236 1.574 . S
C1244 H1239 0.949 . S
C1244 C1250 1.368 . S
C1245 C1229 1.349 . S
C1245 H1237 0.950 . S
C1245 C1243 1.327 . S
C1246 C1234 1.349 . S
C1246 H1240 0.950 . S
C1246 C1247 1.327 . S
C1247 H1241 0.950 . S
C1247 C1246 1.327 . S
C1247 C1251 1.429 . S
C1248 C1231 1.574 . S
C1248 H1242 0.949 1_455 S
C1248 C1252 1.368 1_455 S
C1249 C1230 1.429 . S
C1249 C1243 1.429 . S
C1249 C1250 1.523 . S
C1250 C1231 1.368 . S
C1250 C1244 1.368 . S
C1250 C1249 1.523 . S
C1251 C1235 1.429 . S
C1251 C1247 1.429 . S
C1251 C1252 1.523 . S
C1252 C1236 1.368 1_655 S
C1252 C1248 1.368 1_655 S
C1252 C1251 1.523 . S
H1253 C1228 0.950 . S
H1254 C1230 0.950 . S
H1255 C1231 0.949 . S
H1256 C1233 0.950 . S
H1257 C1235 0.950 . S
C1258 C1259 1.349 . S
C1258 C1260 1.327 . S
C1258 H1283 0.950 . S
C1259 C1258 1.349 . S
C1259 C1275 1.349 . S
C1260 C1258 1.327 . S
C1260 C1279 1.429 . S
C1260 H1284 0.950 . S
C1261 C1278 1.574 . S
C1261 C1280 1.368 . S
C1261 H1285 0.949 . S
H1262 C1266 0.949 . S
C1263 C1264 1.349 . S
C1263 C1265 1.327 . S
C1263 H1286 0.950 . S
C1264 C1263 1.349 . S
C1264 C1276 1.349 . S
C1265 C1263 1.327 . S
C1265 C1281 1.429 . S
C1265 H1287 0.950 . S
C1266 H1262 0.949 . S
C1266 C1274 1.574 . S
C1266 C1282 1.368 . S
H1267 C1275 0.950 . S
H1268 C1273 0.950 . S
H1269 C1274 0.949 . S
H1270 C1276 0.950 . S
H1271 C1277 0.950 . S
H1272 C1278 0.949 . S
C1273 H1268 0.950 . S
C1273 C1275 1.327 . S
C1273 C1279 1.429 . S
C1274 C1266 1.574 . S
C1274 H1269 0.949 . S
C1274 C1280 1.368 . S
C1275 C1259 1.349 . S
C1275 H1267 0.950 . S
C1275 C1273 1.327 . S
C1276 C1264 1.349 . S
C1276 H1270 0.950 . S
C1276 C1277 1.327 . S
C1277 H1271 0.950 . S
C1277 C1276 1.327 . S
C1277 C1281 1.429 . S
C1278 C1261 1.574 . S
C1278 H1272 0.949 . S
C1278 C1282 1.368 . S
C1279 C1260 1.429 . S
C1279 C1273 1.429 . S
C1279 C1280 1.523 . S
C1280 C1261 1.368 . S
C1280 C1274 1.368 . S
C1280 C1279 1.523 . S
C1281 C1265 1.429 . S
C1281 C1277 1.429 . S
C1281 C1282 1.523 . S
C1282 C1266 1.368 . S
C1282 C1278 1.368 . S
C1282 C1281 1.523 . S
H1283 C1258 0.950 . S
H1284 C1260 0.950 . S
H1285 C1261 0.949 . S
H1286 C1263 0.950 . S
H1287 C1265 0.950 . S
C1288 C1289 1.349 . S
C1288 C1290 1.327 . S
C1288 H1313 0.950 . S
C1289 C1288 1.349 . S
C1289 C1305 1.349 . S
C1290 C1288 1.327 . S
C1290 C1309 1.429 . S
C1290 H1314 0.950 . S
C1291 C1308 1.574 . S
C1291 C1310 1.368 . S
C1291 H1315 0.949 . S
H1292 C1296 0.949 . S
C1293 C1294 1.349 . S
C1293 C1295 1.327 . S
C1293 H1316 0.950 . S
C1294 C1293 1.349 . S
C1294 C1306 1.349 . S
C1295 C1293 1.327 . S
C1295 C1311 1.429 . S
C1295 H1317 0.950 . S
C1296 H1292 0.949 . S
C1296 C1304 1.574 1_455 S
C1296 C1312 1.368 . S
H1297 C1305 0.950 . S
H1298 C1303 0.950 . S
H1299 C1304 0.949 . S
H1300 C1306 0.950 . S
H1301 C1307 0.950 . S
H1302 C1308 0.949 . S
C1303 H1298 0.950 . S
C1303 C1305 1.327 . S
C1303 C1309 1.429 . S
C1304 C1296 1.574 1_655 S
C1304 H1299 0.949 . S
C1304 C1310 1.368 . S
C1305 C1289 1.349 . S
C1305 H1297 0.950 . S
C1305 C1303 1.327 . S
C1306 C1294 1.349 . S
C1306 H1300 0.950 . S
C1306 C1307 1.327 . S
C1307 H1301 0.950 . S
C1307 C1306 1.327 . S
C1307 C1311 1.429 . S
C1308 C1291 1.574 . S
C1308 H1302 0.949 . S
C1308 C1312 1.368 1_655 S
C1309 C1290 1.429 . S
C1309 C1303 1.429 . S
C1309 C1310 1.523 . S
C1310 C1291 1.368 . S
C1310 C1304 1.368 . S
C1310 C1309 1.523 . S
C1311 C1295 1.429 . S
C1311 C1307 1.429 . S
C1311 C1312 1.523 . S
C1312 C1296 1.368 . S
C1312 C1308 1.368 1_455 S
C1312 C1311 1.523 . S
H1313 C1288 0.950 . S
H1314 C1290 0.950 . S
H1315 C1291 0.949 . S
H1316 C1293 0.950 . S
H1317 C1295 0.950 . S
C1318 C1319 1.349 . S
C1318 C1320 1.327 . S
C1318 H1343 0.950 . S
C1319 C1318 1.349 . S
C1319 C1335 1.349 . S
C1320 C1318 1.327 . S
C1320 C1339 1.429 . S
C1320 H1344 0.950 . S
C1321 C1338 1.574 . S
C1321 C1340 1.368 . S
C1321 H1345 0.949 . S
H1322 C1326 0.949 . S
C1323 C1324 1.349 . S
C1323 C1325 1.327 . S
C1323 H1346 0.950 . S
C1324 C1323 1.349 . S
C1324 C1336 1.349 . S
C1325 C1323 1.327 . S
C1325 C1341 1.429 . S
C1325 H1347 0.950 . S
C1326 H1322 0.949 . S
C1326 C1334 1.574 . S
C1326 C1342 1.368 . S
H1327 C1335 0.950 . S
H1328 C1333 0.950 . S
H1329 C1334 0.949 . S
H1330 C1336 0.950 . S
H1331 C1337 0.950 . S
H1332 C1338 0.949 . S
C1333 H1328 0.950 . S
C1333 C1335 1.327 . S
C1333 C1339 1.429 . S
C1334 C1326 1.574 . S
C1334 H1329 0.949 . S
C1334 C1340 1.368 . S
C1335 C1319 1.349 . S
C1335 H1327 0.950 . S
C1335 C1333 1.327 . S
C1336 C1324 1.349 . S
C1336 H1330 0.950 . S
C1336 C1337 1.327 . S
C1337 H1331 0.950 . S
C1337 C1336 1.327 . S
C1337 C1341 1.429 . S
C1338 C1321 1.574 . S
C1338 H1332 0.949 . S
C1338 C1342 1.368 . S
C1339 C1320 1.429 . S
C1339 C1333 1.429 . S
C1339 C1340 1.523 . S
C1340 C1321 1.368 . S
C1340 C1334 1.368 . S
C1340 C1339 1.523 . S
C1341 C1325 1.429 . S
C1341 C1337 1.429 . S
C1341 C1342 1.523 . S
C1342 C1326 1.368 . S
C1342 C1338 1.368 . S
C1342 C1341 1.523 . S
H1343 C1318 0.950 . S
H1344 C1320 0.950 . S
H1345 C1321 0.949 . S
H1346 C1323 0.950 . S
H1347 C1325 0.950 . S
C1348 C1349 1.349 . S
C1348 C1350 1.327 . S
C1348 H1373 0.950 . S
C1349 C1348 1.349 . S
C1349 C1365 1.349 . S
C1350 C1348 1.327 . S
C1350 C1369 1.429 . S
C1350 H1374 0.950 . S
C1351 C1368 1.574 . S
C1351 C1370 1.368 . S
C1351 H1375 0.949 . S
H1352 C1356 0.949 . S
C1353 C1354 1.349 . S
C1353 C1355 1.327 . S
C1353 H1376 0.950 . S
C1354 C1353 1.349 . S
C1354 C1366 1.349 . S
C1355 C1353 1.327 . S
C1355 C1371 1.429 . S
C1355 H1377 0.950 . S
C1356 H1352 0.949 . S
C1356 C1364 1.574 1_655 S
C1356 C1372 1.368 . S
H1357 C1365 0.950 . S
H1358 C1363 0.950 . S
H1359 C1364 0.949 . S
H1360 C1366 0.950 . S
H1361 C1367 0.950 . S
H1362 C1368 0.949 . S
C1363 H1358 0.950 . S
C1363 C1365 1.327 . S
C1363 C1369 1.429 . S
C1364 C1356 1.574 1_455 S
C1364 H1359 0.949 . S
C1364 C1370 1.368 . S
C1365 C1349 1.349 . S
C1365 H1357 0.950 . S
C1365 C1363 1.327 . S
C1366 C1354 1.349 . S
C1366 H1360 0.950 . S
C1366 C1367 1.327 . S
C1367 H1361 0.950 . S
C1367 C1366 1.327 . S
C1367 C1371 1.429 . S
C1368 C1351 1.574 . S
C1368 H1362 0.949 . S
C1368 C1372 1.368 1_455 S
C1369 C1350 1.429 . S
C1369 C1363 1.429 . S
C1369 C1370 1.523 . S
C1370 C1351 1.368 . S
C1370 C1364 1.368 . S
C1370 C1369 1.523 . S
C1371 C1355 1.429 . S
C1371 C1367 1.429 . S
C1371 C1372 1.523 . S
C1372 C1356 1.368 . S
C1372 C1368 1.368 1_655 S
C1372 C1371 1.523 . S
H1373 C1348 0.950 . S
H1374 C1350 0.950 . S
H1375 C1351 0.949 . S
H1376 C1353 0.950 . S
H1377 C1355 0.950 . S
C1378 C1379 1.349 . S
C1378 C1380 1.327 . S
C1378 H1403 0.950 . S
C1379 C1378 1.349 . S
C1379 C1395 1.349 . S
C1380 C1378 1.327 . S
C1380 C1399 1.429 . S
C1380 H1404 0.950 . S
C1381 C1398 1.574 . S
C1381 C1400 1.368 . S
C1381 H1405 0.949 . S
H1382 C1386 0.949 . S
C1383 C1384 1.349 . S
C1383 C1385 1.327 . S
C1383 H1406 0.950 . S
C1384 C1383 1.349 . S
C1384 C1396 1.349 . S
C1385 C1383 1.327 . S
C1385 C1401 1.429 . S
C1385 H1407 0.950 . S
C1386 H1382 0.949 . S
C1386 C1394 1.574 . S
C1386 C1402 1.368 . S
H1387 C1395 0.950 . S
H1388 C1393 0.950 . S
H1389 C1394 0.949 . S
H1390 C1396 0.950 . S
H1391 C1397 0.950 . S
H1392 C1398 0.949 . S
C1393 H1388 0.950 . S
C1393 C1395 1.327 . S
C1393 C1399 1.429 . S
C1394 C1386 1.574 . S
C1394 H1389 0.949 . S
C1394 C1400 1.368 . S
C1395 C1379 1.349 . S
C1395 H1387 0.950 . S
C1395 C1393 1.327 . S
C1396 C1384 1.349 . S
C1396 H1390 0.950 . S
C1396 C1397 1.327 . S
C1397 H1391 0.950 . S
C1397 C1396 1.327 . S
C1397 C1401 1.429 . S
C1398 C1381 1.574 . S
C1398 H1392 0.949 . S
C1398 C1402 1.368 . S
C1399 C1380 1.429 . S
C1399 C1393 1.429 . S
C1399 C1400 1.523 . S
C1400 C1381 1.368 . S
C1400 C1394 1.368 . S
C1400 C1399 1.523 . S
C1401 C1385 1.429 . S
C1401 C1397 1.429 . S
C1401 C1402 1.523 . S
C1402 C1386 1.368 . S
C1402 C1398 1.368 . S
C1402 C1401 1.523 . S
H1403 C1378 0.950 . S
H1404 C1380 0.950 . S
H1405 C1381 0.949 . S
H1406 C1383 0.950 . S
H1407 C1385 0.950 . S
C1408 C1409 1.349 . S
C1408 C1410 1.327 . S
C1408 H1433 0.950 . S
C1409 C1408 1.349 . S
C1409 C1425 1.349 . S
C1410 C1408 1.327 . S
C1410 C1429 1.429 . S
C1410 H1434 0.950 . S
C1411 C1428 1.574 . S
C1411 C1430 1.368 . S
C1411 H1435 0.949 . S
H1412 C1416 0.949 . S
C1413 C1414 1.349 . S
C1413 C1415 1.327 . S
C1413 H1436 0.950 . S
C1414 C1413 1.349 . S
C1414 C1426 1.349 . S
C1415 C1413 1.327 . S
C1415 C1431 1.429 . S
C1415 H1437 0.950 . S
C1416 H1412 0.949 . S
C1416 C1424 1.574 . S
C1416 C1432 1.368 . S
H1417 C1425 0.950 . S
H1418 C1423 0.950 . S
H1419 C1424 0.949 . S
H1420 C1426 0.950 . S
H1421 C1427 0.950 . S
H1422 C1428 0.949 . S
C1423 H1418 0.950 . S
C1423 C1425 1.327 . S
C1423 C1429 1.429 . S
C1424 C1416 1.574 . S
C1424 H1419 0.949 . S
C1424 C1430 1.368 . S
C1425 C1409 1.349 . S
C1425 H1417 0.950 . S
C1425 C1423 1.327 . S
C1426 C1414 1.349 . S
C1426 H1420 0.950 . S
C1426 C1427 1.327 . S
C1427 H1421 0.950 . S
C1427 C1426 1.327 . S
C1427 C1431 1.429 . S
C1428 C1411 1.574 . S
C1428 H1422 0.949 . S
C1428 C1432 1.368 . S
C1429 C1410 1.429 . S
C1429 C1423 1.429 . S
C1429 C1430 1.523 . S
C1430 C1411 1.368 . S
C1430 C1424 1.368 . S
C1430 C1429 1.523 . S
C1431 C1415 1.429 . S
C1431 C1427 1.429 . S
C1431 C1432 1.523 . S
C1432 C1416 1.368 . S
C1432 C1428 1.368 . S
C1432 C1431 1.523 . S
H1433 C1408 0.950 . S
H1434 C1410 0.950 . S
H1435 C1411 0.949 . S
H1436 C1413 0.950 . S
H1437 C1415 0.950 . S
C1438 C1439 1.349 . S
C1438 C1440 1.327 . S
C1438 H1463 0.950 1_655 S
C1439 C1438 1.349 . S
C1439 C1455 1.349 . S
C1440 C1438 1.327 . S
C1440 C1459 1.429 . S
C1440 H1464 0.950 . S
C1441 C1458 1.574 . S
C1441 C1460 1.368 . S
C1441 H1465 0.949 . S
H1442 C1446 0.949 . S
C1443 C1444 1.349 . S
C1443 C1445 1.327 . S
C1443 H1466 0.950 . S
C1444 C1443 1.349 . S
C1444 C1456 1.349 . S
C1445 C1443 1.327 . S
C1445 C1461 1.429 . S
C1445 H1467 0.950 . S
C1446 H1442 0.949 . S
C1446 C1454 1.574 . S
C1446 C1462 1.368 . S
H1447 C1455 0.950 . S
H1448 C1453 0.950 . S
H1449 C1454 0.949 . S
H1450 C1456 0.950 . S
H1451 C1457 0.950 . S
H1452 C1458 0.949 . S
C1453 H1448 0.950 . S
C1453 C1455 1.327 . S
C1453 C1459 1.429 . S
C1454 C1446 1.574 . S
C1454 H1449 0.949 . S
C1454 C1460 1.368 . S
C1455 C1439 1.349 . S
C1455 H1447 0.950 . S
C1455 C1453 1.327 . S
C1456 C1444 1.349 . S
C1456 H1450 0.950 . S
C1456 C1457 1.327 . S
C1457 H1451 0.950 . S
C1457 C1456 1.327 . S
C1457 C1461 1.429 . S
C1458 C1441 1.574 . S
C1458 H1452 0.949 . S
C1458 C1462 1.368 . S
C1459 C1440 1.429 . S
C1459 C1453 1.429 . S
C1459 C1460 1.523 . S
C1460 C1441 1.368 . S
C1460 C1454 1.368 . S
C1460 C1459 1.523 . S
C1461 C1445 1.429 . S
C1461 C1457 1.429 . S
C1461 C1462 1.523 . S
C1462 C1446 1.368 . S
C1462 C1458 1.368 . S
C1462 C1461 1.523 . S
H1463 C1438 0.950 1_455 S
H1464 C1440 0.950 . S
H1465 C1441 0.949 . S
H1466 C1443 0.950 . S
H1467 C1445 0.950 . S
C1468 C1469 1.349 . S
C1468 C1470 1.327 . S
C1468 H1493 0.950 . S
C1469 C1468 1.349 . S
C1469 C1485 1.349 . S
C1470 C1468 1.327 . S
C1470 C1489 1.429 . S
C1470 H1494 0.950 . S
C1471 C1488 1.574 . S
C1471 C1490 1.368 . S
C1471 H1495 0.949 . S
H1472 C1476 0.949 . S
C1473 C1474 1.349 . S
C1473 C1475 1.327 . S
C1473 H1496 0.950 . S
C1474 C1473 1.349 . S
C1474 C1486 1.349 . S
C1475 C1473 1.327 . S
C1475 C1491 1.429 . S
C1475 H1497 0.950 . S
C1476 H1472 0.949 . S
C1476 C1484 1.574 . S
C1476 C1492 1.368 . S
H1477 C1485 0.950 . S
H1478 C1483 0.950 . S
H1479 C1484 0.949 . S
H1480 C1486 0.950 . S
H1481 C1487 0.950 . S
H1482 C1488 0.949 . S
C1483 H1478 0.950 . S
C1483 C1485 1.327 . S
C1483 C1489 1.429 . S
C1484 C1476 1.574 . S
C1484 H1479 0.949 . S
C1484 C1490 1.368 . S
C1485 C1469 1.349 . S
C1485 H1477 0.950 . S
C1485 C1483 1.327 . S
C1486 C1474 1.349 . S
C1486 H1480 0.950 . S
C1486 C1487 1.327 . S
C1487 H1481 0.950 . S
C1487 C1486 1.327 . S
C1487 C1491 1.429 . S
C1488 C1471 1.574 . S
C1488 H1482 0.949 . S
C1488 C1492 1.368 . S
C1489 C1470 1.429 . S
C1489 C1483 1.429 . S
C1489 C1490 1.523 . S
C1490 C1471 1.368 . S
C1490 C1484 1.368 . S
C1490 C1489 1.523 . S
C1491 C1475 1.429 . S
C1491 C1487 1.429 . S
C1491 C1492 1.523 . S
C1492 C1476 1.368 . S
C1492 C1488 1.368 . S
C1492 C1491 1.523 . S
H1493 C1468 0.950 . S
H1494 C1470 0.950 . S
H1495 C1471 0.949 . S
H1496 C1473 0.950 . S
H1497 C1475 0.950 . S
C1498 C1499 1.349 . S
C1498 C1500 1.327 . S
C1498 H1523 0.950 . S
C1499 C1498 1.349 . S
C1499 C1515 1.349 . S
C1500 C1498 1.327 . S
C1500 C1519 1.429 . S
C1500 H1524 0.950 . S
C1501 C1518 1.574 . S
C1501 C1520 1.368 . S
C1501 H1525 0.949 . S
H1502 C1506 0.949 . S
C1503 C1504 1.349 . S
C1503 C1505 1.327 . S
C1503 H1526 0.950 . S
C1504 C1503 1.349 . S
C1504 C1516 1.349 . S
C1505 C1503 1.327 . S
C1505 C1521 1.429 . S
C1505 H1527 0.950 . S
C1506 H1502 0.949 . S
C1506 C1514 1.574 1_554 S
C1506 C1522 1.368 . S
H1507 C1515 0.950 . S
H1508 C1513 0.950 . S
H1509 C1514 0.949 . S
H1510 C1516 0.950 . S
H1511 C1517 0.950 . S
H1512 C1518 0.949 1_554 S
C1513 H1508 0.950 . S
C1513 C1515 1.327 . S
C1513 C1519 1.429 . S
C1514 C1506 1.574 1_556 S
C1514 H1509 0.949 . S
C1514 C1520 1.368 . S
C1515 C1499 1.349 . S
C1515 H1507 0.950 . S
C1515 C1513 1.327 . S
C1516 C1504 1.349 . S
C1516 H1510 0.950 . S
C1516 C1517 1.327 . S
C1517 H1511 0.950 . S
C1517 C1516 1.327 . S
C1517 C1521 1.429 . S
C1518 C1501 1.574 . S
C1518 H1512 0.949 1_556 S
C1518 C1522 1.368 1_556 S
C1519 C1500 1.429 . S
C1519 C1513 1.429 . S
C1519 C1520 1.523 . S
C1520 C1501 1.368 . S
C1520 C1514 1.368 . S
C1520 C1519 1.523 . S
C1521 C1505 1.429 . S
C1521 C1517 1.429 . S
C1521 C1522 1.523 . S
C1522 C1506 1.368 . S
C1522 C1518 1.368 1_554 S
C1522 C1521 1.523 . S
H1523 C1498 0.950 . S
H1524 C1500 0.950 . S
H1525 C1501 0.949 . S
H1526 C1503 0.950 . S
H1527 C1505 0.950 . S
C1528 C1529 1.349 . S
C1528 C1530 1.327 . S
C1528 H1553 0.950 . S
C1529 C1528 1.349 . S
C1529 C1545 1.349 . S
C1530 C1528 1.327 . S
C1530 C1549 1.429 . S
C1530 H1554 0.950 . S
C1531 C1548 1.574 . S
C1531 C1550 1.368 . S
C1531 H1555 0.949 . S
H1532 C1536 0.949 . S
C1533 C1534 1.349 . S
C1533 C1535 1.327 . S
C1533 H1556 0.950 . S
C1534 C1533 1.349 . S
C1534 C1546 1.349 . S
C1535 C1533 1.327 . S
C1535 C1551 1.429 . S
C1535 H1557 0.950 . S
C1536 H1532 0.949 . S
C1536 C1544 1.574 . S
C1536 C1552 1.368 . S
H1537 C1545 0.950 . S
H1538 C1543 0.950 . S
H1539 C1544 0.949 . S
H1540 C1546 0.950 . S
H1541 C1547 0.950 . S
H1542 C1548 0.949 . S
C1543 H1538 0.950 . S
C1543 C1545 1.327 . S
C1543 C1549 1.429 . S
C1544 C1536 1.574 . S
C1544 H1539 0.949 . S
C1544 C1550 1.368 . S
C1545 C1529 1.349 . S
C1545 H1537 0.950 . S
C1545 C1543 1.327 . S
C1546 C1534 1.349 . S
C1546 H1540 0.950 . S
C1546 C1547 1.327 . S
C1547 H1541 0.950 . S
C1547 C1546 1.327 . S
C1547 C1551 1.429 . S
C1548 C1531 1.574 . S
C1548 H1542 0.949 . S
C1548 C1552 1.368 . S
C1549 C1530 1.429 . S
C1549 C1543 1.429 . S
C1549 C1550 1.523 . S
C1550 C1531 1.368 . S
C1550 C1544 1.368 . S
C1550 C1549 1.523 . S
C1551 C1535 1.429 . S
C1551 C1547 1.429 . S
C1551 C1552 1.523 . S
C1552 C1536 1.368 . S
C1552 C1548 1.368 . S
C1552 C1551 1.523 . S
H1553 C1528 0.950 . S
H1554 C1530 0.950 . S
H1555 C1531 0.949 . S
H1556 C1533 0.950 . S
H1557 C1535 0.950 . S
C1558 C1559 1.349 . S
C1558 C1560 1.327 . S
C1558 H1583 0.950 . S
C1559 C1558 1.349 . S
C1559 C1575 1.349 . S
C1560 C1558 1.327 . S
C1560 C1579 1.429 . S
C1560 H1584 0.950 . S
C1561 C1578 1.574 . S
C1561 C1580 1.368 . S
C1561 H1585 0.949 . S
H1562 C1566 0.949 . S
C1563 C1564 1.349 . S
C1563 C1565 1.327 . S
C1563 H1586 0.950 . S
C1564 C1563 1.349 . S
C1564 C1576 1.349 . S
C1565 C1563 1.327 . S
C1565 C1581 1.429 . S
C1565 H1587 0.950 . S
C1566 H1562 0.949 . S
C1566 C1574 1.574 . S
C1566 C1582 1.368 . S
H1567 C1575 0.950 . S
H1568 C1573 0.950 . S
H1569 C1574 0.949 . S
H1570 C1576 0.950 . S
H1571 C1577 0.950 . S
H1572 C1578 0.949 . S
C1573 H1568 0.950 . S
C1573 C1575 1.327 . S
C1573 C1579 1.429 . S
C1574 C1566 1.574 . S
C1574 H1569 0.949 . S
C1574 C1580 1.368 . S
C1575 C1559 1.349 . S
C1575 H1567 0.950 . S
C1575 C1573 1.327 . S
C1576 C1564 1.349 . S
C1576 H1570 0.950 . S
C1576 C1577 1.327 . S
C1577 H1571 0.950 . S
C1577 C1576 1.327 . S
C1577 C1581 1.429 . S
C1578 C1561 1.574 . S
C1578 H1572 0.949 . S
C1578 C1582 1.368 . S
C1579 C1560 1.429 . S
C1579 C1573 1.429 . S
C1579 C1580 1.523 . S
C1580 C1561 1.368 . S
C1580 C1574 1.368 . S
C1580 C1579 1.523 . S
C1581 C1565 1.429 . S
C1581 C1577 1.429 . S
C1581 C1582 1.523 . S
C1582 C1566 1.368 . S
C1582 C1578 1.368 . S
C1582 C1581 1.523 . S
H1583 C1558 0.950 . S
H1584 C1560 0.950 . S
H1585 C1561 0.949 . S
H1586 C1563 0.950 . S
H1587 C1565 0.950 . S
C1588 C1589 1.349 . S
C1588 C1590 1.327 . S
C1588 H1613 0.950 . S
C1589 C1588 1.349 . S
C1589 C1605 1.349 . S
C1590 C1588 1.327 . S
C1590 C1609 1.429 . S
C1590 H1614 0.950 . S
C1591 C1608 1.574 . S
C1591 C1610 1.368 . S
C1591 H1615 0.949 . S
H1592 C1596 0.949 . S
C1593 C1594 1.349 . S
C1593 C1595 1.327 . S
C1593 H1616 0.950 . S
C1594 C1593 1.349 . S
C1594 C1606 1.349 . S
C1595 C1593 1.327 . S
C1595 C1611 1.429 . S
C1595 H1617 0.950 . S
C1596 H1592 0.949 . S
C1596 C1604 1.574 . S
C1596 C1612 1.368 . S
H1597 C1605 0.950 . S
H1598 C1603 0.950 . S
H1599 C1604 0.949 . S
H1600 C1606 0.950 . S
H1601 C1607 0.950 . S
H1602 C1608 0.949 . S
C1603 H1598 0.950 . S
C1603 C1605 1.327 . S
C1603 C1609 1.429 . S
C1604 C1596 1.574 . S
C1604 H1599 0.949 . S
C1604 C1610 1.368 . S
C1605 C1589 1.349 . S
C1605 H1597 0.950 . S
C1605 C1603 1.327 . S
C1606 C1594 1.349 . S
C1606 H1600 0.950 . S
C1606 C1607 1.327 . S
C1607 H1601 0.950 . S
C1607 C1606 1.327 . S
C1607 C1611 1.429 . S
C1608 C1591 1.574 . S
C1608 H1602 0.949 . S
C1608 C1612 1.368 . S
C1609 C1590 1.429 . S
C1609 C1603 1.429 . S
C1609 C1610 1.523 . S
C1610 C1591 1.368 . S
C1610 C1604 1.368 . S
C1610 C1609 1.523 . S
C1611 C1595 1.429 . S
C1611 C1607 1.429 . S
C1611 C1612 1.523 . S
C1612 C1596 1.368 . S
C1612 C1608 1.368 . S
C1612 C1611 1.523 . S
H1613 C1588 0.950 . S
H1614 C1590 0.950 . S
H1615 C1591 0.949 . S
H1616 C1593 0.950 . S
H1617 C1595 0.950 . S
C1618 C1619 1.349 . S
C1618 C1620 1.327 . S
C1618 H1643 0.950 . S
C1619 C1618 1.349 . S
C1619 C1635 1.349 . S
C1620 C1618 1.327 . S
C1620 C1639 1.429 . S
C1620 H1644 0.950 . S
C1621 C1638 1.574 1_554 S
C1621 C1640 1.368 . S
C1621 H1645 0.949 . S
H1622 C1626 0.949 . S
C1623 C1624 1.349 . S
C1623 C1625 1.327 . S
C1623 H1646 0.950 . S
C1624 C1623 1.349 . S
C1624 C1636 1.349 . S
C1625 C1623 1.327 . S
C1625 C1641 1.429 . S
C1625 H1647 0.950 . S
C1626 H1622 0.949 . S
C1626 C1634 1.574 . S
C1626 C1642 1.368 1_554 S
H1627 C1635 0.950 . S
H1628 C1633 0.950 . S
H1629 C1634 0.949 . S
H1630 C1636 0.950 . S
H1631 C1637 0.950 . S
H1632 C1638 0.949 . S
C1633 H1628 0.950 . S
C1633 C1635 1.327 . S
C1633 C1639 1.429 . S
C1634 C1626 1.574 . S
C1634 H1629 0.949 . S
C1634 C1640 1.368 . S
C1635 C1619 1.349 . S
C1635 H1627 0.950 . S
C1635 C1633 1.327 . S
C1636 C1624 1.349 . S
C1636 H1630 0.950 . S
C1636 C1637 1.327 . S
C1637 H1631 0.950 . S
C1637 C1636 1.327 . S
C1637 C1641 1.429 . S
C1638 C1621 1.574 1_556 S
C1638 H1632 0.949 . S
C1638 C1642 1.368 . S
C1639 C1620 1.429 . S
C1639 C1633 1.429 . S
C1639 C1640 1.523 . S
C1640 C1621 1.368 . S
C1640 C1634 1.368 . S
C1640 C1639 1.523 . S
C1641 C1625 1.429 . S
C1641 C1637 1.429 . S
C1641 C1642 1.523 . S
C1642 C1626 1.368 1_556 S
C1642 C1638 1.368 . S
C1642 C1641 1.523 . S
H1643 C1618 0.950 . S
H1644 C1620 0.950 . S
H1645 C1621 0.949 . S
H1646 C1623 0.950 . S
H1647 C1625 0.950 . S
C1648 C1649 1.349 . S
C1648 C1650 1.327 . S
C1648 H1673 0.950 . S
C1649 C1648 1.349 . S
C1649 C1665 1.349 . S
C1650 C1648 1.327 . S
C1650 C1669 1.429 . S
C1650 H1674 0.950 . S
C1651 C1668 1.574 . S
C1651 C1670 1.368 . S
C1651 H1675 0.949 . S
H1652 C1656 0.949 . S
C1653 C1654 1.349 . S
C1653 C1655 1.327 . S
C1653 H1676 0.950 . S
C1654 C1653 1.349 . S
C1654 C1666 1.349 . S
C1655 C1653 1.327 . S
C1655 C1671 1.429 . S
C1655 H1677 0.950 . S
C1656 H1652 0.949 . S
C1656 C1664 1.574 . S
C1656 C1672 1.368 . S
H1657 C1665 0.950 . S
H1658 C1663 0.950 . S
H1659 C1664 0.949 . S
H1660 C1666 0.950 . S
H1661 C1667 0.950 . S
H1662 C1668 0.949 . S
C1663 H1658 0.950 . S
C1663 C1665 1.327 . S
C1663 C1669 1.429 . S
C1664 C1656 1.574 . S
C1664 H1659 0.949 . S
C1664 C1670 1.368 . S
C1665 C1649 1.349 . S
C1665 H1657 0.950 . S
C1665 C1663 1.327 . S
C1666 C1654 1.349 . S
C1666 H1660 0.950 . S
C1666 C1667 1.327 . S
C1667 H1661 0.950 . S
C1667 C1666 1.327 . S
C1667 C1671 1.429 . S
C1668 C1651 1.574 . S
C1668 H1662 0.949 . S
C1668 C1672 1.368 . S
C1669 C1650 1.429 . S
C1669 C1663 1.429 . S
C1669 C1670 1.523 . S
C1670 C1651 1.368 . S
C1670 C1664 1.368 . S
C1670 C1669 1.523 . S
C1671 C1655 1.429 . S
C1671 C1667 1.429 . S
C1671 C1672 1.523 . S
C1672 C1656 1.368 . S
C1672 C1668 1.368 . S
C1672 C1671 1.523 . S
H1673 C1648 0.950 . S
H1674 C1650 0.950 . S
H1675 C1651 0.949 . S
H1676 C1653 0.950 . S
H1677 C1655 0.950 . S
C1678 C1679 1.349 . S
C1678 C1680 1.327 . S
C1678 H1703 0.950 . S
C1679 C1678 1.349 . S
C1679 C1695 1.349 . S
C1680 C1678 1.327 . S
C1680 C1699 1.429 . S
C1680 H1704 0.950 . S
C1681 C1698 1.574 . S
C1681 C1700 1.368 . S
C1681 H1705 0.949 . S
H1682 C1686 0.949 . S
C1683 C1684 1.349 . S
C1683 C1685 1.327 . S
C1683 H1706 0.950 . S
C1684 C1683 1.349 . S
C1684 C1696 1.349 . S
C1685 C1683 1.327 . S
C1685 C1701 1.429 . S
C1685 H1707 0.950 . S
C1686 H1682 0.949 . S
C1686 C1694 1.574 1_545 S
C1686 C1702 1.368 . S
H1687 C1695 0.950 . S
H1688 C1693 0.950 . S
H1689 C1694 0.949 . S
H1690 C1696 0.950 . S
H1691 C1697 0.950 . S
H1692 C1698 0.949 . S
C1693 H1688 0.950 . S
C1693 C1695 1.327 . S
C1693 C1699 1.429 . S
C1694 C1686 1.574 1_565 S
C1694 H1689 0.949 . S
C1694 C1700 1.368 . S
C1695 C1679 1.349 . S
C1695 H1687 0.950 . S
C1695 C1693 1.327 . S
C1696 C1684 1.349 . S
C1696 H1690 0.950 . S
C1696 C1697 1.327 . S
C1697 H1691 0.950 . S
C1697 C1696 1.327 . S
C1697 C1701 1.429 . S
C1698 C1681 1.574 . S
C1698 H1692 0.949 . S
C1698 C1702 1.368 1_565 S
C1699 C1680 1.429 . S
C1699 C1693 1.429 . S
C1699 C1700 1.523 . S
C1700 C1681 1.368 . S
C1700 C1694 1.368 . S
C1700 C1699 1.523 . S
C1701 C1685 1.429 . S
C1701 C1697 1.429 . S
C1701 C1702 1.523 . S
C1702 C1686 1.368 . S
C1702 C1698 1.368 1_545 S
C1702 C1701 1.523 . S
H1703 C1678 0.950 . S
H1704 C1680 0.950 . S
H1705 C1681 0.949 . S
H1706 C1683 0.950 . S
H1707 C1685 0.950 . S
C1708 C1709 1.349 . S
C1708 C1710 1.327 . S
C1708 H1733 0.950 . S
C1709 C1708 1.349 . S
C1709 C1725 1.349 . S
C1710 C1708 1.327 . S
C1710 C1729 1.429 . S
C1710 H1734 0.950 . S
C1711 C1728 1.574 . S
C1711 C1730 1.368 . S
C1711 H1735 0.949 . S
H1712 C1716 0.949 . S
C1713 C1714 1.349 . S
C1713 C1715 1.327 . S
C1713 H1736 0.950 . S
C1714 C1713 1.349 . S
C1714 C1726 1.349 . S
C1715 C1713 1.327 . S
C1715 C1731 1.429 . S
C1715 H1737 0.950 . S
C1716 H1712 0.949 . S
C1716 C1724 1.574 . S
C1716 C1732 1.368 . S
H1717 C1725 0.950 . S
H1718 C1723 0.950 . S
H1719 C1724 0.949 . S
H1720 C1726 0.950 . S
H1721 C1727 0.950 . S
H1722 C1728 0.949 . S
C1723 H1718 0.950 . S
C1723 C1725 1.327 . S
C1723 C1729 1.429 . S
C1724 C1716 1.574 . S
C1724 H1719 0.949 . S
C1724 C1730 1.368 . S
C1725 C1709 1.349 . S
C1725 H1717 0.950 . S
C1725 C1723 1.327 . S
C1726 C1714 1.349 . S
C1726 H1720 0.950 . S
C1726 C1727 1.327 . S
C1727 H1721 0.950 . S
C1727 C1726 1.327 . S
C1727 C1731 1.429 . S
C1728 C1711 1.574 . S
C1728 H1722 0.949 . S
C1728 C1732 1.368 . S
C1729 C1710 1.429 . S
C1729 C1723 1.429 . S
C1729 C1730 1.523 . S
C1730 C1711 1.368 . S
C1730 C1724 1.368 . S
C1730 C1729 1.523 . S
C1731 C1715 1.429 . S
C1731 C1727 1.429 . S
C1731 C1732 1.523 . S
C1732 C1716 1.368 . S
C1732 C1728 1.368 . S
C1732 C1731 1.523 . S
H1733 C1708 0.950 . S
H1734 C1710 0.950 . S
H1735 C1711 0.949 . S
H1736 C1713 0.950 . S
H1737 C1715 0.950 . S
C1738 C1739 1.349 . S
C1738 C1740 1.327 . S
C1738 H1763 0.950 . S
C1739 C1738 1.349 . S
C1739 C1755 1.349 . S
C1740 C1738 1.327 . S
C1740 C1759 1.429 . S
C1740 H1764 0.950 . S
C1741 C1758 1.574 1_545 S
C1741 C1760 1.368 . S
C1741 H1765 0.949 . S
H1742 C1746 0.949 . S
C1743 C1744 1.349 . S
C1743 C1745 1.327 . S
C1743 H1766 0.950 . S
C1744 C1743 1.349 . S
C1744 C1756 1.349 . S
C1745 C1743 1.327 . S
C1745 C1761 1.429 . S
C1745 H1767 0.950 . S
C1746 H1742 0.949 . S
C1746 C1754 1.574 . S
C1746 C1762 1.368 1_545 S
H1747 C1755 0.950 1_556 S
H1748 C1753 0.950 . S
H1749 C1754 0.949 . S
H1750 C1756 0.950 . S
H1751 C1757 0.950 . S
H1752 C1758 0.949 . S
C1753 H1748 0.950 . S
C1753 C1755 1.327 . S
C1753 C1759 1.429 . S
C1754 C1746 1.574 . S
C1754 H1749 0.949 . S
C1754 C1760 1.368 . S
C1755 C1739 1.349 . S
C1755 H1747 0.950 1_554 S
C1755 C1753 1.327 . S
C1756 C1744 1.349 . S
C1756 H1750 0.950 . S
C1756 C1757 1.327 . S
C1757 H1751 0.950 . S
C1757 C1756 1.327 . S
C1757 C1761 1.429 . S
C1758 C1741 1.574 1_565 S
C1758 H1752 0.949 . S
C1758 C1762 1.368 . S
C1759 C1740 1.429 . S
C1759 C1753 1.429 . S
C1759 C1760 1.523 . S
C1760 C1741 1.368 . S
C1760 C1754 1.368 . S
C1760 C1759 1.523 . S
C1761 C1745 1.429 . S
C1761 C1757 1.429 . S
C1761 C1762 1.523 . S
C1762 C1746 1.368 1_565 S
C1762 C1758 1.368 . S
C1762 C1761 1.523 . S
H1763 C1738 0.950 . S
H1764 C1740 0.950 . S
H1765 C1741 0.949 . S
H1766 C1743 0.950 . S
H1767 C1745 0.950 . S
C1768 C1769 1.349 . S
C1768 C1770 1.327 . S
C1768 H1793 0.950 . S
C1769 C1768 1.349 . S
C1769 C1785 1.349 . S
C1770 C1768 1.327 . S
C1770 C1789 1.429 . S
C1770 H1794 0.950 . S
C1771 C1788 1.574 . S
C1771 C1790 1.368 . S
C1771 H1795 0.949 . S
H1772 C1776 0.949 . S
C1773 C1774 1.349 . S
C1773 C1775 1.327 . S
C1773 H1796 0.950 . S
C1774 C1773 1.349 . S
C1774 C1786 1.349 . S
C1775 C1773 1.327 . S
C1775 C1791 1.429 . S
C1775 H1797 0.950 . S
C1776 H1772 0.949 . S
C1776 C1784 1.574 . S
C1776 C1792 1.368 . S
H1777 C1785 0.950 . S
H1778 C1783 0.950 . S
H1779 C1784 0.949 . S
H1780 C1786 0.950 . S
H1781 C1787 0.950 . S
H1782 C1788 0.949 . S
C1783 H1778 0.950 . S
C1783 C1785 1.327 . S
C1783 C1789 1.429 . S
C1784 C1776 1.574 . S
C1784 H1779 0.949 . S
C1784 C1790 1.368 . S
C1785 C1769 1.349 . S
C1785 H1777 0.950 . S
C1785 C1783 1.327 . S
C1786 C1774 1.349 . S
C1786 H1780 0.950 . S
C1786 C1787 1.327 . S
C1787 H1781 0.950 . S
C1787 C1786 1.327 . S
C1787 C1791 1.429 . S
C1788 C1771 1.574 . S
C1788 H1782 0.949 . S
C1788 C1792 1.368 . S
C1789 C1770 1.429 . S
C1789 C1783 1.429 . S
C1789 C1790 1.523 . S
C1790 C1771 1.368 . S
C1790 C1784 1.368 . S
C1790 C1789 1.523 . S
C1791 C1775 1.429 . S
C1791 C1787 1.429 . S
C1791 C1792 1.523 . S
C1792 C1776 1.368 . S
C1792 C1788 1.368 . S
C1792 C1791 1.523 . S
H1793 C1768 0.950 . S
H1794 C1770 0.950 . S
H1795 C1771 0.949 . S
H1796 C1773 0.950 . S
H1797 C1775 0.950 . S
C1798 C1799 1.349 . S
C1798 C1800 1.327 . S
C1798 H1823 0.950 . S
C1799 C1798 1.349 . S
C1799 C1815 1.349 . S
C1800 C1798 1.327 . S
C1800 C1819 1.429 . S
C1800 H1824 0.950 . S
C1801 C1818 1.574 1_565 S
C1801 C1820 1.368 . S
C1801 H1825 0.949 . S
H1802 C1806 0.949 . S
C1803 C1804 1.349 . S
C1803 C1805 1.327 . S
C1803 H1826 0.950 . S
C1804 C1803 1.349 . S
C1804 C1816 1.349 . S
C1805 C1803 1.327 . S
C1805 C1821 1.429 . S
C1805 H1827 0.950 . S
C1806 H1802 0.949 . S
C1806 C1814 1.574 . S
C1806 C1822 1.368 1_565 S
H1807 C1815 0.950 . S
H1808 C1813 0.950 . S
H1809 C1814 0.949 . S
H1810 C1816 0.950 . S
H1811 C1817 0.950 . S
H1812 C1818 0.949 . S
C1813 H1808 0.950 . S
C1813 C1815 1.327 . S
C1813 C1819 1.429 . S
C1814 C1806 1.574 . S
C1814 H1809 0.949 . S
C1814 C1820 1.368 . S
C1815 C1799 1.349 . S
C1815 H1807 0.950 . S
C1815 C1813 1.327 . S
C1816 C1804 1.349 . S
C1816 H1810 0.950 . S
C1816 C1817 1.327 . S
C1817 H1811 0.950 . S
C1817 C1816 1.327 . S
C1817 C1821 1.429 . S
C1818 C1801 1.574 1_545 S
C1818 H1812 0.949 . S
C1818 C1822 1.368 . S
C1819 C1800 1.429 . S
C1819 C1813 1.429 . S
C1819 C1820 1.523 . S
C1820 C1801 1.368 . S
C1820 C1814 1.368 . S
C1820 C1819 1.523 . S
C1821 C1805 1.429 . S
C1821 C1817 1.429 . S
C1821 C1822 1.523 . S
C1822 C1806 1.368 1_545 S
C1822 C1818 1.368 . S
C1822 C1821 1.523 . S
H1823 C1798 0.950 . S
H1824 C1800 0.950 . S
H1825 C1801 0.949 . S
H1826 C1803 0.950 . S
H1827 C1805 0.950 . S
C1828 C1829 1.349 . S
C1828 C1830 1.327 . S
C1828 H1853 0.950 . S
C1829 C1828 1.349 . S
C1829 C1845 1.349 . S
C1830 C1828 1.327 . S
C1830 C1849 1.429 . S
C1830 H1854 0.950 . S
C1831 C1848 1.574 . S
C1831 C1850 1.368 . S
C1831 H1855 0.949 . S
H1832 C1836 0.949 . S
C1833 C1834 1.349 . S
C1833 C1835 1.327 . S
C1833 H1856 0.950 . S
C1834 C1833 1.349 . S
C1834 C1846 1.349 . S
C1835 C1833 1.327 . S
C1835 C1851 1.429 . S
C1835 H1857 0.950 . S
C1836 H1832 0.949 . S
C1836 C1844 1.574 . S
C1836 C1852 1.368 . S
H1837 C1845 0.950 . S
H1838 C1843 0.950 . S
H1839 C1844 0.949 . S
H1840 C1846 0.950 . S
H1841 C1847 0.950 . S
H1842 C1848 0.949 . S
C1843 H1838 0.950 . S
C1843 C1845 1.327 . S
C1843 C1849 1.429 . S
C1844 C1836 1.574 . S
C1844 H1839 0.949 . S
C1844 C1850 1.368 . S
C1845 C1829 1.349 . S
C1845 H1837 0.950 . S
C1845 C1843 1.327 . S
C1846 C1834 1.349 . S
C1846 H1840 0.950 . S
C1846 C1847 1.327 . S
C1847 H1841 0.950 . S
C1847 C1846 1.327 . S
C1847 C1851 1.429 . S
C1848 C1831 1.574 . S
C1848 H1842 0.949 . S
C1848 C1852 1.368 . S
C1849 C1830 1.429 . S
C1849 C1843 1.429 . S
C1849 C1850 1.523 . S
C1850 C1831 1.368 . S
C1850 C1844 1.368 . S
C1850 C1849 1.523 . S
C1851 C1835 1.429 . S
C1851 C1847 1.429 . S
C1851 C1852 1.523 . S
C1852 C1836 1.368 . S
C1852 C1848 1.368 . S
C1852 C1851 1.523 . S
H1853 C1828 0.950 . S
H1854 C1830 0.950 . S
H1855 C1831 0.949 . S
H1856 C1833 0.950 . S
H1857 C1835 0.950 . S
C1858 C1859 1.349 . S
C1858 C1860 1.327 . S
C1858 H1883 0.950 . S
C1859 C1858 1.349 . S
C1859 C1875 1.349 . S
C1860 C1858 1.327 . S
C1860 C1879 1.429 . S
C1860 H1884 0.950 . S
C1861 C1878 1.574 . S
C1861 C1880 1.368 . S
C1861 H1885 0.949 . S
H1862 C1866 0.949 . S
C1863 C1864 1.349 . S
C1863 C1865 1.327 . S
C1863 H1886 0.950 . S
C1864 C1863 1.349 . S
C1864 C1876 1.349 . S
C1865 C1863 1.327 . S
C1865 C1881 1.429 . S
C1865 H1887 0.950 . S
C1866 H1862 0.949 . S
C1866 C1874 1.574 1_565 S
C1866 C1882 1.368 . S
H1867 C1875 0.950 . S
H1868 C1873 0.950 . S
H1869 C1874 0.949 . S
H1870 C1876 0.950 . S
H1871 C1877 0.950 . S
H1872 C1878 0.949 . S
C1873 H1868 0.950 . S
C1873 C1875 1.327 . S
C1873 C1879 1.429 . S
C1874 C1866 1.574 1_545 S
C1874 H1869 0.949 . S
C1874 C1880 1.368 . S
C1875 C1859 1.349 . S
C1875 H1867 0.950 . S
C1875 C1873 1.327 . S
C1876 C1864 1.349 . S
C1876 H1870 0.950 . S
C1876 C1877 1.327 . S
C1877 H1871 0.950 . S
C1877 C1876 1.327 . S
C1877 C1881 1.429 . S
C1878 C1861 1.574 . S
C1878 H1872 0.949 . S
C1878 C1882 1.368 1_545 S
C1879 C1860 1.429 . S
C1879 C1873 1.429 . S
C1879 C1880 1.523 . S
C1880 C1861 1.368 . S
C1880 C1874 1.368 . S
C1880 C1879 1.523 . S
C1881 C1865 1.429 . S
C1881 C1877 1.429 . S
C1881 C1882 1.523 . S
C1882 C1866 1.368 . S
C1882 C1878 1.368 1_565 S
C1882 C1881 1.523 . S
H1883 C1858 0.950 . S
H1884 C1860 0.950 . S
H1885 C1861 0.949 . S
H1886 C1863 0.950 . S
H1887 C1865 0.950 . S
C1888 C1889 1.349 . S
C1888 C1890 1.327 . S
C1888 H1913 0.950 . S
C1889 C1888 1.349 . S
C1889 C1905 1.349 . S
C1890 C1888 1.327 . S
C1890 C1909 1.429 . S
C1890 H1914 0.950 . S
C1891 C1908 1.574 . S
C1891 C1910 1.368 . S
C1891 H1915 0.949 . S
H1892 C1896 0.949 . S
C1893 C1894 1.349 . S
C1893 C1895 1.327 . S
C1893 H1916 0.950 . S
C1894 C1893 1.349 . S
C1894 C1906 1.349 . S
C1895 C1893 1.327 . S
C1895 C1911 1.429 . S
C1895 H1917 0.950 . S
C1896 H1892 0.949 . S
C1896 C1904 1.574 . S
C1896 C1912 1.368 . S
H1897 C1905 0.950 . S
H1898 C1903 0.950 . S
H1899 C1904 0.949 . S
H1900 C1906 0.950 . S
H1901 C1907 0.950 . S
H1902 C1908 0.949 . S
C1903 H1898 0.950 . S
C1903 C1905 1.327 . S
C1903 C1909 1.429 . S
C1904 C1896 1.574 . S
C1904 H1899 0.949 . S
C1904 C1910 1.368 . S
C1905 C1889 1.349 . S
C1905 H1897 0.950 . S
C1905 C1903 1.327 . S
C1906 C1894 1.349 . S
C1906 H1900 0.950 . S
C1906 C1907 1.327 . S
C1907 H1901 0.950 . S
C1907 C1906 1.327 . S
C1907 C1911 1.429 . S
C1908 C1891 1.574 . S
C1908 H1902 0.949 . S
C1908 C1912 1.368 . S
C1909 C1890 1.429 . S
C1909 C1903 1.429 . S
C1909 C1910 1.523 . S
C1910 C1891 1.368 . S
C1910 C1904 1.368 . S
C1910 C1909 1.523 . S
C1911 C1895 1.429 . S
C1911 C1907 1.429 . S
C1911 C1912 1.523 . S
C1912 C1896 1.368 . S
C1912 C1908 1.368 . S
C1912 C1911 1.523 . S
H1913 C1888 0.950 . S
H1914 C1890 0.950 . S
H1915 C1891 0.949 . S
H1916 C1893 0.950 . S
H1917 C1895 0.950 . S
C1918 C1919 1.349 . S
C1918 C1920 1.327 . S
C1918 H1943 0.950 . S
C1919 C1918 1.349 . S
C1919 C1935 1.349 . S
C1920 C1918 1.327 . S
C1920 C1939 1.429 . S
C1920 H1944 0.950 . S
C1921 C1938 1.574 . S
C1921 C1940 1.368 . S
C1921 H1945 0.949 . S
H1922 C1926 0.949 . S
C1923 C1924 1.349 . S
C1923 C1925 1.327 . S
C1923 H1946 0.950 . S
C1924 C1923 1.349 . S
C1924 C1936 1.349 . S
C1925 C1923 1.327 . S
C1925 C1941 1.429 . S
C1925 H1947 0.950 . S
C1926 H1922 0.949 . S
C1926 C1934 1.574 . S
C1926 C1942 1.368 . S
H1927 C1935 0.950 . S
H1928 C1933 0.950 . S
H1929 C1934 0.949 . S
H1930 C1936 0.950 . S
H1931 C1937 0.950 . S
H1932 C1938 0.949 . S
C1933 H1928 0.950 . S
C1933 C1935 1.327 . S
C1933 C1939 1.429 . S
C1934 C1926 1.574 . S
C1934 H1929 0.949 . S
C1934 C1940 1.368 . S
C1935 C1919 1.349 . S
C1935 H1927 0.950 . S
C1935 C1933 1.327 . S
C1936 C1924 1.349 . S
C1936 H1930 0.950 . S
C1936 C1937 1.327 . S
C1937 H1931 0.950 . S
C1937 C1936 1.327 . S
C1937 C1941 1.429 . S
C1938 C1921 1.574 . S
C1938 H1932 0.949 . S
C1938 C1942 1.368 . S
C1939 C1920 1.429 . S
C1939 C1933 1.429 . S
C1939 C1940 1.523 . S
C1940 C1921 1.368 . S
C1940 C1934 1.368 . S
C1940 C1939 1.523 . S
C1941 C1925 1.429 . S
C1941 C1937 1.429 . S
C1941 C1942 1.523 . S
C1942 C1926 1.368 . S
C1942 C1938 1.368 . S
C1942 C1941 1.523 . S
H1943 C1918 0.950 . S
H1944 C1920 0.950 . S
H1945 C1921 0.949 . S
H1946 C1923 0.950 . S
H1947 C1925 0.950 . S
C1948 C1949 1.349 . S
C1948 C1950 1.327 . S
C1948 H1973 0.950 . S
C1949 C1948 1.349 . S
C1949 C1965 1.349 . S
C1950 C1948 1.327 . S
C1950 C1969 1.429 . S
C1950 H1974 0.950 . S
C1951 C1968 1.574 . S
C1951 C1970 1.368 . S
C1951 H1975 0.949 . S
H1952 C1956 0.967 . S
C1953 C1954 1.349 . S
C1953 C1955 1.327 . S
C1953 H1976 0.950 . S
C1954 C1953 1.349 . S
C1954 C1966 1.349 . S
C1955 C1953 1.327 . S
C1955 C1971 1.429 . S
C1955 H1977 0.950 . S
C1956 H1952 0.967 . S
C1956 C1964 1.551 1_455 S
C1956 C1972 1.372 . S
H1957 C1965 0.950 . S
H1958 C1963 0.950 . S
H1959 C1964 0.949 . S
H1960 C1966 0.950 . S
H1961 C1967 0.950 . S
H1962 C1968 0.949 . S
C1963 H1958 0.950 . S
C1963 C1965 1.327 . S
C1963 C1969 1.429 . S
C1964 C1956 1.551 1_655 S
C1964 H1959 0.949 . S
C1964 C1970 1.368 . S
C1965 C1949 1.349 . S
C1965 H1957 0.950 . S
C1965 C1963 1.327 . S
C1966 C1954 1.349 . S
C1966 H1960 0.950 . S
C1966 C1967 1.327 . S
C1967 H1961 0.950 . S
C1967 C1966 1.327 . S
C1967 C1971 1.429 . S
C1968 C1951 1.574 . S
C1968 H1962 0.949 . S
C1968 C1972 1.368 1_655 S
C1969 C1950 1.429 . S
C1969 C1963 1.429 . S
C1969 C1970 1.523 . S
C1970 C1951 1.368 . S
C1970 C1964 1.368 . S
C1970 C1969 1.523 . S
C1971 C1955 1.429 . S
C1971 C1967 1.429 . S
C1971 C1972 1.523 . S
C1972 C1956 1.372 . S
C1972 C1968 1.368 1_455 S
C1972 C1971 1.523 . S
H1973 C1948 0.950 . S
H1974 C1950 0.950 . S
H1975 C1951 0.949 . S
H1976 C1953 0.950 . S
H1977 C1955 0.950 . S
C1978 C1979 1.349 . S
C1978 C1980 1.327 . S
C1978 H2003 0.950 . S
C1979 C1978 1.349 . S
C1979 C1995 1.349 . S
C1980 C1978 1.327 . S
C1980 C1999 1.429 . S
C1980 H2004 0.950 . S
C1981 C1998 1.574 . S
C1981 C2000 1.368 . S
C1981 H2005 0.949 . S
H1982 C1986 0.949 . S
C1983 C1984 1.349 . S
C1983 C1985 1.327 . S
C1983 H2006 0.950 . S
C1984 C1983 1.349 . S
C1984 C1996 1.349 . S
C1985 C1983 1.327 . S
C1985 C2001 1.429 . S
C1985 H2007 0.950 . S
C1986 H1982 0.949 . S
C1986 C1994 1.574 . S
C1986 C2002 1.368 . S
H1987 C1995 0.950 . S
H1988 C1993 0.950 . S
H1989 C1994 0.949 . S
H1990 C1996 0.950 . S
H1991 C1997 0.950 . S
H1992 C1998 0.949 . S
C1993 H1988 0.950 . S
C1993 C1995 1.327 . S
C1993 C1999 1.429 . S
C1994 C1986 1.574 . S
C1994 H1989 0.949 . S
C1994 C2000 1.368 . S
C1995 C1979 1.349 . S
C1995 H1987 0.950 . S
C1995 C1993 1.327 . S
C1996 C1984 1.349 . S
C1996 H1990 0.950 . S
C1996 C1997 1.327 . S
C1997 H1991 0.950 . S
C1997 C1996 1.327 . S
C1997 C2001 1.429 . S
C1998 C1981 1.574 . S
C1998 H1992 0.949 . S
C1998 C2002 1.368 . S
C1999 C1980 1.429 . S
C1999 C1993 1.429 . S
C1999 C2000 1.523 . S
C2000 C1981 1.368 . S
C2000 C1994 1.368 . S
C2000 C1999 1.523 . S
C2001 C1985 1.429 . S
C2001 C1997 1.429 . S
C2001 C2002 1.523 . S
C2002 C1986 1.368 . S
C2002 C1998 1.368 . S
C2002 C2001 1.523 . S
H2003 C1978 0.950 . S
H2004 C1980 0.950 . S
H2005 C1981 0.949 . S
H2006 C1983 0.950 . S
H2007 C1985 0.950 . S
C2008 C2009 1.349 . S
C2008 C2010 1.327 . S
C2008 H2033 0.950 . S
C2009 C2008 1.349 . S
C2009 C2025 1.349 . S
C2010 C2008 1.327 . S
C2010 C2029 1.429 . S
C2010 H2034 0.950 . S
C2011 C2028 1.574 1_455 S
C2011 C2030 1.368 . S
C2011 H2035 0.949 . S
H2012 C2016 0.949 . S
C2013 C2014 1.349 . S
C2013 C2015 1.327 . S
C2013 H2036 0.950 . S
C2014 C2013 1.349 . S
C2014 C2026 1.349 . S
C2015 C2013 1.327 . S
C2015 C2031 1.429 . S
C2015 H2037 0.950 . S
C2016 H2012 0.949 . S
C2016 C2024 1.574 . S
C2016 C2032 1.368 1_455 S
H2017 C2025 0.950 1_545 S
H2018 C2023 0.950 . S
H2019 C2024 0.949 . S
H2020 C2026 0.950 . S
H2021 C2027 0.950 . S
H2022 C2028 0.949 . S
C2023 H2018 0.950 . S
C2023 C2025 1.327 . S
C2023 C2029 1.429 . S
C2024 C2016 1.574 . S
C2024 H2019 0.949 . S
C2024 C2030 1.368 . S
C2025 C2009 1.349 . S
C2025 H2017 0.950 1_565 S
C2025 C2023 1.327 . S
C2026 C2014 1.349 . S
C2026 H2020 0.950 . S
C2026 C2027 1.327 . S
C2027 H2021 0.950 . S
C2027 C2026 1.327 . S
C2027 C2031 1.429 . S
C2028 C2011 1.574 1_655 S
C2028 H2022 0.949 . S
C2028 C2032 1.368 . S
C2029 C2010 1.429 . S
C2029 C2023 1.429 . S
C2029 C2030 1.523 . S
C2030 C2011 1.368 . S
C2030 C2024 1.368 . S
C2030 C2029 1.523 . S
C2031 C2015 1.429 . S
C2031 C2027 1.429 . S
C2031 C2032 1.523 . S
C2032 C2016 1.368 1_655 S
C2032 C2028 1.368 . S
C2032 C2031 1.523 . S
H2033 C2008 0.950 . S
H2034 C2010 0.950 . S
H2035 C2011 0.949 . S
H2036 C2013 0.950 . S
H2037 C2015 0.950 . S
C2038 C2039 1.349 . S
C2038 C2040 1.327 . S
C2038 H2063 0.950 . S
C2039 C2038 1.349 . S
C2039 C2055 1.349 . S
C2040 C2038 1.327 . S
C2040 C2059 1.429 . S
C2040 H2064 0.950 . S
C2041 C2058 1.574 . S
C2041 C2060 1.368 . S
C2041 H2065 0.949 . S
H2042 C2046 0.949 . S
C2043 C2044 1.349 . S
C2043 C2045 1.327 . S
C2043 H2066 0.950 . S
C2044 C2043 1.349 . S
C2044 C2056 1.349 . S
C2045 C2043 1.327 . S
C2045 C2061 1.429 . S
C2045 H2067 0.950 . S
C2046 H2042 0.949 . S
C2046 C2054 1.574 . S
C2046 C2062 1.368 . S
H2047 C2055 0.950 . S
H2048 C2053 0.950 . S
H2049 C2054 0.949 . S
H2050 C2056 0.950 . S
H2051 C2057 0.950 . S
H2052 C2058 0.949 . S
C2053 H2048 0.950 . S
C2053 C2055 1.327 . S
C2053 C2059 1.429 . S
C2054 C2046 1.574 . S
C2054 H2049 0.949 . S
C2054 C2060 1.368 . S
C2055 C2039 1.349 . S
C2055 H2047 0.950 . S
C2055 C2053 1.327 . S
C2056 C2044 1.349 . S
C2056 H2050 0.950 . S
C2056 C2057 1.327 . S
C2057 H2051 0.950 . S
C2057 C2056 1.327 . S
C2057 C2061 1.429 . S
C2058 C2041 1.574 . S
C2058 H2052 0.949 . S
C2058 C2062 1.368 . S
C2059 C2040 1.429 . S
C2059 C2053 1.429 . S
C2059 C2060 1.523 . S
C2060 C2041 1.368 . S
C2060 C2054 1.368 . S
C2060 C2059 1.523 . S
C2061 C2045 1.429 . S
C2061 C2057 1.429 . S
C2061 C2062 1.523 . S
C2062 C2046 1.368 . S
C2062 C2058 1.368 . S
C2062 C2061 1.523 . S
H2063 C2038 0.950 . S
H2064 C2040 0.950 . S
H2065 C2041 0.949 . S
H2066 C2043 0.950 . S
H2067 C2045 0.950 . S
C2068 C2069 1.349 . S
C2068 C2070 1.327 . S
C2068 H2093 0.950 . S
C2069 C2068 1.349 . S
C2069 C2085 1.349 . S
C2070 C2068 1.327 . S
C2070 C2089 1.429 . S
C2070 H2094 0.950 . S
C2071 C2088 1.574 1_655 S
C2071 C2090 1.368 . S
C2071 H2095 0.949 . S
H2072 C2076 0.949 . S
C2073 C2074 1.349 . S
C2073 C2075 1.327 . S
C2073 H2096 0.950 . S
C2074 C2073 1.349 . S
C2074 C2086 1.349 . S
C2075 C2073 1.327 . S
C2075 C2091 1.429 . S
C2075 H2097 0.950 . S
C2076 H2072 0.949 . S
C2076 C2084 1.574 . S
C2076 C2092 1.368 1_655 S
H2077 C2085 0.950 . S
H2078 C2083 0.950 . S
H2079 C2084 0.949 . S
H2080 C2086 0.950 . S
H2081 C2087 0.950 . S
H2082 C2088 0.949 . S
C2083 H2078 0.950 . S
C2083 C2085 1.327 . S
C2083 C2089 1.429 . S
C2084 C2076 1.574 . S
C2084 H2079 0.949 . S
C2084 C2090 1.368 . S
C2085 C2069 1.349 . S
C2085 H2077 0.950 . S
C2085 C2083 1.327 . S
C2086 C2074 1.349 . S
C2086 H2080 0.950 . S
C2086 C2087 1.327 . S
C2087 H2081 0.950 . S
C2087 C2086 1.327 . S
C2087 C2091 1.429 . S
C2088 C2071 1.574 1_455 S
C2088 H2082 0.949 . S
C2088 C2092 1.368 . S
C2089 C2070 1.429 . S
C2089 C2083 1.429 . S
C2089 C2090 1.523 . S
C2090 C2071 1.368 . S
C2090 C2084 1.368 . S
C2090 C2089 1.523 . S
C2091 C2075 1.429 . S
C2091 C2087 1.429 . S
C2091 C2092 1.523 . S
C2092 C2076 1.368 1_455 S
C2092 C2088 1.368 . S
C2092 C2091 1.523 . S
H2093 C2068 0.950 . S
H2094 C2070 0.950 . S
H2095 C2071 0.949 . S
H2096 C2073 0.950 . S
H2097 C2075 0.950 . S
C2098 C2099 1.349 . S
C2098 C2100 1.327 . S
C2098 H2123 0.950 . S
C2099 C2098 1.349 . S
C2099 C2115 1.349 . S
C2100 C2098 1.327 . S
C2100 C2119 1.429 . S
C2100 H2124 0.950 . S
C2101 C2118 1.574 . S
C2101 C2120 1.368 . S
C2101 H2125 0.949 . S
H2102 C2106 0.949 . S
C2103 C2104 1.349 . S
C2103 C2105 1.327 . S
C2103 H2126 0.950 . S
C2104 C2103 1.349 . S
C2104 C2116 1.349 . S
C2105 C2103 1.327 . S
C2105 C2121 1.429 . S
C2105 H2127 0.950 . S
C2106 H2102 0.949 . S
C2106 C2114 1.574 . S
C2106 C2122 1.368 . S
H2107 C2115 0.950 . S
H2108 C2113 0.950 . S
H2109 C2114 0.949 . S
H2110 C2116 0.950 . S
H2111 C2117 0.950 . S
H2112 C2118 0.949 . S
C2113 H2108 0.950 . S
C2113 C2115 1.327 . S
C2113 C2119 1.429 . S
C2114 C2106 1.574 . S
C2114 H2109 0.949 . S
C2114 C2120 1.368 . S
C2115 C2099 1.349 . S
C2115 H2107 0.950 . S
C2115 C2113 1.327 . S
C2116 C2104 1.349 . S
C2116 H2110 0.950 . S
C2116 C2117 1.327 . S
C2117 H2111 0.950 . S
C2117 C2116 1.327 . S
C2117 C2121 1.429 . S
C2118 C2101 1.574 . S
C2118 H2112 0.949 . S
C2118 C2122 1.368 . S
C2119 C2100 1.429 . S
C2119 C2113 1.429 . S
C2119 C2120 1.523 . S
C2120 C2101 1.368 . S
C2120 C2114 1.368 . S
C2120 C2119 1.523 . S
C2121 C2105 1.429 . S
C2121 C2117 1.429 . S
C2121 C2122 1.523 . S
C2122 C2106 1.368 . S
C2122 C2118 1.368 . S
C2122 C2121 1.523 . S
H2123 C2098 0.950 . S
H2124 C2100 0.950 . S
H2125 C2101 0.949 . S
H2126 C2103 0.950 . S
H2127 C2105 0.950 . S
C2128 C2129 1.349 . S
C2128 C2130 1.327 . S
C2128 H2153 0.950 . S
C2129 C2128 1.349 . S
C2129 C2145 1.349 . S
C2130 C2128 1.327 . S
C2130 C2149 1.429 . S
C2130 H2154 0.950 . S
C2131 C2148 1.574 . S
C2131 C2150 1.368 . S
C2131 H2155 0.949 . S
H2132 C2136 0.949 . S
C2133 C2134 1.349 . S
C2133 C2135 1.327 . S
C2133 H2156 0.950 . S
C2134 C2133 1.349 . S
C2134 C2146 1.349 . S
C2135 C2133 1.327 . S
C2135 C2151 1.429 . S
C2135 H2157 0.950 . S
C2136 H2132 0.949 . S
C2136 C2144 1.574 . S
C2136 C2152 1.368 . S
H2137 C2145 0.950 . S
H2138 C2143 0.950 . S
H2139 C2144 0.949 . S
H2140 C2146 0.950 . S
H2141 C2147 0.950 . S
H2142 C2148 0.949 . S
C2143 H2138 0.950 . S
C2143 C2145 1.327 . S
C2143 C2149 1.429 . S
C2144 C2136 1.574 . S
C2144 H2139 0.949 . S
C2144 C2150 1.368 . S
C2145 C2129 1.349 . S
C2145 H2137 0.950 . S
C2145 C2143 1.327 . S
C2146 C2134 1.349 . S
C2146 H2140 0.950 . S
C2146 C2147 1.327 . S
C2147 H2141 0.950 . S
C2147 C2146 1.327 . S
C2147 C2151 1.429 . S
C2148 C2131 1.574 . S
C2148 H2142 0.949 . S
C2148 C2152 1.368 . S
C2149 C2130 1.429 . S
C2149 C2143 1.429 . S
C2149 C2150 1.523 . S
C2150 C2131 1.368 . S
C2150 C2144 1.368 . S
C2150 C2149 1.523 . S
C2151 C2135 1.429 . S
C2151 C2147 1.429 . S
C2151 C2152 1.523 . S
C2152 C2136 1.368 . S
C2152 C2148 1.368 . S
C2152 C2151 1.523 . S
H2153 C2128 0.950 . S
H2154 C2130 0.950 . S
H2155 C2131 0.949 . S
H2156 C2133 0.950 . S
H2157 C2135 0.950 . S
C2158 C2159 1.349 . S
C2158 C2160 1.327 . S
C2158 H2183 0.950 . S
C2159 C2158 1.349 . S
C2159 C2175 1.349 . S
C2160 C2158 1.327 . S
C2160 C2179 1.429 . S
C2160 H2184 0.950 . S
C2161 C2178 1.574 1_554 S
C2161 C2180 1.368 . S
C2161 H2185 0.949 . S
H2162 C2166 0.949 . S
C2163 C2164 1.349 . S
C2163 C2165 1.327 . S
C2163 H2186 0.950 . S
C2164 C2163 1.349 . S
C2164 C2176 1.349 . S
C2165 C2163 1.327 . S
C2165 C2181 1.429 . S
C2165 H2187 0.950 . S
C2166 H2162 0.949 . S
C2166 C2174 1.574 . S
C2166 C2182 1.357 1_554 S
H2167 C2175 0.950 . S
H2168 C2173 0.950 . S
H2169 C2174 0.949 . S
H2170 C2176 0.950 . S
H2171 C2177 0.950 . S
H2172 C2178 0.949 . S
C2173 H2168 0.950 . S
C2173 C2175 1.327 . S
C2173 C2179 1.429 . S
C2174 C2166 1.574 . S
C2174 H2169 0.949 . S
C2174 C2180 1.368 . S
C2175 C2159 1.349 . S
C2175 H2167 0.950 . S
C2175 C2173 1.327 . S
C2176 C2164 1.349 . S
C2176 H2170 0.950 . S
C2176 C2177 1.327 . S
C2177 H2171 0.950 . S
C2177 C2176 1.327 . S
C2177 C2181 1.429 . S
C2178 C2161 1.574 1_556 S
C2178 H2172 0.949 . S
C2178 C2182 1.371 . S
C2179 C2160 1.429 . S
C2179 C2173 1.429 . S
C2179 C2180 1.523 . S
C2180 C2161 1.368 . S
C2180 C2174 1.368 . S
C2180 C2179 1.523 . S
C2181 C2165 1.429 . S
C2181 C2177 1.429 . S
C2181 C2182 1.535 . S
C2182 C2166 1.357 1_556 S
C2182 C2178 1.371 . S
C2182 C2181 1.535 . S
H2183 C2158 0.950 . S
H2184 C2160 0.950 . S
H2185 C2161 0.949 . S
H2186 C2163 0.950 . S
H2187 C2165 0.950 . S
C2188 C2189 1.349 . S
C2188 C2190 1.327 . S
C2188 H2213 0.950 1_655 S
C2189 C2188 1.349 . S
C2189 C2205 1.349 . S
C2190 C2188 1.327 . S
C2190 C2209 1.429 . S
C2190 H2214 0.950 . S
C2191 C2208 1.574 . S
C2191 C2210 1.368 . S
C2191 H2215 0.949 . S
H2192 C2196 0.949 . S
C2193 C2194 1.349 . S
C2193 C2195 1.327 . S
C2193 H2216 0.950 . S
C2194 C2193 1.349 . S
C2194 C2206 1.349 . S
C2195 C2193 1.327 . S
C2195 C2211 1.429 . S
C2195 H2217 0.950 . S
C2196 H2192 0.949 . S
C2196 C2204 1.574 . S
C2196 C2212 1.368 . S
H2197 C2205 0.950 . S
H2198 C2203 0.950 . S
H2199 C2204 0.949 . S
H2200 C2206 0.950 . S
H2201 C2207 0.950 . S
H2202 C2208 0.949 . S
C2203 H2198 0.950 . S
C2203 C2205 1.327 . S
C2203 C2209 1.429 . S
C2204 C2196 1.574 . S
C2204 H2199 0.949 . S
C2204 C2210 1.368 . S
C2205 C2189 1.349 . S
C2205 H2197 0.950 . S
C2205 C2203 1.327 . S
C2206 C2194 1.349 . S
C2206 H2200 0.950 . S
C2206 C2207 1.327 . S
C2207 H2201 0.950 . S
C2207 C2206 1.327 . S
C2207 C2211 1.429 . S
C2208 C2191 1.574 . S
C2208 H2202 0.949 . S
C2208 C2212 1.368 . S
C2209 C2190 1.429 . S
C2209 C2203 1.429 . S
C2209 C2210 1.523 . S
C2210 C2191 1.368 . S
C2210 C2204 1.368 . S
C2210 C2209 1.523 . S
C2211 C2195 1.429 . S
C2211 C2207 1.429 . S
C2211 C2212 1.523 . S
C2212 C2196 1.368 . S
C2212 C2208 1.368 . S
C2212 C2211 1.523 . S
H2213 C2188 0.950 1_455 S
H2214 C2190 0.950 . S
H2215 C2191 0.949 . S
H2216 C2193 0.950 . S
H2217 C2195 0.950 . S
C2218 C2219 1.349 . S
C2218 C2220 1.327 . S
C2218 H2243 0.950 . S
C2219 C2218 1.349 . S
C2219 C2235 1.349 . S
C2220 C2218 1.327 . S
C2220 C2239 1.429 . S
C2220 H2244 0.950 . S
C2221 C2238 1.574 . S
C2221 C2240 1.368 . S
C2221 H2245 0.949 . S
H2222 C2226 0.949 . S
C2223 C2224 1.349 . S
C2223 C2225 1.327 . S
C2223 H2246 0.950 . S
C2224 C2223 1.349 . S
C2224 C2236 1.349 . S
C2225 C2223 1.327 . S
C2225 C2241 1.429 . S
C2225 H2247 0.950 . S
C2226 H2222 0.949 . S
C2226 C2234 1.574 . S
C2226 C2242 1.368 . S
H2227 C2235 0.950 . S
H2228 C2233 0.950 . S
H2229 C2234 0.949 . S
H2230 C2236 0.950 . S
H2231 C2237 0.950 . S
H2232 C2238 0.949 . S
C2233 H2228 0.950 . S
C2233 C2235 1.327 . S
C2233 C2239 1.429 . S
C2234 C2226 1.574 . S
C2234 H2229 0.949 . S
C2234 C2240 1.368 . S
C2235 C2219 1.349 . S
C2235 H2227 0.950 . S
C2235 C2233 1.327 . S
C2236 C2224 1.349 . S
C2236 H2230 0.950 . S
C2236 C2237 1.327 . S
C2237 H2231 0.950 . S
C2237 C2236 1.327 . S
C2237 C2241 1.429 . S
C2238 C2221 1.574 . S
C2238 H2232 0.949 . S
C2238 C2242 1.368 . S
C2239 C2220 1.429 . S
C2239 C2233 1.429 . S
C2239 C2240 1.523 . S
C2240 C2221 1.368 . S
C2240 C2234 1.368 . S
C2240 C2239 1.523 . S
C2241 C2225 1.429 . S
C2241 C2237 1.429 . S
C2241 C2242 1.523 . S
C2242 C2226 1.368 . S
C2242 C2238 1.368 . S
C2242 C2241 1.523 . S
H2243 C2218 0.950 . S
H2244 C2220 0.950 . S
H2245 C2221 0.949 . S
H2246 C2223 0.950 . S
H2247 C2225 0.950 . S
C2248 C2249 1.349 . S
C2248 C2250 1.327 . S
C2248 H2273 0.950 . S
C2249 C2248 1.349 . S
C2249 C2265 1.349 . S
C2250 C2248 1.327 . S
C2250 C2269 1.429 . S
C2250 H2274 0.950 . S
C2251 C2268 1.574 . S
C2251 C2270 1.368 . S
C2251 H2275 0.949 . S
H2252 C2256 0.949 . S
C2253 C2254 1.349 . S
C2253 C2255 1.327 . S
C2253 H2276 0.950 . S
C2254 C2253 1.349 . S
C2254 C2266 1.349 . S
C2255 C2253 1.327 . S
C2255 C2271 1.429 . S
C2255 H2277 0.950 . S
C2256 H2252 0.949 . S
C2256 C2264 1.574 . S
C2256 C2272 1.368 . S
H2257 C2265 0.950 . S
H2258 C2263 0.950 . S
H2259 C2264 0.949 . S
H2260 C2266 0.950 . S
H2261 C2267 0.950 . S
H2262 C2268 0.949 . S
C2263 H2258 0.950 . S
C2263 C2265 1.327 . S
C2263 C2269 1.429 . S
C2264 C2256 1.574 . S
C2264 H2259 0.949 . S
C2264 C2270 1.368 . S
C2265 C2249 1.349 . S
C2265 H2257 0.950 . S
C2265 C2263 1.327 . S
C2266 C2254 1.349 . S
C2266 H2260 0.950 . S
C2266 C2267 1.327 . S
C2267 H2261 0.950 . S
C2267 C2266 1.327 . S
C2267 C2271 1.429 . S
C2268 C2251 1.574 . S
C2268 H2262 0.949 . S
C2268 C2272 1.368 . S
C2269 C2250 1.429 . S
C2269 C2263 1.429 . S
C2269 C2270 1.523 . S
C2270 C2251 1.368 . S
C2270 C2264 1.368 . S
C2270 C2269 1.523 . S
C2271 C2255 1.429 . S
C2271 C2267 1.429 . S
C2271 C2272 1.523 . S
C2272 C2256 1.368 . S
C2272 C2268 1.368 . S
C2272 C2271 1.523 . S
H2273 C2248 0.950 . S
H2274 C2250 0.950 . S
H2275 C2251 0.949 . S
H2276 C2253 0.950 . S
H2277 C2255 0.950 . S
C2278 C2279 1.349 . S
C2278 C2280 1.327 . S
C2278 H2303 0.950 . S
C2279 C2278 1.349 . S
C2279 C2295 1.349 . S
C2280 C2278 1.327 . S
C2280 C2299 1.429 . S
C2280 H2304 0.950 . S
C2281 C2298 1.574 . S
C2281 C2300 1.368 . S
C2281 H2305 0.949 . S
H2282 C2286 0.949 . S
C2283 C2284 1.349 . S
C2283 C2285 1.327 . S
C2283 H2306 0.950 . S
C2284 C2283 1.349 . S
C2284 C2296 1.349 . S
C2285 C2283 1.327 . S
C2285 C2301 1.429 . S
C2285 H2307 0.950 . S
C2286 H2282 0.949 . S
C2286 C2294 1.574 1_554 S
C2286 C2302 1.368 . S
H2287 C2295 0.950 . S
H2288 C2293 0.950 . S
H2289 C2294 0.949 . S
H2290 C2296 0.950 . S
H2291 C2297 0.950 . S
H2292 C2298 0.949 . S
C2293 H2288 0.950 . S
C2293 C2295 1.327 . S
C2293 C2299 1.429 . S
C2294 C2286 1.574 1_556 S
C2294 H2289 0.949 . S
C2294 C2300 1.368 . S
C2295 C2279 1.349 . S
C2295 H2287 0.950 . S
C2295 C2293 1.327 . S
C2296 C2284 1.349 . S
C2296 H2290 0.950 . S
C2296 C2297 1.327 . S
C2297 H2291 0.950 . S
C2297 C2296 1.327 . S
C2297 C2301 1.429 . S
C2298 C2281 1.574 . S
C2298 H2292 0.949 . S
C2298 C2302 1.368 1_556 S
C2299 C2280 1.429 . S
C2299 C2293 1.429 . S
C2299 C2300 1.523 . S
C2300 C2281 1.368 . S
C2300 C2294 1.368 . S
C2300 C2299 1.523 . S
C2301 C2285 1.429 . S
C2301 C2297 1.429 . S
C2301 C2302 1.523 . S
C2302 C2286 1.368 . S
C2302 C2298 1.368 1_554 S
C2302 C2301 1.523 . S
H2303 C2278 0.950 . S
H2304 C2280 0.950 . S
H2305 C2281 0.949 . S
H2306 C2283 0.950 . S
H2307 C2285 0.950 . S
C2308 C2309 1.349 . S
C2308 C2310 1.327 . S
C2308 H2333 0.950 . S
C2309 C2308 1.349 . S
C2309 C2325 1.349 . S
C2310 C2308 1.327 . S
C2310 C2329 1.429 . S
C2310 H2334 0.950 . S
C2311 C2328 1.574 . S
C2311 C2330 1.368 . S
C2311 H2335 0.949 . S
H2312 C2316 0.949 . S
C2313 C2314 1.349 . S
C2313 C2315 1.327 . S
C2313 H2336 0.950 . S
C2314 C2313 1.349 . S
C2314 C2326 1.349 . S
C2315 C2313 1.327 . S
C2315 C2331 1.429 . S
C2315 H2337 0.950 . S
C2316 H2312 0.949 . S
C2316 C2324 1.574 . S
C2316 C2332 1.368 . S
H2317 C2325 0.933 1_455 S
H2318 C2323 0.950 . S
H2319 C2324 0.949 . S
H2320 C2326 0.950 . S
H2321 C2327 0.950 . S
H2322 C2328 0.949 . S
C2323 H2318 0.950 . S
C2323 C2325 1.327 . S
C2323 C2329 1.429 . S
C2324 C2316 1.574 . S
C2324 H2319 0.949 . S
C2324 C2330 1.368 . S
C2325 C2309 1.349 . S
C2325 H2317 0.933 1_655 S
C2325 C2323 1.327 . S
C2326 C2314 1.349 . S
C2326 H2320 0.950 . S
C2326 C2327 1.327 . S
C2327 H2321 0.950 . S
C2327 C2326 1.327 . S
C2327 C2331 1.429 . S
C2328 C2311 1.574 . S
C2328 H2322 0.949 . S
C2328 C2332 1.368 . S
C2329 C2310 1.429 . S
C2329 C2323 1.429 . S
C2329 C2330 1.523 . S
C2330 C2311 1.368 . S
C2330 C2324 1.368 . S
C2330 C2329 1.523 . S
C2331 C2315 1.429 . S
C2331 C2327 1.429 . S
C2331 C2332 1.523 . S
C2332 C2316 1.368 . S
C2332 C2328 1.368 . S
C2332 C2331 1.523 . S
H2333 C2308 0.950 . S
H2334 C2310 0.950 . S
H2335 C2311 0.949 . S
H2336 C2313 0.950 . S
H2337 C2315 0.950 . S
C2338 C2339 1.349 . S
C2338 C2340 1.327 . S
C2338 H2363 0.950 . S
C2339 C2338 1.349 . S
C2339 C2355 1.349 . S
C2340 C2338 1.327 . S
C2340 C2359 1.429 . S
C2340 H2364 0.950 . S
C2341 C2358 1.574 . S
C2341 C2360 1.368 . S
C2341 H2365 0.949 . S
H2342 C2346 0.949 . S
C2343 C2344 1.349 . S
C2343 C2345 1.327 . S
C2343 H2366 0.950 . S
C2344 C2343 1.349 . S
C2344 C2356 1.349 . S
C2345 C2343 1.327 . S
C2345 C2361 1.429 . S
C2345 H2367 0.950 . S
C2346 H2342 0.949 . S
C2346 C2354 1.574 . S
C2346 C2362 1.368 . S
H2347 C2355 0.950 . S
H2348 C2353 0.950 . S
H2349 C2354 0.949 . S
H2350 C2356 0.950 . S
H2351 C2357 0.950 . S
H2352 C2358 0.949 . S
C2353 H2348 0.950 . S
C2353 C2355 1.327 . S
C2353 C2359 1.429 . S
C2354 C2346 1.574 . S
C2354 H2349 0.949 . S
C2354 C2360 1.368 . S
C2355 C2339 1.349 . S
C2355 H2347 0.950 . S
C2355 C2353 1.327 . S
C2356 C2344 1.349 . S
C2356 H2350 0.950 . S
C2356 C2357 1.327 . S
C2357 H2351 0.950 . S
C2357 C2356 1.327 . S
C2357 C2361 1.429 . S
C2358 C2341 1.574 . S
C2358 H2352 0.949 . S
C2358 C2362 1.368 . S
C2359 C2340 1.429 . S
C2359 C2353 1.429 . S
C2359 C2360 1.523 . S
C2360 C2341 1.368 . S
C2360 C2354 1.368 . S
C2360 C2359 1.523 . S
C2361 C2345 1.429 . S
C2361 C2357 1.429 . S
C2361 C2362 1.523 . S
C2362 C2346 1.368 . S
C2362 C2358 1.368 . S
C2362 C2361 1.523 . S
H2363 C2338 0.950 . S
H2364 C2340 0.950 . S
H2365 C2341 0.949 . S
H2366 C2343 0.950 . S
H2367 C2345 0.950 . S
C2368 C2369 1.349 . S
C2368 C2370 1.327 . S
C2368 H2393 0.950 . S
C2369 C2368 1.349 . S
C2369 C2385 1.349 . S
C2370 C2368 1.327 . S
C2370 C2389 1.429 . S
C2370 H2394 0.950 . S
C2371 C2388 1.574 . S
C2371 C2390 1.368 . S
C2371 H2395 0.949 . S
H2372 C2376 0.949 . S
C2373 C2374 1.349 . S
C2373 C2375 1.327 . S
C2373 H2396 0.950 . S
C2374 C2373 1.349 . S
C2374 C2386 1.349 . S
C2375 C2373 1.327 . S
C2375 C2391 1.429 . S
C2375 H2397 0.950 . S
C2376 H2372 0.949 . S
C2376 C2384 1.574 . S
C2376 C2392 1.368 . S
H2377 C2385 0.950 . S
H2378 C2383 0.950 . S
H2379 C2384 0.949 . S
H2380 C2386 0.950 . S
H2381 C2387 0.950 . S
H2382 C2388 0.949 . S
C2383 H2378 0.950 . S
C2383 C2385 1.327 . S
C2383 C2389 1.429 . S
C2384 C2376 1.574 . S
C2384 H2379 0.949 . S
C2384 C2390 1.368 . S
C2385 C2369 1.349 . S
C2385 H2377 0.950 . S
C2385 C2383 1.327 . S
C2386 C2374 1.349 . S
C2386 H2380 0.950 . S
C2386 C2387 1.327 . S
C2387 H2381 0.950 . S
C2387 C2386 1.327 . S
C2387 C2391 1.429 . S
C2388 C2371 1.574 . S
C2388 H2382 0.949 . S
C2388 C2392 1.368 . S
C2389 C2370 1.429 . S
C2389 C2383 1.429 . S
C2389 C2390 1.523 . S
C2390 C2371 1.368 . S
C2390 C2384 1.368 . S
C2390 C2389 1.523 . S
C2391 C2375 1.429 . S
C2391 C2387 1.429 . S
C2391 C2392 1.523 . S
C2392 C2376 1.368 . S
C2392 C2388 1.368 . S
C2392 C2391 1.523 . S
H2393 C2368 0.950 . S
H2394 C2370 0.950 . S
H2395 C2371 0.949 . S
H2396 C2373 0.950 . S
H2397 C2375 0.950 . S
C2398 C2399 1.349 . S
C2398 C2400 1.327 . S
C2398 H2423 0.950 . S
C2399 C2398 1.349 . S
C2399 C2415 1.349 . S
C2400 C2398 1.327 . S
C2400 C2419 1.429 . S
C2400 H2424 0.950 . S
C2401 C2418 1.574 . S
C2401 C2420 1.368 . S
C2401 H2425 0.949 . S
H2402 C2406 0.949 . S
C2403 C2404 1.349 . S
C2403 C2405 1.327 . S
C2403 H2426 0.950 . S
C2404 C2403 1.349 . S
C2404 C2416 1.349 . S
C2405 C2403 1.327 . S
C2405 C2421 1.429 . S
C2405 H2427 0.950 . S
C2406 H2402 0.949 . S
C2406 C2414 1.574 . S
C2406 C2422 1.368 . S
H2407 C2415 0.950 . S
H2408 C2413 0.950 . S
H2409 C2414 0.949 . S
H2410 C2416 0.950 . S
H2411 C2417 0.950 . S
H2412 C2418 0.949 . S
C2413 H2408 0.950 . S
C2413 C2415 1.327 . S
C2413 C2419 1.429 . S
C2414 C2406 1.574 . S
C2414 H2409 0.949 . S
C2414 C2420 1.368 . S
C2415 C2399 1.349 . S
C2415 H2407 0.950 . S
C2415 C2413 1.327 . S
C2416 C2404 1.349 . S
C2416 H2410 0.950 . S
C2416 C2417 1.327 . S
C2417 H2411 0.950 . S
C2417 C2416 1.327 . S
C2417 C2421 1.429 . S
C2418 C2401 1.574 . S
C2418 H2412 0.949 . S
C2418 C2422 1.368 . S
C2419 C2400 1.429 . S
C2419 C2413 1.429 . S
C2419 C2420 1.523 . S
C2420 C2401 1.368 . S
C2420 C2414 1.368 . S
C2420 C2419 1.523 . S
C2421 C2405 1.429 . S
C2421 C2417 1.429 . S
C2421 C2422 1.523 . S
C2422 C2406 1.368 . S
C2422 C2418 1.368 . S
C2422 C2421 1.523 . S
H2423 C2398 0.950 . S
H2424 C2400 0.950 . S
H2425 C2401 0.949 . S
H2426 C2403 0.950 . S
H2427 C2405 0.950 . S
C2428 C2429 1.349 . S
C2428 C2430 1.327 . S
C2428 H2453 0.950 . S
C2429 C2428 1.349 . S
C2429 C2445 1.349 . S
C2430 C2428 1.327 . S
C2430 C2449 1.429 . S
C2430 H2454 0.950 . S
C2431 C2448 1.574 . S
C2431 C2450 1.368 . S
C2431 H2455 0.949 . S
H2432 C2436 0.949 . S
C2433 C2434 1.349 . S
C2433 C2435 1.327 . S
C2433 H2456 0.950 . S
C2434 C2433 1.349 . S
C2434 C2446 1.349 . S
C2435 C2433 1.327 . S
C2435 C2451 1.429 . S
C2435 H2457 0.950 . S
C2436 H2432 0.949 . S
C2436 C2444 1.574 . S
C2436 C2452 1.368 . S
H2437 C2445 0.950 . S
H2438 C2443 0.950 . S
H2439 C2444 0.949 . S
H2440 C2446 0.950 . S
H2441 C2447 0.950 . S
H2442 C2448 0.949 . S
C2443 H2438 0.950 . S
C2443 C2445 1.327 . S
C2443 C2449 1.429 . S
C2444 C2436 1.574 . S
C2444 H2439 0.949 . S
C2444 C2450 1.368 . S
C2445 C2429 1.349 . S
C2445 H2437 0.950 . S
C2445 C2443 1.327 . S
C2446 C2434 1.349 . S
C2446 H2440 0.950 . S
C2446 C2447 1.327 . S
C2447 H2441 0.950 . S
C2447 C2446 1.327 . S
C2447 C2451 1.429 . S
C2448 C2431 1.574 . S
C2448 H2442 0.949 . S
C2448 C2452 1.368 . S
C2449 C2430 1.429 . S
C2449 C2443 1.429 . S
C2449 C2450 1.523 . S
C2450 C2431 1.368 . S
C2450 C2444 1.368 . S
C2450 C2449 1.523 . S
C2451 C2435 1.429 . S
C2451 C2447 1.429 . S
C2451 C2452 1.523 . S
C2452 C2436 1.368 . S
C2452 C2448 1.368 . S
C2452 C2451 1.523 . S
H2453 C2428 0.950 . S
H2454 C2430 0.950 . S
H2455 C2431 0.949 . S
H2456 C2433 0.950 . S
H2457 C2435 0.950 . S
C2458 C2459 1.349 . S
C2458 C2460 1.327 . S
C2458 H2483 0.950 . S
C2459 C2458 1.349 . S
C2459 C2475 1.349 . S
C2460 C2458 1.327 . S
C2460 C2479 1.429 . S
C2460 H2484 0.950 . S
C2461 C2478 1.574 . S
C2461 C2480 1.368 . S
C2461 H2485 0.949 . S
H2462 C2466 0.949 . S
C2463 C2464 1.349 . S
C2463 C2465 1.327 . S
C2463 H2486 0.950 . S
C2464 C2463 1.349 . S
C2464 C2476 1.349 . S
C2465 C2463 1.327 . S
C2465 C2481 1.429 . S
C2465 H2487 0.950 . S
C2466 H2462 0.949 . S
C2466 C2474 1.574 . S
C2466 C2482 1.368 . S
H2467 C2475 0.950 . S
H2468 C2473 0.950 . S
H2469 C2474 0.949 . S
H2470 C2476 0.950 . S
H2471 C2477 0.950 . S
H2472 C2478 0.949 . S
C2473 H2468 0.950 . S
C2473 C2475 1.327 . S
C2473 C2479 1.429 . S
C2474 C2466 1.574 . S
C2474 H2469 0.949 . S
C2474 C2480 1.368 . S
C2475 C2459 1.349 . S
C2475 H2467 0.950 . S
C2475 C2473 1.327 . S
C2476 C2464 1.349 . S
C2476 H2470 0.950 . S
C2476 C2477 1.327 . S
C2477 H2471 0.950 . S
C2477 C2476 1.327 . S
C2477 C2481 1.429 . S
C2478 C2461 1.574 . S
C2478 H2472 0.949 . S
C2478 C2482 1.368 . S
C2479 C2460 1.429 . S
C2479 C2473 1.429 . S
C2479 C2480 1.523 . S
C2480 C2461 1.368 . S
C2480 C2474 1.368 . S
C2480 C2479 1.523 . S
C2481 C2465 1.429 . S
C2481 C2477 1.429 . S
C2481 C2482 1.523 . S
C2482 C2466 1.368 . S
C2482 C2478 1.368 . S
C2482 C2481 1.523 . S
H2483 C2458 0.950 . S
H2484 C2460 0.950 . S
H2485 C2461 0.949 . S
H2486 C2463 0.950 . S
H2487 C2465 0.950 . S
C2488 C2489 1.349 . S
C2488 C2490 1.327 . S
C2488 H2513 0.950 . S
C2489 C2488 1.349 . S
C2489 C2505 1.349 . S
C2490 C2488 1.327 . S
C2490 C2509 1.429 . S
C2490 H2514 0.950 . S
C2491 C2508 1.574 . S
C2491 C2510 1.368 . S
C2491 H2515 0.949 . S
H2492 C2496 0.949 . S
C2493 C2494 1.349 . S
C2493 C2495 1.327 . S
C2493 H2516 0.950 . S
C2494 C2493 1.349 . S
C2494 C2506 1.349 . S
C2495 C2493 1.327 . S
C2495 C2511 1.429 . S
C2495 H2517 0.950 . S
C2496 H2492 0.949 . S
C2496 C2504 1.574 . S
C2496 C2512 1.368 . S
H2497 C2505 0.950 . S
H2498 C2503 0.950 . S
H2499 C2504 0.949 . S
H2500 C2506 0.950 . S
H2501 C2507 0.950 . S
H2502 C2508 0.949 . S
C2503 H2498 0.950 . S
C2503 C2505 1.327 . S
C2503 C2509 1.429 . S
C2504 C2496 1.574 . S
C2504 H2499 0.949 . S
C2504 C2510 1.368 . S
C2505 C2489 1.349 . S
C2505 H2497 0.950 . S
C2505 C2503 1.327 . S
C2506 C2494 1.349 . S
C2506 H2500 0.950 . S
C2506 C2507 1.327 . S
C2507 H2501 0.950 . S
C2507 C2506 1.327 . S
C2507 C2511 1.429 . S
C2508 C2491 1.574 . S
C2508 H2502 0.949 . S
C2508 C2512 1.368 . S
C2509 C2490 1.429 . S
C2509 C2503 1.429 . S
C2509 C2510 1.523 . S
C2510 C2491 1.368 . S
C2510 C2504 1.368 . S
C2510 C2509 1.523 . S
C2511 C2495 1.429 . S
C2511 C2507 1.429 . S
C2511 C2512 1.523 . S
C2512 C2496 1.368 . S
C2512 C2508 1.368 . S
C2512 C2511 1.523 . S
H2513 C2488 0.950 . S
H2514 C2490 0.950 . S
H2515 C2491 0.949 . S
H2516 C2493 0.950 . S
H2517 C2495 0.950 . S
C2518 C2519 1.349 . S
C2518 C2520 1.327 . S
C2518 H2543 0.950 . S
C2519 C2518 1.349 . S
C2519 C2535 1.349 . S
C2520 C2518 1.327 . S
C2520 C2539 1.429 . S
C2520 H2544 0.950 . S
C2521 C2538 1.574 . S
C2521 C2540 1.368 . S
C2521 H2545 0.949 . S
H2522 C2526 0.949 . S
C2523 C2524 1.349 . S
C2523 C2525 1.327 . S
C2523 H2546 0.950 . S
C2524 C2523 1.349 . S
C2524 C2536 1.349 . S
C2525 C2523 1.327 . S
C2525 C2541 1.429 . S
C2525 H2547 0.950 . S
C2526 H2522 0.949 . S
C2526 C2534 1.574 . S
C2526 C2542 1.368 . S
H2527 C2535 0.950 . S
H2528 C2533 0.950 . S
H2529 C2534 0.949 . S
H2530 C2536 0.950 . S
H2531 C2537 0.950 . S
H2532 C2538 0.949 . S
C2533 H2528 0.950 . S
C2533 C2535 1.327 . S
C2533 C2539 1.429 . S
C2534 C2526 1.574 . S
C2534 H2529 0.949 . S
C2534 C2540 1.368 . S
C2535 C2519 1.349 . S
C2535 H2527 0.950 . S
C2535 C2533 1.327 . S
C2536 C2524 1.349 . S
C2536 H2530 0.950 . S
C2536 C2537 1.327 . S
C2537 H2531 0.950 . S
C2537 C2536 1.327 . S
C2537 C2541 1.429 . S
C2538 C2521 1.574 . S
C2538 H2532 0.949 . S
C2538 C2542 1.368 . S
C2539 C2520 1.429 . S
C2539 C2533 1.429 . S
C2539 C2540 1.523 . S
C2540 C2521 1.368 . S
C2540 C2534 1.368 . S
C2540 C2539 1.523 . S
C2541 C2525 1.429 . S
C2541 C2537 1.429 . S
C2541 C2542 1.523 . S
C2542 C2526 1.368 . S
C2542 C2538 1.368 . S
C2542 C2541 1.523 . S
H2543 C2518 0.950 . S
H2544 C2520 0.950 . S
H2545 C2521 0.949 . S
H2546 C2523 0.950 . S
H2547 C2525 0.950 . S
C2548 C2549 1.349 . S
C2548 C2550 1.327 . S
C2548 H2573 0.950 . S
C2549 C2548 1.349 . S
C2549 C2565 1.349 . S
C2550 C2548 1.327 . S
C2550 C2569 1.429 . S
C2550 H2574 0.950 . S
C2551 C2568 1.574 . S
C2551 C2570 1.368 . S
C2551 H2575 0.949 . S
H2552 C2556 0.949 . S
C2553 C2554 1.349 . S
C2553 C2555 1.327 . S
C2553 H2576 0.950 . S
C2554 C2553 1.349 . S
C2554 C2566 1.349 . S
C2555 C2553 1.327 . S
C2555 C2571 1.429 . S
C2555 H2577 0.950 . S
C2556 H2552 0.949 . S
C2556 C2564 1.574 . S
C2556 C2572 1.368 . S
H2557 C2565 0.950 . S
H2558 C2563 0.950 . S
H2559 C2564 0.949 . S
H2560 C2566 0.950 . S
H2561 C2567 0.950 . S
H2562 C2568 0.949 . S
C2563 H2558 0.950 . S
C2563 C2565 1.327 . S
C2563 C2569 1.429 . S
C2564 C2556 1.574 . S
C2564 H2559 0.949 . S
C2564 C2570 1.368 . S
C2565 C2549 1.349 . S
C2565 H2557 0.950 . S
C2565 C2563 1.327 . S
C2566 C2554 1.349 . S
C2566 H2560 0.950 . S
C2566 C2567 1.327 . S
C2567 H2561 0.950 . S
C2567 C2566 1.327 . S
C2567 C2571 1.429 . S
C2568 C2551 1.574 . S
C2568 H2562 0.949 . S
C2568 C2572 1.368 . S
C2569 C2550 1.429 . S
C2569 C2563 1.429 . S
C2569 C2570 1.523 . S
C2570 C2551 1.368 . S
C2570 C2564 1.368 . S
C2570 C2569 1.523 . S
C2571 C2555 1.429 . S
C2571 C2567 1.429 . S
C2571 C2572 1.523 . S
C2572 C2556 1.368 . S
C2572 C2568 1.368 . S
C2572 C2571 1.523 . S
H2573 C2548 0.950 . S
H2574 C2550 0.950 . S
H2575 C2551 0.949 . S
H2576 C2553 0.950 . S
H2577 C2555 0.950 . S
C2578 C2579 1.349 . S
C2578 C2580 1.327 . S
C2578 H2603 0.950 . S
C2579 C2578 1.349 . S
C2579 C2595 1.349 . S
C2580 C2578 1.327 . S
C2580 C2599 1.429 . S
C2580 H2604 0.950 . S
C2581 C2598 1.574 . S
C2581 C2600 1.368 . S
C2581 H2605 0.949 . S
H2582 C2586 0.949 . S
C2583 C2584 1.349 . S
C2583 C2585 1.327 . S
C2583 H2606 0.950 . S
C2584 C2583 1.349 . S
C2584 C2596 1.349 . S
C2585 C2583 1.327 . S
C2585 C2601 1.429 . S
C2585 H2607 0.950 . S
C2586 H2582 0.949 . S
C2586 C2594 1.574 . S
C2586 C2602 1.368 . S
H2587 C2595 0.950 . S
H2588 C2593 0.950 . S
H2589 C2594 0.949 . S
H2590 C2596 0.950 . S
H2591 C2597 0.950 . S
H2592 C2598 0.949 . S
C2593 H2588 0.950 . S
C2593 C2595 1.327 . S
C2593 C2599 1.429 . S
C2594 C2586 1.574 . S
C2594 H2589 0.949 . S
C2594 C2600 1.368 . S
C2595 C2579 1.349 . S
C2595 H2587 0.950 . S
C2595 C2593 1.327 . S
C2596 C2584 1.349 . S
C2596 H2590 0.950 . S
C2596 C2597 1.327 . S
C2597 H2591 0.950 . S
C2597 C2596 1.327 . S
C2597 C2601 1.429 . S
C2598 C2581 1.574 . S
C2598 H2592 0.949 . S
C2598 C2602 1.368 . S
C2599 C2580 1.429 . S
C2599 C2593 1.429 . S
C2599 C2600 1.523 . S
C2600 C2581 1.368 . S
C2600 C2594 1.368 . S
C2600 C2599 1.523 . S
C2601 C2585 1.429 . S
C2601 C2597 1.429 . S
C2601 C2602 1.523 . S
C2602 C2586 1.368 . S
C2602 C2598 1.368 . S
C2602 C2601 1.523 . S
H2603 C2578 0.950 . S
H2604 C2580 0.950 . S
H2605 C2581 0.949 . S
H2606 C2583 0.950 . S
H2607 C2585 0.950 . S
C2608 C2609 1.349 . S
C2608 C2610 1.327 . S
C2608 H2633 0.950 . S
C2609 C2608 1.349 . S
C2609 C2625 1.349 . S
C2610 C2608 1.327 . S
C2610 C2629 1.429 . S
C2610 H2634 0.950 . S
C2611 C2628 1.574 . S
C2611 C2630 1.368 . S
C2611 H2635 0.949 . S
H2612 C2616 0.949 . S
C2613 C2614 1.349 . S
C2613 C2615 1.327 . S
C2613 H2636 0.950 . S
C2614 C2613 1.349 . S
C2614 C2626 1.349 . S
C2615 C2613 1.327 . S
C2615 C2631 1.429 . S
C2615 H2637 0.950 . S
C2616 H2612 0.949 . S
C2616 C2624 1.574 . S
C2616 C2632 1.368 . S
H2617 C2625 0.950 . S
H2618 C2623 0.950 . S
H2619 C2624 0.949 . S
H2620 C2626 0.950 . S
H2621 C2627 0.950 . S
H2622 C2628 0.949 . S
C2623 H2618 0.950 . S
C2623 C2625 1.327 . S
C2623 C2629 1.429 . S
C2624 C2616 1.574 . S
C2624 H2619 0.949 . S
C2624 C2630 1.368 . S
C2625 C2609 1.349 . S
C2625 H2617 0.950 . S
C2625 C2623 1.327 . S
C2626 C2614 1.349 . S
C2626 H2620 0.950 . S
C2626 C2627 1.327 . S
C2627 H2621 0.950 . S
C2627 C2626 1.327 . S
C2627 C2631 1.429 . S
C2628 C2611 1.574 . S
C2628 H2622 0.949 . S
C2628 C2632 1.368 . S
C2629 C2610 1.429 . S
C2629 C2623 1.429 . S
C2629 C2630 1.523 . S
C2630 C2611 1.368 . S
C2630 C2624 1.368 . S
C2630 C2629 1.523 . S
C2631 C2615 1.429 . S
C2631 C2627 1.429 . S
C2631 C2632 1.523 . S
C2632 C2616 1.368 . S
C2632 C2628 1.368 . S
C2632 C2631 1.523 . S
H2633 C2608 0.950 . S
H2634 C2610 0.950 . S
H2635 C2611 0.949 . S
H2636 C2613 0.950 . S
H2637 C2615 0.950 . S
C2638 C2639 1.349 . S
C2638 C2640 1.327 . S
C2638 H2663 0.950 . S
C2639 C2638 1.349 . S
C2639 C2655 1.349 . S
C2640 C2638 1.327 . S
C2640 C2659 1.429 . S
C2640 H2664 0.950 . S
C2641 C2658 1.574 . S
C2641 C2660 1.368 . S
C2641 H2665 0.949 . S
H2642 C2646 0.949 . S
C2643 C2644 1.349 . S
C2643 C2645 1.327 . S
C2643 H2666 0.950 . S
C2644 C2643 1.349 . S
C2644 C2656 1.349 . S
C2645 C2643 1.327 . S
C2645 C2661 1.429 . S
C2645 H2667 0.950 . S
C2646 H2642 0.949 . S
C2646 C2654 1.574 . S
C2646 C2662 1.368 . S
H2647 C2655 0.950 . S
H2648 C2653 0.950 . S
H2649 C2654 0.949 . S
H2650 C2656 0.950 . S
H2651 C2657 0.950 . S
H2652 C2658 0.949 . S
C2653 H2648 0.950 . S
C2653 C2655 1.327 . S
C2653 C2659 1.429 . S
C2654 C2646 1.574 . S
C2654 H2649 0.949 . S
C2654 C2660 1.368 . S
C2655 C2639 1.349 . S
C2655 H2647 0.950 . S
C2655 C2653 1.327 . S
C2656 C2644 1.349 . S
C2656 H2650 0.950 . S
C2656 C2657 1.327 . S
C2657 H2651 0.950 . S
C2657 C2656 1.327 . S
C2657 C2661 1.429 . S
C2658 C2641 1.574 . S
C2658 H2652 0.949 . S
C2658 C2662 1.368 . S
C2659 C2640 1.429 . S
C2659 C2653 1.429 . S
C2659 C2660 1.523 . S
C2660 C2641 1.368 . S
C2660 C2654 1.368 . S
C2660 C2659 1.523 . S
C2661 C2645 1.429 . S
C2661 C2657 1.429 . S
C2661 C2662 1.523 . S
C2662 C2646 1.368 . S
C2662 C2658 1.368 . S
C2662 C2661 1.523 . S
H2663 C2638 0.950 . S
H2664 C2640 0.950 . S
H2665 C2641 0.949 . S
H2666 C2643 0.950 . S
H2667 C2645 0.950 . S
C2668 C2669 1.349 . S
C2668 C2670 1.327 . S
C2668 H2693 0.950 . S
C2669 C2668 1.349 . S
C2669 C2685 1.349 . S
C2670 C2668 1.327 . S
C2670 C2689 1.429 . S
C2670 H2694 0.950 . S
C2671 C2688 1.574 . S
C2671 C2690 1.368 . S
C2671 H2695 0.949 . S
H2672 C2676 0.949 . S
C2673 C2674 1.349 . S
C2673 C2675 1.327 . S
C2673 H2696 0.950 . S
C2674 C2673 1.349 . S
C2674 C2686 1.349 . S
C2675 C2673 1.327 . S
C2675 C2691 1.429 . S
C2675 H2697 0.950 . S
C2676 H2672 0.949 . S
C2676 C2684 1.574 . S
C2676 C2692 1.368 . S
H2677 C2685 0.950 . S
H2678 C2683 0.950 . S
H2679 C2684 0.949 . S
H2680 C2686 0.950 . S
H2681 C2687 0.950 . S
H2682 C2688 0.949 . S
C2683 H2678 0.950 . S
C2683 C2685 1.327 . S
C2683 C2689 1.429 . S
C2684 C2676 1.574 . S
C2684 H2679 0.949 . S
C2684 C2690 1.368 . S
C2685 C2669 1.349 . S
C2685 H2677 0.950 . S
C2685 C2683 1.327 . S
C2686 C2674 1.349 . S
C2686 H2680 0.950 . S
C2686 C2687 1.327 . S
C2687 H2681 0.950 . S
C2687 C2686 1.327 . S
C2687 C2691 1.429 . S
C2688 C2671 1.574 . S
C2688 H2682 0.949 . S
C2688 C2692 1.368 . S
C2689 C2670 1.429 . S
C2689 C2683 1.429 . S
C2689 C2690 1.523 . S
C2690 C2671 1.368 . S
C2690 C2684 1.368 . S
C2690 C2689 1.523 . S
C2691 C2675 1.429 . S
C2691 C2687 1.429 . S
C2691 C2692 1.523 . S
C2692 C2676 1.368 . S
C2692 C2688 1.368 . S
C2692 C2691 1.523 . S
H2693 C2668 0.950 . S
H2694 C2670 0.950 . S
H2695 C2671 0.949 . S
H2696 C2673 0.950 . S
H2697 C2675 0.950 . S
C2698 C2699 1.349 . S
C2698 C2700 1.327 . S
C2698 H2723 0.950 . S
C2699 C2698 1.349 . S
C2699 C2715 1.349 . S
C2700 C2698 1.327 . S
C2700 C2719 1.429 . S
C2700 H2724 0.950 . S
C2701 C2718 1.574 . S
C2701 C2720 1.368 . S
C2701 H2725 0.949 . S
H2702 C2706 0.949 . S
C2703 C2704 1.349 . S
C2703 C2705 1.327 . S
C2703 H2726 0.950 . S
C2704 C2703 1.349 . S
C2704 C2716 1.349 . S
C2705 C2703 1.327 . S
C2705 C2721 1.429 . S
C2705 H2727 0.950 . S
C2706 H2702 0.949 . S
C2706 C2714 1.574 . S
C2706 C2722 1.368 . S
H2707 C2715 0.950 1_554 S
H2708 C2713 0.950 . S
H2709 C2714 0.949 . S
H2710 C2716 0.950 . S
H2711 C2717 0.950 . S
H2712 C2718 0.949 . S
C2713 H2708 0.950 . S
C2713 C2715 1.327 . S
C2713 C2719 1.429 . S
C2714 C2706 1.574 . S
C2714 H2709 0.949 . S
C2714 C2720 1.368 . S
C2715 C2699 1.349 . S
C2715 H2707 0.950 1_556 S
C2715 C2713 1.327 . S
C2716 C2704 1.349 . S
C2716 H2710 0.950 . S
C2716 C2717 1.327 . S
C2717 H2711 0.950 . S
C2717 C2716 1.327 . S
C2717 C2721 1.429 . S
C2718 C2701 1.574 . S
C2718 H2712 0.949 . S
C2718 C2722 1.368 . S
C2719 C2700 1.429 . S
C2719 C2713 1.429 . S
C2719 C2720 1.523 . S
C2720 C2701 1.368 . S
C2720 C2714 1.368 . S
C2720 C2719 1.523 . S
C2721 C2705 1.429 . S
C2721 C2717 1.429 . S
C2721 C2722 1.523 . S
C2722 C2706 1.368 . S
C2722 C2718 1.368 . S
C2722 C2721 1.523 . S
H2723 C2698 0.950 . S
H2724 C2700 0.950 . S
H2725 C2701 0.949 . S
H2726 C2703 0.950 . S
H2727 C2705 0.950 . S
C2728 C2729 1.349 . S
C2728 C2730 1.327 . S
C2728 H2753 0.950 . S
C2729 C2728 1.349 . S
C2729 C2745 1.349 . S
C2730 C2728 1.327 . S
C2730 C2749 1.429 . S
C2730 H2754 0.950 . S
C2731 C2748 1.574 . S
C2731 C2750 1.368 . S
C2731 H2755 0.949 . S
H2732 C2736 0.949 . S
C2733 C2734 1.349 . S
C2733 C2735 1.327 . S
C2733 H2756 0.950 . S
C2734 C2733 1.349 . S
C2734 C2746 1.349 . S
C2735 C2733 1.327 . S
C2735 C2751 1.429 . S
C2735 H2757 0.950 . S
C2736 H2732 0.949 . S
C2736 C2744 1.574 . S
C2736 C2752 1.368 . S
H2737 C2745 0.950 . S
H2738 C2743 0.950 . S
H2739 C2744 0.949 . S
H2740 C2746 0.950 . S
H2741 C2747 0.950 . S
H2742 C2748 0.949 . S
C2743 H2738 0.950 . S
C2743 C2745 1.327 . S
C2743 C2749 1.429 . S
C2744 C2736 1.574 . S
C2744 H2739 0.949 . S
C2744 C2750 1.368 . S
C2745 C2729 1.349 . S
C2745 H2737 0.950 . S
C2745 C2743 1.327 . S
C2746 C2734 1.349 . S
C2746 H2740 0.950 . S
C2746 C2747 1.327 . S
C2747 H2741 0.950 . S
C2747 C2746 1.327 . S
C2747 C2751 1.429 . S
C2748 C2731 1.574 . S
C2748 H2742 0.949 . S
C2748 C2752 1.368 . S
C2749 C2730 1.429 . S
C2749 C2743 1.429 . S
C2749 C2750 1.523 . S
C2750 C2731 1.368 . S
C2750 C2744 1.368 . S
C2750 C2749 1.523 . S
C2751 C2735 1.429 . S
C2751 C2747 1.429 . S
C2751 C2752 1.523 . S
C2752 C2736 1.368 . S
C2752 C2748 1.368 . S
C2752 C2751 1.523 . S
H2753 C2728 0.950 . S
H2754 C2730 0.950 . S
H2755 C2731 0.949 . S
H2756 C2733 0.950 . S
H2757 C2735 0.950 . S
C2758 C2759 1.349 . S
C2758 C2760 1.327 . S
C2758 H2783 0.950 . S
C2759 C2758 1.349 . S
C2759 C2775 1.349 . S
C2760 C2758 1.327 . S
C2760 C2779 1.429 . S
C2760 H2784 0.950 . S
C2761 C2778 1.574 . S
C2761 C2780 1.368 . S
C2761 H2785 0.949 . S
H2762 C2766 0.949 . S
C2763 C2764 1.349 . S
C2763 C2765 1.327 . S
C2763 H2786 0.950 . S
C2764 C2763 1.349 . S
C2764 C2776 1.349 . S
C2765 C2763 1.327 . S
C2765 C2781 1.429 . S
C2765 H2787 0.950 . S
C2766 H2762 0.949 . S
C2766 C2774 1.574 . S
C2766 C2782 1.368 . S
H2767 C2775 0.990 . S
H2768 C2773 0.950 . S
H2769 C2774 0.949 . S
H2770 C2776 0.950 . S
H2771 C2777 0.950 . S
H2772 C2778 0.949 . S
C2773 H2768 0.950 . S
C2773 C2775 1.327 . S
C2773 C2779 1.429 . S
C2774 C2766 1.574 . S
C2774 H2769 0.949 . S
C2774 C2780 1.368 . S
C2775 C2759 1.349 . S
C2775 H2767 0.990 . S
C2775 C2773 1.327 . S
C2776 C2764 1.349 . S
C2776 H2770 0.950 . S
C2776 C2777 1.327 . S
C2777 H2771 0.950 . S
C2777 C2776 1.327 . S
C2777 C2781 1.429 . S
C2778 C2761 1.574 . S
C2778 H2772 0.949 . S
C2778 C2782 1.368 . S
C2779 C2760 1.429 . S
C2779 C2773 1.429 . S
C2779 C2780 1.523 . S
C2780 C2761 1.368 . S
C2780 C2774 1.368 . S
C2780 C2779 1.523 . S
C2781 C2765 1.429 . S
C2781 C2777 1.429 . S
C2781 C2782 1.523 . S
C2782 C2766 1.368 . S
C2782 C2778 1.368 . S
C2782 C2781 1.523 . S
H2783 C2758 0.950 . S
H2784 C2760 0.950 . S
H2785 C2761 0.949 . S
H2786 C2763 0.950 . S
H2787 C2765 0.950 . S
C2788 C2789 1.349 . S
C2788 C2790 1.327 . S
C2788 H2813 0.950 . S
C2789 C2788 1.349 . S
C2789 C2805 1.349 . S
C2790 C2788 1.327 . S
C2790 C2809 1.429 . S
C2790 H2814 0.950 . S
C2791 C2808 1.574 . S
C2791 C2810 1.368 . S
C2791 H2815 0.949 . S
H2792 C2796 0.949 . S
C2793 C2794 1.349 . S
C2793 C2795 1.327 . S
C2793 H2816 0.950 . S
C2794 C2793 1.349 . S
C2794 C2806 1.349 . S
C2795 C2793 1.327 . S
C2795 C2811 1.429 . S
C2795 H2817 0.950 . S
C2796 H2792 0.949 . S
C2796 C2804 1.574 . S
C2796 C2812 1.368 . S
H2797 C2805 0.950 . S
H2798 C2803 0.950 . S
H2799 C2804 0.949 . S
H2800 C2806 0.950 . S
H2801 C2807 0.950 . S
H2802 C2808 0.949 . S
C2803 H2798 0.950 . S
C2803 C2805 1.327 . S
C2803 C2809 1.429 . S
C2804 C2796 1.574 . S
C2804 H2799 0.949 . S
C2804 C2810 1.368 . S
C2805 C2789 1.349 . S
C2805 H2797 0.950 . S
C2805 C2803 1.327 . S
C2806 C2794 1.349 . S
C2806 H2800 0.950 . S
C2806 C2807 1.327 . S
C2807 H2801 0.950 . S
C2807 C2806 1.327 . S
C2807 C2811 1.429 . S
C2808 C2791 1.574 . S
C2808 H2802 0.949 . S
C2808 C2812 1.368 . S
C2809 C2790 1.429 . S
C2809 C2803 1.429 . S
C2809 C2810 1.523 . S
C2810 C2791 1.368 . S
C2810 C2804 1.368 . S
C2810 C2809 1.523 . S
C2811 C2795 1.429 . S
C2811 C2807 1.429 . S
C2811 C2812 1.523 . S
C2812 C2796 1.368 . S
C2812 C2808 1.368 . S
C2812 C2811 1.523 . S
H2813 C2788 0.950 . S
H2814 C2790 0.950 . S
H2815 C2791 0.949 . S
H2816 C2793 0.950 . S
H2817 C2795 0.950 . S
C2818 C2819 1.349 . S
C2818 C2820 1.327 . S
C2818 H2843 0.950 . S
C2819 C2818 1.349 . S
C2819 C2835 1.349 . S
C2820 C2818 1.327 . S
C2820 C2839 1.429 . S
C2820 H2844 0.950 . S
C2821 C2838 1.597 . S
C2821 C2840 1.368 . S
C2821 H2845 0.949 . S
H2822 C2826 0.949 . S
C2823 C2824 1.349 . S
C2823 C2825 1.327 . S
C2823 H2846 0.950 . S
C2824 C2823 1.349 . S
C2824 C2836 1.349 . S
C2825 C2823 1.327 . S
C2825 C2841 1.429 . S
C2825 H2847 0.950 . S
C2826 H2822 0.949 . S
C2826 C2834 1.574 1_455 S
C2826 C2842 1.368 . S
H2827 C2835 0.950 . S
H2828 C2833 0.950 . S
H2829 C2834 0.949 . S
H2830 C2836 0.950 . S
H2831 C2837 0.950 . S
H2832 C2838 0.939 1_455 S
C2833 H2828 0.950 . S
C2833 C2835 1.327 . S
C2833 C2839 1.429 . S
C2834 C2826 1.574 1_655 S
C2834 H2829 0.949 . S
C2834 C2840 1.368 . S
C2835 C2819 1.349 . S
C2835 H2827 0.950 . S
C2835 C2833 1.327 . S
C2836 C2824 1.349 . S
C2836 H2830 0.950 . S
C2836 C2837 1.327 . S
C2837 H2831 0.950 . S
C2837 C2836 1.327 . S
C2837 C2841 1.429 . S
C2838 C2821 1.597 . S
C2838 H2832 0.939 1_655 S
C2838 C2842 1.357 1_655 S
C2839 C2820 1.429 . S
C2839 C2833 1.429 . S
C2839 C2840 1.523 . S
C2840 C2821 1.368 . S
C2840 C2834 1.368 . S
C2840 C2839 1.523 . S
C2841 C2825 1.429 . S
C2841 C2837 1.429 . S
C2841 C2842 1.523 . S
C2842 C2826 1.368 . S
C2842 C2838 1.357 1_455 S
C2842 C2841 1.523 . S
H2843 C2818 0.950 . S
H2844 C2820 0.950 . S
H2845 C2821 0.949 . S
H2846 C2823 0.950 . S
H2847 C2825 0.950 . S
C2848 C2849 1.349 . S
C2848 C2850 1.327 . S
C2848 H2873 0.950 . S
C2849 C2848 1.349 . S
C2849 C2865 1.349 . S
C2850 C2848 1.327 . S
C2850 C2869 1.429 . S
C2850 H2874 0.950 . S
C2851 C2868 1.574 . S
C2851 C2870 1.368 . S
C2851 H2875 0.949 . S
H2852 C2856 0.949 . S
C2853 C2854 1.349 . S
C2853 C2855 1.327 . S
C2853 H2876 0.950 . S
C2854 C2853 1.349 . S
C2854 C2866 1.349 . S
C2855 C2853 1.327 . S
C2855 C2871 1.429 . S
C2855 H2877 0.950 . S
C2856 H2852 0.949 . S
C2856 C2864 1.574 . S
C2856 C2872 1.368 . S
H2857 C2865 0.950 . S
H2858 C2863 0.950 . S
H2859 C2864 0.949 . S
H2860 C2866 0.950 . S
H2861 C2867 0.950 . S
H2862 C2868 0.949 . S
C2863 H2858 0.950 . S
C2863 C2865 1.327 . S
C2863 C2869 1.429 . S
C2864 C2856 1.574 . S
C2864 H2859 0.949 . S
C2864 C2870 1.368 . S
C2865 C2849 1.349 . S
C2865 H2857 0.950 . S
C2865 C2863 1.327 . S
C2866 C2854 1.349 . S
C2866 H2860 0.950 . S
C2866 C2867 1.327 . S
C2867 H2861 0.950 . S
C2867 C2866 1.327 . S
C2867 C2871 1.429 . S
C2868 C2851 1.574 . S
C2868 H2862 0.949 . S
C2868 C2872 1.368 . S
C2869 C2850 1.429 . S
C2869 C2863 1.429 . S
C2869 C2870 1.523 . S
C2870 C2851 1.368 . S
C2870 C2864 1.368 . S
C2870 C2869 1.523 . S
C2871 C2855 1.429 . S
C2871 C2867 1.429 . S
C2871 C2872 1.523 . S
C2872 C2856 1.368 . S
C2872 C2868 1.368 . S
C2872 C2871 1.523 . S
H2873 C2848 0.950 . S
H2874 C2850 0.950 . S
H2875 C2851 0.949 . S
H2876 C2853 0.950 . S
H2877 C2855 0.950 . S
C2878 C2879 1.349 . S
C2878 C2880 1.327 . S
C2878 H2903 0.950 . S
C2879 C2878 1.349 . S
C2879 C2895 1.349 . S
C2880 C2878 1.327 . S
C2880 C2899 1.429 . S
C2880 H2904 0.950 . S
C2881 C2898 1.574 . S
C2881 C2900 1.368 . S
C2881 H2905 0.949 . S
H2882 C2886 0.949 . S
C2883 C2884 1.349 . S
C2883 C2885 1.327 . S
C2883 H2906 0.950 . S
C2884 C2883 1.349 . S
C2884 C2896 1.349 . S
C2885 C2883 1.327 . S
C2885 C2901 1.429 . S
C2885 H2907 0.950 . S
C2886 H2882 0.949 . S
C2886 C2894 1.574 1_554 S
C2886 C2902 1.368 . S
H2887 C2895 0.950 . S
H2888 C2893 0.950 . S
H2889 C2894 0.949 . S
H2890 C2896 0.950 . S
H2891 C2897 0.950 . S
H2892 C2898 0.949 . S
C2893 H2888 0.950 . S
C2893 C2895 1.327 . S
C2893 C2899 1.429 . S
C2894 C2886 1.574 1_556 S
C2894 H2889 0.949 . S
C2894 C2900 1.368 . S
C2895 C2879 1.349 . S
C2895 H2887 0.950 . S
C2895 C2893 1.327 . S
C2896 C2884 1.349 . S
C2896 H2890 0.950 . S
C2896 C2897 1.327 . S
C2897 H2891 0.950 . S
C2897 C2896 1.327 . S
C2897 C2901 1.429 . S
C2898 C2881 1.574 . S
C2898 H2892 0.949 . S
C2898 C2902 1.368 1_556 S
C2899 C2880 1.429 . S
C2899 C2893 1.429 . S
C2899 C2900 1.523 . S
C2900 C2881 1.368 . S
C2900 C2894 1.368 . S
C2900 C2899 1.523 . S
C2901 C2885 1.429 . S
C2901 C2897 1.429 . S
C2901 C2902 1.523 . S
C2902 C2886 1.368 . S
C2902 C2898 1.368 1_554 S
C2902 C2901 1.523 . S
H2903 C2878 0.950 . S
H2904 C2880 0.950 . S
H2905 C2881 0.949 . S
H2906 C2883 0.950 . S
H2907 C2885 0.950 . S
C2908 C2909 1.349 . S
C2908 C2910 1.327 . S
C2908 H2933 0.950 . S
C2909 C2908 1.349 . S
C2909 C2925 1.349 . S
C2910 C2908 1.327 . S
C2910 C2929 1.429 . S
C2910 H2934 0.950 . S
C2911 C2928 1.574 . S
C2911 C2930 1.368 . S
C2911 H2935 0.949 . S
H2912 C2916 0.949 . S
C2913 C2914 1.349 . S
C2913 C2915 1.327 . S
C2913 H2936 0.950 . S
C2914 C2913 1.349 . S
C2914 C2926 1.349 . S
C2915 C2913 1.327 . S
C2915 C2931 1.429 . S
C2915 H2937 0.950 . S
C2916 H2912 0.949 . S
C2916 C2924 1.574 . S
C2916 C2932 1.368 . S
H2917 C2925 0.950 . S
H2918 C2923 0.950 . S
H2919 C2924 0.949 . S
H2920 C2926 0.950 . S
H2921 C2927 0.950 . S
H2922 C2928 0.949 . S
C2923 H2918 0.950 . S
C2923 C2925 1.327 . S
C2923 C2929 1.429 . S
C2924 C2916 1.574 . S
C2924 H2919 0.949 . S
C2924 C2930 1.368 . S
C2925 C2909 1.349 . S
C2925 H2917 0.950 . S
C2925 C2923 1.327 . S
C2926 C2914 1.349 . S
C2926 H2920 0.950 . S
C2926 C2927 1.327 . S
C2927 H2921 0.950 . S
C2927 C2926 1.327 . S
C2927 C2931 1.429 . S
C2928 C2911 1.574 . S
C2928 H2922 0.949 . S
C2928 C2932 1.368 . S
C2929 C2910 1.429 . S
C2929 C2923 1.429 . S
C2929 C2930 1.523 . S
C2930 C2911 1.368 . S
C2930 C2924 1.368 . S
C2930 C2929 1.523 . S
C2931 C2915 1.429 . S
C2931 C2927 1.429 . S
C2931 C2932 1.523 . S
C2932 C2916 1.368 . S
C2932 C2928 1.368 . S
C2932 C2931 1.523 . S
H2933 C2908 0.950 . S
H2934 C2910 0.950 . S
H2935 C2911 0.949 . S
H2936 C2913 0.950 . S
H2937 C2915 0.950 . S
C2938 C2939 1.349 . S
C2938 C2940 1.327 . S
C2938 H2963 0.950 . S
C2939 C2938 1.349 . S
C2939 C2955 1.349 . S
C2940 C2938 1.327 . S
C2940 C2959 1.429 . S
C2940 H2964 0.950 . S
C2941 C2958 1.574 . S
C2941 C2960 1.368 . S
C2941 H2965 0.949 . S
H2942 C2946 0.949 . S
C2943 C2944 1.349 . S
C2943 C2945 1.327 . S
C2943 H2966 0.950 . S
C2944 C2943 1.349 . S
C2944 C2956 1.349 . S
C2945 C2943 1.327 . S
C2945 C2961 1.429 . S
C2945 H2967 0.950 . S
C2946 H2942 0.949 . S
C2946 C2954 1.574 . S
C2946 C2962 1.368 . S
H2947 C2955 0.950 . S
H2948 C2953 0.950 . S
H2949 C2954 0.949 . S
H2950 C2956 0.950 . S
H2951 C2957 0.950 . S
H2952 C2958 0.949 . S
C2953 H2948 0.950 . S
C2953 C2955 1.327 . S
C2953 C2959 1.429 . S
C2954 C2946 1.574 . S
C2954 H2949 0.949 . S
C2954 C2960 1.368 . S
C2955 C2939 1.349 . S
C2955 H2947 0.950 . S
C2955 C2953 1.327 . S
C2956 C2944 1.349 . S
C2956 H2950 0.950 . S
C2956 C2957 1.327 . S
C2957 H2951 0.950 . S
C2957 C2956 1.327 . S
C2957 C2961 1.429 . S
C2958 C2941 1.574 . S
C2958 H2952 0.949 . S
C2958 C2962 1.368 . S
C2959 C2940 1.429 . S
C2959 C2953 1.429 . S
C2959 C2960 1.523 . S
C2960 C2941 1.368 . S
C2960 C2954 1.368 . S
C2960 C2959 1.523 . S
C2961 C2945 1.429 . S
C2961 C2957 1.429 . S
C2961 C2962 1.523 . S
C2962 C2946 1.368 . S
C2962 C2958 1.368 . S
C2962 C2961 1.523 . S
H2963 C2938 0.950 . S
H2964 C2940 0.950 . S
H2965 C2941 0.949 . S
H2966 C2943 0.950 . S
H2967 C2945 0.950 . S
C2968 C2969 1.349 . S
C2968 C2970 1.327 . S
C2968 H2993 0.950 . S
C2969 C2968 1.349 . S
C2969 C2985 1.349 . S
C2970 C2968 1.327 . S
C2970 C2989 1.429 . S
C2970 H2994 0.950 . S
C2971 C2988 1.574 . S
C2971 C2990 1.368 . S
C2971 H2995 0.949 . S
H2972 C2976 0.949 . S
C2973 C2974 1.349 . S
C2973 C2975 1.327 . S
C2973 H2996 0.950 . S
C2974 C2973 1.349 . S
C2974 C2986 1.349 . S
C2975 C2973 1.327 . S
C2975 C2991 1.429 . S
C2975 H2997 0.950 . S
C2976 H2972 0.949 . S
C2976 C2984 1.574 . S
C2976 C2992 1.368 . S
H2977 C2985 0.950 . S
H2978 C2983 0.950 . S
H2979 C2984 0.949 . S
H2980 C2986 0.950 . S
H2981 C2987 0.950 . S
H2982 C2988 0.949 . S
C2983 H2978 0.950 . S
C2983 C2985 1.327 . S
C2983 C2989 1.429 . S
C2984 C2976 1.574 . S
C2984 H2979 0.949 . S
C2984 C2990 1.368 . S
C2985 C2969 1.349 . S
C2985 H2977 0.950 . S
C2985 C2983 1.327 . S
C2986 C2974 1.349 . S
C2986 H2980 0.950 . S
C2986 C2987 1.327 . S
C2987 H2981 0.950 . S
C2987 C2986 1.327 . S
C2987 C2991 1.429 . S
C2988 C2971 1.574 . S
C2988 H2982 0.949 . S
C2988 C2992 1.368 . S
C2989 C2970 1.429 . S
C2989 C2983 1.429 . S
C2989 C2990 1.523 . S
C2990 C2971 1.368 . S
C2990 C2984 1.368 . S
C2990 C2989 1.523 . S
C2991 C2975 1.429 . S
C2991 C2987 1.429 . S
C2991 C2992 1.523 . S
C2992 C2976 1.368 . S
C2992 C2988 1.368 . S
C2992 C2991 1.523 . S
H2993 C2968 0.950 . S
H2994 C2970 0.950 . S
H2995 C2971 0.949 . S
H2996 C2973 0.950 . S
H2997 C2975 0.950 . S
C2998 C2999 1.349 . S
C2998 C3000 1.327 . S
C2998 H3023 0.950 . S
C2999 C2998 1.349 . S
C2999 C3015 1.349 . S
C3000 C2998 1.327 . S
C3000 C3019 1.429 . S
C3000 H3024 0.950 . S
C3001 C3018 1.574 . S
C3001 C3020 1.368 . S
C3001 H3025 0.949 . S
H3002 C3006 0.949 1_556 S
C3003 C3004 1.349 . S
C3003 C3005 1.327 . S
C3003 H3026 0.950 . S
C3004 C3003 1.349 . S
C3004 C3016 1.349 . S
C3005 C3003 1.327 . S
C3005 C3021 1.429 . S
C3005 H3027 0.950 . S
C3006 H3002 0.949 1_554 S
C3006 C3014 1.574 . S
C3006 C3022 1.369 . S
H3007 C3015 0.950 . S
H3008 C3013 0.950 . S
H3009 C3014 0.949 . S
H3010 C3016 0.950 . S
H3011 C3017 0.950 . S
H3012 C3018 0.949 . S
C3013 H3008 0.950 . S
C3013 C3015 1.327 . S
C3013 C3019 1.429 . S
C3014 C3006 1.574 . S
C3014 H3009 0.949 . S
C3014 C3020 1.368 . S
C3015 C2999 1.349 . S
C3015 H3007 0.950 . S
C3015 C3013 1.327 . S
C3016 C3004 1.349 . S
C3016 H3010 0.950 . S
C3016 C3017 1.327 . S
C3017 H3011 0.950 . S
C3017 C3016 1.327 . S
C3017 C3021 1.429 . S
C3018 C3001 1.574 . S
C3018 H3012 0.949 . S
C3018 C3022 1.370 . S
C3019 C3000 1.429 . S
C3019 C3013 1.429 . S
C3019 C3020 1.523 . S
C3020 C3001 1.368 . S
C3020 C3014 1.368 . S
C3020 C3019 1.523 . S
C3021 C3005 1.429 . S
C3021 C3017 1.429 . S
C3021 C3022 1.520 1_556 S
C3022 C3006 1.369 . S
C3022 C3018 1.370 . S
C3022 C3021 1.520 1_554 S
H3023 C2998 0.950 . S
H3024 C3000 0.950 . S
H3025 C3001 0.949 . S
H3026 C3003 0.950 . S
H3027 C3005 0.950 . S
C3028 C3029 1.349 . S
C3028 C3030 1.327 . S
C3028 H3053 0.950 . S
C3029 C3028 1.349 . S
C3029 C3045 1.349 . S
C3030 C3028 1.327 . S
C3030 C3049 1.429 . S
C3030 H3054 0.950 . S
C3031 C3048 1.574 . S
C3031 C3050 1.368 . S
C3031 H3055 0.949 . S
H3032 C3036 0.949 . S
C3033 C3034 1.349 . S
C3033 C3035 1.327 . S
C3033 H3056 0.950 . S
C3034 C3033 1.349 . S
C3034 C3046 1.349 . S
C3035 C3033 1.327 . S
C3035 C3051 1.429 . S
C3035 H3057 0.950 . S
C3036 H3032 0.949 . S
C3036 C3044 1.574 . S
C3036 C3052 1.368 . S
H3037 C3045 0.950 . S
H3038 C3043 0.950 . S
H3039 C3044 0.949 . S
H3040 C3046 0.950 . S
H3041 C3047 0.950 . S
H3042 C3048 0.949 . S
C3043 H3038 0.950 . S
C3043 C3045 1.327 . S
C3043 C3049 1.429 . S
C3044 C3036 1.574 . S
C3044 H3039 0.949 . S
C3044 C3050 1.368 . S
C3045 C3029 1.349 . S
C3045 H3037 0.950 . S
C3045 C3043 1.327 . S
C3046 C3034 1.349 . S
C3046 H3040 0.950 . S
C3046 C3047 1.327 . S
C3047 H3041 0.950 . S
C3047 C3046 1.327 . S
C3047 C3051 1.429 . S
C3048 C3031 1.574 . S
C3048 H3042 0.949 . S
C3048 C3052 1.368 . S
C3049 C3030 1.429 . S
C3049 C3043 1.429 . S
C3049 C3050 1.523 . S
C3050 C3031 1.368 . S
C3050 C3044 1.368 . S
C3050 C3049 1.523 . S
C3051 C3035 1.429 . S
C3051 C3047 1.429 . S
C3051 C3052 1.523 . S
C3052 C3036 1.368 . S
C3052 C3048 1.368 . S
C3052 C3051 1.523 . S
H3053 C3028 0.950 . S
H3054 C3030 0.950 . S
H3055 C3031 0.949 . S
H3056 C3033 0.950 . S
H3057 C3035 0.950 . S
C3058 C3059 1.349 . S
C3058 C3060 1.327 . S
C3058 H3083 0.950 . S
C3059 C3058 1.349 . S
C3059 C3075 1.349 . S
C3060 C3058 1.327 . S
C3060 C3079 1.429 . S
C3060 H3084 0.950 . S
C3061 C3078 1.574 . S
C3061 C3080 1.368 . S
C3061 H3085 0.949 . S
H3062 C3066 0.949 . S
C3063 C3064 1.349 . S
C3063 C3065 1.327 . S
C3063 H3086 0.950 . S
C3064 C3063 1.349 . S
C3064 C3076 1.349 . S
C3065 C3063 1.327 . S
C3065 C3081 1.429 . S
C3065 H3087 0.950 . S
C3066 H3062 0.949 . S
C3066 C3074 1.574 . S
C3066 C3082 1.368 . S
H3067 C3075 0.950 . S
H3068 C3073 0.950 . S
H3069 C3074 0.949 . S
H3070 C3076 0.950 . S
H3071 C3077 0.950 . S
H3072 C3078 0.949 . S
C3073 H3068 0.950 . S
C3073 C3075 1.327 . S
C3073 C3079 1.429 . S
C3074 C3066 1.574 . S
C3074 H3069 0.949 . S
C3074 C3080 1.368 . S
C3075 C3059 1.349 . S
C3075 H3067 0.950 . S
C3075 C3073 1.327 . S
C3076 C3064 1.349 . S
C3076 H3070 0.950 . S
C3076 C3077 1.327 . S
C3077 H3071 0.950 . S
C3077 C3076 1.327 . S
C3077 C3081 1.429 . S
C3078 C3061 1.574 . S
C3078 H3072 0.949 . S
C3078 C3082 1.368 . S
C3079 C3060 1.429 . S
C3079 C3073 1.429 . S
C3079 C3080 1.523 . S
C3080 C3061 1.368 . S
C3080 C3074 1.368 . S
C3080 C3079 1.523 . S
C3081 C3065 1.429 . S
C3081 C3077 1.429 . S
C3081 C3082 1.523 . S
C3082 C3066 1.368 . S
C3082 C3078 1.368 . S
C3082 C3081 1.523 . S
H3083 C3058 0.950 . S
H3084 C3060 0.950 . S
H3085 C3061 0.949 . S
H3086 C3063 0.950 . S
H3087 C3065 0.950 . S
C3088 C3089 1.349 . S
C3088 C3090 1.327 . S
C3088 H3113 0.950 . S
C3089 C3088 1.349 . S
C3089 C3105 1.349 . S
C3090 C3088 1.327 . S
C3090 C3109 1.429 . S
C3090 H3114 0.950 . S
C3091 C3108 1.574 . S
C3091 C3110 1.368 . S
C3091 H3115 0.949 . S
H3092 C3096 0.949 . S
C3093 C3094 1.349 . S
C3093 C3095 1.327 . S
C3093 H3116 0.950 . S
C3094 C3093 1.349 . S
C3094 C3106 1.349 . S
C3095 C3093 1.327 . S
C3095 C3111 1.429 . S
C3095 H3117 0.950 . S
C3096 H3092 0.949 . S
C3096 C3104 1.574 . S
C3096 C3112 1.368 . S
H3097 C3105 0.950 . S
H3098 C3103 0.950 . S
H3099 C3104 0.949 . S
H3100 C3106 0.950 . S
H3101 C3107 0.950 . S
H3102 C3108 0.949 . S
C3103 H3098 0.950 . S
C3103 C3105 1.327 . S
C3103 C3109 1.429 . S
C3104 C3096 1.574 . S
C3104 H3099 0.949 . S
C3104 C3110 1.368 . S
C3105 C3089 1.349 . S
C3105 H3097 0.950 . S
C3105 C3103 1.327 . S
C3106 C3094 1.349 . S
C3106 H3100 0.950 . S
C3106 C3107 1.327 . S
C3107 H3101 0.950 . S
C3107 C3106 1.327 . S
C3107 C3111 1.429 . S
C3108 C3091 1.574 . S
C3108 H3102 0.949 . S
C3108 C3112 1.368 . S
C3109 C3090 1.429 . S
C3109 C3103 1.429 . S
C3109 C3110 1.523 . S
C3110 C3091 1.368 . S
C3110 C3104 1.368 . S
C3110 C3109 1.523 . S
C3111 C3095 1.429 . S
C3111 C3107 1.429 . S
C3111 C3112 1.523 . S
C3112 C3096 1.368 . S
C3112 C3108 1.368 . S
C3112 C3111 1.523 . S
H3113 C3088 0.950 . S
H3114 C3090 0.950 . S
H3115 C3091 0.949 . S
H3116 C3093 0.950 . S
H3117 C3095 0.950 . S
C3118 C3119 1.349 . S
C3118 C3120 1.327 . S
C3118 H3143 0.989 . S
C3119 C3118 1.349 . S
C3119 C3135 1.349 . S
C3120 C3118 1.327 . S
C3120 C3139 1.429 . S
C3120 H3144 0.950 . S
C3121 C3138 1.574 . S
C3121 C3140 1.368 . S
C3121 H3145 0.949 . S
H3122 C3126 0.949 . S
C3123 C3124 1.349 . S
C3123 C3125 1.327 . S
C3123 H3146 0.950 . S
C3124 C3123 1.349 . S
C3124 C3136 1.349 . S
C3125 C3123 1.327 . S
C3125 C3141 1.429 . S
C3125 H3147 0.950 . S
C3126 H3122 0.949 . S
C3126 C3134 1.574 . S
C3126 C3142 1.368 . S
H3127 C3135 0.950 . S
H3128 C3133 0.950 . S
H3129 C3134 0.949 . S
H3130 C3136 0.950 . S
H3131 C3137 0.950 . S
H3132 C3138 0.949 . S
C3133 H3128 0.950 . S
C3133 C3135 1.327 . S
C3133 C3139 1.429 . S
C3134 C3126 1.574 . S
C3134 H3129 0.949 . S
C3134 C3140 1.368 . S
C3135 C3119 1.349 . S
C3135 H3127 0.950 . S
C3135 C3133 1.327 . S
C3136 C3124 1.349 . S
C3136 H3130 0.950 . S
C3136 C3137 1.327 . S
C3137 H3131 0.950 . S
C3137 C3136 1.327 . S
C3137 C3141 1.429 . S
C3138 C3121 1.574 . S
C3138 H3132 0.949 . S
C3138 C3142 1.368 . S
C3139 C3120 1.429 . S
C3139 C3133 1.429 . S
C3139 C3140 1.523 . S
C3140 C3121 1.368 . S
C3140 C3134 1.368 . S
C3140 C3139 1.523 . S
C3141 C3125 1.429 . S
C3141 C3137 1.429 . S
C3141 C3142 1.523 . S
C3142 C3126 1.368 . S
C3142 C3138 1.368 . S
C3142 C3141 1.523 . S
H3143 C3118 0.989 . S
H3144 C3120 0.950 . S
H3145 C3121 0.949 . S
H3146 C3123 0.950 . S
H3147 C3125 0.950 . S
C3148 C3149 1.349 . S
C3148 C3150 1.327 . S
C3148 H3173 0.950 . S
C3149 C3148 1.349 . S
C3149 C3165 1.349 . S
C3150 C3148 1.327 . S
C3150 C3169 1.429 . S
C3150 H3174 0.950 . S
C3151 C3168 1.574 . S
C3151 C3170 1.368 . S
C3151 H3175 0.949 . S
H3152 C3156 0.949 . S
C3153 C3154 1.349 . S
C3153 C3155 1.327 . S
C3153 H3176 0.950 . S
C3154 C3153 1.349 . S
C3154 C3166 1.349 . S
C3155 C3153 1.327 . S
C3155 C3171 1.429 . S
C3155 H3177 0.950 . S
C3156 H3152 0.949 . S
C3156 C3164 1.574 . S
C3156 C3172 1.368 . S
H3157 C3165 0.950 . S
H3158 C3163 0.950 . S
H3159 C3164 0.949 . S
H3160 C3166 0.950 . S
H3161 C3167 0.950 . S
H3162 C3168 0.949 . S
C3163 H3158 0.950 . S
C3163 C3165 1.327 . S
C3163 C3169 1.429 . S
C3164 C3156 1.574 . S
C3164 H3159 0.949 . S
C3164 C3170 1.368 . S
C3165 C3149 1.349 . S
C3165 H3157 0.950 . S
C3165 C3163 1.327 . S
C3166 C3154 1.349 . S
C3166 H3160 0.950 . S
C3166 C3167 1.327 . S
C3167 H3161 0.950 . S
C3167 C3166 1.327 . S
C3167 C3171 1.429 . S
C3168 C3151 1.574 . S
C3168 H3162 0.949 . S
C3168 C3172 1.368 . S
C3169 C3150 1.429 . S
C3169 C3163 1.429 . S
C3169 C3170 1.523 . S
C3170 C3151 1.368 . S
C3170 C3164 1.368 . S
C3170 C3169 1.523 . S
C3171 C3155 1.429 . S
C3171 C3167 1.429 . S
C3171 C3172 1.523 . S
C3172 C3156 1.368 . S
C3172 C3168 1.368 . S
C3172 C3171 1.523 . S
H3173 C3148 0.950 . S
H3174 C3150 0.950 . S
H3175 C3151 0.949 . S
H3176 C3153 0.950 . S
H3177 C3155 0.950 . S
C3178 C3179 1.349 . S
C3178 C3180 1.327 . S
C3178 H3203 0.950 . S
C3179 C3178 1.349 . S
C3179 C3195 1.349 . S
C3180 C3178 1.327 . S
C3180 C3199 1.429 . S
C3180 H3204 0.950 . S
C3181 C3198 1.574 . S
C3181 C3200 1.368 . S
C3181 H3205 0.949 . S
H3182 C3186 0.949 . S
C3183 C3184 1.349 . S
C3183 C3185 1.327 . S
C3183 H3206 0.950 . S
C3184 C3183 1.349 . S
C3184 C3196 1.349 . S
C3185 C3183 1.327 . S
C3185 C3201 1.429 . S
C3185 H3207 0.950 . S
C3186 H3182 0.949 . S
C3186 C3194 1.574 . S
C3186 C3202 1.368 . S
H3187 C3195 0.950 . S
H3188 C3193 0.950 . S
H3189 C3194 0.949 . S
H3190 C3196 0.950 . S
H3191 C3197 0.950 . S
H3192 C3198 0.949 . S
C3193 H3188 0.950 . S
C3193 C3195 1.327 . S
C3193 C3199 1.429 . S
C3194 C3186 1.574 . S
C3194 H3189 0.949 . S
C3194 C3200 1.368 . S
C3195 C3179 1.349 . S
C3195 H3187 0.950 . S
C3195 C3193 1.327 . S
C3196 C3184 1.349 . S
C3196 H3190 0.950 . S
C3196 C3197 1.327 . S
C3197 H3191 0.950 . S
C3197 C3196 1.327 . S
C3197 C3201 1.429 . S
C3198 C3181 1.574 . S
C3198 H3192 0.949 . S
C3198 C3202 1.368 . S
C3199 C3180 1.429 . S
C3199 C3193 1.429 . S
C3199 C3200 1.523 . S
C3200 C3181 1.368 . S
C3200 C3194 1.368 . S
C3200 C3199 1.523 . S
C3201 C3185 1.429 . S
C3201 C3197 1.429 . S
C3201 C3202 1.523 . S
C3202 C3186 1.368 . S
C3202 C3198 1.368 . S
C3202 C3201 1.523 . S
H3203 C3178 0.950 . S
H3204 C3180 0.950 . S
H3205 C3181 0.949 . S
H3206 C3183 0.950 . S
H3207 C3185 0.950 . S
C3208 C3209 1.349 . S
C3208 C3210 1.327 . S
C3208 H3233 0.950 . S
C3209 C3208 1.349 . S
C3209 C3225 1.349 . S
C3210 C3208 1.327 . S
C3210 C3229 1.429 . S
C3210 H3234 0.950 . S
C3211 C3228 1.574 . S
C3211 C3230 1.368 . S
C3211 H3235 0.949 . S
H3212 C3216 0.949 . S
C3213 C3214 1.349 . S
C3213 C3215 1.327 . S
C3213 H3236 0.950 . S
C3214 C3213 1.349 . S
C3214 C3226 1.349 . S
C3215 C3213 1.327 . S
C3215 C3231 1.429 . S
C3215 H3237 0.950 . S
C3216 H3212 0.949 . S
C3216 C3224 1.574 . S
C3216 C3232 1.368 . S
H3217 C3225 0.950 . S
H3218 C3223 0.950 . S
H3219 C3224 0.949 . S
H3220 C3226 0.950 . S
H3221 C3227 0.950 . S
H3222 C3228 0.949 . S
C3223 H3218 0.950 . S
C3223 C3225 1.327 . S
C3223 C3229 1.429 . S
C3224 C3216 1.574 . S
C3224 H3219 0.949 . S
C3224 C3230 1.368 . S
C3225 C3209 1.349 . S
C3225 H3217 0.950 . S
C3225 C3223 1.327 . S
C3226 C3214 1.349 . S
C3226 H3220 0.950 . S
C3226 C3227 1.327 . S
C3227 H3221 0.950 . S
C3227 C3226 1.327 . S
C3227 C3231 1.429 . S
C3228 C3211 1.574 . S
C3228 H3222 0.949 . S
C3228 C3232 1.368 . S
C3229 C3210 1.429 . S
C3229 C3223 1.429 . S
C3229 C3230 1.523 . S
C3230 C3211 1.368 . S
C3230 C3224 1.368 . S
C3230 C3229 1.523 . S
C3231 C3215 1.429 . S
C3231 C3227 1.429 . S
C3231 C3232 1.523 . S
C3232 C3216 1.368 . S
C3232 C3228 1.368 . S
C3232 C3231 1.523 . S
H3233 C3208 0.950 . S
H3234 C3210 0.950 . S
H3235 C3211 0.949 . S
H3236 C3213 0.950 . S
H3237 C3215 0.950 . S
C3238 C3239 1.349 . S
C3238 C3240 1.327 . S
C3238 H3263 0.950 . S
C3239 C3238 1.349 . S
C3239 C3255 1.349 . S
C3240 C3238 1.327 . S
C3240 C3259 1.429 . S
C3240 H3264 0.950 . S
C3241 C3258 1.574 . S
C3241 C3260 1.368 . S
C3241 H3265 0.949 . S
H3242 C3246 0.949 . S
C3243 C3244 1.349 . S
C3243 C3245 1.327 . S
C3243 H3266 0.950 . S
C3244 C3243 1.349 . S
C3244 C3256 1.349 . S
C3245 C3243 1.327 . S
C3245 C3261 1.429 . S
C3245 H3267 0.950 . S
C3246 H3242 0.949 . S
C3246 C3254 1.574 . S
C3246 C3262 1.368 . S
H3247 C3255 0.950 1_554 S
H3248 C3253 0.950 . S
H3249 C3254 0.949 . S
H3250 C3256 0.950 . S
H3251 C3257 0.950 . S
H3252 C3258 0.949 . S
C3253 H3248 0.950 . S
C3253 C3255 1.327 . S
C3253 C3259 1.429 . S
C3254 C3246 1.574 . S
C3254 H3249 0.949 . S
C3254 C3260 1.368 . S
C3255 C3239 1.349 . S
C3255 H3247 0.950 1_556 S
C3255 C3253 1.327 . S
C3256 C3244 1.349 . S
C3256 H3250 0.950 . S
C3256 C3257 1.327 . S
C3257 H3251 0.950 . S
C3257 C3256 1.327 . S
C3257 C3261 1.429 . S
C3258 C3241 1.574 . S
C3258 H3252 0.949 . S
C3258 C3262 1.368 . S
C3259 C3240 1.429 . S
C3259 C3253 1.429 . S
C3259 C3260 1.523 . S
C3260 C3241 1.368 . S
C3260 C3254 1.368 . S
C3260 C3259 1.523 . S
C3261 C3245 1.429 . S
C3261 C3257 1.429 . S
C3261 C3262 1.523 . S
C3262 C3246 1.368 . S
C3262 C3258 1.368 . S
C3262 C3261 1.523 . S
H3263 C3238 0.950 . S
H3264 C3240 0.950 . S
H3265 C3241 0.949 . S
H3266 C3243 0.950 . S
H3267 C3245 0.950 . S
C3268 C3269 1.349 . S
C3268 C3270 1.327 . S
C3268 H3293 0.950 . S
C3269 C3268 1.349 . S
C3269 C3285 1.349 . S
C3270 C3268 1.327 . S
C3270 C3289 1.429 . S
C3270 H3294 0.950 . S
C3271 C3288 1.574 . S
C3271 C3290 1.368 . S
C3271 H3295 0.949 . S
H3272 C3276 0.949 . S
C3273 C3274 1.349 . S
C3273 C3275 1.327 . S
C3273 H3296 0.950 . S
C3274 C3273 1.349 . S
C3274 C3286 1.349 . S
C3275 C3273 1.327 . S
C3275 C3291 1.429 . S
C3275 H3297 0.950 . S
C3276 H3272 0.949 . S
C3276 C3284 1.574 . S
C3276 C3292 1.368 . S
H3277 C3285 0.950 . S
H3278 C3283 0.950 . S
H3279 C3284 0.949 . S
H3280 C3286 0.950 . S
H3281 C3287 0.950 . S
H3282 C3288 0.949 . S
C3283 H3278 0.950 . S
C3283 C3285 1.327 . S
C3283 C3289 1.429 . S
C3284 C3276 1.574 . S
C3284 H3279 0.949 . S
C3284 C3290 1.368 . S
C3285 C3269 1.349 . S
C3285 H3277 0.950 . S
C3285 C3283 1.327 . S
C3286 C3274 1.349 . S
C3286 H3280 0.950 . S
C3286 C3287 1.327 . S
C3287 H3281 0.950 . S
C3287 C3286 1.327 . S
C3287 C3291 1.429 . S
C3288 C3271 1.574 . S
C3288 H3282 0.949 . S
C3288 C3292 1.368 . S
C3289 C3270 1.429 . S
C3289 C3283 1.429 . S
C3289 C3290 1.523 . S
C3290 C3271 1.368 . S
C3290 C3284 1.368 . S
C3290 C3289 1.523 . S
C3291 C3275 1.429 . S
C3291 C3287 1.429 . S
C3291 C3292 1.523 . S
C3292 C3276 1.368 . S
C3292 C3288 1.368 . S
C3292 C3291 1.523 . S
H3293 C3268 0.950 . S
H3294 C3270 0.950 . S
H3295 C3271 0.949 . S
H3296 C3273 0.950 . S
H3297 C3275 0.950 . S
C3298 C3299 1.349 . S
C3298 C3300 1.327 . S
C3298 H3323 0.950 . S
C3299 C3298 1.349 . S
C3299 C3315 1.349 . S
C3300 C3298 1.327 . S
C3300 C3319 1.429 . S
C3300 H3324 0.950 . S
C3301 C3318 1.574 . S
C3301 C3320 1.368 . S
C3301 H3325 0.949 . S
H3302 C3306 0.949 . S
C3303 C3304 1.349 . S
C3303 C3305 1.327 . S
C3303 H3326 0.950 . S
C3304 C3303 1.349 . S
C3304 C3316 1.349 . S
C3305 C3303 1.327 . S
C3305 C3321 1.429 . S
C3305 H3327 0.950 . S
C3306 H3302 0.949 . S
C3306 C3314 1.574 . S
C3306 C3322 1.368 . S
H3307 C3315 0.950 . S
H3308 C3313 0.950 . S
H3309 C3314 0.949 . S
H3310 C3316 0.950 . S
H3311 C3317 0.950 . S
H3312 C3318 0.949 . S
C3313 H3308 0.950 . S
C3313 C3315 1.327 . S
C3313 C3319 1.429 . S
C3314 C3306 1.574 . S
C3314 H3309 0.949 . S
C3314 C3320 1.368 . S
C3315 C3299 1.349 . S
C3315 H3307 0.950 . S
C3315 C3313 1.327 . S
C3316 C3304 1.349 . S
C3316 H3310 0.950 . S
C3316 C3317 1.327 . S
C3317 H3311 0.950 . S
C3317 C3316 1.327 . S
C3317 C3321 1.429 . S
C3318 C3301 1.574 . S
C3318 H3312 0.949 . S
C3318 C3322 1.368 . S
C3319 C3300 1.429 . S
C3319 C3313 1.429 . S
C3319 C3320 1.523 . S
C3320 C3301 1.368 . S
C3320 C3314 1.368 . S
C3320 C3319 1.523 . S
C3321 C3305 1.429 . S
C3321 C3317 1.429 . S
C3321 C3322 1.523 . S
C3322 C3306 1.368 . S
C3322 C3318 1.368 . S
C3322 C3321 1.523 . S
H3323 C3298 0.950 . S
H3324 C3300 0.950 . S
H3325 C3301 0.949 . S
H3326 C3303 0.950 . S
H3327 C3305 0.950 . S
C3328 C3329 1.349 . S
C3328 C3330 1.327 . S
C3328 H3353 0.950 . S
C3329 C3328 1.349 . S
C3329 C3345 1.349 . S
C3330 C3328 1.327 . S
C3330 C3349 1.429 . S
C3330 H3354 0.950 . S
C3331 C3348 1.574 . S
C3331 C3350 1.368 . S
C3331 H3355 0.949 . S
H3332 C3336 0.949 . S
C3333 C3334 1.349 . S
C3333 C3335 1.327 . S
C3333 H3356 0.950 . S
C3334 C3333 1.349 . S
C3334 C3346 1.349 . S
C3335 C3333 1.327 . S
C3335 C3351 1.429 . S
C3335 H3357 0.950 . S
C3336 H3332 0.949 . S
C3336 C3344 1.574 . S
C3336 C3352 1.368 . S
H3337 C3345 0.950 . S
H3338 C3343 0.950 . S
H3339 C3344 0.949 . S
H3340 C3346 0.950 . S
H3341 C3347 0.950 . S
H3342 C3348 0.949 . S
C3343 H3338 0.950 . S
C3343 C3345 1.327 . S
C3343 C3349 1.429 . S
C3344 C3336 1.574 . S
C3344 H3339 0.949 . S
C3344 C3350 1.368 . S
C3345 C3329 1.349 . S
C3345 H3337 0.950 . S
C3345 C3343 1.327 . S
C3346 C3334 1.349 . S
C3346 H3340 0.950 . S
C3346 C3347 1.327 . S
C3347 H3341 0.950 . S
C3347 C3346 1.327 . S
C3347 C3351 1.429 . S
C3348 C3331 1.574 . S
C3348 H3342 0.949 . S
C3348 C3352 1.368 . S
C3349 C3330 1.429 . S
C3349 C3343 1.429 . S
C3349 C3350 1.523 . S
C3350 C3331 1.368 . S
C3350 C3344 1.368 . S
C3350 C3349 1.523 . S
C3351 C3335 1.429 . S
C3351 C3347 1.429 . S
C3351 C3352 1.523 . S
C3352 C3336 1.368 . S
C3352 C3348 1.368 . S
C3352 C3351 1.523 . S
H3353 C3328 0.950 . S
H3354 C3330 0.950 . S
H3355 C3331 0.949 . S
H3356 C3333 0.950 . S
H3357 C3335 0.950 . S
C3358 C3359 1.349 . S
C3358 C3360 1.327 . S
C3358 H3383 0.950 . S
C3359 C3358 1.349 . S
C3359 C3375 1.349 . S
C3360 C3358 1.327 . S
C3360 C3379 1.429 . S
C3360 H3384 0.950 . S
C3361 C3378 1.574 . S
C3361 C3380 1.368 . S
C3361 H3385 0.949 . S
H3362 C3366 0.949 . S
C3363 C3364 1.349 . S
C3363 C3365 1.327 . S
C3363 H3386 0.950 . S
C3364 C3363 1.349 . S
C3364 C3376 1.349 . S
C3365 C3363 1.327 . S
C3365 C3381 1.429 . S
C3365 H3387 0.950 . S
C3366 H3362 0.949 . S
C3366 C3374 1.574 . S
C3366 C3382 1.368 . S
H3367 C3375 0.950 . S
H3368 C3373 0.950 . S
H3369 C3374 0.949 . S
H3370 C3376 0.950 . S
H3371 C3377 0.950 . S
H3372 C3378 0.949 . S
C3373 H3368 0.950 . S
C3373 C3375 1.327 . S
C3373 C3379 1.429 . S
C3374 C3366 1.574 . S
C3374 H3369 0.949 . S
C3374 C3380 1.368 . S
C3375 C3359 1.349 . S
C3375 H3367 0.950 . S
C3375 C3373 1.327 . S
C3376 C3364 1.349 . S
C3376 H3370 0.950 . S
C3376 C3377 1.327 . S
C3377 H3371 0.950 . S
C3377 C3376 1.327 . S
C3377 C3381 1.429 . S
C3378 C3361 1.574 . S
C3378 H3372 0.949 . S
C3378 C3382 1.368 . S
C3379 C3360 1.429 . S
C3379 C3373 1.429 . S
C3379 C3380 1.523 . S
C3380 C3361 1.368 . S
C3380 C3374 1.368 . S
C3380 C3379 1.523 . S
C3381 C3365 1.429 . S
C3381 C3377 1.429 . S
C3381 C3382 1.523 . S
C3382 C3366 1.368 . S
C3382 C3378 1.368 . S
C3382 C3381 1.523 . S
H3383 C3358 0.950 . S
H3384 C3360 0.950 . S
H3385 C3361 0.949 . S
H3386 C3363 0.950 . S
H3387 C3365 0.950 . S
C3388 C3389 1.349 . S
C3388 C3390 1.327 . S
C3388 H3413 0.950 . S
C3389 C3388 1.349 . S
C3389 C3405 1.349 . S
C3390 C3388 1.327 . S
C3390 C3409 1.429 . S
C3390 H3414 0.950 . S
C3391 C3408 1.574 . S
C3391 C3410 1.368 . S
C3391 H3415 0.949 . S
H3392 C3396 0.949 . S
C3393 C3394 1.349 . S
C3393 C3395 1.327 . S
C3393 H3416 0.950 . S
C3394 C3393 1.349 . S
C3394 C3406 1.349 . S
C3395 C3393 1.327 . S
C3395 C3411 1.429 . S
C3395 H3417 0.950 . S
C3396 H3392 0.949 . S
C3396 C3404 1.574 . S
C3396 C3412 1.368 . S
H3397 C3405 0.950 1_565 S
H3398 C3403 0.950 . S
H3399 C3404 0.949 . S
H3400 C3406 0.950 . S
H3401 C3407 0.950 . S
H3402 C3408 0.949 . S
C3403 H3398 0.950 . S
C3403 C3405 1.327 . S
C3403 C3409 1.429 . S
C3404 C3396 1.574 . S
C3404 H3399 0.949 . S
C3404 C3410 1.368 . S
C3405 C3389 1.349 . S
C3405 H3397 0.950 1_545 S
C3405 C3403 1.327 . S
C3406 C3394 1.349 . S
C3406 H3400 0.950 . S
C3406 C3407 1.327 . S
C3407 H3401 0.950 . S
C3407 C3406 1.327 . S
C3407 C3411 1.429 . S
C3408 C3391 1.574 . S
C3408 H3402 0.949 . S
C3408 C3412 1.368 . S
C3409 C3390 1.429 . S
C3409 C3403 1.429 . S
C3409 C3410 1.523 . S
C3410 C3391 1.368 . S
C3410 C3404 1.368 . S
C3410 C3409 1.523 . S
C3411 C3395 1.429 . S
C3411 C3407 1.429 . S
C3411 C3412 1.523 . S
C3412 C3396 1.368 . S
C3412 C3408 1.368 . S
C3412 C3411 1.523 . S
H3413 C3388 0.950 . S
H3414 C3390 0.950 . S
H3415 C3391 0.949 . S
H3416 C3393 0.950 . S
H3417 C3395 0.950 . S
C3418 C3419 1.349 . S
C3418 C3420 1.327 . S
C3418 H3443 0.950 . S
C3419 C3418 1.349 . S
C3419 C3435 1.349 . S
C3420 C3418 1.327 . S
C3420 C3439 1.429 . S
C3420 H3444 0.950 . S
C3421 C3438 1.574 . S
C3421 C3440 1.368 . S
C3421 H3445 0.949 . S
H3422 C3426 0.949 . S
C3423 C3424 1.349 . S
C3423 C3425 1.327 . S
C3423 H3446 0.950 . S
C3424 C3423 1.349 . S
C3424 C3436 1.349 . S
C3425 C3423 1.327 . S
C3425 C3441 1.429 . S
C3425 H3447 0.950 . S
C3426 H3422 0.949 . S
C3426 C3434 1.574 . S
C3426 C3442 1.368 . S
H3427 C3435 0.950 . S
H3428 C3433 0.950 . S
H3429 C3434 0.949 . S
H3430 C3436 0.950 . S
H3431 C3437 0.950 . S
H3432 C3438 0.949 . S
C3433 H3428 0.950 . S
C3433 C3435 1.327 . S
C3433 C3439 1.429 . S
C3434 C3426 1.574 . S
C3434 H3429 0.949 . S
C3434 C3440 1.368 . S
C3435 C3419 1.349 . S
C3435 H3427 0.950 . S
C3435 C3433 1.327 . S
C3436 C3424 1.349 . S
C3436 H3430 0.950 . S
C3436 C3437 1.327 . S
C3437 H3431 0.950 . S
C3437 C3436 1.327 . S
C3437 C3441 1.429 . S
C3438 C3421 1.574 . S
C3438 H3432 0.949 . S
C3438 C3442 1.368 . S
C3439 C3420 1.429 . S
C3439 C3433 1.429 . S
C3439 C3440 1.523 . S
C3440 C3421 1.368 . S
C3440 C3434 1.368 . S
C3440 C3439 1.523 . S
C3441 C3425 1.429 . S
C3441 C3437 1.429 . S
C3441 C3442 1.523 . S
C3442 C3426 1.368 . S
C3442 C3438 1.368 . S
C3442 C3441 1.523 . S
H3443 C3418 0.950 . S
H3444 C3420 0.950 . S
H3445 C3421 0.949 . S
H3446 C3423 0.950 . S
H3447 C3425 0.950 . S
C3448 C3449 1.349 . S
C3448 C3450 1.327 . S
C3448 H3473 0.950 . S
C3449 C3448 1.349 . S
C3449 C3465 1.349 . S
C3450 C3448 1.327 . S
C3450 C3469 1.429 . S
C3450 H3474 0.950 . S
C3451 C3468 1.574 . S
C3451 C3470 1.368 . S
C3451 H3475 0.949 . S
H3452 C3456 0.949 . S
C3453 C3454 1.349 . S
C3453 C3455 1.327 . S
C3453 H3476 0.950 . S
C3454 C3453 1.349 . S
C3454 C3466 1.349 . S
C3455 C3453 1.327 . S
C3455 C3471 1.429 . S
C3455 H3477 0.950 . S
C3456 H3452 0.949 . S
C3456 C3464 1.574 . S
C3456 C3472 1.368 . S
H3457 C3465 0.950 . S
H3458 C3463 0.950 . S
H3459 C3464 0.949 . S
H3460 C3466 0.950 . S
H3461 C3467 0.950 . S
H3462 C3468 0.949 . S
C3463 H3458 0.950 . S
C3463 C3465 1.327 . S
C3463 C3469 1.429 . S
C3464 C3456 1.574 . S
C3464 H3459 0.949 . S
C3464 C3470 1.368 . S
C3465 C3449 1.349 . S
C3465 H3457 0.950 . S
C3465 C3463 1.327 . S
C3466 C3454 1.349 . S
C3466 H3460 0.950 . S
C3466 C3467 1.327 . S
C3467 H3461 0.950 . S
C3467 C3466 1.327 . S
C3467 C3471 1.429 . S
C3468 C3451 1.574 . S
C3468 H3462 0.949 . S
C3468 C3472 1.368 . S
C3469 C3450 1.429 . S
C3469 C3463 1.429 . S
C3469 C3470 1.523 . S
C3470 C3451 1.368 . S
C3470 C3464 1.368 . S
C3470 C3469 1.523 . S
C3471 C3455 1.429 . S
C3471 C3467 1.429 . S
C3471 C3472 1.523 . S
C3472 C3456 1.368 . S
C3472 C3468 1.368 . S
C3472 C3471 1.523 . S
H3473 C3448 0.950 . S
H3474 C3450 0.950 . S
H3475 C3451 0.949 . S
H3476 C3453 0.950 . S
H3477 C3455 0.950 . S
C3478 C3479 1.349 . S
C3478 C3480 1.327 . S
C3478 H3503 0.950 . S
C3479 C3478 1.349 . S
C3479 C3495 1.349 . S
C3480 C3478 1.327 . S
C3480 C3499 1.429 . S
C3480 H3504 0.950 . S
C3481 C3498 1.574 . S
C3481 C3500 1.368 . S
C3481 H3505 0.949 . S
H3482 C3486 0.949 . S
C3483 C3484 1.349 . S
C3483 C3485 1.327 . S
C3483 H3506 0.950 . S
C3484 C3483 1.349 . S
C3484 C3496 1.349 . S
C3485 C3483 1.327 . S
C3485 C3501 1.429 . S
C3485 H3507 0.950 . S
C3486 H3482 0.949 . S
C3486 C3494 1.574 . S
C3486 C3502 1.368 . S
H3487 C3495 0.950 . S
H3488 C3493 0.950 . S
H3489 C3494 0.949 . S
H3490 C3496 0.950 . S
H3491 C3497 0.950 . S
H3492 C3498 0.949 . S
C3493 H3488 0.950 . S
C3493 C3495 1.327 . S
C3493 C3499 1.429 . S
C3494 C3486 1.574 . S
C3494 H3489 0.949 . S
C3494 C3500 1.368 . S
C3495 C3479 1.349 . S
C3495 H3487 0.950 . S
C3495 C3493 1.327 . S
C3496 C3484 1.349 . S
C3496 H3490 0.950 . S
C3496 C3497 1.327 . S
C3497 H3491 0.950 . S
C3497 C3496 1.327 . S
C3497 C3501 1.429 . S
C3498 C3481 1.574 . S
C3498 H3492 0.949 . S
C3498 C3502 1.368 . S
C3499 C3480 1.429 . S
C3499 C3493 1.429 . S
C3499 C3500 1.523 . S
C3500 C3481 1.368 . S
C3500 C3494 1.368 . S
C3500 C3499 1.523 . S
C3501 C3485 1.429 . S
C3501 C3497 1.429 . S
C3501 C3502 1.523 . S
C3502 C3486 1.368 . S
C3502 C3498 1.368 . S
C3502 C3501 1.523 . S
H3503 C3478 0.950 . S
H3504 C3480 0.950 . S
H3505 C3481 0.949 . S
H3506 C3483 0.950 . S
H3507 C3485 0.950 . S
C3508 C3509 1.349 . S
C3508 C3510 1.327 . S
C3508 H3533 0.950 . S
C3509 C3508 1.349 . S
C3509 C3525 1.349 . S
C3510 C3508 1.327 . S
C3510 C3529 1.429 . S
C3510 H3534 0.950 . S
C3511 C3528 1.574 . S
C3511 C3530 1.368 . S
C3511 H3535 0.949 . S
H3512 C3516 0.949 . S
C3513 C3514 1.349 . S
C3513 C3515 1.327 . S
C3513 H3536 0.950 . S
C3514 C3513 1.349 . S
C3514 C3526 1.349 . S
C3515 C3513 1.327 . S
C3515 C3531 1.429 . S
C3515 H3537 0.950 . S
C3516 H3512 0.949 . S
C3516 C3524 1.574 . S
C3516 C3532 1.368 . S
H3517 C3525 0.950 . S
H3518 C3523 0.950 . S
H3519 C3524 0.949 . S
H3520 C3526 0.950 . S
H3521 C3527 0.950 . S
H3522 C3528 0.949 . S
C3523 H3518 0.950 . S
C3523 C3525 1.327 . S
C3523 C3529 1.429 . S
C3524 C3516 1.574 . S
C3524 H3519 0.949 . S
C3524 C3530 1.368 . S
C3525 C3509 1.349 . S
C3525 H3517 0.950 . S
C3525 C3523 1.327 . S
C3526 C3514 1.349 . S
C3526 H3520 0.950 . S
C3526 C3527 1.327 . S
C3527 H3521 0.950 . S
C3527 C3526 1.327 . S
C3527 C3531 1.429 . S
C3528 C3511 1.574 . S
C3528 H3522 0.949 . S
C3528 C3532 1.368 . S
C3529 C3510 1.429 . S
C3529 C3523 1.429 . S
C3529 C3530 1.523 . S
C3530 C3511 1.368 . S
C3530 C3524 1.368 . S
C3530 C3529 1.523 . S
C3531 C3515 1.429 . S
C3531 C3527 1.429 . S
C3531 C3532 1.523 . S
C3532 C3516 1.368 . S
C3532 C3528 1.368 . S
C3532 C3531 1.523 . S
H3533 C3508 0.950 . S
H3534 C3510 0.950 . S
H3535 C3511 0.949 . S
H3536 C3513 0.950 . S
H3537 C3515 0.950 . S
C3538 C3539 1.349 . S
C3538 C3540 1.327 . S
C3538 H3563 0.950 . S
C3539 C3538 1.349 . S
C3539 C3555 1.349 . S
C3540 C3538 1.327 . S
C3540 C3559 1.429 . S
C3540 H3564 0.950 . S
C3541 C3558 1.574 1_455 S
C3541 C3560 1.368 . S
C3541 H3565 0.949 . S
H3542 C3546 0.949 . S
C3543 C3544 1.349 . S
C3543 C3545 1.327 . S
C3543 H3566 0.950 . S
C3544 C3543 1.349 . S
C3544 C3556 1.349 . S
C3545 C3543 1.327 . S
C3545 C3561 1.429 . S
C3545 H3567 0.950 . S
C3546 H3542 0.949 . S
C3546 C3554 1.574 . S
C3546 C3562 1.368 1_455 S
H3547 C3555 0.950 . S
H3548 C3553 0.950 . S
H3549 C3554 0.949 . S
H3550 C3556 0.950 . S
H3551 C3557 0.950 . S
H3552 C3558 0.949 . S
C3553 H3548 0.950 . S
C3553 C3555 1.327 . S
C3553 C3559 1.429 . S
C3554 C3546 1.574 . S
C3554 H3549 0.949 . S
C3554 C3560 1.368 . S
C3555 C3539 1.349 . S
C3555 H3547 0.950 . S
C3555 C3553 1.327 . S
C3556 C3544 1.349 . S
C3556 H3550 0.950 . S
C3556 C3557 1.327 . S
C3557 H3551 0.950 . S
C3557 C3556 1.327 . S
C3557 C3561 1.429 . S
C3558 C3541 1.574 1_655 S
C3558 H3552 0.949 . S
C3558 C3562 1.368 . S
C3559 C3540 1.429 . S
C3559 C3553 1.429 . S
C3559 C3560 1.523 . S
C3560 C3541 1.368 . S
C3560 C3554 1.368 . S
C3560 C3559 1.523 . S
C3561 C3545 1.429 . S
C3561 C3557 1.429 . S
C3561 C3562 1.523 . S
C3562 C3546 1.368 1_655 S
C3562 C3558 1.368 . S
C3562 C3561 1.523 . S
H3563 C3538 0.950 . S
H3564 C3540 0.950 . S
H3565 C3541 0.949 . S
H3566 C3543 0.950 . S
H3567 C3545 0.950 . S
C694 C354 1.072 . S
C689 C7 1.079 . S
C719 C23 1.025 . S
C724 C366 1.026 . S
C754 C401 0.986 . S
C749 C36 1.003 . S
C784 C410 1.042 . S
C779 C45 1.048 . S
C814 C365 1.066 . S
C809 C59 1.086 . S
C839 C78 0.968 . S
C844 C390 0.962 . S
C874 C409 1.038 . S
C869 C93 1.048 . S
C899 C105 1.142 . S
C904 C351 1.119 . S
C929 C115 1.121 . S
C934 C344 1.112 . S
C964 C368 1.047 . S
C959 C133 1.052 . S
C994 C387 1.017 . S
C989 C148 1.036 . S
C1024 C412 1.002 . S
C1019 C163 1.002 . S
C1054 C373 0.997 . S
C1049 C121 1.008 . S
C1084 C398 0.988 . S
C1079 C134 0.993 . S
C1109 C147 1.053 . S
C1114 C417 1.034 . S
C1144 C357 1.102 . S
C1139 C157 1.125 . S
C1169 C175 1.081 . S
C1174 C346 1.075 . S
C1199 C191 1.071 . S
C1204 C445 1.064 . S
C1234 C461 1.020 . S
C1229 C199 1.038 . S
C1264 C475 0.984 . S
C1259 C218 1.001 . S
C1289 C231 1.105 . S
C1294 C343 1.084 . S
C1319 C241 1.063 . S
C1324 C395 1.041 . S
C1354 C478 1.063 . S
C1349 C205 1.062 . S
C1384 C442 1.017 . S
C1379 C260 1.024 . S
C1414 C498 0.909 . S
C1409 C22 0.912 . S
C1444 C522 1.058 . S
C1439 C9 1.051 . S
C1469 C49 1.090 . S
C1474 C555 1.074 . S
C1499 C31 1.051 . S
C1504 C563 1.037 . S
C1529 C101 1.045 . S
C1534 C533 1.030 . S
C1559 C91 1.076 . S
C1564 C544 1.069 . S
C1594 C564 1.078 . S
C1589 C79 1.071 . S
C1619 C64 0.963 . S
C1624 C497 0.951 . S
C1649 C274 0.902 . S
C1654 C500 0.898 . S
C1684 C530 1.009 . S
C1679 C213 1.014 . S
C1714 C541 1.111 . S
C1709 C233 1.113 . S
C1744 C571 1.072 . S
C1739 C189 1.085 . S
C1774 C519 1.068 . S
C1769 C273 1.083 . S
C1804 C552 1.082 . S
C1799 C219 1.075 . S
C1834 C566 1.014 . S
C1829 C227 1.021 . S
C1859 C190 0.963 . S
C1864 C505 0.952 . S
C1894 C508 0.928 . S
C1889 C289 0.923 . S
C1919 C162 1.058 . S
C1924 C596 1.054 . S
C1954 C608 1.029 . S
C1949 C301 1.034 . S
C1979 C129 1.103 . S
C1984 C629 1.088 . S
C2014 C511 1.001 . S
C2009 C149 1.004 . S
C2044 C549 1.015 . S
C2039 C315 1.031 . S
C2074 C632 0.999 . S
C2069 C302 1.003 . S
C2099 C325 1.077 . S
C2104 C599 1.065 . S
C2129 C35 1.103 . S
C2134 C654 1.096 . S
C2159 C51 1.023 . S
C2164 C432 1.026 . S
C2194 C456 0.936 . S
C2189 C8 0.942 . S
C2219 C17 1.059 . S
C2224 C486 1.052 . S
C2249 C87 1.064 . S
C2254 C431 1.045 . S
C2279 C106 0.996 . S
C2284 C467 0.980 . S
C2314 C483 1.060 . S
C2309 C65 1.072 . S
C2344 C665 1.096 . S
C2339 C77 1.119 . S
C2374 C662 1.092 . S
C2369 C297 1.100 . S
C2404 C434 1.035 . S
C2399 C287 1.040 . S
C2434 C464 1.012 . S
C2429 C330 1.018 . S
C2459 C317 1.032 . S
C2464 C476 1.032 . S
C2494 C439 0.995 . S
C2489 C303 1.006 . S
C2519 C288 0.989 . S
C2524 C453 0.973 . S
C2554 C489 1.037 . S
C2549 C329 1.055 . S
C2579 C311 1.147 . S
C2584 C651 1.123 . S
C2614 C652 1.081 . S
C2609 C217 1.088 . S
C2639 C247 1.061 . S
C2644 C379 1.050 . S
C2674 C388 0.993 . S
C2669 C269 0.999 . S
C2699 C176 0.991 . S
C2704 C423 0.975 . S
C2734 C659 1.076 . S
C2729 C259 1.097 . S
C2764 C454 1.028 . S
C2759 C185 1.032 . S
C2794 C420 1.050 . S
C2789 C275 1.047 . S
C2824 C376 0.996 . S
C2819 C232 1.003 . S
C2849 C50 0.957 . S
C2854 C673 0.946 . S
C2879 C37 1.085 . S
C2884 C585 1.083 . S
C2909 C21 1.093 . S
C2914 C621 1.078 . S
C2944 C640 0.989 . S
C2939 C3 0.993 . S
C2974 C586 0.996 . S
C2969 C73 1.000 . S
C2999 C63 1.082 . S
C3004 C610 1.075 . S
C3034 C637 1.104 . S
C3029 C107 1.108 . S
C3059 C92 0.941 . S
C3064 C674 0.936 . S
C3094 C681 0.946 . S
C3089 C204 0.955 . S
C3119 C171 1.025 . S
C3124 C593 1.011 . S
C3149 C261 1.107 . S
C3154 C607 1.103 . S
C3184 C630 1.047 . S
C3179 C245 1.052 . S
C3214 C588 1.047 . S
C3209 C203 1.053 . S
C3239 C177 1.073 . S
C3244 C618 1.079 . S
C3274 C643 1.028 . S
C3269 C255 1.043 . S
C3304 C676 0.941 . S
C3299 C246 0.945 . S
C3334 C687 0.954 . S
C3329 C135 0.957 . S
C3364 C527 1.096 . S
C3359 C316 1.111 . S
C3389 C119 1.032 . S
C3394 C542 1.025 . S
C3419 C283 1.077 . S
C3424 C574 1.074 . S
C3454 C684 0.977 . S
C3449 C331 0.974 . S
C3484 C615 1.006 . S
C3479 C161 1.022 . S
C3514 C577 1.046 . S
C3509 C120 1.061 . S
C3544 C520 1.052 . S
C3539 C143 1.056 . S
