# Generated by pormake.
# Topology ibd, (4,6)-cn, num edge types: 1
# Building blocks:
#     Node 0, Type 0, BuildingBlock: KUFVIS_clean_sbu_0, # of connection points: 4
#     Node 1, Type 0, BuildingBlock: KUFVIS_clean_sbu_0, # of connection points: 4
#     Node 2, Type 0, BuildingBlock: KUFVIS_clean_sbu_0, # of connection points: 4
#     Node 3, Type 0, BuildingBlock: KUFVIS_clean_sbu_0, # of connection points: 4
#     Node 4, Type 0, BuildingBlock: KUFVIS_clean_sbu_0, # of connection points: 4
#     Node 5, Type 0, BuildingBlock: KUFVIS_clean_sbu_0, # of connection points: 4
#     Node 6, Type 0, BuildingBlock: KUFVIS_clean_sbu_0, # of connection points: 4
#     Node 7, Type 0, BuildingBlock: KUFVIS_clean_sbu_0, # of connection points: 4
#     Node 8, Type 0, BuildingBlock: KUFVIS_clean_sbu_0, # of connection points: 4
#     Node 9, Type 0, BuildingBlock: KUFVIS_clean_sbu_0, # of connection points: 4
#     Node 10, Type 0, BuildingBlock: KUFVIS_clean_sbu_0, # of connection points: 4
#     Node 11, Type 0, BuildingBlock: KUFVIS_clean_sbu_0, # of connection points: 4
#     Node 12, Type 0, BuildingBlock: KUFVIS_clean_sbu_0, # of connection points: 4
#     Node 13, Type 0, BuildingBlock: KUFVIS_clean_sbu_0, # of connection points: 4
#     Node 14, Type 0, BuildingBlock: KUFVIS_clean_sbu_0, # of connection points: 4
#     Node 15, Type 0, BuildingBlock: KUFVIS_clean_sbu_0, # of connection points: 4
#     Node 16, Type 0, BuildingBlock: KUFVIS_clean_sbu_0, # of connection points: 4
#     Node 17, Type 0, BuildingBlock: KUFVIS_clean_sbu_0, # of connection points: 4
#     Node 18, Type 0, BuildingBlock: KUFVIS_clean_sbu_0, # of connection points: 4
#     Node 19, Type 0, BuildingBlock: KUFVIS_clean_sbu_0, # of connection points: 4
#     Node 20, Type 0, BuildingBlock: KUFVIS_clean_sbu_0, # of connection points: 4
#     Node 21, Type 0, BuildingBlock: KUFVIS_clean_sbu_0, # of connection points: 4
#     Node 22, Type 0, BuildingBlock: KUFVIS_clean_sbu_0, # of connection points: 4
#     Node 23, Type 0, BuildingBlock: KUFVIS_clean_sbu_0, # of connection points: 4
#     Node 24, Type 1, BuildingBlock: IZENUY_clean_sbu_0, # of connection points: 6
#     Node 25, Type 1, BuildingBlock: IZENUY_clean_sbu_0, # of connection points: 6
#     Node 26, Type 1, BuildingBlock: IZENUY_clean_sbu_0, # of connection points: 6
#     Node 27, Type 1, BuildingBlock: IZENUY_clean_sbu_0, # of connection points: 6
#     Node 28, Type 1, BuildingBlock: IZENUY_clean_sbu_0, # of connection points: 6
#     Node 29, Type 1, BuildingBlock: IZENUY_clean_sbu_0, # of connection points: 6
#     Node 30, Type 1, BuildingBlock: IZENUY_clean_sbu_0, # of connection points: 6
#     Node 31, Type 1, BuildingBlock: IZENUY_clean_sbu_0, # of connection points: 6
#     Node 32, Type 1, BuildingBlock: IZENUY_clean_sbu_0, # of connection points: 6
#     Node 33, Type 1, BuildingBlock: IZENUY_clean_sbu_0, # of connection points: 6
#     Node 34, Type 1, BuildingBlock: IZENUY_clean_sbu_0, # of connection points: 6
#     Node 35, Type 1, BuildingBlock: IZENUY_clean_sbu_0, # of connection points: 6
#     Node 36, Type 1, BuildingBlock: IZENUY_clean_sbu_0, # of connection points: 6
#     Node 37, Type 1, BuildingBlock: IZENUY_clean_sbu_0, # of connection points: 6
#     Node 38, Type 1, BuildingBlock: IZENUY_clean_sbu_0, # of connection points: 6
#     Node 39, Type 1, BuildingBlock: IZENUY_clean_sbu_0, # of connection points: 6
#     Edge 40, Type (0, 1), None
#     Edge 41, Type (0, 1), None
#     Edge 42, Type (0, 1), None
#     Edge 43, Type (0, 1), None
#     Edge 44, Type (0, 1), None
#     Edge 45, Type (0, 1), None
#     Edge 46, Type (0, 1), None
#     Edge 47, Type (0, 1), None
#     Edge 48, Type (0, 1), None
#     Edge 49, Type (0, 1), None
#     Edge 50, Type (0, 1), None
#     Edge 51, Type (0, 1), None
#     Edge 52, Type (0, 1), None
#     Edge 53, Type (0, 1), None
#     Edge 54, Type (0, 1), None
#     Edge 55, Type (0, 1), None
#     Edge 56, Type (0, 1), None
#     Edge 57, Type (0, 1), None
#     Edge 58, Type (0, 1), None
#     Edge 59, Type (0, 1), None
#     Edge 60, Type (0, 1), None
#     Edge 61, Type (0, 1), None
#     Edge 62, Type (0, 1), None
#     Edge 63, Type (0, 1), None
#     Edge 64, Type (0, 1), None
#     Edge 65, Type (0, 1), None
#     Edge 66, Type (0, 1), None
#     Edge 67, Type (0, 1), None
#     Edge 68, Type (0, 1), None
#     Edge 69, Type (0, 1), None
#     Edge 70, Type (0, 1), None
#     Edge 71, Type (0, 1), None
#     Edge 72, Type (0, 1), None
#     Edge 73, Type (0, 1), None
#     Edge 74, Type (0, 1), None
#     Edge 75, Type (0, 1), None
#     Edge 76, Type (0, 1), None
#     Edge 77, Type (0, 1), None
#     Edge 78, Type (0, 1), None
#     Edge 79, Type (0, 1), None
#     Edge 80, Type (0, 1), None
#     Edge 81, Type (0, 1), None
#     Edge 82, Type (0, 1), None
#     Edge 83, Type (0, 1), None
#     Edge 84, Type (0, 1), None
#     Edge 85, Type (0, 1), None
#     Edge 86, Type (0, 1), None
#     Edge 87, Type (0, 1), None
#     Edge 88, Type (0, 1), None
#     Edge 89, Type (0, 1), None
#     Edge 90, Type (0, 1), None
#     Edge 91, Type (0, 1), None
#     Edge 92, Type (0, 1), None
#     Edge 93, Type (0, 1), None
#     Edge 94, Type (0, 1), None
#     Edge 95, Type (0, 1), None
#     Edge 96, Type (0, 1), None
#     Edge 97, Type (0, 1), None
#     Edge 98, Type (0, 1), None
#     Edge 99, Type (0, 1), None
#     Edge 100, Type (0, 1), None
#     Edge 101, Type (0, 1), None
#     Edge 102, Type (0, 1), None
#     Edge 103, Type (0, 1), None
#     Edge 104, Type (0, 1), None
#     Edge 105, Type (0, 1), None
#     Edge 106, Type (0, 1), None
#     Edge 107, Type (0, 1), None
#     Edge 108, Type (0, 1), None
#     Edge 109, Type (0, 1), None
#     Edge 110, Type (0, 1), None
#     Edge 111, Type (0, 1), None
#     Edge 112, Type (0, 1), None
#     Edge 113, Type (0, 1), None
#     Edge 114, Type (0, 1), None
#     Edge 115, Type (0, 1), None
#     Edge 116, Type (0, 1), None
#     Edge 117, Type (0, 1), None
#     Edge 118, Type (0, 1), None
#     Edge 119, Type (0, 1), None
#     Edge 120, Type (0, 1), None
#     Edge 121, Type (0, 1), None
#     Edge 122, Type (0, 1), None
#     Edge 123, Type (0, 1), None
#     Edge 124, Type (0, 1), None
#     Edge 125, Type (0, 1), None
#     Edge 126, Type (0, 1), None
#     Edge 127, Type (0, 1), None
#     Edge 128, Type (0, 1), None
#     Edge 129, Type (0, 1), None
#     Edge 130, Type (0, 1), None
#     Edge 131, Type (0, 1), None
#     Edge 132, Type (0, 1), None
#     Edge 133, Type (0, 1), None
#     Edge 134, Type (0, 1), None
#     Edge 135, Type (0, 1), None
# Relax obj value: 0.308
# Max RMSD: 0.287
# Mean RMSD: 0.260
data_MOF--net-ibd--node1-KUFVIS_clean_sbu_0--node2-IZENUY_clean_sbu_0--edge1-none
_symmetry_space_group_name_H-M    P1
_symmetry_Int_Tables_number       1
_symmetry_cell_setting            triclinic
loop_
_symmetry_equiv_pos_as_xyz
'x, y, z'
_cell_length_a     23.372206
_cell_length_b     23.47994
_cell_length_c     23.512712
_cell_angle_alpha  91.542253
_cell_angle_beta   91.742795
_cell_angle_gamma 91.67385
loop_
_atom_site_label
_atom_site_type_symbol
_atom_site_fract_x
_atom_site_fract_y
_atom_site_fract_z
_atom_type_partial_charge
Mn0 Mn 0.97034 0.22724 0.38312 0.0
Mn1 Mn 0.05026 0.32917 0.33533 0.0
C2 C 0.03333 0.28043 0.45197 0.0
C3 C 0.8981 0.18207 0.43017 0.0
C4 C 0.07739 0.20553 0.30849 0.0
O5 O 0.9233 0.2524 0.30943 0.0
O6 O -0.01463 0.31896 0.28231 0.0
C7 C 0.96151 0.39978 0.38114 0.0
N8 N 0.0162 0.395 0.36387 0.0
C9 C 0.04566 0.47896 0.41709 0.0
C10 C -0.00993 0.48685 0.43369 0.0
C11 C 0.94961 0.44365 0.41997 0.0
C12 C 0.0577 0.42892 0.38683 0.0
H13 H 0.92979 0.36622 0.37151 0.0
C14 C 0.93804 0.29235 0.27572 0.0
O15 O 0.92368 0.15594 0.39006 0.0
O16 O 0.9051 0.23731 0.43307 0.0
N17 N 0.11383 0.34999 0.37935 0.0
C18 C 0.15143 0.31646 0.40573 0.0
C19 C 0.18812 0.34162 0.44726 0.0
C20 C 0.18771 0.40103 0.45688 0.0
C21 C 0.15209 0.43424 0.42398 0.0
C22 C 0.11056 0.40578 0.39184 0.0
H23 H 0.1465 0.27077 0.40145 0.0
O24 O 0.01879 0.22751 0.45864 0.0
O25 O 0.0143 0.29725 0.40246 0.0
O26 O 0.03301 0.19088 0.33517 0.0
O27 O 0.08935 0.25881 0.30449 0.0
C28 C 0.14583 0.49258 0.43221 0.0
C29 C 0.09125 0.51527 0.43316 0.0
H30 H 0.97964 0.52225 0.46158 0.0
H31 H 0.91253 0.44124 0.44397 0.0
H32 H 0.20824 0.31473 0.4773 0.0
H33 H 0.20903 0.41989 0.49407 0.0
H34 H 0.18157 0.51937 0.43831 0.0
H35 H 0.08468 0.55856 0.44803 0.0
Mn36 Mn 0.00019 0.73155 0.59941 0.0
Mn37 Mn 0.95257 0.62895 0.66917 0.0
C38 C 0.96045 0.6531 0.54209 0.0
C39 C 0.03135 0.80046 0.53311 0.0
C40 C 0.06778 0.65576 0.68288 0.0
O41 O 0.95417 0.77813 0.66219 0.0
O42 O 0.95645 0.70384 0.7197 0.0
C43 C 0.84573 0.67907 0.6859 0.0
N44 N 0.87368 0.6303 0.67529 0.0
C45 C 0.8198 0.61407 0.59105 0.0
C46 C 0.81456 0.67248 0.58902 0.0
C47 C 0.82084 0.70503 0.63991 0.0
C48 C 0.85501 0.59443 0.63319 0.0
H49 H 0.8494 0.70082 0.72682 0.0
C50 C 0.94307 0.75659 0.71116 0.0
O51 O 0.06006 0.79067 0.5789 0.0
O52 O 0.98002 0.77726 0.52969 0.0
N53 N 0.94431 0.55867 0.62755 0.0
C54 C 0.98367 0.52446 0.6035 0.0
C55 C 0.96459 0.47663 0.57076 0.0
C56 C 0.90579 0.4671 0.56039 0.0
C57 C 0.86785 0.50841 0.57893 0.0
C58 C 0.88857 0.55008 0.61754 0.0
H59 H 0.02901 0.5329 0.60949 0.0
O60 O 0.01352 0.67055 0.53745 0.0
O61 O 0.94095 0.66847 0.59219 0.0
O62 O 0.05369 0.70392 0.66665 0.0
O63 O 0.03478 0.61683 0.66583 0.0
C64 C 0.81501 0.5192 0.55266 0.0
C65 C 0.79877 0.57549 0.54982 0.0
H66 H 0.80534 0.68991 0.54825 0.0
H67 H 0.80911 0.74888 0.64461 0.0
H68 H -0.00496 0.44748 0.5534 0.0
H69 H 0.89213 0.42966 0.53618 0.0
H70 H 0.791 0.49064 0.52706 0.0
H71 H 0.77375 0.58868 0.5144 0.0
Mn72 Mn 0.47362 0.72992 0.88118 0.0
Mn73 Mn 0.5303 0.84788 0.84165 0.0
C74 C 0.54262 0.78053 0.94803 0.0
C75 C 0.41197 0.68603 0.9423 0.0
C76 C 0.5601 0.72417 0.78548 0.0
O77 O 0.42085 0.7546 0.80977 0.0
O78 O 0.45649 0.84179 0.80837 0.0
C79 C 0.4489 0.91141 0.91134 0.0
N80 N 0.50012 0.90833 0.88546 0.0
C81 C 0.53304 -0.00328 0.92874 0.0
C82 C 0.48049 0.00257 0.95463 0.0
C83 C 0.43923 0.95817 0.9479 0.0
C84 C 0.5418 0.94669 0.89683 0.0
H85 H 0.4171 0.87712 0.90601 0.0
C86 C 0.42611 0.80346 0.7857 0.0
O87 O 0.43205 0.65751 0.89985 0.0
O88 O 0.41645 0.74091 0.94086 0.0
N89 N 0.60058 0.87292 0.87154 0.0
C90 C 0.64306 0.84275 0.89384 0.0
C91 C 0.68288 0.87185 0.92951 0.0
C92 C 0.68471 0.93172 0.93215 0.0
C93 C 0.64114 0.96149 0.90685 0.0
C94 C 0.59552 0.92889 0.88556 0.0
H95 H 0.64095 0.79708 0.891 0.0
O96 O 0.5318 0.72685 0.94938 0.0
O97 O 0.51422 0.80174 0.90554 0.0
O98 O 0.52844 0.69744 0.81952 0.0
O99 O 0.56214 0.77991 0.7917 0.0
C100 C 0.63295 0.01938 0.91794 0.0
C101 C 0.57861 0.03667 0.93434 0.0
H102 H 0.47287 0.03883 0.98239 0.0
H103 H 0.4009 0.95946 0.97175 0.0
H104 H 0.71181 0.8483 0.95356 0.0
H105 H 0.71409 0.95385 0.9604 0.0
H106 H 0.66893 0.04834 0.91991 0.0
H107 H 0.57292 0.07877 0.95285 0.0
Mn108 Mn 0.50126 0.23714 0.09597 0.0
Mn109 Mn 0.40892 0.16311 0.16138 0.0
C110 C 0.4488 0.16391 0.04034 0.0
C111 C 0.54004 0.29858 0.03093 0.0
C112 C 0.53208 0.16142 0.19891 0.0
O113 O 0.47331 0.29619 0.1581 0.0
O114 O 0.41632 0.23614 0.20439 0.0
C115 C 0.30711 0.23707 0.15238 0.0
N116 N 0.33325 0.18752 0.14107 0.0
C117 C 0.22279 0.13887 0.12312 0.0
C118 C 0.20849 0.19351 0.14444 0.0
C119 C 0.24734 0.2406 0.15252 0.0
C120 C 0.30325 0.14292 0.12447 0.0
H121 H 0.3315 0.27408 0.16711 0.0
C122 C 0.43824 0.2855 0.19858 0.0
O123 O 0.57029 0.28241 0.07411 0.0
O124 O 0.48582 0.2854 0.02979 0.0
N125 N 0.39986 0.08979 0.12164 0.0
C126 C 0.43707 0.0472 0.11189 0.0
C127 C 0.41891 -0.00755 0.08918 0.0
C128 C 0.36118 0.97406 0.07817 0.0
C129 C 0.31772 0.01247 0.0831 0.0
C130 C 0.34628 0.08315 0.10528 0.0
H131 H 0.48209 0.05461 0.12237 0.0
O132 O 0.50373 0.17248 0.03613 0.0
O133 O 0.42974 0.19133 0.08546 0.0
O134 O 0.54558 0.196 0.16087 0.0
O135 O 0.48265 0.13775 0.19628 0.0
C136 C 0.23852 -0.0053 0.07779 0.0
C137 C 0.18482 0.05551 0.0957 0.0
H138 H 0.1679 0.20342 0.15954 0.0
H139 H 0.23003 0.28024 0.16779 0.0
H140 H 0.45156 0.96171 0.08187 0.0
H141 H 0.35145 0.92991 0.06673 0.0
H142 H 0.22623 0.95064 0.07677 0.0
H143 H 0.15379 0.04539 0.10258 0.0
Mn144 Mn -0.00635 0.71898 0.13626 0.0
Mn145 Mn 0.07576 0.80828 0.08146 0.0
C146 C 0.06357 0.7688 0.20084 0.0
C147 C 0.92552 0.68365 0.19985 0.0
C148 C 0.06524 0.68791 0.03386 0.0
O149 O 0.94307 0.75572 0.06388 0.0
O150 O -0.00024 0.83227 0.04552 0.0
C151 C 0.0475 0.90554 0.15229 0.0
N152 N 0.08801 0.87487 0.1262 0.0
C153 C 0.16363 0.92065 0.18268 0.0
C154 C 0.12357 0.95434 0.20918 0.0
C155 C 0.06501 0.94438 0.19601 0.0
C156 C 0.14304 0.87744 0.14556 0.0
H157 H 0.00262 0.89674 0.14251 0.0
C158 C 0.95293 0.80221 0.03445 0.0
O159 O 0.94263 0.65225 0.1582 0.0
O160 O 0.93982 0.73707 0.1981 0.0
N161 N 0.14695 0.7839 0.11336 0.0
C162 C 0.16487 0.73004 0.12361 0.0
C163 C 0.21363 0.72232 0.15802 0.0
C164 C 0.24703 0.7694 0.177 0.0
C165 C 0.22568 0.82345 0.16951 0.0
C166 C 0.17379 0.8288 0.13965 0.0
H167 H 0.14156 0.69258 0.10902 0.0
O168 O 0.05102 0.715 0.20537 0.0
O169 O 0.04095 0.78681 0.15296 0.0
O170 O 0.04566 0.6702 0.08037 0.0
O171 O 0.07027 0.74116 0.02792 0.0
C172 C 0.25368 0.87263 0.19059 0.0
C173 C 0.22179 0.92157 0.19883 0.0
H174 H 0.13673 0.98277 0.24422 0.0
H175 H 0.03353 0.96333 0.22204 0.0
H176 H 0.22658 0.68026 0.16866 0.0
H177 H 0.28718 0.76347 0.20006 0.0
H178 H 0.29797 0.87083 0.20333 0.0
H179 H 0.23965 0.95629 0.22423 0.0
Mn180 Mn 0.49333 0.74944 0.35349 0.0
Mn181 Mn 0.37823 0.70022 0.40509 0.0
C182 C 0.43953 0.67872 0.29098 0.0
C183 C 0.5412 0.80606 0.29012 0.0
C184 C 0.50751 0.68542 0.46495 0.0
O185 O 0.46642 0.80862 0.41965 0.0
O186 O 0.37755 0.77823 0.42246 0.0
C187 C 0.29211 0.76594 0.33953 0.0
N188 N 0.31148 0.71556 0.35938 0.0
C189 C 0.23313 0.66462 0.31212 0.0
C190 C 0.20971 0.71537 0.29539 0.0
C191 C 0.2407 0.76603 0.30718 0.0
C192 C 0.2846 0.66673 0.34424 0.0
H193 H 0.31583 0.80565 0.34733 0.0
C194 C 0.41619 0.80955 0.44246 0.0
O195 O 0.56751 0.78816 0.33494 0.0
O196 O 0.48585 0.80176 0.28885 0.0
N197 N 0.3655 0.62498 0.38392 0.0
C198 C 0.40809 0.58968 0.37418 0.0
C199 C 0.39904 0.54937 0.33101 0.0
C200 C 0.34413 0.5374 0.30761 0.0
C201 C 0.29999 0.57098 0.3223 0.0
C202 C 0.31475 0.61933 0.35414 0.0
H203 H 0.45061 0.60095 0.39024 0.0
O204 O 0.49442 0.68623 0.29021 0.0
O205 O 0.41941 0.71029 0.33302 0.0
O206 O 0.52958 0.699 0.41814 0.0
O207 O 0.45066 0.68527 0.46481 0.0
C208 C 0.24559 0.56472 0.29659 0.0
C209 C 0.21038 0.61182 0.29365 0.0
H210 H 0.17038 0.71552 0.26989 0.0
H211 H 0.22544 0.80409 0.28913 0.0
H212 H 0.43457 0.53341 0.31178 0.0
H213 H 0.3352 0.50417 0.2772 0.0
H214 H 0.23493 0.52641 0.27294 0.0
H215 H 0.1696 0.60936 0.27136 0.0
Mn216 Mn 0.49543 0.22426 0.63363 0.0
Mn217 Mn 0.5873 0.29708 0.56457 0.0
C218 C 0.57205 0.26975 0.69146 0.0
C219 C 0.42961 0.18679 0.70105 0.0
C220 C 0.56475 0.17783 0.5329 0.0
O221 O 0.44196 0.26532 0.56771 0.0
O222 O 0.51158 0.31583 0.52683 0.0
C223 C 0.56012 0.40939 0.58142 0.0
N224 N 0.59994 0.37002 0.58526 0.0
C225 C 0.64655 0.41439 0.66435 0.0
C226 C 0.5938 0.43752 0.67485 0.0
C227 C 0.55252 0.44016 0.6294 0.0
C228 C 0.64436 0.37394 0.62213 0.0
H229 H 0.52894 0.41049 0.5467 0.0
C230 C 0.45776 0.30519 0.53203 0.0
O231 O 0.4418 0.15872 0.65572 0.0
O232 O 0.44769 0.23955 0.7026 0.0
N233 N 0.65881 0.28042 0.60187 0.0
C234 C 0.68249 0.23014 0.61616 0.0
C235 C 0.73268 0.23156 0.65136 0.0
C236 C 0.75786 0.28349 0.67002 0.0
C237 C 0.72839 0.33281 0.66014 0.0
C238 C 0.67931 0.32921 0.62565 0.0
H239 H 0.66227 0.18999 0.60251 0.0
O240 O 0.55729 0.21634 0.69615 0.0
O241 O 0.55139 0.28969 0.64295 0.0
O242 O 0.53498 0.16834 0.57581 0.0
O243 O 0.58518 0.22588 0.52575 0.0
C244 C 0.74265 0.38519 0.68645 0.0
C245 C 0.69879 0.42432 0.69438 0.0
H246 H 0.58468 0.45212 0.71677 0.0
H247 H 0.51499 0.46414 0.62764 0.0
H248 H 0.75211 0.19405 0.66672 0.0
H249 H 0.79732 0.28443 0.6954 0.0
H250 H 0.7851 0.39264 0.70256 0.0
H251 H 0.70524 0.45944 0.72419 0.0
Mn252 Mn 0.98504 0.25529 0.8443 0.0
Mn253 Mn 0.88858 0.17504 0.89396 0.0
C254 C 0.94397 0.18143 0.78125 0.0
C255 C 0.02962 0.31514 0.78711 0.0
C256 C 0.01194 0.16736 0.93799 0.0
O257 O 0.94683 0.30894 0.90615 0.0
O258 O 0.89787 0.23907 0.94588 0.0
C259 C 0.81772 0.26478 0.84448 0.0
N260 N 0.82347 0.20974 0.8606 0.0
C261 C 0.73852 0.18114 0.80722 0.0
C262 C 0.72923 0.23723 0.79313 0.0
C263 C 0.77191 0.27823 0.80801 0.0
C264 C 0.78953 0.16913 0.8365 0.0
H265 H 0.8506 0.29686 0.85399 0.0
C266 C 0.91344 0.2904 0.94502 0.0
O267 O 0.0546 0.30216 0.83447 0.0
O268 O 0.9746 0.30599 0.78043 0.0
N269 N 0.86676 0.11049 0.85042 0.0
C270 C 0.89971 0.07292 0.82357 0.0
C271 C 0.87388 0.04035 0.77891 0.0
C272 C 0.81395 0.03559 0.77353 0.0
C273 C 0.78175 0.07422 0.80303 0.0
C274 C 0.81173 0.11644 0.83322 0.0
H275 H 0.9454 0.07604 0.8296 0.0
O276 O -0.00253 0.19597 0.78102 0.0
O277 O 0.91976 0.20558 0.82466 0.0
O278 O 0.02296 0.20999 0.90813 0.0
O279 O 0.96175 0.14197 0.93184 0.0
C280 C 0.72289 0.08045 0.79575 0.0
C281 C 0.70123 0.13542 0.79244 0.0
H282 H 0.69261 0.24812 0.76689 0.0
H283 H 0.7718 0.31834 0.78782 0.0
H284 H 0.89928 0.02395 0.74594 0.0
H285 H 0.79409 0.00712 0.74243 0.0
H286 H 0.6951 0.04427 0.79198 0.0
H287 H 0.65759 0.14199 0.77787 0.0
Mn288 Mn 0.39022 0.95969 0.24693 0.0
Mn289 Mn 0.3351 0.05235 0.32937 0.0
C290 C 0.45009 0.03519 0.28483 0.0
C291 C 0.44888 0.90276 0.20203 0.0
C292 C 0.30811 0.04709 0.20147 0.0
O293 O 0.32598 0.90999 0.28871 0.0
O294 O 0.28354 -0.01444 0.32648 0.0
C295 C 0.3751 0.97913 0.42074 0.0
N296 N 0.36091 0.03209 0.40319 0.0
C297 C 0.41139 0.07532 0.48363 0.0
C298 C 0.42438 0.02203 0.504 0.0
C299 C 0.40883 0.97397 0.47052 0.0
C300 C 0.38416 0.07838 0.43009 0.0
H301 H 0.36501 0.94147 0.39493 0.0
C302 C 0.28533 0.93234 0.31781 0.0
O303 O 0.39872 0.90955 0.1803 0.0
O304 O 0.45731 0.91167 0.25678 0.0
N305 N 0.37773 0.12017 0.34166 0.0
C306 C 0.39888 0.15585 0.30273 0.0
C307 C 0.44114 0.19615 0.32077 0.0
C308 C 0.45668 0.20169 0.37888 0.0
C309 C 0.42884 0.16891 0.4181 0.0
C310 C 0.39293 0.12516 0.39735 0.0
H311 H 0.38822 0.14869 0.25817 0.0
O312 O 0.45392 0.01832 0.23229 0.0
O313 O 0.40515 0.01408 0.30868 0.0
O314 O 0.33162 1e-05 0.1996 0.0
O315 O 0.30777 0.07455 0.24958 0.0
C316 C 0.44253 0.17245 0.47623 0.0
C317 C 0.43233 0.12535 0.5101 0.0
H318 H 0.44953 0.01774 0.54307 0.0
H319 H 0.42384 0.9337 0.4831 0.0
H320 H 0.46568 0.21802 0.29007 0.0
H321 H 0.49332 0.22678 0.39407 0.0
H322 H 0.46939 0.2069 0.49186 0.0
H323 H 0.44675 0.12491 0.55384 0.0
Mn324 Mn 0.24482 0.10228 0.50968 0.0
Mn325 Mn 0.16519 0.17353 0.43307 0.0
C326 C 0.16828 0.04732 0.46082 0.0
C327 C 0.3033 0.0323 0.54672 0.0
C328 C 0.15894 0.19499 0.54939 0.0
O329 O 0.30548 0.16112 0.47397 0.0
O330 O 0.23348 0.21692 0.46024 0.0
C331 C 0.2331 0.22352 0.34002 0.0
N332 N 0.20209 0.1795 0.362 0.0
C333 C 0.19882 0.14636 0.25044 0.0
C334 C 0.25272 0.17675 0.24791 0.0
C335 C 0.26584 0.21698 0.29115 0.0
C336 C 0.17931 0.14252 0.32733 0.0
H337 H 0.23684 0.26379 0.36227 0.0
C338 C 0.28541 0.20597 0.45052 0.0
O339 O 0.29202 0.07708 0.57695 0.0
O340 O 0.28842 0.03275 0.49334 0.0
N341 N 0.10128 0.12949 0.40376 0.0
C342 C 0.05297 0.1105 0.42909 0.0
C343 C 0.00907 0.07914 0.3987 0.0
C344 C 0.00914 0.06649 0.33976 0.0
C345 C 0.05708 0.07983 0.30895 0.0
C346 C 0.11393 0.11153 0.35244 0.0
H347 H 0.04668 0.12029 0.47355 0.0
O348 O 0.17787 0.04437 0.51541 0.0
O349 O 0.19466 0.09316 0.44053 0.0
O350 O 0.20676 0.17139 0.55402 0.0
O351 O 0.12767 0.17978 0.50683 0.0
C352 C 0.06117 0.07367 0.23054 0.0
C353 C 0.14076 0.11398 0.191 0.0
H354 H 0.21533 0.1547 0.24285 0.0
H355 H 0.30001 0.24755 0.284 0.0
H356 H 0.97118 0.06848 0.42175 0.0
H357 H 0.971 0.04915 0.31824 0.0
H358 H 0.01951 0.05382 0.23268 0.0
H359 H 0.10117 0.09601 0.19941 0.0
Mn360 Mn 0.1277 -0.01054 0.72487 0.0
Mn361 Mn 0.05913 0.0915 0.77603 0.0
C362 C 0.18615 0.06908 0.76286 0.0
C363 C 0.19723 0.92445 0.69702 0.0
C364 C 0.04016 0.06587 0.66098 0.0
O365 O 0.06487 0.93921 0.76898 0.0
O366 O 0.00987 0.01491 0.77373 0.0
C367 C 0.04972 0.03951 0.88039 0.0
N368 N 0.05846 0.0891 0.85433 0.0
C369 C 0.14862 0.10183 0.90011 0.0
C370 C 0.1498 0.04287 0.9049 0.0
C371 C 0.09761 0.01113 0.89677 0.0
C372 C 0.10324 0.12308 0.86997 0.0
H373 H 0.00829 0.01798 0.87848 0.0
C374 C 0.01769 0.96135 0.7856 0.0
O375 O 0.15169 0.93195 0.66646 0.0
O376 O 0.19791 0.94656 0.7483 0.0
N377 N 0.1008 0.16241 0.78333 0.0
C378 C 0.12235 0.19805 0.74393 0.0
C379 C 0.15638 0.24544 0.76263 0.0
C380 C 0.16954 0.25377 0.82092 0.0
C381 C 0.15432 0.2107 0.85823 0.0
C382 C 0.11542 0.16892 0.83808 0.0
H383 H 0.11371 0.19078 0.69894 0.0
O384 O 0.18997 0.05128 0.7103 0.0
O385 O 0.13637 0.05256 0.78286 0.0
O386 O 0.05825 0.01746 0.67273 0.0
O387 O 0.05696 0.10465 0.69436 0.0
C388 C 0.18318 0.19923 0.90979 0.0
C389 C 0.18818 0.14175 0.92456 0.0
H390 H 0.18913 0.02418 0.91911 0.0
H391 H 0.09127 0.9664 0.9025 0.0
H392 H 0.17303 0.27504 0.73224 0.0
H393 H 0.19613 0.29007 0.83382 0.0
H394 H 0.2082 0.22959 0.9338 0.0
H395 H 0.22136 0.12854 0.95404 0.0
Mn396 Mn 0.23997 0.84419 -0.00199 0.0
Mn397 Mn 0.19614 0.88779 0.87926 0.0
C398 C 0.1817 0.77786 0.93995 0.0
C399 C 0.30575 0.78994 0.04788 0.0
C400 C 0.14844 0.9275 -0.00057 0.0
O401 O 0.28619 0.92528 0.98084 0.0
O402 O 0.27417 0.91207 0.88971 0.0
C403 C 0.27308 0.82272 0.80759 0.0
N404 N 0.22141 0.84597 0.81605 0.0
C405 C 0.18241 0.80205 0.73059 0.0
C406 C 0.23496 0.77928 0.71918 0.0
C407 C 0.27964 0.78837 0.75909 0.0
C408 C 0.1768 0.83347 0.78134 0.0
H409 H 0.30803 0.82849 0.83857 0.0
C410 C 0.29356 0.94279 0.92939 0.0
O411 O 0.277 0.82863 0.07287 0.0
O412 O 0.30723 0.79283 -0.00693 0.0
N413 N 0.12304 0.86291 0.85749 0.0
C414 C 0.08254 0.84346 0.89218 0.0
C415 C 0.04502 0.80177 0.8699 0.0
C416 C 0.03984 0.79224 0.81077 0.0
C417 C 0.07728 0.81952 0.77523 0.0
C418 C 0.12438 0.84485 0.80247 0.0
H419 H 0.08736 0.84955 0.9377 0.0
O420 O 0.19022 0.77204 -0.00602 0.0
O421 O 0.2098 0.82176 0.92216 0.0
O422 O 0.16786 0.88588 0.02575 0.0
O423 O 0.16668 0.93426 0.94843 0.0
C424 C 0.08112 0.80567 0.71729 0.0
C425 C 0.13446 0.79408 0.69488 0.0
H426 H 0.24038 0.75215 0.68205 0.0
H427 H 0.3183 0.76775 0.75293 0.0
H428 H 0.03047 0.77074 0.89882 0.0
H429 H 0.01674 0.75543 0.79443 0.0
H430 H 0.04409 0.80058 0.69086 0.0
H431 H 0.13808 0.77618 0.65233 0.0
Mn432 Mn 0.22663 0.38148 0.96104 0.0
Mn433 Mn 0.33769 0.3331 0.02017 0.0
C434 C 0.27903 0.44739 0.0281 0.0
C435 C 0.17668 0.4328 0.89487 0.0
C436 C 0.21175 0.28415 0.03648 0.0
O437 O 0.25484 0.30743 0.9127 0.0
O438 O 0.34398 0.31187 0.94281 0.0
C439 C 0.43022 0.39554 0.96253 0.0
N440 N 0.40577 0.37542 0.01019 0.0
C441 C 0.48414 0.40993 0.06782 0.0
C442 C 0.51205 0.42959 0.0206 0.0
C443 C 0.48396 0.42389 0.96777 0.0
C444 C 0.42968 0.38495 0.06114 0.0
H445 H 0.40852 0.39047 0.92158 0.0
C446 C 0.30593 0.28661 0.91405 0.0
O447 O 0.15241 0.39014 0.91861 0.0
O448 O 0.23226 0.43594 0.89913 0.0
N449 N 0.34083 0.35719 0.09549 0.0
C450 C 0.29651 0.3715 0.1283 0.0
C451 C 0.30767 0.40845 0.17442 0.0
C452 C 0.36332 0.4289 0.18598 0.0
C453 C 0.40792 0.41001 0.15433 0.0
C454 C 0.3944 0.37815 0.10623 0.0
H455 H 0.25289 0.36072 0.11525 0.0
O456 O 0.22523 0.45257 0.01499 0.0
O457 O 0.29898 0.40294 0.00118 0.0
O458 O 0.19105 0.33038 0.02149 0.0
O459 O 0.26652 0.27858 0.03201 0.0
C460 C 0.46441 0.42875 0.16365 0.0
C461 C 0.50506 0.42006 0.12217 0.0
H462 H 0.5534 0.45162 0.02482 0.0
H463 H 0.5049 0.44118 0.93223 0.0
H464 H 0.27376 0.42611 0.1972 0.0
H465 H 0.37086 0.46658 0.21095 0.0
H466 H 0.47304 0.45759 0.19711 0.0
H467 H 0.54993 0.42905 0.12865 0.0
Mn468 Mn 0.73128 0.11928 0.97884 0.0
Mn469 Mn 0.81425 0.04765 0.0552 0.0
C470 C 0.77805 0.173 0.0551 0.0
C471 C 0.6937 0.19415 0.92373 0.0
C472 C 0.6926 0.02096 0.05961 0.0
O473 O 0.7701 0.06014 0.91834 0.0
O474 O 0.79752 0.00403 -0.01351 0.0
C475 C 0.92331 0.00932 0.00301 0.0
N476 N 0.893 0.05203 0.02755 0.0
C477 C 0.00518 0.08916 0.06412 0.0
C478 C 0.02513 0.04532 0.02781 0.0
C479 C 0.98417 0.00861 -0.00088 0.0
C480 C 0.92136 0.08988 0.05789 0.0
H481 H 0.90121 0.97097 -0.01082 0.0
C482 C 0.79977 0.01699 0.93487 0.0
O483 O 0.66379 0.14842 0.93243 0.0
O484 O 0.74709 0.19242 0.93892 0.0
N485 N 0.82787 0.09132 0.12152 0.0
C486 C 0.79117 0.10769 0.16287 0.0
C487 C 0.80958 0.1394 0.21196 0.0
C488 C 0.86719 0.15259 0.22518 0.0
C489 C 0.90793 0.14119 0.18565 0.0
C490 C 0.87881 0.1143 0.11849 0.0
H491 H 0.74609 0.09654 0.15904 0.0
O492 O 0.7231 0.17463 0.04591 0.0
O493 O 0.80043 0.12841 0.02812 0.0
O494 O 0.68478 0.051 0.01633 0.0
O495 O 0.73955 0.02674 0.08655 0.0
C496 C 0.98367 0.14717 0.20331 0.0
C497 C 0.03911 0.12146 0.14572 0.0
H498 H 0.01674 0.07745 0.05619 0.0
H499 H 0.00119 0.97319 0.97533 0.0
H500 H 0.77821 0.14999 0.24309 0.0
H501 H 0.87957 0.16834 0.26722 0.0
H502 H -0.0109 0.16645 0.24792 0.0
H503 H 0.01803 0.13884 0.1808 0.0
Mn504 Mn 0.09327 0.50025 0.23996 0.0
Mn505 Mn 0.15041 0.41293 0.15569 0.0
C506 C 0.02995 0.4545 0.16698 0.0
C507 C 0.03015 0.5364 0.30708 0.0
C508 C 0.19755 0.5323 0.17115 0.0
O509 O 0.16346 0.46162 0.29111 0.0
O510 O 0.18481 0.38787 0.23215 0.0
C511 C 0.08162 0.31331 0.18024 0.0
N512 N 0.10666 0.34604 0.14098 0.0
C513 C 0.04585 0.30609 0.06599 0.0
C514 C 0.01814 0.27244 0.10556 0.0
C515 C 0.03523 0.27724 0.16317 0.0
C516 C 0.08661 0.3459 0.08652 0.0
H517 H 0.0932 0.3202 0.22454 0.0
C518 C 0.19436 0.41632 0.27997 0.0
O519 O 0.07388 0.56644 0.29193 0.0
O520 O 0.02933 0.48317 0.29135 0.0
N521 N 0.1209 0.43841 0.0845 0.0
C522 C 0.10874 0.49243 0.06853 0.0
C523 C 0.07575 0.50029 0.01889 0.0
C524 C 0.06133 0.45404 0.98272 0.0
C525 C 0.07026 0.39964 0.00232 0.0
C526 C 0.09664 0.39382 0.05575 0.0
H527 H 0.11846 0.52902 0.09549 0.0
O528 O 0.02566 0.5078 0.18166 0.0
O529 O 0.07737 0.43452 0.18944 0.0
O530 O 0.15125 0.54892 0.19197 0.0
O531 O 0.20305 0.48007 0.16148 0.0
C532 C 0.04644 0.35137 0.97474 0.0
C533 C 0.03288 0.30428 0.00753 0.0
H534 H 0.98144 0.24574 0.0927 0.0
H535 H 0.01085 0.25551 0.19433 0.0
H536 H 0.05701 0.54042 0.01071 0.0
H537 H 0.03713 0.46046 0.94352 0.0
H538 H 0.03362 0.35323 0.93056 0.0
H539 H 0.00709 0.27004 -0.01034 0.0
Mn540 Mn 0.73136 0.87646 0.47835 0.0
Mn541 Mn 0.85153 0.83392 0.52589 0.0
C542 C 0.78494 0.94039 0.54894 0.0
C543 C 0.68638 0.93836 0.4178 0.0
C544 C 0.72723 0.77854 0.55855 0.0
O545 O 0.7518 0.80368 0.42529 0.0
O546 O 0.841 0.81309 0.44807 0.0
C547 C 0.91119 0.91196 0.45044 0.0
N548 N 0.91073 0.88158 0.49894 0.0
C549 C -0.00257 0.92821 0.5333 0.0
C550 C 0.00108 0.95776 0.48294 0.0
C551 C 0.95598 0.95147 0.44269 0.0
C552 C 0.9493 0.89211 0.54049 0.0
H553 H 0.87623 0.90787 0.41926 0.0
C554 C 0.80228 0.78258 0.42687 0.0
O555 O 0.65798 0.89619 0.43875 0.0
O556 O 0.74157 0.9368 0.4216 0.0
N557 N 0.87845 0.85581 0.59819 0.0
C558 C 0.84675 0.8765 0.64046 0.0
C559 C 0.87264 0.91863 0.67571 0.0
C560 C 0.93221 0.92829 0.67468 0.0
C561 C 0.96507 0.89748 0.63848 0.0
C562 C 0.93396 0.87393 0.59303 0.0
H563 H 0.80088 0.86942 0.63944 0.0
O564 O 0.73086 0.94258 0.53824 0.0
O565 O 0.80484 0.89906 0.51828 0.0
O566 O 0.69999 0.81628 0.53291 0.0
O567 O 0.78338 0.78125 0.55521 0.0
C568 C 0.02224 0.91363 0.63118 0.0
C569 C 0.03796 0.93386 0.57815 0.0
H570 H 0.03615 -0.01228 0.47645 0.0
H571 H 0.95532 0.97728 0.40607 0.0
H572 H 0.84695 0.94768 0.69822 0.0
H573 H 0.95184 0.96504 0.69554 0.0
H574 H 0.05032 0.91848 0.6678 0.0
H575 H 0.07873 0.95603 0.57327 0.0
Mn576 Mn 0.84083 -0.00765 0.26119 0.0
Mn577 Mn 0.89354 0.89524 0.18077 0.0
C578 C 0.77998 0.94338 0.19107 0.0
C579 C 0.7854 0.03996 0.31866 0.0
C580 C 0.91755 0.02044 0.16335 0.0
O581 O 0.90946 0.96365 0.31368 0.0
O582 O 0.94547 0.90803 0.24613 0.0
C583 C 0.85068 0.82013 0.26773 0.0
N584 N 0.86703 0.82712 0.21327 0.0
C585 C 0.81553 0.74198 0.18234 0.0
C586 C 0.79926 0.73248 0.23768 0.0
C587 C 0.81351 0.77447 0.27938 0.0
C588 C 0.84429 0.79333 0.1716 0.0
H589 H 0.86031 0.8526 0.30024 0.0
C590 C 0.94809 0.92942 0.29588 0.0
O591 O 0.83209 0.064 0.303 0.0
O592 O 0.77974 -0.01559 0.31573 0.0
N593 N 0.85118 0.87252 0.11603 0.0
C594 C 0.83058 0.90357 0.07302 0.0
C595 C 0.79317 0.87611 0.03343 0.0
C596 C 0.78479 0.81633 0.03443 0.0
C597 C 0.81287 0.78567 0.07567 0.0
C598 C 0.83969 0.81644 0.11934 0.0
H599 H 0.83801 0.94908 0.0729 0.0
O600 O 0.77328 -0.00347 0.20403 0.0
O601 O 0.82543 0.9237 0.21539 0.0
O602 O 0.89602 0.0308 0.21035 0.0
O603 O 0.91935 0.96863 0.14483 0.0
C604 C 0.80772 0.72673 0.08136 0.0
C605 C 0.8033 0.70475 0.1361 0.0
H606 H 0.7733 0.69537 0.24773 0.0
H607 H 0.79321 0.77371 0.31879 0.0
H608 H 0.77224 0.90079 0.00268 0.0
H609 H 0.75578 0.79414 0.00537 0.0
H610 H 0.80479 0.69928 0.04487 0.0
H611 H 0.78979 0.66088 0.14209 0.0
Mn612 Mn 0.21967 0.63204 0.49127 0.0
Mn613 Mn 0.27541 0.56387 0.5877 0.0
C614 C 0.26413 0.68932 0.56971 0.0
C615 C 0.1876 0.70275 0.43004 0.0
C616 C 0.16176 0.54346 0.57038 0.0
O617 O 0.26446 0.57159 0.43836 0.0
O618 O 0.26546 0.51825 0.51284 0.0
C619 C 0.38372 0.53652 0.53826 0.0
N620 N 0.35262 0.56252 0.5787 0.0
C621 C 0.42577 0.6279 0.60497 0.0
C622 C 0.46035 0.59755 0.56609 0.0
C623 C 0.43895 0.55328 0.53197 0.0
C624 C 0.37421 0.60317 0.61418 0.0
H625 H 0.36972 0.49956 0.51474 0.0
C626 C 0.2825 0.52587 0.46183 0.0
O627 O 0.15757 0.65668 0.43694 0.0
O628 O 0.24019 0.70266 0.4493 0.0
N629 N 0.28785 0.60285 0.65762 0.0
C630 C 0.25117 0.61847 0.69862 0.0
C631 C 0.27218 0.64976 0.74636 0.0
C632 C 0.33044 0.66497 0.7502 0.0
C633 C 0.36434 0.65456 0.70343 0.0
C634 C 0.34182 0.62045 0.65911 0.0
H635 H 0.20698 0.60634 0.69506 0.0
O636 O 0.21019 0.69338 0.55539 0.0
O637 O 0.28283 0.64056 0.55043 0.0
O638 O 0.16705 0.56254 0.52132 0.0
O639 O 0.19567 0.56529 0.60576 0.0
C640 C 0.41762 0.67941 0.69569 0.0
C641 C 0.44091 0.67486 0.64197 0.0
H642 H 0.50537 0.59498 0.56886 0.0
H643 H 0.46567 0.52927 0.50444 0.0
H644 H 0.24393 0.66218 0.7798 0.0
H645 H 0.34728 0.68626 0.78844 0.0
H646 H 0.43985 0.70523 0.72768 0.0
H647 H 0.47479 0.70274 0.63633 0.0
Mn648 Mn 0.35318 0.49882 0.76378 0.0
Mn649 Mn 0.40486 0.38608 0.71566 0.0
C650 C 0.28708 0.44533 0.69252 0.0
C651 C 0.29451 0.53896 0.83092 0.0
C652 C 0.46135 0.51637 0.69982 0.0
O653 O 0.42554 0.47397 0.816 0.0
O654 O 0.41141 0.38609 0.79581 0.0
C655 C 0.33165 0.30062 0.77157 0.0
N656 N 0.35973 0.31885 0.72502 0.0
C657 C 0.31897 0.24135 0.66933 0.0
C658 C 0.29408 0.21864 0.7168 0.0
C659 C 0.29842 0.25003 0.76745 0.0
C660 C 0.35122 0.2925 0.67487 0.0
H661 H 0.33255 0.32549 0.81075 0.0
C662 C 0.44227 0.42224 0.81984 0.0
O663 O 0.33614 0.5684 0.81054 0.0
O664 O 0.29514 0.48452 0.82131 0.0
N665 N 0.39217 0.37543 0.63831 0.0
C666 C 0.37908 0.42065 0.60729 0.0
C667 C 0.3312 0.41541 0.57185 0.0
C668 C 0.30791 0.36193 0.55647 0.0
C669 C 0.32867 0.31427 0.58151 0.0
C670 C 0.36461 0.32405 0.62864 0.0
H671 H 0.3939 0.46241 0.62157 0.0
O672 O 0.28305 0.49878 0.70569 0.0
O673 O 0.3325 0.42695 0.72049 0.0
O674 O 0.41305 0.5379 0.70956 0.0
O675 O 0.46259 0.46027 0.70585 0.0
C676 C 0.30147 0.26101 0.5732 0.0
C677 C 0.30438 0.22075 0.61554 0.0
H678 H 0.26681 0.18047 0.71355 0.0
H679 H 0.27385 0.2358 0.80176 0.0
H680 H 0.30758 0.452 0.56356 0.0
H681 H 0.26937 0.35857 0.53142 0.0
H682 H 0.26901 0.25637 0.54156 0.0
H683 H 0.28476 0.17909 0.61098 0.0
Mn684 Mn 0.59488 0.00062 0.73334 0.0
Mn685 Mn 0.66393 0.9478 0.63085 0.0
C686 C 0.53734 0.96131 0.65481 0.0
C687 C 0.52695 0.03034 0.80177 0.0
C688 C 0.68165 0.06268 0.6535 0.0
O689 O 0.6558 0.95437 0.78266 0.0
O690 O 0.71249 0.95063 0.70755 0.0
C691 C 0.6809 0.84188 0.68049 0.0
N692 N 0.668 0.86941 0.63238 0.0
C693 C 0.58112 0.81859 0.62164 0.0
C694 C 0.58167 0.81662 0.68085 0.0
C695 C 0.63521 0.82187 0.71032 0.0
C696 C 0.6228 0.85233 0.59955 0.0
H697 H 0.72319 0.84544 0.70006 0.0
C698 C 0.70314 0.93815 0.76068 0.0
O699 O 0.57259 0.06009 0.792 0.0
O700 O 0.525 0.97922 0.77896 0.0
N701 N 0.62153 0.9402 0.56068 0.0
C702 C 0.59694 0.98023 0.5275 0.0
C703 C 0.55791 0.96282 0.48384 0.0
C704 C 0.54186 0.90515 0.47745 0.0
C705 C 0.56391 0.8662 0.51623 0.0
C706 C 0.60645 0.88545 0.55499 0.0
H707 H 0.60596 0.02519 0.53438 0.0
O708 O 0.5332 0.01422 0.67187 0.0
O709 O 0.58702 0.9409 0.67095 0.0
O710 O 0.66358 0.0528 0.70232 0.0
O711 O 0.66347 0.02875 0.61644 0.0
C712 C 0.53862 0.81323 0.52754 0.0
C713 C 0.53832 0.79722 0.58424 0.0
H714 H 0.54193 0.80782 0.70138 0.0
H715 H 0.64301 0.81357 0.75455 0.0
H716 H 0.53895 -0.00606 0.45642 0.0
H717 H 0.50944 0.89389 0.44577 0.0
H718 H 0.50983 0.7908 0.4998 0.0
H719 H 0.50229 0.77391 0.59869 0.0
Mn720 Mn 0.73647 0.59181 0.00528 0.0
Mn721 Mn 0.63647 0.66385 0.95614 0.0
C722 C 0.65589 0.53773 0.9654 0.0
C723 C 0.79435 0.51758 0.03879 0.0
C724 C 0.6661 0.68024 0.06709 0.0
O725 O 0.78797 0.65049 0.95824 0.0
O726 O 0.71431 0.70914 0.95739 0.0
C727 C 0.67875 0.69272 0.84832 0.0
N728 N 0.63407 0.67383 0.87844 0.0
C729 C 0.62638 0.59002 0.82385 0.0
C730 C 0.6844 0.59743 0.81424 0.0
C731 C 0.70893 0.65271 0.81939 0.0
C732 C 0.60336 0.628 0.86067 0.0
H733 H 0.69552 0.73534 0.8534 0.0
C734 C 0.76625 0.69814 0.94203 0.0
O735 O 0.79145 0.56537 0.06665 0.0
O736 O 0.77385 0.51731 -0.01319 0.0
N737 N 0.56499 0.62405 0.94851 0.0
C738 C 0.52956 0.60198 -0.01221 0.0
C739 C 0.48516 0.56422 0.96933 0.0
C740 C 0.48058 0.54725 0.91172 0.0
C741 C 0.52201 0.56668 0.87391 0.0
C742 C 0.55997 0.60911 0.89374 0.0
H743 H 0.53516 0.61273 0.03253 0.0
O744 O 0.67038 0.53481 0.01914 0.0
O745 O 0.67398 0.58641 0.94448 0.0
O746 O 0.71476 0.66396 0.05577 0.0
O747 O 0.6281 0.65634 0.03729 0.0
C748 C 0.53497 0.54151 0.82108 0.0
C749 C 0.59148 0.54561 0.80291 0.0
H750 H 0.70819 0.56073 0.80391 0.0
H751 H 0.75031 0.66576 0.80496 0.0
H752 H 0.45565 0.54693 -0.00049 0.0
H753 H 0.44741 0.5166 0.90026 0.0
H754 H 0.50805 0.51267 0.79804 0.0
H755 H 0.60866 0.51435 0.77529 0.0
Mn756 Mn 0.87865 0.47745 0.74664 0.0
Mn757 Mn 0.83007 0.55174 0.84664 0.0
C758 C 0.93898 0.55458 0.78698 0.0
C759 C 0.94232 0.42055 0.70215 0.0
C760 C 0.78194 0.56596 0.72588 0.0
O761 O 0.82364 0.41823 0.78581 0.0
O762 O 0.77753 0.48827 0.82691 0.0
C763 C 0.88035 0.45736 0.90884 0.0
N764 N 0.86004 0.51133 0.91039 0.0
C765 C 0.91238 0.53035 -0.0012 0.0
C766 C 0.92787 0.47395 0.00069 0.0
C767 C 0.91675 0.4396 0.9525 0.0
C768 C 0.88204 0.54832 0.95012 0.0
H769 H 0.87633 0.43056 0.87146 0.0
C770 C 0.78189 0.43617 0.81532 0.0
O771 O 0.89392 0.43099 0.67699 0.0
O772 O 0.94779 0.43202 0.75619 0.0
N773 N 0.87262 0.61414 0.87874 0.0
C774 C 0.89859 0.65707 0.85189 0.0
C775 C 0.93967 0.69008 0.88301 0.0
C776 C 0.94432 0.68717 0.9422 0.0
C777 C 0.91823 0.64226 0.96856 0.0
C778 C 0.88717 0.60327 0.93376 0.0
H779 H 0.89361 0.66047 0.80639 0.0
O780 O 0.93647 0.54213 0.73346 0.0
O781 O 0.89937 0.52629 0.81286 0.0
O782 O 0.80578 0.51917 0.71317 0.0
O783 O 0.79879 0.59115 0.77395 0.0
C784 C 0.93287 0.62798 0.0245 0.0
C785 C 0.93249 0.57097 0.03935 0.0
H786 H 0.95496 0.45911 0.03496 0.0
H787 H 0.94108 0.40247 0.94643 0.0
H788 H 0.971 0.71295 0.86098 0.0
H789 H 0.97499 0.71401 0.96567 0.0
H790 H 0.95078 0.65883 0.05396 0.0
H791 H 0.9525 0.55873 0.07919 0.0
Mn792 Mn 0.76009 0.35031 0.50256 0.0
Mn793 Mn 0.70938 0.39747 0.38682 0.0
C794 C 0.68811 0.28471 0.44957 0.0
C795 C 0.82765 0.29263 0.54488 0.0
C796 C 0.68845 0.45853 0.51444 0.0
O797 O 0.81348 0.41945 0.47686 0.0
O798 O 0.78773 0.41097 0.3895 0.0
C799 C 0.77779 0.3198 0.31507 0.0
N800 N 0.72774 0.34676 0.32533 0.0
C801 C 0.67973 0.29265 0.25022 0.0
C802 C 0.73087 0.26778 0.23561 0.0
C803 C 0.77947 0.27911 0.27044 0.0
C804 C 0.67986 0.33047 0.29723 0.0
H805 H 0.81568 0.32717 0.34204 0.0
C806 C 0.81068 0.4403 0.42701 0.0
O807 O 0.80646 0.33432 0.57336 0.0
O808 O 0.81814 0.29223 0.49037 0.0
N809 N 0.63477 0.37767 0.37155 0.0
C810 C 0.59552 0.37425 0.41155 0.0
C811 C 0.54956 0.33806 0.40068 0.0
C812 C 0.54093 0.31122 0.34669 0.0
C813 C 0.58105 0.317 0.30574 0.0
C814 C 0.63064 0.34587 0.32236 0.0
H815 H 0.60243 0.39457 0.45298 0.0
O816 O 0.70183 0.28053 0.50269 0.0
O817 O 0.71604 0.32986 0.43181 0.0
O818 O 0.70541 0.41275 0.53726 0.0
O819 O 0.69062 0.45859 0.45763 0.0
C820 C 0.5772 0.28918 0.25227 0.0
C821 C 0.6275 0.27788 0.22327 0.0
H822 H 0.73219 0.23697 0.20059 0.0
H823 H 0.81732 0.25528 0.26385 0.0
H824 H 0.5202 0.33569 0.4328 0.0
H825 H 0.50116 0.29088 0.33494 0.0
H826 H 0.53761 0.26958 0.23786 0.0
H827 H 0.62685 0.25293 0.18412 0.0
Mn828 Mn 0.62769 0.47993 0.22613 0.0
Mn829 Mn 0.5619 0.58068 0.27992 0.0
C830 C 0.68751 0.55871 0.26948 0.0
C831 C 0.69351 0.41088 0.19495 0.0
C832 C 0.54063 0.56094 0.16717 0.0
O833 O 0.56421 0.42954 0.26841 0.0
O834 O 0.51338 0.50707 0.27299 0.0
C835 C 0.53555 0.5302 0.38673 0.0
N836 N 0.55932 0.57329 0.35691 0.0
C837 C 0.62682 0.59726 0.42856 0.0
C838 C 0.59956 0.55486 0.46137 0.0
C839 C 0.55714 0.51882 0.43922 0.0
C840 C 0.60055 0.60848 0.37818 0.0
H841 H 0.49754 0.50721 0.37365 0.0
C842 C 0.51921 0.45446 0.28673 0.0
O843 O 0.64857 0.4225 0.16519 0.0
O844 O 0.69639 0.43329 0.24608 0.0
N845 N 0.60405 0.64965 0.29049 0.0
C846 C 0.62537 0.68688 0.25222 0.0
C847 C 0.66178 0.7318 0.27172 0.0
C848 C 0.67658 0.73668 0.32962 0.0
C849 C 0.65792 0.69443 0.36632 0.0
C850 C 0.61989 0.65242 0.34501 0.0
H851 H 0.61508 0.68278 0.20726 0.0
O852 O 0.69211 0.54184 0.21662 0.0
O853 O 0.63783 0.54079 0.28808 0.0
O854 O 0.55814 0.51168 0.17536 0.0
O855 O 0.5627 0.59734 0.19986 0.0
C856 C 0.68013 0.6872 0.42085 0.0
C857 C 0.67386 0.63364 0.44442 0.0
H858 H 0.59508 0.55761 0.50602 0.0
H859 H 0.53742 0.48632 0.4646 0.0
H860 H 0.67827 0.76253 0.24238 0.0
H861 H 0.70297 0.77231 0.34403 0.0
H862 H 0.70787 0.71794 0.4425 0.0
H863 H 0.705 0.62363 0.47456 0.0
Fe864 Fe 0.11394 0.03999 0.16038 0.0
Fe865 Fe 0.06469 0.18637 0.10992 0.0
O866 O 0.1149 0.11645 0.09664 0.0
Fe867 Fe 0.16722 0.10728 0.0322 0.0
O868 O 0.14045 0.0272 0.01044 0.0
O869 O 0.10751 0.97784 0.08841 0.0
O870 O 0.01431 0.03002 0.14799 0.0
C871 C 0.96238 0.06459 0.14482 0.0
C872 C 0.26179 0.05661 0.15337 0.0
O873 O 0.9641 0.14611 0.11575 0.0
C874 C 0.17057 0.23261 0.04845 0.0
O875 O 0.13743 0.08451 0.26957 0.0
O876 O 0.08701 0.19053 0.20995 0.0
O877 O 0.26141 0.08126 0.07105 0.0
O878 O 0.21096 0.04038 0.18229 0.0
C879 C 0.05461 0.15995 -0.01065 0.0
O880 O 0.12844 0.2355 0.08477 0.0
O881 O 0.18968 0.18442 0.03249 0.0
C882 C 0.10132 0.16092 0.26387 0.0
O883 O 0.04302 0.18789 0.03388 0.0
O884 O 0.09863 0.12722 -0.01088 0.0
C885 C 0.12398 0.97928 0.03335 0.0
Fe886 Fe 0.05929 0.81027 0.37088 0.0
Fe887 Fe 0.11669 0.91655 0.32118 0.0
O888 O 0.11293 0.86669 0.37569 0.0
Fe889 Fe 0.16358 0.87236 0.43414 0.0
O890 O 0.19002 0.80208 0.41706 0.0
O891 O 0.10605 0.75712 0.4048 0.0
O892 O 0.08187 0.77967 0.30288 0.0
C893 C 0.08159 0.80566 0.25695 0.0
C894 C 0.05894 0.82946 0.48449 0.0
O895 O 0.08894 0.86052 0.26178 0.0
C896 C 0.14892 -0.0108 0.42664 0.0
O897 O 0.00403 0.85514 0.33527 0.0
O898 O 0.0438 0.94086 0.33327 0.0
O899 O 0.11284 0.84095 0.48616 0.0
O900 O 0.03063 0.83197 0.43834 0.0
C901 C 0.23277 0.9014 0.33894 0.0
O902 O 0.14514 0.98103 0.37132 0.0
O903 O 0.14238 0.94498 0.45644 0.0
C904 C -0.0009 0.90905 0.33002 0.0
O905 O 0.18974 0.89637 0.3051 0.0
O906 O 0.22368 0.90303 0.39221 0.0
C907 C 0.16022 0.75627 0.41285 0.0
Fe908 Fe 0.36408 0.92323 0.67054 0.0
Fe909 Fe 0.30034 0.86397 0.5665 0.0
O910 O 0.35826 0.86723 0.61737 0.0
Fe911 Fe 0.4116 0.81565 0.61396 0.0
O912 O 0.3981 0.79203 0.6861 0.0
O913 O 0.39863 0.87794 0.7244 0.0
O914 O 0.29549 0.90238 0.69915 0.0
C915 C 0.24895 0.90169 0.67042 0.0
C916 C 0.47913 0.92472 0.64413 0.0
O917 O 0.24833 0.89377 0.61657 0.0
C918 C 0.39708 0.83394 0.49914 0.0
O919 O 0.33016 0.97745 0.62625 0.0
O920 O 0.31961 0.93426 0.54226 0.0
O921 O 0.47341 0.86944 0.64069 0.0
O922 O 0.43334 0.95173 0.64646 0.0
C923 C 0.30202 0.74684 0.58331 0.0
O924 O 0.34323 0.83446 0.50755 0.0
O925 O 0.43032 0.83589 0.5419 0.0
C926 C 0.32221 0.97932 0.5728 0.0
O927 O 0.27433 0.79237 0.58592 0.0
O928 O 0.35807 0.75274 0.58664 0.0
C929 C 0.40126 0.82403 0.72999 0.0
Fe930 Fe 0.42296 0.16053 0.86822 0.0
Fe931 Fe 0.36058 0.05742 0.80633 0.0
O932 O 0.36433 0.11048 0.86205 0.0
Fe933 Fe 0.30834 0.11493 0.91106 0.0
O934 O 0.29201 0.18661 0.88806 0.0
O935 O 0.37968 0.21958 0.89719 0.0
O936 O 0.40748 0.18758 0.79811 0.0
C937 C 0.40625 0.15836 0.75229 0.0
C938 C 0.41365 0.14535 -0.01638 0.0
O939 O 0.39562 0.10441 0.75262 0.0
C940 C 0.31818 -0.00097 0.90787 0.0
O941 O 0.47655 0.11088 0.83848 0.0
O942 O 0.42924 0.02894 0.82843 0.0
O943 O 0.35807 0.14425 0.97525 0.0
O944 O 0.44366 0.13811 0.94005 0.0
C945 C 0.24467 0.08129 0.79996 0.0
O946 O 0.32555 0.00315 0.85363 0.0
O947 O 0.31936 0.04361 0.9389 0.0
C948 C 0.47591 0.05726 0.82795 0.0
O949 O 0.29131 0.07957 0.77456 0.0
O950 O 0.24977 0.08596 0.85494 0.0
C951 C 0.32602 0.22871 0.89421 0.0
Fe952 Fe 0.56502 0.30146 0.86543 0.0
Fe953 Fe 0.61747 0.41149 0.82072 0.0
O954 O 0.61689 0.35871 0.87222 0.0
Fe955 Fe 0.66849 0.36345 0.93022 0.0
O956 O 0.69651 0.29421 0.90979 0.0
O957 O 0.61316 0.24807 0.89609 0.0
O958 O 0.58696 0.27615 0.79463 0.0
C959 C 0.58626 0.30479 0.74988 0.0
C960 C 0.56738 0.32058 0.98044 0.0
O961 O 0.59079 0.35976 0.75747 0.0
C962 C 0.6449 0.47916 0.92971 0.0
O963 O 0.50747 0.34598 0.83462 0.0
O964 O 0.54505 0.43204 0.83641 0.0
O965 O 0.62111 0.32928 0.98124 0.0
O966 O 0.53815 0.3195 0.93451 0.0
C967 C 0.73295 0.40089 0.83573 0.0
O968 O 0.64359 0.47317 0.87446 0.0
O969 O 0.64436 0.43344 0.95735 0.0
C970 C 0.50125 0.39992 0.834 0.0
O971 O 0.69002 0.39388 0.80251 0.0
O972 O 0.72569 0.39883 0.88902 0.0
C973 C 0.66699 0.24792 0.90583 0.0
Fe974 Fe 0.79623 0.34716 0.06407 0.0
Fe975 Fe 0.85828 0.41102 0.16744 0.0
O976 O 0.8552 0.35526 0.114 0.0
Fe977 Fe 0.912 0.30795 0.1094 0.0
O978 O 0.92684 0.33222 0.0377 0.0
O979 O 0.83938 0.31906 0.0049 0.0
O980 O 0.80963 0.41828 0.03743 0.0
C981 C 0.81278 0.46423 0.06681 0.0
C982 C 0.80975 0.23131 0.07686 0.0
O983 O 0.82255 0.46371 0.12068 0.0
C984 C 0.90299 0.31218 0.22552 0.0
O985 O 0.74272 0.3752 0.11415 0.0
O986 O 0.79074 0.38655 0.19559 0.0
O987 O 0.86484 0.24225 0.07917 0.0
O988 O 0.77783 0.27363 0.08555 0.0
C989 C 0.97358 0.41881 0.14715 0.0
O990 O 0.89515 0.36596 0.22174 0.0
O991 O 0.90041 0.28094 0.18079 0.0
C992 C 0.74384 0.38506 0.16775 0.0
O993 O 0.92677 0.44404 0.14611 0.0
O994 O 0.96963 0.36435 0.13937 0.0
C995 C 0.89268 0.32319 -0.00438 0.0
Fe996 Fe 0.81329 0.61068 0.41637 0.0
Fe997 Fe 0.92281 0.66364 0.36802 0.0
O998 O 0.86595 0.61121 0.36375 0.0
Fe999 Fe 0.8623 0.55847 0.30775 0.0
O1000 O 0.79089 0.57849 0.28022 0.0
O1001 O 0.75036 0.58161 0.36299 0.0
O1002 O 0.79107 0.68231 0.39935 0.0
C1003 C 0.82349 0.72578 0.40418 0.0
C1004 C 0.8307 0.49678 0.40631 0.0
O1005 O 0.87764 0.71995 0.4003 0.0
C1006 C 0.97821 0.56312 0.32938 0.0
O1007 O 0.86709 0.63848 0.47823 0.0
O1008 O 0.95026 0.6421 0.43858 0.0
O1009 O 0.83108 0.50288 0.35257 0.0
O1010 O 0.83188 0.53983 0.43858 0.0
C1011 C 0.90244 0.65854 0.25228 0.0
O1012 O 0.97702 0.61691 0.3365 0.0
O1013 O 0.9324 0.5332 0.32864 0.0
C1014 C 0.9229 0.64159 0.48419 0.0
O1015 O 0.90287 0.68908 0.29766 0.0
O1016 O 0.89403 0.60495 0.25385 0.0
C1017 C 0.74481 0.57601 0.30725 0.0
Fe1018 Fe 0.90097 0.82176 0.87582 0.0
Fe1019 Fe 0.80579 0.85911 0.90674 0.0
O1020 O 0.84322 0.84623 0.84722 0.0
Fe1021 Fe 0.86864 0.89626 0.80893 0.0
O1022 O 0.91695 0.94048 0.78172 0.0
O1023 O 0.95811 0.88424 0.84571 0.0
O1024 O 0.94995 0.80599 0.93026 0.0
C1025 C 0.92103 0.81443 0.97491 0.0
C1026 C 0.91725 0.79289 0.76171 0.0
O1027 O 0.867 0.83219 0.96631 0.0
C1028 C 0.75297 0.90856 0.79566 0.0
O1029 O 0.85362 0.7545 0.90139 0.0
O1030 O 0.77029 0.79012 0.89811 0.0
O1031 O 0.8919 0.83986 0.7543 0.0
O1032 O 0.92129 0.77698 0.81318 0.0
C1033 C 0.82613 0.96759 0.90033 0.0
O1034 O 0.75074 0.89165 0.84924 0.0
O1035 O 0.80055 0.90445 0.76986 0.0
C1036 C 0.79915 0.74779 0.91026 0.0
O1037 O 0.83722 0.92542 0.92698 0.0
O1038 O 0.84119 0.96238 0.84979 0.0
C1039 C 0.96294 0.92542 0.80585 0.0
Fe1040 Fe 0.86105 0.06924 0.65957 0.0
Fe1041 Fe 0.80601 0.11777 0.54961 0.0
O1042 O 0.86323 0.11812 0.60353 0.0
Fe1043 Fe 0.92402 0.16834 0.60183 0.0
O1044 O 0.9409 0.17492 0.67914 0.0
O1045 O 0.87002 0.12905 0.71616 0.0
O1046 O 0.78273 0.06898 0.66749 0.0
C1047 C 0.7398 0.0895 0.64284 0.0
C1048 C 0.98227 0.07353 0.63271 0.0
O1049 O 0.74659 0.1186 0.59883 0.0
C1050 C 0.89276 0.15289 0.484 0.0
O1051 O 0.85075 0.00518 0.60903 0.0
O1052 O 0.7957 0.04037 0.54203 0.0
O1053 O 0.9765 0.11172 0.59594 0.0
O1054 O 0.93957 0.0592 0.66174 0.0
C1055 C 0.83655 0.23715 0.57109 0.0
O1056 O 0.8547 0.11512 0.491 0.0
O1057 O 0.92154 0.17484 0.52532 0.0
C1058 C 0.81612 -0.00247 0.56581 0.0
O1059 O 0.80737 0.19574 0.54784 0.0
O1060 O 0.87779 0.22972 0.60635 0.0
C1061 C 0.91441 0.16207 0.72312 0.0
Fe1062 Fe 0.62234 0.05553 0.30728 0.0
Fe1063 Fe 0.67461 0.10904 0.42359 0.0
O1064 O 0.62057 0.10774 0.36605 0.0
Fe1065 Fe 0.56449 0.15729 0.36907 0.0
O1066 O 0.574 0.18104 0.29501 0.0
O1067 O 0.59402 0.10071 0.25077 0.0
O1068 O 0.69592 0.07735 0.2935 0.0
C1069 C 0.73716 0.07506 0.32995 0.0
C1070 C 0.50428 0.05543 0.31837 0.0
O1071 O 0.73188 0.08709 0.38116 0.0
C1072 C 0.57743 0.13659 0.48632 0.0
O1073 O 0.64908 -0.00197 0.34971 0.0
O1074 O 0.65929 0.03355 0.4376 0.0
O1075 O 0.50796 0.10565 0.33953 0.0
O1076 O 0.54912 0.02669 0.31473 0.0
C1077 C 0.66541 0.22901 0.41478 0.0
O1078 O 0.62991 0.13045 0.48131 0.0
O1079 O 0.54586 0.13574 0.44153 0.0
C1080 C 0.65899 -0.00837 0.4018 0.0
O1081 O 0.69716 0.18551 0.41518 0.0
O1082 O 0.61193 0.22038 0.40006 0.0
C1083 C 0.57287 0.14947 0.24943 0.0
Fe1084 Fe 0.55517 0.80186 0.12095 0.0
Fe1085 Fe 0.66573 0.85398 0.07194 0.0
O1086 O 0.61064 0.85734 0.12312 0.0
Fe1087 Fe 0.61095 0.91556 0.17573 0.0
O1088 O 0.53644 0.93036 0.15911 0.0
O1089 O 0.49818 0.84429 0.14416 0.0
O1090 O 0.53272 0.81372 0.04578 0.0
C1091 C 0.56497 0.81226 0.00318 0.0
C1092 C 0.57175 0.82087 0.23837 0.0
O1093 O 0.61869 0.821 0.01232 0.0
C1094 C 0.72813 0.90624 0.17155 0.0
O1095 O 0.60014 0.74462 0.09842 0.0
O1096 O 0.68683 0.78106 0.09279 0.0
O1097 O 0.58666 0.87236 0.23381 0.0
O1098 O 0.56983 0.78573 0.19582 0.0
C1099 C 0.65216 0.97232 0.07584 0.0
O1100 O 0.72308 0.88723 0.12056 0.0
O1101 O 0.68452 0.90674 0.20174 0.0
C1102 C 0.65267 0.73772 0.09246 0.0
O1103 O 0.65069 0.92605 0.04601 0.0
O1104 O 0.63719 0.97135 0.12734 0.0
C1105 C 0.4957 0.89371 0.16371 0.0
Fe1106 Fe 0.41638 0.67338 0.11425 0.0
Fe1107 Fe 0.30184 0.61925 0.05772 0.0
O1108 O 0.36113 0.61726 0.10989 0.0
Fe1109 Fe 0.36649 0.55884 0.15761 0.0
O1110 O 0.44024 0.54111 0.13647 0.0
O1111 O 0.4753 0.62815 0.13546 0.0
O1112 O 0.43196 0.66172 0.0385 0.0
C1113 C 0.3965 0.65904 -0.00421 0.0
C1114 C 0.40738 0.65803 0.2331 0.0
O1115 O 0.34461 0.6454 0.00056 0.0
C1116 C 0.24704 0.5714 0.15549 0.0
O1117 O 0.3726 0.73198 0.09258 0.0
O1118 O 0.28652 0.69365 0.07614 0.0
O1119 O 0.39797 0.60445 0.22108 0.0
O1120 O 0.40537 0.69213 0.19144 0.0
C1121 C 0.3141 0.50028 0.05349 0.0
O1122 O 0.2465 0.59132 0.10571 0.0
O1123 O 0.29404 0.56867 0.18406 0.0
C1124 C 0.32142 0.73654 0.07686 0.0
O1125 O 0.30941 0.54658 0.02782 0.0
O1126 O 0.33498 0.50244 0.10454 0.0
C1127 C 0.48331 0.57557 0.1397 0.0
Fe1128 Fe 0.11967 0.55523 0.8043 0.0
Fe1129 Fe 0.16883 0.60469 0.92364 0.0
O1130 O 0.11938 0.60757 0.86263 0.0
Fe1131 Fe 0.06917 0.66309 0.85913 0.0
O1132 O 0.06693 0.66873 0.78157 0.0
O1133 O 0.12795 0.60862 0.74972 0.0
O1134 O 0.19724 0.5467 0.80807 0.0
C1135 C 0.2387 0.56484 0.84001 0.0
C1136 C -0.00142 0.57163 0.8135 0.0
O1137 O 0.2319 0.60021 0.88023 0.0
C1138 C 0.07705 0.65057 0.98126 0.0
O1139 O 0.11187 0.49558 0.85096 0.0
O1140 O 0.16557 0.52681 0.92526 0.0
O1141 O 0.00732 0.60959 0.85304 0.0
O1142 O 0.04148 0.55191 0.78897 0.0
C1143 C 0.16586 0.72431 0.90566 0.0
O1144 O 0.11443 0.61213 0.97962 0.0
O1145 O 0.06041 0.6714 0.93531 0.0
C1146 C 0.14614 0.48675 0.89209 0.0
O1147 O 0.18198 0.68053 0.93046 0.0
O1148 O 0.12687 0.72042 0.86608 0.0
C1149 C 0.09446 0.6489 0.74087 0.0
Fe1150 Fe 0.15481 0.36866 0.5702 0.0
Fe1151 Fe 0.04741 0.31093 0.62211 0.0
O1152 O 0.10464 0.36586 0.62554 0.0
Fe1153 Fe 0.11224 0.41913 0.6834 0.0
O1154 O 0.18884 0.40614 0.70282 0.0
O1155 O 0.21823 0.40137 0.61646 0.0
O1156 O 0.17817 0.29421 0.58321 0.0
C1157 C 0.14492 0.24933 0.58286 0.0
C1158 C 0.13615 0.4858 0.58563 0.0
O1159 O 0.09316 0.25338 0.59681 0.0
C1160 C -0.00734 0.40538 0.67032 0.0
O1161 O 0.10399 0.33641 0.5128 0.0
O1162 O 0.0214 0.32075 0.54799 0.0
O1163 O 0.13347 0.47806 0.63846 0.0
O1164 O 0.13347 0.44264 0.55147 0.0
C1165 C 0.0637 0.32731 0.7383 0.0
O1166 O -0.00795 0.3569 0.64648 0.0
O1167 O 0.03734 0.43782 0.67495 0.0
C1168 C 0.0523 0.31928 0.50494 0.0
O1169 O 0.06158 0.29327 0.69539 0.0
O1170 O 0.09128 0.37354 0.73923 0.0
C1171 C 0.23067 0.41044 0.66988 0.0
Fe1172 Fe 0.65769 0.63194 0.58051 0.0
Fe1173 Fe 0.63181 0.57751 0.66137 0.0
O1174 O 0.6019 0.60349 0.60658 0.0
Fe1175 Fe 0.5795 0.66075 0.63619 0.0
O1176 O 0.53495 0.68273 0.57171 0.0
O1177 O 0.60308 0.65613 0.51924 0.0
O1178 O 0.68092 0.56533 0.54043 0.0
C1179 C 0.67329 0.51431 0.55691 0.0
C1180 C 0.69225 0.72266 0.57773 0.0
O1181 O 0.65249 0.51308 0.60847 0.0
C1182 C 0.58023 0.69178 0.72816 0.0
O1183 O 0.71639 0.6101 0.64455 0.0
O1184 O 0.67929 0.55326 0.71033 0.0
O1185 O 0.64352 0.7183 0.60848 0.0
O1186 O 0.70901 0.67692 0.55557 0.0
C1187 C 0.51754 0.55708 0.683 0.0
O1188 O 0.60926 0.64205 0.7213 0.0
O1189 O 0.55904 0.71178 0.68319 0.0
C1190 C 0.72347 0.57946 0.69254 0.0
O1191 O 0.5674 0.53806 0.68425 0.0
O1192 O 0.51775 0.60953 0.66614 0.0
C1193 C 0.55069 0.67451 0.5208 0.0
Fe1194 Fe 0.40807 0.31266 0.36069 0.0
Fe1195 Fe 0.36832 0.39678 0.33146 0.0
O1196 O 0.34854 0.34729 0.36933 0.0
Fe1197 Fe 0.32307 0.37712 0.41914 0.0
O1198 O 0.30027 0.30601 0.44301 0.0
O1199 O 0.35428 0.25327 0.38272 0.0
O1200 O 0.38705 0.32 0.28142 0.0
C1201 C 0.4262 0.32996 0.2441 0.0
C1202 C 0.41961 0.32456 0.47942 0.0
O1203 O 0.38653 0.33059 0.28072 0.0
C1204 C 0.3075 0.4703 0.4324 0.0
O1205 O 0.46205 0.38058 0.34606 0.0
O1206 O 0.4145 0.44076 0.29326 0.0
O1207 O 0.38581 0.36734 0.47492 0.0
O1208 O 0.43264 0.30206 0.4334 0.0
C1209 C 0.25185 0.40202 0.3155 0.0
O1210 O 0.34028 0.46263 0.38555 0.0
O1211 O 0.29742 0.42684 0.4622 0.0
C1212 C 0.46348 0.42295 0.30931 0.0
O1213 O 0.29983 0.40476 0.29091 0.0
O1214 O 0.25505 0.38629 0.3683 0.0
C1215 C 0.3199 0.25674 0.42702 0.0
loop_
_geom_bond_atom_site_label_1
_geom_bond_atom_site_label_2
_geom_bond_distance
_geom_bond_site_symmetry_2
_ccdc_geom_bond_type
Mn0 O5 2.095 1_455 S
Mn0 O15 2.162 1_455 S
Mn0 O16 2.297 1_455 S
Mn0 O24 2.385 . S
Mn0 O25 2.209 . S
Mn0 O26 2.094 . S
Mn1 O6 2.121 1_455 S
Mn1 N8 2.257 . S
Mn1 N17 2.282 . S
Mn1 O25 2.215 . S
Mn1 O27 2.117 . S
C2 O24 1.234 . S
C2 O25 1.283 . S
C3 O15 1.281 . S
C3 O16 1.236 . S
C4 O26 1.240 . S
C4 O27 1.264 . S
O5 Mn0 2.095 1_655 S
O5 C14 1.250 . S
O6 Mn1 2.121 1_655 S
O6 C14 1.258 . S
C7 N8 1.326 . S
C7 C11 1.460 . S
C7 H13 0.929 . S
N8 Mn1 2.257 . S
N8 C7 1.326 . S
N8 C12 1.362 . S
C9 C10 1.258 . S
C9 C12 1.431 . S
C9 C29 1.449 . S
C10 C9 1.258 . S
C10 C11 1.477 . S
C10 H30 0.931 . S
C11 C7 1.460 . S
C11 C10 1.477 . S
C11 H31 0.930 . S
C12 N8 1.362 . S
C12 C9 1.431 . S
C12 C22 1.476 . S
H13 C7 0.929 . S
C14 O5 1.250 . S
C14 O6 1.258 . S
O15 Mn0 2.162 1_655 S
O15 C3 1.281 . S
O16 Mn0 2.297 1_655 S
O16 C3 1.236 . S
N17 Mn1 2.282 . S
N17 C18 1.328 . S
N17 C22 1.318 . S
C18 N17 1.328 . S
C18 C19 1.457 . S
C18 H23 0.929 . S
C19 C18 1.457 . S
C19 C20 1.291 . S
C19 H32 0.931 . S
C20 C19 1.291 . S
C20 C21 1.373 . S
C20 H33 0.929 . S
C21 C20 1.373 . S
C21 C22 1.396 . S
C21 C28 1.403 . S
C22 C12 1.476 . S
C22 N17 1.318 . S
C22 C21 1.396 . S
H23 C18 0.929 . S
O24 Mn0 2.385 . S
O24 C2 1.234 . S
O25 Mn0 2.209 . S
O25 Mn1 2.215 . S
O25 C2 1.283 . S
O26 Mn0 2.094 . S
O26 C4 1.240 . S
O27 Mn1 2.117 . S
O27 C4 1.264 . S
C28 C21 1.403 . S
C28 C29 1.399 . S
C28 H34 0.929 . S
C29 C9 1.449 . S
C29 C28 1.399 . S
C29 H35 0.930 . S
H30 C10 0.931 . S
H31 C11 0.930 . S
H32 C19 0.931 . S
H33 C20 0.929 . S
H34 C28 0.929 . S
H35 C29 0.930 . S
Mn36 O41 2.095 1_455 S
Mn36 O51 2.162 . S
Mn36 O52 2.297 . S
Mn36 O60 2.385 . S
Mn36 O61 2.209 1_455 S
Mn36 O62 2.094 . S
Mn37 O42 2.121 . S
Mn37 N44 2.257 . S
Mn37 N53 2.282 . S
Mn37 O61 2.215 . S
Mn37 O63 2.117 . S
C38 O60 1.234 1_655 S
C38 O61 1.283 . S
C39 O51 1.281 . S
C39 O52 1.236 . S
C40 O62 1.240 . S
C40 O63 1.264 1_455 S
O41 Mn36 2.095 1_655 S
O41 C50 1.250 . S
O42 Mn37 2.121 . S
O42 C50 1.258 . S
C43 N44 1.326 . S
C43 C47 1.460 . S
C43 H49 0.929 . S
N44 Mn37 2.257 . S
N44 C43 1.326 . S
N44 C48 1.362 . S
C45 C46 1.258 . S
C45 C48 1.431 . S
C45 C65 1.449 . S
C46 C45 1.258 . S
C46 C47 1.477 . S
C46 H66 0.931 . S
C47 C43 1.460 . S
C47 C46 1.477 . S
C47 H67 0.930 . S
C48 N44 1.362 . S
C48 C45 1.431 . S
C48 C58 1.476 . S
H49 C43 0.929 . S
C50 O41 1.250 . S
C50 O42 1.258 . S
O51 Mn36 2.162 . S
O51 C39 1.281 . S
O52 Mn36 2.297 . S
O52 C39 1.236 . S
N53 Mn37 2.282 . S
N53 C54 1.328 . S
N53 C58 1.318 . S
C54 N53 1.328 . S
C54 C55 1.457 . S
C54 H59 0.929 . S
C55 C54 1.457 . S
C55 C56 1.291 . S
C55 H68 0.931 . S
C56 C55 1.291 . S
C56 C57 1.373 . S
C56 H69 0.929 . S
C57 C56 1.373 . S
C57 C58 1.396 . S
C57 C64 1.403 . S
C58 C48 1.476 . S
C58 N53 1.318 . S
C58 C57 1.396 . S
H59 C54 0.929 . S
O60 Mn36 2.385 . S
O60 C38 1.234 1_455 S
O61 Mn36 2.209 1_655 S
O61 Mn37 2.215 . S
O61 C38 1.283 . S
O62 Mn36 2.094 . S
O62 C40 1.240 . S
O63 Mn37 2.117 . S
O63 C40 1.264 1_655 S
C64 C57 1.403 . S
C64 C65 1.399 . S
C64 H70 0.929 . S
C65 C45 1.449 . S
C65 C64 1.399 . S
C65 H71 0.930 . S
H66 C46 0.931 . S
H67 C47 0.930 . S
H68 C55 0.931 . S
H69 C56 0.929 . S
H70 C64 0.929 . S
H71 C65 0.930 . S
Mn72 O77 2.095 . S
Mn72 O87 2.162 . S
Mn72 O88 2.297 . S
Mn72 O96 2.385 . S
Mn72 O97 2.209 . S
Mn72 O98 2.094 . S
Mn73 O78 2.121 . S
Mn73 N80 2.257 . S
Mn73 N89 2.282 . S
Mn73 O97 2.215 . S
Mn73 O99 2.117 . S
C74 O96 1.234 . S
C74 O97 1.283 . S
C75 O87 1.281 . S
C75 O88 1.236 . S
C76 O98 1.240 . S
C76 O99 1.264 . S
O77 Mn72 2.095 . S
O77 C86 1.250 . S
O78 Mn73 2.121 . S
O78 C86 1.258 . S
C79 N80 1.326 . S
C79 C83 1.460 1_565 S
C79 H85 0.929 . S
N80 Mn73 2.257 . S
N80 C79 1.326 . S
N80 C84 1.362 . S
C81 C82 1.258 . S
C81 C84 1.431 1_545 S
C81 C101 1.449 . S
C82 C81 1.258 . S
C82 C83 1.477 . S
C82 H102 0.931 . S
C83 C79 1.460 1_545 S
C83 C82 1.477 . S
C83 H103 0.930 . S
C84 N80 1.362 . S
C84 C81 1.431 1_565 S
C84 C94 1.476 . S
H85 C79 0.929 . S
C86 O77 1.250 . S
C86 O78 1.258 . S
O87 Mn72 2.162 . S
O87 C75 1.281 . S
O88 Mn72 2.297 . S
O88 C75 1.236 . S
N89 Mn73 2.282 . S
N89 C90 1.328 . S
N89 C94 1.318 . S
C90 N89 1.328 . S
C90 C91 1.457 . S
C90 H95 0.929 . S
C91 C90 1.457 . S
C91 C92 1.291 . S
C91 H104 0.931 . S
C92 C91 1.291 . S
C92 C93 1.373 . S
C92 H105 0.929 . S
C93 C92 1.373 . S
C93 C94 1.396 . S
C93 C100 1.403 . S
C94 C84 1.476 . S
C94 N89 1.318 . S
C94 C93 1.396 . S
H95 C90 0.929 . S
O96 Mn72 2.385 . S
O96 C74 1.234 . S
O97 Mn72 2.209 . S
O97 Mn73 2.215 . S
O97 C74 1.283 . S
O98 Mn72 2.094 . S
O98 C76 1.240 . S
O99 Mn73 2.117 . S
O99 C76 1.264 . S
C100 C93 1.403 . S
C100 C101 1.399 1_565 S
C100 H106 0.929 1_565 S
C101 C81 1.449 . S
C101 C100 1.399 1_545 S
C101 H107 0.930 . S
H102 C82 0.931 . S
H103 C83 0.930 . S
H104 C91 0.931 . S
H105 C92 0.929 . S
H106 C100 0.929 1_545 S
H107 C101 0.930 . S
Mn108 O113 2.095 . S
Mn108 O123 2.162 . S
Mn108 O124 2.297 . S
Mn108 O132 2.385 . S
Mn108 O133 2.209 . S
Mn108 O134 2.094 . S
Mn109 O114 2.121 . S
Mn109 N116 2.257 . S
Mn109 N125 2.282 . S
Mn109 O133 2.215 . S
Mn109 O135 2.117 . S
C110 O132 1.234 . S
C110 O133 1.283 . S
C111 O123 1.281 . S
C111 O124 1.236 . S
C112 O134 1.240 . S
C112 O135 1.264 . S
O113 Mn108 2.095 . S
O113 C122 1.250 . S
O114 Mn109 2.121 . S
O114 C122 1.258 . S
C115 N116 1.326 . S
C115 C119 1.460 . S
C115 H121 0.929 . S
N116 Mn109 2.257 . S
N116 C115 1.326 . S
N116 C120 1.362 . S
C117 C118 1.258 . S
C117 C120 1.431 . S
C117 C137 1.449 . S
C118 C117 1.258 . S
C118 C119 1.477 . S
C118 H138 0.931 . S
C119 C115 1.460 . S
C119 C118 1.477 . S
C119 H139 0.930 . S
C120 N116 1.362 . S
C120 C117 1.431 . S
C120 C130 1.476 . S
H121 C115 0.929 . S
C122 O113 1.250 . S
C122 O114 1.258 . S
O123 Mn108 2.162 . S
O123 C111 1.281 . S
O124 Mn108 2.297 . S
O124 C111 1.236 . S
N125 Mn109 2.282 . S
N125 C126 1.328 . S
N125 C130 1.318 . S
C126 N125 1.328 . S
C126 C127 1.457 1_545 S
C126 H131 0.929 . S
C127 C126 1.457 1_565 S
C127 C128 1.291 . S
C127 H140 0.931 . S
C128 C127 1.291 . S
C128 C129 1.373 1_565 S
C128 H141 0.929 . S
C129 C128 1.373 1_545 S
C129 C130 1.396 . S
C129 C136 1.403 . S
C130 C120 1.476 . S
C130 N125 1.318 . S
C130 C129 1.396 . S
H131 C126 0.929 . S
O132 Mn108 2.385 . S
O132 C110 1.234 . S
O133 Mn108 2.209 . S
O133 Mn109 2.215 . S
O133 C110 1.283 . S
O134 Mn108 2.094 . S
O134 C112 1.240 . S
O135 Mn109 2.117 . S
O135 C112 1.264 . S
C136 C129 1.403 . S
C136 C137 1.399 . S
C136 H142 0.929 1_545 S
C137 C117 1.449 . S
C137 C136 1.399 . S
C137 H143 0.930 . S
H138 C118 0.931 . S
H139 C119 0.930 . S
H140 C127 0.931 . S
H141 C128 0.929 . S
H142 C136 0.929 1_565 S
H143 C137 0.930 . S
Mn144 O149 2.095 . S
Mn144 O159 2.162 . S
Mn144 O160 2.297 . S
Mn144 O168 2.385 1_655 S
Mn144 O169 2.209 1_655 S
Mn144 O170 2.094 1_655 S
Mn145 O150 2.121 1_455 S
Mn145 N152 2.257 . S
Mn145 N161 2.282 . S
Mn145 O169 2.215 . S
Mn145 O171 2.117 . S
C146 O168 1.234 . S
C146 O169 1.283 . S
C147 O159 1.281 . S
C147 O160 1.236 . S
C148 O170 1.240 . S
C148 O171 1.264 . S
O149 Mn144 2.095 . S
O149 C158 1.250 . S
O150 Mn145 2.121 1_655 S
O150 C158 1.258 . S
C151 N152 1.326 . S
C151 C155 1.460 1_565 S
C151 H157 0.936 . S
N152 Mn145 2.257 . S
N152 C151 1.326 . S
N152 C156 1.362 . S
C153 C154 1.258 . S
C153 C156 1.431 1_545 S
C153 C173 1.449 . S
C154 C153 1.258 . S
C154 C155 1.477 . S
C154 H174 0.931 . S
C155 C151 1.460 1_545 S
C155 C154 1.477 . S
C155 H175 0.930 . S
C156 N152 1.362 . S
C156 C153 1.431 1_565 S
C156 C166 1.476 . S
H157 C151 0.936 . S
C158 O149 1.250 . S
C158 O150 1.258 . S
O159 Mn144 2.162 . S
O159 C147 1.281 . S
O160 Mn144 2.297 . S
O160 C147 1.236 . S
N161 Mn145 2.282 . S
N161 C162 1.328 . S
N161 C166 1.318 . S
C162 N161 1.328 . S
C162 C163 1.457 . S
C162 H167 0.929 . S
C163 C162 1.457 . S
C163 C164 1.291 . S
C163 H176 0.931 . S
C164 C163 1.291 . S
C164 C165 1.373 . S
C164 H177 0.929 . S
C165 C164 1.373 . S
C165 C166 1.396 . S
C165 C172 1.403 . S
C166 C156 1.476 . S
C166 N161 1.318 . S
C166 C165 1.396 . S
H167 C162 0.929 . S
O168 Mn144 2.385 1_455 S
O168 C146 1.234 . S
O169 Mn144 2.209 1_455 S
O169 Mn145 2.215 . S
O169 C146 1.283 . S
O170 Mn144 2.094 1_455 S
O170 C148 1.240 . S
O171 Mn145 2.117 . S
O171 C148 1.264 . S
C172 C165 1.403 . S
C172 C173 1.399 1_565 S
C172 H178 0.929 1_565 S
C173 C153 1.449 . S
C173 C172 1.399 1_545 S
C173 H179 0.930 . S
H174 C154 0.931 . S
H175 C155 0.930 . S
H176 C163 0.931 . S
H177 C164 0.929 . S
H178 C172 0.929 1_545 S
H179 C173 0.930 . S
Mn180 O185 2.095 . S
Mn180 O195 2.162 . S
Mn180 O196 2.297 . S
Mn180 O204 2.385 . S
Mn180 O205 2.209 . S
Mn180 O206 2.094 . S
Mn181 O186 2.121 . S
Mn181 N188 2.257 . S
Mn181 N197 2.282 . S
Mn181 O205 2.215 . S
Mn181 O207 2.117 . S
C182 O204 1.234 . S
C182 O205 1.283 . S
C183 O195 1.281 . S
C183 O196 1.236 . S
C184 O206 1.240 . S
C184 O207 1.264 . S
O185 Mn180 2.095 . S
O185 C194 1.250 . S
O186 Mn181 2.121 . S
O186 C194 1.258 . S
C187 N188 1.326 . S
C187 C191 1.460 . S
C187 H193 0.929 . S
N188 Mn181 2.257 . S
N188 C187 1.326 . S
N188 C192 1.362 . S
C189 C190 1.258 . S
C189 C192 1.431 . S
C189 C209 1.449 . S
C190 C189 1.258 . S
C190 C191 1.477 . S
C190 H210 0.931 . S
C191 C187 1.460 . S
C191 C190 1.477 . S
C191 H211 0.930 . S
C192 N188 1.362 . S
C192 C189 1.431 . S
C192 C202 1.476 . S
H193 C187 0.929 . S
C194 O185 1.250 . S
C194 O186 1.258 . S
O195 Mn180 2.162 . S
O195 C183 1.281 . S
O196 Mn180 2.297 . S
O196 C183 1.236 . S
N197 Mn181 2.282 . S
N197 C198 1.328 . S
N197 C202 1.318 . S
C198 N197 1.328 . S
C198 C199 1.457 . S
C198 H203 0.929 . S
C199 C198 1.457 . S
C199 C200 1.291 . S
C199 H212 0.931 . S
C200 C199 1.291 . S
C200 C201 1.373 . S
C200 H213 0.929 . S
C201 C200 1.373 . S
C201 C202 1.396 . S
C201 C208 1.403 . S
C202 C192 1.476 . S
C202 N197 1.318 . S
C202 C201 1.396 . S
H203 C198 0.929 . S
O204 Mn180 2.385 . S
O204 C182 1.234 . S
O205 Mn180 2.209 . S
O205 Mn181 2.215 . S
O205 C182 1.283 . S
O206 Mn180 2.094 . S
O206 C184 1.240 . S
O207 Mn181 2.117 . S
O207 C184 1.264 . S
C208 C201 1.403 . S
C208 C209 1.399 . S
C208 H214 0.929 . S
C209 C189 1.449 . S
C209 C208 1.399 . S
C209 H215 0.930 . S
H210 C190 0.931 . S
H211 C191 0.930 . S
H212 C199 0.931 . S
H213 C200 0.929 . S
H214 C208 0.929 . S
H215 C209 0.930 . S
Mn216 O221 2.095 . S
Mn216 O231 2.162 . S
Mn216 O232 2.297 . S
Mn216 O240 2.385 . S
Mn216 O241 2.209 . S
Mn216 O242 2.094 . S
Mn217 O222 2.121 . S
Mn217 N224 2.257 . S
Mn217 N233 2.282 . S
Mn217 O241 2.215 . S
Mn217 O243 2.117 . S
C218 O240 1.234 . S
C218 O241 1.283 . S
C219 O231 1.281 . S
C219 O232 1.236 . S
C220 O242 1.240 . S
C220 O243 1.264 . S
O221 Mn216 2.095 . S
O221 C230 1.250 . S
O222 Mn217 2.121 . S
O222 C230 1.258 . S
C223 N224 1.326 . S
C223 C227 1.460 . S
C223 H229 0.929 . S
N224 Mn217 2.257 . S
N224 C223 1.326 . S
N224 C228 1.362 . S
C225 C226 1.258 . S
C225 C228 1.431 . S
C225 C245 1.449 . S
C226 C225 1.258 . S
C226 C227 1.477 . S
C226 H246 0.931 . S
C227 C223 1.460 . S
C227 C226 1.477 . S
C227 H247 0.930 . S
C228 N224 1.362 . S
C228 C225 1.431 . S
C228 C238 1.476 . S
H229 C223 0.929 . S
C230 O221 1.250 . S
C230 O222 1.258 . S
O231 Mn216 2.162 . S
O231 C219 1.281 . S
O232 Mn216 2.297 . S
O232 C219 1.236 . S
N233 Mn217 2.282 . S
N233 C234 1.328 . S
N233 C238 1.318 . S
C234 N233 1.328 . S
C234 C235 1.457 . S
C234 H239 0.929 . S
C235 C234 1.457 . S
C235 C236 1.291 . S
C235 H248 0.931 . S
C236 C235 1.291 . S
C236 C237 1.373 . S
C236 H249 0.929 . S
C237 C236 1.373 . S
C237 C238 1.396 . S
C237 C244 1.403 . S
C238 C228 1.476 . S
C238 N233 1.318 . S
C238 C237 1.396 . S
H239 C234 0.929 . S
O240 Mn216 2.385 . S
O240 C218 1.234 . S
O241 Mn216 2.209 . S
O241 Mn217 2.215 . S
O241 C218 1.283 . S
O242 Mn216 2.094 . S
O242 C220 1.240 . S
O243 Mn217 2.117 . S
O243 C220 1.264 . S
C244 C237 1.403 . S
C244 C245 1.399 . S
C244 H250 0.929 . S
C245 C225 1.449 . S
C245 C244 1.399 . S
C245 H251 0.930 . S
H246 C226 0.931 . S
H247 C227 0.930 . S
H248 C235 0.931 . S
H249 C236 0.929 . S
H250 C244 0.929 . S
H251 C245 0.930 . S
Mn252 O257 2.095 1_455 S
Mn252 O267 2.162 . S
Mn252 O268 2.297 . S
Mn252 O276 2.385 . S
Mn252 O277 2.209 1_455 S
Mn252 O278 2.094 . S
Mn253 O258 2.121 . S
Mn253 N260 2.257 . S
Mn253 N269 2.282 . S
Mn253 O277 2.215 . S
Mn253 O279 2.117 . S
C254 O276 1.234 1_655 S
C254 O277 1.283 . S
C255 O267 1.281 . S
C255 O268 1.236 . S
C256 O278 1.240 . S
C256 O279 1.264 1_455 S
O257 Mn252 2.095 1_655 S
O257 C266 1.250 . S
O258 Mn253 2.121 . S
O258 C266 1.258 . S
C259 N260 1.326 . S
C259 C263 1.460 . S
C259 H265 0.929 . S
N260 Mn253 2.257 . S
N260 C259 1.326 . S
N260 C264 1.362 . S
C261 C262 1.258 . S
C261 C264 1.431 . S
C261 C281 1.449 . S
C262 C261 1.258 . S
C262 C263 1.477 . S
C262 H282 0.931 . S
C263 C259 1.460 . S
C263 C262 1.477 . S
C263 H283 0.930 . S
C264 N260 1.362 . S
C264 C261 1.431 . S
C264 C274 1.476 . S
H265 C259 0.929 . S
C266 O257 1.250 . S
C266 O258 1.258 . S
O267 Mn252 2.162 . S
O267 C255 1.281 . S
O268 Mn252 2.297 . S
O268 C255 1.236 . S
N269 Mn253 2.282 . S
N269 C270 1.328 . S
N269 C274 1.318 . S
C270 N269 1.328 . S
C270 C271 1.457 1_545 S
C270 H275 0.929 . S
C271 C270 1.457 1_565 S
C271 C272 1.291 . S
C271 H284 0.931 . S
C272 C271 1.291 . S
C272 C273 1.373 1_565 S
C272 H285 0.929 . S
C273 C272 1.373 1_545 S
C273 C274 1.396 . S
C273 C280 1.403 . S
C274 C264 1.476 . S
C274 N269 1.318 . S
C274 C273 1.396 . S
H275 C270 0.929 . S
O276 Mn252 2.385 . S
O276 C254 1.234 1_455 S
O277 Mn252 2.209 1_655 S
O277 Mn253 2.215 . S
O277 C254 1.283 . S
O278 Mn252 2.094 . S
O278 C256 1.240 . S
O279 Mn253 2.117 . S
O279 C256 1.264 1_655 S
C280 C273 1.403 . S
C280 C281 1.399 . S
C280 H286 0.929 1_545 S
C281 C261 1.449 . S
C281 C280 1.399 . S
C281 H287 0.930 . S
H282 C262 0.931 . S
H283 C263 0.930 . S
H284 C271 0.931 . S
H285 C272 0.929 . S
H286 C280 0.929 1_565 S
H287 C281 0.930 . S
Mn288 O293 2.095 . S
Mn288 O303 2.162 . S
Mn288 O304 2.297 . S
Mn288 O312 2.385 1_565 S
Mn288 O313 2.209 1_565 S
Mn288 O314 2.094 1_565 S
Mn289 O294 2.121 1_545 S
Mn289 N296 2.257 . S
Mn289 N305 2.282 . S
Mn289 O313 2.215 . S
Mn289 O315 2.117 . S
C290 O312 1.234 . S
C290 O313 1.283 . S
C291 O303 1.281 . S
C291 O304 1.236 . S
C292 O314 1.240 . S
C292 O315 1.264 . S
O293 Mn288 2.095 . S
O293 C302 1.250 . S
O294 Mn289 2.121 1_565 S
O294 C302 1.258 . S
C295 N296 1.326 . S
C295 C299 1.460 . S
C295 H301 0.929 . S
N296 Mn289 2.257 . S
N296 C295 1.326 . S
N296 C300 1.362 . S
C297 C298 1.258 . S
C297 C300 1.431 . S
C297 C317 1.449 . S
C298 C297 1.258 . S
C298 C299 1.477 . S
C298 H318 0.931 . S
C299 C295 1.460 . S
C299 C298 1.477 . S
C299 H319 0.930 . S
C300 N296 1.362 . S
C300 C297 1.431 . S
C300 C310 1.476 . S
H301 C295 0.929 . S
C302 O293 1.250 . S
C302 O294 1.258 . S
O303 Mn288 2.162 . S
O303 C291 1.281 . S
O304 Mn288 2.297 . S
O304 C291 1.236 . S
N305 Mn289 2.282 . S
N305 C306 1.328 . S
N305 C310 1.318 . S
C306 N305 1.328 . S
C306 C307 1.457 . S
C306 H311 0.929 . S
C307 C306 1.457 . S
C307 C308 1.291 . S
C307 H320 0.931 . S
C308 C307 1.291 . S
C308 C309 1.373 . S
C308 H321 0.929 . S
C309 C308 1.373 . S
C309 C310 1.396 . S
C309 C316 1.403 . S
C310 C300 1.476 . S
C310 N305 1.318 . S
C310 C309 1.396 . S
H311 C306 0.929 . S
O312 Mn288 2.385 1_545 S
O312 C290 1.234 . S
O313 Mn288 2.209 1_545 S
O313 Mn289 2.215 . S
O313 C290 1.283 . S
O314 Mn288 2.094 1_545 S
O314 C292 1.240 . S
O315 Mn289 2.117 . S
O315 C292 1.264 . S
C316 C309 1.403 . S
C316 C317 1.399 . S
C316 H322 0.929 . S
C317 C297 1.449 . S
C317 C316 1.399 . S
C317 H323 0.930 . S
H318 C298 0.931 . S
H319 C299 0.930 . S
H320 C307 0.931 . S
H321 C308 0.929 . S
H322 C316 0.929 . S
H323 C317 0.930 . S
Mn324 O329 2.095 . S
Mn324 O339 2.162 . S
Mn324 O340 2.297 . S
Mn324 O348 2.385 . S
Mn324 O349 2.209 . S
Mn324 O350 2.094 . S
Mn325 O330 2.121 . S
Mn325 N332 2.257 . S
Mn325 N341 2.282 . S
Mn325 O349 2.215 . S
Mn325 O351 2.117 . S
C326 O348 1.234 . S
C326 O349 1.283 . S
C327 O339 1.281 . S
C327 O340 1.236 . S
C328 O350 1.240 . S
C328 O351 1.264 . S
O329 Mn324 2.095 . S
O329 C338 1.250 . S
O330 Mn325 2.121 . S
O330 C338 1.258 . S
C331 N332 1.326 . S
C331 C335 1.460 . S
C331 H337 0.929 . S
N332 Mn325 2.257 . S
N332 C331 1.326 . S
N332 C336 1.362 . S
C333 C334 1.258 . S
C333 C336 1.431 . S
C333 C353 1.449 . S
C334 C333 1.258 . S
C334 C335 1.477 . S
C334 H354 0.931 . S
C335 C331 1.460 . S
C335 C334 1.477 . S
C335 H355 0.930 . S
C336 N332 1.362 . S
C336 C333 1.431 . S
C336 C346 1.476 . S
H337 C331 0.929 . S
C338 O329 1.250 . S
C338 O330 1.258 . S
O339 Mn324 2.162 . S
O339 C327 1.281 . S
O340 Mn324 2.297 . S
O340 C327 1.236 . S
N341 Mn325 2.282 . S
N341 C342 1.328 . S
N341 C346 1.318 . S
C342 N341 1.328 . S
C342 C343 1.462 . S
C342 H347 0.929 . S
C343 C342 1.462 . S
C343 C344 1.290 1_455 S
C343 H356 0.926 1_455 S
C344 C343 1.290 1_655 S
C344 C345 1.373 1_655 S
C344 H357 0.929 . S
C345 C344 1.373 1_455 S
C345 C346 1.396 . S
C345 C352 1.403 . S
C346 C336 1.476 . S
C346 N341 1.318 . S
C346 C345 1.396 . S
H347 C342 0.929 . S
O348 Mn324 2.385 . S
O348 C326 1.234 . S
O349 Mn324 2.209 . S
O349 Mn325 2.215 . S
O349 C326 1.283 . S
O350 Mn324 2.094 . S
O350 C328 1.240 . S
O351 Mn325 2.117 . S
O351 C328 1.264 . S
C352 C345 1.403 . S
C352 C353 1.399 . S
C352 H358 0.929 1_455 S
C353 C333 1.449 . S
C353 C352 1.399 . S
C353 H359 0.930 . S
H354 C334 0.931 . S
H355 C335 0.930 . S
H356 C343 0.926 1_655 S
H357 C344 0.929 . S
H358 C352 0.929 1_655 S
H359 C353 0.930 . S
Mn360 O365 2.101 . S
Mn360 O375 2.167 . S
Mn360 O376 2.305 . S
Mn360 O384 2.377 1_565 S
Mn360 O385 2.204 1_565 S
Mn360 O386 2.087 1_565 S
Mn361 O366 2.121 1_545 S
Mn361 N368 2.257 . S
Mn361 N377 2.282 . S
Mn361 O385 2.215 . S
Mn361 O387 2.117 . S
C362 O384 1.234 . S
C362 O385 1.283 . S
C363 O375 1.281 . S
C363 O376 1.236 . S
C364 O386 1.240 . S
C364 O387 1.264 . S
O365 Mn360 2.101 . S
O365 C374 1.250 . S
O366 Mn361 2.121 1_565 S
O366 C374 1.258 . S
C367 N368 1.326 . S
C367 C371 1.460 1_556 S
C367 H373 0.929 . S
N368 Mn361 2.257 . S
N368 C367 1.326 . S
N368 C372 1.362 . S
C369 C370 1.258 . S
C369 C372 1.431 1_554 S
C369 C389 1.449 . S
C370 C369 1.258 . S
C370 C371 1.477 . S
C370 H390 0.931 . S
C371 C367 1.460 1_554 S
C371 C370 1.477 . S
C371 H391 0.930 . S
C372 N368 1.362 . S
C372 C369 1.431 1_556 S
C372 C382 1.476 . S
H373 C367 0.929 . S
C374 O365 1.250 . S
C374 O366 1.258 . S
O375 Mn360 2.167 . S
O375 C363 1.281 . S
O376 Mn360 2.305 . S
O376 C363 1.236 . S
N377 Mn361 2.282 . S
N377 C378 1.328 . S
N377 C382 1.318 . S
C378 N377 1.328 . S
C378 C379 1.457 . S
C378 H383 0.929 . S
C379 C378 1.457 . S
C379 C380 1.291 . S
C379 H392 0.931 . S
C380 C379 1.291 . S
C380 C381 1.373 . S
C380 H393 0.929 . S
C381 C380 1.373 . S
C381 C382 1.396 . S
C381 C388 1.403 1_556 S
C382 C372 1.476 . S
C382 N377 1.318 . S
C382 C381 1.396 . S
H383 C378 0.929 . S
O384 Mn360 2.377 1_545 S
O384 C362 1.234 . S
O385 Mn360 2.204 1_545 S
O385 Mn361 2.215 . S
O385 C362 1.283 . S
O386 Mn360 2.087 1_545 S
O386 C364 1.240 . S
O387 Mn361 2.117 . S
O387 C364 1.264 . S
C388 C381 1.403 1_554 S
C388 C389 1.399 . S
C388 H394 0.929 . S
C389 C369 1.449 . S
C389 C388 1.399 . S
C389 H395 0.930 . S
H390 C370 0.931 . S
H391 C371 0.930 . S
H392 C379 0.931 . S
H393 C380 0.929 . S
H394 C388 0.929 . S
H395 C389 0.930 . S
Mn396 O401 2.095 1_554 S
Mn396 O411 2.162 . S
Mn396 O412 2.297 . S
Mn396 O420 2.385 . S
Mn396 O421 2.209 1_554 S
Mn396 O422 2.094 . S
Mn397 O402 2.121 . S
Mn397 N404 2.257 . S
Mn397 N413 2.282 . S
Mn397 O421 2.215 . S
Mn397 O423 2.117 . S
C398 O420 1.234 1_556 S
C398 O421 1.283 . S
C399 O411 1.281 . S
C399 O412 1.236 . S
C400 O422 1.240 . S
C400 O423 1.264 1_554 S
O401 Mn396 2.095 1_556 S
O401 C410 1.250 . S
O402 Mn397 2.121 . S
O402 C410 1.258 . S
C403 N404 1.326 . S
C403 C407 1.460 . S
C403 H409 0.929 . S
N404 Mn397 2.257 . S
N404 C403 1.326 . S
N404 C408 1.362 . S
C405 C406 1.258 . S
C405 C408 1.431 . S
C405 C425 1.449 . S
C406 C405 1.258 . S
C406 C407 1.477 . S
C406 H426 0.931 . S
C407 C403 1.460 . S
C407 C406 1.477 . S
C407 H427 0.930 . S
C408 N404 1.362 . S
C408 C405 1.431 . S
C408 C418 1.476 . S
H409 C403 0.929 . S
C410 O401 1.250 . S
C410 O402 1.258 . S
O411 Mn396 2.162 . S
O411 C399 1.281 . S
O412 Mn396 2.297 . S
O412 C399 1.236 . S
N413 Mn397 2.282 . S
N413 C414 1.328 . S
N413 C418 1.318 . S
C414 N413 1.328 . S
C414 C415 1.457 1_455 S
C414 H419 0.929 . S
C415 C414 1.457 1_655 S
C415 C416 1.291 . S
C415 H428 0.931 . S
C416 C415 1.291 . S
C416 C417 1.373 1_655 S
C416 H429 0.929 . S
C417 C416 1.373 1_455 S
C417 C418 1.396 . S
C417 C424 1.403 1_455 S
C418 C408 1.476 . S
C418 N413 1.318 . S
C418 C417 1.396 . S
H419 C414 0.929 . S
O420 Mn396 2.385 . S
O420 C398 1.234 1_554 S
O421 Mn396 2.209 1_556 S
O421 Mn397 2.215 . S
O421 C398 1.283 . S
O422 Mn396 2.094 . S
O422 C400 1.240 . S
O423 Mn397 2.117 . S
O423 C400 1.264 1_556 S
C424 C417 1.403 1_655 S
C424 C425 1.399 1_655 S
C424 H430 0.929 . S
C425 C405 1.449 . S
C425 C424 1.399 1_455 S
C425 H431 0.930 . S
H426 C406 0.931 . S
H427 C407 0.930 . S
H428 C415 0.931 . S
H429 C416 0.929 . S
H430 C424 0.929 . S
H431 C425 0.930 . S
Mn432 O437 2.095 1_554 S
Mn432 O447 2.162 1_554 S
Mn432 O448 2.297 1_554 S
Mn432 O456 2.385 . S
Mn432 O457 2.209 . S
Mn432 O458 2.094 . S
Mn433 O438 2.121 1_554 S
Mn433 N440 2.257 . S
Mn433 N449 2.282 . S
Mn433 O457 2.215 . S
Mn433 O459 2.117 . S
C434 O456 1.234 . S
C434 O457 1.283 . S
C435 O447 1.281 . S
C435 O448 1.236 . S
C436 O458 1.240 . S
C436 O459 1.264 . S
O437 Mn432 2.095 1_556 S
O437 C446 1.250 . S
O438 Mn433 2.121 1_556 S
O438 C446 1.258 . S
C439 N440 1.326 . S
C439 C443 1.460 . S
C439 H445 0.929 . S
N440 Mn433 2.257 . S
N440 C439 1.326 . S
N440 C444 1.362 . S
C441 C442 1.258 . S
C441 C444 1.431 . S
C441 C461 1.449 . S
C442 C441 1.258 . S
C442 C443 1.477 . S
C442 H462 0.931 . S
C443 C439 1.460 . S
C443 C442 1.477 . S
C443 H463 0.930 . S
C444 N440 1.362 . S
C444 C441 1.431 . S
C444 C454 1.476 . S
H445 C439 0.929 . S
C446 O437 1.250 . S
C446 O438 1.258 . S
O447 Mn432 2.162 1_556 S
O447 C435 1.281 . S
O448 Mn432 2.297 1_556 S
O448 C435 1.236 . S
N449 Mn433 2.282 . S
N449 C450 1.328 . S
N449 C454 1.318 . S
C450 N449 1.328 . S
C450 C451 1.457 . S
C450 H455 0.929 . S
C451 C450 1.457 . S
C451 C452 1.291 . S
C451 H464 0.931 . S
C452 C451 1.291 . S
C452 C453 1.373 . S
C452 H465 0.929 . S
C453 C452 1.373 . S
C453 C454 1.396 . S
C453 C460 1.403 . S
C454 C444 1.476 . S
C454 N449 1.318 . S
C454 C453 1.396 . S
H455 C450 0.929 . S
O456 Mn432 2.385 . S
O456 C434 1.234 . S
O457 Mn432 2.209 . S
O457 Mn433 2.215 . S
O457 C434 1.283 . S
O458 Mn432 2.094 . S
O458 C436 1.240 . S
O459 Mn433 2.117 . S
O459 C436 1.264 . S
C460 C453 1.403 . S
C460 C461 1.399 . S
C460 H466 0.929 . S
C461 C441 1.449 . S
C461 C460 1.399 . S
C461 H467 0.930 . S
H462 C442 0.931 . S
H463 C443 0.930 . S
H464 C451 0.931 . S
H465 C452 0.929 . S
H466 C460 0.929 . S
H467 C461 0.930 . S
Mn468 O473 2.095 . S
Mn468 O483 2.162 . S
Mn468 O484 2.297 . S
Mn468 O492 2.385 1_556 S
Mn468 O493 2.209 1_556 S
Mn468 O494 2.094 1_556 S
Mn469 O474 2.121 1_554 S
Mn469 N476 2.257 . S
Mn469 N485 2.282 . S
Mn469 O493 2.215 . S
Mn469 O495 2.117 . S
C470 O492 1.234 . S
C470 O493 1.283 . S
C471 O483 1.281 . S
C471 O484 1.236 . S
C472 O494 1.240 . S
C472 O495 1.264 . S
O473 Mn468 2.095 . S
O473 C482 1.250 . S
O474 Mn469 2.121 1_556 S
O474 C482 1.258 . S
C475 N476 1.326 . S
C475 C479 1.460 1_655 S
C475 H481 0.942 . S
N476 Mn469 2.257 . S
N476 C475 1.326 . S
N476 C480 1.362 . S
C477 C478 1.258 . S
C477 C480 1.431 1_455 S
C477 C497 1.449 . S
C478 C477 1.258 . S
C478 C479 1.477 . S
C478 H498 0.931 . S
C479 C475 1.460 1_455 S
C479 C478 1.477 . S
C479 H499 0.930 . S
C480 N476 1.362 . S
C480 C477 1.431 1_655 S
C480 C490 1.476 . S
H481 C475 0.942 . S
C482 O473 1.250 . S
C482 O474 1.258 . S
O483 Mn468 2.162 . S
O483 C471 1.281 . S
O484 Mn468 2.297 . S
O484 C471 1.236 . S
N485 Mn469 2.282 . S
N485 C486 1.328 . S
N485 C490 1.318 . S
C486 N485 1.328 . S
C486 C487 1.457 . S
C486 H491 0.929 . S
C487 C486 1.457 . S
C487 C488 1.291 . S
C487 H500 0.931 . S
C488 C487 1.291 . S
C488 C489 1.373 . S
C488 H501 0.929 . S
C489 C488 1.373 . S
C489 C490 1.396 . S
C489 C496 1.403 . S
C490 C480 1.476 . S
C490 N485 1.318 . S
C490 C489 1.396 . S
H491 C486 0.929 . S
O492 Mn468 2.385 1_554 S
O492 C470 1.234 . S
O493 Mn468 2.209 1_554 S
O493 Mn469 2.215 . S
O493 C470 1.283 . S
O494 Mn468 2.094 1_554 S
O494 C472 1.240 . S
O495 Mn469 2.117 . S
O495 C472 1.264 . S
C496 C489 1.403 . S
C496 C497 1.399 1_655 S
C496 H502 0.929 1_655 S
C497 C477 1.449 . S
C497 C496 1.399 1_455 S
C497 H503 0.930 . S
H498 C478 0.931 . S
H499 C479 0.930 . S
H500 C487 0.931 . S
H501 C488 0.929 . S
H502 C496 0.929 1_455 S
H503 C497 0.930 . S
Mn504 O509 2.095 . S
Mn504 O519 2.162 . S
Mn504 O520 2.297 . S
Mn504 O528 2.385 . S
Mn504 O529 2.209 . S
Mn504 O530 2.094 . S
Mn505 O510 2.121 . S
Mn505 N512 2.257 . S
Mn505 N521 2.282 . S
Mn505 O529 2.215 . S
Mn505 O531 2.117 . S
C506 O528 1.234 . S
C506 O529 1.283 . S
C507 O519 1.281 . S
C507 O520 1.236 . S
C508 O530 1.240 . S
C508 O531 1.264 . S
O509 Mn504 2.095 . S
O509 C518 1.250 . S
O510 Mn505 2.121 . S
O510 C518 1.258 . S
C511 N512 1.326 . S
C511 C515 1.460 . S
C511 H517 0.929 . S
N512 Mn505 2.257 . S
N512 C511 1.326 . S
N512 C516 1.362 . S
C513 C514 1.258 . S
C513 C516 1.431 . S
C513 C533 1.449 . S
C514 C513 1.258 . S
C514 C515 1.477 . S
C514 H534 0.931 . S
C515 C511 1.460 . S
C515 C514 1.477 . S
C515 H535 0.930 . S
C516 N512 1.362 . S
C516 C513 1.431 . S
C516 C526 1.476 . S
H517 C511 0.929 . S
C518 O509 1.250 . S
C518 O510 1.258 . S
O519 Mn504 2.162 . S
O519 C507 1.281 . S
O520 Mn504 2.297 . S
O520 C507 1.236 . S
N521 Mn505 2.282 . S
N521 C522 1.328 . S
N521 C526 1.318 . S
C522 N521 1.328 . S
C522 C523 1.457 1_554 S
C522 H527 0.929 . S
C523 C522 1.457 1_556 S
C523 C524 1.291 . S
C523 H536 0.931 . S
C524 C523 1.291 . S
C524 C525 1.373 1_556 S
C524 H537 0.929 . S
C525 C524 1.373 1_554 S
C525 C526 1.396 . S
C525 C532 1.403 . S
C526 C516 1.476 . S
C526 N521 1.318 . S
C526 C525 1.396 . S
H527 C522 0.929 . S
O528 Mn504 2.385 . S
O528 C506 1.234 . S
O529 Mn504 2.209 . S
O529 Mn505 2.215 . S
O529 C506 1.283 . S
O530 Mn504 2.094 . S
O530 C508 1.240 . S
O531 Mn505 2.117 . S
O531 C508 1.264 . S
C532 C525 1.403 . S
C532 C533 1.399 . S
C532 H538 0.929 1_554 S
C533 C513 1.449 . S
C533 C532 1.399 . S
C533 H539 0.930 . S
H534 C514 0.931 . S
H535 C515 0.930 . S
H536 C523 0.931 . S
H537 C524 0.929 . S
H538 C532 0.929 1_556 S
H539 C533 0.930 . S
Mn540 O545 2.095 . S
Mn540 O555 2.162 . S
Mn540 O556 2.297 . S
Mn540 O564 2.385 . S
Mn540 O565 2.209 . S
Mn540 O566 2.094 . S
Mn541 O546 2.121 . S
Mn541 N548 2.257 . S
Mn541 N557 2.282 . S
Mn541 O565 2.215 . S
Mn541 O567 2.117 . S
C542 O564 1.234 . S
C542 O565 1.283 . S
C543 O555 1.281 . S
C543 O556 1.236 . S
C544 O566 1.240 . S
C544 O567 1.264 . S
O545 Mn540 2.095 . S
O545 C554 1.250 . S
O546 Mn541 2.121 . S
O546 C554 1.258 . S
C547 N548 1.326 . S
C547 C551 1.460 1_655 S
C547 H553 0.929 . S
N548 Mn541 2.257 . S
N548 C547 1.326 . S
N548 C552 1.362 . S
C549 C550 1.258 . S
C549 C552 1.431 1_455 S
C549 C569 1.449 . S
C550 C549 1.258 . S
C550 C551 1.477 . S
C550 H570 0.931 . S
C551 C547 1.460 1_455 S
C551 C550 1.477 . S
C551 H571 0.930 . S
C552 N548 1.362 . S
C552 C549 1.431 1_655 S
C552 C562 1.476 . S
H553 C547 0.929 . S
C554 O545 1.250 . S
C554 O546 1.258 . S
O555 Mn540 2.162 . S
O555 C543 1.281 . S
O556 Mn540 2.297 . S
O556 C543 1.236 . S
N557 Mn541 2.282 . S
N557 C558 1.328 . S
N557 C562 1.318 . S
C558 N557 1.328 . S
C558 C559 1.457 . S
C558 H563 0.929 . S
C559 C558 1.457 . S
C559 C560 1.291 . S
C559 H572 0.931 . S
C560 C559 1.291 . S
C560 C561 1.373 . S
C560 H573 0.929 . S
C561 C560 1.373 . S
C561 C562 1.396 . S
C561 C568 1.403 . S
C562 C552 1.476 . S
C562 N557 1.318 . S
C562 C561 1.396 . S
H563 C558 0.929 . S
O564 Mn540 2.385 . S
O564 C542 1.234 . S
O565 Mn540 2.209 . S
O565 Mn541 2.215 . S
O565 C542 1.283 . S
O566 Mn540 2.094 . S
O566 C544 1.240 . S
O567 Mn541 2.117 . S
O567 C544 1.264 . S
C568 C561 1.403 . S
C568 C569 1.399 1_655 S
C568 H574 0.929 1_655 S
C569 C549 1.449 . S
C569 C568 1.399 1_455 S
C569 H575 0.930 . S
H570 C550 0.931 . S
H571 C551 0.930 . S
H572 C559 0.931 . S
H573 C560 0.929 . S
H574 C568 0.929 1_455 S
H575 C569 0.930 . S
Mn576 O581 2.095 . S
Mn576 O591 2.162 . S
Mn576 O592 2.297 . S
Mn576 O600 2.385 . S
Mn576 O601 2.209 1_545 S
Mn576 O602 2.094 . S
Mn577 O582 2.121 . S
Mn577 N584 2.257 . S
Mn577 N593 2.282 . S
Mn577 O601 2.215 . S
Mn577 O603 2.117 1_565 S
C578 O600 1.234 1_565 S
C578 O601 1.283 . S
C579 O591 1.281 . S
C579 O592 1.236 . S
C580 O602 1.240 . S
C580 O603 1.264 . S
O581 Mn576 2.095 . S
O581 C590 1.250 1_545 S
O582 Mn577 2.121 . S
O582 C590 1.258 . S
C583 N584 1.326 . S
C583 C587 1.460 . S
C583 H589 0.929 . S
N584 Mn577 2.257 . S
N584 C583 1.326 . S
N584 C588 1.362 . S
C585 C586 1.258 . S
C585 C588 1.431 . S
C585 C605 1.449 . S
C586 C585 1.258 . S
C586 C587 1.477 . S
C586 H606 0.931 . S
C587 C583 1.460 . S
C587 C586 1.477 . S
C587 H607 0.930 . S
C588 N584 1.362 . S
C588 C585 1.431 . S
C588 C598 1.476 . S
H589 C583 0.929 . S
C590 O581 1.250 1_565 S
C590 O582 1.258 . S
O591 Mn576 2.162 . S
O591 C579 1.281 . S
O592 Mn576 2.297 . S
O592 C579 1.236 . S
N593 Mn577 2.282 . S
N593 C594 1.328 . S
N593 C598 1.318 . S
C594 N593 1.328 . S
C594 C595 1.457 1_554 S
C594 H599 0.929 . S
C595 C594 1.457 1_556 S
C595 C596 1.291 . S
C595 H608 0.931 . S
C596 C595 1.291 . S
C596 C597 1.373 1_556 S
C596 H609 0.929 . S
C597 C596 1.373 1_554 S
C597 C598 1.396 . S
C597 C604 1.403 . S
C598 C588 1.476 . S
C598 N593 1.318 . S
C598 C597 1.396 . S
H599 C594 0.929 . S
O600 Mn576 2.385 . S
O600 C578 1.234 1_545 S
O601 Mn576 2.209 1_565 S
O601 Mn577 2.215 . S
O601 C578 1.283 . S
O602 Mn576 2.094 . S
O602 C580 1.240 . S
O603 Mn577 2.117 1_545 S
O603 C580 1.264 . S
C604 C597 1.403 . S
C604 C605 1.399 . S
C604 H610 0.929 1_554 S
C605 C585 1.449 . S
C605 C604 1.399 . S
C605 H611 0.930 . S
H606 C586 0.931 . S
H607 C587 0.930 . S
H608 C595 0.931 . S
H609 C596 0.929 . S
H610 C604 0.929 1_556 S
H611 C605 0.930 . S
Mn612 O617 2.095 . S
Mn612 O627 2.162 . S
Mn612 O628 2.297 . S
Mn612 O636 2.385 . S
Mn612 O637 2.209 . S
Mn612 O638 2.094 . S
Mn613 O618 2.121 . S
Mn613 N620 2.257 . S
Mn613 N629 2.282 . S
Mn613 O637 2.215 . S
Mn613 O639 2.117 . S
C614 O636 1.234 . S
C614 O637 1.283 . S
C615 O627 1.281 . S
C615 O628 1.236 . S
C616 O638 1.240 . S
C616 O639 1.264 . S
O617 Mn612 2.095 . S
O617 C626 1.250 . S
O618 Mn613 2.121 . S
O618 C626 1.258 . S
C619 N620 1.326 . S
C619 C623 1.460 . S
C619 H625 0.929 . S
N620 Mn613 2.257 . S
N620 C619 1.326 . S
N620 C624 1.362 . S
C621 C622 1.258 . S
C621 C624 1.431 . S
C621 C641 1.449 . S
C622 C621 1.258 . S
C622 C623 1.477 . S
C622 H642 0.931 . S
C623 C619 1.460 . S
C623 C622 1.477 . S
C623 H643 0.930 . S
C624 N620 1.362 . S
C624 C621 1.431 . S
C624 C634 1.476 . S
H625 C619 0.929 . S
C626 O617 1.250 . S
C626 O618 1.258 . S
O627 Mn612 2.162 . S
O627 C615 1.281 . S
O628 Mn612 2.297 . S
O628 C615 1.236 . S
N629 Mn613 2.282 . S
N629 C630 1.328 . S
N629 C634 1.318 . S
C630 N629 1.328 . S
C630 C631 1.457 . S
C630 H635 0.929 . S
C631 C630 1.457 . S
C631 C632 1.291 . S
C631 H644 0.931 . S
C632 C631 1.291 . S
C632 C633 1.373 . S
C632 H645 0.929 . S
C633 C632 1.373 . S
C633 C634 1.396 . S
C633 C640 1.403 . S
C634 C624 1.476 . S
C634 N629 1.318 . S
C634 C633 1.396 . S
H635 C630 0.929 . S
O636 Mn612 2.385 . S
O636 C614 1.234 . S
O637 Mn612 2.209 . S
O637 Mn613 2.215 . S
O637 C614 1.283 . S
O638 Mn612 2.094 . S
O638 C616 1.240 . S
O639 Mn613 2.117 . S
O639 C616 1.264 . S
C640 C633 1.403 . S
C640 C641 1.399 . S
C640 H646 0.929 . S
C641 C621 1.449 . S
C641 C640 1.399 . S
C641 H647 0.930 . S
H642 C622 0.931 . S
H643 C623 0.930 . S
H644 C631 0.931 . S
H645 C632 0.929 . S
H646 C640 0.929 . S
H647 C641 0.930 . S
Mn648 O653 2.095 . S
Mn648 O663 2.162 . S
Mn648 O664 2.297 . S
Mn648 O672 2.385 . S
Mn648 O673 2.209 . S
Mn648 O674 2.094 . S
Mn649 O654 2.121 . S
Mn649 N656 2.257 . S
Mn649 N665 2.282 . S
Mn649 O673 2.215 . S
Mn649 O675 2.117 . S
C650 O672 1.234 . S
C650 O673 1.283 . S
C651 O663 1.281 . S
C651 O664 1.236 . S
C652 O674 1.240 . S
C652 O675 1.264 . S
O653 Mn648 2.095 . S
O653 C662 1.250 . S
O654 Mn649 2.121 . S
O654 C662 1.258 . S
C655 N656 1.326 . S
C655 C659 1.460 . S
C655 H661 0.929 . S
N656 Mn649 2.257 . S
N656 C655 1.326 . S
N656 C660 1.362 . S
C657 C658 1.258 . S
C657 C660 1.431 . S
C657 C677 1.449 . S
C658 C657 1.258 . S
C658 C659 1.477 . S
C658 H678 0.931 . S
C659 C655 1.460 . S
C659 C658 1.477 . S
C659 H679 0.930 . S
C660 N656 1.362 . S
C660 C657 1.431 . S
C660 C670 1.476 . S
H661 C655 0.929 . S
C662 O653 1.250 . S
C662 O654 1.258 . S
O663 Mn648 2.162 . S
O663 C651 1.281 . S
O664 Mn648 2.297 . S
O664 C651 1.236 . S
N665 Mn649 2.282 . S
N665 C666 1.328 . S
N665 C670 1.318 . S
C666 N665 1.328 . S
C666 C667 1.457 . S
C666 H671 0.929 . S
C667 C666 1.457 . S
C667 C668 1.291 . S
C667 H680 0.931 . S
C668 C667 1.291 . S
C668 C669 1.373 . S
C668 H681 0.929 . S
C669 C668 1.373 . S
C669 C670 1.396 . S
C669 C676 1.403 . S
C670 C660 1.476 . S
C670 N665 1.318 . S
C670 C669 1.396 . S
H671 C666 0.929 . S
O672 Mn648 2.385 . S
O672 C650 1.234 . S
O673 Mn648 2.209 . S
O673 Mn649 2.215 . S
O673 C650 1.283 . S
O674 Mn648 2.094 . S
O674 C652 1.240 . S
O675 Mn649 2.117 . S
O675 C652 1.264 . S
C676 C669 1.403 . S
C676 C677 1.399 . S
C676 H682 0.929 . S
C677 C657 1.449 . S
C677 C676 1.399 . S
C677 H683 0.930 . S
H678 C658 0.931 . S
H679 C659 0.930 . S
H680 C667 0.931 . S
H681 C668 0.929 . S
H682 C676 0.929 . S
H683 C677 0.930 . S
Mn684 O689 2.095 1_545 S
Mn684 O699 2.162 . S
Mn684 O700 2.297 . S
Mn684 O708 2.385 . S
Mn684 O709 2.209 1_545 S
Mn684 O710 2.094 . S
Mn685 O690 2.121 . S
Mn685 N692 2.257 . S
Mn685 N701 2.282 . S
Mn685 O709 2.215 . S
Mn685 O711 2.117 . S
C686 O708 1.234 1_565 S
C686 O709 1.283 . S
C687 O699 1.281 . S
C687 O700 1.236 . S
C688 O710 1.240 . S
C688 O711 1.264 1_545 S
O689 Mn684 2.095 1_565 S
O689 C698 1.250 . S
O690 Mn685 2.121 . S
O690 C698 1.258 . S
C691 N692 1.326 . S
C691 C695 1.460 . S
C691 H697 0.929 . S
N692 Mn685 2.257 . S
N692 C691 1.326 . S
N692 C696 1.362 . S
C693 C694 1.258 . S
C693 C696 1.431 . S
C693 C713 1.449 . S
C694 C693 1.258 . S
C694 C695 1.477 . S
C694 H714 0.931 . S
C695 C691 1.460 . S
C695 C694 1.477 . S
C695 H715 0.930 . S
C696 N692 1.362 . S
C696 C693 1.431 . S
C696 C706 1.476 . S
H697 C691 0.929 . S
C698 O689 1.250 . S
C698 O690 1.258 . S
O699 Mn684 2.162 . S
O699 C687 1.281 . S
O700 Mn684 2.297 . S
O700 C687 1.236 . S
N701 Mn685 2.282 . S
N701 C702 1.328 . S
N701 C706 1.318 . S
C702 N701 1.328 . S
C702 C703 1.457 . S
C702 H707 0.929 . S
C703 C702 1.457 . S
C703 C704 1.291 . S
C703 H716 0.931 . S
C704 C703 1.291 . S
C704 C705 1.373 . S
C704 H717 0.929 . S
C705 C704 1.373 . S
C705 C706 1.396 . S
C705 C712 1.403 . S
C706 C696 1.476 . S
C706 N701 1.318 . S
C706 C705 1.396 . S
H707 C702 0.929 . S
O708 Mn684 2.385 . S
O708 C686 1.234 1_545 S
O709 Mn684 2.209 1_565 S
O709 Mn685 2.215 . S
O709 C686 1.283 . S
O710 Mn684 2.094 . S
O710 C688 1.240 . S
O711 Mn685 2.117 . S
O711 C688 1.264 1_565 S
C712 C705 1.403 . S
C712 C713 1.399 . S
C712 H718 0.929 . S
C713 C693 1.449 . S
C713 C712 1.399 . S
C713 H719 0.930 . S
H714 C694 0.931 . S
H715 C695 0.930 . S
H716 C703 0.931 . S
H717 C704 0.929 . S
H718 C712 0.929 . S
H719 C713 0.930 . S
Mn720 O725 2.095 1_554 S
Mn720 O735 2.162 . S
Mn720 O736 2.297 . S
Mn720 O744 2.385 . S
Mn720 O745 2.209 1_554 S
Mn720 O746 2.094 . S
Mn721 O726 2.121 . S
Mn721 N728 2.257 . S
Mn721 N737 2.282 . S
Mn721 O745 2.215 . S
Mn721 O747 2.117 . S
C722 O744 1.234 1_556 S
C722 O745 1.283 . S
C723 O735 1.281 . S
C723 O736 1.236 . S
C724 O746 1.240 . S
C724 O747 1.264 1_554 S
O725 Mn720 2.095 1_556 S
O725 C734 1.250 . S
O726 Mn721 2.121 . S
O726 C734 1.258 . S
C727 N728 1.326 . S
C727 C731 1.460 . S
C727 H733 0.929 . S
N728 Mn721 2.257 . S
N728 C727 1.326 . S
N728 C732 1.362 . S
C729 C730 1.258 . S
C729 C732 1.431 . S
C729 C749 1.449 . S
C730 C729 1.258 . S
C730 C731 1.477 . S
C730 H750 0.931 . S
C731 C727 1.460 . S
C731 C730 1.477 . S
C731 H751 0.930 . S
C732 N728 1.362 . S
C732 C729 1.431 . S
C732 C742 1.476 . S
H733 C727 0.929 . S
C734 O725 1.250 . S
C734 O726 1.258 . S
O735 Mn720 2.162 . S
O735 C723 1.281 . S
O736 Mn720 2.297 . S
O736 C723 1.236 . S
N737 Mn721 2.282 . S
N737 C738 1.328 . S
N737 C742 1.318 . S
C738 N737 1.328 . S
C738 C739 1.457 . S
C738 H743 0.929 . S
C739 C738 1.457 . S
C739 C740 1.291 . S
C739 H752 0.931 . S
C740 C739 1.291 . S
C740 C741 1.373 . S
C740 H753 0.929 . S
C741 C740 1.373 . S
C741 C742 1.396 . S
C741 C748 1.403 . S
C742 C732 1.476 . S
C742 N737 1.318 . S
C742 C741 1.396 . S
H743 C738 0.929 . S
O744 Mn720 2.385 . S
O744 C722 1.234 1_554 S
O745 Mn720 2.209 1_556 S
O745 Mn721 2.215 . S
O745 C722 1.283 . S
O746 Mn720 2.094 . S
O746 C724 1.240 . S
O747 Mn721 2.117 . S
O747 C724 1.264 1_556 S
C748 C741 1.403 . S
C748 C749 1.399 . S
C748 H754 0.929 . S
C749 C729 1.449 . S
C749 C748 1.399 . S
C749 H755 0.930 . S
H750 C730 0.931 . S
H751 C731 0.930 . S
H752 C739 0.931 . S
H753 C740 0.929 . S
H754 C748 0.929 . S
H755 C749 0.930 . S
Mn756 O761 2.095 . S
Mn756 O771 2.162 . S
Mn756 O772 2.297 . S
Mn756 O780 2.385 . S
Mn756 O781 2.209 . S
Mn756 O782 2.094 . S
Mn757 O762 2.121 . S
Mn757 N764 2.257 . S
Mn757 N773 2.282 . S
Mn757 O781 2.215 . S
Mn757 O783 2.117 . S
C758 O780 1.234 . S
C758 O781 1.283 . S
C759 O771 1.281 . S
C759 O772 1.236 . S
C760 O782 1.240 . S
C760 O783 1.264 . S
O761 Mn756 2.095 . S
O761 C770 1.250 . S
O762 Mn757 2.121 . S
O762 C770 1.258 . S
C763 N764 1.326 . S
C763 C767 1.460 1_556 S
C763 H769 0.929 . S
N764 Mn757 2.257 . S
N764 C763 1.326 . S
N764 C768 1.362 . S
C765 C766 1.258 . S
C765 C768 1.431 1_554 S
C765 C785 1.449 . S
C766 C765 1.258 . S
C766 C767 1.477 . S
C766 H786 0.931 . S
C767 C763 1.460 1_554 S
C767 C766 1.477 . S
C767 H787 0.930 . S
C768 N764 1.362 . S
C768 C765 1.431 1_556 S
C768 C778 1.476 . S
H769 C763 0.929 . S
C770 O761 1.250 . S
C770 O762 1.258 . S
O771 Mn756 2.162 . S
O771 C759 1.281 . S
O772 Mn756 2.297 . S
O772 C759 1.236 . S
N773 Mn757 2.282 . S
N773 C774 1.328 . S
N773 C778 1.318 . S
C774 N773 1.328 . S
C774 C775 1.457 . S
C774 H779 0.929 . S
C775 C774 1.457 . S
C775 C776 1.291 . S
C775 H788 0.931 . S
C776 C775 1.291 . S
C776 C777 1.373 . S
C776 H789 0.929 . S
C777 C776 1.373 . S
C777 C778 1.396 . S
C777 C784 1.403 . S
C778 C768 1.476 . S
C778 N773 1.318 . S
C778 C777 1.396 . S
H779 C774 0.929 . S
O780 Mn756 2.385 . S
O780 C758 1.234 . S
O781 Mn756 2.209 . S
O781 Mn757 2.215 . S
O781 C758 1.283 . S
O782 Mn756 2.094 . S
O782 C760 1.240 . S
O783 Mn757 2.117 . S
O783 C760 1.264 . S
C784 C777 1.403 . S
C784 C785 1.399 1_556 S
C784 H790 0.929 1_556 S
C785 C765 1.449 . S
C785 C784 1.399 1_554 S
C785 H791 0.930 . S
H786 C766 0.931 . S
H787 C767 0.930 . S
H788 C775 0.931 . S
H789 C776 0.929 . S
H790 C784 0.929 1_554 S
H791 C785 0.930 . S
Mn792 O797 2.095 . S
Mn792 O807 2.162 . S
Mn792 O808 2.297 . S
Mn792 O816 2.385 . S
Mn792 O817 2.209 . S
Mn792 O818 2.094 . S
Mn793 O798 2.121 . S
Mn793 N800 2.257 . S
Mn793 N809 2.282 . S
Mn793 O817 2.215 . S
Mn793 O819 2.117 . S
C794 O816 1.234 . S
C794 O817 1.283 . S
C795 O807 1.281 . S
C795 O808 1.236 . S
C796 O818 1.240 . S
C796 O819 1.264 . S
O797 Mn792 2.095 . S
O797 C806 1.250 . S
O798 Mn793 2.121 . S
O798 C806 1.258 . S
C799 N800 1.326 . S
C799 C803 1.460 . S
C799 H805 0.929 . S
N800 Mn793 2.257 . S
N800 C799 1.326 . S
N800 C804 1.362 . S
C801 C802 1.258 . S
C801 C804 1.431 . S
C801 C821 1.449 . S
C802 C801 1.258 . S
C802 C803 1.477 . S
C802 H822 0.931 . S
C803 C799 1.460 . S
C803 C802 1.477 . S
C803 H823 0.930 . S
C804 N800 1.362 . S
C804 C801 1.431 . S
C804 C814 1.476 . S
H805 C799 0.929 . S
C806 O797 1.250 . S
C806 O798 1.258 . S
O807 Mn792 2.162 . S
O807 C795 1.281 . S
O808 Mn792 2.297 . S
O808 C795 1.236 . S
N809 Mn793 2.282 . S
N809 C810 1.328 . S
N809 C814 1.318 . S
C810 N809 1.328 . S
C810 C811 1.457 . S
C810 H815 0.929 . S
C811 C810 1.457 . S
C811 C812 1.291 . S
C811 H824 0.931 . S
C812 C811 1.291 . S
C812 C813 1.373 . S
C812 H825 0.929 . S
C813 C812 1.373 . S
C813 C814 1.396 . S
C813 C820 1.403 . S
C814 C804 1.476 . S
C814 N809 1.318 . S
C814 C813 1.396 . S
H815 C810 0.929 . S
O816 Mn792 2.385 . S
O816 C794 1.234 . S
O817 Mn792 2.209 . S
O817 Mn793 2.215 . S
O817 C794 1.283 . S
O818 Mn792 2.094 . S
O818 C796 1.240 . S
O819 Mn793 2.117 . S
O819 C796 1.264 . S
C820 C813 1.403 . S
C820 C821 1.399 . S
C820 H826 0.929 . S
C821 C801 1.449 . S
C821 C820 1.399 . S
C821 H827 0.930 . S
H822 C802 0.931 . S
H823 C803 0.930 . S
H824 C811 0.931 . S
H825 C812 0.929 . S
H826 C820 0.929 . S
H827 C821 0.930 . S
Mn828 O833 2.095 . S
Mn828 O843 2.162 . S
Mn828 O844 2.297 . S
Mn828 O852 2.385 . S
Mn828 O853 2.209 . S
Mn828 O854 2.094 . S
Mn829 O834 2.121 . S
Mn829 N836 2.257 . S
Mn829 N845 2.282 . S
Mn829 O853 2.215 . S
Mn829 O855 2.117 . S
C830 O852 1.234 . S
C830 O853 1.283 . S
C831 O843 1.281 . S
C831 O844 1.236 . S
C832 O854 1.240 . S
C832 O855 1.264 . S
O833 Mn828 2.095 . S
O833 C842 1.250 . S
O834 Mn829 2.121 . S
O834 C842 1.258 . S
C835 N836 1.326 . S
C835 C839 1.460 . S
C835 H841 0.929 . S
N836 Mn829 2.257 . S
N836 C835 1.326 . S
N836 C840 1.362 . S
C837 C838 1.258 . S
C837 C840 1.431 . S
C837 C857 1.449 . S
C838 C837 1.258 . S
C838 C839 1.477 . S
C838 H858 0.931 . S
C839 C835 1.460 . S
C839 C838 1.477 . S
C839 H859 0.930 . S
C840 N836 1.362 . S
C840 C837 1.431 . S
C840 C850 1.476 . S
H841 C835 0.929 . S
C842 O833 1.250 . S
C842 O834 1.258 . S
O843 Mn828 2.162 . S
O843 C831 1.281 . S
O844 Mn828 2.297 . S
O844 C831 1.236 . S
N845 Mn829 2.282 . S
N845 C846 1.328 . S
N845 C850 1.318 . S
C846 N845 1.328 . S
C846 C847 1.457 . S
C846 H851 0.929 . S
C847 C846 1.457 . S
C847 C848 1.291 . S
C847 H860 0.931 . S
C848 C847 1.291 . S
C848 C849 1.373 . S
C848 H861 0.929 . S
C849 C848 1.373 . S
C849 C850 1.396 . S
C849 C856 1.403 . S
C850 C840 1.476 . S
C850 N845 1.318 . S
C850 C849 1.396 . S
H851 C846 0.929 . S
O852 Mn828 2.385 . S
O852 C830 1.234 . S
O853 Mn828 2.209 . S
O853 Mn829 2.215 . S
O853 C830 1.283 . S
O854 Mn828 2.094 . S
O854 C832 1.240 . S
O855 Mn829 2.117 . S
O855 C832 1.264 . S
C856 C849 1.403 . S
C856 C857 1.399 . S
C856 H862 0.929 . S
C857 C837 1.449 . S
C857 C856 1.399 . S
C857 H863 0.930 . S
H858 C838 0.931 . S
H859 C839 0.930 . S
H860 C847 0.931 . S
H861 C848 0.929 . S
H862 C856 0.929 . S
H863 C857 0.930 . S
Fe864 O866 1.918 . S
Fe864 O869 1.997 . S
Fe864 O870 2.002 . S
Fe864 O875 1.976 . S
Fe864 O878 1.996 . S
Fe865 O866 1.918 . S
Fe865 O873 1.997 . S
Fe865 O876 1.996 . S
Fe865 O880 1.976 . S
Fe865 O883 2.002 . S
O866 Fe864 1.918 . S
O866 Fe865 1.918 . S
O866 Fe867 1.918 . S
Fe867 O866 1.918 . S
Fe867 O868 2.002 . S
Fe867 O877 1.976 . S
Fe867 O881 1.996 . S
Fe867 O884 1.997 . S
O868 Fe867 2.002 . S
O868 C885 1.295 . S
O869 Fe864 1.997 . S
O869 C885 1.235 . S
O870 Fe864 2.002 . S
O870 C871 1.295 . S
C871 O870 1.295 . S
C871 O873 1.235 . S
C872 O877 1.287 . S
C872 O878 1.255 . S
O873 Fe865 1.997 . S
O873 C871 1.235 . S
C874 O880 1.287 . S
C874 O881 1.255 . S
O875 Fe864 1.976 . S
O875 C882 1.287 . S
O876 Fe865 1.996 . S
O876 C882 1.255 . S
O877 Fe867 1.976 . S
O877 C872 1.287 . S
O878 Fe864 1.996 . S
O878 C872 1.255 . S
C879 O883 1.295 . S
C879 O884 1.235 . S
O880 Fe865 1.976 . S
O880 C874 1.287 . S
O881 Fe867 1.996 . S
O881 C874 1.255 . S
C882 O875 1.287 . S
C882 O876 1.255 . S
O883 Fe865 2.002 . S
O883 C879 1.295 . S
O884 Fe867 1.997 . S
O884 C879 1.235 . S
C885 O868 1.295 . S
C885 O869 1.235 . S
Fe886 O888 1.918 . S
Fe886 O891 1.997 . S
Fe886 O892 2.002 . S
Fe886 O897 1.976 . S
Fe886 O900 1.996 . S
Fe887 O888 1.918 . S
Fe887 O895 1.997 . S
Fe887 O898 1.996 . S
Fe887 O902 1.976 1_565 S
Fe887 O905 2.002 . S
O888 Fe886 1.918 . S
O888 Fe887 1.918 . S
O888 Fe889 1.918 . S
Fe889 O888 1.918 . S
Fe889 O890 2.002 . S
Fe889 O899 1.976 . S
Fe889 O903 1.996 . S
Fe889 O906 1.997 . S
O890 Fe889 2.002 . S
O890 C907 1.295 . S
O891 Fe886 1.997 . S
O891 C907 1.235 . S
O892 Fe886 2.002 . S
O892 C893 1.295 . S
C893 O892 1.295 . S
C893 O895 1.235 . S
C894 O899 1.287 . S
C894 O900 1.255 . S
O895 Fe887 1.997 . S
O895 C893 1.235 . S
C896 O902 1.287 . S
C896 O903 1.255 1_545 S
O897 Fe886 1.976 . S
O897 C904 1.287 . S
O898 Fe887 1.996 . S
O898 C904 1.257 . S
O899 Fe889 1.976 . S
O899 C894 1.287 . S
O900 Fe886 1.996 . S
O900 C894 1.255 . S
C901 O905 1.295 . S
C901 O906 1.235 . S
O902 Fe887 1.976 1_545 S
O902 C896 1.287 . S
O903 Fe889 1.996 . S
O903 C896 1.255 1_565 S
C904 O897 1.287 . S
C904 O898 1.257 . S
O905 Fe887 2.002 . S
O905 C901 1.295 . S
O906 Fe889 1.997 . S
O906 C901 1.235 . S
C907 O890 1.295 . S
C907 O891 1.235 . S
Fe908 O910 1.918 . S
Fe908 O913 1.997 . S
Fe908 O914 2.002 . S
Fe908 O919 1.974 1_565 S
Fe908 O922 1.996 . S
Fe909 O910 1.918 . S
Fe909 O917 1.997 . S
Fe909 O920 1.996 . S
Fe909 O924 1.976 . S
Fe909 O927 2.002 . S
O910 Fe908 1.918 . S
O910 Fe909 1.918 . S
O910 Fe911 1.918 . S
Fe911 O910 1.918 . S
Fe911 O912 2.002 . S
Fe911 O921 1.976 . S
Fe911 O925 1.996 . S
Fe911 O928 1.997 . S
O912 Fe911 2.002 . S
O912 C929 1.295 . S
O913 Fe908 1.997 . S
O913 C929 1.235 . S
O914 Fe908 2.002 . S
O914 C915 1.295 . S
C915 O914 1.295 . S
C915 O917 1.235 . S
C916 O921 1.287 . S
C916 O922 1.255 . S
O917 Fe909 1.997 . S
O917 C915 1.235 . S
C918 O924 1.287 . S
C918 O925 1.255 . S
O919 Fe908 1.974 1_545 S
O919 C926 1.287 . S
O920 Fe909 1.996 . S
O920 C926 1.255 1_565 S
O921 Fe911 1.976 . S
O921 C916 1.287 . S
O922 Fe908 1.996 . S
O922 C916 1.255 . S
C923 O927 1.295 . S
C923 O928 1.235 . S
O924 Fe909 1.976 . S
O924 C918 1.287 . S
O925 Fe911 1.996 . S
O925 C918 1.255 . S
C926 O919 1.287 . S
C926 O920 1.255 1_545 S
O927 Fe909 2.002 . S
O927 C923 1.295 . S
O928 Fe911 1.997 . S
O928 C923 1.235 . S
C929 O912 1.295 . S
C929 O913 1.235 . S
Fe930 O932 1.918 . S
Fe930 O935 1.997 . S
Fe930 O936 2.002 . S
Fe930 O941 1.976 . S
Fe930 O944 1.996 . S
Fe931 O932 1.918 . S
Fe931 O939 1.997 . S
Fe931 O942 1.996 . S
Fe931 O946 1.976 . S
Fe931 O949 2.002 . S
O932 Fe930 1.918 . S
O932 Fe931 1.918 . S
O932 Fe933 1.918 . S
Fe933 O932 1.918 . S
Fe933 O934 2.002 . S
Fe933 O943 1.976 1_556 S
Fe933 O947 1.996 . S
Fe933 O950 1.997 . S
O934 Fe933 2.002 . S
O934 C951 1.295 . S
O935 Fe930 1.997 . S
O935 C951 1.235 . S
O936 Fe930 2.002 . S
O936 C937 1.295 . S
C937 O936 1.295 . S
C937 O939 1.235 . S
C938 O943 1.287 . S
C938 O944 1.255 1_554 S
O939 Fe931 1.997 . S
O939 C937 1.235 . S
C940 O946 1.287 1_565 S
C940 O947 1.256 1_565 S
O941 Fe930 1.976 . S
O941 C948 1.287 . S
O942 Fe931 1.996 . S
O942 C948 1.255 . S
O943 Fe933 1.976 1_554 S
O943 C938 1.287 . S
O944 Fe930 1.996 . S
O944 C938 1.255 1_556 S
C945 O949 1.295 . S
C945 O950 1.235 . S
O946 Fe931 1.976 . S
O946 C940 1.287 1_545 S
O947 Fe933 1.996 . S
O947 C940 1.256 1_545 S
C948 O941 1.287 . S
C948 O942 1.255 . S
O949 Fe931 2.002 . S
O949 C945 1.295 . S
O950 Fe933 1.997 . S
O950 C945 1.235 . S
C951 O934 1.295 . S
C951 O935 1.235 . S
Fe952 O954 1.918 . S
Fe952 O957 1.997 . S
Fe952 O958 2.002 . S
Fe952 O963 1.976 . S
Fe952 O966 1.996 . S
Fe953 O954 1.918 . S
Fe953 O961 1.997 . S
Fe953 O964 1.996 . S
Fe953 O968 1.976 . S
Fe953 O971 2.002 . S
O954 Fe952 1.918 . S
O954 Fe953 1.918 . S
O954 Fe955 1.918 . S
Fe955 O954 1.918 . S
Fe955 O956 2.002 . S
Fe955 O965 1.976 1_556 S
Fe955 O969 1.996 . S
Fe955 O972 1.997 . S
O956 Fe955 2.002 . S
O956 C973 1.295 . S
O957 Fe952 1.997 . S
O957 C973 1.235 . S
O958 Fe952 2.002 . S
O958 C959 1.295 . S
C959 O958 1.295 . S
C959 O961 1.235 . S
C960 O965 1.287 . S
C960 O966 1.255 1_554 S
O961 Fe953 1.997 . S
O961 C959 1.235 . S
C962 O968 1.287 . S
C962 O969 1.255 . S
O963 Fe952 1.976 . S
O963 C970 1.287 . S
O964 Fe953 1.996 . S
O964 C970 1.255 . S
O965 Fe955 1.976 1_554 S
O965 C960 1.287 . S
O966 Fe952 1.996 . S
O966 C960 1.255 1_556 S
C967 O971 1.295 . S
C967 O972 1.235 . S
O968 Fe953 1.976 . S
O968 C962 1.287 . S
O969 Fe955 1.996 . S
O969 C962 1.255 . S
C970 O963 1.287 . S
C970 O964 1.255 . S
O971 Fe953 2.002 . S
O971 C967 1.295 . S
O972 Fe955 1.997 . S
O972 C967 1.235 . S
C973 O956 1.295 . S
C973 O957 1.235 . S
Fe974 O976 1.918 . S
Fe974 O979 1.997 . S
Fe974 O980 2.002 . S
Fe974 O985 1.976 . S
Fe974 O988 1.996 . S
Fe975 O976 1.918 . S
Fe975 O983 1.997 . S
Fe975 O986 1.996 . S
Fe975 O990 1.976 . S
Fe975 O993 2.002 . S
O976 Fe974 1.918 . S
O976 Fe975 1.918 . S
O976 Fe977 1.918 . S
Fe977 O976 1.918 . S
Fe977 O978 2.002 . S
Fe977 O987 1.976 . S
Fe977 O991 1.996 . S
Fe977 O994 1.997 1_655 S
O978 Fe977 2.002 . S
O978 C995 1.295 . S
O979 Fe974 1.997 . S
O979 C995 1.235 . S
O980 Fe974 2.002 . S
O980 C981 1.295 . S
C981 O980 1.295 . S
C981 O983 1.235 . S
C982 O987 1.287 . S
C982 O988 1.255 . S
O983 Fe975 1.997 . S
O983 C981 1.235 . S
C984 O990 1.287 . S
C984 O991 1.255 . S
O985 Fe974 1.976 . S
O985 C992 1.287 . S
O986 Fe975 1.996 . S
O986 C992 1.255 . S
O987 Fe977 1.976 . S
O987 C982 1.287 . S
O988 Fe974 1.996 . S
O988 C982 1.255 . S
C989 O993 1.295 1_455 S
C989 O994 1.235 . S
O990 Fe975 1.976 . S
O990 C984 1.287 . S
O991 Fe977 1.996 . S
O991 C984 1.255 . S
C992 O985 1.287 . S
C992 O986 1.255 . S
O993 Fe975 2.002 . S
O993 C989 1.295 1_655 S
O994 Fe977 1.997 1_455 S
O994 C989 1.235 . S
C995 O978 1.295 . S
C995 O979 1.235 . S
Fe996 O998 1.918 . S
Fe996 O1001 1.997 . S
Fe996 O1002 2.002 . S
Fe996 O1007 1.976 . S
Fe996 O1010 1.996 . S
Fe997 O998 1.918 . S
Fe997 O1005 1.997 . S
Fe997 O1008 1.996 . S
Fe997 O1012 1.976 . S
Fe997 O1015 2.002 . S
O998 Fe996 1.918 . S
O998 Fe997 1.918 . S
O998 Fe999 1.918 . S
Fe999 O998 1.918 . S
Fe999 O1000 2.002 . S
Fe999 O1009 1.976 . S
Fe999 O1013 1.996 . S
Fe999 O1016 1.997 . S
O1000 Fe999 2.002 . S
O1000 C1017 1.295 . S
O1001 Fe996 1.997 . S
O1001 C1017 1.235 . S
O1002 Fe996 2.002 . S
O1002 C1003 1.295 . S
C1003 O1002 1.295 . S
C1003 O1005 1.235 . S
C1004 O1009 1.287 . S
C1004 O1010 1.255 . S
O1005 Fe997 1.997 . S
O1005 C1003 1.235 . S
C1006 O1012 1.285 1_455 S
C1006 O1013 1.240 1_455 S
O1007 Fe996 1.976 . S
O1007 C1014 1.287 . S
O1008 Fe997 1.996 . S
O1008 C1014 1.255 . S
O1009 Fe999 1.976 . S
O1009 C1004 1.287 . S
O1010 Fe996 1.996 . S
O1010 C1004 1.255 . S
C1011 O1015 1.295 . S
C1011 O1016 1.235 . S
O1012 Fe997 1.976 . S
O1012 C1006 1.285 1_655 S
O1013 Fe999 1.996 . S
O1013 C1006 1.240 1_655 S
C1014 O1007 1.287 . S
C1014 O1008 1.255 . S
O1015 Fe997 2.002 . S
O1015 C1011 1.295 . S
O1016 Fe999 1.997 . S
O1016 C1011 1.235 . S
C1017 O1000 1.295 . S
C1017 O1001 1.235 . S
Fe1018 O1020 1.918 . S
Fe1018 O1023 1.997 1_655 S
Fe1018 O1024 2.002 . S
Fe1018 O1029 1.976 . S
Fe1018 O1032 1.996 . S
Fe1019 O1020 1.918 . S
Fe1019 O1027 1.997 1_556 S
Fe1019 O1030 1.996 . S
Fe1019 O1034 1.976 . S
Fe1019 O1037 2.002 . S
O1020 Fe1018 1.918 . S
O1020 Fe1019 1.918 . S
O1020 Fe1021 1.918 . S
Fe1021 O1020 1.918 . S
Fe1021 O1022 2.002 . S
Fe1021 O1031 1.976 . S
Fe1021 O1035 1.996 . S
Fe1021 O1038 1.997 1_565 S
O1022 Fe1021 2.002 . S
O1022 C1039 1.295 1_655 S
O1023 Fe1018 1.997 1_455 S
O1023 C1039 1.235 . S
O1024 Fe1018 2.002 . S
O1024 C1025 1.295 1_556 S
C1025 O1024 1.295 1_554 S
C1025 O1027 1.235 . S
C1026 O1031 1.287 . S
C1026 O1032 1.255 . S
O1027 Fe1019 1.997 1_554 S
O1027 C1025 1.235 . S
C1028 O1034 1.287 . S
C1028 O1035 1.255 . S
O1029 Fe1018 1.976 . S
O1029 C1036 1.287 . S
O1030 Fe1019 1.996 . S
O1030 C1036 1.255 . S
O1031 Fe1021 1.976 . S
O1031 C1026 1.287 . S
O1032 Fe1018 1.996 . S
O1032 C1026 1.255 . S
C1033 O1037 1.295 1_545 S
C1033 O1038 1.235 . S
O1034 Fe1019 1.976 . S
O1034 C1028 1.287 . S
O1035 Fe1021 1.996 . S
O1035 C1028 1.255 . S
C1036 O1029 1.287 . S
C1036 O1030 1.255 . S
O1037 Fe1019 2.002 . S
O1037 C1033 1.295 1_565 S
O1038 Fe1021 1.997 1_545 S
O1038 C1033 1.235 . S
C1039 O1022 1.295 1_455 S
C1039 O1023 1.235 . S
Fe1040 O1042 1.918 . S
Fe1040 O1045 1.997 . S
Fe1040 O1046 2.002 . S
Fe1040 O1051 1.974 . S
Fe1040 O1054 1.996 . S
Fe1041 O1042 1.918 . S
Fe1041 O1049 1.997 . S
Fe1041 O1052 1.996 . S
Fe1041 O1056 1.976 . S
Fe1041 O1059 2.002 . S
O1042 Fe1040 1.918 . S
O1042 Fe1041 1.918 . S
O1042 Fe1043 1.918 . S
Fe1043 O1042 1.918 . S
Fe1043 O1044 2.002 . S
Fe1043 O1053 1.976 1_655 S
Fe1043 O1057 1.996 . S
Fe1043 O1060 1.997 . S
O1044 Fe1043 2.002 . S
O1044 C1061 1.295 . S
O1045 Fe1040 1.997 . S
O1045 C1061 1.235 . S
O1046 Fe1040 2.002 . S
O1046 C1047 1.295 . S
C1047 O1046 1.295 . S
C1047 O1049 1.235 . S
C1048 O1053 1.287 . S
C1048 O1054 1.255 1_455 S
O1049 Fe1041 1.997 . S
O1049 C1047 1.235 . S
C1050 O1056 1.287 . S
C1050 O1057 1.255 . S
O1051 Fe1040 1.974 . S
O1051 C1058 1.287 1_545 S
O1052 Fe1041 1.996 . S
O1052 C1058 1.255 1_545 S
O1053 Fe1043 1.976 1_455 S
O1053 C1048 1.287 . S
O1054 Fe1040 1.996 . S
O1054 C1048 1.255 1_655 S
C1055 O1059 1.295 . S
C1055 O1060 1.235 . S
O1056 Fe1041 1.976 . S
O1056 C1050 1.287 . S
O1057 Fe1043 1.996 . S
O1057 C1050 1.255 . S
C1058 O1051 1.287 1_565 S
C1058 O1052 1.255 1_565 S
O1059 Fe1041 2.002 . S
O1059 C1055 1.295 . S
O1060 Fe1043 1.997 . S
O1060 C1055 1.235 . S
C1061 O1044 1.295 . S
C1061 O1045 1.235 . S
Fe1062 O1064 1.918 . S
Fe1062 O1067 1.997 . S
Fe1062 O1068 2.002 . S
Fe1062 O1073 1.976 . S
Fe1062 O1076 1.996 . S
Fe1063 O1064 1.918 . S
Fe1063 O1071 1.997 . S
Fe1063 O1074 1.996 . S
Fe1063 O1078 1.976 . S
Fe1063 O1081 2.002 . S
O1064 Fe1062 1.918 . S
O1064 Fe1063 1.918 . S
O1064 Fe1065 1.918 . S
Fe1065 O1064 1.918 . S
Fe1065 O1066 2.002 . S
Fe1065 O1075 1.976 . S
Fe1065 O1079 1.996 . S
Fe1065 O1082 1.997 . S
O1066 Fe1065 2.002 . S
O1066 C1083 1.295 . S
O1067 Fe1062 1.997 . S
O1067 C1083 1.235 . S
O1068 Fe1062 2.002 . S
O1068 C1069 1.295 . S
C1069 O1068 1.295 . S
C1069 O1071 1.235 . S
C1070 O1075 1.287 . S
C1070 O1076 1.255 . S
O1071 Fe1063 1.997 . S
O1071 C1069 1.235 . S
C1072 O1078 1.287 . S
C1072 O1079 1.255 . S
O1073 Fe1062 1.976 . S
O1073 C1080 1.287 . S
O1074 Fe1063 1.996 . S
O1074 C1080 1.255 . S
O1075 Fe1065 1.976 . S
O1075 C1070 1.287 . S
O1076 Fe1062 1.996 . S
O1076 C1070 1.255 . S
C1077 O1081 1.295 . S
C1077 O1082 1.235 . S
O1078 Fe1063 1.976 . S
O1078 C1072 1.287 . S
O1079 Fe1065 1.996 . S
O1079 C1072 1.255 . S
C1080 O1073 1.287 . S
C1080 O1074 1.255 . S
O1081 Fe1063 2.002 . S
O1081 C1077 1.295 . S
O1082 Fe1065 1.997 . S
O1082 C1077 1.235 . S
C1083 O1066 1.295 . S
C1083 O1067 1.235 . S
Fe1084 O1086 1.918 . S
Fe1084 O1089 1.997 . S
Fe1084 O1090 2.002 . S
Fe1084 O1095 1.976 . S
Fe1084 O1098 1.996 . S
Fe1085 O1086 1.918 . S
Fe1085 O1093 1.997 . S
Fe1085 O1096 1.996 . S
Fe1085 O1100 1.976 . S
Fe1085 O1103 2.002 . S
O1086 Fe1084 1.918 . S
O1086 Fe1085 1.918 . S
O1086 Fe1087 1.918 . S
Fe1087 O1086 1.918 . S
Fe1087 O1088 2.002 . S
Fe1087 O1097 1.976 . S
Fe1087 O1101 1.996 . S
Fe1087 O1104 1.997 1_565 S
O1088 Fe1087 2.002 . S
O1088 C1105 1.295 . S
O1089 Fe1084 1.997 . S
O1089 C1105 1.235 . S
O1090 Fe1084 2.002 . S
O1090 C1091 1.296 . S
C1091 O1090 1.296 . S
C1091 O1093 1.235 . S
C1092 O1097 1.287 . S
C1092 O1098 1.255 . S
O1093 Fe1085 1.997 . S
O1093 C1091 1.235 . S
C1094 O1100 1.287 . S
C1094 O1101 1.255 . S
O1095 Fe1084 1.976 . S
O1095 C1102 1.287 . S
O1096 Fe1085 1.996 . S
O1096 C1102 1.255 . S
O1097 Fe1087 1.976 . S
O1097 C1092 1.287 . S
O1098 Fe1084 1.996 . S
O1098 C1092 1.255 . S
C1099 O1103 1.295 1_545 S
C1099 O1104 1.235 . S
O1100 Fe1085 1.976 . S
O1100 C1094 1.287 . S
O1101 Fe1087 1.996 . S
O1101 C1094 1.255 . S
C1102 O1095 1.287 . S
C1102 O1096 1.255 . S
O1103 Fe1085 2.002 . S
O1103 C1099 1.295 1_565 S
O1104 Fe1087 1.997 1_545 S
O1104 C1099 1.235 . S
C1105 O1088 1.295 . S
C1105 O1089 1.235 . S
Fe1106 O1108 1.918 . S
Fe1106 O1111 1.997 . S
Fe1106 O1112 2.002 . S
Fe1106 O1117 1.976 . S
Fe1106 O1120 1.996 . S
Fe1107 O1108 1.918 . S
Fe1107 O1115 1.997 . S
Fe1107 O1118 1.996 . S
Fe1107 O1122 1.976 . S
Fe1107 O1125 2.002 . S
O1108 Fe1106 1.918 . S
O1108 Fe1107 1.918 . S
O1108 Fe1109 1.918 . S
Fe1109 O1108 1.918 . S
Fe1109 O1110 2.002 . S
Fe1109 O1119 1.976 . S
Fe1109 O1123 1.996 . S
Fe1109 O1126 1.997 . S
O1110 Fe1109 2.002 . S
O1110 C1127 1.295 . S
O1111 Fe1106 1.997 . S
O1111 C1127 1.235 . S
O1112 Fe1106 2.002 . S
O1112 C1113 1.295 . S
C1113 O1112 1.295 . S
C1113 O1115 1.235 . S
C1114 O1119 1.287 . S
C1114 O1120 1.255 . S
O1115 Fe1107 1.997 . S
O1115 C1113 1.235 . S
C1116 O1122 1.287 . S
C1116 O1123 1.255 . S
O1117 Fe1106 1.976 . S
O1117 C1124 1.287 . S
O1118 Fe1107 1.996 . S
O1118 C1124 1.255 . S
O1119 Fe1109 1.976 . S
O1119 C1114 1.287 . S
O1120 Fe1106 1.996 . S
O1120 C1114 1.255 . S
C1121 O1125 1.295 . S
C1121 O1126 1.235 . S
O1122 Fe1107 1.976 . S
O1122 C1116 1.287 . S
O1123 Fe1109 1.996 . S
O1123 C1116 1.255 . S
C1124 O1117 1.287 . S
C1124 O1118 1.255 . S
O1125 Fe1107 2.002 . S
O1125 C1121 1.295 . S
O1126 Fe1109 1.997 . S
O1126 C1121 1.235 . S
C1127 O1110 1.295 . S
C1127 O1111 1.235 . S
Fe1128 O1130 1.918 . S
Fe1128 O1133 1.997 . S
Fe1128 O1134 2.002 . S
Fe1128 O1139 1.976 . S
Fe1128 O1142 1.996 . S
Fe1129 O1130 1.918 . S
Fe1129 O1137 1.997 . S
Fe1129 O1140 1.996 . S
Fe1129 O1144 1.976 1_556 S
Fe1129 O1147 2.002 . S
O1130 Fe1128 1.918 . S
O1130 Fe1129 1.918 . S
O1130 Fe1131 1.918 . S
Fe1131 O1130 1.918 . S
Fe1131 O1132 2.002 . S
Fe1131 O1141 1.967 1_455 S
Fe1131 O1145 1.996 . S
Fe1131 O1148 1.997 . S
O1132 Fe1131 2.002 . S
O1132 C1149 1.295 . S
O1133 Fe1128 1.997 . S
O1133 C1149 1.235 . S
O1134 Fe1128 2.002 . S
O1134 C1135 1.295 . S
C1135 O1134 1.295 . S
C1135 O1137 1.235 . S
C1136 O1141 1.287 . S
C1136 O1142 1.255 1_655 S
O1137 Fe1129 1.997 . S
O1137 C1135 1.235 . S
C1138 O1144 1.287 . S
C1138 O1145 1.255 1_554 S
O1139 Fe1128 1.976 . S
O1139 C1146 1.287 . S
O1140 Fe1129 1.996 . S
O1140 C1146 1.255 . S
O1141 Fe1131 1.967 1_655 S
O1141 C1136 1.287 . S
O1142 Fe1128 1.996 . S
O1142 C1136 1.255 1_455 S
C1143 O1147 1.295 . S
C1143 O1148 1.235 . S
O1144 Fe1129 1.976 1_554 S
O1144 C1138 1.287 . S
O1145 Fe1131 1.996 . S
O1145 C1138 1.255 1_556 S
C1146 O1139 1.287 . S
C1146 O1140 1.255 . S
O1147 Fe1129 2.002 . S
O1147 C1143 1.295 . S
O1148 Fe1131 1.997 . S
O1148 C1143 1.235 . S
C1149 O1132 1.295 . S
C1149 O1133 1.235 . S
Fe1150 O1152 1.918 . S
Fe1150 O1155 1.997 . S
Fe1150 O1156 2.002 . S
Fe1150 O1161 1.976 . S
Fe1150 O1164 1.996 . S
Fe1151 O1152 1.918 . S
Fe1151 O1159 1.997 . S
Fe1151 O1162 1.996 . S
Fe1151 O1166 1.976 . S
Fe1151 O1169 2.002 . S
O1152 Fe1150 1.918 . S
O1152 Fe1151 1.918 . S
O1152 Fe1153 1.918 . S
Fe1153 O1152 1.918 . S
Fe1153 O1154 2.002 . S
Fe1153 O1163 1.976 . S
Fe1153 O1167 1.996 . S
Fe1153 O1170 1.997 . S
O1154 Fe1153 2.002 . S
O1154 C1171 1.295 . S
O1155 Fe1150 1.997 . S
O1155 C1171 1.235 . S
O1156 Fe1150 2.002 . S
O1156 C1157 1.295 . S
C1157 O1156 1.295 . S
C1157 O1159 1.235 . S
C1158 O1163 1.287 . S
C1158 O1164 1.255 . S
O1159 Fe1151 1.997 . S
O1159 C1157 1.235 . S
C1160 O1166 1.287 . S
C1160 O1167 1.255 . S
O1161 Fe1150 1.976 . S
O1161 C1168 1.287 . S
O1162 Fe1151 1.996 . S
O1162 C1168 1.255 . S
O1163 Fe1153 1.976 . S
O1163 C1158 1.287 . S
O1164 Fe1150 1.996 . S
O1164 C1158 1.255 . S
C1165 O1169 1.295 . S
C1165 O1170 1.235 . S
O1166 Fe1151 1.976 . S
O1166 C1160 1.287 . S
O1167 Fe1153 1.996 . S
O1167 C1160 1.255 . S
C1168 O1161 1.287 . S
C1168 O1162 1.255 . S
O1169 Fe1151 2.002 . S
O1169 C1165 1.295 . S
O1170 Fe1153 1.997 . S
O1170 C1165 1.235 . S
C1171 O1154 1.295 . S
C1171 O1155 1.235 . S
Fe1172 O1174 1.918 . S
Fe1172 O1177 1.997 . S
Fe1172 O1178 2.002 . S
Fe1172 O1183 1.976 . S
Fe1172 O1186 1.996 . S
Fe1173 O1174 1.918 . S
Fe1173 O1181 1.997 . S
Fe1173 O1184 1.996 . S
Fe1173 O1188 1.976 . S
Fe1173 O1191 2.002 . S
O1174 Fe1172 1.918 . S
O1174 Fe1173 1.918 . S
O1174 Fe1175 1.918 . S
Fe1175 O1174 1.918 . S
Fe1175 O1176 2.002 . S
Fe1175 O1185 1.976 . S
Fe1175 O1189 1.996 . S
Fe1175 O1192 1.997 . S
O1176 Fe1175 2.002 . S
O1176 C1193 1.295 . S
O1177 Fe1172 1.997 . S
O1177 C1193 1.235 . S
O1178 Fe1172 2.002 . S
O1178 C1179 1.295 . S
C1179 O1178 1.295 . S
C1179 O1181 1.235 . S
C1180 O1185 1.287 . S
C1180 O1186 1.255 . S
O1181 Fe1173 1.997 . S
O1181 C1179 1.235 . S
C1182 O1188 1.287 . S
C1182 O1189 1.255 . S
O1183 Fe1172 1.976 . S
O1183 C1190 1.287 . S
O1184 Fe1173 1.996 . S
O1184 C1190 1.255 . S
O1185 Fe1175 1.976 . S
O1185 C1180 1.287 . S
O1186 Fe1172 1.996 . S
O1186 C1180 1.255 . S
C1187 O1191 1.295 . S
C1187 O1192 1.235 . S
O1188 Fe1173 1.976 . S
O1188 C1182 1.287 . S
O1189 Fe1175 1.996 . S
O1189 C1182 1.255 . S
C1190 O1183 1.287 . S
C1190 O1184 1.255 . S
O1191 Fe1173 2.002 . S
O1191 C1187 1.295 . S
O1192 Fe1175 1.997 . S
O1192 C1187 1.235 . S
C1193 O1176 1.295 . S
C1193 O1177 1.235 . S
Fe1194 O1196 1.918 . S
Fe1194 O1199 1.997 . S
Fe1194 O1200 2.002 . S
Fe1194 O1205 1.976 . S
Fe1194 O1208 1.996 . S
Fe1195 O1196 1.918 . S
Fe1195 O1203 1.997 . S
Fe1195 O1206 1.996 . S
Fe1195 O1210 1.976 . S
Fe1195 O1213 2.002 . S
O1196 Fe1194 1.918 . S
O1196 Fe1195 1.918 . S
O1196 Fe1197 1.918 . S
Fe1197 O1196 1.918 . S
Fe1197 O1198 2.002 . S
Fe1197 O1207 1.976 . S
Fe1197 O1211 1.996 . S
Fe1197 O1214 1.997 . S
O1198 Fe1197 2.002 . S
O1198 C1215 1.295 . S
O1199 Fe1194 1.997 . S
O1199 C1215 1.235 . S
O1200 Fe1194 2.002 . S
O1200 C1201 1.295 . S
C1201 O1200 1.295 . S
C1201 O1203 1.235 . S
C1202 O1207 1.287 . S
C1202 O1208 1.255 . S
O1203 Fe1195 1.997 . S
O1203 C1201 1.235 . S
C1204 O1210 1.287 . S
C1204 O1211 1.255 . S
O1205 Fe1194 1.976 . S
O1205 C1212 1.287 . S
O1206 Fe1195 1.996 . S
O1206 C1212 1.255 . S
O1207 Fe1197 1.976 . S
O1207 C1202 1.287 . S
O1208 Fe1194 1.996 . S
O1208 C1202 1.255 . S
C1209 O1213 1.295 . S
C1209 O1214 1.235 . S
O1210 Fe1195 1.976 . S
O1210 C1204 1.287 . S
O1211 Fe1197 1.996 . S
O1211 C1204 1.255 . S
C1212 O1205 1.287 . S
C1212 O1206 1.255 . S
O1213 Fe1195 2.002 . S
O1213 C1209 1.295 . S
O1214 Fe1197 1.997 . S
O1214 C1209 1.235 . S
C1215 O1198 1.295 . S
C1215 O1199 1.235 . S
C882 C4 1.097 . S
C39 C894 1.287 . S
C929 C86 1.143 . S
C938 C110 1.152 . S
C893 C146 1.190 . S
C194 C918 1.146 . S
C937 C219 1.322 . S
C256 C879 1.153 1_556 S
C292 C872 1.105 . S
C896 C326 1.176 . S
C915 C363 1.348 . S
C940 C410 1.172 . S
C901 C302 1.105 . S
C926 C327 1.314 . S
C362 C945 1.163 . S
C885 C400 1.148 1_545 S
C436 C874 1.146 . S
C471 C973 1.335 . S
C989 C506 1.142 . S
C1003 C554 1.108 . S
C580 C871 1.108 1_655 S
C614 C923 1.209 . S
C1006 C507 1.348 . S
C970 C662 1.178 . S
C1026 C50 1.145 . S
C1050 C3 1.346 . S
C112 C1083 1.294 . S
C74 C1091 1.284 1_556 S
C254 C1061 1.327 . S
C220 C1072 1.353 . S
C1092 C183 1.367 . S
C158 C1025 1.183 . S
C698 C1028 1.157 . S
C1058 C542 1.285 . S
C1069 C579 1.321 . S
C1099 C472 1.296 . S
C1047 C688 1.294 . S
C1080 C543 1.387 1_545 S
C1094 C578 1.366 . S
C482 C1033 1.213 . S
C1036 C734 1.148 . S
C399 C1124 1.379 . S
C1136 C758 1.302 . S
C328 C1157 1.304 . S
C1039 C374 1.195 . S
C1077 C794 1.308 . S
C1160 C759 1.384 1_455 S
C832 C1127 1.326 . S
C76 C1182 1.121 . S
C111 C960 1.307 . S
C984 C14 1.118 . S
C38 C1014 1.177 . S
C218 C959 1.175 . S
C266 C995 1.147 1_556 S
C1011 C147 1.357 . S
C1193 C184 1.125 . S
C1190 C760 1.098 . S
C962 C722 1.164 . S
C992 C831 1.311 . S
C806 C1004 1.173 . S
C967 C770 1.112 . S
C723 C981 1.298 . S
C1017 C830 1.196 . S
C796 C1179 1.148 . S
C1180 C544 1.131 . S
C615 C907 1.300 . S
C916 C686 1.142 . S
C446 C951 1.115 . S
C1187 C652 1.115 . S
C982 C470 1.198 . S
C948 C687 1.303 . S
C904 C590 1.149 1_455 S
C122 C1201 1.164 . S
C75 C1113 1.373 1_556 S
C40 C1149 1.266 . S
C1168 C2 1.303 . S
C1114 C182 1.328 . S
C148 C1138 1.366 . S
C1165 C255 1.392 . S
C230 C1202 1.205 . S
C1209 C518 1.148 . S
C434 C1121 1.267 . S
C651 C1135 1.353 . S
C1158 C616 1.319 . S
C1116 C508 1.364 . S
C435 C1146 1.425 . S
C1171 C650 1.323 . S
C1204 C626 1.191 . S
C1215 C338 1.149 . S
C1055 C795 1.364 . S
C290 C1070 1.333 . S
C724 C1102 1.295 . S
C1212 C842 1.203 . S
C1143 C398 1.301 . S
C1105 C291 1.365 . S
C1048 C364 1.355 . S
