# Generated by pormake.
# Topology myd, (4,6)-cn, num edge types: 1
# Building blocks:
#     Node 0, Type 0, BuildingBlock: KOZSID_clean_sbu_0, # of connection points: 4
#     Node 1, Type 0, BuildingBlock: KOZSID_clean_sbu_0, # of connection points: 4
#     Node 2, Type 0, BuildingBlock: KOZSID_clean_sbu_0, # of connection points: 4
#     Node 3, Type 0, BuildingBlock: KOZSID_clean_sbu_0, # of connection points: 4
#     Node 4, Type 0, BuildingBlock: KOZSID_clean_sbu_0, # of connection points: 4
#     Node 5, Type 0, BuildingBlock: KOZSID_clean_sbu_0, # of connection points: 4
#     Node 6, Type 0, BuildingBlock: KOZSID_clean_sbu_0, # of connection points: 4
#     Node 7, Type 0, BuildingBlock: KOZSID_clean_sbu_0, # of connection points: 4
#     Node 8, Type 0, BuildingBlock: KOZSID_clean_sbu_0, # of connection points: 4
#     Node 9, Type 0, BuildingBlock: KOZSID_clean_sbu_0, # of connection points: 4
#     Node 10, Type 0, BuildingBlock: KOZSID_clean_sbu_0, # of connection points: 4
#     Node 11, Type 0, BuildingBlock: KOZSID_clean_sbu_0, # of connection points: 4
#     Node 12, Type 1, BuildingBlock: JUFBIX_clean_sbu_0, # of connection points: 6
#     Node 13, Type 1, BuildingBlock: JUFBIX_clean_sbu_0, # of connection points: 6
#     Node 14, Type 1, BuildingBlock: JUFBIX_clean_sbu_0, # of connection points: 6
#     Node 15, Type 1, BuildingBlock: JUFBIX_clean_sbu_0, # of connection points: 6
#     Node 16, Type 1, BuildingBlock: JUFBIX_clean_sbu_0, # of connection points: 6
#     Node 17, Type 1, BuildingBlock: JUFBIX_clean_sbu_0, # of connection points: 6
#     Node 18, Type 1, BuildingBlock: JUFBIX_clean_sbu_0, # of connection points: 6
#     Node 19, Type 1, BuildingBlock: JUFBIX_clean_sbu_0, # of connection points: 6
#     Edge 20, Type (0, 1), BuildingBlock: XIVTED_clean_linker_0, # of connection points: 2
#     Edge 21, Type (0, 1), BuildingBlock: XIVTED_clean_linker_0, # of connection points: 2
#     Edge 22, Type (0, 1), BuildingBlock: XIVTED_clean_linker_0, # of connection points: 2
#     Edge 23, Type (0, 1), BuildingBlock: XIVTED_clean_linker_0, # of connection points: 2
#     Edge 24, Type (0, 1), BuildingBlock: XIVTED_clean_linker_0, # of connection points: 2
#     Edge 25, Type (0, 1), BuildingBlock: XIVTED_clean_linker_0, # of connection points: 2
#     Edge 26, Type (0, 1), BuildingBlock: XIVTED_clean_linker_0, # of connection points: 2
#     Edge 27, Type (0, 1), BuildingBlock: XIVTED_clean_linker_0, # of connection points: 2
#     Edge 28, Type (0, 1), BuildingBlock: XIVTED_clean_linker_0, # of connection points: 2
#     Edge 29, Type (0, 1), BuildingBlock: XIVTED_clean_linker_0, # of connection points: 2
#     Edge 30, Type (0, 1), BuildingBlock: XIVTED_clean_linker_0, # of connection points: 2
#     Edge 31, Type (0, 1), BuildingBlock: XIVTED_clean_linker_0, # of connection points: 2
#     Edge 32, Type (0, 1), BuildingBlock: XIVTED_clean_linker_0, # of connection points: 2
#     Edge 33, Type (0, 1), BuildingBlock: XIVTED_clean_linker_0, # of connection points: 2
#     Edge 34, Type (0, 1), BuildingBlock: XIVTED_clean_linker_0, # of connection points: 2
#     Edge 35, Type (0, 1), BuildingBlock: XIVTED_clean_linker_0, # of connection points: 2
#     Edge 36, Type (0, 1), BuildingBlock: XIVTED_clean_linker_0, # of connection points: 2
#     Edge 37, Type (0, 1), BuildingBlock: XIVTED_clean_linker_0, # of connection points: 2
#     Edge 38, Type (0, 1), BuildingBlock: XIVTED_clean_linker_0, # of connection points: 2
#     Edge 39, Type (0, 1), BuildingBlock: XIVTED_clean_linker_0, # of connection points: 2
#     Edge 40, Type (0, 1), BuildingBlock: XIVTED_clean_linker_0, # of connection points: 2
#     Edge 41, Type (0, 1), BuildingBlock: XIVTED_clean_linker_0, # of connection points: 2
#     Edge 42, Type (0, 1), BuildingBlock: XIVTED_clean_linker_0, # of connection points: 2
#     Edge 43, Type (0, 1), BuildingBlock: XIVTED_clean_linker_0, # of connection points: 2
#     Edge 44, Type (0, 1), BuildingBlock: XIVTED_clean_linker_0, # of connection points: 2
#     Edge 45, Type (0, 1), BuildingBlock: XIVTED_clean_linker_0, # of connection points: 2
#     Edge 46, Type (0, 1), BuildingBlock: XIVTED_clean_linker_0, # of connection points: 2
#     Edge 47, Type (0, 1), BuildingBlock: XIVTED_clean_linker_0, # of connection points: 2
#     Edge 48, Type (0, 1), BuildingBlock: XIVTED_clean_linker_0, # of connection points: 2
#     Edge 49, Type (0, 1), BuildingBlock: XIVTED_clean_linker_0, # of connection points: 2
#     Edge 50, Type (0, 1), BuildingBlock: XIVTED_clean_linker_0, # of connection points: 2
#     Edge 51, Type (0, 1), BuildingBlock: XIVTED_clean_linker_0, # of connection points: 2
#     Edge 52, Type (0, 1), BuildingBlock: XIVTED_clean_linker_0, # of connection points: 2
#     Edge 53, Type (0, 1), BuildingBlock: XIVTED_clean_linker_0, # of connection points: 2
#     Edge 54, Type (0, 1), BuildingBlock: XIVTED_clean_linker_0, # of connection points: 2
#     Edge 55, Type (0, 1), BuildingBlock: XIVTED_clean_linker_0, # of connection points: 2
#     Edge 56, Type (0, 1), BuildingBlock: XIVTED_clean_linker_0, # of connection points: 2
#     Edge 57, Type (0, 1), BuildingBlock: XIVTED_clean_linker_0, # of connection points: 2
#     Edge 58, Type (0, 1), BuildingBlock: XIVTED_clean_linker_0, # of connection points: 2
#     Edge 59, Type (0, 1), BuildingBlock: XIVTED_clean_linker_0, # of connection points: 2
#     Edge 60, Type (0, 1), BuildingBlock: XIVTED_clean_linker_0, # of connection points: 2
#     Edge 61, Type (0, 1), BuildingBlock: XIVTED_clean_linker_0, # of connection points: 2
#     Edge 62, Type (0, 1), BuildingBlock: XIVTED_clean_linker_0, # of connection points: 2
#     Edge 63, Type (0, 1), BuildingBlock: XIVTED_clean_linker_0, # of connection points: 2
#     Edge 64, Type (0, 1), BuildingBlock: XIVTED_clean_linker_0, # of connection points: 2
#     Edge 65, Type (0, 1), BuildingBlock: XIVTED_clean_linker_0, # of connection points: 2
#     Edge 66, Type (0, 1), BuildingBlock: XIVTED_clean_linker_0, # of connection points: 2
#     Edge 67, Type (0, 1), BuildingBlock: XIVTED_clean_linker_0, # of connection points: 2
# Relax obj value: 0.225
# Max RMSD: 0.222
# Mean RMSD: 0.148
data_MOF--net-myd--node1-KOZSID_clean_sbu_0--node2-JUFBIX_clean_sbu_0--edge1-XIVTED_clean_linker_0
_symmetry_space_group_name_H-M    P1
_symmetry_Int_Tables_number       1
_symmetry_cell_setting            triclinic
loop_
_symmetry_equiv_pos_as_xyz
'x, y, z'
_cell_length_a     49.875621
_cell_length_b     52.855529
_cell_length_c     52.10898
_cell_angle_alpha  91.977636
_cell_angle_beta   87.696446
_cell_angle_gamma 93.236269
loop_
_atom_site_label
_atom_site_type_symbol
_atom_site_fract_x
_atom_site_fract_y
_atom_site_fract_z
_atom_type_partial_charge
C0 C 0.98163 0.2634 0.34942 0.0
C1 C 0.95561 0.26908 0.35689 0.0
C2 C 0.93899 0.25061 0.34602 0.0
C3 C 0.95574 0.23474 0.33258 0.0
N4 N 0.98211 0.24153 0.33487 0.0
Co5 Co 0.01322 0.22607 0.31574 0.0
N6 N 0.9888 0.20355 0.29403 0.0
C7 C 0.96169 0.20087 0.29669 0.0
C8 C 0.95028 0.18448 0.27877 0.0
C9 C 0.97131 0.17625 0.26371 0.0
C10 C 0.99452 0.18804 0.2734 0.0
N11 N 0.04441 0.21148 0.29606 0.0
C12 C 0.045 0.19551 0.27507 0.0
C13 C 0.07118 0.19047 0.26731 0.0
C14 C 0.08766 0.20402 0.28368 0.0
C15 C 0.07074 0.21647 0.30052 0.0
N16 N 0.03747 0.24862 0.33755 0.0
C17 C 0.06454 0.24844 0.33802 0.0
C18 C 0.07583 0.26748 0.35332 0.0
C19 C 0.05481 0.28103 0.36259 0.0
C20 C 0.03177 0.26942 0.35243 0.0
N21 N 0.01353 0.19824 0.34101 0.0
C22 C 0.01437 0.15212 0.36707 0.0
C23 C 0.03805 0.1667 0.36174 0.0
C24 C 0.03716 0.18952 0.34893 0.0
C25 C 0.99016 0.1621 0.36114 0.0
C26 C 0.99019 0.18517 0.34873 0.0
N27 N 0.01284 0.25302 0.29057 0.0
C28 C 0.0353 0.28701 0.2668 0.0
C29 C 0.01122 0.29208 0.25574 0.0
C30 C 0.98807 0.27733 0.26235 0.0
C31 C 0.98929 0.25813 0.27974 0.0
C32 C 0.03573 0.26726 0.28393 0.0
H33 H 0.97088 0.24776 0.28434 0.0
H34 H 0.05466 0.26381 0.29169 0.0
H35 H 0.05598 0.19928 0.34512 0.0
H36 H 0.971 0.19159 0.34517 0.0
C37 C 0.94741 0.21583 0.31464 0.0
C38 C 1.00523 0.27989 0.35562 0.0
C39 C 0.02144 0.18451 0.26194 0.0
C40 C 0.07892 0.23353 0.3202 0.0
H41 H 0.94931 0.28542 0.36818 0.0
H42 H 0.91724 0.24976 0.34652 0.0
H43 H 0.92911 0.1797 0.2764 0.0
H44 H 0.96961 0.1634 0.24718 0.0
H45 H 0.0777 0.1783 0.25141 0.0
H46 H 0.10941 0.20492 0.28318 0.0
H47 H 0.097 0.27213 0.35585 0.0
H48 H 0.05646 0.29825 0.3744 0.0
H49 H 0.05736 0.16005 0.36643 0.0
H50 H 0.97117 0.15203 0.36583 0.0
H51 H 0.05372 0.29798 0.26201 0.0
H52 H 0.96891 0.28087 0.25445 0.0
C53 C 1.00625 0.68963 0.13843 0.0
C54 C 0.97939 0.68144 0.13639 0.0
C55 C 0.96616 0.68947 0.15841 0.0
C56 C 0.98548 0.70212 0.17265 0.0
N57 N 0.01003 0.70307 0.16077 0.0
Co58 Co 0.04354 0.71877 0.17536 0.0
N59 N 0.0229 0.73744 0.20238 0.0
C60 C 0.99732 0.732 0.21041 0.0
C61 C 0.98862 0.74826 0.22968 0.0
C62 C 0.01013 0.76494 0.23402 0.0
C63 C 0.03075 0.75791 0.21696 0.0
N64 N 0.07693 0.73459 0.18991 0.0
C65 C 0.08012 0.75561 0.20524 0.0
C66 C 0.10702 0.76099 0.21016 0.0
C67 C 0.12106 0.74242 0.19763 0.0
C68 C 0.10203 0.72691 0.18567 0.0
N69 N 0.06435 0.69996 0.1484 0.0
C70 C 0.091 0.69673 0.14795 0.0
C71 C 0.09998 0.6835 0.1265 0.0
C72 C 0.07755 0.67758 0.11279 0.0
C73 C 0.056 0.68735 0.12685 0.0
N74 N 0.04206 0.74758 0.15277 0.0
C75 C 0.04157 0.79415 0.12827 0.0
C76 C 0.06507 0.78073 0.12835 0.0
C77 C 0.06487 0.75752 0.14058 0.0
C78 C 0.01801 0.78288 0.13953 0.0
C79 C 0.01865 0.75967 0.15147 0.0
N80 N 0.04483 0.69039 0.19868 0.0
C81 C 0.04936 0.67619 0.24172 0.0
C82 C 0.0402 0.65159 0.23439 0.0
C83 C 0.03447 0.64656 0.20854 0.0
C84 C 0.03728 0.66611 0.19096 0.0
C85 C 0.05132 0.69526 0.22372 0.0
H86 H 0.03246 0.66172 0.17135 0.0
H87 H 0.05712 0.7142 0.23044 0.0
H88 H 0.08346 0.74814 0.14102 0.0
H89 H 1.00038 0.75211 0.16074 0.0
C90 C 0.9809 0.71502 0.19615 0.0
C91 C 0.0279 0.68019 0.12135 0.0
C92 C 0.05793 0.76999 0.21618 0.0
C93 C 0.10737 0.70884 0.16628 0.0
H94 H 0.97041 0.66989 0.12115 0.0
H95 H 0.94499 0.68639 0.16344 0.0
H96 H 0.9687 0.7487 0.23867 0.0
H97 H 0.01052 0.78049 0.24809 0.0
H98 H 0.11567 0.7768 0.22136 0.0
H99 H 0.14267 0.74126 0.19617 0.0
H100 H 0.12042 0.67895 0.1213 0.0
H101 H 0.07687 0.66637 0.09503 0.0
H102 H 0.08367 0.78828 0.11942 0.0
H103 H 0.99933 0.79242 0.14021 0.0
H104 H 0.05375 0.681 0.26155 0.0
H105 H 0.02751 0.62773 0.20202 0.0
C106 C 0.34807 0.98803 0.26667 0.0
C107 C 0.35897 0.9645 0.26703 0.0
C108 C 0.35178 0.95175 0.24469 0.0
C109 C 0.33681 0.96809 0.23205 0.0
N110 N 0.33427 0.99028 0.24503 0.0
Co111 Co 0.31271 0.01856 0.23496 0.0
N112 N 0.29128 0.99615 0.21113 0.0
C113 C 0.29826 0.9732 0.20191 0.0
C114 C 0.2805 0.9624 0.18474 0.0
C115 C 0.26142 0.9798 0.18266 0.0
C116 C 0.26857 1.00037 0.19876 0.0
N117 N 0.2913 0.04712 0.22527 0.0
C118 C 0.26826 0.04702 0.21226 0.0
C119 C 0.26035 0.07158 0.20972 0.0
C120 C 0.27956 0.08752 0.22071 0.0
C121 C 0.29798 0.07194 0.22957 0.0
N122 N 0.33436 0.04073 0.25862 0.0
C123 C 0.33723 0.06616 0.25852 0.0
C124 C 0.35294 0.07613 0.2779 0.0
C125 C 0.3602 0.05564 0.29102 0.0
C126 C 0.34839 0.03433 0.27889 0.0
N127 N 0.33872 0.02617 0.20636 0.0
C128 C 0.37456 0.03549 0.16418 0.0
C129 C 0.34687 0.03711 0.16206 0.0
C130 C 0.32945 0.03223 0.1831 0.0
C131 C 0.38407 0.02903 0.18795 0.0
C132 C 0.36583 0.02475 0.20891 0.0
N133 N 0.28666 0.01079 0.26322 0.0
C134 C 0.25836 0.02402 0.29935 0.0
C135 C 0.24896 0.99885 0.30328 0.0
C136 C 0.25945 0.97985 0.28694 0.0
C137 C 0.27797 0.98619 0.26708 0.0
C138 C 0.27719 0.02956 0.27929 0.0
H139 H 0.28526 0.97106 0.25481 0.0
H140 H 0.28393 0.04907 0.27668 0.0
H141 H 0.30835 0.0332 0.18025 0.0
H142 H 0.37362 0.02018 0.22712 0.0
C143 C 0.32003 0.96143 0.21169 0.0
C144 C 0.35137 0.00826 0.28654 0.0
C145 C 0.25552 0.0247 0.19893 0.0
C146 C 0.32009 0.07973 0.24423 0.0
H147 H 0.37046 0.95707 0.28194 0.0
H148 H 0.35555 0.93229 0.23921 0.0
H149 H 0.28123 0.94402 0.175 0.0
H150 H 0.24465 0.97788 0.17005 0.0
H151 H 0.24296 0.07742 0.20016 0.0
H152 H 0.27987 0.108 0.22229 0.0
H153 H 0.3572 0.09595 0.28292 0.0
H154 H 0.37238 0.05627 0.30778 0.0
H155 H 0.33858 0.04177 0.14402 0.0
H156 H 0.40539 0.02772 0.19044 0.0
H157 H 0.25082 0.03944 0.31127 0.0
H158 H 0.25347 0.96005 0.28941 0.0
C159 C 0.66995 0.45753 0.25297 0.0
C160 C 0.66134 0.43284 0.24639 0.0
C161 C 0.67532 0.41745 0.26085 0.0
C162 C 0.69165 0.43359 0.27526 0.0
N163 N 0.68842 0.45836 0.2714 0.0
Co164 Co 0.71009 0.48826 0.28586 0.0
N165 N 0.73475 0.46574 0.30267 0.0
C166 C 0.7326 0.44011 0.303 0.0
C167 C 0.75159 0.42987 0.31714 0.0
C168 C 0.76674 0.45013 0.32651 0.0
C169 C 0.75622 0.47171 0.31732 0.0
N170 N 0.73199 0.51827 0.29974 0.0
C171 C 0.75436 0.51932 0.31378 0.0
C172 C 0.76402 0.5442 0.31828 0.0
C173 C 0.7468 0.55937 0.30728 0.0
C174 C 0.72785 0.54304 0.29645 0.0
N175 N 0.68527 0.51071 0.26927 0.0
C176 C 0.68515 0.53627 0.27121 0.0
C177 C 0.66636 0.54622 0.25652 0.0
C178 C 0.65426 0.52583 0.24394 0.0
C179 C 0.66651 0.50463 0.25173 0.0
N180 N 0.68639 0.48849 0.31808 0.0
C181 C 0.65381 0.48949 0.3643 0.0
C182 C 0.66204 0.51174 0.35174 0.0
C183 C 0.67811 0.51083 0.32908 0.0
C184 C 0.66233 0.46666 0.35324 0.0
C185 C 0.67829 0.46658 0.33033 0.0
N186 N 0.73359 0.4881 0.25386 0.0
C187 C 0.75492 0.51014 0.21768 0.0
C188 C 0.76567 0.48786 0.20745 0.0
C189 C 0.75988 0.46564 0.22107 0.0
C190 C 0.74399 0.46617 0.24398 0.0
C191 C 0.7392 0.50986 0.24061 0.0
H192 H 0.74029 0.44862 0.25344 0.0
H193 H 0.73157 0.52749 0.24718 0.0
H194 H 0.68368 0.52861 0.32099 0.0
H195 H 0.68377 0.44849 0.323 0.0
C196 C 0.71245 0.42617 0.28997 0.0
C197 C 0.66192 0.47956 0.23982 0.0
C198 C 0.76687 0.49743 0.32361 0.0
C199 C 0.70568 0.55041 0.28351 0.0
H200 H 0.64727 0.42657 0.23192 0.0
H201 H 0.67478 0.39694 0.25988 0.0
H202 H 0.75396 0.41003 0.32047 0.0
H203 H 0.78343 0.44906 0.33899 0.0
H204 H 0.78163 0.55078 0.32856 0.0
H205 H 0.74792 0.57988 0.30725 0.0
H206 H 0.66311 0.56603 0.25392 0.0
H207 H 0.63921 0.52649 0.22962 0.0
H208 H 0.65648 0.53005 0.35958 0.0
H209 H 0.6564 0.4488 0.36197 0.0
H210 H 0.75825 0.52785 0.20789 0.0
H211 H 0.76789 0.44787 0.21436 0.0
C212 C 0.31175 0.40078 1.00283 0.0
C213 C 0.31578 0.41272 0.97966 0.0
C214 C 0.29509 0.40382 0.96444 0.0
C215 C 0.27964 0.387 0.9792 0.0
N216 N 0.28939 0.38507 1.00265 0.0
Co217 Co 0.27572 0.3616 0.02942 0.0
N218 N 0.25735 0.33884 1.00404 0.0
C219 C 0.25061 0.3454 0.98048 0.0
C220 C 0.23687 0.32603 0.96751 0.0
C221 C 0.23463 0.3063 0.98408 0.0
C222 C 0.24729 0.31467 1.00635 0.0
N223 N 0.26263 0.33828 0.05665 0.0
C224 C 0.25338 0.31378 0.05458 0.0
C225 C 0.24775 0.30406 0.07879 0.0
C226 C 0.25269 0.32352 0.09636 0.0
C227 C 0.26143 0.34391 0.08207 0.0
N228 N 0.29407 0.38473 0.05456 0.0
C229 C 0.28877 0.38622 0.08003 0.0
C230 C 0.30615 0.40324 0.09238 0.0
C231 C 0.32348 0.41278 0.07345 0.0
C232 C 0.31559 0.40105 0.05055 0.0
N233 N 0.24241 0.38 0.03416 0.0
C234 C 0.19281 0.40319 0.0362 0.0
C235 C 0.19404 0.3771 0.03885 0.0
C236 C 0.21868 0.366 0.03764 0.0
C237 C 0.21712 0.41769 0.03267 0.0
C238 C 0.24181 0.40573 0.03202 0.0
N239 N 0.30807 0.3424 0.02413 0.0
C240 C 0.34043 0.3154 0.04039 0.0
C241 C 0.34818 0.30768 0.01527 0.0
C242 C 0.33639 0.31875 0.99479 0.0
C243 C 0.31643 0.33589 0.9996 0.0
C244 C 0.32058 0.33305 0.0444 0.0
H245 H 0.30695 0.34302 0.98334 0.0
H246 H 0.31461 0.33839 0.06387 0.0
H247 H 0.21819 0.34574 0.03887 0.0
H248 H 0.26031 0.41716 0.02938 0.0
C249 C 0.2608 0.3684 0.97006 0.0
C250 C 0.32856 0.40526 0.0252 0.0
C251 C 0.2467 0.30036 0.0302 0.0
C252 C 0.27285 0.36694 0.09186 0.0
H253 H 0.3321 0.42611 0.97431 0.0
H254 H 0.29273 0.40783 0.94445 0.0
H255 H 0.22982 0.32603 0.94814 0.0
H256 H 0.22435 0.28806 0.98033 0.0
H257 H 0.24042 0.28503 0.08336 0.0
H258 H 0.25105 0.32261 0.11708 0.0
H259 H 0.30746 0.40682 0.11288 0.0
H260 H 0.34029 0.42622 0.07641 0.0
H261 H 0.17586 0.36506 0.04129 0.0
H262 H 0.21708 0.43802 0.03067 0.0
H263 H 0.34935 0.30761 0.05678 0.0
H264 H 0.34159 0.31329 0.97507 0.0
C265 C 0.22617 0.6542 0.47309 0.0
C266 C 0.22393 0.64532 0.44786 0.0
C267 C 0.24414 0.65753 0.43388 0.0
C268 C 0.25744 0.67316 0.45127 0.0
N269 N 0.24733 0.6713 0.47565 0.0
Co270 Co 0.25903 0.69218 0.50659 0.0
N271 N 0.28555 0.71326 0.48533 0.0
C272 C 0.29121 0.71028 0.45982 0.0
C273 C 0.31104 0.72697 0.4507 0.0
C274 C 0.31857 0.74148 0.47161 0.0
C275 C 0.30267 0.73289 0.49238 0.0
N276 N 0.27034 0.7131 0.53757 0.0
C277 C 0.28847 0.7331 0.53964 0.0
C278 C 0.28967 0.74252 0.56482 0.0
C279 C 0.27205 0.7277 0.57921 0.0
C280 C 0.26096 0.71028 0.5621 0.0
N281 N 0.23245 0.67102 0.52777 0.0
C282 C 0.22842 0.67228 0.55358 0.0
C283 C 0.208 0.65605 0.56249 0.0
C284 C 0.19799 0.64405 0.54104 0.0
C285 C 0.21291 0.65379 0.52024 0.0
N286 N 0.28805 0.66829 0.51259 0.0
C287 C 0.33444 0.64132 0.5219 0.0
C288 C 0.31615 0.64771 0.54187 0.0
C289 C 0.29336 0.661 0.53684 0.0
C290 C 0.32813 0.64745 0.49703 0.0
C291 C 0.30502 0.66048 0.49284 0.0
N292 N 0.23064 0.71636 0.50062 0.0
C293 C 0.19461 0.74246 0.51655 0.0
C294 C 0.19161 0.75212 0.49215 0.0
C295 C 0.20842 0.74312 0.47207 0.0
C296 C 0.22752 0.72547 0.47666 0.0
C297 C 0.21398 0.72475 0.52031 0.0
H298 H 0.23974 0.71958 0.46052 0.0
H299 H 0.2152 0.7181 0.53934 0.0
H300 H 0.28069 0.66563 0.55305 0.0
H301 H 0.30167 0.66437 0.47341 0.0
C302 C 0.27762 0.69155 0.44496 0.0
C303 C 0.20675 0.64715 0.49366 0.0
C304 C 0.30487 0.74381 0.51842 0.0
C305 C 0.24183 0.69101 0.56849 0.0
H306 H 0.20875 0.63205 0.44019 0.0
H307 H 0.2479 0.65606 0.41329 0.0
H308 H 0.3192 0.7283 0.43119 0.0
H309 H 0.33417 0.75657 0.47157 0.0
H310 H 0.30197 0.75847 0.57212 0.0
H311 H 0.26781 0.72944 0.59971 0.0
H312 H 0.20044 0.65408 0.58213 0.0
H313 H 0.18105 0.63032 0.54063 0.0
H314 H 0.31982 0.6433 0.56152 0.0
H315 H 0.34104 0.64229 0.48071 0.0
H316 H 0.18191 0.74833 0.53277 0.0
H317 H 0.20734 0.75004 0.45284 0.0
C318 C 0.78442 0.882 0.47502 0.0
C319 C 0.78676 0.89506 0.45232 0.0
C320 C 0.76578 0.88599 0.43752 0.0
C321 C 0.75141 0.86843 0.45224 0.0
N322 N 0.76201 0.86625 0.47526 0.0
Co323 Co 0.74709 0.84466 0.50307 0.0
N324 N 0.72759 0.82163 0.47875 0.0
C325 C 0.72125 0.82757 0.45487 0.0
C326 C 0.70601 0.80859 0.44288 0.0
C327 C 0.70223 0.78985 0.46049 0.0
C328 C 0.71548 0.79839 0.4824 0.0
N329 N 0.73273 0.82352 0.53151 0.0
C330 C 0.72151 0.79963 0.53086 0.0
C331 C 0.71496 0.79178 0.55566 0.0
C332 C 0.72111 0.81198 0.57204 0.0
C333 C 0.73148 0.83087 0.55654 0.0
N334 N 0.76652 0.86813 0.527 0.0
C335 C 0.75925 0.87269 0.5517 0.0
C336 C 0.77408 0.89272 0.56247 0.0
C337 C 0.79192 0.90088 0.54324 0.0
C338 C 0.78778 0.88456 0.52214 0.0
N339 N 0.71464 0.86482 0.50661 0.0
C340 C 0.66603 0.8897 0.50402 0.0
C341 C 0.66608 0.8639 0.50898 0.0
C342 C 0.69019 0.85201 0.51019 0.0
C343 C 0.69116 0.90326 0.50186 0.0
C344 C 0.71524 0.89045 0.50319 0.0
N345 N 0.77832 0.82364 0.49891 0.0
C346 C 0.80921 0.79585 0.51653 0.0
C347 C 0.81663 0.78662 0.49178 0.0
C348 C 0.80523 0.79726 0.47078 0.0
C349 C 0.78629 0.8156 0.47472 0.0
C350 C 0.79024 0.81454 0.51966 0.0
H351 H 0.77723 0.82251 0.45809 0.0
H352 H 0.78454 0.82102 0.53887 0.0
H353 H 0.68865 0.83199 0.5131 0.0
H354 H 0.73426 0.90108 0.50068 0.0
C355 C 0.73193 0.8501 0.44374 0.0
C356 C 0.80235 0.88571 0.49694 0.0
C357 C 0.71285 0.78576 0.50728 0.0
C358 C 0.74266 0.85467 0.56482 0.0
H359 H 0.80215 0.90936 0.44694 0.0
H360 H 0.76227 0.89077 0.41796 0.0
H361 H 0.69856 0.80835 0.42364 0.0
H362 H 0.69022 0.77234 0.45777 0.0
H363 H 0.70573 0.77371 0.56131 0.0
H364 H 0.71857 0.81266 0.59277 0.0
H365 H 0.77272 0.90005 0.5821 0.0
H366 H 0.80591 0.91721 0.54463 0.0
H367 H 0.64742 0.85262 0.51167 0.0
H368 H 0.69225 0.92336 0.49831 0.0
H369 H 0.8178 0.78857 0.53335 0.0
H370 H 0.81002 0.79074 0.45129 0.0
C371 C 0.5062 0.78091 0.85693 0.0
C372 C 0.48144 0.78861 0.86626 0.0
C373 C 0.46279 0.77003 0.8591 0.0
C374 C 0.47714 0.75202 0.84592 0.0
N375 N 0.50394 0.75769 0.84481 0.0
Co376 Co 0.53197 0.73803 0.82547 0.0
N377 N 0.50413 0.71475 0.80871 0.0
C378 C 0.47723 0.71454 0.81335 0.0
C379 C 0.46307 0.69731 0.79816 0.0
C380 C 0.482 0.68599 0.78272 0.0
C381 C 0.5068 0.69689 0.7895 0.0
N382 N 0.5601 0.71877 0.80593 0.0
C383 C 0.5576 0.70038 0.78719 0.0
C384 C 0.58249 0.69217 0.7787 0.0
C385 C 0.60134 0.70618 0.7922 0.0
C386 C 0.58699 0.722 0.80821 0.0
N387 N 0.55967 0.7618 0.84184 0.0
C388 C 0.58664 0.76021 0.83975 0.0
C389 C 0.60062 0.78043 0.85101 0.0
C390 C 0.5815 0.79622 0.86029 0.0
C391 C 0.55678 0.78463 0.85427 0.0
N392 N 0.53304 0.71376 0.85426 0.0
C393 C 0.53498 0.67023 0.88435 0.0
C394 C 0.55838 0.68469 0.8776 0.0
C395 C 0.55693 0.70629 0.8629 0.0
C396 C 0.51049 0.67947 0.87803 0.0
C397 C 0.51 0.70129 0.86359 0.0
N398 N 0.53089 0.76117 0.79669 0.0
C399 C 0.5535 0.78593 0.76338 0.0
C400 C 0.52884 0.79149 0.75372 0.0
C401 C 0.5053 0.78212 0.7663 0.0
C402 C 0.50676 0.76724 0.78766 0.0
C403 C 0.55407 0.77072 0.78474 0.0
H404 H 0.48813 0.76069 0.79654 0.0
H405 H 0.5734 0.76666 0.7912 0.0
H406 H 0.57555 0.71608 0.85819 0.0
H407 H 0.49064 0.70714 0.85973 0.0
C408 C 0.46584 0.73207 0.83078 0.0
C409 C 0.53119 0.79668 0.85923 0.0
C410 C 0.53226 0.6903 0.77664 0.0
C411 C 0.59817 0.74149 0.82394 0.0
H412 H 0.47721 0.80627 0.87636 0.0
H413 H 0.44118 0.77039 0.86178 0.0
H414 H 0.44147 0.69392 0.7978 0.0
H415 H 0.47789 0.67169 0.76784 0.0
H416 H 0.5866 0.67777 0.76402 0.0
H417 H 0.62295 0.70539 0.79008 0.0
H418 H 0.6222 0.78404 0.85106 0.0
H419 H 0.58545 0.81466 0.86944 0.0
H420 H 0.5779 0.67877 0.88258 0.0
H421 H 0.49168 0.66967 0.88384 0.0
H422 H 0.57225 0.79288 0.75423 0.0
H423 H 0.48574 0.78647 0.75985 0.0
C424 C 0.5434 0.26788 0.66104 0.0
C425 C 0.56646 0.2734 0.64603 0.0
C426 C 0.58261 0.25336 0.64794 0.0
C427 C 0.56871 0.23683 0.66411 0.0
N428 N 0.54484 0.24526 0.67234 0.0
Co429 Co 0.51938 0.22872 0.69768 0.0
N430 N 0.54768 0.20826 0.71108 0.0
C431 C 0.57132 0.20382 0.69879 0.0
C432 C 0.58649 0.18801 0.71182 0.0
C433 C 0.57129 0.1818 0.73345 0.0
C434 C 0.54757 0.19424 0.73248 0.0
N435 N 0.49354 0.2123 0.72287 0.0
C436 C 0.49789 0.19816 0.74343 0.0
C437 C 0.47369 0.19032 0.75559 0.0
C438 C 0.45363 0.19906 0.74163 0.0
C439 C 0.46655 0.21197 0.72191 0.0
N440 N 0.49131 0.24915 0.68418 0.0
C441 C 0.46462 0.24432 0.68667 0.0
C442 C 0.45035 0.26249 0.67588 0.0
C443 C 0.46936 0.27982 0.66616 0.0
C444 C 0.49418 0.27124 0.6717 0.0
N445 N 0.51088 0.20167 0.67244 0.0
C446 C 0.50308 0.16241 0.63592 0.0
C447 C 0.50597 0.15721 0.66175 0.0
C448 C 0.50968 0.17702 0.67965 0.0
C449 C 0.50309 0.18768 0.62877 0.0
C450 C 0.50719 0.20709 0.64736 0.0
N451 N 0.5281 0.2559 0.72245 0.0
C452 C 0.51348 0.29159 0.74775 0.0
C453 C 0.53994 0.30204 0.74803 0.0
C454 C 0.56056 0.28794 0.73691 0.0
C455 C 0.55422 0.26478 0.72447 0.0
C456 C 0.508 0.26846 0.73492 0.0
H457 H 0.57035 0.2548 0.71518 0.0
H458 H 0.48737 0.26136 0.73397 0.0
H459 H 0.51207 0.17225 0.69928 0.0
H460 H 0.50788 0.22648 0.64139 0.0
C461 C 0.57969 0.21699 0.67666 0.0
C462 C 0.52013 0.28384 0.66413 0.0
C463 C 0.52423 0.18958 0.75031 0.0
C464 C 0.45419 0.22639 0.70412 0.0
H465 H 0.57149 0.29025 0.6353 0.0
H466 H 0.60285 0.25193 0.63994 0.0
H467 H 0.60634 0.18191 0.7064 0.0
H468 H 0.57671 0.16894 0.74786 0.0
H469 H 0.47073 0.17901 0.77249 0.0
H470 H 0.4322 0.19668 0.74568 0.0
H471 H 0.42877 0.26386 0.67641 0.0
H472 H 0.46545 0.29693 0.65646 0.0
H473 H 0.50544 0.13788 0.6681 0.0
H474 H 0.50072 0.19236 0.60894 0.0
H475 H 0.49701 0.30138 0.75699 0.0
H476 H 0.58132 0.29514 0.73686 0.0
C477 C 0.85137 0.48976 0.77141 0.0
C478 C 0.86289 0.46674 0.77373 0.0
C479 C 0.85506 0.45175 0.75293 0.0
C480 C 0.83929 0.46646 0.73912 0.0
N481 N 0.83696 0.4897 0.74994 0.0
Co482 Co 0.81478 0.5165 0.73804 0.0
N483 N 0.79209 0.49168 0.71797 0.0
C484 C 0.79898 0.46819 0.71038 0.0
C485 C 0.78003 0.45558 0.69561 0.0
C486 C 0.76023 0.47228 0.69347 0.0
C487 C 0.76816 0.49429 0.70716 0.0
N488 N 0.79255 0.54362 0.72663 0.0
C489 C 0.76828 0.54194 0.71569 0.0
C490 C 0.75993 0.56594 0.71097 0.0
C491 C 0.78009 0.583 0.71843 0.0
C492 C 0.79949 0.56864 0.72753 0.0
N493 N 0.83791 0.54103 0.7579 0.0
C494 C 0.84085 0.56616 0.7547 0.0
C495 C 0.85731 0.57816 0.77243 0.0
C496 C 0.86494 0.55936 0.78774 0.0
C497 C 0.85269 0.53689 0.7784 0.0
N498 N 0.83878 0.52109 0.70741 0.0
C499 C 0.87172 0.52789 0.66283 0.0
C500 C 0.84378 0.52824 0.662 0.0
C501 C 0.8278 0.52463 0.68424 0.0
C502 C 0.88296 0.52369 0.68648 0.0
C503 C 0.86613 0.52058 0.70864 0.0
N504 N 0.79074 0.51185 0.7683 0.0
C505 C 0.7678 0.52892 0.80603 0.0
C506 C 0.75788 0.50456 0.81281 0.0
C507 C 0.7647 0.48403 0.79648 0.0
C508 C 0.78125 0.48804 0.7746 0.0
C509 C 0.78389 0.53216 0.78364 0.0
H510 H 0.78646 0.47176 0.76282 0.0
H511 H 0.79106 0.55111 0.77891 0.0
H512 H 0.80642 0.52476 0.68249 0.0
H513 H 0.87518 0.51786 0.72675 0.0
C514 C 0.82159 0.45765 0.72013 0.0
C515 C 0.85518 0.51182 0.78902 0.0
C516 C 0.75431 0.51814 0.70664 0.0
C517 C 0.82269 0.57801 0.73986 0.0
H518 H 0.8753 0.46133 0.78898 0.0
H519 H 0.859 0.432 0.74927 0.0
H520 H 0.78034 0.4364 0.68765 0.0
H521 H 0.74237 0.46885 0.68247 0.0
H522 H 0.7415 0.57063 0.70243 0.0
H523 H 0.7803 0.60346 0.71776 0.0
H524 H 0.86162 0.59835 0.77518 0.0
H525 H 0.87744 0.562 0.80421 0.0
H526 H 0.8342 0.53109 0.6441 0.0
H527 H 0.90454 0.52335 0.68795 0.0
H528 H 0.76352 0.54545 0.818 0.0
H529 H 0.75713 0.46488 0.80026 0.0
C530 C 0.17253 0.02288 0.81728 0.0
C531 C 0.16532 0.0474 0.82364 0.0
C532 C 0.17535 0.0624 0.80435 0.0
C533 C 0.18841 0.04646 0.78747 0.0
N534 N 0.18706 0.02201 0.79455 0.0
Co535 Co 0.20661 0.9935 0.77705 0.0
N536 N 0.22378 0.0163 0.75015 0.0
C537 C 0.21951 0.04112 0.74761 0.0
C538 C 0.23349 0.05186 0.7272 0.0
C539 C 0.24743 0.03274 0.71583 0.0
C540 C 0.2411 0.01128 0.72996 0.0
N541 N 0.22689 0.96517 0.76019 0.0
C542 C 0.24453 0.96502 0.73955 0.0
C543 C 0.2538 0.94101 0.73444 0.0
C544 C 0.24182 0.92553 0.75246 0.0
C545 C 0.2259 0.94082 0.76751 0.0
N546 N 0.1889 0.97059 0.8035 0.0
C547 C 0.19083 0.94521 0.80434 0.0
C548 C 0.1763 0.93435 0.82437 0.0
C549 C 0.16464 0.95399 0.83736 0.0
C550 C 0.173 0.97588 0.82464 0.0
N551 N 0.17625 0.98553 0.75388 0.0
C552 C 0.14036 0.97486 0.71384 0.0
C553 C 0.15135 0.95532 0.72664 0.0
C554 C 0.16895 0.96102 0.74652 0.0
C555 C 0.14605 0.99973 0.72285 0.0
C556 C 0.16362 1.00455 0.74286 0.0
N557 N 0.23698 1.00148 0.79985 0.0
C558 C 0.26791 0.98855 0.83078 0.0
C559 C 0.27955 0.01319 0.83296 0.0
C560 C 0.2695 0.03181 0.81818 0.0
C561 C 0.24839 0.02561 0.80196 0.0
C562 C 0.24691 0.98313 0.81416 0.0
H563 H 0.2417 0.04068 0.79127 0.0
H564 H 0.23895 0.96398 0.81325 0.0
H565 H 0.17692 0.94526 0.7551 0.0
H566 H 0.16733 0.02392 0.74843 0.0
C567 C 0.20333 0.0541 0.76553 0.0
C568 C 0.16588 1.00126 0.83387 0.0
C569 C 0.25249 0.98677 0.72369 0.0
C570 C 0.20863 0.93259 0.78768 0.0
H571 H 0.15456 0.05406 0.84074 0.0
H572 H 0.17405 0.08271 0.80322 0.0
H573 H 0.23378 0.07136 0.72147 0.0
H574 H 0.26092 0.03449 0.69912 0.0
H575 H 0.26748 0.93515 0.71901 0.0
H576 H 0.24405 0.90541 0.7541 0.0
H577 H 0.17505 0.91462 0.82942 0.0
H578 H 0.15187 0.95239 0.85457 0.0
H579 H 0.14687 0.93566 0.72105 0.0
H580 H 0.13806 0.01567 0.71378 0.0
H581 H 0.27476 0.97347 0.842 0.0
H582 H 0.27814 0.05108 0.81873 0.0
C583 C 0.73912 0.1682 0.971 0.0
C584 C 0.73657 0.15817 0.9462 0.0
C585 C 0.75755 0.1688 0.93168 0.0
C586 C 0.7716 0.18477 0.94831 0.0
N587 N 0.76071 0.18486 0.97235 0.0
Co588 Co 0.77387 0.20572 1.00216 0.0
N589 N 0.79512 0.22939 0.9795 0.0
C590 C 0.80167 0.22509 0.95445 0.0
C591 C 0.8156 0.24532 0.94347 0.0
C592 C 0.81834 0.2633 0.9629 0.0
C593 C 0.80621 0.25285 0.98488 0.0
N594 N 0.78709 0.22615 0.03218 0.0
C595 C 0.79974 0.24949 0.03332 0.0
C596 C 0.80701 0.25587 0.05833 0.0
C597 C 0.79873 0.23579 0.07314 0.0
C598 C 0.78701 0.21824 0.05651 0.0
N599 N 0.75255 0.18199 0.02463 0.0
C600 C 0.75616 0.17862 0.04968 0.0
C601 C 0.73821 0.16073 0.06005 0.0
C602 C 0.72239 0.15233 0.04021 0.0
C603 C 0.73163 0.16568 0.01886 0.0
N604 N 0.80525 0.18474 1.00348 0.0
C605 C 0.85127 0.15618 1.00501 0.0
C606 C 0.82559 0.1442 1.00219 0.0
C607 C 0.80288 0.15882 1.00136 0.0
C608 C 0.85311 0.18269 0.00737 0.0
C609 C 0.83014 0.19645 1.00655 0.0
N610 N 0.74299 0.22725 1.00084 0.0
C611 C 0.71008 0.25309 0.02261 0.0
C612 C 0.70344 0.26331 0.9993 0.0
C613 C 0.71643 0.25418 0.97671 0.0
C614 C 0.73598 0.23627 0.97789 0.0
C615 C 0.7297 0.23505 0.02295 0.0
H616 H 0.74603 0.23033 0.9602 0.0
H617 H 0.7346 0.22789 0.04122 0.0
H618 H 0.78345 0.14917 0.9989 0.0
H619 H 0.83274 0.21675 0.00845 0.0
C620 C 0.79103 0.20359 0.94116 0.0
C621 C 0.72139 0.16128 0.99308 0.0
C622 C 0.80828 0.26449 0.01087 0.0
C623 C 0.77306 0.19562 0.06349 0.0
H624 H 0.72107 0.1449 0.93916 0.0
H625 H 0.76117 0.16628 0.91115 0.0
H626 H 0.82225 0.24713 0.92356 0.0
H627 H 0.82853 0.28181 0.96112 0.0
H628 H 0.8179 0.27289 0.06517 0.0
H629 H 0.80075 0.23433 0.09363 0.0
H630 H 0.73612 0.15521 0.07987 0.0
H631 H 0.70604 0.13799 0.04124 0.0
H632 H 0.82309 0.12376 1.00021 0.0
H633 H 0.87226 0.19292 0.01017 0.0
H634 H 0.70033 0.25907 0.04057 0.0
H635 H 0.71229 0.26149 0.9582 0.0
Co636 Co 0.06031 0.04629 0.05872 0.0
C637 C 0.05748 0.0879 0.09432 0.0
Co638 Co 0.0801 0.08221 0.04539 0.0
C639 C 0.05275 0.99296 0.07144 0.0
C640 C 0.01806 0.01396 0.08101 0.0
N641 N 0.04332 0.01646 0.07085 0.0
N642 N 0.03425 0.9759 0.08138 0.0
C643 C 0.01241 0.98914 0.08739 0.0
H644 H 0.07267 0.98842 0.0644 0.0
H645 H 1.0046 0.02926 0.08367 0.0
C646 C 0.08366 0.04174 0.00925 0.0
N647 N 0.09686 0.11147 0.03239 0.0
C648 C 0.11555 0.12796 0.04257 0.0
C649 C 0.09419 0.1192 0.00824 0.0
N650 N 0.12486 0.14528 0.02545 0.0
C651 C 0.11147 0.13985 1.00389 0.0
C652 C 0.11371 0.05295 0.07235 0.0
O653 O 0.07086 0.02871 0.02642 0.0
O654 O 0.08934 0.06503 0.01404 0.0
O655 O 0.11308 0.07326 0.05991 0.0
O656 O 0.09281 0.03804 0.07349 0.0
O657 O 0.07083 0.09947 0.07656 0.0
H658 H 0.08103 0.10991 0.99438 0.0
H659 H 0.1229 0.12672 0.06173 0.0
O660 O 0.05044 0.06446 0.09068 0.0
O661 O 0.02731 0.05521 0.0443 0.0
O662 O 0.04689 0.09102 0.03174 0.0
C663 C 0.02581 0.07642 0.03375 0.0
H664 H 0.99379 0.98152 0.09619 0.0
H665 H 0.1141 0.15006 0.98622 0.0
Co666 Co 0.95364 0.45709 0.07356 0.0
C667 C 0.97014 0.50618 0.05941 0.0
Co668 Co 0.94776 0.46541 0.03303 0.0
C669 C 0.96762 0.42984 0.11656 0.0
C670 C 0.95675 0.46714 0.12843 0.0
N671 N 0.9592 0.45148 0.10759 0.0
N672 N 0.97049 0.43116 0.14216 0.0
C673 C 0.96376 0.45467 0.1498 0.0
H674 H 0.972 0.41351 0.10433 0.0
H675 H 0.95032 0.48633 0.12809 0.0
C676 C 0.93061 0.41644 0.04725 0.0
N677 N 0.94325 0.46951 0.99761 0.0
C678 C 0.92815 0.4842 0.98362 0.0
C679 C 0.95628 0.45508 0.97977 0.0
N680 N 0.93203 0.47965 0.95795 0.0
C681 C 0.94971 0.4614 0.95567 0.0
C682 C 0.99852 0.44705 0.04306 0.0
O683 O 0.93682 0.42424 0.06964 0.0
O684 O 0.93527 0.43093 0.02848 0.0
O685 O 0.98536 0.45649 0.02557 0.0
O686 O 0.98725 0.44454 0.06506 0.0
O687 O 0.96011 0.4999 0.03786 0.0
H688 H 0.96948 0.44034 0.9839 0.0
H689 H 0.91479 0.49795 0.99198 0.0
O690 O 0.96989 0.49001 0.07696 0.0
O691 O 0.92037 0.46953 0.08266 0.0
O692 O 0.91058 0.47441 0.04236 0.0
C693 C 0.9038 0.47534 0.06639 0.0
H694 H 0.96348 0.46216 0.1694 0.0
H695 H 0.95693 0.45282 0.93772 0.0
Co696 Co 0.05574 0.94395 0.46499 0.0
C697 C 0.09615 0.94814 0.42582 0.0
Co698 Co 0.04459 0.92655 0.42774 0.0
C699 C 0.06551 0.94968 0.51987 0.0
C700 C 0.07507 0.98353 0.49917 0.0
N701 N 0.06572 0.95919 0.49608 0.0
N702 N 0.07399 0.96733 0.53758 0.0
C703 C 0.07997 0.9886 0.52459 0.0
H704 H 0.05913 0.93032 0.52414 0.0
H705 H 0.07836 0.99676 0.48383 0.0
C706 C 1.00308 0.9218 0.46491 0.0
N707 N 0.0345 0.91253 0.39665 0.0
C708 C 0.04922 0.89892 0.37957 0.0
C709 C 0.01113 0.91546 0.38524 0.0
N710 N 0.03605 0.89342 0.3578 0.0
C711 C 0.01202 0.90372 0.36133 0.0
C712 C 0.06953 0.89344 0.45895 0.0
O713 O 0.01977 0.93363 0.47973 0.0
O714 O 0.0107 0.91682 0.44191 0.0
O715 O 0.05853 0.89488 0.43738 0.0
O716 O 0.06965 0.91267 0.47436 0.0
O717 O 0.07813 0.93602 0.41327 0.0
H718 H 0.99467 0.92581 0.39364 0.0
H719 H 0.06948 0.89377 0.3828 0.0
O720 O 0.09113 0.95422 0.44939 0.0
O721 O 0.04245 0.97507 0.45537 0.0
O722 O 0.03155 0.95845 0.41806 0.0
C723 C 0.03317 0.97766 0.43339 0.0
H724 H 0.08798 0.0064 0.53282 0.0
H725 H 0.99615 0.90267 0.3477 0.0
Co726 Co 0.96882 0.57371 0.44208 0.0
C727 C 0.02275 0.5704 0.4549 0.0
Co728 Co 0.98382 0.53453 0.43868 0.0
C729 C 0.93657 0.61919 0.45233 0.0
C730 C 0.97486 0.62637 0.43314 0.0
N731 N 0.95875 0.60753 0.44312 0.0
N732 N 0.93834 0.64448 0.44812 0.0
C733 C 0.96252 0.64884 0.43615 0.0
H734 H 0.91935 0.60931 0.46149 0.0
H735 H 0.99449 0.62393 0.4241 0.0
C736 C 0.93046 0.53846 0.42498 0.0
N737 N 0.99466 0.50071 0.43757 0.0
C738 C 0.98889 0.48039 0.42155 0.0
C739 C 0.00995 0.49151 0.45544 0.0
N740 N 0.99988 0.45894 0.42899 0.0
C741 C 0.01323 0.46619 0.45025 0.0
C742 C 0.95997 0.54885 0.48721 0.0
O743 O 0.93445 0.56179 0.43142 0.0
O744 O 0.94927 0.52333 0.42686 0.0
O745 O 0.97072 0.53086 0.4742 0.0
O746 O 0.95743 0.56987 0.47663 0.0
O747 O 0.01847 0.54677 0.45012 0.0
H748 H 0.01796 0.50247 0.47158 0.0
H749 H 0.97629 0.48117 0.40519 0.0
O750 O 1.00372 0.5851 0.45267 0.0
O751 O 0.98014 0.57699 0.40716 0.0
O752 O 0.99653 0.53919 0.40361 0.0
C753 C 0.99193 0.56017 0.39369 0.0
H754 H 0.97092 0.66711 0.43013 0.0
H755 H 0.02472 0.45407 0.46141 0.0
Co756 Co 0.44663 0.94378 0.56924 0.0
C757 C 0.45441 0.99575 0.55753 0.0
Co758 Co 0.4256 0.95684 0.53579 0.0
C759 C 0.47604 0.91436 0.60363 0.0
C760 C 0.47097 0.95241 0.61764 0.0
N761 N 0.46546 0.93627 0.59767 0.0
N762 N 0.48803 0.91632 0.62646 0.0
C763 C 0.48489 0.94026 0.63527 0.0
H764 H 0.47479 0.89728 0.59157 0.0
H765 H 0.46471 0.97166 0.61961 0.0
C766 C 0.41722 0.90492 0.5467 0.0
N767 N 0.40536 0.96419 0.50739 0.0
C768 C 0.41153 0.97372 0.48382 0.0
C769 C 0.37858 0.95881 0.5073 0.0
N770 N 0.38942 0.97481 0.46954 0.0
C771 C 0.36883 0.96539 0.48443 0.0
C772 C 0.47787 0.94095 0.52422 0.0
O773 O 0.4323 0.90945 0.56564 0.0
O774 O 0.41289 0.92278 0.53202 0.0
O775 O 0.4577 0.94982 0.51369 0.0
O776 O 0.47629 0.93635 0.54793 0.0
O777 O 0.43823 0.99091 0.53959 0.0
H778 H 0.36674 0.95 0.52273 0.0
H779 H 0.43169 0.97974 0.47731 0.0
O780 O 0.46037 0.97809 0.57191 0.0
O781 O 0.4174 0.95138 0.59126 0.0
O782 O 0.39459 0.96392 0.5596 0.0
C783 C 0.39612 0.96009 0.58358 0.0
H784 H 0.49122 0.94812 0.65365 0.0
H785 H 0.34815 0.96277 0.47887 0.0
Co786 Co 0.54278 0.5321 0.58477 0.0
C787 C 0.5467 0.57669 0.6172 0.0
Co788 Co 0.56486 0.56565 0.56805 0.0
C789 C 0.5307 0.4806 0.60118 0.0
C790 C 0.5002 0.50539 0.61428 0.0
N791 N 0.52331 0.50482 0.60001 0.0
N792 N 0.51332 0.4661 0.61584 0.0
C793 C 0.49406 0.48173 0.62404 0.0
H794 H 0.54912 0.474 0.59226 0.0
H795 H 0.4889 0.52211 0.61789 0.0
C796 C 0.56177 0.52237 0.53488 0.0
N797 N 0.58663 0.59081 0.55202 0.0
C798 C 0.58574 0.61613 0.54903 0.0
C799 C 0.60935 0.58442 0.53896 0.0
N800 N 0.60684 0.62526 0.53419 0.0
C801 C 0.62161 0.60529 0.52806 0.0
C802 C 0.5964 0.53394 0.59556 0.0
O803 O 0.54929 0.51116 0.55346 0.0
O804 O 0.5693 0.54544 0.53792 0.0
O805 O 0.59665 0.55345 0.582 0.0
O806 O 0.57445 0.52098 0.59893 0.0
O807 O 0.56002 0.58597 0.59805 0.0
H808 H 0.6167 0.56555 0.53738 0.0
H809 H 0.56996 0.62749 0.55725 0.0
O810 O 0.53716 0.5537 0.61558 0.0
O811 O 0.51054 0.54418 0.57088 0.0
O812 O 0.53269 0.57773 0.55501 0.0
C813 C 0.51046 0.56499 0.55905 0.0
H814 H 0.4768 0.47653 0.63639 0.0
H815 H 0.64041 0.60585 0.51689 0.0
Co816 Co 0.57864 0.46511 0.98957 0.0
C817 C 0.61546 0.46542 0.94715 0.0
Co818 Co 0.56348 0.44698 0.95387 0.0
C819 C 0.59584 0.47149 0.04229 0.0
C820 C 0.60623 0.50371 0.01937 0.0
N821 N 0.59331 0.4806 0.01863 0.0
N822 N 0.61011 0.48797 0.05758 0.0
C823 C 0.61654 0.50828 0.04321 0.0
H824 H 0.58832 0.45277 0.04782 0.0
H825 H 0.60867 0.5162 1.00332 0.0
C826 C 0.52596 0.44617 0.99543 0.0
N827 N 0.54865 0.43212 0.92466 0.0
C828 C 0.55641 0.43565 0.89986 0.0
C829 C 0.52686 0.41578 0.92366 0.0
N830 N 0.54013 0.42246 0.88363 0.0
C831 C 0.52152 0.40994 0.89849 0.0
C832 C 0.58865 0.41334 0.98368 0.0
O833 O 0.54452 0.45751 0.00832 0.0
O834 O 0.53069 0.44056 0.97197 0.0
O835 O 0.57558 0.41497 0.96335 0.0
O836 O 0.59179 0.43297 0.99841 0.0
O837 O 0.5964 0.45326 0.93605 0.0
H838 H 0.51576 0.40806 0.9401 0.0
H839 H 0.57382 0.44737 0.89371 0.0
O840 O 0.61215 0.47282 0.97051 0.0
O841 O 0.56611 0.49681 0.98011 0.0
O842 O 0.55197 0.47932 0.94409 0.0
C843 C 0.55554 0.49901 0.95857 0.0
H844 H 0.62812 0.52517 0.04939 0.0
H845 H 0.50611 0.3964 0.89163 0.0
Co846 Co 0.48512 0.09076 0.95142 0.0
C847 C 0.538 0.08061 0.96389 0.0
Co848 Co 0.49658 0.05064 0.94447 0.0
C849 C 0.45871 0.13825 0.96489 0.0
C850 C 0.49837 0.14356 0.94797 0.0
N851 N 0.47976 0.12539 0.95513 0.0
N852 N 0.46355 0.16371 0.96385 0.0
C853 C 0.48855 0.16694 0.95326 0.0
H854 H 0.44017 0.12912 0.97231 0.0
H855 H 0.51801 0.14001 0.9395 0.0
C856 C 0.44404 0.06117 0.93164 0.0
N857 N 0.50156 0.01478 0.94111 0.0
C858 C 0.51429 0.99931 0.92353 0.0
C859 C 0.48917 0.99831 0.95769 0.0
N860 N 0.51067 0.97433 0.92929 0.0
C861 C 0.49492 0.97398 0.95077 0.0
C862 C 0.47306 0.06417 0.99431 0.0
O863 O 0.45042 0.08404 0.93835 0.0
O864 O 0.46097 0.04426 0.93354 0.0
O865 O 0.48399 0.04682 0.98056 0.0
O866 O 0.47113 0.0857 0.9848 0.0
O867 O 0.53263 0.058 0.95543 0.0
H868 H 0.47574 1.00318 0.97361 0.0
H869 H 0.52582 0.00613 0.90689 0.0
O870 O 0.5199 0.09664 0.96426 0.0
O871 O 0.49915 0.09603 0.91795 0.0
O872 O 0.50872 0.05652 0.9088 0.0
C873 C 0.50818 0.07958 0.9021 0.0
H874 H 0.49926 0.18497 0.94989 0.0
H875 H 0.48731 0.95706 0.9604 0.0
H876 H 0.98649 0.10847 0.35161 0.0
H877 H 0.04324 0.02312 0.45877 0.0
H878 H 0.04368 0.13708 0.40691 0.0
H879 H 0.00964 0.99091 0.38909 0.0
H880 H 0.03722 0.06549 0.44352 0.0
H881 H 0.98878 0.06593 0.36848 0.0
C882 C 0.99935 0.10585 0.36747 0.0
C883 C 0.01492 0.12641 0.37788 0.0
C884 C 0.03103 0.04917 0.43161 0.0
C885 C 0.01759 0.07773 0.39728 0.0
C886 C 0.03431 0.0249 0.44035 0.0
C887 C 0.02699 1.0033 0.42517 0.0
C888 C 0.02007 0.05205 0.40757 0.0
C889 C 0.01561 0.00697 0.40143 0.0
C890 C 1.00076 0.08153 0.37696 0.0
C891 C 0.03149 0.12179 0.39818 0.0
N892 N 0.01249 0.03086 0.39336 0.0
N893 N 0.0323 0.098 0.40727 0.0
H894 H 1.00873 0.29659 0.40577 0.0
H895 H 0.99104 0.44404 0.37889 0.0
H896 H 0.99492 0.32296 0.33047 0.0
H897 H 1.00376 0.41467 0.45337 0.0
H898 H 0.99057 0.4004 0.36056 0.0
H899 H 1.00552 0.34001 0.42336 0.0
C900 C 1.00493 0.3116 0.39298 0.0
C901 C 1.00222 0.30624 0.36666 0.0
C902 C 0.99342 0.40357 0.38092 0.0
C903 C 0.9985 0.35626 0.38657 0.0
C904 C 0.99355 0.42852 0.39144 0.0
C905 C 0.99778 0.43332 0.41775 0.0
C906 C 0.9974 0.38316 0.39682 0.0
C907 C 1.00103 0.41224 0.43294 0.0
C908 C 1.0031 0.33644 0.40298 0.0
C909 C 0.99719 0.32638 0.3509 0.0
N910 N 1.00085 0.38834 0.4223 0.0
N911 N 0.9956 0.35048 0.36104 0.0
H912 H 1.00199 0.81568 0.10229 0.0
H913 H 0.07964 0.95232 0.09154 0.0
H914 H 0.08148 0.83239 0.13049 0.0
H915 H 0.99488 0.9384 0.08009 0.0
H916 H 0.0828 0.90727 0.10044 0.0
H917 H 1.00114 0.85939 0.08884 0.0
C918 C 0.0193 0.82847 0.10568 0.0
C919 C 0.04175 0.82018 0.11781 0.0
C920 C 0.06354 0.91409 0.09588 0.0
C921 C 0.04101 0.87049 0.10204 0.0
C922 C 0.06177 0.93976 0.09065 0.0
C923 C 0.03692 0.94921 0.08524 0.0
C924 C 0.04035 0.89767 0.09541 0.0
C925 C 0.01435 0.93207 0.08457 0.0
C926 C 0.01883 0.85347 0.09787 0.0
C927 C 0.06381 0.83768 0.12103 0.0
N928 N 0.01661 0.90722 0.08959 0.0
N929 N 0.06283 0.86197 0.11331 0.0
H930 H 1.00045 0.66935 0.07693 0.0
H931 H 1.00538 0.52031 0.09601 0.0
H932 H 0.04311 0.6346 0.13554 0.0
H933 H 0.96208 0.55041 0.03489 0.0
H934 H 0.02248 0.56276 0.10759 0.0
H935 H 0.98888 0.62679 0.05816 0.0
C936 C 1.00757 0.65277 0.0856 0.0
C937 C 0.02256 0.65532 0.10782 0.0
C938 C 0.00935 0.56026 0.09154 0.0
C939 C 0.00963 0.6071 0.08676 0.0
C940 C 0.99952 0.53594 0.08495 0.0
C941 C 0.98204 0.53189 0.06465 0.0
C942 C 1.00144 0.58094 0.078 0.0
C943 C 0.97546 0.55282 0.05075 0.0
C944 C 1.001 0.6286 0.07497 0.0
C945 C 0.03139 0.63344 0.11847 0.0
N946 N 0.98494 0.5766 0.05788 0.0
N947 N 0.02471 0.61034 0.10791 0.0
H948 H 0.37597 0.07674 0.13424 0.0
H949 H 0.47304 0.02072 0.02276 0.0
H950 H 0.4141 0.00639 0.14194 0.0
H951 H 0.44694 0.09729 0.02641 0.0
H952 H 0.45185 0.01408 0.06571 0.0
H953 H 0.40203 0.08381 0.09427 0.0
C954 C 0.39005 0.06285 0.12756 0.0
C955 C 0.39283 0.04093 0.14144 0.0
C956 C 0.45097 0.03236 0.0571 0.0
C957 C 0.42269 0.04871 0.0952 0.0
C958 C 0.46302 0.03615 0.03257 0.0
C959 C 0.46173 0.05957 0.02078 0.0
C960 C 0.43736 0.05206 0.06985 0.0
C961 C 0.44847 0.07887 0.03452 0.0
C962 C 0.40497 0.06688 0.10469 0.0
C963 C 0.41148 0.02361 0.1319 0.0
N964 N 0.43676 0.07462 0.05809 0.0
N965 N 0.42551 0.02772 0.10922 0.0
H966 H 0.61461 0.46028 0.21991 0.0
H967 H 0.65618 0.50638 0.0786 0.0
H968 H 0.69219 0.49478 0.19838 0.0
H969 H 0.58324 0.46121 0.09518 0.0
H970 H 0.6693 0.50213 0.12266 0.0
H971 H 0.60225 0.45989 0.17462 0.0
C972 C 0.62908 0.46746 0.2055 0.0
C973 C 0.65444 0.47741 0.21258 0.0
C974 C 0.65044 0.49303 0.11674 0.0
C975 C 0.6405 0.47747 0.16121 0.0
C976 C 0.64286 0.49561 0.09159 0.0
C977 C 0.61844 0.48436 0.08329 0.0
C978 C 0.63341 0.47924 0.13395 0.0
C979 C 0.60225 0.47013 0.10082 0.0
C980 C 0.62206 0.46732 0.17977 0.0
C981 C 0.67245 0.48691 0.1935 0.0
N982 N 0.60992 0.46814 0.12543 0.0
N983 N 0.6651 0.4868 0.1687 0.0
H984 H 0.39843 0.99046 0.30353 0.0
H985 H 0.34861 0.9997 0.45188 0.0
H986 H 0.32158 0.01623 0.33046 0.0
H987 H 0.42402 0.96878 0.42792 0.0
H988 H 0.34054 0.00854 0.4074 0.0
H989 H 0.40985 0.98411 0.34833 0.0
C990 C 0.38384 0.99441 0.31888 0.0
C991 C 0.35875 1.00327 0.31333 0.0
C992 C 0.35897 0.99994 0.4117 0.0
C993 C 0.37194 0.99684 0.36458 0.0
C994 C 0.3636 0.99491 0.43718 0.0
C995 C 0.38692 0.98327 0.44366 0.0
C996 C 0.37771 0.99324 0.39216 0.0
C997 C 0.40584 0.97785 0.42379 0.0
C998 C 0.39045 0.99103 0.34444 0.0
C999 C 0.34098 0.00903 0.33394 0.0
N1000 N 0.40071 0.98267 0.39888 0.0
N1001 N 0.34786 1.00566 0.35854 0.0
H1002 H 0.61158 0.51956 0.37598 0.0
H1003 H 0.58987 0.47953 0.52315 0.0
H1004 H 0.65613 0.46145 0.40814 0.0
H1005 H 0.55004 0.53932 0.48873 0.0
H1006 H 0.61003 0.46811 0.48051 0.0
H1007 H 0.58534 0.52312 0.41625 0.0
C1008 C 0.61594 0.50754 0.39152 0.0
C1009 C 0.63647 0.4904 0.38856 0.0
C1010 C 0.5964 0.48336 0.48222 0.0
C1011 C 0.60599 0.49427 0.43525 0.0
C1012 C 0.5846 0.48961 0.50649 0.0
C1013 C 0.56795 0.51017 0.50939 0.0
C1014 C 0.59149 0.49783 0.46082 0.0
C1015 C 0.56251 0.52316 0.4873 0.0
C1016 C 0.60075 0.50947 0.41459 0.0
C1017 C 0.64053 0.47491 0.4094 0.0
N1018 N 0.57431 0.51692 0.46415 0.0
N1019 N 0.62565 0.47737 0.43188 0.0
H1020 H 0.17044 0.43403 1.00175 0.0
H1021 H 0.02536 0.41756 0.07357 0.0
H1022 H 0.15336 0.39651 0.07315 0.0
H1023 H 0.03713 0.46104 1.00505 0.0
H1024 H 0.07265 0.40952 0.07191 0.0
H1025 H 0.123 0.44531 1.00163 0.0
C1026 C 0.15687 0.42862 0.01761 0.0
C1027 C 0.16586 0.41424 0.03748 0.0
C1028 C 0.06513 0.42081 0.0571 0.0
C1029 C 0.11165 0.42658 0.03722 0.0
C1030 C 0.03789 0.42535 0.05797 0.0
C1031 C 0.02705 0.44011 0.03945 0.0
C1032 C 0.08222 0.43103 0.03757 0.0
C1033 C 0.04455 0.44947 0.01967 0.0
C1034 C 0.12977 0.43482 0.0174 0.0
C1035 C 0.14733 0.40743 0.05736 0.0
N1036 N 0.07133 0.44487 0.01929 0.0
N1037 N 0.1213 0.41351 0.05662 0.0
H1038 H 0.19424 0.59784 0.4784 0.0
H1039 H 0.03702 0.6195 0.4688 0.0
H1040 H 0.15864 0.66899 0.4961 0.0
H1041 H 0.07014 0.54613 0.45683 0.0
H1042 H 0.08159 0.63772 0.47842 0.0
H1043 H 0.14938 0.57835 0.4697 0.0
C1044 C 0.1769 0.6093 0.48031 0.0
C1045 C 0.17995 0.63502 0.4877 0.0
C1046 C 0.07918 0.61762 0.47378 0.0
C1047 C 0.12876 0.61303 0.47807 0.0
C1048 C 0.05365 0.60715 0.46829 0.0
C1049 C 0.04973 0.58118 0.46198 0.0
C1050 C 0.1012 0.60212 0.47288 0.0
C1051 C 0.07217 0.56622 0.46164 0.0
C1052 C 0.15135 0.59822 0.47546 0.0
C1053 C 0.157 0.64912 0.49026 0.0
N1054 N 0.09694 0.57691 0.46692 0.0
N1055 N 0.1324 0.63797 0.48539 0.0
H1056 H 0.83479 0.87793 0.45296 0.0
H1057 H 0.97422 0.93174 0.51103 0.0
H1058 H 0.84222 0.89739 0.53365 0.0
H1059 H 0.96607 0.89558 0.43598 0.0
H1060 H 0.92585 0.92154 0.52014 0.0
H1061 H 0.88269 0.88632 0.44671 0.0
C1062 C 0.84585 0.88502 0.46934 0.0
C1063 C 0.83287 0.88927 0.49353 0.0
C1064 C 0.93484 0.91576 0.50177 0.0
C1065 C 0.88938 0.89765 0.4865 0.0
C1066 C 0.96246 0.92154 0.49659 0.0
C1067 C 0.97447 0.91464 0.47267 0.0
C1068 C 0.91909 0.90318 0.48281 0.0
C1069 C 0.958 0.90149 0.45469 0.0
C1070 C 0.87367 0.88936 0.46573 0.0
C1071 C 0.84987 0.8959 0.51415 0.0
N1072 N 0.93141 0.89641 0.46005 0.0
N1073 N 0.87694 0.90023 0.51009 0.0
H1074 H 0.34281 0.60352 0.55566 0.0
H1075 H 0.50273 0.60575 0.52914 0.0
H1076 H 0.38491 0.65093 0.49972 0.0
H1077 H 0.45878 0.54782 0.57249 0.0
H1078 H 0.4601 0.62359 0.51954 0.0
H1079 H 0.38516 0.58427 0.56376 0.0
C1080 C 0.36092 0.60997 0.5451 0.0
C1081 C 0.36007 0.62894 0.5269 0.0
C1082 C 0.45974 0.60689 0.53104 0.0
C1083 C 0.40894 0.60683 0.53615 0.0
C1084 C 0.48414 0.59665 0.53654 0.0
C1085 C 0.48452 0.57513 0.55162 0.0
C1086 C 0.43532 0.59581 0.54091 0.0
C1087 C 0.45961 0.56432 0.56068 0.0
C1088 C 0.38512 0.59882 0.54964 0.0
C1089 C 0.38433 0.6362 0.51369 0.0
N1090 N 0.43616 0.57482 0.55534 0.0
N1091 N 0.40765 0.62529 0.51865 0.0
H1092 H 0.50597 0.62594 0.87311 0.0
H1093 H 0.57028 0.54544 0.98031 0.0
H1094 H 0.56665 0.65731 0.92361 0.0
H1095 H 0.52827 0.51096 0.91609 0.0
H1096 H 0.56412 0.58726 0.96343 0.0
H1097 H 0.50902 0.58461 0.89223 0.0
C1098 C 0.51975 0.62423 0.88842 0.0
C1099 C 0.53605 0.64524 0.89676 0.0
C1100 C 0.55613 0.57056 0.9531 0.0
C1101 C 0.53971 0.59774 0.91873 0.0
C1102 C 0.55949 0.54663 0.9628 0.0
C1103 C 0.54978 0.52453 0.94962 0.0
C1104 C 0.54271 0.57258 0.93014 0.0
C1105 C 0.53612 0.52739 0.92692 0.0
C1106 C 0.52161 0.60054 0.89919 0.0
C1107 C 0.55384 0.64166 0.91641 0.0
N1108 N 0.53298 0.55092 0.91793 0.0
N1109 N 0.55513 0.61843 0.92675 0.0
H1110 H 0.54559 0.81738 0.90602 0.0
H1111 H 0.50684 0.95999 0.87853 0.0
H1112 H 0.51488 0.83774 0.834 0.0
H1113 H 0.53357 0.9358 0.95077 0.0
H1114 H 0.51354 0.917 0.85991 0.0
H1115 H 0.54435 0.86173 0.92123 0.0
C1116 C 0.5387 0.83129 0.89337 0.0
C1117 C 0.53054 0.8239 0.86865 0.0
C1118 C 0.51832 0.92123 0.87974 0.0
C1119 C 0.52884 0.87503 0.88596 0.0
C1120 C 0.51483 0.94586 0.89023 0.0
C1121 C 0.51985 0.95155 0.9162 0.0
C1122 C 0.52694 0.90217 0.89534 0.0
C1123 C 0.52954 0.93228 0.93067 0.0
C1124 C 0.53796 0.85667 0.90203 0.0
C1125 C 0.52146 0.8427 0.85316 0.0
N1126 N 0.53261 0.90862 0.92016 0.0
N1127 N 0.52086 0.86734 0.86202 0.0
H1128 H 0.50967 0.32454 0.69561 0.0
H1129 H 0.5371 0.42866 0.58747 0.0
H1130 H 0.53176 0.30502 0.61697 0.0
H1131 H 0.49477 0.44347 0.65972 0.0
H1132 H 0.54019 0.38436 0.59925 0.0
H1133 H 0.50876 0.36917 0.68419 0.0
C1134 C 0.51468 0.32976 0.676 0.0
C1135 C 0.52145 0.31118 0.65736 0.0
C1136 C 0.53021 0.39732 0.61251 0.0
C1137 C 0.52022 0.3622 0.64398 0.0
C1138 C 0.52857 0.42267 0.60585 0.0
C1139 C 0.51554 0.43991 0.62254 0.0
C1140 C 0.51909 0.38911 0.63623 0.0
C1141 C 0.50467 0.43089 0.64605 0.0
C1142 C 0.51406 0.3552 0.66945 0.0
C1143 C 0.5273 0.31886 0.63211 0.0
N1144 N 0.50677 0.40624 0.6522 0.0
N1145 N 0.52665 0.34375 0.62618 0.0
H1146 H 0.46497 0.15397 0.5996 0.0
H1147 H 0.49966 0.00963 0.58284 0.0
H1148 H 0.5348 0.12252 0.62952 0.0
H1149 H 0.43503 0.04066 0.54358 0.0
H1150 H 0.51576 0.05233 0.59546 0.0
H1151 H 0.4566 0.1146 0.57403 0.0
C1152 C 0.47882 0.13897 0.60032 0.0
C1153 C 0.50028 0.14115 0.61696 0.0
C1154 C 0.49822 0.04994 0.58385 0.0
C1155 C 0.49082 0.0963 0.5882 0.0
C1156 C 0.48897 0.02552 0.57672 0.0
C1157 C 0.46577 0.02166 0.5625 0.0
C1158 C 0.4839 0.07071 0.57713 0.0
C1159 C 0.45292 0.0429 0.55472 0.0
C1160 C 0.47401 0.11651 0.58585 0.0
C1161 C 0.51768 0.12128 0.6173 0.0
N1162 N 0.46191 0.06659 0.56252 0.0
N1163 N 0.51238 0.09958 0.6034 0.0
H1164 H 0.86935 0.56684 0.63042 0.0
H1165 H 0.96337 0.50775 0.51827 0.0
H1166 H 0.91147 0.49912 0.64053 0.0
H1167 H 0.93315 0.58266 0.51796 0.0
H1168 H 0.94468 0.50322 0.56243 0.0
H1169 H 0.89277 0.57222 0.58882 0.0
C1170 C 0.88375 0.55318 0.6239 0.0
C1171 C 0.88842 0.53248 0.63893 0.0
C1172 C 0.94233 0.52067 0.55268 0.0
C1173 C 0.91525 0.5383 0.59089 0.0
C1174 C 0.95292 0.52325 0.52745 0.0
C1175 C 0.94978 0.54559 0.51423 0.0
C1176 C 0.92831 0.54049 0.56469 0.0
C1177 C 0.93609 0.56505 0.52721 0.0
C1178 C 0.89715 0.55624 0.60011 0.0
C1179 C 0.90741 0.51542 0.62958 0.0
N1180 N 0.92581 0.56198 0.55151 0.0
N1181 N 0.91994 0.51854 0.60601 0.0
H1182 H 0.09692 0.99939 0.69795 0.0
H1183 H 0.09259 0.92681 0.5605 0.0
H1184 H 0.14821 0.9386 0.67555 0.0
H1185 H 0.06396 1.00142 0.57594 0.0
H1186 H 0.10426 0.92502 0.60582 0.0
H1187 H 0.07605 0.99445 0.65635 0.0
C1188 C 0.10373 0.9849 0.68441 0.0
C1189 C 0.12473 0.96967 0.69024 0.0
C1190 C 0.09512 0.94163 0.59931 0.0
C1191 C 0.10052 0.96369 0.64263 0.0
C1192 C 0.08831 0.94257 0.57357 0.0
C1193 C 0.07757 0.9644 0.56455 0.0
C1194 C 0.09075 0.96254 0.61609 0.0
C1195 C 0.07258 0.98442 0.58214 0.0
C1196 C 0.09169 0.98203 0.66069 0.0
C1197 C 0.13206 0.95073 0.67208 0.0
N1198 N 0.07929 0.98306 0.60702 0.0
N1199 N 0.12015 0.94843 0.64902 0.0
H1200 H 0.82703 0.49799 0.83285 0.0
H1201 H 0.95847 0.49903 0.91669 0.0
H1202 H 0.90692 0.51949 0.80418 0.0
H1203 H 0.87892 0.48347 0.94936 0.0
H1204 H 0.93919 0.50912 0.87616 0.0
H1205 H 0.84463 0.4939 0.87596 0.0
C1206 C 0.84829 0.50186 0.83574 0.0
C1207 C 0.86562 0.50914 0.81511 0.0
C1208 C 0.92578 0.50387 0.89219 0.0
C1209 C 0.8859 0.50458 0.86414 0.0
C1210 C 0.93682 0.4983 0.91538 0.0
C1211 C 0.92025 0.49063 0.93639 0.0
C1212 C 0.89781 0.50136 0.88966 0.0
C1213 C 0.89232 0.48967 0.93369 0.0
C1214 C 0.8583 0.49963 0.8603 0.0
C1215 C 0.89295 0.51392 0.81968 0.0
N1216 N 0.88195 0.49467 0.91062 0.0
N1217 N 0.90223 0.51152 0.84363 0.0
H1218 H 0.11613 0.02001 0.84481 0.0
H1219 H 0.11195 0.99921 0.99674 0.0
H1220 H 0.18268 0.98994 0.88167 0.0
H1221 H 0.07497 0.06121 0.96311 0.0
H1222 H 0.13105 0.98717 0.95378 0.0
H1223 H 0.09397 0.02718 0.88723 0.0
C1224 C 0.12609 0.01494 0.86185 0.0
C1225 C 0.15156 1.00485 0.85969 0.0
C1226 C 0.11843 1.00318 0.95584 0.0
C1227 C 0.12582 0.01213 0.90834 0.0
C1228 C 0.10731 0.00986 0.98025 0.0
C1229 C 0.09166 0.0311 0.98343 0.0
C1230 C 0.11333 0.01751 0.93443 0.0
C1231 C 0.08678 0.04461 0.96148 0.0
C1232 C 0.11339 0.01894 0.88603 0.0
C1233 C 0.16317 0.998 0.88246 0.0
N1234 N 0.09741 0.03756 0.93801 0.0
N1235 N 0.15024 1.00171 0.90579 0.0
H1236 H 0.64936 0.93637 0.5225 0.0
H1237 H 0.49478 0.90327 0.49065 0.0
H1238 H 0.62201 0.86984 0.47867 0.0
H1239 H 0.52228 0.97157 0.53115 0.0
H1240 H 0.54185 0.89337 0.48117 0.0
H1241 H 0.604 0.95217 0.52148 0.0
C1242 C 0.634 0.92523 0.51237 0.0
C1243 C 0.63961 0.9015 0.50104 0.0
C1244 C 0.53765 0.91088 0.49157 0.0
C1245 C 0.58731 0.9194 0.49994 0.0
C1246 C 0.51073 0.91669 0.49661 0.0
C1247 C 0.50461 0.93861 0.5111 0.0
C1248 C 0.55864 0.92687 0.50151 0.0
C1249 C 0.52615 0.95478 0.51938 0.0
C1250 C 0.60799 0.9342 0.51189 0.0
C1251 C 0.61864 0.88795 0.48825 0.0
N1252 N 0.55207 0.94851 0.51471 0.0
N1253 N 0.59355 0.89692 0.48826 0.0
H1254 H 0.71067 0.11284 0.97373 0.0
H1255 H 0.55138 0.12321 0.99214 0.0
H1256 H 0.67228 0.17819 1.00618 0.0
H1257 H 0.58667 0.05884 0.95361 0.0
H1258 H 0.59602 0.14131 1.00086 0.0
H1259 H 0.6662 0.09092 0.96886 0.0
C1260 C 0.69279 0.12259 0.97959 0.0
C1261 C 0.6949 0.14752 0.98976 0.0
C1262 C 0.59415 0.12316 0.99063 0.0
C1263 C 0.64427 0.12252 0.98493 0.0
C1264 C 0.56858 0.11272 0.98568 0.0
C1265 C 0.56522 0.0895 0.97194 0.0
C1266 C 0.61684 0.11047 0.98171 0.0
C1267 C 0.58832 0.07676 0.96428 0.0
C1268 C 0.6675 0.11006 0.97699 0.0
C1269 C 0.67136 0.1591 0.99788 0.0
N1270 N 0.61322 0.08753 0.96907 0.0
N1271 N 0.64704 0.14657 0.99519 0.0
H1272 H 0.36634 0.37522 1.00387 0.0
H1273 H 0.49247 0.47413 0.02773 0.0
H1274 H 0.35758 0.4492 0.03943 0.0
H1275 H 0.49696 0.40244 0.98628 0.0
H1276 H 0.44407 0.46421 0.03673 0.0
H1277 H 0.41503 0.38408 1.00039 0.0
C1278 C 0.37476 0.39338 0.01089 0.0
C1279 C 0.35803 0.4114 0.02214 0.0
C1280 C 0.45579 0.45053 0.02596 0.0
C1281 C 0.41388 0.4218 0.01844 0.0
C1282 C 0.48345 0.45607 0.02113 0.0
C1283 C 0.49872 0.43907 1.00627 0.0
C1284 C 0.44352 0.4278 0.01593 0.0
C1285 C 0.48591 0.41614 0.99773 0.0
C1286 C 0.40258 0.39843 0.00906 0.0
C1287 C 0.36992 0.43465 0.03101 0.0
N1288 N 0.4592 0.41128 1.00255 0.0
N1289 N 0.39712 0.4392 0.02899 0.0
H1290 H 0.90095 0.1682 0.98278 0.0
H1291 H 0.97506 0.05459 0.04343 0.0
H1292 H 0.85881 0.11102 0.02853 0.0
H1293 H 0.0163 0.11845 0.00678 0.0
H1294 H 0.93194 0.07179 0.03408 0.0
H1295 H 0.94262 0.14713 0.98733 0.0
C1296 C 0.9004 0.15119 0.99383 0.0
C1297 C 0.87621 0.14168 1.00562 0.0
C1298 C 0.95043 0.08192 0.02792 0.0
C1299 C 0.92431 0.11709 0.01072 0.0
C1300 C 0.9751 0.07205 0.03314 0.0
C1301 C 0.99947 0.08509 0.02595 0.0
C1302 C 0.95003 0.10497 0.01527 0.0
C1303 C 0.99813 0.10773 0.01279 0.0
C1304 C 0.92429 0.13907 0.99633 0.0
C1305 C 0.87686 0.1191 0.01907 0.0
N1306 N 0.97393 0.11692 0.00798 0.0
N1307 N 0.90051 0.1077 0.02142 0.0
H1308 H 0.01171 0.13334 0.2525 0.0
H1309 H 0.06709 0.13837 0.10577 0.0
H1310 H 0.04008 0.20186 0.21543 0.0
H1311 H 0.03287 0.06967 0.13916 0.0
H1312 H 0.05747 0.16142 0.14604 0.0
H1313 H 0.01929 0.10933 0.21175 0.0
C1314 C 0.01937 0.1433 0.23568 0.0
C1315 C 0.02509 0.16962 0.23719 0.0
C1316 C 0.05196 0.14133 0.14465 0.0
C1317 C 0.03415 0.14234 0.19064 0.0
C1318 C 0.05748 0.12806 0.12156 0.0
C1319 C 0.05082 0.10192 0.11892 0.0
C1320 C 0.03973 0.12851 0.16559 0.0
C1321 C 0.03836 0.08978 0.14022 0.0
C1322 C 0.02375 0.12963 0.21247 0.0
C1323 C 0.03531 0.18161 0.215 0.0
N1324 N 0.0333 0.10314 0.16265 0.0
N1325 N 0.03952 0.16792 0.19272 0.0
H1326 H 0.03066 0.34147 0.26083 0.0
H1327 H 0.96334 0.3807 0.13232 0.0
H1328 H 0.98798 0.28931 0.20939 0.0
H1329 H 0.99565 0.43574 0.18762 0.0
H1330 H 0.97705 0.34686 0.15837 0.0
H1331 H 0.02315 0.37609 0.23211 0.0
C1332 C 0.02006 0.3373 0.24331 0.0
C1333 C 0.00971 0.31264 0.23748 0.0
C1334 C 0.98124 0.36632 0.16485 0.0
C1335 C 1.0009 0.35187 0.20487 0.0
C1336 C 0.97355 0.3857 0.14987 0.0
C1337 C 0.97842 0.41113 0.15775 0.0
C1338 C 0.99391 0.37228 0.18802 0.0
C1339 C 0.99126 0.41639 0.18098 0.0
C1340 C 0.01561 0.35702 0.22707 0.0
C1341 C 0.99596 0.30816 0.2147 0.0
N1342 N 0.99857 0.39709 0.19536 0.0
N1343 N 0.99187 0.32759 0.1993 0.0
H1344 H 0.04441 0.8184 0.20993 0.0
H1345 H 0.07186 0.85666 0.35636 0.0
H1346 H 0.08172 0.77095 0.26214 0.0
H1347 H 0.02188 0.89776 0.30855 0.0
H1348 H 0.08463 0.83023 0.31906 0.0
H1349 H 0.045 0.85273 0.24291 0.0
C1350 C 0.05342 0.8156 0.22813 0.0
C1351 C 0.06332 0.79219 0.23346 0.0
C1352 C 0.07106 0.8452 0.31668 0.0
C1353 C 0.06357 0.83069 0.27117 0.0
C1354 C 0.06385 0.86035 0.33795 0.0
C1355 C 0.04544 0.87915 0.33561 0.0
C1356 C 0.05976 0.84889 0.29294 0.0
C1357 C 0.0356 0.88304 0.3113 0.0
C1358 C 0.05362 0.83501 0.24694 0.0
C1359 C 0.07434 0.78901 0.25733 0.0
N1360 N 0.0427 0.86787 0.29092 0.0
N1361 N 0.07397 0.80801 0.27545 0.0
H1362 H 0.99461 0.62116 0.24194 0.0
H1363 H 0.04183 0.55881 0.36962 0.0
H1364 H 0.07304 0.63813 0.27218 0.0
H1365 H 0.95993 0.57581 0.35743 0.0
H1366 H 0.05521 0.57684 0.32762 0.0
H1367 H 0.98353 0.5933 0.278 0.0
C1368 C 0.00969 0.61861 0.25588 0.0
C1369 C 0.03473 0.63207 0.25415 0.0
C1370 C 0.03425 0.57612 0.33399 0.0
C1371 C 0.02221 0.6002 0.29537 0.0
C1372 C 0.02661 0.56565 0.35774 0.0
C1373 C 0.99976 0.56577 0.36678 0.0
C1374 C 0.01476 0.58626 0.31913 0.0
C1375 C 0.98083 0.57533 0.35101 0.0
C1376 C 1.0033 0.60285 0.27652 0.0
C1377 C 0.05342 0.62826 0.27294 0.0
N1378 N 0.98866 0.58518 0.32797 0.0
N1379 N 0.04677 0.61272 0.29281 0.0
H1380 H 0.26489 0.0493 0.15406 0.0
H1381 H 0.16168 0.08104 0.07602 0.0
H1382 H 0.20223 0.00851 0.19743 0.0
H1383 H 0.11896 0.01394 0.10481 0.0
H1384 H 0.19762 0.0749 0.10529 0.0
H1385 H 0.23305 0.05605 0.12076 0.0
C1386 C 0.24423 0.04204 0.15662 0.0
C1387 C 0.23595 0.02878 0.17868 0.0
C1388 C 0.18074 0.06113 0.10485 0.0
C1389 C 0.19914 0.03657 0.14076 0.0
C1390 C 0.16008 0.06473 0.08813 0.0
C1391 C 0.13725 0.04792 0.08775 0.0
C1392 C 0.17862 0.04057 0.12145 0.0
C1393 C 0.1362 0.02734 0.10426 0.0
C1394 C 0.22598 0.04602 0.13769 0.0
C1395 C 0.20923 0.01914 0.18084 0.0
N1396 N 0.1564 0.0244 0.12053 0.0
N1397 N 0.19177 0.02321 0.16212 0.0
H1398 H 0.80231 0.52527 0.19042 0.0
H1399 H 0.85809 0.44458 0.06862 0.0
H1400 H 0.76912 0.4508 0.1686 0.0
H1401 H 0.89043 0.51867 0.09174 0.0
H1402 H 0.82117 0.44879 0.10093 0.0
H1403 H 0.83093 0.52505 0.15137 0.0
C1404 C 0.80073 0.50892 0.17735 0.0
C1405 C 0.78307 0.488 0.18313 0.0
C1406 C 0.83586 0.46448 0.09844 0.0
C1407 C 0.81648 0.48753 0.13799 0.0
C1408 C 0.85663 0.46228 0.07959 0.0
C1409 C 0.8769 0.48165 0.0769 0.0
C1410 C 0.83555 0.48609 0.11501 0.0
C1411 C 0.87479 0.50361 0.09263 0.0
C1412 C 0.81728 0.50879 0.15499 0.0
C1413 C 0.7826 0.46725 0.16538 0.0
N1414 N 0.85476 0.50512 0.1111 0.0
N1415 N 0.79906 0.46751 0.14378 0.0
H1416 H 0.24095 0.02045 0.35223 0.0
H1417 H 0.11817 0.92157 0.38613 0.0
H1418 H 0.20797 0.96223 0.30053 0.0
H1419 H 0.13304 0.98915 0.43335 0.0
H1420 H 0.15638 0.93391 0.35831 0.0
H1421 H 0.20587 0.00809 0.38473 0.0
C1422 C 0.22641 1.00515 0.34761 0.0
C1423 C 0.22778 0.99222 0.32352 0.0
C1424 C 0.15153 0.94613 0.37475 0.0
C1425 C 0.18791 0.97778 0.36083 0.0
C1426 C 0.12968 0.93901 0.3908 0.0
C1427 C 0.12216 0.95448 0.41201 0.0
C1428 C 0.16624 0.96907 0.37962 0.0
C1429 C 0.13816 0.97668 0.41721 0.0
C1430 C 0.20649 0.99805 0.36626 0.0
C1431 C 0.2084 0.97242 0.31888 0.0
N1432 N 0.15938 0.98349 0.40093 0.0
N1433 N 0.18951 0.96586 0.33728 0.0
H1434 H 0.76771 0.52085 0.37113 0.0
H1435 H 0.92105 0.496 0.39453 0.0
H1436 H 0.81834 0.48315 0.31468 0.0
H1437 H 0.8822 0.56085 0.42816 0.0
H1438 H 0.88026 0.48408 0.3713 0.0
H1439 H 0.8067 0.52909 0.39822 0.0
C1440 C 0.78706 0.51423 0.36458 0.0
C1441 C 0.79002 0.50145 0.3407 0.0
C1442 C 0.88065 0.50079 0.38394 0.0
C1443 C 0.83429 0.51031 0.37156 0.0
C1444 C 0.90381 0.50752 0.39733 0.0
C1445 C 0.90502 0.52952 0.41321 0.0
C1446 C 0.85843 0.51591 0.3868 0.0
C1447 C 0.88215 0.54382 0.41599 0.0
C1448 C 0.8092 0.51891 0.37996 0.0
C1449 C 0.81536 0.49306 0.33302 0.0
N1450 N 0.85975 0.53676 0.40292 0.0
N1451 N 0.83656 0.49756 0.34845 0.0
H1452 H 0.25923 0.25496 0.00728 0.0
H1453 H 0.1307 0.17741 0.06656 0.0
H1454 H 0.19783 0.29045 0.05406 0.0
H1455 H 0.1651 0.15857 0.99166 0.0
H1456 H 0.16279 0.21445 0.06952 0.0
H1457 H 0.23155 0.2148 0.00787 0.0
C1458 C 0.2401 0.25412 0.0179 0.0
C1459 C 0.23091 0.27572 0.03103 0.0
C1460 C 0.16342 0.20201 0.05257 0.0
C1461 C 0.1996 0.23031 0.03207 0.0
C1462 C 0.14532 0.18091 0.05099 0.0
C1463 C 0.14526 0.16524 0.02877 0.0
C1464 C 0.18185 0.20701 0.03201 0.0
C1465 C 0.16443 0.17051 0.00895 0.0
C1466 C 0.22439 0.23137 0.01823 0.0
C1467 C 0.20581 0.27397 0.0442 0.0
N1468 N 0.18202 0.19097 0.01102 0.0
N1469 N 0.1911 0.25159 0.04458 0.0
H1470 H 0.16105 0.75725 0.44964 0.0
H1471 H 0.09409 0.88428 0.50368 0.0
H1472 H 0.17606 0.79182 0.52431 0.0
H1473 H 0.07968 0.85099 0.42839 0.0
H1474 H 0.12211 0.84928 0.51228 0.0
H1475 H 0.1299 0.79014 0.44215 0.0
C1476 C 0.15794 0.77175 0.46449 0.0
C1477 C 0.17153 0.7716 0.48767 0.0
C1478 C 0.11271 0.84948 0.49393 0.0
C1479 C 0.1353 0.80947 0.47919 0.0
C1480 C 0.09656 0.86949 0.48899 0.0
C1481 C 0.08436 0.87073 0.46522 0.0
C1482 C 0.11694 0.83039 0.47497 0.0
C1483 C 0.08852 0.8509 0.44702 0.0
C1484 C 0.13994 0.79049 0.46021 0.0
C1485 C 0.166 0.79078 0.50626 0.0
N1486 N 0.10451 0.8317 0.45221 0.0
N1487 N 0.1485 0.80887 0.50158 0.0
H1488 H 0.81986 0.74312 0.51936 0.0
H1489 H 0.93096 0.68622 0.4213 0.0
H1490 H 0.85624 0.78187 0.45411 0.0
H1491 H 0.90157 0.64658 0.4886 0.0
H1492 H 0.90202 0.72049 0.4331 0.0
H1493 H 0.84855 0.70747 0.50927 0.0
C1494 C 0.83403 0.7443 0.50309 0.0
C1495 C 0.83541 0.76559 0.48748 0.0
C1496 C 0.90176 0.70438 0.44542 0.0
C1497 C 0.86804 0.7246 0.4756 0.0
C1498 C 0.91842 0.68473 0.43868 0.0
C1499 C 0.91906 0.66353 0.45414 0.0
C1500 C 0.88531 0.70313 0.46789 0.0
C1501 C 0.90172 0.66251 0.4761 0.0
C1502 C 0.85025 0.72382 0.49723 0.0
C1503 C 0.854 0.76579 0.46648 0.0
N1504 N 0.88565 0.68211 0.48242 0.0
N1505 N 0.86939 0.7457 0.46119 0.0
H1506 H 0.35039 0.74839 0.54644 0.0
H1507 H 0.38327 0.89197 0.50841 0.0
H1508 H 0.29998 0.79099 0.50074 0.0
H1509 H 0.41874 0.86082 0.57385 0.0
H1510 H 0.35731 0.85239 0.50161 0.0
H1511 H 0.37963 0.78697 0.55361 0.0
C1512 C 0.34557 0.76592 0.53797 0.0
C1513 C 0.32288 0.76674 0.52302 0.0
C1514 C 0.37075 0.85411 0.51747 0.0
C1515 C 0.35608 0.81044 0.53075 0.0
C1516 C 0.38576 0.87674 0.52136 0.0
C1517 C 0.40317 0.87987 0.5419 0.0
C1518 C 0.3731 0.83415 0.53409 0.0
C1519 C 0.40549 0.85927 0.55785 0.0
C1520 C 0.36215 0.78782 0.54206 0.0
C1521 C 0.31737 0.78969 0.51232 0.0
N1522 N 0.39054 0.8372 0.55363 0.0
N1523 N 0.33391 0.8106 0.51631 0.0
H1524 H 0.54858 0.7032 0.72809 0.0
H1525 H 0.52351 0.56335 0.66435 0.0
H1526 H 0.51759 0.6394 0.77148 0.0
H1527 H 0.56123 0.627 0.62449 0.0
H1528 H 0.51882 0.59073 0.70323 0.0
H1529 H 0.55107 0.67558 0.68939 0.0
C1530 C 0.54216 0.68334 0.72935 0.0
C1531 C 0.53268 0.67358 0.75287 0.0
C1532 C 0.52808 0.59866 0.68593 0.0
C1533 C 0.53555 0.64164 0.70871 0.0
C1534 C 0.53073 0.58304 0.66371 0.0
C1535 C 0.54285 0.59278 0.64103 0.0
C1536 C 0.5375 0.62427 0.68549 0.0
C1537 C 0.55183 0.61851 0.64144 0.0
C1538 C 0.5436 0.66754 0.7073 0.0
C1539 C 0.52476 0.64767 0.75359 0.0
N1540 N 0.54898 0.63324 0.6632 0.0
N1541 N 0.52635 0.63259 0.73184 0.0
H1542 H 0.49669 0.78311 0.71274 0.0
H1543 H 0.52832 0.92146 0.65977 0.0
H1544 H 0.55748 0.83589 0.74313 0.0
H1545 H 0.47291 0.86618 0.62494 0.0
H1546 H 0.54264 0.88895 0.68763 0.0
H1547 H 0.49086 0.81169 0.67779 0.0
C1548 C 0.50892 0.80069 0.71193 0.0
C1549 C 0.52734 0.80733 0.73101 0.0
C1550 C 0.52758 0.88381 0.6737 0.0
C1551 C 0.52082 0.84013 0.69109 0.0
C1552 C 0.51934 0.90239 0.65787 0.0
C1553 C 0.49915 0.89656 0.64029 0.0
C1554 C 0.51534 0.85926 0.67212 0.0
C1555 C 0.48854 0.87146 0.63822 0.0
C1556 C 0.50569 0.81693 0.69192 0.0
C1557 C 0.54306 0.83006 0.72881 0.0
N1558 N 0.4965 0.8538 0.65422 0.0
N1559 N 0.5392 0.84581 0.70938 0.0
H1560 H 0.58297 0.31771 0.77688 0.0
H1561 H 0.50317 0.41999 0.84738 0.0
H1562 H 0.51075 0.34428 0.74642 0.0
H1563 H 0.58731 0.41287 0.85917 0.0
H1564 H 0.50841 0.39884 0.80521 0.0
H1565 H 0.58874 0.35734 0.80169 0.0
C1566 C 0.56859 0.33207 0.775 0.0
C1567 C 0.54586 0.32734 0.7602 0.0
C1568 C 0.52598 0.40256 0.81659 0.0
C1569 C 0.55209 0.37259 0.78892 0.0
C1570 C 0.52293 0.41462 0.8406 0.0
C1571 C 0.54472 0.41758 0.85671 0.0
C1572 C 0.55082 0.39272 0.80921 0.0
C1573 C 0.57002 0.41064 0.84724 0.0
C1574 C 0.57192 0.35477 0.78917 0.0
C1575 C 0.52796 0.34672 0.75845 0.0
N1576 N 0.57226 0.39778 0.82432 0.0
N1577 N 0.53113 0.36829 0.77312 0.0
H1578 H 0.55045 0.19573 0.79542 0.0
H1579 H 0.49232 0.06385 0.85359 0.0
H1580 H 0.50205 0.14081 0.75218 0.0
H1581 H 0.54423 0.11847 0.89351 0.0
H1582 H 0.49926 0.08884 0.81449 0.0
H1583 H 0.55149 0.16556 0.83009 0.0
C1584 C 0.54008 0.17726 0.79328 0.0
C1585 C 0.52577 0.17091 0.77118 0.0
C1586 C 0.50964 0.09502 0.83165 0.0
C1587 C 0.52682 0.13605 0.81073 0.0
C1588 C 0.50599 0.08052 0.85383 0.0
C1589 C 0.51803 0.08891 0.8767 0.0
C1590 C 0.52529 0.11811 0.83249 0.0
C1591 C 0.5348 0.11118 0.87619 0.0
C1592 C 0.54067 0.15997 0.81302 0.0
C1593 C 0.51293 0.14657 0.76917 0.0
N1594 N 0.53771 0.12504 0.85466 0.0
N1595 N 0.51354 0.13013 0.78874 0.0
H1596 H 0.75475 0.53873 0.65937 0.0
H1597 H 0.60006 0.50017 0.63396 0.0
H1598 H 0.7023 0.4993 0.71419 0.0
H1599 H 0.64768 0.55511 0.58973 0.0
H1600 H 0.63877 0.49486 0.66035 0.0
H1601 H 0.71711 0.54056 0.63078 0.0
C1602 C 0.73516 0.53062 0.6654 0.0
C1603 C 0.73134 0.51935 0.68934 0.0
C1604 C 0.64078 0.50795 0.64476 0.0
C1605 C 0.68834 0.52079 0.65655 0.0
C1606 C 0.61874 0.51087 0.62955 0.0
C1607 C 0.62056 0.52818 0.60959 0.0
C1608 C 0.66493 0.52226 0.63989 0.0
C1609 C 0.64529 0.5416 0.60492 0.0
C1610 C 0.71374 0.53156 0.64908 0.0
C1611 C 0.70584 0.50849 0.69603 0.0
N1612 N 0.66644 0.5384 0.61997 0.0
N1613 N 0.68525 0.50951 0.67973 0.0
H1614 H 0.24559 0.9886 0.6715 0.0
H1615 H 0.39917 0.95969 0.6355 0.0
H1616 H 0.30593 0.97882 0.72654 0.0
H1617 H 0.34312 0.97294 0.57708 0.0
H1618 H 0.36452 0.96694 0.66835 0.0
H1619 H 0.27978 0.98332 0.63641 0.0
C1620 C 0.26607 0.98542 0.67614 0.0
C1621 C 0.27299 0.98413 0.70195 0.0
C1622 C 0.35959 0.96834 0.64842 0.0
C1623 C 0.31216 0.97797 0.662 0.0
C1624 C 0.3795 0.96415 0.62945 0.0
C1625 C 0.37424 0.96557 0.60321 0.0
C1626 C 0.33375 0.97401 0.64153 0.0
C1627 C 0.3482 0.97163 0.59697 0.0
C1628 C 0.28555 0.98239 0.65614 0.0
C1629 C 0.29974 0.9799 0.70695 0.0
N1630 N 0.3289 0.97553 0.61598 0.0
N1631 N 0.31822 0.97694 0.68726 0.0
H1632 H 0.72119 0.53648 0.83584 0.0
H1633 H 0.6427 0.43297 0.91604 0.0
H1634 H 0.7539 0.46328 0.84406 0.0
H1635 H 0.64453 0.51081 0.9437 0.0
H1636 H 0.68087 0.44342 0.88652 0.0
H1637 H 0.69053 0.52791 0.87265 0.0
C1638 C 0.72231 0.51877 0.84544 0.0
C1639 C 0.74016 0.50048 0.83634 0.0
C1640 C 0.67321 0.45813 0.89933 0.0
C1641 C 0.70438 0.49041 0.87815 0.0
C1642 C 0.65149 0.4522 0.91612 0.0
C1643 C 0.64073 0.47105 0.93235 0.0
C1644 C 0.68363 0.48329 0.89813 0.0
C1645 C 0.65257 0.49573 0.93163 0.0
C1646 C 0.70466 0.51391 0.86645 0.0
C1647 C 0.74006 0.47771 0.84961 0.0
N1648 N 0.67315 0.50131 0.91438 0.0
N1649 N 0.72218 0.47318 0.86952 0.0
H1650 H 0.32165 0.98396 0.84219 0.0
H1651 H 0.40265 0.0918 0.92321 0.0
H1652 H 0.28982 0.05662 0.86242 0.0
H1653 H 0.42585 0.01441 0.914 0.0
H1654 H 0.36106 0.07969 0.90128 0.0
H1655 H 0.35987 0.99505 0.86877 0.0
C1656 C 0.32249 1.00214 0.85243 0.0
C1657 C 0.30242 0.01938 0.84996 0.0
C1658 C 0.3752 0.06536 0.90425 0.0
C1659 C 0.34659 0.03244 0.88014 0.0
C1660 C 0.39892 0.07226 0.91677 0.0
C1661 C 0.41784 0.05414 0.92031 0.0
C1662 C 0.37051 0.04023 0.89511 0.0
C1663 C 0.41195 0.02908 0.9116 0.0
C1664 C 0.34446 0.00854 0.86752 0.0
C1665 C 0.30501 0.04289 0.86337 0.0
N1666 N 0.38893 0.02294 0.89927 0.0
N1667 N 0.32676 0.04878 0.87777 0.0
H1668 H 0.66327 0.78335 0.53178 0.0
H1669 H 0.62987 0.63958 0.48908 0.0
H1670 H 0.7185 0.73785 0.4874 0.0
H1671 H 0.60169 0.66892 0.56289 0.0
H1672 H 0.65303 0.68053 0.48065 0.0
H1673 H 0.63236 0.74573 0.53664 0.0
C1674 C 0.66886 0.76536 0.52317 0.0
C1675 C 0.69368 0.76335 0.50974 0.0
C1676 C 0.64148 0.67812 0.49854 0.0
C1677 C 0.65815 0.72092 0.51426 0.0
C1678 C 0.6282 0.65486 0.50334 0.0
C1679 C 0.61436 0.65077 0.52695 0.0
C1680 C 0.64068 0.69764 0.51735 0.0
C1681 C 0.61225 0.67133 0.54452 0.0
C1682 C 0.65123 0.74407 0.52585 0.0
C1683 C 0.69972 0.73996 0.49822 0.0
N1684 N 0.62562 0.69395 0.5395 0.0
N1685 N 0.68203 0.71961 0.50071 0.0
H1686 H 0.66573 0.27017 0.96316 0.0
H1687 H 0.62046 0.4037 0.0239 0.0
H1688 H 0.69651 0.30381 0.03342 0.0
H1689 H 0.58894 0.36902 0.95442 0.0
H1690 H 0.64653 0.36639 0.02906 0.0
H1691 H 0.63612 0.30526 0.96077 0.0
C1692 C 0.66633 0.2849 0.97811 0.0
C1693 C 0.68391 0.28389 0.99847 0.0
C1694 C 0.63376 0.36684 0.01278 0.0
C1695 C 0.64961 0.32439 0.99591 0.0
C1696 C 0.61874 0.38816 0.00986 0.0
C1697 C 0.60238 0.38965 0.98866 0.0
C1698 C 0.63259 0.34676 0.99435 0.0
C1699 C 0.60119 0.36883 0.97109 0.0
C1700 C 0.64924 0.30494 0.9768 0.0
C1701 C 0.68323 0.30348 0.01748 0.0
N1702 N 0.61614 0.34842 0.97425 0.0
N1703 N 0.66656 0.3229 0.01565 0.0
H1704 H 0.3898 0.30692 0.97952 0.0
H1705 H 0.42381 0.16275 1.00151 0.0
H1706 H 0.34981 0.26193 0.03863 0.0
H1707 H 0.4636 0.2107 0.94468 0.0
H1708 H 0.39639 0.1982 0.01588 0.0
H1709 H 0.41772 0.27165 0.96759 0.0
C1710 C 0.387 0.28962 0.99009 0.0
C1711 C 0.36734 0.28736 0.01002 0.0
C1712 C 0.41119 0.2009 1.0003 0.0
C1713 C 0.39926 0.2466 0.99635 0.0
C1714 C 0.42669 0.18062 0.99197 0.0
C1715 C 0.44622 0.18375 0.97197 0.0
C1716 C 0.41517 0.22441 0.98842 0.0
C1717 C 0.44922 0.20745 0.96046 0.0
C1718 C 0.40296 0.26943 0.98327 0.0
C1719 C 0.36486 0.26456 0.02326 0.0
N1720 N 0.43393 0.22674 0.96883 0.0
N1721 N 0.38047 0.24498 0.01607 0.0
H1722 H 0.8618 0.26954 0.99779 0.0
H1723 H 0.89327 0.39439 0.08012 0.0
H1724 H 0.7973 0.30984 0.03473 0.0
H1725 H 0.93181 0.38432 1.00513 0.0
H1726 H 0.86309 0.3571 0.07094 0.0
H1727 H 0.89292 0.30611 0.00683 0.0
C1728 C 0.85417 0.28629 0.00746 0.0
C1729 C 0.82689 0.28711 0.01496 0.0
C1730 C 0.87836 0.36301 0.05667 0.0
C1731 C 0.86247 0.32808 0.02651 0.0
C1732 C 0.89572 0.384 0.06196 0.0
C1733 C 0.91505 0.39224 0.04335 0.0
C1734 C 0.88092 0.3499 0.03294 0.0
C1735 C 0.91714 0.37846 0.01995 0.0
C1736 C 0.87191 0.30694 0.01275 0.0
C1737 C 0.81814 0.30878 0.02831 0.0
N1738 N 0.90035 0.35777 0.01543 0.0
N1739 N 0.83597 0.32842 0.03392 0.0
loop_
_geom_bond_atom_site_label_1
_geom_bond_atom_site_label_2
_geom_bond_distance
_geom_bond_site_symmetry_2
_ccdc_geom_bond_type
C0 C1 1.443 . S
C0 N4 1.376 . S
C0 C38 1.389 1_655 S
C1 C0 1.443 . S
C1 C2 1.340 . S
C1 H41 0.951 . S
C2 C1 1.340 . S
C2 C3 1.439 . S
C2 H42 0.950 . S
C3 C2 1.439 . S
C3 N4 1.374 . S
C3 C37 1.395 . S
N4 C0 1.376 . S
N4 C3 1.374 . S
N4 Co5 2.008 1_655 S
Co5 N4 2.008 1_455 S
Co5 N6 1.995 . S
Co5 N11 2.008 . S
Co5 N16 1.995 . S
Co5 N21 2.282 . S
Co5 N27 2.282 . S
N6 Co5 1.995 . S
N6 C7 1.376 1_455 S
N6 C10 1.383 . S
C7 N6 1.376 1_655 S
C7 C8 1.446 . S
C7 C37 1.391 . S
C8 C7 1.446 . S
C8 C9 1.339 . S
C8 H43 0.949 . S
C9 C8 1.339 . S
C9 C10 1.439 1_655 S
C9 H44 0.950 . S
C10 N6 1.383 . S
C10 C9 1.439 1_455 S
C10 C39 1.392 . S
N11 Co5 2.008 . S
N11 C12 1.376 . S
N11 C15 1.374 . S
C12 N11 1.376 . S
C12 C13 1.443 . S
C12 C39 1.389 . S
C13 C12 1.443 . S
C13 C14 1.340 . S
C13 H45 0.951 . S
C14 C13 1.340 . S
C14 C15 1.439 . S
C14 H46 0.950 . S
C15 N11 1.374 . S
C15 C14 1.439 . S
C15 C40 1.395 . S
N16 Co5 1.995 . S
N16 C17 1.376 . S
N16 C20 1.383 . S
C17 N16 1.376 . S
C17 C18 1.446 . S
C17 C40 1.391 . S
C18 C17 1.446 . S
C18 C19 1.339 . S
C18 H47 0.949 . S
C19 C18 1.339 . S
C19 C20 1.439 . S
C19 H48 0.950 . S
C20 N16 1.383 . S
C20 C19 1.439 . S
C20 C38 1.392 . S
N21 Co5 2.282 . S
N21 C24 1.332 . S
N21 C26 1.332 . S
C22 C23 1.386 . S
C22 C25 1.388 . S
C23 C22 1.386 . S
C23 C24 1.382 . S
C23 H49 0.950 . S
C24 N21 1.332 . S
C24 C23 1.382 . S
C24 H35 0.952 . S
C25 C22 1.388 . S
C25 C26 1.382 . S
C25 H50 0.950 . S
C26 N21 1.332 . S
C26 C25 1.382 . S
C26 H36 0.948 1_455 S
N27 Co5 2.282 . S
N27 C31 1.332 . S
N27 C32 1.332 . S
C28 C29 1.388 . S
C28 C32 1.382 . S
C28 H51 0.950 . S
C29 C28 1.388 . S
C29 C30 1.386 1_455 S
C30 C29 1.386 1_655 S
C30 C31 1.382 1_655 S
C30 H52 0.950 . S
C31 N27 1.332 . S
C31 C30 1.382 1_455 S
C31 H33 0.952 1_455 S
C32 N27 1.332 . S
C32 C28 1.382 . S
C32 H34 0.948 . S
H33 C31 0.952 1_655 S
H34 C32 0.948 . S
H35 C24 0.952 . S
H36 C26 0.948 1_655 S
C37 C3 1.395 . S
C37 C7 1.391 . S
C38 C0 1.389 1_455 S
C38 C20 1.392 . S
C39 C10 1.392 . S
C39 C12 1.389 . S
C40 C15 1.395 . S
C40 C17 1.391 . S
H41 C1 0.951 . S
H42 C2 0.950 . S
H43 C8 0.949 . S
H44 C9 0.950 . S
H45 C13 0.951 . S
H46 C14 0.950 . S
H47 C18 0.949 . S
H48 C19 0.950 . S
H49 C23 0.950 . S
H50 C25 0.950 . S
H51 C28 0.950 . S
H52 C30 0.950 . S
C53 C54 1.443 . S
C53 N57 1.376 . S
C53 C91 1.388 . S
C54 C53 1.443 . S
C54 C55 1.340 . S
C54 H94 0.951 . S
C55 C54 1.340 . S
C55 C56 1.439 . S
C55 H95 0.950 . S
C56 C55 1.439 . S
C56 N57 1.374 . S
C56 C90 1.395 . S
N57 C53 1.376 . S
N57 C56 1.374 . S
N57 Co58 2.008 1_655 S
Co58 N57 2.008 1_455 S
Co58 N59 1.995 1_455 S
Co58 N64 2.008 . S
Co58 N69 1.995 . S
Co58 N74 2.282 . S
Co58 N80 2.282 . S
N59 Co58 1.995 1_655 S
N59 C60 1.376 . S
N59 C63 1.383 . S
C60 N59 1.376 . S
C60 C61 1.446 . S
C60 C90 1.391 . S
C61 C60 1.446 . S
C61 C62 1.339 . S
C61 H96 0.949 . S
C62 C61 1.339 . S
C62 C63 1.439 . S
C62 H97 0.950 . S
C63 N59 1.383 . S
C63 C62 1.439 . S
C63 C92 1.392 1_655 S
N64 Co58 2.008 . S
N64 C65 1.376 . S
N64 C68 1.374 . S
C65 N64 1.376 . S
C65 C66 1.443 . S
C65 C92 1.389 . S
C66 C65 1.443 . S
C66 C67 1.340 . S
C66 H98 0.951 . S
C67 C66 1.340 . S
C67 C68 1.439 . S
C67 H99 0.950 . S
C68 N64 1.374 . S
C68 C67 1.439 . S
C68 C93 1.395 . S
N69 Co58 1.995 . S
N69 C70 1.376 . S
N69 C73 1.383 . S
C70 N69 1.376 . S
C70 C71 1.446 . S
C70 C93 1.391 . S
C71 C70 1.446 . S
C71 C72 1.339 . S
C71 H100 0.949 . S
C72 C71 1.339 . S
C72 C73 1.439 . S
C72 H101 0.950 . S
C73 N69 1.383 . S
C73 C72 1.439 . S
C73 C91 1.393 1_455 S
N74 Co58 2.282 . S
N74 C77 1.332 . S
N74 C79 1.332 1_455 S
C75 C76 1.386 . S
C75 C78 1.388 . S
C76 C75 1.386 . S
C76 C77 1.382 . S
C76 H102 0.950 . S
C77 N74 1.332 . S
C77 C76 1.382 . S
C77 H88 0.952 . S
C78 C75 1.388 . S
C78 C79 1.382 1_455 S
C78 H103 0.950 1_455 S
C79 N74 1.332 1_655 S
C79 C78 1.382 1_655 S
C79 H89 0.948 . S
N80 Co58 2.282 . S
N80 C84 1.332 1_455 S
N80 C85 1.332 . S
C81 C82 1.388 1_455 S
C81 C85 1.382 . S
C81 H104 0.950 . S
C82 C81 1.388 1_655 S
C82 C83 1.386 . S
C83 C82 1.386 . S
C83 C84 1.382 . S
C83 H105 0.950 . S
C84 N80 1.332 1_655 S
C84 C83 1.382 . S
C84 H86 0.952 . S
C85 N80 1.332 . S
C85 C81 1.382 . S
C85 H87 0.948 . S
H86 C84 0.952 . S
H87 C85 0.948 . S
H88 C77 0.952 . S
H89 C79 0.948 . S
C90 C56 1.395 . S
C90 C60 1.391 . S
C91 C53 1.388 . S
C91 C73 1.393 1_655 S
C92 C63 1.392 1_455 S
C92 C65 1.389 . S
C93 C68 1.395 . S
C93 C70 1.391 . S
H94 C54 0.951 . S
H95 C55 0.950 . S
H96 C61 0.949 . S
H97 C62 0.950 . S
H98 C66 0.951 . S
H99 C67 0.950 . S
H100 C71 0.949 . S
H101 C72 0.950 . S
H102 C76 0.950 . S
H103 C78 0.950 1_655 S
H104 C81 0.950 . S
H105 C83 0.950 . S
C106 C107 1.443 . S
C106 N110 1.376 . S
C106 C144 1.389 . S
C107 C106 1.443 . S
C107 C108 1.340 . S
C107 H147 0.951 . S
C108 C107 1.340 . S
C108 C109 1.439 . S
C108 H148 0.950 . S
C109 C108 1.439 . S
C109 N110 1.374 . S
C109 C143 1.395 . S
N110 C106 1.376 . S
N110 C109 1.374 . S
N110 Co111 2.008 1_565 S
Co111 N110 2.008 1_545 S
Co111 N112 1.995 1_545 S
Co111 N117 2.008 . S
Co111 N122 1.995 . S
Co111 N127 2.282 . S
Co111 N133 2.282 . S
N112 Co111 1.995 1_565 S
N112 C113 1.376 . S
N112 C116 1.375 1_565 S
C113 N112 1.376 . S
C113 C114 1.446 . S
C113 C143 1.391 . S
C114 C113 1.446 . S
C114 C115 1.339 . S
C114 H149 0.949 . S
C115 C114 1.339 . S
C115 C116 1.424 1_565 S
C115 H150 0.950 . S
C116 N112 1.375 1_545 S
C116 C115 1.424 1_545 S
C116 C145 1.412 . S
N117 Co111 2.008 . S
N117 C118 1.376 . S
N117 C121 1.374 . S
C118 N117 1.376 . S
C118 C119 1.443 . S
C118 C145 1.389 . S
C119 C118 1.443 . S
C119 C120 1.340 . S
C119 H151 0.951 . S
C120 C119 1.340 . S
C120 C121 1.439 . S
C120 H152 0.950 . S
C121 N117 1.374 . S
C121 C120 1.439 . S
C121 C146 1.395 . S
N122 Co111 1.995 . S
N122 C123 1.376 . S
N122 C126 1.383 . S
C123 N122 1.376 . S
C123 C124 1.446 . S
C123 C146 1.391 . S
C124 C123 1.446 . S
C124 C125 1.339 . S
C124 H153 0.949 . S
C125 C124 1.339 . S
C125 C126 1.439 . S
C125 H154 0.950 . S
C126 N122 1.383 . S
C126 C125 1.439 . S
C126 C144 1.392 1_545 S
N127 Co111 2.282 . S
N127 C130 1.332 . S
N127 C132 1.332 . S
C128 C129 1.386 . S
C128 C131 1.388 . S
C129 C128 1.386 . S
C129 C130 1.382 . S
C129 H155 0.950 . S
C130 N127 1.332 . S
C130 C129 1.382 . S
C130 H141 0.952 . S
C131 C128 1.388 . S
C131 C132 1.382 . S
C131 H156 0.950 1_545 S
C132 N127 1.332 . S
C132 C131 1.382 . S
C132 H142 0.948 1_545 S
N133 Co111 2.282 . S
N133 C137 1.332 1_545 S
N133 C138 1.332 . S
C134 C135 1.388 1_545 S
C134 C138 1.382 . S
C134 H157 0.950 . S
C135 C134 1.388 1_565 S
C135 C136 1.386 . S
C136 C135 1.386 . S
C136 C137 1.382 . S
C136 H158 0.950 . S
C137 N133 1.332 1_565 S
C137 C136 1.382 . S
C137 H139 0.952 . S
C138 N133 1.332 . S
C138 C134 1.382 . S
C138 H140 0.948 . S
H139 C137 0.952 . S
H140 C138 0.948 . S
H141 C130 0.952 . S
H142 C132 0.948 1_565 S
C143 C109 1.395 . S
C143 C113 1.391 . S
C144 C106 1.389 . S
C144 C126 1.392 1_565 S
C145 C116 1.412 . S
C145 C118 1.389 . S
C146 C121 1.395 . S
C146 C123 1.391 . S
H147 C107 0.951 . S
H148 C108 0.950 . S
H149 C114 0.949 . S
H150 C115 0.950 . S
H151 C119 0.951 . S
H152 C120 0.950 . S
H153 C124 0.949 . S
H154 C125 0.950 . S
H155 C129 0.950 . S
H156 C131 0.950 1_565 S
H157 C134 0.950 . S
H158 C136 0.950 . S
C159 C160 1.443 . S
C159 N163 1.376 . S
C159 C197 1.389 . S
C160 C159 1.443 . S
C160 C161 1.340 . S
C160 H200 0.951 . S
C161 C160 1.340 . S
C161 C162 1.439 . S
C161 H201 0.950 . S
C162 C161 1.439 . S
C162 N163 1.374 . S
C162 C196 1.395 . S
N163 C159 1.376 . S
N163 C162 1.374 . S
N163 Co164 2.008 . S
Co164 N163 2.008 . S
Co164 N165 1.995 . S
Co164 N170 2.008 . S
Co164 N175 1.995 . S
Co164 N180 2.282 . S
Co164 N186 2.282 . S
N165 Co164 1.995 . S
N165 C166 1.376 . S
N165 C169 1.383 . S
C166 N165 1.376 . S
C166 C167 1.446 . S
C166 C196 1.391 . S
C167 C166 1.446 . S
C167 C168 1.339 . S
C167 H202 0.949 . S
C168 C167 1.339 . S
C168 C169 1.439 . S
C168 H203 0.950 . S
C169 N165 1.383 . S
C169 C168 1.439 . S
C169 C198 1.392 . S
N170 Co164 2.008 . S
N170 C171 1.376 . S
N170 C174 1.374 . S
C171 N170 1.376 . S
C171 C172 1.443 . S
C171 C198 1.389 . S
C172 C171 1.443 . S
C172 C173 1.340 . S
C172 H204 0.951 . S
C173 C172 1.340 . S
C173 C174 1.439 . S
C173 H205 0.950 . S
C174 N170 1.374 . S
C174 C173 1.439 . S
C174 C199 1.395 . S
N175 Co164 1.995 . S
N175 C176 1.376 . S
N175 C179 1.383 . S
C176 N175 1.376 . S
C176 C177 1.446 . S
C176 C199 1.391 . S
C177 C176 1.446 . S
C177 C178 1.339 . S
C177 H206 0.949 . S
C178 C177 1.339 . S
C178 C179 1.439 . S
C178 H207 0.950 . S
C179 N175 1.383 . S
C179 C178 1.439 . S
C179 C197 1.392 . S
N180 Co164 2.282 . S
N180 C183 1.332 . S
N180 C185 1.332 . S
C181 C182 1.386 . S
C181 C184 1.388 . S
C182 C181 1.386 . S
C182 C183 1.382 . S
C182 H208 0.950 . S
C183 N180 1.332 . S
C183 C182 1.382 . S
C183 H194 0.952 . S
C184 C181 1.388 . S
C184 C185 1.382 . S
C184 H209 0.950 . S
C185 N180 1.332 . S
C185 C184 1.382 . S
C185 H195 0.948 . S
N186 Co164 2.282 . S
N186 C190 1.332 . S
N186 C191 1.332 . S
C187 C188 1.388 . S
C187 C191 1.382 . S
C187 H210 0.950 . S
C188 C187 1.388 . S
C188 C189 1.386 . S
C189 C188 1.386 . S
C189 C190 1.382 . S
C189 H211 0.950 . S
C190 N186 1.332 . S
C190 C189 1.382 . S
C190 H192 0.952 . S
C191 N186 1.332 . S
C191 C187 1.382 . S
C191 H193 0.948 . S
H192 C190 0.952 . S
H193 C191 0.948 . S
H194 C183 0.952 . S
H195 C185 0.948 . S
C196 C162 1.395 . S
C196 C166 1.391 . S
C197 C159 1.389 . S
C197 C179 1.392 . S
C198 C169 1.392 . S
C198 C171 1.389 . S
C199 C174 1.395 . S
C199 C176 1.391 . S
H200 C160 0.951 . S
H201 C161 0.950 . S
H202 C167 0.949 . S
H203 C168 0.950 . S
H204 C172 0.951 . S
H205 C173 0.950 . S
H206 C177 0.949 . S
H207 C178 0.950 . S
H208 C182 0.950 . S
H209 C184 0.950 . S
H210 C187 0.950 . S
H211 C189 0.950 . S
C212 C213 1.443 . S
C212 N216 1.376 . S
C212 C250 1.389 1_556 S
C213 C212 1.443 . S
C213 C214 1.340 . S
C213 H253 0.951 . S
C214 C213 1.340 . S
C214 C215 1.439 . S
C214 H254 0.950 . S
C215 C214 1.439 . S
C215 N216 1.374 . S
C215 C249 1.395 . S
N216 C212 1.376 . S
N216 C215 1.374 . S
N216 Co217 2.008 1_556 S
Co217 N216 2.008 1_554 S
Co217 N218 1.995 1_554 S
Co217 N223 2.008 . S
Co217 N228 1.995 . S
Co217 N233 2.282 . S
Co217 N239 2.282 . S
N218 Co217 1.995 1_556 S
N218 C219 1.376 . S
N218 C222 1.384 1_556 S
C219 N218 1.376 . S
C219 C220 1.446 . S
C219 C249 1.391 . S
C220 C219 1.446 . S
C220 C221 1.339 . S
C220 H255 0.949 . S
C221 C220 1.339 . S
C221 C222 1.440 1_556 S
C221 H256 0.950 . S
C222 N218 1.384 1_554 S
C222 C221 1.440 1_554 S
C222 C251 1.390 . S
N223 Co217 2.008 . S
N223 C224 1.376 . S
N223 C227 1.374 . S
C224 N223 1.376 . S
C224 C225 1.443 . S
C224 C251 1.389 . S
C225 C224 1.443 . S
C225 C226 1.340 . S
C225 H257 0.951 . S
C226 C225 1.340 . S
C226 C227 1.439 . S
C226 H258 0.950 . S
C227 N223 1.374 . S
C227 C226 1.439 . S
C227 C252 1.395 . S
N228 Co217 1.995 . S
N228 C229 1.376 . S
N228 C232 1.383 . S
C229 N228 1.376 . S
C229 C230 1.446 . S
C229 C252 1.391 . S
C230 C229 1.446 . S
C230 C231 1.339 . S
C230 H259 0.949 . S
C231 C230 1.339 . S
C231 C232 1.439 . S
C231 H260 0.950 . S
C232 N228 1.383 . S
C232 C231 1.439 . S
C232 C250 1.392 . S
N233 Co217 2.282 . S
N233 C236 1.332 . S
N233 C238 1.332 . S
C234 C235 1.386 . S
C234 C237 1.388 . S
C235 C234 1.386 . S
C235 C236 1.382 . S
C235 H261 0.950 . S
C236 N233 1.332 . S
C236 C235 1.382 . S
C236 H247 0.952 . S
C237 C234 1.388 . S
C237 C238 1.382 . S
C237 H262 0.950 1_554 S
C238 N233 1.332 . S
C238 C237 1.382 . S
C238 H248 0.948 1_554 S
N239 Co217 2.282 . S
N239 C243 1.332 1_554 S
N239 C244 1.332 . S
C240 C241 1.388 1_554 S
C240 C244 1.382 . S
C240 H263 0.950 . S
C241 C240 1.388 1_556 S
C241 C242 1.386 . S
C242 C241 1.386 . S
C242 C243 1.382 . S
C242 H264 0.950 . S
C243 N239 1.332 1_556 S
C243 C242 1.382 . S
C243 H245 0.952 . S
C244 N239 1.332 . S
C244 C240 1.382 . S
C244 H246 0.948 . S
H245 C243 0.952 . S
H246 C244 0.948 . S
H247 C236 0.952 . S
H248 C238 0.948 1_556 S
C249 C215 1.395 . S
C249 C219 1.391 . S
C250 C212 1.389 1_554 S
C250 C232 1.392 . S
C251 C222 1.390 . S
C251 C224 1.389 . S
C252 C227 1.395 . S
C252 C229 1.391 . S
H253 C213 0.951 . S
H254 C214 0.950 . S
H255 C220 0.949 . S
H256 C221 0.950 . S
H257 C225 0.951 . S
H258 C226 0.950 . S
H259 C230 0.949 . S
H260 C231 0.950 . S
H261 C235 0.950 . S
H262 C237 0.950 1_556 S
H263 C240 0.950 . S
H264 C242 0.950 . S
C265 C266 1.443 . S
C265 N269 1.376 . S
C265 C303 1.389 . S
C266 C265 1.443 . S
C266 C267 1.340 . S
C266 H306 0.951 . S
C267 C266 1.340 . S
C267 C268 1.439 . S
C267 H307 0.950 . S
C268 C267 1.439 . S
C268 N269 1.374 . S
C268 C302 1.395 . S
N269 C265 1.376 . S
N269 C268 1.374 . S
N269 Co270 2.008 . S
Co270 N269 2.008 . S
Co270 N271 1.995 . S
Co270 N276 2.008 . S
Co270 N281 1.995 . S
Co270 N286 2.282 . S
Co270 N292 2.282 . S
N271 Co270 1.995 . S
N271 C272 1.376 . S
N271 C275 1.383 . S
C272 N271 1.376 . S
C272 C273 1.446 . S
C272 C302 1.391 . S
C273 C272 1.446 . S
C273 C274 1.339 . S
C273 H308 0.949 . S
C274 C273 1.339 . S
C274 C275 1.439 . S
C274 H309 0.950 . S
C275 N271 1.383 . S
C275 C274 1.439 . S
C275 C304 1.392 . S
N276 Co270 2.008 . S
N276 C277 1.376 . S
N276 C280 1.374 . S
C277 N276 1.376 . S
C277 C278 1.443 . S
C277 C304 1.389 . S
C278 C277 1.443 . S
C278 C279 1.340 . S
C278 H310 0.951 . S
C279 C278 1.340 . S
C279 C280 1.439 . S
C279 H311 0.950 . S
C280 N276 1.374 . S
C280 C279 1.439 . S
C280 C305 1.395 . S
N281 Co270 1.995 . S
N281 C282 1.376 . S
N281 C285 1.383 . S
C282 N281 1.376 . S
C282 C283 1.446 . S
C282 C305 1.391 . S
C283 C282 1.446 . S
C283 C284 1.339 . S
C283 H312 0.949 . S
C284 C283 1.339 . S
C284 C285 1.439 . S
C284 H313 0.950 . S
C285 N281 1.383 . S
C285 C284 1.439 . S
C285 C303 1.392 . S
N286 Co270 2.282 . S
N286 C289 1.332 . S
N286 C291 1.332 . S
C287 C288 1.386 . S
C287 C290 1.388 . S
C288 C287 1.386 . S
C288 C289 1.382 . S
C288 H314 0.950 . S
C289 N286 1.332 . S
C289 C288 1.382 . S
C289 H300 0.952 . S
C290 C287 1.388 . S
C290 C291 1.382 . S
C290 H315 0.950 . S
C291 N286 1.332 . S
C291 C290 1.382 . S
C291 H301 0.948 . S
N292 Co270 2.282 . S
N292 C296 1.332 . S
N292 C297 1.332 . S
C293 C294 1.388 . S
C293 C297 1.382 . S
C293 H316 0.950 . S
C294 C293 1.388 . S
C294 C295 1.386 . S
C295 C294 1.386 . S
C295 C296 1.382 . S
C295 H317 0.950 . S
C296 N292 1.332 . S
C296 C295 1.382 . S
C296 H298 0.952 . S
C297 N292 1.332 . S
C297 C293 1.382 . S
C297 H299 0.948 . S
H298 C296 0.952 . S
H299 C297 0.948 . S
H300 C289 0.952 . S
H301 C291 0.948 . S
C302 C268 1.395 . S
C302 C272 1.391 . S
C303 C265 1.389 . S
C303 C285 1.392 . S
C304 C275 1.392 . S
C304 C277 1.389 . S
C305 C280 1.395 . S
C305 C282 1.391 . S
H306 C266 0.951 . S
H307 C267 0.950 . S
H308 C273 0.949 . S
H309 C274 0.950 . S
H310 C278 0.951 . S
H311 C279 0.950 . S
H312 C283 0.949 . S
H313 C284 0.950 . S
H314 C288 0.950 . S
H315 C290 0.950 . S
H316 C293 0.950 . S
H317 C295 0.950 . S
C318 C319 1.443 . S
C318 N322 1.376 . S
C318 C356 1.389 . S
C319 C318 1.443 . S
C319 C320 1.340 . S
C319 H359 0.951 . S
C320 C319 1.340 . S
C320 C321 1.439 . S
C320 H360 0.950 . S
C321 C320 1.439 . S
C321 N322 1.374 . S
C321 C355 1.395 . S
N322 C318 1.376 . S
N322 C321 1.374 . S
N322 Co323 2.008 . S
Co323 N322 2.008 . S
Co323 N324 1.995 . S
Co323 N329 2.008 . S
Co323 N334 1.995 . S
Co323 N339 2.282 . S
Co323 N345 2.282 . S
N324 Co323 1.995 . S
N324 C325 1.376 . S
N324 C328 1.383 . S
C325 N324 1.376 . S
C325 C326 1.446 . S
C325 C355 1.391 . S
C326 C325 1.446 . S
C326 C327 1.339 . S
C326 H361 0.949 . S
C327 C326 1.339 . S
C327 C328 1.439 . S
C327 H362 0.950 . S
C328 N324 1.383 . S
C328 C327 1.439 . S
C328 C357 1.392 . S
N329 Co323 2.008 . S
N329 C330 1.376 . S
N329 C333 1.374 . S
C330 N329 1.376 . S
C330 C331 1.443 . S
C330 C357 1.389 . S
C331 C330 1.443 . S
C331 C332 1.340 . S
C331 H363 0.951 . S
C332 C331 1.340 . S
C332 C333 1.439 . S
C332 H364 0.950 . S
C333 N329 1.374 . S
C333 C332 1.439 . S
C333 C358 1.395 . S
N334 Co323 1.995 . S
N334 C335 1.376 . S
N334 C338 1.383 . S
C335 N334 1.376 . S
C335 C336 1.446 . S
C335 C358 1.391 . S
C336 C335 1.446 . S
C336 C337 1.339 . S
C336 H365 0.949 . S
C337 C336 1.339 . S
C337 C338 1.439 . S
C337 H366 0.950 . S
C338 N334 1.383 . S
C338 C337 1.439 . S
C338 C356 1.392 . S
N339 Co323 2.282 . S
N339 C342 1.332 . S
N339 C344 1.332 . S
C340 C341 1.386 . S
C340 C343 1.388 . S
C341 C340 1.386 . S
C341 C342 1.382 . S
C341 H367 0.950 . S
C342 N339 1.332 . S
C342 C341 1.382 . S
C342 H353 0.952 . S
C343 C340 1.388 . S
C343 C344 1.382 . S
C343 H368 0.950 . S
C344 N339 1.332 . S
C344 C343 1.382 . S
C344 H354 0.948 . S
N345 Co323 2.282 . S
N345 C349 1.332 . S
N345 C350 1.332 . S
C346 C347 1.388 . S
C346 C350 1.382 . S
C346 H369 0.950 . S
C347 C346 1.388 . S
C347 C348 1.386 . S
C348 C347 1.386 . S
C348 C349 1.382 . S
C348 H370 0.950 . S
C349 N345 1.332 . S
C349 C348 1.382 . S
C349 H351 0.952 . S
C350 N345 1.332 . S
C350 C346 1.382 . S
C350 H352 0.948 . S
H351 C349 0.952 . S
H352 C350 0.948 . S
H353 C342 0.952 . S
H354 C344 0.948 . S
C355 C321 1.395 . S
C355 C325 1.391 . S
C356 C318 1.389 . S
C356 C338 1.392 . S
C357 C328 1.392 . S
C357 C330 1.389 . S
C358 C333 1.395 . S
C358 C335 1.391 . S
H359 C319 0.951 . S
H360 C320 0.950 . S
H361 C326 0.949 . S
H362 C327 0.950 . S
H363 C331 0.951 . S
H364 C332 0.950 . S
H365 C336 0.949 . S
H366 C337 0.950 . S
H367 C341 0.950 . S
H368 C343 0.950 . S
H369 C346 0.950 . S
H370 C348 0.950 . S
C371 C372 1.443 . S
C371 N375 1.376 . S
C371 C409 1.389 . S
C372 C371 1.443 . S
C372 C373 1.340 . S
C372 H412 0.951 . S
C373 C372 1.340 . S
C373 C374 1.439 . S
C373 H413 0.950 . S
C374 C373 1.439 . S
C374 N375 1.374 . S
C374 C408 1.395 . S
N375 C371 1.376 . S
N375 C374 1.374 . S
N375 Co376 2.008 . S
Co376 N375 2.008 . S
Co376 N377 1.995 . S
Co376 N382 2.008 . S
Co376 N387 1.995 . S
Co376 N392 2.282 . S
Co376 N398 2.282 . S
N377 Co376 1.995 . S
N377 C378 1.376 . S
N377 C381 1.383 . S
C378 N377 1.376 . S
C378 C379 1.446 . S
C378 C408 1.391 . S
C379 C378 1.446 . S
C379 C380 1.339 . S
C379 H414 0.949 . S
C380 C379 1.339 . S
C380 C381 1.439 . S
C380 H415 0.950 . S
C381 N377 1.383 . S
C381 C380 1.439 . S
C381 C410 1.392 . S
N382 Co376 2.008 . S
N382 C383 1.376 . S
N382 C386 1.374 . S
C383 N382 1.376 . S
C383 C384 1.443 . S
C383 C410 1.389 . S
C384 C383 1.443 . S
C384 C385 1.340 . S
C384 H416 0.951 . S
C385 C384 1.340 . S
C385 C386 1.439 . S
C385 H417 0.950 . S
C386 N382 1.374 . S
C386 C385 1.439 . S
C386 C411 1.395 . S
N387 Co376 1.995 . S
N387 C388 1.376 . S
N387 C391 1.383 . S
C388 N387 1.376 . S
C388 C389 1.446 . S
C388 C411 1.391 . S
C389 C388 1.446 . S
C389 C390 1.339 . S
C389 H418 0.949 . S
C390 C389 1.339 . S
C390 C391 1.439 . S
C390 H419 0.950 . S
C391 N387 1.383 . S
C391 C390 1.439 . S
C391 C409 1.392 . S
N392 Co376 2.282 . S
N392 C395 1.332 . S
N392 C397 1.332 . S
C393 C394 1.386 . S
C393 C396 1.388 . S
C394 C393 1.386 . S
C394 C395 1.382 . S
C394 H420 0.950 . S
C395 N392 1.332 . S
C395 C394 1.382 . S
C395 H406 0.952 . S
C396 C393 1.388 . S
C396 C397 1.382 . S
C396 H421 0.950 . S
C397 N392 1.332 . S
C397 C396 1.382 . S
C397 H407 0.948 . S
N398 Co376 2.282 . S
N398 C402 1.332 . S
N398 C403 1.332 . S
C399 C400 1.388 . S
C399 C403 1.382 . S
C399 H422 0.950 . S
C400 C399 1.388 . S
C400 C401 1.386 . S
C401 C400 1.386 . S
C401 C402 1.382 . S
C401 H423 0.950 . S
C402 N398 1.332 . S
C402 C401 1.382 . S
C402 H404 0.952 . S
C403 N398 1.332 . S
C403 C399 1.382 . S
C403 H405 0.948 . S
H404 C402 0.952 . S
H405 C403 0.948 . S
H406 C395 0.952 . S
H407 C397 0.948 . S
C408 C374 1.395 . S
C408 C378 1.391 . S
C409 C371 1.389 . S
C409 C391 1.392 . S
C410 C381 1.392 . S
C410 C383 1.389 . S
C411 C386 1.395 . S
C411 C388 1.391 . S
H412 C372 0.951 . S
H413 C373 0.950 . S
H414 C379 0.949 . S
H415 C380 0.950 . S
H416 C384 0.951 . S
H417 C385 0.950 . S
H418 C389 0.949 . S
H419 C390 0.950 . S
H420 C394 0.950 . S
H421 C396 0.950 . S
H422 C399 0.950 . S
H423 C401 0.950 . S
C424 C425 1.443 . S
C424 N428 1.376 . S
C424 C462 1.389 . S
C425 C424 1.443 . S
C425 C426 1.340 . S
C425 H465 0.951 . S
C426 C425 1.340 . S
C426 C427 1.439 . S
C426 H466 0.950 . S
C427 C426 1.439 . S
C427 N428 1.374 . S
C427 C461 1.395 . S
N428 C424 1.376 . S
N428 C427 1.374 . S
N428 Co429 2.008 . S
Co429 N428 2.008 . S
Co429 N430 1.995 . S
Co429 N435 2.008 . S
Co429 N440 1.995 . S
Co429 N445 2.282 . S
Co429 N451 2.282 . S
N430 Co429 1.995 . S
N430 C431 1.376 . S
N430 C434 1.383 . S
C431 N430 1.376 . S
C431 C432 1.446 . S
C431 C461 1.391 . S
C432 C431 1.446 . S
C432 C433 1.339 . S
C432 H467 0.949 . S
C433 C432 1.339 . S
C433 C434 1.439 . S
C433 H468 0.950 . S
C434 N430 1.383 . S
C434 C433 1.439 . S
C434 C463 1.392 . S
N435 Co429 2.008 . S
N435 C436 1.376 . S
N435 C439 1.374 . S
C436 N435 1.376 . S
C436 C437 1.443 . S
C436 C463 1.389 . S
C437 C436 1.443 . S
C437 C438 1.340 . S
C437 H469 0.951 . S
C438 C437 1.340 . S
C438 C439 1.439 . S
C438 H470 0.950 . S
C439 N435 1.374 . S
C439 C438 1.439 . S
C439 C464 1.395 . S
N440 Co429 1.995 . S
N440 C441 1.376 . S
N440 C444 1.383 . S
C441 N440 1.376 . S
C441 C442 1.446 . S
C441 C464 1.391 . S
C442 C441 1.446 . S
C442 C443 1.339 . S
C442 H471 0.949 . S
C443 C442 1.339 . S
C443 C444 1.439 . S
C443 H472 0.950 . S
C444 N440 1.383 . S
C444 C443 1.439 . S
C444 C462 1.392 . S
N445 Co429 2.282 . S
N445 C448 1.332 . S
N445 C450 1.332 . S
C446 C447 1.386 . S
C446 C449 1.388 . S
C447 C446 1.386 . S
C447 C448 1.382 . S
C447 H473 0.950 . S
C448 N445 1.332 . S
C448 C447 1.382 . S
C448 H459 0.952 . S
C449 C446 1.388 . S
C449 C450 1.382 . S
C449 H474 0.950 . S
C450 N445 1.332 . S
C450 C449 1.382 . S
C450 H460 0.948 . S
N451 Co429 2.282 . S
N451 C455 1.332 . S
N451 C456 1.332 . S
C452 C453 1.388 . S
C452 C456 1.382 . S
C452 H475 0.950 . S
C453 C452 1.388 . S
C453 C454 1.386 . S
C454 C453 1.386 . S
C454 C455 1.382 . S
C454 H476 0.950 . S
C455 N451 1.332 . S
C455 C454 1.382 . S
C455 H457 0.952 . S
C456 N451 1.332 . S
C456 C452 1.382 . S
C456 H458 0.948 . S
H457 C455 0.952 . S
H458 C456 0.948 . S
H459 C448 0.952 . S
H460 C450 0.948 . S
C461 C427 1.395 . S
C461 C431 1.391 . S
C462 C424 1.389 . S
C462 C444 1.392 . S
C463 C434 1.392 . S
C463 C436 1.389 . S
C464 C439 1.395 . S
C464 C441 1.391 . S
H465 C425 0.951 . S
H466 C426 0.950 . S
H467 C432 0.949 . S
H468 C433 0.950 . S
H469 C437 0.951 . S
H470 C438 0.950 . S
H471 C442 0.949 . S
H472 C443 0.950 . S
H473 C447 0.950 . S
H474 C449 0.950 . S
H475 C452 0.950 . S
H476 C454 0.950 . S
C477 C478 1.443 . S
C477 N481 1.376 . S
C477 C515 1.389 . S
C478 C477 1.443 . S
C478 C479 1.340 . S
C478 H518 0.951 . S
C479 C478 1.340 . S
C479 C480 1.439 . S
C479 H519 0.950 . S
C480 C479 1.439 . S
C480 N481 1.374 . S
C480 C514 1.395 . S
N481 C477 1.376 . S
N481 C480 1.374 . S
N481 Co482 2.008 . S
Co482 N481 2.008 . S
Co482 N483 1.995 . S
Co482 N488 2.008 . S
Co482 N493 1.995 . S
Co482 N498 2.282 . S
Co482 N504 2.282 . S
N483 Co482 1.995 . S
N483 C484 1.376 . S
N483 C487 1.383 . S
C484 N483 1.376 . S
C484 C485 1.446 . S
C484 C514 1.391 . S
C485 C484 1.446 . S
C485 C486 1.339 . S
C485 H520 0.949 . S
C486 C485 1.339 . S
C486 C487 1.439 . S
C486 H521 0.950 . S
C487 N483 1.383 . S
C487 C486 1.439 . S
C487 C516 1.392 . S
N488 Co482 2.008 . S
N488 C489 1.376 . S
N488 C492 1.374 . S
C489 N488 1.376 . S
C489 C490 1.443 . S
C489 C516 1.389 . S
C490 C489 1.443 . S
C490 C491 1.340 . S
C490 H522 0.951 . S
C491 C490 1.340 . S
C491 C492 1.439 . S
C491 H523 0.950 . S
C492 N488 1.374 . S
C492 C491 1.439 . S
C492 C517 1.395 . S
N493 Co482 1.995 . S
N493 C494 1.376 . S
N493 C497 1.383 . S
C494 N493 1.376 . S
C494 C495 1.446 . S
C494 C517 1.391 . S
C495 C494 1.446 . S
C495 C496 1.339 . S
C495 H524 0.949 . S
C496 C495 1.339 . S
C496 C497 1.439 . S
C496 H525 0.950 . S
C497 N493 1.383 . S
C497 C496 1.439 . S
C497 C515 1.392 . S
N498 Co482 2.282 . S
N498 C501 1.332 . S
N498 C503 1.332 . S
C499 C500 1.386 . S
C499 C502 1.388 . S
C500 C499 1.386 . S
C500 C501 1.382 . S
C500 H526 0.950 . S
C501 N498 1.332 . S
C501 C500 1.382 . S
C501 H512 0.952 . S
C502 C499 1.388 . S
C502 C503 1.382 . S
C502 H527 0.950 . S
C503 N498 1.332 . S
C503 C502 1.382 . S
C503 H513 0.948 . S
N504 Co482 2.282 . S
N504 C508 1.332 . S
N504 C509 1.332 . S
C505 C506 1.388 . S
C505 C509 1.382 . S
C505 H528 0.950 . S
C506 C505 1.388 . S
C506 C507 1.386 . S
C507 C506 1.386 . S
C507 C508 1.382 . S
C507 H529 0.950 . S
C508 N504 1.332 . S
C508 C507 1.382 . S
C508 H510 0.952 . S
C509 N504 1.332 . S
C509 C505 1.382 . S
C509 H511 0.948 . S
H510 C508 0.952 . S
H511 C509 0.948 . S
H512 C501 0.952 . S
H513 C503 0.948 . S
C514 C480 1.395 . S
C514 C484 1.391 . S
C515 C477 1.389 . S
C515 C497 1.392 . S
C516 C487 1.392 . S
C516 C489 1.389 . S
C517 C492 1.395 . S
C517 C494 1.391 . S
H518 C478 0.951 . S
H519 C479 0.950 . S
H520 C485 0.949 . S
H521 C486 0.950 . S
H522 C490 0.951 . S
H523 C491 0.950 . S
H524 C495 0.949 . S
H525 C496 0.950 . S
H526 C500 0.950 . S
H527 C502 0.950 . S
H528 C505 0.950 . S
H529 C507 0.950 . S
C530 C531 1.443 . S
C530 N534 1.376 . S
C530 C568 1.389 . S
C531 C530 1.443 . S
C531 C532 1.340 . S
C531 H571 0.951 . S
C532 C531 1.340 . S
C532 C533 1.439 . S
C532 H572 0.950 . S
C533 C532 1.439 . S
C533 N534 1.374 . S
C533 C567 1.395 . S
N534 C530 1.376 . S
N534 C533 1.374 . S
N534 Co535 2.008 . S
Co535 N534 2.008 . S
Co535 N536 1.995 . S
Co535 N541 2.008 1_545 S
Co535 N546 1.995 1_545 S
Co535 N551 2.282 . S
Co535 N557 2.282 . S
N536 Co535 1.995 . S
N536 C537 1.376 . S
N536 C540 1.383 . S
C537 N536 1.376 . S
C537 C538 1.446 . S
C537 C567 1.391 . S
C538 C537 1.446 . S
C538 C539 1.339 . S
C538 H573 0.949 . S
C539 C538 1.339 . S
C539 C540 1.439 . S
C539 H574 0.950 . S
C540 N536 1.383 . S
C540 C539 1.439 . S
C540 C569 1.392 1_545 S
N541 Co535 2.008 1_565 S
N541 C542 1.376 . S
N541 C545 1.374 . S
C542 N541 1.376 . S
C542 C543 1.443 . S
C542 C569 1.389 . S
C543 C542 1.443 . S
C543 C544 1.340 . S
C543 H575 0.951 . S
C544 C543 1.340 . S
C544 C545 1.439 . S
C544 H576 0.950 . S
C545 N541 1.374 . S
C545 C544 1.439 . S
C545 C570 1.395 . S
N546 Co535 1.995 1_565 S
N546 C547 1.376 . S
N546 C550 1.383 . S
C547 N546 1.376 . S
C547 C548 1.446 . S
C547 C570 1.391 . S
C548 C547 1.446 . S
C548 C549 1.339 . S
C548 H577 0.949 . S
C549 C548 1.339 . S
C549 C550 1.439 . S
C549 H578 0.950 . S
C550 N546 1.383 . S
C550 C549 1.439 . S
C550 C568 1.392 1_565 S
N551 Co535 2.282 . S
N551 C554 1.332 1_545 S
N551 C556 1.332 . S
C552 C553 1.386 . S
C552 C555 1.388 1_565 S
C553 C552 1.386 . S
C553 C554 1.382 . S
C553 H579 0.950 . S
C554 N551 1.332 1_565 S
C554 C553 1.382 . S
C554 H565 0.952 . S
C555 C552 1.388 1_545 S
C555 C556 1.382 . S
C555 H580 0.950 . S
C556 N551 1.332 . S
C556 C555 1.382 . S
C556 H566 0.948 . S
N557 Co535 2.282 . S
N557 C561 1.332 . S
N557 C562 1.337 . S
C558 C559 1.388 . S
C558 C562 1.384 . S
C558 H581 0.950 1_545 S
C559 C558 1.388 . S
C559 C560 1.386 . S
C560 C559 1.386 . S
C560 C561 1.382 . S
C560 H582 0.950 . S
C561 N557 1.332 . S
C561 C560 1.382 . S
C561 H563 0.952 . S
C562 N557 1.337 . S
C562 C558 1.384 . S
C562 H564 0.941 1_545 S
H563 C561 0.952 . S
H564 C562 0.941 1_565 S
H565 C554 0.952 . S
H566 C556 0.948 . S
C567 C533 1.395 . S
C567 C537 1.391 . S
C568 C530 1.389 . S
C568 C550 1.392 1_545 S
C569 C540 1.392 1_565 S
C569 C542 1.389 . S
C570 C545 1.395 . S
C570 C547 1.391 . S
H571 C531 0.951 . S
H572 C532 0.950 . S
H573 C538 0.949 . S
H574 C539 0.950 . S
H575 C543 0.951 . S
H576 C544 0.950 . S
H577 C548 0.949 . S
H578 C549 0.950 . S
H579 C553 0.950 . S
H580 C555 0.950 . S
H581 C558 0.950 1_565 S
H582 C560 0.950 . S
C583 C584 1.443 . S
C583 N587 1.376 . S
C583 C621 1.407 . S
C584 C583 1.443 . S
C584 C585 1.340 . S
C584 H624 0.951 . S
C585 C584 1.340 . S
C585 C586 1.439 . S
C585 H625 0.950 . S
C586 C585 1.439 . S
C586 N587 1.374 . S
C586 C620 1.395 . S
N587 C583 1.376 . S
N587 C586 1.374 . S
N587 Co588 2.008 1_556 S
Co588 N587 2.008 1_554 S
Co588 N589 1.995 1_554 S
Co588 N594 2.008 . S
Co588 N599 1.995 . S
Co588 N604 2.282 . S
Co588 N610 2.282 . S
N589 Co588 1.995 1_556 S
N589 C590 1.376 . S
N589 C593 1.377 1_556 S
C590 N589 1.376 . S
C590 C591 1.446 . S
C590 C620 1.391 . S
C591 C590 1.446 . S
C591 C592 1.339 . S
C591 H626 0.949 . S
C592 C591 1.339 . S
C592 C593 1.426 1_556 S
C592 H627 0.950 . S
C593 N589 1.377 1_554 S
C593 C592 1.426 1_554 S
C593 C622 1.408 . S
N594 Co588 2.008 . S
N594 C595 1.376 . S
N594 C598 1.374 . S
C595 N594 1.376 . S
C595 C596 1.443 . S
C595 C622 1.389 . S
C596 C595 1.443 . S
C596 C597 1.340 . S
C596 H628 0.951 . S
C597 C596 1.340 . S
C597 C598 1.439 . S
C597 H629 0.950 . S
C598 N594 1.374 . S
C598 C597 1.439 . S
C598 C623 1.395 . S
N599 Co588 1.995 . S
N599 C600 1.376 . S
N599 C603 1.383 . S
C600 N599 1.376 . S
C600 C601 1.446 . S
C600 C623 1.391 . S
C601 C600 1.446 . S
C601 C602 1.339 . S
C601 H630 0.949 . S
C602 C601 1.339 . S
C602 C603 1.439 . S
C602 H631 0.950 . S
C603 N599 1.383 . S
C603 C602 1.439 . S
C603 C621 1.370 1_554 S
N604 Co588 2.282 . S
N604 C607 1.332 . S
N604 C609 1.326 1_554 S
C605 C606 1.386 . S
C605 C608 1.388 . S
C606 C605 1.386 . S
C606 C607 1.382 . S
C606 H632 0.950 . S
C607 N604 1.332 . S
C607 C606 1.382 . S
C607 H618 0.952 . S
C608 C605 1.388 . S
C608 C609 1.380 1_554 S
C608 H633 0.950 1_554 S
C609 N604 1.326 1_556 S
C609 C608 1.380 1_556 S
C609 H619 0.956 . S
N610 Co588 2.282 . S
N610 C614 1.332 1_554 S
N610 C615 1.332 . S
C611 C612 1.388 1_554 S
C611 C615 1.382 . S
C611 H634 0.950 . S
C612 C611 1.388 1_556 S
C612 C613 1.386 . S
C613 C612 1.386 . S
C613 C614 1.382 . S
C613 H635 0.950 . S
C614 N610 1.332 1_556 S
C614 C613 1.382 . S
C614 H616 0.952 . S
C615 N610 1.332 . S
C615 C611 1.382 . S
C615 H617 0.948 . S
H616 C614 0.952 . S
H617 C615 0.948 . S
H618 C607 0.952 . S
H619 C609 0.956 . S
C620 C586 1.395 . S
C620 C590 1.391 . S
C621 C583 1.407 . S
C621 C603 1.370 1_556 S
C622 C593 1.408 . S
C622 C595 1.389 . S
C623 C598 1.395 . S
C623 C600 1.391 . S
H624 C584 0.951 . S
H625 C585 0.950 . S
H626 C591 0.949 . S
H627 C592 0.950 . S
H628 C596 0.951 . S
H629 C597 0.950 . S
H630 C601 0.949 . S
H631 C602 0.950 . S
H632 C606 0.950 . S
H633 C608 0.950 1_556 S
H634 C611 0.950 . S
H635 C613 0.950 . S
Co636 N641 2.057 . S
Co636 O653 2.021 . S
Co636 O656 2.062 . S
Co636 O660 2.117 . S
Co636 O661 2.020 . S
C637 O657 1.259 . S
C637 O660 1.258 . S
Co638 N647 2.057 . S
Co638 O654 2.117 . S
Co638 O655 2.020 . S
Co638 O657 2.021 . S
Co638 O662 2.062 . S
C639 N641 1.316 1_565 S
C639 N642 1.347 . S
C639 H644 0.931 . S
C640 N641 1.375 . S
C640 C643 1.350 1_545 S
C640 H645 0.930 . S
N641 Co636 2.057 . S
N641 C639 1.316 1_545 S
N641 C640 1.375 . S
N642 C639 1.347 . S
N642 C643 1.373 . S
C643 C640 1.350 1_565 S
C643 N642 1.373 . S
C643 H664 0.931 . S
H644 C639 0.931 . S
H645 C640 0.930 . S
C646 O653 1.259 . S
C646 O654 1.258 . S
N647 Co638 2.057 . S
N647 C648 1.316 . S
N647 C649 1.375 . S
C648 N647 1.316 . S
C648 N650 1.347 . S
C648 H659 0.931 . S
C649 N647 1.375 . S
C649 C651 1.349 1_554 S
C649 H658 0.930 1_554 S
N650 C648 1.347 . S
N650 C651 1.370 1_554 S
C651 C649 1.349 1_556 S
C651 N650 1.370 1_556 S
C651 H665 0.934 . S
C652 O655 1.256 . S
C652 O656 1.255 . S
O653 Co636 2.021 . S
O653 C646 1.259 . S
O654 Co638 2.117 . S
O654 C646 1.258 . S
O655 Co638 2.020 . S
O655 C652 1.256 . S
O656 Co636 2.062 . S
O656 C652 1.255 . S
O657 C637 1.259 . S
O657 Co638 2.021 . S
H658 C649 0.930 1_556 S
H659 C648 0.931 . S
O660 Co636 2.117 . S
O660 C637 1.258 . S
O661 Co636 2.020 . S
O661 C663 1.256 . S
O662 Co638 2.062 . S
O662 C663 1.255 . S
C663 O661 1.256 . S
C663 O662 1.255 . S
H664 C643 0.931 . S
H665 C651 0.934 . S
Co666 N671 2.057 . S
Co666 O683 2.021 . S
Co666 O686 2.062 . S
Co666 O690 2.117 . S
Co666 O691 2.020 . S
C667 O687 1.259 . S
C667 O690 1.258 . S
Co668 N677 2.057 1_554 S
Co668 O684 2.117 . S
Co668 O685 2.020 . S
Co668 O687 2.021 . S
Co668 O692 2.062 . S
C669 N671 1.316 . S
C669 N672 1.347 . S
C669 H674 0.931 . S
C670 N671 1.375 . S
C670 C673 1.350 . S
C670 H675 0.930 . S
N671 Co666 2.057 . S
N671 C669 1.316 . S
N671 C670 1.375 . S
N672 C669 1.347 . S
N672 C673 1.373 . S
C673 C670 1.350 . S
C673 N672 1.373 . S
C673 H694 0.931 1_655 S
H674 C669 0.931 . S
H675 C670 0.930 . S
C676 O683 1.259 . S
C676 O684 1.258 . S
N677 Co668 2.057 1_556 S
N677 C678 1.316 . S
N677 C679 1.375 . S
C678 N677 1.316 . S
C678 N680 1.347 . S
C678 H689 0.931 . S
C679 N677 1.375 . S
C679 C681 1.350 . S
C679 H688 0.930 . S
N680 C678 1.347 . S
N680 C681 1.373 . S
C681 C679 1.350 . S
C681 N680 1.373 . S
C681 H695 0.931 . S
C682 O685 1.256 . S
C682 O686 1.255 . S
O683 Co666 2.021 . S
O683 C676 1.259 . S
O684 Co668 2.117 . S
O684 C676 1.258 . S
O685 Co668 2.020 . S
O685 C682 1.256 . S
O686 Co666 2.062 . S
O686 C682 1.255 . S
O687 C667 1.259 . S
O687 Co668 2.021 . S
H688 C679 0.930 . S
H689 C678 0.931 . S
O690 Co666 2.117 . S
O690 C667 1.258 . S
O691 Co666 2.020 . S
O691 C693 1.256 . S
O692 Co668 2.062 . S
O692 C693 1.255 . S
C693 O691 1.256 . S
C693 O692 1.255 . S
H694 C673 0.931 1_455 S
H695 C681 0.931 . S
Co696 N701 2.057 . S
Co696 O713 2.021 . S
Co696 O716 2.062 . S
Co696 O720 2.117 . S
Co696 O721 2.020 . S
C697 O717 1.259 . S
C697 O720 1.258 . S
Co698 N707 2.057 . S
Co698 O714 2.117 . S
Co698 O715 2.020 . S
Co698 O717 2.021 . S
Co698 O722 2.062 . S
C699 N701 1.316 . S
C699 N702 1.347 . S
C699 H704 0.931 . S
C700 N701 1.375 . S
C700 C703 1.350 . S
C700 H705 0.930 . S
N701 Co696 2.057 . S
N701 C699 1.316 . S
N701 C700 1.375 . S
N702 C699 1.347 . S
N702 C703 1.373 . S
C703 C700 1.350 . S
C703 N702 1.373 . S
C703 H724 0.931 . S
H704 C699 0.931 . S
H705 C700 0.930 . S
C706 O713 1.259 . S
C706 O714 1.258 . S
N707 Co698 2.057 . S
N707 C708 1.316 . S
N707 C709 1.375 1_455 S
C708 N707 1.316 . S
C708 N710 1.347 . S
C708 H719 0.931 . S
C709 N707 1.375 1_655 S
C709 C711 1.350 . S
C709 H718 0.930 . S
N710 C708 1.347 . S
N710 C711 1.373 1_455 S
C711 C709 1.350 . S
C711 N710 1.373 1_655 S
C711 H725 0.931 . S
C712 O715 1.256 . S
C712 O716 1.255 . S
O713 Co696 2.021 . S
O713 C706 1.259 . S
O714 Co698 2.117 . S
O714 C706 1.258 . S
O715 Co698 2.020 . S
O715 C712 1.256 . S
O716 Co696 2.062 . S
O716 C712 1.255 . S
O717 C697 1.259 . S
O717 Co698 2.021 . S
H718 C709 0.930 . S
H719 C708 0.931 . S
O720 Co696 2.117 . S
O720 C697 1.258 . S
O721 Co696 2.020 . S
O721 C723 1.256 . S
O722 Co698 2.062 . S
O722 C723 1.255 . S
C723 O721 1.256 . S
C723 O722 1.255 . S
H724 C703 0.931 . S
H725 C711 0.931 . S
Co726 N731 2.057 . S
Co726 O743 2.021 . S
Co726 O746 2.062 . S
Co726 O750 2.117 . S
Co726 O751 2.020 . S
C727 O747 1.259 . S
C727 O750 1.258 1_455 S
Co728 N737 2.057 . S
Co728 O744 2.117 . S
Co728 O745 2.020 . S
Co728 O747 2.021 1_655 S
Co728 O752 2.062 . S
C729 N731 1.316 . S
C729 N732 1.347 . S
C729 H734 0.931 . S
C730 N731 1.375 . S
C730 C733 1.350 . S
C730 H735 0.930 . S
N731 Co726 2.057 . S
N731 C729 1.316 . S
N731 C730 1.375 . S
N732 C729 1.347 . S
N732 C733 1.373 . S
C733 C730 1.350 . S
C733 N732 1.373 . S
C733 H754 0.931 . S
H734 C729 0.931 . S
H735 C730 0.930 . S
C736 O743 1.259 . S
C736 O744 1.258 . S
N737 Co728 2.057 . S
N737 C738 1.316 . S
N737 C739 1.375 . S
C738 N737 1.316 . S
C738 N740 1.347 . S
C738 H749 0.931 1_655 S
C739 N737 1.375 . S
C739 C741 1.350 . S
C739 H748 0.930 . S
N740 C738 1.347 . S
N740 C741 1.373 . S
C741 C739 1.350 . S
C741 N740 1.373 . S
C741 H755 0.931 . S
C742 O745 1.256 . S
C742 O746 1.255 . S
O743 Co726 2.021 . S
O743 C736 1.259 . S
O744 Co728 2.117 . S
O744 C736 1.258 . S
O745 Co728 2.020 . S
O745 C742 1.256 . S
O746 Co726 2.062 . S
O746 C742 1.255 . S
O747 C727 1.259 . S
O747 Co728 2.021 1_455 S
H748 C739 0.930 . S
H749 C738 0.931 1_455 S
O750 Co726 2.117 . S
O750 C727 1.258 1_655 S
O751 Co726 2.020 . S
O751 C753 1.256 . S
O752 Co728 2.062 . S
O752 C753 1.255 . S
C753 O751 1.256 . S
C753 O752 1.255 . S
H754 C733 0.931 . S
H755 C741 0.931 . S
Co756 N761 2.057 . S
Co756 O773 2.021 . S
Co756 O776 2.062 . S
Co756 O780 2.117 . S
Co756 O781 2.020 . S
C757 O777 1.259 . S
C757 O780 1.258 . S
Co758 N767 2.057 . S
Co758 O774 2.117 . S
Co758 O775 2.020 . S
Co758 O777 2.021 . S
Co758 O782 2.062 . S
C759 N761 1.316 . S
C759 N762 1.347 . S
C759 H764 0.931 . S
C760 N761 1.375 . S
C760 C763 1.350 . S
C760 H765 0.930 . S
N761 Co756 2.057 . S
N761 C759 1.316 . S
N761 C760 1.375 . S
N762 C759 1.347 . S
N762 C763 1.373 . S
C763 C760 1.350 . S
C763 N762 1.373 . S
C763 H784 0.931 . S
H764 C759 0.931 . S
H765 C760 0.930 . S
C766 O773 1.259 . S
C766 O774 1.258 . S
N767 Co758 2.057 . S
N767 C768 1.316 . S
N767 C769 1.375 . S
C768 N767 1.316 . S
C768 N770 1.347 . S
C768 H779 0.931 . S
C769 N767 1.375 . S
C769 C771 1.350 . S
C769 H778 0.930 . S
N770 C768 1.347 . S
N770 C771 1.373 . S
C771 C769 1.350 . S
C771 N770 1.373 . S
C771 H785 0.931 . S
C772 O775 1.256 . S
C772 O776 1.255 . S
O773 Co756 2.021 . S
O773 C766 1.259 . S
O774 Co758 2.117 . S
O774 C766 1.258 . S
O775 Co758 2.020 . S
O775 C772 1.256 . S
O776 Co756 2.062 . S
O776 C772 1.255 . S
O777 C757 1.259 . S
O777 Co758 2.021 . S
H778 C769 0.930 . S
H779 C768 0.931 . S
O780 Co756 2.117 . S
O780 C757 1.258 . S
O781 Co756 2.020 . S
O781 C783 1.256 . S
O782 Co758 2.062 . S
O782 C783 1.255 . S
C783 O781 1.256 . S
C783 O782 1.255 . S
H784 C763 0.931 . S
H785 C771 0.931 . S
Co786 N791 2.057 . S
Co786 O803 2.021 . S
Co786 O806 2.062 . S
Co786 O810 2.117 . S
Co786 O811 2.020 . S
C787 O807 1.259 . S
C787 O810 1.258 . S
Co788 N797 2.057 . S
Co788 O804 2.117 . S
Co788 O805 2.020 . S
Co788 O807 2.021 . S
Co788 O812 2.062 . S
C789 N791 1.316 . S
C789 N792 1.347 . S
C789 H794 0.931 . S
C790 N791 1.375 . S
C790 C793 1.350 . S
C790 H795 0.930 . S
N791 Co786 2.057 . S
N791 C789 1.316 . S
N791 C790 1.375 . S
N792 C789 1.347 . S
N792 C793 1.373 . S
C793 C790 1.350 . S
C793 N792 1.373 . S
C793 H814 0.931 . S
H794 C789 0.931 . S
H795 C790 0.930 . S
C796 O803 1.259 . S
C796 O804 1.258 . S
N797 Co788 2.057 . S
N797 C798 1.316 . S
N797 C799 1.375 . S
C798 N797 1.316 . S
C798 N800 1.347 . S
C798 H809 0.931 . S
C799 N797 1.375 . S
C799 C801 1.350 . S
C799 H808 0.930 . S
N800 C798 1.347 . S
N800 C801 1.373 . S
C801 C799 1.350 . S
C801 N800 1.373 . S
C801 H815 0.931 . S
C802 O805 1.256 . S
C802 O806 1.255 . S
O803 Co786 2.021 . S
O803 C796 1.259 . S
O804 Co788 2.117 . S
O804 C796 1.258 . S
O805 Co788 2.020 . S
O805 C802 1.256 . S
O806 Co786 2.062 . S
O806 C802 1.255 . S
O807 C787 1.259 . S
O807 Co788 2.021 . S
H808 C799 0.930 . S
H809 C798 0.931 . S
O810 Co786 2.117 . S
O810 C787 1.258 . S
O811 Co786 2.020 . S
O811 C813 1.256 . S
O812 Co788 2.062 . S
O812 C813 1.255 . S
C813 O811 1.256 . S
C813 O812 1.255 . S
H814 C793 0.931 . S
H815 C801 0.931 . S
Co816 N821 2.057 1_556 S
Co816 O833 2.021 . S
Co816 O836 2.062 . S
Co816 O840 2.117 . S
Co816 O841 2.020 . S
C817 O837 1.259 . S
C817 O840 1.258 . S
Co818 N827 2.057 . S
Co818 O834 2.117 . S
Co818 O835 2.020 . S
Co818 O837 2.021 . S
Co818 O842 2.062 . S
C819 N821 1.316 . S
C819 N822 1.347 . S
C819 H824 0.931 . S
C820 N821 1.375 . S
C820 C823 1.350 . S
C820 H825 0.930 1_554 S
N821 Co816 2.057 1_554 S
N821 C819 1.316 . S
N821 C820 1.375 . S
N822 C819 1.347 . S
N822 C823 1.373 . S
C823 C820 1.350 . S
C823 N822 1.373 . S
C823 H844 0.931 . S
H824 C819 0.931 . S
H825 C820 0.930 1_556 S
C826 O833 1.259 . S
C826 O834 1.258 . S
N827 Co818 2.057 . S
N827 C828 1.316 . S
N827 C829 1.375 . S
C828 N827 1.316 . S
C828 N830 1.347 . S
C828 H839 0.931 . S
C829 N827 1.375 . S
C829 C831 1.350 . S
C829 H838 0.930 . S
N830 C828 1.347 . S
N830 C831 1.373 . S
C831 C829 1.350 . S
C831 N830 1.373 . S
C831 H845 0.931 . S
C832 O835 1.256 . S
C832 O836 1.255 . S
O833 Co816 2.021 . S
O833 C826 1.259 . S
O834 Co818 2.117 . S
O834 C826 1.258 . S
O835 Co818 2.020 . S
O835 C832 1.256 . S
O836 Co816 2.062 . S
O836 C832 1.255 . S
O837 C817 1.259 . S
O837 Co818 2.021 . S
H838 C829 0.930 . S
H839 C828 0.931 . S
O840 Co816 2.117 . S
O840 C817 1.258 . S
O841 Co816 2.020 . S
O841 C843 1.256 . S
O842 Co818 2.062 . S
O842 C843 1.255 . S
C843 O841 1.256 . S
C843 O842 1.255 . S
H844 C823 0.931 . S
H845 C831 0.931 . S
Co846 N851 2.057 . S
Co846 O863 2.021 . S
Co846 O866 2.062 . S
Co846 O870 2.117 . S
Co846 O871 2.020 . S
C847 O867 1.259 . S
C847 O870 1.258 . S
Co848 N857 2.057 . S
Co848 O864 2.117 . S
Co848 O865 2.020 . S
Co848 O867 2.021 . S
Co848 O872 2.062 . S
C849 N851 1.316 . S
C849 N852 1.347 . S
C849 H854 0.931 . S
C850 N851 1.375 . S
C850 C853 1.350 . S
C850 H855 0.930 . S
N851 Co846 2.057 . S
N851 C849 1.316 . S
N851 C850 1.375 . S
N852 C849 1.347 . S
N852 C853 1.373 . S
C853 C850 1.350 . S
C853 N852 1.373 . S
C853 H874 0.931 . S
H854 C849 0.931 . S
H855 C850 0.930 . S
C856 O863 1.259 . S
C856 O864 1.258 . S
N857 Co848 2.057 . S
N857 C858 1.316 1_545 S
N857 C859 1.375 1_545 S
C858 N857 1.316 1_565 S
C858 N860 1.347 . S
C858 H869 0.921 1_565 S
C859 N857 1.375 1_565 S
C859 C861 1.350 . S
C859 H868 0.930 . S
N860 C858 1.347 . S
N860 C861 1.373 . S
C861 C859 1.350 . S
C861 N860 1.373 . S
C861 H875 0.931 . S
C862 O865 1.256 . S
C862 O866 1.255 . S
O863 Co846 2.021 . S
O863 C856 1.259 . S
O864 Co848 2.117 . S
O864 C856 1.258 . S
O865 Co848 2.020 . S
O865 C862 1.256 . S
O866 Co846 2.062 . S
O866 C862 1.255 . S
O867 C847 1.259 . S
O867 Co848 2.021 . S
H868 C859 0.930 . S
H869 C858 0.921 1_545 S
O870 Co846 2.117 . S
O870 C847 1.258 . S
O871 Co846 2.020 . S
O871 C873 1.256 . S
O872 Co848 2.062 . S
O872 C873 1.255 . S
C873 O871 1.256 . S
C873 O872 1.255 . S
H874 C853 0.931 . S
H875 C861 0.931 . S
H876 C882 0.930 . S
H877 C886 0.930 . S
H878 C891 0.929 . S
H879 C889 0.929 . S
H880 C884 0.929 . S
H881 C890 0.929 . S
C882 H876 0.930 . S
C882 C883 1.367 . S
C882 C890 1.378 . S
C883 C882 1.367 . S
C883 C891 1.433 . S
C884 H880 0.929 . S
C884 C886 1.378 . S
C884 C888 1.350 . S
C885 C888 1.463 . S
C885 C890 1.350 . S
C885 N893 1.427 . S
C886 H877 0.930 . S
C886 C884 1.378 . S
C886 C887 1.367 1_545 S
C887 C886 1.367 1_565 S
C887 C889 1.433 . S
C888 C884 1.350 . S
C888 C885 1.463 . S
C888 N892 1.427 . S
C889 H879 0.929 . S
C889 C887 1.433 . S
C889 N892 1.384 1_565 S
C890 H881 0.929 . S
C890 C882 1.378 . S
C890 C885 1.350 . S
C891 H878 0.929 . S
C891 C883 1.433 . S
C891 N893 1.384 . S
N892 C888 1.427 . S
N892 C889 1.384 1_545 S
N893 C885 1.427 . S
N893 C891 1.384 . S
H894 C900 0.930 . S
H895 C904 0.930 . S
H896 C909 0.929 . S
H897 C907 0.929 . S
H898 C902 0.929 . S
H899 C908 0.929 . S
C900 H894 0.930 . S
C900 C901 1.367 . S
C900 C908 1.378 . S
C901 C900 1.367 . S
C901 C909 1.433 1_455 S
C902 H898 0.929 . S
C902 C904 1.378 . S
C902 C906 1.350 1_655 S
C903 C906 1.463 . S
C903 C908 1.350 . S
C903 N911 1.427 1_455 S
C904 H895 0.930 . S
C904 C902 1.378 . S
C904 C905 1.367 1_655 S
C905 C904 1.367 1_455 S
C905 C907 1.433 . S
C906 C902 1.350 1_455 S
C906 C903 1.463 . S
C906 N910 1.427 . S
C907 H897 0.929 . S
C907 C905 1.433 . S
C907 N910 1.384 . S
C908 H899 0.929 . S
C908 C900 1.378 . S
C908 C903 1.350 . S
C909 H896 0.929 . S
C909 C901 1.433 1_655 S
C909 N911 1.384 . S
N910 C906 1.427 . S
N910 C907 1.384 . S
N911 C903 1.427 1_655 S
N911 C909 1.384 . S
H912 C918 0.930 . S
H913 C922 0.930 . S
H914 C927 0.929 . S
H915 C925 0.929 . S
H916 C920 0.929 . S
H917 C926 0.929 . S
C918 H912 0.930 . S
C918 C919 1.367 . S
C918 C926 1.378 . S
C919 C918 1.367 . S
C919 C927 1.433 . S
C920 H916 0.929 . S
C920 C922 1.378 . S
C920 C924 1.350 . S
C921 C924 1.463 . S
C921 C926 1.350 . S
C921 N929 1.427 . S
C922 H913 0.930 . S
C922 C920 1.378 . S
C922 C923 1.367 . S
C923 C922 1.367 . S
C923 C925 1.433 . S
C924 C920 1.350 . S
C924 C921 1.463 . S
C924 N928 1.427 . S
C925 H915 0.929 . S
C925 C923 1.433 . S
C925 N928 1.384 . S
C926 H917 0.929 . S
C926 C918 1.378 . S
C926 C921 1.350 . S
C927 H914 0.929 . S
C927 C919 1.433 . S
C927 N929 1.384 . S
N928 C924 1.427 . S
N928 C925 1.384 . S
N929 C921 1.427 . S
N929 C927 1.384 . S
H930 C936 0.930 . S
H931 C940 0.930 . S
H932 C945 0.929 . S
H933 C943 0.929 . S
H934 C938 0.929 . S
H935 C944 0.929 . S
C936 H930 0.930 . S
C936 C937 1.367 . S
C936 C944 1.378 . S
C937 C936 1.367 . S
C937 C945 1.433 . S
C938 H934 0.929 . S
C938 C940 1.378 . S
C938 C942 1.350 . S
C939 C942 1.463 . S
C939 C944 1.350 . S
C939 N947 1.427 . S
C940 H931 0.930 . S
C940 C938 1.378 . S
C940 C941 1.367 . S
C941 C940 1.367 . S
C941 C943 1.433 . S
C942 C938 1.350 . S
C942 C939 1.463 . S
C942 N946 1.427 . S
C943 H933 0.929 . S
C943 C941 1.433 . S
C943 N946 1.384 . S
C944 H935 0.929 . S
C944 C936 1.378 . S
C944 C939 1.350 . S
C945 H932 0.929 . S
C945 C937 1.433 . S
C945 N947 1.384 . S
N946 C942 1.427 . S
N946 C943 1.384 . S
N947 C939 1.427 . S
N947 C945 1.384 . S
H948 C954 0.930 . S
H949 C958 0.930 1_556 S
H950 C963 0.929 . S
H951 C961 0.929 . S
H952 C956 0.929 . S
H953 C962 0.929 . S
C954 H948 0.930 . S
C954 C955 1.367 . S
C954 C962 1.378 . S
C955 C954 1.367 . S
C955 C963 1.433 . S
C956 H952 0.929 . S
C956 C958 1.378 . S
C956 C960 1.350 . S
C957 C960 1.463 . S
C957 C962 1.350 . S
C957 N965 1.427 . S
C958 H949 0.930 1_554 S
C958 C956 1.378 . S
C958 C959 1.367 . S
C959 C958 1.367 . S
C959 C961 1.433 . S
C960 C956 1.350 . S
C960 C957 1.463 . S
C960 N964 1.427 . S
C961 H951 0.929 . S
C961 C959 1.433 . S
C961 N964 1.384 . S
C962 H953 0.929 . S
C962 C954 1.378 . S
C962 C957 1.350 . S
C963 H950 0.929 . S
C963 C955 1.433 . S
C963 N965 1.384 . S
N964 C960 1.427 . S
N964 C961 1.384 . S
N965 C957 1.427 . S
N965 C963 1.384 . S
H966 C972 0.930 . S
H967 C976 0.930 . S
H968 C981 0.929 . S
H969 C979 0.929 . S
H970 C974 0.929 . S
H971 C980 0.929 . S
C972 H966 0.930 . S
C972 C973 1.367 . S
C972 C980 1.378 . S
C973 C972 1.367 . S
C973 C981 1.433 . S
C974 H970 0.929 . S
C974 C976 1.378 . S
C974 C978 1.350 . S
C975 C978 1.463 . S
C975 C980 1.350 . S
C975 N983 1.427 . S
C976 H967 0.930 . S
C976 C974 1.378 . S
C976 C977 1.367 . S
C977 C976 1.367 . S
C977 C979 1.433 . S
C978 C974 1.350 . S
C978 C975 1.463 . S
C978 N982 1.427 . S
C979 H969 0.929 . S
C979 C977 1.433 . S
C979 N982 1.384 . S
C980 H971 0.929 . S
C980 C972 1.378 . S
C980 C975 1.350 . S
C981 H968 0.929 . S
C981 C973 1.433 . S
C981 N983 1.384 . S
N982 C978 1.427 . S
N982 C979 1.384 . S
N983 C975 1.427 . S
N983 C981 1.384 . S
H984 C990 0.930 . S
H985 C994 0.930 . S
H986 C999 0.929 . S
H987 C997 0.929 . S
H988 C992 0.929 . S
H989 C998 0.929 . S
C990 H984 0.930 . S
C990 C991 1.367 . S
C990 C998 1.378 . S
C991 C990 1.367 . S
C991 C999 1.433 1_565 S
C992 H988 0.929 . S
C992 C994 1.378 . S
C992 C996 1.350 1_545 S
C993 C996 1.463 . S
C993 C998 1.350 . S
C993 N1001 1.427 1_565 S
C994 H985 0.930 . S
C994 C992 1.378 . S
C994 C995 1.367 1_545 S
C995 C994 1.367 1_565 S
C995 C997 1.433 . S
C996 C992 1.350 1_565 S
C996 C993 1.463 . S
C996 N1000 1.427 . S
C997 H987 0.929 . S
C997 C995 1.433 . S
C997 N1000 1.384 . S
C998 H989 0.929 . S
C998 C990 1.378 . S
C998 C993 1.350 . S
C999 H986 0.929 . S
C999 C991 1.433 1_545 S
C999 N1001 1.384 . S
N1000 C996 1.427 . S
N1000 C997 1.384 . S
N1001 C993 1.427 1_545 S
N1001 C999 1.384 . S
H1002 C1008 0.930 . S
H1003 C1012 0.930 . S
H1004 C1017 0.929 . S
H1005 C1015 0.929 . S
H1006 C1010 0.929 . S
H1007 C1016 0.929 . S
C1008 H1002 0.930 . S
C1008 C1009 1.367 . S
C1008 C1016 1.378 . S
C1009 C1008 1.367 . S
C1009 C1017 1.433 . S
C1010 H1006 0.929 . S
C1010 C1012 1.378 . S
C1010 C1014 1.350 . S
C1011 C1014 1.463 . S
C1011 C1016 1.350 . S
C1011 N1019 1.427 . S
C1012 H1003 0.930 . S
C1012 C1010 1.378 . S
C1012 C1013 1.367 . S
C1013 C1012 1.367 . S
C1013 C1015 1.433 . S
C1014 C1010 1.350 . S
C1014 C1011 1.463 . S
C1014 N1018 1.427 . S
C1015 H1005 0.929 . S
C1015 C1013 1.433 . S
C1015 N1018 1.384 . S
C1016 H1007 0.929 . S
C1016 C1008 1.378 . S
C1016 C1011 1.350 . S
C1017 H1004 0.929 . S
C1017 C1009 1.433 . S
C1017 N1019 1.384 . S
N1018 C1014 1.427 . S
N1018 C1015 1.384 . S
N1019 C1011 1.427 . S
N1019 C1017 1.384 . S
H1020 C1026 0.930 . S
H1021 C1030 0.930 . S
H1022 C1035 0.929 . S
H1023 C1033 0.929 . S
H1024 C1028 0.929 . S
H1025 C1034 0.929 . S
C1026 H1020 0.930 . S
C1026 C1027 1.367 . S
C1026 C1034 1.378 . S
C1027 C1026 1.367 . S
C1027 C1035 1.433 . S
C1028 H1024 0.929 . S
C1028 C1030 1.378 . S
C1028 C1032 1.350 . S
C1029 C1032 1.463 . S
C1029 C1034 1.350 . S
C1029 N1037 1.427 . S
C1030 H1021 0.930 . S
C1030 C1028 1.378 . S
C1030 C1031 1.367 . S
C1031 C1030 1.367 . S
C1031 C1033 1.433 . S
C1032 C1028 1.350 . S
C1032 C1029 1.463 . S
C1032 N1036 1.427 . S
C1033 H1023 0.929 . S
C1033 C1031 1.433 . S
C1033 N1036 1.384 . S
C1034 H1025 0.929 . S
C1034 C1026 1.378 . S
C1034 C1029 1.350 . S
C1035 H1022 0.929 . S
C1035 C1027 1.433 . S
C1035 N1037 1.384 . S
N1036 C1032 1.427 . S
N1036 C1033 1.384 . S
N1037 C1029 1.427 . S
N1037 C1035 1.384 . S
H1038 C1044 0.930 . S
H1039 C1048 0.930 . S
H1040 C1053 0.929 . S
H1041 C1051 0.929 . S
H1042 C1046 0.929 . S
H1043 C1052 0.929 . S
C1044 H1038 0.930 . S
C1044 C1045 1.367 . S
C1044 C1052 1.378 . S
C1045 C1044 1.367 . S
C1045 C1053 1.433 . S
C1046 H1042 0.929 . S
C1046 C1048 1.378 . S
C1046 C1050 1.350 . S
C1047 C1050 1.463 . S
C1047 C1052 1.350 . S
C1047 N1055 1.427 . S
C1048 H1039 0.930 . S
C1048 C1046 1.378 . S
C1048 C1049 1.367 . S
C1049 C1048 1.367 . S
C1049 C1051 1.433 . S
C1050 C1046 1.350 . S
C1050 C1047 1.463 . S
C1050 N1054 1.427 . S
C1051 H1041 0.929 . S
C1051 C1049 1.433 . S
C1051 N1054 1.384 . S
C1052 H1043 0.929 . S
C1052 C1044 1.378 . S
C1052 C1047 1.350 . S
C1053 H1040 0.929 . S
C1053 C1045 1.433 . S
C1053 N1055 1.384 . S
N1054 C1050 1.427 . S
N1054 C1051 1.384 . S
N1055 C1047 1.427 . S
N1055 C1053 1.384 . S
H1056 C1062 0.930 . S
H1057 C1066 0.930 . S
H1058 C1071 0.929 . S
H1059 C1069 0.929 . S
H1060 C1064 0.929 . S
H1061 C1070 0.929 . S
C1062 H1056 0.930 . S
C1062 C1063 1.367 . S
C1062 C1070 1.378 . S
C1063 C1062 1.367 . S
C1063 C1071 1.433 . S
C1064 H1060 0.929 . S
C1064 C1066 1.378 . S
C1064 C1068 1.350 . S
C1065 C1068 1.463 . S
C1065 C1070 1.350 . S
C1065 N1073 1.427 . S
C1066 H1057 0.930 . S
C1066 C1064 1.378 . S
C1066 C1067 1.367 . S
C1067 C1066 1.367 . S
C1067 C1069 1.433 . S
C1068 C1064 1.350 . S
C1068 C1065 1.463 . S
C1068 N1072 1.427 . S
C1069 H1059 0.929 . S
C1069 C1067 1.433 . S
C1069 N1072 1.384 . S
C1070 H1061 0.929 . S
C1070 C1062 1.378 . S
C1070 C1065 1.350 . S
C1071 H1058 0.929 . S
C1071 C1063 1.433 . S
C1071 N1073 1.384 . S
N1072 C1068 1.427 . S
N1072 C1069 1.384 . S
N1073 C1065 1.427 . S
N1073 C1071 1.384 . S
H1074 C1080 0.930 . S
H1075 C1084 0.930 . S
H1076 C1089 0.929 . S
H1077 C1087 0.929 . S
H1078 C1082 0.929 . S
H1079 C1088 0.929 . S
C1080 H1074 0.930 . S
C1080 C1081 1.367 . S
C1080 C1088 1.378 . S
C1081 C1080 1.367 . S
C1081 C1089 1.433 . S
C1082 H1078 0.929 . S
C1082 C1084 1.378 . S
C1082 C1086 1.350 . S
C1083 C1086 1.463 . S
C1083 C1088 1.350 . S
C1083 N1091 1.427 . S
C1084 H1075 0.930 . S
C1084 C1082 1.378 . S
C1084 C1085 1.367 . S
C1085 C1084 1.367 . S
C1085 C1087 1.433 . S
C1086 C1082 1.350 . S
C1086 C1083 1.463 . S
C1086 N1090 1.427 . S
C1087 H1077 0.929 . S
C1087 C1085 1.433 . S
C1087 N1090 1.384 . S
C1088 H1079 0.929 . S
C1088 C1080 1.378 . S
C1088 C1083 1.350 . S
C1089 H1076 0.929 . S
C1089 C1081 1.433 . S
C1089 N1091 1.384 . S
N1090 C1086 1.427 . S
N1090 C1087 1.384 . S
N1091 C1083 1.427 . S
N1091 C1089 1.384 . S
H1092 C1098 0.930 . S
H1093 C1102 0.930 . S
H1094 C1107 0.929 . S
H1095 C1105 0.929 . S
H1096 C1100 0.929 . S
H1097 C1106 0.929 . S
C1098 H1092 0.930 . S
C1098 C1099 1.367 . S
C1098 C1106 1.378 . S
C1099 C1098 1.367 . S
C1099 C1107 1.433 . S
C1100 H1096 0.929 . S
C1100 C1102 1.378 . S
C1100 C1104 1.350 . S
C1101 C1104 1.463 . S
C1101 C1106 1.350 . S
C1101 N1109 1.427 . S
C1102 H1093 0.930 . S
C1102 C1100 1.378 . S
C1102 C1103 1.367 . S
C1103 C1102 1.367 . S
C1103 C1105 1.433 . S
C1104 C1100 1.350 . S
C1104 C1101 1.463 . S
C1104 N1108 1.427 . S
C1105 H1095 0.929 . S
C1105 C1103 1.433 . S
C1105 N1108 1.384 . S
C1106 H1097 0.929 . S
C1106 C1098 1.378 . S
C1106 C1101 1.350 . S
C1107 H1094 0.929 . S
C1107 C1099 1.433 . S
C1107 N1109 1.384 . S
N1108 C1104 1.427 . S
N1108 C1105 1.384 . S
N1109 C1101 1.427 . S
N1109 C1107 1.384 . S
H1110 C1116 0.930 . S
H1111 C1120 0.930 . S
H1112 C1125 0.929 . S
H1113 C1123 0.929 . S
H1114 C1118 0.929 . S
H1115 C1124 0.929 . S
C1116 H1110 0.930 . S
C1116 C1117 1.367 . S
C1116 C1124 1.378 . S
C1117 C1116 1.367 . S
C1117 C1125 1.433 . S
C1118 H1114 0.929 . S
C1118 C1120 1.378 . S
C1118 C1122 1.350 . S
C1119 C1122 1.463 . S
C1119 C1124 1.350 . S
C1119 N1127 1.427 . S
C1120 H1111 0.930 . S
C1120 C1118 1.378 . S
C1120 C1121 1.367 . S
C1121 C1120 1.367 . S
C1121 C1123 1.433 . S
C1122 C1118 1.350 . S
C1122 C1119 1.463 . S
C1122 N1126 1.427 . S
C1123 H1113 0.929 . S
C1123 C1121 1.433 . S
C1123 N1126 1.384 . S
C1124 H1115 0.929 . S
C1124 C1116 1.378 . S
C1124 C1119 1.350 . S
C1125 H1112 0.929 . S
C1125 C1117 1.433 . S
C1125 N1127 1.384 . S
N1126 C1122 1.427 . S
N1126 C1123 1.384 . S
N1127 C1119 1.427 . S
N1127 C1125 1.384 . S
H1128 C1134 0.930 . S
H1129 C1138 0.930 . S
H1130 C1143 0.929 . S
H1131 C1141 0.929 . S
H1132 C1136 0.929 . S
H1133 C1142 0.929 . S
C1134 H1128 0.930 . S
C1134 C1135 1.367 . S
C1134 C1142 1.378 . S
C1135 C1134 1.367 . S
C1135 C1143 1.433 . S
C1136 H1132 0.929 . S
C1136 C1138 1.378 . S
C1136 C1140 1.350 . S
C1137 C1140 1.463 . S
C1137 C1142 1.350 . S
C1137 N1145 1.427 . S
C1138 H1129 0.930 . S
C1138 C1136 1.378 . S
C1138 C1139 1.367 . S
C1139 C1138 1.367 . S
C1139 C1141 1.433 . S
C1140 C1136 1.350 . S
C1140 C1137 1.463 . S
C1140 N1144 1.427 . S
C1141 H1131 0.929 . S
C1141 C1139 1.433 . S
C1141 N1144 1.384 . S
C1142 H1133 0.929 . S
C1142 C1134 1.378 . S
C1142 C1137 1.350 . S
C1143 H1130 0.929 . S
C1143 C1135 1.433 . S
C1143 N1145 1.384 . S
N1144 C1140 1.427 . S
N1144 C1141 1.384 . S
N1145 C1137 1.427 . S
N1145 C1143 1.384 . S
H1146 C1152 0.930 . S
H1147 C1156 0.930 . S
H1148 C1161 0.929 . S
H1149 C1159 0.929 . S
H1150 C1154 0.929 . S
H1151 C1160 0.929 . S
C1152 H1146 0.930 . S
C1152 C1153 1.367 . S
C1152 C1160 1.378 . S
C1153 C1152 1.367 . S
C1153 C1161 1.433 . S
C1154 H1150 0.929 . S
C1154 C1156 1.378 . S
C1154 C1158 1.350 . S
C1155 C1158 1.463 . S
C1155 C1160 1.350 . S
C1155 N1163 1.427 . S
C1156 H1147 0.930 . S
C1156 C1154 1.378 . S
C1156 C1157 1.364 1_545 S
C1157 C1156 1.364 1_565 S
C1157 C1159 1.431 1_565 S
C1158 C1154 1.350 . S
C1158 C1155 1.463 . S
C1158 N1162 1.427 . S
C1159 H1149 0.929 . S
C1159 C1157 1.431 1_545 S
C1159 N1162 1.384 . S
C1160 H1151 0.929 . S
C1160 C1152 1.378 . S
C1160 C1155 1.350 . S
C1161 H1148 0.929 . S
C1161 C1153 1.433 . S
C1161 N1163 1.384 . S
N1162 C1158 1.427 . S
N1162 C1159 1.384 . S
N1163 C1155 1.427 . S
N1163 C1161 1.384 . S
H1164 C1170 0.930 . S
H1165 C1174 0.930 . S
H1166 C1179 0.929 . S
H1167 C1177 0.929 . S
H1168 C1172 0.929 . S
H1169 C1178 0.929 . S
C1170 H1164 0.930 . S
C1170 C1171 1.367 . S
C1170 C1178 1.378 . S
C1171 C1170 1.367 . S
C1171 C1179 1.433 . S
C1172 H1168 0.929 . S
C1172 C1174 1.378 . S
C1172 C1176 1.350 . S
C1173 C1176 1.463 . S
C1173 C1178 1.350 . S
C1173 N1181 1.427 . S
C1174 H1165 0.930 . S
C1174 C1172 1.378 . S
C1174 C1175 1.367 . S
C1175 C1174 1.367 . S
C1175 C1177 1.433 . S
C1176 C1172 1.350 . S
C1176 C1173 1.463 . S
C1176 N1180 1.427 . S
C1177 H1167 0.929 . S
C1177 C1175 1.433 . S
C1177 N1180 1.384 . S
C1178 H1169 0.929 . S
C1178 C1170 1.378 . S
C1178 C1173 1.350 . S
C1179 H1166 0.929 . S
C1179 C1171 1.433 . S
C1179 N1181 1.384 . S
N1180 C1176 1.427 . S
N1180 C1177 1.384 . S
N1181 C1173 1.427 . S
N1181 C1179 1.384 . S
H1182 C1188 0.930 . S
H1183 C1192 0.930 . S
H1184 C1197 0.929 . S
H1185 C1195 0.929 1_545 S
H1186 C1190 0.929 . S
H1187 C1196 0.929 . S
C1188 H1182 0.930 . S
C1188 C1189 1.367 1_545 S
C1188 C1196 1.378 . S
C1189 C1188 1.367 1_565 S
C1189 C1197 1.433 . S
C1190 H1186 0.929 . S
C1190 C1192 1.378 . S
C1190 C1194 1.350 . S
C1191 C1194 1.463 . S
C1191 C1196 1.350 1_565 S
C1191 N1199 1.427 . S
C1192 H1183 0.930 . S
C1192 C1190 1.378 . S
C1192 C1193 1.367 . S
C1193 C1192 1.367 . S
C1193 C1195 1.433 . S
C1194 C1190 1.350 . S
C1194 C1191 1.463 . S
C1194 N1198 1.427 . S
C1195 H1185 0.929 1_565 S
C1195 C1193 1.433 . S
C1195 N1198 1.384 . S
C1196 H1187 0.929 . S
C1196 C1188 1.378 . S
C1196 C1191 1.350 1_545 S
C1197 H1184 0.929 . S
C1197 C1189 1.433 . S
C1197 N1199 1.384 . S
N1198 C1194 1.427 . S
N1198 C1195 1.384 . S
N1199 C1191 1.427 . S
N1199 C1197 1.384 . S
H1200 C1206 0.930 . S
H1201 C1210 0.930 . S
H1202 C1215 0.929 . S
H1203 C1213 0.929 . S
H1204 C1208 0.929 . S
H1205 C1214 0.929 . S
C1206 H1200 0.930 . S
C1206 C1207 1.367 . S
C1206 C1214 1.378 . S
C1207 C1206 1.367 . S
C1207 C1215 1.433 . S
C1208 H1204 0.929 . S
C1208 C1210 1.378 . S
C1208 C1212 1.350 . S
C1209 C1212 1.463 . S
C1209 C1214 1.350 . S
C1209 N1217 1.427 . S
C1210 H1201 0.930 . S
C1210 C1208 1.378 . S
C1210 C1211 1.367 . S
C1211 C1210 1.367 . S
C1211 C1213 1.433 . S
C1212 C1208 1.350 . S
C1212 C1209 1.463 . S
C1212 N1216 1.427 . S
C1213 H1203 0.929 . S
C1213 C1211 1.433 . S
C1213 N1216 1.384 . S
C1214 H1205 0.929 . S
C1214 C1206 1.378 . S
C1214 C1209 1.350 . S
C1215 H1202 0.929 . S
C1215 C1207 1.433 . S
C1215 N1217 1.384 . S
N1216 C1212 1.427 . S
N1216 C1213 1.384 . S
N1217 C1209 1.427 . S
N1217 C1215 1.384 . S
H1218 C1224 0.930 . S
H1219 C1228 0.930 . S
H1220 C1233 0.929 . S
H1221 C1231 0.929 . S
H1222 C1226 0.929 . S
H1223 C1232 0.929 . S
C1224 H1218 0.930 . S
C1224 C1225 1.367 . S
C1224 C1232 1.378 . S
C1225 C1224 1.367 . S
C1225 C1233 1.433 . S
C1226 H1222 0.929 . S
C1226 C1228 1.378 . S
C1226 C1230 1.350 . S
C1227 C1230 1.463 . S
C1227 C1232 1.350 . S
C1227 N1235 1.427 . S
C1228 H1219 0.930 . S
C1228 C1226 1.378 . S
C1228 C1229 1.367 . S
C1229 C1228 1.367 . S
C1229 C1231 1.433 . S
C1230 C1226 1.350 . S
C1230 C1227 1.463 . S
C1230 N1234 1.427 . S
C1231 H1221 0.929 . S
C1231 C1229 1.433 . S
C1231 N1234 1.384 . S
C1232 H1223 0.929 . S
C1232 C1224 1.378 . S
C1232 C1227 1.350 . S
C1233 H1220 0.929 . S
C1233 C1225 1.433 . S
C1233 N1235 1.384 . S
N1234 C1230 1.427 . S
N1234 C1231 1.384 . S
N1235 C1227 1.427 . S
N1235 C1233 1.384 . S
H1236 C1242 0.930 . S
H1237 C1246 0.930 . S
H1238 C1251 0.929 . S
H1239 C1249 0.929 . S
H1240 C1244 0.929 . S
H1241 C1250 0.929 . S
C1242 H1236 0.930 . S
C1242 C1243 1.367 . S
C1242 C1250 1.378 . S
C1243 C1242 1.367 . S
C1243 C1251 1.433 . S
C1244 H1240 0.929 . S
C1244 C1246 1.378 . S
C1244 C1248 1.350 . S
C1245 C1248 1.463 . S
C1245 C1250 1.350 . S
C1245 N1253 1.427 . S
C1246 H1237 0.930 . S
C1246 C1244 1.378 . S
C1246 C1247 1.367 . S
C1247 C1246 1.367 . S
C1247 C1249 1.433 . S
C1248 C1244 1.350 . S
C1248 C1245 1.463 . S
C1248 N1252 1.427 . S
C1249 H1239 0.929 . S
C1249 C1247 1.433 . S
C1249 N1252 1.384 . S
C1250 H1241 0.929 . S
C1250 C1242 1.378 . S
C1250 C1245 1.350 . S
C1251 H1238 0.929 . S
C1251 C1243 1.433 . S
C1251 N1253 1.384 . S
N1252 C1248 1.427 . S
N1252 C1249 1.384 . S
N1253 C1245 1.427 . S
N1253 C1251 1.384 . S
H1254 C1260 0.930 . S
H1255 C1264 0.930 . S
H1256 C1269 0.929 . S
H1257 C1267 0.929 . S
H1258 C1262 0.929 1_554 S
H1259 C1268 0.929 . S
C1260 H1254 0.930 . S
C1260 C1261 1.367 . S
C1260 C1268 1.378 . S
C1261 C1260 1.367 . S
C1261 C1269 1.433 1_556 S
C1262 H1258 0.929 1_556 S
C1262 C1264 1.378 . S
C1262 C1266 1.350 . S
C1263 C1266 1.463 . S
C1263 C1268 1.350 . S
C1263 N1271 1.427 1_556 S
C1264 H1255 0.930 . S
C1264 C1262 1.378 . S
C1264 C1265 1.367 . S
C1265 C1264 1.367 . S
C1265 C1267 1.433 . S
C1266 C1262 1.350 . S
C1266 C1263 1.463 . S
C1266 N1270 1.427 . S
C1267 H1257 0.929 . S
C1267 C1265 1.433 . S
C1267 N1270 1.384 . S
C1268 H1259 0.929 . S
C1268 C1260 1.378 . S
C1268 C1263 1.350 . S
C1269 H1256 0.929 . S
C1269 C1261 1.433 1_554 S
C1269 N1271 1.384 . S
N1270 C1266 1.427 . S
N1270 C1267 1.384 . S
N1271 C1263 1.427 1_554 S
N1271 C1269 1.384 . S
H1272 C1278 0.930 . S
H1273 C1282 0.930 . S
H1274 C1287 0.929 . S
H1275 C1285 0.929 . S
H1276 C1280 0.929 . S
H1277 C1286 0.929 . S
C1278 H1272 0.930 . S
C1278 C1279 1.382 . S
C1278 C1286 1.378 . S
C1279 C1278 1.382 . S
C1279 C1287 1.416 1_554 S
C1280 H1276 0.929 . S
C1280 C1282 1.378 . S
C1280 C1284 1.350 . S
C1281 C1284 1.463 . S
C1281 C1286 1.350 1_556 S
C1281 N1289 1.427 . S
C1282 H1273 0.930 . S
C1282 C1280 1.378 . S
C1282 C1283 1.367 . S
C1283 C1282 1.367 . S
C1283 C1285 1.433 1_556 S
C1284 C1280 1.350 . S
C1284 C1281 1.463 . S
C1284 N1288 1.427 1_556 S
C1285 H1275 0.929 . S
C1285 C1283 1.433 1_554 S
C1285 N1288 1.384 . S
C1286 H1277 0.929 . S
C1286 C1278 1.378 . S
C1286 C1281 1.350 1_554 S
C1287 H1274 0.929 . S
C1287 C1279 1.416 1_556 S
C1287 N1289 1.384 . S
N1288 C1284 1.427 1_554 S
N1288 C1285 1.384 . S
N1289 C1281 1.427 . S
N1289 C1287 1.384 . S
H1290 C1296 0.930 1_556 S
H1291 C1300 0.930 . S
H1292 C1305 0.929 . S
H1293 C1303 0.929 1_556 S
H1294 C1298 0.929 . S
H1295 C1304 0.929 1_556 S
C1296 H1290 0.930 1_554 S
C1296 C1297 1.367 . S
C1296 C1304 1.378 . S
C1297 C1296 1.367 . S
C1297 C1305 1.433 . S
C1298 H1294 0.929 . S
C1298 C1300 1.378 . S
C1298 C1302 1.350 . S
C1299 C1302 1.463 . S
C1299 C1304 1.350 . S
C1299 N1307 1.427 . S
C1300 H1291 0.930 . S
C1300 C1298 1.378 . S
C1300 C1301 1.367 . S
C1301 C1300 1.367 . S
C1301 C1303 1.433 . S
C1302 C1298 1.350 . S
C1302 C1299 1.463 . S
C1302 N1306 1.427 . S
C1303 H1293 0.929 1_554 S
C1303 C1301 1.433 . S
C1303 N1306 1.384 . S
C1304 H1295 0.929 1_554 S
C1304 C1296 1.378 . S
C1304 C1299 1.350 . S
C1305 H1292 0.929 . S
C1305 C1297 1.433 . S
C1305 N1307 1.384 . S
N1306 C1302 1.427 . S
N1306 C1303 1.384 . S
N1307 C1299 1.427 . S
N1307 C1305 1.384 . S
H1308 C1314 0.930 . S
H1309 C1318 0.930 . S
H1310 C1323 0.929 . S
H1311 C1321 0.929 . S
H1312 C1316 0.929 . S
H1313 C1322 0.929 . S
C1314 H1308 0.930 . S
C1314 C1315 1.367 . S
C1314 C1322 1.378 . S
C1315 C1314 1.367 . S
C1315 C1323 1.433 . S
C1316 H1312 0.929 . S
C1316 C1318 1.378 . S
C1316 C1320 1.350 . S
C1317 C1320 1.463 . S
C1317 C1322 1.350 . S
C1317 N1325 1.427 . S
C1318 H1309 0.930 . S
C1318 C1316 1.378 . S
C1318 C1319 1.367 . S
C1319 C1318 1.367 . S
C1319 C1321 1.433 . S
C1320 C1316 1.350 . S
C1320 C1317 1.463 . S
C1320 N1324 1.427 . S
C1321 H1311 0.929 . S
C1321 C1319 1.433 . S
C1321 N1324 1.384 . S
C1322 H1313 0.929 . S
C1322 C1314 1.378 . S
C1322 C1317 1.350 . S
C1323 H1310 0.929 . S
C1323 C1315 1.433 . S
C1323 N1325 1.384 . S
N1324 C1320 1.427 . S
N1324 C1321 1.384 . S
N1325 C1317 1.427 . S
N1325 C1323 1.384 . S
H1326 C1332 0.930 . S
H1327 C1336 0.930 . S
H1328 C1341 0.929 1_655 S
H1329 C1339 0.929 . S
H1330 C1334 0.929 . S
H1331 C1340 0.929 . S
C1332 H1326 0.930 . S
C1332 C1333 1.367 . S
C1332 C1340 1.378 . S
C1333 C1332 1.367 . S
C1333 C1341 1.433 . S
C1334 H1330 0.929 . S
C1334 C1336 1.378 . S
C1334 C1338 1.350 . S
C1335 C1338 1.463 1_455 S
C1335 C1340 1.350 . S
C1335 N1343 1.427 1_455 S
C1336 H1327 0.930 . S
C1336 C1334 1.378 . S
C1336 C1337 1.367 . S
C1337 C1336 1.367 . S
C1337 C1339 1.433 1_655 S
C1338 C1334 1.350 . S
C1338 C1335 1.463 1_655 S
C1338 N1342 1.427 1_655 S
C1339 H1329 0.929 . S
C1339 C1337 1.433 1_455 S
C1339 N1342 1.384 . S
C1340 H1331 0.929 . S
C1340 C1332 1.378 . S
C1340 C1335 1.350 . S
C1341 H1328 0.929 1_455 S
C1341 C1333 1.433 . S
C1341 N1343 1.384 1_455 S
N1342 C1338 1.427 1_455 S
N1342 C1339 1.384 . S
N1343 C1335 1.427 1_655 S
N1343 C1341 1.384 1_655 S
H1344 C1350 0.930 . S
H1345 C1354 0.930 . S
H1346 C1359 0.929 . S
H1347 C1357 0.929 1_655 S
H1348 C1352 0.929 . S
H1349 C1358 0.929 . S
C1350 H1344 0.930 . S
C1350 C1351 1.367 . S
C1350 C1358 1.378 . S
C1351 C1350 1.367 . S
C1351 C1359 1.433 . S
C1352 H1348 0.929 . S
C1352 C1354 1.378 . S
C1352 C1356 1.350 . S
C1353 C1356 1.463 . S
C1353 C1358 1.350 . S
C1353 N1361 1.427 . S
C1354 H1345 0.930 . S
C1354 C1352 1.378 . S
C1354 C1355 1.367 . S
C1355 C1354 1.367 . S
C1355 C1357 1.433 . S
C1356 C1352 1.350 . S
C1356 C1353 1.463 . S
C1356 N1360 1.427 . S
C1357 H1347 0.929 1_455 S
C1357 C1355 1.433 . S
C1357 N1360 1.384 . S
C1358 H1349 0.929 . S
C1358 C1350 1.378 . S
C1358 C1353 1.350 . S
C1359 H1346 0.929 . S
C1359 C1351 1.433 . S
C1359 N1361 1.384 . S
N1360 C1356 1.427 . S
N1360 C1357 1.384 . S
N1361 C1353 1.427 . S
N1361 C1359 1.384 . S
H1362 C1368 0.930 . S
H1363 C1372 0.908 1_455 S
H1364 C1377 0.929 . S
H1365 C1375 0.929 . S
H1366 C1370 0.929 . S
H1367 C1376 0.929 . S
C1368 H1362 0.930 . S
C1368 C1369 1.367 . S
C1368 C1376 1.378 . S
C1369 C1368 1.367 . S
C1369 C1377 1.433 1_655 S
C1370 H1366 0.929 . S
C1370 C1372 1.378 1_455 S
C1370 C1374 1.350 1_455 S
C1371 C1374 1.463 . S
C1371 C1376 1.350 . S
C1371 N1379 1.427 1_655 S
C1372 H1363 0.908 1_655 S
C1372 C1370 1.378 1_655 S
C1372 C1373 1.390 . S
C1373 C1372 1.390 . S
C1373 C1375 1.433 . S
C1374 C1370 1.350 1_655 S
C1374 C1371 1.463 . S
C1374 N1378 1.427 . S
C1375 H1365 0.929 . S
C1375 C1373 1.433 . S
C1375 N1378 1.384 . S
C1376 H1367 0.929 . S
C1376 C1368 1.378 . S
C1376 C1371 1.350 . S
C1377 H1364 0.929 . S
C1377 C1369 1.433 1_455 S
C1377 N1379 1.384 . S
N1378 C1374 1.427 . S
N1378 C1375 1.384 . S
N1379 C1371 1.427 1_455 S
N1379 C1377 1.384 . S
H1380 C1386 0.930 1_565 S
H1381 C1390 0.930 . S
H1382 C1395 0.929 . S
H1383 C1393 0.929 . S
H1384 C1388 0.929 . S
H1385 C1394 0.929 1_565 S
C1386 H1380 0.930 1_545 S
C1386 C1387 1.367 . S
C1386 C1394 1.378 . S
C1387 C1386 1.367 . S
C1387 C1395 1.433 . S
C1388 H1384 0.929 . S
C1388 C1390 1.378 . S
C1388 C1392 1.350 . S
C1389 C1392 1.463 . S
C1389 C1394 1.350 . S
C1389 N1397 1.427 . S
C1390 H1381 0.930 . S
C1390 C1388 1.378 . S
C1390 C1391 1.367 . S
C1391 C1390 1.367 . S
C1391 C1393 1.433 . S
C1392 C1388 1.350 . S
C1392 C1389 1.463 . S
C1392 N1396 1.427 . S
C1393 H1383 0.929 . S
C1393 C1391 1.433 . S
C1393 N1396 1.384 . S
C1394 H1385 0.929 1_545 S
C1394 C1386 1.378 . S
C1394 C1389 1.350 . S
C1395 H1382 0.929 . S
C1395 C1387 1.433 . S
C1395 N1397 1.384 . S
N1396 C1392 1.427 . S
N1396 C1393 1.384 . S
N1397 C1389 1.427 . S
N1397 C1395 1.384 . S
H1398 C1404 0.930 . S
H1399 C1408 0.930 . S
H1400 C1413 0.929 . S
H1401 C1411 0.929 . S
H1402 C1406 0.929 . S
H1403 C1412 0.929 . S
C1404 H1398 0.930 . S
C1404 C1405 1.367 . S
C1404 C1412 1.378 . S
C1405 C1404 1.367 . S
C1405 C1413 1.433 . S
C1406 H1402 0.929 . S
C1406 C1408 1.378 . S
C1406 C1410 1.350 . S
C1407 C1410 1.463 . S
C1407 C1412 1.350 . S
C1407 N1415 1.427 . S
C1408 H1399 0.930 . S
C1408 C1406 1.378 . S
C1408 C1409 1.367 . S
C1409 C1408 1.367 . S
C1409 C1411 1.433 . S
C1410 C1406 1.350 . S
C1410 C1407 1.463 . S
C1410 N1414 1.427 . S
C1411 H1401 0.929 . S
C1411 C1409 1.433 . S
C1411 N1414 1.384 . S
C1412 H1403 0.929 . S
C1412 C1404 1.378 . S
C1412 C1407 1.350 . S
C1413 H1400 0.929 . S
C1413 C1405 1.433 . S
C1413 N1415 1.384 . S
N1414 C1410 1.427 . S
N1414 C1411 1.384 . S
N1415 C1407 1.427 . S
N1415 C1413 1.384 . S
H1416 C1422 0.930 . S
H1417 C1426 0.930 . S
H1418 C1431 0.929 . S
H1419 C1429 0.929 . S
H1420 C1424 0.929 . S
H1421 C1430 0.929 . S
C1422 H1416 0.930 . S
C1422 C1423 1.367 . S
C1422 C1430 1.378 . S
C1423 C1422 1.367 . S
C1423 C1431 1.433 . S
C1424 H1420 0.929 . S
C1424 C1426 1.378 . S
C1424 C1428 1.350 . S
C1425 C1428 1.463 . S
C1425 C1430 1.350 . S
C1425 N1433 1.427 . S
C1426 H1417 0.930 . S
C1426 C1424 1.378 . S
C1426 C1427 1.367 . S
C1427 C1426 1.367 . S
C1427 C1429 1.433 . S
C1428 C1424 1.350 . S
C1428 C1425 1.463 . S
C1428 N1432 1.427 . S
C1429 H1419 0.929 . S
C1429 C1427 1.433 . S
C1429 N1432 1.384 . S
C1430 H1421 0.929 . S
C1430 C1422 1.378 . S
C1430 C1425 1.350 . S
C1431 H1418 0.929 . S
C1431 C1423 1.433 . S
C1431 N1433 1.384 . S
N1432 C1428 1.427 . S
N1432 C1429 1.384 . S
N1433 C1425 1.427 . S
N1433 C1431 1.384 . S
H1434 C1440 0.930 . S
H1435 C1444 0.930 . S
H1436 C1449 0.929 . S
H1437 C1447 0.929 . S
H1438 C1442 0.929 . S
H1439 C1448 0.929 . S
C1440 H1434 0.930 . S
C1440 C1441 1.367 . S
C1440 C1448 1.378 . S
C1441 C1440 1.367 . S
C1441 C1449 1.433 . S
C1442 H1438 0.929 . S
C1442 C1444 1.378 . S
C1442 C1446 1.350 . S
C1443 C1446 1.463 . S
C1443 C1448 1.350 . S
C1443 N1451 1.427 . S
C1444 H1435 0.930 . S
C1444 C1442 1.378 . S
C1444 C1445 1.367 . S
C1445 C1444 1.367 . S
C1445 C1447 1.433 . S
C1446 C1442 1.350 . S
C1446 C1443 1.463 . S
C1446 N1450 1.427 . S
C1447 H1437 0.929 . S
C1447 C1445 1.433 . S
C1447 N1450 1.384 . S
C1448 H1439 0.929 . S
C1448 C1440 1.378 . S
C1448 C1443 1.350 . S
C1449 H1436 0.929 . S
C1449 C1441 1.433 . S
C1449 N1451 1.384 . S
N1450 C1446 1.427 . S
N1450 C1447 1.384 . S
N1451 C1443 1.427 . S
N1451 C1449 1.384 . S
H1452 C1458 0.930 1_556 S
H1453 C1462 0.930 . S
H1454 C1467 0.929 . S
H1455 C1465 0.929 1_556 S
H1456 C1460 0.929 . S
H1457 C1466 0.929 1_556 S
C1458 H1452 0.930 1_554 S
C1458 C1459 1.367 . S
C1458 C1466 1.378 . S
C1459 C1458 1.367 . S
C1459 C1467 1.433 . S
C1460 H1456 0.929 . S
C1460 C1462 1.378 . S
C1460 C1464 1.350 . S
C1461 C1464 1.463 . S
C1461 C1466 1.350 . S
C1461 N1469 1.427 . S
C1462 H1453 0.930 . S
C1462 C1460 1.378 . S
C1462 C1463 1.367 . S
C1463 C1462 1.367 . S
C1463 C1465 1.433 . S
C1464 C1460 1.350 . S
C1464 C1461 1.463 . S
C1464 N1468 1.427 . S
C1465 H1455 0.929 1_554 S
C1465 C1463 1.433 . S
C1465 N1468 1.384 . S
C1466 H1457 0.929 1_554 S
C1466 C1458 1.378 . S
C1466 C1461 1.350 . S
C1467 H1454 0.929 . S
C1467 C1459 1.433 . S
C1467 N1469 1.384 . S
N1468 C1464 1.427 . S
N1468 C1465 1.384 . S
N1469 C1461 1.427 . S
N1469 C1467 1.384 . S
H1470 C1476 0.930 . S
H1471 C1480 0.930 . S
H1472 C1485 0.929 . S
H1473 C1483 0.929 . S
H1474 C1478 0.929 . S
H1475 C1484 0.929 . S
C1476 H1470 0.930 . S
C1476 C1477 1.367 . S
C1476 C1484 1.378 . S
C1477 C1476 1.367 . S
C1477 C1485 1.433 . S
C1478 H1474 0.929 . S
C1478 C1480 1.378 . S
C1478 C1482 1.350 . S
C1479 C1482 1.463 . S
C1479 C1484 1.350 . S
C1479 N1487 1.427 . S
C1480 H1471 0.930 . S
C1480 C1478 1.378 . S
C1480 C1481 1.367 . S
C1481 C1480 1.367 . S
C1481 C1483 1.433 . S
C1482 C1478 1.350 . S
C1482 C1479 1.463 . S
C1482 N1486 1.427 . S
C1483 H1473 0.929 . S
C1483 C1481 1.433 . S
C1483 N1486 1.384 . S
C1484 H1475 0.929 . S
C1484 C1476 1.378 . S
C1484 C1479 1.350 . S
C1485 H1472 0.929 . S
C1485 C1477 1.433 . S
C1485 N1487 1.384 . S
N1486 C1482 1.427 . S
N1486 C1483 1.384 . S
N1487 C1479 1.427 . S
N1487 C1485 1.384 . S
H1488 C1494 0.930 . S
H1489 C1498 0.930 . S
H1490 C1503 0.929 . S
H1491 C1501 0.929 . S
H1492 C1496 0.929 . S
H1493 C1502 0.929 . S
C1494 H1488 0.930 . S
C1494 C1495 1.367 . S
C1494 C1502 1.378 . S
C1495 C1494 1.367 . S
C1495 C1503 1.433 . S
C1496 H1492 0.929 . S
C1496 C1498 1.378 . S
C1496 C1500 1.350 . S
C1497 C1500 1.463 . S
C1497 C1502 1.350 . S
C1497 N1505 1.427 . S
C1498 H1489 0.930 . S
C1498 C1496 1.378 . S
C1498 C1499 1.367 . S
C1499 C1498 1.367 . S
C1499 C1501 1.433 . S
C1500 C1496 1.350 . S
C1500 C1497 1.463 . S
C1500 N1504 1.427 . S
C1501 H1491 0.929 . S
C1501 C1499 1.433 . S
C1501 N1504 1.384 . S
C1502 H1493 0.929 . S
C1502 C1494 1.378 . S
C1502 C1497 1.350 . S
C1503 H1490 0.929 . S
C1503 C1495 1.433 . S
C1503 N1505 1.384 . S
N1504 C1500 1.427 . S
N1504 C1501 1.384 . S
N1505 C1497 1.427 . S
N1505 C1503 1.384 . S
H1506 C1512 0.930 . S
H1507 C1516 0.930 . S
H1508 C1521 0.929 . S
H1509 C1519 0.929 . S
H1510 C1514 0.929 . S
H1511 C1520 0.929 . S
C1512 H1506 0.930 . S
C1512 C1513 1.367 . S
C1512 C1520 1.378 . S
C1513 C1512 1.367 . S
C1513 C1521 1.433 . S
C1514 H1510 0.929 . S
C1514 C1516 1.378 . S
C1514 C1518 1.350 . S
C1515 C1518 1.463 . S
C1515 C1520 1.350 . S
C1515 N1523 1.427 . S
C1516 H1507 0.930 . S
C1516 C1514 1.378 . S
C1516 C1517 1.367 . S
C1517 C1516 1.367 . S
C1517 C1519 1.433 . S
C1518 C1514 1.350 . S
C1518 C1515 1.463 . S
C1518 N1522 1.427 . S
C1519 H1509 0.929 . S
C1519 C1517 1.433 . S
C1519 N1522 1.384 . S
C1520 H1511 0.929 . S
C1520 C1512 1.378 . S
C1520 C1515 1.350 . S
C1521 H1508 0.929 . S
C1521 C1513 1.433 . S
C1521 N1523 1.384 . S
N1522 C1518 1.427 . S
N1522 C1519 1.384 . S
N1523 C1515 1.427 . S
N1523 C1521 1.384 . S
H1524 C1530 0.930 . S
H1525 C1534 0.930 . S
H1526 C1539 0.929 . S
H1527 C1537 0.929 . S
H1528 C1532 0.929 . S
H1529 C1538 0.929 . S
C1530 H1524 0.930 . S
C1530 C1531 1.367 . S
C1530 C1538 1.378 . S
C1531 C1530 1.367 . S
C1531 C1539 1.433 . S
C1532 H1528 0.929 . S
C1532 C1534 1.378 . S
C1532 C1536 1.350 . S
C1533 C1536 1.463 . S
C1533 C1538 1.350 . S
C1533 N1541 1.427 . S
C1534 H1525 0.930 . S
C1534 C1532 1.378 . S
C1534 C1535 1.367 . S
C1535 C1534 1.367 . S
C1535 C1537 1.433 . S
C1536 C1532 1.350 . S
C1536 C1533 1.463 . S
C1536 N1540 1.427 . S
C1537 H1527 0.929 . S
C1537 C1535 1.433 . S
C1537 N1540 1.384 . S
C1538 H1529 0.929 . S
C1538 C1530 1.378 . S
C1538 C1533 1.350 . S
C1539 H1526 0.929 . S
C1539 C1531 1.433 . S
C1539 N1541 1.384 . S
N1540 C1536 1.427 . S
N1540 C1537 1.384 . S
N1541 C1533 1.427 . S
N1541 C1539 1.384 . S
H1542 C1548 0.930 . S
H1543 C1552 0.930 . S
H1544 C1557 0.929 . S
H1545 C1555 0.929 . S
H1546 C1550 0.929 . S
H1547 C1556 0.929 . S
C1548 H1542 0.930 . S
C1548 C1549 1.367 . S
C1548 C1556 1.378 . S
C1549 C1548 1.367 . S
C1549 C1557 1.433 . S
C1550 H1546 0.929 . S
C1550 C1552 1.378 . S
C1550 C1554 1.350 . S
C1551 C1554 1.463 . S
C1551 C1556 1.350 . S
C1551 N1559 1.427 . S
C1552 H1543 0.930 . S
C1552 C1550 1.378 . S
C1552 C1553 1.367 . S
C1553 C1552 1.367 . S
C1553 C1555 1.433 . S
C1554 C1550 1.350 . S
C1554 C1551 1.463 . S
C1554 N1558 1.427 . S
C1555 H1545 0.929 . S
C1555 C1553 1.433 . S
C1555 N1558 1.384 . S
C1556 H1547 0.929 . S
C1556 C1548 1.378 . S
C1556 C1551 1.350 . S
C1557 H1544 0.929 . S
C1557 C1549 1.433 . S
C1557 N1559 1.384 . S
N1558 C1554 1.427 . S
N1558 C1555 1.384 . S
N1559 C1551 1.427 . S
N1559 C1557 1.384 . S
H1560 C1566 0.930 . S
H1561 C1570 0.930 . S
H1562 C1575 0.929 . S
H1563 C1573 0.929 . S
H1564 C1568 0.929 . S
H1565 C1574 0.929 . S
C1566 H1560 0.930 . S
C1566 C1567 1.367 . S
C1566 C1574 1.378 . S
C1567 C1566 1.367 . S
C1567 C1575 1.433 . S
C1568 H1564 0.929 . S
C1568 C1570 1.378 . S
C1568 C1572 1.350 . S
C1569 C1572 1.463 . S
C1569 C1574 1.350 . S
C1569 N1577 1.427 . S
C1570 H1561 0.930 . S
C1570 C1568 1.378 . S
C1570 C1571 1.367 . S
C1571 C1570 1.367 . S
C1571 C1573 1.433 . S
C1572 C1568 1.350 . S
C1572 C1569 1.463 . S
C1572 N1576 1.427 . S
C1573 H1563 0.929 . S
C1573 C1571 1.433 . S
C1573 N1576 1.384 . S
C1574 H1565 0.929 . S
C1574 C1566 1.378 . S
C1574 C1569 1.350 . S
C1575 H1562 0.929 . S
C1575 C1567 1.433 . S
C1575 N1577 1.384 . S
N1576 C1572 1.427 . S
N1576 C1573 1.384 . S
N1577 C1569 1.427 . S
N1577 C1575 1.384 . S
H1578 C1584 0.930 . S
H1579 C1588 0.930 . S
H1580 C1593 0.929 . S
H1581 C1591 0.929 . S
H1582 C1586 0.929 . S
H1583 C1592 0.929 . S
C1584 H1578 0.930 . S
C1584 C1585 1.367 . S
C1584 C1592 1.378 . S
C1585 C1584 1.367 . S
C1585 C1593 1.433 . S
C1586 H1582 0.929 . S
C1586 C1588 1.378 . S
C1586 C1590 1.350 . S
C1587 C1590 1.463 . S
C1587 C1592 1.350 . S
C1587 N1595 1.427 . S
C1588 H1579 0.930 . S
C1588 C1586 1.378 . S
C1588 C1589 1.367 . S
C1589 C1588 1.367 . S
C1589 C1591 1.433 . S
C1590 C1586 1.350 . S
C1590 C1587 1.463 . S
C1590 N1594 1.427 . S
C1591 H1581 0.929 . S
C1591 C1589 1.433 . S
C1591 N1594 1.384 . S
C1592 H1583 0.929 . S
C1592 C1584 1.378 . S
C1592 C1587 1.350 . S
C1593 H1580 0.929 . S
C1593 C1585 1.433 . S
C1593 N1595 1.384 . S
N1594 C1590 1.427 . S
N1594 C1591 1.384 . S
N1595 C1587 1.427 . S
N1595 C1593 1.384 . S
H1596 C1602 0.930 . S
H1597 C1606 0.930 . S
H1598 C1611 0.929 . S
H1599 C1609 0.929 . S
H1600 C1604 0.929 . S
H1601 C1610 0.929 . S
C1602 H1596 0.930 . S
C1602 C1603 1.367 . S
C1602 C1610 1.378 . S
C1603 C1602 1.367 . S
C1603 C1611 1.433 . S
C1604 H1600 0.929 . S
C1604 C1606 1.378 . S
C1604 C1608 1.350 . S
C1605 C1608 1.463 . S
C1605 C1610 1.350 . S
C1605 N1613 1.427 . S
C1606 H1597 0.930 . S
C1606 C1604 1.378 . S
C1606 C1607 1.367 . S
C1607 C1606 1.367 . S
C1607 C1609 1.433 . S
C1608 C1604 1.350 . S
C1608 C1605 1.463 . S
C1608 N1612 1.427 . S
C1609 H1599 0.929 . S
C1609 C1607 1.433 . S
C1609 N1612 1.384 . S
C1610 H1601 0.929 . S
C1610 C1602 1.378 . S
C1610 C1605 1.350 . S
C1611 H1598 0.929 . S
C1611 C1603 1.433 . S
C1611 N1613 1.384 . S
N1612 C1608 1.427 . S
N1612 C1609 1.384 . S
N1613 C1605 1.427 . S
N1613 C1611 1.384 . S
H1614 C1620 0.930 . S
H1615 C1624 0.930 . S
H1616 C1629 0.929 . S
H1617 C1627 0.929 . S
H1618 C1622 0.929 . S
H1619 C1628 0.940 . S
C1620 H1614 0.930 . S
C1620 C1621 1.367 1_545 S
C1620 C1628 1.382 . S
C1621 C1620 1.367 1_565 S
C1621 C1629 1.433 . S
C1622 H1618 0.929 . S
C1622 C1624 1.378 . S
C1622 C1626 1.350 . S
C1623 C1626 1.463 . S
C1623 C1628 1.334 1_565 S
C1623 N1631 1.427 . S
C1624 H1615 0.930 . S
C1624 C1622 1.378 . S
C1624 C1625 1.367 . S
C1625 C1624 1.367 . S
C1625 C1627 1.433 . S
C1626 C1622 1.350 . S
C1626 C1623 1.463 . S
C1626 N1630 1.427 . S
C1627 H1617 0.929 . S
C1627 C1625 1.433 . S
C1627 N1630 1.384 . S
C1628 H1619 0.940 . S
C1628 C1620 1.382 . S
C1628 C1623 1.334 1_545 S
C1629 H1616 0.929 . S
C1629 C1621 1.433 . S
C1629 N1631 1.384 . S
N1630 C1626 1.427 . S
N1630 C1627 1.384 . S
N1631 C1623 1.427 . S
N1631 C1629 1.384 . S
H1632 C1638 0.930 . S
H1633 C1642 0.930 . S
H1634 C1647 0.929 . S
H1635 C1645 0.929 . S
H1636 C1640 0.929 . S
H1637 C1646 0.929 . S
C1638 H1632 0.930 . S
C1638 C1639 1.367 . S
C1638 C1646 1.378 . S
C1639 C1638 1.367 . S
C1639 C1647 1.433 . S
C1640 H1636 0.929 . S
C1640 C1642 1.378 . S
C1640 C1644 1.350 . S
C1641 C1644 1.463 . S
C1641 C1646 1.350 . S
C1641 N1649 1.427 . S
C1642 H1633 0.930 . S
C1642 C1640 1.378 . S
C1642 C1643 1.367 . S
C1643 C1642 1.367 . S
C1643 C1645 1.433 . S
C1644 C1640 1.350 . S
C1644 C1641 1.463 . S
C1644 N1648 1.427 . S
C1645 H1635 0.929 . S
C1645 C1643 1.433 . S
C1645 N1648 1.384 . S
C1646 H1637 0.929 . S
C1646 C1638 1.378 . S
C1646 C1641 1.350 . S
C1647 H1634 0.929 . S
C1647 C1639 1.433 . S
C1647 N1649 1.384 . S
N1648 C1644 1.427 . S
N1648 C1645 1.384 . S
N1649 C1641 1.427 . S
N1649 C1647 1.384 . S
H1650 C1656 0.930 . S
H1651 C1660 0.930 . S
H1652 C1665 0.929 . S
H1653 C1663 0.929 . S
H1654 C1658 0.929 . S
H1655 C1664 0.929 . S
C1656 H1650 0.930 . S
C1656 C1657 1.367 . S
C1656 C1664 1.378 . S
C1657 C1656 1.367 . S
C1657 C1665 1.433 . S
C1658 H1654 0.929 . S
C1658 C1660 1.378 . S
C1658 C1662 1.350 . S
C1659 C1662 1.463 . S
C1659 C1664 1.350 . S
C1659 N1667 1.427 . S
C1660 H1651 0.930 . S
C1660 C1658 1.378 . S
C1660 C1661 1.367 . S
C1661 C1660 1.367 . S
C1661 C1663 1.433 . S
C1662 C1658 1.350 . S
C1662 C1659 1.463 . S
C1662 N1666 1.427 . S
C1663 H1653 0.929 . S
C1663 C1661 1.433 . S
C1663 N1666 1.384 . S
C1664 H1655 0.929 . S
C1664 C1656 1.378 . S
C1664 C1659 1.350 . S
C1665 H1652 0.929 . S
C1665 C1657 1.433 . S
C1665 N1667 1.384 . S
N1666 C1662 1.427 . S
N1666 C1663 1.384 . S
N1667 C1659 1.427 . S
N1667 C1665 1.384 . S
H1668 C1674 0.930 . S
H1669 C1678 0.930 . S
H1670 C1683 0.929 . S
H1671 C1681 0.929 . S
H1672 C1676 0.929 . S
H1673 C1682 0.929 . S
C1674 H1668 0.930 . S
C1674 C1675 1.367 . S
C1674 C1682 1.378 . S
C1675 C1674 1.367 . S
C1675 C1683 1.433 . S
C1676 H1672 0.929 . S
C1676 C1678 1.378 . S
C1676 C1680 1.350 . S
C1677 C1680 1.463 . S
C1677 C1682 1.350 . S
C1677 N1685 1.427 . S
C1678 H1669 0.930 . S
C1678 C1676 1.378 . S
C1678 C1679 1.367 . S
C1679 C1678 1.367 . S
C1679 C1681 1.433 . S
C1680 C1676 1.350 . S
C1680 C1677 1.463 . S
C1680 N1684 1.427 . S
C1681 H1671 0.929 . S
C1681 C1679 1.433 . S
C1681 N1684 1.384 . S
C1682 H1673 0.929 . S
C1682 C1674 1.378 . S
C1682 C1677 1.350 . S
C1683 H1670 0.929 . S
C1683 C1675 1.433 . S
C1683 N1685 1.384 . S
N1684 C1680 1.427 . S
N1684 C1681 1.384 . S
N1685 C1677 1.427 . S
N1685 C1683 1.384 . S
H1686 C1692 0.930 . S
H1687 C1696 0.930 1_554 S
H1688 C1701 0.929 . S
H1689 C1699 0.929 . S
H1690 C1694 0.929 1_554 S
H1691 C1700 0.929 . S
C1692 H1686 0.930 . S
C1692 C1693 1.367 . S
C1692 C1700 1.378 . S
C1693 C1692 1.367 . S
C1693 C1701 1.433 1_556 S
C1694 H1690 0.929 1_556 S
C1694 C1696 1.378 . S
C1694 C1698 1.350 . S
C1695 C1698 1.463 . S
C1695 C1700 1.350 . S
C1695 N1703 1.427 1_556 S
C1696 H1687 0.930 1_556 S
C1696 C1694 1.378 . S
C1696 C1697 1.367 . S
C1697 C1696 1.367 . S
C1697 C1699 1.433 . S
C1698 C1694 1.350 . S
C1698 C1695 1.463 . S
C1698 N1702 1.427 . S
C1699 H1689 0.929 . S
C1699 C1697 1.433 . S
C1699 N1702 1.384 . S
C1700 H1691 0.929 . S
C1700 C1692 1.378 . S
C1700 C1695 1.350 . S
C1701 H1688 0.929 . S
C1701 C1693 1.433 1_554 S
C1701 N1703 1.384 . S
N1702 C1698 1.427 . S
N1702 C1699 1.384 . S
N1703 C1695 1.427 1_554 S
N1703 C1701 1.384 . S
H1704 C1710 0.930 . S
H1705 C1714 0.929 1_554 S
H1706 C1719 0.929 . S
H1707 C1717 0.929 . S
H1708 C1712 0.929 . S
H1709 C1718 0.929 . S
C1710 H1704 0.930 . S
C1710 C1711 1.367 . S
C1710 C1718 1.378 . S
C1711 C1710 1.367 . S
C1711 C1719 1.433 1_556 S
C1712 H1708 0.929 . S
C1712 C1714 1.378 1_554 S
C1712 C1716 1.350 1_554 S
C1713 C1716 1.463 . S
C1713 C1718 1.350 . S
C1713 N1721 1.427 1_556 S
C1714 H1705 0.929 1_556 S
C1714 C1712 1.378 1_556 S
C1714 C1715 1.369 . S
C1715 C1714 1.369 . S
C1715 C1717 1.433 . S
C1716 C1712 1.350 1_556 S
C1716 C1713 1.463 . S
C1716 N1720 1.427 . S
C1717 H1707 0.929 . S
C1717 C1715 1.433 . S
C1717 N1720 1.384 . S
C1718 H1709 0.929 . S
C1718 C1710 1.378 . S
C1718 C1713 1.350 . S
C1719 H1706 0.929 . S
C1719 C1711 1.433 1_554 S
C1719 N1721 1.384 . S
N1720 C1716 1.427 . S
N1720 C1717 1.384 . S
N1721 C1713 1.427 1_554 S
N1721 C1719 1.384 . S
H1722 C1728 0.930 1_556 S
H1723 C1732 0.930 . S
H1724 C1737 0.929 . S
H1725 C1735 0.929 1_556 S
H1726 C1730 0.929 . S
H1727 C1736 0.929 1_556 S
C1728 H1722 0.930 1_554 S
C1728 C1729 1.367 . S
C1728 C1736 1.378 . S
C1729 C1728 1.367 . S
C1729 C1737 1.433 . S
C1730 H1726 0.929 . S
C1730 C1732 1.378 . S
C1730 C1734 1.350 . S
C1731 C1734 1.463 . S
C1731 C1736 1.350 . S
C1731 N1739 1.427 . S
C1732 H1723 0.930 . S
C1732 C1730 1.378 . S
C1732 C1733 1.367 . S
C1733 C1732 1.367 . S
C1733 C1735 1.433 . S
C1734 C1730 1.350 . S
C1734 C1731 1.463 . S
C1734 N1738 1.427 . S
C1735 H1725 0.929 1_554 S
C1735 C1733 1.433 . S
C1735 N1738 1.384 . S
C1736 H1727 0.929 1_554 S
C1736 C1728 1.378 . S
C1736 C1731 1.350 . S
C1737 H1724 0.929 . S
C1737 C1729 1.433 . S
C1737 N1739 1.384 . S
N1738 C1734 1.427 . S
N1738 C1735 1.384 . S
N1739 C1731 1.427 . S
N1739 C1737 1.384 . S
C883 C22 1.694 . S
C887 C723 1.664 . S
C905 N740 1.790 1_455 S
C901 C38 1.926 . S
C923 N642 1.704 . S
C919 C75 1.676 . S
C937 C91 1.347 . S
C941 C667 1.341 . S
C955 C128 1.825 . S
C959 C862 1.824 1_554 S
C973 C197 1.498 . S
C977 N822 1.490 . S
C995 N770 1.728 . S
C991 C144 1.861 . S
C1009 C181 1.724 . S
C1013 C796 1.724 . S
C1031 C682 1.745 1_455 S
C1027 C234 1.745 . S
C1049 C727 1.900 . S
C1045 C303 1.901 . S
C1063 C356 1.837 . S
C1067 C706 1.857 1_655 S
C1081 C287 1.943 . S
C1085 C813 1.939 . S
C1103 C843 1.591 . S
C1099 C393 1.609 . S
C1121 N860 1.804 . S
C1117 C409 1.973 . S
C1135 C462 1.808 . S
C1139 N792 1.840 . S
C1157 C757 1.299 . S
C1153 C446 1.293 . S
C1171 C499 1.785 . S
C1175 C742 1.779 . S
C1189 C552 1.421 . S
C1193 N702 1.424 . S
C1211 N680 1.592 . S
C1207 C515 1.737 . S
C1225 C568 1.967 . S
C1229 C646 1.968 1_556 S
C1247 C772 1.832 . S
C1243 C340 1.826 . S
C1265 C847 1.850 . S
C1261 C621 1.854 . S
C1279 C250 1.727 . S
C1283 C826 1.730 . S
C1297 C605 1.886 . S
C1301 C663 1.861 1_655 S
C1319 C637 1.362 . S
C1315 C39 1.354 . S
C1333 C29 0.751 . S
C1337 N672 0.750 . S
C1355 N710 1.198 . S
C1351 C92 1.285 . S
C1373 C753 1.677 . S
C1369 C82 1.616 . S
C1387 C145 1.624 . S
C1391 C652 1.623 . S
C1405 C188 1.412 . S
C1409 C693 1.414 . S
C1427 C697 1.115 . S
C1423 C135 1.121 . S
C1441 C198 1.579 . S
C1445 C736 1.567 . S
C1459 C251 1.057 . S
C1463 N650 1.054 . S
C1481 C712 1.656 . S
C1477 C294 1.631 . S
C1495 C347 1.077 . S
C1499 N732 1.075 . S
C1513 C304 1.566 . S
C1517 C766 1.573 . S
C1535 C787 1.388 . S
C1531 C410 1.377 . S
C1549 C400 0.757 . S
C1553 N762 0.758 . S
C1567 C453 0.970 . S
C1571 N830 0.950 . S
C1585 C463 1.920 . S
C1589 C873 1.961 . S
C1603 C516 1.616 . S
C1607 C802 1.623 . S
C1625 C783 1.756 . S
C1621 C569 1.779 . S
C1639 C506 1.018 . S
C1643 C817 1.005 . S
C1661 C856 1.369 . S
C1657 C559 1.346 . S
C1679 N800 0.968 . S
C1675 C357 1.005 . S
C1697 C832 1.627 . S
C1693 C612 1.611 . S
C1715 N852 1.062 . S
C1711 C241 1.058 . S
C1729 C622 1.470 . S
C1733 C676 1.464 . S
