# Generated by pormake.
# Topology gar, (4,6)-cn, num edge types: 1
# Building blocks:
#     Node 0, Type 0, BuildingBlock: GALJAG_clean_sbu_0, # of connection points: 4
#     Node 1, Type 0, BuildingBlock: GALJAG_clean_sbu_0, # of connection points: 4
#     Node 2, Type 0, BuildingBlock: GALJAG_clean_sbu_0, # of connection points: 4
#     Node 3, Type 0, BuildingBlock: GALJAG_clean_sbu_0, # of connection points: 4
#     Node 4, Type 0, BuildingBlock: GALJAG_clean_sbu_0, # of connection points: 4
#     Node 5, Type 0, BuildingBlock: GALJAG_clean_sbu_0, # of connection points: 4
#     Node 6, Type 0, BuildingBlock: GALJAG_clean_sbu_0, # of connection points: 4
#     Node 7, Type 0, BuildingBlock: GALJAG_clean_sbu_0, # of connection points: 4
#     Node 8, Type 0, BuildingBlock: GALJAG_clean_sbu_0, # of connection points: 4
#     Node 9, Type 0, BuildingBlock: GALJAG_clean_sbu_0, # of connection points: 4
#     Node 10, Type 0, BuildingBlock: GALJAG_clean_sbu_0, # of connection points: 4
#     Node 11, Type 0, BuildingBlock: GALJAG_clean_sbu_0, # of connection points: 4
#     Node 12, Type 0, BuildingBlock: GALJAG_clean_sbu_0, # of connection points: 4
#     Node 13, Type 0, BuildingBlock: GALJAG_clean_sbu_0, # of connection points: 4
#     Node 14, Type 0, BuildingBlock: GALJAG_clean_sbu_0, # of connection points: 4
#     Node 15, Type 0, BuildingBlock: GALJAG_clean_sbu_0, # of connection points: 4
#     Node 16, Type 0, BuildingBlock: GALJAG_clean_sbu_0, # of connection points: 4
#     Node 17, Type 0, BuildingBlock: GALJAG_clean_sbu_0, # of connection points: 4
#     Node 18, Type 0, BuildingBlock: GALJAG_clean_sbu_0, # of connection points: 4
#     Node 19, Type 0, BuildingBlock: GALJAG_clean_sbu_0, # of connection points: 4
#     Node 20, Type 0, BuildingBlock: GALJAG_clean_sbu_0, # of connection points: 4
#     Node 21, Type 0, BuildingBlock: GALJAG_clean_sbu_0, # of connection points: 4
#     Node 22, Type 0, BuildingBlock: GALJAG_clean_sbu_0, # of connection points: 4
#     Node 23, Type 0, BuildingBlock: GALJAG_clean_sbu_0, # of connection points: 4
#     Node 24, Type 1, BuildingBlock: CUKXOW_clean_sbu_0, # of connection points: 6
#     Node 25, Type 1, BuildingBlock: CUKXOW_clean_sbu_0, # of connection points: 6
#     Node 26, Type 1, BuildingBlock: CUKXOW_clean_sbu_0, # of connection points: 6
#     Node 27, Type 1, BuildingBlock: CUKXOW_clean_sbu_0, # of connection points: 6
#     Node 28, Type 1, BuildingBlock: CUKXOW_clean_sbu_0, # of connection points: 6
#     Node 29, Type 1, BuildingBlock: CUKXOW_clean_sbu_0, # of connection points: 6
#     Node 30, Type 1, BuildingBlock: CUKXOW_clean_sbu_0, # of connection points: 6
#     Node 31, Type 1, BuildingBlock: CUKXOW_clean_sbu_0, # of connection points: 6
#     Node 32, Type 1, BuildingBlock: CUKXOW_clean_sbu_0, # of connection points: 6
#     Node 33, Type 1, BuildingBlock: CUKXOW_clean_sbu_0, # of connection points: 6
#     Node 34, Type 1, BuildingBlock: CUKXOW_clean_sbu_0, # of connection points: 6
#     Node 35, Type 1, BuildingBlock: CUKXOW_clean_sbu_0, # of connection points: 6
#     Node 36, Type 1, BuildingBlock: CUKXOW_clean_sbu_0, # of connection points: 6
#     Node 37, Type 1, BuildingBlock: CUKXOW_clean_sbu_0, # of connection points: 6
#     Node 38, Type 1, BuildingBlock: CUKXOW_clean_sbu_0, # of connection points: 6
#     Node 39, Type 1, BuildingBlock: CUKXOW_clean_sbu_0, # of connection points: 6
#     Edge 40, Type (0, 1), BuildingBlock: UVAHIK_clean_linker_0, # of connection points: 2
#     Edge 41, Type (0, 1), BuildingBlock: UVAHIK_clean_linker_0, # of connection points: 2
#     Edge 42, Type (0, 1), BuildingBlock: UVAHIK_clean_linker_0, # of connection points: 2
#     Edge 43, Type (0, 1), BuildingBlock: UVAHIK_clean_linker_0, # of connection points: 2
#     Edge 44, Type (0, 1), BuildingBlock: UVAHIK_clean_linker_0, # of connection points: 2
#     Edge 45, Type (0, 1), BuildingBlock: UVAHIK_clean_linker_0, # of connection points: 2
#     Edge 46, Type (0, 1), BuildingBlock: UVAHIK_clean_linker_0, # of connection points: 2
#     Edge 47, Type (0, 1), BuildingBlock: UVAHIK_clean_linker_0, # of connection points: 2
#     Edge 48, Type (0, 1), BuildingBlock: UVAHIK_clean_linker_0, # of connection points: 2
#     Edge 49, Type (0, 1), BuildingBlock: UVAHIK_clean_linker_0, # of connection points: 2
#     Edge 50, Type (0, 1), BuildingBlock: UVAHIK_clean_linker_0, # of connection points: 2
#     Edge 51, Type (0, 1), BuildingBlock: UVAHIK_clean_linker_0, # of connection points: 2
#     Edge 52, Type (0, 1), BuildingBlock: UVAHIK_clean_linker_0, # of connection points: 2
#     Edge 53, Type (0, 1), BuildingBlock: UVAHIK_clean_linker_0, # of connection points: 2
#     Edge 54, Type (0, 1), BuildingBlock: UVAHIK_clean_linker_0, # of connection points: 2
#     Edge 55, Type (0, 1), BuildingBlock: UVAHIK_clean_linker_0, # of connection points: 2
#     Edge 56, Type (0, 1), BuildingBlock: UVAHIK_clean_linker_0, # of connection points: 2
#     Edge 57, Type (0, 1), BuildingBlock: UVAHIK_clean_linker_0, # of connection points: 2
#     Edge 58, Type (0, 1), BuildingBlock: UVAHIK_clean_linker_0, # of connection points: 2
#     Edge 59, Type (0, 1), BuildingBlock: UVAHIK_clean_linker_0, # of connection points: 2
#     Edge 60, Type (0, 1), BuildingBlock: UVAHIK_clean_linker_0, # of connection points: 2
#     Edge 61, Type (0, 1), BuildingBlock: UVAHIK_clean_linker_0, # of connection points: 2
#     Edge 62, Type (0, 1), BuildingBlock: UVAHIK_clean_linker_0, # of connection points: 2
#     Edge 63, Type (0, 1), BuildingBlock: UVAHIK_clean_linker_0, # of connection points: 2
#     Edge 64, Type (0, 1), BuildingBlock: UVAHIK_clean_linker_0, # of connection points: 2
#     Edge 65, Type (0, 1), BuildingBlock: UVAHIK_clean_linker_0, # of connection points: 2
#     Edge 66, Type (0, 1), BuildingBlock: UVAHIK_clean_linker_0, # of connection points: 2
#     Edge 67, Type (0, 1), BuildingBlock: UVAHIK_clean_linker_0, # of connection points: 2
#     Edge 68, Type (0, 1), BuildingBlock: UVAHIK_clean_linker_0, # of connection points: 2
#     Edge 69, Type (0, 1), BuildingBlock: UVAHIK_clean_linker_0, # of connection points: 2
#     Edge 70, Type (0, 1), BuildingBlock: UVAHIK_clean_linker_0, # of connection points: 2
#     Edge 71, Type (0, 1), BuildingBlock: UVAHIK_clean_linker_0, # of connection points: 2
#     Edge 72, Type (0, 1), BuildingBlock: UVAHIK_clean_linker_0, # of connection points: 2
#     Edge 73, Type (0, 1), BuildingBlock: UVAHIK_clean_linker_0, # of connection points: 2
#     Edge 74, Type (0, 1), BuildingBlock: UVAHIK_clean_linker_0, # of connection points: 2
#     Edge 75, Type (0, 1), BuildingBlock: UVAHIK_clean_linker_0, # of connection points: 2
#     Edge 76, Type (0, 1), BuildingBlock: UVAHIK_clean_linker_0, # of connection points: 2
#     Edge 77, Type (0, 1), BuildingBlock: UVAHIK_clean_linker_0, # of connection points: 2
#     Edge 78, Type (0, 1), BuildingBlock: UVAHIK_clean_linker_0, # of connection points: 2
#     Edge 79, Type (0, 1), BuildingBlock: UVAHIK_clean_linker_0, # of connection points: 2
#     Edge 80, Type (0, 1), BuildingBlock: UVAHIK_clean_linker_0, # of connection points: 2
#     Edge 81, Type (0, 1), BuildingBlock: UVAHIK_clean_linker_0, # of connection points: 2
#     Edge 82, Type (0, 1), BuildingBlock: UVAHIK_clean_linker_0, # of connection points: 2
#     Edge 83, Type (0, 1), BuildingBlock: UVAHIK_clean_linker_0, # of connection points: 2
#     Edge 84, Type (0, 1), BuildingBlock: UVAHIK_clean_linker_0, # of connection points: 2
#     Edge 85, Type (0, 1), BuildingBlock: UVAHIK_clean_linker_0, # of connection points: 2
#     Edge 86, Type (0, 1), BuildingBlock: UVAHIK_clean_linker_0, # of connection points: 2
#     Edge 87, Type (0, 1), BuildingBlock: UVAHIK_clean_linker_0, # of connection points: 2
#     Edge 88, Type (0, 1), BuildingBlock: UVAHIK_clean_linker_0, # of connection points: 2
#     Edge 89, Type (0, 1), BuildingBlock: UVAHIK_clean_linker_0, # of connection points: 2
#     Edge 90, Type (0, 1), BuildingBlock: UVAHIK_clean_linker_0, # of connection points: 2
#     Edge 91, Type (0, 1), BuildingBlock: UVAHIK_clean_linker_0, # of connection points: 2
#     Edge 92, Type (0, 1), BuildingBlock: UVAHIK_clean_linker_0, # of connection points: 2
#     Edge 93, Type (0, 1), BuildingBlock: UVAHIK_clean_linker_0, # of connection points: 2
#     Edge 94, Type (0, 1), BuildingBlock: UVAHIK_clean_linker_0, # of connection points: 2
#     Edge 95, Type (0, 1), BuildingBlock: UVAHIK_clean_linker_0, # of connection points: 2
#     Edge 96, Type (0, 1), BuildingBlock: UVAHIK_clean_linker_0, # of connection points: 2
#     Edge 97, Type (0, 1), BuildingBlock: UVAHIK_clean_linker_0, # of connection points: 2
#     Edge 98, Type (0, 1), BuildingBlock: UVAHIK_clean_linker_0, # of connection points: 2
#     Edge 99, Type (0, 1), BuildingBlock: UVAHIK_clean_linker_0, # of connection points: 2
#     Edge 100, Type (0, 1), BuildingBlock: UVAHIK_clean_linker_0, # of connection points: 2
#     Edge 101, Type (0, 1), BuildingBlock: UVAHIK_clean_linker_0, # of connection points: 2
#     Edge 102, Type (0, 1), BuildingBlock: UVAHIK_clean_linker_0, # of connection points: 2
#     Edge 103, Type (0, 1), BuildingBlock: UVAHIK_clean_linker_0, # of connection points: 2
#     Edge 104, Type (0, 1), BuildingBlock: UVAHIK_clean_linker_0, # of connection points: 2
#     Edge 105, Type (0, 1), BuildingBlock: UVAHIK_clean_linker_0, # of connection points: 2
#     Edge 106, Type (0, 1), BuildingBlock: UVAHIK_clean_linker_0, # of connection points: 2
#     Edge 107, Type (0, 1), BuildingBlock: UVAHIK_clean_linker_0, # of connection points: 2
#     Edge 108, Type (0, 1), BuildingBlock: UVAHIK_clean_linker_0, # of connection points: 2
#     Edge 109, Type (0, 1), BuildingBlock: UVAHIK_clean_linker_0, # of connection points: 2
#     Edge 110, Type (0, 1), BuildingBlock: UVAHIK_clean_linker_0, # of connection points: 2
#     Edge 111, Type (0, 1), BuildingBlock: UVAHIK_clean_linker_0, # of connection points: 2
#     Edge 112, Type (0, 1), BuildingBlock: UVAHIK_clean_linker_0, # of connection points: 2
#     Edge 113, Type (0, 1), BuildingBlock: UVAHIK_clean_linker_0, # of connection points: 2
#     Edge 114, Type (0, 1), BuildingBlock: UVAHIK_clean_linker_0, # of connection points: 2
#     Edge 115, Type (0, 1), BuildingBlock: UVAHIK_clean_linker_0, # of connection points: 2
#     Edge 116, Type (0, 1), BuildingBlock: UVAHIK_clean_linker_0, # of connection points: 2
#     Edge 117, Type (0, 1), BuildingBlock: UVAHIK_clean_linker_0, # of connection points: 2
#     Edge 118, Type (0, 1), BuildingBlock: UVAHIK_clean_linker_0, # of connection points: 2
#     Edge 119, Type (0, 1), BuildingBlock: UVAHIK_clean_linker_0, # of connection points: 2
#     Edge 120, Type (0, 1), BuildingBlock: UVAHIK_clean_linker_0, # of connection points: 2
#     Edge 121, Type (0, 1), BuildingBlock: UVAHIK_clean_linker_0, # of connection points: 2
#     Edge 122, Type (0, 1), BuildingBlock: UVAHIK_clean_linker_0, # of connection points: 2
#     Edge 123, Type (0, 1), BuildingBlock: UVAHIK_clean_linker_0, # of connection points: 2
#     Edge 124, Type (0, 1), BuildingBlock: UVAHIK_clean_linker_0, # of connection points: 2
#     Edge 125, Type (0, 1), BuildingBlock: UVAHIK_clean_linker_0, # of connection points: 2
#     Edge 126, Type (0, 1), BuildingBlock: UVAHIK_clean_linker_0, # of connection points: 2
#     Edge 127, Type (0, 1), BuildingBlock: UVAHIK_clean_linker_0, # of connection points: 2
#     Edge 128, Type (0, 1), BuildingBlock: UVAHIK_clean_linker_0, # of connection points: 2
#     Edge 129, Type (0, 1), BuildingBlock: UVAHIK_clean_linker_0, # of connection points: 2
#     Edge 130, Type (0, 1), BuildingBlock: UVAHIK_clean_linker_0, # of connection points: 2
#     Edge 131, Type (0, 1), BuildingBlock: UVAHIK_clean_linker_0, # of connection points: 2
#     Edge 132, Type (0, 1), BuildingBlock: UVAHIK_clean_linker_0, # of connection points: 2
#     Edge 133, Type (0, 1), BuildingBlock: UVAHIK_clean_linker_0, # of connection points: 2
#     Edge 134, Type (0, 1), BuildingBlock: UVAHIK_clean_linker_0, # of connection points: 2
#     Edge 135, Type (0, 1), BuildingBlock: UVAHIK_clean_linker_0, # of connection points: 2
# Relax obj value: 0.121
# Max RMSD: 0.218
# Mean RMSD: 0.144
data_MOF--net-gar--node1-GALJAG_clean_sbu_0--node2-CUKXOW_clean_sbu_0--edge1-UVAHIK_clean_linker_0
_symmetry_space_group_name_H-M    P1
_symmetry_Int_Tables_number       1
_symmetry_cell_setting            triclinic
loop_
_symmetry_equiv_pos_as_xyz
'x, y, z'
_cell_length_a     71.043256
_cell_length_b     69.380875
_cell_length_c     69.785246
_cell_angle_alpha  93.506366
_cell_angle_beta   95.471522
_cell_angle_gamma 99.15979
loop_
_atom_site_label
_atom_site_type_symbol
_atom_site_fract_x
_atom_site_fract_y
_atom_site_fract_z
_atom_type_partial_charge
In0 In 0.03412 0.27169 0.43261 0.0
O1 O 0.04024 0.25648 0.40473 0.0
O2 O 0.06375 0.27409 0.42201 0.0
C3 C 0.00011 0.27082 0.41148 0.0
C4 C 0.03412 0.2437 0.45749 0.0
C5 C 0.04315 0.30708 0.45245 0.0
O6 O 0.00423 0.25644 0.42023 0.0
O7 O 0.01296 0.28578 0.41374 0.0
O8 O 0.0364 0.29189 0.46016 0.0
O9 O 0.04564 0.30432 0.43493 0.0
C10 C 0.05792 0.26322 0.40672 0.0
O11 O 0.02054 0.25333 0.45514 0.0
O12 O 0.04796 0.24868 0.44777 0.0
In13 In 0.9988 0.78681 0.63004 0.0
O14 O 0.98267 0.80632 0.61169 0.0
O15 O 0.01318 0.81203 0.61477 0.0
C16 C 0.99533 0.75731 0.60228 0.0
C17 C 0.03052 0.79157 0.6553 0.0
C18 C 0.97313 0.78316 0.65611 0.0
O19 O 0.01133 0.767 0.6092 0.0
O20 O 0.98108 0.7625 0.60936 0.0
O21 O 0.98022 0.7689 0.64958 0.0
O22 O 0.97873 0.79921 0.64923 0.0
C23 C 0.99776 0.81682 0.60765 0.0
O24 O 0.02337 0.80579 0.64911 0.0
O25 O 0.02175 0.77489 0.64864 0.0
In26 In 0.5366 0.76917 0.9183 0.0
O27 O 0.5524 0.75263 0.89749 0.0
O28 O 0.55818 0.7837 0.89936 0.0
C29 C 0.50514 0.76961 0.89369 0.0
C30 C 0.53691 0.73901 0.94057 0.0
C31 C 0.54015 0.79893 0.94577 0.0
O32 O 0.51761 0.78464 0.89839 0.0
O33 O 0.50842 0.75445 0.90157 0.0
O34 O 0.52455 0.78761 0.9406 0.0
O35 O 0.55415 0.79516 0.93721 0.0
C36 C 0.5612 0.76787 0.89135 0.0
O37 O 0.55212 0.75046 0.9383 0.0
O38 O 0.52185 0.74288 0.93166 0.0
In39 In 0.50166 0.28275 0.12303 0.0
O40 O 0.50304 0.26596 0.09412 0.0
O41 O 0.49143 0.24995 0.11638 0.0
C42 C 0.50312 0.31438 0.10254 0.0
C43 C 0.47327 0.28221 0.1461 0.0
C44 C 0.53523 0.28697 0.14545 0.0
O45 O 0.4884 0.30133 0.10143 0.0
O46 O 0.51707 0.31141 0.11394 0.0
O47 O 0.52224 0.29673 0.1489 0.0
O48 O 0.53139 0.27524 0.13052 0.0
C49 C 0.49577 0.2496 0.0993 0.0
O50 O 0.48679 0.27266 0.14904 0.0
O51 O 0.47393 0.29187 0.1314 0.0
In52 In 0.99853 0.76793 0.15833 0.0
O53 O 0.00973 0.75081 0.1342 0.0
O54 O 0.9885 0.7353 0.14953 0.0
C55 C 0.9992 0.79758 0.13481 0.0
C56 C 0.96706 0.76899 0.17757 0.0
C57 C 0.0317 0.7711 0.18184 0.0
O58 O 0.98974 0.78072 0.13006 0.0
O59 O 0.00828 0.79955 0.15145 0.0
O60 O 0.02581 0.78568 0.17485 0.0
O61 O 0.0207 0.75499 0.1773 0.0
C62 C 0.99935 0.73471 0.13627 0.0
O63 O 0.98341 0.76865 0.18612 0.0
O64 O 0.9666 0.76881 0.15952 0.0
In65 In 0.5254 0.78629 0.37425 0.0
O66 O 0.54293 0.7729 0.35267 0.0
O67 O 0.55441 0.80111 0.36607 0.0
C68 C 0.49452 0.77703 0.34754 0.0
C69 C 0.52572 0.75951 0.40089 0.0
C70 C 0.52245 0.82027 0.39442 0.0
O71 O 0.50696 0.79217 0.34727 0.0
O72 O 0.49796 0.76624 0.36094 0.0
O73 O 0.53457 0.8097 0.39965 0.0
O74 O 0.51205 0.81384 0.37904 0.0
C75 C 0.55663 0.78711 0.35457 0.0
O76 O 0.51086 0.76635 0.39541 0.0
O77 O 0.54035 0.76613 0.39294 0.0
In78 In 0.49741 0.27006 0.65284 0.0
O79 O 0.50504 0.2536 0.62604 0.0
O80 O 0.4911 0.23682 0.64661 0.0
C81 C 0.49846 0.29889 0.62829 0.0
C82 C 0.46568 0.27076 0.67149 0.0
C83 C 0.52851 0.27364 0.67938 0.0
O84 O 0.483 0.2885 0.63152 0.0
O85 O 0.5133 0.29467 0.63734 0.0
O86 O 0.52184 0.28818 0.67328 0.0
O87 O 0.51925 0.25727 0.67247 0.0
C88 C 0.49826 0.23684 0.63075 0.0
O89 O 0.48171 0.28093 0.67757 0.0
O90 O 0.46568 0.26028 0.65611 0.0
In91 In 0.02529 0.28719 0.87498 0.0
O92 O 0.02341 0.2732 0.90378 0.0
O93 O 0.02749 0.25523 0.87933 0.0
C94 C 0.02411 0.32182 0.89453 0.0
C95 C 0.05766 0.28957 0.85678 0.0
C96 C 0.99118 0.28099 0.85282 0.0
O97 O 0.03407 0.30967 0.90104 0.0
O98 O 0.01508 0.31664 0.87811 0.0
O99 O 0.00579 0.29195 0.84831 0.0
O100 O 0.99381 0.27303 0.86843 0.0
C101 C 0.02561 0.25649 0.89712 0.0
O102 O 0.04219 0.27862 0.85038 0.0
O103 O 0.05679 0.29967 0.87218 0.0
In104 In 0.40021 0.06015 0.24763 0.0
O105 O 0.42326 0.07288 0.22853 0.0
O106 O 0.4069 0.04507 0.21963 0.0
C107 C 0.41911 0.06563 0.28368 0.0
C108 C 0.37833 0.08848 0.2423 0.0
C109 C 0.38041 0.0242 0.25126 0.0
O110 O 0.42734 0.0624 0.26882 0.0
O111 O 0.40156 0.06668 0.28027 0.0
O112 O 0.37259 0.03767 0.24421 0.0
O113 O 0.39815 0.02884 0.25635 0.0
C114 C 0.42001 0.05841 0.21616 0.0
O115 O 0.37265 0.07077 0.23644 0.0
O116 O 0.39521 0.09203 0.25065 0.0
In117 In 0.2772 0.16661 0.50011 0.0
O118 O 0.2591 0.18527 0.51585 0.0
O119 O 0.28943 0.19214 0.52202 0.0
C120 C 0.28068 0.18709 0.46873 0.0
C121 C 0.30574 0.14695 0.51041 0.0
C122 C 0.24788 0.13663 0.49887 0.0
O123 O 0.29498 0.18227 0.47822 0.0
O124 O 0.2648 0.181 0.4747 0.0
O125 O 0.25502 0.14231 0.4839 0.0
O126 O 0.25552 0.14609 0.51443 0.0
C127 C 0.27329 0.19625 0.52519 0.0
O128 O 0.29634 0.14409 0.49391 0.0
O129 O 0.30103 0.16001 0.52147 0.0
In130 In 0.14725 0.00321 0.79046 0.0
O131 O 0.11805 0.00027 0.7727 0.0
O132 O 0.1412 0.99233 0.75867 0.0
C133 C 0.12581 0.00396 0.82044 0.0
C134 C 0.16923 0.97495 0.79346 0.0
C135 C 0.16882 0.03877 0.78849 0.0
O136 O 0.12726 0.01715 0.80875 0.0
O137 O 0.13554 0.99062 0.8173 0.0
O138 O 0.16763 0.03069 0.80416 0.0
O139 O 0.15935 0.02887 0.77399 0.0
C140 C 0.12373 0.99397 0.75731 0.0
O141 O 0.1763 0.99293 0.79516 0.0
O142 O 0.15117 0.97133 0.79075 0.0
In143 In 0.22983 0.8956 0.03205 0.0
O144 O 0.22079 0.86858 0.04873 0.0
O145 O 0.23894 0.89312 0.0639 0.0
C146 C 0.229 0.87623 0.99674 0.0
C147 C 0.20008 0.91565 0.03523 0.0
C148 C 0.26571 0.91574 0.03242 0.0
O149 O 0.2278 0.86745 0.01201 0.0
O150 O 0.22996 0.89451 0.99923 0.0
O151 O 0.25101 0.92258 0.02637 0.0
O152 O 0.26231 0.89883 0.03833 0.0
C153 C 0.23016 0.87591 0.0645 0.0
O154 O 0.21699 0.92221 0.04238 0.0
O155 O 0.19802 0.89886 0.02651 0.0
In156 In 0.25393 0.40894 0.03663 0.0
O157 O 0.25818 0.38172 0.05142 0.0
O158 O 0.2382 0.39809 0.06232 0.0
C159 C 0.25896 0.38642 0.00548 0.0
C160 C 0.22438 0.42733 0.02653 0.0
C161 C 0.28594 0.43557 0.04658 0.0
O162 O 0.24325 0.38512 0.01271 0.0
O163 O 0.27217 0.39947 0.01372 0.0
O164 O 0.27354 0.43757 0.033 0.0
O165 O 0.28199 0.42039 0.05545 0.0
C166 C 0.24615 0.38311 0.0633 0.0
O167 O 0.23441 0.43136 0.04265 0.0
O168 O 0.22922 0.4141 0.01582 0.0
In169 In 0.8029 0.17 0.01323 0.0
O170 O 0.81723 0.14353 0.01983 0.0
O171 O 0.83428 0.16762 0.0092 0.0
C172 C 0.76984 0.14384 0.0104 0.0
C173 C 0.8036 0.19396 0.04574 0.0
C174 C 0.80131 0.19009 0.98107 0.0
O175 O 0.78106 0.14754 0.02576 0.0
O176 O 0.77545 0.15302 0.99642 0.0
O177 O 0.80049 0.19794 0.99771 0.0
O178 O 0.80355 0.1724 0.98078 0.0
C179 C 0.83336 0.15061 0.0149 0.0
O180 O 0.81829 0.18753 0.041 0.0
O181 O 0.78889 0.18885 0.03384 0.0
In182 In 0.11614 0.48204 0.27961 0.0
O183 O 0.14038 0.4657 0.28971 0.0
O184 O 0.11569 0.44908 0.27363 0.0
C185 C 0.13921 0.51659 0.2774 0.0
C186 C 0.09553 0.48159 0.24475 0.0
C187 C 0.09974 0.48473 0.31305 0.0
O188 O 0.14465 0.50036 0.27414 0.0
O189 O 0.12223 0.51534 0.28168 0.0
O190 O 0.09137 0.47418 0.29834 0.0
O191 O 0.11632 0.49336 0.31096 0.0
C192 C 0.13222 0.44919 0.28205 0.0
O193 O 0.08851 0.48447 0.26043 0.0
O194 O 0.11263 0.47866 0.24675 0.0
In195 In 0.75641 0.91834 0.52679 0.0
O196 O 0.7699 0.90232 0.55044 0.0
O197 O 0.74327 0.91126 0.55467 0.0
C198 C 0.75122 0.88877 0.49915 0.0
C199 C 0.72561 0.93572 0.5191 0.0
C200 C 0.79002 0.94191 0.52437 0.0
O201 O 0.75508 0.88626 0.51674 0.0
O202 O 0.7505 0.90624 0.4955 0.0
O203 O 0.78006 0.94404 0.53816 0.0
O204 O 0.78288 0.92817 0.51188 0.0
C205 C 0.75646 0.90238 0.56098 0.0
O206 O 0.74192 0.94553 0.52487 0.0
O207 O 0.72492 0.91744 0.51787 0.0
In208 In 0.88111 0.05363 0.24766 0.0
O209 O 0.90022 0.07055 0.22747 0.0
O210 O 0.88963 0.04049 0.21971 0.0
C211 C 0.90687 0.05621 0.27906 0.0
C212 C 0.85964 0.08224 0.25135 0.0
C213 C 0.86049 0.01729 0.24709 0.0
O214 O 0.91125 0.063 0.26343 0.0
O215 O 0.88954 0.04853 0.27889 0.0
O216 O 0.85254 0.0322 0.245 0.0
O217 O 0.87855 0.02081 0.24915 0.0
C218 C 0.89989 0.05594 0.21569 0.0
O219 O 0.85887 0.07174 0.23578 0.0
O220 O 0.871 0.07816 0.2649 0.0
In221 In 0.30223 0.66821 0.51431 0.0
O222 O 0.31762 0.64217 0.51948 0.0
O223 O 0.33414 0.66754 0.51058 0.0
C224 C 0.26635 0.64726 0.50894 0.0
C225 C 0.3039 0.68724 0.54997 0.0
C226 C 0.29981 0.6862 0.48097 0.0
O227 O 0.28106 0.63933 0.51177 0.0
O228 O 0.26974 0.66562 0.50863 0.0
O229 O 0.30055 0.69523 0.49738 0.0
O230 O 0.30089 0.66823 0.4814 0.0
C231 C 0.3337 0.6502 0.51524 0.0
O232 O 0.31061 0.69562 0.53596 0.0
O233 O 0.29697 0.66945 0.54609 0.0
In234 In 0.37883 0.55491 0.75005 0.0
O235 O 0.3547 0.57092 0.73821 0.0
O236 O 0.37291 0.5837 0.76316 0.0
C237 C 0.3585 0.51861 0.7515 0.0
C238 C 0.39797 0.55829 0.71833 0.0
C239 C 0.40199 0.55791 0.78333 0.0
O240 O 0.35043 0.53334 0.74891 0.0
O241 O 0.37654 0.52228 0.75326 0.0
O242 O 0.40805 0.55535 0.76709 0.0
O243 O 0.38436 0.55882 0.78272 0.0
C244 C 0.35883 0.58492 0.75116 0.0
O245 O 0.4003 0.57161 0.73186 0.0
O246 O 0.38569 0.54361 0.72056 0.0
In247 In 0.61829 0.98492 0.77458 0.0
O248 O 0.64586 0.97197 0.77734 0.0
O249 O 0.6197 0.95211 0.77617 0.0
C250 C 0.63872 0.02108 0.77306 0.0
C251 C 0.59622 0.98229 0.74008 0.0
C252 C 0.60365 0.98569 0.80905 0.0
O253 O 0.64494 0.00566 0.76816 0.0
O254 O 0.6222 0.01827 0.77863 0.0
O255 O 0.5947 0.97582 0.79419 0.0
O256 O 0.62004 0.99463 0.80659 0.0
C257 C 0.63777 0.95442 0.77726 0.0
O258 O 0.5907 0.98818 0.7557 0.0
O259 O 0.61248 0.97721 0.74196 0.0
In260 In 0.77378 0.66051 0.00489 0.0
O261 O 0.79054 0.64478 0.02646 0.0
O262 O 0.79892 0.64562 0.998 0.0
C263 C 0.7434 0.63185 0.00438 0.0
C264 C 0.77503 0.69317 0.02823 0.0
C265 C 0.774 0.67732 0.97131 0.0
O266 O 0.75261 0.63465 0.98993 0.0
O267 O 0.74965 0.64336 0.01911 0.0
O268 O 0.78931 0.67546 0.98127 0.0
O269 O 0.75879 0.67034 0.97812 0.0
C270 C 0.80181 0.64006 0.01477 0.0
O271 O 0.75984 0.6845 0.01859 0.0
O272 O 0.78957 0.68525 0.02632 0.0
In273 In 0.90187 0.56616 0.75327 0.0
O274 O 0.87541 0.57726 0.73991 0.0
O275 O 0.89689 0.59808 0.75637 0.0
C276 C 0.88096 0.53053 0.75624 0.0
C277 C 0.92086 0.56604 0.72135 0.0
C278 C 0.92251 0.56914 0.78851 0.0
O279 O 0.87524 0.54624 0.7611 0.0
O280 O 0.89716 0.53281 0.74994 0.0
O281 O 0.92918 0.56423 0.77316 0.0
O282 O 0.90581 0.57312 0.78598 0.0
C283 C 0.88069 0.5948 0.74655 0.0
O284 O 0.92639 0.57835 0.73568 0.0
O285 O 0.90585 0.55419 0.72314 0.0
In286 In 0.72751 0.39516 0.52911 0.0
O287 O 0.72491 0.36649 0.54408 0.0
O288 O 0.72907 0.39316 0.56178 0.0
C289 C 0.72655 0.37209 0.49596 0.0
C290 C 0.69761 0.41527 0.52967 0.0
C291 C 0.76197 0.41895 0.53019 0.0
O292 O 0.7375 0.37078 0.51097 0.0
O293 O 0.71554 0.3845 0.49783 0.0
O294 O 0.74945 0.41679 0.51585 0.0
O295 O 0.75709 0.40929 0.54413 0.0
C296 C 0.72721 0.37471 0.56099 0.0
O297 O 0.71439 0.42308 0.52731 0.0
O298 O 0.6957 0.39714 0.53182 0.0
In299 In 0.65343 0.50358 0.29186 0.0
O300 O 0.68024 0.49055 0.30178 0.0
O301 O 0.65766 0.47243 0.28395 0.0
C302 C 0.67585 0.53868 0.2896 0.0
C303 C 0.62898 0.49585 0.25936 0.0
C304 C 0.63194 0.50597 0.32159 0.0
O305 O 0.67461 0.53067 0.30528 0.0
O306 O 0.66602 0.52893 0.27523 0.0
O307 O 0.63368 0.51864 0.30937 0.0
O308 O 0.64113 0.49208 0.3189 0.0
C309 C 0.67415 0.47404 0.29285 0.0
O310 O 0.62324 0.49575 0.27593 0.0
O311 O 0.64693 0.4999 0.25928 0.0
Tb312 Tb 0.02089 0.04954 0.01582 0.0
C313 C 0.01683 0.01737 0.98021 0.0
Tb314 Tb 0.00597 0.00575 0.02142 0.0
O315 O 0.04779 0.04788 0.03412 0.0
O316 O 0.03217 0.02347 0.01833 0.0
O317 O 0.01895 0.03626 0.98629 0.0
C318 C 0.0062 0.9691 0.03045 0.0
O319 O 0.01254 0.00287 0.99156 0.0
C320 C 0.97936 0.02793 0.01746 0.0
C321 C 0.00866 0.03806 0.05588 0.0
O322 O 0.99407 0.97434 0.01732 0.0
O323 O 0.01803 0.98441 0.03816 0.0
O324 O 0.97725 0.01172 0.02602 0.0
O325 O 0.99483 0.02957 0.00978 0.0
O326 O 0.01053 0.01977 0.05076 0.0
O327 O 0.01006 0.05203 0.04373 0.0
C328 C 0.02528 0.08578 0.00423 0.0
O329 O 0.01056 0.07727 0.01196 0.0
O330 O 0.03768 0.07397 0.00326 0.0
C331 C 0.04634 0.02903 0.03058 0.0
Tb332 Tb 0.26856 0.79115 0.27029 0.0
C333 C 0.30085 0.76445 0.26679 0.0
Tb334 Tb 0.25677 0.74637 0.26292 0.0
O335 O 0.25869 0.78992 0.29932 0.0
O336 O 0.26853 0.76642 0.28653 0.0
O337 O 0.29613 0.78224 0.26601 0.0
C338 C 0.24677 0.70865 0.26831 0.0
O339 O 0.28795 0.74828 0.26696 0.0
C340 C 0.25329 0.76602 0.23208 0.0
C341 C 0.22507 0.77333 0.26404 0.0
O342 O 0.25678 0.71531 0.2547 0.0
O343 O 0.24274 0.72321 0.27885 0.0
O344 O 0.24354 0.7488 0.23363 0.0
O345 O 0.26576 0.77017 0.24643 0.0
O346 O 0.22992 0.75631 0.26845 0.0
O347 O 0.23804 0.78871 0.26161 0.0
C348 C 0.28295 0.82897 0.26935 0.0
O349 O 0.26882 0.81933 0.25763 0.0
O350 O 0.28883 0.81735 0.28163 0.0
C351 C 0.26091 0.77184 0.30095 0.0
Tb352 Tb 0.52482 0.02536 0.50816 0.0
C353 C 0.51612 0.01529 0.5501 0.0
Tb354 Tb 0.48459 0.02669 0.51891 0.0
O355 O 0.53609 0.05172 0.52708 0.0
O356 O 0.50809 0.04748 0.51341 0.0
O357 O 0.52745 0.01333 0.53624 0.0
C358 C 0.45432 0.03702 0.53413 0.0
O359 O 0.49931 0.02132 0.54679 0.0
C360 C 0.48959 0.99351 0.50186 0.0
C361 C 0.49341 0.03663 0.47706 0.0
O362 O 0.47194 0.04548 0.53859 0.0
O363 O 0.45378 0.02259 0.52126 0.0
O364 O 0.47326 -0.00027 0.50063 0.0
O365 O 0.50133 0.00469 0.51382 0.0
O366 O 0.48258 0.03947 0.49115 0.0
O367 O 0.50979 0.02977 0.4802 0.0
C368 C 0.55551 0.016 0.49306 0.0
O369 O 0.55479 0.03247 0.50256 0.0
O370 O 0.53891 0.00486 0.49199 0.0
C371 C 0.51995 0.0583 0.52565 0.0
Tb372 Tb 0.26806 0.28211 0.789 0.0
C373 C 0.27244 0.31854 0.76499 0.0
Tb374 Tb 0.25836 0.27495 0.74596 0.0
O375 O 0.29824 0.29128 0.7855 0.0
O376 O 0.28108 0.27012 0.76591 0.0
O377 O 0.26944 0.31244 0.78226 0.0
C378 C 0.25941 0.27392 0.70791 0.0
O379 O 0.27061 0.30619 0.74936 0.0
C380 C 0.22905 0.2766 0.76553 0.0
C381 C 0.25374 0.23843 0.77008 0.0
O382 O 0.24482 0.27688 0.71682 0.0
O383 O 0.27329 0.27121 0.72036 0.0
O384 O 0.22816 0.26586 0.74946 0.0
O385 O 0.24543 0.28699 0.76901 0.0
O386 O 0.25591 0.24449 0.75261 0.0
O387 O 0.25648 0.25071 0.78586 0.0
C388 C 0.26781 0.28461 0.82719 0.0
O389 O 0.25299 0.28436 0.81475 0.0
O390 O 0.28273 0.28348 0.81814 0.0
C391 C 0.29744 0.28055 0.76946 0.0
Tb392 Tb 0.02064 0.02214 0.4891 0.0
C393 C 0.98764 0.01535 0.51587 0.0
Tb394 Tb 0.03054 0.01939 0.53286 0.0
O395 O 0.0062 0.99148 0.48614 0.0
O396 O 0.0291 0.00121 0.50725 0.0
O397 O 0.9934 0.02395 0.50047 0.0
C398 C 0.04156 0.00972 0.56793 0.0
O399 O -0.0003 0.00936 0.52903 0.0
C400 C 0.02241 0.05303 0.52247 0.0
C401 C 0.06434 0.02657 0.50607 0.0
O402 O 0.03024 0.99819 0.55485 0.0
O403 O 0.04673 0.02659 0.56121 0.0
O404 O 0.01926 0.04658 0.53914 0.0
O405 O 0.0311 0.04156 0.51356 0.0
O406 O 0.05921 0.02235 0.52339 0.0
O407 O 0.05184 0.02797 0.49097 0.0
C408 C 0.01554 0.03403 0.45381 0.0
O409 O 0.02295 0.01867 0.45813 0.0
O410 O 0.01099 0.04263 0.46936 0.0
C411 C 0.01656 0.98682 0.50094 0.0
Tb412 Tb 0.28932 0.78399 0.78094 0.0
C413 C 0.2609 0.79106 0.81117 0.0
Tb414 Tb 0.24708 0.78223 0.76591 0.0
O415 O 0.29185 0.81505 0.79004 0.0
O416 O 0.27268 0.80242 0.76642 0.0
O417 O 0.2777 0.7857 0.80863 0.0
C418 C 0.21198 0.78992 0.75672 0.0
O419 O 0.24774 0.79211 0.79653 0.0
C420 C 0.25801 0.74826 0.76933 0.0
C421 C 0.27551 0.77444 0.7359 0.0
O422 O 0.21594 0.77429 0.76439 0.0
O423 O 0.22778 0.80117 0.75407 0.0
O424 O 0.24414 0.75114 0.75687 0.0
O425 O 0.26371 0.76366 0.78027 0.0
O426 O 0.25891 0.78037 0.73825 0.0
O427 O 0.28836 0.77304 0.75069 0.0
C428 C 0.32496 0.77771 0.78986 0.0
O429 O 0.30961 0.7669 0.79434 0.0
O430 O 0.32024 0.79209 0.78046 0.0
C431 C 0.27818 0.81784 0.77733 0.0
Tb432 Tb 0.49691 0.01778 0.01472 0.0
C433 C 0.52646 0.98907 0.0183 0.0
Tb434 Tb 0.5398 0.03497 0.0178 0.0
O435 O 0.49804 0.00245 0.98669 0.0
O436 O 0.51685 0.0285 0.9954 0.0
O437 O 0.50899 0.99194 0.02156 0.0
C438 C 0.57691 0.04545 0.01345 0.0
O439 O 0.53999 0.00343 0.01444 0.0
C440 C 0.52343 0.03803 0.04977 0.0
C441 C 0.51036 0.06375 0.01475 0.0
O442 O 0.57021 0.03857 0.02877 0.0
O443 O 0.56272 0.04633 0.00057 0.0
O444 O 0.53808 0.0503 0.04585 0.0
O445 O 0.5199 0.02405 0.03689 0.0
O446 O 0.52786 0.06103 0.0114 0.0
O447 O 0.49683 0.04928 0.01838 0.0
C448 C 0.46014 0.00709 0.02028 0.0
O449 O 0.46619 0.01565 0.00547 0.0
O450 O 0.47477 0.00465 0.03192 0.0
C451 C 0.51292 0.01433 0.98265 0.0
Tb452 Tb 0.22607 0.25238 0.25757 0.0
C453 C 0.25908 0.26664 0.2921 0.0
Tb454 Tb 0.26809 0.27101 0.24924 0.0
O455 O 0.23038 0.22415 0.24381 0.0
O456 O 0.25344 0.24421 0.25722 0.0
O457 O 0.24034 0.26314 0.2863 0.0
C458 C 0.30349 0.27229 0.23982 0.0
O459 O 0.2725 0.26785 0.27999 0.0
C460 C 0.24548 0.29751 0.25316 0.0
C461 C 0.23395 0.26171 0.2155 0.0
O462 O 0.29841 0.28411 0.25283 0.0
O463 O 0.28864 0.25993 0.23208 0.0
O464 O 0.26298 0.30179 0.24869 0.0
O465 O 0.24248 0.27947 0.25479 0.0
O466 O 0.25269 0.2632 0.22055 0.0
O467 O 0.22086 0.25964 0.22793 0.0
C468 C 0.19182 0.24524 0.27045 0.0
O469 O 0.19706 0.25868 0.25899 0.0
O470 O 0.20581 0.23567 0.27447 0.0
C471 C 0.24898 0.22822 0.24718 0.0
Tb472 Tb 0.50962 0.52993 0.0017 0.0
C473 C 0.4783 0.51956 0.02974 0.0
Tb474 Tb 0.52301 0.52505 0.04424 0.0
O475 O 0.49789 0.49861 0.99709 0.0
O476 O 0.5215 0.50898 0.01735 0.0
O477 O 0.48197 0.52653 0.01295 0.0
C478 C 0.53 0.51191 0.07885 0.0
O479 O 0.49188 0.51657 0.04317 0.0
C480 C 0.52373 0.56096 0.03507 0.0
C481 C 0.55422 0.53575 0.01644 0.0
O482 O 0.5295 0.50185 0.06247 0.0
O483 O 0.52665 0.52935 0.07572 0.0
O484 O 0.53542 0.55608 0.0487 0.0
O485 O 0.51151 0.54628 0.02855 0.0
O486 O 0.55037 0.52729 0.03251 0.0
O487 O 0.54066 0.53996 0.00361 0.0
C488 C 0.50192 0.54307 0.96722 0.0
O489 O 0.50985 0.52778 0.97031 0.0
O490 O 0.49839 0.55097 0.98354 0.0
C491 C 0.50971 0.49406 0.0108 0.0
Tb492 Tb 0.79216 0.28204 0.28087 0.0
C493 C 0.76332 0.29039 0.31041 0.0
Tb494 Tb 0.75004 0.28094 0.26533 0.0
O495 O 0.79562 0.31329 0.28966 0.0
O496 O 0.77597 0.30082 0.26631 0.0
O497 O 0.78002 0.28466 0.30825 0.0
C498 C 0.71488 0.2881 0.25526 0.0
O499 O 0.75047 0.29167 0.29558 0.0
C500 C 0.76058 0.24681 0.26892 0.0
C501 C 0.77897 0.27354 0.23558 0.0
O502 O 0.73059 0.29804 0.25058 0.0
O503 O 0.71894 0.27407 0.26555 0.0
O504 O 0.74699 0.24982 0.25623 0.0
O505 O 0.76623 0.26217 0.27989 0.0
O506 O 0.76229 0.27925 0.23797 0.0
O507 O 0.79186 0.27204 0.25035 0.0
C508 C 0.82662 0.27358 0.29187 0.0
O509 O 0.82346 0.2889 0.28308 0.0
O510 O 0.81039 0.26306 0.2944 0.0
C511 C 0.78188 0.31626 0.27711 0.0
Tb512 Tb 0.99168 0.52659 0.51604 0.0
C513 C 0.02131 0.49803 0.5191 0.0
Tb514 Tb 0.03444 0.54389 0.51845 0.0
O515 O 0.99251 0.5107 0.48826 0.0
O516 O 0.01134 0.53689 0.49624 0.0
O517 O 0.00393 0.50083 0.52285 0.0
C518 C 0.07119 0.55472 0.51284 0.0
O519 O 0.0346 0.5124 0.51482 0.0
C520 C 0.01875 0.54723 0.55082 0.0
C521 C 0.00478 0.57249 0.51544 0.0
O522 O 0.06517 0.54476 0.52685 0.0
O523 O 0.05656 0.55847 0.50203 0.0
O524 O 0.03353 0.55919 0.54671 0.0
O525 O 0.0149 0.53319 0.538 0.0
O526 O 0.02223 0.56976 0.51198 0.0
O527 O 0.99138 0.55804 0.51933 0.0
C528 C 0.95474 0.51609 0.52108 0.0
O529 O 0.96113 0.52358 0.50589 0.0
O530 O 0.96915 0.51461 0.53347 0.0
C531 C 0.00727 0.52244 0.48379 0.0
Tb532 Tb 0.76633 0.78275 0.28976 0.0
C533 C 0.77331 0.81823 0.26385 0.0
Tb534 Tb 0.75849 0.77493 0.24432 0.0
O535 O 0.79703 0.77922 0.29233 0.0
O536 O 0.78052 0.77618 0.26635 0.0
O537 O 0.7694 0.81269 0.28117 0.0
C538 C 0.76134 0.77356 0.20669 0.0
O539 O 0.77193 0.8057 0.24835 0.0
C540 C 0.72853 0.77581 0.26333 0.0
C541 C 0.75519 0.7391 0.27004 0.0
O542 O 0.74978 0.78294 0.21541 0.0
O543 O 0.77093 0.76459 0.21906 0.0
O544 O 0.72794 0.76584 0.24682 0.0
O545 O 0.74491 0.78602 0.26739 0.0
O546 O 0.75786 0.7451 0.25259 0.0
O547 O 0.75605 0.75125 0.28573 0.0
C548 C 0.7596 0.78759 0.32626 0.0
O549 O 0.74801 0.77684 0.31282 0.0
O550 O 0.77487 0.79576 0.31911 0.0
C551 C 0.7972 0.77597 0.27379 0.0
Tb552 Tb 0.76362 0.29917 0.77299 0.0
C553 C 0.79705 0.27331 0.77177 0.0
Tb554 Tb 0.75344 0.2549 0.76487 0.0
O555 O 0.7572 0.29763 0.80308 0.0
O556 O 0.76628 0.27437 0.78868 0.0
O557 O 0.79191 0.2908 0.77006 0.0
C558 C 0.73972 0.21726 0.76823 0.0
O559 O 0.78424 0.2573 0.77279 0.0
C560 C 0.75744 0.27485 0.73411 0.0
C561 C 0.71992 0.28061 0.76631 0.0
O562 O 0.75012 0.2238 0.75494 0.0
O563 O 0.73716 0.23189 0.77962 0.0
O564 O 0.76 0.25676 0.73474 0.0
O565 O 0.75076 0.2797 0.74935 0.0
O566 O 0.72514 0.26311 0.76777 0.0
O567 O 0.73271 0.29672 0.76551 0.0
C568 C 0.77777 0.33655 0.76894 0.0
O569 O 0.76739 0.33046 0.78241 0.0
O570 O 0.78004 0.32164 0.7578 0.0
C571 C 0.75965 0.27951 0.80389 0.0
Tb572 Tb 0.72757 0.75904 0.75094 0.0
C573 C 0.75474 0.75836 0.78904 0.0
Tb574 Tb 0.77042 0.77306 0.75055 0.0
O575 O 0.73201 0.72849 0.7512 0.0
O576 O 0.75035 0.74884 0.73809 0.0
O577 O 0.73704 0.7595 0.78166 0.0
C578 C 0.80813 0.77436 0.75112 0.0
O579 O 0.76969 0.76178 0.77899 0.0
C580 C 0.75026 0.80055 0.75841 0.0
C581 C 0.74361 0.77459 0.71278 0.0
O582 O 0.79927 0.7892 0.74918 0.0
O583 O 0.79578 0.75884 0.75278 0.0
O584 O 0.76616 0.80363 0.75047 0.0
O585 O 0.74765 0.7833 0.76346 0.0
O586 O 0.76111 0.77259 0.71999 0.0
O587 O 0.72852 0.77122 0.72273 0.0
C588 C 0.68988 0.75751 0.75186 0.0
O589 O 0.70202 0.77296 0.74946 0.0
O590 O 0.69895 0.74277 0.75331 0.0
C591 C 0.74784 0.73163 0.74318 0.0
Tb592 Tb 0.52217 0.55609 0.51888 0.0
C593 C 0.52567 0.52585 0.48479 0.0
Tb594 Tb 0.51118 0.51211 0.52426 0.0
O595 O 0.55211 0.5528 0.51741 0.0
O596 O 0.53469 0.5345 0.53355 0.0
O597 O 0.52273 0.54388 0.48955 0.0
C598 C 0.51053 0.47425 0.52994 0.0
O599 O 0.52356 0.51161 0.49672 0.0
C600 C 0.48244 0.53075 0.51585 0.0
C601 C 0.50793 0.54243 0.55858 0.0
O602 O 0.49742 0.48125 0.51955 0.0
O603 O 0.52396 0.48852 0.53686 0.0
O604 O 0.48128 0.51548 0.52581 0.0
O605 O 0.49869 0.53367 0.50963 0.0
O606 O 0.50987 0.52414 0.55347 0.0
O607 O 0.51096 0.55693 0.54704 0.0
C608 C 0.52239 0.59383 0.51283 0.0
O609 O 0.53679 0.58665 0.52071 0.0
O610 O 0.50792 0.57982 0.50868 0.0
C611 C 0.55096 0.53754 0.52738 0.0
Tb612 Tb 0.02767 0.5244 0.01237 0.0
C613 C 0.01774 0.51393 0.05383 0.0
Tb614 Tb 0.98724 0.5265 0.02235 0.0
O615 O 0.03892 0.55045 0.03178 0.0
O616 O 0.0113 0.54684 0.01741 0.0
O617 O 0.02916 0.51163 0.04014 0.0
C618 C 0.95755 0.53811 0.03761 0.0
O619 O 0.00127 0.52057 0.05034 0.0
C620 C 0.99184 0.49342 0.00492 0.0
C621 C 0.99709 0.53637 0.98072 0.0
O622 O 0.97516 0.54695 0.04068 0.0
O623 O 0.95662 0.52255 0.02603 0.0
O624 O 0.97573 0.50009 0.00338 0.0
O625 O 0.00356 0.50415 0.01729 0.0
O626 O 0.98585 0.5391 0.99448 0.0
O627 O 0.01341 0.52945 0.9842 0.0
C628 C 0.05901 0.51508 0.99855 0.0
O629 O 0.05815 0.53107 0.00879 0.0
O630 O 0.04213 0.50437 0.99589 0.0
C631 C 0.023 0.55739 0.02994 0.0
C632 C 0.02595 0.2209 0.90056 0.0
C633 C 0.02608 0.23975 0.90917 0.0
C634 C 0.02655 0.20505 0.9119 0.0
C635 C 0.01845 0.18912 0.96074 0.0
H636 H 0.04649 0.14828 0.94507 0.0
C637 C 0.0107 0.11447 0.99415 0.0
C638 C 0.02671 0.10494 0.99597 0.0
C639 C 0.01148 0.13181 0.98484 0.0
C640 C 0.0388 0.15965 0.94986 0.0
H641 H 0.02706 0.25686 0.9364 0.0
H642 H 0.02861 0.2293 0.95627 0.0
H643 H 0.04661 0.1768 0.92656 0.0
H644 H 0.05627 0.10629 0.9902 0.0
H645 H 0.05792 0.13691 0.97448 0.0
H646 H 0.01112 0.17221 0.98439 0.0
C647 C 0.02762 0.22662 0.94073 0.0
C648 C 0.03861 0.17591 0.93902 0.0
C649 C 0.02684 0.24246 0.92936 0.0
C650 C 0.0437 0.11333 0.98888 0.0
C651 C 0.04457 0.13079 0.97974 0.0
C652 C 0.01877 0.17292 0.97169 0.0
C653 C 0.02749 0.2077 0.93215 0.0
C654 C 0.02827 0.19076 0.94418 0.0
C655 C 0.02837 0.14009 0.97731 0.0
C656 C 0.02881 0.15788 0.96629 0.0
H657 H 0.02526 0.21835 0.88502 0.0
H658 H 0.02603 0.19066 0.90473 0.0
H659 H 0.01018 0.20015 0.96508 0.0
H660 H 0.99737 0.10822 0.99939 0.0
H661 H 0.99864 0.13836 0.98301 0.0
C662 C 0.06282 0.79069 0.19709 0.0
C663 C 0.05048 0.77261 0.19354 0.0
C664 C 0.08108 0.79189 0.20701 0.0
C665 C 0.11099 0.7653 0.2391 0.0
H666 H 0.15324 0.79606 0.2176 0.0
C667 C 0.19033 0.75787 0.25937 0.0
C668 C 0.20444 0.77467 0.25999 0.0
C669 C 0.17112 0.75865 0.25336 0.0
C670 C 0.14162 0.78767 0.22403 0.0
H671 H 0.04744 0.74167 0.19802 0.0
H672 H 0.07933 0.74372 0.21526 0.0
H673 H 0.12055 0.79558 0.20332 0.0
H674 H 0.20919 0.80568 0.25557 0.0
H675 H 0.1757 0.80711 0.24547 0.0
H676 H 0.13212 0.75723 0.25971 0.0
C677 C 0.07485 0.75703 0.21053 0.0
C678 C 0.12284 0.78738 0.21581 0.0
C679 C 0.05661 0.75583 0.20056 0.0
C680 C 0.19875 0.79242 0.25517 0.0
C681 C 0.17953 0.79321 0.24923 0.0
C682 C 0.1298 0.76563 0.24738 0.0
C683 C 0.08741 0.77503 0.21366 0.0
C684 C 0.10729 0.77606 0.22313 0.0
C685 C 0.16552 0.77626 0.24787 0.0
C686 C 0.14538 0.7767 0.23985 0.0
H687 H 0.05849 0.8039 0.19191 0.0
H688 H 0.09029 0.80603 0.20941 0.0
H689 H 0.09933 0.75664 0.24526 0.0
H690 H 0.19417 0.74392 0.2629 0.0
H691 H 0.16079 0.74525 0.25232 0.0
C692 C 0.50503 0.84834 0.39992 0.0
C693 C 0.52013 0.83839 0.4056 0.0
C694 C 0.50228 0.86507 0.41076 0.0
C695 C 0.52661 0.90478 0.44619 0.0
H696 H 0.47481 0.90934 0.45672 0.0
C697 C 0.50985 0.96759 0.49709 0.0
C698 C 0.49346 0.97566 0.49147 0.0
C699 C 0.51351 0.95074 0.48704 0.0
C700 C 0.48934 0.90844 0.45372 0.0
H701 H 0.54439 0.83831 0.42691 0.0
H702 H 0.53964 0.86769 0.44586 0.0
H703 H 0.48063 0.88036 0.43824 0.0
H704 H 0.46803 0.97257 0.47106 0.0
H705 H 0.47447 0.94334 0.45333 0.0
H706 H 0.53529 0.93302 0.46145 0.0
C707 C 0.52996 0.86254 0.43298 0.0
C708 C 0.49267 0.8918 0.44316 0.0
C709 C 0.53263 0.84568 0.42219 0.0
C710 C 0.48073 0.96657 0.47573 0.0
C711 C 0.48439 0.94977 0.46565 0.0
C712 C 0.52326 0.92153 0.45668 0.0
C713 C 0.51464 0.8723 0.42747 0.0
C714 C 0.51131 0.88982 0.43916 0.0
C715 C 0.50081 0.9416 0.47119 0.0
C716 C 0.50455 0.92361 0.46048 0.0
H717 H 0.49518 0.8431 0.38717 0.0
H718 H 0.49051 0.87241 0.40599 0.0
H719 H 0.54111 0.90376 0.44318 0.0
H720 H 0.51976 0.97421 0.50936 0.0
H721 H 0.52614 0.94472 0.49188 0.0
C722 C 0.43107 0.25865 0.67461 0.0
C723 C 0.44826 0.27118 0.68144 0.0
C724 C 0.41454 0.25909 0.68392 0.0
C725 C 0.39839 0.27531 0.73036 0.0
H726 H 0.34891 0.27045 0.70012 0.0
C727 C 0.33129 0.29217 0.76379 0.0
C728 C 0.31407 0.27911 0.75863 0.0
C729 C 0.34736 0.29072 0.7541 0.0
C730 C 0.3626 0.27162 0.70876 0.0
H731 H 0.4616 0.29408 0.70328 0.0
H732 H 0.43271 0.29513 0.71933 0.0
H733 H 0.37761 0.26896 0.68381 0.0
H734 H 0.30015 0.2542 0.73936 0.0
H735 H 0.32826 0.25179 0.72213 0.0
H736 H 0.3834 0.27822 0.75529 0.0
C737 C 0.43204 0.28468 0.707 0.0
C738 C 0.37906 0.27075 0.69943 0.0
C739 C 0.44859 0.28418 0.69774 0.0
C740 C 0.31317 0.26463 0.74345 0.0
C741 C 0.32926 0.26325 0.73362 0.0
C742 C 0.38197 0.27628 0.73967 0.0
C743 C 0.4148 0.27213 0.70022 0.0
C744 C 0.39719 0.27268 0.71012 0.0
C745 C 0.34658 0.2762 0.73896 0.0
C746 C 0.3639 0.27456 0.72898 0.0
H747 H 0.43039 0.24842 0.66211 0.0
H748 H 0.40162 0.24902 0.67845 0.0
H749 H 0.41203 0.27645 0.73908 0.0
H750 H 0.33236 0.30352 0.77541 0.0
H751 H 0.3604 0.30109 0.75837 0.0
C752 C 0.98045 0.83748 0.58625 0.0
C753 C 0.99757 0.83385 0.59609 0.0
C754 C 0.98046 0.85397 0.57568 0.0
C755 C 0.00723 0.90303 0.5731 0.0
H756 H 0.98583 0.89865 0.51945 0.0
C757 C 0.02722 0.96382 0.52376 0.0
C758 C 0.01286 0.96864 0.51062 0.0
C759 C 0.0236 0.94733 0.53408 0.0
C760 C 0.99158 0.90016 0.53451 0.0
H761 H 0.02808 0.84443 0.60258 0.0
H762 H 0.02803 0.87323 0.58433 0.0
H763 H 0.98228 0.86975 0.53806 0.0
H764 H 0.9836 0.96003 0.49751 0.0
H765 H 0.9771 0.93104 0.51576 0.0
H766 H 0.01657 0.93331 0.56973 0.0
C767 C 0.01463 0.86341 0.58481 0.0
C768 C 0.98956 0.88364 0.54512 0.0
C769 C 0.01467 0.84687 0.59514 0.0
C770 C 0.99491 0.95647 0.50755 0.0
C771 C 0.99122 0.93994 0.51797 0.0
C772 C 0.0091 0.91953 0.56259 0.0
C773 C 0.99754 0.86715 0.57506 0.0
C774 C 0.99778 0.88488 0.56436 0.0
C775 C 0.00549 0.93535 0.53152 0.0
C776 C 0.00173 0.91818 0.54305 0.0
H777 H 0.96708 0.82763 0.58675 0.0
H778 H 0.9671 0.8566 0.56828 0.0
H779 H 0.01338 0.9044 0.58803 0.0
H780 H 0.04125 0.97289 0.52617 0.0
H781 H 0.03504 0.94395 0.54406 0.0
C782 C 0.47322 0.75351 0.8775 0.0
C783 C 0.48805 0.76972 0.88003 0.0
C784 C 0.45679 0.75379 0.86492 0.0
C785 C 0.42925 0.78838 0.8418 0.0
H786 H 0.40189 0.7414 0.81225 0.0
C787 C 0.36011 0.78938 0.79259 0.0
C788 C 0.34468 0.7751 0.79591 0.0
C789 C 0.37874 0.78797 0.80001 0.0
C790 C 0.40942 0.75461 0.82044 0.0
H791 H 0.49772 0.79866 0.87101 0.0
H792 H 0.46923 0.79901 0.84869 0.0
H793 H 0.43278 0.7406 0.83061 0.0
H794 H 0.33649 0.74769 0.80861 0.0
H795 H 0.36914 0.7452 0.82164 0.0
H796 H 0.40585 0.80233 0.83175 0.0
C797 C 0.47005 0.78626 0.85674 0.0
C798 C 0.42704 0.75416 0.83099 0.0
C799 C 0.48639 0.78605 0.86946 0.0
C800 C 0.3482 0.75892 0.80596 0.0
C801 C 0.36685 0.75744 0.81328 0.0
C802 C 0.41175 0.78886 0.83114 0.0
C803 C 0.45496 0.77022 0.85449 0.0
C804 C 0.43701 0.77097 0.84204 0.0
C805 C 0.38223 0.7722 0.81075 0.0
C806 C 0.40154 0.77193 0.82058 0.0
H807 H 0.47414 0.74074 0.8855 0.0
H808 H 0.44533 0.74132 0.86377 0.0
H809 H 0.43636 0.8015 0.8504 0.0
H810 H 0.35774 0.80194 0.78476 0.0
H811 H 0.39038 0.79942 0.79767 0.0
C812 C 0.49615 0.23187 0.06709 0.0
C813 C 0.49334 0.23135 0.08671 0.0
C814 C 0.49486 0.21449 0.05546 0.0
C815 C 0.47871 0.16053 0.05434 0.0
H816 H 0.51763 0.15853 0.01927 0.0
C817 C 0.48729 0.08738 0.01627 0.0
C818 C 0.50626 0.08395 0.01642 0.0
C819 C 0.48353 0.10625 0.0205 0.0
C820 C 0.50669 0.15881 0.02903 0.0
H821 H 0.4867 0.21236 0.10952 0.0
H822 H 0.4851 0.1821 0.08953 0.0
H823 H 0.51489 0.18962 0.03589 0.0
H824 H 0.53614 0.09769 0.02031 0.0
H825 H 0.52968 0.13036 0.02832 0.0
H826 H 0.47142 0.12955 0.04862 0.0
C827 C 0.48778 0.19583 0.08287 0.0
C828 C 0.50492 0.17672 0.03837 0.0
C829 C 0.48885 0.21319 0.09442 0.0
C830 C 0.52135 0.09987 0.01998 0.0
C831 C 0.51762 0.11867 0.02448 0.0
C832 C 0.48063 0.1426 0.04521 0.0
C833 C 0.49094 0.19624 0.06329 0.0
C834 C 0.49122 0.17772 0.05152 0.0
C835 C 0.49868 0.12203 0.02527 0.0
C836 C 0.49495 0.14144 0.03278 0.0
H837 H 0.49949 0.24572 0.06076 0.0
H838 H 0.49708 0.21536 0.04038 0.0
H839 H 0.46772 0.16081 0.06405 0.0
H840 H 0.47533 0.07542 0.01335 0.0
H841 H 0.46875 0.10836 0.02054 0.0
C842 C 0.08968 0.26878 0.39363 0.0
C843 C 0.07055 0.25929 0.39191 0.0
C844 C 0.10127 0.26589 0.37901 0.0
C845 C 0.10658 0.2323 0.33788 0.0
H846 H 0.13808 0.27808 0.32163 0.0
C847 C 0.16172 0.25705 0.27739 0.0
C848 C 0.17422 0.24349 0.28012 0.0
C849 C 0.14672 0.25743 0.28887 0.0
C850 C 0.12918 0.26518 0.32582 0.0
H851 H 0.04863 0.239 0.37384 0.0
H852 H 0.06894 0.23393 0.3483 0.0
H853 H 0.11701 0.28197 0.34665 0.0
H854 H 0.18034 0.21895 0.29603 0.0
H855 H 0.15414 0.2196 0.31615 0.0
H856 H 0.1189 0.2155 0.31706 0.0
C857 C 0.07497 0.24355 0.36095 0.0
C858 C 0.11732 0.26739 0.34033 0.0
C859 C 0.06334 0.24652 0.37553 0.0
C860 C 0.17085 0.22955 0.29367 0.0
C861 C 0.15582 0.22988 0.30512 0.0
C862 C 0.11854 0.23007 0.32341 0.0
C863 C 0.09397 0.25339 0.36245 0.0
C864 C 0.10606 0.25096 0.34664 0.0
C865 C 0.14397 0.24421 0.30322 0.0
C866 C 0.13006 0.24649 0.31735 0.0
H867 H 0.09561 0.27867 0.40613 0.0
H868 H 0.11596 0.27345 0.38065 0.0
H869 H 0.09808 0.21938 0.34253 0.0
H870 H 0.16402 0.26792 0.26697 0.0
H871 H 0.13762 0.26844 0.28692 0.0
C872 C 0.91427 0.03866 0.18986 0.0
C873 C 0.91183 0.05632 0.19949 0.0
C874 C 0.9268 0.03866 0.17563 0.0
C875 C 0.94953 0.06779 0.14012 0.0
H876 H 0.98617 0.03189 0.14333 0.0
C877 C 0.00057 0.06156 0.08139 0.0
C878 C 0.00255 0.04239 0.07516 0.0
C879 C 0.99214 0.06515 0.09829 0.0
C880 C 0.97594 0.04189 0.14211 0.0
H881 H 0.92014 0.08789 0.20143 0.0
H882 H 0.94179 0.0879 0.17605 0.0
H883 H 0.9653 0.03437 0.16884 0.0
H884 H 0.99789 0.01209 0.08224 0.0
H885 H 0.98289 0.01823 0.11125 0.0
H886 H 0.95944 0.0747 0.11298 0.0
C887 C 0.9341 0.07408 0.17973 0.0
C888 C 0.96405 0.04334 0.15676 0.0
C889 C 0.92175 0.07406 0.19422 0.0
C890 C 0.9967 0.02705 0.08663 0.0
C891 C 0.98814 0.03061 0.10339 0.0
C892 C 0.96126 0.06615 0.1253 0.0
C893 C 0.93695 0.05634 0.17055 0.0
C894 C 0.95053 0.05606 0.15575 0.0
C895 C 0.98538 0.04964 0.10924 0.0
C896 C 0.97439 0.05293 0.12595 0.0
H897 H 0.90685 0.02475 0.19363 0.0
H898 H 0.92855 0.02481 0.16858 0.0
H899 H 0.93914 0.07763 0.13897 0.0
H900 H 0.00502 0.07374 0.07295 0.0
H901 H 0.9906 0.08004 0.10255 0.0
C902 C 0.29698 0.68527 0.4448 0.0
C903 C 0.2966 0.69561 0.46268 0.0
C904 C 0.2929 0.69374 0.4275 0.0
C905 C 0.2677 0.73153 0.40692 0.0
H906 H 0.29873 0.7262 0.36476 0.0
C907 C 0.25886 0.77199 0.33674 0.0
C908 C 0.26212 0.76236 0.31938 0.0
C909 C 0.26227 0.76379 0.35438 0.0
C910 C 0.28969 0.72759 0.37624 0.0
H911 H 0.29174 0.723 0.47641 0.0
H912 H 0.28457 0.73777 0.4462 0.0
H913 H 0.30664 0.71224 0.39505 0.0
H914 H 0.27097 0.73634 0.30681 0.0
H915 H 0.27609 0.72169 0.33722 0.0
H916 H 0.25057 0.74666 0.38803 0.0
C917 C 0.28795 0.72308 0.44557 0.0
C918 C 0.29431 0.71963 0.39367 0.0
C919 C 0.2922 0.71467 0.46287 0.0
C920 C 0.2682 0.74408 0.31992 0.0
C921 C 0.27142 0.73581 0.33745 0.0
C922 C 0.26298 0.73939 0.38941 0.0
C923 C 0.28817 0.71268 0.42767 0.0
C924 C 0.28337 0.72146 0.40922 0.0
C925 C 0.26892 0.74572 0.35499 0.0
C926 C 0.27387 0.73747 0.37378 0.0
H927 H 0.30025 0.67053 0.44415 0.0
H928 H 0.29304 0.68526 0.41397 0.0
H929 H 0.25884 0.73301 0.41855 0.0
H930 H 0.25429 0.78616 0.33678 0.0
H931 H 0.26032 0.77195 0.36756 0.0
C932 C 0.56781 0.98976 0.71932 0.0
C933 C 0.58531 0.98268 0.72096 0.0
C934 C 0.55838 0.99158 0.70112 0.0
C935 C 0.55679 0.97583 0.64889 0.0
H936 H 0.53576 0.02339 0.6413 0.0
C937 C 0.53898 0.00175 0.57326 0.0
C938 C 0.52226 0.01001 0.56977 0.0
C939 C 0.54509 0.99719 0.59183 0.0
C940 C 0.54132 0.0099 0.64322 0.0
H941 H 0.60644 0.97157 0.70482 0.0
H942 H 0.59018 0.97492 0.67319 0.0
H943 H 0.54901 0.01733 0.67348 0.0
H944 H 0.49878 0.01985 0.58322 0.0
H945 H 0.50945 0.01185 0.61564 0.0
H946 H 0.54943 0.9686 0.61854 0.0
C947 C 0.58353 0.97884 0.68589 0.0
C948 C 0.5489 0.0064 0.6617 0.0
C949 C 0.59293 0.97701 0.70405 0.0
C950 C 0.51172 0.01349 0.58534 0.0
C951 C 0.5179 0.00901 0.60397 0.0
C952 C 0.54927 0.97936 0.63042 0.0
C953 C 0.56624 0.98636 0.68416 0.0
C954 C 0.55695 0.98943 0.66474 0.0
C955 C 0.53468 0.00085 0.60744 0.0
C956 C 0.54164 0.99655 0.6273 0.0
H957 H 0.56156 0.99422 0.7321 0.0
H958 H 0.54496 0.99718 0.70034 0.0
H959 H 0.56254 0.96243 0.65074 0.0
H960 H 0.54749 0.99887 0.56165 0.0
H961 H 0.55822 0.99116 0.59402 0.0
C962 C 0.24578 0.36119 0.9787 0.0
C963 C 0.26168 0.37323 0.98906 0.0
C964 C 0.24822 0.34842 0.96329 0.0
C965 C 0.28231 0.34082 0.9282 0.0
H966 H 0.2482 0.2911 0.91641 0.0
C967 C 0.28583 0.29242 0.85974 0.0
C968 C 0.26822 0.28848 0.84812 0.0
C969 C 0.28656 0.29907 0.87911 0.0
C970 C 0.25788 0.30489 0.91964 0.0
H971 H 0.29264 0.38117 0.99183 0.0
H972 H 0.29701 0.35849 0.96509 0.0
H973 H 0.24708 0.31037 0.94665 0.0
H974 H 0.23749 0.28701 0.84764 0.0
H975 H 0.23874 0.29852 0.88161 0.0
H976 H 0.29293 0.33542 0.90107 0.0
C977 C 0.2826 0.3592 0.9686 0.0
C978 C 0.25718 0.31598 0.93684 0.0
C979 C 0.28012 0.37215 0.98391 0.0
C980 C 0.25123 0.29002 0.85637 0.0
C981 C 0.25195 0.29649 0.87579 0.0
C982 C 0.28316 0.32963 0.91112 0.0
C983 C 0.26666 0.34725 0.95806 0.0
C984 C 0.26903 0.33433 0.94106 0.0
C985 C 0.26968 0.30165 0.88714 0.0
C986 C 0.27063 0.31181 0.90649 0.0
H987 H 0.23139 0.36178 0.98235 0.0
H988 H 0.23559 0.33977 0.95523 0.0
H989 H 0.29146 0.35498 0.93083 0.0
H990 H 0.29912 0.29125 0.85367 0.0
H991 H 0.30038 0.30282 0.88765 0.0
C992 C 0.93995 0.06601 0.29628 0.0
C993 C 0.921 0.05621 0.29595 0.0
C994 C 0.95344 0.06503 0.31201 0.0
C995 C 0.96345 0.03372 0.3507 0.0
H996 H 0.99444 0.08018 0.37793 0.0
C997 C 0.00184 0.05584 0.4312 0.0
C998 C 0.0108 0.03949 0.43412 0.0
C999 C 0.9949 0.05951 0.41261 0.0
C1000 C 0.98597 0.06709 0.37036 0.0
H1001 H 0.90121 0.03799 0.31183 0.0
H1002 H 0.92474 0.0362 0.33913 0.0
H1003 H 0.97357 0.08322 0.34858 0.0
H1004 H 0.02077 0.01489 0.42003 0.0
H1005 H 0.00864 0.0213 0.38747 0.0
H1006 H 0.97519 0.0176 0.37265 0.0
C1007 C 0.9292 0.04453 0.32723 0.0
C1008 C 0.97414 0.06882 0.35355 0.0
C1009 C 0.91571 0.04567 0.31167 0.0
C1010 C 0.01377 0.02752 0.41813 0.0
C1011 C 0.00678 0.03115 0.39954 0.0
C1012 C 0.97534 0.03197 0.36734 0.0
C1013 C 0.94822 0.05403 0.32748 0.0
C1014 C 0.96242 0.05218 0.34389 0.0
C1015 C 0.99678 0.04684 0.39666 0.0
C1016 C 0.9864 0.04867 0.37759 0.0
H1017 H 0.94438 0.07426 0.28433 0.0
H1018 H 0.96804 0.07248 0.3119 0.0
H1019 H 0.9547 0.02064 0.34336 0.0
H1020 H 0.99947 0.06534 0.44334 0.0
H1021 H 0.98712 0.07162 0.41087 0.0
C1022 C 0.29629 0.68667 0.58419 0.0
C1023 C 0.30309 0.69743 0.56912 0.0
C1024 C 0.29439 0.6961 0.60201 0.0
C1025 C 0.2887 0.74379 0.62515 0.0
H1026 H 0.30236 0.72005 0.67228 0.0
C1027 C 0.26623 0.76773 0.69999 0.0
C1028 C 0.27967 0.76803 0.71622 0.0
C1029 C 0.26985 0.7604 0.68175 0.0
C1030 C 0.29861 0.727 0.65929 0.0
H1031 H 0.31338 0.72658 0.56099 0.0
H1032 H 0.31012 0.74314 0.59227 0.0
H1033 H 0.30799 0.70507 0.64134 0.0
H1034 H 0.30774 0.76131 0.72575 0.0
H1035 H 0.31403 0.7488 0.69415 0.0
H1036 H 0.27939 0.7658 0.64323 0.0
C1037 C 0.30614 0.72737 0.5902 0.0
C1038 C 0.30166 0.71828 0.64151 0.0
C1039 C 0.30814 0.71788 0.57235 0.0
C1040 C 0.29697 0.76125 0.71366 0.0
C1041 C 0.30056 0.75393 0.6955 0.0
C1042 C 0.28555 0.7525 0.64298 0.0
C1043 C 0.29918 0.71658 0.60524 0.0
C1044 C 0.29666 0.72648 0.62419 0.0
C1045 C 0.28697 0.75316 0.67934 0.0
C1046 C 0.29044 0.74418 0.66029 0.0
H1047 H 0.29218 0.6709 0.58217 0.0
H1048 H 0.28875 0.68734 0.61314 0.0
H1049 H 0.28452 0.7504 0.61209 0.0
H1050 H 0.25273 0.77278 0.7014 0.0
H1051 H 0.25899 0.75989 0.66965 0.0
C1052 C 0.57839 0.97539 0.83093 0.0
C1053 C 0.59527 0.9877 0.82756 0.0
C1054 C 0.57016 0.97797 0.84818 0.0
C1055 C 0.56646 0.01524 0.88638 0.0
H1056 H 0.55096 0.97143 0.91648 0.0
C1057 C 0.53724 0.02632 0.96032 0.0
C1058 C 0.52295 0.01167 0.9653 0.0
C1059 C 0.54672 0.02338 0.94394 0.0
C1060 C 0.5549 0.98382 0.90814 0.0
H1061 H 0.61677 0.01231 0.8396 0.0
H1062 H 0.6022 0.017 0.8695 0.0
H1063 H 0.56578 0.96607 0.88693 0.0
H1064 H 0.50694 0.98267 0.95679 0.0
H1065 H 0.52271 0.97782 0.92789 0.0
H1066 H 0.55508 0.03295 0.90707 0.0
C1067 C 0.5954 0.00532 0.85887 0.0
C1068 C 0.56349 0.98071 0.89123 0.0
C1069 C 0.60379 0.00255 0.8418 0.0
C1070 C 0.51803 0.99419 0.9534 0.0
C1071 C 0.52726 0.99133 0.9369 0.0
C1072 C 0.5576 0.01832 0.90312 0.0
C1073 C 0.57847 0.99311 0.86222 0.0
C1074 C 0.56937 0.99639 0.88019 0.0
C1075 C 0.54185 0.00582 0.93196 0.0
C1076 C 0.55166 0.00265 0.91426 0.0
H1077 H 0.5715 0.96384 0.82022 0.0
H1078 H 0.55705 0.96841 0.85035 0.0
H1079 H 0.57068 0.02756 0.87803 0.0
H1080 H 0.54098 0.04013 0.96896 0.0
H1081 H 0.55796 0.03485 0.94079 0.0
C1082 C 0.25067 0.35133 0.07601 0.0
C1083 C 0.24155 0.36785 0.07669 0.0
C1084 C 0.24663 0.33669 0.08848 0.0
C1085 C 0.21218 0.3157 0.12084 0.0
H1086 H 0.25714 0.29942 0.14669 0.0
C1087 C 0.21375 0.27714 0.19186 0.0
C1088 C 0.22805 0.26561 0.19555 0.0
C1089 C 0.21196 0.28577 0.17435 0.0
C1090 C 0.24435 0.30336 0.1393 0.0
H1091 H 0.22067 0.38181 0.0906 0.0
H1092 H 0.21379 0.35615 0.11283 0.0
H1093 H 0.26098 0.32291 0.12256 0.0
H1094 H 0.24995 0.25195 0.18321 0.0
H1095 H 0.24623 0.26623 0.1523 0.0
H1096 H 0.1956 0.29627 0.138 0.0
C1097 C 0.22393 0.35454 0.10244 0.0
C1098 C 0.24659 0.31697 0.12553 0.0
C1099 C 0.22799 0.36927 0.08987 0.0
C1100 C 0.239 0.26102 0.18075 0.0
C1101 C 0.23696 0.26933 0.16315 0.0
C1102 C 0.20991 0.30193 0.13465 0.0
C1103 C 0.23343 0.33823 0.10198 0.0
C1104 C 0.23058 0.32337 0.11622 0.0
C1105 C 0.22427 0.28276 0.16023 0.0
C1106 C 0.22602 0.2957 0.14411 0.0
H1107 H 0.26103 0.34969 0.06585 0.0
H1108 H 0.25396 0.32416 0.08761 0.0
H1109 H 0.19959 0.32029 0.11374 0.0
H1110 H 0.20519 0.28097 0.20311 0.0
H1111 H 0.20205 0.29605 0.17261 0.0
C1112 C 0.16571 0.91954 0.02744 0.0
C1113 C 0.18415 0.92699 0.03656 0.0
C1114 C 0.15089 0.9306 0.02811 0.0
C1115 C 0.13582 0.97268 0.05465 0.0
H1116 H 0.10245 0.97318 0.00746 0.0
C1117 C 0.07932 0.02516 0.04517 0.0
C1118 C 0.06186 0.01732 0.0342 0.0
C1119 C 0.09439 0.01425 0.04675 0.0
C1120 C 0.11145 0.97304 0.02086 0.0
H1121 H 0.20141 0.95175 0.05382 0.0
H1122 H 0.17558 0.97107 0.05491 0.0
H1123 H 0.12809 0.95379 0.00778 0.0
H1124 H 0.04645 0.99183 0.01652 0.0
H1125 H 0.07218 0.97277 0.0198 0.0
H1126 H 0.11906 0.992 0.0677 0.0
C1127 C 0.17251 0.95663 0.04736 0.0
C1128 C 0.12619 0.96188 0.02103 0.0
C1129 C 0.18735 0.94559 0.04664 0.0
C1130 C 0.05962 0.99826 0.02528 0.0
C1131 C 0.07453 0.98739 0.02692 0.0
C1132 C 0.12099 0.98385 0.05449 0.0
C1133 C 0.15413 0.94936 0.03795 0.0
C1134 C 0.13851 0.96143 0.03794 0.0
C1135 C 0.09227 0.99534 0.03733 0.0
C1136 C 0.10851 0.98404 0.03762 0.0
H1137 H 0.16275 0.90523 0.01962 0.0
H1138 H 0.13684 0.9244 0.02094 0.0
H1139 H 0.14495 0.97256 0.06797 0.0
H1140 H 0.08148 0.03985 0.05211 0.0
H1141 H 0.10789 0.02088 0.0548 0.0
C1142 C 0.71621 0.6088 0.986 0.0
C1143 C 0.72595 0.61711 0.00378 0.0
C1144 C 0.6986 0.59638 0.98539 0.0
C1145 C 0.66745 0.56504 0.01388 0.0
H1146 H 0.62557 0.58247 0.98361 0.0
C1147 C 0.58906 0.5429 0.02831 0.0
C1148 C 0.57447 0.5412 0.01296 0.0
C1149 C 0.60813 0.54925 0.02536 0.0
C1150 C 0.63708 0.57705 0.9918 0.0
H1151 H 0.72553 0.61831 0.03485 0.0
H1152 H 0.6949 0.59631 0.03377 0.0
H1153 H 0.65839 0.59816 0.98152 0.0
H1154 H 0.56842 0.54402 0.9823 0.0
H1155 H 0.60179 0.55449 0.97698 0.0
H1156 H 0.64625 0.54393 0.02421 0.0
C1157 C 0.70083 0.59947 0.02035 0.0
C1158 C 0.65588 0.58611 0.99063 0.0
C1159 C 0.71826 0.61212 0.02095 0.0
C1160 C 0.57936 0.54539 0.99446 0.0
C1161 C 0.59848 0.55147 0.99144 0.0
C1162 C 0.64866 0.55576 0.01485 0.0
C1163 C 0.69067 0.59183 0.00255 0.0
C1164 C 0.67117 0.58049 0.00199 0.0
C1165 C 0.61307 0.55379 0.00692 0.0
C1166 C 0.6332 0.56199 0.00419 0.0
H1167 H 0.72184 0.61243 0.97255 0.0
H1168 H 0.69102 0.5906 0.9715 0.0
H1169 H 0.67906 0.56035 0.02264 0.0
H1170 H 0.58573 0.53992 0.04278 0.0
H1171 H 0.61888 0.55121 0.03771 0.0
C1172 C 0.67989 0.44221 0.27808 0.0
C1173 C 0.68556 0.45807 0.29199 0.0
C1174 C 0.69083 0.4273 0.27659 0.0
C1175 C 0.73933 0.41568 0.29081 0.0
H1176 H 0.71367 0.36252 0.27576 0.0
C1177 C 0.77615 0.34692 0.29442 0.0
C1178 C 0.77246 0.33367 0.27795 0.0
C1179 C 0.76627 0.36272 0.29592 0.0
C1180 C 0.721 0.37733 0.27983 0.0
H1181 H 0.70696 0.4707 0.31548 0.0
H1182 H 0.72577 0.4442 0.31346 0.0
H1183 H 0.6947 0.38849 0.27988 0.0
H1184 H 0.75672 0.32726 0.24958 0.0
H1185 H 0.73872 0.35445 0.25251 0.0
H1186 H 0.76564 0.40414 0.29135 0.0
C1187 C 0.71314 0.44353 0.3033 0.0
C1188 C 0.71017 0.39226 0.28213 0.0
C1189 C 0.70231 0.45865 0.30457 0.0
C1190 C 0.75924 0.33685 0.26271 0.0
C1191 C 0.74911 0.35246 0.26433 0.0
C1192 C 0.75015 0.40065 0.28881 0.0
C1193 C 0.70758 0.42769 0.28921 0.0
C1194 C 0.71918 0.41168 0.28748 0.0
C1195 C 0.75242 0.36542 0.28103 0.0
C1196 C 0.74107 0.38139 0.28316 0.0
H1197 H 0.66714 0.44148 0.26804 0.0
H1198 H 0.68628 0.41563 0.26529 0.0
H1199 H 0.74681 0.43046 0.29463 0.0
H1200 H 0.78634 0.34481 0.30637 0.0
H1201 H 0.76903 0.37248 0.30896 0.0
C1202 C 0.78554 0.44171 0.51431 0.0
C1203 C 0.781 0.43122 0.53031 0.0
C1204 C 0.80383 0.45255 0.51395 0.0
C1205 C 0.84823 0.47467 0.54502 0.0
H1206 H 0.87161 0.47088 0.49724 0.0
C1207 C 0.92922 0.49999 0.53986 0.0
C1208 C 0.93443 0.50897 0.52322 0.0
C1209 C 0.91009 0.492 0.54129 0.0
C1210 C 0.86521 0.47234 0.51062 0.0
H1211 H 0.79194 0.42414 0.55863 0.0
H1212 H 0.82398 0.44288 0.55793 0.0
H1213 H 0.83903 0.45419 0.49871 0.0
H1214 H 0.92379 0.51724 0.49531 0.0
H1215 H 0.89035 0.50349 0.49783 0.0
H1216 H 0.8746 0.49266 0.55697 0.0
C1217 C 0.81334 0.44293 0.54575 0.0
C1218 C 0.84651 0.46276 0.51147 0.0
C1219 C 0.79501 0.4321 0.54611 0.0
C1220 C 0.92015 0.51031 0.50826 0.0
C1221 C 0.90104 0.50232 0.50967 0.0
C1222 C 0.86699 0.48425 0.54418 0.0
C1223 C 0.81802 0.45312 0.52957 0.0
C1224 C 0.83779 0.46376 0.52868 0.0
C1225 C 0.89582 0.49283 0.52608 0.0
C1226 C 0.87571 0.48316 0.52697 0.0
H1227 H 0.775 0.44139 0.50196 0.0
H1228 H 0.80685 0.46047 0.5014 0.0
H1229 H 0.84186 0.47594 0.55844 0.0
H1230 H 0.93999 0.49876 0.55161 0.0
H1231 H 0.90659 0.48464 0.55405 0.0
C1232 C 0.37234 0.12288 0.2482 0.0
C1233 C 0.36585 0.10358 0.24034 0.0
C1234 C 0.36012 0.13683 0.24736 0.0
C1235 C 0.3148 0.14761 0.22253 0.0
H1236 H 0.31506 0.18123 0.26905 0.0
C1237 C 0.25644 0.19614 0.2339 0.0
C1238 C 0.26257 0.2146 0.24387 0.0
C1239 C 0.26931 0.18291 0.2321 0.0
C1240 C 0.31496 0.17217 0.25582 0.0
H1241 H 0.34159 0.08386 0.22504 0.0
H1242 H 0.32024 0.10815 0.22367 0.0
H1243 H 0.33718 0.15789 0.26829 0.0
H1244 H 0.28696 0.23384 0.25953 0.0
H1245 H 0.3094 0.21117 0.25592 0.0
H1246 H 0.29244 0.1619 0.21013 0.0
C1247 C 0.33481 0.11258 0.23034 0.0
C1248 C 0.32768 0.15877 0.2554 0.0
C1249 C 0.34703 0.09863 0.23122 0.0
C1250 C 0.28183 0.21976 0.25163 0.0
C1251 C 0.29466 0.20665 0.24976 0.0
C1252 C 0.30207 0.16108 0.22294 0.0
C1253 C 0.34113 0.13179 0.23861 0.0
C1254 C 0.32778 0.14632 0.23876 0.0
C1255 C 0.28852 0.18792 0.24027 0.0
C1256 C 0.30201 0.17355 0.2396 0.0
H1257 H 0.38679 0.12717 0.25526 0.0
H1258 H 0.36555 0.15157 0.25362 0.0
H1259 H 0.31463 0.13837 0.20942 0.0
H1260 H 0.24165 0.19177 0.22784 0.0
H1261 H 0.26405 0.16855 0.22483 0.0
C1262 C 0.32181 0.11778 0.50616 0.0
C1263 C 0.3205 0.13533 0.51666 0.0
C1264 C 0.33526 0.10633 0.51254 0.0
C1265 C 0.38183 0.10941 0.53916 0.0
H1266 H 0.36747 0.05329 0.54112 0.0
C1267 C 0.4398 0.0619 0.55231 0.0
C1268 C 0.4375 0.04513 0.53947 0.0
C1269 C 0.42439 0.07176 0.55454 0.0
C1270 C 0.37174 0.06893 0.54059 0.0
H1271 H 0.33223 0.15484 0.54193 0.0
H1272 H 0.35619 0.135 0.5528 0.0
H1273 H 0.34268 0.07332 0.53425 0.0
H1274 H 0.41723 0.02471 0.51987 0.0
H1275 H 0.39054 0.04213 0.52322 0.0
H1276 H 0.41088 0.10509 0.54426 0.0
C1277 C 0.34665 0.13006 0.53978 0.0
C1278 C 0.35754 0.08036 0.53671 0.0
C1279 C 0.33298 0.14136 0.53356 0.0
C1280 C 0.41934 0.03762 0.52988 0.0
C1281 C 0.404 0.04758 0.53192 0.0
C1282 C 0.39606 0.09797 0.54276 0.0
C1283 C 0.3478 0.1124 0.52938 0.0
C1284 C 0.36252 0.10062 0.53556 0.0
C1285 C 0.40649 0.06515 0.54378 0.0
C1286 C 0.39122 0.07751 0.54306 0.0
H1287 H 0.31229 0.11277 0.49313 0.0
H1288 H 0.33607 0.09288 0.50416 0.0
H1289 H 0.38601 0.12501 0.53823 0.0
H1290 H 0.45371 0.06789 0.55994 0.0
H1291 H 0.42671 0.08499 0.56412 0.0
C1292 C 0.68861 0.56576 0.26997 0.0
C1293 C 0.68714 0.55825 0.28812 0.0
C1294 C 0.69826 0.5847 0.26848 0.0
C1295 C 0.71182 0.63227 0.29622 0.0
H1296 H 0.7442 0.64482 0.25548 0.0
C1297 C 0.75033 0.71086 0.29072 0.0
C1298 C 0.75033 0.71782 0.27222 0.0
C1299 C 0.74454 0.69101 0.29298 0.0
C1300 C 0.73506 0.64159 0.26683 0.0
H1301 H 0.69501 0.56449 0.31891 0.0
H1302 H 0.7119 0.59767 0.31632 0.0
H1303 H 0.73077 0.61073 0.25902 0.0
H1304 H 0.74464 0.70922 0.24153 0.0
H1305 H 0.7342 0.67461 0.24549 0.0
H1306 H 0.71565 0.66305 0.3038 0.0
C1307 C 0.70545 0.58892 0.30325 0.0
C1308 C 0.72741 0.62205 0.26888 0.0
C1309 C 0.69588 0.56991 0.30474 0.0
C1310 C 0.74487 0.70436 0.25599 0.0
C1311 C 0.73896 0.68448 0.25827 0.0
C1312 C 0.71938 0.65179 0.29412 0.0
C1313 C 0.70658 0.59659 0.28512 0.0
C1314 C 0.71561 0.61719 0.28353 0.0
C1315 C 0.73848 0.6776 0.27681 0.0
C1316 C 0.73102 0.65672 0.27934 0.0
H1317 H 0.68202 0.55712 0.2569 0.0
H1318 H 0.69868 0.59024 0.25432 0.0
H1319 H 0.70251 0.62905 0.30744 0.0
H1320 H 0.75464 0.72076 0.30355 0.0
H1321 H 0.74474 0.68619 0.30746 0.0
C1322 C 0.85338 0.5088 0.76781 0.0
C1323 C 0.86966 0.51098 0.7577 0.0
C1324 C 0.84291 0.49019 0.76937 0.0
C1325 C 0.84699 0.43734 0.76413 0.0
H1326 H 0.79157 0.42964 0.76265 0.0
C1327 C 0.80047 0.36091 0.75413 0.0
C1328 C 0.78683 0.35691 0.76726 0.0
C1329 C 0.81001 0.37998 0.75317 0.0
C1330 C 0.80705 0.43164 0.76322 0.0
H1331 H 0.88755 0.49551 0.74095 0.0
H1332 H 0.86903 0.46322 0.74309 0.0
H1333 H 0.80939 0.46244 0.76042 0.0
H1334 H 0.77204 0.36964 0.78932 0.0
H1335 H 0.78856 0.40322 0.7874 0.0
H1336 H 0.84455 0.40644 0.76642 0.0
C1337 C 0.86458 0.47572 0.75034 0.0
C1338 C 0.81729 0.45042 0.76202 0.0
C1339 C 0.87515 0.49426 0.74899 0.0
C1340 C 0.78252 0.37238 0.77909 0.0
C1341 C 0.7919 0.39155 0.77794 0.0
C1342 C 0.83674 0.41858 0.76508 0.0
C1343 C 0.84839 0.47339 0.76067 0.0
C1344 C 0.83741 0.45351 0.76236 0.0
C1345 C 0.80593 0.39546 0.76516 0.0
C1346 C 0.81668 0.41552 0.76455 0.0
H1347 H 0.84887 0.52144 0.77474 0.0
H1348 H 0.8307 0.48898 0.77766 0.0
H1349 H 0.86247 0.43917 0.76491 0.0
H1350 H 0.80404 0.34924 0.74483 0.0
H1351 H 0.82061 0.38263 0.74304 0.0
C1352 C 0.98715 0.8118 0.10478 0.0
C1353 C -0.00024 0.81368 0.12184 0.0
C1354 C 0.98771 0.82706 0.09252 0.0
C1355 C 0.01941 0.87026 0.07931 0.0
H1356 H 0.97251 0.88897 0.06205 0.0
C1357 C 0.02012 0.94632 0.05158 0.0
C1358 C 0.006 0.9493 0.0371 0.0
C1359 C 0.01945 0.92822 0.05934 0.0
C1360 C 0.98571 0.8837 0.06639 0.0
H1361 H 0.0229 0.8329 0.13938 0.0
H1362 H 0.02401 0.85945 0.11788 0.0
H1363 H 0.97104 0.86021 0.08072 0.0
H1364 H 0.98039 0.93559 0.01891 0.0
H1365 H 0.97931 0.9036 0.03232 0.0
H1366 H 0.03415 0.89365 0.06509 0.0
C1367 C 0.01372 0.84618 0.11398 0.0
C1368 C 0.98485 0.86727 0.07716 0.0
C1369 C 0.013 0.83104 0.12634 0.0
C1370 C 0.99144 0.93364 0.03009 0.0
C1371 C 0.99077 0.91541 0.03787 0.0
C1372 C 0.02026 0.88654 0.06841 0.0
C1373 C 0.00107 0.84437 0.09696 0.0
C1374 C 0.00174 0.86067 0.08409 0.0
C1375 C 0.00468 0.91256 0.05276 0.0
C1376 C 0.00347 0.89378 0.06221 0.0
H1377 H 0.97678 0.79857 0.10095 0.0
H1378 H 0.97785 0.82524 0.07946 0.0
H1379 H 0.03263 0.86526 0.08415 0.0
H1380 H 0.03151 0.95815 0.05729 0.0
H1381 H 0.03021 0.92674 0.07099 0.0
C1382 C 0.9689 0.29104 0.82672 0.0
C1383 C 0.97224 0.27855 0.84133 0.0
C1384 C 0.95065 0.28961 0.81673 0.0
C1385 C 0.90462 0.25673 0.80387 0.0
H1386 H 0.88316 0.30462 0.80151 0.0
C1387 C 0.82366 0.25645 0.78478 0.0
C1388 C 0.81772 0.27226 0.77559 0.0
C1389 C 0.84308 0.25652 0.79048 0.0
C1390 C 0.88899 0.29113 0.80162 0.0
H1391 H 0.95928 0.25437 0.85653 0.0
H1392 H 0.92744 0.25167 0.83884 0.0
H1393 H 0.91608 0.3059 0.81549 0.0
H1394 H 0.82758 0.30005 0.76424 0.0
H1395 H 0.86149 0.29985 0.77349 0.0
H1396 H 0.87765 0.24191 0.78986 0.0
C1397 C 0.93893 0.2626 0.83518 0.0
C1398 C 0.90787 0.29189 0.80974 0.0
C1399 C 0.95712 0.26422 0.84536 0.0
C1400 C 0.83168 0.28773 0.77146 0.0
C1401 C 0.85114 0.28767 0.77692 0.0
C1402 C 0.88579 0.25598 0.7955 0.0
C1403 C 0.93544 0.27546 0.82095 0.0
C1404 C 0.91581 0.27468 0.81118 0.0
C1405 C 0.85709 0.27229 0.78692 0.0
C1406 C 0.87761 0.27315 0.79449 0.0
H1407 H 0.98028 0.30224 0.82331 0.0
H1408 H 0.94839 0.29962 0.80573 0.0
H1409 H 0.91046 0.24325 0.8046 0.0
H1410 H 0.81326 0.24437 0.78832 0.0
H1411 H 0.84698 0.24454 0.79838 0.0
C1412 C 0.49109 0.20035 0.62464 0.0
C1413 C 0.49897 0.21867 0.61883 0.0
C1414 C 0.49224 0.18313 0.61363 0.0
C1415 C 0.52093 0.16367 0.57823 0.0
H1416 H 0.47855 0.12022 0.57009 0.0
C1417 C 0.4996 0.084 0.53143 0.0
C1418 C 0.51662 0.07653 0.53578 0.0
C1419 C 0.49667 0.10137 0.54111 0.0
C1420 C 0.49046 0.13229 0.57212 0.0
H1421 H 0.51393 0.23337 0.59676 0.0
H1422 H 0.51589 0.20332 0.5775 0.0
H1423 H 0.47449 0.15076 0.5874 0.0
H1424 H 0.5439 0.08122 0.55356 0.0
H1425 H 0.53887 0.11153 0.57039 0.0
H1426 H 0.53689 0.14531 0.56292 0.0
C1427 C 0.50899 0.20225 0.59067 0.0
C1428 C 0.48819 0.1497 0.58219 0.0
C1429 C 0.5078 0.21946 0.60165 0.0
C1430 C 0.53067 0.0867 0.54989 0.0
C1431 C 0.52782 0.10409 0.55946 0.0
C1432 C 0.52322 0.14627 0.56827 0.0
C1433 C 0.50135 0.18388 0.59661 0.0
C1434 C 0.50344 0.16556 0.58542 0.0
C1435 C 0.51083 0.11167 0.55515 0.0
C1436 C 0.50806 0.13034 0.56521 0.0
H1437 H 0.4842 0.19928 0.63782 0.0
H1438 H 0.48639 0.1692 0.6187 0.0
H1439 H 0.53301 0.17554 0.58063 0.0
H1440 H 0.48862 0.07652 0.52045 0.0
H1441 H 0.48351 0.10693 0.53735 0.0
C1442 C 0.5756 0.77129 0.33157 0.0
C1443 C 0.5743 0.78683 0.34498 0.0
C1444 C 0.59264 0.77042 0.32329 0.0
C1445 C 0.63887 0.80052 0.31486 0.0
H1446 H 0.65428 0.74976 0.30656 0.0
C1447 C 0.71249 0.79127 0.28932 0.0
C1448 C 0.71187 0.77671 0.27427 0.0
C1449 C 0.69625 0.79254 0.29893 0.0
C1450 C 0.65012 0.76403 0.30869 0.0
H1451 H 0.58977 0.81377 0.3601 0.0
H1452 H 0.61962 0.8121 0.34593 0.0
H1453 H 0.6248 0.75217 0.32107 0.0
H1454 H 0.69404 0.75192 0.25765 0.0
H1455 H 0.66574 0.75409 0.2744 0.0
H1456 H 0.66434 0.81233 0.30256 0.0
C1457 C 0.6074 0.80072 0.34154 0.0
C1458 C 0.63316 0.76542 0.31694 0.0
C1459 C 0.59031 0.80164 0.34973 0.0
C1460 C 0.6949 0.76328 0.26921 0.0
C1461 C 0.67873 0.76446 0.27888 0.0
C1462 C 0.65591 0.79914 0.30672 0.0
C1463 C 0.60885 0.785 0.32832 0.0
C1464 C 0.6272 0.78366 0.31996 0.0
C1465 C 0.67915 0.7792 0.29374 0.0
C1466 C 0.66163 0.78085 0.30337 0.0
H1467 H 0.56348 0.75969 0.32755 0.0
H1468 H 0.59307 0.7583 0.31288 0.0
H1469 H 0.63463 0.81478 0.31674 0.0
H1470 H 0.7254 0.80185 0.29345 0.0
H1471 H 0.69707 0.80395 0.31044 0.0
C1472 C 0.01753 0.22158 0.47988 0.0
C1473 C 0.03277 0.22628 0.46862 0.0
C1474 C 0.01459 0.20349 0.48787 0.0
C1475 C 0.0188 0.15413 0.4758 0.0
H1476 H 0.02082 0.1439 0.5299 0.0
C1477 C 0.02871 0.07949 0.50053 0.0
C1478 C 0.01998 0.07247 0.51648 0.0
C1479 C 0.02754 0.0983 0.49524 0.0
C1480 C 0.01978 0.14651 0.51473 0.0
H1481 H 0.05744 0.21629 0.45772 0.0
H1482 H 0.05202 0.18457 0.47135 0.0
H1483 H 0.02464 0.17776 0.52078 0.0
H1484 H 0.00286 0.07924 0.53927 0.0
H1485 H 0.00046 0.1123 0.52979 0.0
H1486 H 0.0138 0.12316 0.4695 0.0
C1487 C 0.04246 0.19492 0.47402 0.0
C1488 C 0.02209 0.16585 0.50958 0.0
C1489 C 0.04558 0.21306 0.46631 0.0
C1490 C 0.00973 0.08443 0.52691 0.0
C1491 C 0.00845 0.10332 0.52154 0.0
C1492 C 0.01619 0.13488 0.48089 0.0
C1493 C 0.0267 0.18985 0.48443 0.0
C1494 C 0.02217 0.16971 0.4901 0.0
C1495 C 0.01747 0.11049 0.50571 0.0
C1496 C 0.01729 0.13084 0.50042 0.0
H1497 H 0.00747 0.23156 0.48189 0.0
H1498 H 0.00235 0.19976 0.49588 0.0
H1499 H 0.01851 0.15689 0.46066 0.0
H1500 H 0.03693 0.07064 0.4924 0.0
H1501 H 0.03504 0.10346 0.48326 0.0
C1502 C 0.56701 0.27706 0.15405 0.0
C1503 C 0.5533 0.28878 0.15816 0.0
C1504 C 0.5838 0.2782 0.16646 0.0
C1505 C 0.61559 0.30988 0.20435 0.0
H1506 H 0.63336 0.26137 0.21572 0.0
C1507 C 0.6928 0.30554 0.23566 0.0
C1508 C 0.69545 0.29099 0.24828 0.0
C1509 C 0.67446 0.30679 0.22721 0.0
C1510 C 0.62847 0.27504 0.21294 0.0
H1511 H 0.54645 0.31108 0.17828 0.0
H1512 H 0.57585 0.31302 0.20005 0.0
H1513 H 0.60324 0.26032 0.19563 0.0
H1514 H 0.68115 0.26715 0.263 0.0
H1515 H 0.64903 0.26945 0.2484 0.0
H1516 H 0.64091 0.32458 0.22169 0.0
C1517 C 0.57365 0.30305 0.18717 0.0
C1518 C 0.61135 0.27444 0.20121 0.0
C1519 C 0.55681 0.30188 0.17476 0.0
C1520 C 0.67945 0.27839 0.25315 0.0
C1521 C 0.66111 0.27965 0.24474 0.0
C1522 C 0.63278 0.31048 0.21609 0.0
C1523 C 0.58723 0.29109 0.18322 0.0
C1524 C 0.60487 0.29185 0.19656 0.0
C1525 C 0.65849 0.29352 0.23129 0.0
C1526 C 0.6395 0.29306 0.22031 0.0
H1527 H 0.56471 0.26689 0.14132 0.0
H1528 H 0.59417 0.26904 0.16288 0.0
H1529 H 0.61097 0.32353 0.20095 0.0
H1530 H 0.70495 0.31548 0.23176 0.0
H1531 H 0.67292 0.31754 0.21679 0.0
C1532 C 0.52602 0.81817 0.97034 0.0
C1533 C 0.5414 0.81613 0.95958 0.0
C1534 C 0.526 0.83549 0.98157 0.0
C1535 C 0.55586 0.8829 0.00129 0.0
H1536 H 0.50728 0.90162 0.99391 0.0
C1537 C 0.54727 0.96433 0.01047 0.0
C1538 C 0.53051 0.96881 0.01762 0.0
C1539 C 0.54988 0.94486 0.00755 0.0
C1540 C 0.52086 0.8965 0.99647 0.0
H1541 H 0.56925 0.8301 0.95287 0.0
H1542 H 0.569 0.86063 0.97207 0.0
H1543 H 0.50956 0.86883 0.98137 0.0
H1544 H 0.50397 0.95645 0.02859 0.0
H1545 H 0.50863 0.92258 0.02362 0.0
H1546 H 0.56725 0.91109 0.01579 0.0
C1547 C 0.5571 0.84876 0.97213 0.0
C1548 C 0.52218 0.87764 0.98929 0.0
C1549 C 0.55721 0.83132 0.96103 0.0
C1550 C 0.51694 0.95351 0.02281 0.0
C1551 C 0.51957 0.93409 0.01993 0.0
C1552 C 0.55456 0.90188 0.00844 0.0
C1553 C 0.54123 0.85124 0.98209 0.0
C1554 C 0.53972 0.87067 0.9914 0.0
C1555 C 0.53579 0.92953 0.01175 0.0
C1556 C 0.53707 0.90892 0.00589 0.0
H1557 H 0.51375 0.80658 0.96967 0.0
H1558 H 0.51376 0.83676 0.98943 0.0
H1559 H 0.56954 0.87789 0.00334 0.0
H1560 H 0.55802 0.97577 0.00635 0.0
H1561 H 0.56246 0.94181 0.00108 0.0
C1562 C 0.95357 0.76297 0.67782 0.0
C1563 C 0.95939 0.78121 0.67066 0.0
C1564 C 0.9401 0.76101 0.69119 0.0
C1565 C 0.91598 0.78926 0.72533 0.0
H1566 H 0.87341 0.74654 0.71265 0.0
C1567 C 0.84019 0.79192 0.74548 0.0
C1568 C 0.82849 0.77451 0.74896 0.0
C1569 C 0.85875 0.79162 0.74068 0.0
C1570 C 0.88537 0.75829 0.71673 0.0
H1571 H 0.95614 0.8118 0.67218 0.0
H1572 H 0.93241 0.80834 0.69528 0.0
H1573 H 0.90137 0.74803 0.69495 0.0
H1574 H 0.82718 0.74333 0.7514 0.0
H1575 H 0.85977 0.74281 0.74316 0.0
H1576 H 0.89959 0.79988 0.74665 0.0
C1577 C 0.93842 0.7956 0.6908 0.0
C1578 C 0.9014 0.75917 0.70655 0.0
C1579 C 0.95187 0.79755 0.67743 0.0
C1580 C 0.83595 0.75695 0.74868 0.0
C1581 C 0.85454 0.75665 0.74388 0.0
C1582 C 0.89994 0.78837 0.73554 0.0
C1583 C 0.93224 0.77727 0.69766 0.0
C1584 C 0.91662 0.77495 0.71036 0.0
C1585 C 0.86593 0.77389 0.73929 0.0
C1586 C 0.88424 0.77317 0.73096 0.0
H1587 H 0.95925 0.75016 0.67295 0.0
H1588 H 0.93572 0.74675 0.69636 0.0
H1589 H 0.92767 0.80141 0.72879 0.0
H1590 H 0.83471 0.80563 0.74563 0.0
H1591 H 0.86706 0.80512 0.737 0.0
C1592 C 0.10328 0.01942 0.83945 0.0
C1593 C 0.11302 0.00368 0.83594 0.0
C1594 C 0.09067 0.01888 0.85366 0.0
C1595 C 0.0787 0.99439 0.89758 0.0
H1596 H 0.03222 0.01687 0.88946 0.0
C1597 C 0.02647 0.99402 0.9556 0.0
C1598 C 0.02189 0.01253 0.96059 0.0
C1599 C 0.0348 0.99067 0.93861 0.0
C1600 C 0.04515 0.01054 0.89191 0.0
H1601 H 0.11714 0.97499 0.84446 0.0
H1602 H 0.09491 0.9739 0.86908 0.0
H1603 H 0.05288 0.01561 0.86354 0.0
H1604 H 0.02112 0.04157 0.95092 0.0
H1605 H 0.03555 0.03568 0.92132 0.0
H1606 H 0.07106 0.98951 0.92601 0.0
C1607 C 0.09723 0.98681 0.86109 0.0
C1608 C 0.05704 0.0099 0.87712 0.0
C1609 C 0.10993 0.9874 0.84694 0.0
C1610 C 0.02457 0.02717 0.94758 0.0
C1611 C 0.03277 0.02377 0.93054 0.0
C1612 C 0.06675 0.99493 0.91232 0.0
C1613 C 0.08742 0.00254 0.86462 0.0
C1614 C 0.07412 0.0021 0.87988 0.0
C1615 C 0.03855 0.0057 0.92619 0.0
C1616 C 0.05 0.00327 0.90975 0.0
H1617 H 0.10541 0.03218 0.83121 0.0
H1618 H 0.08364 0.03141 0.85622 0.0
H1619 H 0.09186 0.98853 0.90033 0.0
H1620 H 0.02459 0.98241 0.96529 0.0
H1621 H 0.03887 0.97651 0.93548 0.0
C1622 C 0.72953 0.37337 0.59695 0.0
C1623 C 0.7289 0.36377 0.57851 0.0
C1624 C 0.7323 0.36339 0.61356 0.0
C1625 C 0.75287 0.32163 0.63132 0.0
H1626 H 0.72245 0.32742 0.67392 0.0
C1627 C 0.75837 0.27639 0.69837 0.0
C1628 C 0.75591 0.28535 0.71634 0.0
C1629 C 0.75536 0.28583 0.68142 0.0
C1630 C 0.73132 0.32585 0.66232 0.0
H1631 H 0.73053 0.33613 0.56303 0.0
H1632 H 0.73551 0.31873 0.59207 0.0
H1633 H 0.71624 0.34393 0.64473 0.0
H1634 H 0.74888 0.31142 0.73074 0.0
H1635 H 0.74441 0.3282 0.70145 0.0
H1636 H 0.76825 0.30391 0.64899 0.0
C1637 C 0.73389 0.33399 0.59366 0.0
C1638 C 0.72766 0.33527 0.64553 0.0
C1639 C 0.73089 0.34391 0.57704 0.0
C1640 C 0.7509 0.30414 0.7171 0.0
C1641 C 0.7481 0.31366 0.70022 0.0
C1642 C 0.75667 0.31236 0.64821 0.0
C1643 C 0.73472 0.34364 0.61212 0.0
C1644 C 0.73839 0.33329 0.62983 0.0
C1645 C 0.74999 0.30454 0.68208 0.0
C1646 C 0.74598 0.31436 0.66399 0.0
H1647 H 0.7281 0.38867 0.59857 0.0
H1648 H 0.73302 0.37128 0.62756 0.0
H1649 H 0.76155 0.32002 0.61957 0.0
H1650 H 0.76214 0.26186 0.69734 0.0
H1651 H 0.75675 0.2782 0.66776 0.0
C1652 C 0.41867 0.06939 0.31955 0.0
C1653 C 0.42873 0.06629 0.30356 0.0
C1654 C 0.42706 0.06818 0.33831 0.0
C1655 C 0.46413 0.04547 0.36473 0.0
H1656 H 0.45618 0.08011 0.40787 0.0
C1657 C 0.49872 0.03973 0.4422 0.0
C1658 C 0.48727 0.04174 0.45733 0.0
C1659 C 0.49267 0.04405 0.4235 0.0
C1660 C 0.45839 0.07019 0.39601 0.0
H1661 H 0.45572 0.06006 0.29473 0.0
H1662 H 0.47044 0.05807 0.3275 0.0
H1663 H 0.44389 0.08569 0.37518 0.0
H1664 H 0.46045 0.04999 0.46458 0.0
H1665 H 0.44981 0.05724 0.432 0.0
H1666 H 0.47833 0.02974 0.38553 0.0
C1667 C 0.45596 0.06122 0.32553 0.0
C1668 C 0.45137 0.07342 0.37726 0.0
C1669 C 0.44758 0.0625 0.30676 0.0
C1670 C 0.4697 0.04834 0.45332 0.0
C1671 C 0.46363 0.05262 0.43462 0.0
C1672 C 0.47111 0.0422 0.38348 0.0
C1673 C 0.4457 0.06377 0.34152 0.0
C1674 C 0.45403 0.06102 0.36139 0.0
C1675 C 0.47499 0.05045 0.41944 0.0
C1676 C 0.46821 0.05443 0.39939 0.0
H1677 H 0.4041 0.07229 0.31756 0.0
H1678 H 0.41867 0.07004 0.35025 0.0
H1679 H 0.46618 0.03543 0.35289 0.0
H1680 H 0.51237 0.03474 0.44474 0.0
H1681 H 0.50192 0.04246 0.41223 0.0
C1682 C 0.75967 0.7204 0.04122 0.0
C1683 C 0.77542 0.71046 0.04162 0.0
C1684 C 0.75901 0.73522 0.05547 0.0
C1685 C 0.78738 0.76433 0.0987 0.0
H1686 H 0.73862 0.75479 0.12006 0.0
C1687 C 0.77929 0.76624 0.17908 0.0
C1688 C 0.76379 0.77362 0.18607 0.0
C1689 C 0.78136 0.76556 0.15942 0.0
C1690 C 0.7522 0.75805 0.11409 0.0
H1691 H 0.80337 0.70899 0.05632 0.0
H1692 H 0.80193 0.73416 0.08163 0.0
H1693 H 0.74118 0.74095 0.08788 0.0
H1694 H 0.73871 0.7868 0.17838 0.0
H1695 H 0.74204 0.78508 0.14369 0.0
H1696 H 0.79864 0.78011 0.12579 0.0
C1697 C 0.79024 0.73098 0.07015 0.0
C1698 C 0.75369 0.75015 0.09556 0.0
C1699 C 0.79101 0.71638 0.05575 0.0
C1700 C 0.7507 0.78091 0.17323 0.0
C1701 C 0.75263 0.77999 0.15348 0.0
C1702 C 0.78593 0.77203 0.11735 0.0
C1703 C 0.77395 0.74014 0.07054 0.0
C1704 C 0.7715 0.75246 0.08798 0.0
C1705 C 0.76786 0.77208 0.1464 0.0
C1706 C 0.7685 0.76824 0.12546 0.0
H1707 H 0.74759 0.71631 0.03025 0.0
H1708 H 0.74644 0.74226 0.05511 0.0
H1709 H 0.80119 0.7668 0.09309 0.0
H1710 H 0.78966 0.7607 0.18877 0.0
H1711 H 0.79306 0.75911 0.1543 0.0
C1712 C 0.09228 0.99346 0.73772 0.0
C1713 C 0.11129 0.99002 0.73888 0.0
C1714 C 0.08118 0.99163 0.71987 0.0
C1715 C 0.06898 0.0032 0.68002 0.0
H1716 H 0.07263 0.96508 0.63806 0.0
C1717 C 0.05769 0.01949 0.60099 0.0
C1718 C 0.04708 0.00491 0.58767 0.0
C1719 C 0.06264 0.01532 0.6199 0.0
C1720 C 0.07124 0.97565 0.6497 0.0
H1721 H 0.1333 0.981 0.72253 0.0
H1722 H 0.11405 0.97807 0.69138 0.0
H1723 H 0.08585 0.96057 0.67084 0.0
H1724 H 0.03342 0.9745 0.58341 0.0
H1725 H 0.04231 0.96708 0.61668 0.0
H1726 H 0.05475 0.01849 0.65888 0.0
C1727 C 0.10761 0.98197 0.70422 0.0
C1728 C 0.07893 0.97317 0.66841 0.0
C1729 C 0.1187 0.98381 0.72205 0.0
C1730 C 0.04162 0.98598 0.59348 0.0
C1731 C 0.04672 0.98175 0.61244 0.0
C1732 C 0.06136 0.0057 0.66135 0.0
C1733 C 0.08889 0.98631 0.70287 0.0
C1734 C 0.0783 0.98719 0.68367 0.0
C1735 C 0.05717 0.99644 0.62586 0.0
C1736 C 0.06289 0.99225 0.64593 0.0
H1737 H 0.08616 0.99812 0.7505 0.0
H1738 H 0.06671 0.99483 0.7193 0.0
H1739 H 0.06839 0.01435 0.6914 0.0
H1740 H 0.06211 0.03419 0.59684 0.0
H1741 H 0.07101 0.02683 0.62982 0.0
C1742 C 0.73709 0.34483 0.47664 0.0
C1743 C 0.72786 0.36128 0.47729 0.0
C1744 C 0.73974 0.3356 0.45892 0.0
C1745 C 0.725 0.33382 0.40554 0.0
H1746 H 0.77108 0.31099 0.40263 0.0
C1747 C 0.73988 0.29517 0.3342 0.0
C1748 C 0.75897 0.29638 0.33003 0.0
C1749 C 0.73567 0.30167 0.35243 0.0
C1750 C 0.75825 0.31751 0.40302 0.0
H1751 H 0.71412 0.38094 0.45989 0.0
H1752 H 0.71945 0.36553 0.42908 0.0
H1753 H 0.76457 0.3254 0.43328 0.0
H1754 H 0.78863 0.30552 0.34167 0.0
H1755 H 0.78139 0.31772 0.37314 0.0
H1756 H 0.71933 0.32715 0.37507 0.0
C1757 C 0.7241 0.35918 0.44213 0.0
C1758 C 0.75428 0.32549 0.42082 0.0
C1759 C 0.7211 0.36814 0.45985 0.0
C1760 C 0.77378 0.30417 0.34453 0.0
C1761 C 0.76957 0.31108 0.36266 0.0
C1762 C 0.72916 0.32619 0.38768 0.0
C1763 C 0.73362 0.34284 0.44135 0.0
C1764 C 0.73759 0.33381 0.42239 0.0
C1765 C 0.75042 0.31001 0.3669 0.0
C1766 C 0.74586 0.3179 0.3861 0.0
H1767 H 0.74237 0.33915 0.48987 0.0
H1768 H 0.74669 0.3228 0.45907 0.0
H1769 H 0.71183 0.33973 0.40604 0.0
H1770 H 0.72815 0.28909 0.32336 0.0
H1771 H 0.72077 0.30006 0.35513 0.0
C1772 C 0.44464 0.07246 0.19497 0.0
C1773 C 0.43073 0.05691 0.19907 0.0
C1774 C 0.45475 0.07077 0.17883 0.0
C1775 C 0.46886 0.03387 0.14499 0.0
H1776 H 0.4774 0.07669 0.11199 0.0
C1777 C 0.49975 0.02455 0.07196 0.0
C1778 C 0.51277 0.04025 0.06672 0.0
C1779 C 0.48969 0.02679 0.08803 0.0
C1780 C 0.47536 0.06467 0.12117 0.0
H1781 H 0.41646 0.02744 0.18943 0.0
H1782 H 0.43403 0.0245 0.16136 0.0
H1783 H 0.46029 0.08041 0.14034 0.0
H1784 H 0.52573 0.07051 0.07423 0.0
H1785 H 0.50855 0.07437 0.10252 0.0
H1786 H 0.48403 0.01816 0.12601 0.0
C1787 C 0.43727 0.03794 0.17066 0.0
C1788 C 0.46553 0.06681 0.13743 0.0
C1789 C 0.42712 0.03968 0.1867 0.0
C1790 C 0.5157 0.05818 0.07792 0.0
C1791 C 0.50572 0.06043 0.09404 0.0
C1792 C 0.47875 0.03176 0.12881 0.0
C1793 C 0.45124 0.05344 0.16653 0.0
C1794 C 0.46208 0.0514 0.14948 0.0
C1795 C 0.49257 0.04476 0.09932 0.0
C1796 C 0.48208 0.04709 0.11663 0.0
H1797 H 0.44774 0.08592 0.20425 0.0
H1798 H 0.46552 0.08291 0.17613 0.0
H1799 H 0.46671 0.02183 0.15415 0.0
H1800 H 0.49751 0.01046 0.06379 0.0
H1801 H 0.47956 0.01446 0.09151 0.0
C1802 C 0.75613 0.69016 0.94386 0.0
C1803 C 0.77372 0.68751 0.95344 0.0
C1804 C 0.75565 0.70025 0.92723 0.0
C1805 C 0.78306 0.71361 0.8871 0.0
H1806 H 0.74744 0.75013 0.87943 0.0
C1807 C 0.7769 0.75371 0.81774 0.0
C1808 C 0.75813 0.75367 0.80927 0.0
C1809 C 0.78013 0.74814 0.83646 0.0
C1810 C 0.75738 0.73991 0.88135 0.0
H1811 H 0.8046 0.69328 0.95322 0.0
H1812 H 0.80374 0.71094 0.92392 0.0
H1813 H 0.75089 0.7355 0.91023 0.0
H1814 H 0.72804 0.74822 0.81398 0.0
H1815 H 0.73369 0.73821 0.84659 0.0
H1816 H 0.7892 0.71759 0.85809 0.0
C1817 C 0.79035 0.70513 0.92931 0.0
C1818 C 0.75937 0.73156 0.89895 0.0
C1819 C 0.79084 0.69507 0.94605 0.0
C1820 C 0.74268 0.74844 0.8201 0.0
C1821 C 0.74592 0.74282 0.83882 0.0
C1822 C 0.78104 0.72192 0.86948 0.0
C1823 C 0.77274 0.70786 0.91981 0.0
C1824 C 0.77198 0.71808 0.90186 0.0
C1825 C 0.76466 0.74237 0.84709 0.0
C1826 C 0.76795 0.73491 0.86633 0.0
H1827 H 0.7427 0.68448 0.94923 0.0
H1828 H 0.74185 0.70185 0.92001 0.0
H1829 H 0.79272 0.7031 0.88889 0.0
H1830 H 0.78915 0.7578 0.80985 0.0
H1831 H 0.79474 0.7482 0.84257 0.0
C1832 C 0.86608 0.14608 0.00642 0.0
C1833 C 0.84968 0.13966 0.01559 0.0
C1834 C 0.88119 0.1353 0.00669 0.0
C1835 C 0.90313 0.09928 0.03395 0.0
H1836 H 0.92355 0.08589 0.98623 0.0
C1837 C 0.9509 0.03986 0.02919 0.0
C1838 C 0.96568 0.04195 0.01713 0.0
C1839 C 0.93778 0.05288 0.02911 0.0
C1840 C 0.91829 0.08975 0.99977 0.0
H1841 H 0.83639 0.11705 0.03244 0.0
H1842 H 0.86285 0.09847 0.03318 0.0
H1843 H 0.89906 0.10693 0.98609 0.0
H1844 H 0.97805 0.05897 0.99509 0.0
H1845 H 0.95568 0.08236 0.99548 0.0
H1846 H 0.9224 0.08244 0.04777 0.0
C1847 C 0.86402 0.1118 0.02575 0.0
C1848 C 0.90419 0.10178 0.99965 0.0
C1849 C 0.84883 0.1224 0.02524 0.0
C1850 C 0.96705 0.05729 0.00485 0.0
C1851 C 0.95401 0.0705 0.00489 0.0
C1852 C 0.91736 0.08747 0.03413 0.0
C1853 C 0.88034 0.11806 0.0164 0.0
C1854 C 0.89624 0.10641 0.01669 0.0
C1855 C 0.93917 0.06848 0.01704 0.0
C1856 C 0.92493 0.08223 0.01698 0.0
H1857 H 0.86713 0.15931 0.99884 0.0
H1858 H 0.89363 0.14055 0.99946 0.0
H1859 H 0.89751 0.10286 0.04737 0.0
H1860 H 0.94942 0.02808 0.03872 0.0
H1861 H 0.92635 0.05049 0.03834 0.0
C1862 C 0.30703 0.46731 0.04318 0.0
C1863 C 0.30458 0.44865 0.05019 0.0
C1864 C 0.32528 0.47861 0.04431 0.0
C1865 C 0.37654 0.48026 0.06442 0.0
H1866 H 0.38648 0.50831 0.01914 0.0
C1867 C 0.45329 0.51563 0.05268 0.0
C1868 C 0.45815 0.5148 0.03366 0.0
C1869 C 0.43421 0.51069 0.05639 0.0
C1870 C 0.38404 0.50038 0.03181 0.0
H1871 H 0.31903 0.42739 0.06448 0.0
H1872 H 0.35088 0.44649 0.06559 0.0
H1873 H 0.354 0.49374 0.02321 0.0
H1874 H 0.44704 0.50802 0.0036 0.0
H1875 H 0.41399 0.49839 0.01 0.0
H1876 H 0.4068 0.48547 0.07215 0.0
C1877 C 0.33882 0.45288 0.0598 0.0
C1878 C 0.36525 0.49233 0.03438 0.0
C1879 C 0.32052 0.4418 0.05907 0.0
C1880 C 0.44364 0.50899 0.0184 0.0
C1881 C 0.42464 0.50362 0.02211 0.0
C1882 C 0.3954 0.48793 0.06162 0.0
C1883 C 0.34153 0.47127 0.05203 0.0
C1884 C 0.36126 0.48183 0.05054 0.0
C1885 C 0.41963 0.50437 0.04117 0.0
C1886 C 0.39945 0.49778 0.04508 0.0
H1887 H 0.29489 0.47298 0.03643 0.0
H1888 H 0.32667 0.4929 0.03867 0.0
H1889 H 0.37406 0.47269 0.07729 0.0
H1890 H 0.46422 0.52027 0.06471 0.0
H1891 H 0.43094 0.51186 0.07121 0.0
C1892 C 0.33339 0.60354 0.73835 0.0
C1893 C 0.34808 0.60142 0.75262 0.0
C1894 C 0.32341 0.61932 0.74003 0.0
C1895 C 0.3271 0.66861 0.76556 0.0
H1896 H 0.27224 0.66093 0.75095 0.0
C1897 C 0.28076 0.72742 0.78331 0.0
C1898 C 0.26763 0.73099 0.76816 0.0
C1899 C 0.29043 0.71144 0.78156 0.0
C1900 C 0.28759 0.66332 0.75496 0.0
H1901 H 0.3637 0.61398 0.77992 0.0
H1902 H 0.34613 0.6411 0.78304 0.0
H1903 H 0.28946 0.63342 0.7472 0.0
H1904 H 0.25387 0.72051 0.73953 0.0
H1905 H 0.27056 0.69253 0.73654 0.0
H1906 H 0.32514 0.69847 0.77352 0.0
C1907 C 0.34253 0.63093 0.77034 0.0
C1908 C 0.29748 0.64758 0.75274 0.0
C1909 C 0.35253 0.61528 0.7686 0.0
C1910 C 0.26392 0.71806 0.75146 0.0
C1911 C 0.27344 0.70203 0.74976 0.0
C1912 C 0.31719 0.6843 0.76789 0.0
C1913 C 0.32789 0.63322 0.75606 0.0
C1914 C 0.31736 0.65002 0.75803 0.0
C1915 C 0.2869 0.69861 0.76472 0.0
C1916 C 0.29734 0.68183 0.7626 0.0
H1917 H 0.32968 0.59309 0.72585 0.0
H1918 H 0.31236 0.62075 0.72865 0.0
H1919 H 0.34247 0.67113 0.76946 0.0
H1920 H 0.28345 0.73689 0.79652 0.0
H1921 H 0.30052 0.709 0.79345 0.0
C1922 C 0.23129 0.6446 0.49905 0.0
C1923 C 0.24665 0.63615 0.50697 0.0
C1924 C 0.21249 0.63464 0.49814 0.0
C1925 C 0.18341 0.58564 0.50332 0.0
H1926 H 0.14393 0.61705 0.51148 0.0
C1927 C 0.10631 0.55544 0.52148 0.0
C1928 C 0.09139 0.56204 0.51041 0.0
C1929 C 0.12545 0.56331 0.51984 0.0
C1930 C 0.1548 0.60812 0.50904 0.0
H1931 H 0.2545 0.6106 0.51997 0.0
H1932 H 0.22163 0.5935 0.51917 0.0
H1933 H 0.17692 0.63307 0.5112 0.0
H1934 H 0.08463 0.58168 0.48874 0.0
H1935 H 0.11805 0.59576 0.48624 0.0
H1936 H 0.16108 0.56063 0.50201 0.0
C1937 C 0.22404 0.60757 0.51312 0.0
C1938 C 0.17373 0.61728 0.50875 0.0
C1939 C 0.2429 0.61741 0.51369 0.0
C1940 C 0.09588 0.57636 0.49746 0.0
C1941 C 0.11496 0.58446 0.49607 0.0
C1942 C 0.16448 0.57646 0.50396 0.0
C1943 C 0.20853 0.61614 0.5055 0.0
C1944 C 0.18832 0.6062 0.50576 0.0
C1945 C 0.1299 0.57813 0.50736 0.0
C1946 C 0.15 0.58764 0.50671 0.0
H1947 H 0.2338 0.65897 0.49358 0.0
H1948 H 0.20106 0.64154 0.49168 0.0
H1949 H 0.19413 0.5766 0.50069 0.0
H1950 H 0.10319 0.54437 0.53154 0.0
H1951 H 0.13673 0.55826 0.52876 0.0
C1952 C 0.64002 0.91897 0.78079 0.0
C1953 C 0.64873 0.93796 0.77755 0.0
C1954 C 0.65051 0.90347 0.7806 0.0
C1955 C 0.70095 0.89345 0.78217 0.0
H1956 H 0.67631 0.84169 0.76073 0.0
C1957 C 0.74268 0.83417 0.75545 0.0
C1958 C 0.73815 0.81552 0.7622 0.0
C1959 C 0.73136 0.8485 0.75884 0.0
C1960 C 0.68331 0.85605 0.76691 0.0
H1961 H 0.67515 0.95556 0.77132 0.0
H1962 H 0.69314 0.92867 0.77022 0.0
H1963 H 0.65727 0.86792 0.76367 0.0
H1964 H 0.7185 0.79737 0.77824 0.0
H1965 H 0.69811 0.82225 0.78341 0.0
H1966 H 0.72712 0.88168 0.78452 0.0
C1967 C 0.67845 0.92566 0.77359 0.0
C1968 C 0.67241 0.87109 0.7687 0.0
C1969 C 0.66807 0.94113 0.77407 0.0
C1970 C 0.72208 0.81148 0.77249 0.0
C1971 C 0.71048 0.82571 0.77553 0.0
C1972 C 0.71185 0.87853 0.78005 0.0
C1973 C 0.66989 0.90658 0.77691 0.0
C1974 C 0.68113 0.89011 0.77613 0.0
C1975 C 0.71511 0.8444 0.76883 0.0
C1976 C 0.70319 0.85975 0.77221 0.0
H1977 H 0.62512 0.9161 0.78356 0.0
H1978 H 0.64344 0.8891 0.7835 0.0
H1979 H 0.70816 0.90767 0.78848 0.0
H1980 H 0.75499 0.83771 0.74751 0.0
H1981 H 0.73518 0.86274 0.75341 0.0
C1982 C 0.69183 0.93268 0.5047 0.0
C1983 C 0.70869 0.94464 0.51334 0.0
C1984 C 0.67573 0.9408 0.4989 0.0
C1985 C 0.65928 0.98723 0.48798 0.0
H1986 H 0.61057 0.95963 0.50028 0.0
C1987 C 0.59094 0.02158 0.493 0.0
C1988 C 0.57316 0.00946 0.48795 0.0
C1989 C 0.60791 0.01406 0.49177 0.0
C1990 C 0.62398 0.96733 0.49636 0.0
H1991 H 0.72207 0.97448 0.52251 0.0
H1992 H 0.69358 0.98875 0.5128 0.0
H1993 H 0.63949 0.94588 0.50762 0.0
H1994 H 0.55897 0.98064 0.47608 0.0
H1995 H 0.58866 0.96754 0.47369 0.0
H1996 H 0.64362 0.00902 0.47725 0.0
C1997 C 0.69298 0.9731 0.51022 0.0
C1998 C 0.64059 0.95947 0.50063 0.0
C1999 C 0.70921 0.96494 0.51593 0.0
C2000 C 0.57255 0.99022 0.4802 0.0
C2001 C 0.58951 0.98271 0.47894 0.0
C2002 C 0.6426 0.99516 0.48375 0.0
C2003 C 0.67604 0.96107 0.50176 0.0
C2004 C 0.65844 0.96937 0.4966 0.0
C2005 C 0.60731 0.99433 0.48546 0.0
C2006 C 0.62481 0.98531 0.48802 0.0
H2007 H 0.69108 0.91698 0.5023 0.0
H2008 H 0.66301 0.93118 0.49212 0.0
H2009 H 0.67282 0.99506 0.48449 0.0
H2010 H 0.59173 0.0365 0.49897 0.0
H2011 H 0.6214 0.02334 0.49699 0.0
C2012 C 0.32783 0.49482 0.75143 0.0
C2013 C 0.34794 0.49857 0.75237 0.0
C2014 C 0.31811 0.47571 0.7523 0.0
C2015 C 0.32422 0.42409 0.74423 0.0
H2016 H 0.28292 0.41316 0.77656 0.0
C2017 C 0.2816 0.34646 0.74477 0.0
C2018 C 0.27837 0.33973 0.76297 0.0
C2019 C 0.28835 0.36621 0.7429 0.0
C2020 C 0.29446 0.41599 0.76751 0.0
H2021 H 0.37363 0.4853 0.75507 0.0
H2022 H 0.35678 0.45215 0.75661 0.0
H2023 H 0.29831 0.44702 0.77444 0.0
H2024 H 0.27921 0.3487 0.79343 0.0
H2025 H 0.29116 0.3832 0.79014 0.0
H2026 H 0.32078 0.39317 0.73762 0.0
C2027 C 0.34845 0.46386 0.755 0.0
C2028 C 0.30314 0.43538 0.76614 0.0
C2029 C 0.35812 0.48289 0.75423 0.0
C2030 C 0.28155 0.35336 0.77919 0.0
C2031 C 0.2883 0.37317 0.7773 0.0
C2032 C 0.31552 0.40478 0.74553 0.0
C2033 C 0.32834 0.46001 0.75398 0.0
C2034 C 0.31827 0.43961 0.75465 0.0
C2035 C 0.29205 0.37976 0.75916 0.0
C2036 C 0.30064 0.40046 0.75729 0.0
H2037 H 0.31961 0.50663 0.75002 0.0
H2038 H 0.3026 0.47318 0.75136 0.0
H2039 H 0.33569 0.42688 0.73508 0.0
H2040 H 0.2792 0.33643 0.73193 0.0
H2041 H 0.29079 0.37086 0.72868 0.0
C2042 C 0.14626 0.55287 0.28398 0.0
C2043 C 0.15164 0.53562 0.27638 0.0
C2044 C 0.15777 0.57098 0.28294 0.0
C2045 C 0.20684 0.59432 0.27422 0.0
H2046 H 0.18139 0.6392 0.26685 0.0
C2047 C 0.24352 0.67281 0.25825 0.0
C2048 C 0.2388 0.68798 0.27019 0.0
C2049 C 0.2343 0.65348 0.25902 0.0
C2050 C 0.18868 0.62679 0.26897 0.0
H2051 H 0.17328 0.52369 0.26175 0.0
H2052 H 0.19315 0.55543 0.2593 0.0
H2053 H 0.16229 0.60692 0.26743 0.0
H2054 H 0.22134 0.69489 0.29269 0.0
H2055 H 0.20507 0.66133 0.29373 0.0
H2056 H 0.2333 0.61449 0.27522 0.0
C2057 C 0.18025 0.55498 0.26649 0.0
C2058 C 0.17775 0.60828 0.26943 0.0
C2059 C 0.16882 0.53679 0.26777 0.0
C2060 C 0.22521 0.68348 0.28327 0.0
C2061 C 0.21585 0.66431 0.28383 0.0
C2062 C 0.21779 0.61288 0.27345 0.0
C2063 C 0.17481 0.57233 0.27398 0.0
C2064 C 0.18666 0.59183 0.27242 0.0
C2065 C 0.22006 0.64919 0.27151 0.0
C2066 C 0.20877 0.62929 0.27114 0.0
H2067 H 0.13319 0.5524 0.29089 0.0
H2068 H 0.15331 0.58391 0.28933 0.0
H2069 H 0.21422 0.58206 0.27671 0.0
H2070 H 0.25396 0.67593 0.24805 0.0
H2071 H 0.23775 0.64203 0.24936 0.0
C2072 C 0.50877 0.73499 0.42097 0.0
C2073 C 0.52596 0.7447 0.41521 0.0
C2074 C 0.50902 0.72044 0.43396 0.0
C2075 C 0.54011 0.68644 0.45348 0.0
H2076 H 0.50225 0.67814 0.48996 0.0
C2077 C 0.54072 0.62632 0.50681 0.0
C2078 C 0.52311 0.61379 0.50653 0.0
C2079 C 0.54166 0.6441 0.49821 0.0
C2080 C 0.5129 0.6803 0.47984 0.0
H2081 H 0.55692 0.74727 0.41898 0.0
H2082 H 0.55743 0.72235 0.44206 0.0
H2083 H 0.50296 0.70589 0.46998 0.0
H2084 H 0.49255 0.61032 0.498 0.0
H2085 H 0.49412 0.64147 0.4832 0.0
H2086 H 0.55003 0.66086 0.46338 0.0
C2087 C 0.54369 0.72552 0.43618 0.0
C2088 C 0.51326 0.69613 0.4683 0.0
C2089 C 0.54342 0.7399 0.42303 0.0
C2090 C 0.50632 0.61975 0.49842 0.0
C2091 C 0.50721 0.6376 0.49001 0.0
C2092 C 0.53987 0.67076 0.46515 0.0
C2093 C 0.52648 0.71542 0.44166 0.0
C2094 C 0.52672 0.69927 0.45479 0.0
C2095 C 0.52495 0.64973 0.48938 0.0
C2096 C 0.52612 0.66738 0.47828 0.0
H2097 H 0.49509 0.73834 0.41512 0.0
H2098 H 0.49546 0.7128 0.43757 0.0
H2099 H 0.55046 0.68811 0.44302 0.0
H2100 H 0.55388 0.62204 0.51297 0.0
H2101 H 0.55549 0.65326 0.49811 0.0
C2102 C 0.55352 0.25898 0.69859 0.0
C2103 C 0.54648 0.27565 0.69249 0.0
C2104 C 0.5713 0.26082 0.70965 0.0
C2105 C 0.61737 0.29413 0.71915 0.0
H2106 H 0.62697 0.26108 0.76062 0.0
C2107 C 0.69298 0.29949 0.75935 0.0
C2108 C 0.69919 0.28158 0.76256 0.0
C2109 C 0.67367 0.30003 0.75359 0.0
C2110 C 0.62456 0.27034 0.749 0.0
H2111 H 0.55226 0.30737 0.69369 0.0
H2112 H 0.58327 0.31059 0.71303 0.0
H2113 H 0.59434 0.25955 0.74529 0.0
H2114 H 0.68973 0.25029 0.76299 0.0
H2115 H 0.65627 0.25121 0.75268 0.0
H2116 H 0.64757 0.30453 0.72239 0.0
C2117 C 0.57514 0.29608 0.70911 0.0
C2118 C 0.60585 0.26947 0.74023 0.0
C2119 C 0.55733 0.29424 0.69813 0.0
C2120 C 0.6855 0.26436 0.76064 0.0
C2121 C 0.66622 0.26489 0.75482 0.0
C2122 C 0.63607 0.29494 0.72785 0.0
C2123 C 0.58246 0.27937 0.71477 0.0
C2124 C 0.60208 0.2812 0.72506 0.0
C2125 C 0.66011 0.28268 0.75084 0.0
C2126 C 0.63996 0.2829 0.74273 0.0
H2127 H 0.5455 0.24446 0.69446 0.0
H2128 H 0.5766 0.24765 0.7136 0.0
H2129 H 0.61502 0.30316 0.70731 0.0
H2130 H 0.70309 0.31306 0.76081 0.0
H2131 H 0.66941 0.31403 0.751 0.0
C2132 C 0.03366 0.34627 0.92317 0.0
C2133 C 0.02235 0.34021 0.90555 0.0
C2134 C 0.03121 0.36321 0.93395 0.0
C2135 C 0.99505 0.39416 0.94203 0.0
H2136 H 0.03798 0.43325 0.9644 0.0
C2137 C 0.98356 0.46791 0.9774 0.0
C2138 C 0.99575 0.47596 0.99391 0.0
C2139 C 0.98732 0.45151 0.96673 0.0
C2140 C 0.02584 0.42235 0.95849 0.0
H2141 H -0.00016 0.34726 0.88526 0.0
H2142 H 0.99548 0.37669 0.90414 0.0
H2143 H 0.04386 0.40431 0.94564 0.0
H2144 H 0.02121 0.47311 0.01249 0.0
H2145 H 0.02762 0.44418 0.99411 0.0
H2146 H 0.977 0.41181 0.95508 0.0
C2147 C 0.00618 0.36833 0.90965 0.0
C2148 C 0.02923 0.40581 0.9477 0.0
C2149 C 0.00875 0.35154 0.8988 0.0
C2150 C 0.0117 0.46726 0.99968 0.0
C2151 C 0.0154 0.45076 0.98909 0.0
C2152 C 0.99167 0.41056 0.95296 0.0
C2153 C 0.01726 0.37426 0.92741 0.0
C2154 C 0.01385 0.39163 0.93923 0.0
C2155 C 0.00324 0.44265 0.97247 0.0
C2156 C 0.00699 0.42496 0.96121 0.0
H2157 H 0.04425 0.33782 0.92872 0.0
H2158 H 0.03988 0.36739 0.94765 0.0
H2159 H 0.98293 0.3833 0.93596 0.0
H2160 H 0.97124 0.47445 0.97258 0.0
H2161 H 0.97783 0.44593 0.95384 0.0
C2162 C 0.93238 0.77173 0.17739 0.0
C2163 C 0.94977 0.76954 0.18773 0.0
C2164 C 0.91597 0.77228 0.18683 0.0
C2165 C 0.89399 0.75772 0.23054 0.0
H2166 H 0.86181 0.79641 0.21816 0.0
C2167 C 0.83092 0.77007 0.27397 0.0
C2168 C 0.81424 0.77418 0.26371 0.0
C2169 C 0.84742 0.76914 0.26473 0.0
C2170 C 0.87046 0.78532 0.22161 0.0
H2171 H 0.96361 0.76611 0.21607 0.0
H2172 H 0.93486 0.76699 0.23262 0.0
H2173 H 0.89069 0.79556 0.20213 0.0
H2174 H 0.80195 0.78142 0.2361 0.0
H2175 H 0.83033 0.77893 0.21961 0.0
H2176 H 0.87367 0.74732 0.24986 0.0
C2177 C 0.93393 0.76822 0.21717 0.0
C2178 C 0.88707 0.78488 0.21244 0.0
C2179 C 0.9504 0.76782 0.20773 0.0
C2180 C 0.81436 0.77748 0.24411 0.0
C2181 C 0.8308 0.77647 0.23481 0.0
C2182 C 0.87731 0.75808 0.23963 0.0
C2183 C 0.91654 0.77051 0.20683 0.0
C2184 C 0.89901 0.77108 0.21679 0.0
C2185 C 0.8476 0.77238 0.24502 0.0
C2186 C 0.86532 0.77188 0.23527 0.0
H2187 H 0.93142 0.77306 0.16195 0.0
H2188 H 0.90275 0.77383 0.17842 0.0
H2189 H 0.90277 0.74674 0.23401 0.0
H2190 H 0.83127 0.7677 0.28919 0.0
H2191 H 0.86016 0.7663 0.27315 0.0
C2192 C 0.48784 0.33505 0.07962 0.0
C2193 C 0.50389 0.33198 0.0917 0.0
C2194 C 0.48844 0.35208 0.06984 0.0
C2195 C 0.51398 0.40268 0.0723 0.0
H2196 H 0.49243 0.40139 0.01894 0.0
C2197 C 0.52537 0.47033 0.0291 0.0
C2198 C 0.50924 0.47463 0.01806 0.0
C2199 C 0.52469 0.45242 0.0372 0.0
C2200 C 0.49833 0.40197 0.03389 0.0
H2201 H 0.53325 0.34402 0.10278 0.0
H2202 H 0.53435 0.37365 0.0856 0.0
H2203 H 0.49128 0.37089 0.03489 0.0
H2204 H 0.48001 0.46351 0.00605 0.0
H2205 H 0.47872 0.43199 0.0203 0.0
H2206 H 0.52098 0.4337 0.0714 0.0
C2207 C 0.52122 0.36306 0.08388 0.0
C2208 C 0.49768 0.38455 0.04301 0.0
C2209 C 0.52062 0.34606 0.09363 0.0
C2210 C 0.49261 0.46047 0.01457 0.0
C2211 C 0.49191 0.44247 0.02267 0.0
C2212 C 0.51463 0.42006 0.06321 0.0
C2213 C 0.50509 0.36632 0.07201 0.0
C2214 C 0.50558 0.38473 0.06228 0.0
C2215 C 0.50786 0.43841 0.03431 0.0
C2216 C 0.5069 0.41989 0.04389 0.0
H2217 H 0.47475 0.32443 0.07789 0.0
H2218 H 0.47574 0.35429 0.06093 0.0
H2219 H 0.51984 0.40333 0.08728 0.0
H2220 H 0.5385 0.48091 0.0316 0.0
H2221 H 0.53733 0.44954 0.04577 0.0
C2222 C 0.97935 0.28545 0.38749 0.0
C2223 C 0.98224 0.26978 0.39862 0.0
C2224 C 0.96292 0.28405 0.37448 0.0
C2225 C 0.91354 0.25825 0.36419 0.0
H2226 H 0.9178 0.27654 0.3131 0.0
C2227 C 0.84704 0.25303 0.30951 0.0
C2228 C 0.84546 0.27009 0.3001 0.0
C2229 C 0.86443 0.25083 0.31952 0.0
C2230 C 0.91638 0.27146 0.32735 0.0
H2231 H 0.97022 0.24045 0.40506 0.0
H2232 H 0.94141 0.23806 0.38238 0.0
H2233 H 0.94672 0.27739 0.33527 0.0
H2234 H 0.8608 0.29778 0.29289 0.0
H2235 H 0.89112 0.29417 0.31067 0.0
H2236 H 0.88323 0.2528 0.35657 0.0
C2237 C 0.95183 0.25142 0.38376 0.0
C2238 C 0.93291 0.27197 0.34002 0.0
C2239 C 0.96831 0.25278 0.3967 0.0
C2240 C 0.86171 0.28448 0.30005 0.0
C2241 C 0.87908 0.28235 0.31015 0.0
C2242 C 0.89701 0.25783 0.35157 0.0
C2243 C 0.94905 0.26699 0.37243 0.0
C2244 C 0.93163 0.26557 0.35864 0.0
C2245 C 0.88051 0.26571 0.32039 0.0
C2246 C 0.89822 0.26463 0.33308 0.0
H2247 H 0.98988 0.29872 0.38867 0.0
H2248 H 0.96101 0.29638 0.36613 0.0
H2249 H 0.91212 0.25342 0.37854 0.0
H2250 H 0.83469 0.24164 0.30959 0.0
H2251 H 0.86518 0.23767 0.32696 0.0
C2252 C 0.97552 0.72915 0.5818 0.0
C2253 C 0.99351 0.74063 0.58772 0.0
C2254 C 0.97403 0.71239 0.56924 0.0
C2255 C 6e-05 0.68624 0.53524 0.0
H2256 H 0.9719 0.63969 0.55367 0.0
C2257 C 0.01554 0.60874 0.51754 0.0
C2258 C 0.00061 0.5927 0.51683 0.0
C2259 C 0.01215 0.62774 0.52175 0.0
C2260 C 0.97945 0.65254 0.54798 0.0
H2261 H 0.0239 0.74415 0.58451 0.0
H2262 H 0.02131 0.7148 0.5627 0.0
H2263 H 0.97049 0.67161 0.56923 0.0
H2264 H 0.9701 0.58413 0.51848 0.0
H2265 H 0.96413 0.61732 0.52546 0.0
H2266 H 0.00943 0.66704 0.51429 0.0
C2267 C 0.00835 0.71881 0.56762 0.0
C2268 C 0.97867 0.67087 0.55695 0.0
C2269 C 0.00985 0.73552 0.58024 0.0
C2270 C 0.98198 0.59616 0.51918 0.0
C2271 C 0.97856 0.61517 0.52326 0.0
C2272 C 0.00077 0.66788 0.52617 0.0
C2273 C 0.99047 0.70686 0.56231 0.0
C2274 C 0.98933 0.68786 0.55099 0.0
C2275 C 0.99373 0.63111 0.52521 0.0
C2276 C 0.99085 0.65078 0.53276 0.0
H2277 H 0.96266 0.73282 0.58726 0.0
H2278 H 0.96004 0.70355 0.56523 0.0
H2279 H 0.00821 0.69913 0.53018 0.0
H2280 H 0.03008 0.60661 0.51579 0.0
H2281 H 0.02421 0.63962 0.52334 0.0
C2282 C 0.57982 0.78464 0.86683 0.0
C2283 C 0.57283 0.76728 0.87501 0.0
C2284 C 0.58974 0.78404 0.85055 0.0
C2285 C 0.59858 0.75052 0.81015 0.0
H2286 H 0.64399 0.78936 0.80851 0.0
C2287 C 0.66033 0.74118 0.76449 0.0
C2288 C 0.67071 0.75799 0.75795 0.0
C2289 C 0.64476 0.74266 0.77496 0.0
C2290 C 0.63111 0.77865 0.80851 0.0
H2291 H 0.57087 0.7357 0.87275 0.0
H2292 H 0.58871 0.73469 0.84461 0.0
H2293 H 0.62483 0.79127 0.83534 0.0
H2294 H 0.67199 0.78915 0.75545 0.0
H2295 H 0.64462 0.79172 0.77355 0.0
H2296 H 0.60542 0.73752 0.78357 0.0
C2297 C 0.58615 0.74873 0.8505 0.0
C2298 C 0.62014 0.77971 0.82394 0.0
C2299 C 0.57612 0.74932 0.86674 0.0
C2300 C 0.66424 0.77597 0.76043 0.0
C2301 C 0.64869 0.77747 0.7709 0.0
C2302 C 0.60963 0.74941 0.79471 0.0
C2303 C 0.59299 0.76608 0.84217 0.0
C2304 C 0.60391 0.76551 0.8251 0.0
C2305 C 0.63939 0.761 0.77905 0.0
C2306 C 0.62615 0.76334 0.79387 0.0
H2307 H 0.57733 0.79868 0.8728 0.0
H2308 H 0.59462 0.79766 0.84436 0.0
H2309 H 0.58595 0.73956 0.81046 0.0
H2310 H 0.66506 0.72714 0.76273 0.0
H2311 H 0.63793 0.72972 0.7811 0.0
C2312 C 0.41042 0.54179 0.69062 0.0
C2313 C 0.40976 0.55902 0.70201 0.0
C2314 C 0.42275 0.54193 0.6762 0.0
C2315 C 0.44778 0.57183 0.64294 0.0
H2316 H 0.48195 0.53344 0.64399 0.0
C2317 C 0.49913 0.56551 0.58415 0.0
C2318 C 0.50061 0.54637 0.57736 0.0
C2319 C 0.49027 0.56883 0.60085 0.0
C2320 C 0.47239 0.54413 0.64333 0.0
H2321 H 0.421 0.59006 0.70686 0.0
H2322 H 0.44227 0.59039 0.68109 0.0
H2323 H 0.46114 0.53572 0.66955 0.0
H2324 H 0.49423 0.51573 0.58307 0.0
H2325 H 0.47847 0.5214 0.61161 0.0
H2326 H 0.45825 0.57964 0.61625 0.0
C2327 C 0.43336 0.57677 0.68358 0.0
C2328 C 0.46056 0.54548 0.65804 0.0
C2329 C 0.42125 0.57656 0.69829 0.0
C2330 C 0.49352 0.5307 0.58792 0.0
C2331 C 0.48452 0.53398 0.60444 0.0
C2332 C 0.45942 0.57028 0.62801 0.0
C2333 C 0.43444 0.55937 0.67267 0.0
C2334 C 0.44795 0.55912 0.65782 0.0
C2335 C 0.48255 0.55305 0.61103 0.0
C2336 C 0.47164 0.55616 0.62784 0.0
H2337 H 0.40177 0.52805 0.69318 0.0
H2338 H 0.42321 0.52837 0.66782 0.0
H2339 H 0.43811 0.58243 0.64246 0.0
H2340 H 0.50448 0.57793 0.57638 0.0
H2341 H 0.4893 0.58374 0.60565 0.0
C2342 C 0.79956 0.19064 0.94509 0.0
C2343 C 0.79832 0.20017 0.96316 0.0
C2344 C 0.79527 0.19941 0.92804 0.0
C2345 C 0.78906 0.24707 0.90872 0.0
H2346 H 0.7608 0.21391 0.86525 0.0
C2347 C 0.75894 0.27901 0.8397 0.0
C2348 C 0.76172 0.26966 0.82201 0.0
C2349 C 0.76262 0.27045 0.85703 0.0
C2350 C 0.76882 0.22336 0.87719 0.0
H2351 H 0.79189 0.22656 0.97753 0.0
H2352 H 0.78417 0.24181 0.94779 0.0
H2353 H 0.76937 0.19954 0.89519 0.0
H2354 H 0.77005 0.24379 0.80853 0.0
H2355 H 0.7764 0.2288 0.8387 0.0
H2356 H 0.7884 0.27091 0.89067 0.0
C2357 C 0.78871 0.22764 0.94676 0.0
C2358 C 0.77381 0.21511 0.89438 0.0
C2359 C 0.79308 0.21888 0.96383 0.0
C2360 C 0.76771 0.25132 0.82194 0.0
C2361 C 0.7713 0.2427 0.83924 0.0
C2362 C 0.78401 0.25534 0.89154 0.0
C2363 C 0.78952 0.21792 0.92861 0.0
C2364 C 0.78409 0.22683 0.91036 0.0
C2365 C 0.76906 0.25228 0.85704 0.0
C2366 C 0.7739 0.24357 0.87553 0.0
H2367 H 0.80363 0.17624 0.94408 0.0
H2368 H 0.79644 0.19164 0.91438 0.0
H2369 H 0.79719 0.25653 0.92059 0.0
H2370 H 0.75429 0.29315 0.84019 0.0
H2371 H 0.76048 0.27808 0.87045 0.0
C2372 C 0.09371 0.47851 0.20873 0.0
C2373 C 0.08504 0.48239 0.2255 0.0
C2374 C 0.08443 0.48019 0.1905 0.0
C2375 C 0.0477 0.50471 0.16594 0.0
H2376 H 0.05165 0.46818 0.12276 0.0
C2377 C 0.01223 0.51129 0.08874 0.0
C2378 C 0.02344 0.50849 0.07355 0.0
C2379 C 0.01806 0.50679 0.10746 0.0
C2380 C 0.05053 0.4786 0.13463 0.0
H2381 H 0.05967 0.49079 0.23629 0.0
H2382 H 0.04334 0.49367 0.20432 0.0
H2383 H 0.06464 0.46249 0.15514 0.0
H2384 H 0.04953 0.4986 0.06622 0.0
H2385 H 0.0597 0.49096 0.09873 0.0
H2386 H 0.03387 0.521 0.14537 0.0
C2387 C 0.05743 0.48947 0.20533 0.0
C2388 C 0.05797 0.47532 0.1532 0.0
C2389 C 0.06671 0.48771 0.22363 0.0
C2390 C 0.04048 0.50089 0.0775 0.0
C2391 C 0.04628 0.49638 0.09617 0.0
C2392 C 0.04027 0.508 0.14734 0.0
C2393 C 0.06624 0.48583 0.18854 0.0
C2394 C 0.05691 0.48849 0.16906 0.0
C2395 C 0.0352 0.49935 0.11142 0.0
C2396 C 0.04185 0.49514 0.1314 0.0
H2397 H 0.10785 0.47442 0.20968 0.0
H2398 H 0.09177 0.47755 0.17792 0.0
H2399 H 0.04684 0.51526 0.17778 0.0
H2400 H 0.99902 0.51711 0.08625 0.0
H2401 H 0.00908 0.50907 0.11881 0.0
C2402 C 0.75006 0.85355 0.4883 0.0
C2403 C 0.74756 0.87255 0.48399 0.0
C2404 C 0.74716 0.83839 0.47367 0.0
C2405 C 0.72634 0.82492 0.42294 0.0
H2406 H 0.77013 0.79844 0.41931 0.0
C2407 C 0.77049 0.80056 0.36004 0.0
C2408 C 0.75593 0.79044 0.34646 0.0
C2409 C 0.76685 0.80441 0.37903 0.0
C2410 C 0.75767 0.8055 0.42025 0.0
H2411 H 0.73939 0.89051 0.46126 0.0
H2412 H 0.73456 0.86421 0.43574 0.0
H2413 H 0.7673 0.81749 0.44911 0.0
H2414 H 0.72639 0.77575 0.34194 0.0
H2415 H 0.71988 0.78276 0.37531 0.0
H2416 H 0.71747 0.81415 0.3936 0.0
C2417 C 0.73853 0.86089 0.4504 0.0
C2418 C 0.75595 0.81627 0.43735 0.0
C2419 C 0.74153 0.87602 0.46497 0.0
C2420 C 0.73782 0.78364 0.35223 0.0
C2421 C 0.7341 0.78763 0.37125 0.0
C2422 C 0.72805 0.81414 0.40585 0.0
C2423 C 0.74155 0.84199 0.45454 0.0
C2424 C 0.74076 0.82685 0.4385 0.0
C2425 C 0.74854 0.7983 0.38475 0.0
C2426 C 0.74422 0.80515 0.40406 0.0
H2427 H 0.75459 0.85047 0.50291 0.0
H2428 H 0.74956 0.82393 0.47723 0.0
H2429 H 0.71431 0.83269 0.42359 0.0
H2430 H 0.78459 0.80589 0.35591 0.0
H2431 H 0.77816 0.81298 0.389 0.0
C2432 C 0.4085 0.56779 0.81851 0.0
C2433 C 0.4144 0.55958 0.80169 0.0
C2434 C 0.41978 0.56878 0.83614 0.0
C2435 C 0.46838 0.56339 0.85843 0.0
H2436 H 0.44104 0.5536 0.9033 0.0
C2437 C 0.50043 0.53964 0.9313 0.0
C2438 C 0.49559 0.54898 0.94811 0.0
C2439 C 0.49251 0.54363 0.91315 0.0
C2440 C 0.44886 0.55659 0.89094 0.0
H2441 H 0.43677 0.54619 0.78992 0.0
H2442 H 0.45616 0.54707 0.82087 0.0
H2443 H 0.4231 0.55483 0.87212 0.0
H2444 H 0.47949 0.57041 0.9593 0.0
H2445 H 0.46536 0.57711 0.92755 0.0
H2446 H 0.49415 0.56415 0.87743 0.0
C2447 C 0.44309 0.55328 0.82044 0.0
C2448 C 0.43861 0.55739 0.87304 0.0
C2449 C 0.43194 0.55264 0.80271 0.0
C2450 C 0.48338 0.56297 0.94652 0.0
C2451 C 0.47528 0.56676 0.92841 0.0
C2452 C 0.47864 0.56228 0.87635 0.0
C2453 C 0.43705 0.56119 0.83743 0.0
C2454 C 0.4482 0.56082 0.85653 0.0
C2455 C 0.47946 0.55682 0.91161 0.0
C2456 C 0.46894 0.5589 0.89274 0.0
H2457 H 0.39514 0.57349 0.81806 0.0
H2458 H 0.41488 0.57544 0.84877 0.0
H2459 H 0.47628 0.56633 0.84611 0.0
H2460 H 0.50986 0.52883 0.93219 0.0
H2461 H 0.49587 0.53571 0.90039 0.0
C2462 C 0.78632 0.21228 0.06853 0.0
C2463 C 0.80311 0.2053 0.06436 0.0
C2464 C 0.78516 0.22156 0.08665 0.0
C2465 C 0.80608 0.22441 0.13733 0.0
H2466 H 0.77969 0.26888 0.1431 0.0
C2467 C 0.80074 0.26217 0.21244 0.0
C2468 C 0.78311 0.2679 0.2157 0.0
C2469 C 0.80429 0.25596 0.19386 0.0
C2470 C 0.78694 0.25634 0.14178 0.0
H2471 H 0.83204 0.20298 0.07582 0.0
H2472 H 0.83006 0.21925 0.1075 0.0
H2473 H 0.78406 0.25577 0.11089 0.0
H2474 H 0.75544 0.27166 0.20176 0.0
H2475 H 0.76151 0.26059 0.16951 0.0
H2476 H 0.80866 0.22469 0.16816 0.0
C2477 C 0.81771 0.2174 0.09678 0.0
C2478 C 0.78948 0.24885 0.12328 0.0
C2479 C 0.8189 0.2082 0.07859 0.0
C2480 C 0.76923 0.26747 0.19984 0.0
C2481 C 0.77276 0.26121 0.18126 0.0
C2482 C 0.80348 0.23185 0.15582 0.0
C2483 C 0.80074 0.224 0.10111 0.0
C2484 C 0.79896 0.23269 0.12081 0.0
C2485 C 0.79029 0.25523 0.17802 0.0
C2486 C 0.79374 0.24783 0.15831 0.0
H2487 H 0.77388 0.21023 0.0579 0.0
H2488 H 0.77181 0.22625 0.08953 0.0
H2489 H 0.81319 0.21176 0.13598 0.0
H2490 H 0.81182 0.26234 0.22427 0.0
H2491 H 0.81807 0.25177 0.19191 0.0
C2492 C 0.09914 0.50282 0.34502 0.0
C2493 C 0.09066 0.48775 0.33101 0.0
C2494 C 0.09033 0.50647 0.36163 0.0
C2495 C 0.04321 0.49669 0.3817 0.0
H2496 H 0.07411 0.51551 0.43006 0.0
C2497 C 0.01149 0.50155 0.45471 0.0
C2498 C 0.01719 0.51907 0.46649 0.0
C2499 C 0.02055 0.49796 0.43826 0.0
C2500 C 0.06531 0.51042 0.41661 0.0
H2501 H 0.06645 0.46441 0.32361 0.0
H2502 H 0.05134 0.47025 0.35296 0.0
H2503 H 0.08975 0.50787 0.40158 0.0
H2504 H 0.03656 0.54675 0.47002 0.0
H2505 H 0.05296 0.54021 0.44151 0.0
H2506 H 0.01877 0.49875 0.39704 0.0
C2507 C 0.06457 0.47967 0.3509 0.0
C2508 C 0.07425 0.50608 0.40022 0.0
C2509 C 0.07329 0.47618 0.33412 0.0
C2510 C 0.03218 0.53296 0.46147 0.0
C2511 C 0.04148 0.52924 0.44512 0.0
C2512 C 0.03429 0.50078 0.39816 0.0
C2513 C 0.07288 0.49499 0.36484 0.0
C2514 C 0.06334 0.49921 0.38248 0.0
C2515 C 0.03567 0.51172 0.4333 0.0
C2516 C 0.04523 0.50772 0.41578 0.0
H2517 H 0.11245 0.51211 0.34298 0.0
H2518 H 0.09705 0.51863 0.37175 0.0
H2519 H 0.03427 0.49185 0.36829 0.0
H2520 H -2e-05 0.49053 0.45822 0.0
H2521 H 0.01587 0.48426 0.42954 0.0
C2522 C 0.73863 0.88878 0.58766 0.0
C2523 C 0.75517 0.8908 0.57793 0.0
C2524 C 0.73643 0.87573 0.60208 0.0
C2525 C 0.7635 0.84763 0.63483 0.0
H2526 H 0.71457 0.81338 0.6342 0.0
C2527 C 0.75648 0.78355 0.68199 0.0
C2528 C 0.74145 0.78261 0.69378 0.0
C2529 C 0.7566 0.79494 0.66624 0.0
C2530 C 0.72826 0.82291 0.63457 0.0
H2531 H 0.78262 0.8813 0.57599 0.0
H2532 H 0.77878 0.85854 0.60102 0.0
H2533 H 0.71835 0.83854 0.61113 0.0
H2534 H 0.71398 0.79149 0.69739 0.0
H2535 H 0.71429 0.81154 0.66984 0.0
H2536 H 0.77347 0.83208 0.65817 0.0
C2537 C 0.76756 0.8671 0.59769 0.0
C2538 C 0.73041 0.83737 0.62147 0.0
C2539 C 0.76975 0.88011 0.58332 0.0
C2540 C 0.72576 0.79194 0.68856 0.0
C2541 C 0.72593 0.80343 0.67279 0.0
C2542 C 0.76138 0.83319 0.64783 0.0
C2543 C 0.75076 0.86453 0.60701 0.0
C2544 C 0.7481 0.8498 0.62142 0.0
C2545 C 0.74176 0.80568 0.66201 0.0
C2546 C 0.7438 0.8206 0.64775 0.0
H2547 H 0.72715 0.89684 0.58377 0.0
H2548 H 0.72346 0.87427 0.60923 0.0
H2549 H 0.7772 0.8572 0.63538 0.0
H2550 H 0.76864 0.77628 0.68548 0.0
H2551 H 0.76875 0.79604 0.65785 0.0
C2552 C 0.66464 0.41951 0.53773 0.0
C2553 C 0.68157 0.42658 0.52968 0.0
C2554 C 0.64976 0.43059 0.53797 0.0
C2555 C 0.62866 0.46758 0.51242 0.0
H2556 H 0.60906 0.48164 0.56041 0.0
C2557 C 0.57986 0.52613 0.51604 0.0
C2558 C 0.56551 0.52443 0.52862 0.0
C2559 C 0.59339 0.51354 0.51653 0.0
C2560 C 0.61404 0.4776 0.54678 0.0
H2561 H 0.69608 0.45064 0.51537 0.0
H2562 H 0.66992 0.46963 0.51526 0.0
H2563 H 0.63322 0.46022 0.56032 0.0
H2564 H 0.5548 0.50904 0.5524 0.0
H2565 H 0.57758 0.4861 0.55252 0.0
H2566 H 0.60928 0.48428 0.49864 0.0
C2567 C 0.66823 0.45565 0.52157 0.0
C2568 C 0.62798 0.46537 0.54679 0.0
C2569 C 0.68323 0.44481 0.5217 0.0
C2570 C 0.56526 0.51017 0.54205 0.0
C2571 C 0.57861 0.49729 0.54234 0.0
C2572 C 0.61449 0.47946 0.51232 0.0
C2573 C 0.65138 0.44872 0.52977 0.0
C2574 C 0.63564 0.46051 0.52966 0.0
C2575 C 0.59286 0.4987 0.52949 0.0
C2576 C 0.60719 0.48499 0.52955 0.0
H2577 H 0.663 0.40553 0.54404 0.0
H2578 H 0.63689 0.42489 0.54433 0.0
H2579 H 0.63413 0.46384 0.49896 0.0
H2580 H 0.58057 0.53714 0.50566 0.0
H2581 H 0.60439 0.51561 0.50678 0.0
C2582 C 0.22432 0.11458 0.51536 0.0
C2583 C 0.23142 0.12063 0.4982 0.0
C2584 C 0.20797 0.10034 0.51472 0.0
C2585 C 0.16419 0.08117 0.48341 0.0
H2586 H 0.15763 0.04153 0.52017 0.0
C2587 C 0.09113 0.03314 0.48532 0.0
C2588 C 0.08499 0.03134 0.50378 0.0
C2589 C 0.11031 0.04009 0.48323 0.0
C2590 C 0.15923 0.05256 0.50985 0.0
H2591 H 0.22744 0.11605 0.46696 0.0
H2592 H 0.19878 0.09117 0.46585 0.0
H2593 H 0.18917 0.06132 0.51917 0.0
H2594 H 0.09435 0.03448 0.5345 0.0
H2595 H 0.12766 0.04706 0.53088 0.0
H2596 H 0.13423 0.07313 0.47459 0.0
C2597 C 0.2058 0.09755 0.47977 0.0
C2598 C 0.17728 0.06385 0.50926 0.0
C2599 C 0.22222 0.11174 0.48041 0.0
C2600 C 0.09861 0.03568 0.52006 0.0
C2601 C 0.11776 0.0428 0.51798 0.0
C2602 C 0.14616 0.06999 0.48407 0.0
C2603 C 0.19835 0.09193 0.49691 0.0
C2604 C 0.17985 0.07848 0.49625 0.0
C2605 C 0.12373 0.04558 0.49956 0.0
C2606 C 0.14338 0.05578 0.49751 0.0
H2607 H 0.23116 0.12116 0.52928 0.0
H2608 H 0.20244 0.09646 0.52815 0.0
H2609 H 0.16565 0.09254 0.47343 0.0
H2610 H 0.08104 0.02966 0.47246 0.0
H2611 H 0.11452 0.04165 0.46882 0.0
C2612 C 0.17235 0.9396 0.79312 0.0
C2613 C 0.18105 0.95927 0.7934 0.0
C2614 C 0.18325 0.9246 0.79169 0.0
C2615 C 0.2068 0.89565 0.77635 0.0
H2616 H 0.25834 0.90161 0.80232 0.0
C2617 C 0.25665 0.83929 0.76247 0.0
C2618 C 0.26796 0.83464 0.77855 0.0
C2619 C 0.24641 0.85484 0.76402 0.0
C2620 C 0.24391 0.89962 0.79509 0.0
H2621 H 0.20799 0.97874 0.79265 0.0
H2622 H 0.22701 0.95257 0.78977 0.0
H2623 H 0.23956 0.92769 0.80652 0.0
H2624 H 0.27765 0.84249 0.80881 0.0
H2625 H 0.25961 0.86939 0.81168 0.0
H2626 H 0.2109 0.86729 0.76547 0.0
C2627 C 0.21182 0.94869 0.79099 0.0
C2628 C 0.23322 0.91471 0.7973 0.0
C2629 C 0.20092 0.9637 0.79257 0.0
C2630 C 0.26913 0.84591 0.79614 0.0
C2631 C 0.25883 0.86136 0.79775 0.0
C2632 C 0.21744 0.88051 0.77424 0.0
C2633 C 0.20308 0.92894 0.79035 0.0
C2634 C 0.21451 0.9129 0.78799 0.0
C2635 C 0.24731 0.86601 0.78173 0.0
C2636 C 0.23612 0.88229 0.78361 0.0
H2637 H 0.15706 0.93575 0.79383 0.0
H2638 H 0.1761 0.9096 0.79165 0.0
H2639 H 0.19255 0.89386 0.76872 0.0
H2640 H 0.25581 0.83095 0.74868 0.0
H2641 H 0.23793 0.85821 0.75131 0.0
C2642 C 0.28898 0.94279 0.02147 0.0
C2643 C 0.2854 0.92645 0.03231 0.0
C2644 C 0.30774 0.95241 0.0208 0.0
C2645 C 0.35844 0.94492 0.03025 0.0
H2646 H 0.36952 0.00105 0.02645 0.0
C2647 C 0.43555 0.98764 0.03769 0.0
C2648 C 0.43996 -0.00016 0.02287 0.0
C2649 C 0.41654 0.97958 0.03944 0.0
C2650 C 0.36659 0.98535 0.02742 0.0
H2651 H 0.29849 0.90772 0.05143 0.0
H2652 H 0.33107 0.92488 0.0509 0.0
H2653 H 0.33662 0.98528 0.02879 0.0
H2654 H 0.42807 0.01376 0.99863 0.0
H2655 H 0.39466 -0.00011 0.00192 0.0
H2656 H 0.38851 0.94514 0.02931 0.0
C2657 C 0.31956 0.92995 0.04237 0.0
C2658 C 0.34773 0.97627 0.02867 0.0
C2659 C 0.30085 0.92017 0.0428 0.0
C2660 C 0.42501 0.00436 0.01017 0.0
C2661 C 0.40594 0.9965 0.01209 0.0
C2662 C 0.37728 0.95404 0.02928 0.0
C2663 C 0.32331 0.94606 0.03117 0.0
C2664 C 0.3434 0.9559 0.03006 0.0
C2665 C 0.40157 0.98379 0.02656 0.0
C2666 C 0.38154 0.97432 0.02782 0.0
H2667 H 0.27732 0.94788 0.01317 0.0
H2668 H 0.31003 0.96456 0.0118 0.0
H2669 H 0.35568 0.92918 0.03083 0.0
H2670 H 0.44682 0.98397 0.0477 0.0
H2671 H 0.41354 0.96998 0.05084 0.0
C2672 C 0.87336 0.62857 0.7538 0.0
C2673 C 0.8683 0.60992 0.74391 0.0
C2674 C 0.86087 0.64226 0.75237 0.0
C2675 C 0.83533 0.67188 0.74021 0.0
H2676 H 0.7812 0.65177 0.74033 0.0
C2677 C 0.77666 0.72102 0.73035 0.0
C2678 C 0.76154 0.71778 0.74196 0.0
C2679 C 0.78998 0.70818 0.72984 0.0
C2680 C 0.79627 0.65769 0.74042 0.0
H2681 H 0.84653 0.59127 0.7242 0.0
H2682 H 0.82497 0.61519 0.72139 0.0
H2683 H 0.80411 0.62923 0.74096 0.0
H2684 H 0.74831 0.69855 0.76195 0.0
H2685 H 0.77151 0.67621 0.76118 0.0
H2686 H 0.82744 0.70045 0.74029 0.0
C2687 C 0.83836 0.61915 0.73062 0.0
C2688 C 0.80942 0.6447 0.74051 0.0
C2689 C 0.85079 0.60546 0.73211 0.0
C2690 C 0.75979 0.70134 0.7528 0.0
C2691 C 0.77306 0.68851 0.7523 0.0
C2692 C 0.82214 0.68491 0.74016 0.0
C2693 C 0.84307 0.63762 0.74097 0.0
C2694 C 0.82913 0.6516 0.74045 0.0
C2695 C 0.78836 0.69175 0.74083 0.0
C2696 C 0.80244 0.67797 0.74036 0.0
H2697 H 0.88675 0.63242 0.76304 0.0
H2698 H 0.86492 0.65625 0.76069 0.0
H2699 H 0.85037 0.67771 0.73999 0.0
H2700 H 0.7782 0.7335 0.72169 0.0
H2701 H 0.80142 0.711 0.72066 0.0
C2702 C 0.83138 0.62693 0.00795 0.0
C2703 C 0.8174 0.62921 0.02043 0.0
C2704 C 0.84644 0.61712 0.01351 0.0
C2705 C 0.86038 0.58056 0.04489 0.0
H2706 H 0.91186 0.60337 0.03556 0.0
C2707 C 0.9223 0.53728 0.03662 0.0
C2708 C 0.94101 0.54664 0.04309 0.0
C2709 C 0.90681 0.5471 0.03856 0.0
C2710 C 0.89763 0.59694 0.03857 0.0
H2711 H 0.80797 0.62283 0.04837 0.0
H2712 H 0.83429 0.60543 0.05801 0.0
H2713 H 0.88558 0.62148 0.029 0.0
H2714 H 0.95822 0.57286 0.05797 0.0
H2715 H 0.93113 0.59 0.06143 0.0
H2716 H 0.87244 0.55576 0.05401 0.0
C2717 C 0.83357 0.61129 0.04397 0.0
C2718 C 0.88257 0.60721 0.03458 0.0
C2719 C 0.81859 0.62129 0.03848 0.0
C2720 C 0.9439 0.56537 0.05278 0.0
C2721 C 0.92844 0.5752 0.05467 0.0
C2722 C 0.87546 0.57018 0.04874 0.0
C2723 C 0.8477 0.60927 0.03159 0.0
C2724 C 0.86377 0.59898 0.03737 0.0
C2725 C 0.90985 0.56643 0.04694 0.0
C2726 C 0.89418 0.57817 0.04533 0.0
H2727 H 0.83078 0.63288 0.99394 0.0
H2728 H 0.85703 0.61552 0.0036 0.0
H2729 H 0.84598 0.57389 0.04712 0.0
H2730 H 0.91975 0.52281 0.02912 0.0
H2731 H 0.89266 0.54002 0.03236 0.0
C2732 C 0.18144 0.06611 0.76905 0.0
C2733 C 0.17991 0.05849 0.78715 0.0
C2734 C 0.19118 0.08504 0.76766 0.0
C2735 C 0.20573 0.13255 0.79562 0.0
H2736 H 0.23847 0.14426 0.755 0.0
C2737 C 0.24715 0.21025 0.79065 0.0
C2738 C 0.24767 0.21727 0.77219 0.0
C2739 C 0.2404 0.19054 0.7928 0.0
C2740 C 0.22923 0.14128 0.76631 0.0
H2741 H 0.18765 0.06461 0.81796 0.0
H2742 H 0.20471 0.09776 0.81555 0.0
H2743 H 0.22403 0.11044 0.7583 0.0
H2744 H 0.24173 0.2089 0.74148 0.0
H2745 H 0.22965 0.17459 0.74523 0.0
H2746 H 0.21055 0.16335 0.80343 0.0
C2747 C 0.19824 0.08911 0.80245 0.0
C2748 C 0.22099 0.12188 0.76822 0.0
C2749 C 0.18857 0.0701 0.80383 0.0
C2750 C 0.24161 0.204 0.75591 0.0
C2751 C 0.23475 0.18427 0.75807 0.0
C2752 C 0.21389 0.15194 0.79366 0.0
C2753 C 0.19956 0.09683 0.78435 0.0
C2754 C 0.20906 0.11731 0.78284 0.0
C2755 C 0.23388 0.17734 0.77656 0.0
C2756 C 0.22568 0.15658 0.77893 0.0
H2757 H 0.1749 0.05752 0.75593 0.0
H2758 H 0.19173 0.09061 0.75353 0.0
H2759 H 0.19637 0.12957 0.80683 0.0
H2760 H 0.25184 0.22 0.80353 0.0
H2761 H 0.24027 0.18566 0.80724 0.0
C2762 C 0.37847 0.99116 0.26397 0.0
C2763 C 0.36972 0.00451 0.25338 0.0
C2764 C 0.36851 0.97247 0.26593 0.0
C2765 C 0.31948 0.94308 0.26082 0.0
H2766 H 0.34755 0.8995 0.2604 0.0
C2767 C 0.28353 0.86132 0.25529 0.0
C2768 C 0.29179 0.8495 0.26819 0.0
C2769 C 0.29243 0.88057 0.25375 0.0
C2770 C 0.33956 0.91156 0.26068 0.0
H2771 H 0.3437 0.00882 0.23652 0.0
H2772 H 0.32645 0.97596 0.23943 0.0
H2773 H 0.36424 0.93234 0.2568 0.0
H2774 H 0.31562 0.84841 0.2897 0.0
H2775 H 0.3313 0.88195 0.28683 0.0
H2776 H 0.29468 0.92201 0.26427 0.0
C2777 C 0.34087 0.98004 0.24661 0.0
C2778 C 0.34912 0.93041 0.2587 0.0
C2779 C 0.35078 0.99884 0.24482 0.0
C2780 C 0.30897 0.85724 0.27964 0.0
C2781 C 0.31798 0.87637 0.27793 0.0
C2782 C 0.30986 0.92415 0.26259 0.0
C2783 C 0.34963 0.96659 0.25715 0.0
C2784 C 0.33925 0.94646 0.25889 0.0
C2785 C 0.30986 0.88819 0.2649 0.0
C2786 C 0.31985 0.90824 0.26268 0.0
H2787 H 0.39301 0.9952 0.27088 0.0
H2788 H 0.37561 0.96269 0.2745 0.0
H2789 H 0.31146 0.9551 0.26131 0.0
H2790 H 0.27028 0.85564 0.24629 0.0
H2791 H 0.28594 0.88934 0.24351 0.0
C2792 C 0.51664 0.32722 0.61375 0.0
C2793 C 0.4992 0.31492 0.61523 0.0
C2794 C 0.51735 0.34276 0.60188 0.0
C2795 C 0.48651 0.37464 0.57835 0.0
H2796 H 0.53114 0.39024 0.55144 0.0
C2797 C 0.49224 0.4405 0.53116 0.0
C2798 C 0.50938 0.4539 0.53526 0.0
C2799 C 0.49059 0.42194 0.53829 0.0
C2800 C 0.5186 0.38606 0.55889 0.0
H2801 H 0.46889 0.30898 0.60513 0.0
H2802 H 0.47015 0.33591 0.58408 0.0
H2803 H 0.5288 0.36066 0.56887 0.0
H2804 H 0.53847 0.45828 0.54924 0.0
H2805 H 0.53568 0.42588 0.56153 0.0
H2806 H 0.4764 0.40015 0.56845 0.0
C2807 C 0.48324 0.33379 0.59238 0.0
C2808 C 0.51727 0.36916 0.56895 0.0
C2809 C 0.48252 0.31829 0.60436 0.0
C2810 C 0.52509 0.44819 0.54587 0.0
C2811 C 0.52351 0.42962 0.55283 0.0
C2812 C 0.48778 0.39147 0.56818 0.0
C2813 C 0.50065 0.34631 0.59109 0.0
C2814 C 0.50136 0.36341 0.5791 0.0
C2815 C 0.50613 0.41643 0.54946 0.0
C2816 C 0.50398 0.39753 0.55861 0.0
H2817 H 0.52973 0.32504 0.622 0.0
H2818 H 0.53094 0.35228 0.60153 0.0
H2819 H 0.47418 0.37086 0.5862 0.0
H2820 H 0.47992 0.44457 0.52301 0.0
H2821 H 0.47708 0.41201 0.53531 0.0
C2822 C 0.46262 0.75665 0.33586 0.0
C2823 C 0.47644 0.77327 0.33444 0.0
C2824 C 0.44464 0.75427 0.32507 0.0
C2825 C 0.41135 0.78385 0.30295 0.0
H2826 H 0.38322 0.73399 0.28001 0.0
C2827 C 0.33523 0.77888 0.26521 0.0
C2828 C 0.32155 0.76308 0.26923 0.0
C2829 C 0.35478 0.77894 0.27003 0.0
C2830 C 0.39082 0.748 0.28645 0.0
H2831 H 0.48259 0.79997 0.31996 0.0
H2832 H 0.45126 0.79579 0.3011 0.0
H2833 H 0.41638 0.73617 0.29423 0.0
H2834 H 0.31776 0.73456 0.28073 0.0
H2835 H 0.35185 0.73484 0.28957 0.0
H2836 H 0.38582 0.79564 0.29587 0.0
C2837 C 0.45423 0.78471 0.31071 0.0
C2838 C 0.40984 0.74925 0.29457 0.0
C2839 C 0.47221 0.78704 0.32143 0.0
C2840 C 0.32793 0.74692 0.27735 0.0
C2841 C 0.34752 0.74707 0.28238 0.0
C2842 C 0.39237 0.78259 0.29497 0.0
C2843 C 0.44008 0.7685 0.31271 0.0
C2844 C 0.42028 0.76718 0.30301 0.0
C2845 C 0.36118 0.76332 0.27924 0.0
C2846 C 0.38178 0.76465 0.2867 0.0
H2847 H 0.46545 0.74578 0.34577 0.0
H2848 H 0.43404 0.7417 0.32706 0.0
H2849 H 0.41884 0.79781 0.30966 0.0
H2850 H 0.33082 0.79148 0.25874 0.0
H2851 H 0.36488 0.79148 0.26692 0.0
C2852 C 0.98952 0.6986 0.12805 0.0
C2853 C 0.00025 0.71657 0.12439 0.0
C2854 C 0.99101 0.68137 0.11721 0.0
C2855 C 0.0239 0.66045 0.08714 0.0
H2856 H 0.97984 0.62004 0.07135 0.0
C2857 C 0.00351 0.58399 0.0349 0.0
C2858 C 0.01953 0.57531 0.0405 0.0
C2859 C 0.00043 0.60106 0.04499 0.0
C2860 C 0.99226 0.63126 0.07553 0.0
H2861 H 0.02054 0.73069 0.1062 0.0
H2862 H 0.02294 0.70075 0.08714 0.0
H2863 H 0.97551 0.65047 0.08865 0.0
H2864 H 0.0448 0.57749 0.06099 0.0
H2865 H 0.03944 0.6072 0.07866 0.0
H2866 H 0.04062 0.64149 0.07378 0.0
C2867 C 0.01364 0.69985 0.0986 0.0
C2868 C 0.98981 0.64859 0.08562 0.0
C2869 C 0.01219 0.71704 0.10945 0.0
C2870 C 0.0324 0.58396 0.05632 0.0
C2871 C 0.02935 0.60101 0.06638 0.0
C2872 C 0.02634 0.64316 0.07708 0.0
C2873 C 0.00324 0.68177 0.10247 0.0
C2874 C 0.00562 0.66339 0.09155 0.0
C2875 C 0.0134 0.60984 0.06078 0.0
C2876 C 0.01058 0.62832 0.07122 0.0
H2877 H 0.98021 0.6978 0.13949 0.0
H2878 H 0.98294 0.66767 0.1207 0.0
H2879 H 0.03643 0.67141 0.09169 0.0
H2880 H 0.99348 0.57769 0.0226 0.0
H2881 H 0.98812 0.60761 0.04017 0.0
C2882 C 0.09251 0.30227 0.85508 0.0
C2883 C 0.07558 0.28967 0.84756 0.0
C2884 C 0.10966 0.30152 0.84694 0.0
C2885 C 0.13332 0.26809 0.81816 0.0
H2886 H 0.16728 0.31515 0.8083 0.0
C2887 C 0.1951 0.26544 0.77111 0.0
C2888 C 0.21244 0.27827 0.77634 0.0
C2889 C 0.17907 0.26709 0.78081 0.0
C2890 C 0.15811 0.30187 0.81123 0.0
H2891 H 0.06325 0.26666 0.8254 0.0
H2892 H 0.09312 0.26536 0.81119 0.0
H2893 H 0.13789 0.31786 0.82309 0.0
H2894 H 0.22666 0.30296 0.79573 0.0
H2895 H 0.1987 0.30561 0.81308 0.0
H2896 H 0.15344 0.25206 0.80642 0.0
C2897 C 0.09321 0.27569 0.8235 0.0
C2898 C 0.14124 0.30343 0.81966 0.0
C2899 C 0.07607 0.27653 0.83155 0.0
C2900 C 0.2135 0.29277 0.79153 0.0
C2901 C 0.19743 0.29439 0.80132 0.0
C2902 C 0.15018 0.26653 0.80985 0.0
C2903 C 0.11024 0.28804 0.8312 0.0
C2904 C 0.12855 0.28655 0.82298 0.0
C2905 C 0.17999 0.28158 0.79603 0.0
C2906 C 0.16267 0.28338 0.80603 0.0
H2907 H 0.09257 0.31254 0.86743 0.0
H2908 H 0.12257 0.31114 0.85326 0.0
H2909 H 0.12403 0.25481 0.82091 0.0
H2910 H 0.19387 0.25418 0.75939 0.0
H2911 H 0.16582 0.25719 0.77611 0.0
C2912 C 0.51923 0.70935 0.95309 0.0
C2913 C 0.53655 0.72211 0.9524 0.0
C2914 C 0.51867 0.69306 0.96386 0.0
C2915 C 0.54924 0.65997 0.98471 0.0
H2916 H 0.505 0.64345 0.01193 0.0
C2917 C 0.54303 0.59328 0.03082 0.0
C2918 C 0.52558 0.58029 0.02737 0.0
C2919 C 0.54504 0.61148 0.02307 0.0
C2920 C 0.51739 0.64786 0.00432 0.0
H2921 H 0.56684 0.72807 0.96262 0.0
H2922 H 0.56582 0.69961 0.98178 0.0
H2923 H 0.50763 0.67414 0.99635 0.0
H2924 H 0.49639 0.57611 0.01376 0.0
H2925 H 0.49988 0.60792 5e-05 0.0
H2926 H 0.55893 0.6336 0.9927 0.0
C2927 C 0.55273 0.70209 0.97374 0.0
C2928 C 0.5189 0.6654 0.99538 0.0
C2929 C 0.55331 0.71841 0.96286 0.0
C2930 C 0.51006 0.58583 0.01637 0.0
C2931 C 0.512 0.60407 0.00872 0.0
C2932 C 0.54778 0.64248 0.99377 0.0
C2933 C 0.53539 0.68922 0.97429 0.0
C2934 C 0.53467 0.67148 0.9852 0.0
C2935 C 0.52954 0.61702 0.01193 0.0
C2936 C 0.5317 0.63613 0.00339 0.0
H2937 H 0.50609 0.71179 0.9451 0.0
H2938 H 0.50516 0.68325 0.96367 0.0
H2939 H 0.56145 0.66412 0.97678 0.0
H2940 H 0.55521 0.58927 0.03929 0.0
H2941 H 0.55866 0.62126 0.02587 0.0
C2942 C 0.0591 0.81292 0.67334 0.0
C2943 C 0.04793 0.79427 0.66908 0.0
C2944 C 0.07602 0.81536 0.68582 0.0
C2945 C 0.1018 0.79266 0.7241 0.0
H2946 H 0.14773 0.81785 0.70396 0.0
C2947 C 0.17677 0.77884 0.75115 0.0
C2948 C 0.19259 0.79368 0.75082 0.0
C2949 C 0.15849 0.78171 0.74407 0.0
C2950 C 0.13505 0.81118 0.71007 0.0
H2951 H 0.04529 0.76367 0.6749 0.0
H2952 H 0.07481 0.76796 0.69683 0.0
H2953 H 0.11652 0.81781 0.68623 0.0
H2954 H 0.20183 0.82349 0.7439 0.0
H2955 H 0.16972 0.82876 0.73189 0.0
H2956 H 0.12027 0.78585 0.74785 0.0
C2957 C 0.07046 0.78067 0.69054 0.0
C2958 C 0.11717 0.81111 0.69985 0.0
C2959 C 0.05368 0.7782 0.67789 0.0
C2960 C 0.18981 0.81175 0.74408 0.0
C2961 C 0.17146 0.81472 0.73716 0.0
C2962 C 0.11966 0.79292 0.73444 0.0
C2963 C 0.08189 0.79923 0.69443 0.0
C2964 C 0.10045 0.80141 0.70652 0.0
C2965 C 0.15565 0.79957 0.7367 0.0
C2966 C 0.13654 0.80171 0.72727 0.0
H2967 H 0.05496 0.82558 0.66676 0.0
H2968 H 0.08457 0.82982 0.68866 0.0
H2969 H 0.08906 0.78533 0.72966 0.0
H2970 H 0.1786 0.76476 0.75629 0.0
H2971 H 0.14673 0.76961 0.74367 0.0
C2972 C 0.04924 0.34335 0.4518 0.0
C2973 C 0.04594 0.32681 0.46242 0.0
C2974 C 0.04904 0.36195 0.46043 0.0
C2975 C 0.05302 0.39247 0.50528 0.0
H2976 H 0.01478 0.418 0.47812 0.0
C2977 C 0.04433 0.47437 0.51694 0.0
C2978 C 0.02545 0.47785 0.51787 0.0
C2979 C 0.0479 0.45534 0.51323 0.0
C2980 C 0.02543 0.41098 0.4859 0.0
H2981 H 0.04114 0.31682 0.49067 0.0
H2982 H 0.04111 0.34961 0.50588 0.0
H2983 H 0.02056 0.38625 0.46516 0.0
H2984 H 0.99565 0.46404 0.51659 0.0
H2985 H 0.00194 0.43091 0.50974 0.0
H2986 H 0.0581 0.41759 0.52583 0.0
C2987 C 0.0437 0.34803 0.49086 0.0
C2988 C 0.02885 0.39296 0.47841 0.0
C2989 C 0.04365 0.32933 0.48215 0.0
C2990 C 0.01035 0.46187 0.51595 0.0
C2991 C 0.01391 0.44292 0.51197 0.0
C2992 C 0.04984 0.41077 0.51262 0.0
C2993 C 0.04579 0.36437 0.47988 0.0
C2994 C 0.04266 0.38357 0.48801 0.0
C2995 C 0.03264 0.43958 0.51013 0.0
C2996 C 0.03593 0.42007 0.503 0.0
H2997 H 0.05111 0.34185 0.43658 0.0
H2998 H 0.05082 0.37441 0.45175 0.0
H2999 H 0.06373 0.38542 0.51289 0.0
H3000 H 0.05627 0.48638 0.51848 0.0
H3001 H 0.06246 0.45308 0.51177 0.0
C3002 C 0.44315 0.29299 0.15488 0.0
C3003 C 0.4579 0.2821 0.15885 0.0
C3004 C 0.42839 0.29263 0.16674 0.0
C3005 C 0.4033 0.26193 0.20028 0.0
H3006 H 0.38123 0.30844 0.21177 0.0
C3007 C 0.33784 0.28792 0.24208 0.0
C3008 C 0.32295 0.27296 0.23422 0.0
C3009 C 0.35607 0.28902 0.23585 0.0
C3010 C 0.3874 0.29537 0.20895 0.0
H3011 H 0.46907 0.26259 0.1785 0.0
H3012 H 0.44327 0.262 0.19931 0.0
H3013 H 0.41033 0.31113 0.19553 0.0
H3014 H 0.31536 0.24708 0.21427 0.0
H3015 H 0.34706 0.24909 0.20322 0.0
H3016 H 0.38028 0.24615 0.21356 0.0
C3017 C 0.44302 0.27067 0.18692 0.0
C3018 C 0.40393 0.29689 0.19945 0.0
C3019 C 0.4578 0.27104 0.17505 0.0
C3020 C 0.32663 0.2588 0.22049 0.0
C3021 C 0.34482 0.25986 0.2143 0.0
C3022 C 0.38677 0.26042 0.20976 0.0
C3023 C 0.42811 0.28136 0.18282 0.0
C3024 C 0.41181 0.28012 0.19466 0.0
C3025 C 0.35967 0.27512 0.22173 0.0
C3026 C 0.37843 0.27705 0.21382 0.0
H3027 H 0.44288 0.30165 0.14247 0.0
H3028 H 0.41695 0.30079 0.16304 0.0
H3029 H 0.40898 0.24873 0.19668 0.0
H3030 H 0.33533 0.29894 0.25278 0.0
H3031 H 0.36731 0.30082 0.24195 0.0
C3032 C 0.61013 0.5232 0.33991 0.0
C3033 C 0.61988 0.50727 0.33759 0.0
C3034 C 0.59873 0.52452 0.35502 0.0
C3035 C 0.57287 0.49517 0.38972 0.0
H3036 H 0.5763 0.54551 0.41836 0.0
C3037 C 0.54092 0.50489 0.46235 0.0
C3038 C 0.53312 0.52197 0.46607 0.0
C3039 C 0.55008 0.50236 0.44573 0.0
C3040 C 0.57493 0.5314 0.41034 0.0
H3041 H 0.62528 0.48014 0.34919 0.0
H3042 H 0.60546 0.48252 0.37572 0.0
H3043 H 0.59532 0.5426 0.39144 0.0
H3044 H 0.52803 0.54935 0.45475 0.0
H3045 H 0.54366 0.54475 0.42564 0.0
H3046 H 0.55252 0.48397 0.40873 0.0
C3047 C 0.60648 0.4939 0.36573 0.0
C3048 C 0.58587 0.52973 0.39492 0.0
C3049 C 0.61792 0.4926 0.35062 0.0
C3050 C 0.534 0.53608 0.45242 0.0
C3051 C 0.54308 0.53351 0.43578 0.0
C3052 C 0.56187 0.49685 0.40515 0.0
C3053 C 0.59681 0.50992 0.36814 0.0
C3054 C 0.585 0.51161 0.38444 0.0
C3055 C 0.55159 0.51682 0.43243 0.0
C3056 C 0.56279 0.51499 0.41565 0.0
H3057 H 0.61129 0.53469 0.33004 0.0
H3058 H 0.59127 0.53692 0.35633 0.0
H3059 H 0.5717 0.48105 0.38177 0.0
H3060 H 0.54063 0.49379 0.47262 0.0
H3061 H 0.55663 0.48942 0.4437 0.0
C3062 C 0.24422 0.87329 0.09834 0.0
C3063 C 0.23158 0.86507 0.08212 0.0
C3064 C 0.24631 0.8629 0.11475 0.0
C3065 C 0.2223 0.82281 0.1405 0.0
H3066 H 0.27358 0.82143 0.16443 0.0
C3067 C 0.23604 0.77142 0.20053 0.0
C3068 C 0.25084 0.7779 0.2154 0.0
C3069 C 0.23359 0.78235 0.18456 0.0
C3070 C 0.25913 0.82189 0.15817 0.0
H3071 H 0.21102 0.83958 0.07051 0.0
H3072 H 0.21453 0.82145 0.09931 0.0
H3073 H 0.26927 0.83988 0.13618 0.0
H3074 H 0.27485 0.80081 0.22517 0.0
H3075 H 0.27019 0.8204 0.19771 0.0
H3076 H 0.21207 0.80512 0.1626 0.0
C3077 C 0.22281 0.83597 0.0993 0.0
C3078 C 0.25668 0.83243 0.14189 0.0
C3079 C 0.22085 0.84632 0.08279 0.0
C3080 C 0.26317 0.79558 0.21403 0.0
C3081 C 0.26062 0.80666 0.19813 0.0
C3082 C 0.22473 0.81242 0.15689 0.0
C3083 C 0.2357 0.84409 0.11542 0.0
C3084 C 0.23824 0.83295 0.13281 0.0
C3085 C 0.2458 0.80017 0.18312 0.0
C3086 C 0.24319 0.81171 0.16592 0.0
H3087 H 0.25271 0.88772 0.0983 0.0
H3088 H 0.25618 0.86966 0.12699 0.0
H3089 H 0.2079 0.82315 0.13401 0.0
H3090 H 0.22637 0.75778 0.20115 0.0
H3091 H 0.22227 0.77661 0.1732 0.0
C3092 C 0.92409 0.57382 0.8245 0.0
C3093 C 0.93271 0.56884 0.808 0.0
C3094 C 0.93284 0.57202 0.84297 0.0
C3095 C 0.96745 0.54537 0.86841 0.0
H3096 H 0.9645 0.58253 0.91139 0.0
C3097 C 0.00234 0.53823 0.94567 0.0
C3098 C 0.99138 0.54163 0.96092 0.0
C3099 C 0.99659 0.54269 0.92692 0.0
C3100 C 0.96532 0.57193 0.89958 0.0
H3101 H 0.95755 0.55851 0.79795 0.0
H3102 H 0.97299 0.55555 0.83025 0.0
H3103 H 0.95229 0.58865 0.87887 0.0
H3104 H 0.9658 0.55254 0.96831 0.0
H3105 H 0.95576 0.56015 0.93572 0.0
H3106 H 0.98027 0.52853 0.88917 0.0
C3107 C 0.95931 0.56062 0.82889 0.0
C3108 C 0.95832 0.57545 0.88091 0.0
C3109 C 0.95054 0.56246 0.81039 0.0
C3110 C 0.97464 0.54976 0.95697 0.0
C3111 C 0.96893 0.55426 0.93826 0.0
C3112 C 0.97446 0.54186 0.88709 0.0
C3113 C 0.95045 0.56517 0.84542 0.0
C3114 C 0.95908 0.5621 0.86511 0.0
C3115 C 0.97978 0.55071 0.92297 0.0
C3116 C 0.97329 0.55498 0.90295 0.0
H3117 H 0.91032 0.57872 0.82316 0.0
H3118 H 0.92547 0.57542 0.85532 0.0
H3119 H 0.96803 0.53463 0.85665 0.0
H3120 H 0.01531 0.53199 0.94815 0.0
H3121 H 0.00539 0.53995 0.91553 0.0
C3122 C 0.25305 0.21723 0.54129 0.0
C3123 C 0.27111 0.21192 0.53957 0.0
C3124 C 0.25059 0.23051 0.55631 0.0
C3125 C 0.27698 0.26479 0.59698 0.0
H3126 H 0.23359 0.24433 0.62375 0.0
C3127 C 0.277 0.27097 0.67904 0.0
C3128 C 0.26004 0.27339 0.68694 0.0
C3129 C 0.27732 0.26923 0.65907 0.0
C3130 C 0.24554 0.25057 0.61629 0.0
H3131 H 0.30097 0.21712 0.55138 0.0
H3132 H 0.29662 0.23971 0.57796 0.0
H3133 H 0.23592 0.23098 0.59131 0.0
H3134 H 0.23036 0.2768 0.68048 0.0
H3135 H 0.23083 0.27349 0.64543 0.0
H3136 H 0.28714 0.2835 0.62268 0.0
C3137 C 0.28439 0.23402 0.56757 0.0
C3138 C 0.24687 0.24294 0.59763 0.0
C3139 C 0.28687 0.22091 0.55243 0.0
C3140 C 0.24357 0.27479 0.67466 0.0
C3141 C 0.24384 0.27292 0.65466 0.0
C3142 C 0.27571 0.27232 0.61574 0.0
C3143 C 0.26611 0.23854 0.57 0.0
C3144 C 0.26294 0.24947 0.58802 0.0
C3145 C 0.26063 0.26977 0.6467 0.0
C3146 C 0.26029 0.26479 0.62577 0.0
H3147 H 0.24071 0.2107 0.53136 0.0
H3148 H 0.23641 0.23398 0.55758 0.0
H3149 H 0.28934 0.27041 0.5898 0.0
H3150 H 0.28991 0.26996 0.68828 0.0
H3151 H 0.29038 0.26654 0.65333 0.0
C3152 C 0.59595 0.48708 0.24188 0.0
C3153 C 0.61585 0.49195 0.24138 0.0
C3154 C 0.58359 0.48427 0.22474 0.0
C3155 C 0.56147 0.49417 0.18819 0.0
H3156 H 0.57725 0.47329 0.14057 0.0
C3157 C 0.53683 0.51826 0.11443 0.0
C3158 C 0.53496 0.5052 0.09796 0.0
C3159 C 0.54316 0.51263 0.13244 0.0
C3160 C 0.57236 0.47882 0.15374 0.0
H3161 H 0.63848 0.49729 0.22263 0.0
H3162 H 0.61702 0.49287 0.1929 0.0
H3163 H 0.59523 0.4697 0.17122 0.0
H3164 H 0.53725 0.47576 0.08733 0.0
H3165 H 0.54813 0.46574 0.11898 0.0
H3166 H 0.53864 0.50335 0.1707 0.0
C3167 C 0.61088 0.4908 0.20639 0.0
C3168 C 0.58285 0.47699 0.17131 0.0
C3169 C 0.62319 0.49352 0.22347 0.0
C3170 C 0.53874 0.48613 0.09986 0.0
C3171 C 0.54502 0.48044 0.11794 0.0
C3172 C 0.5509 0.49587 0.17063 0.0
C3173 C 0.59091 0.48633 0.20681 0.0
C3174 C 0.57793 0.48527 0.18866 0.0
C3175 C 0.54766 0.49377 0.13438 0.0
C3176 C 0.55664 0.48885 0.15315 0.0
H3177 H 0.58992 0.48566 0.25549 0.0
H3178 H 0.5683 0.48065 0.22554 0.0
H3179 H 0.55729 0.50076 0.20126 0.0
H3180 H 0.53399 0.53306 0.11333 0.0
H3181 H 0.54532 0.52339 0.1447 0.0
C3182 C 0.23545 0.87733 0.96214 0.0
C3183 C 0.23055 0.86624 0.97767 0.0
C3184 C 0.23829 0.86816 0.94448 0.0
C3185 C 0.22713 0.8217 0.9141 0.0
H3186 H 0.2721 0.84284 0.8899 0.0
C3187 C 0.23853 0.8003 0.83471 0.0
C3188 C 0.257 0.79723 0.831 0.0
C3189 C 0.23511 0.80738 0.85306 0.0
C3190 C 0.25955 0.83667 0.89652 0.0
H3191 H 0.22434 0.83676 0.98666 0.0
H3192 H 0.229 0.82067 0.95561 0.0
H3193 H 0.26625 0.85785 0.92087 0.0
H3194 H 0.28632 0.79904 0.8439 0.0
H3195 H 0.28034 0.81153 0.87585 0.0
H3196 H 0.22037 0.80062 0.8896 0.0
C3197 C 0.2307 0.8365 0.95718 0.0
C3198 C 0.25609 0.84539 0.91418 0.0
C3199 C 0.22808 0.8457 0.97497 0.0
C3200 C 0.2719 0.80115 0.84621 0.0
C3201 C 0.26851 0.80845 0.86451 0.0
C3202 C 0.23046 0.81312 0.89629 0.0
C3203 C 0.2361 0.84765 0.94181 0.0
C3204 C 0.23982 0.83806 0.92317 0.0
C3205 C 0.25011 0.81179 0.86812 0.0
C3206 C 0.24672 0.82052 0.88728 0.0
H3207 H 0.23748 0.89318 0.96373 0.0
H3208 H 0.24219 0.87716 0.93287 0.0
H3209 H 0.21443 0.81577 0.92061 0.0
H3210 H 0.22671 0.79746 0.82336 0.0
H3211 H 0.22081 0.80994 0.85531 0.0
C3212 C 0.94673 0.57948 0.70118 0.0
C3213 C 0.93125 0.56496 0.70398 0.0
C3214 C 0.95652 0.57806 0.68475 0.0
C3215 C 0.96672 0.54205 0.64777 0.0
H3216 H 0.97834 0.58663 0.61753 0.0
C3217 C 0.99539 0.53399 0.57346 0.0
C3218 C 0.0089 0.54934 0.56836 0.0
C3219 C 0.98607 0.53619 0.59006 0.0
C3220 C 0.97548 0.57409 0.62594 0.0
H3221 H 0.91388 0.53761 0.69178 0.0
H3222 H 0.93101 0.53507 0.66334 0.0
H3223 H 0.96232 0.59017 0.64666 0.0
H3224 H 0.02357 0.57889 0.57677 0.0
H3225 H 0.00783 0.58257 0.60603 0.0
H3226 H 0.98008 0.52599 0.62737 0.0
C3227 C 0.93564 0.54751 0.6738 0.0
C3228 C 0.96626 0.57613 0.64263 0.0
C3229 C 0.92576 0.54904 0.69006 0.0
C3230 C 0.01312 0.56684 0.58031 0.0
C3231 C 0.00395 0.569 0.59699 0.0
C3232 C 0.9761 0.54004 0.63121 0.0
C3233 C 0.95115 0.56196 0.67096 0.0
C3234 C 0.96163 0.56009 0.65364 0.0
C3235 C 0.99025 0.55371 0.6021 0.0
C3236 C 0.9805 0.55598 0.61996 0.0
H3237 H 0.95128 0.59192 0.71166 0.0
H3238 H 0.96849 0.58937 0.683 0.0
H3239 H 0.9636 0.52948 0.65611 0.0
H3240 H 0.99217 0.5202 0.56475 0.0
H3241 H 0.97548 0.52415 0.59334 0.0
C3242 C 0.26578 0.20587 0.44396 0.0
C3243 C 0.28226 0.19976 0.4526 0.0
C3244 C 0.26706 0.21835 0.4291 0.0
C3245 C 0.29578 0.23239 0.39038 0.0
H3246 H 0.26355 0.27246 0.38619 0.0
C3247 C 0.28474 0.26852 0.31967 0.0
C3248 C 0.26523 0.26725 0.31298 0.0
C3249 C 0.29028 0.26595 0.33895 0.0
C3250 C 0.27271 0.26141 0.38721 0.0
H3251 H 0.31305 0.20197 0.45263 0.0
H3252 H 0.31527 0.22375 0.42629 0.0
H3253 H 0.26706 0.25648 0.41624 0.0
H3254 H 0.2364 0.26385 0.32165 0.0
H3255 H 0.24604 0.25911 0.35511 0.0
H3256 H 0.3007 0.23656 0.36109 0.0
C3257 C 0.30138 0.21885 0.43112 0.0
C3258 C 0.27471 0.25227 0.40437 0.0
C3259 C 0.3001 0.2064 0.44612 0.0
C3260 C 0.25153 0.26476 0.32626 0.0
C3261 C 0.25709 0.26221 0.34552 0.0
C3262 C 0.29378 0.24152 0.37321 0.0
C3263 C 0.28485 0.22497 0.4225 0.0
C3264 C 0.28568 0.23716 0.40585 0.0
C3265 C 0.27644 0.26212 0.35191 0.0
C3266 C 0.28165 0.2556 0.37122 0.0
H3267 H 0.25182 0.20102 0.44868 0.0
H3268 H 0.25401 0.22248 0.42247 0.0
H3269 H 0.30423 0.22071 0.39107 0.0
H3270 H 0.2957 0.27064 0.30987 0.0
H3271 H 0.30533 0.26622 0.34355 0.0
C3272 C 0.36633 0.64649 0.50572 0.0
C3273 C 0.35042 0.63981 0.5155 0.0
C3274 C 0.38167 0.63602 0.50544 0.0
C3275 C 0.4058 0.60149 0.53235 0.0
H3276 H 0.42292 0.58548 0.48363 0.0
C3277 C 0.45423 0.54274 0.52807 0.0
C3278 C 0.46803 0.54401 0.51489 0.0
C3279 C 0.44077 0.55541 0.52784 0.0
C3280 C 0.41862 0.59009 0.49742 0.0
H3281 H 0.33828 0.61715 0.53293 0.0
H3282 H 0.3652 0.59923 0.53288 0.0
H3283 H 0.39836 0.60644 0.4841 0.0
H3284 H 0.47791 0.5588 0.49042 0.0
H3285 H 0.45509 0.58177 0.49059 0.0
H3286 H 0.42615 0.58564 0.54584 0.0
C3287 C 0.36577 0.61245 0.52529 0.0
C3288 C 0.40447 0.60206 0.49765 0.0
C3289 C 0.35032 0.62267 0.52526 0.0
C3290 C 0.46781 0.55793 0.50114 0.0
C3291 C 0.45449 0.57087 0.50106 0.0
C3292 C 0.42012 0.5898 0.53217 0.0
C3293 C 0.38156 0.61891 0.51529 0.0
C3294 C 0.39767 0.60759 0.51509 0.0
C3295 C 0.44082 0.56987 0.51452 0.0
C3296 C 0.42649 0.58356 0.51468 0.0
H3297 H 0.36677 0.65962 0.49801 0.0
H3298 H 0.39369 0.64138 0.49768 0.0
H3299 H 0.40105 0.60576 0.54604 0.0
H3300 H 0.45389 0.532 0.53872 0.0
H3301 H 0.43022 0.55369 0.53808 0.0
C3302 C 0.81974 0.94962 0.50814 0.0
C3303 C 0.809 0.95376 0.5233 0.0
C3304 C 0.83825 0.95975 0.50764 0.0
C3305 C 0.87904 0.98723 0.53957 0.0
H3306 H 0.899 0.99825 0.49088 0.0
C3307 C 0.95972 0.99869 0.53124 0.0
C3308 C 0.96695 0.01183 0.51815 0.0
C3309 C 0.94005 0.99457 0.5327 0.0
C3310 C 0.89365 0.99559 0.50466 0.0
H3311 H 0.80892 0.97218 0.54951 0.0
H3312 H 0.8413 0.99018 0.54851 0.0
H3313 H 0.86494 0.9866 0.4914 0.0
H3314 H 0.95931 0.03151 0.49681 0.0
H3315 H 0.92501 0.02461 0.49963 0.0
H3316 H 0.90775 0.99636 0.55284 0.0
C3317 C 0.83549 0.97886 0.53717 0.0
C3318 C 0.87413 0.98866 0.50492 0.0
C3319 C 0.81693 0.96864 0.5377 0.0
C3320 C 0.95416 0.02116 0.5069 0.0
C3321 C 0.93449 0.01716 0.50848 0.0
C3322 C 0.89856 0.99427 0.53933 0.0
C3323 C 0.84644 0.97435 0.52225 0.0
C3324 C 0.86668 0.98396 0.52231 0.0
C3325 C 0.92717 0.00362 0.52121 0.0
C3326 C 0.90616 0.99812 0.52181 0.0
H3327 H 0.81403 0.93819 0.49686 0.0
H3328 H 0.84637 0.95566 0.49612 0.0
H3329 H 0.87381 0.98364 0.55321 0.0
H3330 H 0.96918 0.99115 0.54002 0.0
H3331 H 0.9349 0.98381 0.54242 0.0
C3332 C 0.83636 0.10298 0.23811 0.0
C3333 C 0.84855 0.09839 0.25361 0.0
C3334 C 0.82634 0.11864 0.24028 0.0
C3335 C 0.82732 0.16461 0.27027 0.0
H3336 H 0.77449 0.15996 0.24813 0.0
C3337 C 0.78139 0.22483 0.28418 0.0
C3338 C 0.76997 0.22938 0.26812 0.0
C3339 C 0.79069 0.20854 0.28297 0.0
C3340 C 0.78929 0.16155 0.25425 0.0
H3341 H 0.85964 0.10641 0.28357 0.0
H3342 H 0.84206 0.13358 0.28738 0.0
H3343 H 0.79126 0.13209 0.24471 0.0
H3344 H 0.75899 0.22048 0.23832 0.0
H3345 H 0.77519 0.19213 0.23614 0.0
H3346 H 0.8254 0.19411 0.27971 0.0
C3347 C 0.84042 0.12528 0.27349 0.0
C3348 C 0.7989 0.14559 0.25228 0.0
C3349 C 0.85039 0.10963 0.27133 0.0
C3350 C 0.76767 0.21722 0.25096 0.0
C3351 C 0.77691 0.20096 0.24973 0.0
C3352 C 0.81771 0.18059 0.27224 0.0
C3353 C 0.82834 0.13004 0.25797 0.0
C3354 C 0.81805 0.14695 0.26021 0.0
C3355 C 0.78858 0.19644 0.26569 0.0
C3356 C 0.79861 0.17927 0.26417 0.0
H3357 H 0.8347 0.09459 0.22427 0.0
H3358 H 0.8173 0.12206 0.22798 0.0
H3359 H 0.84215 0.16623 0.27632 0.0
H3360 H 0.78299 0.23375 0.29771 0.0
H3361 H 0.79935 0.20529 0.29562 0.0
C3362 C 0.73867 0.12819 0.99197 0.0
C3363 C 0.75112 0.13073 0.00915 0.0
C3364 C 0.72039 0.11699 0.99117 0.0
C3365 C 0.69047 0.07972 0.01605 0.0
H3366 H 0.64837 0.10207 0.99186 0.0
C3367 C 0.61128 0.05267 0.02717 0.0
C3368 C 0.59729 0.0525 0.01152 0.0
C3369 C 0.63043 0.06056 0.02577 0.0
C3370 C 0.65995 0.09543 0.99839 0.0
H3371 H 0.75441 0.12311 0.03881 0.0
H3372 H 0.72244 0.10361 0.03745 0.0
H3373 H 0.68116 0.11866 0.99135 0.0
H3374 H 0.59231 0.0598 0.98193 0.0
H3375 H 0.6258 0.07333 0.97932 0.0
H3376 H 0.6692 0.05657 0.02325 0.0
C3377 C 0.72685 0.11015 0.02454 0.0
C3378 C 0.67877 0.10496 0.99812 0.0
C3379 C 0.74513 0.12139 0.02536 0.0
C3380 C 0.60283 0.05987 0.99425 0.0
C3381 C 0.62198 0.06771 0.99282 0.0
C3382 C 0.67162 0.07014 0.01629 0.0
C3383 C 0.71417 0.10805 0.00752 0.0
C3384 C 0.69425 0.09731 0.00706 0.0
C3385 C 0.63598 0.0684 0.00865 0.0
C3386 C 0.65612 0.07797 0.00759 0.0
H3387 H 0.74291 0.13515 0.97922 0.0
H3388 H 0.71106 0.11543 0.97775 0.0
H3389 H 0.70209 0.07331 0.02285 0.0
H3390 H 0.60736 0.04711 0.04067 0.0
H3391 H 0.64077 0.06105 0.03831 0.0
C3392 C 0.1341 0.41501 0.26941 0.0
C3393 C 0.14193 0.43182 0.28159 0.0
C3394 C 0.14428 0.39943 0.26744 0.0
C3395 C 0.19405 0.38924 0.27389 0.0
H3396 H 0.16927 0.33505 0.26461 0.0
C3397 C 0.23548 0.32971 0.24794 0.0
C3398 C 0.23207 0.31143 0.25563 0.0
C3399 C 0.22362 0.34356 0.25114 0.0
C3400 C 0.17645 0.35008 0.26735 0.0
H3401 H 0.16612 0.44511 0.30197 0.0
H3402 H 0.18362 0.41777 0.29901 0.0
H3403 H 0.15018 0.36042 0.27161 0.0
H3404 H 0.21385 0.29331 0.27292 0.0
H3405 H 0.19309 0.31754 0.27872 0.0
H3406 H 0.22035 0.37897 0.27018 0.0
C3407 C 0.16987 0.41678 0.29052 0.0
C3408 C 0.16546 0.36468 0.27115 0.0
C3409 C 0.15977 0.43241 0.29236 0.0
C3410 C 0.21647 0.30713 0.26644 0.0
C3411 C 0.20464 0.32106 0.2698 0.0
C3412 C 0.20501 0.37468 0.27021 0.0
C3413 C 0.16247 0.40026 0.27771 0.0
C3414 C 0.17411 0.38448 0.27438 0.0
C3415 C 0.20821 0.33957 0.26237 0.0
C3416 C 0.19637 0.35492 0.26671 0.0
H3417 H 0.1204 0.41417 0.26087 0.0
H3418 H 0.13818 0.38708 0.2573 0.0
H3419 H 0.20123 0.40431 0.27601 0.0
H3420 H 0.2474 0.33335 0.23949 0.0
H3421 H 0.22659 0.35745 0.24482 0.0
C3422 C 0.20569 0.45474 0.03021 0.0
C3423 C 0.2082 0.43721 0.02042 0.0
C3424 C 0.19038 0.46406 0.02408 0.0
C3425 C 0.14198 0.45381 0.00064 0.0
H3426 H 0.14869 0.50924 0.99284 0.0
C3427 C 0.0764 0.49049 0.98372 0.0
C3428 C 0.07688 0.50846 0.99425 0.0
C3429 C 0.09324 0.48268 0.98254 0.0
C3430 C 0.14654 0.49378 0.99508 0.0
H3431 H 0.19681 0.41563 0.99661 0.0
H3432 H 0.16979 0.43168 0.98627 0.0
H3433 H 0.17677 0.49378 0.00058 0.0
H3434 H 0.09522 0.53295 0.01084 0.0
H3435 H 0.12439 0.51912 0.00947 0.0
H3436 H 0.11187 0.45379 0.99632 0.0
C3437 C 0.17975 0.43827 0.99852 0.0
C3438 C 0.16262 0.48496 0.99946 0.0
C3439 C 0.19519 0.42914 0.00444 0.0
C3440 C 0.09451 0.51905 0.00261 0.0
C3441 C 0.11127 0.51114 0.0017 0.0
C3442 C 0.1259 0.46266 0.99659 0.0
C3443 C 0.17723 0.4558 0.00828 0.0
C3444 C 0.16042 0.46497 0.0025 0.0
C3445 C 0.11076 0.49257 0.99216 0.0
C3446 C 0.12795 0.48282 0.99404 0.0
H3447 H 0.21558 0.46128 0.04252 0.0
H3448 H 0.18858 0.47749 0.03193 0.0
H3449 H 0.13995 0.43838 0.00309 0.0
H3450 H 0.06293 0.48213 0.97704 0.0
H3451 H 0.09238 0.46857 0.97467 0.0
C3452 C 0.8297 0.9937 0.247 0.0
C3453 C 0.84979 0.99727 0.24759 0.0
C3454 C 0.81991 0.97465 0.24808 0.0
C3455 C 0.82557 0.9228 0.24053 0.0
H3456 H 0.7851 0.9129 0.274 0.0
C3457 C 0.78283 0.84562 0.24315 0.0
C3458 C 0.77969 0.83929 0.26152 0.0
C3459 C 0.78971 0.86525 0.24089 0.0
C3460 C 0.79642 0.91544 0.26465 0.0
H3461 H 0.87535 0.98375 0.24972 0.0
H3462 H 0.85837 0.95075 0.25163 0.0
H3463 H 0.8005 0.94657 0.27096 0.0
H3464 H 0.78091 0.84884 0.29188 0.0
H3465 H 0.79317 0.88313 0.28792 0.0
H3466 H 0.82196 0.89179 0.23459 0.0
C3467 C 0.85011 0.96252 0.25014 0.0
C3468 C 0.80508 0.93472 0.26274 0.0
C3469 C 0.85986 0.98148 0.24915 0.0
C3470 C 0.78317 0.85319 0.27753 0.0
C3471 C 0.79009 0.87288 0.27525 0.0
C3472 C 0.81691 0.9036 0.2424 0.0
C3473 C 0.83003 0.95886 0.24962 0.0
C3474 C 0.8199 0.93858 0.25082 0.0
C3475 C 0.79368 0.87907 0.25692 0.0
C3476 C 0.80232 0.89965 0.25457 0.0
H3477 H 0.82158 0.0056 0.24584 0.0
H3478 H 0.80442 0.97226 0.24751 0.0
H3479 H 0.83679 0.92529 0.23107 0.0
H3480 H 0.78015 0.83541 0.23045 0.0
H3481 H 0.79199 0.86959 0.22653 0.0
C3482 C 0.64417 0.05715 0.78182 0.0
C3483 C 0.64999 0.04084 0.77264 0.0
C3484 C 0.65497 0.07582 0.78174 0.0
C3485 C 0.68881 0.10542 0.75475 0.0
H3486 H 0.70149 0.13859 0.80248 0.0
C3487 C 0.73616 0.18166 0.75769 0.0
C3488 C 0.73114 0.19667 0.76956 0.0
C3489 C 0.72743 0.16222 0.75855 0.0
C3490 C 0.69788 0.12966 0.78896 0.0
H3491 H 0.67156 0.03125 0.75605 0.0
H3492 H 0.69028 0.06403 0.75562 0.0
H3493 H 0.68359 0.1056 0.8028 0.0
H3494 H 0.71317 0.2033 0.79164 0.0
H3495 H 0.69748 0.16961 0.79274 0.0
H3496 H 0.70248 0.12957 0.74073 0.0
C3497 C 0.6774 0.0623 0.76293 0.0
C3498 C 0.68769 0.11072 0.78919 0.0
C3499 C 0.66674 0.04357 0.76324 0.0
C3500 C 0.71738 0.19196 0.7824 0.0
C3501 C 0.70849 0.17259 0.78311 0.0
C3502 C 0.6988 0.12446 0.75446 0.0
C3503 C 0.67167 0.07859 0.77227 0.0
C3504 C 0.68298 0.09846 0.77208 0.0
C3505 C 0.71333 0.15744 0.77115 0.0
C3506 C 0.70338 0.13688 0.77156 0.0
H3507 H 0.63133 0.05548 0.7892 0.0
H3508 H 0.65013 0.08816 0.7889 0.0
H3509 H 0.6852 0.09632 0.74132 0.0
H3510 H 0.74682 0.18493 0.74772 0.0
H3511 H 0.73179 0.15095 0.74937 0.0
loop_
_geom_bond_atom_site_label_1
_geom_bond_atom_site_label_2
_geom_bond_distance
_geom_bond_site_symmetry_2
_ccdc_geom_bond_type
In0 O1 2.294 . S
In0 O2 2.326 . S
In0 O6 2.242 1_455 S
In0 O7 2.326 1_455 S
In0 O8 2.266 . S
In0 O9 2.326 . S
In0 O11 2.294 . S
In0 O12 2.326 . S
O1 In0 2.294 . S
O1 C10 1.240 . S
O2 In0 2.326 . S
O2 C10 1.252 . S
C3 O6 1.284 . S
C3 O7 1.260 . S
C4 O11 1.240 . S
C4 O12 1.252 . S
C5 O8 1.252 . S
C5 O9 1.260 . S
O6 In0 2.242 1_655 S
O6 C3 1.284 . S
O7 In0 2.326 1_655 S
O7 C3 1.260 . S
O8 In0 2.266 . S
O8 C5 1.252 . S
O9 In0 2.326 . S
O9 C5 1.260 . S
C10 O1 1.240 . S
C10 O2 1.252 . S
O11 In0 2.294 . S
O11 C4 1.240 . S
O12 In0 2.326 . S
O12 C4 1.252 . S
In13 O14 2.294 . S
In13 O15 2.326 . S
In13 O19 2.266 1_455 S
In13 O20 2.326 . S
In13 O21 2.266 1_455 S
In13 O22 2.326 1_455 S
In13 O24 2.294 . S
In13 O25 2.326 . S
O14 In13 2.294 . S
O14 C23 1.240 . S
O15 In13 2.326 . S
O15 C23 1.252 . S
C16 O19 1.252 . S
C16 O20 1.260 1_655 S
C17 O24 1.240 . S
C17 O25 1.252 . S
C18 O21 1.252 . S
C18 O22 1.260 . S
O19 In13 2.266 1_655 S
O19 C16 1.252 . S
O20 In13 2.326 . S
O20 C16 1.260 1_455 S
O21 In13 2.266 1_655 S
O21 C18 1.252 . S
O22 In13 2.326 1_655 S
O22 C18 1.260 . S
C23 O14 1.240 . S
C23 O15 1.252 . S
O24 In13 2.294 . S
O24 C17 1.240 . S
O25 In13 2.326 . S
O25 C17 1.252 . S
In26 O27 2.294 . S
In26 O28 2.326 . S
In26 O32 2.266 . S
In26 O33 2.326 . S
In26 O34 2.266 . S
In26 O35 2.326 . S
In26 O37 2.294 . S
In26 O38 2.326 . S
O27 In26 2.294 . S
O27 C36 1.240 . S
O28 In26 2.326 . S
O28 C36 1.252 . S
C29 O32 1.252 . S
C29 O33 1.260 . S
C30 O37 1.240 . S
C30 O38 1.252 . S
C31 O34 1.252 . S
C31 O35 1.260 . S
O32 In26 2.266 . S
O32 C29 1.252 . S
O33 In26 2.326 . S
O33 C29 1.260 . S
O34 In26 2.266 . S
O34 C31 1.252 . S
O35 In26 2.326 . S
O35 C31 1.260 . S
C36 O27 1.240 . S
C36 O28 1.252 . S
O37 In26 2.294 . S
O37 C30 1.240 . S
O38 In26 2.326 . S
O38 C30 1.252 . S
In39 O40 2.294 . S
In39 O41 2.326 . S
In39 O45 2.266 . S
In39 O46 2.326 . S
In39 O47 2.266 . S
In39 O48 2.326 . S
In39 O50 2.294 . S
In39 O51 2.326 . S
O40 In39 2.294 . S
O40 C49 1.240 . S
O41 In39 2.326 . S
O41 C49 1.252 . S
C42 O45 1.252 . S
C42 O46 1.260 . S
C43 O50 1.240 . S
C43 O51 1.252 . S
C44 O47 1.252 . S
C44 O48 1.260 . S
O45 In39 2.266 . S
O45 C42 1.252 . S
O46 In39 2.326 . S
O46 C42 1.260 . S
O47 In39 2.266 . S
O47 C44 1.252 . S
O48 In39 2.326 . S
O48 C44 1.260 . S
C49 O40 1.240 . S
C49 O41 1.252 . S
O50 In39 2.294 . S
O50 C43 1.240 . S
O51 In39 2.326 . S
O51 C43 1.252 . S
In52 O53 2.294 . S
In52 O54 2.326 . S
In52 O58 2.266 . S
In52 O59 2.326 . S
In52 O60 2.266 . S
In52 O61 2.326 . S
In52 O63 2.294 1_455 S
In52 O64 2.326 1_455 S
O53 In52 2.294 . S
O53 C62 1.240 . S
O54 In52 2.326 . S
O54 C62 1.252 . S
C55 O58 1.252 . S
C55 O59 1.260 . S
C56 O63 1.240 . S
C56 O64 1.252 . S
C57 O60 1.252 . S
C57 O61 1.260 . S
O58 In52 2.266 . S
O58 C55 1.252 . S
O59 In52 2.326 . S
O59 C55 1.260 . S
O60 In52 2.266 . S
O60 C57 1.252 . S
O61 In52 2.326 . S
O61 C57 1.260 . S
C62 O53 1.240 . S
C62 O54 1.252 . S
O63 In52 2.294 1_655 S
O63 C56 1.240 . S
O64 In52 2.326 1_655 S
O64 C56 1.252 . S
In65 O66 2.294 . S
In65 O67 2.326 . S
In65 O71 2.266 . S
In65 O72 2.326 . S
In65 O73 2.266 . S
In65 O74 2.326 . S
In65 O76 2.294 . S
In65 O77 2.326 . S
O66 In65 2.294 . S
O66 C75 1.240 . S
O67 In65 2.326 . S
O67 C75 1.252 . S
C68 O71 1.252 . S
C68 O72 1.260 . S
C69 O76 1.240 . S
C69 O77 1.252 . S
C70 O73 1.252 . S
C70 O74 1.260 . S
O71 In65 2.266 . S
O71 C68 1.252 . S
O72 In65 2.326 . S
O72 C68 1.260 . S
O73 In65 2.266 . S
O73 C70 1.252 . S
O74 In65 2.326 . S
O74 C70 1.260 . S
C75 O66 1.240 . S
C75 O67 1.252 . S
O76 In65 2.294 . S
O76 C69 1.240 . S
O77 In65 2.326 . S
O77 C69 1.252 . S
In78 O79 2.294 . S
In78 O80 2.326 . S
In78 O84 2.266 . S
In78 O85 2.326 . S
In78 O86 2.266 . S
In78 O87 2.326 . S
In78 O89 2.294 . S
In78 O90 2.326 . S
O79 In78 2.294 . S
O79 C88 1.240 . S
O80 In78 2.326 . S
O80 C88 1.252 . S
C81 O84 1.252 . S
C81 O85 1.260 . S
C82 O89 1.240 . S
C82 O90 1.252 . S
C83 O86 1.252 . S
C83 O87 1.260 . S
O84 In78 2.266 . S
O84 C81 1.252 . S
O85 In78 2.326 . S
O85 C81 1.260 . S
O86 In78 2.266 . S
O86 C83 1.252 . S
O87 In78 2.326 . S
O87 C83 1.260 . S
C88 O79 1.240 . S
C88 O80 1.252 . S
O89 In78 2.294 . S
O89 C82 1.240 . S
O90 In78 2.326 . S
O90 C82 1.252 . S
In91 O92 2.294 . S
In91 O93 2.326 . S
In91 O97 2.266 . S
In91 O98 2.326 . S
In91 O99 2.266 1_455 S
In91 O100 2.326 1_455 S
In91 O102 2.294 . S
In91 O103 2.326 . S
O92 In91 2.294 . S
O92 C101 1.240 . S
O93 In91 2.326 . S
O93 C101 1.252 . S
C94 O97 1.252 . S
C94 O98 1.260 . S
C95 O102 1.240 . S
C95 O103 1.252 . S
C96 O99 1.252 . S
C96 O100 1.260 . S
O97 In91 2.266 . S
O97 C94 1.252 . S
O98 In91 2.326 . S
O98 C94 1.260 . S
O99 In91 2.266 1_655 S
O99 C96 1.252 . S
O100 In91 2.326 1_655 S
O100 C96 1.260 . S
C101 O92 1.240 . S
C101 O93 1.252 . S
O102 In91 2.294 . S
O102 C95 1.240 . S
O103 In91 2.326 . S
O103 C95 1.252 . S
In104 O105 2.294 . S
In104 O106 2.326 . S
In104 O110 2.266 . S
In104 O111 2.326 . S
In104 O112 2.266 . S
In104 O113 2.326 . S
In104 O115 2.294 . S
In104 O116 2.326 . S
O105 In104 2.294 . S
O105 C114 1.240 . S
O106 In104 2.326 . S
O106 C114 1.252 . S
C107 O110 1.252 . S
C107 O111 1.260 . S
C108 O115 1.240 . S
C108 O116 1.252 . S
C109 O112 1.252 . S
C109 O113 1.260 . S
O110 In104 2.266 . S
O110 C107 1.252 . S
O111 In104 2.326 . S
O111 C107 1.260 . S
O112 In104 2.266 . S
O112 C109 1.252 . S
O113 In104 2.326 . S
O113 C109 1.260 . S
C114 O105 1.240 . S
C114 O106 1.252 . S
O115 In104 2.294 . S
O115 C108 1.240 . S
O116 In104 2.326 . S
O116 C108 1.252 . S
In117 O118 2.294 . S
In117 O119 2.326 . S
In117 O123 2.266 . S
In117 O124 2.326 . S
In117 O125 2.266 . S
In117 O126 2.326 . S
In117 O128 2.294 . S
In117 O129 2.326 . S
O118 In117 2.294 . S
O118 C127 1.240 . S
O119 In117 2.326 . S
O119 C127 1.252 . S
C120 O123 1.252 . S
C120 O124 1.260 . S
C121 O128 1.240 . S
C121 O129 1.252 . S
C122 O125 1.252 . S
C122 O126 1.260 . S
O123 In117 2.266 . S
O123 C120 1.252 . S
O124 In117 2.326 . S
O124 C120 1.260 . S
O125 In117 2.266 . S
O125 C122 1.252 . S
O126 In117 2.326 . S
O126 C122 1.260 . S
C127 O118 1.240 . S
C127 O119 1.252 . S
O128 In117 2.294 . S
O128 C121 1.240 . S
O129 In117 2.326 . S
O129 C121 1.252 . S
In130 O131 2.294 1_545 S
In130 O132 2.326 1_545 S
In130 O136 2.266 . S
In130 O137 2.325 . S
In130 O138 2.264 . S
In130 O139 2.322 . S
In130 O141 2.296 1_545 S
In130 O142 2.330 1_545 S
O131 In130 2.294 1_565 S
O131 C140 1.240 . S
O132 In130 2.326 1_565 S
O132 C140 1.252 . S
C133 O136 1.252 . S
C133 O137 1.260 . S
C134 O141 1.240 . S
C134 O142 1.252 . S
C135 O138 1.252 . S
C135 O139 1.260 . S
O136 In130 2.266 . S
O136 C133 1.252 . S
O137 In130 2.325 . S
O137 C133 1.260 . S
O138 In130 2.264 . S
O138 C135 1.252 . S
O139 In130 2.322 . S
O139 C135 1.260 . S
C140 O131 1.240 . S
C140 O132 1.252 . S
O141 In130 2.296 1_565 S
O141 C134 1.240 . S
O142 In130 2.330 1_565 S
O142 C134 1.252 . S
In143 O144 2.294 . S
In143 O145 2.326 . S
In143 O149 2.266 . S
In143 O150 2.274 1_554 S
In143 O151 2.266 . S
In143 O152 2.326 . S
In143 O154 2.294 . S
In143 O155 2.326 . S
O144 In143 2.294 . S
O144 C153 1.240 . S
O145 In143 2.326 . S
O145 C153 1.252 . S
C146 O149 1.252 1_556 S
C146 O150 1.267 . S
C147 O154 1.240 . S
C147 O155 1.252 . S
C148 O151 1.252 . S
C148 O152 1.260 . S
O149 In143 2.266 . S
O149 C146 1.252 1_554 S
O150 In143 2.274 1_556 S
O150 C146 1.267 . S
O151 In143 2.266 . S
O151 C148 1.252 . S
O152 In143 2.326 . S
O152 C148 1.260 . S
C153 O144 1.240 . S
C153 O145 1.252 . S
O154 In143 2.294 . S
O154 C147 1.240 . S
O155 In143 2.326 . S
O155 C147 1.252 . S
In156 O157 2.294 . S
In156 O158 2.326 . S
In156 O162 2.266 . S
In156 O163 2.326 1_554 S
In156 O164 2.266 . S
In156 O165 2.326 . S
In156 O167 2.294 . S
In156 O168 2.326 . S
O157 In156 2.294 . S
O157 C166 1.240 . S
O158 In156 2.326 . S
O158 C166 1.252 . S
C159 O162 1.252 1_556 S
C159 O163 1.260 . S
C160 O167 1.240 . S
C160 O168 1.252 . S
C161 O164 1.252 . S
C161 O165 1.260 . S
O162 In156 2.266 . S
O162 C159 1.252 1_554 S
O163 In156 2.326 1_556 S
O163 C159 1.260 . S
O164 In156 2.266 . S
O164 C161 1.252 . S
O165 In156 2.326 . S
O165 C161 1.260 . S
C166 O157 1.240 . S
C166 O158 1.252 . S
O167 In156 2.294 . S
O167 C160 1.240 . S
O168 In156 2.326 . S
O168 C160 1.252 . S
In169 O170 2.294 . S
In169 O171 2.326 . S
In169 O175 2.266 1_554 S
In169 O176 2.327 . S
In169 O177 2.266 1_554 S
In169 O178 2.326 1_554 S
In169 O180 2.294 . S
In169 O181 2.326 . S
O170 In169 2.294 . S
O170 C179 1.240 . S
O171 In169 2.326 . S
O171 C179 1.252 . S
C172 O175 1.252 . S
C172 O176 1.257 1_556 S
C173 O180 1.240 . S
C173 O181 1.252 . S
C174 O177 1.252 . S
C174 O178 1.260 . S
O175 In169 2.266 1_556 S
O175 C172 1.252 . S
O176 In169 2.327 . S
O176 C172 1.257 1_554 S
O177 In169 2.266 1_556 S
O177 C174 1.252 . S
O178 In169 2.326 1_556 S
O178 C174 1.260 . S
C179 O170 1.240 . S
C179 O171 1.252 . S
O180 In169 2.294 . S
O180 C173 1.240 . S
O181 In169 2.326 . S
O181 C173 1.252 . S
In182 O183 2.294 . S
In182 O184 2.326 . S
In182 O188 2.266 . S
In182 O189 2.326 . S
In182 O190 2.266 . S
In182 O191 2.326 . S
In182 O193 2.294 . S
In182 O194 2.326 . S
O183 In182 2.294 . S
O183 C192 1.240 . S
O184 In182 2.326 . S
O184 C192 1.252 . S
C185 O188 1.252 . S
C185 O189 1.260 . S
C186 O193 1.240 . S
C186 O194 1.252 . S
C187 O190 1.252 . S
C187 O191 1.260 . S
O188 In182 2.266 . S
O188 C185 1.252 . S
O189 In182 2.326 . S
O189 C185 1.260 . S
O190 In182 2.266 . S
O190 C187 1.252 . S
O191 In182 2.326 . S
O191 C187 1.260 . S
C192 O183 1.240 . S
C192 O184 1.252 . S
O193 In182 2.294 . S
O193 C186 1.240 . S
O194 In182 2.326 . S
O194 C186 1.252 . S
In195 O196 2.294 . S
In195 O197 2.326 . S
In195 O201 2.266 . S
In195 O202 2.326 . S
In195 O203 2.266 . S
In195 O204 2.326 . S
In195 O206 2.294 . S
In195 O207 2.326 . S
O196 In195 2.294 . S
O196 C205 1.240 . S
O197 In195 2.326 . S
O197 C205 1.252 . S
C198 O201 1.252 . S
C198 O202 1.260 . S
C199 O206 1.240 . S
C199 O207 1.252 . S
C200 O203 1.252 . S
C200 O204 1.260 . S
O201 In195 2.266 . S
O201 C198 1.252 . S
O202 In195 2.326 . S
O202 C198 1.260 . S
O203 In195 2.266 . S
O203 C200 1.252 . S
O204 In195 2.326 . S
O204 C200 1.260 . S
C205 O196 1.240 . S
C205 O197 1.252 . S
O206 In195 2.294 . S
O206 C199 1.240 . S
O207 In195 2.326 . S
O207 C199 1.252 . S
In208 O209 2.294 . S
In208 O210 2.326 . S
In208 O214 2.266 . S
In208 O215 2.326 . S
In208 O216 2.266 . S
In208 O217 2.326 . S
In208 O219 2.294 . S
In208 O220 2.326 . S
O209 In208 2.294 . S
O209 C218 1.240 . S
O210 In208 2.326 . S
O210 C218 1.252 . S
C211 O214 1.252 . S
C211 O215 1.260 . S
C212 O219 1.240 . S
C212 O220 1.252 . S
C213 O216 1.252 . S
C213 O217 1.260 . S
O214 In208 2.266 . S
O214 C211 1.252 . S
O215 In208 2.326 . S
O215 C211 1.260 . S
O216 In208 2.266 . S
O216 C213 1.252 . S
O217 In208 2.326 . S
O217 C213 1.260 . S
C218 O209 1.240 . S
C218 O210 1.252 . S
O219 In208 2.294 . S
O219 C212 1.240 . S
O220 In208 2.326 . S
O220 C212 1.252 . S
In221 O222 2.294 . S
In221 O223 2.326 . S
In221 O227 2.266 . S
In221 O228 2.326 . S
In221 O229 2.266 . S
In221 O230 2.326 . S
In221 O232 2.294 . S
In221 O233 2.326 . S
O222 In221 2.294 . S
O222 C231 1.240 . S
O223 In221 2.326 . S
O223 C231 1.252 . S
C224 O227 1.252 . S
C224 O228 1.260 . S
C225 O232 1.240 . S
C225 O233 1.252 . S
C226 O229 1.252 . S
C226 O230 1.260 . S
O227 In221 2.266 . S
O227 C224 1.252 . S
O228 In221 2.326 . S
O228 C224 1.260 . S
O229 In221 2.266 . S
O229 C226 1.252 . S
O230 In221 2.326 . S
O230 C226 1.260 . S
C231 O222 1.240 . S
C231 O223 1.252 . S
O232 In221 2.294 . S
O232 C225 1.240 . S
O233 In221 2.326 . S
O233 C225 1.252 . S
In234 O235 2.294 . S
In234 O236 2.326 . S
In234 O240 2.266 . S
In234 O241 2.326 . S
In234 O242 2.266 . S
In234 O243 2.326 . S
In234 O245 2.294 . S
In234 O246 2.326 . S
O235 In234 2.294 . S
O235 C244 1.240 . S
O236 In234 2.326 . S
O236 C244 1.252 . S
C237 O240 1.252 . S
C237 O241 1.260 . S
C238 O245 1.240 . S
C238 O246 1.252 . S
C239 O242 1.252 . S
C239 O243 1.260 . S
O240 In234 2.266 . S
O240 C237 1.252 . S
O241 In234 2.326 . S
O241 C237 1.260 . S
O242 In234 2.266 . S
O242 C239 1.252 . S
O243 In234 2.326 . S
O243 C239 1.260 . S
C244 O235 1.240 . S
C244 O236 1.252 . S
O245 In234 2.294 . S
O245 C238 1.240 . S
O246 In234 2.326 . S
O246 C238 1.252 . S
In247 O248 2.294 1_545 S
In247 O249 2.326 1_545 S
In247 O253 2.266 . S
In247 O254 2.326 . S
In247 O255 2.266 . S
In247 O256 2.326 . S
In247 O258 2.294 . S
In247 O259 2.326 . S
O248 In247 2.294 1_565 S
O248 C257 1.240 . S
O249 In247 2.326 1_565 S
O249 C257 1.252 . S
C250 O253 1.252 . S
C250 O254 1.260 . S
C251 O258 1.240 . S
C251 O259 1.252 . S
C252 O255 1.252 . S
C252 O256 1.260 . S
O253 In247 2.266 . S
O253 C250 1.252 . S
O254 In247 2.326 . S
O254 C250 1.260 . S
O255 In247 2.266 . S
O255 C252 1.252 . S
O256 In247 2.326 . S
O256 C252 1.260 . S
C257 O248 1.240 . S
C257 O249 1.252 . S
O258 In247 2.294 . S
O258 C251 1.240 . S
O259 In247 2.326 . S
O259 C251 1.252 . S
In260 O261 2.294 . S
In260 O262 2.326 . S
In260 O266 2.266 . S
In260 O267 2.326 . S
In260 O268 2.266 1_554 S
In260 O269 2.326 1_554 S
In260 O271 2.294 . S
In260 O272 2.326 . S
O261 In260 2.294 . S
O261 C270 1.240 . S
O262 In260 2.326 . S
O262 C270 1.252 . S
C263 O266 1.252 . S
C263 O267 1.260 . S
C264 O271 1.240 . S
C264 O272 1.252 . S
C265 O268 1.252 . S
C265 O269 1.260 . S
O266 In260 2.266 . S
O266 C263 1.252 . S
O267 In260 2.326 . S
O267 C263 1.260 . S
O268 In260 2.266 1_556 S
O268 C265 1.252 . S
O269 In260 2.326 1_556 S
O269 C265 1.260 . S
C270 O261 1.240 . S
C270 O262 1.252 . S
O271 In260 2.294 . S
O271 C264 1.240 . S
O272 In260 2.326 . S
O272 C264 1.252 . S
In273 O274 2.294 . S
In273 O275 2.326 . S
In273 O279 2.266 . S
In273 O280 2.326 . S
In273 O281 2.266 . S
In273 O282 2.326 . S
In273 O284 2.294 . S
In273 O285 2.326 . S
O274 In273 2.294 . S
O274 C283 1.240 . S
O275 In273 2.326 . S
O275 C283 1.252 . S
C276 O279 1.252 . S
C276 O280 1.260 . S
C277 O284 1.240 . S
C277 O285 1.252 . S
C278 O281 1.252 . S
C278 O282 1.260 . S
O279 In273 2.266 . S
O279 C276 1.252 . S
O280 In273 2.326 . S
O280 C276 1.260 . S
O281 In273 2.266 . S
O281 C278 1.252 . S
O282 In273 2.326 . S
O282 C278 1.260 . S
C283 O274 1.240 . S
C283 O275 1.252 . S
O284 In273 2.294 . S
O284 C277 1.240 . S
O285 In273 2.326 . S
O285 C277 1.252 . S
In286 O287 2.294 . S
In286 O288 2.326 . S
In286 O292 2.266 . S
In286 O293 2.326 . S
In286 O294 2.266 . S
In286 O295 2.326 . S
In286 O297 2.294 . S
In286 O298 2.326 . S
O287 In286 2.294 . S
O287 C296 1.240 . S
O288 In286 2.326 . S
O288 C296 1.252 . S
C289 O292 1.252 . S
C289 O293 1.260 . S
C290 O297 1.240 . S
C290 O298 1.252 . S
C291 O294 1.252 . S
C291 O295 1.260 . S
O292 In286 2.266 . S
O292 C289 1.252 . S
O293 In286 2.326 . S
O293 C289 1.260 . S
O294 In286 2.266 . S
O294 C291 1.252 . S
O295 In286 2.326 . S
O295 C291 1.260 . S
C296 O287 1.240 . S
C296 O288 1.252 . S
O297 In286 2.294 . S
O297 C290 1.240 . S
O298 In286 2.326 . S
O298 C290 1.252 . S
In299 O300 2.294 . S
In299 O301 2.326 . S
In299 O305 2.266 . S
In299 O306 2.326 . S
In299 O307 2.266 . S
In299 O308 2.326 . S
In299 O310 2.294 . S
In299 O311 2.326 . S
O300 In299 2.294 . S
O300 C309 1.240 . S
O301 In299 2.326 . S
O301 C309 1.252 . S
C302 O305 1.252 . S
C302 O306 1.260 . S
C303 O310 1.240 . S
C303 O311 1.252 . S
C304 O307 1.252 . S
C304 O308 1.260 . S
O305 In299 2.266 . S
O305 C302 1.252 . S
O306 In299 2.326 . S
O306 C302 1.260 . S
O307 In299 2.266 . S
O307 C304 1.252 . S
O308 In299 2.326 . S
O308 C304 1.260 . S
C309 O300 1.240 . S
C309 O301 1.252 . S
O310 In299 2.294 . S
O310 C303 1.240 . S
O311 In299 2.326 . S
O311 C303 1.252 . S
Tb312 O315 2.453 . S
Tb312 O316 2.596 . S
Tb312 O317 2.374 . S
Tb312 O325 2.343 . S
Tb312 O327 2.353 . S
Tb312 O329 2.427 . S
Tb312 O330 2.513 . S
C313 O317 1.251 1_556 S
C313 O319 1.249 1_556 S
Tb314 O316 2.343 . S
Tb314 O319 2.387 . S
Tb314 O322 2.427 1_545 S
Tb314 O323 2.513 1_545 S
Tb314 O324 2.453 1_455 S
Tb314 O325 2.596 . S
Tb314 O326 2.374 . S
O315 Tb312 2.453 . S
O315 C331 1.245 . S
O316 Tb312 2.596 . S
O316 Tb314 2.343 . S
O316 C331 1.259 . S
O317 Tb312 2.374 . S
O317 C313 1.251 1_554 S
C318 O322 1.275 . S
C318 O323 1.246 . S
O319 C313 1.249 1_554 S
O319 Tb314 2.387 . S
C320 O324 1.245 . S
C320 O325 1.259 1_655 S
C321 O326 1.250 . S
C321 O327 1.263 . S
O322 Tb314 2.427 1_565 S
O322 C318 1.275 . S
O323 Tb314 2.513 1_565 S
O323 C318 1.246 . S
O324 Tb314 2.453 1_655 S
O324 C320 1.245 . S
O325 Tb312 2.343 . S
O325 Tb314 2.596 . S
O325 C320 1.259 1_455 S
O326 Tb314 2.374 . S
O326 C321 1.250 . S
O327 Tb312 2.353 . S
O327 C321 1.263 . S
C328 O329 1.275 . S
C328 O330 1.246 . S
O329 Tb312 2.427 . S
O329 C328 1.275 . S
O330 Tb312 2.513 . S
O330 C328 1.246 . S
C331 O315 1.245 . S
C331 O316 1.259 . S
Tb332 O335 2.453 . S
Tb332 O336 2.596 . S
Tb332 O337 2.374 . S
Tb332 O345 2.343 . S
Tb332 O347 2.353 . S
Tb332 O349 2.427 . S
Tb332 O350 2.513 . S
C333 O337 1.251 . S
C333 O339 1.263 . S
Tb334 O336 2.343 . S
Tb334 O339 2.353 . S
Tb334 O342 2.427 . S
Tb334 O343 2.513 . S
Tb334 O344 2.453 . S
Tb334 O345 2.596 . S
Tb334 O346 2.374 . S
O335 Tb332 2.453 . S
O335 C351 1.245 . S
O336 Tb332 2.596 . S
O336 Tb334 2.343 . S
O336 C351 1.259 . S
O337 Tb332 2.374 . S
O337 C333 1.251 . S
C338 O342 1.275 . S
C338 O343 1.246 . S
O339 C333 1.263 . S
O339 Tb334 2.353 . S
C340 O344 1.245 . S
C340 O345 1.259 . S
C341 O346 1.250 . S
C341 O347 1.263 . S
O342 Tb334 2.427 . S
O342 C338 1.275 . S
O343 Tb334 2.513 . S
O343 C338 1.246 . S
O344 Tb334 2.453 . S
O344 C340 1.245 . S
O345 Tb332 2.343 . S
O345 Tb334 2.596 . S
O345 C340 1.259 . S
O346 Tb334 2.374 . S
O346 C341 1.250 . S
O347 Tb332 2.353 . S
O347 C341 1.263 . S
C348 O349 1.275 . S
C348 O350 1.246 . S
O349 Tb332 2.427 . S
O349 C348 1.275 . S
O350 Tb332 2.513 . S
O350 C348 1.246 . S
C351 O335 1.245 . S
C351 O336 1.259 . S
Tb352 O355 2.453 . S
Tb352 O356 2.596 . S
Tb352 O357 2.374 . S
Tb352 O365 2.343 1_545 S
Tb352 O367 2.353 . S
Tb352 O369 2.427 . S
Tb352 O370 2.513 1_545 S
C353 O357 1.251 . S
C353 O359 1.263 . S
Tb354 O356 2.343 . S
Tb354 O359 2.353 . S
Tb354 O362 2.427 . S
Tb354 O363 2.513 . S
Tb354 O364 2.453 1_545 S
Tb354 O365 2.596 1_545 S
Tb354 O366 2.374 . S
O355 Tb352 2.453 . S
O355 C371 1.245 . S
O356 Tb352 2.596 . S
O356 Tb354 2.343 . S
O356 C371 1.259 . S
O357 Tb352 2.374 . S
O357 C353 1.251 . S
C358 O362 1.275 . S
C358 O363 1.246 . S
O359 C353 1.263 . S
O359 Tb354 2.353 . S
C360 O364 1.245 . S
C360 O365 1.259 . S
C361 O366 1.250 . S
C361 O367 1.263 . S
O362 Tb354 2.427 . S
O362 C358 1.275 . S
O363 Tb354 2.513 . S
O363 C358 1.246 . S
O364 Tb354 2.453 1_565 S
O364 C360 1.245 . S
O365 Tb352 2.343 1_565 S
O365 Tb354 2.596 1_565 S
O365 C360 1.259 . S
O366 Tb354 2.374 . S
O366 C361 1.250 . S
O367 Tb352 2.353 . S
O367 C361 1.263 . S
C368 O369 1.275 1_565 S
C368 O370 1.246 . S
O369 Tb352 2.427 . S
O369 C368 1.275 1_545 S
O370 Tb352 2.513 1_565 S
O370 C368 1.246 . S
C371 O355 1.245 . S
C371 O356 1.259 . S
Tb372 O375 2.453 . S
Tb372 O376 2.596 . S
Tb372 O377 2.374 . S
Tb372 O385 2.343 . S
Tb372 O387 2.353 . S
Tb372 O389 2.427 . S
Tb372 O390 2.513 . S
C373 O377 1.251 . S
C373 O379 1.263 . S
Tb374 O376 2.343 . S
Tb374 O379 2.353 . S
Tb374 O382 2.427 . S
Tb374 O383 2.513 . S
Tb374 O384 2.453 . S
Tb374 O385 2.596 . S
Tb374 O386 2.374 . S
O375 Tb372 2.453 . S
O375 C391 1.245 . S
O376 Tb372 2.596 . S
O376 Tb374 2.343 . S
O376 C391 1.259 . S
O377 Tb372 2.374 . S
O377 C373 1.251 . S
C378 O382 1.275 . S
C378 O383 1.246 . S
O379 C373 1.263 . S
O379 Tb374 2.353 . S
C380 O384 1.245 . S
C380 O385 1.259 . S
C381 O386 1.250 . S
C381 O387 1.263 . S
O382 Tb374 2.427 . S
O382 C378 1.275 . S
O383 Tb374 2.513 . S
O383 C378 1.246 . S
O384 Tb374 2.453 . S
O384 C380 1.245 . S
O385 Tb372 2.343 . S
O385 Tb374 2.596 . S
O385 C380 1.259 . S
O386 Tb374 2.374 . S
O386 C381 1.250 . S
O387 Tb372 2.353 . S
O387 C381 1.263 . S
C388 O389 1.275 . S
C388 O390 1.246 . S
O389 Tb372 2.427 . S
O389 C388 1.275 . S
O390 Tb372 2.513 . S
O390 C388 1.246 . S
C391 O375 1.245 . S
C391 O376 1.259 . S
Tb392 O395 2.453 1_545 S
Tb392 O396 2.596 . S
Tb392 O397 2.374 1_445 S
Tb392 O405 2.343 . S
Tb392 O407 2.353 . S
Tb392 O409 2.427 . S
Tb392 O410 2.513 1_455 S
C393 O397 1.249 1_545 S
C393 O399 1.263 . S
Tb394 O396 2.343 . S
Tb394 O399 2.353 1_455 S
Tb394 O402 2.427 . S
Tb394 O403 2.513 . S
Tb394 O404 2.453 . S
Tb394 O405 2.596 . S
Tb394 O406 2.374 . S
O395 Tb392 2.453 1_565 S
O395 C411 1.245 . S
O396 Tb392 2.596 . S
O396 Tb394 2.343 . S
O396 C411 1.259 1_545 S
O397 Tb392 2.374 1_665 S
O397 C393 1.249 1_565 S
C398 O402 1.275 . S
C398 O403 1.246 . S
O399 C393 1.263 . S
O399 Tb394 2.353 1_655 S
C400 O404 1.245 . S
C400 O405 1.259 . S
C401 O406 1.250 . S
C401 O407 1.263 . S
O402 Tb394 2.427 . S
O402 C398 1.275 . S
O403 Tb394 2.513 . S
O403 C398 1.246 . S
O404 Tb394 2.453 . S
O404 C400 1.245 . S
O405 Tb392 2.343 . S
O405 Tb394 2.596 . S
O405 C400 1.259 . S
O406 Tb394 2.374 . S
O406 C401 1.250 . S
O407 Tb392 2.353 . S
O407 C401 1.263 . S
C408 O409 1.275 . S
C408 O410 1.246 1_455 S
O409 Tb392 2.427 . S
O409 C408 1.275 . S
O410 Tb392 2.513 1_655 S
O410 C408 1.246 1_655 S
C411 O395 1.245 . S
C411 O396 1.259 1_565 S
Tb412 O415 2.453 . S
Tb412 O416 2.596 . S
Tb412 O417 2.374 . S
Tb412 O425 2.343 . S
Tb412 O427 2.353 . S
Tb412 O429 2.427 . S
Tb412 O430 2.513 . S
C413 O417 1.251 . S
C413 O419 1.263 . S
Tb414 O416 2.343 . S
Tb414 O419 2.353 . S
Tb414 O422 2.427 . S
Tb414 O423 2.513 . S
Tb414 O424 2.453 . S
Tb414 O425 2.596 . S
Tb414 O426 2.374 . S
O415 Tb412 2.453 . S
O415 C431 1.245 . S
O416 Tb412 2.596 . S
O416 Tb414 2.343 . S
O416 C431 1.259 . S
O417 Tb412 2.374 . S
O417 C413 1.251 . S
C418 O422 1.275 . S
C418 O423 1.246 . S
O419 C413 1.263 . S
O419 Tb414 2.353 . S
C420 O424 1.245 . S
C420 O425 1.259 . S
C421 O426 1.250 . S
C421 O427 1.263 . S
O422 Tb414 2.427 . S
O422 C418 1.275 . S
O423 Tb414 2.513 . S
O423 C418 1.246 . S
O424 Tb414 2.453 . S
O424 C420 1.245 . S
O425 Tb412 2.343 . S
O425 Tb414 2.596 . S
O425 C420 1.259 . S
O426 Tb414 2.374 . S
O426 C421 1.250 . S
O427 Tb412 2.353 . S
O427 C421 1.263 . S
C428 O429 1.275 . S
C428 O430 1.246 . S
O429 Tb412 2.427 . S
O429 C428 1.275 . S
O430 Tb412 2.513 . S
O430 C428 1.246 . S
C431 O415 1.245 . S
C431 O416 1.259 . S
Tb432 O435 2.453 . S
Tb432 O436 2.596 . S
Tb432 O437 2.374 . S
Tb432 O445 2.343 1_556 S
Tb432 O447 2.353 1_556 S
Tb432 O449 2.427 1_556 S
Tb432 O450 2.513 1_556 S
C433 O437 1.251 1_565 S
C433 O439 1.263 1_566 S
Tb434 O436 2.343 1_554 S
Tb434 O439 2.353 . S
Tb434 O442 2.427 . S
Tb434 O443 2.513 . S
Tb434 O444 2.453 . S
Tb434 O445 2.596 . S
Tb434 O446 2.374 . S
O435 Tb432 2.453 . S
O435 C451 1.245 . S
O436 Tb432 2.596 . S
O436 Tb434 2.343 1_556 S
O436 C451 1.259 . S
O437 Tb432 2.374 . S
O437 C433 1.251 1_545 S
C438 O442 1.275 . S
C438 O443 1.246 . S
O439 C433 1.263 1_544 S
O439 Tb434 2.353 . S
C440 O444 1.245 . S
C440 O445 1.259 . S
C441 O446 1.250 . S
C441 O447 1.263 . S
O442 Tb434 2.427 . S
O442 C438 1.275 . S
O443 Tb434 2.513 . S
O443 C438 1.246 . S
O444 Tb434 2.453 . S
O444 C440 1.245 . S
O445 Tb432 2.343 1_554 S
O445 Tb434 2.596 . S
O445 C440 1.259 . S
O446 Tb434 2.374 . S
O446 C441 1.250 . S
O447 Tb432 2.353 1_554 S
O447 C441 1.263 . S
C448 O449 1.275 . S
C448 O450 1.246 . S
O449 Tb432 2.427 1_554 S
O449 C448 1.275 . S
O450 Tb432 2.513 1_554 S
O450 C448 1.246 . S
C451 O435 1.245 . S
C451 O436 1.259 . S
Tb452 O455 2.453 . S
Tb452 O456 2.596 . S
Tb452 O457 2.374 . S
Tb452 O465 2.343 . S
Tb452 O467 2.353 . S
Tb452 O469 2.427 . S
Tb452 O470 2.513 . S
C453 O457 1.251 . S
C453 O459 1.263 . S
Tb454 O456 2.343 . S
Tb454 O459 2.353 . S
Tb454 O462 2.427 . S
Tb454 O463 2.513 . S
Tb454 O464 2.453 . S
Tb454 O465 2.596 . S
Tb454 O466 2.374 . S
O455 Tb452 2.453 . S
O455 C471 1.245 . S
O456 Tb452 2.596 . S
O456 Tb454 2.343 . S
O456 C471 1.259 . S
O457 Tb452 2.374 . S
O457 C453 1.251 . S
C458 O462 1.275 . S
C458 O463 1.246 . S
O459 C453 1.263 . S
O459 Tb454 2.353 . S
C460 O464 1.245 . S
C460 O465 1.259 . S
C461 O466 1.250 . S
C461 O467 1.263 . S
O462 Tb454 2.427 . S
O462 C458 1.275 . S
O463 Tb454 2.513 . S
O463 C458 1.246 . S
O464 Tb454 2.453 . S
O464 C460 1.245 . S
O465 Tb452 2.343 . S
O465 Tb454 2.596 . S
O465 C460 1.259 . S
O466 Tb454 2.374 . S
O466 C461 1.250 . S
O467 Tb452 2.353 . S
O467 C461 1.263 . S
C468 O469 1.275 . S
C468 O470 1.246 . S
O469 Tb452 2.427 . S
O469 C468 1.275 . S
O470 Tb452 2.513 . S
O470 C468 1.246 . S
C471 O455 1.245 . S
C471 O456 1.259 . S
Tb472 O475 2.453 1_556 S
Tb472 O476 2.596 1_556 S
Tb472 O477 2.374 . S
Tb472 O485 2.343 . S
Tb472 O487 2.353 . S
Tb472 O489 2.427 . S
Tb472 O490 2.513 . S
C473 O477 1.251 1_554 S
C473 O479 1.263 . S
Tb474 O476 2.343 . S
Tb474 O479 2.353 . S
Tb474 O482 2.427 . S
Tb474 O483 2.513 . S
Tb474 O484 2.453 . S
Tb474 O485 2.596 1_554 S
Tb474 O486 2.374 . S
O475 Tb472 2.453 1_554 S
O475 C491 1.245 . S
O476 Tb472 2.596 1_554 S
O476 Tb474 2.343 . S
O476 C491 1.259 . S
O477 Tb472 2.374 . S
O477 C473 1.251 1_556 S
C478 O482 1.275 . S
C478 O483 1.246 . S
O479 C473 1.263 . S
O479 Tb474 2.353 . S
C480 O484 1.245 1_556 S
C480 O485 1.259 . S
C481 O486 1.250 . S
C481 O487 1.263 1_554 S
O482 Tb474 2.427 . S
O482 C478 1.275 . S
O483 Tb474 2.513 . S
O483 C478 1.246 . S
O484 Tb474 2.453 . S
O484 C480 1.245 1_554 S
O485 Tb472 2.343 . S
O485 Tb474 2.596 1_556 S
O485 C480 1.259 . S
O486 Tb474 2.374 . S
O486 C481 1.250 . S
O487 Tb472 2.353 . S
O487 C481 1.263 1_556 S
C488 O489 1.275 . S
C488 O490 1.246 . S
O489 Tb472 2.427 . S
O489 C488 1.275 . S
O490 Tb472 2.513 . S
O490 C488 1.246 . S
C491 O475 1.245 . S
C491 O476 1.259 . S
Tb492 O495 2.453 . S
Tb492 O496 2.596 . S
Tb492 O497 2.374 . S
Tb492 O505 2.343 . S
Tb492 O507 2.353 . S
Tb492 O509 2.427 . S
Tb492 O510 2.513 . S
C493 O497 1.251 . S
C493 O499 1.263 . S
Tb494 O496 2.343 . S
Tb494 O499 2.353 . S
Tb494 O502 2.427 . S
Tb494 O503 2.513 . S
Tb494 O504 2.453 . S
Tb494 O505 2.596 . S
Tb494 O506 2.374 . S
O495 Tb492 2.453 . S
O495 C511 1.245 . S
O496 Tb492 2.596 . S
O496 Tb494 2.343 . S
O496 C511 1.259 . S
O497 Tb492 2.374 . S
O497 C493 1.251 . S
C498 O502 1.275 . S
C498 O503 1.246 . S
O499 C493 1.263 . S
O499 Tb494 2.353 . S
C500 O504 1.245 . S
C500 O505 1.259 . S
C501 O506 1.250 . S
C501 O507 1.263 . S
O502 Tb494 2.427 . S
O502 C498 1.275 . S
O503 Tb494 2.513 . S
O503 C498 1.246 . S
O504 Tb494 2.453 . S
O504 C500 1.245 . S
O505 Tb492 2.343 . S
O505 Tb494 2.596 . S
O505 C500 1.259 . S
O506 Tb494 2.374 . S
O506 C501 1.250 . S
O507 Tb492 2.353 . S
O507 C501 1.263 . S
C508 O509 1.275 . S
C508 O510 1.246 . S
O509 Tb492 2.427 . S
O509 C508 1.275 . S
O510 Tb492 2.513 . S
O510 C508 1.246 . S
C511 O495 1.245 . S
C511 O496 1.259 . S
Tb512 O515 2.453 . S
Tb512 O516 2.596 1_655 S
Tb512 O517 2.374 . S
Tb512 O525 2.343 . S
Tb512 O527 2.353 . S
Tb512 O529 2.427 . S
Tb512 O530 2.513 . S
C513 O517 1.251 1_455 S
C513 O519 1.263 . S
Tb514 O516 2.343 . S
Tb514 O519 2.353 . S
Tb514 O522 2.427 . S
Tb514 O523 2.513 . S
Tb514 O524 2.453 . S
Tb514 O525 2.596 1_455 S
Tb514 O526 2.374 . S
O515 Tb512 2.453 . S
O515 C531 1.245 1_655 S
O516 Tb512 2.596 1_455 S
O516 Tb514 2.343 . S
O516 C531 1.259 . S
O517 Tb512 2.374 . S
O517 C513 1.251 1_655 S
C518 O522 1.275 . S
C518 O523 1.246 . S
O519 C513 1.263 . S
O519 Tb514 2.353 . S
C520 O524 1.245 1_655 S
C520 O525 1.259 . S
C521 O526 1.239 1_655 S
C521 O527 1.270 . S
O522 Tb514 2.427 . S
O522 C518 1.275 . S
O523 Tb514 2.513 . S
O523 C518 1.246 . S
O524 Tb514 2.453 . S
O524 C520 1.245 1_455 S
O525 Tb512 2.343 . S
O525 Tb514 2.596 1_655 S
O525 C520 1.259 . S
O526 Tb514 2.374 . S
O526 C521 1.239 1_455 S
O527 Tb512 2.353 . S
O527 C521 1.270 . S
C528 O529 1.275 . S
C528 O530 1.246 . S
O529 Tb512 2.427 . S
O529 C528 1.275 . S
O530 Tb512 2.513 . S
O530 C528 1.246 . S
C531 O515 1.245 1_455 S
C531 O516 1.259 . S
Tb532 O535 2.453 . S
Tb532 O536 2.596 . S
Tb532 O537 2.374 . S
Tb532 O545 2.343 . S
Tb532 O547 2.353 . S
Tb532 O549 2.427 . S
Tb532 O550 2.513 . S
C533 O537 1.251 . S
C533 O539 1.263 . S
Tb534 O536 2.343 . S
Tb534 O539 2.353 . S
Tb534 O542 2.427 . S
Tb534 O543 2.513 . S
Tb534 O544 2.453 . S
Tb534 O545 2.596 . S
Tb534 O546 2.374 . S
O535 Tb532 2.453 . S
O535 C551 1.245 . S
O536 Tb532 2.596 . S
O536 Tb534 2.343 . S
O536 C551 1.259 . S
O537 Tb532 2.374 . S
O537 C533 1.251 . S
C538 O542 1.275 . S
C538 O543 1.246 . S
O539 C533 1.263 . S
O539 Tb534 2.353 . S
C540 O544 1.245 . S
C540 O545 1.259 . S
C541 O546 1.250 . S
C541 O547 1.263 . S
O542 Tb534 2.427 . S
O542 C538 1.275 . S
O543 Tb534 2.513 . S
O543 C538 1.246 . S
O544 Tb534 2.453 . S
O544 C540 1.245 . S
O545 Tb532 2.343 . S
O545 Tb534 2.596 . S
O545 C540 1.259 . S
O546 Tb534 2.374 . S
O546 C541 1.250 . S
O547 Tb532 2.353 . S
O547 C541 1.263 . S
C548 O549 1.275 . S
C548 O550 1.246 . S
O549 Tb532 2.427 . S
O549 C548 1.275 . S
O550 Tb532 2.513 . S
O550 C548 1.246 . S
C551 O535 1.245 . S
C551 O536 1.259 . S
Tb552 O555 2.453 . S
Tb552 O556 2.596 . S
Tb552 O557 2.374 . S
Tb552 O565 2.343 . S
Tb552 O567 2.353 . S
Tb552 O569 2.427 . S
Tb552 O570 2.513 . S
C553 O557 1.251 . S
C553 O559 1.263 . S
Tb554 O556 2.343 . S
Tb554 O559 2.353 . S
Tb554 O562 2.427 . S
Tb554 O563 2.513 . S
Tb554 O564 2.453 . S
Tb554 O565 2.596 . S
Tb554 O566 2.374 . S
O555 Tb552 2.453 . S
O555 C571 1.245 . S
O556 Tb552 2.596 . S
O556 Tb554 2.343 . S
O556 C571 1.259 . S
O557 Tb552 2.374 . S
O557 C553 1.251 . S
C558 O562 1.275 . S
C558 O563 1.246 . S
O559 C553 1.263 . S
O559 Tb554 2.353 . S
C560 O564 1.245 . S
C560 O565 1.259 . S
C561 O566 1.250 . S
C561 O567 1.263 . S
O562 Tb554 2.427 . S
O562 C558 1.275 . S
O563 Tb554 2.513 . S
O563 C558 1.246 . S
O564 Tb554 2.453 . S
O564 C560 1.245 . S
O565 Tb552 2.343 . S
O565 Tb554 2.596 . S
O565 C560 1.259 . S
O566 Tb554 2.374 . S
O566 C561 1.250 . S
O567 Tb552 2.353 . S
O567 C561 1.263 . S
C568 O569 1.275 . S
C568 O570 1.246 . S
O569 Tb552 2.427 . S
O569 C568 1.275 . S
O570 Tb552 2.513 . S
O570 C568 1.246 . S
C571 O555 1.245 . S
C571 O556 1.259 . S
Tb572 O575 2.453 . S
Tb572 O576 2.596 . S
Tb572 O577 2.374 . S
Tb572 O585 2.343 . S
Tb572 O587 2.353 . S
Tb572 O589 2.427 . S
Tb572 O590 2.513 . S
C573 O577 1.251 . S
C573 O579 1.263 . S
Tb574 O576 2.343 . S
Tb574 O579 2.353 . S
Tb574 O582 2.427 . S
Tb574 O583 2.513 . S
Tb574 O584 2.453 . S
Tb574 O585 2.596 . S
Tb574 O586 2.374 . S
O575 Tb572 2.453 . S
O575 C591 1.245 . S
O576 Tb572 2.596 . S
O576 Tb574 2.343 . S
O576 C591 1.259 . S
O577 Tb572 2.374 . S
O577 C573 1.251 . S
C578 O582 1.275 . S
C578 O583 1.246 . S
O579 C573 1.263 . S
O579 Tb574 2.353 . S
C580 O584 1.245 . S
C580 O585 1.259 . S
C581 O586 1.250 . S
C581 O587 1.263 . S
O582 Tb574 2.427 . S
O582 C578 1.275 . S
O583 Tb574 2.513 . S
O583 C578 1.246 . S
O584 Tb574 2.453 . S
O584 C580 1.245 . S
O585 Tb572 2.343 . S
O585 Tb574 2.596 . S
O585 C580 1.259 . S
O586 Tb574 2.374 . S
O586 C581 1.250 . S
O587 Tb572 2.353 . S
O587 C581 1.263 . S
C588 O589 1.275 . S
C588 O590 1.246 . S
O589 Tb572 2.427 . S
O589 C588 1.275 . S
O590 Tb572 2.513 . S
O590 C588 1.246 . S
C591 O575 1.245 . S
C591 O576 1.259 . S
Tb592 O595 2.453 . S
Tb592 O596 2.596 . S
Tb592 O597 2.374 . S
Tb592 O605 2.343 . S
Tb592 O607 2.353 . S
Tb592 O609 2.427 . S
Tb592 O610 2.513 . S
C593 O597 1.251 . S
C593 O599 1.263 . S
Tb594 O596 2.343 . S
Tb594 O599 2.353 . S
Tb594 O602 2.427 . S
Tb594 O603 2.513 . S
Tb594 O604 2.453 . S
Tb594 O605 2.596 . S
Tb594 O606 2.374 . S
O595 Tb592 2.453 . S
O595 C611 1.245 . S
O596 Tb592 2.596 . S
O596 Tb594 2.343 . S
O596 C611 1.259 . S
O597 Tb592 2.374 . S
O597 C593 1.251 . S
C598 O602 1.275 . S
C598 O603 1.246 . S
O599 C593 1.263 . S
O599 Tb594 2.353 . S
C600 O604 1.245 . S
C600 O605 1.259 . S
C601 O606 1.250 . S
C601 O607 1.263 . S
O602 Tb594 2.427 . S
O602 C598 1.275 . S
O603 Tb594 2.513 . S
O603 C598 1.246 . S
O604 Tb594 2.453 . S
O604 C600 1.245 . S
O605 Tb592 2.343 . S
O605 Tb594 2.596 . S
O605 C600 1.259 . S
O606 Tb594 2.374 . S
O606 C601 1.250 . S
O607 Tb592 2.353 . S
O607 C601 1.263 . S
C608 O609 1.275 . S
C608 O610 1.246 . S
O609 Tb592 2.427 . S
O609 C608 1.275 . S
O610 Tb592 2.513 . S
O610 C608 1.246 . S
C611 O595 1.245 . S
C611 O596 1.259 . S
Tb612 O615 2.453 . S
Tb612 O616 2.596 1_455 S
Tb612 O617 2.374 . S
Tb612 O625 2.343 . S
Tb612 O627 2.353 1_554 S
Tb612 O629 2.434 . S
Tb612 O630 2.513 . S
C613 O617 1.251 . S
C613 O619 1.263 1_455 S
Tb614 O616 2.343 . S
Tb614 O619 2.353 . S
Tb614 O622 2.427 . S
Tb614 O623 2.513 . S
Tb614 O624 2.453 . S
Tb614 O625 2.596 1_655 S
Tb614 O626 2.374 1_554 S
O615 Tb612 2.453 . S
O615 C631 1.245 . S
O616 Tb612 2.596 1_655 S
O616 Tb614 2.343 . S
O616 C631 1.259 1_655 S
O617 Tb612 2.374 . S
O617 C613 1.251 . S
C618 O622 1.275 . S
C618 O623 1.246 . S
O619 C613 1.263 1_655 S
O619 Tb614 2.353 . S
C620 O624 1.245 . S
C620 O625 1.259 1_655 S
C621 O626 1.250 . S
C621 O627 1.263 1_655 S
O622 Tb614 2.427 . S
O622 C618 1.275 . S
O623 Tb614 2.513 . S
O623 C618 1.246 . S
O624 Tb614 2.453 . S
O624 C620 1.245 . S
O625 Tb612 2.343 . S
O625 Tb614 2.596 1_455 S
O625 C620 1.259 1_455 S
O626 Tb614 2.374 1_556 S
O626 C621 1.250 . S
O627 Tb612 2.353 1_556 S
O627 C621 1.263 1_455 S
C628 O629 1.282 . S
C628 O630 1.246 . S
O629 Tb612 2.434 . S
O629 C628 1.282 . S
O630 Tb612 2.513 . S
O630 C628 1.246 . S
C631 O615 1.245 . S
C631 O616 1.259 1_455 S
C632 C633 1.349 . S
C632 C634 1.327 . S
C632 H657 0.950 . S
C633 C632 1.349 . S
C633 C649 1.349 . S
C634 C632 1.327 . S
C634 C653 1.429 . S
C634 H658 0.950 . S
C635 C652 1.574 . S
C635 C654 1.368 . S
C635 H659 0.949 . S
H636 C640 0.949 . S
C637 C638 1.349 . S
C637 C639 1.327 . S
C637 H660 0.950 . S
C638 C637 1.349 . S
C638 C650 1.349 1_554 S
C639 C637 1.327 . S
C639 C655 1.429 1_554 S
C639 H661 0.950 . S
C640 H636 0.949 . S
C640 C648 1.574 . S
C640 C656 1.368 . S
H641 C649 0.950 . S
H642 C647 0.950 . S
H643 C648 0.949 . S
H644 C650 0.950 . S
H645 C651 0.950 . S
H646 C652 0.949 . S
C647 H642 0.950 . S
C647 C649 1.327 . S
C647 C653 1.429 . S
C648 C640 1.574 . S
C648 H643 0.949 . S
C648 C654 1.368 . S
C649 C633 1.349 . S
C649 H641 0.950 . S
C649 C647 1.327 . S
C650 C638 1.349 1_556 S
C650 H644 0.950 . S
C650 C651 1.327 . S
C651 H645 0.950 . S
C651 C650 1.327 . S
C651 C655 1.429 . S
C652 C635 1.574 . S
C652 H646 0.949 . S
C652 C656 1.368 . S
C653 C634 1.429 . S
C653 C647 1.429 . S
C653 C654 1.523 . S
C654 C635 1.368 . S
C654 C648 1.368 . S
C654 C653 1.523 . S
C655 C639 1.429 1_556 S
C655 C651 1.429 . S
C655 C656 1.523 . S
C656 C640 1.368 . S
C656 C652 1.368 . S
C656 C655 1.523 . S
H657 C632 0.950 . S
H658 C634 0.950 . S
H659 C635 0.949 . S
H660 C637 0.950 . S
H661 C639 0.950 . S
C662 C663 1.349 . S
C662 C664 1.327 . S
C662 H687 0.950 . S
C663 C662 1.349 . S
C663 C679 1.349 . S
C664 C662 1.327 . S
C664 C683 1.429 . S
C664 H688 0.950 . S
C665 C682 1.574 . S
C665 C684 1.368 . S
C665 H689 0.949 . S
H666 C670 0.949 . S
C667 C668 1.349 . S
C667 C669 1.327 . S
C667 H690 0.950 . S
C668 C667 1.349 . S
C668 C680 1.349 . S
C669 C667 1.327 . S
C669 C685 1.429 . S
C669 H691 0.950 . S
C670 H666 0.949 . S
C670 C678 1.574 . S
C670 C686 1.368 . S
H671 C679 0.950 . S
H672 C677 0.950 . S
H673 C678 0.949 . S
H674 C680 0.950 . S
H675 C681 0.950 . S
H676 C682 0.949 . S
C677 H672 0.950 . S
C677 C679 1.327 . S
C677 C683 1.429 . S
C678 C670 1.574 . S
C678 H673 0.949 . S
C678 C684 1.368 . S
C679 C663 1.349 . S
C679 H671 0.950 . S
C679 C677 1.327 . S
C680 C668 1.349 . S
C680 H674 0.950 . S
C680 C681 1.327 . S
C681 H675 0.950 . S
C681 C680 1.327 . S
C681 C685 1.429 . S
C682 C665 1.574 . S
C682 H676 0.949 . S
C682 C686 1.368 . S
C683 C664 1.429 . S
C683 C677 1.429 . S
C683 C684 1.523 . S
C684 C665 1.368 . S
C684 C678 1.368 . S
C684 C683 1.523 . S
C685 C669 1.429 . S
C685 C681 1.429 . S
C685 C686 1.523 . S
C686 C670 1.368 . S
C686 C682 1.368 . S
C686 C685 1.523 . S
H687 C662 0.950 . S
H688 C664 0.950 . S
H689 C665 0.949 . S
H690 C667 0.950 . S
H691 C669 0.950 . S
C692 C693 1.349 . S
C692 C694 1.327 . S
C692 H717 0.950 . S
C693 C692 1.349 . S
C693 C709 1.349 . S
C694 C692 1.327 . S
C694 C713 1.429 . S
C694 H718 0.950 . S
C695 C712 1.574 . S
C695 C714 1.368 . S
C695 H719 0.949 . S
H696 C700 0.949 . S
C697 C698 1.349 . S
C697 C699 1.327 . S
C697 H720 0.950 . S
C698 C697 1.349 . S
C698 C710 1.349 . S
C699 C697 1.327 . S
C699 C715 1.429 . S
C699 H721 0.950 . S
C700 H696 0.949 . S
C700 C708 1.574 . S
C700 C716 1.368 . S
H701 C709 0.950 . S
H702 C707 0.950 . S
H703 C708 0.949 . S
H704 C710 0.950 . S
H705 C711 0.950 . S
H706 C712 0.949 . S
C707 H702 0.950 . S
C707 C709 1.327 . S
C707 C713 1.429 . S
C708 C700 1.574 . S
C708 H703 0.949 . S
C708 C714 1.368 . S
C709 C693 1.349 . S
C709 H701 0.950 . S
C709 C707 1.327 . S
C710 C698 1.349 . S
C710 H704 0.950 . S
C710 C711 1.327 . S
C711 H705 0.950 . S
C711 C710 1.327 . S
C711 C715 1.429 . S
C712 C695 1.574 . S
C712 H706 0.949 . S
C712 C716 1.368 . S
C713 C694 1.429 . S
C713 C707 1.429 . S
C713 C714 1.523 . S
C714 C695 1.368 . S
C714 C708 1.368 . S
C714 C713 1.523 . S
C715 C699 1.429 . S
C715 C711 1.429 . S
C715 C716 1.523 . S
C716 C700 1.368 . S
C716 C712 1.368 . S
C716 C715 1.523 . S
H717 C692 0.950 . S
H718 C694 0.950 . S
H719 C695 0.949 . S
H720 C697 0.950 . S
H721 C699 0.950 . S
C722 C723 1.349 . S
C722 C724 1.327 . S
C722 H747 0.950 . S
C723 C722 1.349 . S
C723 C739 1.349 . S
C724 C722 1.327 . S
C724 C743 1.429 . S
C724 H748 0.950 . S
C725 C742 1.574 . S
C725 C744 1.368 . S
C725 H749 0.949 . S
H726 C730 0.949 . S
C727 C728 1.349 . S
C727 C729 1.327 . S
C727 H750 0.950 . S
C728 C727 1.349 . S
C728 C740 1.349 . S
C729 C727 1.327 . S
C729 C745 1.429 . S
C729 H751 0.950 . S
C730 H726 0.949 . S
C730 C738 1.574 . S
C730 C746 1.368 . S
H731 C739 0.950 . S
H732 C737 0.950 . S
H733 C738 0.949 . S
H734 C740 0.950 . S
H735 C741 0.950 . S
H736 C742 0.949 . S
C737 H732 0.950 . S
C737 C739 1.327 . S
C737 C743 1.429 . S
C738 C730 1.574 . S
C738 H733 0.949 . S
C738 C744 1.368 . S
C739 C723 1.349 . S
C739 H731 0.950 . S
C739 C737 1.327 . S
C740 C728 1.349 . S
C740 H734 0.950 . S
C740 C741 1.327 . S
C741 H735 0.950 . S
C741 C740 1.327 . S
C741 C745 1.429 . S
C742 C725 1.574 . S
C742 H736 0.949 . S
C742 C746 1.368 . S
C743 C724 1.429 . S
C743 C737 1.429 . S
C743 C744 1.523 . S
C744 C725 1.368 . S
C744 C738 1.368 . S
C744 C743 1.523 . S
C745 C729 1.429 . S
C745 C741 1.429 . S
C745 C746 1.523 . S
C746 C730 1.368 . S
C746 C742 1.368 . S
C746 C745 1.523 . S
H747 C722 0.950 . S
H748 C724 0.950 . S
H749 C725 0.949 . S
H750 C727 0.950 . S
H751 C729 0.950 . S
C752 C753 1.376 . S
C752 C754 1.327 . S
C752 H777 0.925 1_455 S
C753 C752 1.376 . S
C753 C769 1.349 . S
C754 C752 1.327 . S
C754 C773 1.429 . S
C754 H778 0.950 1_455 S
C755 C772 1.574 . S
C755 C774 1.368 . S
C755 H779 0.949 . S
H756 C760 0.949 1_655 S
C757 C758 1.349 . S
C757 C759 1.327 . S
C757 H780 0.950 . S
C758 C757 1.349 . S
C758 C770 1.349 . S
C759 C757 1.327 . S
C759 C775 1.429 . S
C759 H781 0.950 . S
C760 H756 0.949 1_455 S
C760 C768 1.574 . S
C760 C776 1.368 . S
H761 C769 0.950 . S
H762 C767 0.950 . S
H763 C768 0.949 1_655 S
H764 C770 0.947 . S
H765 C771 0.950 1_655 S
H766 C772 0.949 . S
C767 H762 0.950 . S
C767 C769 1.327 . S
C767 C773 1.429 . S
C768 C760 1.574 . S
C768 H763 0.949 1_455 S
C768 C774 1.368 . S
C769 C753 1.349 . S
C769 H761 0.950 . S
C769 C767 1.327 . S
C770 C758 1.349 . S
C770 H764 0.947 . S
C770 C771 1.327 . S
C771 H765 0.950 1_455 S
C771 C770 1.327 . S
C771 C775 1.429 . S
C772 C755 1.574 . S
C772 H766 0.949 . S
C772 C776 1.368 . S
C773 C754 1.429 . S
C773 C767 1.429 . S
C773 C774 1.523 . S
C774 C755 1.368 . S
C774 C768 1.368 . S
C774 C773 1.523 . S
C775 C759 1.429 . S
C775 C771 1.429 . S
C775 C776 1.523 . S
C776 C760 1.368 . S
C776 C772 1.368 . S
C776 C775 1.523 . S
H777 C752 0.925 1_655 S
H778 C754 0.950 1_655 S
H779 C755 0.949 . S
H780 C757 0.950 . S
H781 C759 0.950 . S
C782 C783 1.349 . S
C782 C784 1.327 . S
C782 H807 0.950 . S
C783 C782 1.349 . S
C783 C799 1.349 . S
C784 C782 1.327 . S
C784 C803 1.429 . S
C784 H808 0.950 . S
C785 C802 1.574 . S
C785 C804 1.368 . S
C785 H809 0.949 . S
H786 C790 0.949 . S
C787 C788 1.349 . S
C787 C789 1.327 . S
C787 H810 0.950 . S
C788 C787 1.349 . S
C788 C800 1.349 . S
C789 C787 1.327 . S
C789 C805 1.429 . S
C789 H811 0.950 . S
C790 H786 0.949 . S
C790 C798 1.574 . S
C790 C806 1.368 . S
H791 C799 0.950 . S
H792 C797 0.950 . S
H793 C798 0.949 . S
H794 C800 0.950 . S
H795 C801 0.950 . S
H796 C802 0.949 . S
C797 H792 0.950 . S
C797 C799 1.327 . S
C797 C803 1.429 . S
C798 C790 1.574 . S
C798 H793 0.949 . S
C798 C804 1.368 . S
C799 C783 1.349 . S
C799 H791 0.950 . S
C799 C797 1.327 . S
C800 C788 1.349 . S
C800 H794 0.950 . S
C800 C801 1.327 . S
C801 H795 0.950 . S
C801 C800 1.327 . S
C801 C805 1.429 . S
C802 C785 1.574 . S
C802 H796 0.949 . S
C802 C806 1.368 . S
C803 C784 1.429 . S
C803 C797 1.429 . S
C803 C804 1.523 . S
C804 C785 1.368 . S
C804 C798 1.368 . S
C804 C803 1.523 . S
C805 C789 1.429 . S
C805 C801 1.429 . S
C805 C806 1.523 . S
C806 C790 1.368 . S
C806 C802 1.368 . S
C806 C805 1.523 . S
H807 C782 0.950 . S
H808 C784 0.950 . S
H809 C785 0.949 . S
H810 C787 0.950 . S
H811 C789 0.950 . S
C812 C813 1.349 . S
C812 C814 1.327 . S
C812 H837 0.950 . S
C813 C812 1.349 . S
C813 C829 1.349 . S
C814 C812 1.327 . S
C814 C833 1.429 . S
C814 H838 0.950 . S
C815 C832 1.574 . S
C815 C834 1.368 . S
C815 H839 0.949 . S
H816 C820 0.949 . S
C817 C818 1.349 . S
C817 C819 1.327 . S
C817 H840 0.950 . S
C818 C817 1.349 . S
C818 C830 1.349 . S
C819 C817 1.327 . S
C819 C835 1.429 . S
C819 H841 0.950 . S
C820 H816 0.949 . S
C820 C828 1.574 . S
C820 C836 1.368 . S
H821 C829 0.950 . S
H822 C827 0.950 . S
H823 C828 0.949 . S
H824 C830 0.950 . S
H825 C831 0.950 . S
H826 C832 0.949 . S
C827 H822 0.950 . S
C827 C829 1.327 . S
C827 C833 1.429 . S
C828 C820 1.574 . S
C828 H823 0.949 . S
C828 C834 1.368 . S
C829 C813 1.349 . S
C829 H821 0.950 . S
C829 C827 1.327 . S
C830 C818 1.349 . S
C830 H824 0.950 . S
C830 C831 1.327 . S
C831 H825 0.950 . S
C831 C830 1.327 . S
C831 C835 1.429 . S
C832 C815 1.574 . S
C832 H826 0.949 . S
C832 C836 1.368 . S
C833 C814 1.429 . S
C833 C827 1.429 . S
C833 C834 1.523 . S
C834 C815 1.368 . S
C834 C828 1.368 . S
C834 C833 1.523 . S
C835 C819 1.429 . S
C835 C831 1.429 . S
C835 C836 1.523 . S
C836 C820 1.368 . S
C836 C832 1.368 . S
C836 C835 1.523 . S
H837 C812 0.950 . S
H838 C814 0.950 . S
H839 C815 0.949 . S
H840 C817 0.950 . S
H841 C819 0.950 . S
C842 C843 1.349 . S
C842 C844 1.327 . S
C842 H867 0.950 . S
C843 C842 1.349 . S
C843 C859 1.349 . S
C844 C842 1.327 . S
C844 C863 1.429 . S
C844 H868 0.950 . S
C845 C862 1.574 . S
C845 C864 1.368 . S
C845 H869 0.949 . S
H846 C850 0.949 . S
C847 C848 1.349 . S
C847 C849 1.327 . S
C847 H870 0.950 . S
C848 C847 1.349 . S
C848 C860 1.349 . S
C849 C847 1.327 . S
C849 C865 1.429 . S
C849 H871 0.950 . S
C850 H846 0.949 . S
C850 C858 1.574 . S
C850 C866 1.368 . S
H851 C859 0.950 . S
H852 C857 0.950 . S
H853 C858 0.949 . S
H854 C860 0.950 . S
H855 C861 0.950 . S
H856 C862 0.949 . S
C857 H852 0.950 . S
C857 C859 1.327 . S
C857 C863 1.429 . S
C858 C850 1.574 . S
C858 H853 0.949 . S
C858 C864 1.368 . S
C859 C843 1.349 . S
C859 H851 0.950 . S
C859 C857 1.327 . S
C860 C848 1.349 . S
C860 H854 0.950 . S
C860 C861 1.327 . S
C861 H855 0.950 . S
C861 C860 1.327 . S
C861 C865 1.429 . S
C862 C845 1.574 . S
C862 H856 0.949 . S
C862 C866 1.368 . S
C863 C844 1.429 . S
C863 C857 1.429 . S
C863 C864 1.523 . S
C864 C845 1.368 . S
C864 C858 1.368 . S
C864 C863 1.523 . S
C865 C849 1.429 . S
C865 C861 1.429 . S
C865 C866 1.523 . S
C866 C850 1.368 . S
C866 C862 1.368 . S
C866 C865 1.523 . S
H867 C842 0.950 . S
H868 C844 0.950 . S
H869 C845 0.949 . S
H870 C847 0.950 . S
H871 C849 0.950 . S
C872 C873 1.349 . S
C872 C874 1.327 . S
C872 H897 0.950 . S
C873 C872 1.349 . S
C873 C889 1.349 . S
C874 C872 1.327 . S
C874 C893 1.429 . S
C874 H898 0.950 . S
C875 C892 1.574 . S
C875 C894 1.368 . S
C875 H899 0.949 . S
H876 C880 0.949 . S
C877 C878 1.349 . S
C877 C879 1.327 . S
C877 H900 0.950 . S
C878 C877 1.349 . S
C878 C890 1.349 1_455 S
C879 C877 1.327 . S
C879 C895 1.429 1_455 S
C879 H901 0.950 . S
C880 H876 0.949 . S
C880 C888 1.574 . S
C880 C896 1.368 . S
H881 C889 0.950 . S
H882 C887 0.950 . S
H883 C888 0.949 . S
H884 C890 0.950 . S
H885 C891 0.950 . S
H886 C892 0.949 . S
C887 H882 0.950 . S
C887 C889 1.327 . S
C887 C893 1.429 . S
C888 C880 1.574 . S
C888 H883 0.949 . S
C888 C894 1.368 . S
C889 C873 1.349 . S
C889 H881 0.950 . S
C889 C887 1.327 . S
C890 C878 1.349 1_655 S
C890 H884 0.950 . S
C890 C891 1.327 . S
C891 H885 0.950 . S
C891 C890 1.327 . S
C891 C895 1.429 . S
C892 C875 1.574 . S
C892 H886 0.949 . S
C892 C896 1.368 . S
C893 C874 1.429 . S
C893 C887 1.429 . S
C893 C894 1.523 . S
C894 C875 1.368 . S
C894 C888 1.368 . S
C894 C893 1.523 . S
C895 C879 1.429 1_655 S
C895 C891 1.429 . S
C895 C896 1.523 . S
C896 C880 1.368 . S
C896 C892 1.368 . S
C896 C895 1.523 . S
H897 C872 0.950 . S
H898 C874 0.950 . S
H899 C875 0.949 . S
H900 C877 0.950 . S
H901 C879 0.950 . S
C902 C903 1.349 . S
C902 C904 1.327 . S
C902 H927 0.950 . S
C903 C902 1.349 . S
C903 C919 1.349 . S
C904 C902 1.327 . S
C904 C923 1.429 . S
C904 H928 0.950 . S
C905 C922 1.574 . S
C905 C924 1.368 . S
C905 H929 0.949 . S
H906 C910 0.949 . S
C907 C908 1.349 . S
C907 C909 1.327 . S
C907 H930 0.950 . S
C908 C907 1.349 . S
C908 C920 1.349 . S
C909 C907 1.327 . S
C909 C925 1.429 . S
C909 H931 0.950 . S
C910 H906 0.949 . S
C910 C918 1.574 . S
C910 C926 1.368 . S
H911 C919 0.950 . S
H912 C917 0.950 . S
H913 C918 0.949 . S
H914 C920 0.950 . S
H915 C921 0.950 . S
H916 C922 0.949 . S
C917 H912 0.950 . S
C917 C919 1.327 . S
C917 C923 1.429 . S
C918 C910 1.574 . S
C918 H913 0.949 . S
C918 C924 1.368 . S
C919 C903 1.349 . S
C919 H911 0.950 . S
C919 C917 1.327 . S
C920 C908 1.349 . S
C920 H914 0.950 . S
C920 C921 1.327 . S
C921 H915 0.950 . S
C921 C920 1.327 . S
C921 C925 1.429 . S
C922 C905 1.574 . S
C922 H916 0.949 . S
C922 C926 1.368 . S
C923 C904 1.429 . S
C923 C917 1.429 . S
C923 C924 1.523 . S
C924 C905 1.368 . S
C924 C918 1.368 . S
C924 C923 1.523 . S
C925 C909 1.429 . S
C925 C921 1.429 . S
C925 C926 1.523 . S
C926 C910 1.368 . S
C926 C922 1.368 . S
C926 C925 1.523 . S
H927 C902 0.950 . S
H928 C904 0.950 . S
H929 C905 0.949 . S
H930 C907 0.950 . S
H931 C909 0.950 . S
C932 C933 1.349 1_565 S
C932 C934 1.327 . S
C932 H957 0.950 . S
C933 C932 1.349 1_545 S
C933 C949 1.349 . S
C934 C932 1.327 . S
C934 C953 1.429 1_565 S
C934 H958 0.950 . S
C935 C952 1.574 . S
C935 C954 1.368 . S
C935 H959 0.949 . S
H936 C940 0.949 . S
C937 C938 1.349 . S
C937 C939 1.327 . S
C937 H960 0.950 . S
C938 C937 1.349 . S
C938 C950 1.349 . S
C939 C937 1.327 . S
C939 C955 1.429 . S
C939 H961 0.950 . S
C940 H936 0.949 . S
C940 C948 1.574 . S
C940 C956 1.368 1_565 S
H941 C949 0.950 . S
H942 C947 0.950 . S
H943 C948 0.949 . S
H944 C950 0.950 1_565 S
H945 C951 0.946 . S
H946 C952 0.949 . S
C947 H942 0.950 . S
C947 C949 1.327 . S
C947 C953 1.429 . S
C948 C940 1.574 . S
C948 H943 0.949 . S
C948 C954 1.368 1_565 S
C949 C933 1.349 . S
C949 H941 0.950 . S
C949 C947 1.327 . S
C950 C938 1.349 . S
C950 H944 0.950 1_545 S
C950 C951 1.328 1_545 S
C951 H945 0.946 . S
C951 C950 1.328 1_565 S
C951 C955 1.431 1_565 S
C952 C935 1.574 . S
C952 H946 0.949 . S
C952 C956 1.368 . S
C953 C934 1.429 1_545 S
C953 C947 1.429 . S
C953 C954 1.523 . S
C954 C935 1.368 . S
C954 C948 1.368 1_545 S
C954 C953 1.523 . S
C955 C939 1.429 . S
C955 C951 1.431 1_545 S
C955 C956 1.523 . S
C956 C940 1.368 1_545 S
C956 C952 1.368 . S
C956 C955 1.523 . S
H957 C932 0.950 . S
H958 C934 0.950 . S
H959 C935 0.949 . S
H960 C937 0.950 . S
H961 C939 0.950 . S
C962 C963 1.349 . S
C962 C964 1.327 . S
C962 H987 0.950 . S
C963 C962 1.349 . S
C963 C979 1.349 . S
C964 C962 1.327 . S
C964 C983 1.429 . S
C964 H988 0.950 . S
C965 C982 1.574 . S
C965 C984 1.368 . S
C965 H989 0.949 . S
H966 C970 0.949 . S
C967 C968 1.349 . S
C967 C969 1.327 . S
C967 H990 0.950 . S
C968 C967 1.349 . S
C968 C980 1.349 . S
C969 C967 1.327 . S
C969 C985 1.429 . S
C969 H991 0.950 . S
C970 H966 0.949 . S
C970 C978 1.574 . S
C970 C986 1.368 . S
H971 C979 0.950 . S
H972 C977 0.950 . S
H973 C978 0.949 . S
H974 C980 0.950 . S
H975 C981 0.950 . S
H976 C982 0.949 . S
C977 H972 0.950 . S
C977 C979 1.327 . S
C977 C983 1.429 . S
C978 C970 1.574 . S
C978 H973 0.949 . S
C978 C984 1.368 . S
C979 C963 1.349 . S
C979 H971 0.950 . S
C979 C977 1.327 . S
C980 C968 1.349 . S
C980 H974 0.950 . S
C980 C981 1.327 . S
C981 H975 0.950 . S
C981 C980 1.327 . S
C981 C985 1.429 . S
C982 C965 1.574 . S
C982 H976 0.949 . S
C982 C986 1.368 . S
C983 C964 1.429 . S
C983 C977 1.429 . S
C983 C984 1.523 . S
C984 C965 1.368 . S
C984 C978 1.368 . S
C984 C983 1.523 . S
C985 C969 1.429 . S
C985 C981 1.429 . S
C985 C986 1.523 . S
C986 C970 1.368 . S
C986 C982 1.368 . S
C986 C985 1.523 . S
H987 C962 0.950 . S
H988 C964 0.950 . S
H989 C965 0.949 . S
H990 C967 0.950 . S
H991 C969 0.950 . S
C992 C993 1.349 . S
C992 C994 1.327 . S
C992 H1017 0.950 . S
C993 C992 1.349 . S
C993 C1009 1.349 . S
C994 C992 1.327 . S
C994 C1013 1.429 . S
C994 H1018 0.950 . S
C995 C1012 1.574 . S
C995 C1014 1.368 . S
C995 H1019 0.949 . S
H996 C1000 0.949 . S
C997 C998 1.349 1_655 S
C997 C999 1.327 . S
C997 H1020 0.947 . S
C998 C997 1.349 1_455 S
C998 C1010 1.349 . S
C999 C997 1.327 . S
C999 C1015 1.429 . S
C999 H1021 0.950 . S
C1000 H996 0.949 . S
C1000 C1008 1.574 . S
C1000 C1016 1.368 . S
H1001 C1009 0.950 . S
H1002 C1007 0.950 . S
H1003 C1008 0.949 . S
H1004 C1010 0.950 . S
H1005 C1011 0.950 1_455 S
H1006 C1012 0.949 . S
C1007 H1002 0.950 . S
C1007 C1009 1.327 . S
C1007 C1013 1.429 . S
C1008 C1000 1.574 . S
C1008 H1003 0.949 . S
C1008 C1014 1.368 . S
C1009 C993 1.349 . S
C1009 H1001 0.950 . S
C1009 C1007 1.327 . S
C1010 C998 1.349 . S
C1010 H1004 0.950 . S
C1010 C1011 1.327 1_455 S
C1011 H1005 0.950 1_655 S
C1011 C1010 1.327 1_655 S
C1011 C1015 1.429 . S
C1012 C995 1.574 . S
C1012 H1006 0.949 . S
C1012 C1016 1.368 . S
C1013 C994 1.429 . S
C1013 C1007 1.429 . S
C1013 C1014 1.523 . S
C1014 C995 1.368 . S
C1014 C1008 1.368 . S
C1014 C1013 1.523 . S
C1015 C999 1.429 . S
C1015 C1011 1.429 . S
C1015 C1016 1.523 . S
C1016 C1000 1.368 . S
C1016 C1012 1.368 . S
C1016 C1015 1.523 . S
H1017 C992 0.950 . S
H1018 C994 0.950 . S
H1019 C995 0.949 . S
H1020 C997 0.947 . S
H1021 C999 0.950 . S
C1022 C1023 1.349 . S
C1022 C1024 1.327 . S
C1022 H1047 0.950 . S
C1023 C1022 1.349 . S
C1023 C1039 1.349 . S
C1024 C1022 1.327 . S
C1024 C1043 1.429 . S
C1024 H1048 0.950 . S
C1025 C1042 1.574 . S
C1025 C1044 1.368 . S
C1025 H1049 0.949 . S
H1026 C1030 0.949 . S
C1027 C1028 1.349 . S
C1027 C1029 1.327 . S
C1027 H1050 0.950 . S
C1028 C1027 1.349 . S
C1028 C1040 1.349 . S
C1029 C1027 1.327 . S
C1029 C1045 1.429 . S
C1029 H1051 0.950 . S
C1030 H1026 0.949 . S
C1030 C1038 1.574 . S
C1030 C1046 1.368 . S
H1031 C1039 0.950 . S
H1032 C1037 0.950 . S
H1033 C1038 0.949 . S
H1034 C1040 0.950 . S
H1035 C1041 0.950 . S
H1036 C1042 0.949 . S
C1037 H1032 0.950 . S
C1037 C1039 1.327 . S
C1037 C1043 1.429 . S
C1038 C1030 1.574 . S
C1038 H1033 0.949 . S
C1038 C1044 1.368 . S
C1039 C1023 1.349 . S
C1039 H1031 0.950 . S
C1039 C1037 1.327 . S
C1040 C1028 1.349 . S
C1040 H1034 0.950 . S
C1040 C1041 1.327 . S
C1041 H1035 0.950 . S
C1041 C1040 1.327 . S
C1041 C1045 1.429 . S
C1042 C1025 1.574 . S
C1042 H1036 0.949 . S
C1042 C1046 1.368 . S
C1043 C1024 1.429 . S
C1043 C1037 1.429 . S
C1043 C1044 1.523 . S
C1044 C1025 1.368 . S
C1044 C1038 1.368 . S
C1044 C1043 1.523 . S
C1045 C1029 1.429 . S
C1045 C1041 1.429 . S
C1045 C1046 1.523 . S
C1046 C1030 1.368 . S
C1046 C1042 1.368 . S
C1046 C1045 1.523 . S
H1047 C1022 0.950 . S
H1048 C1024 0.950 . S
H1049 C1025 0.949 . S
H1050 C1027 0.950 . S
H1051 C1029 0.950 . S
C1052 C1053 1.349 . S
C1052 C1054 1.327 . S
C1052 H1077 0.950 . S
C1053 C1052 1.349 . S
C1053 C1069 1.349 . S
C1054 C1052 1.327 . S
C1054 C1073 1.429 . S
C1054 H1078 0.950 . S
C1055 C1072 1.574 . S
C1055 C1074 1.368 . S
C1055 H1079 0.949 . S
H1056 C1060 0.949 . S
C1057 C1058 1.349 . S
C1057 C1059 1.327 . S
C1057 H1080 0.950 . S
C1058 C1057 1.349 . S
C1058 C1070 1.349 . S
C1059 C1057 1.327 . S
C1059 C1075 1.429 . S
C1059 H1081 0.950 . S
C1060 H1056 0.949 . S
C1060 C1068 1.574 . S
C1060 C1076 1.368 . S
H1061 C1069 0.950 . S
H1062 C1067 0.950 . S
H1063 C1068 0.949 . S
H1064 C1070 0.950 . S
H1065 C1071 0.950 . S
H1066 C1072 0.949 . S
C1067 H1062 0.950 . S
C1067 C1069 1.327 . S
C1067 C1073 1.429 . S
C1068 C1060 1.574 . S
C1068 H1063 0.949 . S
C1068 C1074 1.368 . S
C1069 C1053 1.349 . S
C1069 H1061 0.950 . S
C1069 C1067 1.327 . S
C1070 C1058 1.349 . S
C1070 H1064 0.950 . S
C1070 C1071 1.327 . S
C1071 H1065 0.950 . S
C1071 C1070 1.327 . S
C1071 C1075 1.429 . S
C1072 C1055 1.574 . S
C1072 H1066 0.949 . S
C1072 C1076 1.368 . S
C1073 C1054 1.429 . S
C1073 C1067 1.429 . S
C1073 C1074 1.523 . S
C1074 C1055 1.368 . S
C1074 C1068 1.368 . S
C1074 C1073 1.523 . S
C1075 C1059 1.429 . S
C1075 C1071 1.429 . S
C1075 C1076 1.523 . S
C1076 C1060 1.368 . S
C1076 C1072 1.368 . S
C1076 C1075 1.523 . S
H1077 C1052 0.950 . S
H1078 C1054 0.950 . S
H1079 C1055 0.949 . S
H1080 C1057 0.950 . S
H1081 C1059 0.950 . S
C1082 C1083 1.349 . S
C1082 C1084 1.327 . S
C1082 H1107 0.950 . S
C1083 C1082 1.349 . S
C1083 C1099 1.349 . S
C1084 C1082 1.327 . S
C1084 C1103 1.429 . S
C1084 H1108 0.950 . S
C1085 C1102 1.574 . S
C1085 C1104 1.368 . S
C1085 H1109 0.949 . S
H1086 C1090 0.949 . S
C1087 C1088 1.349 . S
C1087 C1089 1.327 . S
C1087 H1110 0.950 . S
C1088 C1087 1.349 . S
C1088 C1100 1.349 . S
C1089 C1087 1.327 . S
C1089 C1105 1.429 . S
C1089 H1111 0.950 . S
C1090 H1086 0.949 . S
C1090 C1098 1.574 . S
C1090 C1106 1.368 . S
H1091 C1099 0.950 . S
H1092 C1097 0.950 . S
H1093 C1098 0.949 . S
H1094 C1100 0.950 . S
H1095 C1101 0.950 . S
H1096 C1102 0.949 . S
C1097 H1092 0.950 . S
C1097 C1099 1.327 . S
C1097 C1103 1.429 . S
C1098 C1090 1.574 . S
C1098 H1093 0.949 . S
C1098 C1104 1.368 . S
C1099 C1083 1.349 . S
C1099 H1091 0.950 . S
C1099 C1097 1.327 . S
C1100 C1088 1.349 . S
C1100 H1094 0.950 . S
C1100 C1101 1.327 . S
C1101 H1095 0.950 . S
C1101 C1100 1.327 . S
C1101 C1105 1.429 . S
C1102 C1085 1.574 . S
C1102 H1096 0.949 . S
C1102 C1106 1.368 . S
C1103 C1084 1.429 . S
C1103 C1097 1.429 . S
C1103 C1104 1.523 . S
C1104 C1085 1.368 . S
C1104 C1098 1.368 . S
C1104 C1103 1.523 . S
C1105 C1089 1.429 . S
C1105 C1101 1.429 . S
C1105 C1106 1.523 . S
C1106 C1090 1.368 . S
C1106 C1102 1.368 . S
C1106 C1105 1.523 . S
H1107 C1082 0.950 . S
H1108 C1084 0.950 . S
H1109 C1085 0.949 . S
H1110 C1087 0.950 . S
H1111 C1089 0.950 . S
C1112 C1113 1.349 . S
C1112 C1114 1.327 . S
C1112 H1137 0.950 . S
C1113 C1112 1.349 . S
C1113 C1129 1.349 . S
C1114 C1112 1.327 . S
C1114 C1133 1.429 . S
C1114 H1138 0.950 . S
C1115 C1132 1.574 . S
C1115 C1134 1.368 . S
C1115 H1139 0.949 . S
H1116 C1120 0.949 . S
C1117 C1118 1.349 . S
C1117 C1119 1.327 . S
C1117 H1140 0.950 . S
C1118 C1117 1.349 . S
C1118 C1130 1.349 . S
C1119 C1117 1.327 . S
C1119 C1135 1.429 1_545 S
C1119 H1141 0.950 . S
C1120 H1116 0.949 . S
C1120 C1128 1.574 . S
C1120 C1136 1.368 . S
H1121 C1129 0.950 . S
H1122 C1127 0.950 . S
H1123 C1128 0.949 . S
H1124 C1130 0.950 . S
H1125 C1131 0.950 . S
H1126 C1132 0.949 . S
C1127 H1122 0.950 . S
C1127 C1129 1.327 . S
C1127 C1133 1.429 . S
C1128 C1120 1.574 . S
C1128 H1123 0.949 . S
C1128 C1134 1.368 . S
C1129 C1113 1.349 . S
C1129 H1121 0.950 . S
C1129 C1127 1.327 . S
C1130 C1118 1.349 . S
C1130 H1124 0.950 . S
C1130 C1131 1.327 1_545 S
C1131 H1125 0.950 . S
C1131 C1130 1.327 1_565 S
C1131 C1135 1.429 . S
C1132 C1115 1.574 . S
C1132 H1126 0.949 . S
C1132 C1136 1.368 . S
C1133 C1114 1.429 . S
C1133 C1127 1.429 . S
C1133 C1134 1.523 . S
C1134 C1115 1.368 . S
C1134 C1128 1.368 . S
C1134 C1133 1.523 . S
C1135 C1119 1.429 1_565 S
C1135 C1131 1.429 . S
C1135 C1136 1.523 . S
C1136 C1120 1.368 . S
C1136 C1132 1.368 . S
C1136 C1135 1.523 . S
H1137 C1112 0.950 . S
H1138 C1114 0.950 . S
H1139 C1115 0.949 . S
H1140 C1117 0.950 . S
H1141 C1119 0.950 . S
C1142 C1143 1.362 . S
C1142 C1144 1.327 . S
C1142 H1167 0.950 . S
C1143 C1142 1.362 . S
C1143 C1159 1.333 1_556 S
C1144 C1142 1.327 . S
C1144 C1163 1.444 . S
C1144 H1168 0.950 . S
C1145 C1162 1.574 . S
C1145 C1164 1.351 1_554 S
C1145 H1169 0.949 . S
H1146 C1150 0.949 . S
C1147 C1148 1.334 1_554 S
C1147 C1149 1.327 . S
C1147 H1170 0.950 . S
C1148 C1147 1.334 1_556 S
C1148 C1160 1.366 . S
C1149 C1147 1.327 . S
C1149 C1165 1.412 1_554 S
C1149 H1171 0.950 . S
C1150 H1146 0.949 . S
C1150 C1158 1.574 . S
C1150 C1166 1.386 . S
H1151 C1159 0.950 . S
H1152 C1157 0.950 . S
H1153 C1158 0.949 . S
H1154 C1160 0.950 . S
H1155 C1161 0.950 . S
H1156 C1162 0.949 . S
C1157 H1152 0.950 . S
C1157 C1159 1.327 . S
C1157 C1163 1.416 1_554 S
C1158 C1150 1.574 . S
C1158 H1153 0.949 . S
C1158 C1164 1.383 . S
C1159 C1143 1.333 1_554 S
C1159 H1151 0.950 . S
C1159 C1157 1.327 . S
C1160 C1148 1.366 . S
C1160 H1154 0.950 . S
C1160 C1161 1.327 . S
C1161 H1155 0.950 . S
C1161 C1160 1.327 . S
C1161 C1165 1.442 . S
C1162 C1145 1.574 . S
C1162 H1156 0.949 . S
C1162 C1166 1.353 1_554 S
C1163 C1144 1.444 . S
C1163 C1157 1.416 1_556 S
C1163 C1164 1.523 . S
C1164 C1145 1.351 1_556 S
C1164 C1158 1.383 . S
C1164 C1163 1.523 . S
C1165 C1149 1.412 1_556 S
C1165 C1161 1.442 . S
C1165 C1166 1.523 . S
C1166 C1150 1.386 . S
C1166 C1162 1.353 1_556 S
C1166 C1165 1.523 . S
H1167 C1142 0.950 . S
H1168 C1144 0.950 . S
H1169 C1145 0.949 . S
H1170 C1147 0.950 . S
H1171 C1149 0.950 . S
C1172 C1173 1.349 . S
C1172 C1174 1.327 . S
C1172 H1197 0.950 . S
C1173 C1172 1.349 . S
C1173 C1189 1.349 . S
C1174 C1172 1.327 . S
C1174 C1193 1.429 . S
C1174 H1198 0.950 . S
C1175 C1192 1.574 . S
C1175 C1194 1.368 . S
C1175 H1199 0.949 . S
H1176 C1180 0.949 . S
C1177 C1178 1.349 . S
C1177 C1179 1.327 . S
C1177 H1200 0.950 . S
C1178 C1177 1.349 . S
C1178 C1190 1.349 . S
C1179 C1177 1.327 . S
C1179 C1195 1.429 . S
C1179 H1201 0.950 . S
C1180 H1176 0.949 . S
C1180 C1188 1.574 . S
C1180 C1196 1.368 . S
H1181 C1189 0.950 . S
H1182 C1187 0.950 . S
H1183 C1188 0.949 . S
H1184 C1190 0.950 . S
H1185 C1191 0.950 . S
H1186 C1192 0.949 . S
C1187 H1182 0.950 . S
C1187 C1189 1.327 . S
C1187 C1193 1.429 . S
C1188 C1180 1.574 . S
C1188 H1183 0.949 . S
C1188 C1194 1.368 . S
C1189 C1173 1.349 . S
C1189 H1181 0.950 . S
C1189 C1187 1.327 . S
C1190 C1178 1.349 . S
C1190 H1184 0.950 . S
C1190 C1191 1.327 . S
C1191 H1185 0.950 . S
C1191 C1190 1.327 . S
C1191 C1195 1.429 . S
C1192 C1175 1.574 . S
C1192 H1186 0.949 . S
C1192 C1196 1.368 . S
C1193 C1174 1.429 . S
C1193 C1187 1.429 . S
C1193 C1194 1.523 . S
C1194 C1175 1.368 . S
C1194 C1188 1.368 . S
C1194 C1193 1.523 . S
C1195 C1179 1.429 . S
C1195 C1191 1.429 . S
C1195 C1196 1.523 . S
C1196 C1180 1.368 . S
C1196 C1192 1.368 . S
C1196 C1195 1.523 . S
H1197 C1172 0.950 . S
H1198 C1174 0.950 . S
H1199 C1175 0.949 . S
H1200 C1177 0.950 . S
H1201 C1179 0.950 . S
C1202 C1203 1.349 . S
C1202 C1204 1.327 . S
C1202 H1227 0.950 . S
C1203 C1202 1.349 . S
C1203 C1219 1.349 . S
C1204 C1202 1.327 . S
C1204 C1223 1.429 . S
C1204 H1228 0.950 . S
C1205 C1222 1.574 . S
C1205 C1224 1.368 . S
C1205 H1229 0.949 . S
H1206 C1210 0.949 . S
C1207 C1208 1.349 . S
C1207 C1209 1.327 . S
C1207 H1230 0.950 . S
C1208 C1207 1.349 . S
C1208 C1220 1.349 . S
C1209 C1207 1.327 . S
C1209 C1225 1.429 . S
C1209 H1231 0.950 . S
C1210 H1206 0.949 . S
C1210 C1218 1.574 . S
C1210 C1226 1.368 . S
H1211 C1219 0.950 . S
H1212 C1217 0.950 . S
H1213 C1218 0.949 . S
H1214 C1220 0.950 . S
H1215 C1221 0.950 . S
H1216 C1222 0.949 . S
C1217 H1212 0.950 . S
C1217 C1219 1.327 . S
C1217 C1223 1.429 . S
C1218 C1210 1.574 . S
C1218 H1213 0.949 . S
C1218 C1224 1.368 . S
C1219 C1203 1.349 . S
C1219 H1211 0.950 . S
C1219 C1217 1.327 . S
C1220 C1208 1.349 . S
C1220 H1214 0.950 . S
C1220 C1221 1.327 . S
C1221 H1215 0.950 . S
C1221 C1220 1.327 . S
C1221 C1225 1.429 . S
C1222 C1205 1.574 . S
C1222 H1216 0.949 . S
C1222 C1226 1.368 . S
C1223 C1204 1.429 . S
C1223 C1217 1.429 . S
C1223 C1224 1.523 . S
C1224 C1205 1.368 . S
C1224 C1218 1.368 . S
C1224 C1223 1.523 . S
C1225 C1209 1.429 . S
C1225 C1221 1.429 . S
C1225 C1226 1.523 . S
C1226 C1210 1.368 . S
C1226 C1222 1.368 . S
C1226 C1225 1.523 . S
H1227 C1202 0.950 . S
H1228 C1204 0.950 . S
H1229 C1205 0.949 . S
H1230 C1207 0.950 . S
H1231 C1209 0.950 . S
C1232 C1233 1.349 . S
C1232 C1234 1.327 . S
C1232 H1257 0.950 . S
C1233 C1232 1.349 . S
C1233 C1249 1.349 . S
C1234 C1232 1.327 . S
C1234 C1253 1.429 . S
C1234 H1258 0.950 . S
C1235 C1252 1.574 . S
C1235 C1254 1.368 . S
C1235 H1259 0.949 . S
H1236 C1240 0.949 . S
C1237 C1238 1.349 . S
C1237 C1239 1.327 . S
C1237 H1260 0.950 . S
C1238 C1237 1.349 . S
C1238 C1250 1.349 . S
C1239 C1237 1.327 . S
C1239 C1255 1.429 . S
C1239 H1261 0.950 . S
C1240 H1236 0.949 . S
C1240 C1248 1.574 . S
C1240 C1256 1.368 . S
H1241 C1249 0.950 . S
H1242 C1247 0.950 . S
H1243 C1248 0.949 . S
H1244 C1250 0.950 . S
H1245 C1251 0.950 . S
H1246 C1252 0.949 . S
C1247 H1242 0.950 . S
C1247 C1249 1.327 . S
C1247 C1253 1.429 . S
C1248 C1240 1.574 . S
C1248 H1243 0.949 . S
C1248 C1254 1.368 . S
C1249 C1233 1.349 . S
C1249 H1241 0.950 . S
C1249 C1247 1.327 . S
C1250 C1238 1.349 . S
C1250 H1244 0.950 . S
C1250 C1251 1.327 . S
C1251 H1245 0.950 . S
C1251 C1250 1.327 . S
C1251 C1255 1.429 . S
C1252 C1235 1.574 . S
C1252 H1246 0.949 . S
C1252 C1256 1.368 . S
C1253 C1234 1.429 . S
C1253 C1247 1.429 . S
C1253 C1254 1.523 . S
C1254 C1235 1.368 . S
C1254 C1248 1.368 . S
C1254 C1253 1.523 . S
C1255 C1239 1.429 . S
C1255 C1251 1.429 . S
C1255 C1256 1.523 . S
C1256 C1240 1.368 . S
C1256 C1252 1.368 . S
C1256 C1255 1.523 . S
H1257 C1232 0.950 . S
H1258 C1234 0.950 . S
H1259 C1235 0.949 . S
H1260 C1237 0.950 . S
H1261 C1239 0.950 . S
C1262 C1263 1.349 . S
C1262 C1264 1.327 . S
C1262 H1287 0.950 . S
C1263 C1262 1.349 . S
C1263 C1279 1.349 . S
C1264 C1262 1.327 . S
C1264 C1283 1.429 . S
C1264 H1288 0.950 . S
C1265 C1282 1.574 . S
C1265 C1284 1.368 . S
C1265 H1289 0.949 . S
H1266 C1270 0.949 . S
C1267 C1268 1.349 . S
C1267 C1269 1.327 . S
C1267 H1290 0.950 . S
C1268 C1267 1.349 . S
C1268 C1280 1.349 . S
C1269 C1267 1.327 . S
C1269 C1285 1.429 . S
C1269 H1291 0.950 . S
C1270 H1266 0.949 . S
C1270 C1278 1.574 . S
C1270 C1286 1.368 . S
H1271 C1279 0.950 . S
H1272 C1277 0.950 . S
H1273 C1278 0.949 . S
H1274 C1280 0.950 . S
H1275 C1281 0.950 . S
H1276 C1282 0.949 . S
C1277 H1272 0.950 . S
C1277 C1279 1.327 . S
C1277 C1283 1.429 . S
C1278 C1270 1.574 . S
C1278 H1273 0.949 . S
C1278 C1284 1.368 . S
C1279 C1263 1.349 . S
C1279 H1271 0.950 . S
C1279 C1277 1.327 . S
C1280 C1268 1.349 . S
C1280 H1274 0.950 . S
C1280 C1281 1.327 . S
C1281 H1275 0.950 . S
C1281 C1280 1.327 . S
C1281 C1285 1.429 . S
C1282 C1265 1.574 . S
C1282 H1276 0.949 . S
C1282 C1286 1.368 . S
C1283 C1264 1.429 . S
C1283 C1277 1.429 . S
C1283 C1284 1.523 . S
C1284 C1265 1.368 . S
C1284 C1278 1.368 . S
C1284 C1283 1.523 . S
C1285 C1269 1.429 . S
C1285 C1281 1.429 . S
C1285 C1286 1.523 . S
C1286 C1270 1.368 . S
C1286 C1282 1.368 . S
C1286 C1285 1.523 . S
H1287 C1262 0.950 . S
H1288 C1264 0.950 . S
H1289 C1265 0.949 . S
H1290 C1267 0.950 . S
H1291 C1269 0.950 . S
C1292 C1293 1.349 . S
C1292 C1294 1.327 . S
C1292 H1317 0.950 . S
C1293 C1292 1.349 . S
C1293 C1309 1.349 . S
C1294 C1292 1.327 . S
C1294 C1313 1.429 . S
C1294 H1318 0.950 . S
C1295 C1312 1.574 . S
C1295 C1314 1.368 . S
C1295 H1319 0.949 . S
H1296 C1300 0.949 . S
C1297 C1298 1.349 . S
C1297 C1299 1.327 . S
C1297 H1320 0.950 . S
C1298 C1297 1.349 . S
C1298 C1310 1.349 . S
C1299 C1297 1.327 . S
C1299 C1315 1.429 . S
C1299 H1321 0.950 . S
C1300 H1296 0.949 . S
C1300 C1308 1.574 . S
C1300 C1316 1.368 . S
H1301 C1309 0.950 . S
H1302 C1307 0.950 . S
H1303 C1308 0.949 . S
H1304 C1310 0.950 . S
H1305 C1311 0.950 . S
H1306 C1312 0.949 . S
C1307 H1302 0.950 . S
C1307 C1309 1.327 . S
C1307 C1313 1.429 . S
C1308 C1300 1.574 . S
C1308 H1303 0.949 . S
C1308 C1314 1.368 . S
C1309 C1293 1.349 . S
C1309 H1301 0.950 . S
C1309 C1307 1.327 . S
C1310 C1298 1.349 . S
C1310 H1304 0.950 . S
C1310 C1311 1.327 . S
C1311 H1305 0.950 . S
C1311 C1310 1.327 . S
C1311 C1315 1.429 . S
C1312 C1295 1.574 . S
C1312 H1306 0.949 . S
C1312 C1316 1.368 . S
C1313 C1294 1.429 . S
C1313 C1307 1.429 . S
C1313 C1314 1.523 . S
C1314 C1295 1.368 . S
C1314 C1308 1.368 . S
C1314 C1313 1.523 . S
C1315 C1299 1.429 . S
C1315 C1311 1.429 . S
C1315 C1316 1.523 . S
C1316 C1300 1.368 . S
C1316 C1312 1.368 . S
C1316 C1315 1.523 . S
H1317 C1292 0.950 . S
H1318 C1294 0.950 . S
H1319 C1295 0.949 . S
H1320 C1297 0.950 . S
H1321 C1299 0.950 . S
C1322 C1323 1.349 . S
C1322 C1324 1.327 . S
C1322 H1347 0.950 . S
C1323 C1322 1.349 . S
C1323 C1339 1.349 . S
C1324 C1322 1.327 . S
C1324 C1343 1.429 . S
C1324 H1348 0.950 . S
C1325 C1342 1.574 . S
C1325 C1344 1.368 . S
C1325 H1349 0.949 . S
H1326 C1330 0.949 . S
C1327 C1328 1.349 . S
C1327 C1329 1.327 . S
C1327 H1350 0.950 . S
C1328 C1327 1.349 . S
C1328 C1340 1.349 . S
C1329 C1327 1.327 . S
C1329 C1345 1.429 . S
C1329 H1351 0.950 . S
C1330 H1326 0.949 . S
C1330 C1338 1.574 . S
C1330 C1346 1.368 . S
H1331 C1339 0.950 . S
H1332 C1337 0.950 . S
H1333 C1338 0.949 . S
H1334 C1340 0.950 . S
H1335 C1341 0.950 . S
H1336 C1342 0.949 . S
C1337 H1332 0.950 . S
C1337 C1339 1.327 . S
C1337 C1343 1.429 . S
C1338 C1330 1.574 . S
C1338 H1333 0.949 . S
C1338 C1344 1.368 . S
C1339 C1323 1.349 . S
C1339 H1331 0.950 . S
C1339 C1337 1.327 . S
C1340 C1328 1.349 . S
C1340 H1334 0.950 . S
C1340 C1341 1.327 . S
C1341 H1335 0.950 . S
C1341 C1340 1.327 . S
C1341 C1345 1.429 . S
C1342 C1325 1.574 . S
C1342 H1336 0.949 . S
C1342 C1346 1.368 . S
C1343 C1324 1.429 . S
C1343 C1337 1.429 . S
C1343 C1344 1.523 . S
C1344 C1325 1.368 . S
C1344 C1338 1.368 . S
C1344 C1343 1.523 . S
C1345 C1329 1.429 . S
C1345 C1341 1.429 . S
C1345 C1346 1.523 . S
C1346 C1330 1.368 . S
C1346 C1342 1.368 . S
C1346 C1345 1.523 . S
H1347 C1322 0.950 . S
H1348 C1324 0.950 . S
H1349 C1325 0.949 . S
H1350 C1327 0.950 . S
H1351 C1329 0.950 . S
C1352 C1353 1.349 . S
C1352 C1354 1.327 . S
C1352 H1377 0.968 . S
C1353 C1352 1.349 . S
C1353 C1369 1.349 . S
C1354 C1352 1.327 . S
C1354 C1373 1.429 . S
C1354 H1378 0.950 . S
C1355 C1372 1.574 . S
C1355 C1374 1.368 . S
C1355 H1379 0.949 . S
H1356 C1360 0.949 . S
C1357 C1358 1.349 . S
C1357 C1359 1.327 . S
C1357 H1380 0.950 . S
C1358 C1357 1.349 . S
C1358 C1370 1.349 . S
C1359 C1357 1.327 . S
C1359 C1375 1.429 . S
C1359 H1381 0.950 . S
C1360 H1356 0.949 . S
C1360 C1368 1.574 . S
C1360 C1376 1.368 . S
H1361 C1369 0.950 . S
H1362 C1367 0.950 . S
H1363 C1368 0.949 . S
H1364 C1370 0.950 . S
H1365 C1371 0.950 . S
H1366 C1372 0.949 . S
C1367 H1362 0.950 . S
C1367 C1369 1.327 . S
C1367 C1373 1.429 . S
C1368 C1360 1.574 . S
C1368 H1363 0.949 . S
C1368 C1374 1.368 . S
C1369 C1353 1.349 . S
C1369 H1361 0.950 . S
C1369 C1367 1.327 . S
C1370 C1358 1.349 . S
C1370 H1364 0.950 . S
C1370 C1371 1.327 . S
C1371 H1365 0.950 . S
C1371 C1370 1.327 . S
C1371 C1375 1.429 . S
C1372 C1355 1.574 . S
C1372 H1366 0.949 . S
C1372 C1376 1.368 . S
C1373 C1354 1.429 . S
C1373 C1367 1.429 . S
C1373 C1374 1.523 . S
C1374 C1355 1.368 . S
C1374 C1368 1.368 . S
C1374 C1373 1.523 . S
C1375 C1359 1.429 . S
C1375 C1371 1.429 . S
C1375 C1376 1.523 . S
C1376 C1360 1.368 . S
C1376 C1372 1.368 . S
C1376 C1375 1.523 . S
H1377 C1352 0.968 . S
H1378 C1354 0.950 . S
H1379 C1355 0.949 . S
H1380 C1357 0.950 . S
H1381 C1359 0.950 . S
C1382 C1383 1.349 . S
C1382 C1384 1.327 . S
C1382 H1407 0.950 . S
C1383 C1382 1.349 . S
C1383 C1399 1.349 . S
C1384 C1382 1.327 . S
C1384 C1403 1.429 . S
C1384 H1408 0.950 . S
C1385 C1402 1.574 . S
C1385 C1404 1.368 . S
C1385 H1409 0.949 . S
H1386 C1390 0.949 . S
C1387 C1388 1.349 . S
C1387 C1389 1.327 . S
C1387 H1410 0.950 . S
C1388 C1387 1.349 . S
C1388 C1400 1.349 . S
C1389 C1387 1.327 . S
C1389 C1405 1.429 . S
C1389 H1411 0.950 . S
C1390 H1386 0.949 . S
C1390 C1398 1.574 . S
C1390 C1406 1.368 . S
H1391 C1399 0.950 . S
H1392 C1397 0.950 . S
H1393 C1398 0.949 . S
H1394 C1400 0.950 . S
H1395 C1401 0.950 . S
H1396 C1402 0.949 . S
C1397 H1392 0.950 . S
C1397 C1399 1.327 . S
C1397 C1403 1.429 . S
C1398 C1390 1.574 . S
C1398 H1393 0.949 . S
C1398 C1404 1.368 . S
C1399 C1383 1.349 . S
C1399 H1391 0.950 . S
C1399 C1397 1.327 . S
C1400 C1388 1.349 . S
C1400 H1394 0.950 . S
C1400 C1401 1.327 . S
C1401 H1395 0.950 . S
C1401 C1400 1.327 . S
C1401 C1405 1.429 . S
C1402 C1385 1.574 . S
C1402 H1396 0.949 . S
C1402 C1406 1.368 . S
C1403 C1384 1.429 . S
C1403 C1397 1.429 . S
C1403 C1404 1.523 . S
C1404 C1385 1.368 . S
C1404 C1398 1.368 . S
C1404 C1403 1.523 . S
C1405 C1389 1.429 . S
C1405 C1401 1.429 . S
C1405 C1406 1.523 . S
C1406 C1390 1.368 . S
C1406 C1402 1.368 . S
C1406 C1405 1.523 . S
H1407 C1382 0.950 . S
H1408 C1384 0.950 . S
H1409 C1385 0.949 . S
H1410 C1387 0.950 . S
H1411 C1389 0.950 . S
C1412 C1413 1.349 . S
C1412 C1414 1.327 . S
C1412 H1437 0.950 . S
C1413 C1412 1.349 . S
C1413 C1429 1.349 . S
C1414 C1412 1.327 . S
C1414 C1433 1.429 . S
C1414 H1438 0.950 . S
C1415 C1432 1.574 . S
C1415 C1434 1.368 . S
C1415 H1439 0.949 . S
H1416 C1420 0.949 . S
C1417 C1418 1.349 . S
C1417 C1419 1.327 . S
C1417 H1440 0.950 . S
C1418 C1417 1.349 . S
C1418 C1430 1.349 . S
C1419 C1417 1.327 . S
C1419 C1435 1.429 . S
C1419 H1441 0.950 . S
C1420 H1416 0.949 . S
C1420 C1428 1.574 . S
C1420 C1436 1.368 . S
H1421 C1429 0.950 . S
H1422 C1427 0.950 . S
H1423 C1428 0.949 . S
H1424 C1430 0.950 . S
H1425 C1431 0.950 . S
H1426 C1432 0.949 . S
C1427 H1422 0.950 . S
C1427 C1429 1.327 . S
C1427 C1433 1.429 . S
C1428 C1420 1.574 . S
C1428 H1423 0.949 . S
C1428 C1434 1.368 . S
C1429 C1413 1.349 . S
C1429 H1421 0.950 . S
C1429 C1427 1.327 . S
C1430 C1418 1.349 . S
C1430 H1424 0.950 . S
C1430 C1431 1.327 . S
C1431 H1425 0.950 . S
C1431 C1430 1.327 . S
C1431 C1435 1.429 . S
C1432 C1415 1.574 . S
C1432 H1426 0.949 . S
C1432 C1436 1.368 . S
C1433 C1414 1.429 . S
C1433 C1427 1.429 . S
C1433 C1434 1.523 . S
C1434 C1415 1.368 . S
C1434 C1428 1.368 . S
C1434 C1433 1.523 . S
C1435 C1419 1.429 . S
C1435 C1431 1.429 . S
C1435 C1436 1.523 . S
C1436 C1420 1.368 . S
C1436 C1432 1.368 . S
C1436 C1435 1.523 . S
H1437 C1412 0.950 . S
H1438 C1414 0.950 . S
H1439 C1415 0.949 . S
H1440 C1417 0.950 . S
H1441 C1419 0.950 . S
C1442 C1443 1.349 . S
C1442 C1444 1.327 . S
C1442 H1467 0.950 . S
C1443 C1442 1.349 . S
C1443 C1459 1.349 . S
C1444 C1442 1.327 . S
C1444 C1463 1.429 . S
C1444 H1468 0.950 . S
C1445 C1462 1.574 . S
C1445 C1464 1.368 . S
C1445 H1469 0.949 . S
H1446 C1450 0.949 . S
C1447 C1448 1.349 . S
C1447 C1449 1.327 . S
C1447 H1470 0.950 . S
C1448 C1447 1.349 . S
C1448 C1460 1.349 . S
C1449 C1447 1.327 . S
C1449 C1465 1.429 . S
C1449 H1471 0.950 . S
C1450 H1446 0.949 . S
C1450 C1458 1.574 . S
C1450 C1466 1.368 . S
H1451 C1459 0.950 . S
H1452 C1457 0.950 . S
H1453 C1458 0.949 . S
H1454 C1460 0.950 . S
H1455 C1461 0.950 . S
H1456 C1462 0.949 . S
C1457 H1452 0.950 . S
C1457 C1459 1.327 . S
C1457 C1463 1.429 . S
C1458 C1450 1.574 . S
C1458 H1453 0.949 . S
C1458 C1464 1.368 . S
C1459 C1443 1.349 . S
C1459 H1451 0.950 . S
C1459 C1457 1.327 . S
C1460 C1448 1.349 . S
C1460 H1454 0.950 . S
C1460 C1461 1.327 . S
C1461 H1455 0.950 . S
C1461 C1460 1.327 . S
C1461 C1465 1.429 . S
C1462 C1445 1.574 . S
C1462 H1456 0.949 . S
C1462 C1466 1.368 . S
C1463 C1444 1.429 . S
C1463 C1457 1.429 . S
C1463 C1464 1.523 . S
C1464 C1445 1.368 . S
C1464 C1458 1.368 . S
C1464 C1463 1.523 . S
C1465 C1449 1.429 . S
C1465 C1461 1.429 . S
C1465 C1466 1.523 . S
C1466 C1450 1.368 . S
C1466 C1462 1.368 . S
C1466 C1465 1.523 . S
H1467 C1442 0.950 . S
H1468 C1444 0.950 . S
H1469 C1445 0.949 . S
H1470 C1447 0.950 . S
H1471 C1449 0.950 . S
C1472 C1473 1.349 . S
C1472 C1474 1.327 . S
C1472 H1497 0.950 . S
C1473 C1472 1.349 . S
C1473 C1489 1.349 . S
C1474 C1472 1.327 . S
C1474 C1493 1.429 . S
C1474 H1498 0.950 . S
C1475 C1492 1.574 . S
C1475 C1494 1.368 . S
C1475 H1499 0.949 . S
H1476 C1480 0.949 . S
C1477 C1478 1.349 . S
C1477 C1479 1.327 . S
C1477 H1500 0.950 . S
C1478 C1477 1.349 . S
C1478 C1490 1.349 . S
C1479 C1477 1.327 . S
C1479 C1495 1.429 . S
C1479 H1501 0.950 . S
C1480 H1476 0.949 . S
C1480 C1488 1.574 . S
C1480 C1496 1.368 . S
H1481 C1489 0.950 . S
H1482 C1487 0.950 . S
H1483 C1488 0.949 . S
H1484 C1490 0.950 . S
H1485 C1491 0.950 . S
H1486 C1492 0.949 . S
C1487 H1482 0.950 . S
C1487 C1489 1.327 . S
C1487 C1493 1.429 . S
C1488 C1480 1.574 . S
C1488 H1483 0.949 . S
C1488 C1494 1.368 . S
C1489 C1473 1.349 . S
C1489 H1481 0.950 . S
C1489 C1487 1.327 . S
C1490 C1478 1.349 . S
C1490 H1484 0.950 . S
C1490 C1491 1.327 . S
C1491 H1485 0.950 . S
C1491 C1490 1.327 . S
C1491 C1495 1.429 . S
C1492 C1475 1.574 . S
C1492 H1486 0.949 . S
C1492 C1496 1.368 . S
C1493 C1474 1.429 . S
C1493 C1487 1.429 . S
C1493 C1494 1.523 . S
C1494 C1475 1.368 . S
C1494 C1488 1.368 . S
C1494 C1493 1.523 . S
C1495 C1479 1.429 . S
C1495 C1491 1.429 . S
C1495 C1496 1.523 . S
C1496 C1480 1.368 . S
C1496 C1492 1.368 . S
C1496 C1495 1.523 . S
H1497 C1472 0.950 . S
H1498 C1474 0.950 . S
H1499 C1475 0.949 . S
H1500 C1477 0.950 . S
H1501 C1479 0.950 . S
C1502 C1503 1.349 . S
C1502 C1504 1.327 . S
C1502 H1527 0.950 . S
C1503 C1502 1.349 . S
C1503 C1519 1.349 . S
C1504 C1502 1.327 . S
C1504 C1523 1.429 . S
C1504 H1528 0.950 . S
C1505 C1522 1.574 . S
C1505 C1524 1.368 . S
C1505 H1529 0.949 . S
H1506 C1510 0.949 . S
C1507 C1508 1.349 . S
C1507 C1509 1.327 . S
C1507 H1530 0.950 . S
C1508 C1507 1.349 . S
C1508 C1520 1.349 . S
C1509 C1507 1.327 . S
C1509 C1525 1.429 . S
C1509 H1531 0.950 . S
C1510 H1506 0.949 . S
C1510 C1518 1.574 . S
C1510 C1526 1.368 . S
H1511 C1519 0.950 . S
H1512 C1517 0.950 . S
H1513 C1518 0.949 . S
H1514 C1520 0.950 . S
H1515 C1521 0.950 . S
H1516 C1522 0.949 . S
C1517 H1512 0.950 . S
C1517 C1519 1.327 . S
C1517 C1523 1.429 . S
C1518 C1510 1.574 . S
C1518 H1513 0.949 . S
C1518 C1524 1.368 . S
C1519 C1503 1.349 . S
C1519 H1511 0.950 . S
C1519 C1517 1.327 . S
C1520 C1508 1.349 . S
C1520 H1514 0.950 . S
C1520 C1521 1.327 . S
C1521 H1515 0.950 . S
C1521 C1520 1.327 . S
C1521 C1525 1.429 . S
C1522 C1505 1.574 . S
C1522 H1516 0.949 . S
C1522 C1526 1.368 . S
C1523 C1504 1.429 . S
C1523 C1517 1.429 . S
C1523 C1524 1.523 . S
C1524 C1505 1.368 . S
C1524 C1518 1.368 . S
C1524 C1523 1.523 . S
C1525 C1509 1.429 . S
C1525 C1521 1.429 . S
C1525 C1526 1.523 . S
C1526 C1510 1.368 . S
C1526 C1522 1.368 . S
C1526 C1525 1.523 . S
H1527 C1502 0.950 . S
H1528 C1504 0.950 . S
H1529 C1505 0.949 . S
H1530 C1507 0.950 . S
H1531 C1509 0.950 . S
C1532 C1533 1.349 . S
C1532 C1534 1.327 . S
C1532 H1557 0.950 . S
C1533 C1532 1.349 . S
C1533 C1549 1.349 . S
C1534 C1532 1.327 . S
C1534 C1553 1.429 . S
C1534 H1558 0.950 . S
C1535 C1552 1.574 . S
C1535 C1554 1.368 . S
C1535 H1559 0.949 . S
H1536 C1540 0.949 . S
C1537 C1538 1.349 . S
C1537 C1539 1.327 . S
C1537 H1560 0.950 . S
C1538 C1537 1.349 . S
C1538 C1550 1.349 . S
C1539 C1537 1.327 . S
C1539 C1555 1.429 . S
C1539 H1561 0.950 . S
C1540 H1536 0.949 . S
C1540 C1548 1.574 . S
C1540 C1556 1.368 . S
H1541 C1549 0.950 . S
H1542 C1547 0.950 . S
H1543 C1548 0.949 . S
H1544 C1550 0.950 1_554 S
H1545 C1551 0.950 . S
H1546 C1552 0.949 . S
C1547 H1542 0.950 . S
C1547 C1549 1.327 . S
C1547 C1553 1.429 . S
C1548 C1540 1.574 . S
C1548 H1543 0.949 . S
C1548 C1554 1.368 . S
C1549 C1533 1.349 . S
C1549 H1541 0.950 . S
C1549 C1547 1.327 . S
C1550 C1538 1.349 . S
C1550 H1544 0.950 1_556 S
C1550 C1551 1.327 . S
C1551 H1545 0.950 . S
C1551 C1550 1.327 . S
C1551 C1555 1.429 . S
C1552 C1535 1.574 . S
C1552 H1546 0.949 . S
C1552 C1556 1.368 . S
C1553 C1534 1.429 . S
C1553 C1547 1.429 . S
C1553 C1554 1.523 . S
C1554 C1535 1.368 . S
C1554 C1548 1.368 . S
C1554 C1553 1.523 . S
C1555 C1539 1.429 . S
C1555 C1551 1.429 . S
C1555 C1556 1.523 . S
C1556 C1540 1.368 . S
C1556 C1552 1.368 . S
C1556 C1555 1.523 . S
H1557 C1532 0.950 . S
H1558 C1534 0.950 . S
H1559 C1535 0.949 . S
H1560 C1537 0.950 . S
H1561 C1539 0.950 . S
C1562 C1563 1.349 . S
C1562 C1564 1.327 . S
C1562 H1587 0.950 . S
C1563 C1562 1.349 . S
C1563 C1579 1.349 . S
C1564 C1562 1.327 . S
C1564 C1583 1.429 . S
C1564 H1588 0.950 . S
C1565 C1582 1.574 . S
C1565 C1584 1.368 . S
C1565 H1589 0.949 . S
H1566 C1570 0.949 . S
C1567 C1568 1.349 . S
C1567 C1569 1.327 . S
C1567 H1590 0.950 . S
C1568 C1567 1.349 . S
C1568 C1580 1.349 . S
C1569 C1567 1.327 . S
C1569 C1585 1.429 . S
C1569 H1591 0.950 . S
C1570 H1566 0.949 . S
C1570 C1578 1.574 . S
C1570 C1586 1.368 . S
H1571 C1579 0.950 . S
H1572 C1577 0.950 . S
H1573 C1578 0.949 . S
H1574 C1580 0.950 . S
H1575 C1581 0.950 . S
H1576 C1582 0.949 . S
C1577 H1572 0.950 . S
C1577 C1579 1.327 . S
C1577 C1583 1.429 . S
C1578 C1570 1.574 . S
C1578 H1573 0.949 . S
C1578 C1584 1.368 . S
C1579 C1563 1.349 . S
C1579 H1571 0.950 . S
C1579 C1577 1.327 . S
C1580 C1568 1.349 . S
C1580 H1574 0.950 . S
C1580 C1581 1.327 . S
C1581 H1575 0.950 . S
C1581 C1580 1.327 . S
C1581 C1585 1.429 . S
C1582 C1565 1.574 . S
C1582 H1576 0.949 . S
C1582 C1586 1.368 . S
C1583 C1564 1.429 . S
C1583 C1577 1.429 . S
C1583 C1584 1.523 . S
C1584 C1565 1.368 . S
C1584 C1578 1.368 . S
C1584 C1583 1.523 . S
C1585 C1569 1.429 . S
C1585 C1581 1.429 . S
C1585 C1586 1.523 . S
C1586 C1570 1.368 . S
C1586 C1582 1.368 . S
C1586 C1585 1.523 . S
H1587 C1562 0.950 . S
H1588 C1564 0.950 . S
H1589 C1565 0.949 . S
H1590 C1567 0.950 . S
H1591 C1569 0.950 . S
C1592 C1593 1.349 . S
C1592 C1594 1.327 . S
C1592 H1617 0.950 . S
C1593 C1592 1.349 . S
C1593 C1609 1.349 1_545 S
C1594 C1592 1.327 . S
C1594 C1613 1.429 . S
C1594 H1618 0.950 . S
C1595 C1612 1.574 . S
C1595 C1614 1.368 . S
C1595 H1619 0.949 1_545 S
H1596 C1600 0.949 . S
C1597 C1598 1.349 . S
C1597 C1599 1.327 . S
C1597 H1620 0.950 . S
C1598 C1597 1.349 . S
C1598 C1610 1.349 . S
C1599 C1597 1.327 . S
C1599 C1615 1.429 . S
C1599 H1621 0.950 . S
C1600 H1596 0.949 . S
C1600 C1608 1.574 . S
C1600 C1616 1.368 . S
H1601 C1609 0.950 . S
H1602 C1607 0.950 . S
H1603 C1608 0.949 . S
H1604 C1610 0.950 . S
H1605 C1611 0.950 . S
H1606 C1612 0.927 1_565 S
C1607 H1602 0.950 . S
C1607 C1609 1.327 . S
C1607 C1613 1.429 1_565 S
C1608 C1600 1.574 . S
C1608 H1603 0.949 . S
C1608 C1614 1.368 . S
C1609 C1593 1.349 1_565 S
C1609 H1601 0.950 . S
C1609 C1607 1.327 . S
C1610 C1598 1.349 . S
C1610 H1604 0.950 . S
C1610 C1611 1.327 . S
C1611 H1605 0.950 . S
C1611 C1610 1.327 . S
C1611 C1615 1.429 . S
C1612 C1595 1.574 . S
C1612 H1606 0.927 1_545 S
C1612 C1616 1.368 . S
C1613 C1594 1.429 . S
C1613 C1607 1.429 1_545 S
C1613 C1614 1.523 . S
C1614 C1595 1.368 . S
C1614 C1608 1.368 . S
C1614 C1613 1.523 . S
C1615 C1599 1.429 . S
C1615 C1611 1.429 . S
C1615 C1616 1.523 . S
C1616 C1600 1.368 . S
C1616 C1612 1.368 . S
C1616 C1615 1.523 . S
H1617 C1592 0.950 . S
H1618 C1594 0.950 . S
H1619 C1595 0.949 1_565 S
H1620 C1597 0.950 . S
H1621 C1599 0.950 . S
C1622 C1623 1.349 . S
C1622 C1624 1.327 . S
C1622 H1647 0.950 . S
C1623 C1622 1.349 . S
C1623 C1639 1.349 . S
C1624 C1622 1.327 . S
C1624 C1643 1.429 . S
C1624 H1648 0.950 . S
C1625 C1642 1.574 . S
C1625 C1644 1.368 . S
C1625 H1649 0.949 . S
H1626 C1630 0.949 . S
C1627 C1628 1.349 . S
C1627 C1629 1.327 . S
C1627 H1650 0.950 . S
C1628 C1627 1.349 . S
C1628 C1640 1.349 . S
C1629 C1627 1.327 . S
C1629 C1645 1.429 . S
C1629 H1651 0.950 . S
C1630 H1626 0.949 . S
C1630 C1638 1.574 . S
C1630 C1646 1.368 . S
H1631 C1639 0.950 . S
H1632 C1637 0.950 . S
H1633 C1638 0.949 . S
H1634 C1640 0.950 . S
H1635 C1641 0.950 . S
H1636 C1642 0.949 . S
C1637 H1632 0.950 . S
C1637 C1639 1.327 . S
C1637 C1643 1.429 . S
C1638 C1630 1.574 . S
C1638 H1633 0.949 . S
C1638 C1644 1.368 . S
C1639 C1623 1.349 . S
C1639 H1631 0.950 . S
C1639 C1637 1.327 . S
C1640 C1628 1.349 . S
C1640 H1634 0.950 . S
C1640 C1641 1.327 . S
C1641 H1635 0.950 . S
C1641 C1640 1.327 . S
C1641 C1645 1.429 . S
C1642 C1625 1.574 . S
C1642 H1636 0.949 . S
C1642 C1646 1.368 . S
C1643 C1624 1.429 . S
C1643 C1637 1.429 . S
C1643 C1644 1.523 . S
C1644 C1625 1.368 . S
C1644 C1638 1.368 . S
C1644 C1643 1.523 . S
C1645 C1629 1.429 . S
C1645 C1641 1.429 . S
C1645 C1646 1.523 . S
C1646 C1630 1.368 . S
C1646 C1642 1.368 . S
C1646 C1645 1.523 . S
H1647 C1622 0.950 . S
H1648 C1624 0.950 . S
H1649 C1625 0.949 . S
H1650 C1627 0.950 . S
H1651 C1629 0.950 . S
C1652 C1653 1.349 . S
C1652 C1654 1.327 . S
C1652 H1677 0.950 . S
C1653 C1652 1.349 . S
C1653 C1669 1.349 . S
C1654 C1652 1.327 . S
C1654 C1673 1.429 . S
C1654 H1678 0.950 . S
C1655 C1672 1.574 . S
C1655 C1674 1.368 . S
C1655 H1679 0.949 . S
H1656 C1660 0.949 . S
C1657 C1658 1.349 . S
C1657 C1659 1.327 . S
C1657 H1680 0.950 . S
C1658 C1657 1.349 . S
C1658 C1670 1.349 . S
C1659 C1657 1.327 . S
C1659 C1675 1.429 . S
C1659 H1681 0.950 . S
C1660 H1656 0.949 . S
C1660 C1668 1.574 . S
C1660 C1676 1.368 . S
H1661 C1669 0.950 . S
H1662 C1667 0.950 . S
H1663 C1668 0.949 . S
H1664 C1670 0.950 . S
H1665 C1671 0.950 . S
H1666 C1672 0.949 . S
C1667 H1662 0.950 . S
C1667 C1669 1.327 . S
C1667 C1673 1.429 . S
C1668 C1660 1.574 . S
C1668 H1663 0.949 . S
C1668 C1674 1.368 . S
C1669 C1653 1.349 . S
C1669 H1661 0.950 . S
C1669 C1667 1.327 . S
C1670 C1658 1.349 . S
C1670 H1664 0.950 . S
C1670 C1671 1.327 . S
C1671 H1665 0.950 . S
C1671 C1670 1.327 . S
C1671 C1675 1.429 . S
C1672 C1655 1.574 . S
C1672 H1666 0.949 . S
C1672 C1676 1.368 . S
C1673 C1654 1.429 . S
C1673 C1667 1.429 . S
C1673 C1674 1.523 . S
C1674 C1655 1.368 . S
C1674 C1668 1.368 . S
C1674 C1673 1.523 . S
C1675 C1659 1.429 . S
C1675 C1671 1.429 . S
C1675 C1676 1.523 . S
C1676 C1660 1.368 . S
C1676 C1672 1.368 . S
C1676 C1675 1.523 . S
H1677 C1652 0.950 . S
H1678 C1654 0.950 . S
H1679 C1655 0.949 . S
H1680 C1657 0.950 . S
H1681 C1659 0.950 . S
C1682 C1683 1.349 . S
C1682 C1684 1.327 . S
C1682 H1707 0.950 . S
C1683 C1682 1.349 . S
C1683 C1699 1.349 . S
C1684 C1682 1.327 . S
C1684 C1703 1.429 . S
C1684 H1708 0.950 . S
C1685 C1702 1.574 . S
C1685 C1704 1.368 . S
C1685 H1709 0.949 . S
H1686 C1690 0.949 . S
C1687 C1688 1.349 . S
C1687 C1689 1.327 . S
C1687 H1710 0.950 . S
C1688 C1687 1.349 . S
C1688 C1700 1.349 . S
C1689 C1687 1.327 . S
C1689 C1705 1.429 . S
C1689 H1711 0.950 . S
C1690 H1686 0.949 . S
C1690 C1698 1.574 . S
C1690 C1706 1.368 . S
H1691 C1699 0.950 . S
H1692 C1697 0.950 . S
H1693 C1698 0.949 . S
H1694 C1700 0.950 . S
H1695 C1701 0.950 . S
H1696 C1702 0.949 . S
C1697 H1692 0.950 . S
C1697 C1699 1.327 . S
C1697 C1703 1.429 . S
C1698 C1690 1.574 . S
C1698 H1693 0.949 . S
C1698 C1704 1.368 . S
C1699 C1683 1.349 . S
C1699 H1691 0.950 . S
C1699 C1697 1.327 . S
C1700 C1688 1.349 . S
C1700 H1694 0.950 . S
C1700 C1701 1.327 . S
C1701 H1695 0.950 . S
C1701 C1700 1.327 . S
C1701 C1705 1.429 . S
C1702 C1685 1.574 . S
C1702 H1696 0.949 . S
C1702 C1706 1.368 . S
C1703 C1684 1.429 . S
C1703 C1697 1.429 . S
C1703 C1704 1.523 . S
C1704 C1685 1.368 . S
C1704 C1698 1.368 . S
C1704 C1703 1.523 . S
C1705 C1689 1.429 . S
C1705 C1701 1.429 . S
C1705 C1706 1.523 . S
C1706 C1690 1.368 . S
C1706 C1702 1.368 . S
C1706 C1705 1.523 . S
H1707 C1682 0.950 . S
H1708 C1684 0.950 . S
H1709 C1685 0.949 . S
H1710 C1687 0.950 . S
H1711 C1689 0.950 . S
C1712 C1713 1.349 . S
C1712 C1714 1.327 . S
C1712 H1737 0.950 . S
C1713 C1712 1.349 . S
C1713 C1729 1.349 1_565 S
C1714 C1712 1.327 . S
C1714 C1733 1.429 . S
C1714 H1738 0.950 . S
C1715 C1732 1.574 . S
C1715 C1734 1.319 1_545 S
C1715 H1739 0.949 . S
H1716 C1720 0.949 . S
C1717 C1718 1.349 . S
C1717 C1719 1.327 . S
C1717 H1740 0.950 . S
C1718 C1717 1.349 . S
C1718 C1730 1.349 1_545 S
C1719 C1717 1.327 . S
C1719 C1735 1.429 . S
C1719 H1741 0.950 . S
C1720 H1716 0.949 . S
C1720 C1728 1.574 . S
C1720 C1736 1.368 1_565 S
H1721 C1729 0.950 . S
H1722 C1727 0.950 . S
H1723 C1728 0.949 . S
H1724 C1730 0.950 . S
H1725 C1731 0.950 . S
H1726 C1732 0.949 . S
C1727 H1722 0.950 . S
C1727 C1729 1.327 . S
C1727 C1733 1.429 1_545 S
C1728 C1720 1.574 . S
C1728 H1723 0.949 . S
C1728 C1734 1.408 . S
C1729 C1713 1.349 1_545 S
C1729 H1721 0.950 . S
C1729 C1727 1.327 . S
C1730 C1718 1.349 1_565 S
C1730 H1724 0.950 . S
C1730 C1731 1.327 . S
C1731 H1725 0.950 . S
C1731 C1730 1.327 . S
C1731 C1735 1.429 1_565 S
C1732 C1715 1.574 . S
C1732 H1726 0.949 . S
C1732 C1736 1.368 . S
C1733 C1714 1.429 . S
C1733 C1727 1.429 1_565 S
C1733 C1734 1.537 . S
C1734 C1715 1.319 1_565 S
C1734 C1728 1.408 . S
C1734 C1733 1.537 . S
C1735 C1719 1.429 . S
C1735 C1731 1.429 1_545 S
C1735 C1736 1.523 . S
C1736 C1720 1.368 1_545 S
C1736 C1732 1.368 . S
C1736 C1735 1.523 . S
H1737 C1712 0.950 . S
H1738 C1714 0.950 . S
H1739 C1715 0.949 . S
H1740 C1717 0.950 . S
H1741 C1719 0.950 . S
C1742 C1743 1.349 . S
C1742 C1744 1.327 . S
C1742 H1767 0.950 . S
C1743 C1742 1.349 . S
C1743 C1759 1.349 . S
C1744 C1742 1.327 . S
C1744 C1763 1.429 . S
C1744 H1768 0.950 . S
C1745 C1762 1.574 . S
C1745 C1764 1.368 . S
C1745 H1769 0.949 . S
H1746 C1750 0.949 . S
C1747 C1748 1.349 . S
C1747 C1749 1.327 . S
C1747 H1770 0.950 . S
C1748 C1747 1.349 . S
C1748 C1760 1.349 . S
C1749 C1747 1.327 . S
C1749 C1765 1.429 . S
C1749 H1771 0.950 . S
C1750 H1746 0.949 . S
C1750 C1758 1.574 . S
C1750 C1766 1.368 . S
H1751 C1759 0.950 . S
H1752 C1757 0.950 . S
H1753 C1758 0.949 . S
H1754 C1760 0.950 . S
H1755 C1761 0.950 . S
H1756 C1762 0.949 . S
C1757 H1752 0.950 . S
C1757 C1759 1.327 . S
C1757 C1763 1.429 . S
C1758 C1750 1.574 . S
C1758 H1753 0.949 . S
C1758 C1764 1.368 . S
C1759 C1743 1.349 . S
C1759 H1751 0.950 . S
C1759 C1757 1.327 . S
C1760 C1748 1.349 . S
C1760 H1754 0.950 . S
C1760 C1761 1.327 . S
C1761 H1755 0.950 . S
C1761 C1760 1.327 . S
C1761 C1765 1.429 . S
C1762 C1745 1.574 . S
C1762 H1756 0.949 . S
C1762 C1766 1.368 . S
C1763 C1744 1.429 . S
C1763 C1757 1.429 . S
C1763 C1764 1.523 . S
C1764 C1745 1.368 . S
C1764 C1758 1.368 . S
C1764 C1763 1.523 . S
C1765 C1749 1.429 . S
C1765 C1761 1.429 . S
C1765 C1766 1.523 . S
C1766 C1750 1.368 . S
C1766 C1762 1.368 . S
C1766 C1765 1.523 . S
H1767 C1742 0.950 . S
H1768 C1744 0.950 . S
H1769 C1745 0.949 . S
H1770 C1747 0.950 . S
H1771 C1749 0.950 . S
C1772 C1773 1.349 . S
C1772 C1774 1.327 . S
C1772 H1797 0.950 . S
C1773 C1772 1.349 . S
C1773 C1789 1.349 . S
C1774 C1772 1.327 . S
C1774 C1793 1.429 . S
C1774 H1798 0.950 . S
C1775 C1792 1.574 . S
C1775 C1794 1.368 . S
C1775 H1799 0.949 . S
H1776 C1780 0.949 . S
C1777 C1778 1.349 . S
C1777 C1779 1.327 . S
C1777 H1800 0.950 . S
C1778 C1777 1.349 . S
C1778 C1790 1.349 . S
C1779 C1777 1.327 . S
C1779 C1795 1.429 . S
C1779 H1801 0.950 . S
C1780 H1776 0.949 . S
C1780 C1788 1.574 . S
C1780 C1796 1.368 . S
H1781 C1789 0.950 . S
H1782 C1787 0.950 . S
H1783 C1788 0.949 . S
H1784 C1790 0.950 . S
H1785 C1791 0.950 . S
H1786 C1792 0.949 . S
C1787 H1782 0.950 . S
C1787 C1789 1.327 . S
C1787 C1793 1.429 . S
C1788 C1780 1.574 . S
C1788 H1783 0.949 . S
C1788 C1794 1.368 . S
C1789 C1773 1.349 . S
C1789 H1781 0.950 . S
C1789 C1787 1.327 . S
C1790 C1778 1.349 . S
C1790 H1784 0.950 . S
C1790 C1791 1.327 . S
C1791 H1785 0.950 . S
C1791 C1790 1.327 . S
C1791 C1795 1.429 . S
C1792 C1775 1.574 . S
C1792 H1786 0.949 . S
C1792 C1796 1.368 . S
C1793 C1774 1.429 . S
C1793 C1787 1.429 . S
C1793 C1794 1.523 . S
C1794 C1775 1.368 . S
C1794 C1788 1.368 . S
C1794 C1793 1.523 . S
C1795 C1779 1.429 . S
C1795 C1791 1.429 . S
C1795 C1796 1.523 . S
C1796 C1780 1.368 . S
C1796 C1792 1.368 . S
C1796 C1795 1.523 . S
H1797 C1772 0.950 . S
H1798 C1774 0.950 . S
H1799 C1775 0.949 . S
H1800 C1777 0.950 . S
H1801 C1779 0.950 . S
C1802 C1803 1.349 . S
C1802 C1804 1.327 . S
C1802 H1827 0.950 . S
C1803 C1802 1.349 . S
C1803 C1819 1.349 . S
C1804 C1802 1.327 . S
C1804 C1823 1.429 . S
C1804 H1828 0.950 . S
C1805 C1822 1.574 . S
C1805 C1824 1.368 . S
C1805 H1829 0.949 . S
H1806 C1810 0.949 . S
C1807 C1808 1.349 . S
C1807 C1809 1.327 . S
C1807 H1830 0.950 . S
C1808 C1807 1.349 . S
C1808 C1820 1.349 . S
C1809 C1807 1.327 . S
C1809 C1825 1.429 . S
C1809 H1831 0.950 . S
C1810 H1806 0.949 . S
C1810 C1818 1.574 . S
C1810 C1826 1.368 . S
H1811 C1819 0.950 . S
H1812 C1817 0.950 . S
H1813 C1818 0.949 . S
H1814 C1820 0.950 . S
H1815 C1821 0.950 . S
H1816 C1822 0.949 . S
C1817 H1812 0.950 . S
C1817 C1819 1.327 . S
C1817 C1823 1.429 . S
C1818 C1810 1.574 . S
C1818 H1813 0.949 . S
C1818 C1824 1.368 . S
C1819 C1803 1.349 . S
C1819 H1811 0.950 . S
C1819 C1817 1.327 . S
C1820 C1808 1.349 . S
C1820 H1814 0.950 . S
C1820 C1821 1.327 . S
C1821 H1815 0.950 . S
C1821 C1820 1.327 . S
C1821 C1825 1.429 . S
C1822 C1805 1.574 . S
C1822 H1816 0.949 . S
C1822 C1826 1.368 . S
C1823 C1804 1.429 . S
C1823 C1817 1.429 . S
C1823 C1824 1.523 . S
C1824 C1805 1.368 . S
C1824 C1818 1.368 . S
C1824 C1823 1.523 . S
C1825 C1809 1.429 . S
C1825 C1821 1.429 . S
C1825 C1826 1.523 . S
C1826 C1810 1.368 . S
C1826 C1822 1.368 . S
C1826 C1825 1.523 . S
H1827 C1802 0.950 . S
H1828 C1804 0.950 . S
H1829 C1805 0.949 . S
H1830 C1807 0.950 . S
H1831 C1809 0.950 . S
C1832 C1833 1.349 1_556 S
C1832 C1834 1.327 . S
C1832 H1857 0.950 . S
C1833 C1832 1.349 1_554 S
C1833 C1849 1.349 . S
C1834 C1832 1.327 . S
C1834 C1853 1.429 1_556 S
C1834 H1858 0.950 . S
C1835 C1852 1.574 . S
C1835 C1854 1.368 . S
C1835 H1859 0.949 . S
H1836 C1840 0.926 1_556 S
C1837 C1838 1.349 . S
C1837 C1839 1.327 . S
C1837 H1860 0.950 . S
C1838 C1837 1.349 . S
C1838 C1850 1.349 . S
C1839 C1837 1.327 . S
C1839 C1855 1.429 . S
C1839 H1861 0.950 . S
C1840 H1836 0.926 1_554 S
C1840 C1848 1.575 1_554 S
C1840 C1856 1.394 . S
H1841 C1849 0.950 . S
H1842 C1847 0.950 . S
H1843 C1848 0.985 . S
H1844 C1850 0.950 1_556 S
H1845 C1851 0.950 1_556 S
H1846 C1852 0.949 . S
C1847 H1842 0.950 . S
C1847 C1849 1.327 . S
C1847 C1853 1.429 . S
C1848 C1840 1.575 1_556 S
C1848 H1843 0.985 . S
C1848 C1854 1.329 1_556 S
C1849 C1833 1.349 . S
C1849 H1841 0.950 . S
C1849 C1847 1.327 . S
C1850 C1838 1.349 . S
C1850 H1844 0.950 1_554 S
C1850 C1851 1.327 . S
C1851 H1845 0.950 1_554 S
C1851 C1850 1.327 . S
C1851 C1855 1.429 . S
C1852 C1835 1.574 . S
C1852 H1846 0.949 . S
C1852 C1856 1.368 . S
C1853 C1834 1.429 1_554 S
C1853 C1847 1.429 . S
C1853 C1854 1.523 . S
C1854 C1835 1.368 . S
C1854 C1848 1.329 1_554 S
C1854 C1853 1.523 . S
C1855 C1839 1.429 . S
C1855 C1851 1.429 . S
C1855 C1856 1.523 . S
C1856 C1840 1.394 . S
C1856 C1852 1.368 . S
C1856 C1855 1.523 . S
H1857 C1832 0.950 . S
H1858 C1834 0.950 . S
H1859 C1835 0.949 . S
H1860 C1837 0.950 . S
H1861 C1839 0.950 . S
C1862 C1863 1.349 . S
C1862 C1864 1.327 . S
C1862 H1887 0.950 1_554 S
C1863 C1862 1.349 . S
C1863 C1879 1.349 . S
C1864 C1862 1.327 . S
C1864 C1883 1.429 . S
C1864 H1888 0.950 1_554 S
C1865 C1882 1.574 . S
C1865 C1884 1.368 . S
C1865 H1889 0.949 . S
H1866 C1870 0.949 1_556 S
C1867 C1868 1.349 . S
C1867 C1869 1.327 . S
C1867 H1890 0.950 . S
C1868 C1867 1.349 . S
C1868 C1880 1.374 . S
C1869 C1867 1.327 . S
C1869 C1885 1.429 . S
C1869 H1891 0.950 . S
C1870 H1866 0.949 1_554 S
C1870 C1878 1.574 . S
C1870 C1886 1.368 . S
H1871 C1879 0.950 . S
H1872 C1877 0.950 . S
H1873 C1878 0.949 1_556 S
H1874 C1880 0.920 1_556 S
H1875 C1881 0.904 1_556 S
H1876 C1882 0.949 . S
C1877 H1872 0.950 . S
C1877 C1879 1.327 . S
C1877 C1883 1.429 . S
C1878 C1870 1.574 . S
C1878 H1873 0.949 1_554 S
C1878 C1884 1.368 . S
C1879 C1863 1.349 . S
C1879 H1871 0.950 . S
C1879 C1877 1.327 . S
C1880 C1868 1.374 . S
C1880 H1874 0.920 1_554 S
C1880 C1881 1.324 . S
C1881 H1875 0.904 1_554 S
C1881 C1880 1.324 . S
C1881 C1885 1.483 . S
C1882 C1865 1.574 . S
C1882 H1876 0.949 . S
C1882 C1886 1.368 . S
C1883 C1864 1.429 . S
C1883 C1877 1.429 . S
C1883 C1884 1.523 . S
C1884 C1865 1.368 . S
C1884 C1878 1.368 . S
C1884 C1883 1.523 . S
C1885 C1869 1.429 . S
C1885 C1881 1.483 . S
C1885 C1886 1.523 . S
C1886 C1870 1.368 . S
C1886 C1882 1.368 . S
C1886 C1885 1.523 . S
H1887 C1862 0.950 1_556 S
H1888 C1864 0.950 1_556 S
H1889 C1865 0.949 . S
H1890 C1867 0.950 . S
H1891 C1869 0.950 . S
C1892 C1893 1.349 . S
C1892 C1894 1.327 . S
C1892 H1917 0.950 . S
C1893 C1892 1.349 . S
C1893 C1909 1.349 . S
C1894 C1892 1.327 . S
C1894 C1913 1.429 . S
C1894 H1918 0.950 . S
C1895 C1912 1.574 . S
C1895 C1914 1.368 . S
C1895 H1919 0.949 . S
H1896 C1900 0.949 . S
C1897 C1898 1.349 . S
C1897 C1899 1.327 . S
C1897 H1920 0.950 . S
C1898 C1897 1.349 . S
C1898 C1910 1.349 . S
C1899 C1897 1.327 . S
C1899 C1915 1.429 . S
C1899 H1921 0.950 . S
C1900 H1896 0.949 . S
C1900 C1908 1.574 . S
C1900 C1916 1.368 . S
H1901 C1909 0.950 . S
H1902 C1907 0.950 . S
H1903 C1908 0.949 . S
H1904 C1910 0.950 . S
H1905 C1911 0.950 . S
H1906 C1912 0.949 . S
C1907 H1902 0.950 . S
C1907 C1909 1.327 . S
C1907 C1913 1.429 . S
C1908 C1900 1.574 . S
C1908 H1903 0.949 . S
C1908 C1914 1.368 . S
C1909 C1893 1.349 . S
C1909 H1901 0.950 . S
C1909 C1907 1.327 . S
C1910 C1898 1.349 . S
C1910 H1904 0.950 . S
C1910 C1911 1.327 . S
C1911 H1905 0.950 . S
C1911 C1910 1.327 . S
C1911 C1915 1.429 . S
C1912 C1895 1.574 . S
C1912 H1906 0.949 . S
C1912 C1916 1.368 . S
C1913 C1894 1.429 . S
C1913 C1907 1.429 . S
C1913 C1914 1.523 . S
C1914 C1895 1.368 . S
C1914 C1908 1.368 . S
C1914 C1913 1.523 . S
C1915 C1899 1.429 . S
C1915 C1911 1.429 . S
C1915 C1916 1.523 . S
C1916 C1900 1.368 . S
C1916 C1912 1.368 . S
C1916 C1915 1.523 . S
H1917 C1892 0.950 . S
H1918 C1894 0.950 . S
H1919 C1895 0.949 . S
H1920 C1897 0.950 . S
H1921 C1899 0.950 . S
C1922 C1923 1.349 . S
C1922 C1924 1.327 . S
C1922 H1947 0.950 . S
C1923 C1922 1.349 . S
C1923 C1939 1.349 . S
C1924 C1922 1.327 . S
C1924 C1943 1.429 . S
C1924 H1948 0.950 . S
C1925 C1942 1.574 . S
C1925 C1944 1.368 . S
C1925 H1949 0.949 . S
H1926 C1930 0.949 . S
C1927 C1928 1.349 . S
C1927 C1929 1.327 . S
C1927 H1950 0.950 . S
C1928 C1927 1.349 . S
C1928 C1940 1.349 . S
C1929 C1927 1.327 . S
C1929 C1945 1.429 . S
C1929 H1951 0.950 . S
C1930 H1926 0.949 . S
C1930 C1938 1.574 . S
C1930 C1946 1.368 . S
H1931 C1939 0.950 . S
H1932 C1937 0.950 . S
H1933 C1938 0.949 . S
H1934 C1940 0.950 . S
H1935 C1941 0.950 . S
H1936 C1942 0.949 . S
C1937 H1932 0.950 . S
C1937 C1939 1.327 . S
C1937 C1943 1.429 . S
C1938 C1930 1.574 . S
C1938 H1933 0.949 . S
C1938 C1944 1.368 . S
C1939 C1923 1.349 . S
C1939 H1931 0.950 . S
C1939 C1937 1.327 . S
C1940 C1928 1.349 . S
C1940 H1934 0.950 . S
C1940 C1941 1.327 . S
C1941 H1935 0.950 . S
C1941 C1940 1.327 . S
C1941 C1945 1.429 . S
C1942 C1925 1.574 . S
C1942 H1936 0.949 . S
C1942 C1946 1.368 . S
C1943 C1924 1.429 . S
C1943 C1937 1.429 . S
C1943 C1944 1.523 . S
C1944 C1925 1.368 . S
C1944 C1938 1.368 . S
C1944 C1943 1.523 . S
C1945 C1929 1.429 . S
C1945 C1941 1.429 . S
C1945 C1946 1.523 . S
C1946 C1930 1.368 . S
C1946 C1942 1.368 . S
C1946 C1945 1.523 . S
H1947 C1922 0.950 . S
H1948 C1924 0.950 . S
H1949 C1925 0.949 . S
H1950 C1927 0.950 . S
H1951 C1929 0.950 . S
C1952 C1953 1.349 . S
C1952 C1954 1.327 . S
C1952 H1977 0.950 . S
C1953 C1952 1.349 . S
C1953 C1969 1.349 . S
C1954 C1952 1.327 . S
C1954 C1973 1.429 . S
C1954 H1978 0.950 . S
C1955 C1972 1.574 . S
C1955 C1974 1.368 . S
C1955 H1979 0.949 . S
H1956 C1960 0.949 . S
C1957 C1958 1.349 . S
C1957 C1959 1.327 . S
C1957 H1980 0.950 . S
C1958 C1957 1.349 . S
C1958 C1970 1.349 . S
C1959 C1957 1.327 . S
C1959 C1975 1.429 . S
C1959 H1981 0.950 . S
C1960 H1956 0.949 . S
C1960 C1968 1.574 . S
C1960 C1976 1.368 . S
H1961 C1969 0.950 . S
H1962 C1967 0.950 . S
H1963 C1968 0.949 . S
H1964 C1970 0.950 . S
H1965 C1971 0.950 . S
H1966 C1972 0.949 . S
C1967 H1962 0.950 . S
C1967 C1969 1.327 . S
C1967 C1973 1.429 . S
C1968 C1960 1.574 . S
C1968 H1963 0.949 . S
C1968 C1974 1.368 . S
C1969 C1953 1.349 . S
C1969 H1961 0.950 . S
C1969 C1967 1.327 . S
C1970 C1958 1.349 . S
C1970 H1964 0.950 . S
C1970 C1971 1.327 . S
C1971 H1965 0.950 . S
C1971 C1970 1.327 . S
C1971 C1975 1.429 . S
C1972 C1955 1.574 . S
C1972 H1966 0.949 . S
C1972 C1976 1.368 . S
C1973 C1954 1.429 . S
C1973 C1967 1.429 . S
C1973 C1974 1.523 . S
C1974 C1955 1.368 . S
C1974 C1968 1.368 . S
C1974 C1973 1.523 . S
C1975 C1959 1.429 . S
C1975 C1971 1.429 . S
C1975 C1976 1.523 . S
C1976 C1960 1.368 . S
C1976 C1972 1.368 . S
C1976 C1975 1.523 . S
H1977 C1952 0.950 . S
H1978 C1954 0.950 . S
H1979 C1955 0.949 . S
H1980 C1957 0.950 . S
H1981 C1959 0.950 . S
C1982 C1983 1.349 . S
C1982 C1984 1.327 . S
C1982 H2007 0.950 . S
C1983 C1982 1.349 . S
C1983 C1999 1.349 . S
C1984 C1982 1.327 . S
C1984 C2003 1.429 . S
C1984 H2008 0.950 . S
C1985 C2002 1.574 . S
C1985 C2004 1.368 . S
C1985 H2009 0.949 . S
H1986 C1990 0.949 . S
C1987 C1988 1.349 . S
C1987 C1989 1.327 . S
C1987 H2010 0.950 1_565 S
C1988 C1987 1.349 . S
C1988 C2000 1.349 . S
C1989 C1987 1.327 . S
C1989 C2005 1.429 . S
C1989 H2011 0.950 . S
C1990 H1986 0.949 . S
C1990 C1998 1.574 . S
C1990 C2006 1.368 . S
H1991 C1999 0.950 . S
H1992 C1997 0.950 . S
H1993 C1998 0.949 . S
H1994 C2000 0.950 . S
H1995 C2001 0.950 . S
H1996 C2002 0.949 . S
C1997 H1992 0.950 . S
C1997 C1999 1.327 . S
C1997 C2003 1.429 . S
C1998 C1990 1.574 . S
C1998 H1993 0.949 . S
C1998 C2004 1.368 . S
C1999 C1983 1.349 . S
C1999 H1991 0.950 . S
C1999 C1997 1.327 . S
C2000 C1988 1.349 . S
C2000 H1994 0.950 . S
C2000 C2001 1.327 . S
C2001 H1995 0.950 . S
C2001 C2000 1.327 . S
C2001 C2005 1.429 . S
C2002 C1985 1.574 . S
C2002 H1996 0.949 . S
C2002 C2006 1.368 . S
C2003 C1984 1.429 . S
C2003 C1997 1.429 . S
C2003 C2004 1.523 . S
C2004 C1985 1.368 . S
C2004 C1998 1.368 . S
C2004 C2003 1.523 . S
C2005 C1989 1.429 . S
C2005 C2001 1.429 . S
C2005 C2006 1.523 . S
C2006 C1990 1.368 . S
C2006 C2002 1.368 . S
C2006 C2005 1.523 . S
H2007 C1982 0.950 . S
H2008 C1984 0.950 . S
H2009 C1985 0.949 . S
H2010 C1987 0.950 1_545 S
H2011 C1989 0.950 . S
C2012 C2013 1.349 . S
C2012 C2014 1.327 . S
C2012 H2037 0.950 . S
C2013 C2012 1.349 . S
C2013 C2029 1.349 . S
C2014 C2012 1.327 . S
C2014 C2033 1.429 . S
C2014 H2038 0.950 . S
C2015 C2032 1.574 . S
C2015 C2034 1.368 . S
C2015 H2039 0.949 . S
H2016 C2020 0.949 . S
C2017 C2018 1.349 . S
C2017 C2019 1.327 . S
C2017 H2040 0.950 . S
C2018 C2017 1.349 . S
C2018 C2030 1.349 . S
C2019 C2017 1.327 . S
C2019 C2035 1.429 . S
C2019 H2041 0.950 . S
C2020 H2016 0.949 . S
C2020 C2028 1.574 . S
C2020 C2036 1.368 . S
H2021 C2029 0.950 . S
H2022 C2027 0.950 . S
H2023 C2028 0.949 . S
H2024 C2030 0.950 . S
H2025 C2031 0.950 . S
H2026 C2032 0.949 . S
C2027 H2022 0.950 . S
C2027 C2029 1.327 . S
C2027 C2033 1.429 . S
C2028 C2020 1.574 . S
C2028 H2023 0.949 . S
C2028 C2034 1.368 . S
C2029 C2013 1.349 . S
C2029 H2021 0.950 . S
C2029 C2027 1.327 . S
C2030 C2018 1.349 . S
C2030 H2024 0.950 . S
C2030 C2031 1.327 . S
C2031 H2025 0.950 . S
C2031 C2030 1.327 . S
C2031 C2035 1.429 . S
C2032 C2015 1.574 . S
C2032 H2026 0.949 . S
C2032 C2036 1.368 . S
C2033 C2014 1.429 . S
C2033 C2027 1.429 . S
C2033 C2034 1.523 . S
C2034 C2015 1.368 . S
C2034 C2028 1.368 . S
C2034 C2033 1.523 . S
C2035 C2019 1.429 . S
C2035 C2031 1.429 . S
C2035 C2036 1.523 . S
C2036 C2020 1.368 . S
C2036 C2032 1.368 . S
C2036 C2035 1.523 . S
H2037 C2012 0.950 . S
H2038 C2014 0.950 . S
H2039 C2015 0.949 . S
H2040 C2017 0.950 . S
H2041 C2019 0.950 . S
C2042 C2043 1.349 . S
C2042 C2044 1.327 . S
C2042 H2067 0.950 . S
C2043 C2042 1.349 . S
C2043 C2059 1.349 . S
C2044 C2042 1.327 . S
C2044 C2063 1.429 . S
C2044 H2068 0.950 . S
C2045 C2062 1.574 . S
C2045 C2064 1.368 . S
C2045 H2069 0.949 . S
H2046 C2050 0.949 . S
C2047 C2048 1.349 . S
C2047 C2049 1.327 . S
C2047 H2070 0.950 . S
C2048 C2047 1.349 . S
C2048 C2060 1.349 . S
C2049 C2047 1.327 . S
C2049 C2065 1.429 . S
C2049 H2071 0.950 . S
C2050 H2046 0.949 . S
C2050 C2058 1.574 . S
C2050 C2066 1.368 . S
H2051 C2059 0.950 . S
H2052 C2057 0.950 . S
H2053 C2058 0.949 . S
H2054 C2060 0.950 . S
H2055 C2061 0.950 . S
H2056 C2062 0.949 . S
C2057 H2052 0.950 . S
C2057 C2059 1.327 . S
C2057 C2063 1.429 . S
C2058 C2050 1.574 . S
C2058 H2053 0.949 . S
C2058 C2064 1.368 . S
C2059 C2043 1.349 . S
C2059 H2051 0.950 . S
C2059 C2057 1.327 . S
C2060 C2048 1.349 . S
C2060 H2054 0.950 . S
C2060 C2061 1.327 . S
C2061 H2055 0.950 . S
C2061 C2060 1.327 . S
C2061 C2065 1.429 . S
C2062 C2045 1.574 . S
C2062 H2056 0.949 . S
C2062 C2066 1.368 . S
C2063 C2044 1.429 . S
C2063 C2057 1.429 . S
C2063 C2064 1.523 . S
C2064 C2045 1.368 . S
C2064 C2058 1.368 . S
C2064 C2063 1.523 . S
C2065 C2049 1.429 . S
C2065 C2061 1.429 . S
C2065 C2066 1.523 . S
C2066 C2050 1.368 . S
C2066 C2062 1.368 . S
C2066 C2065 1.523 . S
H2067 C2042 0.950 . S
H2068 C2044 0.950 . S
H2069 C2045 0.949 . S
H2070 C2047 0.950 . S
H2071 C2049 0.950 . S
C2072 C2073 1.349 . S
C2072 C2074 1.327 . S
C2072 H2097 0.950 . S
C2073 C2072 1.349 . S
C2073 C2089 1.349 . S
C2074 C2072 1.327 . S
C2074 C2093 1.429 . S
C2074 H2098 0.950 . S
C2075 C2092 1.574 . S
C2075 C2094 1.368 . S
C2075 H2099 0.949 . S
H2076 C2080 0.949 . S
C2077 C2078 1.349 . S
C2077 C2079 1.327 . S
C2077 H2100 0.950 . S
C2078 C2077 1.349 . S
C2078 C2090 1.349 . S
C2079 C2077 1.327 . S
C2079 C2095 1.429 . S
C2079 H2101 0.950 . S
C2080 H2076 0.949 . S
C2080 C2088 1.574 . S
C2080 C2096 1.368 . S
H2081 C2089 0.950 . S
H2082 C2087 0.950 . S
H2083 C2088 0.949 . S
H2084 C2090 0.950 . S
H2085 C2091 0.950 . S
H2086 C2092 0.949 . S
C2087 H2082 0.950 . S
C2087 C2089 1.327 . S
C2087 C2093 1.429 . S
C2088 C2080 1.574 . S
C2088 H2083 0.949 . S
C2088 C2094 1.368 . S
C2089 C2073 1.349 . S
C2089 H2081 0.950 . S
C2089 C2087 1.327 . S
C2090 C2078 1.349 . S
C2090 H2084 0.950 . S
C2090 C2091 1.327 . S
C2091 H2085 0.950 . S
C2091 C2090 1.327 . S
C2091 C2095 1.429 . S
C2092 C2075 1.574 . S
C2092 H2086 0.949 . S
C2092 C2096 1.368 . S
C2093 C2074 1.429 . S
C2093 C2087 1.429 . S
C2093 C2094 1.523 . S
C2094 C2075 1.368 . S
C2094 C2088 1.368 . S
C2094 C2093 1.523 . S
C2095 C2079 1.429 . S
C2095 C2091 1.429 . S
C2095 C2096 1.523 . S
C2096 C2080 1.368 . S
C2096 C2092 1.368 . S
C2096 C2095 1.523 . S
H2097 C2072 0.950 . S
H2098 C2074 0.950 . S
H2099 C2075 0.949 . S
H2100 C2077 0.950 . S
H2101 C2079 0.950 . S
C2102 C2103 1.349 . S
C2102 C2104 1.327 . S
C2102 H2127 0.950 . S
C2103 C2102 1.349 . S
C2103 C2119 1.349 . S
C2104 C2102 1.327 . S
C2104 C2123 1.429 . S
C2104 H2128 0.950 . S
C2105 C2122 1.574 . S
C2105 C2124 1.368 . S
C2105 H2129 0.949 . S
H2106 C2110 0.949 . S
C2107 C2108 1.349 . S
C2107 C2109 1.327 . S
C2107 H2130 0.950 . S
C2108 C2107 1.349 . S
C2108 C2120 1.349 . S
C2109 C2107 1.327 . S
C2109 C2125 1.429 . S
C2109 H2131 0.950 . S
C2110 H2106 0.949 . S
C2110 C2118 1.574 . S
C2110 C2126 1.368 . S
H2111 C2119 0.950 . S
H2112 C2117 0.950 . S
H2113 C2118 0.949 . S
H2114 C2120 0.950 . S
H2115 C2121 0.950 . S
H2116 C2122 0.949 . S
C2117 H2112 0.950 . S
C2117 C2119 1.327 . S
C2117 C2123 1.429 . S
C2118 C2110 1.574 . S
C2118 H2113 0.949 . S
C2118 C2124 1.368 . S
C2119 C2103 1.349 . S
C2119 H2111 0.950 . S
C2119 C2117 1.327 . S
C2120 C2108 1.349 . S
C2120 H2114 0.950 . S
C2120 C2121 1.327 . S
C2121 H2115 0.950 . S
C2121 C2120 1.327 . S
C2121 C2125 1.429 . S
C2122 C2105 1.574 . S
C2122 H2116 0.949 . S
C2122 C2126 1.368 . S
C2123 C2104 1.429 . S
C2123 C2117 1.429 . S
C2123 C2124 1.523 . S
C2124 C2105 1.368 . S
C2124 C2118 1.368 . S
C2124 C2123 1.523 . S
C2125 C2109 1.429 . S
C2125 C2121 1.429 . S
C2125 C2126 1.523 . S
C2126 C2110 1.368 . S
C2126 C2122 1.368 . S
C2126 C2125 1.523 . S
H2127 C2102 0.950 . S
H2128 C2104 0.950 . S
H2129 C2105 0.949 . S
H2130 C2107 0.950 . S
H2131 C2109 0.950 . S
C2132 C2133 1.349 . S
C2132 C2134 1.327 . S
C2132 H2157 0.950 . S
C2133 C2132 1.349 . S
C2133 C2149 1.349 1_455 S
C2134 C2132 1.327 . S
C2134 C2153 1.429 . S
C2134 H2158 0.950 . S
C2135 C2152 1.574 . S
C2135 C2154 1.368 1_655 S
C2135 H2159 0.949 . S
H2136 C2140 0.949 . S
C2137 C2138 1.382 1_556 S
C2137 C2139 1.327 . S
C2137 H2160 0.950 . S
C2138 C2137 1.382 1_554 S
C2138 C2150 1.301 1_655 S
C2139 C2137 1.327 . S
C2139 C2155 1.429 1_655 S
C2139 H2161 0.950 . S
C2140 H2136 0.949 . S
C2140 C2148 1.574 . S
C2140 C2156 1.368 . S
H2141 C2149 0.950 . S
H2142 C2147 0.950 . S
H2143 C2148 0.949 . S
H2144 C2150 0.950 . S
H2145 C2151 0.950 1_554 S
H2146 C2152 0.949 . S
C2147 H2142 0.950 . S
C2147 C2149 1.327 . S
C2147 C2153 1.429 1_655 S
C2148 C2140 1.574 . S
C2148 H2143 0.949 . S
C2148 C2154 1.368 . S
C2149 C2133 1.349 1_655 S
C2149 H2141 0.950 . S
C2149 C2147 1.327 . S
C2150 C2138 1.301 1_455 S
C2150 H2144 0.950 . S
C2150 C2151 1.327 1_554 S
C2151 H2145 0.950 1_556 S
C2151 C2150 1.327 1_556 S
C2151 C2155 1.429 . S
C2152 C2135 1.574 . S
C2152 H2146 0.949 . S
C2152 C2156 1.368 1_655 S
C2153 C2134 1.429 . S
C2153 C2147 1.429 1_455 S
C2153 C2154 1.523 . S
C2154 C2135 1.368 1_455 S
C2154 C2148 1.368 . S
C2154 C2153 1.523 . S
C2155 C2139 1.429 1_455 S
C2155 C2151 1.429 . S
C2155 C2156 1.523 . S
C2156 C2140 1.368 . S
C2156 C2152 1.368 1_455 S
C2156 C2155 1.523 . S
H2157 C2132 0.950 . S
H2158 C2134 0.950 . S
H2159 C2135 0.949 . S
H2160 C2137 0.950 . S
H2161 C2139 0.950 . S
C2162 C2163 1.349 . S
C2162 C2164 1.327 . S
C2162 H2187 0.950 . S
C2163 C2162 1.349 . S
C2163 C2179 1.349 . S
C2164 C2162 1.327 . S
C2164 C2183 1.429 . S
C2164 H2188 0.950 . S
C2165 C2182 1.574 . S
C2165 C2184 1.368 . S
C2165 H2189 0.949 . S
H2166 C2170 0.949 . S
C2167 C2168 1.349 . S
C2167 C2169 1.327 . S
C2167 H2190 0.950 . S
C2168 C2167 1.349 . S
C2168 C2180 1.349 . S
C2169 C2167 1.327 . S
C2169 C2185 1.429 . S
C2169 H2191 0.950 . S
C2170 H2166 0.949 . S
C2170 C2178 1.574 . S
C2170 C2186 1.368 . S
H2171 C2179 0.950 . S
H2172 C2177 0.950 . S
H2173 C2178 0.949 . S
H2174 C2180 0.950 . S
H2175 C2181 0.950 . S
H2176 C2182 0.949 . S
C2177 H2172 0.950 . S
C2177 C2179 1.327 . S
C2177 C2183 1.429 . S
C2178 C2170 1.574 . S
C2178 H2173 0.949 . S
C2178 C2184 1.368 . S
C2179 C2163 1.349 . S
C2179 H2171 0.950 . S
C2179 C2177 1.327 . S
C2180 C2168 1.349 . S
C2180 H2174 0.950 . S
C2180 C2181 1.327 . S
C2181 H2175 0.950 . S
C2181 C2180 1.327 . S
C2181 C2185 1.429 . S
C2182 C2165 1.574 . S
C2182 H2176 0.949 . S
C2182 C2186 1.368 . S
C2183 C2164 1.429 . S
C2183 C2177 1.429 . S
C2183 C2184 1.523 . S
C2184 C2165 1.368 . S
C2184 C2178 1.368 . S
C2184 C2183 1.523 . S
C2185 C2169 1.429 . S
C2185 C2181 1.429 . S
C2185 C2186 1.523 . S
C2186 C2170 1.368 . S
C2186 C2182 1.368 . S
C2186 C2185 1.523 . S
H2187 C2162 0.950 . S
H2188 C2164 0.950 . S
H2189 C2165 0.949 . S
H2190 C2167 0.950 . S
H2191 C2169 0.950 . S
C2192 C2193 1.349 . S
C2192 C2194 1.327 . S
C2192 H2217 0.950 . S
C2193 C2192 1.349 . S
C2193 C2209 1.349 . S
C2194 C2192 1.327 . S
C2194 C2213 1.429 . S
C2194 H2218 0.950 . S
C2195 C2212 1.574 . S
C2195 C2214 1.368 . S
C2195 H2219 0.949 . S
H2196 C2200 0.949 . S
C2197 C2198 1.349 . S
C2197 C2199 1.327 . S
C2197 H2220 0.950 . S
C2198 C2197 1.349 . S
C2198 C2210 1.349 . S
C2199 C2197 1.327 . S
C2199 C2215 1.429 . S
C2199 H2221 0.950 . S
C2200 H2196 0.949 . S
C2200 C2208 1.574 . S
C2200 C2216 1.368 . S
H2201 C2209 0.950 . S
H2202 C2207 0.950 . S
H2203 C2208 0.949 . S
H2204 C2210 0.950 . S
H2205 C2211 0.950 . S
H2206 C2212 0.949 . S
C2207 H2202 0.950 . S
C2207 C2209 1.327 . S
C2207 C2213 1.429 . S
C2208 C2200 1.574 . S
C2208 H2203 0.949 . S
C2208 C2214 1.368 . S
C2209 C2193 1.349 . S
C2209 H2201 0.950 . S
C2209 C2207 1.327 . S
C2210 C2198 1.349 . S
C2210 H2204 0.950 . S
C2210 C2211 1.327 . S
C2211 H2205 0.950 . S
C2211 C2210 1.327 . S
C2211 C2215 1.429 . S
C2212 C2195 1.574 . S
C2212 H2206 0.949 . S
C2212 C2216 1.368 . S
C2213 C2194 1.429 . S
C2213 C2207 1.429 . S
C2213 C2214 1.523 . S
C2214 C2195 1.368 . S
C2214 C2208 1.368 . S
C2214 C2213 1.523 . S
C2215 C2199 1.429 . S
C2215 C2211 1.429 . S
C2215 C2216 1.523 . S
C2216 C2200 1.368 . S
C2216 C2212 1.368 . S
C2216 C2215 1.523 . S
H2217 C2192 0.950 . S
H2218 C2194 0.950 . S
H2219 C2195 0.949 . S
H2220 C2197 0.950 . S
H2221 C2199 0.950 . S
C2222 C2223 1.349 . S
C2222 C2224 1.327 . S
C2222 H2247 0.950 . S
C2223 C2222 1.349 . S
C2223 C2239 1.349 . S
C2224 C2222 1.327 . S
C2224 C2243 1.429 . S
C2224 H2248 0.950 . S
C2225 C2242 1.574 . S
C2225 C2244 1.368 . S
C2225 H2249 0.949 . S
H2226 C2230 0.949 . S
C2227 C2228 1.349 . S
C2227 C2229 1.327 . S
C2227 H2250 0.950 . S
C2228 C2227 1.349 . S
C2228 C2240 1.349 . S
C2229 C2227 1.327 . S
C2229 C2245 1.429 . S
C2229 H2251 0.950 . S
C2230 H2226 0.949 . S
C2230 C2238 1.574 . S
C2230 C2246 1.368 . S
H2231 C2239 0.950 . S
H2232 C2237 0.950 . S
H2233 C2238 0.949 . S
H2234 C2240 0.950 . S
H2235 C2241 0.950 . S
H2236 C2242 0.949 . S
C2237 H2232 0.950 . S
C2237 C2239 1.327 . S
C2237 C2243 1.429 . S
C2238 C2230 1.574 . S
C2238 H2233 0.949 . S
C2238 C2244 1.368 . S
C2239 C2223 1.349 . S
C2239 H2231 0.950 . S
C2239 C2237 1.327 . S
C2240 C2228 1.349 . S
C2240 H2234 0.950 . S
C2240 C2241 1.327 . S
C2241 H2235 0.950 . S
C2241 C2240 1.327 . S
C2241 C2245 1.429 . S
C2242 C2225 1.574 . S
C2242 H2236 0.949 . S
C2242 C2246 1.368 . S
C2243 C2224 1.429 . S
C2243 C2237 1.429 . S
C2243 C2244 1.523 . S
C2244 C2225 1.368 . S
C2244 C2238 1.368 . S
C2244 C2243 1.523 . S
C2245 C2229 1.429 . S
C2245 C2241 1.429 . S
C2245 C2246 1.523 . S
C2246 C2230 1.368 . S
C2246 C2242 1.368 . S
C2246 C2245 1.523 . S
H2247 C2222 0.950 . S
H2248 C2224 0.950 . S
H2249 C2225 0.949 . S
H2250 C2227 0.950 . S
H2251 C2229 0.950 . S
C2252 C2253 1.349 . S
C2252 C2254 1.327 . S
C2252 H2277 0.950 . S
C2253 C2252 1.349 . S
C2253 C2269 1.349 1_655 S
C2254 C2252 1.327 . S
C2254 C2273 1.429 . S
C2254 H2278 0.950 . S
C2255 C2272 1.574 . S
C2255 C2274 1.368 1_455 S
C2255 H2279 0.949 . S
H2256 C2260 0.949 . S
C2257 C2258 1.349 1_455 S
C2257 C2259 1.327 . S
C2257 H2280 0.950 . S
C2258 C2257 1.349 1_655 S
C2258 C2270 1.349 . S
C2259 C2257 1.327 . S
C2259 C2275 1.429 1_455 S
C2259 H2281 0.950 . S
C2260 H2256 0.949 . S
C2260 C2268 1.574 . S
C2260 C2276 1.368 . S
H2261 C2269 0.950 . S
H2262 C2267 0.950 . S
H2263 C2268 0.949 . S
H2264 C2270 0.950 . S
H2265 C2271 0.950 . S
H2266 C2272 0.949 . S
C2267 H2262 0.950 . S
C2267 C2269 1.327 . S
C2267 C2273 1.429 1_455 S
C2268 C2260 1.574 . S
C2268 H2263 0.949 . S
C2268 C2274 1.368 . S
C2269 C2253 1.349 1_455 S
C2269 H2261 0.950 . S
C2269 C2267 1.327 . S
C2270 C2258 1.349 . S
C2270 H2264 0.950 . S
C2270 C2271 1.327 . S
C2271 H2265 0.950 . S
C2271 C2270 1.327 . S
C2271 C2275 1.429 . S
C2272 C2255 1.574 . S
C2272 H2266 0.949 . S
C2272 C2276 1.368 1_455 S
C2273 C2254 1.429 . S
C2273 C2267 1.429 1_655 S
C2273 C2274 1.523 . S
C2274 C2255 1.368 1_655 S
C2274 C2268 1.368 . S
C2274 C2273 1.523 . S
C2275 C2259 1.429 1_655 S
C2275 C2271 1.429 . S
C2275 C2276 1.523 . S
C2276 C2260 1.368 . S
C2276 C2272 1.368 1_655 S
C2276 C2275 1.523 . S
H2277 C2252 0.950 . S
H2278 C2254 0.950 . S
H2279 C2255 0.949 . S
H2280 C2257 0.950 . S
H2281 C2259 0.950 . S
C2282 C2283 1.349 . S
C2282 C2284 1.327 . S
C2282 H2307 0.950 . S
C2283 C2282 1.349 . S
C2283 C2299 1.349 . S
C2284 C2282 1.327 . S
C2284 C2303 1.429 . S
C2284 H2308 0.950 . S
C2285 C2302 1.574 . S
C2285 C2304 1.368 . S
C2285 H2309 0.949 . S
H2286 C2290 0.949 . S
C2287 C2288 1.349 . S
C2287 C2289 1.327 . S
C2287 H2310 0.950 . S
C2288 C2287 1.349 . S
C2288 C2300 1.349 . S
C2289 C2287 1.327 . S
C2289 C2305 1.429 . S
C2289 H2311 0.950 . S
C2290 H2286 0.949 . S
C2290 C2298 1.574 . S
C2290 C2306 1.368 . S
H2291 C2299 0.950 . S
H2292 C2297 0.950 . S
H2293 C2298 0.949 . S
H2294 C2300 0.950 . S
H2295 C2301 0.950 . S
H2296 C2302 0.949 . S
C2297 H2292 0.950 . S
C2297 C2299 1.327 . S
C2297 C2303 1.429 . S
C2298 C2290 1.574 . S
C2298 H2293 0.949 . S
C2298 C2304 1.368 . S
C2299 C2283 1.349 . S
C2299 H2291 0.950 . S
C2299 C2297 1.327 . S
C2300 C2288 1.349 . S
C2300 H2294 0.950 . S
C2300 C2301 1.327 . S
C2301 H2295 0.950 . S
C2301 C2300 1.327 . S
C2301 C2305 1.429 . S
C2302 C2285 1.574 . S
C2302 H2296 0.949 . S
C2302 C2306 1.368 . S
C2303 C2284 1.429 . S
C2303 C2297 1.429 . S
C2303 C2304 1.523 . S
C2304 C2285 1.368 . S
C2304 C2298 1.368 . S
C2304 C2303 1.523 . S
C2305 C2289 1.429 . S
C2305 C2301 1.429 . S
C2305 C2306 1.523 . S
C2306 C2290 1.368 . S
C2306 C2302 1.368 . S
C2306 C2305 1.523 . S
H2307 C2282 0.950 . S
H2308 C2284 0.950 . S
H2309 C2285 0.949 . S
H2310 C2287 0.950 . S
H2311 C2289 0.950 . S
C2312 C2313 1.349 . S
C2312 C2314 1.327 . S
C2312 H2337 0.950 . S
C2313 C2312 1.349 . S
C2313 C2329 1.349 . S
C2314 C2312 1.327 . S
C2314 C2333 1.429 . S
C2314 H2338 0.950 . S
C2315 C2332 1.574 . S
C2315 C2334 1.368 . S
C2315 H2339 0.949 . S
H2316 C2320 0.949 . S
C2317 C2318 1.349 . S
C2317 C2319 1.327 . S
C2317 H2340 0.950 . S
C2318 C2317 1.349 . S
C2318 C2330 1.349 . S
C2319 C2317 1.327 . S
C2319 C2335 1.429 . S
C2319 H2341 0.950 . S
C2320 H2316 0.949 . S
C2320 C2328 1.574 . S
C2320 C2336 1.368 . S
H2321 C2329 0.950 . S
H2322 C2327 0.950 . S
H2323 C2328 0.949 . S
H2324 C2330 0.950 . S
H2325 C2331 0.950 . S
H2326 C2332 0.949 . S
C2327 H2322 0.950 . S
C2327 C2329 1.327 . S
C2327 C2333 1.429 . S
C2328 C2320 1.574 . S
C2328 H2323 0.949 . S
C2328 C2334 1.368 . S
C2329 C2313 1.349 . S
C2329 H2321 0.950 . S
C2329 C2327 1.327 . S
C2330 C2318 1.349 . S
C2330 H2324 0.950 . S
C2330 C2331 1.327 . S
C2331 H2325 0.950 . S
C2331 C2330 1.327 . S
C2331 C2335 1.429 . S
C2332 C2315 1.574 . S
C2332 H2326 0.949 . S
C2332 C2336 1.368 . S
C2333 C2314 1.429 . S
C2333 C2327 1.429 . S
C2333 C2334 1.523 . S
C2334 C2315 1.368 . S
C2334 C2328 1.368 . S
C2334 C2333 1.523 . S
C2335 C2319 1.429 . S
C2335 C2331 1.429 . S
C2335 C2336 1.523 . S
C2336 C2320 1.368 . S
C2336 C2332 1.368 . S
C2336 C2335 1.523 . S
H2337 C2312 0.950 . S
H2338 C2314 0.950 . S
H2339 C2315 0.949 . S
H2340 C2317 0.950 . S
H2341 C2319 0.950 . S
C2342 C2343 1.349 . S
C2342 C2344 1.327 . S
C2342 H2367 0.950 . S
C2343 C2342 1.349 . S
C2343 C2359 1.349 . S
C2344 C2342 1.327 . S
C2344 C2363 1.429 . S
C2344 H2368 0.950 . S
C2345 C2362 1.574 . S
C2345 C2364 1.368 . S
C2345 H2369 0.949 . S
H2346 C2350 0.949 . S
C2347 C2348 1.349 . S
C2347 C2349 1.327 . S
C2347 H2370 0.950 . S
C2348 C2347 1.349 . S
C2348 C2360 1.349 . S
C2349 C2347 1.327 . S
C2349 C2365 1.429 . S
C2349 H2371 0.950 . S
C2350 H2346 0.949 . S
C2350 C2358 1.574 . S
C2350 C2366 1.368 . S
H2351 C2359 0.950 . S
H2352 C2357 0.950 . S
H2353 C2358 0.949 . S
H2354 C2360 0.950 . S
H2355 C2361 0.950 . S
H2356 C2362 0.949 . S
C2357 H2352 0.950 . S
C2357 C2359 1.327 . S
C2357 C2363 1.429 . S
C2358 C2350 1.574 . S
C2358 H2353 0.949 . S
C2358 C2364 1.368 . S
C2359 C2343 1.349 . S
C2359 H2351 0.950 . S
C2359 C2357 1.327 . S
C2360 C2348 1.349 . S
C2360 H2354 0.950 . S
C2360 C2361 1.327 . S
C2361 H2355 0.950 . S
C2361 C2360 1.327 . S
C2361 C2365 1.429 . S
C2362 C2345 1.574 . S
C2362 H2356 0.949 . S
C2362 C2366 1.368 . S
C2363 C2344 1.429 . S
C2363 C2357 1.429 . S
C2363 C2364 1.523 . S
C2364 C2345 1.368 . S
C2364 C2358 1.368 . S
C2364 C2363 1.523 . S
C2365 C2349 1.429 . S
C2365 C2361 1.429 . S
C2365 C2366 1.523 . S
C2366 C2350 1.368 . S
C2366 C2362 1.368 . S
C2366 C2365 1.523 . S
H2367 C2342 0.950 . S
H2368 C2344 0.950 . S
H2369 C2345 0.949 . S
H2370 C2347 0.950 . S
H2371 C2349 0.950 . S
C2372 C2373 1.349 . S
C2372 C2374 1.327 . S
C2372 H2397 0.950 . S
C2373 C2372 1.349 . S
C2373 C2389 1.349 . S
C2374 C2372 1.327 . S
C2374 C2393 1.429 . S
C2374 H2398 0.950 . S
C2375 C2392 1.574 . S
C2375 C2394 1.368 . S
C2375 H2399 0.949 . S
H2376 C2380 0.949 . S
C2377 C2378 1.349 . S
C2377 C2379 1.327 . S
C2377 H2400 0.950 1_455 S
C2378 C2377 1.349 . S
C2378 C2390 1.349 . S
C2379 C2377 1.327 . S
C2379 C2395 1.429 . S
C2379 H2401 0.950 . S
C2380 H2376 0.949 . S
C2380 C2388 1.574 . S
C2380 C2396 1.368 . S
H2381 C2389 0.950 . S
H2382 C2387 0.950 . S
H2383 C2388 0.949 . S
H2384 C2390 0.950 . S
H2385 C2391 0.950 . S
H2386 C2392 0.949 . S
C2387 H2382 0.950 . S
C2387 C2389 1.327 . S
C2387 C2393 1.429 . S
C2388 C2380 1.574 . S
C2388 H2383 0.949 . S
C2388 C2394 1.368 . S
C2389 C2373 1.349 . S
C2389 H2381 0.950 . S
C2389 C2387 1.327 . S
C2390 C2378 1.349 . S
C2390 H2384 0.950 . S
C2390 C2391 1.327 . S
C2391 H2385 0.950 . S
C2391 C2390 1.327 . S
C2391 C2395 1.429 . S
C2392 C2375 1.574 . S
C2392 H2386 0.949 . S
C2392 C2396 1.368 . S
C2393 C2374 1.429 . S
C2393 C2387 1.429 . S
C2393 C2394 1.523 . S
C2394 C2375 1.368 . S
C2394 C2388 1.368 . S
C2394 C2393 1.523 . S
C2395 C2379 1.429 . S
C2395 C2391 1.429 . S
C2395 C2396 1.523 . S
C2396 C2380 1.368 . S
C2396 C2392 1.368 . S
C2396 C2395 1.523 . S
H2397 C2372 0.950 . S
H2398 C2374 0.950 . S
H2399 C2375 0.949 . S
H2400 C2377 0.950 1_655 S
H2401 C2379 0.950 . S
C2402 C2403 1.349 . S
C2402 C2404 1.327 . S
C2402 H2427 0.950 . S
C2403 C2402 1.349 . S
C2403 C2419 1.349 . S
C2404 C2402 1.327 . S
C2404 C2423 1.429 . S
C2404 H2428 0.950 . S
C2405 C2422 1.574 . S
C2405 C2424 1.368 . S
C2405 H2429 0.949 . S
H2406 C2410 0.949 . S
C2407 C2408 1.349 . S
C2407 C2409 1.327 . S
C2407 H2430 0.950 . S
C2408 C2407 1.349 . S
C2408 C2420 1.349 . S
C2409 C2407 1.327 . S
C2409 C2425 1.429 . S
C2409 H2431 0.950 . S
C2410 H2406 0.949 . S
C2410 C2418 1.574 . S
C2410 C2426 1.368 . S
H2411 C2419 0.950 . S
H2412 C2417 0.950 . S
H2413 C2418 0.949 . S
H2414 C2420 0.950 . S
H2415 C2421 0.950 . S
H2416 C2422 0.949 . S
C2417 H2412 0.950 . S
C2417 C2419 1.327 . S
C2417 C2423 1.429 . S
C2418 C2410 1.574 . S
C2418 H2413 0.949 . S
C2418 C2424 1.368 . S
C2419 C2403 1.349 . S
C2419 H2411 0.950 . S
C2419 C2417 1.327 . S
C2420 C2408 1.349 . S
C2420 H2414 0.950 . S
C2420 C2421 1.327 . S
C2421 H2415 0.950 . S
C2421 C2420 1.327 . S
C2421 C2425 1.429 . S
C2422 C2405 1.574 . S
C2422 H2416 0.949 . S
C2422 C2426 1.368 . S
C2423 C2404 1.429 . S
C2423 C2417 1.429 . S
C2423 C2424 1.523 . S
C2424 C2405 1.368 . S
C2424 C2418 1.368 . S
C2424 C2423 1.523 . S
C2425 C2409 1.429 . S
C2425 C2421 1.429 . S
C2425 C2426 1.523 . S
C2426 C2410 1.368 . S
C2426 C2422 1.368 . S
C2426 C2425 1.523 . S
H2427 C2402 0.950 . S
H2428 C2404 0.950 . S
H2429 C2405 0.949 . S
H2430 C2407 0.950 . S
H2431 C2409 0.950 . S
C2432 C2433 1.349 . S
C2432 C2434 1.327 . S
C2432 H2457 0.950 . S
C2433 C2432 1.349 . S
C2433 C2449 1.349 . S
C2434 C2432 1.327 . S
C2434 C2453 1.429 . S
C2434 H2458 0.950 . S
C2435 C2452 1.574 . S
C2435 C2454 1.368 . S
C2435 H2459 0.949 . S
H2436 C2440 0.949 . S
C2437 C2438 1.349 . S
C2437 C2439 1.327 . S
C2437 H2460 0.950 . S
C2438 C2437 1.349 . S
C2438 C2450 1.349 . S
C2439 C2437 1.327 . S
C2439 C2455 1.429 . S
C2439 H2461 0.950 . S
C2440 H2436 0.949 . S
C2440 C2448 1.574 . S
C2440 C2456 1.368 . S
H2441 C2449 0.950 . S
H2442 C2447 0.950 . S
H2443 C2448 0.949 . S
H2444 C2450 0.950 . S
H2445 C2451 0.950 . S
H2446 C2452 0.949 . S
C2447 H2442 0.950 . S
C2447 C2449 1.327 . S
C2447 C2453 1.429 . S
C2448 C2440 1.574 . S
C2448 H2443 0.949 . S
C2448 C2454 1.368 . S
C2449 C2433 1.349 . S
C2449 H2441 0.950 . S
C2449 C2447 1.327 . S
C2450 C2438 1.349 . S
C2450 H2444 0.950 . S
C2450 C2451 1.327 . S
C2451 H2445 0.950 . S
C2451 C2450 1.327 . S
C2451 C2455 1.429 . S
C2452 C2435 1.574 . S
C2452 H2446 0.949 . S
C2452 C2456 1.368 . S
C2453 C2434 1.429 . S
C2453 C2447 1.429 . S
C2453 C2454 1.523 . S
C2454 C2435 1.368 . S
C2454 C2448 1.368 . S
C2454 C2453 1.523 . S
C2455 C2439 1.429 . S
C2455 C2451 1.429 . S
C2455 C2456 1.523 . S
C2456 C2440 1.368 . S
C2456 C2452 1.368 . S
C2456 C2455 1.523 . S
H2457 C2432 0.950 . S
H2458 C2434 0.950 . S
H2459 C2435 0.949 . S
H2460 C2437 0.950 . S
H2461 C2439 0.950 . S
C2462 C2463 1.349 . S
C2462 C2464 1.327 . S
C2462 H2487 0.950 . S
C2463 C2462 1.349 . S
C2463 C2479 1.349 . S
C2464 C2462 1.327 . S
C2464 C2483 1.429 . S
C2464 H2488 0.950 . S
C2465 C2482 1.574 . S
C2465 C2484 1.368 . S
C2465 H2489 0.949 . S
H2466 C2470 0.949 . S
C2467 C2468 1.349 . S
C2467 C2469 1.327 . S
C2467 H2490 0.950 . S
C2468 C2467 1.349 . S
C2468 C2480 1.349 . S
C2469 C2467 1.327 . S
C2469 C2485 1.429 . S
C2469 H2491 0.950 . S
C2470 H2466 0.949 . S
C2470 C2478 1.574 . S
C2470 C2486 1.368 . S
H2471 C2479 0.950 . S
H2472 C2477 0.950 . S
H2473 C2478 0.949 . S
H2474 C2480 0.950 . S
H2475 C2481 0.950 . S
H2476 C2482 0.949 . S
C2477 H2472 0.950 . S
C2477 C2479 1.327 . S
C2477 C2483 1.429 . S
C2478 C2470 1.574 . S
C2478 H2473 0.949 . S
C2478 C2484 1.368 . S
C2479 C2463 1.349 . S
C2479 H2471 0.950 . S
C2479 C2477 1.327 . S
C2480 C2468 1.349 . S
C2480 H2474 0.950 . S
C2480 C2481 1.327 . S
C2481 H2475 0.950 . S
C2481 C2480 1.327 . S
C2481 C2485 1.429 . S
C2482 C2465 1.574 . S
C2482 H2476 0.949 . S
C2482 C2486 1.368 . S
C2483 C2464 1.429 . S
C2483 C2477 1.429 . S
C2483 C2484 1.523 . S
C2484 C2465 1.368 . S
C2484 C2478 1.368 . S
C2484 C2483 1.523 . S
C2485 C2469 1.429 . S
C2485 C2481 1.429 . S
C2485 C2486 1.523 . S
C2486 C2470 1.368 . S
C2486 C2482 1.368 . S
C2486 C2485 1.523 . S
H2487 C2462 0.950 . S
H2488 C2464 0.950 . S
H2489 C2465 0.949 . S
H2490 C2467 0.950 . S
H2491 C2469 0.950 . S
C2492 C2493 1.349 . S
C2492 C2494 1.327 . S
C2492 H2517 0.950 . S
C2493 C2492 1.349 . S
C2493 C2509 1.349 . S
C2494 C2492 1.327 . S
C2494 C2513 1.429 . S
C2494 H2518 0.950 . S
C2495 C2512 1.574 . S
C2495 C2514 1.368 . S
C2495 H2519 0.949 . S
H2496 C2500 0.949 . S
C2497 C2498 1.349 . S
C2497 C2499 1.327 . S
C2497 H2520 0.950 . S
C2498 C2497 1.349 . S
C2498 C2510 1.349 . S
C2499 C2497 1.327 . S
C2499 C2515 1.429 . S
C2499 H2521 0.950 . S
C2500 H2496 0.949 . S
C2500 C2508 1.574 . S
C2500 C2516 1.368 . S
H2501 C2509 0.950 . S
H2502 C2507 0.950 . S
H2503 C2508 0.949 . S
H2504 C2510 0.950 . S
H2505 C2511 0.950 . S
H2506 C2512 0.949 . S
C2507 H2502 0.950 . S
C2507 C2509 1.327 . S
C2507 C2513 1.429 . S
C2508 C2500 1.574 . S
C2508 H2503 0.949 . S
C2508 C2514 1.368 . S
C2509 C2493 1.349 . S
C2509 H2501 0.950 . S
C2509 C2507 1.327 . S
C2510 C2498 1.349 . S
C2510 H2504 0.950 . S
C2510 C2511 1.327 . S
C2511 H2505 0.950 . S
C2511 C2510 1.327 . S
C2511 C2515 1.429 . S
C2512 C2495 1.574 . S
C2512 H2506 0.949 . S
C2512 C2516 1.368 . S
C2513 C2494 1.429 . S
C2513 C2507 1.429 . S
C2513 C2514 1.523 . S
C2514 C2495 1.368 . S
C2514 C2508 1.368 . S
C2514 C2513 1.523 . S
C2515 C2499 1.429 . S
C2515 C2511 1.429 . S
C2515 C2516 1.523 . S
C2516 C2500 1.368 . S
C2516 C2512 1.368 . S
C2516 C2515 1.523 . S
H2517 C2492 0.950 . S
H2518 C2494 0.950 . S
H2519 C2495 0.949 . S
H2520 C2497 0.950 . S
H2521 C2499 0.950 . S
C2522 C2523 1.349 . S
C2522 C2524 1.327 . S
C2522 H2547 0.950 . S
C2523 C2522 1.349 . S
C2523 C2539 1.349 . S
C2524 C2522 1.327 . S
C2524 C2543 1.429 . S
C2524 H2548 0.950 . S
C2525 C2542 1.574 . S
C2525 C2544 1.368 . S
C2525 H2549 0.949 . S
H2526 C2530 0.949 . S
C2527 C2528 1.349 . S
C2527 C2529 1.327 . S
C2527 H2550 0.950 . S
C2528 C2527 1.349 . S
C2528 C2540 1.349 . S
C2529 C2527 1.327 . S
C2529 C2545 1.429 . S
C2529 H2551 0.950 . S
C2530 H2526 0.949 . S
C2530 C2538 1.574 . S
C2530 C2546 1.368 . S
H2531 C2539 0.950 . S
H2532 C2537 0.950 . S
H2533 C2538 0.949 . S
H2534 C2540 0.950 . S
H2535 C2541 0.950 . S
H2536 C2542 0.949 . S
C2537 H2532 0.950 . S
C2537 C2539 1.327 . S
C2537 C2543 1.429 . S
C2538 C2530 1.574 . S
C2538 H2533 0.949 . S
C2538 C2544 1.368 . S
C2539 C2523 1.349 . S
C2539 H2531 0.950 . S
C2539 C2537 1.327 . S
C2540 C2528 1.349 . S
C2540 H2534 0.950 . S
C2540 C2541 1.327 . S
C2541 H2535 0.950 . S
C2541 C2540 1.327 . S
C2541 C2545 1.429 . S
C2542 C2525 1.574 . S
C2542 H2536 0.949 . S
C2542 C2546 1.368 . S
C2543 C2524 1.429 . S
C2543 C2537 1.429 . S
C2543 C2544 1.523 . S
C2544 C2525 1.368 . S
C2544 C2538 1.368 . S
C2544 C2543 1.523 . S
C2545 C2529 1.429 . S
C2545 C2541 1.429 . S
C2545 C2546 1.523 . S
C2546 C2530 1.368 . S
C2546 C2542 1.368 . S
C2546 C2545 1.523 . S
H2547 C2522 0.950 . S
H2548 C2524 0.950 . S
H2549 C2525 0.949 . S
H2550 C2527 0.950 . S
H2551 C2529 0.950 . S
C2552 C2553 1.349 . S
C2552 C2554 1.327 . S
C2552 H2577 0.950 . S
C2553 C2552 1.349 . S
C2553 C2569 1.349 . S
C2554 C2552 1.327 . S
C2554 C2573 1.429 . S
C2554 H2578 0.950 . S
C2555 C2572 1.574 . S
C2555 C2574 1.368 . S
C2555 H2579 0.949 . S
H2556 C2560 0.949 . S
C2557 C2558 1.349 . S
C2557 C2559 1.327 . S
C2557 H2580 0.950 . S
C2558 C2557 1.349 . S
C2558 C2570 1.349 . S
C2559 C2557 1.327 . S
C2559 C2575 1.429 . S
C2559 H2581 0.950 . S
C2560 H2556 0.949 . S
C2560 C2568 1.574 . S
C2560 C2576 1.368 . S
H2561 C2569 0.950 . S
H2562 C2567 0.950 . S
H2563 C2568 0.949 . S
H2564 C2570 0.950 . S
H2565 C2571 0.950 . S
H2566 C2572 0.949 . S
C2567 H2562 0.950 . S
C2567 C2569 1.327 . S
C2567 C2573 1.429 . S
C2568 C2560 1.574 . S
C2568 H2563 0.949 . S
C2568 C2574 1.368 . S
C2569 C2553 1.349 . S
C2569 H2561 0.950 . S
C2569 C2567 1.327 . S
C2570 C2558 1.349 . S
C2570 H2564 0.950 . S
C2570 C2571 1.327 . S
C2571 H2565 0.950 . S
C2571 C2570 1.327 . S
C2571 C2575 1.429 . S
C2572 C2555 1.574 . S
C2572 H2566 0.949 . S
C2572 C2576 1.368 . S
C2573 C2554 1.429 . S
C2573 C2567 1.429 . S
C2573 C2574 1.523 . S
C2574 C2555 1.368 . S
C2574 C2568 1.368 . S
C2574 C2573 1.523 . S
C2575 C2559 1.429 . S
C2575 C2571 1.429 . S
C2575 C2576 1.523 . S
C2576 C2560 1.368 . S
C2576 C2572 1.368 . S
C2576 C2575 1.523 . S
H2577 C2552 0.950 . S
H2578 C2554 0.950 . S
H2579 C2555 0.949 . S
H2580 C2557 0.950 . S
H2581 C2559 0.950 . S
C2582 C2583 1.349 . S
C2582 C2584 1.327 . S
C2582 H2607 0.950 . S
C2583 C2582 1.349 . S
C2583 C2599 1.349 . S
C2584 C2582 1.327 . S
C2584 C2603 1.429 . S
C2584 H2608 0.950 . S
C2585 C2602 1.574 . S
C2585 C2604 1.368 . S
C2585 H2609 0.949 . S
H2586 C2590 0.949 . S
C2587 C2588 1.349 . S
C2587 C2589 1.327 . S
C2587 H2610 0.950 . S
C2588 C2587 1.349 . S
C2588 C2600 1.349 . S
C2589 C2587 1.327 . S
C2589 C2605 1.429 . S
C2589 H2611 0.950 . S
C2590 H2586 0.949 . S
C2590 C2598 1.574 . S
C2590 C2606 1.368 . S
H2591 C2599 0.950 . S
H2592 C2597 0.950 . S
H2593 C2598 0.949 . S
H2594 C2600 0.950 . S
H2595 C2601 0.950 . S
H2596 C2602 0.949 . S
C2597 H2592 0.950 . S
C2597 C2599 1.327 . S
C2597 C2603 1.429 . S
C2598 C2590 1.574 . S
C2598 H2593 0.949 . S
C2598 C2604 1.368 . S
C2599 C2583 1.349 . S
C2599 H2591 0.950 . S
C2599 C2597 1.327 . S
C2600 C2588 1.349 . S
C2600 H2594 0.950 . S
C2600 C2601 1.327 . S
C2601 H2595 0.950 . S
C2601 C2600 1.327 . S
C2601 C2605 1.429 . S
C2602 C2585 1.574 . S
C2602 H2596 0.949 . S
C2602 C2606 1.368 . S
C2603 C2584 1.429 . S
C2603 C2597 1.429 . S
C2603 C2604 1.523 . S
C2604 C2585 1.368 . S
C2604 C2598 1.368 . S
C2604 C2603 1.523 . S
C2605 C2589 1.429 . S
C2605 C2601 1.429 . S
C2605 C2606 1.523 . S
C2606 C2590 1.368 . S
C2606 C2602 1.368 . S
C2606 C2605 1.523 . S
H2607 C2582 0.950 . S
H2608 C2584 0.950 . S
H2609 C2585 0.949 . S
H2610 C2587 0.950 . S
H2611 C2589 0.950 . S
C2612 C2613 1.349 . S
C2612 C2614 1.327 . S
C2612 H2637 0.950 . S
C2613 C2612 1.349 . S
C2613 C2629 1.349 . S
C2614 C2612 1.327 . S
C2614 C2633 1.429 . S
C2614 H2638 0.950 . S
C2615 C2632 1.574 . S
C2615 C2634 1.368 . S
C2615 H2639 0.949 . S
H2616 C2620 0.949 . S
C2617 C2618 1.349 . S
C2617 C2619 1.327 . S
C2617 H2640 0.950 . S
C2618 C2617 1.349 . S
C2618 C2630 1.349 . S
C2619 C2617 1.327 . S
C2619 C2635 1.429 . S
C2619 H2641 0.950 . S
C2620 H2616 0.949 . S
C2620 C2628 1.574 . S
C2620 C2636 1.368 . S
H2621 C2629 0.950 . S
H2622 C2627 0.950 . S
H2623 C2628 0.949 . S
H2624 C2630 0.950 . S
H2625 C2631 0.950 . S
H2626 C2632 0.949 . S
C2627 H2622 0.950 . S
C2627 C2629 1.327 . S
C2627 C2633 1.429 . S
C2628 C2620 1.574 . S
C2628 H2623 0.949 . S
C2628 C2634 1.368 . S
C2629 C2613 1.349 . S
C2629 H2621 0.950 . S
C2629 C2627 1.327 . S
C2630 C2618 1.349 . S
C2630 H2624 0.950 . S
C2630 C2631 1.327 . S
C2631 H2625 0.950 . S
C2631 C2630 1.327 . S
C2631 C2635 1.429 . S
C2632 C2615 1.574 . S
C2632 H2626 0.949 . S
C2632 C2636 1.368 . S
C2633 C2614 1.429 . S
C2633 C2627 1.429 . S
C2633 C2634 1.523 . S
C2634 C2615 1.368 . S
C2634 C2628 1.368 . S
C2634 C2633 1.523 . S
C2635 C2619 1.429 . S
C2635 C2631 1.429 . S
C2635 C2636 1.523 . S
C2636 C2620 1.368 . S
C2636 C2632 1.368 . S
C2636 C2635 1.523 . S
H2637 C2612 0.950 . S
H2638 C2614 0.950 . S
H2639 C2615 0.949 . S
H2640 C2617 0.950 . S
H2641 C2619 0.950 . S
C2642 C2643 1.349 . S
C2642 C2644 1.327 . S
C2642 H2667 0.950 . S
C2643 C2642 1.349 . S
C2643 C2659 1.349 . S
C2644 C2642 1.327 . S
C2644 C2663 1.429 . S
C2644 H2668 0.950 . S
C2645 C2662 1.574 . S
C2645 C2664 1.368 . S
C2645 H2669 0.949 . S
H2646 C2650 0.949 1_545 S
C2647 C2648 1.349 1_565 S
C2647 C2649 1.327 . S
C2647 H2670 0.950 1_554 S
C2648 C2647 1.349 1_545 S
C2648 C2660 1.349 . S
C2649 C2647 1.327 . S
C2649 C2665 1.429 . S
C2649 H2671 0.950 . S
C2650 H2646 0.949 1_565 S
C2650 C2658 1.574 . S
C2650 C2666 1.368 . S
H2651 C2659 0.950 . S
H2652 C2657 0.950 . S
H2653 C2658 0.949 . S
H2654 C2660 0.950 . S
H2655 C2661 0.950 . S
H2656 C2662 0.949 . S
C2657 H2652 0.950 . S
C2657 C2659 1.327 . S
C2657 C2663 1.429 . S
C2658 C2650 1.574 . S
C2658 H2653 0.949 . S
C2658 C2664 1.368 . S
C2659 C2643 1.349 . S
C2659 H2651 0.950 . S
C2659 C2657 1.327 . S
C2660 C2648 1.349 . S
C2660 H2654 0.950 . S
C2660 C2661 1.327 . S
C2661 H2655 0.950 . S
C2661 C2660 1.327 . S
C2661 C2665 1.429 1_545 S
C2662 C2645 1.574 . S
C2662 H2656 0.949 . S
C2662 C2666 1.368 . S
C2663 C2644 1.429 . S
C2663 C2657 1.429 . S
C2663 C2664 1.523 . S
C2664 C2645 1.368 . S
C2664 C2658 1.368 . S
C2664 C2663 1.523 . S
C2665 C2649 1.429 . S
C2665 C2661 1.429 1_565 S
C2665 C2666 1.523 . S
C2666 C2650 1.368 . S
C2666 C2662 1.368 . S
C2666 C2665 1.523 . S
H2667 C2642 0.950 . S
H2668 C2644 0.950 . S
H2669 C2645 0.949 . S
H2670 C2647 0.950 1_556 S
H2671 C2649 0.950 . S
C2672 C2673 1.349 . S
C2672 C2674 1.327 . S
C2672 H2697 0.950 . S
C2673 C2672 1.349 . S
C2673 C2689 1.349 . S
C2674 C2672 1.327 . S
C2674 C2693 1.429 . S
C2674 H2698 0.950 . S
C2675 C2692 1.574 . S
C2675 C2694 1.368 . S
C2675 H2699 0.949 . S
H2676 C2680 0.949 . S
C2677 C2678 1.349 . S
C2677 C2679 1.327 . S
C2677 H2700 0.950 . S
C2678 C2677 1.349 . S
C2678 C2690 1.349 . S
C2679 C2677 1.327 . S
C2679 C2695 1.429 . S
C2679 H2701 0.950 . S
C2680 H2676 0.949 . S
C2680 C2688 1.574 . S
C2680 C2696 1.368 . S
H2681 C2689 0.950 . S
H2682 C2687 0.950 . S
H2683 C2688 0.949 . S
H2684 C2690 0.950 . S
H2685 C2691 0.950 . S
H2686 C2692 0.949 . S
C2687 H2682 0.950 . S
C2687 C2689 1.327 . S
C2687 C2693 1.429 . S
C2688 C2680 1.574 . S
C2688 H2683 0.949 . S
C2688 C2694 1.368 . S
C2689 C2673 1.349 . S
C2689 H2681 0.950 . S
C2689 C2687 1.327 . S
C2690 C2678 1.349 . S
C2690 H2684 0.950 . S
C2690 C2691 1.327 . S
C2691 H2685 0.950 . S
C2691 C2690 1.327 . S
C2691 C2695 1.429 . S
C2692 C2675 1.574 . S
C2692 H2686 0.949 . S
C2692 C2696 1.368 . S
C2693 C2674 1.429 . S
C2693 C2687 1.429 . S
C2693 C2694 1.523 . S
C2694 C2675 1.368 . S
C2694 C2688 1.368 . S
C2694 C2693 1.523 . S
C2695 C2679 1.429 . S
C2695 C2691 1.429 . S
C2695 C2696 1.523 . S
C2696 C2680 1.368 . S
C2696 C2692 1.368 . S
C2696 C2695 1.523 . S
H2697 C2672 0.950 . S
H2698 C2674 0.950 . S
H2699 C2675 0.949 . S
H2700 C2677 0.950 . S
H2701 C2679 0.950 . S
C2702 C2703 1.349 . S
C2702 C2704 1.327 . S
C2702 H2727 0.950 1_554 S
C2703 C2702 1.349 . S
C2703 C2719 1.349 . S
C2704 C2702 1.327 . S
C2704 C2723 1.429 . S
C2704 H2728 0.950 1_554 S
C2705 C2722 1.574 . S
C2705 C2724 1.368 . S
C2705 H2729 0.949 . S
H2706 C2710 0.949 . S
C2707 C2708 1.349 . S
C2707 C2709 1.327 . S
C2707 H2730 0.950 . S
C2708 C2707 1.349 . S
C2708 C2720 1.349 . S
C2709 C2707 1.327 . S
C2709 C2725 1.429 . S
C2709 H2731 0.950 . S
C2710 H2706 0.949 . S
C2710 C2718 1.574 . S
C2710 C2726 1.368 . S
H2711 C2719 0.950 . S
H2712 C2717 0.950 . S
H2713 C2718 0.949 . S
H2714 C2720 0.950 . S
H2715 C2721 0.950 . S
H2716 C2722 0.949 . S
C2717 H2712 0.950 . S
C2717 C2719 1.327 . S
C2717 C2723 1.429 . S
C2718 C2710 1.574 . S
C2718 H2713 0.949 . S
C2718 C2724 1.368 . S
C2719 C2703 1.349 . S
C2719 H2711 0.950 . S
C2719 C2717 1.327 . S
C2720 C2708 1.349 . S
C2720 H2714 0.950 . S
C2720 C2721 1.327 . S
C2721 H2715 0.950 . S
C2721 C2720 1.327 . S
C2721 C2725 1.429 . S
C2722 C2705 1.574 . S
C2722 H2716 0.949 . S
C2722 C2726 1.368 . S
C2723 C2704 1.429 . S
C2723 C2717 1.429 . S
C2723 C2724 1.523 . S
C2724 C2705 1.368 . S
C2724 C2718 1.368 . S
C2724 C2723 1.523 . S
C2725 C2709 1.429 . S
C2725 C2721 1.429 . S
C2725 C2726 1.523 . S
C2726 C2710 1.368 . S
C2726 C2722 1.368 . S
C2726 C2725 1.523 . S
H2727 C2702 0.950 1_556 S
H2728 C2704 0.950 1_556 S
H2729 C2705 0.949 . S
H2730 C2707 0.950 . S
H2731 C2709 0.950 . S
C2732 C2733 1.349 . S
C2732 C2734 1.327 . S
C2732 H2757 0.950 . S
C2733 C2732 1.349 . S
C2733 C2749 1.349 . S
C2734 C2732 1.327 . S
C2734 C2753 1.429 . S
C2734 H2758 0.950 . S
C2735 C2752 1.574 . S
C2735 C2754 1.368 . S
C2735 H2759 0.949 . S
H2736 C2740 0.949 . S
C2737 C2738 1.349 . S
C2737 C2739 1.327 . S
C2737 H2760 0.950 . S
C2738 C2737 1.349 . S
C2738 C2750 1.349 . S
C2739 C2737 1.327 . S
C2739 C2755 1.429 . S
C2739 H2761 0.950 . S
C2740 H2736 0.949 . S
C2740 C2748 1.574 . S
C2740 C2756 1.368 . S
H2741 C2749 0.950 . S
H2742 C2747 0.950 . S
H2743 C2748 0.949 . S
H2744 C2750 0.950 . S
H2745 C2751 0.950 . S
H2746 C2752 0.949 . S
C2747 H2742 0.950 . S
C2747 C2749 1.327 . S
C2747 C2753 1.429 . S
C2748 C2740 1.574 . S
C2748 H2743 0.949 . S
C2748 C2754 1.368 . S
C2749 C2733 1.349 . S
C2749 H2741 0.950 . S
C2749 C2747 1.327 . S
C2750 C2738 1.349 . S
C2750 H2744 0.950 . S
C2750 C2751 1.327 . S
C2751 H2745 0.950 . S
C2751 C2750 1.327 . S
C2751 C2755 1.429 . S
C2752 C2735 1.574 . S
C2752 H2746 0.949 . S
C2752 C2756 1.368 . S
C2753 C2734 1.429 . S
C2753 C2747 1.429 . S
C2753 C2754 1.523 . S
C2754 C2735 1.368 . S
C2754 C2748 1.368 . S
C2754 C2753 1.523 . S
C2755 C2739 1.429 . S
C2755 C2751 1.429 . S
C2755 C2756 1.523 . S
C2756 C2740 1.368 . S
C2756 C2752 1.368 . S
C2756 C2755 1.523 . S
H2757 C2732 0.950 . S
H2758 C2734 0.950 . S
H2759 C2735 0.949 . S
H2760 C2737 0.950 . S
H2761 C2739 0.950 . S
C2762 C2763 1.349 . S
C2762 C2764 1.327 . S
C2762 H2787 0.950 . S
C2763 C2762 1.349 . S
C2763 C2779 1.349 . S
C2764 C2762 1.327 . S
C2764 C2783 1.429 . S
C2764 H2788 0.950 . S
C2765 C2782 1.574 . S
C2765 C2784 1.368 . S
C2765 H2789 0.949 . S
H2766 C2770 0.949 . S
C2767 C2768 1.349 . S
C2767 C2769 1.327 . S
C2767 H2790 0.950 . S
C2768 C2767 1.349 . S
C2768 C2780 1.349 . S
C2769 C2767 1.327 . S
C2769 C2785 1.429 . S
C2769 H2791 0.950 . S
C2770 H2766 0.949 . S
C2770 C2778 1.574 . S
C2770 C2786 1.368 . S
H2771 C2779 0.950 1_545 S
H2772 C2777 0.950 . S
H2773 C2778 0.949 . S
H2774 C2780 0.950 . S
H2775 C2781 0.950 . S
H2776 C2782 0.949 . S
C2777 H2772 0.950 . S
C2777 C2779 1.327 . S
C2777 C2783 1.429 . S
C2778 C2770 1.574 . S
C2778 H2773 0.949 . S
C2778 C2784 1.368 . S
C2779 C2763 1.349 . S
C2779 H2771 0.950 1_565 S
C2779 C2777 1.327 . S
C2780 C2768 1.349 . S
C2780 H2774 0.950 . S
C2780 C2781 1.327 . S
C2781 H2775 0.950 . S
C2781 C2780 1.327 . S
C2781 C2785 1.429 . S
C2782 C2765 1.574 . S
C2782 H2776 0.949 . S
C2782 C2786 1.368 . S
C2783 C2764 1.429 . S
C2783 C2777 1.429 . S
C2783 C2784 1.523 . S
C2784 C2765 1.368 . S
C2784 C2778 1.368 . S
C2784 C2783 1.523 . S
C2785 C2769 1.429 . S
C2785 C2781 1.429 . S
C2785 C2786 1.523 . S
C2786 C2770 1.368 . S
C2786 C2782 1.368 . S
C2786 C2785 1.523 . S
H2787 C2762 0.950 . S
H2788 C2764 0.950 . S
H2789 C2765 0.949 . S
H2790 C2767 0.950 . S
H2791 C2769 0.950 . S
C2792 C2793 1.349 . S
C2792 C2794 1.327 . S
C2792 H2817 0.950 . S
C2793 C2792 1.349 . S
C2793 C2809 1.349 . S
C2794 C2792 1.327 . S
C2794 C2813 1.429 . S
C2794 H2818 0.950 . S
C2795 C2812 1.574 . S
C2795 C2814 1.368 . S
C2795 H2819 0.949 . S
H2796 C2800 0.949 . S
C2797 C2798 1.349 . S
C2797 C2799 1.327 . S
C2797 H2820 0.950 . S
C2798 C2797 1.349 . S
C2798 C2810 1.349 . S
C2799 C2797 1.327 . S
C2799 C2815 1.429 . S
C2799 H2821 0.950 . S
C2800 H2796 0.949 . S
C2800 C2808 1.574 . S
C2800 C2816 1.368 . S
H2801 C2809 0.950 . S
H2802 C2807 0.950 . S
H2803 C2808 0.949 . S
H2804 C2810 0.950 . S
H2805 C2811 0.950 . S
H2806 C2812 0.949 . S
C2807 H2802 0.950 . S
C2807 C2809 1.327 . S
C2807 C2813 1.429 . S
C2808 C2800 1.574 . S
C2808 H2803 0.949 . S
C2808 C2814 1.368 . S
C2809 C2793 1.349 . S
C2809 H2801 0.950 . S
C2809 C2807 1.327 . S
C2810 C2798 1.349 . S
C2810 H2804 0.950 . S
C2810 C2811 1.327 . S
C2811 H2805 0.950 . S
C2811 C2810 1.327 . S
C2811 C2815 1.429 . S
C2812 C2795 1.574 . S
C2812 H2806 0.949 . S
C2812 C2816 1.368 . S
C2813 C2794 1.429 . S
C2813 C2807 1.429 . S
C2813 C2814 1.523 . S
C2814 C2795 1.368 . S
C2814 C2808 1.368 . S
C2814 C2813 1.523 . S
C2815 C2799 1.429 . S
C2815 C2811 1.429 . S
C2815 C2816 1.523 . S
C2816 C2800 1.368 . S
C2816 C2812 1.368 . S
C2816 C2815 1.523 . S
H2817 C2792 0.950 . S
H2818 C2794 0.950 . S
H2819 C2795 0.949 . S
H2820 C2797 0.950 . S
H2821 C2799 0.950 . S
C2822 C2823 1.349 . S
C2822 C2824 1.327 . S
C2822 H2847 0.950 . S
C2823 C2822 1.349 . S
C2823 C2839 1.349 . S
C2824 C2822 1.327 . S
C2824 C2843 1.429 . S
C2824 H2848 0.950 . S
C2825 C2842 1.574 . S
C2825 C2844 1.368 . S
C2825 H2849 0.949 . S
H2826 C2830 0.949 . S
C2827 C2828 1.349 . S
C2827 C2829 1.327 . S
C2827 H2850 0.950 . S
C2828 C2827 1.349 . S
C2828 C2840 1.349 . S
C2829 C2827 1.327 . S
C2829 C2845 1.429 . S
C2829 H2851 0.950 . S
C2830 H2826 0.949 . S
C2830 C2838 1.574 . S
C2830 C2846 1.368 . S
H2831 C2839 0.950 . S
H2832 C2837 0.950 . S
H2833 C2838 0.949 . S
H2834 C2840 0.950 . S
H2835 C2841 0.950 . S
H2836 C2842 0.949 . S
C2837 H2832 0.950 . S
C2837 C2839 1.327 . S
C2837 C2843 1.429 . S
C2838 C2830 1.574 . S
C2838 H2833 0.949 . S
C2838 C2844 1.368 . S
C2839 C2823 1.349 . S
C2839 H2831 0.950 . S
C2839 C2837 1.327 . S
C2840 C2828 1.349 . S
C2840 H2834 0.950 . S
C2840 C2841 1.327 . S
C2841 H2835 0.950 . S
C2841 C2840 1.327 . S
C2841 C2845 1.429 . S
C2842 C2825 1.574 . S
C2842 H2836 0.949 . S
C2842 C2846 1.368 . S
C2843 C2824 1.429 . S
C2843 C2837 1.429 . S
C2843 C2844 1.523 . S
C2844 C2825 1.368 . S
C2844 C2838 1.368 . S
C2844 C2843 1.523 . S
C2845 C2829 1.429 . S
C2845 C2841 1.429 . S
C2845 C2846 1.523 . S
C2846 C2830 1.368 . S
C2846 C2842 1.368 . S
C2846 C2845 1.523 . S
H2847 C2822 0.950 . S
H2848 C2824 0.950 . S
H2849 C2825 0.949 . S
H2850 C2827 0.950 . S
H2851 C2829 0.950 . S
C2852 C2853 1.349 1_655 S
C2852 C2854 1.327 . S
C2852 H2877 0.950 . S
C2853 C2852 1.349 1_455 S
C2853 C2869 1.349 . S
C2854 C2852 1.327 . S
C2854 C2873 1.429 1_655 S
C2854 H2878 0.950 . S
C2855 C2872 1.574 . S
C2855 C2874 1.368 . S
C2855 H2879 0.949 . S
H2856 C2860 0.949 . S
C2857 C2858 1.349 . S
C2857 C2859 1.327 . S
C2857 H2880 0.950 . S
C2858 C2857 1.349 . S
C2858 C2870 1.349 1_455 S
C2859 C2857 1.327 . S
C2859 C2875 1.429 . S
C2859 H2881 0.950 . S
C2860 H2856 0.949 . S
C2860 C2868 1.574 . S
C2860 C2876 1.368 1_655 S
H2861 C2869 0.950 . S
H2862 C2867 0.950 . S
H2863 C2868 0.949 . S
H2864 C2870 0.950 . S
H2865 C2871 0.950 . S
H2866 C2872 0.949 . S
C2867 H2862 0.950 . S
C2867 C2869 1.327 . S
C2867 C2873 1.429 . S
C2868 C2860 1.574 . S
C2868 H2863 0.949 . S
C2868 C2874 1.368 1_655 S
C2869 C2853 1.349 . S
C2869 H2861 0.950 . S
C2869 C2867 1.327 . S
C2870 C2858 1.349 1_655 S
C2870 H2864 0.950 . S
C2870 C2871 1.327 . S
C2871 H2865 0.950 . S
C2871 C2870 1.327 . S
C2871 C2875 1.429 1_655 S
C2872 C2855 1.574 . S
C2872 H2866 0.949 . S
C2872 C2876 1.368 . S
C2873 C2854 1.429 1_455 S
C2873 C2867 1.429 . S
C2873 C2874 1.523 . S
C2874 C2855 1.368 . S
C2874 C2868 1.368 1_455 S
C2874 C2873 1.523 . S
C2875 C2859 1.429 . S
C2875 C2871 1.429 1_455 S
C2875 C2876 1.523 . S
C2876 C2860 1.368 1_455 S
C2876 C2872 1.368 . S
C2876 C2875 1.523 . S
H2877 C2852 0.950 . S
H2878 C2854 0.950 . S
H2879 C2855 0.949 . S
H2880 C2857 0.950 . S
H2881 C2859 0.950 . S
C2882 C2883 1.349 . S
C2882 C2884 1.327 . S
C2882 H2907 0.950 . S
C2883 C2882 1.349 . S
C2883 C2899 1.349 . S
C2884 C2882 1.327 . S
C2884 C2903 1.429 . S
C2884 H2908 0.950 . S
C2885 C2902 1.574 . S
C2885 C2904 1.368 . S
C2885 H2909 0.949 . S
H2886 C2890 0.949 . S
C2887 C2888 1.349 . S
C2887 C2889 1.327 . S
C2887 H2910 0.950 . S
C2888 C2887 1.349 . S
C2888 C2900 1.349 . S
C2889 C2887 1.327 . S
C2889 C2905 1.429 . S
C2889 H2911 0.950 . S
C2890 H2886 0.949 . S
C2890 C2898 1.574 . S
C2890 C2906 1.368 . S
H2891 C2899 0.950 . S
H2892 C2897 0.950 . S
H2893 C2898 0.949 . S
H2894 C2900 0.950 . S
H2895 C2901 0.950 . S
H2896 C2902 0.949 . S
C2897 H2892 0.950 . S
C2897 C2899 1.327 . S
C2897 C2903 1.429 . S
C2898 C2890 1.574 . S
C2898 H2893 0.949 . S
C2898 C2904 1.368 . S
C2899 C2883 1.349 . S
C2899 H2891 0.950 . S
C2899 C2897 1.327 . S
C2900 C2888 1.349 . S
C2900 H2894 0.950 . S
C2900 C2901 1.327 . S
C2901 H2895 0.950 . S
C2901 C2900 1.327 . S
C2901 C2905 1.429 . S
C2902 C2885 1.574 . S
C2902 H2896 0.949 . S
C2902 C2906 1.368 . S
C2903 C2884 1.429 . S
C2903 C2897 1.429 . S
C2903 C2904 1.523 . S
C2904 C2885 1.368 . S
C2904 C2898 1.368 . S
C2904 C2903 1.523 . S
C2905 C2889 1.429 . S
C2905 C2901 1.429 . S
C2905 C2906 1.523 . S
C2906 C2890 1.368 . S
C2906 C2902 1.368 . S
C2906 C2905 1.523 . S
H2907 C2882 0.950 . S
H2908 C2884 0.950 . S
H2909 C2885 0.949 . S
H2910 C2887 0.950 . S
H2911 C2889 0.950 . S
C2912 C2913 1.349 . S
C2912 C2914 1.327 . S
C2912 H2937 0.950 . S
C2913 C2912 1.349 . S
C2913 C2929 1.349 . S
C2914 C2912 1.327 . S
C2914 C2933 1.429 . S
C2914 H2938 0.950 . S
C2915 C2932 1.574 . S
C2915 C2934 1.368 . S
C2915 H2939 0.949 . S
H2916 C2920 0.949 . S
C2917 C2918 1.349 . S
C2917 C2919 1.327 . S
C2917 H2940 0.950 1_556 S
C2918 C2917 1.349 . S
C2918 C2930 1.349 . S
C2919 C2917 1.327 . S
C2919 C2935 1.429 . S
C2919 H2941 0.950 . S
C2920 H2916 0.949 . S
C2920 C2928 1.574 . S
C2920 C2936 1.368 . S
H2921 C2929 0.950 . S
H2922 C2927 0.950 . S
H2923 C2928 0.949 . S
H2924 C2930 0.950 . S
H2925 C2931 0.950 . S
H2926 C2932 0.949 . S
C2927 H2922 0.950 . S
C2927 C2929 1.327 . S
C2927 C2933 1.429 . S
C2928 C2920 1.574 . S
C2928 H2923 0.949 . S
C2928 C2934 1.368 . S
C2929 C2913 1.349 . S
C2929 H2921 0.950 . S
C2929 C2927 1.327 . S
C2930 C2918 1.349 . S
C2930 H2924 0.950 . S
C2930 C2931 1.327 . S
C2931 H2925 0.950 . S
C2931 C2930 1.327 . S
C2931 C2935 1.429 . S
C2932 C2915 1.574 . S
C2932 H2926 0.949 . S
C2932 C2936 1.368 . S
C2933 C2914 1.429 . S
C2933 C2927 1.429 . S
C2933 C2934 1.523 . S
C2934 C2915 1.368 . S
C2934 C2928 1.368 . S
C2934 C2933 1.523 . S
C2935 C2919 1.429 . S
C2935 C2931 1.429 . S
C2935 C2936 1.523 . S
C2936 C2920 1.368 . S
C2936 C2932 1.368 . S
C2936 C2935 1.523 . S
H2937 C2912 0.950 . S
H2938 C2914 0.950 . S
H2939 C2915 0.949 . S
H2940 C2917 0.950 1_554 S
H2941 C2919 0.950 . S
C2942 C2943 1.349 . S
C2942 C2944 1.327 . S
C2942 H2967 0.950 . S
C2943 C2942 1.349 . S
C2943 C2959 1.349 . S
C2944 C2942 1.327 . S
C2944 C2963 1.429 . S
C2944 H2968 0.950 . S
C2945 C2962 1.574 . S
C2945 C2964 1.368 . S
C2945 H2969 0.949 . S
H2946 C2950 0.949 . S
C2947 C2948 1.349 . S
C2947 C2949 1.327 . S
C2947 H2970 0.950 . S
C2948 C2947 1.349 . S
C2948 C2960 1.349 . S
C2949 C2947 1.327 . S
C2949 C2965 1.429 . S
C2949 H2971 0.950 . S
C2950 H2946 0.949 . S
C2950 C2958 1.574 . S
C2950 C2966 1.368 . S
H2951 C2959 0.950 . S
H2952 C2957 0.950 . S
H2953 C2958 0.949 . S
H2954 C2960 0.950 . S
H2955 C2961 0.950 . S
H2956 C2962 0.949 . S
C2957 H2952 0.950 . S
C2957 C2959 1.327 . S
C2957 C2963 1.429 . S
C2958 C2950 1.574 . S
C2958 H2953 0.949 . S
C2958 C2964 1.368 . S
C2959 C2943 1.349 . S
C2959 H2951 0.950 . S
C2959 C2957 1.327 . S
C2960 C2948 1.349 . S
C2960 H2954 0.950 . S
C2960 C2961 1.327 . S
C2961 H2955 0.950 . S
C2961 C2960 1.327 . S
C2961 C2965 1.429 . S
C2962 C2945 1.574 . S
C2962 H2956 0.949 . S
C2962 C2966 1.368 . S
C2963 C2944 1.429 . S
C2963 C2957 1.429 . S
C2963 C2964 1.523 . S
C2964 C2945 1.368 . S
C2964 C2958 1.368 . S
C2964 C2963 1.523 . S
C2965 C2949 1.429 . S
C2965 C2961 1.429 . S
C2965 C2966 1.523 . S
C2966 C2950 1.368 . S
C2966 C2962 1.368 . S
C2966 C2965 1.523 . S
H2967 C2942 0.950 . S
H2968 C2944 0.950 . S
H2969 C2945 0.949 . S
H2970 C2947 0.950 . S
H2971 C2949 0.950 . S
C2972 C2973 1.349 . S
C2972 C2974 1.327 . S
C2972 H2997 0.950 . S
C2973 C2972 1.349 . S
C2973 C2989 1.349 . S
C2974 C2972 1.327 . S
C2974 C2993 1.429 . S
C2974 H2998 0.910 1_455 S
C2975 C2992 1.574 . S
C2975 C2994 1.368 . S
C2975 H2999 0.949 . S
H2976 C2980 0.949 1_655 S
C2977 C2978 1.349 . S
C2977 C2979 1.327 . S
C2977 H3000 0.950 . S
C2978 C2977 1.349 . S
C2978 C2990 1.355 . S
C2979 C2977 1.327 . S
C2979 C2995 1.429 . S
C2979 H3001 0.950 . S
C2980 H2976 0.949 1_455 S
C2980 C2988 1.574 . S
C2980 C2996 1.368 . S
H2981 C2989 0.950 . S
H2982 C2987 0.950 . S
H2983 C2988 0.949 1_655 S
H2984 C2990 0.941 1_655 S
H2985 C2991 0.950 1_655 S
H2986 C2992 0.949 . S
C2987 H2982 0.950 . S
C2987 C2989 1.327 . S
C2987 C2993 1.429 . S
C2988 C2980 1.574 . S
C2988 H2983 0.949 1_455 S
C2988 C2994 1.368 . S
C2989 C2973 1.349 . S
C2989 H2981 0.950 . S
C2989 C2987 1.327 . S
C2990 C2978 1.355 . S
C2990 H2984 0.941 1_455 S
C2990 C2991 1.330 . S
C2991 H2985 0.950 1_455 S
C2991 C2990 1.330 . S
C2991 C2995 1.429 . S
C2992 C2975 1.574 . S
C2992 H2986 0.949 . S
C2992 C2996 1.368 . S
C2993 C2974 1.429 . S
C2993 C2987 1.429 . S
C2993 C2994 1.523 . S
C2994 C2975 1.368 . S
C2994 C2988 1.368 . S
C2994 C2993 1.523 . S
C2995 C2979 1.429 . S
C2995 C2991 1.429 . S
C2995 C2996 1.523 . S
C2996 C2980 1.368 . S
C2996 C2992 1.368 . S
C2996 C2995 1.523 . S
H2997 C2972 0.950 . S
H2998 C2974 0.910 1_655 S
H2999 C2975 0.949 . S
H3000 C2977 0.950 . S
H3001 C2979 0.950 . S
C3002 C3003 1.349 . S
C3002 C3004 1.327 . S
C3002 H3027 0.950 . S
C3003 C3002 1.349 . S
C3003 C3019 1.349 . S
C3004 C3002 1.327 . S
C3004 C3023 1.429 . S
C3004 H3028 0.950 . S
C3005 C3022 1.574 . S
C3005 C3024 1.368 . S
C3005 H3029 0.949 . S
H3006 C3010 0.949 . S
C3007 C3008 1.349 . S
C3007 C3009 1.327 . S
C3007 H3030 0.950 . S
C3008 C3007 1.349 . S
C3008 C3020 1.349 . S
C3009 C3007 1.327 . S
C3009 C3025 1.429 . S
C3009 H3031 0.950 . S
C3010 H3006 0.949 . S
C3010 C3018 1.574 . S
C3010 C3026 1.368 . S
H3011 C3019 0.950 . S
H3012 C3017 0.950 . S
H3013 C3018 0.949 . S
H3014 C3020 0.950 . S
H3015 C3021 0.950 . S
H3016 C3022 0.949 . S
C3017 H3012 0.950 . S
C3017 C3019 1.327 . S
C3017 C3023 1.429 . S
C3018 C3010 1.574 . S
C3018 H3013 0.949 . S
C3018 C3024 1.368 . S
C3019 C3003 1.349 . S
C3019 H3011 0.950 . S
C3019 C3017 1.327 . S
C3020 C3008 1.349 . S
C3020 H3014 0.950 . S
C3020 C3021 1.327 . S
C3021 H3015 0.950 . S
C3021 C3020 1.327 . S
C3021 C3025 1.429 . S
C3022 C3005 1.574 . S
C3022 H3016 0.949 . S
C3022 C3026 1.368 . S
C3023 C3004 1.429 . S
C3023 C3017 1.429 . S
C3023 C3024 1.523 . S
C3024 C3005 1.368 . S
C3024 C3018 1.368 . S
C3024 C3023 1.523 . S
C3025 C3009 1.429 . S
C3025 C3021 1.429 . S
C3025 C3026 1.523 . S
C3026 C3010 1.368 . S
C3026 C3022 1.368 . S
C3026 C3025 1.523 . S
H3027 C3002 0.950 . S
H3028 C3004 0.950 . S
H3029 C3005 0.949 . S
H3030 C3007 0.950 . S
H3031 C3009 0.950 . S
C3032 C3033 1.349 . S
C3032 C3034 1.327 . S
C3032 H3057 0.950 . S
C3033 C3032 1.349 . S
C3033 C3049 1.349 . S
C3034 C3032 1.327 . S
C3034 C3053 1.429 . S
C3034 H3058 0.950 . S
C3035 C3052 1.574 . S
C3035 C3054 1.368 . S
C3035 H3059 0.949 . S
H3036 C3040 0.949 . S
C3037 C3038 1.349 . S
C3037 C3039 1.327 . S
C3037 H3060 0.950 . S
C3038 C3037 1.349 . S
C3038 C3050 1.349 . S
C3039 C3037 1.327 . S
C3039 C3055 1.429 . S
C3039 H3061 0.950 . S
C3040 H3036 0.949 . S
C3040 C3048 1.574 . S
C3040 C3056 1.368 . S
H3041 C3049 0.950 . S
H3042 C3047 0.950 . S
H3043 C3048 0.949 . S
H3044 C3050 0.950 . S
H3045 C3051 0.950 . S
H3046 C3052 0.949 . S
C3047 H3042 0.950 . S
C3047 C3049 1.327 . S
C3047 C3053 1.429 . S
C3048 C3040 1.574 . S
C3048 H3043 0.949 . S
C3048 C3054 1.368 . S
C3049 C3033 1.349 . S
C3049 H3041 0.950 . S
C3049 C3047 1.327 . S
C3050 C3038 1.349 . S
C3050 H3044 0.950 . S
C3050 C3051 1.327 . S
C3051 H3045 0.950 . S
C3051 C3050 1.327 . S
C3051 C3055 1.429 . S
C3052 C3035 1.574 . S
C3052 H3046 0.949 . S
C3052 C3056 1.368 . S
C3053 C3034 1.429 . S
C3053 C3047 1.429 . S
C3053 C3054 1.523 . S
C3054 C3035 1.368 . S
C3054 C3048 1.368 . S
C3054 C3053 1.523 . S
C3055 C3039 1.429 . S
C3055 C3051 1.429 . S
C3055 C3056 1.523 . S
C3056 C3040 1.368 . S
C3056 C3052 1.368 . S
C3056 C3055 1.523 . S
H3057 C3032 0.950 . S
H3058 C3034 0.950 . S
H3059 C3035 0.949 . S
H3060 C3037 0.950 . S
H3061 C3039 0.950 . S
C3062 C3063 1.349 . S
C3062 C3064 1.327 . S
C3062 H3087 0.950 . S
C3063 C3062 1.349 . S
C3063 C3079 1.349 . S
C3064 C3062 1.327 . S
C3064 C3083 1.429 . S
C3064 H3088 0.950 . S
C3065 C3082 1.574 . S
C3065 C3084 1.368 . S
C3065 H3089 0.949 . S
H3066 C3070 0.949 . S
C3067 C3068 1.349 . S
C3067 C3069 1.327 . S
C3067 H3090 0.950 . S
C3068 C3067 1.349 . S
C3068 C3080 1.349 . S
C3069 C3067 1.327 . S
C3069 C3085 1.429 . S
C3069 H3091 0.950 . S
C3070 H3066 0.949 . S
C3070 C3078 1.574 . S
C3070 C3086 1.368 . S
H3071 C3079 0.950 . S
H3072 C3077 0.950 . S
H3073 C3078 0.949 . S
H3074 C3080 0.950 . S
H3075 C3081 0.950 . S
H3076 C3082 0.949 . S
C3077 H3072 0.950 . S
C3077 C3079 1.327 . S
C3077 C3083 1.429 . S
C3078 C3070 1.574 . S
C3078 H3073 0.949 . S
C3078 C3084 1.368 . S
C3079 C3063 1.349 . S
C3079 H3071 0.950 . S
C3079 C3077 1.327 . S
C3080 C3068 1.349 . S
C3080 H3074 0.950 . S
C3080 C3081 1.327 . S
C3081 H3075 0.950 . S
C3081 C3080 1.327 . S
C3081 C3085 1.429 . S
C3082 C3065 1.574 . S
C3082 H3076 0.949 . S
C3082 C3086 1.368 . S
C3083 C3064 1.429 . S
C3083 C3077 1.429 . S
C3083 C3084 1.523 . S
C3084 C3065 1.368 . S
C3084 C3078 1.368 . S
C3084 C3083 1.523 . S
C3085 C3069 1.429 . S
C3085 C3081 1.429 . S
C3085 C3086 1.523 . S
C3086 C3070 1.368 . S
C3086 C3082 1.368 . S
C3086 C3085 1.523 . S
H3087 C3062 0.950 . S
H3088 C3064 0.950 . S
H3089 C3065 0.949 . S
H3090 C3067 0.950 . S
H3091 C3069 0.950 . S
C3092 C3093 1.349 . S
C3092 C3094 1.327 . S
C3092 H3117 0.950 . S
C3093 C3092 1.349 . S
C3093 C3109 1.349 . S
C3094 C3092 1.327 . S
C3094 C3113 1.429 . S
C3094 H3118 0.950 . S
C3095 C3112 1.574 . S
C3095 C3114 1.368 . S
C3095 H3119 0.949 . S
H3096 C3100 0.949 . S
C3097 C3098 1.349 . S
C3097 C3099 1.327 . S
C3097 H3120 0.950 . S
C3098 C3097 1.349 . S
C3098 C3110 1.349 . S
C3099 C3097 1.327 . S
C3099 C3115 1.429 . S
C3099 H3121 0.950 . S
C3100 H3096 0.949 . S
C3100 C3108 1.574 . S
C3100 C3116 1.368 . S
H3101 C3109 0.950 . S
H3102 C3107 0.950 . S
H3103 C3108 0.949 . S
H3104 C3110 0.950 . S
H3105 C3111 0.950 . S
H3106 C3112 0.949 . S
C3107 H3102 0.950 . S
C3107 C3109 1.327 . S
C3107 C3113 1.429 . S
C3108 C3100 1.574 . S
C3108 H3103 0.949 . S
C3108 C3114 1.368 . S
C3109 C3093 1.349 . S
C3109 H3101 0.950 . S
C3109 C3107 1.327 . S
C3110 C3098 1.349 . S
C3110 H3104 0.950 . S
C3110 C3111 1.327 . S
C3111 H3105 0.950 . S
C3111 C3110 1.327 . S
C3111 C3115 1.429 . S
C3112 C3095 1.574 . S
C3112 H3106 0.949 . S
C3112 C3116 1.368 . S
C3113 C3094 1.429 . S
C3113 C3107 1.429 . S
C3113 C3114 1.523 . S
C3114 C3095 1.368 . S
C3114 C3108 1.368 . S
C3114 C3113 1.523 . S
C3115 C3099 1.429 . S
C3115 C3111 1.429 . S
C3115 C3116 1.523 . S
C3116 C3100 1.368 . S
C3116 C3112 1.368 . S
C3116 C3115 1.523 . S
H3117 C3092 0.950 . S
H3118 C3094 0.950 . S
H3119 C3095 0.949 . S
H3120 C3097 0.950 . S
H3121 C3099 0.950 . S
C3122 C3123 1.349 . S
C3122 C3124 1.327 . S
C3122 H3147 0.950 . S
C3123 C3122 1.349 . S
C3123 C3139 1.349 . S
C3124 C3122 1.327 . S
C3124 C3143 1.429 . S
C3124 H3148 0.950 . S
C3125 C3142 1.574 . S
C3125 C3144 1.368 . S
C3125 H3149 0.949 . S
H3126 C3130 0.949 . S
C3127 C3128 1.349 . S
C3127 C3129 1.327 . S
C3127 H3150 0.950 . S
C3128 C3127 1.349 . S
C3128 C3140 1.349 . S
C3129 C3127 1.327 . S
C3129 C3145 1.429 . S
C3129 H3151 0.950 . S
C3130 H3126 0.949 . S
C3130 C3138 1.574 . S
C3130 C3146 1.368 . S
H3131 C3139 0.950 . S
H3132 C3137 0.950 . S
H3133 C3138 0.949 . S
H3134 C3140 0.950 . S
H3135 C3141 0.950 . S
H3136 C3142 0.949 . S
C3137 H3132 0.950 . S
C3137 C3139 1.327 . S
C3137 C3143 1.429 . S
C3138 C3130 1.574 . S
C3138 H3133 0.949 . S
C3138 C3144 1.368 . S
C3139 C3123 1.349 . S
C3139 H3131 0.950 . S
C3139 C3137 1.327 . S
C3140 C3128 1.349 . S
C3140 H3134 0.950 . S
C3140 C3141 1.327 . S
C3141 H3135 0.950 . S
C3141 C3140 1.327 . S
C3141 C3145 1.429 . S
C3142 C3125 1.574 . S
C3142 H3136 0.949 . S
C3142 C3146 1.368 . S
C3143 C3124 1.429 . S
C3143 C3137 1.429 . S
C3143 C3144 1.523 . S
C3144 C3125 1.368 . S
C3144 C3138 1.368 . S
C3144 C3143 1.523 . S
C3145 C3129 1.429 . S
C3145 C3141 1.429 . S
C3145 C3146 1.523 . S
C3146 C3130 1.368 . S
C3146 C3142 1.368 . S
C3146 C3145 1.523 . S
H3147 C3122 0.950 . S
H3148 C3124 0.950 . S
H3149 C3125 0.949 . S
H3150 C3127 0.950 . S
H3151 C3129 0.950 . S
C3152 C3153 1.349 . S
C3152 C3154 1.327 . S
C3152 H3177 0.950 . S
C3153 C3152 1.349 . S
C3153 C3169 1.349 . S
C3154 C3152 1.327 . S
C3154 C3173 1.429 . S
C3154 H3178 0.950 . S
C3155 C3172 1.574 . S
C3155 C3174 1.368 . S
C3155 H3179 0.949 . S
H3156 C3160 0.949 . S
C3157 C3158 1.349 . S
C3157 C3159 1.327 . S
C3157 H3180 0.950 . S
C3158 C3157 1.349 . S
C3158 C3170 1.349 . S
C3159 C3157 1.327 . S
C3159 C3175 1.429 . S
C3159 H3181 0.950 . S
C3160 H3156 0.949 . S
C3160 C3168 1.574 . S
C3160 C3176 1.368 . S
H3161 C3169 0.950 . S
H3162 C3167 0.950 . S
H3163 C3168 0.949 . S
H3164 C3170 0.950 . S
H3165 C3171 0.950 . S
H3166 C3172 0.949 . S
C3167 H3162 0.950 . S
C3167 C3169 1.327 . S
C3167 C3173 1.429 . S
C3168 C3160 1.574 . S
C3168 H3163 0.949 . S
C3168 C3174 1.368 . S
C3169 C3153 1.349 . S
C3169 H3161 0.950 . S
C3169 C3167 1.327 . S
C3170 C3158 1.349 . S
C3170 H3164 0.950 . S
C3170 C3171 1.327 . S
C3171 H3165 0.950 . S
C3171 C3170 1.327 . S
C3171 C3175 1.429 . S
C3172 C3155 1.574 . S
C3172 H3166 0.949 . S
C3172 C3176 1.368 . S
C3173 C3154 1.429 . S
C3173 C3167 1.429 . S
C3173 C3174 1.523 . S
C3174 C3155 1.368 . S
C3174 C3168 1.368 . S
C3174 C3173 1.523 . S
C3175 C3159 1.429 . S
C3175 C3171 1.429 . S
C3175 C3176 1.523 . S
C3176 C3160 1.368 . S
C3176 C3172 1.368 . S
C3176 C3175 1.523 . S
H3177 C3152 0.950 . S
H3178 C3154 0.950 . S
H3179 C3155 0.949 . S
H3180 C3157 0.950 . S
H3181 C3159 0.950 . S
C3182 C3183 1.349 . S
C3182 C3184 1.327 . S
C3182 H3207 0.950 . S
C3183 C3182 1.349 . S
C3183 C3199 1.349 . S
C3184 C3182 1.327 . S
C3184 C3203 1.429 . S
C3184 H3208 0.950 . S
C3185 C3202 1.574 . S
C3185 C3204 1.368 . S
C3185 H3209 0.949 . S
H3186 C3190 0.949 . S
C3187 C3188 1.349 . S
C3187 C3189 1.327 . S
C3187 H3210 0.950 . S
C3188 C3187 1.349 . S
C3188 C3200 1.349 . S
C3189 C3187 1.327 . S
C3189 C3205 1.429 . S
C3189 H3211 0.950 . S
C3190 H3186 0.949 . S
C3190 C3198 1.574 . S
C3190 C3206 1.368 . S
H3191 C3199 0.950 . S
H3192 C3197 0.950 . S
H3193 C3198 0.949 . S
H3194 C3200 0.950 . S
H3195 C3201 0.950 . S
H3196 C3202 0.949 . S
C3197 H3192 0.950 . S
C3197 C3199 1.327 . S
C3197 C3203 1.429 . S
C3198 C3190 1.574 . S
C3198 H3193 0.949 . S
C3198 C3204 1.368 . S
C3199 C3183 1.349 . S
C3199 H3191 0.950 . S
C3199 C3197 1.327 . S
C3200 C3188 1.349 . S
C3200 H3194 0.950 . S
C3200 C3201 1.327 . S
C3201 H3195 0.950 . S
C3201 C3200 1.327 . S
C3201 C3205 1.429 . S
C3202 C3185 1.574 . S
C3202 H3196 0.949 . S
C3202 C3206 1.368 . S
C3203 C3184 1.429 . S
C3203 C3197 1.429 . S
C3203 C3204 1.523 . S
C3204 C3185 1.368 . S
C3204 C3198 1.368 . S
C3204 C3203 1.523 . S
C3205 C3189 1.429 . S
C3205 C3201 1.429 . S
C3205 C3206 1.523 . S
C3206 C3190 1.368 . S
C3206 C3202 1.368 . S
C3206 C3205 1.523 . S
H3207 C3182 0.950 . S
H3208 C3184 0.950 . S
H3209 C3185 0.949 . S
H3210 C3187 0.950 . S
H3211 C3189 0.950 . S
C3212 C3213 1.349 . S
C3212 C3214 1.327 . S
C3212 H3237 0.950 . S
C3213 C3212 1.349 . S
C3213 C3229 1.349 . S
C3214 C3212 1.327 . S
C3214 C3233 1.429 . S
C3214 H3238 0.950 . S
C3215 C3232 1.574 . S
C3215 C3234 1.368 . S
C3215 H3239 0.949 . S
H3216 C3220 0.949 . S
C3217 C3218 1.349 . S
C3217 C3219 1.327 . S
C3217 H3240 0.950 . S
C3218 C3217 1.349 . S
C3218 C3230 1.349 . S
C3219 C3217 1.327 . S
C3219 C3235 1.429 . S
C3219 H3241 0.950 . S
C3220 H3216 0.949 . S
C3220 C3228 1.574 . S
C3220 C3236 1.368 . S
H3221 C3229 0.950 . S
H3222 C3227 0.950 . S
H3223 C3228 0.949 . S
H3224 C3230 0.950 . S
H3225 C3231 0.950 . S
H3226 C3232 0.949 . S
C3227 H3222 0.950 . S
C3227 C3229 1.327 . S
C3227 C3233 1.429 . S
C3228 C3220 1.574 . S
C3228 H3223 0.949 . S
C3228 C3234 1.368 . S
C3229 C3213 1.349 . S
C3229 H3221 0.950 . S
C3229 C3227 1.327 . S
C3230 C3218 1.349 . S
C3230 H3224 0.950 . S
C3230 C3231 1.327 . S
C3231 H3225 0.950 . S
C3231 C3230 1.327 . S
C3231 C3235 1.429 . S
C3232 C3215 1.574 . S
C3232 H3226 0.949 . S
C3232 C3236 1.368 . S
C3233 C3214 1.429 . S
C3233 C3227 1.429 . S
C3233 C3234 1.523 . S
C3234 C3215 1.368 . S
C3234 C3228 1.368 . S
C3234 C3233 1.523 . S
C3235 C3219 1.429 . S
C3235 C3231 1.429 . S
C3235 C3236 1.523 . S
C3236 C3220 1.368 . S
C3236 C3232 1.368 . S
C3236 C3235 1.523 . S
H3237 C3212 0.950 . S
H3238 C3214 0.950 . S
H3239 C3215 0.949 . S
H3240 C3217 0.950 . S
H3241 C3219 0.950 . S
C3242 C3243 1.349 . S
C3242 C3244 1.327 . S
C3242 H3267 0.950 . S
C3243 C3242 1.349 . S
C3243 C3259 1.349 . S
C3244 C3242 1.327 . S
C3244 C3263 1.429 . S
C3244 H3268 0.950 . S
C3245 C3262 1.574 . S
C3245 C3264 1.368 . S
C3245 H3269 0.949 . S
H3246 C3250 0.949 . S
C3247 C3248 1.349 . S
C3247 C3249 1.327 . S
C3247 H3270 0.950 . S
C3248 C3247 1.349 . S
C3248 C3260 1.349 . S
C3249 C3247 1.327 . S
C3249 C3265 1.429 . S
C3249 H3271 0.950 . S
C3250 H3246 0.949 . S
C3250 C3258 1.574 . S
C3250 C3266 1.368 . S
H3251 C3259 0.950 . S
H3252 C3257 0.950 . S
H3253 C3258 0.949 . S
H3254 C3260 0.950 . S
H3255 C3261 0.950 . S
H3256 C3262 0.949 . S
C3257 H3252 0.950 . S
C3257 C3259 1.327 . S
C3257 C3263 1.429 . S
C3258 C3250 1.574 . S
C3258 H3253 0.949 . S
C3258 C3264 1.368 . S
C3259 C3243 1.349 . S
C3259 H3251 0.950 . S
C3259 C3257 1.327 . S
C3260 C3248 1.349 . S
C3260 H3254 0.950 . S
C3260 C3261 1.327 . S
C3261 H3255 0.950 . S
C3261 C3260 1.327 . S
C3261 C3265 1.429 . S
C3262 C3245 1.574 . S
C3262 H3256 0.949 . S
C3262 C3266 1.368 . S
C3263 C3244 1.429 . S
C3263 C3257 1.429 . S
C3263 C3264 1.523 . S
C3264 C3245 1.368 . S
C3264 C3258 1.368 . S
C3264 C3263 1.523 . S
C3265 C3249 1.429 . S
C3265 C3261 1.429 . S
C3265 C3266 1.523 . S
C3266 C3250 1.368 . S
C3266 C3262 1.368 . S
C3266 C3265 1.523 . S
H3267 C3242 0.950 . S
H3268 C3244 0.950 . S
H3269 C3245 0.949 . S
H3270 C3247 0.950 . S
H3271 C3249 0.950 . S
C3272 C3273 1.349 . S
C3272 C3274 1.327 . S
C3272 H3297 0.950 . S
C3273 C3272 1.349 . S
C3273 C3289 1.349 . S
C3274 C3272 1.327 . S
C3274 C3293 1.429 . S
C3274 H3298 0.950 . S
C3275 C3292 1.574 . S
C3275 C3294 1.368 . S
C3275 H3299 0.949 . S
H3276 C3280 0.949 . S
C3277 C3278 1.349 . S
C3277 C3279 1.327 . S
C3277 H3300 0.950 . S
C3278 C3277 1.349 . S
C3278 C3290 1.349 . S
C3279 C3277 1.327 . S
C3279 C3295 1.429 . S
C3279 H3301 0.950 . S
C3280 H3276 0.949 . S
C3280 C3288 1.574 . S
C3280 C3296 1.368 . S
H3281 C3289 0.950 . S
H3282 C3287 0.950 . S
H3283 C3288 0.949 . S
H3284 C3290 0.950 . S
H3285 C3291 0.950 . S
H3286 C3292 0.949 . S
C3287 H3282 0.950 . S
C3287 C3289 1.327 . S
C3287 C3293 1.429 . S
C3288 C3280 1.574 . S
C3288 H3283 0.949 . S
C3288 C3294 1.368 . S
C3289 C3273 1.349 . S
C3289 H3281 0.950 . S
C3289 C3287 1.327 . S
C3290 C3278 1.349 . S
C3290 H3284 0.950 . S
C3290 C3291 1.327 . S
C3291 H3285 0.950 . S
C3291 C3290 1.327 . S
C3291 C3295 1.429 . S
C3292 C3275 1.574 . S
C3292 H3286 0.949 . S
C3292 C3296 1.368 . S
C3293 C3274 1.429 . S
C3293 C3287 1.429 . S
C3293 C3294 1.523 . S
C3294 C3275 1.368 . S
C3294 C3288 1.368 . S
C3294 C3293 1.523 . S
C3295 C3279 1.429 . S
C3295 C3291 1.429 . S
C3295 C3296 1.523 . S
C3296 C3280 1.368 . S
C3296 C3292 1.368 . S
C3296 C3295 1.523 . S
H3297 C3272 0.950 . S
H3298 C3274 0.950 . S
H3299 C3275 0.949 . S
H3300 C3277 0.950 . S
H3301 C3279 0.950 . S
C3302 C3303 1.349 . S
C3302 C3304 1.327 . S
C3302 H3327 0.950 . S
C3303 C3302 1.349 . S
C3303 C3319 1.349 . S
C3304 C3302 1.327 . S
C3304 C3323 1.429 . S
C3304 H3328 0.950 . S
C3305 C3322 1.574 . S
C3305 C3324 1.368 . S
C3305 H3329 0.949 . S
H3306 C3310 0.949 . S
C3307 C3308 1.349 . S
C3307 C3309 1.327 . S
C3307 H3330 0.950 1_565 S
C3308 C3307 1.349 . S
C3308 C3320 1.349 . S
C3309 C3307 1.327 . S
C3309 C3325 1.429 . S
C3309 H3331 0.950 . S
C3310 H3306 0.949 . S
C3310 C3318 1.574 . S
C3310 C3326 1.368 . S
H3311 C3319 0.950 . S
H3312 C3317 0.950 . S
H3313 C3318 0.949 . S
H3314 C3320 0.950 . S
H3315 C3321 0.950 . S
H3316 C3322 0.949 . S
C3317 H3312 0.950 . S
C3317 C3319 1.327 . S
C3317 C3323 1.429 . S
C3318 C3310 1.574 . S
C3318 H3313 0.949 . S
C3318 C3324 1.368 . S
C3319 C3303 1.349 . S
C3319 H3311 0.950 . S
C3319 C3317 1.327 . S
C3320 C3308 1.349 . S
C3320 H3314 0.950 . S
C3320 C3321 1.327 . S
C3321 H3315 0.950 . S
C3321 C3320 1.327 . S
C3321 C3325 1.429 . S
C3322 C3305 1.574 . S
C3322 H3316 0.949 . S
C3322 C3326 1.368 . S
C3323 C3304 1.429 . S
C3323 C3317 1.429 . S
C3323 C3324 1.523 . S
C3324 C3305 1.368 . S
C3324 C3318 1.368 . S
C3324 C3323 1.523 . S
C3325 C3309 1.429 . S
C3325 C3321 1.429 . S
C3325 C3326 1.523 . S
C3326 C3310 1.368 . S
C3326 C3322 1.368 . S
C3326 C3325 1.523 . S
H3327 C3302 0.950 . S
H3328 C3304 0.950 . S
H3329 C3305 0.949 . S
H3330 C3307 0.950 1_545 S
H3331 C3309 0.950 . S
C3332 C3333 1.349 . S
C3332 C3334 1.327 . S
C3332 H3357 0.950 . S
C3333 C3332 1.349 . S
C3333 C3349 1.349 . S
C3334 C3332 1.327 . S
C3334 C3353 1.429 . S
C3334 H3358 0.950 . S
C3335 C3352 1.574 . S
C3335 C3354 1.368 . S
C3335 H3359 0.949 . S
H3336 C3340 0.949 . S
C3337 C3338 1.349 . S
C3337 C3339 1.327 . S
C3337 H3360 0.950 . S
C3338 C3337 1.349 . S
C3338 C3350 1.349 . S
C3339 C3337 1.327 . S
C3339 C3355 1.429 . S
C3339 H3361 0.950 . S
C3340 H3336 0.949 . S
C3340 C3348 1.574 . S
C3340 C3356 1.368 . S
H3341 C3349 0.950 . S
H3342 C3347 0.950 . S
H3343 C3348 0.949 . S
H3344 C3350 0.950 . S
H3345 C3351 0.950 . S
H3346 C3352 0.949 . S
C3347 H3342 0.950 . S
C3347 C3349 1.327 . S
C3347 C3353 1.429 . S
C3348 C3340 1.574 . S
C3348 H3343 0.949 . S
C3348 C3354 1.368 . S
C3349 C3333 1.349 . S
C3349 H3341 0.950 . S
C3349 C3347 1.327 . S
C3350 C3338 1.349 . S
C3350 H3344 0.950 . S
C3350 C3351 1.327 . S
C3351 H3345 0.950 . S
C3351 C3350 1.327 . S
C3351 C3355 1.429 . S
C3352 C3335 1.574 . S
C3352 H3346 0.949 . S
C3352 C3356 1.368 . S
C3353 C3334 1.429 . S
C3353 C3347 1.429 . S
C3353 C3354 1.523 . S
C3354 C3335 1.368 . S
C3354 C3348 1.368 . S
C3354 C3353 1.523 . S
C3355 C3339 1.429 . S
C3355 C3351 1.429 . S
C3355 C3356 1.523 . S
C3356 C3340 1.368 . S
C3356 C3352 1.368 . S
C3356 C3355 1.523 . S
H3357 C3332 0.950 . S
H3358 C3334 0.950 . S
H3359 C3335 0.949 . S
H3360 C3337 0.950 . S
H3361 C3339 0.950 . S
C3362 C3363 1.349 1_554 S
C3362 C3364 1.327 . S
C3362 H3387 0.950 . S
C3363 C3362 1.349 1_556 S
C3363 C3379 1.349 . S
C3364 C3362 1.327 . S
C3364 C3383 1.429 1_554 S
C3364 H3388 0.950 . S
C3365 C3382 1.574 . S
C3365 C3384 1.368 . S
C3365 H3389 0.949 . S
H3366 C3370 0.949 . S
C3367 C3368 1.349 1_556 S
C3367 C3369 1.327 . S
C3367 H3390 0.950 . S
C3368 C3367 1.349 1_554 S
C3368 C3380 1.349 . S
C3369 C3367 1.327 . S
C3369 C3385 1.447 . S
C3369 H3391 0.950 . S
C3370 H3366 0.949 . S
C3370 C3378 1.574 . S
C3370 C3386 1.368 1_554 S
H3371 C3379 0.950 . S
H3372 C3377 0.950 . S
H3373 C3378 0.949 . S
H3374 C3380 0.950 . S
H3375 C3381 0.950 . S
H3376 C3382 0.949 . S
C3377 H3372 0.950 . S
C3377 C3379 1.327 . S
C3377 C3383 1.429 . S
C3378 C3370 1.574 . S
C3378 H3373 0.949 . S
C3378 C3384 1.368 1_554 S
C3379 C3363 1.349 . S
C3379 H3371 0.950 . S
C3379 C3377 1.327 . S
C3380 C3368 1.349 . S
C3380 H3374 0.950 . S
C3380 C3381 1.327 . S
C3381 H3375 0.950 . S
C3381 C3380 1.327 . S
C3381 C3385 1.404 1_554 S
C3382 C3365 1.574 . S
C3382 H3376 0.949 . S
C3382 C3386 1.368 . S
C3383 C3364 1.429 1_556 S
C3383 C3377 1.429 . S
C3383 C3384 1.523 . S
C3384 C3365 1.368 . S
C3384 C3378 1.368 1_556 S
C3384 C3383 1.523 . S
C3385 C3369 1.447 . S
C3385 C3381 1.404 1_556 S
C3385 C3386 1.530 . S
C3386 C3370 1.368 1_556 S
C3386 C3382 1.368 . S
C3386 C3385 1.530 . S
H3387 C3362 0.950 . S
H3388 C3364 0.950 . S
H3389 C3365 0.949 . S
H3390 C3367 0.950 . S
H3391 C3369 0.950 . S
C3392 C3393 1.349 . S
C3392 C3394 1.327 . S
C3392 H3417 0.950 . S
C3393 C3392 1.349 . S
C3393 C3409 1.349 . S
C3394 C3392 1.327 . S
C3394 C3413 1.429 . S
C3394 H3418 0.950 . S
C3395 C3412 1.574 . S
C3395 C3414 1.368 . S
C3395 H3419 0.949 . S
H3396 C3400 0.949 . S
C3397 C3398 1.349 . S
C3397 C3399 1.327 . S
C3397 H3420 0.950 . S
C3398 C3397 1.349 . S
C3398 C3410 1.349 . S
C3399 C3397 1.327 . S
C3399 C3415 1.429 . S
C3399 H3421 0.950 . S
C3400 H3396 0.949 . S
C3400 C3408 1.574 . S
C3400 C3416 1.368 . S
H3401 C3409 0.950 . S
H3402 C3407 0.950 . S
H3403 C3408 0.949 . S
H3404 C3410 0.950 . S
H3405 C3411 0.950 . S
H3406 C3412 0.949 . S
C3407 H3402 0.950 . S
C3407 C3409 1.327 . S
C3407 C3413 1.429 . S
C3408 C3400 1.574 . S
C3408 H3403 0.949 . S
C3408 C3414 1.368 . S
C3409 C3393 1.349 . S
C3409 H3401 0.950 . S
C3409 C3407 1.327 . S
C3410 C3398 1.349 . S
C3410 H3404 0.950 . S
C3410 C3411 1.327 . S
C3411 H3405 0.950 . S
C3411 C3410 1.327 . S
C3411 C3415 1.429 . S
C3412 C3395 1.574 . S
C3412 H3406 0.949 . S
C3412 C3416 1.368 . S
C3413 C3394 1.429 . S
C3413 C3407 1.429 . S
C3413 C3414 1.523 . S
C3414 C3395 1.368 . S
C3414 C3408 1.368 . S
C3414 C3413 1.523 . S
C3415 C3399 1.429 . S
C3415 C3411 1.429 . S
C3415 C3416 1.523 . S
C3416 C3400 1.368 . S
C3416 C3412 1.368 . S
C3416 C3415 1.523 . S
H3417 C3392 0.950 . S
H3418 C3394 0.950 . S
H3419 C3395 0.949 . S
H3420 C3397 0.950 . S
H3421 C3399 0.950 . S
C3422 C3423 1.349 . S
C3422 C3424 1.327 . S
C3422 H3447 0.950 . S
C3423 C3422 1.349 . S
C3423 C3439 1.349 . S
C3424 C3422 1.327 . S
C3424 C3443 1.429 . S
C3424 H3448 0.950 . S
C3425 C3442 1.574 . S
C3425 C3444 1.368 . S
C3425 H3449 0.949 1_554 S
H3426 C3430 0.949 . S
C3427 C3428 1.349 1_556 S
C3427 C3429 1.330 . S
C3427 H3450 0.950 . S
C3428 C3427 1.349 1_554 S
C3428 C3440 1.349 . S
C3429 C3427 1.330 . S
C3429 C3445 1.394 1_556 S
C3429 H3451 0.985 . S
C3430 H3426 0.949 . S
C3430 C3438 1.574 . S
C3430 C3446 1.368 . S
H3431 C3439 0.950 . S
H3432 C3437 0.934 1_556 S
H3433 C3438 0.949 . S
H3434 C3440 0.950 . S
H3435 C3441 0.950 . S
H3436 C3442 0.949 1_556 S
C3437 H3432 0.934 1_554 S
C3437 C3439 1.327 . S
C3437 C3443 1.429 . S
C3438 C3430 1.574 . S
C3438 H3433 0.949 . S
C3438 C3444 1.368 . S
C3439 C3423 1.349 . S
C3439 H3431 0.950 . S
C3439 C3437 1.327 . S
C3440 C3428 1.349 . S
C3440 H3434 0.950 . S
C3440 C3441 1.327 . S
C3441 H3435 0.950 . S
C3441 C3440 1.327 . S
C3441 C3445 1.429 . S
C3442 C3425 1.574 . S
C3442 H3436 0.949 1_554 S
C3442 C3446 1.368 . S
C3443 C3424 1.429 . S
C3443 C3437 1.429 . S
C3443 C3444 1.523 . S
C3444 C3425 1.368 . S
C3444 C3438 1.368 . S
C3444 C3443 1.523 . S
C3445 C3429 1.394 1_554 S
C3445 C3441 1.429 . S
C3445 C3446 1.523 . S
C3446 C3430 1.368 . S
C3446 C3442 1.368 . S
C3446 C3445 1.523 . S
H3447 C3422 0.950 . S
H3448 C3424 0.950 . S
H3449 C3425 0.949 1_556 S
H3450 C3427 0.950 . S
H3451 C3429 0.985 . S
C3452 C3453 1.349 . S
C3452 C3454 1.327 . S
C3452 H3477 0.950 . S
C3453 C3452 1.349 . S
C3453 C3469 1.349 . S
C3454 C3452 1.327 . S
C3454 C3473 1.429 . S
C3454 H3478 0.950 . S
C3455 C3472 1.574 . S
C3455 C3474 1.368 . S
C3455 H3479 0.949 . S
H3456 C3460 0.949 . S
C3457 C3458 1.349 . S
C3457 C3459 1.327 . S
C3457 H3480 0.950 . S
C3458 C3457 1.349 . S
C3458 C3470 1.349 . S
C3459 C3457 1.327 . S
C3459 C3475 1.429 . S
C3459 H3481 0.950 . S
C3460 H3456 0.949 . S
C3460 C3468 1.574 . S
C3460 C3476 1.368 . S
H3461 C3469 0.950 . S
H3462 C3467 0.950 . S
H3463 C3468 0.949 . S
H3464 C3470 0.950 . S
H3465 C3471 0.950 . S
H3466 C3472 0.949 . S
C3467 H3462 0.950 . S
C3467 C3469 1.327 . S
C3467 C3473 1.429 . S
C3468 C3460 1.574 . S
C3468 H3463 0.949 . S
C3468 C3474 1.368 . S
C3469 C3453 1.349 . S
C3469 H3461 0.950 . S
C3469 C3467 1.327 . S
C3470 C3458 1.349 . S
C3470 H3464 0.950 . S
C3470 C3471 1.327 . S
C3471 H3465 0.950 . S
C3471 C3470 1.327 . S
C3471 C3475 1.429 . S
C3472 C3455 1.574 . S
C3472 H3466 0.949 . S
C3472 C3476 1.368 . S
C3473 C3454 1.429 . S
C3473 C3467 1.429 . S
C3473 C3474 1.523 . S
C3474 C3455 1.368 . S
C3474 C3468 1.368 . S
C3474 C3473 1.523 . S
C3475 C3459 1.429 . S
C3475 C3471 1.429 . S
C3475 C3476 1.523 . S
C3476 C3460 1.368 . S
C3476 C3472 1.368 . S
C3476 C3475 1.523 . S
H3477 C3452 0.950 . S
H3478 C3454 0.950 . S
H3479 C3455 0.949 . S
H3480 C3457 0.950 . S
H3481 C3459 0.950 . S
C3482 C3483 1.349 . S
C3482 C3484 1.327 . S
C3482 H3507 0.950 . S
C3483 C3482 1.349 . S
C3483 C3499 1.349 . S
C3484 C3482 1.327 . S
C3484 C3503 1.429 . S
C3484 H3508 0.950 . S
C3485 C3502 1.574 . S
C3485 C3504 1.368 . S
C3485 H3509 0.949 . S
H3486 C3490 0.949 . S
C3487 C3488 1.349 . S
C3487 C3489 1.327 . S
C3487 H3510 0.950 . S
C3488 C3487 1.349 . S
C3488 C3500 1.349 . S
C3489 C3487 1.327 . S
C3489 C3505 1.429 . S
C3489 H3511 0.950 . S
C3490 H3486 0.949 . S
C3490 C3498 1.574 . S
C3490 C3506 1.368 . S
H3491 C3499 0.950 . S
H3492 C3497 0.950 . S
H3493 C3498 0.949 . S
H3494 C3500 0.950 . S
H3495 C3501 0.950 . S
H3496 C3502 0.949 . S
C3497 H3492 0.950 . S
C3497 C3499 1.327 . S
C3497 C3503 1.429 . S
C3498 C3490 1.574 . S
C3498 H3493 0.949 . S
C3498 C3504 1.368 . S
C3499 C3483 1.349 . S
C3499 H3491 0.950 . S
C3499 C3497 1.327 . S
C3500 C3488 1.349 . S
C3500 H3494 0.950 . S
C3500 C3501 1.327 . S
C3501 H3495 0.950 . S
C3501 C3500 1.327 . S
C3501 C3505 1.429 . S
C3502 C3485 1.574 . S
C3502 H3496 0.949 . S
C3502 C3506 1.368 . S
C3503 C3484 1.429 . S
C3503 C3497 1.429 . S
C3503 C3504 1.523 . S
C3504 C3485 1.368 . S
C3504 C3498 1.368 . S
C3504 C3503 1.523 . S
C3505 C3489 1.429 . S
C3505 C3501 1.429 . S
C3505 C3506 1.523 . S
C3506 C3490 1.368 . S
C3506 C3502 1.368 . S
C3506 C3505 1.523 . S
H3507 C3482 0.950 . S
H3508 C3484 0.950 . S
H3509 C3485 0.949 . S
H3510 C3487 0.950 . S
H3511 C3489 0.950 . S
C633 C101 1.082 . S
C638 C328 1.057 . S
C663 C57 1.169 . S
C668 C341 1.156 . S
C693 C70 1.085 . S
C698 C360 1.078 . S
C728 C391 1.920 . S
C723 C82 1.945 . S
C753 C23 1.754 . S
C758 C411 1.743 . S
C788 C428 0.592 . S
C783 C29 0.577 . S
C818 C441 1.442 . S
C813 C49 1.444 . S
C843 C10 0.836 . S
C848 C468 0.827 . S
C878 C321 1.048 . S
C873 C218 1.058 . S
C903 C226 1.296 . S
C908 C351 1.284 . S
C938 C353 1.596 . S
C933 C251 1.644 . S
C968 C388 0.615 . S
C963 C159 0.606 . S
C993 C211 0.919 . S
C998 C408 0.912 . S
C1028 C421 1.744 . S
C1023 C225 1.747 . S
C1058 C451 1.090 . S
C1053 C252 1.102 . S
C1088 C461 1.067 . S
C1083 C166 1.085 . S
C1118 C331 1.492 . S
C1113 C147 1.501 . S
C1143 C263 1.786 1_556 S
C1148 C481 1.768 1_556 S
C1178 C511 1.566 . S
C1173 C309 1.560 . S
C1208 C528 0.963 . S
C1203 C291 0.977 . S
C1233 C108 1.945 . S
C1238 C471 1.940 . S
C1263 C121 1.187 . S
C1268 C358 1.167 . S
C1293 C302 1.832 . S
C1298 C541 1.824 . S
C1328 C568 0.710 . S
C1323 C276 0.706 . S
C1358 C318 1.349 . S
C1353 C55 1.393 . S
C1388 C553 1.391 . S
C1383 C96 1.409 . S
C1413 C88 1.473 . S
C1418 C371 1.439 . S
C1443 C75 2.245 . S
C1448 C540 2.185 . S
C1478 C400 1.971 . S
C1473 C4 2.018 . S
C1503 C44 0.953 . S
C1508 C498 0.943 . S
C1538 C433 1.636 . S
C1533 C31 1.643 . S
C1568 C578 1.109 . S
C1563 C18 1.140 . S
C1598 C313 1.340 . S
C1593 C133 1.356 . S
C1628 C560 1.589 . S
C1623 C296 1.633 . S
C1653 C107 1.930 . S
C1658 C361 1.886 . S
C1683 C264 1.024 . S
C1688 C538 1.015 . S
C1713 C140 1.289 . S
C1718 C398 1.273 . S
C1748 C493 1.963 . S
C1743 C289 1.970 . S
C1773 C114 1.438 . S
C1778 C440 1.396 . S
C1803 C265 1.380 . S
C1808 C573 1.353 . S
C1833 C179 1.843 . S
C1838 C320 1.788 . S
C1863 C161 2.030 . S
C1868 C473 2.008 . S
C1893 C244 1.861 . S
C1898 C420 1.826 . S
C1923 C224 1.355 . S
C1928 C518 1.328 . S
C1958 C580 2.163 . S
C1953 C257 2.217 . S
C1983 C199 1.391 . S
C1988 C368 1.351 . S
C2018 C373 2.066 . S
C2013 C237 2.087 . S
C2048 C338 1.038 . S
C2043 C185 1.059 . S
C2073 C69 1.082 . S
C2078 C608 1.057 . S
C2108 C561 1.155 . S
C2103 C83 1.169 . S
C2133 C94 1.086 . S
C2138 C620 1.107 . S
C2163 C56 1.945 . S
C2168 C551 1.921 . S
C2193 C42 1.765 . S
C2198 C491 1.752 . S
C2228 C508 0.592 . S
C2223 C3 0.578 . S
C2258 C521 1.458 . S
C2253 C16 1.455 . S
C2288 C588 0.827 . S
C2283 C36 0.836 . S
C2318 C601 1.048 . S
C2313 C238 1.057 . S
C2343 C174 1.295 . S
C2348 C571 1.283 . S
C2378 C613 1.596 . S
C2373 C186 1.645 . S
C2408 C548 0.614 . S
C2403 C198 0.605 . S
C2438 C488 0.913 . S
C2433 C239 0.920 . S
C2463 C173 1.747 . S
C2468 C501 1.744 . S
C2498 C531 1.091 . S
C2493 C187 1.103 . S
C2523 C205 1.085 . S
C2528 C581 1.067 . S
C2558 C611 1.490 . S
C2553 C290 1.499 . S
C2583 C122 1.786 . S
C2588 C401 1.774 . S
C2618 C431 1.571 . S
C2613 C134 1.571 . S
C2648 C448 0.964 . S
C2643 C148 0.977 . S
C2678 C591 1.935 . S
C2673 C283 1.940 . S
C2703 C270 1.185 . S
C2708 C618 1.166 . S
C2738 C381 1.822 . S
C2733 C135 1.825 . S
C2768 C348 0.710 . S
C2763 C109 0.705 1_565 S
C2793 C81 1.392 . S
C2798 C598 1.349 . S
C2828 C333 1.390 . S
C2823 C68 1.408 . S
C2853 C62 1.473 . S
C2858 C631 1.439 . S
C2883 C95 2.244 . S
C2888 C380 2.184 . S
C2913 C30 2.018 . S
C2918 C480 1.971 . S
C2948 C418 0.933 . S
C2943 C17 0.944 . S
C2973 C5 1.644 . S
C2978 C513 1.636 . S
C3003 C43 1.130 . S
C3008 C458 1.100 . S
C3038 C593 1.340 . S
C3033 C304 1.356 . S
C3063 C153 1.632 . S
C3068 C340 1.588 . S
C3098 C621 1.886 . S
C3093 C278 1.931 . S
C3123 C127 1.023 . S
C3128 C378 1.014 . S
C3153 C303 1.284 . S
C3158 C478 1.271 . S
C3188 C413 1.960 . S
C3183 C146 1.967 . S
C3213 C277 1.433 . S
C3218 C520 1.391 . S
C3248 C453 1.350 . S
C3243 C120 1.377 . S
C3278 C600 1.788 . S
C3273 C231 1.843 . S
C3308 C393 2.008 1_565 S
C3303 C200 2.030 . S
C3333 C212 1.863 . S
C3338 C500 1.828 . S
C3368 C438 1.327 . S
C3363 C172 1.354 . S
C3393 C192 2.214 . S
C3398 C460 2.161 . S
C3423 C160 1.390 . S
C3428 C628 1.351 . S
C3458 C533 2.068 . S
C3453 C213 2.088 1_565 S
C3488 C558 1.039 . S
C3483 C250 1.061 . S
