# Generated by pormake.
# Topology gar, (4,6)-cn, num edge types: 1
# Building blocks:
#     Node 0, Type 0, BuildingBlock: NAHDIM_clean_sbu_0, # of connection points: 4
#     Node 1, Type 0, BuildingBlock: NAHDIM_clean_sbu_0, # of connection points: 4
#     Node 2, Type 0, BuildingBlock: NAHDIM_clean_sbu_0, # of connection points: 4
#     Node 3, Type 0, BuildingBlock: NAHDIM_clean_sbu_0, # of connection points: 4
#     Node 4, Type 0, BuildingBlock: NAHDIM_clean_sbu_0, # of connection points: 4
#     Node 5, Type 0, BuildingBlock: NAHDIM_clean_sbu_0, # of connection points: 4
#     Node 6, Type 0, BuildingBlock: NAHDIM_clean_sbu_0, # of connection points: 4
#     Node 7, Type 0, BuildingBlock: NAHDIM_clean_sbu_0, # of connection points: 4
#     Node 8, Type 0, BuildingBlock: NAHDIM_clean_sbu_0, # of connection points: 4
#     Node 9, Type 0, BuildingBlock: NAHDIM_clean_sbu_0, # of connection points: 4
#     Node 10, Type 0, BuildingBlock: NAHDIM_clean_sbu_0, # of connection points: 4
#     Node 11, Type 0, BuildingBlock: NAHDIM_clean_sbu_0, # of connection points: 4
#     Node 12, Type 0, BuildingBlock: NAHDIM_clean_sbu_0, # of connection points: 4
#     Node 13, Type 0, BuildingBlock: NAHDIM_clean_sbu_0, # of connection points: 4
#     Node 14, Type 0, BuildingBlock: NAHDIM_clean_sbu_0, # of connection points: 4
#     Node 15, Type 0, BuildingBlock: NAHDIM_clean_sbu_0, # of connection points: 4
#     Node 16, Type 0, BuildingBlock: NAHDIM_clean_sbu_0, # of connection points: 4
#     Node 17, Type 0, BuildingBlock: NAHDIM_clean_sbu_0, # of connection points: 4
#     Node 18, Type 0, BuildingBlock: NAHDIM_clean_sbu_0, # of connection points: 4
#     Node 19, Type 0, BuildingBlock: NAHDIM_clean_sbu_0, # of connection points: 4
#     Node 20, Type 0, BuildingBlock: NAHDIM_clean_sbu_0, # of connection points: 4
#     Node 21, Type 0, BuildingBlock: NAHDIM_clean_sbu_0, # of connection points: 4
#     Node 22, Type 0, BuildingBlock: NAHDIM_clean_sbu_0, # of connection points: 4
#     Node 23, Type 0, BuildingBlock: NAHDIM_clean_sbu_0, # of connection points: 4
#     Node 24, Type 1, BuildingBlock: BETFEN_clean_sbu_0, # of connection points: 6
#     Node 25, Type 1, BuildingBlock: BETFEN_clean_sbu_0, # of connection points: 6
#     Node 26, Type 1, BuildingBlock: BETFEN_clean_sbu_0, # of connection points: 6
#     Node 27, Type 1, BuildingBlock: BETFEN_clean_sbu_0, # of connection points: 6
#     Node 28, Type 1, BuildingBlock: BETFEN_clean_sbu_0, # of connection points: 6
#     Node 29, Type 1, BuildingBlock: BETFEN_clean_sbu_0, # of connection points: 6
#     Node 30, Type 1, BuildingBlock: BETFEN_clean_sbu_0, # of connection points: 6
#     Node 31, Type 1, BuildingBlock: BETFEN_clean_sbu_0, # of connection points: 6
#     Node 32, Type 1, BuildingBlock: BETFEN_clean_sbu_0, # of connection points: 6
#     Node 33, Type 1, BuildingBlock: BETFEN_clean_sbu_0, # of connection points: 6
#     Node 34, Type 1, BuildingBlock: BETFEN_clean_sbu_0, # of connection points: 6
#     Node 35, Type 1, BuildingBlock: BETFEN_clean_sbu_0, # of connection points: 6
#     Node 36, Type 1, BuildingBlock: BETFEN_clean_sbu_0, # of connection points: 6
#     Node 37, Type 1, BuildingBlock: BETFEN_clean_sbu_0, # of connection points: 6
#     Node 38, Type 1, BuildingBlock: BETFEN_clean_sbu_0, # of connection points: 6
#     Node 39, Type 1, BuildingBlock: BETFEN_clean_sbu_0, # of connection points: 6
#     Edge 40, Type (0, 1), BuildingBlock: UVAHIK_clean_linker_0, # of connection points: 2
#     Edge 41, Type (0, 1), BuildingBlock: UVAHIK_clean_linker_0, # of connection points: 2
#     Edge 42, Type (0, 1), BuildingBlock: UVAHIK_clean_linker_0, # of connection points: 2
#     Edge 43, Type (0, 1), BuildingBlock: UVAHIK_clean_linker_0, # of connection points: 2
#     Edge 44, Type (0, 1), BuildingBlock: UVAHIK_clean_linker_0, # of connection points: 2
#     Edge 45, Type (0, 1), BuildingBlock: UVAHIK_clean_linker_0, # of connection points: 2
#     Edge 46, Type (0, 1), BuildingBlock: UVAHIK_clean_linker_0, # of connection points: 2
#     Edge 47, Type (0, 1), BuildingBlock: UVAHIK_clean_linker_0, # of connection points: 2
#     Edge 48, Type (0, 1), BuildingBlock: UVAHIK_clean_linker_0, # of connection points: 2
#     Edge 49, Type (0, 1), BuildingBlock: UVAHIK_clean_linker_0, # of connection points: 2
#     Edge 50, Type (0, 1), BuildingBlock: UVAHIK_clean_linker_0, # of connection points: 2
#     Edge 51, Type (0, 1), BuildingBlock: UVAHIK_clean_linker_0, # of connection points: 2
#     Edge 52, Type (0, 1), BuildingBlock: UVAHIK_clean_linker_0, # of connection points: 2
#     Edge 53, Type (0, 1), BuildingBlock: UVAHIK_clean_linker_0, # of connection points: 2
#     Edge 54, Type (0, 1), BuildingBlock: UVAHIK_clean_linker_0, # of connection points: 2
#     Edge 55, Type (0, 1), BuildingBlock: UVAHIK_clean_linker_0, # of connection points: 2
#     Edge 56, Type (0, 1), BuildingBlock: UVAHIK_clean_linker_0, # of connection points: 2
#     Edge 57, Type (0, 1), BuildingBlock: UVAHIK_clean_linker_0, # of connection points: 2
#     Edge 58, Type (0, 1), BuildingBlock: UVAHIK_clean_linker_0, # of connection points: 2
#     Edge 59, Type (0, 1), BuildingBlock: UVAHIK_clean_linker_0, # of connection points: 2
#     Edge 60, Type (0, 1), BuildingBlock: UVAHIK_clean_linker_0, # of connection points: 2
#     Edge 61, Type (0, 1), BuildingBlock: UVAHIK_clean_linker_0, # of connection points: 2
#     Edge 62, Type (0, 1), BuildingBlock: UVAHIK_clean_linker_0, # of connection points: 2
#     Edge 63, Type (0, 1), BuildingBlock: UVAHIK_clean_linker_0, # of connection points: 2
#     Edge 64, Type (0, 1), BuildingBlock: UVAHIK_clean_linker_0, # of connection points: 2
#     Edge 65, Type (0, 1), BuildingBlock: UVAHIK_clean_linker_0, # of connection points: 2
#     Edge 66, Type (0, 1), BuildingBlock: UVAHIK_clean_linker_0, # of connection points: 2
#     Edge 67, Type (0, 1), BuildingBlock: UVAHIK_clean_linker_0, # of connection points: 2
#     Edge 68, Type (0, 1), BuildingBlock: UVAHIK_clean_linker_0, # of connection points: 2
#     Edge 69, Type (0, 1), BuildingBlock: UVAHIK_clean_linker_0, # of connection points: 2
#     Edge 70, Type (0, 1), BuildingBlock: UVAHIK_clean_linker_0, # of connection points: 2
#     Edge 71, Type (0, 1), BuildingBlock: UVAHIK_clean_linker_0, # of connection points: 2
#     Edge 72, Type (0, 1), BuildingBlock: UVAHIK_clean_linker_0, # of connection points: 2
#     Edge 73, Type (0, 1), BuildingBlock: UVAHIK_clean_linker_0, # of connection points: 2
#     Edge 74, Type (0, 1), BuildingBlock: UVAHIK_clean_linker_0, # of connection points: 2
#     Edge 75, Type (0, 1), BuildingBlock: UVAHIK_clean_linker_0, # of connection points: 2
#     Edge 76, Type (0, 1), BuildingBlock: UVAHIK_clean_linker_0, # of connection points: 2
#     Edge 77, Type (0, 1), BuildingBlock: UVAHIK_clean_linker_0, # of connection points: 2
#     Edge 78, Type (0, 1), BuildingBlock: UVAHIK_clean_linker_0, # of connection points: 2
#     Edge 79, Type (0, 1), BuildingBlock: UVAHIK_clean_linker_0, # of connection points: 2
#     Edge 80, Type (0, 1), BuildingBlock: UVAHIK_clean_linker_0, # of connection points: 2
#     Edge 81, Type (0, 1), BuildingBlock: UVAHIK_clean_linker_0, # of connection points: 2
#     Edge 82, Type (0, 1), BuildingBlock: UVAHIK_clean_linker_0, # of connection points: 2
#     Edge 83, Type (0, 1), BuildingBlock: UVAHIK_clean_linker_0, # of connection points: 2
#     Edge 84, Type (0, 1), BuildingBlock: UVAHIK_clean_linker_0, # of connection points: 2
#     Edge 85, Type (0, 1), BuildingBlock: UVAHIK_clean_linker_0, # of connection points: 2
#     Edge 86, Type (0, 1), BuildingBlock: UVAHIK_clean_linker_0, # of connection points: 2
#     Edge 87, Type (0, 1), BuildingBlock: UVAHIK_clean_linker_0, # of connection points: 2
#     Edge 88, Type (0, 1), BuildingBlock: UVAHIK_clean_linker_0, # of connection points: 2
#     Edge 89, Type (0, 1), BuildingBlock: UVAHIK_clean_linker_0, # of connection points: 2
#     Edge 90, Type (0, 1), BuildingBlock: UVAHIK_clean_linker_0, # of connection points: 2
#     Edge 91, Type (0, 1), BuildingBlock: UVAHIK_clean_linker_0, # of connection points: 2
#     Edge 92, Type (0, 1), BuildingBlock: UVAHIK_clean_linker_0, # of connection points: 2
#     Edge 93, Type (0, 1), BuildingBlock: UVAHIK_clean_linker_0, # of connection points: 2
#     Edge 94, Type (0, 1), BuildingBlock: UVAHIK_clean_linker_0, # of connection points: 2
#     Edge 95, Type (0, 1), BuildingBlock: UVAHIK_clean_linker_0, # of connection points: 2
#     Edge 96, Type (0, 1), BuildingBlock: UVAHIK_clean_linker_0, # of connection points: 2
#     Edge 97, Type (0, 1), BuildingBlock: UVAHIK_clean_linker_0, # of connection points: 2
#     Edge 98, Type (0, 1), BuildingBlock: UVAHIK_clean_linker_0, # of connection points: 2
#     Edge 99, Type (0, 1), BuildingBlock: UVAHIK_clean_linker_0, # of connection points: 2
#     Edge 100, Type (0, 1), BuildingBlock: UVAHIK_clean_linker_0, # of connection points: 2
#     Edge 101, Type (0, 1), BuildingBlock: UVAHIK_clean_linker_0, # of connection points: 2
#     Edge 102, Type (0, 1), BuildingBlock: UVAHIK_clean_linker_0, # of connection points: 2
#     Edge 103, Type (0, 1), BuildingBlock: UVAHIK_clean_linker_0, # of connection points: 2
#     Edge 104, Type (0, 1), BuildingBlock: UVAHIK_clean_linker_0, # of connection points: 2
#     Edge 105, Type (0, 1), BuildingBlock: UVAHIK_clean_linker_0, # of connection points: 2
#     Edge 106, Type (0, 1), BuildingBlock: UVAHIK_clean_linker_0, # of connection points: 2
#     Edge 107, Type (0, 1), BuildingBlock: UVAHIK_clean_linker_0, # of connection points: 2
#     Edge 108, Type (0, 1), BuildingBlock: UVAHIK_clean_linker_0, # of connection points: 2
#     Edge 109, Type (0, 1), BuildingBlock: UVAHIK_clean_linker_0, # of connection points: 2
#     Edge 110, Type (0, 1), BuildingBlock: UVAHIK_clean_linker_0, # of connection points: 2
#     Edge 111, Type (0, 1), BuildingBlock: UVAHIK_clean_linker_0, # of connection points: 2
#     Edge 112, Type (0, 1), BuildingBlock: UVAHIK_clean_linker_0, # of connection points: 2
#     Edge 113, Type (0, 1), BuildingBlock: UVAHIK_clean_linker_0, # of connection points: 2
#     Edge 114, Type (0, 1), BuildingBlock: UVAHIK_clean_linker_0, # of connection points: 2
#     Edge 115, Type (0, 1), BuildingBlock: UVAHIK_clean_linker_0, # of connection points: 2
#     Edge 116, Type (0, 1), BuildingBlock: UVAHIK_clean_linker_0, # of connection points: 2
#     Edge 117, Type (0, 1), BuildingBlock: UVAHIK_clean_linker_0, # of connection points: 2
#     Edge 118, Type (0, 1), BuildingBlock: UVAHIK_clean_linker_0, # of connection points: 2
#     Edge 119, Type (0, 1), BuildingBlock: UVAHIK_clean_linker_0, # of connection points: 2
#     Edge 120, Type (0, 1), BuildingBlock: UVAHIK_clean_linker_0, # of connection points: 2
#     Edge 121, Type (0, 1), BuildingBlock: UVAHIK_clean_linker_0, # of connection points: 2
#     Edge 122, Type (0, 1), BuildingBlock: UVAHIK_clean_linker_0, # of connection points: 2
#     Edge 123, Type (0, 1), BuildingBlock: UVAHIK_clean_linker_0, # of connection points: 2
#     Edge 124, Type (0, 1), BuildingBlock: UVAHIK_clean_linker_0, # of connection points: 2
#     Edge 125, Type (0, 1), BuildingBlock: UVAHIK_clean_linker_0, # of connection points: 2
#     Edge 126, Type (0, 1), BuildingBlock: UVAHIK_clean_linker_0, # of connection points: 2
#     Edge 127, Type (0, 1), BuildingBlock: UVAHIK_clean_linker_0, # of connection points: 2
#     Edge 128, Type (0, 1), BuildingBlock: UVAHIK_clean_linker_0, # of connection points: 2
#     Edge 129, Type (0, 1), BuildingBlock: UVAHIK_clean_linker_0, # of connection points: 2
#     Edge 130, Type (0, 1), BuildingBlock: UVAHIK_clean_linker_0, # of connection points: 2
#     Edge 131, Type (0, 1), BuildingBlock: UVAHIK_clean_linker_0, # of connection points: 2
#     Edge 132, Type (0, 1), BuildingBlock: UVAHIK_clean_linker_0, # of connection points: 2
#     Edge 133, Type (0, 1), BuildingBlock: UVAHIK_clean_linker_0, # of connection points: 2
#     Edge 134, Type (0, 1), BuildingBlock: UVAHIK_clean_linker_0, # of connection points: 2
#     Edge 135, Type (0, 1), BuildingBlock: UVAHIK_clean_linker_0, # of connection points: 2
# Relax obj value: 0.185
# Max RMSD: 0.292
# Mean RMSD: 0.178
data_MOF--net-gar--node1-NAHDIM_clean_sbu_0--node2-BETFEN_clean_sbu_0--edge1-UVAHIK_clean_linker_0
_symmetry_space_group_name_H-M    P1
_symmetry_Int_Tables_number       1
_symmetry_cell_setting            triclinic
loop_
_symmetry_equiv_pos_as_xyz
'x, y, z'
_cell_length_a     80.666769
_cell_length_b     72.436668
_cell_length_c     71.351091
_cell_angle_alpha  94.613155
_cell_angle_beta   98.635546
_cell_angle_gamma 102.61768
loop_
_atom_site_label
_atom_site_type_symbol
_atom_site_fract_x
_atom_site_fract_y
_atom_site_fract_z
_atom_type_partial_charge
C0 C 0.05209 0.31402 0.40252 0.0
O1 O 0.05464 0.32805 0.41626 0.0
O2 O 0.01594 0.27858 0.42889 0.0
Zn3 Zn 0.01841 0.30211 0.41462 0.0
O4 O 0.02359 0.32699 0.43262 0.0
C5 C 0.98443 0.28581 0.38994 0.0
O6 O 0.98729 0.26921 0.39372 0.0
O7 O 0.03772 0.30176 0.39914 0.0
C8 C 0.02065 0.34162 0.42515 0.0
O9 O 0.01498 0.33986 0.40669 0.0
C10 C 0.02825 0.27607 0.44109 0.0
O11 O 0.04254 0.28953 0.44535 0.0
O12 O 0.99578 0.30092 0.39689 0.0
C13 C 0.03534 0.83247 0.66193 0.0
O14 O 0.04548 0.84882 0.66001 0.0
O15 O 0.05315 0.79219 0.62304 0.0
Zn16 Zn 0.05714 0.81839 0.63837 0.0
O17 O 0.05536 0.83982 0.62172 0.0
C18 C 0.09162 0.81431 0.6525 0.0
O19 O 0.08755 0.80135 0.63756 0.0
O20 O 0.03812 0.81716 0.65434 0.0
C21 C 0.06815 0.85222 0.61852 0.0
O22 O 0.08385 0.85068 0.62504 0.0
C23 C 0.04784 0.78754 0.6052 0.0
O24 O 0.04398 0.80051 0.59456 0.0
O25 O 0.08075 0.82401 0.65586 0.0
C26 C 0.55912 0.81329 0.90111 0.0
O27 O 0.56151 0.82757 0.91456 0.0
O28 O 0.52258 0.7788 0.92771 0.0
Zn29 Zn 0.52499 0.80169 0.91241 0.0
O30 O 0.52932 0.8273 0.92915 0.0
C31 C 0.48846 0.79706 0.89995 0.0
O32 O 0.48878 0.79728 0.91844 0.0
O33 O 0.54474 0.80106 0.89767 0.0
C34 C 0.5261 0.84152 0.92108 0.0
O35 O 0.52038 0.83908 0.9026 0.0
C36 C 0.53476 0.77635 0.94014 0.0
O37 O 0.54919 0.78961 0.94421 0.0
O38 O 0.50258 0.79855 0.89362 0.0
C39 C 0.52828 0.31213 0.17329 0.0
O40 O 0.5403 0.30489 0.18242 0.0
O41 O 0.54611 0.29033 0.12864 0.0
Zn42 Zn 0.54996 0.3171 0.1428 0.0
O43 O 0.54993 0.33824 0.12518 0.0
C44 C 0.58563 0.31819 0.15385 0.0
O45 O 0.58319 0.31242 0.13549 0.0
O46 O 0.53004 0.3178 0.15712 0.0
C47 C 0.5624 0.35276 0.12627 0.0
O48 O 0.57674 0.35383 0.13822 0.0
C49 C 0.54319 0.28569 0.11065 0.0
O50 O 0.54194 0.29891 0.09929 0.0
O51 O 0.57297 0.32178 0.16101 0.0
C52 C 0.03318 0.82436 0.15392 0.0
O53 O 0.03022 0.82026 0.13528 0.0
O54 O 0.0636 0.80119 0.13338 0.0
Zn55 Zn 0.06751 0.82809 0.14671 0.0
O56 O 0.06557 0.84777 0.12801 0.0
C57 C 0.1026 0.82592 0.15888 0.0
O58 O 0.09907 0.81518 0.1424 0.0
O59 O 0.0487 0.82831 0.1627 0.0
C60 C 0.07807 0.86059 0.12487 0.0
O61 O 0.09379 0.86097 0.13332 0.0
C62 C 0.05581 0.79461 0.11654 0.0
O63 O 0.04905 0.80582 0.10567 0.0
O64 O 0.09116 0.83399 0.16393 0.0
C65 C 0.5481 0.80417 0.39504 0.0
O66 O 0.55104 0.80878 0.41363 0.0
O67 O 0.51446 0.77435 0.41754 0.0
Zn68 Zn 0.51369 0.79702 0.4026 0.0
O69 O 0.51873 0.82178 0.42035 0.0
C70 C 0.48154 0.78068 0.37398 0.0
O71 O 0.48769 0.76552 0.37115 0.0
O72 O 0.53254 0.79872 0.38642 0.0
C73 C 0.50637 0.82872 0.42457 0.0
O74 O 0.49044 0.81903 0.41833 0.0
C75 C 0.50183 0.76331 0.42274 0.0
O76 O 0.48635 0.76654 0.41882 0.0
O77 O 0.49031 0.79458 0.386 0.0
C78 C 0.53224 0.31485 0.6624 0.0
O79 O 0.5323 0.29858 0.65288 0.0
O80 O 0.55765 0.30362 0.629 0.0
Zn81 Zn 0.56254 0.32941 0.64501 0.0
O82 O 0.56132 0.35039 0.62782 0.0
C83 C 0.58998 0.32006 0.67026 0.0
O84 O 0.57836 0.30387 0.66823 0.0
O85 O 0.544 0.32952 0.66151 0.0
C86 C 0.57406 0.36118 0.62254 0.0
O87 O 0.58966 0.35879 0.62805 0.0
C88 C 0.56959 0.29739 0.62272 0.0
O89 O 0.58526 0.30835 0.6257 0.0
O90 O 0.58615 0.33386 0.66192 0.0
C91 C 0.0443 0.30116 0.89557 0.0
O92 O 0.04724 0.30769 0.91377 0.0
O93 O 0.01167 0.27199 0.92052 0.0
Zn94 Zn 0.01003 0.29312 0.90356 0.0
O95 O 0.01478 0.31899 0.91933 0.0
C96 C 0.97458 0.29538 0.8925 0.0
O97 O 0.97769 0.30441 0.90984 0.0
O98 O 0.02881 0.29404 0.88737 0.0
C99 C 0.01324 0.33313 0.91026 0.0
O100 O 0.00887 0.33023 0.89158 0.0
C101 C 0.99899 0.25965 0.92404 0.0
O102 O 0.98322 0.26054 0.91695 0.0
O103 O 0.98636 0.28848 0.88658 0.0
C104 C 0.42809 0.18086 0.29765 0.0
O105 O 0.44067 0.18169 0.28779 0.0
O106 O 0.45398 0.14932 0.29113 0.0
Zn107 Zn 0.44116 0.15031 0.31305 0.0
O108 O 0.45763 0.15434 0.33788 0.0
C109 C 0.41675 0.1161 0.29572 0.0
O110 O 0.41864 0.12422 0.28012 0.0
O111 O 0.42657 0.16938 0.31018 0.0
C112 C 0.4681 0.1435 0.33838 0.0
O113 O 0.46749 0.13177 0.32312 0.0
C114 C 0.46893 0.1593 0.29069 0.0
O115 O 0.47712 0.17169 0.30541 0.0
O116 O 0.4251 0.12474 0.31168 0.0
C117 C 0.30476 0.1858 0.51253 0.0
O118 O 0.3082 0.20448 0.51358 0.0
O119 O 0.27519 0.20742 0.53735 0.0
Zn120 Zn 0.2709 0.19218 0.51108 0.0
O121 O 0.27271 0.20817 0.48884 0.0
C122 C 0.23549 0.17956 0.51587 0.0
O123 O 0.23948 0.19622 0.52629 0.0
O124 O 0.28915 0.17672 0.51126 0.0
C125 C 0.26766 0.22344 0.48658 0.0
O126 O 0.26038 0.23068 0.49977 0.0
C127 C 0.28281 0.22471 0.54305 0.0
O128 O 0.2895 0.23563 0.53096 0.0
O129 O 0.24686 0.17449 0.50737 0.0
C130 C 0.19938 0.05053 0.84132 0.0
O131 O 0.18257 0.04578 0.83584 0.0
O132 O 0.17328 0.0798 0.83314 0.0
Zn133 Zn 0.19034 0.08278 0.85749 0.0
O134 O 0.17758 0.07404 0.87843 0.0
C135 C 0.19646 0.12282 0.85568 0.0
O136 O 0.18003 0.11788 0.84805 0.0
O137 O 0.20619 0.06594 0.85219 0.0
C138 C 0.17117 0.0854 0.88798 0.0
O139 O 0.17436 0.10345 0.88522 0.0
C140 C 0.15702 0.0774 0.83141 0.0
O141 O 0.14975 0.07712 0.8467 0.0
O142 O 0.20376 0.11021 0.86219 0.0
C143 C 0.27685 0.95633 0.04625 0.0
O144 O 0.28938 0.96115 0.06106 0.0
O145 O 0.29987 0.9179 0.0581 0.0
Zn146 Zn 0.29756 0.93086 0.03398 0.0
O147 O 0.2929 0.91208 0.00992 0.0
C148 C 0.33099 0.95722 0.0487 0.0
O149 O 0.32783 0.95237 0.06538 0.0
O150 O 0.27768 0.94382 0.03307 0.0
C151 C 0.30517 0.90994 0.00126 0.0
O152 O 0.32102 0.919 0.00883 0.0
C153 C 0.28967 0.9025 0.06038 0.0
O154 O 0.2771 0.89413 0.04636 0.0
O155 O 0.31979 0.95034 0.03384 0.0
C156 C 0.27927 0.45337 0.0332 0.0
O157 O 0.28554 0.45275 0.01726 0.0
O158 O 0.30635 0.4176 0.0698 0.0
Zn159 Zn 0.30577 0.43287 0.04694 0.0
O160 O 0.30263 0.41645 0.02146 0.0
C161 C 0.34073 0.44735 0.04186 0.0
O162 O 0.33764 0.43014 0.03273 0.0
O163 O 0.286 0.44621 0.04732 0.0
C164 C 0.28861 0.4077 0.01068 0.0
O165 O 0.27387 0.40787 0.01632 0.0
C166 C 0.29718 0.40089 0.06984 0.0
O167 O 0.2871 0.39214 0.05399 0.0
O168 O 0.3289 0.45224 0.04969 0.0
C169 C 0.81509 0.18505 0.01622 0.0
O170 O 0.81865 0.20264 0.01197 0.0
O171 O 0.78646 0.20948 0.04677 0.0
Zn172 Zn 0.78257 0.19412 0.02072 0.0
O173 O 0.78366 0.21061 0.99895 0.0
C174 C 0.74571 0.18383 0.01434 0.0
O175 O 0.74817 0.20237 0.01431 0.0
O176 O 0.80038 0.17825 0.02046 0.0
C177 C 0.77771 0.20204 0.98222 0.0
O178 O 0.77149 0.18351 0.9802 0.0
C179 C 0.78457 0.2264 0.04967 0.0
O180 O 0.78048 0.23532 0.03496 0.0
O181 O 0.75877 0.17658 0.01678 0.0
C182 C 0.1421 0.44201 0.24623 0.0
O183 O 0.12908 0.44103 0.25546 0.0
O184 O 0.10915 0.45762 0.201 0.0
Zn185 Zn 0.12662 0.46801 0.22473 0.0
O186 O 0.11541 0.47483 0.24676 0.0
C187 C 0.13353 0.50589 0.21533 0.0
O188 O 0.11669 0.50273 0.21395 0.0
O189 O 0.14286 0.4516 0.23213 0.0
C190 C 0.12435 0.48743 0.25999 0.0
O191 O 0.14072 0.49436 0.25945 0.0
C192 C 0.09326 0.45698 0.20087 0.0
O193 O 0.08803 0.46036 0.2171 0.0
O194 O 0.14093 0.49257 0.21929 0.0
C195 C 0.77162 0.93846 0.5435 0.0
O196 O 0.76803 0.91976 0.54212 0.0
O197 O 0.80566 0.91701 0.5676 0.0
Zn198 Zn 0.80521 0.93156 0.5442 0.0
O199 O 0.79877 0.91428 0.51908 0.0
C200 C 0.83879 0.95874 0.55834 0.0
O201 O 0.83333 0.95958 0.57477 0.0
O202 O 0.78728 0.94741 0.54477 0.0
C203 C 0.80891 0.90466 0.51348 0.0
O204 O 0.82327 0.9047 0.52497 0.0
C205 C 0.79844 0.89949 0.56738 0.0
O206 O 0.79048 0.88956 0.55104 0.0
O207 O 0.829 0.94824 0.544 0.0
C208 C 0.88145 0.07123 0.21439 0.0
O209 O 0.89603 0.07306 0.22618 0.0
O210 O 0.90815 0.0487 0.17642 0.0
Zn211 Zn 0.89322 0.0413 0.19576 0.0
O212 O 0.90798 0.04094 0.22087 0.0
C213 C 0.88459 0.00053 0.18901 0.0
O214 O 0.90143 0.00294 0.19155 0.0
O215 O 0.87787 0.05914 0.19959 0.0
C216 C 0.92376 0.04035 0.22376 0.0
O217 O 0.93205 0.03994 0.20928 0.0
C218 C 0.91648 0.0658 0.17673 0.0
O219 O 0.91437 0.07903 0.18926 0.0
O220 O 0.87818 0.01506 0.18888 0.0
C221 C 0.31519 0.68434 0.51716 0.0
O222 O 0.31869 0.70205 0.51325 0.0
O223 O 0.2867 0.70804 0.54848 0.0
Zn224 Zn 0.28283 0.69335 0.5221 0.0
O225 O 0.28405 0.71025 0.50061 0.0
C226 C 0.24613 0.68376 0.51677 0.0
O227 O 0.24901 0.70241 0.51768 0.0
O228 O 0.30052 0.67737 0.52141 0.0
C229 C 0.27792 0.70189 0.48382 0.0
O230 O 0.27134 0.68342 0.48164 0.0
C231 C 0.28808 0.72584 0.55217 0.0
O232 O 0.28765 0.7364 0.53806 0.0
O233 O 0.25893 0.67606 0.51812 0.0
C234 C 0.39394 0.5715 0.71436 0.0
O235 O 0.4099 0.57561 0.72354 0.0
O236 O 0.41597 0.54469 0.6755 0.0
Zn237 Zn 0.40478 0.53967 0.69832 0.0
O238 O 0.42346 0.54476 0.72122 0.0
C239 C 0.37628 0.50615 0.69006 0.0
O240 O 0.36805 0.51717 0.6805 0.0
O241 O 0.38873 0.55682 0.70213 0.0
C242 C 0.43348 0.53374 0.72485 0.0
O243 O 0.432 0.51844 0.71292 0.0
C244 C 0.42148 0.56182 0.67245 0.0
O245 O 0.41839 0.57568 0.68342 0.0
O246 O 0.392 0.51257 0.69761 0.0
C247 C 0.64491 0.9331 0.74621 0.0
O248 O 0.63055 0.92737 0.75285 0.0
O249 O 0.6169 0.96274 0.70907 0.0
Zn250 Zn 0.63045 0.96471 0.73526 0.0
O251 O 0.61539 0.96078 0.75522 0.0
C252 C 0.63985 0.00547 0.74616 0.0
O253 O 0.62388 0.00298 0.74916 0.0
O254 O 0.64678 0.94762 0.7372 0.0
C255 C 0.62298 0.96452 0.77248 0.0
O256 O 0.63987 0.9703 0.77612 0.0
C257 C 0.60065 0.95679 0.70457 0.0
O258 O 0.59175 0.94952 0.7173 0.0
O259 O 0.64527 0.99118 0.74046 0.0
C260 C 0.80504 0.6854 0.00422 0.0
O261 O 0.8067 0.70222 0.99809 0.0
O262 O 0.77561 0.70964 0.03443 0.0
Zn263 Zn 0.77199 0.69251 0.00935 0.0
O264 O 0.77183 0.70723 0.98606 0.0
C265 C 0.73699 0.6793 0.01514 0.0
O266 O 0.74043 0.69673 0.02383 0.0
O267 O 0.79114 0.67804 0.00997 0.0
C268 C 0.77799 0.72505 0.9866 0.0
O269 O 0.78447 0.73522 0.00321 0.0
C270 C 0.78984 0.71709 0.04547 0.0
O271 O 0.80431 0.71488 0.04031 0.0
O272 O 0.74855 0.67388 0.00722 0.0
C273 C 0.93195 0.67354 0.79652 0.0
O274 O 0.94318 0.67174 0.78534 0.0
O275 O 0.95696 0.63808 0.79695 0.0
Zn276 Zn 0.94575 0.6462 0.81829 0.0
O277 O 0.96335 0.65497 0.84199 0.0
C278 C 0.91535 0.6166 0.81057 0.0
O279 O 0.91231 0.62611 0.79601 0.0
O280 O 0.93184 0.66505 0.8114 0.0
C281 C 0.95888 0.65793 0.85807 0.0
O282 O 0.94253 0.65694 0.85877 0.0
C283 C 0.97278 0.64426 0.79607 0.0
O284 O 0.98239 0.65779 0.80905 0.0
O285 O 0.92915 0.62273 0.82267 0.0
C286 C 0.7748 0.45143 0.54004 0.0
O287 O 0.78624 0.45528 0.55585 0.0
O288 O 0.79609 0.413 0.554 0.0
Zn289 Zn 0.79556 0.42533 0.52938 0.0
O290 O 0.79123 0.40625 0.50559 0.0
C291 C 0.8322 0.44061 0.53971 0.0
O292 O 0.83091 0.42532 0.54863 0.0
O293 O 0.77632 0.4393 0.52688 0.0
C294 C 0.80277 0.39855 0.50029 0.0
O295 O 0.81801 0.40202 0.51118 0.0
C296 C 0.7888 0.39591 0.5556 0.0
O297 O 0.77999 0.38472 0.54031 0.0
O298 O 0.8186 0.44397 0.53051 0.0
C299 C 0.70613 0.55239 0.34929 0.0
O300 O 0.68932 0.54578 0.346 0.0
O301 O 0.67868 0.58016 0.33702 0.0
Zn302 Zn 0.69526 0.58459 0.36195 0.0
O303 O 0.68246 0.57549 0.38277 0.0
C304 C 0.69961 0.6243 0.35897 0.0
O305 O 0.68332 0.61842 0.35096 0.0
O306 O 0.71236 0.56918 0.35762 0.0
C307 C 0.67486 0.58629 0.39136 0.0
O308 O 0.67676 0.60402 0.38764 0.0
C309 C 0.66231 0.57612 0.33465 0.0
O310 O 0.65453 0.57456 0.34955 0.0
O311 O 0.70741 0.61241 0.36622 0.0
Pr312 Pr 0.01792 0.04986 0.01966 0.0
Pr313 Pr 0.05777 0.06824 0.02555 0.0
C314 C 0.98379 0.04282 0.02019 0.0
C315 C 0.9705 0.05396 0.01937 0.0
C316 C 0.95313 0.04483 0.01297 0.0
C317 C 0.94037 0.05524 0.01229 0.0
C318 C 0.94477 0.07501 0.018 0.0
C319 C 0.96226 0.0841 0.02431 0.0
C320 C 0.97499 0.07368 0.02498 0.0
C321 C 0.03409 0.0442 0.9888 0.0
C322 C 0.03232 0.09574 0.01207 0.0
C323 C 0.09175 0.07553 0.02419 0.0
C324 C 0.10581 0.06547 0.02654 0.0
C325 C 0.12285 0.07592 0.0326 0.0
C326 C 0.13639 0.06663 0.03467 0.0
C327 C 0.13314 0.04669 0.03069 0.0
C328 C 0.11599 0.03626 0.02468 0.0
C329 C 0.10245 0.04557 0.02266 0.0
C330 C 0.04171 0.07458 0.05635 0.0
C331 C 0.04336 0.02241 0.03366 0.0
O332 O 0.99554 0.04658 0.03566 0.0
O333 O 0.9901 0.04034 0.00456 0.0
O334 O 0.03646 0.05949 0.99953 0.0
O335 O 0.02248 0.03062 0.99345 0.0
O336 O 0.04799 0.09297 0.01221 0.0
O337 O 0.01977 0.08263 0.01663 0.0
O338 O 0.07972 0.06945 0.00912 0.0
O339 O 0.08571 0.07984 0.03959 0.0
O340 O 0.03914 0.05912 0.04579 0.0
O341 O 0.05384 0.08768 0.05186 0.0
O342 O 0.02751 0.02486 0.03269 0.0
O343 O 0.05609 0.03573 0.0297 0.0
H344 H 0.94943 0.02963 0.0085 0.0
H345 H 0.92708 0.04782 0.0071 0.0
H346 H 0.96611 0.09924 0.02903 0.0
H347 H 0.98834 0.08101 0.03001 0.0
H348 H 0.12569 0.09129 0.03561 0.0
H349 H 0.14945 0.07512 0.03908 0.0
H350 H 0.11301 0.02088 0.02173 0.0
H351 H 0.08936 0.03722 0.01802 0.0
Pr352 Pr 0.30131 0.83029 0.28834 0.0
Pr353 Pr 0.27807 0.78799 0.26381 0.0
C354 C 0.32675 0.85956 0.30584 0.0
C355 C 0.33203 0.88026 0.30464 0.0
C356 C 0.32499 0.89322 0.31483 0.0
C357 C 0.32958 0.91266 0.31308 0.0
C358 C 0.34131 0.91955 0.30113 0.0
C359 C 0.34858 0.90665 0.29123 0.0
C360 C 0.34405 0.88723 0.29304 0.0
C361 C 0.26659 0.83002 0.27454 0.0
C362 C 0.29429 0.82462 0.24058 0.0
C363 C 0.25196 0.75992 0.24529 0.0
C364 C 0.24522 0.73911 0.24382 0.0
C365 C 0.25274 0.72643 0.23392 0.0
C366 C 0.24561 0.70683 0.23185 0.0
C367 C 0.23087 0.69955 0.23964 0.0
C368 C 0.22348 0.71223 0.24969 0.0
C369 C 0.23054 0.7318 0.25168 0.0
C370 C 0.31277 0.78792 0.27685 0.0
C371 C 0.28503 0.7937 0.31166 0.0
O372 O 0.32837 0.84821 0.29125 0.0
O373 O 0.31264 0.85345 0.31287 0.0
O374 O 0.27436 0.8169 0.27352 0.0
O375 O 0.27728 0.84504 0.28429 0.0
O376 O 0.28279 0.80836 0.24026 0.0
O377 O 0.30411 0.83426 0.25649 0.0
O378 O 0.25104 0.76995 0.26113 0.0
O379 O 0.26607 0.76619 0.23834 0.0
O380 O 0.30525 0.80124 0.27859 0.0
O381 O 0.30182 0.7731 0.26703 0.0
O382 O 0.29644 0.81012 0.31218 0.0
O383 O 0.27542 0.78402 0.29564 0.0
H384 H 0.3158 0.88835 0.32402 0.0
H385 H 0.32373 0.92227 0.32082 0.0
H386 H 0.3579 0.9116 0.28221 0.0
H387 H 0.3499 0.87767 0.28522 0.0
H388 H 0.26401 0.7316 0.22759 0.0
H389 H 0.25163 0.69736 0.22414 0.0
H390 H 0.21195 0.70707 0.25559 0.0
H391 H 0.22435 0.74126 0.25915 0.0
Pr392 Pr 0.55755 0.06307 0.53516 0.0
Pr393 Pr 0.518 0.06046 0.5198 0.0
C394 C 0.5885 0.05834 0.55173 0.0
C395 C 0.60266 0.04914 0.5488 0.0
C396 C 0.61922 0.05715 0.55914 0.0
C397 C 0.63287 0.04854 0.55714 0.0
C398 C 0.63025 0.03166 0.54472 0.0
C399 C 0.61359 0.02371 0.53424 0.0
C400 C 0.59992 0.03239 0.53624 0.0
C401 C 0.55028 0.07655 0.50012 0.0
C402 C 0.53318 0.02331 0.50854 0.0
C403 C 0.48727 0.06533 0.50276 0.0
C404 C 0.47329 0.07485 0.50552 0.0
C405 C 0.45679 0.06725 0.49485 0.0
C406 C 0.44326 0.07603 0.4969 0.0
C407 C 0.44594 0.09264 0.50971 0.0
C408 C 0.46255 0.10022 0.52046 0.0
C409 C 0.47611 0.09137 0.51841 0.0
C410 C 0.52495 0.04666 0.5547 0.0
C411 C 0.54239 0.10011 0.54666 0.0
O412 O 0.57379 0.0473 0.55354 0.0
O413 O 0.58674 0.07252 0.54196 0.0
O414 O 0.54162 0.06189 0.50546 0.0
O415 O 0.56419 0.08403 0.51243 0.0
O416 O 0.52129 0.03272 0.50311 0.0
O417 O 0.54702 0.03112 0.52152 0.0
O418 O 0.5021 0.07611 0.50086 0.0
O419 O 0.48883 0.0513 0.51283 0.0
O420 O 0.53384 0.06133 0.54954 0.0
O421 O 0.51095 0.03959 0.54238 0.0
O422 O 0.55427 0.09067 0.55205 0.0
O423 O 0.52855 0.09235 0.53366 0.0
H424 H 0.62158 0.07003 0.56896 0.0
H425 H 0.64541 0.05491 0.56566 0.0
H426 H 0.61114 0.01086 0.52438 0.0
H427 H 0.58722 0.02601 0.52806 0.0
H428 H 0.45439 0.05454 0.48479 0.0
H429 H 0.43075 0.06996 0.48818 0.0
H430 H 0.46504 0.11287 0.5306 0.0
H431 H 0.48876 0.09742 0.52684 0.0
Pr432 Pr 0.26884 0.30891 0.7749 0.0
Pr433 Pr 0.30935 0.322 0.78127 0.0
C434 C 0.23547 0.29406 0.77682 0.0
C435 C 0.22106 0.29694 0.78646 0.0
C436 C 0.20564 0.2986 0.77541 0.0
C437 C 0.19139 0.30006 0.78393 0.0
C438 C 0.19216 0.29977 0.80374 0.0
C439 C 0.20775 0.29844 0.81485 0.0
C440 C 0.22204 0.29704 0.80632 0.0
C441 C 0.28189 0.34428 0.76356 0.0
C442 C 0.29057 0.33269 0.81698 0.0
C443 C 0.34256 0.33709 0.77884 0.0
C444 C 0.35676 0.33408 0.76889 0.0
C445 C 0.36279 0.3173 0.76944 0.0
C446 C 0.37692 0.31534 0.76082 0.0
C447 C 0.38531 0.33011 0.75145 0.0
C448 C 0.37899 0.34672 0.75064 0.0
C449 C 0.36492 0.34868 0.7593 0.0
C450 C 0.29631 0.28662 0.7926 0.0
C451 C 0.28745 0.29794 0.73925 0.0
O452 O 0.24837 0.28898 0.78682 0.0
O453 O 0.24025 0.30586 0.76462 0.0
O454 O 0.2879 0.33812 0.77851 0.0
O455 O 0.26783 0.33264 0.75456 0.0
O456 O 0.30446 0.33786 0.8091 0.0
O457 O 0.27642 0.32069 0.80754 0.0
O458 O 0.32955 0.34191 0.76877 0.0
O459 O 0.33794 0.32557 0.79134 0.0
O460 O 0.29034 0.29284 0.77767 0.0
O461 O 0.31043 0.29821 0.80157 0.0
O462 O 0.27356 0.29298 0.74714 0.0
O463 O 0.30172 0.30979 0.74865 0.0
H464 H 0.20453 0.29851 0.76008 0.0
H465 H 0.17974 0.30141 0.77495 0.0
H466 H 0.20879 0.29796 0.8301 0.0
H467 H 0.23374 0.29574 0.81524 0.0
H468 H 0.35677 0.30578 0.77675 0.0
H469 H 0.38151 0.30243 0.76191 0.0
H470 H 0.3849 0.35825 0.74328 0.0
H471 H 0.3605 0.36175 0.75866 0.0
Pr472 Pr 0.02796 0.04929 0.50842 0.0
Pr473 Pr 0.04859 0.07413 0.55098 0.0
C474 C 0.00383 0.02937 0.47966 0.0
C475 C 0.99944 0.0293 0.45901 0.0
C476 C 0.01068 0.04067 0.44906 0.0
C477 C 0.00608 0.04096 0.42943 0.0
C478 C 0.99013 0.02995 0.41955 0.0
C479 C 0.97903 0.01842 0.42963 0.0
C480 C 0.98366 0.01811 0.44922 0.0
C481 C 0.06294 0.06624 0.5086 0.0
C482 C 0.03338 0.09671 0.51507 0.0
C483 C 0.07259 0.09342 0.58013 0.0
C484 C 0.07638 0.092 0.60059 0.0
C485 C 0.09242 0.10156 0.6112 0.0
C486 C 0.09651 0.09926 0.63046 0.0
C487 C 0.08459 0.08733 0.63934 0.0
C488 C 0.06837 0.07806 0.62869 0.0
C489 C 0.06433 0.08032 0.60942 0.0
C490 C 0.01359 0.05744 0.55104 0.0
C491 C 0.04386 0.02678 0.54406 0.0
O492 O 1.00167 0.04413 0.49011 0.0
O493 O 0.01809 0.02412 0.48576 0.0
O494 O 0.05431 0.06652 0.52176 0.0
O495 O 0.05303 0.05597 0.49355 0.0
O496 O 0.04433 0.09771 0.53121 0.0
O497 O 0.02434 0.08035 0.50519 0.0
O498 O 0.07501 0.07928 0.56897 0.0
O499 O 0.05838 0.09883 0.5742 0.0
O500 O 0.02204 0.05681 0.53771 0.0
O501 O 0.02369 0.06779 0.56591 0.0
O502 O 0.03299 0.02564 0.52782 0.0
O503 O 0.05236 0.0432 0.5542 0.0
H504 H 0.0229 0.04947 0.45652 0.0
H505 H 0.01481 0.05011 0.42208 0.0
H506 H 0.96676 0.0096 0.42235 0.0
H507 H 0.97488 0.00926 0.45676 0.0
H508 H 0.10185 0.11058 0.60453 0.0
H509 H 0.10903 0.10673 0.63838 0.0
H510 H 0.05903 0.06862 0.63509 0.0
H511 H 0.05192 0.07269 0.60131 0.0
Pr512 Pr 0.28238 0.78881 0.77932 0.0
Pr513 Pr 0.29881 0.8335 0.7797 0.0
C514 C 0.27251 0.75057 0.77485 0.0
C515 C 0.28025 0.73463 0.77058 0.0
C516 C 0.27029 0.71593 0.76857 0.0
C517 C 0.27765 0.70064 0.76449 0.0
C518 C 0.29508 0.70392 0.76245 0.0
C519 C 0.30497 0.72275 0.7644 0.0
C520 C 0.29759 0.738 0.76841 0.0
C521 C 0.28075 0.81268 0.81133 0.0
C522 C 0.32511 0.80538 0.79189 0.0
C523 C 0.30937 0.87099 0.79114 0.0
C524 C 0.30513 0.88875 0.78586 0.0
C525 C 0.31746 0.90599 0.79102 0.0
C526 C 0.31282 0.92324 0.78854 0.0
C527 C 0.29571 0.92344 0.78103 0.0
C528 C 0.28368 0.90598 0.77479 0.0
C529 C 0.28838 0.88879 0.7771 0.0
C530 C 0.29734 0.81454 0.74336 0.0
C531 C 0.25698 0.81586 0.76215 0.0
O532 O 0.27007 0.76092 0.76093 0.0
O533 O 0.27865 0.76066 0.79147 0.0
O534 O 0.2934 0.81381 0.80272 0.0
O535 O 0.26817 0.79831 0.80366 0.0
O536 O 0.32295 0.82298 0.79261 0.0
O537 O 0.31224 0.79032 0.78551 0.0
O538 O 0.29752 0.85954 0.7982 0.0
O539 O 0.3169 0.86218 0.77937 0.0
O540 O 0.29258 0.80731 0.75768 0.0
O541 O 0.30321 0.83283 0.74762 0.0
O542 O 0.25971 0.7985 0.76185 0.0
O543 O 0.26896 0.83116 0.77032 0.0
H544 H 0.25686 0.71317 0.77021 0.0
H545 H 0.26978 0.68627 0.76321 0.0
H546 H 0.31836 0.72571 0.76262 0.0
H547 H 0.30539 0.75241 0.76979 0.0
H548 H 0.3305 0.90616 0.79766 0.0
H549 H 0.32247 0.93641 0.79317 0.0
H550 H 0.27034 0.90552 0.76917 0.0
H551 H 0.2787 0.87555 0.77291 0.0
Pr552 Pr 0.54569 0.06181 0.0469 0.0
Pr553 Pr 0.53256 0.06143 -0.00012 0.0
C554 C 0.55574 0.07289 0.08444 0.0
C555 C 0.55065 0.08461 0.09919 0.0
C556 C 0.56092 0.08924 0.1173 0.0
C557 C 0.55562 0.09944 0.13182 0.0
C558 C 0.53997 0.10515 0.12835 0.0
C559 C 0.53004 0.10105 0.1099 0.0
C560 C 0.53531 0.09078 0.09544 0.0
C561 C 0.54644 0.02734 0.02577 0.0
C562 C 0.50372 0.04919 0.02854 0.0
C563 C 0.52343 0.04974 0.96236 0.0
C564 C 0.52909 0.03717 0.94884 0.0
C565 C 0.52024 0.0326 0.93004 0.0
C566 C 0.52587 0.02092 0.91702 0.0
C567 C 0.54035 0.0135 0.9227 0.0
C568 C 0.5489 0.01784 0.94177 0.0
C569 C 0.54343 0.02975 0.95465 0.0
C570 C 0.53168 0.0959 0.0207 0.0
C571 C 0.57442 0.07555 0.0186 0.0
O572 O 0.56285 0.08201 0.07144 0.0
O573 O 0.54459 0.05686 0.0775 0.0
O574 O 0.54229 0.04182 0.01979 0.0
O575 O 0.55107 0.03065 0.04421 0.0
O576 O 0.50731 0.04792 0.01101 0.0
O577 O 0.51559 0.05614 0.04392 0.0
O578 O 0.51545 0.04136 0.9752 0.0
O579 O 0.53468 0.0657 0.96929 0.0
O580 O 0.53596 0.08157 0.02697 0.0
O581 O 0.52716 0.09242 0.00224 0.0
O582 O 0.57062 0.07632 0.03601 0.0
O583 O 0.5628 0.06824 0.00309 0.0
H584 H 0.57282 0.08456 0.12035 0.0
H585 H 0.56344 0.10217 0.14593 0.0
H586 H 0.51803 0.10547 0.10674 0.0
H587 H 0.52726 0.08731 0.08146 0.0
H588 H 0.50917 0.03829 0.92535 0.0
H589 H 0.51915 0.01816 0.90239 0.0
H590 H 0.55992 0.01216 0.94673 0.0
H591 H 0.55047 0.03328 0.96913 0.0
Pr592 Pr 0.26839 0.30096 0.27714 0.0
Pr593 Pr 0.3042 0.32773 0.28312 0.0
C594 C 0.23643 0.28184 0.28048 0.0
C595 C 0.22202 0.28525 0.28976 0.0
C596 C 0.20501 0.27669 0.28105 0.0
C597 C 0.19115 0.27959 0.28967 0.0
C598 C 0.19401 0.29109 0.30727 0.0
C599 C 0.21114 0.29981 0.31586 0.0
C600 C 0.22499 0.29697 0.30716 0.0
C601 C 0.27731 0.31584 0.2441 0.0
C602 C 0.27378 0.34671 0.29337 0.0
C603 C 0.33665 0.34613 0.28082 0.0
C604 C 0.35113 0.3423 0.27184 0.0
C605 C 0.36794 0.34753 0.28233 0.0
C606 C 0.38185 0.34394 0.27422 0.0
C607 C 0.37927 0.33512 0.25536 0.0
C608 C 0.36238 0.32983 0.24488 0.0
C609 C 0.34844 0.3333 0.25306 0.0
C610 C 0.29486 0.31251 0.31588 0.0
C611 C 0.29859 0.28243 0.26564 0.0
O612 O 0.25045 0.28059 0.2917 0.0
O613 O 0.23959 0.29134 0.2661 0.0
O614 O 0.28022 0.32515 0.26047 0.0
O615 O 0.26894 0.29834 0.24422 0.0
O616 O 0.28862 0.35066 0.28722 0.0
O617 O 0.26553 0.32896 0.29407 0.0
O618 O 0.32298 0.34817 0.2695 0.0
O619 O 0.33289 0.33643 0.2949 0.0
O620 O 0.29248 0.30337 0.29953 0.0
O621 O 0.30266 0.33024 0.31591 0.0
O622 O 0.28407 0.27821 0.27239 0.0
O623 O 0.30666 0.30025 0.26508 0.0
H624 H 0.20243 0.26773 0.26754 0.0
H625 H 0.17818 0.27293 0.28241 0.0
H626 H 0.21391 0.30859 0.32948 0.0
H627 H 0.23803 0.30384 0.31411 0.0
H628 H 0.37033 0.35444 0.29683 0.0
H629 H 0.3947 0.34836 0.28262 0.0
H630 H 0.3599 0.32281 0.23042 0.0
H631 H 0.33556 0.3289 0.24471 0.0
Pr632 Pr 0.53009 0.55007 0.01127 0.0
Pr633 Pr 0.54965 0.57492 0.05428 0.0
C634 C 0.50679 0.53135 0.98128 0.0
C635 C 0.50376 0.53208 0.96049 0.0
C636 C 0.516 0.52888 0.94925 0.0
C637 C 0.51323 0.53056 0.92973 0.0
C638 C 0.49828 0.53565 0.92117 0.0
C639 C 0.48598 0.5386 0.93237 0.0
C640 C 0.48866 0.53673 0.95184 0.0
C641 C 0.56538 0.56631 0.01274 0.0
C642 C 0.53611 0.59775 0.01782 0.0
C643 C 0.57341 0.59346 0.08404 0.0
C644 C 0.57767 0.59142 0.10431 0.0
C645 C 0.59303 0.6025 0.11516 0.0
C646 C 0.59775 0.5998 0.1342 0.0
C647 C 0.58716 0.58593 0.14265 0.0
C648 C 0.57157 0.5751 0.13178 0.0
C649 C 0.56688 0.57778 0.11271 0.0
C650 C 0.51422 0.55883 0.05249 0.0
C651 C 0.5438 0.52725 0.04776 0.0
O652 O 0.50444 0.54597 0.99184 0.0
O653 O 0.52018 0.52503 0.98848 0.0
O654 O 0.55636 0.56704 0.02551 0.0
O655 O 0.55576 0.55595 0.99757 0.0
O656 O 0.54641 0.59871 0.03443 0.0
O657 O 0.52728 0.5814 0.00772 0.0
O658 O 0.57605 0.57996 0.07224 0.0
O659 O 0.55892 0.59856 0.07868 0.0
O660 O 0.52343 0.55796 0.03994 0.0
O661 O 0.52373 0.56925 0.06768 0.0
O662 O 0.53383 0.52623 0.03092 0.0
O663 O 0.55208 0.5436 0.05822 0.0
H664 H 0.52782 0.52534 0.95553 0.0
H665 H 0.52294 0.52831 0.92141 0.0
H666 H 0.47423 0.54227 0.92605 0.0
H667 H 0.47902 0.53918 0.9602 0.0
H668 H 0.60148 0.61306 0.10883 0.0
H669 H 0.60973 0.60851 0.1423 0.0
H670 H 0.56325 0.56418 0.13785 0.0
H671 H 0.55502 0.56901 0.10441 0.0
Pr672 Pr 0.77729 0.2832 0.27293 0.0
Pr673 Pr 0.79291 0.33125 0.27801 0.0
C674 C 0.76613 0.24626 0.25921 0.0
C675 C 0.76916 0.22771 0.26347 0.0
C676 C 0.75604 0.21124 0.25735 0.0
C677 C 0.75956 0.19328 0.25857 0.0
C678 C 0.77633 0.1916 0.26573 0.0
C679 C 0.78912 0.20824 0.27306 0.0
C680 C 0.78553 0.22613 0.27202 0.0
C681 C 0.77927 0.30075 0.31015 0.0
C682 C 0.81879 0.30147 0.29067 0.0
C683 C 0.80365 0.36786 0.29296 0.0
C684 C 0.80207 0.38677 0.28842 0.0
C685 C 0.80986 0.40255 0.3019 0.0
C686 C 0.80637 0.42026 0.29923 0.0
C687 C 0.79498 0.42243 0.28301 0.0
C688 C 0.78805 0.40675 0.26893 0.0
C689 C 0.79154 0.389 0.27165 0.0
C690 C 0.79164 0.31422 0.24085 0.0
C691 C 0.7513 0.31271 0.26024 0.0
O692 O 0.77891 0.25785 0.25368 0.0
O693 O 0.75818 0.25472 0.27078 0.0
O694 O 0.78304 0.30813 0.2956 0.0
O695 O 0.77363 0.28243 0.30554 0.0
O696 O 0.81589 0.31887 0.29197 0.0
O697 O 0.80694 0.28604 0.28249 0.0
O698 O 0.78946 0.35658 0.29607 0.0
O699 O 0.81276 0.35928 0.28294 0.0
O700 O 0.78759 0.30636 0.25513 0.0
O701 O 0.79672 0.33257 0.24566 0.0
O702 O 0.75419 0.29533 0.25917 0.0
O703 O 0.76319 0.32823 0.26814 0.0
H704 H 0.74328 0.21225 0.25088 0.0
H705 H 0.74935 0.18076 0.25315 0.0
H706 H 0.80223 0.20757 0.27847 0.0
H707 H 0.7958 0.23874 0.27696 0.0
H708 H 0.81797 0.40097 0.31495 0.0
H709 H 0.81171 0.43193 0.31049 0.0
H710 H 0.77938 0.40802 0.25621 0.0
H711 H 0.78546 0.37686 0.2611 0.0
Pr712 Pr 0.04327 0.56431 0.54709 0.0
Pr713 Pr 0.03233 0.55977 0.49866 0.0
C714 C 0.05049 0.5782 0.58408 0.0
C715 C 0.04675 0.57408 0.60304 0.0
C716 C 0.06031 0.57802 0.61863 0.0
C717 C 0.05688 0.57699 0.63717 0.0
C718 C 0.03977 0.57216 0.64042 0.0
C719 C 0.02626 0.56708 0.62462 0.0
C720 C 0.02972 0.56797 0.6061 0.0
C721 C 0.04083 0.52729 0.52951 0.0
C722 C 1.00228 0.54669 0.52624 0.0
C723 C 0.0262 0.5459 0.4617 0.0
C724 C 0.03203 0.55006 0.44364 0.0
C725 C 0.0201 0.54551 0.42658 0.0
C726 C 0.02576 0.54664 0.40905 0.0
C727 C 0.04348 0.55214 0.40833 0.0
C728 C 0.05528 0.55781 0.42555 0.0
C729 C 0.04959 0.55687 0.44305 0.0
C730 C 0.03446 0.59674 0.51613 0.0
C731 C 0.07324 0.57788 0.51946 0.0
O732 O 0.03795 0.58175 0.57195 0.0
O733 O 0.0601 0.5684 0.57625 0.0
O734 O 0.03847 0.54183 0.52207 0.0
O735 O 0.04513 0.53182 0.54793 0.0
O736 O 0.00692 0.54536 0.50918 0.0
O737 O 0.01307 0.55495 0.54211 0.0
O738 O 0.03732 0.54102 0.47462 0.0
O739 O 0.01708 0.55686 0.46871 0.0
O740 O 0.03713 0.58237 0.52374 0.0
O741 O 0.0301 0.59203 0.49773 0.0
O742 O 0.06855 0.57892 0.5365 0.0
O743 O 0.06248 0.56975 0.50355 0.0
H744 H 0.07355 0.58265 0.61653 0.0
H745 H 0.06758 0.58066 0.649 0.0
H746 H 0.01292 0.56349 0.62656 0.0
H747 H 0.01903 0.56472 0.59426 0.0
H748 H 0.00648 0.54036 0.4268 0.0
H749 H 0.01631 0.54255 0.39607 0.0
H750 H 0.06902 0.56194 0.4256 0.0
H751 H 0.05903 0.5606 0.45608 0.0
Pr752 Pr 0.77168 0.80819 0.27334 0.0
Pr753 Pr 0.81212 0.82144 0.27983 0.0
C754 C 0.73814 0.79394 0.27504 0.0
C755 C 0.72392 0.7969 0.28501 0.0
C756 C 0.70912 0.80071 0.27452 0.0
C757 C 0.69503 0.8024 0.28325 0.0
C758 C 0.69532 0.80018 0.3027 0.0
C759 C 0.71028 0.79663 0.31327 0.0
C760 C 0.72442 0.79501 0.30454 0.0
C761 C 0.78481 0.84261 0.26026 0.0
C762 C 0.79343 0.83277 0.31508 0.0
C763 C 0.84553 0.83599 0.27786 0.0
C764 C 0.85953 0.83328 0.26739 0.0
C765 C 0.87388 0.82776 0.27694 0.0
C766 C 0.88775 0.82623 0.26776 0.0
C767 C 0.8877 0.83034 0.24881 0.0
C768 C 0.87322 0.83566 0.23917 0.0
C769 C 0.8593 0.83713 0.24835 0.0
C770 C 0.7989 0.78656 0.29214 0.0
C771 C 0.79054 0.79652 0.23819 0.0
O772 O 0.7508 0.78802 0.28452 0.0
O773 O 0.74324 0.80622 0.2634 0.0
O774 O 0.7906 0.83739 0.27586 0.0
O775 O 0.77099 0.83046 0.25144 0.0
O776 O 0.80711 0.83813 0.30694 0.0
O777 O 0.7794 0.82033 0.30598 0.0
O778 O 0.83277 0.84212 0.26888 0.0
O779 O 0.84062 0.82341 0.2893 0.0
O780 O 0.79321 0.79227 0.2768 0.0
O781 O 0.81268 0.79856 0.30133 0.0
O782 O 0.77672 0.79142 0.24619 0.0
O783 O 0.8046 0.80887 0.24735 0.0
H784 H 0.70836 0.80217 0.25944 0.0
H785 H 0.68389 0.80547 0.2747 0.0
H786 H 0.71092 0.79462 0.32822 0.0
H787 H 0.73561 0.79198 0.31303 0.0
H788 H 0.87446 0.82482 0.29164 0.0
H789 H 0.89852 0.82181 0.27555 0.0
H790 H 0.8728 0.83917 0.22467 0.0
H791 H 0.84851 0.84156 0.2406 0.0
Pr792 Pr 0.79612 0.33093 0.78663 0.0
Pr793 Pr 0.77502 0.28782 0.76244 0.0
C794 C 0.82021 0.36043 0.80607 0.0
C795 C 0.82495 0.38127 0.80682 0.0
C796 C 0.82972 0.39237 0.82462 0.0
C797 C 0.83413 0.41221 0.82573 0.0
C798 C 0.83394 0.4213 0.80903 0.0
C799 C 0.82902 0.41008 0.79118 0.0
C800 C 0.82449 0.39023 0.79009 0.0
C801 C 0.76142 0.3294 0.7716 0.0
C802 C 0.79096 0.32432 0.73894 0.0
C803 C 0.75084 0.25769 0.74429 0.0
C804 C 0.74544 0.2371 0.74543 0.0
C805 C 0.7435 0.22422 0.72907 0.0
C806 C 0.73774 0.20468 0.7297 0.0
C807 C 0.73366 0.19767 0.74668 0.0
C808 C 0.73592 0.21064 0.76314 0.0
C809 C 0.74182 0.23014 0.76255 0.0
C810 C 0.80987 0.28987 0.7774 0.0
C811 C 0.78042 0.29399 0.81 0.0
O812 O 0.82258 0.35051 0.79085 0.0
O813 O 0.80587 0.35326 0.81217 0.0
O814 O 0.76945 0.3164 0.77106 0.0
O815 O 0.77178 0.34472 0.78119 0.0
O816 O 0.77991 0.30769 0.73852 0.0
O817 O 0.79998 0.33459 0.75498 0.0
O818 O 0.74828 0.26909 0.75827 0.0
O819 O 0.76551 0.26373 0.73834 0.0
O820 O 0.80147 0.30246 0.77818 0.0
O821 O 0.79983 0.27453 0.7675 0.0
O822 O 0.79126 0.31079 0.81052 0.0
O823 O 0.77146 0.28384 0.79394 0.0
H824 H 0.82999 0.38569 0.83768 0.0
H825 H 0.83757 0.42042 0.83969 0.0
H826 H 0.82894 0.4166 0.77805 0.0
H827 H 0.82071 0.38191 0.77617 0.0
H828 H 0.74631 0.22929 0.71575 0.0
H829 H 0.73644 0.19507 0.71684 0.0
H830 H 0.73268 0.2058 0.7764 0.0
H831 H 0.74329 0.23975 0.77545 0.0
Pr832 Pr 0.77449 0.7975 0.77469 0.0
Pr833 Pr 0.81031 0.82456 0.77957 0.0
C834 C 0.74267 0.7785 0.77865 0.0
C835 C 0.72844 0.78201 0.78823 0.0
C836 C 0.71133 0.77391 0.77953 0.0
C837 C 0.69764 0.77699 0.78835 0.0
C838 C 0.70074 0.78821 0.80615 0.0
C839 C 0.71797 0.79645 0.81474 0.0
C840 C 0.73167 0.79343 0.80585 0.0
C841 C 0.78256 0.81258 0.74143 0.0
C842 C 0.78004 0.84305 0.79137 0.0
C843 C 0.84182 0.84423 0.77541 0.0
C844 C 0.85648 0.84163 0.76609 0.0
C845 C 0.86339 0.8255 0.76777 0.0
C846 C 0.87762 0.82374 0.75923 0.0
C847 C 0.88518 0.83801 0.74875 0.0
C848 C 0.87792 0.85391 0.74679 0.0
C849 C 0.86379 0.8557 0.75541 0.0
C850 C 0.80205 0.80978 0.81289 0.0
C851 C 0.80481 0.77886 0.7631 0.0
O852 O 0.75681 0.77718 0.78959 0.0
O853 O 0.74561 0.78797 0.76419 0.0
O854 O 0.78569 0.82177 0.75786 0.0
O855 O 0.77447 0.79498 0.74161 0.0
O856 O 0.79453 0.84714 0.78454 0.0
O857 O 0.77202 0.82527 0.79224 0.0
O858 O 0.82763 0.84489 0.76418 0.0
O859 O 0.83903 0.83496 0.79006 0.0
O860 O 0.79906 0.80045 0.79655 0.0
O861 O 0.81022 0.82733 0.81262 0.0
O862 O 0.79014 0.77481 0.76961 0.0
O863 O 0.81306 0.79662 0.7625 0.0
H864 H 0.70855 0.7652 0.76586 0.0
H865 H 0.68459 0.77071 0.78108 0.0
H866 H 0.72093 0.805 0.8285 0.0
H867 H 0.74478 0.79995 0.8128 0.0
H868 H 0.85792 0.81433 0.77582 0.0
H869 H 0.8829 0.81137 0.76119 0.0
H870 H 0.88309 0.86499 0.7385 0.0
H871 H 0.85859 0.86818 0.75377 0.0
Pr872 Pr 0.51735 0.54874 0.51207 0.0
Pr873 Pr 0.55722 0.56612 0.51575 0.0
C874 C 0.48355 0.54229 0.51425 0.0
C875 C 0.47037 0.55354 0.51407 0.0
C876 C 0.4529 0.54447 0.50846 0.0
C877 C 0.44024 0.55494 0.50845 0.0
C878 C 0.44482 0.57473 0.51406 0.0
C879 C 0.46242 0.58378 0.51956 0.0
C880 C 0.47507 0.57329 0.51954 0.0
C881 C 0.53211 0.54102 0.4806 0.0
C882 C 0.532 0.59401 0.50291 0.0
C883 C 0.59079 0.57241 0.51257 0.0
C884 C 0.6048 0.56224 0.51459 0.0
C885 C 0.62172 0.57246 0.52182 0.0
C886 C 0.63524 0.56314 0.52381 0.0
C887 C 0.63209 0.54338 0.51857 0.0
C888 C 0.61508 0.53317 0.51126 0.0
C889 C 0.60155 0.5425 0.50934 0.0
C890 C 0.54264 0.57375 0.54744 0.0
C891 C 0.54268 0.52112 0.526 0.0
O892 O 0.4958 0.54609 0.52925 0.0
O893 O 0.48917 0.53956 0.4982 0.0
O894 O 0.53499 0.5568 0.49065 0.0
O895 O 0.5208 0.528 0.48644 0.0
O896 O 0.54736 0.59066 0.50225 0.0
O897 O 0.51957 0.58146 0.50839 0.0
O898 O 0.57818 0.56602 0.4981 0.0
O899 O 0.58555 0.57757 0.52826 0.0
O900 O 0.53955 0.55809 0.53714 0.0
O901 O 0.5545 0.58654 0.5421 0.0
O902 O 0.52707 0.52414 0.52572 0.0
O903 O 0.5553 0.5338 0.52096 0.0
H904 H 0.44904 0.52925 0.50411 0.0
H905 H 0.42685 0.54755 0.50385 0.0
H906 H 0.46643 0.59893 0.52418 0.0
H907 H 0.48851 0.58057 0.52394 0.0
H908 H 0.6245 0.58771 0.52588 0.0
H909 H 0.6482 0.57148 0.52923 0.0
H910 H 0.61218 0.51791 0.50729 0.0
H911 H 0.58855 0.53428 0.5038 0.0
Pr912 Pr 0.05657 0.56206 0.03308 0.0
Pr913 Pr 0.01821 0.55975 0.01375 0.0
C914 C 0.08648 0.55593 0.05111 0.0
C915 C 0.10059 0.54647 0.048 0.0
C916 C 0.1121 0.553 0.03568 0.0
C917 C 0.12601 0.5447 0.0339 0.0
C918 C 0.12878 0.52966 0.04438 0.0
C919 C 0.11707 0.52297 0.05647 0.0
C920 C 0.10319 0.53132 0.05829 0.0
C921 C 0.05252 0.57815 0.99893 0.0
C922 C 0.03429 0.52376 0.00257 0.0
C923 C 0.98847 0.56587 0.9953 0.0
C924 C 0.97485 0.57612 0.99777 0.0
C925 C 0.96784 0.57648 0.01464 0.0
C926 C 0.95438 0.58559 0.01622 0.0
C927 C 0.94775 0.59463 0.00102 0.0
C928 C 0.95505 0.59448 0.9843 0.0
C929 C 0.96843 0.58531 0.9827 0.0
C930 C 0.02208 0.54335 0.04767 0.0
C931 C 0.04054 0.59833 0.04372 0.0
O932 O 0.07138 0.54503 0.05181 0.0
O933 O 0.08546 0.57108 0.04257 0.0
O934 O 0.04352 0.56273 0.00242 0.0
O935 O 0.06515 0.58521 0.01296 0.0
O936 O 0.02333 0.5338 0.99589 0.0
O937 O 0.04657 0.53059 0.01759 0.0
O938 O 0.00366 0.57616 0.99402 0.0
O939 O 0.98921 0.5514 0.00501 0.0
O940 O 0.03124 0.55886 0.04451 0.0
O941 O 0.00947 0.53649 0.03356 0.0
O942 O 0.0516 0.58846 0.05061 0.0
O943 O 0.02821 0.59119 0.02887 0.0
H944 H 0.11056 0.56473 0.02761 0.0
H945 H 0.13485 0.55044 0.02466 0.0
H946 H 0.1186 0.51125 0.06456 0.0
H947 H 0.09458 0.52604 0.06795 0.0
H948 H 0.97266 0.56961 0.02654 0.0
H949 H 0.94924 0.58566 0.02939 0.0
H950 H 0.95015 0.60108 0.97223 0.0
H951 H 0.97362 0.58517 0.96955 0.0
C952 C 0.01885 0.2417 0.94117 0.0
C953 C 1.00202 0.24385 0.9352 0.0
C954 C 0.02166 0.22633 0.95093 0.0
C955 C 0.99958 0.17785 0.95941 0.0
H956 H 0.03929 0.18404 0.99941 0.0
C957 C 0.01153 0.11616 0.00275 0.0
C958 C 0.0285 0.11363 0.00564 0.0
C959 C 0.00787 0.13252 0.99549 0.0
C960 C 0.0282 0.18203 0.98819 0.0
H961 H 0.97495 0.23165 0.9352 0.0
H962 H 0.97986 0.20508 0.95247 0.0
H963 H 0.03369 0.21163 0.98438 0.0
H964 H 0.05496 0.12666 0.00351 0.0
H965 H 0.04858 0.15504 0.9909 0.0
H966 H 0.99414 0.14821 0.96321 0.0
C967 C 0.9909 0.21507 0.94931 0.0
C968 C 0.025 0.19787 0.97952 0.0
C969 C 0.98809 0.23041 0.9395 0.0
C970 C 0.04174 0.12808 0.0015 0.0
C971 C 0.0381 0.14445 0.99434 0.0
C972 C 1.00275 0.16202 0.96813 0.0
C973 C 0.00772 0.21273 0.95504 0.0
C974 C 0.01073 0.19598 0.96488 0.0
C975 C 0.02109 0.14681 0.99105 0.0
C976 C 0.01719 0.16386 0.98251 0.0
H977 H 0.02989 0.25172 0.93805 0.0
H978 H 0.03478 0.2249 0.95484 0.0
H979 H 0.98862 0.17574 0.94801 0.0
H980 H 1.00099 0.10537 0.00577 0.0
H981 H 0.99465 0.13397 0.99334 0.0
C982 C 0.12459 0.84057 0.18829 0.0
C983 C 0.11925 0.8274 0.17173 0.0
C984 C 0.14017 0.84133 0.20047 0.0
C985 C 0.1708 0.81193 0.21458 0.0
H986 H 0.20406 0.85982 0.23201 0.0
C987 C 0.24052 0.81436 0.25026 0.0
C988 C 0.249 0.82935 0.2645 0.0
C989 C 0.22428 0.81426 0.23998 0.0
C990 C 0.19483 0.84632 0.22758 0.0
H991 H 0.12617 0.80473 0.15502 0.0
H992 H 0.15306 0.80595 0.17628 0.0
H993 H 0.17644 0.85966 0.21248 0.0
H994 H 0.24713 0.85585 0.27939 0.0
H995 H 0.21855 0.85544 0.26195 0.0
H996 H 0.18891 0.79851 0.22979 0.0
C997 C 0.14524 0.81567 0.17988 0.0
C998 C 0.179 0.84626 0.21632 0.0
C999 C 0.12985 0.81508 0.16762 0.0
C1000 C 0.24086 0.84412 0.26846 0.0
C1001 C 0.22453 0.84394 0.25833 0.0
C1002 C 0.18651 0.81199 0.22601 0.0
C1003 C 0.15056 0.82874 0.19648 0.0
C1004 C 0.16692 0.82904 0.20947 0.0
C1005 C 0.21605 0.82908 0.24382 0.0
C1006 C 0.19888 0.82916 0.23247 0.0
H1007 H 0.11674 0.85026 0.19186 0.0
H1008 H 0.14393 0.85152 0.2132 0.0
H1009 H 0.16164 0.79844 0.20977 0.0
H1010 H 0.24661 0.80295 0.24669 0.0
H1011 H 0.21841 0.80276 0.2287 0.0
C1012 C 0.49597 0.85694 0.43628 0.0
C1013 C 0.5097 0.84812 0.43495 0.0
C1014 C 0.49901 0.87562 0.44501 0.0
C1015 C 0.5337 0.91984 0.4594 0.0
H1016 H 0.50012 0.93507 0.48716 0.0
C1017 C 0.54482 0.99435 0.50243 0.0
C1018 C 0.53103 0.00342 0.49989 0.0
C1019 C 0.54266 0.97541 0.49477 0.0
C1020 C 0.50955 0.93106 0.47933 0.0
H1021 H 0.53741 0.85191 0.4422 0.0
H1022 H 0.54269 0.88436 0.45797 0.0
H1023 H 0.49579 0.90185 0.47431 0.0
H1024 H 0.50414 0.99962 0.48725 0.0
H1025 H 0.50034 0.9665 0.47407 0.0
H1026 H 0.54757 0.94911 0.4648 0.0
C1027 C 0.52957 0.87699 0.45184 0.0
C1028 C 0.50707 0.912 0.4719 0.0
C1029 C 0.52654 0.85832 0.44292 0.0
C1030 C 0.51504 0.99311 0.48945 0.0
C1031 C 0.51283 0.97409 0.482 0.0
C1032 C 0.53627 0.93887 0.46703 0.0
C1033 C 0.51585 0.88597 0.45285 0.0
C1034 C 0.519 0.90613 0.46164 0.0
C1035 C 0.5266 0.96501 0.48461 0.0
C1036 C 0.52413 0.94472 0.47691 0.0
H1037 H 0.48284 0.84958 0.43018 0.0
H1038 H 0.48812 0.88208 0.44516 0.0
H1039 H 0.54304 0.91599 0.45135 0.0
H1040 H 0.55732 0.00186 0.51038 0.0
H1041 H 0.55347 0.96876 0.49713 0.0
C1042 C 0.50456 0.30026 0.67313 0.0
C1043 C 0.51802 0.31628 0.67307 0.0
C1044 C 0.49069 0.30173 0.68236 0.0
C1045 C 0.46782 0.33707 0.69972 0.0
H1046 H 0.44702 0.29627 0.72688 0.0
C1047 C 0.41476 0.34422 0.74421 0.0
C1048 C 0.40076 0.3284 0.74286 0.0
C1049 C 0.42925 0.34271 0.73614 0.0
C1050 C 0.45257 0.30771 0.71919 0.0
H1051 H 0.52758 0.34637 0.68307 0.0
H1052 H 0.50352 0.34888 0.69938 0.0
H1053 H 0.47215 0.29379 0.71248 0.0
H1054 H 0.39111 0.29857 0.73176 0.0
H1055 H 0.41643 0.29594 0.71778 0.0
H1056 H 0.44824 0.35098 0.70643 0.0
C1057 C 0.50354 0.33521 0.69201 0.0
C1058 C 0.46699 0.30629 0.71092 0.0
C1059 C 0.51741 0.33375 0.68276 0.0
C1060 C 0.40172 0.31099 0.73332 0.0
C1061 C 0.41625 0.30947 0.72529 0.0
C1062 C 0.45343 0.3385 0.70802 0.0
C1063 C 0.48991 0.31925 0.6918 0.0
C1064 C 0.47479 0.32093 0.70103 0.0
C1065 C 0.43018 0.32534 0.72655 0.0
C1066 C 0.44559 0.32382 0.71782 0.0
H1067 H 0.50456 0.28658 0.66579 0.0
H1068 H 0.48036 0.28918 0.68169 0.0
H1069 H 0.47327 0.34847 0.69193 0.0
H1070 H 0.41466 0.35776 0.75177 0.0
H1071 H 0.43985 0.35514 0.73766 0.0
C1072 C 0.04898 0.87315 0.60578 0.0
C1073 C 0.06541 0.86917 0.60908 0.0
C1074 C 0.04665 0.88984 0.59817 0.0
C1075 C 0.07115 0.93814 0.59132 0.0
H1076 H 0.02882 0.9387 0.55776 0.0
C1077 C 0.05531 0.00869 0.56984 0.0
C1078 C 0.04648 0.0087 0.55127 0.0
C1079 C 0.05759 0.99163 0.57663 0.0
C1080 C 0.04082 0.93882 0.56696 0.0
H1081 H 0.09218 0.87945 0.60641 0.0
H1082 H 0.08807 0.90819 0.59269 0.0
H1083 H 0.03299 0.90897 0.56908 0.0
H1084 H 0.03333 0.99058 0.52522 0.0
H1085 H 0.03767 0.96103 0.53684 0.0
H1086 H 0.07923 0.96785 0.58871 0.0
C1087 C 0.07701 0.8987 0.59642 0.0
C1088 C 0.04312 0.92175 0.5737 0.0
C1089 C 0.07936 0.88209 0.60417 0.0
C1090 C 0.04009 0.99117 0.53965 0.0
C1091 C 0.0425 0.97414 0.54638 0.0
C1092 C 0.0689 0.95519 0.58448 0.0
C1093 C 0.06066 0.90296 0.59352 0.0
C1094 C 0.0583 0.92114 0.58602 0.0
C1095 C 0.05124 0.97408 0.565 0.0
C1096 C 0.05368 0.95582 0.57223 0.0
H1097 H 0.03795 0.8636 0.60951 0.0
H1098 H 0.0339 0.89266 0.59643 0.0
H1099 H 0.08293 0.9384 0.60098 0.0
H1100 H 0.06031 0.02187 0.57927 0.0
H1101 H 0.06414 0.99221 0.59115 0.0
C1102 C 0.47138 0.79656 0.86719 0.0
C1103 C 0.47191 0.79566 0.88689 0.0
C1104 C 0.45576 0.79581 0.85513 0.0
C1105 C 0.4081 0.78212 0.85239 0.0
H1106 H 0.4077 0.81714 0.81411 0.0
C1107 C 0.34515 0.78428 0.80199 0.0
C1108 C 0.34247 0.80257 0.7996 0.0
C1109 C 0.36124 0.78199 0.81074 0.0
C1110 C 0.40756 0.80728 0.82474 0.0
H1111 H 0.45632 0.79305 0.90925 0.0
H1112 H 0.42928 0.79192 0.88834 0.0
H1113 H 0.43498 0.81585 0.83336 0.0
H1114 H 0.3549 0.83273 0.8041 0.0
H1115 H 0.38269 0.82874 0.81933 0.0
H1116 H 0.38062 0.77402 0.84422 0.0
C1117 C 0.44085 0.79296 0.88211 0.0
C1118 C 0.42326 0.80639 0.83566 0.0
C1119 C 0.45643 0.79375 0.89416 0.0
C1120 C 0.35642 0.81842 0.80567 0.0
C1121 C 0.37246 0.81612 0.81433 0.0
C1122 C 0.39241 0.78298 0.84144 0.0
C1123 C 0.4403 0.79408 0.86245 0.0
C1124 C 0.42372 0.794 0.84984 0.0
C1125 C 0.37506 0.79792 0.81721 0.0
C1126 C 0.3919 0.79579 0.82767 0.0
H1127 H 0.48304 0.798 0.8611 0.0
H1128 H 0.45581 0.79651 0.84003 0.0
H1129 H 0.40797 0.77222 0.86299 0.0
H1130 H 0.33474 0.77174 0.79747 0.0
H1131 H 0.36283 0.76774 0.81252 0.0
C1132 C 0.5376 0.26027 0.08278 0.0
C1133 C 0.54183 0.26567 0.10259 0.0
C1134 C 0.53677 0.24161 0.07508 0.0
C1135 C 0.53338 0.19195 0.08748 0.0
H1136 H 0.54928 0.18497 0.03935 0.0
C1137 C 0.53871 0.11809 0.05153 0.0
C1138 C 0.5327 0.11449 0.03175 0.0
C1139 C 0.54011 0.13615 0.06137 0.0
C1140 C 0.54467 0.18663 0.05274 0.0
H1141 H 0.54839 0.25547 0.12986 0.0
H1142 H 0.54722 0.22303 0.11643 0.0
H1143 H 0.55117 0.21699 0.05407 0.0
H1144 H 0.52323 0.12689 0.00683 0.0
H1145 H 0.52572 0.15811 0.02378 0.0
H1146 H 0.52701 0.1614 0.08606 0.0
C1147 C 0.54428 0.23315 0.10682 0.0
C1148 C 0.54569 0.20505 0.06118 0.0
C1149 C 0.54505 0.25183 0.11453 0.0
C1150 C 0.52798 0.12919 0.02207 0.0
C1151 C 0.5295 0.14717 0.03178 0.0
C1152 C 0.53244 0.17345 0.07905 0.0
C1153 C 0.54024 0.22779 0.08695 0.0
C1154 C 0.53982 0.20802 0.07853 0.0
C1155 C 0.53574 0.151 0.05151 0.0
C1156 C 0.53782 0.17057 0.0614 0.0
H1157 H 0.53492 0.27047 0.07313 0.0
H1158 H 0.53326 0.23801 0.05976 0.0
H1159 H 0.5286 0.1936 0.10077 0.0
H1160 H 0.54254 0.10707 0.05931 0.0
H1161 H 0.545 0.13863 0.07656 0.0
C1162 C 0.06487 0.29553 0.37939 0.0
C1163 C 0.06612 0.31213 0.39168 0.0
C1164 C 0.07848 0.29351 0.36987 0.0
C1165 C 0.12553 0.31315 0.37174 0.0
H1166 H 0.11646 0.28666 0.32052 0.0
C1167 C 0.17948 0.31143 0.32674 0.0
C1168 C 0.17919 0.2938 0.31666 0.0
C1169 C 0.16563 0.31387 0.33563 0.0
C1170 C 0.11921 0.29396 0.33489 0.0
H1171 H 0.08252 0.33984 0.4032 0.0
H1172 H 0.10596 0.33656 0.3863 0.0
H1173 H 0.0924 0.29068 0.33619 0.0
H1174 H 0.16401 0.26482 0.3084 0.0
H1175 H 0.13982 0.26921 0.32361 0.0
H1176 H 0.15236 0.31659 0.37029 0.0
C1177 C 0.09469 0.32485 0.38434 0.0
C1178 C 0.1054 0.29624 0.34392 0.0
C1179 C 0.08116 0.32679 0.39396 0.0
C1180 C 0.16461 0.27871 0.31569 0.0
C1181 C 0.15072 0.2812 0.32446 0.0
C1182 C 0.13933 0.311 0.36265 0.0
C1183 C 0.09363 0.30811 0.37228 0.0
C1184 C 0.10835 0.30583 0.3625 0.0
C1185 C 0.15107 0.29879 0.33459 0.0
C1186 C 0.13635 0.30132 0.34413 0.0
H1187 H 0.05351 0.28391 0.37737 0.0
H1188 H 0.07723 0.28031 0.36093 0.0
H1189 H 0.12838 0.32029 0.38617 0.0
H1190 H 0.19031 0.32348 0.32756 0.0
H1191 H 0.16622 0.32768 0.34311 0.0
C1192 C 0.93936 0.08895 0.16475 0.0
C1193 C 0.92992 0.07016 0.16474 0.0
C1194 C 0.95312 0.09265 0.1547 0.0
C1195 C 0.98477 0.06939 0.1379 0.0
H1196 H 0.98874 0.10508 0.10018 0.0
C1197 C 0.02126 0.0611 0.07705 0.0
C1198 C 0.03163 0.07718 0.07147 0.0
C1199 C 0.01097 0.06311 0.09069 0.0
C1200 C 0.98801 0.09537 0.11097 0.0
H1201 H 0.92712 0.04062 0.15368 0.0
H1202 H 0.95108 0.04709 0.13633 0.0
H1203 H 0.96596 0.10342 0.11965 0.0
H1204 H 0.03955 0.108 0.07572 0.0
H1205 H 0.02126 0.11158 0.0998 0.0
H1206 H 0.00641 0.06093 0.12902 0.0
C1207 C 0.94795 0.05891 0.14423 0.0
C1208 C 0.97497 0.09439 0.12203 0.0
C1209 C 0.93416 0.05525 0.15406 0.0
C1210 C 0.03168 0.09539 0.0799 0.0
C1211 C 0.0212 0.09744 0.09354 0.0
C1212 C 0.99778 0.07043 0.12697 0.0
C1213 C 0.95774 0.07757 0.14472 0.0
C1214 C 0.97291 0.0809 0.13509 0.0
C1215 C 0.01078 0.08127 0.09905 0.0
C1216 C 0.99913 0.08291 0.11292 0.0
H1217 H 0.93635 0.10074 0.17281 0.0
H1218 H 0.96048 0.10716 0.15521 0.0
H1219 H 0.98365 0.05915 0.14818 0.0
H1220 H 0.02096 0.04689 0.07074 0.0
H1221 H 0.00283 0.05041 0.09438 0.0
C1222 C 0.26983 0.70311 0.44877 0.0
C1223 C 0.2783 0.71244 0.46682 0.0
C1224 C 0.27043 0.71259 0.43251 0.0
C1225 C 0.27983 0.76065 0.4162 0.0
H1226 H 0.28381 0.73206 0.36941 0.0
C1227 C 0.29265 0.79538 0.34741 0.0
C1228 C 0.28346 0.78534 0.32987 0.0
C1229 C 0.2918 0.78711 0.36443 0.0
C1230 C 0.28251 0.74021 0.38229 0.0
H1231 H 0.29392 0.73921 0.48193 0.0
H1232 H 0.29522 0.75575 0.45341 0.0
H1233 H 0.28312 0.71671 0.39846 0.0
H1234 H 0.26591 0.75876 0.3167 0.0
H1235 H 0.26444 0.74443 0.34631 0.0
H1236 H 0.27942 0.78424 0.39991 0.0
C1237 C 0.2879 0.74112 0.45189 0.0
C1238 C 0.2821 0.73139 0.399 0.0
C1239 C 0.28723 0.73162 0.46824 0.0
C1240 C 0.2732 0.76694 0.32987 0.0
C1241 C 0.27244 0.75865 0.34686 0.0
C1242 C 0.28033 0.76952 0.39947 0.0
C1243 C 0.27961 0.73167 0.43377 0.0
C1244 C 0.2806 0.74142 0.41616 0.0
C1245 C 0.28184 0.76855 0.36434 0.0
C1246 C 0.28154 0.75934 0.38227 0.0
H1247 H 0.26269 0.6884 0.44713 0.0
H1248 H 0.26356 0.70494 0.41891 0.0
H1249 H 0.27848 0.76877 0.42907 0.0
H1250 H 0.30068 0.80957 0.34801 0.0
H1251 H 0.29931 0.79507 0.37761 0.0
C1252 C 0.60125 0.97332 0.67528 0.0
C1253 C 0.59182 0.96126 0.6864 0.0
C1254 C 0.59284 0.98001 0.65967 0.0
C1255 C 0.55019 0.98844 0.64094 0.0
H1256 H 0.57274 0.00276 0.59817 0.0
C1257 C 0.52062 0.01966 0.57438 0.0
C1258 C 0.53094 0.03683 0.57073 0.0
C1259 C 0.52693 0.00928 0.58832 0.0
C1260 C 0.56634 0.99882 0.61007 0.0
H1261 H 0.56624 0.94574 0.68911 0.0
H1262 H 0.55153 0.95686 0.66128 0.0
H1263 H 0.58545 0.98445 0.62117 0.0
H1264 H 0.55552 0.05719 0.5794 0.0
H1265 H 0.56684 0.0386 0.60331 0.0
H1266 H 0.53085 0.00254 0.62933 0.0
C1267 C 0.56541 0.96166 0.66505 0.0
C1268 C 0.57362 0.98841 0.62329 0.0
C1269 C 0.57384 0.95514 0.6809 0.0
C1270 C 0.54743 0.04382 0.58171 0.0
C1271 C 0.55389 0.03324 0.59535 0.0
C1272 C 0.54274 0.99854 0.62746 0.0
C1273 C 0.57478 0.97458 0.65454 0.0
C1274 C 0.56587 0.98348 0.63917 0.0
C1275 C 0.54376 0.01579 0.59857 0.0
C1276 C 0.55098 0.00415 0.61219 0.0
H1277 H 0.61511 0.97838 0.67913 0.0
H1278 H 0.60052 0.99016 0.6522 0.0
H1279 H 0.54396 0.98517 0.65309 0.0
H1280 H 0.50781 0.01401 0.56617 0.0
H1281 H 0.51892 0.99586 0.59064 0.0
C1282 C 0.27366 0.3886 0.97934 0.0
C1283 C 0.28896 0.39871 0.9913 0.0
C1284 C 0.27394 0.38102 0.96072 0.0
C1285 C 0.30343 0.36834 0.92882 0.0
H1286 H 0.26617 0.37093 0.88865 0.0
C1287 C 0.30576 0.35168 0.84838 0.0
C1288 C 0.29058 0.34059 0.83689 0.0
C1289 C 0.3057 0.35869 0.86726 0.0
C1290 C 0.2766 0.36994 0.89972 0.0
H1291 H 0.31662 0.40859 0.99302 0.0
H1292 H 0.31705 0.39572 0.96058 0.0
H1293 H 0.26575 0.38286 0.92145 0.0
H1294 H 0.2634 0.3283 0.83634 0.0
H1295 H 0.26334 0.34054 0.8691 0.0
H1296 H 0.31435 0.35561 0.90695 0.0
C1297 C 0.30484 0.39333 0.96563 0.0
C1298 C 0.27634 0.37673 0.91858 0.0
C1299 C 0.30458 0.40081 0.98427 0.0
C1300 C 0.27534 0.33681 0.84471 0.0
C1301 C 0.27527 0.34392 0.86351 0.0
C1302 C 0.30373 0.36164 0.90992 0.0
C1303 C 0.28951 0.38344 0.95353 0.0
C1304 C 0.28974 0.376 0.93342 0.0
C1305 C 0.29044 0.35491 0.87505 0.0
C1306 C 0.2903 0.36231 0.89514 0.0
H1307 H 0.26142 0.38663 0.9843 0.0
H1308 H 0.26191 0.37322 0.95198 0.0
H1309 H 0.31385 0.36726 0.93985 0.0
H1310 H 0.31773 0.35486 0.84285 0.0
H1311 H 0.31758 0.36727 0.8757 0.0
C1312 C 0.94951 0.03766 0.24712 0.0
C1313 C 0.93236 0.03948 0.24336 0.0
C1314 C 0.95718 0.03611 0.2657 0.0
C1315 C 0.94551 0.02188 0.31115 0.0
H1316 H 0.99102 0.05186 0.3343 0.0
C1317 C 0.96788 0.0319 0.39185 0.0
C1318 C 0.98481 0.03081 0.39891 0.0
C1319 C 0.96262 0.03236 0.37242 0.0
C1320 C 0.97839 0.0432 0.32792 0.0
H1321 H 0.90998 0.04164 0.25621 0.0
H1322 H 0.92333 0.03903 0.28838 0.0
H1323 H 0.97985 0.0537 0.30081 0.0
H1324 H 0.00956 0.02953 0.3912 0.0
H1325 H 1.0003 0.03032 0.35705 0.0
H1326 H 0.94387 0.0115 0.33815 0.0
C1327 C 0.93077 0.03848 0.277 0.0
C1328 C 0.97202 0.04426 0.30879 0.0
C1329 C 0.92316 0.04007 0.25855 0.0
C1330 C 0.99647 0.0305 0.38615 0.0
C1331 C 0.99118 0.03095 0.36664 0.0
C1332 C 0.95186 0.0208 0.33018 0.0
C1333 C 0.94777 0.03626 0.28075 0.0
C1334 C 0.95536 0.03391 0.30037 0.0
C1335 C 0.97415 0.03171 0.35958 0.0
C1336 C 0.9682 0.03175 0.3389 0.0
H1337 H 0.95693 0.0372 0.23571 0.0
H1338 H 0.9703 0.03438 0.26822 0.0
H1339 H 0.93277 0.01342 0.3049 0.0
H1340 H 0.95872 0.03259 0.40139 0.0
H1341 H 0.94952 0.0334 0.36747 0.0
C1342 C 0.29207 0.75416 0.57659 0.0
C1343 C 0.28933 0.73435 0.57214 0.0
C1344 C 0.29269 0.76212 0.5953 0.0
C1345 C 0.29832 0.75164 0.64587 0.0
H1346 H 0.2782 0.79504 0.65348 0.0
C1347 C 0.29104 0.78431 0.72082 0.0
C1348 C 0.29586 0.80429 0.72417 0.0
C1349 C 0.2898 0.77498 0.70246 0.0
C1350 C 0.28397 0.78299 0.6516 0.0
H1351 H 0.28516 0.70739 0.58399 0.0
H1352 H 0.28593 0.7212 0.61647 0.0
H1353 H 0.27706 0.78044 0.62122 0.0
H1354 H 0.30319 0.83015 0.71106 0.0
H1355 H 0.30095 0.81398 0.67921 0.0
H1356 H 0.30508 0.75422 0.67638 0.0
C1357 C 0.2879 0.73066 0.60559 0.0
C1358 C 0.28338 0.77465 0.63307 0.0
C1359 C 0.28737 0.72272 0.5869 0.0
C1360 C 0.29939 0.81474 0.7089 0.0
C1361 C 0.29801 0.80547 0.69061 0.0
C1362 C 0.2988 0.75994 0.66444 0.0
C1363 C 0.29048 0.75048 0.61005 0.0
C1364 C 0.29072 0.75898 0.62991 0.0
C1365 C 0.29318 0.78549 0.68712 0.0
C1366 C 0.2918 0.77585 0.66751 0.0
H1367 H 0.29372 0.76356 0.56561 0.0
H1368 H 0.29504 0.77745 0.5982 0.0
H1369 H 0.30427 0.73975 0.64403 0.0
H1370 H 0.28831 0.77592 0.73236 0.0
H1371 H 0.28598 0.75957 0.70021 0.0
C1372 C 0.62133 0.96984 0.80707 0.0
C1373 C 0.61297 0.9634 0.78822 0.0
C1374 C 0.61183 0.97011 0.82184 0.0
C1375 C 0.56856 0.97284 0.83002 0.0
H1376 H 0.58706 0.96604 0.88174 0.0
C1377 C 0.53582 0.98951 0.89376 0.0
C1378 C 0.54709 0.00225 0.90855 0.0
C1379 C 0.5423 0.9803 0.87952 0.0
C1380 C 0.5817 0.96787 0.86734 0.0
H1381 H 0.58816 0.95138 0.77015 0.0
H1382 H 0.57157 0.9516 0.79605 0.0
H1383 H 0.60124 0.95752 0.8555 0.0
H1384 H 0.57405 0.0149 0.92012 0.0
H1385 H 0.58526 0.99857 0.89558 0.0
H1386 H 0.54927 0.9836 0.84197 0.0
C1387 C 0.58545 0.95677 0.79935 0.0
C1388 C 0.58984 0.96308 0.85233 0.0
C1389 C 0.59496 0.95658 0.78453 0.0
C1390 C 0.56498 0.00495 0.90918 0.0
C1391 C 0.57143 0.99561 0.89508 0.0
C1392 C 0.56036 0.97749 0.84502 0.0
C1393 C 0.59376 0.96384 0.81813 0.0
C1394 C 0.58367 0.96607 0.83359 0.0
C1395 C 0.56016 0.98348 0.87993 0.0
C1396 C 0.56716 0.97558 0.86387 0.0
H1397 H 0.63519 0.97519 0.81039 0.0
H1398 H 0.61864 0.97595 0.83607 0.0
H1399 H 0.56358 0.97554 0.81581 0.0
H1400 H 0.52199 0.98683 0.89304 0.0
H1401 H 0.53335 0.97089 0.86805 0.0
C1402 C 0.30557 0.40222 0.10547 0.0
C1403 C 0.29702 0.39186 0.08786 0.0
C1404 C 0.30459 0.39402 0.12253 0.0
C1405 C 0.29475 0.34769 0.14201 0.0
H1406 H 0.2858 0.37756 0.18532 0.0
C1407 C 0.27515 0.3137 0.20854 0.0
C1408 C 0.28092 0.32444 0.22654 0.0
C1409 C 0.27805 0.32194 0.19188 0.0
C1410 C 0.28858 0.36907 0.17351 0.0
H1411 H 0.28102 0.36456 0.07443 0.0
H1412 H 0.2794 0.35027 0.10412 0.0
H1413 H 0.28942 0.39181 0.15597 0.0
H1414 H 0.29456 0.35217 0.24121 0.0
H1415 H 0.30002 0.36646 0.21222 0.0
H1416 H 0.29402 0.32498 0.15952 0.0
C1417 C 0.28691 0.36473 0.10475 0.0
C1418 C 0.29062 0.37726 0.15662 0.0
C1419 C 0.28777 0.37297 0.08771 0.0
C1420 C 0.28989 0.34354 0.22754 0.0
C1421 C 0.2929 0.35176 0.21088 0.0
C1422 C 0.29283 0.33953 0.15893 0.0
C1423 C 0.29517 0.3752 0.1224 0.0
C1424 C 0.29361 0.36665 0.1406 0.0
C1425 C 0.28691 0.34112 0.19277 0.0
C1426 C 0.28958 0.35004 0.1749 0.0
H1427 H 0.31282 0.4168 0.10615 0.0
H1428 H 0.31127 0.40243 0.13584 0.0
H1429 H 0.29729 0.33919 0.13005 0.0
H1430 H 0.26816 0.29895 0.2073 0.0
H1431 H 0.27299 0.31332 0.17826 0.0
C1432 C 0.24827 0.95982 0.02931 0.0
C1433 C 0.26195 0.96537 0.04487 0.0
C1434 C 0.23423 0.96837 0.02799 0.0
C1435 C 0.2213 0.01167 0.04541 0.0
H1436 H 0.17486 0.98084 0.02846 0.0
C1437 C 0.16134 0.04254 0.04818 0.0
C1438 C 0.14762 0.03688 0.03267 0.0
C1439 C 0.17511 0.03359 0.04987 0.0
C1440 C 0.18775 0.9897 0.03301 0.0
H1441 H 0.27152 0.98423 0.07129 0.0
H1442 H 0.247 0.99905 0.06904 0.0
H1443 H 0.19919 0.96573 0.03098 0.0
H1444 H 0.13774 0.01743 0.0067 0.0
H1445 H 0.16178 0.00187 0.00959 0.0
H1446 H 0.20991 0.03566 0.04735 0.0
C1447 C 0.24722 0.98822 0.05774 0.0
C1448 C 0.20171 0.98102 0.03447 0.0
C1449 C 0.26124 0.97964 0.05909 0.0
C1450 C 0.14797 0.02196 0.01896 0.0
C1451 C 0.16176 0.01303 0.02063 0.0
C1452 C 0.20735 0.02035 0.04392 0.0
C1453 C 0.23354 0.9827 0.04218 0.0
C1454 C 0.21866 0.9919 0.04069 0.0
C1455 C 0.17555 0.01877 0.03607 0.0
C1456 C 0.19039 0.00948 0.03771 0.0
H1457 H 0.2484 0.94889 0.01808 0.0
H1458 H 0.22402 0.96393 0.0157 0.0
H1459 H 0.2342 0.02052 0.04996 0.0
H1460 H 0.16135 0.05377 0.05916 0.0
H1461 H 0.18534 0.03816 0.06212 0.0
C1462 C 0.70907 0.67121 0.02731 0.0
C1463 C 0.71997 0.66628 0.01509 0.0
C1464 C 0.69297 0.65922 0.02745 0.0
C1465 C 0.65867 0.62221 0.99788 0.0
H1466 H 0.64363 0.61202 0.04594 0.0
C1467 C 0.59303 0.57156 6e-05 0.0
C1468 C 0.58365 0.57627 0.01405 0.0
C1469 C 0.61008 0.58146 0.00061 0.0
C1470 C 0.64749 0.6149 0.03237 0.0
H1471 H 0.72244 0.64479 0.99339 0.0
H1472 H 0.69407 0.62391 0.99342 0.0
H1473 H 0.67252 0.6312 0.04594 0.0
H1474 H 0.58465 0.59513 0.03952 0.0
H1475 H 0.61427 0.61281 0.04031 0.0
H1476 H 0.63355 0.6065 0.98424 0.0
C1477 C 0.6981 0.6371 0.00294 0.0
C1478 C 0.66411 0.62583 0.03239 0.0
C1479 C 0.71436 0.64901 0.00298 0.0
C1480 C 0.59167 0.59103 0.0287 0.0
C1481 C 0.60869 0.60111 0.02915 0.0
C1482 C 0.64198 0.61146 0.99784 0.0
C1483 C 0.68725 0.64207 0.01522 0.0
C1484 C 0.66987 0.62969 0.01515 0.0
C1485 C 0.61813 0.59655 0.01503 0.0
C1486 C 0.6361 0.60769 0.0151 0.0
H1487 H 0.71297 0.68437 0.03687 0.0
H1488 H 0.68485 0.66357 0.03692 0.0
H1489 H 0.66264 0.62515 0.98436 0.0
H1490 H 0.58716 0.56018 0.98863 0.0
H1491 H 0.61695 0.57722 0.98971 0.0
C1492 C 0.71003 0.52403 0.32972 0.0
C1493 C 0.71734 0.54147 0.34114 0.0
C1494 C 0.72033 0.51442 0.32059 0.0
C1495 C 0.76445 0.50887 0.32313 0.0
H1496 H 0.74735 0.4844 0.27132 0.0
C1497 C 0.79955 0.45796 0.28931 0.0
C1498 C 0.78853 0.44006 0.28234 0.0
C1499 C 0.79276 0.47385 0.29263 0.0
C1500 C 0.75233 0.49122 0.28575 0.0
H1501 H 0.74127 0.56235 0.35224 0.0
H1502 H 0.75932 0.54537 0.33637 0.0
H1503 H 0.73157 0.50523 0.28588 0.0
H1504 H 0.76187 0.42515 0.27213 0.0
H1505 H 0.75012 0.45271 0.27781 0.0
H1506 H 0.78477 0.49424 0.32337 0.0
C1507 C 0.74559 0.53921 0.33449 0.0
C1508 C 0.74329 0.50308 0.2941 0.0
C1509 C 0.73525 0.5489 0.34357 0.0
C1510 C 0.77076 0.43874 0.27729 0.0
C1511 C 0.764 0.4546 0.28058 0.0
C1512 C 0.77348 0.49697 0.31481 0.0
C1513 C 0.73818 0.52199 0.32273 0.0
C1514 C 0.74898 0.51154 0.31306 0.0
C1515 C 0.77485 0.47213 0.289 0.0
C1516 C 0.76722 0.48755 0.29624 0.0
H1517 H 0.69628 0.5179 0.32757 0.0
H1518 H 0.71432 0.50095 0.31194 0.0
H1519 H 0.76909 0.51513 0.3378 0.0
H1520 H 0.81334 0.45948 0.29302 0.0
H1521 H 0.80146 0.48728 0.29883 0.0
C1522 C 0.8511 0.4705 0.53187 0.0
C1523 C 0.84941 0.45299 0.53946 0.0
C1524 C 0.86744 0.48171 0.53109 0.0
C1525 C 0.9115 0.47762 0.5286 0.0
H1526 H 0.92467 0.53208 0.54439 0.0
C1527 C 0.97355 0.5251 0.5123 0.0
C1528 C 0.98421 0.53762 0.52766 0.0
C1529 C 0.95685 0.51565 0.51386 0.0
C1530 C 0.92116 0.51687 0.53998 0.0
H1531 H 0.86359 0.43366 0.5524 0.0
H1532 H 0.89198 0.45309 0.55082 0.0
H1533 H 0.89589 0.51385 0.54723 0.0
H1534 H 0.98541 0.55036 0.55657 0.0
H1535 H 0.95608 0.53392 0.55917 0.0
H1536 H 0.93664 0.48055 0.52129 0.0
C1537 C 0.88069 0.45813 0.54546 0.0
C1538 C 0.90467 0.50649 0.54147 0.0
C1539 C 0.8644 0.44706 0.54644 0.0
C1540 C 0.97758 0.54079 0.54448 0.0
C1541 C 0.96076 0.53146 0.54595 0.0
C1542 C 0.92784 0.48801 0.52689 0.0
C1543 C 0.88239 0.4755 0.53766 0.0
C1544 C 0.89972 0.48673 0.53588 0.0
C1545 C 0.95032 0.51859 0.53073 0.0
C1546 C 0.93287 0.50773 0.53258 0.0
H1547 H 0.8398 0.47549 0.52642 0.0
H1548 H 0.86838 0.495 0.52491 0.0
H1549 H 0.90799 0.46245 0.52403 0.0
H1550 H 0.97819 0.52227 0.49913 0.0
H1551 H 0.94904 0.50597 0.50183 0.0
C1552 C 0.39933 0.18746 0.3003 0.0
C1553 C 0.41445 0.19107 0.29231 0.0
C1554 C 0.38573 0.19569 0.29391 0.0
C1555 C 0.3758 0.23594 0.27055 0.0
H1556 H 0.32875 0.20552 0.26162 0.0
C1557 C 0.32048 0.2711 0.24967 0.0
C1558 C 0.30748 0.26745 0.26086 0.0
C1559 C 0.33187 0.25922 0.24891 0.0
C1560 C 0.34181 0.2142 0.26407 0.0
H1561 H 0.42732 0.20646 0.27165 0.0
H1562 H 0.40359 0.22098 0.26065 0.0
H1563 H 0.35268 0.19051 0.27056 0.0
H1564 H 0.2952 0.24768 0.27866 0.0
H1565 H 0.31534 0.22716 0.27775 0.0
H1566 H 0.3651 0.25976 0.26486 0.0
C1567 C 0.40228 0.21175 0.27182 0.0
C1568 C 0.35548 0.20562 0.26922 0.0
C1569 C 0.41586 0.20344 0.27813 0.0
C1570 C 0.30509 0.25079 0.26989 0.0
C1571 C 0.31665 0.23902 0.26933 0.0
C1572 C 0.36216 0.24453 0.26553 0.0
C1573 C 0.38702 0.20778 0.2795 0.0
C1574 C 0.37258 0.2165 0.27279 0.0
C1575 C 0.33063 0.24362 0.25955 0.0
C1576 C 0.34499 0.23382 0.2625 0.0
H1577 H 0.39783 0.17797 0.31123 0.0
H1578 H 0.37421 0.19266 0.30031 0.0
H1579 H 0.38884 0.24471 0.27341 0.0
H1580 H 0.32245 0.28373 0.24234 0.0
H1581 H 0.34222 0.26285 0.2408 0.0
C1582 C 0.3157 0.15575 0.51208 0.0
C1583 C 0.31896 0.1757 0.5129 0.0
C1584 C 0.32924 0.14643 0.51246 0.0
C1585 C 0.37688 0.15494 0.52585 0.0
H1586 H 0.37084 0.10805 0.49264 0.0
C1587 C 0.43414 0.122 0.51313 0.0
C1588 C 0.43145 0.10205 0.51158 0.0
C1589 C 0.42036 0.13074 0.51405 0.0
C1590 C 0.37269 0.121 0.50219 0.0
H1591 H 0.33909 0.20146 0.51468 0.0
H1592 H 0.36254 0.18527 0.51513 0.0
H1593 H 0.34687 0.12353 0.49277 0.0
H1594 H 0.41217 0.07571 0.51046 0.0
H1595 H 0.38822 0.09092 0.51208 0.0
H1596 H 0.40273 0.15248 0.53517 0.0
C1597 C 0.34958 0.17679 0.51449 0.0
C1598 C 0.35893 0.12989 0.50227 0.0
C1599 C 0.33607 0.18609 0.5141 0.0
C1600 C 0.41468 0.09109 0.5113 0.0
C1601 C 0.40092 0.09982 0.51221 0.0
C1602 C 0.39065 0.14606 0.52576 0.0
C1603 C 0.34637 0.15684 0.5137 0.0
C1604 C 0.36086 0.14703 0.51402 0.0
C1605 C 0.40354 0.11976 0.51346 0.0
C1606 C 0.38877 0.12902 0.51387 0.0
H1607 H 0.30269 0.14731 0.51119 0.0
H1608 H 0.3263 0.13106 0.51203 0.0
H1609 H 0.37877 0.16794 0.53533 0.0
H1610 H 0.44682 0.13088 0.51313 0.0
H1611 H 0.42284 0.14611 0.51476 0.0
C1612 C 0.70207 0.65397 0.3431 0.0
C1613 C 0.70944 0.64335 0.35627 0.0
C1614 C 0.71211 0.67034 0.33788 0.0
C1615 C 0.75073 0.70829 0.35061 0.0
H1616 H 0.75149 0.70462 0.29622 0.0
C1617 C 0.79633 0.76489 0.31761 0.0
C1618 C 0.78982 0.76965 0.29974 0.0
C1619 C 0.78715 0.74942 0.32521 0.0
C1620 C 0.75125 0.70608 0.31139 0.0
H1621 H 0.73277 0.64235 0.37536 0.0
H1622 H 0.75026 0.67142 0.36649 0.0
H1623 H 0.73356 0.67897 0.30924 0.0
H1624 H 0.76889 0.76184 0.27559 0.0
H1625 H 0.75248 0.73553 0.28911 0.0
H1626 H 0.76792 0.7357 0.35276 0.0
C1627 C 0.73675 0.6668 0.36009 0.0
C1628 C 0.74104 0.69132 0.31883 0.0
C1629 C 0.72677 0.65019 0.36511 0.0
C1630 C 0.77415 0.75854 0.28946 0.0
C1631 C 0.76484 0.74331 0.29716 0.0
C1632 C 0.76074 0.72328 0.34312 0.0
C1633 C 0.72962 0.67661 0.34598 0.0
C1634 C 0.74063 0.69235 0.33846 0.0
C1635 C 0.77119 0.73854 0.31516 0.0
C1636 C 0.76106 0.7224 0.32337 0.0
H1637 H 0.68877 0.64913 0.33605 0.0
H1638 H 0.70633 0.67782 0.32709 0.0
H1639 H 0.75056 0.70933 0.36581 0.0
H1640 H 0.80845 0.7732 0.32578 0.0
H1641 H 0.79261 0.74597 0.33893 0.0
C1642 C 0.90767 0.58721 0.82659 0.0
C1643 C 0.90356 0.59826 0.81205 0.0
C1644 C 0.89729 0.56918 0.82708 0.0
C1645 C 0.86688 0.5301 0.79522 0.0
H1646 H 0.85993 0.5095 0.84271 0.0
C1647 C 0.83063 0.45237 0.79741 0.0
C1648 C 0.83924 0.44238 0.81023 0.0
C1649 C 0.8361 0.47214 0.79816 0.0
C1650 C 0.86179 0.51508 0.82935 0.0
H1651 H 0.88493 0.59944 0.78711 0.0
H1652 H 0.86669 0.56802 0.78812 0.0
H1653 H 0.87348 0.54319 0.84326 0.0
H1654 H 0.86034 0.44537 0.83389 0.0
H1655 H 0.86971 0.4798 0.83532 0.0
H1656 H 0.85546 0.5019 0.78135 0.0
C1657 C 0.87811 0.57317 0.79894 0.0
C1658 C 0.86956 0.53434 0.82966 0.0
C1659 C 0.88852 0.5912 0.79842 0.0
C1660 C 0.85322 0.45263 0.82402 0.0
C1661 C 0.85861 0.47238 0.82484 0.0
C1662 C 0.85904 0.51086 0.79491 0.0
C1663 C 0.88254 0.56183 0.81309 0.0
C1664 C 0.87253 0.54197 0.81263 0.0
C1665 C 0.8502 0.48231 0.81183 0.0
C1666 C 0.85675 0.50308 0.81201 0.0
H1667 H 0.91917 0.59224 0.83731 0.0
H1668 H 0.9012 0.56072 0.83803 0.0
H1669 H 0.86919 0.53545 0.78187 0.0
H1670 H 0.81964 0.44494 0.78681 0.0
H1671 H 0.8293 0.47948 0.78806 0.0
C1672 C 0.0886 0.8897 0.10905 0.0
C1673 C 0.0748 0.87582 0.11299 0.0
C1674 C 0.08555 0.90472 0.09887 0.0
C1675 C 0.05136 0.92072 0.06738 0.0
H1676 H 0.08104 0.97092 0.0843 0.0
C1677 C 0.0339 0.98993 0.04404 0.0
C1678 C 0.0472 0.0046 0.04036 0.0
C1679 C 0.03757 0.97367 0.05146 0.0
C1680 C 0.07275 0.95697 0.0792 0.0
H1681 H 0.04691 0.86679 0.10897 0.0
H1682 H 0.0416 0.8931 0.09155 0.0
H1683 H 0.08679 0.94371 0.09985 0.0
H1684 H 0.07485 0.01335 0.0413 0.0
H1685 H 0.08121 0.98497 0.05417 0.0
H1686 H 0.03713 0.93414 0.04697 0.0
C1687 C 0.05481 0.89225 0.09605 0.0
C1688 C 0.07606 0.9413 0.08812 0.0
C1689 C 0.05786 0.87717 0.10616 0.0
C1690 C 0.06425 0.00239 0.04396 0.0
C1691 C 0.06793 0.98615 0.05148 0.0
C1692 C 0.048 0.93642 0.05852 0.0
C1693 C 0.06862 0.90636 0.09241 0.0
C1694 C 0.06537 0.92295 0.08242 0.0
C1695 C 0.05465 0.97165 0.05548 0.0
C1696 C 0.0586 0.95477 0.06437 0.0
H1697 H 0.10181 0.88907 0.11399 0.0
H1698 H 0.09652 0.91508 0.09608 0.0
H1699 H 0.043 0.90681 0.06234 0.0
H1700 H 0.02061 0.9911 0.04147 0.0
H1701 H 0.02703 0.9629 0.05453 0.0
C1702 C 0.9471 0.30608 0.88482 0.0
C1703 C 0.95795 0.29439 0.87983 0.0
C1704 C 0.93164 0.30576 0.8728 0.0
C1705 C 0.89829 0.27594 0.83542 0.0
H1706 H 0.88687 0.32366 0.8243 0.0
C1707 C 0.83643 0.27729 0.78334 0.0
C1708 C 0.82758 0.29135 0.78755 0.0
C1709 C 0.85281 0.27799 0.79361 0.0
C1710 C 0.88969 0.31018 0.82744 0.0
H1711 H 0.96091 0.273 0.85833 0.0
H1712 H 0.93361 0.27217 0.83745 0.0
H1713 H 0.91429 0.32396 0.84421 0.0
H1714 H 0.82883 0.31713 0.80583 0.0
H1715 H 0.85715 0.31814 0.82416 0.0
H1716 H 0.87354 0.26209 0.81927 0.0
C1717 C 0.9372 0.28166 0.85067 0.0
C1718 C 0.90548 0.31038 0.8388 0.0
C1719 C 0.95285 0.28219 0.86259 0.0
C1720 C 0.83546 0.30623 0.80213 0.0
C1721 C 0.85176 0.30681 0.81258 0.0
C1722 C 0.88239 0.27573 0.82427 0.0
C1723 C 0.92649 0.29356 0.8556 0.0
C1724 C 0.90994 0.29327 0.84297 0.0
C1725 C 0.86065 0.29262 0.80856 0.0
C1726 C 0.87781 0.29285 0.82014 0.0
H1727 H 0.95064 0.31571 0.89795 0.0
H1728 H 0.92358 0.31494 0.8771 0.0
H1729 H 0.90128 0.26253 0.83858 0.0
H1730 H 0.83065 0.26569 0.77212 0.0
H1731 H 0.85931 0.26702 0.78975 0.0
C1732 C 0.58018 0.26901 0.61172 0.0
C1733 C 0.56631 0.27741 0.61383 0.0
C1734 C 0.57722 0.24983 0.60448 0.0
C1735 C 0.54532 0.21029 0.57506 0.0
H1736 H 0.57069 0.17835 0.60274 0.0
C1737 C 0.53075 0.12894 0.55339 0.0
C1738 C 0.54465 0.12003 0.55526 0.0
C1739 C 0.53302 0.14795 0.56089 0.0
C1740 C 0.56366 0.18707 0.59462 0.0
H1741 H 0.53842 0.27231 0.60957 0.0
H1742 H 0.53326 0.23885 0.59653 0.0
H1743 H 0.57551 0.21195 0.61445 0.0
H1744 H 0.5719 0.12421 0.56641 0.0
H1745 H 0.57602 0.15744 0.57892 0.0
H1746 H 0.53382 0.18568 0.55491 0.0
C1747 C 0.54642 0.24714 0.60061 0.0
C1748 C 0.56639 0.20634 0.60142 0.0
C1749 C 0.54939 0.26628 0.60812 0.0
C1750 C 0.56087 0.13057 0.56488 0.0
C1751 C 0.5632 0.14966 0.57216 0.0
C1752 C 0.54275 0.19107 0.5681 0.0
C1753 C 0.56032 0.23866 0.59893 0.0
C1754 C 0.55727 0.21816 0.59171 0.0
C1755 C 0.54932 0.15866 0.57025 0.0
C1756 C 0.55189 0.17915 0.57778 0.0
H1757 H 0.59338 0.27714 0.61602 0.0
H1758 H 0.58817 0.24374 0.60317 0.0
H1759 H 0.53822 0.21912 0.56718 0.0
H1760 H 0.51805 0.1212 0.54617 0.0
H1761 H 0.52193 0.15419 0.55944 0.0
C1762 C 0.56007 0.7977 0.36517 0.0
C1763 C 0.56278 0.80478 0.3846 0.0
C1764 C 0.57409 0.79772 0.35569 0.0
C1765 C 0.62049 0.82022 0.35873 0.0
H1766 H 0.62069 0.77513 0.32568 0.0
C1767 C 0.68188 0.80986 0.33055 0.0
C1768 C 0.67995 0.80117 0.31175 0.0
C1769 C 0.66743 0.81064 0.33901 0.0
C1770 C 0.62077 0.78795 0.33464 0.0
H1771 H 0.58238 0.81768 0.40919 0.0
H1772 H 0.6067 0.8177 0.39272 0.0
H1773 H 0.59567 0.77617 0.34077 0.0
H1774 H 0.66115 0.78624 0.28724 0.0
H1775 H 0.63604 0.78808 0.30175 0.0
H1776 H 0.64556 0.83205 0.35261 0.0
C1777 C 0.59377 0.81224 0.38474 0.0
C1778 C 0.6064 0.78853 0.34331 0.0
C1779 C 0.5798 0.81212 0.39423 0.0
C1780 C 0.66317 0.79329 0.30165 0.0
C1781 C 0.64873 0.79411 0.31008 0.0
C1782 C 0.63483 0.81967 0.35001 0.0
C1783 C 0.59112 0.80495 0.36539 0.0
C1784 C 0.60612 0.80463 0.35555 0.0
C1785 C 0.65064 0.80277 0.32889 0.0
C1786 C 0.63522 0.80349 0.33793 0.0
H1787 H 0.54714 0.79196 0.35732 0.0
H1788 H 0.5716 0.79218 0.34073 0.0
H1789 H 0.62061 0.83295 0.36786 0.0
H1790 H 0.69457 0.81624 0.33872 0.0
H1791 H 0.66944 0.81722 0.35359 0.0
C1792 C 0.01346 0.24181 0.44227 0.0
C1793 C 0.02704 0.25776 0.44949 0.0
C1794 C 0.01297 0.2243 0.44952 0.0
C1795 C 0.02987 0.20266 0.49144 0.0
H1796 H 0.02017 0.15661 0.45605 0.0
C1797 C 0.04276 0.13229 0.51599 0.0
C1798 C 0.03152 0.11493 0.50759 0.0
C1799 C 0.04129 0.14945 0.50895 0.0
C1800 C 0.02264 0.16924 0.46619 0.0
H1801 H 0.05055 0.2678 0.47026 0.0
H1802 H 0.0496 0.2374 0.48295 0.0
H1803 H 0.01894 0.18693 0.44395 0.0
H1804 H 0.00978 0.10218 0.48514 0.0
H1805 H 0.00697 0.13215 0.47312 0.0
H1806 H 0.03346 0.18509 0.51371 0.0
C1807 C 0.03931 0.23841 0.47172 0.0
C1808 C 0.02196 0.18667 0.45922 0.0
C1809 C 0.0399 0.25585 0.46436 0.0
C1810 C 0.01871 0.11523 0.49196 0.0
C1811 C 0.01716 0.13246 0.48498 0.0
C1812 C 0.03042 0.18524 0.49843 0.0
C1813 C 0.02593 0.22236 0.46429 0.0
C1814 C 0.02576 0.20364 0.47175 0.0
C1815 C 0.02844 0.14984 0.49337 0.0
C1816 C 0.02702 0.16828 0.4859 0.0
H1817 H 0.00335 0.24275 0.4308 0.0
H1818 H 1.0024 0.21227 0.44359 0.0
H1819 H 0.03259 0.21539 0.50152 0.0
H1820 H 0.0529 0.13267 0.52793 0.0
H1821 H 0.05046 0.1624 0.51559 0.0
C1822 C 0.6055 0.32401 0.18576 0.0
C1823 C 0.60281 0.31995 0.16577 0.0
C1824 C 0.6216 0.32459 0.1968 0.0
C1825 C 0.66084 0.30644 0.19439 0.0
H1826 H 0.68124 0.34307 0.23899 0.0
C1827 C 0.72064 0.29827 0.24482 0.0
C1828 C 0.7339 0.31465 0.25146 0.0
C1829 C 0.70455 0.29972 0.23548 0.0
C1830 C 0.67576 0.33282 0.2265 0.0
H1831 H 0.61519 0.31401 0.14172 0.0
H1832 H 0.64307 0.31524 0.1608 0.0
H1833 H 0.6536 0.34461 0.2203 0.0
H1834 H 0.74032 0.34553 0.25387 0.0
H1835 H 0.71217 0.34804 0.23732 0.0
H1836 H 0.68299 0.29483 0.20024 0.0
C1837 C 0.63272 0.31759 0.16806 0.0
C1838 C 0.65983 0.33358 0.2159 0.0
C1839 C 0.6167 0.31699 0.15709 0.0
C1840 C 0.73043 0.3326 0.24896 0.0
C1841 C 0.71426 0.33405 0.23953 0.0
C1842 C 0.67667 0.30567 0.20495 0.0
C1843 C 0.63534 0.3211 0.18808 0.0
C1844 C 0.65219 0.32041 0.19966 0.0
C1845 C 0.7012 0.31758 0.2324 0.0
C1846 C 0.68435 0.31879 0.22118 0.0
H1847 H 0.59508 0.32638 0.19292 0.0
H1848 H 0.62312 0.32722 0.21219 0.0
H1849 H 0.65529 0.2959 0.18215 0.0
H1850 H 0.72268 0.28419 0.24664 0.0
H1851 H 0.69471 0.28675 0.23058 0.0
C1852 C 0.52353 0.87551 0.92291 0.0
C1853 C 0.52865 0.86063 0.93202 0.0
C1854 C 0.52583 0.89357 0.93291 0.0
C1855 C 0.53342 0.91885 0.98208 0.0
H1856 H 0.54551 0.9639 0.95646 0.0
C1857 C 0.55187 0.99465 0.02294 0.0
C1858 C 0.54521 0.00889 0.01435 0.0
C1859 C 0.55021 0.97684 0.01271 0.0
C1860 C 0.54197 0.95147 0.96378 0.0
H1861 H 0.54034 0.85325 0.9589 0.0
H1862 H 0.54464 0.88488 0.97631 0.0
H1863 H 0.54229 0.93244 0.93934 0.0
H1864 H 0.53133 0.0155 0.98841 0.0
H1865 H 0.52865 0.98449 0.97024 0.0
H1866 H 0.53323 0.93792 0.00656 0.0
C1867 C 0.53855 0.88249 0.96145 0.0
C1868 C 0.5401 0.93337 0.95395 0.0
C1869 C 0.53618 0.86433 0.95144 0.0
C1870 C 0.53692 0.00496 0.99523 0.0
C1871 C 0.53535 0.98715 0.98488 0.0
C1872 C 0.53538 0.93694 0.99193 0.0
C1873 C 0.53341 0.89739 0.95232 0.0
C1874 C 0.53575 0.91676 0.96294 0.0
C1875 C 0.54184 0.97278 0.99357 0.0
C1876 C 0.53968 0.95351 0.98293 0.0
H1877 H 0.5176 0.87321 0.908 0.0
H1878 H 0.52139 0.90448 0.92541 0.0
H1879 H 0.52975 0.90647 0.98943 0.0
H1880 H 0.55833 0.99724 0.03768 0.0
H1881 H 0.55559 0.96627 0.0198 0.0
C1882 C 0.00847 0.81489 0.67267 0.0
C1883 C 0.02032 0.8321 0.67179 0.0
C1884 C 0.99387 0.81484 0.68115 0.0
C1885 C 0.96611 0.84672 0.69446 0.0
H1886 H 0.9495 0.80751 0.72557 0.0
C1887 C 0.91378 0.85294 0.7399 0.0
C1888 C 0.90069 0.83657 0.7401 0.0
C1889 C 0.92818 0.85179 0.73154 0.0
C1890 C 0.95387 0.81845 0.71675 0.0
H1891 H 0.02622 0.86269 0.67959 0.0
H1892 H 1.00103 0.86256 0.69454 0.0
H1893 H 0.97506 0.80662 0.71129 0.0
H1894 H 0.89269 0.80607 0.73161 0.0
H1895 H 0.91796 0.80406 0.71721 0.0
H1896 H 0.94503 0.85863 0.70001 0.0
C1897 C 0.0028 0.84911 0.68837 0.0
C1898 C 0.96852 0.81794 0.70855 0.0
C1899 C 0.01736 0.84917 0.6799 0.0
C1900 C 0.90257 0.81895 0.73194 0.0
C1901 C 0.91706 0.81779 0.72365 0.0
C1902 C 0.95152 0.84726 0.7027 0.0
C1903 C 0.99075 0.83198 0.68894 0.0
C1904 C 0.97491 0.83215 0.6974 0.0
C1905 C 0.92999 0.83423 0.72322 0.0
C1906 C 0.94527 0.83322 0.71406 0.0
H1907 H 0.01033 0.80148 0.66654 0.0
H1908 H 0.98481 0.80139 0.68118 0.0
H1909 H 0.97039 0.85767 0.68562 0.0
H1910 H 0.91303 0.86669 0.74641 0.0
H1911 H 0.93804 0.86468 0.7318 0.0
C1912 C 0.14711 0.08926 0.90502 0.0
C1913 C 0.15767 0.07772 0.89904 0.0
C1914 C 0.13271 0.08143 0.91285 0.0
C1915 C 0.11282 0.04304 0.93754 0.0
H1916 H 0.07066 0.05644 0.91554 0.0
C1917 C 0.04983 0.02562 0.96957 0.0
C1918 C 0.04444 0.04239 0.97385 0.0
C1919 C 0.06203 0.02549 0.9575 0.0
C1920 C 0.08228 0.05241 0.9217 0.0
H1921 H 0.16202 0.04913 0.89763 0.0
H1922 H 0.13689 0.03554 0.91179 0.0
H1923 H 0.09651 0.06555 0.90138 0.0
H1924 H 0.04672 0.07177 0.96846 0.0
H1925 H 0.06751 0.07146 0.94723 0.0
H1926 H 0.09875 0.03084 0.95855 0.0
C1927 C 0.13973 0.05058 0.91012 0.0
C1928 C 0.09706 0.05769 0.91367 0.0
C1929 C 0.15407 0.05838 0.90204 0.0
C1930 C 0.05065 0.05864 0.96526 0.0
C1931 C 0.06249 0.05843 0.95304 0.0
C1932 C 0.09799 0.03784 0.9457 0.0
C1933 C 0.12868 0.06196 0.91506 0.0
C1934 C 0.11261 0.05369 0.92194 0.0
C1935 C 0.06858 0.04201 0.94932 0.0
C1936 C 0.0828 0.04316 0.93826 0.0
H1937 H 0.14954 0.10421 0.90297 0.0
H1938 H 0.12453 0.09057 0.9169 0.0
H1939 H 0.12468 0.03976 0.9441 0.0
H1940 H 0.04532 0.01301 0.97628 0.0
H1941 H 0.0666 0.01269 0.95486 0.0
C1942 C 0.79976 0.40073 0.59095 0.0
C1943 C 0.79021 0.38878 0.5746 0.0
C1944 C 0.80102 0.39408 0.60888 0.0
C1945 C 0.79578 0.3496 0.63207 0.0
H1946 H 0.79236 0.38232 0.67639 0.0
C1947 C 0.7842 0.3208 0.70316 0.0
C1948 C 0.79275 0.33192 0.7204 0.0
C1949 C 0.78515 0.32801 0.68567 0.0
C1950 C 0.79359 0.37309 0.66422 0.0
H1951 H 0.7745 0.36043 0.56436 0.0
H1952 H 0.77653 0.34891 0.5956 0.0
H1953 H 0.79141 0.39431 0.64535 0.0
H1954 H 0.8092 0.35944 0.73259 0.0
H1955 H 0.81093 0.372 0.70197 0.0
H1956 H 0.7978 0.32832 0.65088 0.0
C1957 C 0.78326 0.36336 0.59454 0.0
C1958 C 0.79303 0.37996 0.64639 0.0
C1959 C 0.782 0.37001 0.57662 0.0
C1960 C 0.80245 0.35044 0.71963 0.0
C1961 C 0.80335 0.3577 0.70207 0.0
C1962 C 0.79634 0.34273 0.64987 0.0
C1963 C 0.79277 0.37531 0.61092 0.0
C1964 C 0.79396 0.36824 0.63005 0.0
C1965 C 0.79465 0.34658 0.68488 0.0
C1966 C 0.79508 0.35432 0.66615 0.0
H1967 H 0.80632 0.41526 0.58993 0.0
H1968 H 0.80862 0.40361 0.62112 0.0
H1969 H 0.79688 0.34029 0.61988 0.0
H1970 H 0.77658 0.30649 0.7031 0.0
H1971 H 0.77808 0.31913 0.67277 0.0
C1972 C 0.49286 0.13277 0.35562 0.0
C1973 C 0.4797 0.14259 0.35618 0.0
C1974 C 0.50255 0.1297 0.37247 0.0
C1975 C 0.49784 0.12279 0.42126 0.0
H1976 H 0.54646 0.12281 0.42756 0.0
C1977 C 0.55306 0.10371 0.48044 0.0
C1978 C 0.54393 0.08577 0.48377 0.0
C1979 C 0.54632 0.11302 0.46573 0.0
C1980 C 0.53292 0.12292 0.42609 0.0
H1981 H 0.46693 0.15777 0.37478 0.0
H1982 H 0.48384 0.15223 0.40438 0.0
H1983 H 0.53336 0.13668 0.40063 0.0
H1984 H 0.52096 0.06318 0.47408 0.0
H1985 H 0.50915 0.07945 0.44846 0.0
H1986 H 0.49728 0.10864 0.44643 0.0
C1987 C 0.48657 0.14687 0.39084 0.0
C1988 C 0.52542 0.13076 0.41066 0.0
C1989 C 0.47696 0.1501 0.37392 0.0
C1990 C 0.52818 0.07709 0.47191 0.0
C1991 C 0.52138 0.08644 0.45735 0.0
C1992 C 0.5053 0.11483 0.43659 0.0
C1993 C 0.4992 0.13628 0.39025 0.0
C1994 C 0.50773 0.13045 0.4079 0.0
C1995 C 0.5303 0.10457 0.45423 0.0
C1996 C 0.52283 0.11449 0.43893 0.0
H1997 H 0.49534 0.12691 0.34214 0.0
H1998 H 0.51208 0.12134 0.37156 0.0
H1999 H 0.48414 0.12217 0.4194 0.0
H2000 H 0.56524 0.11071 0.48941 0.0
H2001 H 0.55344 0.12699 0.46363 0.0
C2002 C 0.80552 0.73613 0.07654 0.0
C2003 C 0.78992 0.7268 0.06465 0.0
C2004 C 0.80561 0.74431 0.09503 0.0
C2005 C 0.77712 0.75988 0.12671 0.0
H2006 H 0.81362 0.75566 0.16703 0.0
C2007 C 0.77512 0.77741 0.207 0.0
C2008 C 0.79045 0.78823 0.21842 0.0
C2009 C 0.77503 0.77012 0.18818 0.0
C2010 C 0.80342 0.7571 0.15591 0.0
H2011 H 0.76214 0.71892 0.06289 0.0
H2012 H 0.76232 0.73275 0.09516 0.0
H2013 H 0.81354 0.74297 0.13433 0.0
H2014 H 0.81775 0.79974 0.21894 0.0
H2015 H 0.81757 0.78694 0.18625 0.0
H2016 H 0.76687 0.77373 0.14847 0.0
C2017 C 0.7745 0.73413 0.09013 0.0
C2018 C 0.80339 0.74989 0.13711 0.0
C2019 C 0.7744 0.72609 0.0716 0.0
C2020 C 0.8057 0.79145 0.21061 0.0
C2021 C 0.80563 0.78403 0.19187 0.0
C2022 C 0.77707 0.76696 0.14555 0.0
C2023 C 0.79012 0.74323 0.10219 0.0
C2024 C 0.79025 0.75119 0.12222 0.0
C2025 C 0.79029 0.77335 0.1804 0.0
C2026 C 0.79023 0.76567 0.16037 0.0
H2027 H 0.8177 0.73704 0.07161 0.0
H2028 H 0.81787 0.7515 0.10372 0.0
H2029 H 0.76694 0.76146 0.11564 0.0
H2030 H 0.76313 0.77468 0.21253 0.0
H2031 H 0.76303 0.7618 0.17978 0.0
C2032 C 0.12906 0.0757 0.80969 0.0
C2033 C 0.14657 0.07519 0.81217 0.0
C2034 C 0.11953 0.07428 0.79133 0.0
C2035 C 0.11977 0.05889 0.74074 0.0
H2036 H 0.09404 0.09728 0.72974 0.0
C2037 C 0.10558 0.08054 0.66583 0.0
C2038 C 0.08934 0.08398 0.65942 0.0
C2039 C 0.11013 0.07717 0.68465 0.0
C2040 C 0.10091 0.08625 0.73264 0.0
H2041 H 0.1677 0.07235 0.79741 0.0
H2042 H 0.15117 0.06996 0.7656 0.0
H2043 H 0.10618 0.09504 0.76275 0.0
H2044 H 0.06509 0.08664 0.66767 0.0
H2045 H 0.07307 0.08072 0.70075 0.0
H2046 H 0.11498 0.05047 0.71063 0.0
C2047 C 0.14473 0.0713 0.77775 0.0
C2048 C 0.10783 0.08496 0.75153 0.0
C2049 C 0.15425 0.07285 0.796 0.0
C2050 C 0.07767 0.08393 0.67222 0.0
C2051 C 0.08227 0.08066 0.69114 0.0
C2052 C 0.11287 0.06019 0.7219 0.0
C2053 C 0.12731 0.07212 0.77519 0.0
C2054 C 0.11776 0.07163 0.75568 0.0
C2055 C 0.09854 0.07721 0.69751 0.0
C2056 C 0.1038 0.07423 0.71762 0.0
H2057 H 0.12279 0.07747 0.82189 0.0
H2058 H 0.10609 0.07487 0.78975 0.0
H2059 H 0.12708 0.04823 0.74357 0.0
H2060 H 0.11475 0.08026 0.65623 0.0
H2061 H 0.12285 0.07482 0.68922 0.0
C2062 C 0.78396 0.38491 0.46866 0.0
C2063 C 0.7996 0.38714 0.4813 0.0
C2064 C 0.78148 0.37522 0.45029 0.0
C2065 C 0.80589 0.36059 0.41389 0.0
H2066 H 0.76164 0.32774 0.39069 0.0
C2067 C 0.79095 0.32972 0.33411 0.0
C2068 C 0.78139 0.31081 0.32953 0.0
C2069 C 0.79299 0.33907 0.35257 0.0
C2070 C 0.77412 0.33676 0.39699 0.0
H2071 H 0.82475 0.38045 0.48463 0.0
H2072 H 0.82033 0.36337 0.45279 0.0
H2073 H 0.76553 0.3432 0.4232 0.0
H2074 H 0.76671 0.28669 0.34068 0.0
H2075 H 0.7704 0.30284 0.37292 0.0
H2076 H 0.8146 0.35384 0.38784 0.0
C2077 C 0.81008 0.36941 0.45692 0.0
C2078 C 0.77629 0.34581 0.41558 0.0
C2079 C 0.81256 0.37909 0.47526 0.0
C2080 C 0.77404 0.30134 0.34378 0.0
C2081 C 0.77607 0.31065 0.36222 0.0
C2082 C 0.80371 0.35155 0.3953 0.0
C2083 C 0.79458 0.36751 0.4441 0.0
C2084 C 0.79222 0.35782 0.4243 0.0
C2085 C 0.78555 0.32965 0.36687 0.0
C2086 C 0.78781 0.33949 0.3866 0.0
H2087 H 0.77372 0.39096 0.4728 0.0
H2088 H 0.76944 0.37422 0.44077 0.0
H2089 H 0.81827 0.36993 0.42002 0.0
H2090 H 0.79705 0.3372 0.32352 0.0
H2091 H 0.80029 0.35372 0.35557 0.0
C2092 C 0.49433 0.1654 0.27369 0.0
C2093 C 0.47709 0.1563 0.27388 0.0
C2094 C 0.50213 0.16151 0.25804 0.0
C2095 C 0.49786 0.12403 0.21862 0.0
H2096 H 0.52633 0.16307 0.1955 0.0
C2097 C 0.51595 0.10752 0.14606 0.0
C2098 C 0.53332 0.11384 0.14429 0.0
C2099 C 0.50988 0.11419 0.16193 0.0
C2100 C 0.51854 0.15204 0.20196 0.0
H2101 H 0.45431 0.13658 0.25755 0.0
H2102 H 0.4678 0.13 0.23038 0.0
H2103 H 0.51436 0.17206 0.22357 0.0
H2104 H 0.5578 0.13275 0.15737 0.0
H2105 H 0.54715 0.14431 0.18538 0.0
H2106 H 0.50185 0.10403 0.1971 0.0
C2107 C 0.47542 0.13983 0.24241 0.0
C2108 C 0.51172 0.15716 0.21799 0.0
C2109 C 0.46767 0.14368 0.25796 0.0
C2110 C 0.54438 0.12749 0.15846 0.0
C2111 C 0.53827 0.13421 0.17438 0.0
C2112 C 0.50461 0.11894 0.20267 0.0
C2113 C 0.49279 0.14844 0.2424 0.0
C2114 C 0.50107 0.14321 0.22625 0.0
C2115 C 0.52105 0.12729 0.17644 0.0
C2116 C 0.51476 0.13291 0.19397 0.0
H2117 H 0.5019 0.17522 0.28575 0.0
H2118 H 0.51556 0.1683 0.25841 0.0
H2119 H 0.49004 0.11291 0.22497 0.0
H2120 H 0.50714 0.09687 0.13551 0.0
H2121 H 0.49647 0.10882 0.16302 0.0
C2122 C 0.78606 0.75364 0.9692 0.0
C2123 C 0.77894 0.73402 0.96862 0.0
C2124 C 0.78773 0.76198 0.95233 0.0
C2125 C 0.77214 0.75427 0.89985 0.0
H2126 H 0.81411 0.79213 0.89887 0.0
C2127 C 0.79055 0.78186 0.82976 0.0
C2128 C 0.79839 0.8013 0.8305 0.0
C2129 C 0.78752 0.7738 0.84649 0.0
C2130 C 0.8022 0.78176 0.89893 0.0
H2131 H 0.76777 0.70785 0.9497 0.0
H2132 H 0.77083 0.72234 0.92033 0.0
H2133 H 0.80996 0.7779 0.9281 0.0
H2134 H 0.8089 0.82762 0.8493 0.0
H2135 H 0.80354 0.81364 0.87846 0.0
H2136 H 0.76445 0.75809 0.87059 0.0
C2137 C 0.77495 0.73135 0.93383 0.0
C2138 C 0.79981 0.77359 0.91574 0.0
C2139 C 0.77327 0.72301 0.95071 0.0
C2140 C 0.80294 0.81256 0.84828 0.0
C2141 C 0.79994 0.80451 0.86501 0.0
C2142 C 0.77454 0.76245 0.88301 0.0
C2143 C 0.78235 0.75093 0.9344 0.0
C2144 C 0.78475 0.75973 0.91645 0.0
C2145 C 0.79229 0.78499 0.86438 0.0
C2146 C 0.78961 0.77632 0.88232 0.0
H2147 H 0.7905 0.7626 0.98271 0.0
H2148 H 0.79322 0.77714 0.95336 0.0
H2149 H 0.76027 0.74385 0.89991 0.0
H2150 H 0.78692 0.77281 0.81626 0.0
H2151 H 0.78177 0.75869 0.84545 0.0
C2152 C 0.84412 0.18079 0.01081 0.0
C2153 C 0.8281 0.17339 0.01611 0.0
C2154 C 0.85646 0.1699 0.01075 0.0
C2155 C 0.86937 0.12871 0.03098 0.0
H2156 H 0.89587 0.12964 0.98985 0.0
C2157 C 0.91529 0.07844 0.02303 0.0
C2158 C 0.93116 0.08607 0.01749 0.0
C2159 C 0.90256 0.08886 0.02268 0.0
C2160 C 0.88873 0.12938 0.00157 0.0
H2161 H 0.8125 0.14863 0.02548 0.0
H2162 H 0.834 0.12959 0.0253 0.0
H2163 H 0.87397 0.14814 0.98956 0.0
H2164 H 0.94595 0.11065 0.007 0.0
H2165 H 0.92393 0.12896 0.00677 0.0
H2166 H 0.88419 0.11004 0.04305 0.0
C2167 C 0.83708 0.14392 0.02135 0.0
C2168 C 0.87616 0.13998 0.00139 0.0
C2169 C 0.82472 0.1548 0.02136 0.0
C2170 C 0.93396 0.10439 0.01156 0.0
C2171 C 0.92124 0.11481 0.0112 0.0
C2172 C 0.88197 0.11813 0.03117 0.0
C2173 C 0.85311 0.15133 0.01605 0.0
C2174 C 0.86634 0.13982 0.01611 0.0
C2175 C 0.90537 0.10719 0.01677 0.0
C2176 C 0.89184 0.11835 0.01649 0.0
H2177 H 0.84719 0.19506 0.00672 0.0
H2178 H 0.86874 0.17615 0.00683 0.0
H2179 H 0.86223 0.12847 0.04269 0.0
H2180 H 0.91275 0.06448 0.02789 0.0
H2181 H 0.89044 0.08245 0.02687 0.0
C2182 C 0.3632 0.47736 0.05562 0.0
C2183 C 0.35778 0.46062 0.0427 0.0
C2184 C 0.3796 0.48935 0.05657 0.0
C2185 C 0.41472 0.50203 0.02876 0.0
H2186 H 0.44424 0.51864 0.078 0.0
C2187 C 0.48775 0.53505 0.03546 0.0
C2188 C 0.49581 0.54917 0.0507 0.0
C2189 C 0.47052 0.52535 0.0343 0.0
C2190 C 0.43612 0.51445 0.06413 0.0
H2191 H 0.36526 0.4436 0.02042 0.0
H2192 H 0.3936 0.46453 0.02194 0.0
H2193 H 0.41474 0.50034 0.07634 0.0
H2194 H 0.49215 0.56446 0.07652 0.0
H2195 H 0.46198 0.54803 0.07427 0.0
H2196 H 0.43591 0.51622 0.01647 0.0
C2197 C 0.38524 0.46841 0.03135 0.0
C2198 C 0.41919 0.5039 0.0632 0.0
C2199 C 0.369 0.45634 0.03058 0.0
C2200 C 0.48626 0.55359 0.06463 0.0
C2201 C 0.46899 0.54404 0.0634 0.0
C2202 C 0.43158 0.51275 0.02968 0.0
C2203 C 0.39079 0.48499 0.04442 0.0
C2204 C 0.40836 0.49736 0.0455 0.0
C2205 C 0.46088 0.52965 0.0483 0.0
C2206 C 0.44261 0.51893 0.04736 0.0
H2207 H 0.35487 0.48106 0.06516 0.0
H2208 H 0.38349 0.5021 0.06672 0.0
H2209 H 0.40662 0.49742 0.01491 0.0
H2210 H 0.49488 0.53119 0.02465 0.0
H2211 H 0.46491 0.51416 0.02265 0.0
C2212 C 0.38772 0.5988 0.73339 0.0
C2213 C 0.38207 0.58343 0.71887 0.0
C2214 C 0.37647 0.60977 0.73824 0.0
C2215 C 0.33709 0.62417 0.71971 0.0
H2216 H 0.338 0.63991 0.77321 0.0
C2217 C 0.29431 0.67249 0.74444 0.0
C2218 C 0.30301 0.68781 0.75828 0.0
C2219 C 0.30219 0.65773 0.73998 0.0
C2220 C 0.33765 0.63568 0.75821 0.0
H2221 H 0.36022 0.56759 0.69789 0.0
H2222 H 0.34052 0.58691 0.70638 0.0
H2223 H 0.35519 0.61784 0.7644 0.0
H2224 H 0.32647 0.69941 0.77877 0.0
H2225 H 0.34033 0.67386 0.7708 0.0
H2226 H 0.31986 0.64239 0.71352 0.0
C2227 C 0.35369 0.59043 0.71395 0.0
C2228 C 0.34748 0.62306 0.75318 0.0
C2229 C 0.36495 0.57937 0.70914 0.0
C2230 C 0.31955 0.68789 0.76788 0.0
C2231 C 0.32739 0.67314 0.76348 0.0
C2232 C 0.32726 0.63683 0.72475 0.0
C2233 C 0.35933 0.60565 0.72865 0.0
C2234 C 0.34758 0.61751 0.73389 0.0
C2235 C 0.31886 0.65799 0.74938 0.0
C2236 C 0.32774 0.64301 0.74405 0.0
H2237 H 0.40083 0.60234 0.74114 0.0
H2238 H 0.38126 0.62163 0.74939 0.0
H2239 H 0.33702 0.62022 0.70473 0.0
H2240 H 0.28158 0.67213 0.73674 0.0
H2241 H 0.29528 0.64616 0.72915 0.0
C2242 C 0.21435 0.6809 0.51411 0.0
C2243 C 0.22829 0.67209 0.51499 0.0
C2244 C 0.19758 0.67012 0.51335 0.0
C2245 C 0.16994 0.62123 0.50273 0.0
H2246 H 0.14195 0.64147 0.53505 0.0
C2247 C 0.09708 0.58761 0.50056 0.0
C2248 C 0.09134 0.58705 0.51823 0.0
C2249 C 0.11393 0.59724 0.49951 0.0
C2250 C 0.14962 0.63554 0.52603 0.0
H2251 H 0.23547 0.64493 0.5153 0.0
H2252 H 0.20615 0.62611 0.51411 0.0
H2253 H 0.17097 0.6596 0.53426 0.0
H2254 H 0.09912 0.59577 0.54873 0.0
H2255 H 0.12833 0.61231 0.54685 0.0
H2256 H 0.14856 0.59698 0.49476 0.0
C2257 C 0.20821 0.64137 0.51386 0.0
C2258 C 0.1662 0.64605 0.5254 0.0
C2259 C 0.22502 0.65217 0.51465 0.0
C2260 C 0.10298 0.59598 0.53483 0.0
C2261 C 0.11974 0.60558 0.53377 0.0
C2262 C 0.15327 0.61071 0.5033 0.0
C2263 C 0.19432 0.65026 0.51344 0.0
C2264 C 0.17658 0.63903 0.51378 0.0
C2265 C 0.12537 0.60655 0.51609 0.0
C2266 C 0.14296 0.61772 0.51505 0.0
H2267 H 0.21637 0.69619 0.51422 0.0
H2268 H 0.18715 0.67739 0.51272 0.0
H2269 H 0.17757 0.61548 0.49351 0.0
H2270 H 0.08849 0.58091 0.48748 0.0
H2271 H 0.11784 0.59781 0.48566 0.0
C2272 C 0.67588 0.93298 0.74674 0.0
C2273 C 0.65993 0.92499 0.75188 0.0
C2274 C 0.6906 0.92692 0.7538 0.0
C2275 C 0.7085 0.90236 0.79265 0.0
H2276 H 0.74035 0.89492 0.7587 0.0
C2277 C 0.75564 0.85375 0.80291 0.0
C2278 C 0.77095 0.85813 0.79532 0.0
C2279 C 0.74442 0.86593 0.80183 0.0
C2280 C 0.73183 0.89736 0.76852 0.0
H2281 H 0.64682 0.90398 0.76803 0.0
H2282 H 0.67252 0.893 0.77995 0.0
H2283 H 0.71533 0.90682 0.74699 0.0
H2284 H 0.78754 0.87976 0.78281 0.0
H2285 H 0.76795 0.90113 0.78108 0.0
H2286 H 0.72479 0.89214 0.81396 0.0
C2287 C 0.67368 0.90429 0.77082 0.0
C2288 C 0.71742 0.9041 0.76177 0.0
C2289 C 0.65892 0.91042 0.76381 0.0
C2290 C 0.77574 0.87589 0.78859 0.0
C2291 C 0.76449 0.88808 0.78748 0.0
C2292 C 0.72292 0.89554 0.7994 0.0
C2293 C 0.68971 0.91265 0.76606 0.0
C2294 C 0.70545 0.90639 0.77365 0.0
C2295 C 0.74833 0.88271 0.79315 0.0
C2296 C 0.73459 0.8927 0.78729 0.0
H2297 H 0.67714 0.94431 0.73765 0.0
H2298 H 0.70278 0.93377 0.74999 0.0
H2299 H 0.69966 0.90434 0.80225 0.0
H2300 H 0.75168 0.84027 0.80843 0.0
H2301 H 0.73207 0.86139 0.80633 0.0
C2302 C 0.74039 0.9384 0.54226 0.0
C2303 C 0.75751 0.94869 0.54329 0.0
C2304 C 0.72693 0.94776 0.54178 0.0
C2305 C 0.7176 0.99488 0.55313 0.0
H2306 H 0.67378 0.97174 0.52047 0.0
C2307 C 0.66155 0.03331 0.54314 0.0
C2308 C 0.64483 0.02232 0.54305 0.0
C2309 C 0.67539 0.02465 0.54244 0.0
C2310 C 0.68587 0.97831 0.52982 0.0
H2311 H 0.77385 0.977 0.54469 0.0
H2312 H 0.7503 0.99337 0.54369 0.0
H2313 H 0.69778 0.9563 0.52069 0.0
H2314 H 0.62964 0.99349 0.54212 0.0
H2315 H 0.65373 0.97838 0.54085 0.0
H2316 H 0.70564 0.01687 0.56229 0.0
C2317 C 0.74732 0.97803 0.54345 0.0
C2318 C 0.69966 0.96945 0.52995 0.0
C2319 C 0.76083 0.96863 0.54393 0.0
C2320 C 0.64227 0.00239 0.54194 0.0
C2321 C 0.65611 0.99372 0.54122 0.0
C2322 C 0.7038 0.00376 0.55298 0.0
C2323 C 0.73017 0.96769 0.5423 0.0
C2324 C 0.71568 0.97754 0.54171 0.0
C2325 C 0.67288 0.00474 0.54161 0.0
C2326 C 0.68772 0.99554 0.5414 0.0
H2327 H 0.73733 0.92303 0.54183 0.0
H2328 H 0.71397 0.93934 0.54124 0.0
H2329 H 0.72965 0.0014 0.56256 0.0
H2330 H 0.66397 0.04866 0.54364 0.0
H2331 H 0.68805 0.03356 0.54242 0.0
C2332 C 0.3747 0.47838 0.70886 0.0
C2333 C 0.36679 0.48769 0.69476 0.0
C2334 C 0.36522 0.46238 0.7153 0.0
C2335 C 0.32698 0.42331 0.70397 0.0
H2336 H 0.32903 0.42662 0.75884 0.0
C2337 C 0.28344 0.36665 0.73873 0.0
C2338 C 0.29068 0.36144 0.75607 0.0
C2339 C 0.29224 0.38224 0.731 0.0
C2340 C 0.32849 0.42528 0.74352 0.0
H2341 H 0.34299 0.48687 0.67561 0.0
H2342 H 0.32647 0.45851 0.6867 0.0
H2343 H 0.34579 0.45256 0.74498 0.0
H2344 H 0.31251 0.36864 0.77923 0.0
H2345 H 0.32825 0.39532 0.76543 0.0
H2346 H 0.31011 0.3958 0.70246 0.0
C2347 C 0.33998 0.46383 0.69283 0.0
C2348 C 0.33804 0.4402 0.7356 0.0
C2349 C 0.34942 0.48004 0.68653 0.0
C2350 C 0.3067 0.37229 0.76576 0.0
C2351 C 0.31563 0.38771 0.75791 0.0
C2352 C 0.3176 0.40822 0.71191 0.0
C2353 C 0.34771 0.45518 0.70761 0.0
C2354 C 0.33741 0.43932 0.71578 0.0
C2355 C 0.30856 0.39283 0.74037 0.0
C2356 C 0.31826 0.40901 0.73181 0.0
H2357 H 0.38807 0.48385 0.71548 0.0
H2358 H 0.37151 0.4558 0.72656 0.0
H2359 H 0.32639 0.42228 0.68864 0.0
H2360 H 0.27103 0.35858 0.73103 0.0
H2361 H 0.28622 0.38599 0.71769 0.0
C2362 C 0.162 0.5289 0.21747 0.0
C2363 C 0.1439 0.52523 0.21458 0.0
C2364 C 0.17188 0.5475 0.2187 0.0
C2365 C 0.16938 0.5967 0.23137 0.0
H2366 H 0.2111 0.60981 0.20962 0.0
C2367 C 0.22039 0.66842 0.21872 0.0
C2368 C 0.22276 0.67889 0.23676 0.0
C2369 C 0.21157 0.64928 0.21564 0.0
C2370 C 0.19943 0.60637 0.21569 0.0
H2371 H 0.12195 0.53808 0.20985 0.0
H2372 H 0.1392 0.57053 0.21183 0.0
H2373 H 0.19348 0.57719 0.20351 0.0
H2374 H 0.21852 0.67734 0.26594 0.0
H2375 H 0.20318 0.64389 0.2606 0.0
H2376 H 0.17514 0.62584 0.24334 0.0
C2377 C 0.14574 0.55904 0.21346 0.0
C2378 C 0.18943 0.58768 0.21232 0.0
C2379 C 0.13587 0.54045 0.2122 0.0
C2380 C 0.21662 0.6697 0.2518 0.0
C2381 C 0.20783 0.65057 0.24874 0.0
C2382 C 0.17938 0.61532 0.23477 0.0
C2383 C 0.16385 0.5628 0.21707 0.0
C2384 C 0.1743 0.58267 0.22012 0.0
C2385 C 0.20496 0.64025 0.23055 0.0
C2386 C 0.19453 0.62036 0.22701 0.0
H2387 H 0.16859 0.51747 0.21934 0.0
H2388 H 0.1858 0.54996 0.22163 0.0
H2389 H 0.15792 0.59322 0.2378 0.0
H2390 H 0.22483 0.67519 0.2068 0.0
H2391 H 0.20941 0.64175 0.20143 0.0
C2392 C 0.52103 0.7427 0.43592 0.0
C2393 C 0.50454 0.74648 0.43238 0.0
C2394 C 0.52355 0.72649 0.44428 0.0
C2395 C 0.50414 0.68939 0.47269 0.0
H2396 H 0.53451 0.66144 0.45211 0.0
C2397 C 0.51185 0.61551 0.49478 0.0
C2398 C 0.52849 0.61205 0.49653 0.0
C2399 C 0.50851 0.63206 0.48762 0.0
C2400 C 0.52615 0.66918 0.45822 0.0
H2401 H 0.47779 0.73622 0.43522 0.0
H2402 H 0.48218 0.70785 0.44974 0.0
H2403 H 0.52953 0.68988 0.43853 0.0
H2404 H 0.55477 0.62373 0.4927 0.0
H2405 H 0.54903 0.6525 0.48059 0.0
H2406 H 0.50081 0.66859 0.49243 0.0
C2407 C 0.4932 0.71754 0.44615 0.0
C2408 C 0.52329 0.68552 0.4504 0.0
C2409 C 0.49067 0.73377 0.43774 0.0
C2410 C 0.54176 0.62577 0.49141 0.0
C2411 C 0.53844 0.64227 0.48432 0.0
C2412 C 0.50704 0.673 0.48056 0.0
C2413 C 0.50965 0.71359 0.44936 0.0
C2414 C 0.51235 0.69595 0.4576 0.0
C2415 C 0.52173 0.64554 0.48205 0.0
C2416 C 0.5182 0.66276 0.47352 0.0
H2417 H 0.53204 0.7522 0.43208 0.0
H2418 H 0.53645 0.7241 0.44682 0.0
H2419 H 0.49575 0.69715 0.4787 0.0
H2420 H 0.5013 0.60526 0.49856 0.0
H2421 H 0.49547 0.63404 0.48597 0.0
C2422 C 0.61908 0.33939 0.68699 0.0
C2423 C 0.60753 0.32161 0.68112 0.0
C2424 C 0.63564 0.34057 0.69717 0.0
C2425 C 0.66182 0.31162 0.72473 0.0
H2426 H 0.70034 0.35115 0.7171 0.0
C2427 C 0.73331 0.31131 0.75166 0.0
C2428 C 0.74375 0.32844 0.76152 0.0
C2429 C 0.71665 0.31062 0.74213 0.0
C2430 C 0.68968 0.3401 0.71945 0.0
H2431 H 0.60447 0.2911 0.68098 0.0
H2432 H 0.63333 0.29305 0.69793 0.0
H2433 H 0.6715 0.34973 0.69988 0.0
H2434 H 0.74505 0.3584 0.76887 0.0
H2435 H 0.71609 0.35729 0.75192 0.0
H2436 H 0.68023 0.30171 0.74387 0.0
C2437 C 0.62955 0.3062 0.69537 0.0
C2438 C 0.67308 0.33932 0.70966 0.0
C2439 C 0.61296 0.30506 0.68548 0.0
C2440 C 0.73728 0.34495 0.76145 0.0
C2441 C 0.72074 0.34435 0.75168 0.0
C2442 C 0.67844 0.31224 0.73427 0.0
C2443 C 0.64115 0.32397 0.70147 0.0
C2444 C 0.65888 0.32505 0.71213 0.0
C2445 C 0.7102 0.32716 0.74197 0.0
C2446 C 0.69255 0.32649 0.73175 0.0
H2447 H 0.61527 0.35242 0.68391 0.0
H2448 H 0.64403 0.35454 0.70183 0.0
H2449 H 0.65125 0.30067 0.72742 0.0
H2450 H 0.73803 0.29847 0.75125 0.0
H2451 H 0.70889 0.2972 0.7346 0.0
C2452 C 0.01013 0.36677 0.91073 0.0
C2453 C 0.01568 0.35247 0.92042 0.0
C2454 C 0.0122 0.38502 0.92012 0.0
C2455 C 0.03809 0.41871 0.96036 0.0
H2456 H 0.99971 0.44319 0.95419 0.0
C2457 C 0.04127 0.49165 0.00233 0.0
C2458 C 0.03274 0.50429 0.99316 0.0
C2459 C 0.03931 0.47303 0.99381 0.0
C2460 C 0.01067 0.43674 0.95586 0.0
H2461 H 0.02792 0.34619 0.94758 0.0
H2462 H 0.03178 0.3783 0.96397 0.0
H2463 H 0.99612 0.41097 0.93881 0.0
H2464 H 0.01576 0.50738 0.96761 0.0
H2465 H 0.01278 0.47521 0.95248 0.0
H2466 H 0.05282 0.44459 0.97699 0.0
C2467 C 0.02577 0.37527 0.94908 0.0
C2468 C 0.00856 0.4182 0.94711 0.0
C2469 C 0.02348 0.35689 0.93973 0.0
C2470 C 0.02242 0.49797 0.97514 0.0
C2471 C 0.02061 0.47943 0.96652 0.0
C2472 C 0.04028 0.43736 0.96896 0.0
C2473 C 0.02006 0.3895 0.93939 0.0
C2474 C 0.02225 0.409 0.94921 0.0
C2475 C 0.02891 0.46663 0.9758 0.0
C2476 C 0.02661 0.44667 0.96678 0.0
H2477 H 0.00404 0.36386 0.89586 0.0
H2478 H 0.00783 0.39572 0.91222 0.0
H2479 H 0.04893 0.41206 0.96207 0.0
H2480 H 0.04922 0.49599 0.01631 0.0
H2481 H 0.04571 0.46357 0.00157 0.0
C2482 C 0.02139 0.83055 0.184 0.0
C2483 C 0.01857 0.82464 0.16429 0.0
C2484 C 0.00746 0.83114 0.19347 0.0
C2485 C 0.96121 0.83271 0.18423 0.0
H2486 H 0.96124 0.81728 0.23502 0.0
C2487 C 0.90052 0.82247 0.21988 0.0
C2488 C 0.90282 0.82944 0.23931 0.0
C2489 C 0.91474 0.82186 0.21096 0.0
C2490 C 0.96111 0.82181 0.22091 0.0
H2491 H 0.99883 0.81439 0.13918 0.0
H2492 H 0.97468 0.81512 0.15567 0.0
H2493 H 0.9859 0.8163 0.2192 0.0
H2494 H 0.92207 0.84148 0.26446 0.0
H2495 H 0.9468 0.84024 0.24895 0.0
H2496 H 0.93637 0.8381 0.18589 0.0
C2497 C 0.98763 0.81968 0.16379 0.0
C2498 C 0.97527 0.82128 0.21184 0.0
C2499 C 1.00151 0.81915 0.15434 0.0
C2500 C 0.91975 0.8357 0.24958 0.0
C2501 C 0.93396 0.83502 0.24068 0.0
C2502 C 0.94704 0.83317 0.19326 0.0
C2503 C 0.99039 0.8258 0.18346 0.0
C2504 C 0.97548 0.82666 0.19335 0.0
C2505 C 0.93164 0.82815 0.22124 0.0
C2506 C 0.94678 0.82769 0.21169 0.0
H2507 H 0.03437 0.83492 0.19208 0.0
H2508 H 0.0101 0.83611 0.20858 0.0
H2509 H 0.96104 0.83732 0.17016 0.0
H2510 H 0.8877 0.81724 0.21158 0.0
H2511 H 0.91248 0.81622 0.19604 0.0
C2512 C 0.57487 0.38352 0.11426 0.0
C2513 C 0.56034 0.36929 0.11578 0.0
C2514 C 0.57303 0.39999 0.10595 0.0
C2515 C 0.54113 0.42142 0.07657 0.0
H2516 H 0.57398 0.46856 0.09805 0.0
C2517 C 0.54096 0.49181 0.04318 0.0
C2518 C 0.54566 0.50908 0.05531 0.0
C2519 C 0.54274 0.47469 0.0502 0.0
C2520 C 0.56452 0.45562 0.09197 0.0
H2521 H 0.53243 0.36115 0.10944 0.0
H2522 H 0.52913 0.39006 0.09548 0.0
H2523 H 0.57669 0.43911 0.11075 0.0
H2524 H 0.55568 0.52175 0.08452 0.0
H2525 H 0.55826 0.49196 0.09689 0.0
H2526 H 0.52848 0.43812 0.0584 0.0
C2527 C 0.54204 0.38838 0.10029 0.0
C2528 C 0.56627 0.43854 0.09907 0.0
C2529 C 0.54391 0.37175 0.10837 0.0
C2530 C 0.55208 0.50876 0.0747 0.0
C2531 C 0.55365 0.49161 0.08178 0.0
C2532 C 0.53926 0.43855 0.06961 0.0
C2533 C 0.55658 0.40289 0.09917 0.0
C2534 C 0.55465 0.42113 0.09145 0.0
C2535 C 0.54907 0.47429 0.06964 0.0
C2536 C 0.55096 0.45594 0.07716 0.0
H2537 H 0.58774 0.38203 0.11966 0.0
H2538 H 0.58459 0.41048 0.10494 0.0
H2539 H 0.532 0.40838 0.07011 0.0
H2540 H 0.53609 0.49149 0.02813 0.0
H2541 H 0.53937 0.46183 0.04026 0.0
C2542 C 0.96426 0.30481 0.37538 0.0
C2543 C 0.9678 0.28701 0.37843 0.0
C2544 C 0.94834 0.306 0.36523 0.0
C2545 C 0.90998 0.27827 0.33109 0.0
H2546 H 0.88813 0.31668 0.35052 0.0
C2547 C 0.83956 0.28117 0.30081 0.0
C2548 C 0.83611 0.29929 0.29946 0.0
C2549 C 0.85569 0.27931 0.3099 0.0
C2550 C 0.89412 0.30602 0.34472 0.0
H2551 H 0.95737 0.25647 0.37286 0.0
H2552 H 0.92959 0.25855 0.35522 0.0
H2553 H 0.91606 0.31422 0.36712 0.0
H2554 H 0.84722 0.32967 0.30626 0.0
H2555 H 0.87521 0.32641 0.32171 0.0
H2556 H 0.888 0.27011 0.30864 0.0
C2557 C 0.93919 0.27161 0.36057 0.0
C2558 C 0.91017 0.30461 0.35427 0.0
C2559 C 0.95511 0.27042 0.37078 0.0
C2560 C 0.84929 0.31546 0.30712 0.0
C2561 C 0.86538 0.3136 0.31613 0.0
C2562 C 0.89391 0.27972 0.32148 0.0
C2563 C 0.93554 0.28942 0.35781 0.0
C2564 C 0.91837 0.29077 0.34756 0.0
C2565 C 0.86877 0.29551 0.31784 0.0
C2566 C 0.88579 0.29367 0.32812 0.0
H2567 H 0.97374 0.3179 0.38099 0.0
H2568 H 0.94609 0.31995 0.36314 0.0
H2569 H 0.91599 0.26758 0.3254 0.0
H2570 H 0.82973 0.26839 0.29514 0.0
H2571 H 0.85776 0.26514 0.31108 0.0
C2572 C 0.05148 0.75411 0.60764 0.0
C2573 C 0.04626 0.7677 0.59652 0.0
C2574 C 0.05014 0.73548 0.59946 0.0
C2575 C 0.02746 0.70049 0.55769 0.0
H2576 H 0.06439 0.67511 0.57153 0.0
C2577 C 0.03001 0.62978 0.51587 0.0
C2578 C 0.03577 0.61592 0.52606 0.0
C2579 C 0.03118 0.648 0.52493 0.0
C2580 C 0.05384 0.68186 0.56767 0.0
H2581 H 0.03552 0.7722 0.56799 0.0
H2582 H 0.03323 0.73978 0.55374 0.0
H2583 H 0.0666 0.70731 0.58634 0.0
H2584 H 0.04776 0.61047 0.5536 0.0
H2585 H 0.04947 0.64217 0.56967 0.0
H2586 H 0.01467 0.67509 0.53907 0.0
C2587 C 0.03822 0.74348 0.56885 0.0
C2588 C 0.05512 0.70038 0.57617 0.0
C2589 C 0.03962 0.76213 0.57701 0.0
C2590 C 0.04292 0.62074 0.54549 0.0
C2591 C 0.04409 0.639 0.55461 0.0
C2592 C 0.02616 0.68198 0.54924 0.0
C2593 C 0.04346 0.72988 0.57995 0.0
C2594 C 0.04199 0.71 0.5712 0.0
C2595 C 0.03818 0.65289 0.54445 0.0
C2596 C 0.03938 0.67243 0.554 0.0
H2597 H 0.05665 0.75786 0.62271 0.0
H2598 H 0.05412 0.72537 0.60851 0.0
H2599 H 0.01695 0.70729 0.55376 0.0
H2600 H 0.02457 0.62655 0.50082 0.0
H2601 H 0.02681 0.65835 0.5165 0.0
C2602 C 0.57193 0.79457 0.8782 0.0
C2603 C 0.57329 0.81117 0.89056 0.0
C2604 C 0.58556 0.79237 0.8688 0.0
C2605 C 0.63276 0.81124 0.871 0.0
H2606 H 0.62353 0.78529 0.81954 0.0
C2607 C 0.68672 0.80873 0.8261 0.0
C2608 C 0.68607 0.79114 0.8157 0.0
C2609 C 0.67297 0.8114 0.83507 0.0
C2610 C 0.62633 0.79244 0.83397 0.0
H2611 H 0.58999 0.83863 0.90241 0.0
H2612 H 0.61351 0.83501 0.88574 0.0
H2613 H 0.59955 0.78966 0.83518 0.0
H2614 H 0.67035 0.76247 0.80698 0.0
H2615 H 0.64635 0.76724 0.82233 0.0
H2616 H 0.65956 0.81417 0.86965 0.0
C2617 C 0.60209 0.82346 0.88361 0.0
C2618 C 0.61256 0.79491 0.84299 0.0
C2619 C 0.58852 0.8256 0.89309 0.0
C2620 C 0.67124 0.77633 0.81452 0.0
C2621 C 0.65745 0.77904 0.82337 0.0
C2622 C 0.64652 0.80888 0.86193 0.0
C2623 C 0.60088 0.80676 0.87142 0.0
C2624 C 0.61557 0.8043 0.86167 0.0
C2625 C 0.65814 0.7966 0.83378 0.0
C2626 C 0.64349 0.79939 0.84332 0.0
H2627 H 0.56043 0.78312 0.87598 0.0
H2628 H 0.58418 0.7792 0.85977 0.0
H2629 H 0.63564 0.81823 0.88549 0.0
H2630 H 0.69776 0.82059 0.8271 0.0
H2631 H 0.67384 0.82518 0.84277 0.0
C2632 C 0.43914 0.55143 0.64962 0.0
C2633 C 0.43344 0.56616 0.6588 0.0
C2634 C 0.4522 0.55562 0.63881 0.0
C2635 C 0.47495 0.5908 0.61228 0.0
H2636 H 0.51125 0.56383 0.62325 0.0
C2637 C 0.53205 0.59498 0.5701 0.0
C2638 C 0.53321 0.57673 0.56304 0.0
C2639 C 0.52168 0.59707 0.58386 0.0
C2640 C 0.50127 0.57156 0.62012 0.0
H2641 H 0.43624 0.59679 0.66291 0.0
H2642 H 0.45906 0.60405 0.6437 0.0
H2643 H 0.48844 0.56073 0.64244 0.0
H2644 H 0.52496 0.54648 0.56498 0.0
H2645 H 0.5072 0.55009 0.58895 0.0
H2646 H 0.48751 0.60097 0.58936 0.0
C2647 C 0.45345 0.58932 0.6451 0.0
C2648 C 0.48821 0.56972 0.63102 0.0
C2649 C 0.44043 0.58513 0.65608 0.0
C2650 C 0.52432 0.56072 0.57022 0.0
C2651 C 0.51422 0.5628 0.58403 0.0
C2652 C 0.48806 0.59259 0.60125 0.0
C2653 C 0.45976 0.5746 0.63685 0.0
C2654 C 0.47463 0.57878 0.62679 0.0
C2655 C 0.51268 0.58093 0.5909 0.0
C2656 C 0.50097 0.58243 0.6047 0.0
H2657 H 0.43396 0.53667 0.65131 0.0
H2658 H 0.45663 0.544 0.63225 0.0
H2659 H 0.46462 0.59797 0.60881 0.0
H2660 H 0.53872 0.6075 0.56461 0.0
H2661 H 0.52063 0.61119 0.58895 0.0
C2662 C 0.76952 0.20288 0.94711 0.0
C2663 C 0.77771 0.21248 0.96514 0.0
C2664 C 0.76962 0.21236 0.93083 0.0
C2665 C 0.77672 0.26045 0.91454 0.0
H2666 H 0.78181 0.23285 0.86767 0.0
C2667 C 0.78781 0.29598 0.84577 0.0
C2668 C 0.77898 0.28566 0.82823 0.0
C2669 C 0.78732 0.28767 0.8628 0.0
C2670 C 0.78019 0.2407 0.88058 0.0
H2671 H 0.79238 0.2397 0.98019 0.0
H2672 H 0.79283 0.25625 0.95163 0.0
H2673 H 0.78206 0.21742 0.89673 0.0
H2674 H 0.76236 0.25854 0.81504 0.0
H2675 H 0.7615 0.24415 0.84467 0.0
H2676 H 0.77506 0.28383 0.89827 0.0
C2677 C 0.7861 0.2414 0.95015 0.0
C2678 C 0.78031 0.23184 0.89728 0.0
C2679 C 0.78592 0.23189 0.96651 0.0
C2680 C 0.76937 0.26695 0.82822 0.0
C2681 C 0.76896 0.25862 0.84522 0.0
C2682 C 0.77668 0.26936 0.89781 0.0
C2683 C 0.77803 0.2317 0.93206 0.0
C2684 C 0.77844 0.24152 0.91446 0.0
C2685 C 0.77807 0.2688 0.86269 0.0
C2686 C 0.77828 0.25953 0.8806 0.0
H2687 H 0.76294 0.18797 0.94552 0.0
H2688 H 0.76296 0.2045 0.91725 0.0
H2689 H 0.77505 0.26827 0.92743 0.0
H2690 H 0.79536 0.31042 0.84637 0.0
H2691 H 0.79458 0.29586 0.87598 0.0
C2692 C 0.08813 0.45571 0.16529 0.0
C2693 C 0.08205 0.45757 0.18263 0.0
C2694 C 0.0795 0.46078 0.14874 0.0
C2695 C 0.03982 0.47538 0.12779 0.0
H2696 H 0.07183 0.50885 0.10286 0.0
C2697 C 0.01811 0.51347 0.06325 0.0
C2698 C 0.0271 0.53239 0.06317 0.0
C2699 C 0.02373 0.50247 0.07698 0.0
C2700 C 0.06272 0.49962 0.10973 0.0
H2701 H 0.06122 0.46442 0.19579 0.0
H2702 H 0.04636 0.47353 0.16705 0.0
H2703 H 0.08283 0.49111 0.12741 0.0
H2704 H 0.0486 0.55491 0.07766 0.0
H2705 H 0.05833 0.5358 0.10183 0.0
H2706 H 0.01974 0.48461 0.11056 0.0
C2707 C 0.05774 0.46809 0.16616 0.0
C2708 C 0.069 0.48918 0.12359 0.0
C2709 C 0.06632 0.46292 0.18269 0.0
C2710 C 0.0415 0.54031 0.07736 0.0
C2711 C 0.04713 0.52932 0.09108 0.0
C2712 C 0.03352 0.48586 0.1139 0.0
C2713 C 0.06466 0.46788 0.14921 0.0
C2714 C 0.05766 0.47713 0.13297 0.0
C2715 C 0.03844 0.5102 0.09089 0.0
C2716 C 0.04494 0.49833 0.10496 0.0
H2717 H 0.10009 0.45138 0.16471 0.0
H2718 H 0.08491 0.46 0.13577 0.0
H2719 H 0.03074 0.46613 0.13467 0.0
H2720 H 0.00698 0.507 0.05241 0.0
H2721 H 0.01683 0.48776 0.07638 0.0
C2722 C 0.81604 0.88348 0.48776 0.0
C2723 C 0.80556 0.89524 0.49356 0.0
C2724 C 0.81389 0.87591 0.46864 0.0
C2725 C 0.8146 0.87217 0.42622 0.0
H2726 H 0.76966 0.85747 0.39383 0.0
C2727 C 0.80761 0.85544 0.34452 0.0
C2728 C 0.79396 0.84047 0.33516 0.0
C2729 C 0.8085 0.8621 0.3637 0.0
C2730 C 0.78232 0.86133 0.40268 0.0
H2731 H 0.7843 0.90793 0.48379 0.0
H2732 H 0.78079 0.89514 0.45044 0.0
H2733 H 0.77188 0.86773 0.42763 0.0
H2734 H 0.77046 0.8208 0.33871 0.0
H2735 H 0.77221 0.83208 0.37218 0.0
H2736 H 0.82501 0.8652 0.40146 0.0
C2737 C 0.7905 0.89143 0.46068 0.0
C2738 C 0.78361 0.86748 0.42208 0.0
C2739 C 0.79256 0.89886 0.47985 0.0
C2740 C 0.78111 0.83245 0.34541 0.0
C2741 C 0.78207 0.83899 0.36464 0.0
C2742 C 0.8133 0.86591 0.40688 0.0
C2743 C 0.80129 0.88005 0.45475 0.0
C2744 C 0.79978 0.87304 0.43413 0.0
C2745 C 0.79584 0.85384 0.37411 0.0
C2746 C 0.79715 0.86047 0.39479 0.0
H2747 H 0.8261 0.88028 0.49797 0.0
H2748 H 0.82219 0.86688 0.46475 0.0
H2749 H 0.82731 0.87659 0.43491 0.0
H2750 H 0.81767 0.86205 0.33705 0.0
H2751 H 0.81911 0.8738 0.37034 0.0
C2752 C 0.4471 0.5539 0.75563 0.0
C2753 C 0.44519 0.53708 0.74343 0.0
C2754 C 0.45619 0.55609 0.7742 0.0
C2755 C 0.48589 0.53669 0.80757 0.0
H2756 H 0.45989 0.55274 0.84478 0.0
C2757 C 0.49793 0.52418 0.88701 0.0
C2758 C 0.49551 0.53801 0.90063 0.0
C2759 C 0.49424 0.5259 0.86755 0.0
C2760 C 0.46753 0.54858 0.83464 0.0
H2761 H 0.45227 0.50989 0.74068 0.0
H2762 H 0.46801 0.51365 0.7733 0.0
H2763 H 0.44967 0.55285 0.81106 0.0
H2764 H 0.48834 0.56499 0.90475 0.0
H2765 H 0.48216 0.56819 0.87083 0.0
H2766 H 0.50364 0.53215 0.8313 0.0
C2767 C 0.46255 0.52517 0.76843 0.0
C2768 C 0.46164 0.54864 0.81528 0.0
C2769 C 0.45346 0.52298 0.74978 0.0
C2770 C 0.48999 0.55394 0.89451 0.0
C2771 C 0.48644 0.55575 0.87509 0.0
C2772 C 0.49185 0.53671 0.82702 0.0
C2773 C 0.46353 0.5415 0.78099 0.0
C2774 C 0.47068 0.54257 0.80152 0.0
C2775 C 0.48819 0.54156 0.86138 0.0
C2776 C 0.48264 0.54252 0.84076 0.0
H2777 H 0.44109 0.56516 0.75108 0.0
H2778 H 0.45703 0.569 0.78346 0.0
H2779 H 0.49316 0.53205 0.79726 0.0
H2780 H 0.5021 0.5117 0.89139 0.0
H2781 H 0.49553 0.51461 0.85736 0.0
C2782 C 0.78828 0.22523 0.08514 0.0
C2783 C 0.78605 0.23555 0.06944 0.0
C2784 C 0.78894 0.23358 0.10371 0.0
C2785 C 0.77706 0.27369 0.13027 0.0
H2786 H 0.80789 0.26249 0.17273 0.0
C2787 C 0.7896 0.31522 0.20571 0.0
C2788 C 0.79037 0.30469 0.22138 0.0
C2789 C 0.78879 0.30654 0.18725 0.0
C2790 C 0.79907 0.2656 0.16106 0.0
H2791 H 0.7831 0.26294 0.06109 0.0
H2792 H 0.78461 0.27763 0.09344 0.0
H2793 H 0.80746 0.24817 0.14048 0.0
H2794 H 0.79161 0.27712 0.23011 0.0
H2795 H 0.78991 0.26172 0.19786 0.0
H2796 H 0.76882 0.2913 0.15087 0.0
C2797 C 0.78549 0.26292 0.09139 0.0
C2798 C 0.79881 0.25738 0.14254 0.0
C2799 C 0.78475 0.25453 0.07282 0.0
C2800 C 0.7905 0.28537 0.21826 0.0
C2801 C 0.78982 0.27667 0.1998 0.0
C2802 C 0.77739 0.28198 0.14877 0.0
C2803 C 0.78747 0.25252 0.1071 0.0
C2804 C 0.78781 0.26132 0.12687 0.0
C2805 C 0.78894 0.28716 0.18405 0.0
C2806 C 0.78841 0.27807 0.1644 0.0
H2807 H 0.78925 0.21055 0.08308 0.0
H2808 H 0.79025 0.22503 0.11537 0.0
H2809 H 0.76817 0.27679 0.11866 0.0
H2810 H 0.7896 0.3302 0.20772 0.0
H2811 H 0.78837 0.31512 0.17551 0.0
C2812 C 0.125 0.51209 0.28683 0.0
C2813 C 0.11608 0.49551 0.27475 0.0
C2814 C 0.11687 0.52046 0.30001 0.0
C2815 C 0.10012 0.52896 0.33386 0.0
H2816 H 0.05161 0.52863 0.32067 0.0
C2817 C 0.0421 0.53385 0.3766 0.0
C2818 C 0.04985 0.5499 0.38999 0.0
C2819 C 0.04955 0.52998 0.36076 0.0
C2820 C 0.06517 0.52885 0.3245 0.0
H2821 H 0.09177 0.47446 0.26722 0.0
H2822 H 0.07774 0.48872 0.29061 0.0
H2823 H 0.06626 0.51601 0.2968 0.0
H2824 H 0.07085 0.57519 0.39642 0.0
H2825 H 0.08407 0.56813 0.36887 0.0
H2826 H 0.09896 0.54169 0.3616 0.0
C2827 C 0.09087 0.49557 0.28958 0.0
C2828 C 0.07354 0.52152 0.31091 0.0
C2829 C 0.09896 0.48728 0.2763 0.0
C2830 C 0.06473 0.56252 0.38659 0.0
C2831 C 0.07228 0.55852 0.37081 0.0
C2832 C 0.09178 0.53642 0.34739 0.0
C2833 C 0.09969 0.51234 0.30149 0.0
C2834 C 0.09104 0.52118 0.31554 0.0
C2835 C 0.06498 0.54196 0.35803 0.0
C2836 C 0.07417 0.53616 0.34294 0.0
H2837 H 0.13817 0.51886 0.28588 0.0
H2838 H 0.12397 0.53349 0.30879 0.0
H2839 H 0.11354 0.5287 0.338 0.0
H2840 H 0.03082 0.52363 0.37887 0.0
H2841 H 0.04375 0.517 0.35124 0.0
C2842 C 0.79067 0.87109 0.58513 0.0
C2843 C 0.79831 0.89055 0.58544 0.0
C2844 C 0.79 0.86276 0.60214 0.0
C2845 C 0.79159 0.87469 0.6539 0.0
H2846 H 0.79915 0.82392 0.65716 0.0
C2847 C 0.79351 0.84087 0.72483 0.0
C2848 C 0.78559 0.82142 0.72384 0.0
C2849 C 0.79592 0.84935 0.70817 0.0
C2850 C 0.79681 0.83803 0.65646 0.0
H2851 H 0.81144 0.91644 0.60401 0.0
H2852 H 0.81033 0.90189 0.63364 0.0
H2853 H 0.80179 0.83856 0.62782 0.0
H2854 H 0.77411 0.79558 0.70461 0.0
H2855 H 0.77804 0.81037 0.67554 0.0
H2856 H 0.78639 0.87411 0.68243 0.0
C2857 C 0.80469 0.8931 0.62023 0.0
C2858 C 0.79835 0.84644 0.6396 0.0
C2859 C 0.80543 0.90142 0.60321 0.0
C2860 C 0.78029 0.81059 0.70585 0.0
C2861 C 0.78265 0.81908 0.68917 0.0
C2862 C 0.78999 0.86626 0.67073 0.0
C2863 C 0.7969 0.87367 0.61993 0.0
C2864 C 0.7957 0.86487 0.63806 0.0
C2865 C 0.79043 0.83861 0.69008 0.0
C2866 C 0.79252 0.84777 0.67225 0.0
H2867 H 0.78503 0.86226 0.57174 0.0
H2868 H 0.78373 0.84781 0.60134 0.0
H2869 H 0.78919 0.88878 0.65315 0.0
H2870 H 0.79777 0.84958 0.7385 0.0
H2871 H 0.8022 0.86433 0.7095 0.0
C2872 C 0.74752 0.45626 0.52107 0.0
C2873 C 0.76017 0.4609 0.53766 0.0
C2874 C 0.73364 0.46506 0.51892 0.0
C2875 C 0.71983 0.50771 0.53669 0.0
H2876 H 0.67389 0.47767 0.51536 0.0
C2877 C 0.65947 0.53827 0.5371 0.0
C2878 C 0.64654 0.53352 0.52077 0.0
C2879 C 0.67321 0.52927 0.53909 0.0
C2880 C 0.68666 0.48632 0.52113 0.0
H2881 H 0.7681 0.47848 0.565 0.0
H2882 H 0.74387 0.49374 0.56128 0.0
H2883 H 0.6981 0.46236 0.5189 0.0
H2884 H 0.638 0.51563 0.49367 0.0
H2885 H 0.66199 0.49996 0.4971 0.0
H2886 H 0.70844 0.53168 0.53888 0.0
C2887 C 0.74477 0.48343 0.54984 0.0
C2888 C 0.70055 0.47753 0.52317 0.0
C2889 C 0.75863 0.4746 0.55202 0.0
C2890 C 0.64762 0.51944 0.50654 0.0
C2891 C 0.66138 0.51046 0.50852 0.0
C2892 C 0.70596 0.5165 0.53462 0.0
C2893 C 0.73209 0.47875 0.53328 0.0
C2894 C 0.71731 0.48811 0.531 0.0
C2895 C 0.67439 0.5153 0.5248 0.0
C2896 C 0.68918 0.50592 0.52685 0.0
H2897 H 0.74831 0.44581 0.50971 0.0
H2898 H 0.72423 0.46129 0.50588 0.0
H2899 H 0.7326 0.51635 0.54249 0.0
H2900 H 0.65889 0.54881 0.54848 0.0
H2901 H 0.6828 0.53311 0.55197 0.0
C2902 C 0.21227 0.15045 0.50135 0.0
C2903 C 0.21811 0.16685 0.51471 0.0
C2904 C 0.19579 0.13867 0.50047 0.0
C2905 C 0.16163 0.1254 0.52927 0.0
H2906 H 0.13104 0.10913 0.48064 0.0
C2907 C 0.08924 0.09072 0.52478 0.0
C2908 C 0.08107 0.07659 0.50959 0.0
C2909 C 0.10621 0.10096 0.52535 0.0
C2910 C 0.13947 0.11324 0.49434 0.0
H2911 H 0.21123 0.18358 0.53767 0.0
H2912 H 0.18273 0.163 0.53623 0.0
H2913 H 0.16027 0.12792 0.48162 0.0
H2914 H 0.08422 0.0619 0.48319 0.0
H2915 H 0.11399 0.07928 0.4844 0.0
H2916 H 0.14106 0.1106 0.54206 0.0
C2917 C 0.19084 0.15922 0.52646 0.0
C2918 C 0.15624 0.12408 0.49487 0.0
C2919 C 0.20716 0.1711 0.52719 0.0
C2920 C 0.09021 0.07277 0.49506 0.0
C2921 C 0.10725 0.08286 0.4957 0.0
C2922 C 0.14495 0.11441 0.52874 0.0
C2923 C 0.18494 0.14288 0.51309 0.0
C2924 C 0.16745 0.13046 0.51236 0.0
C2925 C 0.11548 0.09719 0.51081 0.0
C2926 C 0.13354 0.10832 0.51129 0.0
H2927 H 0.22037 0.14678 0.49153 0.0
H2928 H 0.19163 0.12611 0.49007 0.0
H2929 H 0.17004 0.12987 0.54296 0.0
H2930 H 0.08239 0.09416 0.53603 0.0
H2931 H 0.11191 0.1121 0.53703 0.0
C2932 C 0.20343 0.02649 0.81652 0.0
C2933 C 0.21024 0.03916 0.83321 0.0
C2934 C 0.21377 0.01635 0.80813 0.0
C2935 C 0.25958 0.0145 0.80824 0.0
H2936 H 0.23881 0.96219 0.78676 0.0
C2937 C 0.29569 0.95496 0.79824 0.0
C2938 C 0.28975 0.94145 0.78197 0.0
C2939 C 0.28761 0.96985 0.8012 0.0
C2940 C 0.24472 0.97689 0.79237 0.0
H2941 H 0.23318 0.05109 0.85433 0.0
H2942 H 0.25111 0.03269 0.8402 0.0
H2943 H 0.2211 0.98156 0.79942 0.0
H2944 H 0.27184 0.93421 0.75511 0.0
H2945 H 0.25739 0.95997 0.76063 0.0
H2946 H 0.28347 0.0092 0.80207 0.0
C2947 C 0.23791 0.03101 0.83322 0.0
C2948 C 0.23457 0.98803 0.79964 0.0
C2949 C 0.2276 0.04141 0.84145 0.0
C2950 C 0.27646 0.94409 0.76801 0.0
C2951 C 0.26824 0.95886 0.77109 0.0
C2952 C 0.2698 0.00321 0.80119 0.0
C2953 C 0.23112 0.01838 0.81642 0.0
C2954 C 0.24188 0.00692 0.80785 0.0
C2955 C 0.27335 0.97142 0.78805 0.0
C2956 C 0.26246 0.98426 0.79335 0.0
H2957 H 0.19015 0.02467 0.80967 0.0
H2958 H 0.20818 0.00707 0.795 0.0
H2959 H 0.26558 0.02909 0.81412 0.0
H2960 H 0.30575 0.95329 0.80942 0.0
H2961 H 0.2917 0.97926 0.81447 0.0
C2962 C 0.3607 0.97634 0.06321 0.0
C2963 C 0.34799 0.96924 0.04696 0.0
C2964 C 0.37716 0.98649 0.06142 0.0
C2965 C 0.40687 0.99238 0.0267 0.0
H2966 H 0.43229 0.03662 0.06177 0.0
C2967 C 0.47244 0.03585 0.01491 0.0
C2968 C 0.48555 0.04201 0.03097 0.0
C2969 C 0.45546 0.02816 0.01704 0.0
C2970 C 0.42543 0.02417 0.05197 0.0
H2971 H 0.34249 0.96778 0.01608 0.0
H2972 H 0.3711 0.98557 0.01299 0.0
H2973 H 0.40293 0.02121 0.06515 0.0
H2974 H 0.49091 0.04525 0.06194 0.0
H2975 H 0.4613 0.03157 0.06563 0.0
H2976 H 0.42932 0.9951 0.01365 0.0
C2977 C 0.36843 0.98306 0.02712 0.0
C2978 C 0.40859 0.01536 0.0539 0.0
C2979 C 0.35198 0.97296 0.02891 0.0
C2980 C 0.48116 0.04067 0.04925 0.0
C2981 C 0.46414 0.0329 0.05137 0.0
C2982 C 0.42367 0.00114 0.02481 0.0
C2983 C 0.38129 0.98973 0.04332 0.0
C2984 C 0.39911 0.99937 0.04125 0.0
C2985 C 0.45112 0.02635 0.03528 0.0
C2986 C 0.43317 0.01717 0.03738 0.0
H2987 H 0.35807 0.97373 0.07733 0.0
H2988 H 0.3868 0.99129 0.07418 0.0
H2989 H 0.40007 0.97987 0.01695 0.0
H2990 H 0.47527 0.0368 0.00061 0.0
H2991 H 0.44572 0.02362 0.00434 0.0
C2992 C 0.90283 0.67889 0.79858 0.0
C2993 C 0.91795 0.6831 0.79068 0.0
C2994 C 0.8891 0.68701 0.79264 0.0
C2995 C 0.87127 0.71283 0.75442 0.0
H2996 H 0.84611 0.72721 0.79327 0.0
C2997 C 0.82858 0.76758 0.75055 0.0
C2998 C 0.81363 0.76359 0.75886 0.0
C2999 C 0.83928 0.75482 0.7506 0.0
C3000 C 0.85281 0.72296 0.78219 0.0
H3001 H 0.9306 0.69912 0.77033 0.0
H3002 H 0.90682 0.71413 0.7605 0.0
H3003 H 0.8697 0.71208 0.80192 0.0
H3004 H 0.79732 0.74236 0.77207 0.0
H3005 H 0.81613 0.72015 0.77228 0.0
H3006 H 0.85471 0.72484 0.73496 0.0
C3007 C 0.90541 0.7041 0.77094 0.0
C3008 C 0.86636 0.71428 0.78713 0.0
C3009 C 0.91909 0.69567 0.77669 0.0
C3010 C 0.80879 0.74588 0.76566 0.0
C3011 C 0.81957 0.7332 0.76586 0.0
C3012 C 0.85781 0.72183 0.74953 0.0
C3013 C 0.89025 0.69987 0.77889 0.0
C3014 C 0.87577 0.70907 0.77333 0.0
C3015 C 0.83525 0.73795 0.75907 0.0
C3016 C 0.84847 0.72694 0.76341 0.0
H3017 H 0.9014 0.66896 0.80913 0.0
H3018 H 0.8775 0.68302 0.79873 0.0
H3019 H 0.87809 0.70879 0.74338 0.0
H3020 H 0.83259 0.78106 0.74505 0.0
H3021 H 0.85132 0.75882 0.74532 0.0
C3022 C 0.83421 0.68358 0.99725 0.0
C3023 C 0.8193 0.6754 0.00439 0.0
C3024 C 0.84771 0.67435 0.99719 0.0
C3025 C 0.8669 0.63787 0.01963 0.0
H3026 H 0.88963 0.63848 0.97542 0.0
C3027 C 0.91903 0.59523 0.01064 0.0
C3028 C 0.93311 0.6039 0.0024 0.0
C3029 C 0.90498 0.6036 0.01124 0.0
C3030 C 0.88359 0.63835 0.98799 0.0
H3031 H 0.80701 0.65104 0.01722 0.0
H3032 H 0.83064 0.63483 0.01705 0.0
H3033 H 0.86538 0.65338 0.97569 0.0
H3034 H 0.94366 0.62856 0.9889 0.0
H3035 H 0.91931 0.64319 0.99005 0.0
H3036 H 0.88522 0.62292 0.03197 0.0
C3037 C 0.83188 0.64851 0.0116 0.0
C3038 C 0.86963 0.64689 0.98813 0.0
C3039 C 0.8183 0.65775 0.0116 0.0
C3040 C 0.93291 0.62131 0.99505 0.0
C3041 C 0.9189 0.62969 0.99569 0.0
C3042 C 0.88091 0.62934 0.01951 0.0
C3043 C 0.84673 0.65667 0.0043 0.0
C3044 C 0.86118 0.64689 0.004 0.0
C3045 C 0.90467 0.62088 0.00364 0.0
C3046 C 0.88952 0.6296 0.00374 0.0
H3047 H 0.83549 0.69719 0.99165 0.0
H3048 H 0.85904 0.68121 0.99174 0.0
H3049 H 0.86081 0.63778 0.03217 0.0
H3050 H 0.91864 0.5817 0.01622 0.0
H3051 H 0.89418 0.59628 0.01727 0.0
C3052 C 0.22411 0.14801 0.86275 0.0
C3053 C 0.20677 0.14192 0.85386 0.0
C3054 C 0.23433 0.16508 0.85896 0.0
C3055 C 0.23204 0.20908 0.83545 0.0
H3056 H 0.27867 0.20803 0.82871 0.0
C3057 C 0.2711 0.25913 0.79071 0.0
C3058 C 0.2873 0.2697 0.80026 0.0
C3059 C 0.26183 0.24419 0.79887 0.0
C3060 C 0.26571 0.20853 0.8307 0.0
H3061 H 0.18638 0.14929 0.83454 0.0
H3062 H 0.20418 0.17847 0.82744 0.0
H3063 H 0.26121 0.18132 0.84102 0.0
H3064 H 0.30694 0.27241 0.82532 0.0
H3065 H 0.29092 0.24572 0.83927 0.0
H3066 H 0.23639 0.23591 0.82412 0.0
C3067 C 0.20992 0.17046 0.83772 0.0
C3068 C 0.25573 0.19333 0.83789 0.0
C3069 C 0.19968 0.15359 0.84171 0.0
C3070 C 0.29443 0.26453 0.8177 0.0
C3071 C 0.28531 0.24931 0.82568 0.0
C3072 C 0.24191 0.22408 0.82793 0.0
C3073 C 0.22747 0.17629 0.84601 0.0
C3074 C 0.23866 0.19328 0.84013 0.0
C3075 C 0.26881 0.23927 0.81649 0.0
C3076 C 0.25874 0.22382 0.8253 0.0
H3077 H 0.2299 0.13938 0.87229 0.0
H3078 H 0.24769 0.16931 0.86594 0.0
H3079 H 0.21913 0.2098 0.83739 0.0
H3080 H 0.26544 0.26264 0.7771 0.0
H3081 H 0.24921 0.23645 0.79142 0.0
C3082 C 0.40244 0.08887 0.31152 0.0
C3083 C 0.40573 0.09674 0.2947 0.0
C3084 C 0.39285 0.0702 0.31068 0.0
C3085 C 0.38204 0.02462 0.28074 0.0
H3086 H 0.34871 0.01005 0.31397 0.0
C3087 C 0.34727 0.94626 0.28103 0.0
C3088 C 0.34608 0.94014 0.29908 0.0
C3089 C 0.35237 0.96562 0.27917 0.0
C3090 C 0.35807 0.01388 0.3047 0.0
H3091 H 0.40117 0.09138 0.26379 0.0
H3092 H 0.38448 0.05865 0.26236 0.0
H3093 H 0.36144 0.04372 0.31304 0.0
H3094 H 0.34916 0.94947 0.32929 0.0
H3095 H 0.35827 0.98326 0.3261 0.0
H3096 H 0.37914 0.99485 0.27282 0.0
C3097 C 0.3894 0.06696 0.27617 0.0
C3098 C 0.36531 0.03315 0.30413 0.0
C3099 C 0.39889 0.0857 0.277 0.0
C3100 C 0.34978 0.95379 0.31518 0.0
C3101 C 0.35495 0.97315 0.31333 0.0
C3102 C 0.37488 0.00536 0.28137 0.0
C3103 C 0.38644 0.05897 0.29302 0.0
C3104 C 0.37755 0.03869 0.29235 0.0
C3105 C 0.35645 0.97928 0.29532 0.0
C3106 C 0.36299 0.99976 0.29357 0.0
H3107 H 0.40749 0.09703 0.32538 0.0
H3108 H 0.39093 0.06436 0.32391 0.0
H3109 H 0.39162 0.02846 0.27172 0.0
H3110 H 0.34421 0.93606 0.26833 0.0
H3111 H 0.35313 0.96989 0.26506 0.0
C3112 C 0.55471 0.37972 0.60553 0.0
C3113 C 0.57133 0.37668 0.61081 0.0
C3114 C 0.55215 0.39462 0.59494 0.0
C3115 C 0.57514 0.44097 0.58243 0.0
H3116 H 0.53434 0.43406 0.54375 0.0
C3117 C 0.56318 0.50049 0.53584 0.0
C3118 C 0.54636 0.50348 0.53326 0.0
C3119 C 0.56672 0.48444 0.54391 0.0
C3120 C 0.54575 0.43629 0.55459 0.0
H3121 H 0.59829 0.3869 0.60881 0.0
H3122 H 0.59381 0.41275 0.59017 0.0
H3123 H 0.53959 0.40727 0.56043 0.0
H3124 H 0.52004 0.4916 0.5368 0.0
H3125 H 0.52622 0.46383 0.55083 0.0
H3126 H 0.5812 0.47004 0.57667 0.0
C3127 C 0.58276 0.40376 0.59445 0.0
C3128 C 0.54875 0.42091 0.5642 0.0
C3129 C 0.58531 0.38884 0.60506 0.0
C3130 C 0.53314 0.4898 0.53853 0.0
C3131 C 0.53667 0.47377 0.54651 0.0
C3132 C 0.57214 0.45635 0.5728 0.0
C3133 C 0.56614 0.4069 0.5893 0.0
C3134 C 0.56339 0.42308 0.57841 0.0
C3135 C 0.55353 0.47094 0.54949 0.0
C3136 C 0.5573 0.45427 0.5589 0.0
H3137 H 0.54363 0.3707 0.60975 0.0
H3138 H 0.53921 0.39674 0.59151 0.0
H3139 H 0.58643 0.44328 0.59344 0.0
H3140 H 0.57369 0.51068 0.53192 0.0
H3141 H 0.57982 0.48261 0.54578 0.0
C3142 C 0.45776 0.79777 0.36691 0.0
C3143 C 0.46443 0.78165 0.36349 0.0
C3144 C 0.44161 0.79872 0.35719 0.0
C3145 C 0.40051 0.76836 0.33028 0.0
H3146 H 0.39348 0.81586 0.31284 0.0
C3147 C 0.33756 0.77238 0.28194 0.0
C3148 C 0.33059 0.78813 0.28584 0.0
C3149 C 0.35405 0.77192 0.29104 0.0
C3150 C 0.39516 0.80254 0.31779 0.0
H3151 H 0.45927 0.7539 0.34703 0.0
H3152 H 0.43117 0.75562 0.32994 0.0
H3153 H 0.42185 0.81431 0.32927 0.0
H3154 H 0.33535 0.81572 0.30237 0.0
H3155 H 0.36421 0.815 0.31834 0.0
H3156 H 0.37385 0.75659 0.31885 0.0
C3157 C 0.43836 0.76746 0.34034 0.0
C3158 C 0.41145 0.80164 0.32722 0.0
C3159 C 0.45453 0.76651 0.35006 0.0
C3160 C 0.3405 0.80352 0.2989 0.0
C3161 C 0.35704 0.80309 0.30803 0.0
C3162 C 0.38424 0.76926 0.32085 0.0
C3163 C 0.43167 0.78357 0.34379 0.0
C3164 C 0.41435 0.78453 0.3336 0.0
C3165 C 0.36398 0.7872 0.30433 0.0
C3166 C 0.38134 0.78635 0.31445 0.0
H3167 H 0.46498 0.80969 0.3772 0.0
H3168 H 0.4368 0.81124 0.36043 0.0
H3169 H 0.40216 0.75504 0.33528 0.0
H3170 H 0.33021 0.7603 0.27192 0.0
H3171 H 0.35905 0.75959 0.2876 0.0
C3172 C 0.04406 0.76617 0.09178 0.0
C3173 C 0.05446 0.77442 0.10933 0.0
C3174 C 0.04276 0.7471 0.08508 0.0
C3175 C 0.05047 0.7015 0.10111 0.0
H3176 H 0.04728 0.68716 0.04694 0.0
C3177 C 0.05399 0.6262 0.06897 0.0
C3178 C 0.04209 0.61816 0.05229 0.0
C3179 C 0.0557 0.64518 0.07642 0.0
C3180 C 0.04802 0.6909 0.0621 0.0
H3181 H 0.07182 0.76908 0.13352 0.0
H3182 H 0.06986 0.73606 0.1217 0.0
H3183 H 0.04996 0.72034 0.0588 0.0
H3184 H 0.02258 0.62384 0.03047 0.0
H3185 H 0.02559 0.6567 0.04342 0.0
H3186 H 0.04871 0.67198 0.10434 0.0
C3187 C 0.06238 0.74415 0.11325 0.0
C3188 C 0.0495 0.70994 0.06891 0.0
C3189 C 0.06359 0.76317 0.11999 0.0
C3190 C 0.03189 0.62949 0.04334 0.0
C3191 C 0.03369 0.64843 0.05069 0.0
C3192 C 0.0491 0.68244 0.09429 0.0
C3193 C 0.05194 0.73583 0.09571 0.0
C3194 C 0.05063 0.71552 0.08851 0.0
C3195 C 0.04568 0.65656 0.06724 0.0
C3196 C 0.04773 0.6769 0.07468 0.0
H3197 H 0.03677 0.77438 0.08324 0.0
H3198 H 0.03437 0.74115 0.07167 0.0
H3199 H 0.05105 0.70515 0.11625 0.0
H3200 H 0.06207 0.61791 0.07621 0.0
H3201 H 0.06513 0.65107 0.08914 0.0
C3202 C 0.0758 0.31098 0.8941 0.0
C3203 C 0.05895 0.30176 0.8851 0.0
C3204 C 0.08978 0.31124 0.88461 0.0
C3205 C 0.10369 0.2855 0.84542 0.0
H3206 H 0.14008 0.33141 0.85033 0.0
C3207 C 0.1601 0.29061 0.80322 0.0
C3208 C 0.17666 0.30043 0.81264 0.0
C3209 C 0.14555 0.29108 0.81155 0.0
C3210 C 0.13015 0.31839 0.84898 0.0
H3211 H 0.04361 0.2857 0.85892 0.0
H3212 H 0.06809 0.28616 0.8423 0.0
H3213 H 0.115 0.33177 0.86551 0.0
H3214 H 0.19076 0.31862 0.83827 0.0
H3215 H 0.16546 0.31903 0.85301 0.0
H3216 H 0.11891 0.27203 0.82913 0.0
C3217 C 0.07045 0.29308 0.8568 0.0
C3218 C 0.11573 0.31862 0.85765 0.0
C3219 C 0.05641 0.29291 0.86628 0.0
C3220 C 0.17825 0.31073 0.83065 0.0
C3221 C 0.16369 0.31116 0.83901 0.0
C3222 C 0.11814 0.28525 0.83681 0.0
C3223 C 0.08731 0.30223 0.86587 0.0
C3224 C 0.10235 0.30216 0.85605 0.0
C3225 C 0.14713 0.30133 0.82958 0.0
C3226 C 0.1316 0.30168 0.83853 0.0
H3227 H 0.07826 0.31793 0.90859 0.0
H3228 H 0.1026 0.31821 0.89211 0.0
H3229 H 0.09374 0.2725 0.84413 0.0
H3230 H 0.15836 0.2823 0.78946 0.0
H3231 H 0.13301 0.28351 0.80374 0.0
C3232 C 0.54595 0.7564 0.96408 0.0
C3233 C 0.53325 0.75824 0.94898 0.0
C3234 C 0.54509 0.73911 0.97182 0.0
C3235 C 0.52723 0.68733 0.96016 0.0
H3236 H 0.5381 0.68657 0.01484 0.0
C3237 C 0.52232 0.61635 0.99404 0.0
C3238 C 0.53474 0.61598 0.01004 0.0
C3239 C 0.52123 0.63355 0.98674 0.0
C3240 C 0.53525 0.68647 0.99951 0.0
H3241 H 0.50957 0.74321 0.9303 0.0
H3242 H 0.50815 0.71299 0.94374 0.0
H3243 H 0.53788 0.71671 0.00203 0.0
H3244 H 0.55591 0.63361 0.0307 0.0
H3245 H 0.5543 0.66331 0.01779 0.0
H3246 H 0.52498 0.65719 0.95754 0.0
C3247 C 0.51881 0.72497 0.94956 0.0
C3248 C 0.53506 0.70381 0.99217 0.0
C3249 C 0.51956 0.74234 0.94194 0.0
C3250 C 0.54606 0.63328 0.01847 0.0
C3251 C 0.54506 0.65042 0.01111 0.0
C3252 C 0.52755 0.66999 0.96749 0.0
C3253 C 0.53161 0.72311 0.96456 0.0
C3254 C 0.53115 0.7045 0.97239 0.0
C3255 C 0.53261 0.65087 0.99514 0.0
C3256 C 0.53168 0.66929 0.98728 0.0
H3257 H 0.55668 0.76831 0.96987 0.0
H3258 H 0.55526 0.73816 0.98323 0.0
H3259 H 0.52436 0.68735 0.94484 0.0
H3260 H 0.51332 0.60335 0.98718 0.0
H3261 H 0.5113 0.63326 0.97461 0.0
C3262 C 0.11771 0.80252 0.66436 0.0
C3263 C 0.10835 0.81671 0.6655 0.0
C3264 C 0.13331 0.80421 0.67662 0.0
C3265 C 0.1704 0.83771 0.70535 0.0
H3266 H 0.17657 0.79359 0.73051 0.0
C3267 C 0.2348 0.83528 0.75436 0.0
C3268 C 0.23984 0.81789 0.75265 0.0
C3269 C 0.21844 0.83667 0.74537 0.0
C3270 C 0.17519 0.806 0.72346 0.0
H3271 H 0.10828 0.84404 0.68026 0.0
H3272 H 0.13597 0.84718 0.70156 0.0
H3273 H 0.14875 0.79331 0.71165 0.0
H3274 H 0.23169 0.78848 0.73964 0.0
H3275 H 0.20374 0.79101 0.72384 0.0
H3276 H 0.1971 0.85011 0.71657 0.0
C3277 C 0.131 0.83467 0.6912 0.0
C3278 C 0.15918 0.80585 0.71274 0.0
C3279 C 0.11515 0.83283 0.67907 0.0
C3280 C 0.22825 0.80207 0.74155 0.0
C3281 C 0.21207 0.80348 0.73254 0.0
C3282 C 0.18657 0.83778 0.71595 0.0
C3283 C 0.14013 0.82025 0.6902 0.0
C3284 C 0.15668 0.82152 0.70324 0.0
C3285 C 0.2068 0.82071 0.73443 0.0
C3286 C 0.18928 0.82172 0.72479 0.0
H3287 H 0.11289 0.7899 0.65411 0.0
H3288 H 0.14013 0.79296 0.67537 0.0
H3289 H 0.16885 0.84997 0.69812 0.0
H3290 H 0.2434 0.84776 0.76277 0.0
H3291 H 0.21483 0.85016 0.74722 0.0
C3292 C 0.01846 0.37566 0.42813 0.0
C3293 C 0.02331 0.36039 0.43673 0.0
C3294 C 0.0208 0.39343 0.43867 0.0
C3295 C 0.02794 0.41756 0.48819 0.0
H3296 H 0.04101 0.46298 0.46342 0.0
C3297 C 0.04523 0.49407 0.52871 0.0
C3298 C 0.03896 0.50811 0.51928 0.0
C3299 C 0.04361 0.47595 0.51909 0.0
C3300 C 0.0372 0.45045 0.47051 0.0
H3301 H 0.03449 0.35197 0.46331 0.0
H3302 H 0.03888 0.38318 0.48173 0.0
H3303 H 0.03818 0.43177 0.44613 0.0
H3304 H 0.02526 0.51384 0.49277 0.0
H3305 H 0.0227 0.4824 0.47579 0.0
H3306 H 0.0271 0.43639 0.51265 0.0
C3307 C 0.033 0.38128 0.46682 0.0
C3308 C 0.03554 0.4325 0.46058 0.0
C3309 C 0.03058 0.36339 0.45624 0.0
C3310 C 0.03075 0.50355 0.50017 0.0
C3311 C 0.02921 0.48548 0.4905 0.0
C3312 C 0.02968 0.43556 0.49818 0.0
C3313 C 0.02819 0.39658 0.45814 0.0
C3314 C 0.03072 0.41575 0.46918 0.0
C3315 C 0.03568 0.47144 0.49981 0.0
C3316 C 0.03419 0.45224 0.48941 0.0
H3317 H 0.0127 0.3739 0.41318 0.0
H3318 H 0.01658 0.40466 0.43153 0.0
H3319 H 0.02399 0.40504 0.49525 0.0
H3320 H 0.05154 0.49715 0.5435 0.0
H3321 H 0.04884 0.46556 0.52668 0.0
C3322 C 0.49975 0.32114 0.17172 0.0
C3323 C 0.51279 0.31377 0.18171 0.0
C3324 C 0.48518 0.32277 0.17962 0.0
C3325 C 0.46945 0.32564 0.22564 0.0
H3326 H 0.4243 0.31286 0.19361 0.0
C3327 C 0.40725 0.32474 0.2572 0.0
C3328 C 0.39417 0.33163 0.24667 0.0
C3329 C 0.42146 0.3219 0.24922 0.0
C3330 C 0.43682 0.31672 0.20274 0.0
H3331 H 0.52062 0.30229 0.20788 0.0
H3332 H 0.49519 0.30508 0.22161 0.0
H3333 H 0.4495 0.30927 0.17991 0.0
H3334 H 0.38589 0.34103 0.21948 0.0
H3335 H 0.41075 0.33636 0.20564 0.0
H3336 H 0.45685 0.33331 0.24842 0.0
C3337 C 0.49631 0.30977 0.20773 0.0
C3338 C 0.45129 0.31463 0.19487 0.0
C3339 C 0.51087 0.30807 0.1998 0.0
C3340 C 0.39562 0.33547 0.2279 0.0
C3341 C 0.40988 0.33275 0.21995 0.0
C3342 C 0.45499 0.32781 0.2335 0.0
C3343 C 0.48327 0.31714 0.19774 0.0
C3344 C 0.46781 0.31909 0.2062 0.0
C3345 C 0.42306 0.32598 0.23052 0.0
C3346 C 0.43846 0.32342 0.22216 0.0
H3347 H 0.50078 0.32572 0.15778 0.0
H3348 H 0.47552 0.32874 0.17162 0.0
H3349 H 0.48199 0.32948 0.23474 0.0
H3350 H 0.40642 0.32135 0.27159 0.0
H3351 H 0.43114 0.31632 0.25769 0.0
C3352 C 0.65966 0.55924 0.40697 0.0
C3353 C 0.66143 0.57799 0.40224 0.0
C3354 C 0.64539 0.5505 0.41471 0.0
C3355 C 0.60069 0.55051 0.41205 0.0
H3356 H 0.60172 0.53314 0.46214 0.0
C3357 C 0.54767 0.55185 0.45501 0.0
C3358 C 0.54305 0.53767 0.46672 0.0
C3359 C 0.56081 0.55137 0.44456 0.0
C3360 C 0.60121 0.5374 0.44789 0.0
H3361 H 0.65009 0.60255 0.40274 0.0
H3362 H 0.62515 0.58717 0.41592 0.0
H3363 H 0.62878 0.54348 0.45006 0.0
H3364 H 0.54811 0.51167 0.47669 0.0
H3365 H 0.5716 0.51091 0.45842 0.0
H3366 H 0.57332 0.54509 0.40998 0.0
C3367 C 0.63479 0.57929 0.41363 0.0
C3368 C 0.61667 0.54342 0.44108 0.0
C3369 C 0.64912 0.58811 0.4062 0.0
C3370 C 0.55129 0.5225 0.46735 0.0
C3371 C 0.56478 0.5222 0.45711 0.0
C3372 C 0.5853 0.54434 0.41872 0.0
C3373 C 0.63263 0.56031 0.41752 0.0
C3374 C 0.6165 0.55075 0.42345 0.0
C3375 C 0.56983 0.53685 0.44589 0.0
C3376 C 0.58546 0.53853 0.43705 0.0
H3377 H 0.66899 0.55112 0.40413 0.0
H3378 H 0.64395 0.53586 0.41771 0.0
H3379 H 0.60031 0.55585 0.39827 0.0
H3380 H 0.54162 0.56382 0.4546 0.0
H3381 H 0.5646 0.56305 0.43635 0.0
C3382 C 0.30416 0.90416 0.09444 0.0
C3383 C 0.29165 0.89441 0.07884 0.0
C3384 C 0.30572 0.89673 0.11197 0.0
C3385 C 0.29498 0.85192 0.13383 0.0
H3386 H 0.30052 0.88552 0.18062 0.0
C3387 C 0.2849 0.82308 0.20522 0.0
C3388 C 0.29568 0.83261 0.22216 0.0
C3389 C 0.28564 0.83072 0.18792 0.0
C3390 C 0.29924 0.87597 0.16773 0.0
H3391 H 0.27107 0.8691 0.06948 0.0
H3392 H 0.27377 0.8562 0.10002 0.0
H3393 H 0.29952 0.8986 0.15012 0.0
H3394 H 0.31585 0.85768 0.23399 0.0
H3395 H 0.31728 0.8709 0.20368 0.0
H3396 H 0.29464 0.82928 0.15137 0.0
C3397 C 0.28248 0.86952 0.09866 0.0
C3398 C 0.29864 0.88348 0.15022 0.0
C3399 C 0.28086 0.87698 0.08116 0.0
C3400 C 0.30734 0.84994 0.22126 0.0
C3401 C 0.30809 0.85759 0.20389 0.0
C3402 C 0.29563 0.84443 0.15132 0.0
C3403 C 0.29488 0.87933 0.11431 0.0
C3404 C 0.29631 0.87151 0.13303 0.0
C3405 C 0.2972 0.84809 0.18699 0.0
C3406 C 0.29756 0.85631 0.16849 0.0
H3407 H 0.3127 0.91762 0.09316 0.0
H3408 H 0.31553 0.90456 0.12366 0.0
H3409 H 0.29349 0.84235 0.12091 0.0
H3410 H 0.27567 0.80977 0.20529 0.0
H3411 H 0.27685 0.82315 0.1753 0.0
C3412 C 0.96575 0.65781 0.89345 0.0
C3413 C 0.97127 0.65837 0.8757 0.0
C3414 C 0.97638 0.6541 0.90935 0.0
C3415 C 0.02053 0.64803 0.92737 0.0
H3416 H 0.99543 0.60692 0.9511 0.0
C3417 C 0.03246 0.58062 0.96972 0.0
C3418 C 0.04614 0.58944 0.98445 0.0
C3419 C 0.02453 0.59155 0.95765 0.0
C3420 C 1.00262 0.61837 0.94458 0.0
H3421 H 0.9929 0.65739 0.86115 0.0
H3422 H 0.01125 0.65062 0.88869 0.0
H3423 H 0.97964 0.6235 0.92911 0.0
H3424 H 0.0629 0.61644 0.99759 0.0
H3425 H 0.04906 0.63561 0.97631 0.0
H3426 H 0.04358 0.64218 0.94234 0.0
C3427 C 0.99878 0.6531 0.89044 0.0
C3428 C 0.99357 0.6281 0.93221 0.0
C3429 C 0.98818 0.65685 0.87458 0.0
C3430 C 0.05239 0.6093 0.98628 0.0
C3431 C 0.04446 0.62026 0.97415 0.0
C3432 C 0.02962 0.63827 0.93981 0.0
C3433 C 0.99272 0.65087 0.90778 0.0
C3434 C 1.00241 0.64276 0.92312 0.0
C3435 C 0.03017 0.6115 0.96003 0.0
C3436 C 0.02073 0.62302 0.94814 0.0
H3437 H 0.95287 0.65916 0.89485 0.0
H3438 H 0.9715 0.65287 0.92264 0.0
H3439 H 0.0277 0.65938 0.92072 0.0
H3440 H 0.02749 0.56532 0.96795 0.0
H3441 H 0.01379 0.58437 0.94662 0.0
C3442 C 0.27981 0.21998 0.57693 0.0
C3443 C 0.28385 0.23239 0.56324 0.0
C3444 C 0.28051 0.22708 0.59592 0.0
C3445 C 0.27338 0.24513 0.63264 0.0
H3446 H 0.30754 0.29064 0.65605 0.0
C3447 C 0.27142 0.28133 0.7073 0.0
C3448 C 0.28713 0.29003 0.7193 0.0
C3449 C 0.27108 0.27443 0.68831 0.0
C3450 C 0.29802 0.27778 0.64986 0.0
H3451 H 0.29174 0.26206 0.55883 0.0
H3452 H 0.29243 0.27453 0.59179 0.0
H3453 H 0.30732 0.27821 0.62332 0.0
H3454 H 0.31486 0.29796 0.7208 0.0
H3455 H 0.31434 0.28538 0.68799 0.0
H3456 H 0.26453 0.24421 0.6594 0.0
C3457 C 0.28913 0.25924 0.58801 0.0
C3458 C 0.29772 0.27079 0.6309 0.0
C3459 C 0.28864 0.2521 0.56903 0.0
C3460 C 0.30251 0.29146 0.71192 0.0
C3461 C 0.30219 0.28434 0.693 0.0
C3462 C 0.2738 0.25199 0.65165 0.0
C3463 C 0.28504 0.24683 0.60174 0.0
C3464 C 0.28538 0.25436 0.62199 0.0
C3465 C 0.28646 0.27582 0.68086 0.0
C3466 C 0.2861 0.26844 0.66056 0.0
H3467 H 0.27621 0.2047 0.57301 0.0
H3468 H 0.27763 0.21701 0.60606 0.0
H3469 H 0.26349 0.23263 0.62628 0.0
H3470 H 0.25931 0.28015 0.71245 0.0
H3471 H 0.25867 0.26831 0.67939 0.0
C3472 C 0.63431 0.57184 0.31211 0.0
C3473 C 0.65226 0.57377 0.31515 0.0
C3474 C 0.62508 0.5704 0.29359 0.0
C3475 C 0.6281 0.55933 0.24286 0.0
H3476 H 0.59649 0.59218 0.23303 0.0
C3477 C 0.60984 0.58144 0.16873 0.0
C3478 C 0.5927 0.58234 0.16252 0.0
C3479 C 0.6152 0.57808 0.18738 0.0
C3480 C 0.60505 0.58269 0.23558 0.0
H3481 H 0.67455 0.5753 0.30114 0.0
H3482 H 0.65854 0.5729 0.26905 0.0
H3483 H 0.60918 0.59007 0.26587 0.0
H3484 H 0.56771 0.58039 0.17097 0.0
H3485 H 0.57712 0.57441 0.2037 0.0
H3486 H 0.62434 0.55231 0.21259 0.0
C3487 C 0.65153 0.57232 0.28088 0.0
C3488 C 0.6123 0.58147 0.25438 0.0
C3489 C 0.66073 0.57386 0.29932 0.0
C3490 C 0.58099 0.57967 0.17535 0.0
C3491 C 0.58639 0.57639 0.19409 0.0
C3492 C 0.62087 0.56056 0.22411 0.0
C3493 C 0.63363 0.57069 0.2778 0.0
C3494 C 0.62424 0.57014 0.25816 0.0
C3495 C 0.60356 0.57555 0.20028 0.0
C3496 C 0.60961 0.5726 0.22024 0.0
H3497 H 0.62741 0.57171 0.32402 0.0
H3498 H 0.61127 0.56904 0.29162 0.0
H3499 H 0.637 0.55019 0.24536 0.0
H3500 H 0.61911 0.58321 0.15911 0.0
H3501 H 0.62858 0.57776 0.19179 0.0
C3502 C 0.28485 0.88866 0.97378 0.0
C3503 C 0.30163 0.89889 0.98206 0.0
C3504 C 0.28151 0.8793 0.95516 0.0
C3505 C 0.29866 0.8807 0.91013 0.0
H3506 H 0.27092 0.82905 0.89715 0.0
C3507 C 0.29699 0.83674 0.83863 0.0
C3508 C 0.2816 0.82382 0.8299 0.0
C3509 C 0.29834 0.84637 0.85677 0.0
C3510 C 0.27846 0.84359 0.90042 0.0
H3511 H 0.32807 0.90696 0.97732 0.0
H3512 H 0.32223 0.89074 0.94498 0.0
H3513 H 0.27528 0.84453 0.92978 0.0
H3514 H 0.25539 0.81121 0.83307 0.0
H3515 H 0.25758 0.82834 0.86465 0.0
H3516 H 0.30179 0.87994 0.88088 0.0
C3517 C 0.31163 0.89007 0.9528 0.0
C3518 C 0.28099 0.85243 0.91917 0.0
C3519 C 0.315 0.89926 0.97142 0.0
C3520 C 0.26743 0.82105 0.83949 0.0
C3521 C 0.26875 0.83076 0.85765 0.0
C3522 C 0.29602 0.87194 0.8914 0.0
C3523 C 0.29484 0.88014 0.94437 0.0
C3524 C 0.29133 0.87099 0.92429 0.0
C3525 C 0.28429 0.84342 0.86662 0.0
C3526 C 0.28609 0.85317 0.88632 0.0
H3527 H 0.27426 0.88809 0.98158 0.0
H3528 H 0.26843 0.87182 0.94902 0.0
H3529 H 0.30642 0.89515 0.91354 0.0
H3530 H 0.30817 0.83911 0.83162 0.0
H3531 H 0.3106 0.85574 0.86327 0.0
C3532 C 0.97098 0.61807 0.77038 0.0
C3533 C 0.98045 0.63508 0.78143 0.0
C3534 C 0.97828 0.60886 0.75699 0.0
C3535 C 0.02013 0.60646 0.74249 0.0
H3536 H 0.99111 0.58488 0.69389 0.0
C3537 C 0.02163 0.56245 0.66529 0.0
C3538 C 0.03582 0.57466 0.66 0.0
C3539 C 0.016 0.56696 0.68229 0.0
C3540 C 0.9993 0.5905 0.70752 0.0
H3541 H 0.00498 0.65583 0.78706 0.0
H3542 H 0.01758 0.64007 0.76317 0.0
H3543 H 0.97882 0.59927 0.71873 0.0
H3544 H 0.05587 0.60057 0.66906 0.0
H3545 H 0.04623 0.60817 0.69877 0.0
H3546 H 0.04079 0.5983 0.73076 0.0
C3547 C 0.00464 0.6336 0.7652 0.0
C3548 C 0.99227 0.59879 0.72177 0.0
C3549 C 0.99737 0.64273 0.77876 0.0
C3550 C 0.04502 0.5907 0.67276 0.0
C3551 C 0.03948 0.59511 0.6898 0.0
C3552 C 0.02721 0.59829 0.72812 0.0
C3553 C 0.99516 0.61655 0.75416 0.0
C3554 C 1.00262 0.60704 0.73937 0.0
C3555 C 0.02455 0.58367 0.69438 0.0
C3556 C 0.01688 0.59039 0.71044 0.0
H3557 H 0.95797 0.61166 0.77223 0.0
H3558 H 0.97072 0.5956 0.74899 0.0
H3559 H 0.02838 0.61238 0.756 0.0
H3560 H 0.01447 0.54979 0.65596 0.0
H3561 H 0.0046 0.55775 0.68566 0.0
C3562 C 0.26887 0.25196 0.46844 0.0
C3563 C 0.26991 0.23288 0.46909 0.0
C3564 C 0.27116 0.26086 0.45197 0.0
C3565 C 0.26762 0.25111 0.40013 0.0
H3566 H 0.29981 0.30011 0.40396 0.0
C3567 C 0.28681 0.28375 0.33284 0.0
C3568 C 0.291 0.30365 0.33321 0.0
C3569 C 0.28377 0.27535 0.34939 0.0
C3570 C 0.29051 0.2866 0.40257 0.0
H3571 H 0.27399 0.20815 0.4528 0.0
H3572 H 0.27759 0.22357 0.42395 0.0
H3573 H 0.29514 0.28526 0.43279 0.0
H3574 H 0.29476 0.33037 0.35101 0.0
H3575 H 0.28877 0.31583 0.37968 0.0
H3576 H 0.26253 0.25254 0.37007 0.0
C3577 C 0.27512 0.23166 0.43625 0.0
C3578 C 0.28793 0.27805 0.41915 0.0
C3579 C 0.27314 0.22287 0.45281 0.0
C3580 C 0.29171 0.31499 0.35036 0.0
C3581 C 0.2884 0.30659 0.36685 0.0
C3582 C 0.26997 0.25979 0.38357 0.0
C3583 C 0.27422 0.25077 0.43566 0.0
C3584 C 0.27657 0.26014 0.4181 0.0
C3585 C 0.28454 0.28663 0.36669 0.0
C3586 C 0.28158 0.27762 0.38448 0.0
H3587 H 0.26645 0.26009 0.48073 0.0
H3588 H 0.27032 0.27557 0.4519 0.0
H3589 H 0.25861 0.2374 0.3989 0.0
H3590 H 0.28623 0.27464 0.31983 0.0
H3591 H 0.28116 0.25998 0.34863 0.0
C3592 C 0.32503 0.65413 0.52183 0.0
C3593 C 0.32822 0.67275 0.51667 0.0
C3594 C 0.33743 0.64333 0.52145 0.0
C3595 C 0.37594 0.63962 0.50033 0.0
H3596 H 0.38517 0.60981 0.54177 0.0
C3597 C 0.43385 0.60415 0.50827 0.0
C3598 C 0.43131 0.58585 0.51426 0.0
C3599 C 0.42117 0.61457 0.50849 0.0
C3600 C 0.38261 0.61786 0.52996 0.0
H3601 H 0.34699 0.69457 0.507 0.0
H3602 H 0.36858 0.67578 0.50641 0.0
H3603 H 0.36315 0.6281 0.54217 0.0
H3604 H 0.41341 0.56433 0.5254 0.0
H3605 H 0.39116 0.5823 0.52534 0.0
H3606 H 0.39533 0.62935 0.48806 0.0
C3607 C 0.35643 0.66945 0.51059 0.0
C3608 C 0.36998 0.62836 0.53019 0.0
C3609 C 0.34408 0.68027 0.51105 0.0
C3610 C 0.41574 0.57827 0.52047 0.0
C3611 C 0.40305 0.58869 0.52067 0.0
C3612 C 0.38853 0.62908 0.50006 0.0
C3613 C 0.35328 0.65086 0.5158 0.0
C3614 C 0.36653 0.63942 0.51541 0.0
C3615 C 0.40559 0.60698 0.51468 0.0
C3616 C 0.39207 0.6181 0.5149 0.0
H3617 H 0.31295 0.64788 0.5262 0.0
H3618 H 0.33451 0.62898 0.52535 0.0
H3619 H 0.37342 0.64775 0.48856 0.0
H3620 H 0.44559 0.61037 0.50321 0.0
H3621 H 0.42367 0.62869 0.50398 0.0
C3622 C 0.86693 0.98182 0.57215 0.0
C3623 C 0.85635 0.96947 0.55663 0.0
C3624 C 0.88358 0.99167 0.57065 0.0
C3625 C 0.91878 0.99043 0.5431 0.0
H3626 H 0.93578 0.04307 0.56533 0.0
C3627 C 0.98569 0.03549 0.53444 0.0
C3628 C 0.99532 0.04776 0.55049 0.0
C3629 C 0.96847 0.02621 0.53432 0.0
C3630 C 0.93134 0.02831 0.55921 0.0
H3631 H 0.85507 0.95786 0.52731 0.0
H3632 H 0.88408 0.97507 0.52471 0.0
H3633 H 0.90641 0.02643 0.5669 0.0
H3634 H 0.99457 0.0598 0.57905 0.0
H3635 H 0.96478 0.0435 0.57902 0.0
H3636 H 0.94378 0.99223 0.53562 0.0
C3637 C 0.87953 0.97703 0.5381 0.0
C3638 C 0.91445 0.01877 0.56011 0.0
C3639 C 0.86285 0.96725 0.53956 0.0
C3640 C 0.98744 0.05052 0.56641 0.0
C3641 C 0.97029 0.04126 0.56633 0.0
C3642 C 0.93571 0.99996 0.54226 0.0
C3643 C 0.89013 0.98936 0.55363 0.0
C3644 C 0.90798 0.99966 0.55218 0.0
C3645 C 0.96053 0.02898 0.55029 0.0
C3646 C 0.94227 0.019 0.55043 0.0
H3647 H 0.86238 0.98385 0.58552 0.0
H3648 H 0.89144 0.00086 0.58297 0.0
H3649 H 0.9143 0.97566 0.53703 0.0
H3650 H 0.99149 0.03295 0.52205 0.0
H3651 H 0.96135 0.01699 0.52165 0.0
C3652 C 0.85286 0.07958 0.20696 0.0
C3653 C 0.86855 0.08154 0.2194 0.0
C3654 C 0.84022 0.08835 0.2123 0.0
C3655 C 0.82578 0.10842 0.25434 0.0
H3656 H 0.80474 0.13769 0.21861 0.0
C3657 C 0.79412 0.16867 0.27641 0.0
C3658 C 0.78123 0.17307 0.26314 0.0
C3659 C 0.80161 0.15364 0.27181 0.0
C3660 C 0.81013 0.12921 0.22865 0.0
H3661 H 0.88336 0.09436 0.24713 0.0
H3662 H 0.86134 0.10978 0.25634 0.0
H3663 H 0.82452 0.1195 0.20866 0.0
H3664 H 0.76494 0.16384 0.23537 0.0
H3665 H 0.77742 0.13718 0.2278 0.0
H3666 H 0.81161 0.11844 0.27447 0.0
C3667 C 0.85875 0.10126 0.24257 0.0
C3668 C 0.82155 0.11887 0.22294 0.0
C3669 C 0.87142 0.09259 0.2372 0.0
C3670 C 0.77481 0.16092 0.24599 0.0
C3671 C 0.78216 0.14576 0.2415 0.0
C3672 C 0.81425 0.11869 0.26004 0.0
C3673 C 0.843 0.09915 0.23022 0.0
C3674 C 0.82975 0.10869 0.23584 0.0
C3675 C 0.79621 0.14256 0.25393 0.0
C3676 C 0.80656 0.12951 0.24736 0.0
H3677 H 0.85024 0.07111 0.19317 0.0
H3678 H 0.82816 0.08646 0.20252 0.0
H3679 H 0.83175 0.10043 0.26448 0.0
H3680 H 0.79909 0.17749 0.28994 0.0
H3681 H 0.8124 0.15157 0.28177 0.0
C3682 C 0.72508 0.15186 0.01186 0.0
C3683 C 0.72799 0.17176 0.01224 0.0
C3684 C 0.70836 0.14067 0.01072 0.0
C3685 C 0.66624 0.14412 0.02226 0.0
H3686 H 0.64902 0.09534 0.99098 0.0
C3687 C 0.60475 0.09231 0.03296 0.0
C3688 C 0.59245 0.08419 0.0166 0.0
C3689 C 0.62133 0.10199 0.03134 0.0
C3690 C 0.65364 0.10899 0.99969 0.0
H3691 H 0.71552 0.19543 0.01117 0.0
H3692 H 0.68647 0.17596 0.00921 0.0
H3693 H 0.6778 0.11454 0.98957 0.0
H3694 H 0.58829 0.07928 0.98566 0.0
H3695 H 0.61745 0.09627 0.98288 0.0
H3696 H 0.64221 0.1387 0.0324 0.0
C3697 C 0.69711 0.16901 0.00998 0.0
C3698 C 0.67014 0.11989 0.99901 0.0
C3699 C 0.71378 0.18017 0.01103 0.0
C3700 C 0.59741 0.08539 0.99856 0.0
C3701 C 0.61412 0.09507 0.99695 0.0
C3702 C 0.64986 0.1332 0.02304 0.0
C3703 C 0.69422 0.14917 0.01004 0.0
C3704 C 0.67662 0.13758 0.01032 0.0
C3705 C 0.62613 0.10381 0.01334 0.0
C3706 C 0.6434 0.11546 0.01187 0.0
H3707 H 0.73574 0.14492 0.01271 0.0
H3708 H 0.70657 0.12543 0.01093 0.0
H3709 H 0.6709 0.15758 0.03129 0.0
H3710 H 0.60153 0.09157 0.04712 0.0
H3711 H 0.6304 0.10825 0.04425 0.0
C3712 C 0.17268 0.44008 0.24725 0.0
C3713 C 0.15687 0.43408 0.25347 0.0
C3714 C 0.18702 0.43356 0.25472 0.0
C3715 C 0.20445 0.40963 0.29483 0.0
H3716 H 0.23392 0.3979 0.25959 0.0
C3717 C 0.24936 0.35793 0.30439 0.0
C3718 C 0.26473 0.36195 0.29687 0.0
C3719 C 0.2384 0.37041 0.30323 0.0
C3720 C 0.22604 0.40148 0.26972 0.0
H3721 H 0.14363 0.41645 0.27236 0.0
H3722 H 0.16856 0.40436 0.28489 0.0
H3723 H 0.20969 0.41121 0.24834 0.0
H3724 H 0.28157 0.38312 0.28412 0.0
H3725 H 0.26235 0.4049 0.28207 0.0
H3726 H 0.2205 0.39884 0.31595 0.0
C3727 C 0.17 0.41455 0.27459 0.0
C3728 C 0.2121 0.4091 0.26326 0.0
C3729 C 0.15566 0.4213 0.26728 0.0
C3730 C 0.26976 0.37955 0.28991 0.0
C3731 C 0.25873 0.39197 0.28864 0.0
C3732 C 0.21834 0.40178 0.30125 0.0
C3733 C 0.18586 0.42062 0.2684 0.0
C3734 C 0.20104 0.41315 0.27567 0.0
C3735 C 0.2426 0.38707 0.29445 0.0
C3736 C 0.22918 0.39751 0.28869 0.0
H3737 H 0.17412 0.45015 0.23683 0.0
H3738 H 0.19909 0.43885 0.24989 0.0
H3739 H 0.19635 0.41287 0.30484 0.0
H3740 H 0.24522 0.34456 0.31004 0.0
H3741 H 0.22604 0.36625 0.3078 0.0
C3742 C 0.25768 0.463 0.05168 0.0
C3743 C 0.26408 0.46163 0.03447 0.0
C3744 C 0.24313 0.47039 0.05274 0.0
C3745 C 0.21604 0.49954 0.02772 0.0
H3746 H 0.18262 0.47657 0.0579 0.0
C3747 C 0.14982 0.51893 0.02554 0.0
C3748 C 0.14403 0.52133 0.04304 0.0
C3749 C 0.16435 0.51156 0.02442 0.0
C3750 C 0.1919 0.48328 0.04955 0.0
H3751 H 0.26013 0.46701 0.00485 0.0
H3752 H 0.23468 0.47959 0.00661 0.0
H3753 H 0.20813 0.46409 0.05613 0.0
H3754 H 0.14929 0.51792 0.07314 0.0
H3755 H 0.17446 0.5049 0.07112 0.0
H3756 H 0.19971 0.51864 0.02105 0.0
C3757 C 0.24105 0.47525 0.01941 0.0
C3758 C 0.20658 0.47614 0.04856 0.0
C3759 C 0.25562 0.46793 0.01837 0.0
C3760 C 0.15313 0.51598 0.05935 0.0
C3761 C 0.16762 0.50854 0.0582 0.0
C3762 C 0.20133 0.50663 0.02866 0.0
C3763 C 0.23456 0.47655 0.0366 0.0
C3764 C 0.21889 0.48418 0.03765 0.0
C3765 C 0.17347 0.50629 0.04074 0.0
C3766 C 0.18907 0.49862 0.03961 0.0
H3767 H 0.26389 0.45836 0.06439 0.0
H3768 H 0.23872 0.47143 0.0663 0.0
H3769 H 0.22534 0.50633 0.01943 0.0
H3770 H 0.143 0.52257 0.01262 0.0
H3771 H 0.16833 0.50975 0.01068 0.0
C3772 C 0.88046 0.96568 0.1921 0.0
C3773 C 0.87343 0.98168 0.19017 0.0
C3774 C 0.87052 0.94871 0.19645 0.0
C3775 C 0.85174 0.92165 0.22064 0.0
H3776 H 0.80224 0.90543 0.20421 0.0
C3777 C 0.80861 0.87153 0.26173 0.0
C3778 C 0.79447 0.85802 0.25115 0.0
C3779 C 0.81825 0.88553 0.25275 0.0
C3780 C 0.81609 0.90956 0.20879 0.0
H3781 H 0.85013 0.99206 0.19012 0.0
H3782 H 0.83302 0.96282 0.19809 0.0
H3783 H 0.81889 0.93043 0.18923 0.0
H3784 H 0.77928 0.84835 0.22295 0.0
H3785 H 0.79625 0.87246 0.20719 0.0
H3786 H 0.849 0.90049 0.2399 0.0
C3787 C 0.8461 0.96315 0.19602 0.0
C3788 C 0.82562 0.92408 0.20034 0.0
C3789 C 0.85598 0.98002 0.19154 0.0
C3790 C 0.79004 0.85875 0.23148 0.0
C3791 C 0.79975 0.8726 0.22247 0.0
C3792 C 0.84224 0.907 0.22897 0.0
C3793 C 0.85338 0.94746 0.19905 0.0
C3794 C 0.84352 0.93055 0.2064 0.0
C3795 C 0.814 0.88616 0.23298 0.0
C3796 C 0.82425 0.90101 0.22339 0.0
H3797 H 0.89383 0.96645 0.19098 0.0
H3798 H 0.87641 0.93676 0.19827 0.0
H3799 H 0.86547 0.92639 0.22586 0.0
H3800 H 0.81225 0.87126 0.27694 0.0
H3801 H 0.82894 0.89595 0.26136 0.0
C3802 C 0.66765 0.02743 0.74317 0.0
C3803 C 0.65126 0.02476 0.74844 0.0
C3804 C 0.67811 0.0457 0.74426 0.0
C3805 C 0.68537 0.09503 0.76635 0.0
H3806 H 0.70536 0.10795 0.72157 0.0
C3807 C 0.71439 0.16637 0.73152 0.0
C3808 C 0.72637 0.17705 0.74707 0.0
C3809 C 0.70676 0.14726 0.73225 0.0
C3810 C 0.69987 0.10452 0.73417 0.0
H3811 H 0.63319 0.03911 0.75952 0.0
H3812 H 0.65153 0.0711 0.76144 0.0
H3813 H 0.68891 0.07554 0.7224 0.0
H3814 H 0.74015 0.17578 0.77535 0.0
H3815 H 0.72649 0.14244 0.77672 0.0
H3816 H 0.69608 0.12415 0.77796 0.0
C3817 C 0.65627 0.059 0.75652 0.0
C3818 C 0.69059 0.08597 0.73472 0.0
C3819 C 0.64574 0.04071 0.75532 0.0
C3820 C 0.73074 0.16806 0.76325 0.0
C3821 C 0.72298 0.14898 0.76404 0.0
C3822 C 0.69479 0.11357 0.76587 0.0
C3823 C 0.67245 0.06167 0.75075 0.0
C3824 C 0.68308 0.0811 0.75072 0.0
C3825 C 0.71083 0.13846 0.74859 0.0
C3826 C 0.70194 0.11853 0.74967 0.0
H3827 H 0.67234 0.01544 0.73789 0.0
H3828 H 0.69061 0.04735 0.73993 0.0
H3829 H 0.67982 0.09161 0.77892 0.0
H3830 H 0.71047 0.1729 0.71898 0.0
H3831 H 0.69726 0.13954 0.72023 0.0
loop_
_geom_bond_atom_site_label_1
_geom_bond_atom_site_label_2
_geom_bond_distance
_geom_bond_site_symmetry_2
_ccdc_geom_bond_type
C0 O1 1.160 . S
C0 O7 1.185 . S
O1 C0 1.160 . S
O2 Zn3 1.899 . S
O2 C10 1.284 . S
Zn3 O2 1.899 . S
Zn3 O4 2.032 . S
Zn3 O7 2.086 . S
Zn3 O12 1.977 1_455 S
O4 Zn3 2.032 . S
O4 C8 1.278 . S
C5 O6 1.203 . S
C5 O12 1.267 . S
O6 C5 1.203 . S
O7 C0 1.185 . S
O7 Zn3 2.086 . S
C8 O4 1.278 . S
C8 O9 1.211 1_455 S
O9 C8 1.211 1_655 S
C10 O2 1.284 . S
C10 O11 1.273 . S
O11 C10 1.273 . S
O12 Zn3 1.977 1_655 S
O12 C5 1.267 . S
C13 O14 1.160 . S
C13 O20 1.185 . S
O14 C13 1.160 . S
O15 Zn16 1.899 . S
O15 C23 1.284 . S
Zn16 O15 1.899 . S
Zn16 O17 2.032 . S
Zn16 O20 2.086 . S
Zn16 O25 1.977 . S
O17 Zn16 2.032 . S
O17 C21 1.278 . S
C18 O19 1.203 . S
C18 O25 1.267 . S
O19 C18 1.203 . S
O20 C13 1.185 . S
O20 Zn16 2.086 . S
C21 O17 1.278 . S
C21 O22 1.211 . S
O22 C21 1.211 . S
C23 O15 1.284 . S
C23 O24 1.273 . S
O24 C23 1.273 . S
O25 Zn16 1.977 . S
O25 C18 1.267 . S
C26 O27 1.160 . S
C26 O33 1.185 . S
O27 C26 1.160 . S
O28 Zn29 1.899 . S
O28 C36 1.284 . S
Zn29 O28 1.899 . S
Zn29 O30 2.032 . S
Zn29 O33 2.086 . S
Zn29 O38 1.977 . S
O30 Zn29 2.032 . S
O30 C34 1.278 . S
C31 O32 1.203 . S
C31 O38 1.267 . S
O32 C31 1.203 . S
O33 C26 1.185 . S
O33 Zn29 2.086 . S
C34 O30 1.278 . S
C34 O35 1.211 . S
O35 C34 1.211 . S
C36 O28 1.284 . S
C36 O37 1.273 . S
O37 C36 1.273 . S
O38 Zn29 1.977 . S
O38 C31 1.267 . S
C39 O40 1.160 . S
C39 O46 1.185 . S
O40 C39 1.160 . S
O41 Zn42 1.899 . S
O41 C49 1.284 . S
Zn42 O41 1.899 . S
Zn42 O43 2.032 . S
Zn42 O46 2.086 . S
Zn42 O51 1.977 . S
O43 Zn42 2.032 . S
O43 C47 1.278 . S
C44 O45 1.203 . S
C44 O51 1.267 . S
O45 C44 1.203 . S
O46 C39 1.185 . S
O46 Zn42 2.086 . S
C47 O43 1.278 . S
C47 O48 1.211 . S
O48 C47 1.211 . S
C49 O41 1.284 . S
C49 O50 1.273 . S
O50 C49 1.273 . S
O51 Zn42 1.977 . S
O51 C44 1.267 . S
C52 O53 1.160 . S
C52 O59 1.185 . S
O53 C52 1.160 . S
O54 Zn55 1.899 . S
O54 C62 1.284 . S
Zn55 O54 1.899 . S
Zn55 O56 2.032 . S
Zn55 O59 2.086 . S
Zn55 O64 1.977 . S
O56 Zn55 2.032 . S
O56 C60 1.278 . S
C57 O58 1.203 . S
C57 O64 1.267 . S
O58 C57 1.203 . S
O59 C52 1.185 . S
O59 Zn55 2.086 . S
C60 O56 1.278 . S
C60 O61 1.211 . S
O61 C60 1.211 . S
C62 O54 1.284 . S
C62 O63 1.273 . S
O63 C62 1.273 . S
O64 Zn55 1.977 . S
O64 C57 1.267 . S
C65 O66 1.160 . S
C65 O72 1.185 . S
O66 C65 1.160 . S
O67 Zn68 1.899 . S
O67 C75 1.284 . S
Zn68 O67 1.899 . S
Zn68 O69 2.032 . S
Zn68 O72 2.086 . S
Zn68 O77 1.977 . S
O69 Zn68 2.032 . S
O69 C73 1.278 . S
C70 O71 1.203 . S
C70 O77 1.267 . S
O71 C70 1.203 . S
O72 C65 1.185 . S
O72 Zn68 2.086 . S
C73 O69 1.278 . S
C73 O74 1.211 . S
O74 C73 1.211 . S
C75 O67 1.284 . S
C75 O76 1.273 . S
O76 C75 1.273 . S
O77 Zn68 1.977 . S
O77 C70 1.267 . S
C78 O79 1.160 . S
C78 O85 1.185 . S
O79 C78 1.160 . S
O80 Zn81 1.899 . S
O80 C88 1.284 . S
Zn81 O80 1.899 . S
Zn81 O82 2.032 . S
Zn81 O85 2.086 . S
Zn81 O90 1.977 . S
O82 Zn81 2.032 . S
O82 C86 1.278 . S
C83 O84 1.203 . S
C83 O90 1.267 . S
O84 C83 1.203 . S
O85 C78 1.185 . S
O85 Zn81 2.086 . S
C86 O82 1.278 . S
C86 O87 1.211 . S
O87 C86 1.211 . S
C88 O80 1.284 . S
C88 O89 1.273 . S
O89 C88 1.273 . S
O90 Zn81 1.977 . S
O90 C83 1.267 . S
C91 O92 1.160 . S
C91 O98 1.185 . S
O92 C91 1.160 . S
O93 Zn94 1.899 . S
O93 C101 1.284 . S
Zn94 O93 1.899 . S
Zn94 O95 2.032 . S
Zn94 O98 2.086 . S
Zn94 O103 1.977 1_455 S
O95 Zn94 2.032 . S
O95 C99 1.278 . S
C96 O97 1.203 . S
C96 O103 1.267 . S
O97 C96 1.203 . S
O98 C91 1.185 . S
O98 Zn94 2.086 . S
C99 O95 1.278 . S
C99 O100 1.211 . S
O100 C99 1.211 . S
C101 O93 1.284 . S
C101 O102 1.273 . S
O102 C101 1.273 . S
O103 Zn94 1.977 1_655 S
O103 C96 1.267 . S
C104 O105 1.160 . S
C104 O111 1.185 . S
O105 C104 1.160 . S
O106 Zn107 1.899 . S
O106 C114 1.284 . S
Zn107 O106 1.899 . S
Zn107 O108 2.032 . S
Zn107 O111 2.086 . S
Zn107 O116 1.977 . S
O108 Zn107 2.032 . S
O108 C112 1.278 . S
C109 O110 1.203 . S
C109 O116 1.267 . S
O110 C109 1.203 . S
O111 C104 1.185 . S
O111 Zn107 2.086 . S
C112 O108 1.278 . S
C112 O113 1.211 . S
O113 C112 1.211 . S
C114 O106 1.284 . S
C114 O115 1.273 . S
O115 C114 1.273 . S
O116 Zn107 1.977 . S
O116 C109 1.267 . S
C117 O118 1.160 . S
C117 O124 1.185 . S
O118 C117 1.160 . S
O119 Zn120 1.899 . S
O119 C127 1.284 . S
Zn120 O119 1.899 . S
Zn120 O121 2.032 . S
Zn120 O124 2.086 . S
Zn120 O129 1.977 . S
O121 Zn120 2.032 . S
O121 C125 1.278 . S
C122 O123 1.203 . S
C122 O129 1.267 . S
O123 C122 1.203 . S
O124 C117 1.185 . S
O124 Zn120 2.086 . S
C125 O121 1.278 . S
C125 O126 1.211 . S
O126 C125 1.211 . S
C127 O119 1.284 . S
C127 O128 1.273 . S
O128 C127 1.273 . S
O129 Zn120 1.977 . S
O129 C122 1.267 . S
C130 O131 1.160 . S
C130 O137 1.185 . S
O131 C130 1.160 . S
O132 Zn133 1.899 . S
O132 C140 1.284 . S
Zn133 O132 1.899 . S
Zn133 O134 2.032 . S
Zn133 O137 2.086 . S
Zn133 O142 1.977 . S
O134 Zn133 2.032 . S
O134 C138 1.278 . S
C135 O136 1.203 . S
C135 O142 1.267 . S
O136 C135 1.203 . S
O137 C130 1.185 . S
O137 Zn133 2.086 . S
C138 O134 1.278 . S
C138 O139 1.211 . S
O139 C138 1.211 . S
C140 O132 1.284 . S
C140 O141 1.273 . S
O141 C140 1.273 . S
O142 Zn133 1.977 . S
O142 C135 1.267 . S
C143 O144 1.160 . S
C143 O150 1.185 . S
O144 C143 1.160 . S
O145 Zn146 1.899 . S
O145 C153 1.284 . S
Zn146 O145 1.899 . S
Zn146 O147 2.032 . S
Zn146 O150 2.086 . S
Zn146 O155 1.977 . S
O147 Zn146 2.032 . S
O147 C151 1.278 . S
C148 O149 1.203 . S
C148 O155 1.267 . S
O149 C148 1.203 . S
O150 C143 1.185 . S
O150 Zn146 2.086 . S
C151 O147 1.278 . S
C151 O152 1.211 . S
O152 C151 1.211 . S
C153 O145 1.284 . S
C153 O154 1.273 . S
O154 C153 1.273 . S
O155 Zn146 1.977 . S
O155 C148 1.267 . S
C156 O157 1.160 . S
C156 O163 1.185 . S
O157 C156 1.160 . S
O158 Zn159 1.899 . S
O158 C166 1.284 . S
Zn159 O158 1.899 . S
Zn159 O160 2.032 . S
Zn159 O163 2.086 . S
Zn159 O168 1.977 . S
O160 Zn159 2.032 . S
O160 C164 1.278 1_554 S
C161 O162 1.203 . S
C161 O168 1.267 . S
O162 C161 1.203 . S
O163 C156 1.185 . S
O163 Zn159 2.086 . S
C164 O160 1.278 1_556 S
C164 O165 1.211 1_556 S
O165 C164 1.211 1_554 S
C166 O158 1.284 . S
C166 O167 1.273 . S
O167 C166 1.273 . S
O168 Zn159 1.977 . S
O168 C161 1.267 . S
C169 O170 1.160 . S
C169 O176 1.185 1_554 S
O170 C169 1.160 . S
O171 Zn172 1.899 . S
O171 C179 1.284 . S
Zn172 O171 1.899 . S
Zn172 O173 2.032 1_554 S
Zn172 O176 2.086 1_554 S
Zn172 O181 1.977 1_554 S
O173 Zn172 2.032 1_556 S
O173 C177 1.278 . S
C174 O175 1.203 1_556 S
C174 O181 1.267 . S
O175 C174 1.203 1_554 S
O176 C169 1.185 1_556 S
O176 Zn172 2.086 1_556 S
C177 O173 1.278 . S
C177 O178 1.211 . S
O178 C177 1.211 . S
C179 O171 1.284 . S
C179 O180 1.273 . S
O180 C179 1.273 . S
O181 Zn172 1.977 1_556 S
O181 C174 1.267 . S
C182 O183 1.160 . S
C182 O189 1.185 . S
O183 C182 1.160 . S
O184 Zn185 1.899 . S
O184 C192 1.284 . S
Zn185 O184 1.899 . S
Zn185 O186 2.032 . S
Zn185 O189 2.086 . S
Zn185 O194 1.977 . S
O186 Zn185 2.032 . S
O186 C190 1.278 . S
C187 O188 1.203 . S
C187 O194 1.267 . S
O188 C187 1.203 . S
O189 C182 1.185 . S
O189 Zn185 2.086 . S
C190 O186 1.278 . S
C190 O191 1.211 . S
O191 C190 1.211 . S
C192 O184 1.284 . S
C192 O193 1.273 . S
O193 C192 1.273 . S
O194 Zn185 1.977 . S
O194 C187 1.267 . S
C195 O196 1.160 . S
C195 O202 1.185 . S
O196 C195 1.160 . S
O197 Zn198 1.899 . S
O197 C205 1.284 . S
Zn198 O197 1.899 . S
Zn198 O199 2.032 . S
Zn198 O202 2.086 . S
Zn198 O207 1.977 . S
O199 Zn198 2.032 . S
O199 C203 1.278 . S
C200 O201 1.203 . S
C200 O207 1.267 . S
O201 C200 1.203 . S
O202 C195 1.185 . S
O202 Zn198 2.086 . S
C203 O199 1.278 . S
C203 O204 1.211 . S
O204 C203 1.211 . S
C205 O197 1.284 . S
C205 O206 1.273 . S
O206 C205 1.273 . S
O207 Zn198 1.977 . S
O207 C200 1.267 . S
C208 O209 1.160 . S
C208 O215 1.185 . S
O209 C208 1.160 . S
O210 Zn211 1.899 . S
O210 C218 1.284 . S
Zn211 O210 1.899 . S
Zn211 O212 2.032 . S
Zn211 O215 2.086 . S
Zn211 O220 1.977 . S
O212 Zn211 2.032 . S
O212 C216 1.278 . S
C213 O214 1.203 . S
C213 O220 1.267 . S
O214 C213 1.203 . S
O215 C208 1.185 . S
O215 Zn211 2.086 . S
C216 O212 1.278 . S
C216 O217 1.211 . S
O217 C216 1.211 . S
C218 O210 1.284 . S
C218 O219 1.273 . S
O219 C218 1.273 . S
O220 Zn211 1.977 . S
O220 C213 1.267 . S
C221 O222 1.160 . S
C221 O228 1.185 . S
O222 C221 1.160 . S
O223 Zn224 1.899 . S
O223 C231 1.284 . S
Zn224 O223 1.899 . S
Zn224 O225 2.032 . S
Zn224 O228 2.086 . S
Zn224 O233 1.977 . S
O225 Zn224 2.032 . S
O225 C229 1.278 . S
C226 O227 1.203 . S
C226 O233 1.267 . S
O227 C226 1.203 . S
O228 C221 1.185 . S
O228 Zn224 2.086 . S
C229 O225 1.278 . S
C229 O230 1.211 . S
O230 C229 1.211 . S
C231 O223 1.284 . S
C231 O232 1.273 . S
O232 C231 1.273 . S
O233 Zn224 1.977 . S
O233 C226 1.267 . S
C234 O235 1.160 . S
C234 O241 1.185 . S
O235 C234 1.160 . S
O236 Zn237 1.899 . S
O236 C244 1.284 . S
Zn237 O236 1.899 . S
Zn237 O238 2.032 . S
Zn237 O241 2.086 . S
Zn237 O246 1.977 . S
O238 Zn237 2.032 . S
O238 C242 1.278 . S
C239 O240 1.203 . S
C239 O246 1.267 . S
O240 C239 1.203 . S
O241 C234 1.185 . S
O241 Zn237 2.086 . S
C242 O238 1.278 . S
C242 O243 1.211 . S
O243 C242 1.211 . S
C244 O236 1.284 . S
C244 O245 1.273 . S
O245 C244 1.273 . S
O246 Zn237 1.977 . S
O246 C239 1.267 . S
C247 O248 1.160 . S
C247 O254 1.185 . S
O248 C247 1.160 . S
O249 Zn250 1.897 . S
O249 C257 1.284 . S
Zn250 O249 1.897 . S
Zn250 O251 2.047 . S
Zn250 O254 2.131 . S
Zn250 O259 1.936 1_565 S
O251 Zn250 2.047 . S
O251 C255 1.278 1_565 S
C252 O253 1.203 . S
C252 O259 1.267 . S
O253 C252 1.203 . S
O254 C247 1.185 . S
O254 Zn250 2.131 . S
C255 O251 1.278 1_545 S
C255 O256 1.211 . S
O256 C255 1.211 . S
C257 O249 1.284 . S
C257 O258 1.273 1_565 S
O258 C257 1.273 1_545 S
O259 Zn250 1.936 1_545 S
O259 C252 1.267 . S
C260 O261 1.160 . S
C260 O267 1.185 . S
O261 C260 1.160 . S
O262 Zn263 1.899 . S
O262 C270 1.284 . S
Zn263 O262 1.899 . S
Zn263 O264 2.032 . S
Zn263 O267 2.086 . S
Zn263 O272 1.977 . S
O264 Zn263 2.032 . S
O264 C268 1.278 1_554 S
C265 O266 1.203 . S
C265 O272 1.267 . S
O266 C265 1.203 . S
O267 C260 1.185 . S
O267 Zn263 2.086 . S
C268 O264 1.278 1_556 S
C268 O269 1.211 . S
O269 C268 1.211 . S
C270 O262 1.284 . S
C270 O271 1.273 . S
O271 C270 1.273 . S
O272 Zn263 1.977 . S
O272 C265 1.267 . S
C273 O274 1.160 . S
C273 O280 1.185 . S
O274 C273 1.160 . S
O275 Zn276 1.899 . S
O275 C283 1.284 . S
Zn276 O275 1.899 . S
Zn276 O277 2.032 . S
Zn276 O280 2.086 . S
Zn276 O285 1.977 . S
O277 Zn276 2.032 . S
O277 C281 1.278 . S
C278 O279 1.203 . S
C278 O285 1.267 . S
O279 C278 1.203 . S
O280 C273 1.185 . S
O280 Zn276 2.086 . S
C281 O277 1.278 . S
C281 O282 1.211 . S
O282 C281 1.211 . S
C283 O275 1.284 . S
C283 O284 1.273 . S
O284 C283 1.273 . S
O285 Zn276 1.977 . S
O285 C278 1.267 . S
C286 O287 1.160 . S
C286 O293 1.185 . S
O287 C286 1.160 . S
O288 Zn289 1.899 . S
O288 C296 1.284 . S
Zn289 O288 1.899 . S
Zn289 O290 2.032 . S
Zn289 O293 2.086 . S
Zn289 O298 1.977 . S
O290 Zn289 2.032 . S
O290 C294 1.278 . S
C291 O292 1.203 . S
C291 O298 1.267 . S
O292 C291 1.203 . S
O293 C286 1.185 . S
O293 Zn289 2.086 . S
C294 O290 1.278 . S
C294 O295 1.211 . S
O295 C294 1.211 . S
C296 O288 1.284 . S
C296 O297 1.273 . S
O297 C296 1.273 . S
O298 Zn289 1.977 . S
O298 C291 1.267 . S
C299 O300 1.160 . S
C299 O306 1.185 . S
O300 C299 1.160 . S
O301 Zn302 1.899 . S
O301 C309 1.284 . S
Zn302 O301 1.899 . S
Zn302 O303 2.032 . S
Zn302 O306 2.086 . S
Zn302 O311 1.977 . S
O303 Zn302 2.032 . S
O303 C307 1.278 . S
C304 O305 1.203 . S
C304 O311 1.267 . S
O305 C304 1.203 . S
O306 C299 1.185 . S
O306 Zn302 2.086 . S
C307 O303 1.278 . S
C307 O308 1.211 . S
O308 C307 1.211 . S
C309 O301 1.284 . S
C309 O310 1.273 . S
O310 C309 1.273 . S
O311 Zn302 1.977 . S
O311 C304 1.267 . S
Pr312 C314 2.880 1_454 S
Pr312 O332 2.562 1_455 S
Pr312 O333 2.490 1_454 S
Pr312 O334 2.695 . S
Pr312 O335 2.512 1_554 S
Pr312 O337 2.437 . S
Pr312 O340 2.436 . S
Pr312 O342 2.438 . S
Pr313 C323 2.880 . S
Pr313 O334 2.436 . S
Pr313 O336 2.438 . S
Pr313 O338 2.562 . S
Pr313 O339 2.490 . S
Pr313 O340 2.695 . S
Pr313 O341 2.512 . S
Pr313 O343 2.437 . S
C314 Pr312 2.880 1_656 S
C314 C315 1.491 . S
C314 O332 1.254 1_556 S
C314 O333 1.225 . S
C315 C314 1.491 . S
C315 C316 1.392 . S
C315 C320 1.373 . S
C316 C315 1.392 . S
C316 C317 1.368 . S
C316 H344 0.929 . S
C317 C316 1.368 . S
C317 C318 1.386 . S
C317 H345 0.929 . S
C318 C317 1.386 . S
C318 C319 1.373 . S
C319 C318 1.373 . S
C319 C320 1.416 . S
C319 H346 0.931 1_556 S
C320 C315 1.373 . S
C320 C319 1.416 . S
C320 H347 0.905 1_556 S
C321 O334 1.270 1_556 S
C321 O335 1.248 . S
C322 O336 1.267 . S
C322 O337 1.278 . S
C323 Pr313 2.880 . S
C323 C324 1.491 . S
C323 O338 1.254 . S
C323 O339 1.225 . S
C324 C323 1.491 . S
C324 C325 1.392 . S
C324 C329 1.356 . S
C325 C324 1.392 . S
C325 C326 1.368 . S
C325 H348 0.929 . S
C326 C325 1.368 . S
C326 C327 1.386 . S
C326 H349 0.929 . S
C327 C326 1.386 . S
C327 C328 1.373 . S
C328 C327 1.373 . S
C328 C329 1.409 . S
C328 H350 0.931 . S
C329 C324 1.356 . S
C329 C328 1.409 . S
C329 H351 0.930 . S
C330 O340 1.270 . S
C330 O341 1.248 . S
C331 O342 1.267 . S
C331 O343 1.278 . S
O332 Pr312 2.562 1_655 S
O332 C314 1.254 1_554 S
O333 Pr312 2.490 1_656 S
O333 C314 1.225 . S
O334 Pr312 2.695 . S
O334 Pr313 2.436 . S
O334 C321 1.270 1_554 S
O335 Pr312 2.512 1_556 S
O335 C321 1.248 . S
O336 Pr313 2.438 . S
O336 C322 1.267 . S
O337 Pr312 2.437 . S
O337 C322 1.278 . S
O338 Pr313 2.562 . S
O338 C323 1.254 . S
O339 Pr313 2.490 . S
O339 C323 1.225 . S
O340 Pr312 2.436 . S
O340 Pr313 2.695 . S
O340 C330 1.270 . S
O341 Pr313 2.512 . S
O341 C330 1.248 . S
O342 Pr312 2.438 . S
O342 C331 1.267 . S
O343 Pr313 2.437 . S
O343 C331 1.278 . S
H344 C316 0.929 . S
H345 C317 0.929 . S
H346 C319 0.931 1_554 S
H347 C320 0.905 1_554 S
H348 C325 0.929 . S
H349 C326 0.929 . S
H350 C328 0.931 . S
H351 C329 0.930 . S
Pr352 C354 2.880 . S
Pr352 O372 2.562 . S
Pr352 O373 2.490 . S
Pr352 O374 2.695 . S
Pr352 O375 2.512 . S
Pr352 O377 2.437 . S
Pr352 O380 2.436 . S
Pr352 O382 2.438 . S
Pr353 C363 2.880 . S
Pr353 O374 2.436 . S
Pr353 O376 2.438 . S
Pr353 O378 2.562 . S
Pr353 O379 2.490 . S
Pr353 O380 2.695 . S
Pr353 O381 2.512 . S
Pr353 O383 2.437 . S
C354 Pr352 2.880 . S
C354 C355 1.491 . S
C354 O372 1.254 . S
C354 O373 1.225 . S
C355 C354 1.491 . S
C355 C356 1.392 . S
C355 C360 1.356 . S
C356 C355 1.392 . S
C356 C357 1.368 . S
C356 H384 0.929 . S
C357 C356 1.368 . S
C357 C358 1.386 . S
C357 H385 0.929 . S
C358 C357 1.386 . S
C358 C359 1.373 . S
C359 C358 1.373 . S
C359 C360 1.409 . S
C359 H386 0.931 . S
C360 C355 1.356 . S
C360 C359 1.409 . S
C360 H387 0.930 . S
C361 O374 1.270 . S
C361 O375 1.248 . S
C362 O376 1.267 . S
C362 O377 1.278 . S
C363 Pr353 2.880 . S
C363 C364 1.491 . S
C363 O378 1.254 . S
C363 O379 1.225 . S
C364 C363 1.491 . S
C364 C365 1.392 . S
C364 C369 1.356 . S
C365 C364 1.392 . S
C365 C366 1.368 . S
C365 H388 0.929 . S
C366 C365 1.368 . S
C366 C367 1.386 . S
C366 H389 0.929 . S
C367 C366 1.386 . S
C367 C368 1.373 . S
C368 C367 1.373 . S
C368 C369 1.409 . S
C368 H390 0.931 . S
C369 C364 1.356 . S
C369 C368 1.409 . S
C369 H391 0.930 . S
C370 O380 1.270 . S
C370 O381 1.248 . S
C371 O382 1.267 . S
C371 O383 1.278 . S
O372 Pr352 2.562 . S
O372 C354 1.254 . S
O373 Pr352 2.490 . S
O373 C354 1.225 . S
O374 Pr352 2.695 . S
O374 Pr353 2.436 . S
O374 C361 1.270 . S
O375 Pr352 2.512 . S
O375 C361 1.248 . S
O376 Pr353 2.438 . S
O376 C362 1.267 . S
O377 Pr352 2.437 . S
O377 C362 1.278 . S
O378 Pr353 2.562 . S
O378 C363 1.254 . S
O379 Pr353 2.490 . S
O379 C363 1.225 . S
O380 Pr352 2.436 . S
O380 Pr353 2.695 . S
O380 C370 1.270 . S
O381 Pr353 2.512 . S
O381 C370 1.248 . S
O382 Pr352 2.438 . S
O382 C371 1.267 . S
O383 Pr353 2.437 . S
O383 C371 1.278 . S
H384 C356 0.929 . S
H385 C357 0.929 . S
H386 C359 0.931 . S
H387 C360 0.930 . S
H388 C365 0.929 . S
H389 C366 0.929 . S
H390 C368 0.931 . S
H391 C369 0.930 . S
Pr392 C394 2.880 . S
Pr392 O412 2.562 . S
Pr392 O413 2.490 . S
Pr392 O414 2.695 . S
Pr392 O415 2.512 . S
Pr392 O417 2.437 . S
Pr392 O420 2.436 . S
Pr392 O422 2.438 . S
Pr393 C403 2.880 . S
Pr393 O414 2.436 . S
Pr393 O416 2.438 . S
Pr393 O418 2.562 . S
Pr393 O419 2.490 . S
Pr393 O420 2.695 . S
Pr393 O421 2.512 . S
Pr393 O423 2.437 . S
C394 Pr392 2.880 . S
C394 C395 1.491 . S
C394 O412 1.254 . S
C394 O413 1.225 . S
C395 C394 1.491 . S
C395 C396 1.392 . S
C395 C400 1.356 . S
C396 C395 1.392 . S
C396 C397 1.368 . S
C396 H424 0.929 . S
C397 C396 1.368 . S
C397 C398 1.386 . S
C397 H425 0.929 . S
C398 C397 1.386 . S
C398 C399 1.373 . S
C399 C398 1.373 . S
C399 C400 1.409 . S
C399 H426 0.931 . S
C400 C395 1.356 . S
C400 C399 1.409 . S
C400 H427 0.930 . S
C401 O414 1.270 . S
C401 O415 1.248 . S
C402 O416 1.267 . S
C402 O417 1.278 . S
C403 Pr393 2.880 . S
C403 C404 1.491 . S
C403 O418 1.254 . S
C403 O419 1.225 . S
C404 C403 1.491 . S
C404 C405 1.392 . S
C404 C409 1.356 . S
C405 C404 1.392 . S
C405 C406 1.368 . S
C405 H428 0.929 . S
C406 C405 1.368 . S
C406 C407 1.386 . S
C406 H429 0.929 . S
C407 C406 1.386 . S
C407 C408 1.373 . S
C408 C407 1.373 . S
C408 C409 1.409 . S
C408 H430 0.931 . S
C409 C404 1.356 . S
C409 C408 1.409 . S
C409 H431 0.930 . S
C410 O420 1.270 . S
C410 O421 1.248 . S
C411 O422 1.267 . S
C411 O423 1.278 . S
O412 Pr392 2.562 . S
O412 C394 1.254 . S
O413 Pr392 2.490 . S
O413 C394 1.225 . S
O414 Pr392 2.695 . S
O414 Pr393 2.436 . S
O414 C401 1.270 . S
O415 Pr392 2.512 . S
O415 C401 1.248 . S
O416 Pr393 2.438 . S
O416 C402 1.267 . S
O417 Pr392 2.437 . S
O417 C402 1.278 . S
O418 Pr393 2.562 . S
O418 C403 1.254 . S
O419 Pr393 2.490 . S
O419 C403 1.225 . S
O420 Pr392 2.436 . S
O420 Pr393 2.695 . S
O420 C410 1.270 . S
O421 Pr393 2.512 . S
O421 C410 1.248 . S
O422 Pr392 2.438 . S
O422 C411 1.267 . S
O423 Pr393 2.437 . S
O423 C411 1.278 . S
H424 C396 0.929 . S
H425 C397 0.929 . S
H426 C399 0.931 . S
H427 C400 0.930 . S
H428 C405 0.929 . S
H429 C406 0.929 . S
H430 C408 0.931 . S
H431 C409 0.930 . S
Pr432 C434 2.880 . S
Pr432 O452 2.562 . S
Pr432 O453 2.490 . S
Pr432 O454 2.695 . S
Pr432 O455 2.512 . S
Pr432 O457 2.437 . S
Pr432 O460 2.436 . S
Pr432 O462 2.438 . S
Pr433 C443 2.880 . S
Pr433 O454 2.436 . S
Pr433 O456 2.438 . S
Pr433 O458 2.562 . S
Pr433 O459 2.490 . S
Pr433 O460 2.695 . S
Pr433 O461 2.512 . S
Pr433 O463 2.437 . S
C434 Pr432 2.880 . S
C434 C435 1.491 . S
C434 O452 1.254 . S
C434 O453 1.225 . S
C435 C434 1.491 . S
C435 C436 1.392 . S
C435 C440 1.356 . S
C436 C435 1.392 . S
C436 C437 1.368 . S
C436 H464 0.929 . S
C437 C436 1.368 . S
C437 C438 1.386 . S
C437 H465 0.929 . S
C438 C437 1.386 . S
C438 C439 1.373 . S
C439 C438 1.373 . S
C439 C440 1.409 . S
C439 H466 0.931 . S
C440 C435 1.356 . S
C440 C439 1.409 . S
C440 H467 0.930 . S
C441 O454 1.270 . S
C441 O455 1.248 . S
C442 O456 1.267 . S
C442 O457 1.278 . S
C443 Pr433 2.880 . S
C443 C444 1.491 . S
C443 O458 1.254 . S
C443 O459 1.225 . S
C444 C443 1.491 . S
C444 C445 1.392 . S
C444 C449 1.356 . S
C445 C444 1.392 . S
C445 C446 1.368 . S
C445 H468 0.929 . S
C446 C445 1.368 . S
C446 C447 1.386 . S
C446 H469 0.929 . S
C447 C446 1.386 . S
C447 C448 1.373 . S
C448 C447 1.373 . S
C448 C449 1.409 . S
C448 H470 0.931 . S
C449 C444 1.356 . S
C449 C448 1.409 . S
C449 H471 0.930 . S
C450 O460 1.270 . S
C450 O461 1.248 . S
C451 O462 1.267 . S
C451 O463 1.278 . S
O452 Pr432 2.562 . S
O452 C434 1.254 . S
O453 Pr432 2.490 . S
O453 C434 1.225 . S
O454 Pr432 2.695 . S
O454 Pr433 2.436 . S
O454 C441 1.270 . S
O455 Pr432 2.512 . S
O455 C441 1.248 . S
O456 Pr433 2.438 . S
O456 C442 1.267 . S
O457 Pr432 2.437 . S
O457 C442 1.278 . S
O458 Pr433 2.562 . S
O458 C443 1.254 . S
O459 Pr433 2.490 . S
O459 C443 1.225 . S
O460 Pr432 2.436 . S
O460 Pr433 2.695 . S
O460 C450 1.270 . S
O461 Pr433 2.512 . S
O461 C450 1.248 . S
O462 Pr432 2.438 . S
O462 C451 1.267 . S
O463 Pr433 2.437 . S
O463 C451 1.278 . S
H464 C436 0.929 . S
H465 C437 0.929 . S
H466 C439 0.931 . S
H467 C440 0.930 . S
H468 C445 0.929 . S
H469 C446 0.929 . S
H470 C448 0.931 . S
H471 C449 0.930 . S
Pr472 C474 2.880 . S
Pr472 O492 2.562 . S
Pr472 O493 2.490 . S
Pr472 O494 2.695 . S
Pr472 O495 2.512 . S
Pr472 O497 2.437 . S
Pr472 O500 2.436 . S
Pr472 O502 2.438 . S
Pr473 C483 2.880 . S
Pr473 O494 2.436 . S
Pr473 O496 2.438 . S
Pr473 O498 2.562 . S
Pr473 O499 2.490 . S
Pr473 O500 2.695 . S
Pr473 O501 2.512 . S
Pr473 O503 2.437 . S
C474 Pr472 2.880 . S
C474 C475 1.491 . S
C474 O492 1.254 . S
C474 O493 1.225 . S
C475 C474 1.491 . S
C475 C476 1.392 . S
C475 C480 1.356 1_455 S
C476 C475 1.392 . S
C476 C477 1.368 . S
C476 H504 0.929 . S
C477 C476 1.368 . S
C477 C478 1.386 1_455 S
C477 H505 0.929 . S
C478 C477 1.386 1_655 S
C478 C479 1.373 . S
C479 C478 1.373 . S
C479 C480 1.409 . S
C479 H506 0.931 . S
C480 C475 1.356 1_655 S
C480 C479 1.409 . S
C480 H507 0.930 . S
C481 O494 1.270 . S
C481 O495 1.248 . S
C482 O496 1.267 . S
C482 O497 1.278 . S
C483 Pr473 2.880 . S
C483 C484 1.491 . S
C483 O498 1.254 . S
C483 O499 1.225 . S
C484 C483 1.491 . S
C484 C485 1.392 . S
C484 C489 1.356 . S
C485 C484 1.392 . S
C485 C486 1.368 . S
C485 H508 0.929 . S
C486 C485 1.368 . S
C486 C487 1.386 . S
C486 H509 0.929 . S
C487 C486 1.386 . S
C487 C488 1.373 . S
C488 C487 1.373 . S
C488 C489 1.409 . S
C488 H510 0.931 . S
C489 C484 1.356 . S
C489 C488 1.409 . S
C489 H511 0.930 . S
C490 O500 1.270 . S
C490 O501 1.248 . S
C491 O502 1.267 . S
C491 O503 1.278 . S
O492 Pr472 2.562 . S
O492 C474 1.254 . S
O493 Pr472 2.490 . S
O493 C474 1.225 . S
O494 Pr472 2.695 . S
O494 Pr473 2.436 . S
O494 C481 1.270 . S
O495 Pr472 2.512 . S
O495 C481 1.248 . S
O496 Pr473 2.438 . S
O496 C482 1.267 . S
O497 Pr472 2.437 . S
O497 C482 1.278 . S
O498 Pr473 2.562 . S
O498 C483 1.254 . S
O499 Pr473 2.490 . S
O499 C483 1.225 . S
O500 Pr472 2.436 . S
O500 Pr473 2.695 . S
O500 C490 1.270 . S
O501 Pr473 2.512 . S
O501 C490 1.248 . S
O502 Pr472 2.438 . S
O502 C491 1.267 . S
O503 Pr473 2.437 . S
O503 C491 1.278 . S
H504 C476 0.929 . S
H505 C477 0.929 . S
H506 C479 0.931 . S
H507 C480 0.930 . S
H508 C485 0.929 . S
H509 C486 0.929 . S
H510 C488 0.931 . S
H511 C489 0.930 . S
Pr512 C514 2.880 . S
Pr512 O532 2.562 . S
Pr512 O533 2.490 . S
Pr512 O534 2.695 . S
Pr512 O535 2.512 . S
Pr512 O537 2.437 . S
Pr512 O540 2.436 . S
Pr512 O542 2.438 . S
Pr513 C523 2.880 . S
Pr513 O534 2.436 . S
Pr513 O536 2.438 . S
Pr513 O538 2.562 . S
Pr513 O539 2.490 . S
Pr513 O540 2.695 . S
Pr513 O541 2.512 . S
Pr513 O543 2.437 . S
C514 Pr512 2.880 . S
C514 C515 1.491 . S
C514 O532 1.254 . S
C514 O533 1.225 . S
C515 C514 1.491 . S
C515 C516 1.392 . S
C515 C520 1.356 . S
C516 C515 1.392 . S
C516 C517 1.368 . S
C516 H544 0.929 . S
C517 C516 1.368 . S
C517 C518 1.386 . S
C517 H545 0.929 . S
C518 C517 1.386 . S
C518 C519 1.373 . S
C519 C518 1.373 . S
C519 C520 1.409 . S
C519 H546 0.931 . S
C520 C515 1.356 . S
C520 C519 1.409 . S
C520 H547 0.930 . S
C521 O534 1.270 . S
C521 O535 1.248 . S
C522 O536 1.267 . S
C522 O537 1.278 . S
C523 Pr513 2.880 . S
C523 C524 1.491 . S
C523 O538 1.254 . S
C523 O539 1.225 . S
C524 C523 1.491 . S
C524 C525 1.392 . S
C524 C529 1.356 . S
C525 C524 1.392 . S
C525 C526 1.368 . S
C525 H548 0.929 . S
C526 C525 1.368 . S
C526 C527 1.386 . S
C526 H549 0.929 . S
C527 C526 1.386 . S
C527 C528 1.373 . S
C528 C527 1.373 . S
C528 C529 1.409 . S
C528 H550 0.931 . S
C529 C524 1.356 . S
C529 C528 1.409 . S
C529 H551 0.930 . S
C530 O540 1.270 . S
C530 O541 1.248 . S
C531 O542 1.267 . S
C531 O543 1.278 . S
O532 Pr512 2.562 . S
O532 C514 1.254 . S
O533 Pr512 2.490 . S
O533 C514 1.225 . S
O534 Pr512 2.695 . S
O534 Pr513 2.436 . S
O534 C521 1.270 . S
O535 Pr512 2.512 . S
O535 C521 1.248 . S
O536 Pr513 2.438 . S
O536 C522 1.267 . S
O537 Pr512 2.437 . S
O537 C522 1.278 . S
O538 Pr513 2.562 . S
O538 C523 1.254 . S
O539 Pr513 2.490 . S
O539 C523 1.225 . S
O540 Pr512 2.436 . S
O540 Pr513 2.695 . S
O540 C530 1.270 . S
O541 Pr513 2.512 . S
O541 C530 1.248 . S
O542 Pr512 2.438 . S
O542 C531 1.267 . S
O543 Pr513 2.437 . S
O543 C531 1.278 . S
H544 C516 0.929 . S
H545 C517 0.929 . S
H546 C519 0.931 . S
H547 C520 0.930 . S
H548 C525 0.929 . S
H549 C526 0.929 . S
H550 C528 0.931 . S
H551 C529 0.930 . S
Pr552 C554 2.880 . S
Pr552 O572 2.562 . S
Pr552 O573 2.490 . S
Pr552 O574 2.695 . S
Pr552 O575 2.512 . S
Pr552 O577 2.437 . S
Pr552 O580 2.436 . S
Pr552 O582 2.438 . S
Pr553 C563 2.827 1_554 S
Pr553 O574 2.471 . S
Pr553 O576 2.474 . S
Pr553 O578 2.519 1_554 S
Pr553 O579 2.437 1_554 S
Pr553 O580 2.750 . S
Pr553 O581 2.530 . S
Pr553 O583 2.449 . S
C554 Pr552 2.880 . S
C554 C555 1.491 . S
C554 O572 1.254 . S
C554 O573 1.225 . S
C555 C554 1.491 . S
C555 C556 1.392 . S
C555 C560 1.356 . S
C556 C555 1.392 . S
C556 C557 1.368 . S
C556 H584 0.929 . S
C557 C556 1.368 . S
C557 C558 1.386 . S
C557 H585 0.929 . S
C558 C557 1.386 . S
C558 C559 1.373 . S
C559 C558 1.373 . S
C559 C560 1.409 . S
C559 H586 0.931 . S
C560 C555 1.356 . S
C560 C559 1.409 . S
C560 H587 0.930 . S
C561 O574 1.270 . S
C561 O575 1.248 . S
C562 O576 1.267 . S
C562 O577 1.278 . S
C563 Pr553 2.827 1_556 S
C563 C564 1.491 . S
C563 O578 1.254 . S
C563 O579 1.225 . S
C564 C563 1.491 . S
C564 C565 1.392 . S
C564 C569 1.356 . S
C565 C564 1.392 . S
C565 C566 1.368 . S
C565 H588 0.929 . S
C566 C565 1.368 . S
C566 C567 1.386 . S
C566 H589 0.929 . S
C567 C566 1.386 . S
C567 C568 1.373 . S
C568 C567 1.373 . S
C568 C569 1.409 . S
C568 H590 0.931 . S
C569 C564 1.356 . S
C569 C568 1.409 . S
C569 H591 0.930 . S
C570 O580 1.270 . S
C570 O581 1.248 . S
C571 O582 1.267 . S
C571 O583 1.278 . S
O572 Pr552 2.562 . S
O572 C554 1.254 . S
O573 Pr552 2.490 . S
O573 C554 1.225 . S
O574 Pr552 2.695 . S
O574 Pr553 2.471 . S
O574 C561 1.270 . S
O575 Pr552 2.512 . S
O575 C561 1.248 . S
O576 Pr553 2.474 . S
O576 C562 1.267 . S
O577 Pr552 2.437 . S
O577 C562 1.278 . S
O578 Pr553 2.519 1_556 S
O578 C563 1.254 . S
O579 Pr553 2.437 1_556 S
O579 C563 1.225 . S
O580 Pr552 2.436 . S
O580 Pr553 2.750 . S
O580 C570 1.270 . S
O581 Pr553 2.530 . S
O581 C570 1.248 . S
O582 Pr552 2.438 . S
O582 C571 1.267 . S
O583 Pr553 2.449 . S
O583 C571 1.278 . S
H584 C556 0.929 . S
H585 C557 0.929 . S
H586 C559 0.931 . S
H587 C560 0.930 . S
H588 C565 0.929 . S
H589 C566 0.929 . S
H590 C568 0.931 . S
H591 C569 0.930 . S
Pr592 C594 2.880 . S
Pr592 O612 2.562 . S
Pr592 O613 2.490 . S
Pr592 O614 2.695 . S
Pr592 O615 2.512 . S
Pr592 O617 2.437 . S
Pr592 O620 2.436 . S
Pr592 O622 2.438 . S
Pr593 C603 2.880 . S
Pr593 O614 2.436 . S
Pr593 O616 2.438 . S
Pr593 O618 2.562 . S
Pr593 O619 2.490 . S
Pr593 O620 2.695 . S
Pr593 O621 2.512 . S
Pr593 O623 2.437 . S
C594 Pr592 2.880 . S
C594 C595 1.491 . S
C594 O612 1.254 . S
C594 O613 1.225 . S
C595 C594 1.491 . S
C595 C596 1.392 . S
C595 C600 1.356 . S
C596 C595 1.392 . S
C596 C597 1.368 . S
C596 H624 0.929 . S
C597 C596 1.368 . S
C597 C598 1.386 . S
C597 H625 0.929 . S
C598 C597 1.386 . S
C598 C599 1.373 . S
C599 C598 1.373 . S
C599 C600 1.409 . S
C599 H626 0.931 . S
C600 C595 1.356 . S
C600 C599 1.409 . S
C600 H627 0.930 . S
C601 O614 1.270 . S
C601 O615 1.248 . S
C602 O616 1.267 . S
C602 O617 1.278 . S
C603 Pr593 2.880 . S
C603 C604 1.491 . S
C603 O618 1.254 . S
C603 O619 1.225 . S
C604 C603 1.491 . S
C604 C605 1.392 . S
C604 C609 1.356 . S
C605 C604 1.392 . S
C605 C606 1.368 . S
C605 H628 0.929 . S
C606 C605 1.368 . S
C606 C607 1.386 . S
C606 H629 0.929 . S
C607 C606 1.386 . S
C607 C608 1.373 . S
C608 C607 1.373 . S
C608 C609 1.409 . S
C608 H630 0.931 . S
C609 C604 1.356 . S
C609 C608 1.409 . S
C609 H631 0.930 . S
C610 O620 1.270 . S
C610 O621 1.248 . S
C611 O622 1.267 . S
C611 O623 1.278 . S
O612 Pr592 2.562 . S
O612 C594 1.254 . S
O613 Pr592 2.490 . S
O613 C594 1.225 . S
O614 Pr592 2.695 . S
O614 Pr593 2.436 . S
O614 C601 1.270 . S
O615 Pr592 2.512 . S
O615 C601 1.248 . S
O616 Pr593 2.438 . S
O616 C602 1.267 . S
O617 Pr592 2.437 . S
O617 C602 1.278 . S
O618 Pr593 2.562 . S
O618 C603 1.254 . S
O619 Pr593 2.490 . S
O619 C603 1.225 . S
O620 Pr592 2.436 . S
O620 Pr593 2.695 . S
O620 C610 1.270 . S
O621 Pr593 2.512 . S
O621 C610 1.248 . S
O622 Pr592 2.438 . S
O622 C611 1.267 . S
O623 Pr593 2.437 . S
O623 C611 1.278 . S
H624 C596 0.929 . S
H625 C597 0.929 . S
H626 C599 0.931 . S
H627 C600 0.930 . S
H628 C605 0.929 . S
H629 C606 0.929 . S
H630 C608 0.931 . S
H631 C609 0.930 . S
Pr632 C634 2.880 1_554 S
Pr632 O652 2.562 1_554 S
Pr632 O653 2.490 1_554 S
Pr632 O654 2.695 . S
Pr632 O655 2.512 . S
Pr632 O657 2.437 . S
Pr632 O660 2.436 . S
Pr632 O662 2.438 . S
Pr633 C643 2.880 . S
Pr633 O654 2.436 . S
Pr633 O656 2.438 . S
Pr633 O658 2.562 . S
Pr633 O659 2.490 . S
Pr633 O660 2.695 . S
Pr633 O661 2.512 . S
Pr633 O663 2.437 . S
C634 Pr632 2.880 1_556 S
C634 C635 1.491 . S
C634 O652 1.254 . S
C634 O653 1.225 . S
C635 C634 1.491 . S
C635 C636 1.392 . S
C635 C640 1.356 . S
C636 C635 1.392 . S
C636 C637 1.368 . S
C636 H664 0.929 . S
C637 C636 1.368 . S
C637 C638 1.386 . S
C637 H665 0.929 . S
C638 C637 1.386 . S
C638 C639 1.373 . S
C639 C638 1.373 . S
C639 C640 1.409 . S
C639 H666 0.931 . S
C640 C635 1.356 . S
C640 C639 1.409 . S
C640 H667 0.930 . S
C641 O654 1.270 . S
C641 O655 1.248 . S
C642 O656 1.267 . S
C642 O657 1.278 . S
C643 Pr633 2.880 . S
C643 C644 1.491 . S
C643 O658 1.254 . S
C643 O659 1.225 . S
C644 C643 1.491 . S
C644 C645 1.392 . S
C644 C649 1.356 . S
C645 C644 1.392 . S
C645 C646 1.368 . S
C645 H668 0.929 . S
C646 C645 1.368 . S
C646 C647 1.386 . S
C646 H669 0.929 . S
C647 C646 1.386 . S
C647 C648 1.373 . S
C648 C647 1.373 . S
C648 C649 1.409 . S
C648 H670 0.931 . S
C649 C644 1.356 . S
C649 C648 1.409 . S
C649 H671 0.930 . S
C650 O660 1.270 . S
C650 O661 1.248 . S
C651 O662 1.267 . S
C651 O663 1.278 . S
O652 Pr632 2.562 1_556 S
O652 C634 1.254 . S
O653 Pr632 2.490 1_556 S
O653 C634 1.225 . S
O654 Pr632 2.695 . S
O654 Pr633 2.436 . S
O654 C641 1.270 . S
O655 Pr632 2.512 . S
O655 C641 1.248 . S
O656 Pr633 2.438 . S
O656 C642 1.267 . S
O657 Pr632 2.437 . S
O657 C642 1.278 . S
O658 Pr633 2.562 . S
O658 C643 1.254 . S
O659 Pr633 2.490 . S
O659 C643 1.225 . S
O660 Pr632 2.436 . S
O660 Pr633 2.695 . S
O660 C650 1.270 . S
O661 Pr633 2.512 . S
O661 C650 1.248 . S
O662 Pr632 2.438 . S
O662 C651 1.267 . S
O663 Pr633 2.437 . S
O663 C651 1.278 . S
H664 C636 0.929 . S
H665 C637 0.929 . S
H666 C639 0.931 . S
H667 C640 0.930 . S
H668 C645 0.929 . S
H669 C646 0.929 . S
H670 C648 0.931 . S
H671 C649 0.930 . S
Pr672 C674 2.880 . S
Pr672 O692 2.562 . S
Pr672 O693 2.490 . S
Pr672 O694 2.695 . S
Pr672 O695 2.512 . S
Pr672 O697 2.437 . S
Pr672 O700 2.436 . S
Pr672 O702 2.438 . S
Pr673 C683 2.880 . S
Pr673 O694 2.436 . S
Pr673 O696 2.438 . S
Pr673 O698 2.562 . S
Pr673 O699 2.490 . S
Pr673 O700 2.695 . S
Pr673 O701 2.512 . S
Pr673 O703 2.437 . S
C674 Pr672 2.880 . S
C674 C675 1.491 . S
C674 O692 1.254 . S
C674 O693 1.225 . S
C675 C674 1.491 . S
C675 C676 1.392 . S
C675 C680 1.356 . S
C676 C675 1.392 . S
C676 C677 1.368 . S
C676 H704 0.929 . S
C677 C676 1.368 . S
C677 C678 1.386 . S
C677 H705 0.929 . S
C678 C677 1.386 . S
C678 C679 1.373 . S
C679 C678 1.373 . S
C679 C680 1.409 . S
C679 H706 0.931 . S
C680 C675 1.356 . S
C680 C679 1.409 . S
C680 H707 0.930 . S
C681 O694 1.270 . S
C681 O695 1.248 . S
C682 O696 1.267 . S
C682 O697 1.278 . S
C683 Pr673 2.880 . S
C683 C684 1.491 . S
C683 O698 1.254 . S
C683 O699 1.225 . S
C684 C683 1.491 . S
C684 C685 1.392 . S
C684 C689 1.356 . S
C685 C684 1.392 . S
C685 C686 1.368 . S
C685 H708 0.929 . S
C686 C685 1.368 . S
C686 C687 1.386 . S
C686 H709 0.929 . S
C687 C686 1.386 . S
C687 C688 1.373 . S
C688 C687 1.373 . S
C688 C689 1.409 . S
C688 H710 0.931 . S
C689 C684 1.356 . S
C689 C688 1.409 . S
C689 H711 0.930 . S
C690 O700 1.270 . S
C690 O701 1.248 . S
C691 O702 1.267 . S
C691 O703 1.278 . S
O692 Pr672 2.562 . S
O692 C674 1.254 . S
O693 Pr672 2.490 . S
O693 C674 1.225 . S
O694 Pr672 2.695 . S
O694 Pr673 2.436 . S
O694 C681 1.270 . S
O695 Pr672 2.512 . S
O695 C681 1.248 . S
O696 Pr673 2.438 . S
O696 C682 1.267 . S
O697 Pr672 2.437 . S
O697 C682 1.278 . S
O698 Pr673 2.562 . S
O698 C683 1.254 . S
O699 Pr673 2.490 . S
O699 C683 1.225 . S
O700 Pr672 2.436 . S
O700 Pr673 2.695 . S
O700 C690 1.270 . S
O701 Pr673 2.512 . S
O701 C690 1.248 . S
O702 Pr672 2.438 . S
O702 C691 1.267 . S
O703 Pr673 2.437 . S
O703 C691 1.278 . S
H704 C676 0.929 . S
H705 C677 0.929 . S
H706 C679 0.931 . S
H707 C680 0.930 . S
H708 C685 0.929 . S
H709 C686 0.929 . S
H710 C688 0.931 . S
H711 C689 0.930 . S
Pr712 C714 2.880 . S
Pr712 O732 2.562 . S
Pr712 O733 2.490 . S
Pr712 O734 2.695 . S
Pr712 O735 2.512 . S
Pr712 O737 2.437 . S
Pr712 O740 2.436 . S
Pr712 O742 2.438 . S
Pr713 C723 2.880 . S
Pr713 O734 2.436 . S
Pr713 O736 2.438 . S
Pr713 O738 2.562 . S
Pr713 O739 2.490 . S
Pr713 O740 2.695 . S
Pr713 O741 2.512 . S
Pr713 O743 2.437 . S
C714 Pr712 2.880 . S
C714 C715 1.491 . S
C714 O732 1.254 . S
C714 O733 1.225 . S
C715 C714 1.491 . S
C715 C716 1.392 . S
C715 C720 1.356 . S
C716 C715 1.392 . S
C716 C717 1.368 . S
C716 H744 0.929 . S
C717 C716 1.368 . S
C717 C718 1.386 . S
C717 H745 0.929 . S
C718 C717 1.386 . S
C718 C719 1.373 . S
C719 C718 1.373 . S
C719 C720 1.409 . S
C719 H746 0.931 1_455 S
C720 C715 1.356 . S
C720 C719 1.409 . S
C720 H747 0.930 . S
C721 O734 1.270 . S
C721 O735 1.248 . S
C722 O736 1.267 . S
C722 O737 1.278 . S
C723 Pr713 2.880 . S
C723 C724 1.491 . S
C723 O738 1.254 . S
C723 O739 1.225 . S
C724 C723 1.491 . S
C724 C725 1.392 . S
C724 C729 1.356 . S
C725 C724 1.392 . S
C725 C726 1.368 . S
C725 H748 0.929 . S
C726 C725 1.368 . S
C726 C727 1.386 . S
C726 H749 0.929 . S
C727 C726 1.386 . S
C727 C728 1.373 . S
C728 C727 1.373 . S
C728 C729 1.409 . S
C728 H750 0.931 . S
C729 C724 1.356 . S
C729 C728 1.409 . S
C729 H751 0.930 . S
C730 O740 1.270 . S
C730 O741 1.248 . S
C731 O742 1.267 . S
C731 O743 1.278 . S
O732 Pr712 2.562 . S
O732 C714 1.254 . S
O733 Pr712 2.490 . S
O733 C714 1.225 . S
O734 Pr712 2.695 . S
O734 Pr713 2.436 . S
O734 C721 1.270 . S
O735 Pr712 2.512 . S
O735 C721 1.248 . S
O736 Pr713 2.438 . S
O736 C722 1.267 . S
O737 Pr712 2.437 . S
O737 C722 1.278 . S
O738 Pr713 2.562 . S
O738 C723 1.254 . S
O739 Pr713 2.490 . S
O739 C723 1.225 . S
O740 Pr712 2.436 . S
O740 Pr713 2.695 . S
O740 C730 1.270 . S
O741 Pr713 2.512 . S
O741 C730 1.248 . S
O742 Pr712 2.438 . S
O742 C731 1.267 . S
O743 Pr713 2.437 . S
O743 C731 1.278 . S
H744 C716 0.929 . S
H745 C717 0.929 . S
H746 C719 0.931 1_655 S
H747 C720 0.930 . S
H748 C725 0.929 . S
H749 C726 0.929 . S
H750 C728 0.931 . S
H751 C729 0.930 . S
Pr752 C754 2.880 . S
Pr752 O772 2.562 . S
Pr752 O773 2.490 . S
Pr752 O774 2.695 . S
Pr752 O775 2.512 . S
Pr752 O777 2.437 . S
Pr752 O780 2.436 . S
Pr752 O782 2.438 . S
Pr753 C763 2.880 . S
Pr753 O774 2.436 . S
Pr753 O776 2.438 . S
Pr753 O778 2.562 . S
Pr753 O779 2.490 . S
Pr753 O780 2.695 . S
Pr753 O781 2.512 . S
Pr753 O783 2.437 . S
C754 Pr752 2.880 . S
C754 C755 1.491 . S
C754 O772 1.254 . S
C754 O773 1.225 . S
C755 C754 1.491 . S
C755 C756 1.392 . S
C755 C760 1.356 . S
C756 C755 1.392 . S
C756 C757 1.368 . S
C756 H784 0.929 . S
C757 C756 1.368 . S
C757 C758 1.386 . S
C757 H785 0.929 . S
C758 C757 1.386 . S
C758 C759 1.373 . S
C759 C758 1.373 . S
C759 C760 1.409 . S
C759 H786 0.931 . S
C760 C755 1.356 . S
C760 C759 1.409 . S
C760 H787 0.930 . S
C761 O774 1.270 . S
C761 O775 1.248 . S
C762 O776 1.267 . S
C762 O777 1.278 . S
C763 Pr753 2.880 . S
C763 C764 1.491 . S
C763 O778 1.254 . S
C763 O779 1.225 . S
C764 C763 1.491 . S
C764 C765 1.392 . S
C764 C769 1.356 . S
C765 C764 1.392 . S
C765 C766 1.368 . S
C765 H788 0.929 . S
C766 C765 1.368 . S
C766 C767 1.386 . S
C766 H789 0.929 . S
C767 C766 1.386 . S
C767 C768 1.373 . S
C768 C767 1.373 . S
C768 C769 1.409 . S
C768 H790 0.931 . S
C769 C764 1.356 . S
C769 C768 1.409 . S
C769 H791 0.930 . S
C770 O780 1.270 . S
C770 O781 1.248 . S
C771 O782 1.267 . S
C771 O783 1.278 . S
O772 Pr752 2.562 . S
O772 C754 1.254 . S
O773 Pr752 2.490 . S
O773 C754 1.225 . S
O774 Pr752 2.695 . S
O774 Pr753 2.436 . S
O774 C761 1.270 . S
O775 Pr752 2.512 . S
O775 C761 1.248 . S
O776 Pr753 2.438 . S
O776 C762 1.267 . S
O777 Pr752 2.437 . S
O777 C762 1.278 . S
O778 Pr753 2.562 . S
O778 C763 1.254 . S
O779 Pr753 2.490 . S
O779 C763 1.225 . S
O780 Pr752 2.436 . S
O780 Pr753 2.695 . S
O780 C770 1.270 . S
O781 Pr753 2.512 . S
O781 C770 1.248 . S
O782 Pr752 2.438 . S
O782 C771 1.267 . S
O783 Pr753 2.437 . S
O783 C771 1.278 . S
H784 C756 0.929 . S
H785 C757 0.929 . S
H786 C759 0.931 . S
H787 C760 0.930 . S
H788 C765 0.929 . S
H789 C766 0.929 . S
H790 C768 0.931 . S
H791 C769 0.930 . S
Pr792 C794 2.880 . S
Pr792 O812 2.562 . S
Pr792 O813 2.490 . S
Pr792 O814 2.695 . S
Pr792 O815 2.512 . S
Pr792 O817 2.437 . S
Pr792 O820 2.436 . S
Pr792 O822 2.438 . S
Pr793 C803 2.880 . S
Pr793 O814 2.436 . S
Pr793 O816 2.438 . S
Pr793 O818 2.562 . S
Pr793 O819 2.490 . S
Pr793 O820 2.695 . S
Pr793 O821 2.512 . S
Pr793 O823 2.437 . S
C794 Pr792 2.880 . S
C794 C795 1.491 . S
C794 O812 1.254 . S
C794 O813 1.225 . S
C795 C794 1.491 . S
C795 C796 1.392 . S
C795 C800 1.356 . S
C796 C795 1.392 . S
C796 C797 1.368 . S
C796 H824 0.929 . S
C797 C796 1.368 . S
C797 C798 1.386 . S
C797 H825 0.929 . S
C798 C797 1.386 . S
C798 C799 1.373 . S
C799 C798 1.373 . S
C799 C800 1.409 . S
C799 H826 0.931 . S
C800 C795 1.356 . S
C800 C799 1.409 . S
C800 H827 0.930 . S
C801 O814 1.270 . S
C801 O815 1.248 . S
C802 O816 1.267 . S
C802 O817 1.278 . S
C803 Pr793 2.880 . S
C803 C804 1.491 . S
C803 O818 1.254 . S
C803 O819 1.225 . S
C804 C803 1.491 . S
C804 C805 1.392 . S
C804 C809 1.356 . S
C805 C804 1.392 . S
C805 C806 1.368 . S
C805 H828 0.929 . S
C806 C805 1.368 . S
C806 C807 1.386 . S
C806 H829 0.929 . S
C807 C806 1.386 . S
C807 C808 1.373 . S
C808 C807 1.373 . S
C808 C809 1.409 . S
C808 H830 0.931 . S
C809 C804 1.356 . S
C809 C808 1.409 . S
C809 H831 0.930 . S
C810 O820 1.270 . S
C810 O821 1.248 . S
C811 O822 1.267 . S
C811 O823 1.278 . S
O812 Pr792 2.562 . S
O812 C794 1.254 . S
O813 Pr792 2.490 . S
O813 C794 1.225 . S
O814 Pr792 2.695 . S
O814 Pr793 2.436 . S
O814 C801 1.270 . S
O815 Pr792 2.512 . S
O815 C801 1.248 . S
O816 Pr793 2.438 . S
O816 C802 1.267 . S
O817 Pr792 2.437 . S
O817 C802 1.278 . S
O818 Pr793 2.562 . S
O818 C803 1.254 . S
O819 Pr793 2.490 . S
O819 C803 1.225 . S
O820 Pr792 2.436 . S
O820 Pr793 2.695 . S
O820 C810 1.270 . S
O821 Pr793 2.512 . S
O821 C810 1.248 . S
O822 Pr792 2.438 . S
O822 C811 1.267 . S
O823 Pr793 2.437 . S
O823 C811 1.278 . S
H824 C796 0.929 . S
H825 C797 0.929 . S
H826 C799 0.931 . S
H827 C800 0.930 . S
H828 C805 0.929 . S
H829 C806 0.929 . S
H830 C808 0.931 . S
H831 C809 0.930 . S
Pr832 C834 2.880 . S
Pr832 O852 2.562 . S
Pr832 O853 2.490 . S
Pr832 O854 2.695 . S
Pr832 O855 2.512 . S
Pr832 O857 2.437 . S
Pr832 O860 2.436 . S
Pr832 O862 2.438 . S
Pr833 C843 2.880 . S
Pr833 O854 2.436 . S
Pr833 O856 2.438 . S
Pr833 O858 2.562 . S
Pr833 O859 2.490 . S
Pr833 O860 2.695 . S
Pr833 O861 2.512 . S
Pr833 O863 2.437 . S
C834 Pr832 2.880 . S
C834 C835 1.491 . S
C834 O852 1.254 . S
C834 O853 1.225 . S
C835 C834 1.491 . S
C835 C836 1.392 . S
C835 C840 1.356 . S
C836 C835 1.392 . S
C836 C837 1.368 . S
C836 H864 0.929 . S
C837 C836 1.368 . S
C837 C838 1.386 . S
C837 H865 0.929 . S
C838 C837 1.386 . S
C838 C839 1.373 . S
C839 C838 1.373 . S
C839 C840 1.409 . S
C839 H866 0.931 . S
C840 C835 1.356 . S
C840 C839 1.409 . S
C840 H867 0.930 . S
C841 O854 1.270 . S
C841 O855 1.248 . S
C842 O856 1.267 . S
C842 O857 1.278 . S
C843 Pr833 2.880 . S
C843 C844 1.491 . S
C843 O858 1.254 . S
C843 O859 1.225 . S
C844 C843 1.491 . S
C844 C845 1.392 . S
C844 C849 1.356 . S
C845 C844 1.392 . S
C845 C846 1.368 . S
C845 H868 0.929 . S
C846 C845 1.368 . S
C846 C847 1.386 . S
C846 H869 0.929 . S
C847 C846 1.386 . S
C847 C848 1.373 . S
C848 C847 1.373 . S
C848 C849 1.409 . S
C848 H870 0.931 . S
C849 C844 1.356 . S
C849 C848 1.409 . S
C849 H871 0.930 . S
C850 O860 1.270 . S
C850 O861 1.248 . S
C851 O862 1.267 . S
C851 O863 1.278 . S
O852 Pr832 2.562 . S
O852 C834 1.254 . S
O853 Pr832 2.490 . S
O853 C834 1.225 . S
O854 Pr832 2.695 . S
O854 Pr833 2.436 . S
O854 C841 1.270 . S
O855 Pr832 2.512 . S
O855 C841 1.248 . S
O856 Pr833 2.438 . S
O856 C842 1.267 . S
O857 Pr832 2.437 . S
O857 C842 1.278 . S
O858 Pr833 2.562 . S
O858 C843 1.254 . S
O859 Pr833 2.490 . S
O859 C843 1.225 . S
O860 Pr832 2.436 . S
O860 Pr833 2.695 . S
O860 C850 1.270 . S
O861 Pr833 2.512 . S
O861 C850 1.248 . S
O862 Pr832 2.438 . S
O862 C851 1.267 . S
O863 Pr833 2.437 . S
O863 C851 1.278 . S
H864 C836 0.929 . S
H865 C837 0.929 . S
H866 C839 0.931 . S
H867 C840 0.930 . S
H868 C845 0.929 . S
H869 C846 0.929 . S
H870 C848 0.931 . S
H871 C849 0.930 . S
Pr872 C874 2.880 . S
Pr872 O892 2.562 . S
Pr872 O893 2.490 . S
Pr872 O894 2.695 . S
Pr872 O895 2.512 . S
Pr872 O897 2.437 . S
Pr872 O900 2.436 . S
Pr872 O902 2.438 . S
Pr873 C883 2.880 . S
Pr873 O894 2.436 . S
Pr873 O896 2.438 . S
Pr873 O898 2.562 . S
Pr873 O899 2.490 . S
Pr873 O900 2.695 . S
Pr873 O901 2.512 . S
Pr873 O903 2.437 . S
C874 Pr872 2.880 . S
C874 C875 1.491 . S
C874 O892 1.254 . S
C874 O893 1.225 . S
C875 C874 1.491 . S
C875 C876 1.392 . S
C875 C880 1.356 . S
C876 C875 1.392 . S
C876 C877 1.368 . S
C876 H904 0.929 . S
C877 C876 1.368 . S
C877 C878 1.386 . S
C877 H905 0.929 . S
C878 C877 1.386 . S
C878 C879 1.373 . S
C879 C878 1.373 . S
C879 C880 1.409 . S
C879 H906 0.931 . S
C880 C875 1.356 . S
C880 C879 1.409 . S
C880 H907 0.930 . S
C881 O894 1.270 . S
C881 O895 1.248 . S
C882 O896 1.267 . S
C882 O897 1.278 . S
C883 Pr873 2.880 . S
C883 C884 1.491 . S
C883 O898 1.254 . S
C883 O899 1.225 . S
C884 C883 1.491 . S
C884 C885 1.392 . S
C884 C889 1.356 . S
C885 C884 1.392 . S
C885 C886 1.368 . S
C885 H908 0.929 . S
C886 C885 1.368 . S
C886 C887 1.386 . S
C886 H909 0.929 . S
C887 C886 1.386 . S
C887 C888 1.373 . S
C888 C887 1.373 . S
C888 C889 1.409 . S
C888 H910 0.931 . S
C889 C884 1.356 . S
C889 C888 1.409 . S
C889 H911 0.930 . S
C890 O900 1.270 . S
C890 O901 1.248 . S
C891 O902 1.267 . S
C891 O903 1.278 . S
O892 Pr872 2.562 . S
O892 C874 1.254 . S
O893 Pr872 2.490 . S
O893 C874 1.225 . S
O894 Pr872 2.695 . S
O894 Pr873 2.436 . S
O894 C881 1.270 . S
O895 Pr872 2.512 . S
O895 C881 1.248 . S
O896 Pr873 2.438 . S
O896 C882 1.267 . S
O897 Pr872 2.437 . S
O897 C882 1.278 . S
O898 Pr873 2.562 . S
O898 C883 1.254 . S
O899 Pr873 2.490 . S
O899 C883 1.225 . S
O900 Pr872 2.436 . S
O900 Pr873 2.695 . S
O900 C890 1.270 . S
O901 Pr873 2.512 . S
O901 C890 1.248 . S
O902 Pr872 2.438 . S
O902 C891 1.267 . S
O903 Pr873 2.437 . S
O903 C891 1.278 . S
H904 C876 0.929 . S
H905 C877 0.929 . S
H906 C879 0.931 . S
H907 C880 0.930 . S
H908 C885 0.929 . S
H909 C886 0.929 . S
H910 C888 0.931 . S
H911 C889 0.930 . S
Pr912 C914 2.880 . S
Pr912 O932 2.562 . S
Pr912 O933 2.475 1_554 S
Pr912 O934 2.695 . S
Pr912 O935 2.512 1_554 S
Pr912 O937 2.437 . S
Pr912 O940 2.436 . S
Pr912 O942 2.438 . S
Pr913 C923 2.880 1_455 S
Pr913 O934 2.436 . S
Pr913 O936 2.438 . S
Pr913 O938 2.562 1_455 S
Pr913 O939 2.490 1_455 S
Pr913 O940 2.695 . S
Pr913 O941 2.512 . S
Pr913 O943 2.437 . S
C914 Pr912 2.880 . S
C914 C915 1.491 . S
C914 O932 1.254 . S
C914 O933 1.209 1_554 S
C915 C914 1.491 . S
C915 C916 1.392 1_554 S
C915 C920 1.356 . S
C916 C915 1.392 1_556 S
C916 C917 1.368 . S
C916 H944 0.929 . S
C917 C916 1.368 . S
C917 C918 1.386 . S
C917 H945 0.929 . S
C918 C917 1.386 . S
C918 C919 1.373 1_556 S
C919 C918 1.373 1_554 S
C919 C920 1.409 . S
C919 H946 0.931 . S
C920 C915 1.356 . S
C920 C919 1.409 . S
C920 H947 0.930 . S
C921 O934 1.270 1_556 S
C921 O935 1.248 . S
C922 O936 1.267 . S
C922 O937 1.278 . S
C923 Pr913 2.880 1_655 S
C923 C924 1.491 . S
C923 O938 1.254 . S
C923 O939 1.225 . S
C924 C923 1.491 . S
C924 C925 1.392 . S
C924 C929 1.356 . S
C925 C924 1.392 . S
C925 C926 1.368 . S
C925 H948 0.929 . S
C926 C925 1.368 . S
C926 C927 1.386 . S
C926 H949 0.929 . S
C927 C926 1.386 . S
C927 C928 1.373 . S
C928 C927 1.373 . S
C928 C929 1.409 . S
C928 H950 0.931 . S
C929 C924 1.356 . S
C929 C928 1.409 . S
C929 H951 0.930 . S
C930 O940 1.270 . S
C930 O941 1.248 . S
C931 O942 1.267 . S
C931 O943 1.278 . S
O932 Pr912 2.562 . S
O932 C914 1.254 . S
O933 Pr912 2.475 1_556 S
O933 C914 1.209 1_556 S
O934 Pr912 2.695 . S
O934 Pr913 2.436 . S
O934 C921 1.270 1_554 S
O935 Pr912 2.512 1_556 S
O935 C921 1.248 . S
O936 Pr913 2.438 . S
O936 C922 1.267 . S
O937 Pr912 2.437 . S
O937 C922 1.278 . S
O938 Pr913 2.562 1_655 S
O938 C923 1.254 . S
O939 Pr913 2.490 1_655 S
O939 C923 1.225 . S
O940 Pr912 2.436 . S
O940 Pr913 2.695 . S
O940 C930 1.270 . S
O941 Pr913 2.512 . S
O941 C930 1.248 . S
O942 Pr912 2.438 . S
O942 C931 1.267 . S
O943 Pr913 2.437 . S
O943 C931 1.278 . S
H944 C916 0.929 . S
H945 C917 0.929 . S
H946 C919 0.931 . S
H947 C920 0.930 . S
H948 C925 0.929 . S
H949 C926 0.929 . S
H950 C928 0.931 . S
H951 C929 0.930 . S
C952 C953 1.349 . S
C952 C954 1.327 . S
C952 H977 0.950 . S
C953 C952 1.349 . S
C953 C969 1.349 . S
C954 C952 1.327 . S
C954 C973 1.429 . S
C954 H978 0.950 . S
C955 C972 1.574 . S
C955 C974 1.368 . S
C955 H979 0.949 1_455 S
H956 C960 0.949 . S
C957 C958 1.349 . S
C957 C959 1.335 . S
C957 H980 0.950 . S
C958 C957 1.349 . S
C958 C970 1.349 . S
C959 C957 1.335 . S
C959 C975 1.419 1_554 S
C959 H981 0.978 1_554 S
C960 H956 0.949 . S
C960 C968 1.574 . S
C960 C976 1.368 . S
H961 C969 0.950 1_655 S
H962 C967 0.950 1_655 S
H963 C968 0.949 . S
H964 C970 0.950 . S
H965 C971 0.950 . S
H966 C972 0.949 1_655 S
C967 H962 0.950 1_455 S
C967 C969 1.327 . S
C967 C973 1.429 . S
C968 C960 1.574 . S
C968 H963 0.949 . S
C968 C974 1.368 . S
C969 C953 1.349 . S
C969 H961 0.950 1_455 S
C969 C967 1.327 . S
C970 C958 1.349 . S
C970 H964 0.950 . S
C970 C971 1.327 1_554 S
C971 H965 0.950 . S
C971 C970 1.327 1_556 S
C971 C975 1.429 . S
C972 C955 1.574 . S
C972 H966 0.949 1_455 S
C972 C976 1.368 . S
C973 C954 1.429 . S
C973 C967 1.429 . S
C973 C974 1.523 . S
C974 C955 1.368 . S
C974 C968 1.368 . S
C974 C973 1.523 . S
C975 C959 1.419 1_556 S
C975 C971 1.429 . S
C975 C976 1.523 . S
C976 C960 1.368 . S
C976 C972 1.368 . S
C976 C975 1.523 . S
H977 C952 0.950 . S
H978 C954 0.950 . S
H979 C955 0.949 1_655 S
H980 C957 0.950 . S
H981 C959 0.978 1_556 S
C982 C983 1.349 . S
C982 C984 1.327 . S
C982 H1007 0.950 . S
C983 C982 1.349 . S
C983 C999 1.349 . S
C984 C982 1.327 . S
C984 C1003 1.429 . S
C984 H1008 0.950 . S
C985 C1002 1.574 . S
C985 C1004 1.368 . S
C985 H1009 0.949 . S
H986 C990 0.949 . S
C987 C988 1.349 . S
C987 C989 1.327 . S
C987 H1010 0.950 . S
C988 C987 1.349 . S
C988 C1000 1.349 . S
C989 C987 1.327 . S
C989 C1005 1.429 . S
C989 H1011 0.950 . S
C990 H986 0.949 . S
C990 C998 1.574 . S
C990 C1006 1.368 . S
H991 C999 0.950 . S
H992 C997 0.950 . S
H993 C998 0.949 . S
H994 C1000 0.950 . S
H995 C1001 0.950 . S
H996 C1002 0.949 . S
C997 H992 0.950 . S
C997 C999 1.327 . S
C997 C1003 1.429 . S
C998 C990 1.574 . S
C998 H993 0.949 . S
C998 C1004 1.368 . S
C999 C983 1.349 . S
C999 H991 0.950 . S
C999 C997 1.327 . S
C1000 C988 1.349 . S
C1000 H994 0.950 . S
C1000 C1001 1.327 . S
C1001 H995 0.950 . S
C1001 C1000 1.327 . S
C1001 C1005 1.429 . S
C1002 C985 1.574 . S
C1002 H996 0.949 . S
C1002 C1006 1.368 . S
C1003 C984 1.429 . S
C1003 C997 1.429 . S
C1003 C1004 1.523 . S
C1004 C985 1.368 . S
C1004 C998 1.368 . S
C1004 C1003 1.523 . S
C1005 C989 1.429 . S
C1005 C1001 1.429 . S
C1005 C1006 1.523 . S
C1006 C990 1.368 . S
C1006 C1002 1.368 . S
C1006 C1005 1.523 . S
H1007 C982 0.950 . S
H1008 C984 0.950 . S
H1009 C985 0.949 . S
H1010 C987 0.950 . S
H1011 C989 0.950 . S
C1012 C1013 1.349 . S
C1012 C1014 1.327 . S
C1012 H1037 0.950 . S
C1013 C1012 1.349 . S
C1013 C1029 1.349 . S
C1014 C1012 1.327 . S
C1014 C1033 1.429 . S
C1014 H1038 0.950 . S
C1015 C1032 1.574 . S
C1015 C1034 1.368 . S
C1015 H1039 0.949 . S
H1016 C1020 0.949 . S
C1017 C1018 1.349 1_565 S
C1017 C1019 1.327 . S
C1017 H1040 0.950 1_565 S
C1018 C1017 1.349 1_545 S
C1018 C1030 1.348 1_545 S
C1019 C1017 1.327 . S
C1019 C1035 1.429 . S
C1019 H1041 0.950 . S
C1020 H1016 0.949 . S
C1020 C1028 1.574 . S
C1020 C1036 1.368 . S
H1021 C1029 0.950 . S
H1022 C1027 0.950 . S
H1023 C1028 0.949 . S
H1024 C1030 0.948 1_545 S
H1025 C1031 0.950 . S
H1026 C1032 0.949 . S
C1027 H1022 0.950 . S
C1027 C1029 1.327 . S
C1027 C1033 1.429 . S
C1028 C1020 1.574 . S
C1028 H1023 0.949 . S
C1028 C1034 1.368 . S
C1029 C1013 1.349 . S
C1029 H1021 0.950 . S
C1029 C1027 1.327 . S
C1030 C1018 1.348 1_565 S
C1030 H1024 0.948 1_565 S
C1030 C1031 1.329 . S
C1031 H1025 0.950 . S
C1031 C1030 1.329 . S
C1031 C1035 1.429 . S
C1032 C1015 1.574 . S
C1032 H1026 0.949 . S
C1032 C1036 1.368 . S
C1033 C1014 1.429 . S
C1033 C1027 1.429 . S
C1033 C1034 1.523 . S
C1034 C1015 1.368 . S
C1034 C1028 1.368 . S
C1034 C1033 1.523 . S
C1035 C1019 1.429 . S
C1035 C1031 1.429 . S
C1035 C1036 1.523 . S
C1036 C1020 1.368 . S
C1036 C1032 1.368 . S
C1036 C1035 1.523 . S
H1037 C1012 0.950 . S
H1038 C1014 0.950 . S
H1039 C1015 0.949 . S
H1040 C1017 0.950 1_545 S
H1041 C1019 0.950 . S
C1042 C1043 1.349 . S
C1042 C1044 1.327 . S
C1042 H1067 0.950 . S
C1043 C1042 1.349 . S
C1043 C1059 1.349 . S
C1044 C1042 1.327 . S
C1044 C1063 1.429 . S
C1044 H1068 0.950 . S
C1045 C1062 1.574 . S
C1045 C1064 1.368 . S
C1045 H1069 0.949 . S
H1046 C1050 0.949 . S
C1047 C1048 1.349 . S
C1047 C1049 1.327 . S
C1047 H1070 0.950 . S
C1048 C1047 1.349 . S
C1048 C1060 1.349 . S
C1049 C1047 1.327 . S
C1049 C1065 1.429 . S
C1049 H1071 0.950 . S
C1050 H1046 0.949 . S
C1050 C1058 1.574 . S
C1050 C1066 1.368 . S
H1051 C1059 0.950 . S
H1052 C1057 0.950 . S
H1053 C1058 0.949 . S
H1054 C1060 0.950 . S
H1055 C1061 0.950 . S
H1056 C1062 0.949 . S
C1057 H1052 0.950 . S
C1057 C1059 1.327 . S
C1057 C1063 1.429 . S
C1058 C1050 1.574 . S
C1058 H1053 0.949 . S
C1058 C1064 1.368 . S
C1059 C1043 1.349 . S
C1059 H1051 0.950 . S
C1059 C1057 1.327 . S
C1060 C1048 1.349 . S
C1060 H1054 0.950 . S
C1060 C1061 1.327 . S
C1061 H1055 0.950 . S
C1061 C1060 1.327 . S
C1061 C1065 1.429 . S
C1062 C1045 1.574 . S
C1062 H1056 0.949 . S
C1062 C1066 1.368 . S
C1063 C1044 1.429 . S
C1063 C1057 1.429 . S
C1063 C1064 1.523 . S
C1064 C1045 1.368 . S
C1064 C1058 1.368 . S
C1064 C1063 1.523 . S
C1065 C1049 1.429 . S
C1065 C1061 1.429 . S
C1065 C1066 1.523 . S
C1066 C1050 1.368 . S
C1066 C1062 1.368 . S
C1066 C1065 1.523 . S
H1067 C1042 0.950 . S
H1068 C1044 0.950 . S
H1069 C1045 0.949 . S
H1070 C1047 0.950 . S
H1071 C1049 0.950 . S
C1072 C1073 1.349 . S
C1072 C1074 1.327 . S
C1072 H1097 0.950 . S
C1073 C1072 1.349 . S
C1073 C1089 1.349 . S
C1074 C1072 1.327 . S
C1074 C1093 1.429 . S
C1074 H1098 0.950 . S
C1075 C1092 1.574 . S
C1075 C1094 1.368 . S
C1075 H1099 0.949 . S
H1076 C1080 0.949 . S
C1077 C1078 1.349 . S
C1077 C1079 1.327 1_545 S
C1077 H1100 0.950 . S
C1078 C1077 1.349 . S
C1078 C1090 1.349 1_545 S
C1079 C1077 1.327 1_565 S
C1079 C1095 1.429 . S
C1079 H1101 0.950 . S
C1080 H1076 0.949 . S
C1080 C1088 1.574 . S
C1080 C1096 1.368 . S
H1081 C1089 0.950 . S
H1082 C1087 0.950 . S
H1083 C1088 0.949 . S
H1084 C1090 0.950 . S
H1085 C1091 0.950 . S
H1086 C1092 0.949 . S
C1087 H1082 0.950 . S
C1087 C1089 1.327 . S
C1087 C1093 1.429 . S
C1088 C1080 1.574 . S
C1088 H1083 0.949 . S
C1088 C1094 1.368 . S
C1089 C1073 1.349 . S
C1089 H1081 0.950 . S
C1089 C1087 1.327 . S
C1090 C1078 1.349 1_565 S
C1090 H1084 0.950 . S
C1090 C1091 1.327 . S
C1091 H1085 0.950 . S
C1091 C1090 1.327 . S
C1091 C1095 1.429 . S
C1092 C1075 1.574 . S
C1092 H1086 0.949 . S
C1092 C1096 1.368 . S
C1093 C1074 1.429 . S
C1093 C1087 1.429 . S
C1093 C1094 1.523 . S
C1094 C1075 1.368 . S
C1094 C1088 1.368 . S
C1094 C1093 1.523 . S
C1095 C1079 1.429 . S
C1095 C1091 1.429 . S
C1095 C1096 1.523 . S
C1096 C1080 1.368 . S
C1096 C1092 1.368 . S
C1096 C1095 1.523 . S
H1097 C1072 0.950 . S
H1098 C1074 0.950 . S
H1099 C1075 0.949 . S
H1100 C1077 0.950 . S
H1101 C1079 0.950 . S
C1102 C1103 1.349 . S
C1102 C1104 1.327 . S
C1102 H1127 0.950 . S
C1103 C1102 1.349 . S
C1103 C1119 1.349 . S
C1104 C1102 1.327 . S
C1104 C1123 1.429 . S
C1104 H1128 0.950 . S
C1105 C1122 1.574 . S
C1105 C1124 1.368 . S
C1105 H1129 0.949 . S
H1106 C1110 0.949 . S
C1107 C1108 1.349 . S
C1107 C1109 1.327 . S
C1107 H1130 0.950 . S
C1108 C1107 1.349 . S
C1108 C1120 1.349 . S
C1109 C1107 1.327 . S
C1109 C1125 1.429 . S
C1109 H1131 0.950 . S
C1110 H1106 0.949 . S
C1110 C1118 1.574 . S
C1110 C1126 1.368 . S
H1111 C1119 0.950 . S
H1112 C1117 0.950 . S
H1113 C1118 0.949 . S
H1114 C1120 0.950 . S
H1115 C1121 0.950 . S
H1116 C1122 0.949 . S
C1117 H1112 0.950 . S
C1117 C1119 1.327 . S
C1117 C1123 1.429 . S
C1118 C1110 1.574 . S
C1118 H1113 0.949 . S
C1118 C1124 1.368 . S
C1119 C1103 1.349 . S
C1119 H1111 0.950 . S
C1119 C1117 1.327 . S
C1120 C1108 1.349 . S
C1120 H1114 0.950 . S
C1120 C1121 1.327 . S
C1121 H1115 0.950 . S
C1121 C1120 1.327 . S
C1121 C1125 1.429 . S
C1122 C1105 1.574 . S
C1122 H1116 0.949 . S
C1122 C1126 1.368 . S
C1123 C1104 1.429 . S
C1123 C1117 1.429 . S
C1123 C1124 1.523 . S
C1124 C1105 1.368 . S
C1124 C1118 1.368 . S
C1124 C1123 1.523 . S
C1125 C1109 1.429 . S
C1125 C1121 1.429 . S
C1125 C1126 1.523 . S
C1126 C1110 1.368 . S
C1126 C1122 1.368 . S
C1126 C1125 1.523 . S
H1127 C1102 0.950 . S
H1128 C1104 0.950 . S
H1129 C1105 0.949 . S
H1130 C1107 0.950 . S
H1131 C1109 0.950 . S
C1132 C1133 1.349 . S
C1132 C1134 1.327 . S
C1132 H1157 0.950 . S
C1133 C1132 1.349 . S
C1133 C1149 1.349 . S
C1134 C1132 1.327 . S
C1134 C1153 1.429 . S
C1134 H1158 0.950 . S
C1135 C1152 1.574 . S
C1135 C1154 1.368 . S
C1135 H1159 0.949 . S
H1136 C1140 0.949 . S
C1137 C1138 1.349 . S
C1137 C1139 1.327 . S
C1137 H1160 0.950 . S
C1138 C1137 1.349 . S
C1138 C1150 1.349 . S
C1139 C1137 1.327 . S
C1139 C1155 1.429 . S
C1139 H1161 0.950 . S
C1140 H1136 0.949 . S
C1140 C1148 1.574 . S
C1140 C1156 1.368 . S
H1141 C1149 0.950 . S
H1142 C1147 0.950 . S
H1143 C1148 0.949 . S
H1144 C1150 0.950 . S
H1145 C1151 0.950 . S
H1146 C1152 0.949 . S
C1147 H1142 0.950 . S
C1147 C1149 1.327 . S
C1147 C1153 1.429 . S
C1148 C1140 1.574 . S
C1148 H1143 0.949 . S
C1148 C1154 1.368 . S
C1149 C1133 1.349 . S
C1149 H1141 0.950 . S
C1149 C1147 1.327 . S
C1150 C1138 1.349 . S
C1150 H1144 0.950 . S
C1150 C1151 1.327 . S
C1151 H1145 0.950 . S
C1151 C1150 1.327 . S
C1151 C1155 1.429 . S
C1152 C1135 1.574 . S
C1152 H1146 0.949 . S
C1152 C1156 1.368 . S
C1153 C1134 1.429 . S
C1153 C1147 1.429 . S
C1153 C1154 1.523 . S
C1154 C1135 1.368 . S
C1154 C1148 1.368 . S
C1154 C1153 1.523 . S
C1155 C1139 1.429 . S
C1155 C1151 1.429 . S
C1155 C1156 1.523 . S
C1156 C1140 1.368 . S
C1156 C1152 1.368 . S
C1156 C1155 1.523 . S
H1157 C1132 0.950 . S
H1158 C1134 0.950 . S
H1159 C1135 0.949 . S
H1160 C1137 0.950 . S
H1161 C1139 0.950 . S
C1162 C1163 1.349 . S
C1162 C1164 1.327 . S
C1162 H1187 0.950 . S
C1163 C1162 1.349 . S
C1163 C1179 1.349 . S
C1164 C1162 1.327 . S
C1164 C1183 1.429 . S
C1164 H1188 0.950 . S
C1165 C1182 1.574 . S
C1165 C1184 1.368 . S
C1165 H1189 0.949 . S
H1166 C1170 0.949 . S
C1167 C1168 1.349 . S
C1167 C1169 1.327 . S
C1167 H1190 0.950 . S
C1168 C1167 1.349 . S
C1168 C1180 1.349 . S
C1169 C1167 1.327 . S
C1169 C1185 1.429 . S
C1169 H1191 0.950 . S
C1170 H1166 0.949 . S
C1170 C1178 1.574 . S
C1170 C1186 1.368 . S
H1171 C1179 0.950 . S
H1172 C1177 0.950 . S
H1173 C1178 0.949 . S
H1174 C1180 0.950 . S
H1175 C1181 0.950 . S
H1176 C1182 0.949 . S
C1177 H1172 0.950 . S
C1177 C1179 1.327 . S
C1177 C1183 1.429 . S
C1178 C1170 1.574 . S
C1178 H1173 0.949 . S
C1178 C1184 1.368 . S
C1179 C1163 1.349 . S
C1179 H1171 0.950 . S
C1179 C1177 1.327 . S
C1180 C1168 1.349 . S
C1180 H1174 0.950 . S
C1180 C1181 1.327 . S
C1181 H1175 0.950 . S
C1181 C1180 1.327 . S
C1181 C1185 1.429 . S
C1182 C1165 1.574 . S
C1182 H1176 0.949 . S
C1182 C1186 1.368 . S
C1183 C1164 1.429 . S
C1183 C1177 1.429 . S
C1183 C1184 1.523 . S
C1184 C1165 1.368 . S
C1184 C1178 1.368 . S
C1184 C1183 1.523 . S
C1185 C1169 1.429 . S
C1185 C1181 1.429 . S
C1185 C1186 1.523 . S
C1186 C1170 1.368 . S
C1186 C1182 1.368 . S
C1186 C1185 1.523 . S
H1187 C1162 0.950 . S
H1188 C1164 0.950 . S
H1189 C1165 0.949 . S
H1190 C1167 0.950 . S
H1191 C1169 0.950 . S
C1192 C1193 1.349 . S
C1192 C1194 1.327 . S
C1192 H1217 0.950 . S
C1193 C1192 1.349 . S
C1193 C1209 1.349 . S
C1194 C1192 1.327 . S
C1194 C1213 1.429 . S
C1194 H1218 0.950 . S
C1195 C1212 1.574 . S
C1195 C1214 1.368 . S
C1195 H1219 0.949 . S
H1196 C1200 0.949 . S
C1197 C1198 1.349 . S
C1197 C1199 1.327 1_455 S
C1197 H1220 0.950 . S
C1198 C1197 1.349 . S
C1198 C1210 1.349 . S
C1199 C1197 1.327 1_655 S
C1199 C1215 1.429 . S
C1199 H1221 0.950 . S
C1200 H1196 0.949 . S
C1200 C1208 1.574 . S
C1200 C1216 1.368 . S
H1201 C1209 0.950 . S
H1202 C1207 0.950 . S
H1203 C1208 0.949 . S
H1204 C1210 0.950 . S
H1205 C1211 0.950 . S
H1206 C1212 0.949 . S
C1207 H1202 0.950 . S
C1207 C1209 1.327 . S
C1207 C1213 1.429 . S
C1208 C1200 1.574 . S
C1208 H1203 0.949 . S
C1208 C1214 1.368 . S
C1209 C1193 1.349 . S
C1209 H1201 0.950 . S
C1209 C1207 1.327 . S
C1210 C1198 1.349 . S
C1210 H1204 0.950 . S
C1210 C1211 1.327 . S
C1211 H1205 0.950 . S
C1211 C1210 1.327 . S
C1211 C1215 1.429 1_455 S
C1212 C1195 1.574 . S
C1212 H1206 0.949 . S
C1212 C1216 1.368 . S
C1213 C1194 1.429 . S
C1213 C1207 1.429 . S
C1213 C1214 1.523 . S
C1214 C1195 1.368 . S
C1214 C1208 1.368 . S
C1214 C1213 1.523 . S
C1215 C1199 1.429 . S
C1215 C1211 1.429 1_655 S
C1215 C1216 1.523 . S
C1216 C1200 1.368 . S
C1216 C1212 1.368 . S
C1216 C1215 1.523 . S
H1217 C1192 0.950 . S
H1218 C1194 0.950 . S
H1219 C1195 0.949 . S
H1220 C1197 0.950 . S
H1221 C1199 0.950 . S
C1222 C1223 1.349 . S
C1222 C1224 1.327 . S
C1222 H1247 0.950 . S
C1223 C1222 1.349 . S
C1223 C1239 1.349 . S
C1224 C1222 1.327 . S
C1224 C1243 1.429 . S
C1224 H1248 0.950 . S
C1225 C1242 1.574 . S
C1225 C1244 1.368 . S
C1225 H1249 0.949 . S
H1226 C1230 0.949 . S
C1227 C1228 1.349 . S
C1227 C1229 1.327 . S
C1227 H1250 0.950 . S
C1228 C1227 1.349 . S
C1228 C1240 1.349 . S
C1229 C1227 1.327 . S
C1229 C1245 1.429 . S
C1229 H1251 0.950 . S
C1230 H1226 0.949 . S
C1230 C1238 1.574 . S
C1230 C1246 1.368 . S
H1231 C1239 0.950 . S
H1232 C1237 0.950 . S
H1233 C1238 0.949 . S
H1234 C1240 0.950 . S
H1235 C1241 0.950 . S
H1236 C1242 0.949 . S
C1237 H1232 0.950 . S
C1237 C1239 1.327 . S
C1237 C1243 1.429 . S
C1238 C1230 1.574 . S
C1238 H1233 0.949 . S
C1238 C1244 1.368 . S
C1239 C1223 1.349 . S
C1239 H1231 0.950 . S
C1239 C1237 1.327 . S
C1240 C1228 1.349 . S
C1240 H1234 0.950 . S
C1240 C1241 1.327 . S
C1241 H1235 0.950 . S
C1241 C1240 1.327 . S
C1241 C1245 1.429 . S
C1242 C1225 1.574 . S
C1242 H1236 0.949 . S
C1242 C1246 1.368 . S
C1243 C1224 1.429 . S
C1243 C1237 1.429 . S
C1243 C1244 1.523 . S
C1244 C1225 1.368 . S
C1244 C1238 1.368 . S
C1244 C1243 1.523 . S
C1245 C1229 1.429 . S
C1245 C1241 1.429 . S
C1245 C1246 1.523 . S
C1246 C1230 1.368 . S
C1246 C1242 1.368 . S
C1246 C1245 1.523 . S
H1247 C1222 0.950 . S
H1248 C1224 0.950 . S
H1249 C1225 0.949 . S
H1250 C1227 0.950 . S
H1251 C1229 0.950 . S
C1252 C1253 1.322 1_545 S
C1252 C1254 1.327 . S
C1252 H1277 0.950 . S
C1253 C1252 1.322 1_565 S
C1253 C1269 1.361 . S
C1254 C1252 1.327 . S
C1254 C1273 1.429 . S
C1254 H1278 0.950 . S
C1255 C1272 1.574 . S
C1255 C1274 1.368 . S
C1255 H1279 0.949 1_545 S
H1256 C1260 0.949 . S
C1257 C1258 1.349 . S
C1257 C1259 1.327 . S
C1257 H1280 0.950 . S
C1258 C1257 1.349 . S
C1258 C1270 1.349 . S
C1259 C1257 1.327 . S
C1259 C1275 1.429 . S
C1259 H1281 0.950 . S
C1260 H1256 0.949 . S
C1260 C1268 1.574 . S
C1260 C1276 1.368 . S
H1261 C1269 0.950 . S
H1262 C1267 0.950 . S
H1263 C1268 0.949 . S
H1264 C1270 0.950 . S
H1265 C1271 0.950 . S
H1266 C1272 0.949 . S
C1267 H1262 0.950 . S
C1267 C1269 1.327 . S
C1267 C1273 1.429 1_565 S
C1268 C1260 1.574 . S
C1268 H1263 0.949 . S
C1268 C1274 1.368 . S
C1269 C1253 1.361 . S
C1269 H1261 0.950 . S
C1269 C1267 1.327 . S
C1270 C1258 1.349 . S
C1270 H1264 0.950 . S
C1270 C1271 1.327 . S
C1271 H1265 0.950 . S
C1271 C1270 1.327 . S
C1271 C1275 1.429 . S
C1272 C1255 1.574 . S
C1272 H1266 0.949 . S
C1272 C1276 1.368 . S
C1273 C1254 1.429 . S
C1273 C1267 1.429 1_545 S
C1273 C1274 1.523 . S
C1274 C1255 1.368 . S
C1274 C1268 1.368 . S
C1274 C1273 1.523 . S
C1275 C1259 1.429 . S
C1275 C1271 1.429 . S
C1275 C1276 1.523 . S
C1276 C1260 1.368 . S
C1276 C1272 1.368 . S
C1276 C1275 1.523 . S
H1277 C1252 0.950 . S
H1278 C1254 0.950 . S
H1279 C1255 0.949 1_565 S
H1280 C1257 0.950 . S
H1281 C1259 0.950 . S
C1282 C1283 1.349 . S
C1282 C1284 1.327 . S
C1282 H1307 0.950 . S
C1283 C1282 1.349 . S
C1283 C1299 1.349 . S
C1284 C1282 1.327 . S
C1284 C1303 1.429 . S
C1284 H1308 0.950 . S
C1285 C1302 1.574 . S
C1285 C1304 1.368 . S
C1285 H1309 0.949 . S
H1286 C1290 0.949 . S
C1287 C1288 1.349 . S
C1287 C1289 1.327 . S
C1287 H1310 0.950 . S
C1288 C1287 1.349 . S
C1288 C1300 1.349 . S
C1289 C1287 1.327 . S
C1289 C1305 1.429 . S
C1289 H1311 0.950 . S
C1290 H1286 0.949 . S
C1290 C1298 1.574 . S
C1290 C1306 1.368 . S
H1291 C1299 0.950 . S
H1292 C1297 0.950 . S
H1293 C1298 0.949 . S
H1294 C1300 0.950 . S
H1295 C1301 0.950 . S
H1296 C1302 0.949 . S
C1297 H1292 0.950 . S
C1297 C1299 1.327 . S
C1297 C1303 1.429 . S
C1298 C1290 1.574 . S
C1298 H1293 0.949 . S
C1298 C1304 1.368 . S
C1299 C1283 1.349 . S
C1299 H1291 0.950 . S
C1299 C1297 1.327 . S
C1300 C1288 1.349 . S
C1300 H1294 0.950 . S
C1300 C1301 1.327 . S
C1301 H1295 0.950 . S
C1301 C1300 1.327 . S
C1301 C1305 1.429 . S
C1302 C1285 1.574 . S
C1302 H1296 0.949 . S
C1302 C1306 1.368 . S
C1303 C1284 1.429 . S
C1303 C1297 1.429 . S
C1303 C1304 1.523 . S
C1304 C1285 1.368 . S
C1304 C1298 1.368 . S
C1304 C1303 1.523 . S
C1305 C1289 1.429 . S
C1305 C1301 1.429 . S
C1305 C1306 1.523 . S
C1306 C1290 1.368 . S
C1306 C1302 1.368 . S
C1306 C1305 1.523 . S
H1307 C1282 0.950 . S
H1308 C1284 0.950 . S
H1309 C1285 0.949 . S
H1310 C1287 0.950 . S
H1311 C1289 0.950 . S
C1312 C1313 1.349 . S
C1312 C1314 1.327 . S
C1312 H1337 0.950 . S
C1313 C1312 1.349 . S
C1313 C1329 1.349 . S
C1314 C1312 1.327 . S
C1314 C1333 1.429 . S
C1314 H1338 0.950 . S
C1315 C1332 1.574 . S
C1315 C1334 1.368 . S
C1315 H1339 0.949 . S
H1316 C1320 0.949 . S
C1317 C1318 1.383 . S
C1317 C1319 1.327 . S
C1317 H1340 0.950 . S
C1318 C1317 1.383 . S
C1318 C1330 1.331 1_655 S
C1319 C1317 1.327 . S
C1319 C1335 1.429 . S
C1319 H1341 0.950 . S
C1320 H1316 0.949 . S
C1320 C1328 1.574 . S
C1320 C1336 1.368 . S
H1321 C1329 0.950 . S
H1322 C1327 0.950 . S
H1323 C1328 0.949 . S
H1324 C1330 0.950 . S
H1325 C1331 0.950 . S
H1326 C1332 0.949 . S
C1327 H1322 0.950 . S
C1327 C1329 1.327 . S
C1327 C1333 1.429 . S
C1328 C1320 1.574 . S
C1328 H1323 0.949 . S
C1328 C1334 1.368 . S
C1329 C1313 1.349 . S
C1329 H1321 0.950 . S
C1329 C1327 1.327 . S
C1330 C1318 1.331 1_455 S
C1330 H1324 0.950 . S
C1330 C1331 1.327 1_455 S
C1331 H1325 0.950 . S
C1331 C1330 1.327 1_655 S
C1331 C1335 1.429 . S
C1332 C1315 1.574 . S
C1332 H1326 0.949 . S
C1332 C1336 1.368 . S
C1333 C1314 1.429 . S
C1333 C1327 1.429 . S
C1333 C1334 1.523 . S
C1334 C1315 1.368 . S
C1334 C1328 1.368 . S
C1334 C1333 1.523 . S
C1335 C1319 1.429 . S
C1335 C1331 1.429 . S
C1335 C1336 1.523 . S
C1336 C1320 1.368 . S
C1336 C1332 1.368 . S
C1336 C1335 1.523 . S
H1337 C1312 0.950 . S
H1338 C1314 0.950 . S
H1339 C1315 0.949 . S
H1340 C1317 0.950 . S
H1341 C1319 0.950 . S
C1342 C1343 1.349 . S
C1342 C1344 1.327 . S
C1342 H1367 0.950 . S
C1343 C1342 1.349 . S
C1343 C1359 1.349 . S
C1344 C1342 1.327 . S
C1344 C1363 1.429 . S
C1344 H1368 0.950 . S
C1345 C1362 1.574 . S
C1345 C1364 1.368 . S
C1345 H1369 0.949 . S
H1346 C1350 0.949 . S
C1347 C1348 1.349 . S
C1347 C1349 1.327 . S
C1347 H1370 0.950 . S
C1348 C1347 1.349 . S
C1348 C1360 1.349 . S
C1349 C1347 1.327 . S
C1349 C1365 1.429 . S
C1349 H1371 0.950 . S
C1350 H1346 0.949 . S
C1350 C1358 1.574 . S
C1350 C1366 1.368 . S
H1351 C1359 0.950 . S
H1352 C1357 0.950 . S
H1353 C1358 0.949 . S
H1354 C1360 0.950 . S
H1355 C1361 0.950 . S
H1356 C1362 0.949 . S
C1357 H1352 0.950 . S
C1357 C1359 1.327 . S
C1357 C1363 1.429 . S
C1358 C1350 1.574 . S
C1358 H1353 0.949 . S
C1358 C1364 1.368 . S
C1359 C1343 1.349 . S
C1359 H1351 0.950 . S
C1359 C1357 1.327 . S
C1360 C1348 1.349 . S
C1360 H1354 0.950 . S
C1360 C1361 1.327 . S
C1361 H1355 0.950 . S
C1361 C1360 1.327 . S
C1361 C1365 1.429 . S
C1362 C1345 1.574 . S
C1362 H1356 0.949 . S
C1362 C1366 1.368 . S
C1363 C1344 1.429 . S
C1363 C1357 1.429 . S
C1363 C1364 1.523 . S
C1364 C1345 1.368 . S
C1364 C1358 1.368 . S
C1364 C1363 1.523 . S
C1365 C1349 1.429 . S
C1365 C1361 1.429 . S
C1365 C1366 1.523 . S
C1366 C1350 1.368 . S
C1366 C1362 1.368 . S
C1366 C1365 1.523 . S
H1367 C1342 0.950 . S
H1368 C1344 0.950 . S
H1369 C1345 0.949 . S
H1370 C1347 0.950 . S
H1371 C1349 0.950 . S
C1372 C1373 1.349 . S
C1372 C1374 1.327 1_565 S
C1372 H1397 0.950 . S
C1373 C1372 1.349 . S
C1373 C1389 1.349 1_565 S
C1374 C1372 1.327 1_545 S
C1374 C1393 1.429 . S
C1374 H1398 0.950 1_545 S
C1375 C1392 1.574 . S
C1375 C1394 1.368 . S
C1375 H1399 0.949 . S
H1376 C1380 0.949 . S
C1377 C1378 1.349 . S
C1377 C1379 1.327 . S
C1377 H1400 0.950 . S
C1378 C1377 1.349 . S
C1378 C1390 1.349 . S
C1379 C1377 1.327 . S
C1379 C1395 1.429 . S
C1379 H1401 0.950 . S
C1380 H1376 0.949 . S
C1380 C1388 1.574 . S
C1380 C1396 1.368 . S
H1381 C1389 0.950 . S
H1382 C1387 0.950 . S
H1383 C1388 0.949 . S
H1384 C1390 0.950 . S
H1385 C1391 0.950 . S
H1386 C1392 0.949 . S
C1387 H1382 0.950 . S
C1387 C1389 1.327 . S
C1387 C1393 1.429 . S
C1388 C1380 1.574 . S
C1388 H1383 0.949 . S
C1388 C1394 1.368 . S
C1389 C1373 1.349 1_545 S
C1389 H1381 0.950 . S
C1389 C1387 1.327 . S
C1390 C1378 1.349 . S
C1390 H1384 0.950 . S
C1390 C1391 1.327 . S
C1391 H1385 0.950 . S
C1391 C1390 1.327 . S
C1391 C1395 1.429 . S
C1392 C1375 1.574 . S
C1392 H1386 0.949 . S
C1392 C1396 1.368 . S
C1393 C1374 1.429 . S
C1393 C1387 1.429 . S
C1393 C1394 1.523 . S
C1394 C1375 1.368 . S
C1394 C1388 1.368 . S
C1394 C1393 1.523 . S
C1395 C1379 1.429 . S
C1395 C1391 1.429 . S
C1395 C1396 1.523 . S
C1396 C1380 1.368 . S
C1396 C1392 1.368 . S
C1396 C1395 1.523 . S
H1397 C1372 0.950 . S
H1398 C1374 0.950 1_565 S
H1399 C1375 0.949 . S
H1400 C1377 0.950 . S
H1401 C1379 0.950 . S
C1402 C1403 1.349 . S
C1402 C1404 1.327 . S
C1402 H1427 0.950 . S
C1403 C1402 1.349 . S
C1403 C1419 1.349 . S
C1404 C1402 1.327 . S
C1404 C1423 1.429 . S
C1404 H1428 0.950 . S
C1405 C1422 1.574 . S
C1405 C1424 1.368 . S
C1405 H1429 0.949 . S
H1406 C1410 0.949 . S
C1407 C1408 1.349 . S
C1407 C1409 1.327 . S
C1407 H1430 0.950 . S
C1408 C1407 1.349 . S
C1408 C1420 1.349 . S
C1409 C1407 1.327 . S
C1409 C1425 1.429 . S
C1409 H1431 0.950 . S
C1410 H1406 0.949 . S
C1410 C1418 1.574 . S
C1410 C1426 1.368 . S
H1411 C1419 0.950 . S
H1412 C1417 0.950 . S
H1413 C1418 0.949 . S
H1414 C1420 0.950 . S
H1415 C1421 0.950 . S
H1416 C1422 0.949 . S
C1417 H1412 0.950 . S
C1417 C1419 1.327 . S
C1417 C1423 1.429 . S
C1418 C1410 1.574 . S
C1418 H1413 0.949 . S
C1418 C1424 1.368 . S
C1419 C1403 1.349 . S
C1419 H1411 0.950 . S
C1419 C1417 1.327 . S
C1420 C1408 1.349 . S
C1420 H1414 0.950 . S
C1420 C1421 1.327 . S
C1421 H1415 0.950 . S
C1421 C1420 1.327 . S
C1421 C1425 1.429 . S
C1422 C1405 1.574 . S
C1422 H1416 0.949 . S
C1422 C1426 1.368 . S
C1423 C1404 1.429 . S
C1423 C1417 1.429 . S
C1423 C1424 1.523 . S
C1424 C1405 1.368 . S
C1424 C1418 1.368 . S
C1424 C1423 1.523 . S
C1425 C1409 1.429 . S
C1425 C1421 1.429 . S
C1425 C1426 1.523 . S
C1426 C1410 1.368 . S
C1426 C1422 1.368 . S
C1426 C1425 1.523 . S
H1427 C1402 0.950 . S
H1428 C1404 0.950 . S
H1429 C1405 0.949 . S
H1430 C1407 0.950 . S
H1431 C1409 0.950 . S
C1432 C1433 1.349 . S
C1432 C1434 1.327 . S
C1432 H1457 0.950 . S
C1433 C1432 1.349 . S
C1433 C1449 1.349 . S
C1434 C1432 1.327 . S
C1434 C1453 1.429 . S
C1434 H1458 0.950 . S
C1435 C1452 1.574 . S
C1435 C1454 1.368 . S
C1435 H1459 0.949 . S
H1436 C1440 0.949 . S
C1437 C1438 1.349 . S
C1437 C1439 1.327 . S
C1437 H1460 0.950 . S
C1438 C1437 1.349 . S
C1438 C1450 1.349 . S
C1439 C1437 1.327 . S
C1439 C1455 1.429 . S
C1439 H1461 0.950 . S
C1440 H1436 0.949 . S
C1440 C1448 1.574 . S
C1440 C1456 1.368 . S
H1441 C1449 0.950 . S
H1442 C1447 0.950 . S
H1443 C1448 0.949 . S
H1444 C1450 0.950 . S
H1445 C1451 0.950 . S
H1446 C1452 0.949 . S
C1447 H1442 0.950 . S
C1447 C1449 1.327 . S
C1447 C1453 1.429 . S
C1448 C1440 1.574 . S
C1448 H1443 0.949 . S
C1448 C1454 1.368 . S
C1449 C1433 1.349 . S
C1449 H1441 0.950 . S
C1449 C1447 1.327 . S
C1450 C1438 1.349 . S
C1450 H1444 0.950 . S
C1450 C1451 1.327 . S
C1451 H1445 0.950 . S
C1451 C1450 1.327 . S
C1451 C1455 1.429 . S
C1452 C1435 1.574 . S
C1452 H1446 0.949 . S
C1452 C1456 1.368 . S
C1453 C1434 1.429 . S
C1453 C1447 1.429 . S
C1453 C1454 1.523 . S
C1454 C1435 1.368 . S
C1454 C1448 1.368 . S
C1454 C1453 1.523 . S
C1455 C1439 1.429 . S
C1455 C1451 1.429 . S
C1455 C1456 1.523 1_545 S
C1456 C1440 1.368 . S
C1456 C1452 1.368 . S
C1456 C1455 1.523 1_565 S
H1457 C1432 0.950 . S
H1458 C1434 0.950 . S
H1459 C1435 0.949 . S
H1460 C1437 0.950 . S
H1461 C1439 0.950 . S
C1462 C1463 1.349 . S
C1462 C1464 1.327 . S
C1462 H1487 0.950 . S
C1463 C1462 1.349 . S
C1463 C1479 1.349 . S
C1464 C1462 1.327 . S
C1464 C1483 1.429 . S
C1464 H1488 0.950 . S
C1465 C1482 1.574 . S
C1465 C1484 1.368 . S
C1465 H1489 0.949 1_554 S
H1466 C1470 0.949 . S
C1467 C1468 1.349 . S
C1467 C1469 1.327 . S
C1467 H1490 0.935 1_554 S
C1468 C1467 1.349 . S
C1468 C1480 1.349 . S
C1469 C1467 1.327 . S
C1469 C1485 1.429 . S
C1469 H1491 0.950 1_554 S
C1470 H1466 0.949 . S
C1470 C1478 1.574 . S
C1470 C1486 1.368 . S
H1471 C1479 0.950 1_556 S
H1472 C1477 0.950 1_556 S
H1473 C1478 0.949 . S
H1474 C1480 0.950 . S
H1475 C1481 0.950 . S
H1476 C1482 0.949 1_556 S
C1477 H1472 0.950 1_554 S
C1477 C1479 1.327 . S
C1477 C1483 1.429 . S
C1478 C1470 1.574 . S
C1478 H1473 0.949 . S
C1478 C1484 1.368 . S
C1479 C1463 1.349 . S
C1479 H1471 0.950 1_554 S
C1479 C1477 1.327 . S
C1480 C1468 1.349 . S
C1480 H1474 0.950 . S
C1480 C1481 1.327 . S
C1481 H1475 0.950 . S
C1481 C1480 1.327 . S
C1481 C1485 1.429 . S
C1482 C1465 1.574 . S
C1482 H1476 0.949 1_554 S
C1482 C1486 1.368 . S
C1483 C1464 1.429 . S
C1483 C1477 1.429 . S
C1483 C1484 1.523 . S
C1484 C1465 1.368 . S
C1484 C1478 1.368 . S
C1484 C1483 1.523 . S
C1485 C1469 1.429 . S
C1485 C1481 1.429 . S
C1485 C1486 1.523 . S
C1486 C1470 1.368 . S
C1486 C1482 1.368 . S
C1486 C1485 1.523 . S
H1487 C1462 0.950 . S
H1488 C1464 0.950 . S
H1489 C1465 0.949 1_556 S
H1490 C1467 0.935 1_556 S
H1491 C1469 0.950 1_556 S
C1492 C1493 1.349 . S
C1492 C1494 1.327 . S
C1492 H1517 0.950 . S
C1493 C1492 1.349 . S
C1493 C1509 1.349 . S
C1494 C1492 1.327 . S
C1494 C1513 1.429 . S
C1494 H1518 0.950 . S
C1495 C1512 1.574 . S
C1495 C1514 1.368 . S
C1495 H1519 0.949 . S
H1496 C1500 0.949 . S
C1497 C1498 1.349 . S
C1497 C1499 1.327 . S
C1497 H1520 0.950 . S
C1498 C1497 1.349 . S
C1498 C1510 1.349 . S
C1499 C1497 1.327 . S
C1499 C1515 1.429 . S
C1499 H1521 0.950 . S
C1500 H1496 0.949 . S
C1500 C1508 1.574 . S
C1500 C1516 1.368 . S
H1501 C1509 0.950 . S
H1502 C1507 0.950 . S
H1503 C1508 0.949 . S
H1504 C1510 0.950 . S
H1505 C1511 0.950 . S
H1506 C1512 0.949 . S
C1507 H1502 0.950 . S
C1507 C1509 1.327 . S
C1507 C1513 1.429 . S
C1508 C1500 1.574 . S
C1508 H1503 0.949 . S
C1508 C1514 1.368 . S
C1509 C1493 1.349 . S
C1509 H1501 0.950 . S
C1509 C1507 1.327 . S
C1510 C1498 1.349 . S
C1510 H1504 0.950 . S
C1510 C1511 1.327 . S
C1511 H1505 0.950 . S
C1511 C1510 1.327 . S
C1511 C1515 1.429 . S
C1512 C1495 1.574 . S
C1512 H1506 0.949 . S
C1512 C1516 1.368 . S
C1513 C1494 1.429 . S
C1513 C1507 1.429 . S
C1513 C1514 1.523 . S
C1514 C1495 1.368 . S
C1514 C1508 1.368 . S
C1514 C1513 1.523 . S
C1515 C1499 1.429 . S
C1515 C1511 1.429 . S
C1515 C1516 1.523 . S
C1516 C1500 1.368 . S
C1516 C1512 1.368 . S
C1516 C1515 1.523 . S
H1517 C1492 0.950 . S
H1518 C1494 0.950 . S
H1519 C1495 0.949 . S
H1520 C1497 0.950 . S
H1521 C1499 0.950 . S
C1522 C1523 1.349 . S
C1522 C1524 1.327 . S
C1522 H1547 0.950 . S
C1523 C1522 1.349 . S
C1523 C1539 1.349 . S
C1524 C1522 1.327 . S
C1524 C1543 1.429 . S
C1524 H1548 0.950 . S
C1525 C1542 1.574 . S
C1525 C1544 1.368 . S
C1525 H1549 0.949 . S
H1526 C1530 0.949 . S
C1527 C1528 1.349 . S
C1527 C1529 1.327 . S
C1527 H1550 0.950 . S
C1528 C1527 1.349 . S
C1528 C1540 1.349 . S
C1529 C1527 1.327 . S
C1529 C1545 1.429 . S
C1529 H1551 0.950 . S
C1530 H1526 0.949 . S
C1530 C1538 1.574 . S
C1530 C1546 1.368 . S
H1531 C1539 0.950 . S
H1532 C1537 0.950 . S
H1533 C1538 0.949 . S
H1534 C1540 0.950 . S
H1535 C1541 0.950 . S
H1536 C1542 0.949 . S
C1537 H1532 0.950 . S
C1537 C1539 1.327 . S
C1537 C1543 1.429 . S
C1538 C1530 1.574 . S
C1538 H1533 0.949 . S
C1538 C1544 1.368 . S
C1539 C1523 1.349 . S
C1539 H1531 0.950 . S
C1539 C1537 1.327 . S
C1540 C1528 1.349 . S
C1540 H1534 0.950 . S
C1540 C1541 1.327 . S
C1541 H1535 0.950 . S
C1541 C1540 1.327 . S
C1541 C1545 1.429 . S
C1542 C1525 1.574 . S
C1542 H1536 0.949 . S
C1542 C1546 1.368 . S
C1543 C1524 1.429 . S
C1543 C1537 1.429 . S
C1543 C1544 1.523 . S
C1544 C1525 1.368 . S
C1544 C1538 1.368 . S
C1544 C1543 1.523 . S
C1545 C1529 1.429 . S
C1545 C1541 1.429 . S
C1545 C1546 1.523 . S
C1546 C1530 1.368 . S
C1546 C1542 1.368 . S
C1546 C1545 1.523 . S
H1547 C1522 0.950 . S
H1548 C1524 0.950 . S
H1549 C1525 0.949 . S
H1550 C1527 0.950 . S
H1551 C1529 0.950 . S
C1552 C1553 1.349 . S
C1552 C1554 1.327 . S
C1552 H1577 0.950 . S
C1553 C1552 1.349 . S
C1553 C1569 1.349 . S
C1554 C1552 1.327 . S
C1554 C1573 1.429 . S
C1554 H1578 0.950 . S
C1555 C1572 1.574 . S
C1555 C1574 1.368 . S
C1555 H1579 0.949 . S
H1556 C1560 0.949 . S
C1557 C1558 1.349 . S
C1557 C1559 1.327 . S
C1557 H1580 0.950 . S
C1558 C1557 1.349 . S
C1558 C1570 1.349 . S
C1559 C1557 1.327 . S
C1559 C1575 1.429 . S
C1559 H1581 0.950 . S
C1560 H1556 0.949 . S
C1560 C1568 1.574 . S
C1560 C1576 1.368 . S
H1561 C1569 0.950 . S
H1562 C1567 0.950 . S
H1563 C1568 0.949 . S
H1564 C1570 0.950 . S
H1565 C1571 0.950 . S
H1566 C1572 0.949 . S
C1567 H1562 0.950 . S
C1567 C1569 1.327 . S
C1567 C1573 1.429 . S
C1568 C1560 1.574 . S
C1568 H1563 0.949 . S
C1568 C1574 1.368 . S
C1569 C1553 1.349 . S
C1569 H1561 0.950 . S
C1569 C1567 1.327 . S
C1570 C1558 1.349 . S
C1570 H1564 0.950 . S
C1570 C1571 1.327 . S
C1571 H1565 0.950 . S
C1571 C1570 1.327 . S
C1571 C1575 1.429 . S
C1572 C1555 1.574 . S
C1572 H1566 0.949 . S
C1572 C1576 1.368 . S
C1573 C1554 1.429 . S
C1573 C1567 1.429 . S
C1573 C1574 1.523 . S
C1574 C1555 1.368 . S
C1574 C1568 1.368 . S
C1574 C1573 1.523 . S
C1575 C1559 1.429 . S
C1575 C1571 1.429 . S
C1575 C1576 1.523 . S
C1576 C1560 1.368 . S
C1576 C1572 1.368 . S
C1576 C1575 1.523 . S
H1577 C1552 0.950 . S
H1578 C1554 0.950 . S
H1579 C1555 0.949 . S
H1580 C1557 0.950 . S
H1581 C1559 0.950 . S
C1582 C1583 1.349 . S
C1582 C1584 1.327 . S
C1582 H1607 0.950 . S
C1583 C1582 1.349 . S
C1583 C1599 1.349 . S
C1584 C1582 1.327 . S
C1584 C1603 1.429 . S
C1584 H1608 0.950 . S
C1585 C1602 1.574 . S
C1585 C1604 1.368 . S
C1585 H1609 0.949 . S
H1586 C1590 0.949 . S
C1587 C1588 1.349 . S
C1587 C1589 1.327 . S
C1587 H1610 0.950 . S
C1588 C1587 1.349 . S
C1588 C1600 1.349 . S
C1589 C1587 1.327 . S
C1589 C1605 1.429 . S
C1589 H1611 0.950 . S
C1590 H1586 0.949 . S
C1590 C1598 1.574 . S
C1590 C1606 1.368 . S
H1591 C1599 0.950 . S
H1592 C1597 0.950 . S
H1593 C1598 0.949 . S
H1594 C1600 0.950 . S
H1595 C1601 0.950 . S
H1596 C1602 0.949 . S
C1597 H1592 0.950 . S
C1597 C1599 1.327 . S
C1597 C1603 1.429 . S
C1598 C1590 1.574 . S
C1598 H1593 0.949 . S
C1598 C1604 1.368 . S
C1599 C1583 1.349 . S
C1599 H1591 0.950 . S
C1599 C1597 1.327 . S
C1600 C1588 1.349 . S
C1600 H1594 0.950 . S
C1600 C1601 1.327 . S
C1601 H1595 0.950 . S
C1601 C1600 1.327 . S
C1601 C1605 1.429 . S
C1602 C1585 1.574 . S
C1602 H1596 0.949 . S
C1602 C1606 1.368 . S
C1603 C1584 1.429 . S
C1603 C1597 1.429 . S
C1603 C1604 1.523 . S
C1604 C1585 1.368 . S
C1604 C1598 1.368 . S
C1604 C1603 1.523 . S
C1605 C1589 1.429 . S
C1605 C1601 1.429 . S
C1605 C1606 1.523 . S
C1606 C1590 1.368 . S
C1606 C1602 1.368 . S
C1606 C1605 1.523 . S
H1607 C1582 0.950 . S
H1608 C1584 0.950 . S
H1609 C1585 0.949 . S
H1610 C1587 0.950 . S
H1611 C1589 0.950 . S
C1612 C1613 1.349 . S
C1612 C1614 1.327 . S
C1612 H1637 0.950 . S
C1613 C1612 1.349 . S
C1613 C1629 1.349 . S
C1614 C1612 1.327 . S
C1614 C1633 1.429 . S
C1614 H1638 0.950 . S
C1615 C1632 1.574 . S
C1615 C1634 1.368 . S
C1615 H1639 0.949 . S
H1616 C1620 0.949 . S
C1617 C1618 1.349 . S
C1617 C1619 1.327 . S
C1617 H1640 0.950 . S
C1618 C1617 1.349 . S
C1618 C1630 1.349 . S
C1619 C1617 1.327 . S
C1619 C1635 1.429 . S
C1619 H1641 0.950 . S
C1620 H1616 0.949 . S
C1620 C1628 1.574 . S
C1620 C1636 1.368 . S
H1621 C1629 0.950 . S
H1622 C1627 0.950 . S
H1623 C1628 0.949 . S
H1624 C1630 0.950 . S
H1625 C1631 0.950 . S
H1626 C1632 0.949 . S
C1627 H1622 0.950 . S
C1627 C1629 1.327 . S
C1627 C1633 1.429 . S
C1628 C1620 1.574 . S
C1628 H1623 0.949 . S
C1628 C1634 1.368 . S
C1629 C1613 1.349 . S
C1629 H1621 0.950 . S
C1629 C1627 1.327 . S
C1630 C1618 1.349 . S
C1630 H1624 0.950 . S
C1630 C1631 1.327 . S
C1631 H1625 0.950 . S
C1631 C1630 1.327 . S
C1631 C1635 1.429 . S
C1632 C1615 1.574 . S
C1632 H1626 0.949 . S
C1632 C1636 1.368 . S
C1633 C1614 1.429 . S
C1633 C1627 1.429 . S
C1633 C1634 1.523 . S
C1634 C1615 1.368 . S
C1634 C1628 1.368 . S
C1634 C1633 1.523 . S
C1635 C1619 1.429 . S
C1635 C1631 1.429 . S
C1635 C1636 1.523 . S
C1636 C1620 1.368 . S
C1636 C1632 1.368 . S
C1636 C1635 1.523 . S
H1637 C1612 0.950 . S
H1638 C1614 0.950 . S
H1639 C1615 0.949 . S
H1640 C1617 0.950 . S
H1641 C1619 0.950 . S
C1642 C1643 1.349 . S
C1642 C1644 1.327 . S
C1642 H1667 0.950 . S
C1643 C1642 1.349 . S
C1643 C1659 1.349 . S
C1644 C1642 1.327 . S
C1644 C1663 1.429 . S
C1644 H1668 0.950 . S
C1645 C1662 1.574 . S
C1645 C1664 1.368 . S
C1645 H1669 0.949 . S
H1646 C1650 0.949 . S
C1647 C1648 1.349 . S
C1647 C1649 1.327 . S
C1647 H1670 0.950 . S
C1648 C1647 1.349 . S
C1648 C1660 1.349 . S
C1649 C1647 1.327 . S
C1649 C1665 1.429 . S
C1649 H1671 0.950 . S
C1650 H1646 0.949 . S
C1650 C1658 1.574 . S
C1650 C1666 1.368 . S
H1651 C1659 0.950 . S
H1652 C1657 0.950 . S
H1653 C1658 0.949 . S
H1654 C1660 0.950 . S
H1655 C1661 0.950 . S
H1656 C1662 0.949 . S
C1657 H1652 0.950 . S
C1657 C1659 1.327 . S
C1657 C1663 1.429 . S
C1658 C1650 1.574 . S
C1658 H1653 0.949 . S
C1658 C1664 1.368 . S
C1659 C1643 1.349 . S
C1659 H1651 0.950 . S
C1659 C1657 1.327 . S
C1660 C1648 1.349 . S
C1660 H1654 0.950 . S
C1660 C1661 1.327 . S
C1661 H1655 0.950 . S
C1661 C1660 1.327 . S
C1661 C1665 1.429 . S
C1662 C1645 1.574 . S
C1662 H1656 0.949 . S
C1662 C1666 1.368 . S
C1663 C1644 1.429 . S
C1663 C1657 1.429 . S
C1663 C1664 1.523 . S
C1664 C1645 1.368 . S
C1664 C1658 1.368 . S
C1664 C1663 1.523 . S
C1665 C1649 1.429 . S
C1665 C1661 1.429 . S
C1665 C1666 1.523 . S
C1666 C1650 1.368 . S
C1666 C1662 1.368 . S
C1666 C1665 1.523 . S
H1667 C1642 0.950 . S
H1668 C1644 0.950 . S
H1669 C1645 0.949 . S
H1670 C1647 0.950 . S
H1671 C1649 0.950 . S
C1672 C1673 1.349 . S
C1672 C1674 1.327 . S
C1672 H1697 0.950 . S
C1673 C1672 1.349 . S
C1673 C1689 1.349 . S
C1674 C1672 1.327 . S
C1674 C1693 1.429 . S
C1674 H1698 0.950 . S
C1675 C1692 1.574 . S
C1675 C1694 1.368 . S
C1675 H1699 0.949 . S
H1676 C1680 0.949 . S
C1677 C1678 1.349 . S
C1677 C1679 1.327 . S
C1677 H1700 0.950 . S
C1678 C1677 1.349 . S
C1678 C1690 1.349 . S
C1679 C1677 1.327 . S
C1679 C1695 1.429 . S
C1679 H1701 0.950 . S
C1680 H1676 0.949 . S
C1680 C1688 1.574 . S
C1680 C1696 1.368 . S
H1681 C1689 0.950 . S
H1682 C1687 0.950 . S
H1683 C1688 0.949 . S
H1684 C1690 0.950 1_545 S
H1685 C1691 0.950 . S
H1686 C1692 0.949 . S
C1687 H1682 0.950 . S
C1687 C1689 1.327 . S
C1687 C1693 1.429 . S
C1688 C1680 1.574 . S
C1688 H1683 0.949 . S
C1688 C1694 1.368 . S
C1689 C1673 1.349 . S
C1689 H1681 0.950 . S
C1689 C1687 1.327 . S
C1690 C1678 1.349 . S
C1690 H1684 0.950 1_565 S
C1690 C1691 1.327 . S
C1691 H1685 0.950 . S
C1691 C1690 1.327 . S
C1691 C1695 1.429 . S
C1692 C1675 1.574 . S
C1692 H1686 0.949 . S
C1692 C1696 1.368 . S
C1693 C1674 1.429 . S
C1693 C1687 1.429 . S
C1693 C1694 1.523 . S
C1694 C1675 1.368 . S
C1694 C1688 1.368 . S
C1694 C1693 1.523 . S
C1695 C1679 1.429 . S
C1695 C1691 1.429 . S
C1695 C1696 1.523 . S
C1696 C1680 1.368 . S
C1696 C1692 1.368 . S
C1696 C1695 1.523 . S
H1697 C1672 0.950 . S
H1698 C1674 0.950 . S
H1699 C1675 0.949 . S
H1700 C1677 0.950 . S
H1701 C1679 0.950 . S
C1702 C1703 1.349 . S
C1702 C1704 1.327 . S
C1702 H1727 0.950 . S
C1703 C1702 1.349 . S
C1703 C1719 1.349 . S
C1704 C1702 1.327 . S
C1704 C1723 1.429 . S
C1704 H1728 0.950 . S
C1705 C1722 1.574 . S
C1705 C1724 1.368 . S
C1705 H1729 0.949 . S
H1706 C1710 0.949 . S
C1707 C1708 1.349 . S
C1707 C1709 1.327 . S
C1707 H1730 0.950 . S
C1708 C1707 1.349 . S
C1708 C1720 1.349 . S
C1709 C1707 1.327 . S
C1709 C1725 1.429 . S
C1709 H1731 0.950 . S
C1710 H1706 0.949 . S
C1710 C1718 1.574 . S
C1710 C1726 1.368 . S
H1711 C1719 0.950 . S
H1712 C1717 0.950 . S
H1713 C1718 0.949 . S
H1714 C1720 0.950 . S
H1715 C1721 0.950 . S
H1716 C1722 0.949 . S
C1717 H1712 0.950 . S
C1717 C1719 1.327 . S
C1717 C1723 1.429 . S
C1718 C1710 1.574 . S
C1718 H1713 0.949 . S
C1718 C1724 1.368 . S
C1719 C1703 1.349 . S
C1719 H1711 0.950 . S
C1719 C1717 1.327 . S
C1720 C1708 1.349 . S
C1720 H1714 0.950 . S
C1720 C1721 1.327 . S
C1721 H1715 0.950 . S
C1721 C1720 1.327 . S
C1721 C1725 1.429 . S
C1722 C1705 1.574 . S
C1722 H1716 0.949 . S
C1722 C1726 1.368 . S
C1723 C1704 1.429 . S
C1723 C1717 1.429 . S
C1723 C1724 1.523 . S
C1724 C1705 1.368 . S
C1724 C1718 1.368 . S
C1724 C1723 1.523 . S
C1725 C1709 1.429 . S
C1725 C1721 1.429 . S
C1725 C1726 1.523 . S
C1726 C1710 1.368 . S
C1726 C1722 1.368 . S
C1726 C1725 1.523 . S
H1727 C1702 0.950 . S
H1728 C1704 0.950 . S
H1729 C1705 0.949 . S
H1730 C1707 0.950 . S
H1731 C1709 0.950 . S
C1732 C1733 1.349 . S
C1732 C1734 1.327 . S
C1732 H1757 0.950 . S
C1733 C1732 1.349 . S
C1733 C1749 1.349 . S
C1734 C1732 1.327 . S
C1734 C1753 1.429 . S
C1734 H1758 0.950 . S
C1735 C1752 1.574 . S
C1735 C1754 1.368 . S
C1735 H1759 0.949 . S
H1736 C1740 0.949 . S
C1737 C1738 1.349 . S
C1737 C1739 1.327 . S
C1737 H1760 0.950 . S
C1738 C1737 1.349 . S
C1738 C1750 1.349 . S
C1739 C1737 1.327 . S
C1739 C1755 1.429 . S
C1739 H1761 0.950 . S
C1740 H1736 0.949 . S
C1740 C1748 1.574 . S
C1740 C1756 1.368 . S
H1741 C1749 0.950 . S
H1742 C1747 0.950 . S
H1743 C1748 0.949 . S
H1744 C1750 0.950 . S
H1745 C1751 0.950 . S
H1746 C1752 0.949 . S
C1747 H1742 0.950 . S
C1747 C1749 1.327 . S
C1747 C1753 1.429 . S
C1748 C1740 1.574 . S
C1748 H1743 0.949 . S
C1748 C1754 1.368 . S
C1749 C1733 1.349 . S
C1749 H1741 0.950 . S
C1749 C1747 1.327 . S
C1750 C1738 1.349 . S
C1750 H1744 0.950 . S
C1750 C1751 1.327 . S
C1751 H1745 0.950 . S
C1751 C1750 1.327 . S
C1751 C1755 1.429 . S
C1752 C1735 1.574 . S
C1752 H1746 0.949 . S
C1752 C1756 1.368 . S
C1753 C1734 1.429 . S
C1753 C1747 1.429 . S
C1753 C1754 1.523 . S
C1754 C1735 1.368 . S
C1754 C1748 1.368 . S
C1754 C1753 1.523 . S
C1755 C1739 1.429 . S
C1755 C1751 1.429 . S
C1755 C1756 1.523 . S
C1756 C1740 1.368 . S
C1756 C1752 1.368 . S
C1756 C1755 1.523 . S
H1757 C1732 0.950 . S
H1758 C1734 0.950 . S
H1759 C1735 0.949 . S
H1760 C1737 0.950 . S
H1761 C1739 0.950 . S
C1762 C1763 1.349 . S
C1762 C1764 1.327 . S
C1762 H1787 0.950 . S
C1763 C1762 1.349 . S
C1763 C1779 1.349 . S
C1764 C1762 1.327 . S
C1764 C1783 1.429 . S
C1764 H1788 0.950 . S
C1765 C1782 1.574 . S
C1765 C1784 1.368 . S
C1765 H1789 0.949 . S
H1766 C1770 0.949 . S
C1767 C1768 1.349 . S
C1767 C1769 1.327 . S
C1767 H1790 0.950 . S
C1768 C1767 1.349 . S
C1768 C1780 1.349 . S
C1769 C1767 1.327 . S
C1769 C1785 1.429 . S
C1769 H1791 0.950 . S
C1770 H1766 0.949 . S
C1770 C1778 1.574 . S
C1770 C1786 1.368 . S
H1771 C1779 0.950 . S
H1772 C1777 0.950 . S
H1773 C1778 0.949 . S
H1774 C1780 0.950 . S
H1775 C1781 0.950 . S
H1776 C1782 0.949 . S
C1777 H1772 0.950 . S
C1777 C1779 1.327 . S
C1777 C1783 1.429 . S
C1778 C1770 1.574 . S
C1778 H1773 0.949 . S
C1778 C1784 1.368 . S
C1779 C1763 1.349 . S
C1779 H1771 0.950 . S
C1779 C1777 1.327 . S
C1780 C1768 1.349 . S
C1780 H1774 0.950 . S
C1780 C1781 1.327 . S
C1781 H1775 0.950 . S
C1781 C1780 1.327 . S
C1781 C1785 1.429 . S
C1782 C1765 1.574 . S
C1782 H1776 0.949 . S
C1782 C1786 1.368 . S
C1783 C1764 1.429 . S
C1783 C1777 1.429 . S
C1783 C1784 1.523 . S
C1784 C1765 1.368 . S
C1784 C1778 1.368 . S
C1784 C1783 1.523 . S
C1785 C1769 1.429 . S
C1785 C1781 1.429 . S
C1785 C1786 1.523 . S
C1786 C1770 1.368 . S
C1786 C1782 1.368 . S
C1786 C1785 1.523 . S
H1787 C1762 0.950 . S
H1788 C1764 0.950 . S
H1789 C1765 0.949 . S
H1790 C1767 0.950 . S
H1791 C1769 0.950 . S
C1792 C1793 1.349 . S
C1792 C1794 1.327 . S
C1792 H1817 0.950 . S
C1793 C1792 1.349 . S
C1793 C1809 1.349 1_455 S
C1794 C1792 1.327 . S
C1794 C1813 1.429 . S
C1794 H1818 0.950 . S
C1795 C1812 1.574 . S
C1795 C1814 1.368 1_655 S
C1795 H1819 0.949 . S
H1796 C1800 0.949 . S
C1797 C1798 1.349 . S
C1797 C1799 1.327 . S
C1797 H1820 0.950 1_455 S
C1798 C1797 1.349 . S
C1798 C1810 1.349 . S
C1799 C1797 1.327 . S
C1799 C1815 1.429 . S
C1799 H1821 0.950 1_455 S
C1800 H1796 0.949 . S
C1800 C1808 1.574 . S
C1800 C1816 1.368 . S
H1801 C1809 0.950 . S
H1802 C1807 0.950 . S
H1803 C1808 0.949 . S
H1804 C1810 0.950 . S
H1805 C1811 0.950 . S
H1806 C1812 0.949 . S
C1807 H1802 0.950 . S
C1807 C1809 1.327 . S
C1807 C1813 1.429 1_655 S
C1808 C1800 1.574 . S
C1808 H1803 0.949 . S
C1808 C1814 1.368 . S
C1809 C1793 1.349 1_655 S
C1809 H1801 0.950 . S
C1809 C1807 1.327 . S
C1810 C1798 1.349 . S
C1810 H1804 0.950 . S
C1810 C1811 1.327 . S
C1811 H1805 0.950 . S
C1811 C1810 1.327 . S
C1811 C1815 1.429 . S
C1812 C1795 1.574 . S
C1812 H1806 0.949 . S
C1812 C1816 1.368 1_655 S
C1813 C1794 1.429 . S
C1813 C1807 1.429 1_455 S
C1813 C1814 1.523 . S
C1814 C1795 1.368 1_455 S
C1814 C1808 1.368 . S
C1814 C1813 1.523 . S
C1815 C1799 1.429 . S
C1815 C1811 1.429 . S
C1815 C1816 1.523 . S
C1816 C1800 1.368 . S
C1816 C1812 1.368 1_455 S
C1816 C1815 1.523 . S
H1817 C1792 0.950 . S
H1818 C1794 0.950 . S
H1819 C1795 0.949 . S
H1820 C1797 0.950 1_655 S
H1821 C1799 0.950 1_655 S
C1822 C1823 1.349 . S
C1822 C1824 1.327 . S
C1822 H1847 0.950 . S
C1823 C1822 1.349 . S
C1823 C1839 1.349 . S
C1824 C1822 1.327 . S
C1824 C1843 1.429 . S
C1824 H1848 0.950 . S
C1825 C1842 1.574 . S
C1825 C1844 1.368 . S
C1825 H1849 0.949 . S
H1826 C1830 0.949 . S
C1827 C1828 1.349 . S
C1827 C1829 1.327 . S
C1827 H1850 0.950 . S
C1828 C1827 1.349 . S
C1828 C1840 1.349 . S
C1829 C1827 1.327 . S
C1829 C1845 1.429 . S
C1829 H1851 0.950 . S
C1830 H1826 0.949 . S
C1830 C1838 1.574 . S
C1830 C1846 1.368 . S
H1831 C1839 0.950 . S
H1832 C1837 0.950 . S
H1833 C1838 0.949 . S
H1834 C1840 0.950 . S
H1835 C1841 0.950 . S
H1836 C1842 0.949 . S
C1837 H1832 0.950 . S
C1837 C1839 1.327 . S
C1837 C1843 1.429 . S
C1838 C1830 1.574 . S
C1838 H1833 0.949 . S
C1838 C1844 1.368 . S
C1839 C1823 1.349 . S
C1839 H1831 0.950 . S
C1839 C1837 1.327 . S
C1840 C1828 1.349 . S
C1840 H1834 0.950 . S
C1840 C1841 1.327 . S
C1841 H1835 0.950 . S
C1841 C1840 1.327 . S
C1841 C1845 1.429 . S
C1842 C1825 1.574 . S
C1842 H1836 0.949 . S
C1842 C1846 1.368 . S
C1843 C1824 1.429 . S
C1843 C1837 1.429 . S
C1843 C1844 1.523 . S
C1844 C1825 1.368 . S
C1844 C1838 1.368 . S
C1844 C1843 1.523 . S
C1845 C1829 1.429 . S
C1845 C1841 1.429 . S
C1845 C1846 1.523 . S
C1846 C1830 1.368 . S
C1846 C1842 1.368 . S
C1846 C1845 1.523 . S
H1847 C1822 0.950 . S
H1848 C1824 0.950 . S
H1849 C1825 0.949 . S
H1850 C1827 0.950 . S
H1851 C1829 0.950 . S
C1852 C1853 1.349 . S
C1852 C1854 1.327 . S
C1852 H1877 0.950 . S
C1853 C1852 1.349 . S
C1853 C1869 1.349 . S
C1854 C1852 1.327 . S
C1854 C1873 1.429 . S
C1854 H1878 0.950 . S
C1855 C1872 1.574 . S
C1855 C1874 1.368 . S
C1855 H1879 0.949 . S
H1856 C1860 0.949 . S
C1857 C1858 1.389 . S
C1857 C1859 1.327 . S
C1857 H1880 0.950 . S
C1858 C1857 1.389 . S
C1858 C1870 1.352 1_554 S
C1859 C1857 1.327 . S
C1859 C1875 1.429 1_554 S
C1859 H1881 0.950 . S
C1860 H1856 0.949 . S
C1860 C1868 1.574 . S
C1860 C1876 1.368 . S
H1861 C1869 0.950 . S
H1862 C1867 0.950 . S
H1863 C1868 0.949 . S
H1864 C1870 0.950 1_545 S
H1865 C1871 0.950 . S
H1866 C1872 0.949 1_554 S
C1867 H1862 0.950 . S
C1867 C1869 1.327 . S
C1867 C1873 1.429 . S
C1868 C1860 1.574 . S
C1868 H1863 0.949 . S
C1868 C1874 1.368 . S
C1869 C1853 1.349 . S
C1869 H1861 0.950 . S
C1869 C1867 1.327 . S
C1870 C1858 1.352 1_556 S
C1870 H1864 0.950 1_565 S
C1870 C1871 1.327 . S
C1871 H1865 0.950 . S
C1871 C1870 1.327 . S
C1871 C1875 1.429 . S
C1872 C1855 1.574 . S
C1872 H1866 0.949 1_556 S
C1872 C1876 1.368 . S
C1873 C1854 1.429 . S
C1873 C1867 1.429 . S
C1873 C1874 1.523 . S
C1874 C1855 1.368 . S
C1874 C1868 1.368 . S
C1874 C1873 1.523 . S
C1875 C1859 1.429 1_556 S
C1875 C1871 1.429 . S
C1875 C1876 1.523 . S
C1876 C1860 1.368 . S
C1876 C1872 1.368 . S
C1876 C1875 1.523 . S
H1877 C1852 0.950 . S
H1878 C1854 0.950 . S
H1879 C1855 0.949 . S
H1880 C1857 0.950 . S
H1881 C1859 0.950 . S
C1882 C1883 1.349 . S
C1882 C1884 1.327 . S
C1882 H1907 0.950 . S
C1883 C1882 1.349 . S
C1883 C1899 1.349 . S
C1884 C1882 1.327 . S
C1884 C1903 1.429 1_455 S
C1884 H1908 0.950 . S
C1885 C1902 1.574 . S
C1885 C1904 1.368 . S
C1885 H1909 0.949 . S
H1886 C1890 0.949 . S
C1887 C1888 1.349 . S
C1887 C1889 1.327 . S
C1887 H1910 0.950 . S
C1888 C1887 1.349 . S
C1888 C1900 1.349 . S
C1889 C1887 1.327 . S
C1889 C1905 1.429 . S
C1889 H1911 0.950 . S
C1890 H1886 0.949 . S
C1890 C1898 1.574 . S
C1890 C1906 1.368 . S
H1891 C1899 0.950 . S
H1892 C1897 0.950 . S
H1893 C1898 0.949 . S
H1894 C1900 0.950 . S
H1895 C1901 0.950 . S
H1896 C1902 0.949 . S
C1897 H1892 0.950 . S
C1897 C1899 1.327 1_655 S
C1897 C1903 1.429 . S
C1898 C1890 1.574 . S
C1898 H1893 0.949 . S
C1898 C1904 1.368 . S
C1899 C1883 1.349 . S
C1899 H1891 0.950 . S
C1899 C1897 1.327 1_455 S
C1900 C1888 1.349 . S
C1900 H1894 0.950 . S
C1900 C1901 1.327 . S
C1901 H1895 0.950 . S
C1901 C1900 1.327 . S
C1901 C1905 1.429 . S
C1902 C1885 1.574 . S
C1902 H1896 0.949 . S
C1902 C1906 1.368 . S
C1903 C1884 1.429 1_655 S
C1903 C1897 1.429 . S
C1903 C1904 1.523 . S
C1904 C1885 1.368 . S
C1904 C1898 1.368 . S
C1904 C1903 1.523 . S
C1905 C1889 1.429 . S
C1905 C1901 1.429 . S
C1905 C1906 1.523 . S
C1906 C1890 1.368 . S
C1906 C1902 1.368 . S
C1906 C1905 1.523 . S
H1907 C1882 0.950 . S
H1908 C1884 0.950 . S
H1909 C1885 0.949 . S
H1910 C1887 0.950 . S
H1911 C1889 0.950 . S
C1912 C1913 1.349 . S
C1912 C1914 1.327 . S
C1912 H1937 0.950 . S
C1913 C1912 1.349 . S
C1913 C1929 1.349 . S
C1914 C1912 1.327 . S
C1914 C1933 1.429 . S
C1914 H1938 0.950 . S
C1915 C1932 1.574 . S
C1915 C1934 1.368 . S
C1915 H1939 0.949 . S
H1916 C1920 0.949 . S
C1917 C1918 1.349 . S
C1917 C1919 1.327 . S
C1917 H1940 0.950 . S
C1918 C1917 1.349 . S
C1918 C1930 1.349 . S
C1919 C1917 1.327 . S
C1919 C1935 1.429 . S
C1919 H1941 0.950 . S
C1920 H1916 0.949 . S
C1920 C1928 1.574 . S
C1920 C1936 1.368 . S
H1921 C1929 0.950 . S
H1922 C1927 0.950 . S
H1923 C1928 0.949 . S
H1924 C1930 0.950 . S
H1925 C1931 0.950 . S
H1926 C1932 0.949 . S
C1927 H1922 0.950 . S
C1927 C1929 1.327 . S
C1927 C1933 1.429 . S
C1928 C1920 1.574 . S
C1928 H1923 0.949 . S
C1928 C1934 1.368 . S
C1929 C1913 1.349 . S
C1929 H1921 0.950 . S
C1929 C1927 1.327 . S
C1930 C1918 1.349 . S
C1930 H1924 0.950 . S
C1930 C1931 1.327 . S
C1931 H1925 0.950 . S
C1931 C1930 1.327 . S
C1931 C1935 1.429 . S
C1932 C1915 1.574 . S
C1932 H1926 0.949 . S
C1932 C1936 1.368 . S
C1933 C1914 1.429 . S
C1933 C1927 1.429 . S
C1933 C1934 1.523 . S
C1934 C1915 1.368 . S
C1934 C1928 1.368 . S
C1934 C1933 1.523 . S
C1935 C1919 1.429 . S
C1935 C1931 1.429 . S
C1935 C1936 1.523 . S
C1936 C1920 1.368 . S
C1936 C1932 1.368 . S
C1936 C1935 1.523 . S
H1937 C1912 0.950 . S
H1938 C1914 0.950 . S
H1939 C1915 0.949 . S
H1940 C1917 0.950 . S
H1941 C1919 0.950 . S
C1942 C1943 1.349 . S
C1942 C1944 1.327 . S
C1942 H1967 0.950 . S
C1943 C1942 1.349 . S
C1943 C1959 1.349 . S
C1944 C1942 1.327 . S
C1944 C1963 1.429 . S
C1944 H1968 0.950 . S
C1945 C1962 1.574 . S
C1945 C1964 1.368 . S
C1945 H1969 0.949 . S
H1946 C1950 0.949 . S
C1947 C1948 1.349 . S
C1947 C1949 1.327 . S
C1947 H1970 0.950 . S
C1948 C1947 1.349 . S
C1948 C1960 1.349 . S
C1949 C1947 1.327 . S
C1949 C1965 1.429 . S
C1949 H1971 0.950 . S
C1950 H1946 0.949 . S
C1950 C1958 1.574 . S
C1950 C1966 1.368 . S
H1951 C1959 0.950 . S
H1952 C1957 0.950 . S
H1953 C1958 0.949 . S
H1954 C1960 0.950 . S
H1955 C1961 0.950 . S
H1956 C1962 0.949 . S
C1957 H1952 0.950 . S
C1957 C1959 1.327 . S
C1957 C1963 1.429 . S
C1958 C1950 1.574 . S
C1958 H1953 0.949 . S
C1958 C1964 1.368 . S
C1959 C1943 1.349 . S
C1959 H1951 0.950 . S
C1959 C1957 1.327 . S
C1960 C1948 1.349 . S
C1960 H1954 0.950 . S
C1960 C1961 1.327 . S
C1961 H1955 0.950 . S
C1961 C1960 1.327 . S
C1961 C1965 1.429 . S
C1962 C1945 1.574 . S
C1962 H1956 0.949 . S
C1962 C1966 1.368 . S
C1963 C1944 1.429 . S
C1963 C1957 1.429 . S
C1963 C1964 1.523 . S
C1964 C1945 1.368 . S
C1964 C1958 1.368 . S
C1964 C1963 1.523 . S
C1965 C1949 1.429 . S
C1965 C1961 1.429 . S
C1965 C1966 1.523 . S
C1966 C1950 1.368 . S
C1966 C1962 1.368 . S
C1966 C1965 1.523 . S
H1967 C1942 0.950 . S
H1968 C1944 0.950 . S
H1969 C1945 0.949 . S
H1970 C1947 0.950 . S
H1971 C1949 0.950 . S
C1972 C1973 1.349 . S
C1972 C1974 1.327 . S
C1972 H1997 0.950 . S
C1973 C1972 1.349 . S
C1973 C1989 1.349 . S
C1974 C1972 1.327 . S
C1974 C1993 1.429 . S
C1974 H1998 0.950 . S
C1975 C1992 1.574 . S
C1975 C1994 1.368 . S
C1975 H1999 0.949 . S
H1976 C1980 0.949 . S
C1977 C1978 1.349 . S
C1977 C1979 1.327 . S
C1977 H2000 0.950 . S
C1978 C1977 1.349 . S
C1978 C1990 1.349 . S
C1979 C1977 1.327 . S
C1979 C1995 1.429 . S
C1979 H2001 0.950 . S
C1980 H1976 0.949 . S
C1980 C1988 1.574 . S
C1980 C1996 1.368 . S
H1981 C1989 0.950 . S
H1982 C1987 0.950 . S
H1983 C1988 0.949 . S
H1984 C1990 0.950 . S
H1985 C1991 0.950 . S
H1986 C1992 0.949 . S
C1987 H1982 0.950 . S
C1987 C1989 1.327 . S
C1987 C1993 1.429 . S
C1988 C1980 1.574 . S
C1988 H1983 0.949 . S
C1988 C1994 1.368 . S
C1989 C1973 1.349 . S
C1989 H1981 0.950 . S
C1989 C1987 1.327 . S
C1990 C1978 1.349 . S
C1990 H1984 0.950 . S
C1990 C1991 1.327 . S
C1991 H1985 0.950 . S
C1991 C1990 1.327 . S
C1991 C1995 1.429 . S
C1992 C1975 1.574 . S
C1992 H1986 0.949 . S
C1992 C1996 1.368 . S
C1993 C1974 1.429 . S
C1993 C1987 1.429 . S
C1993 C1994 1.523 . S
C1994 C1975 1.368 . S
C1994 C1988 1.368 . S
C1994 C1993 1.523 . S
C1995 C1979 1.429 . S
C1995 C1991 1.429 . S
C1995 C1996 1.523 . S
C1996 C1980 1.368 . S
C1996 C1992 1.368 . S
C1996 C1995 1.523 . S
H1997 C1972 0.950 . S
H1998 C1974 0.950 . S
H1999 C1975 0.949 . S
H2000 C1977 0.950 . S
H2001 C1979 0.950 . S
C2002 C2003 1.349 . S
C2002 C2004 1.327 . S
C2002 H2027 0.950 . S
C2003 C2002 1.349 . S
C2003 C2019 1.349 . S
C2004 C2002 1.327 . S
C2004 C2023 1.429 . S
C2004 H2028 0.950 . S
C2005 C2022 1.574 . S
C2005 C2024 1.368 . S
C2005 H2029 0.949 . S
H2006 C2010 0.949 . S
C2007 C2008 1.349 . S
C2007 C2009 1.327 . S
C2007 H2030 0.950 . S
C2008 C2007 1.349 . S
C2008 C2020 1.349 . S
C2009 C2007 1.327 . S
C2009 C2025 1.429 . S
C2009 H2031 0.950 . S
C2010 H2006 0.949 . S
C2010 C2018 1.574 . S
C2010 C2026 1.368 . S
H2011 C2019 0.950 . S
H2012 C2017 0.950 . S
H2013 C2018 0.949 . S
H2014 C2020 0.950 . S
H2015 C2021 0.950 . S
H2016 C2022 0.949 . S
C2017 H2012 0.950 . S
C2017 C2019 1.327 . S
C2017 C2023 1.429 . S
C2018 C2010 1.574 . S
C2018 H2013 0.949 . S
C2018 C2024 1.368 . S
C2019 C2003 1.349 . S
C2019 H2011 0.950 . S
C2019 C2017 1.327 . S
C2020 C2008 1.349 . S
C2020 H2014 0.950 . S
C2020 C2021 1.327 . S
C2021 H2015 0.950 . S
C2021 C2020 1.327 . S
C2021 C2025 1.429 . S
C2022 C2005 1.574 . S
C2022 H2016 0.949 . S
C2022 C2026 1.368 . S
C2023 C2004 1.429 . S
C2023 C2017 1.429 . S
C2023 C2024 1.523 . S
C2024 C2005 1.368 . S
C2024 C2018 1.368 . S
C2024 C2023 1.523 . S
C2025 C2009 1.429 . S
C2025 C2021 1.429 . S
C2025 C2026 1.523 . S
C2026 C2010 1.368 . S
C2026 C2022 1.368 . S
C2026 C2025 1.523 . S
H2027 C2002 0.950 . S
H2028 C2004 0.950 . S
H2029 C2005 0.949 . S
H2030 C2007 0.950 . S
H2031 C2009 0.950 . S
C2032 C2033 1.349 . S
C2032 C2034 1.327 . S
C2032 H2057 0.950 . S
C2033 C2032 1.349 . S
C2033 C2049 1.349 . S
C2034 C2032 1.327 . S
C2034 C2053 1.429 . S
C2034 H2058 0.950 . S
C2035 C2052 1.574 . S
C2035 C2054 1.368 . S
C2035 H2059 0.949 . S
H2036 C2040 0.949 . S
C2037 C2038 1.349 . S
C2037 C2039 1.327 . S
C2037 H2060 0.950 . S
C2038 C2037 1.349 . S
C2038 C2050 1.349 . S
C2039 C2037 1.327 . S
C2039 C2055 1.429 . S
C2039 H2061 0.950 . S
C2040 H2036 0.949 . S
C2040 C2048 1.574 . S
C2040 C2056 1.368 . S
H2041 C2049 0.950 . S
H2042 C2047 0.950 . S
H2043 C2048 0.949 . S
H2044 C2050 0.950 . S
H2045 C2051 0.950 . S
H2046 C2052 0.949 . S
C2047 H2042 0.950 . S
C2047 C2049 1.327 . S
C2047 C2053 1.429 . S
C2048 C2040 1.574 . S
C2048 H2043 0.949 . S
C2048 C2054 1.368 . S
C2049 C2033 1.349 . S
C2049 H2041 0.950 . S
C2049 C2047 1.327 . S
C2050 C2038 1.349 . S
C2050 H2044 0.950 . S
C2050 C2051 1.327 . S
C2051 H2045 0.950 . S
C2051 C2050 1.327 . S
C2051 C2055 1.429 . S
C2052 C2035 1.574 . S
C2052 H2046 0.949 . S
C2052 C2056 1.368 . S
C2053 C2034 1.429 . S
C2053 C2047 1.429 . S
C2053 C2054 1.523 . S
C2054 C2035 1.368 . S
C2054 C2048 1.368 . S
C2054 C2053 1.523 . S
C2055 C2039 1.429 . S
C2055 C2051 1.429 . S
C2055 C2056 1.523 . S
C2056 C2040 1.368 . S
C2056 C2052 1.368 . S
C2056 C2055 1.523 . S
H2057 C2032 0.950 . S
H2058 C2034 0.950 . S
H2059 C2035 0.949 . S
H2060 C2037 0.950 . S
H2061 C2039 0.950 . S
C2062 C2063 1.349 . S
C2062 C2064 1.327 . S
C2062 H2087 0.950 . S
C2063 C2062 1.349 . S
C2063 C2079 1.349 . S
C2064 C2062 1.327 . S
C2064 C2083 1.429 . S
C2064 H2088 0.950 . S
C2065 C2082 1.574 . S
C2065 C2084 1.368 . S
C2065 H2089 0.949 . S
H2066 C2070 0.949 . S
C2067 C2068 1.349 . S
C2067 C2069 1.327 . S
C2067 H2090 0.950 . S
C2068 C2067 1.349 . S
C2068 C2080 1.349 . S
C2069 C2067 1.327 . S
C2069 C2085 1.429 . S
C2069 H2091 0.950 . S
C2070 H2066 0.949 . S
C2070 C2078 1.574 . S
C2070 C2086 1.368 . S
H2071 C2079 0.950 . S
H2072 C2077 0.950 . S
H2073 C2078 0.949 . S
H2074 C2080 0.950 . S
H2075 C2081 0.950 . S
H2076 C2082 0.949 . S
C2077 H2072 0.950 . S
C2077 C2079 1.327 . S
C2077 C2083 1.429 . S
C2078 C2070 1.574 . S
C2078 H2073 0.949 . S
C2078 C2084 1.368 . S
C2079 C2063 1.349 . S
C2079 H2071 0.950 . S
C2079 C2077 1.327 . S
C2080 C2068 1.349 . S
C2080 H2074 0.950 . S
C2080 C2081 1.327 . S
C2081 H2075 0.950 . S
C2081 C2080 1.327 . S
C2081 C2085 1.429 . S
C2082 C2065 1.574 . S
C2082 H2076 0.949 . S
C2082 C2086 1.368 . S
C2083 C2064 1.429 . S
C2083 C2077 1.429 . S
C2083 C2084 1.523 . S
C2084 C2065 1.368 . S
C2084 C2078 1.368 . S
C2084 C2083 1.523 . S
C2085 C2069 1.429 . S
C2085 C2081 1.429 . S
C2085 C2086 1.523 . S
C2086 C2070 1.368 . S
C2086 C2082 1.368 . S
C2086 C2085 1.523 . S
H2087 C2062 0.950 . S
H2088 C2064 0.950 . S
H2089 C2065 0.949 . S
H2090 C2067 0.950 . S
H2091 C2069 0.950 . S
C2092 C2093 1.349 . S
C2092 C2094 1.327 . S
C2092 H2117 0.950 . S
C2093 C2092 1.349 . S
C2093 C2109 1.349 . S
C2094 C2092 1.327 . S
C2094 C2113 1.429 . S
C2094 H2118 0.950 . S
C2095 C2112 1.574 . S
C2095 C2114 1.368 . S
C2095 H2119 0.949 . S
H2096 C2100 0.949 . S
C2097 C2098 1.349 . S
C2097 C2099 1.327 . S
C2097 H2120 0.950 . S
C2098 C2097 1.349 . S
C2098 C2110 1.349 . S
C2099 C2097 1.327 . S
C2099 C2115 1.429 . S
C2099 H2121 0.950 . S
C2100 H2096 0.949 . S
C2100 C2108 1.574 . S
C2100 C2116 1.368 . S
H2101 C2109 0.950 . S
H2102 C2107 0.950 . S
H2103 C2108 0.949 . S
H2104 C2110 0.950 . S
H2105 C2111 0.950 . S
H2106 C2112 0.949 . S
C2107 H2102 0.950 . S
C2107 C2109 1.327 . S
C2107 C2113 1.429 . S
C2108 C2100 1.574 . S
C2108 H2103 0.949 . S
C2108 C2114 1.368 . S
C2109 C2093 1.349 . S
C2109 H2101 0.950 . S
C2109 C2107 1.327 . S
C2110 C2098 1.349 . S
C2110 H2104 0.950 . S
C2110 C2111 1.327 . S
C2111 H2105 0.950 . S
C2111 C2110 1.327 . S
C2111 C2115 1.429 . S
C2112 C2095 1.574 . S
C2112 H2106 0.949 . S
C2112 C2116 1.368 . S
C2113 C2094 1.429 . S
C2113 C2107 1.429 . S
C2113 C2114 1.523 . S
C2114 C2095 1.368 . S
C2114 C2108 1.368 . S
C2114 C2113 1.523 . S
C2115 C2099 1.429 . S
C2115 C2111 1.429 . S
C2115 C2116 1.523 . S
C2116 C2100 1.368 . S
C2116 C2112 1.368 . S
C2116 C2115 1.523 . S
H2117 C2092 0.950 . S
H2118 C2094 0.950 . S
H2119 C2095 0.949 . S
H2120 C2097 0.950 . S
H2121 C2099 0.950 . S
C2122 C2123 1.349 . S
C2122 C2124 1.327 . S
C2122 H2147 0.950 . S
C2123 C2122 1.349 . S
C2123 C2139 1.349 . S
C2124 C2122 1.327 . S
C2124 C2143 1.429 . S
C2124 H2148 0.950 . S
C2125 C2142 1.574 . S
C2125 C2144 1.368 . S
C2125 H2149 0.949 . S
H2126 C2130 0.949 . S
C2127 C2128 1.349 . S
C2127 C2129 1.327 . S
C2127 H2150 0.950 . S
C2128 C2127 1.349 . S
C2128 C2140 1.349 . S
C2129 C2127 1.327 . S
C2129 C2145 1.429 . S
C2129 H2151 0.950 . S
C2130 H2126 0.949 . S
C2130 C2138 1.574 . S
C2130 C2146 1.368 . S
H2131 C2139 0.950 . S
H2132 C2137 0.950 . S
H2133 C2138 0.949 . S
H2134 C2140 0.950 . S
H2135 C2141 0.950 . S
H2136 C2142 0.949 . S
C2137 H2132 0.950 . S
C2137 C2139 1.327 . S
C2137 C2143 1.429 . S
C2138 C2130 1.574 . S
C2138 H2133 0.949 . S
C2138 C2144 1.368 . S
C2139 C2123 1.349 . S
C2139 H2131 0.950 . S
C2139 C2137 1.327 . S
C2140 C2128 1.349 . S
C2140 H2134 0.950 . S
C2140 C2141 1.327 . S
C2141 H2135 0.950 . S
C2141 C2140 1.327 . S
C2141 C2145 1.429 . S
C2142 C2125 1.574 . S
C2142 H2136 0.949 . S
C2142 C2146 1.368 . S
C2143 C2124 1.429 . S
C2143 C2137 1.429 . S
C2143 C2144 1.523 . S
C2144 C2125 1.368 . S
C2144 C2138 1.368 . S
C2144 C2143 1.523 . S
C2145 C2129 1.429 . S
C2145 C2141 1.429 . S
C2145 C2146 1.523 . S
C2146 C2130 1.368 . S
C2146 C2142 1.368 . S
C2146 C2145 1.523 . S
H2147 C2122 0.950 . S
H2148 C2124 0.950 . S
H2149 C2125 0.949 . S
H2150 C2127 0.950 . S
H2151 C2129 0.950 . S
C2152 C2153 1.349 . S
C2152 C2154 1.327 . S
C2152 H2177 0.950 . S
C2153 C2152 1.349 . S
C2153 C2169 1.349 1_556 S
C2154 C2152 1.327 . S
C2154 C2173 1.429 . S
C2154 H2178 0.950 . S
C2155 C2172 1.574 . S
C2155 C2174 1.368 . S
C2155 H2179 0.949 1_556 S
H2156 C2160 0.949 . S
C2157 C2158 1.349 . S
C2157 C2159 1.327 . S
C2157 H2180 0.950 . S
C2158 C2157 1.349 . S
C2158 C2170 1.349 . S
C2159 C2157 1.327 . S
C2159 C2175 1.429 . S
C2159 H2181 0.950 . S
C2160 H2156 0.949 . S
C2160 C2168 1.574 . S
C2160 C2176 1.368 . S
H2161 C2169 0.950 . S
H2162 C2167 0.950 . S
H2163 C2168 0.949 . S
H2164 C2170 0.950 . S
H2165 C2171 0.950 . S
H2166 C2172 0.939 1_554 S
C2167 H2162 0.950 . S
C2167 C2169 1.327 . S
C2167 C2173 1.429 1_554 S
C2168 C2160 1.574 . S
C2168 H2163 0.949 . S
C2168 C2174 1.368 . S
C2169 C2153 1.349 1_554 S
C2169 H2161 0.950 . S
C2169 C2167 1.327 . S
C2170 C2158 1.349 . S
C2170 H2164 0.950 . S
C2170 C2171 1.327 . S
C2171 H2165 0.950 . S
C2171 C2170 1.327 . S
C2171 C2175 1.429 . S
C2172 C2155 1.574 . S
C2172 H2166 0.939 1_556 S
C2172 C2176 1.368 . S
C2173 C2154 1.429 . S
C2173 C2167 1.429 1_556 S
C2173 C2174 1.523 . S
C2174 C2155 1.368 . S
C2174 C2168 1.368 . S
C2174 C2173 1.523 . S
C2175 C2159 1.429 . S
C2175 C2171 1.429 . S
C2175 C2176 1.523 . S
C2176 C2160 1.368 . S
C2176 C2172 1.368 . S
C2176 C2175 1.523 . S
H2177 C2152 0.950 . S
H2178 C2154 0.950 . S
H2179 C2155 0.949 1_554 S
H2180 C2157 0.950 . S
H2181 C2159 0.950 . S
C2182 C2183 1.349 . S
C2182 C2184 1.327 . S
C2182 H2207 0.950 . S
C2183 C2182 1.349 . S
C2183 C2199 1.349 . S
C2184 C2182 1.327 . S
C2184 C2203 1.429 . S
C2184 H2208 0.950 . S
C2185 C2202 1.574 . S
C2185 C2204 1.368 . S
C2185 H2209 0.949 . S
H2186 C2190 0.949 . S
C2187 C2188 1.349 . S
C2187 C2189 1.327 . S
C2187 H2210 0.950 . S
C2188 C2187 1.349 . S
C2188 C2200 1.349 . S
C2189 C2187 1.327 . S
C2189 C2205 1.429 . S
C2189 H2211 0.950 . S
C2190 H2186 0.949 . S
C2190 C2198 1.574 . S
C2190 C2206 1.368 . S
H2191 C2199 0.950 . S
H2192 C2197 0.950 . S
H2193 C2198 0.949 . S
H2194 C2200 0.950 . S
H2195 C2201 0.950 . S
H2196 C2202 0.949 . S
C2197 H2192 0.950 . S
C2197 C2199 1.327 . S
C2197 C2203 1.429 . S
C2198 C2190 1.574 . S
C2198 H2193 0.949 . S
C2198 C2204 1.368 . S
C2199 C2183 1.349 . S
C2199 H2191 0.950 . S
C2199 C2197 1.327 . S
C2200 C2188 1.349 . S
C2200 H2194 0.950 . S
C2200 C2201 1.327 . S
C2201 H2195 0.950 . S
C2201 C2200 1.327 . S
C2201 C2205 1.429 . S
C2202 C2185 1.574 . S
C2202 H2196 0.949 . S
C2202 C2206 1.368 . S
C2203 C2184 1.429 . S
C2203 C2197 1.429 . S
C2203 C2204 1.523 . S
C2204 C2185 1.368 . S
C2204 C2198 1.368 . S
C2204 C2203 1.523 . S
C2205 C2189 1.429 . S
C2205 C2201 1.429 . S
C2205 C2206 1.523 . S
C2206 C2190 1.368 . S
C2206 C2202 1.368 . S
C2206 C2205 1.523 . S
H2207 C2182 0.950 . S
H2208 C2184 0.950 . S
H2209 C2185 0.949 . S
H2210 C2187 0.950 . S
H2211 C2189 0.950 . S
C2212 C2213 1.349 . S
C2212 C2214 1.327 . S
C2212 H2237 0.950 . S
C2213 C2212 1.349 . S
C2213 C2229 1.349 . S
C2214 C2212 1.327 . S
C2214 C2233 1.429 . S
C2214 H2238 0.950 . S
C2215 C2232 1.574 . S
C2215 C2234 1.368 . S
C2215 H2239 0.949 . S
H2216 C2220 0.949 . S
C2217 C2218 1.349 . S
C2217 C2219 1.327 . S
C2217 H2240 0.950 . S
C2218 C2217 1.349 . S
C2218 C2230 1.349 . S
C2219 C2217 1.327 . S
C2219 C2235 1.429 . S
C2219 H2241 0.950 . S
C2220 H2216 0.949 . S
C2220 C2228 1.574 . S
C2220 C2236 1.368 . S
H2221 C2229 0.950 . S
H2222 C2227 0.950 . S
H2223 C2228 0.949 . S
H2224 C2230 0.950 . S
H2225 C2231 0.950 . S
H2226 C2232 0.949 . S
C2227 H2222 0.950 . S
C2227 C2229 1.327 . S
C2227 C2233 1.429 . S
C2228 C2220 1.574 . S
C2228 H2223 0.949 . S
C2228 C2234 1.368 . S
C2229 C2213 1.349 . S
C2229 H2221 0.950 . S
C2229 C2227 1.327 . S
C2230 C2218 1.349 . S
C2230 H2224 0.950 . S
C2230 C2231 1.327 . S
C2231 H2225 0.950 . S
C2231 C2230 1.327 . S
C2231 C2235 1.429 . S
C2232 C2215 1.574 . S
C2232 H2226 0.949 . S
C2232 C2236 1.368 . S
C2233 C2214 1.429 . S
C2233 C2227 1.429 . S
C2233 C2234 1.523 . S
C2234 C2215 1.368 . S
C2234 C2228 1.368 . S
C2234 C2233 1.523 . S
C2235 C2219 1.429 . S
C2235 C2231 1.429 . S
C2235 C2236 1.523 . S
C2236 C2220 1.368 . S
C2236 C2232 1.368 . S
C2236 C2235 1.523 . S
H2237 C2212 0.950 . S
H2238 C2214 0.950 . S
H2239 C2215 0.949 . S
H2240 C2217 0.950 . S
H2241 C2219 0.950 . S
C2242 C2243 1.349 . S
C2242 C2244 1.327 . S
C2242 H2267 0.950 . S
C2243 C2242 1.349 . S
C2243 C2259 1.349 . S
C2244 C2242 1.327 . S
C2244 C2263 1.429 . S
C2244 H2268 0.950 . S
C2245 C2262 1.574 . S
C2245 C2264 1.368 . S
C2245 H2269 0.949 . S
H2246 C2250 0.949 . S
C2247 C2248 1.349 . S
C2247 C2249 1.327 . S
C2247 H2270 0.950 . S
C2248 C2247 1.349 . S
C2248 C2260 1.349 . S
C2249 C2247 1.327 . S
C2249 C2265 1.429 . S
C2249 H2271 0.950 . S
C2250 H2246 0.949 . S
C2250 C2258 1.574 . S
C2250 C2266 1.368 . S
H2251 C2259 0.950 . S
H2252 C2257 0.950 . S
H2253 C2258 0.949 . S
H2254 C2260 0.950 . S
H2255 C2261 0.950 . S
H2256 C2262 0.949 . S
C2257 H2252 0.950 . S
C2257 C2259 1.327 . S
C2257 C2263 1.429 . S
C2258 C2250 1.574 . S
C2258 H2253 0.949 . S
C2258 C2264 1.368 . S
C2259 C2243 1.349 . S
C2259 H2251 0.950 . S
C2259 C2257 1.327 . S
C2260 C2248 1.349 . S
C2260 H2254 0.950 . S
C2260 C2261 1.327 . S
C2261 H2255 0.950 . S
C2261 C2260 1.327 . S
C2261 C2265 1.429 . S
C2262 C2245 1.574 . S
C2262 H2256 0.949 . S
C2262 C2266 1.368 . S
C2263 C2244 1.429 . S
C2263 C2257 1.429 . S
C2263 C2264 1.523 . S
C2264 C2245 1.368 . S
C2264 C2258 1.368 . S
C2264 C2263 1.523 . S
C2265 C2249 1.429 . S
C2265 C2261 1.429 . S
C2265 C2266 1.523 . S
C2266 C2250 1.368 . S
C2266 C2262 1.368 . S
C2266 C2265 1.523 . S
H2267 C2242 0.950 . S
H2268 C2244 0.950 . S
H2269 C2245 0.949 . S
H2270 C2247 0.950 . S
H2271 C2249 0.950 . S
C2272 C2273 1.349 . S
C2272 C2274 1.327 . S
C2272 H2297 0.950 . S
C2273 C2272 1.349 . S
C2273 C2289 1.349 . S
C2274 C2272 1.327 . S
C2274 C2293 1.429 . S
C2274 H2298 0.950 . S
C2275 C2292 1.574 . S
C2275 C2294 1.368 . S
C2275 H2299 0.949 . S
H2276 C2280 0.949 . S
C2277 C2278 1.349 . S
C2277 C2279 1.327 . S
C2277 H2300 0.950 . S
C2278 C2277 1.349 . S
C2278 C2290 1.349 . S
C2279 C2277 1.327 . S
C2279 C2295 1.429 . S
C2279 H2301 0.950 . S
C2280 H2276 0.949 . S
C2280 C2288 1.574 . S
C2280 C2296 1.368 . S
H2281 C2289 0.950 . S
H2282 C2287 0.950 . S
H2283 C2288 0.949 . S
H2284 C2290 0.950 . S
H2285 C2291 0.950 . S
H2286 C2292 0.949 . S
C2287 H2282 0.950 . S
C2287 C2289 1.327 . S
C2287 C2293 1.429 . S
C2288 C2280 1.574 . S
C2288 H2283 0.949 . S
C2288 C2294 1.368 . S
C2289 C2273 1.349 . S
C2289 H2281 0.950 . S
C2289 C2287 1.327 . S
C2290 C2278 1.349 . S
C2290 H2284 0.950 . S
C2290 C2291 1.327 . S
C2291 H2285 0.950 . S
C2291 C2290 1.327 . S
C2291 C2295 1.429 . S
C2292 C2275 1.574 . S
C2292 H2286 0.949 . S
C2292 C2296 1.368 . S
C2293 C2274 1.429 . S
C2293 C2287 1.429 . S
C2293 C2294 1.523 . S
C2294 C2275 1.368 . S
C2294 C2288 1.368 . S
C2294 C2293 1.523 . S
C2295 C2279 1.429 . S
C2295 C2291 1.429 . S
C2295 C2296 1.523 . S
C2296 C2280 1.368 . S
C2296 C2292 1.368 . S
C2296 C2295 1.523 . S
H2297 C2272 0.950 . S
H2298 C2274 0.950 . S
H2299 C2275 0.949 . S
H2300 C2277 0.950 . S
H2301 C2279 0.950 . S
C2302 C2303 1.349 . S
C2302 C2304 1.327 . S
C2302 H2327 0.950 . S
C2303 C2302 1.349 . S
C2303 C2319 1.349 . S
C2304 C2302 1.327 . S
C2304 C2323 1.429 . S
C2304 H2328 0.950 . S
C2305 C2322 1.574 . S
C2305 C2324 1.368 . S
C2305 H2329 0.949 . S
H2306 C2310 0.949 . S
C2307 C2308 1.349 . S
C2307 C2309 1.316 1_545 S
C2307 H2330 0.950 . S
C2308 C2307 1.349 . S
C2308 C2320 1.349 . S
C2309 C2307 1.316 1_565 S
C2309 C2325 1.436 . S
C2309 H2331 0.953 . S
C2310 H2306 0.949 . S
C2310 C2318 1.574 . S
C2310 C2326 1.368 . S
H2311 C2319 0.950 . S
H2312 C2317 0.950 . S
H2313 C2318 0.949 . S
H2314 C2320 0.950 . S
H2315 C2321 0.950 . S
H2316 C2322 0.949 . S
C2317 H2312 0.950 . S
C2317 C2319 1.327 . S
C2317 C2323 1.429 . S
C2318 C2310 1.574 . S
C2318 H2313 0.949 . S
C2318 C2324 1.368 . S
C2319 C2303 1.349 . S
C2319 H2311 0.950 . S
C2319 C2317 1.327 . S
C2320 C2308 1.349 . S
C2320 H2314 0.950 . S
C2320 C2321 1.327 1_545 S
C2321 H2315 0.950 . S
C2321 C2320 1.327 1_565 S
C2321 C2325 1.429 . S
C2322 C2305 1.574 . S
C2322 H2316 0.949 . S
C2322 C2326 1.368 . S
C2323 C2304 1.429 . S
C2323 C2317 1.429 . S
C2323 C2324 1.523 . S
C2324 C2305 1.368 . S
C2324 C2318 1.368 . S
C2324 C2323 1.523 . S
C2325 C2309 1.436 . S
C2325 C2321 1.429 . S
C2325 C2326 1.523 . S
C2326 C2310 1.368 . S
C2326 C2322 1.368 . S
C2326 C2325 1.523 . S
H2327 C2302 0.950 . S
H2328 C2304 0.950 . S
H2329 C2305 0.949 . S
H2330 C2307 0.950 . S
H2331 C2309 0.953 . S
C2332 C2333 1.349 . S
C2332 C2334 1.327 . S
C2332 H2357 0.950 . S
C2333 C2332 1.349 . S
C2333 C2349 1.349 . S
C2334 C2332 1.327 . S
C2334 C2353 1.429 . S
C2334 H2358 0.950 . S
C2335 C2352 1.574 . S
C2335 C2354 1.368 . S
C2335 H2359 0.949 . S
H2336 C2340 0.949 . S
C2337 C2338 1.349 . S
C2337 C2339 1.327 . S
C2337 H2360 0.950 . S
C2338 C2337 1.349 . S
C2338 C2350 1.349 . S
C2339 C2337 1.327 . S
C2339 C2355 1.429 . S
C2339 H2361 0.950 . S
C2340 H2336 0.949 . S
C2340 C2348 1.574 . S
C2340 C2356 1.368 . S
H2341 C2349 0.950 . S
H2342 C2347 0.950 . S
H2343 C2348 0.949 . S
H2344 C2350 0.950 . S
H2345 C2351 0.950 . S
H2346 C2352 0.949 . S
C2347 H2342 0.950 . S
C2347 C2349 1.327 . S
C2347 C2353 1.429 . S
C2348 C2340 1.574 . S
C2348 H2343 0.949 . S
C2348 C2354 1.368 . S
C2349 C2333 1.349 . S
C2349 H2341 0.950 . S
C2349 C2347 1.327 . S
C2350 C2338 1.349 . S
C2350 H2344 0.950 . S
C2350 C2351 1.327 . S
C2351 H2345 0.950 . S
C2351 C2350 1.327 . S
C2351 C2355 1.429 . S
C2352 C2335 1.574 . S
C2352 H2346 0.949 . S
C2352 C2356 1.368 . S
C2353 C2334 1.429 . S
C2353 C2347 1.429 . S
C2353 C2354 1.523 . S
C2354 C2335 1.368 . S
C2354 C2348 1.368 . S
C2354 C2353 1.523 . S
C2355 C2339 1.429 . S
C2355 C2351 1.429 . S
C2355 C2356 1.523 . S
C2356 C2340 1.368 . S
C2356 C2352 1.368 . S
C2356 C2355 1.523 . S
H2357 C2332 0.950 . S
H2358 C2334 0.950 . S
H2359 C2335 0.949 . S
H2360 C2337 0.950 . S
H2361 C2339 0.950 . S
C2362 C2363 1.349 . S
C2362 C2364 1.327 . S
C2362 H2387 0.950 . S
C2363 C2362 1.349 . S
C2363 C2379 1.349 . S
C2364 C2362 1.327 . S
C2364 C2383 1.429 . S
C2364 H2388 0.950 . S
C2365 C2382 1.574 . S
C2365 C2384 1.368 . S
C2365 H2389 0.949 . S
H2366 C2370 0.949 . S
C2367 C2368 1.349 . S
C2367 C2369 1.327 . S
C2367 H2390 0.950 . S
C2368 C2367 1.349 . S
C2368 C2380 1.349 . S
C2369 C2367 1.327 . S
C2369 C2385 1.429 . S
C2369 H2391 0.950 . S
C2370 H2366 0.949 . S
C2370 C2378 1.574 . S
C2370 C2386 1.368 . S
H2371 C2379 0.950 . S
H2372 C2377 0.950 . S
H2373 C2378 0.949 . S
H2374 C2380 0.950 . S
H2375 C2381 0.950 . S
H2376 C2382 0.949 . S
C2377 H2372 0.950 . S
C2377 C2379 1.327 . S
C2377 C2383 1.429 . S
C2378 C2370 1.574 . S
C2378 H2373 0.949 . S
C2378 C2384 1.368 . S
C2379 C2363 1.349 . S
C2379 H2371 0.950 . S
C2379 C2377 1.327 . S
C2380 C2368 1.349 . S
C2380 H2374 0.950 . S
C2380 C2381 1.327 . S
C2381 H2375 0.950 . S
C2381 C2380 1.327 . S
C2381 C2385 1.429 . S
C2382 C2365 1.574 . S
C2382 H2376 0.949 . S
C2382 C2386 1.368 . S
C2383 C2364 1.429 . S
C2383 C2377 1.429 . S
C2383 C2384 1.523 . S
C2384 C2365 1.368 . S
C2384 C2378 1.368 . S
C2384 C2383 1.523 . S
C2385 C2369 1.429 . S
C2385 C2381 1.429 . S
C2385 C2386 1.523 . S
C2386 C2370 1.368 . S
C2386 C2382 1.368 . S
C2386 C2385 1.523 . S
H2387 C2362 0.950 . S
H2388 C2364 0.950 . S
H2389 C2365 0.949 . S
H2390 C2367 0.950 . S
H2391 C2369 0.950 . S
C2392 C2393 1.349 . S
C2392 C2394 1.327 . S
C2392 H2417 0.950 . S
C2393 C2392 1.349 . S
C2393 C2409 1.349 . S
C2394 C2392 1.327 . S
C2394 C2413 1.429 . S
C2394 H2418 0.950 . S
C2395 C2412 1.574 . S
C2395 C2414 1.368 . S
C2395 H2419 0.949 . S
H2396 C2400 0.949 . S
C2397 C2398 1.349 . S
C2397 C2399 1.327 . S
C2397 H2420 0.950 . S
C2398 C2397 1.349 . S
C2398 C2410 1.349 . S
C2399 C2397 1.327 . S
C2399 C2415 1.429 . S
C2399 H2421 0.950 . S
C2400 H2396 0.949 . S
C2400 C2408 1.574 . S
C2400 C2416 1.368 . S
H2401 C2409 0.950 . S
H2402 C2407 0.950 . S
H2403 C2408 0.949 . S
H2404 C2410 0.950 . S
H2405 C2411 0.950 . S
H2406 C2412 0.949 . S
C2407 H2402 0.950 . S
C2407 C2409 1.327 . S
C2407 C2413 1.429 . S
C2408 C2400 1.574 . S
C2408 H2403 0.949 . S
C2408 C2414 1.368 . S
C2409 C2393 1.349 . S
C2409 H2401 0.950 . S
C2409 C2407 1.327 . S
C2410 C2398 1.349 . S
C2410 H2404 0.950 . S
C2410 C2411 1.327 . S
C2411 H2405 0.950 . S
C2411 C2410 1.327 . S
C2411 C2415 1.429 . S
C2412 C2395 1.574 . S
C2412 H2406 0.949 . S
C2412 C2416 1.368 . S
C2413 C2394 1.429 . S
C2413 C2407 1.429 . S
C2413 C2414 1.523 . S
C2414 C2395 1.368 . S
C2414 C2408 1.368 . S
C2414 C2413 1.523 . S
C2415 C2399 1.429 . S
C2415 C2411 1.429 . S
C2415 C2416 1.523 . S
C2416 C2400 1.368 . S
C2416 C2412 1.368 . S
C2416 C2415 1.523 . S
H2417 C2392 0.950 . S
H2418 C2394 0.950 . S
H2419 C2395 0.949 . S
H2420 C2397 0.950 . S
H2421 C2399 0.950 . S
C2422 C2423 1.349 . S
C2422 C2424 1.327 . S
C2422 H2447 0.950 . S
C2423 C2422 1.349 . S
C2423 C2439 1.349 . S
C2424 C2422 1.327 . S
C2424 C2443 1.429 . S
C2424 H2448 0.950 . S
C2425 C2442 1.574 . S
C2425 C2444 1.368 . S
C2425 H2449 0.949 . S
H2426 C2430 0.949 . S
C2427 C2428 1.349 . S
C2427 C2429 1.327 . S
C2427 H2450 0.950 . S
C2428 C2427 1.349 . S
C2428 C2440 1.349 . S
C2429 C2427 1.327 . S
C2429 C2445 1.429 . S
C2429 H2451 0.950 . S
C2430 H2426 0.949 . S
C2430 C2438 1.574 . S
C2430 C2446 1.368 . S
H2431 C2439 0.950 . S
H2432 C2437 0.950 . S
H2433 C2438 0.949 . S
H2434 C2440 0.950 . S
H2435 C2441 0.950 . S
H2436 C2442 0.949 . S
C2437 H2432 0.950 . S
C2437 C2439 1.327 . S
C2437 C2443 1.429 . S
C2438 C2430 1.574 . S
C2438 H2433 0.949 . S
C2438 C2444 1.368 . S
C2439 C2423 1.349 . S
C2439 H2431 0.950 . S
C2439 C2437 1.327 . S
C2440 C2428 1.349 . S
C2440 H2434 0.950 . S
C2440 C2441 1.327 . S
C2441 H2435 0.950 . S
C2441 C2440 1.327 . S
C2441 C2445 1.429 . S
C2442 C2425 1.574 . S
C2442 H2436 0.949 . S
C2442 C2446 1.368 . S
C2443 C2424 1.429 . S
C2443 C2437 1.429 . S
C2443 C2444 1.523 . S
C2444 C2425 1.368 . S
C2444 C2438 1.368 . S
C2444 C2443 1.523 . S
C2445 C2429 1.429 . S
C2445 C2441 1.429 . S
C2445 C2446 1.523 . S
C2446 C2430 1.368 . S
C2446 C2442 1.368 . S
C2446 C2445 1.523 . S
H2447 C2422 0.950 . S
H2448 C2424 0.950 . S
H2449 C2425 0.949 . S
H2450 C2427 0.950 . S
H2451 C2429 0.950 . S
C2452 C2453 1.349 . S
C2452 C2454 1.327 . S
C2452 H2477 0.950 . S
C2453 C2452 1.349 . S
C2453 C2469 1.349 . S
C2454 C2452 1.327 . S
C2454 C2473 1.429 . S
C2454 H2478 0.950 . S
C2455 C2472 1.574 . S
C2455 C2474 1.368 . S
C2455 H2479 0.949 . S
H2456 C2460 0.949 . S
C2457 C2458 1.349 . S
C2457 C2459 1.327 . S
C2457 H2480 0.950 . S
C2458 C2457 1.349 . S
C2458 C2470 1.349 1_554 S
C2459 C2457 1.327 . S
C2459 C2475 1.429 1_554 S
C2459 H2481 0.950 . S
C2460 H2456 0.949 . S
C2460 C2468 1.574 . S
C2460 C2476 1.368 . S
H2461 C2469 0.950 . S
H2462 C2467 0.950 . S
H2463 C2468 0.949 . S
H2464 C2470 0.950 . S
H2465 C2471 0.950 . S
H2466 C2472 0.949 1_554 S
C2467 H2462 0.950 . S
C2467 C2469 1.327 . S
C2467 C2473 1.429 . S
C2468 C2460 1.574 . S
C2468 H2463 0.949 . S
C2468 C2474 1.368 . S
C2469 C2453 1.349 . S
C2469 H2461 0.950 . S
C2469 C2467 1.327 . S
C2470 C2458 1.349 1_556 S
C2470 H2464 0.950 . S
C2470 C2471 1.327 . S
C2471 H2465 0.950 . S
C2471 C2470 1.327 . S
C2471 C2475 1.429 . S
C2472 C2455 1.574 . S
C2472 H2466 0.949 1_556 S
C2472 C2476 1.368 . S
C2473 C2454 1.429 . S
C2473 C2467 1.429 . S
C2473 C2474 1.523 . S
C2474 C2455 1.368 . S
C2474 C2468 1.368 . S
C2474 C2473 1.523 . S
C2475 C2459 1.429 1_556 S
C2475 C2471 1.429 . S
C2475 C2476 1.523 . S
C2476 C2460 1.368 . S
C2476 C2472 1.368 . S
C2476 C2475 1.523 . S
H2477 C2452 0.950 . S
H2478 C2454 0.950 . S
H2479 C2455 0.949 . S
H2480 C2457 0.950 . S
H2481 C2459 0.950 . S
C2482 C2483 1.349 . S
C2482 C2484 1.327 1_455 S
C2482 H2507 0.950 . S
C2483 C2482 1.349 . S
C2483 C2499 1.295 1_455 S
C2484 C2482 1.327 1_655 S
C2484 C2503 1.429 . S
C2484 H2508 0.950 . S
C2485 C2502 1.574 . S
C2485 C2504 1.368 . S
C2485 H2509 0.949 . S
H2486 C2490 0.949 . S
C2487 C2488 1.349 . S
C2487 C2489 1.327 . S
C2487 H2510 0.950 . S
C2488 C2487 1.349 . S
C2488 C2500 1.349 . S
C2489 C2487 1.327 . S
C2489 C2505 1.429 . S
C2489 H2511 0.950 . S
C2490 H2486 0.949 . S
C2490 C2498 1.574 . S
C2490 C2506 1.368 . S
H2491 C2499 0.940 1_455 S
H2492 C2497 0.950 . S
H2493 C2498 0.949 . S
H2494 C2500 0.950 . S
H2495 C2501 0.950 . S
H2496 C2502 0.949 . S
C2497 H2492 0.950 . S
C2497 C2499 1.394 . S
C2497 C2503 1.429 . S
C2498 C2490 1.574 . S
C2498 H2493 0.949 . S
C2498 C2504 1.368 . S
C2499 C2483 1.295 1_655 S
C2499 H2491 0.940 1_655 S
C2499 C2497 1.394 . S
C2500 C2488 1.349 . S
C2500 H2494 0.950 . S
C2500 C2501 1.327 . S
C2501 H2495 0.950 . S
C2501 C2500 1.327 . S
C2501 C2505 1.429 . S
C2502 C2485 1.574 . S
C2502 H2496 0.949 . S
C2502 C2506 1.368 . S
C2503 C2484 1.429 . S
C2503 C2497 1.429 . S
C2503 C2504 1.523 . S
C2504 C2485 1.368 . S
C2504 C2498 1.368 . S
C2504 C2503 1.523 . S
C2505 C2489 1.429 . S
C2505 C2501 1.429 . S
C2505 C2506 1.523 . S
C2506 C2490 1.368 . S
C2506 C2502 1.368 . S
C2506 C2505 1.523 . S
H2507 C2482 0.950 . S
H2508 C2484 0.950 . S
H2509 C2485 0.949 . S
H2510 C2487 0.950 . S
H2511 C2489 0.950 . S
C2512 C2513 1.349 . S
C2512 C2514 1.327 . S
C2512 H2537 0.950 . S
C2513 C2512 1.349 . S
C2513 C2529 1.349 . S
C2514 C2512 1.327 . S
C2514 C2533 1.429 . S
C2514 H2538 0.950 . S
C2515 C2532 1.574 . S
C2515 C2534 1.368 . S
C2515 H2539 0.949 . S
H2516 C2520 0.949 . S
C2517 C2518 1.349 . S
C2517 C2519 1.327 . S
C2517 H2540 0.950 . S
C2518 C2517 1.349 . S
C2518 C2530 1.349 . S
C2519 C2517 1.327 . S
C2519 C2535 1.429 . S
C2519 H2541 0.950 . S
C2520 H2516 0.949 . S
C2520 C2528 1.574 . S
C2520 C2536 1.368 . S
H2521 C2529 0.950 . S
H2522 C2527 0.950 . S
H2523 C2528 0.949 . S
H2524 C2530 0.950 . S
H2525 C2531 0.950 . S
H2526 C2532 0.949 . S
C2527 H2522 0.950 . S
C2527 C2529 1.327 . S
C2527 C2533 1.429 . S
C2528 C2520 1.574 . S
C2528 H2523 0.949 . S
C2528 C2534 1.368 . S
C2529 C2513 1.349 . S
C2529 H2521 0.950 . S
C2529 C2527 1.327 . S
C2530 C2518 1.349 . S
C2530 H2524 0.950 . S
C2530 C2531 1.327 . S
C2531 H2525 0.950 . S
C2531 C2530 1.327 . S
C2531 C2535 1.429 . S
C2532 C2515 1.574 . S
C2532 H2526 0.949 . S
C2532 C2536 1.368 . S
C2533 C2514 1.429 . S
C2533 C2527 1.429 . S
C2533 C2534 1.523 . S
C2534 C2515 1.368 . S
C2534 C2528 1.368 . S
C2534 C2533 1.523 . S
C2535 C2519 1.429 . S
C2535 C2531 1.429 . S
C2535 C2536 1.523 . S
C2536 C2520 1.368 . S
C2536 C2532 1.368 . S
C2536 C2535 1.523 . S
H2537 C2512 0.950 . S
H2538 C2514 0.950 . S
H2539 C2515 0.949 . S
H2540 C2517 0.950 . S
H2541 C2519 0.950 . S
C2542 C2543 1.349 . S
C2542 C2544 1.327 . S
C2542 H2567 0.950 . S
C2543 C2542 1.349 . S
C2543 C2559 1.349 . S
C2544 C2542 1.327 . S
C2544 C2563 1.429 . S
C2544 H2568 0.950 . S
C2545 C2562 1.574 . S
C2545 C2564 1.368 . S
C2545 H2569 0.949 . S
H2546 C2550 0.949 . S
C2547 C2548 1.349 . S
C2547 C2549 1.327 . S
C2547 H2570 0.950 . S
C2548 C2547 1.349 . S
C2548 C2560 1.349 . S
C2549 C2547 1.327 . S
C2549 C2565 1.429 . S
C2549 H2571 0.950 . S
C2550 H2546 0.949 . S
C2550 C2558 1.574 . S
C2550 C2566 1.368 . S
H2551 C2559 0.950 . S
H2552 C2557 0.950 . S
H2553 C2558 0.949 . S
H2554 C2560 0.950 . S
H2555 C2561 0.950 . S
H2556 C2562 0.949 . S
C2557 H2552 0.950 . S
C2557 C2559 1.327 . S
C2557 C2563 1.429 . S
C2558 C2550 1.574 . S
C2558 H2553 0.949 . S
C2558 C2564 1.368 . S
C2559 C2543 1.349 . S
C2559 H2551 0.950 . S
C2559 C2557 1.327 . S
C2560 C2548 1.349 . S
C2560 H2554 0.950 . S
C2560 C2561 1.327 . S
C2561 H2555 0.950 . S
C2561 C2560 1.327 . S
C2561 C2565 1.429 . S
C2562 C2545 1.574 . S
C2562 H2556 0.949 . S
C2562 C2566 1.368 . S
C2563 C2544 1.429 . S
C2563 C2557 1.429 . S
C2563 C2564 1.523 . S
C2564 C2545 1.368 . S
C2564 C2558 1.368 . S
C2564 C2563 1.523 . S
C2565 C2549 1.429 . S
C2565 C2561 1.429 . S
C2565 C2566 1.523 . S
C2566 C2550 1.368 . S
C2566 C2562 1.368 . S
C2566 C2565 1.523 . S
H2567 C2542 0.950 . S
H2568 C2544 0.950 . S
H2569 C2545 0.949 . S
H2570 C2547 0.950 . S
H2571 C2549 0.950 . S
C2572 C2573 1.349 . S
C2572 C2574 1.327 . S
C2572 H2597 0.950 . S
C2573 C2572 1.349 . S
C2573 C2589 1.349 . S
C2574 C2572 1.327 . S
C2574 C2593 1.429 . S
C2574 H2598 0.950 . S
C2575 C2592 1.574 . S
C2575 C2594 1.368 . S
C2575 H2599 0.949 . S
H2576 C2580 0.949 . S
C2577 C2578 1.349 . S
C2577 C2579 1.327 . S
C2577 H2600 0.950 . S
C2578 C2577 1.349 . S
C2578 C2590 1.349 . S
C2579 C2577 1.327 . S
C2579 C2595 1.429 . S
C2579 H2601 0.950 . S
C2580 H2576 0.949 . S
C2580 C2588 1.574 . S
C2580 C2596 1.368 . S
H2581 C2589 0.950 . S
H2582 C2587 0.950 . S
H2583 C2588 0.949 . S
H2584 C2590 0.950 . S
H2585 C2591 0.950 . S
H2586 C2592 0.949 . S
C2587 H2582 0.950 . S
C2587 C2589 1.327 . S
C2587 C2593 1.429 . S
C2588 C2580 1.574 . S
C2588 H2583 0.949 . S
C2588 C2594 1.368 . S
C2589 C2573 1.349 . S
C2589 H2581 0.950 . S
C2589 C2587 1.327 . S
C2590 C2578 1.349 . S
C2590 H2584 0.950 . S
C2590 C2591 1.327 . S
C2591 H2585 0.950 . S
C2591 C2590 1.327 . S
C2591 C2595 1.429 . S
C2592 C2575 1.574 . S
C2592 H2586 0.949 . S
C2592 C2596 1.368 . S
C2593 C2574 1.429 . S
C2593 C2587 1.429 . S
C2593 C2594 1.523 . S
C2594 C2575 1.368 . S
C2594 C2588 1.368 . S
C2594 C2593 1.523 . S
C2595 C2579 1.429 . S
C2595 C2591 1.429 . S
C2595 C2596 1.523 . S
C2596 C2580 1.368 . S
C2596 C2592 1.368 . S
C2596 C2595 1.523 . S
H2597 C2572 0.950 . S
H2598 C2574 0.950 . S
H2599 C2575 0.949 . S
H2600 C2577 0.950 . S
H2601 C2579 0.950 . S
C2602 C2603 1.349 . S
C2602 C2604 1.327 . S
C2602 H2627 0.950 . S
C2603 C2602 1.349 . S
C2603 C2619 1.349 . S
C2604 C2602 1.327 . S
C2604 C2623 1.429 . S
C2604 H2628 0.950 . S
C2605 C2622 1.574 . S
C2605 C2624 1.368 . S
C2605 H2629 0.949 . S
H2606 C2610 0.949 . S
C2607 C2608 1.349 . S
C2607 C2609 1.327 . S
C2607 H2630 0.950 . S
C2608 C2607 1.349 . S
C2608 C2620 1.349 . S
C2609 C2607 1.327 . S
C2609 C2625 1.429 . S
C2609 H2631 0.950 . S
C2610 H2606 0.949 . S
C2610 C2618 1.574 . S
C2610 C2626 1.368 . S
H2611 C2619 0.950 . S
H2612 C2617 0.950 . S
H2613 C2618 0.949 . S
H2614 C2620 0.950 . S
H2615 C2621 0.950 . S
H2616 C2622 0.949 . S
C2617 H2612 0.950 . S
C2617 C2619 1.327 . S
C2617 C2623 1.429 . S
C2618 C2610 1.574 . S
C2618 H2613 0.949 . S
C2618 C2624 1.368 . S
C2619 C2603 1.349 . S
C2619 H2611 0.950 . S
C2619 C2617 1.327 . S
C2620 C2608 1.349 . S
C2620 H2614 0.950 . S
C2620 C2621 1.327 . S
C2621 H2615 0.950 . S
C2621 C2620 1.327 . S
C2621 C2625 1.429 . S
C2622 C2605 1.574 . S
C2622 H2616 0.949 . S
C2622 C2626 1.368 . S
C2623 C2604 1.429 . S
C2623 C2617 1.429 . S
C2623 C2624 1.523 . S
C2624 C2605 1.368 . S
C2624 C2618 1.368 . S
C2624 C2623 1.523 . S
C2625 C2609 1.429 . S
C2625 C2621 1.429 . S
C2625 C2626 1.523 . S
C2626 C2610 1.368 . S
C2626 C2622 1.368 . S
C2626 C2625 1.523 . S
H2627 C2602 0.950 . S
H2628 C2604 0.950 . S
H2629 C2605 0.949 . S
H2630 C2607 0.950 . S
H2631 C2609 0.950 . S
C2632 C2633 1.349 . S
C2632 C2634 1.327 . S
C2632 H2657 0.950 . S
C2633 C2632 1.349 . S
C2633 C2649 1.349 . S
C2634 C2632 1.327 . S
C2634 C2653 1.429 . S
C2634 H2658 0.950 . S
C2635 C2652 1.574 . S
C2635 C2654 1.368 . S
C2635 H2659 0.949 . S
H2636 C2640 0.949 . S
C2637 C2638 1.349 . S
C2637 C2639 1.327 . S
C2637 H2660 0.950 . S
C2638 C2637 1.349 . S
C2638 C2650 1.349 . S
C2639 C2637 1.327 . S
C2639 C2655 1.429 . S
C2639 H2661 0.950 . S
C2640 H2636 0.949 . S
C2640 C2648 1.574 . S
C2640 C2656 1.368 . S
H2641 C2649 0.950 . S
H2642 C2647 0.950 . S
H2643 C2648 0.949 . S
H2644 C2650 0.950 . S
H2645 C2651 0.950 . S
H2646 C2652 0.949 . S
C2647 H2642 0.950 . S
C2647 C2649 1.327 . S
C2647 C2653 1.429 . S
C2648 C2640 1.574 . S
C2648 H2643 0.949 . S
C2648 C2654 1.368 . S
C2649 C2633 1.349 . S
C2649 H2641 0.950 . S
C2649 C2647 1.327 . S
C2650 C2638 1.349 . S
C2650 H2644 0.950 . S
C2650 C2651 1.327 . S
C2651 H2645 0.950 . S
C2651 C2650 1.327 . S
C2651 C2655 1.429 . S
C2652 C2635 1.574 . S
C2652 H2646 0.949 . S
C2652 C2656 1.368 . S
C2653 C2634 1.429 . S
C2653 C2647 1.429 . S
C2653 C2654 1.523 . S
C2654 C2635 1.368 . S
C2654 C2648 1.368 . S
C2654 C2653 1.523 . S
C2655 C2639 1.429 . S
C2655 C2651 1.429 . S
C2655 C2656 1.523 . S
C2656 C2640 1.368 . S
C2656 C2652 1.368 . S
C2656 C2655 1.523 . S
H2657 C2632 0.950 . S
H2658 C2634 0.950 . S
H2659 C2635 0.949 . S
H2660 C2637 0.950 . S
H2661 C2639 0.950 . S
C2662 C2663 1.349 . S
C2662 C2664 1.327 . S
C2662 H2687 0.950 . S
C2663 C2662 1.349 . S
C2663 C2679 1.349 . S
C2664 C2662 1.327 . S
C2664 C2683 1.429 . S
C2664 H2688 0.950 . S
C2665 C2682 1.574 . S
C2665 C2684 1.368 . S
C2665 H2689 0.949 . S
H2666 C2670 0.949 . S
C2667 C2668 1.349 . S
C2667 C2669 1.327 . S
C2667 H2690 0.950 . S
C2668 C2667 1.349 . S
C2668 C2680 1.349 . S
C2669 C2667 1.327 . S
C2669 C2685 1.429 . S
C2669 H2691 0.950 . S
C2670 H2666 0.949 . S
C2670 C2678 1.574 . S
C2670 C2686 1.368 . S
H2671 C2679 0.950 . S
H2672 C2677 0.950 . S
H2673 C2678 0.949 . S
H2674 C2680 0.950 . S
H2675 C2681 0.950 . S
H2676 C2682 0.949 . S
C2677 H2672 0.950 . S
C2677 C2679 1.327 . S
C2677 C2683 1.429 . S
C2678 C2670 1.574 . S
C2678 H2673 0.949 . S
C2678 C2684 1.368 . S
C2679 C2663 1.349 . S
C2679 H2671 0.950 . S
C2679 C2677 1.327 . S
C2680 C2668 1.349 . S
C2680 H2674 0.950 . S
C2680 C2681 1.327 . S
C2681 H2675 0.950 . S
C2681 C2680 1.327 . S
C2681 C2685 1.429 . S
C2682 C2665 1.574 . S
C2682 H2676 0.949 . S
C2682 C2686 1.368 . S
C2683 C2664 1.429 . S
C2683 C2677 1.429 . S
C2683 C2684 1.523 . S
C2684 C2665 1.368 . S
C2684 C2678 1.368 . S
C2684 C2683 1.523 . S
C2685 C2669 1.429 . S
C2685 C2681 1.429 . S
C2685 C2686 1.523 . S
C2686 C2670 1.368 . S
C2686 C2682 1.368 . S
C2686 C2685 1.523 . S
H2687 C2662 0.950 . S
H2688 C2664 0.950 . S
H2689 C2665 0.949 . S
H2690 C2667 0.950 . S
H2691 C2669 0.950 . S
C2692 C2693 1.349 . S
C2692 C2694 1.327 . S
C2692 H2717 0.950 . S
C2693 C2692 1.349 . S
C2693 C2709 1.349 . S
C2694 C2692 1.327 . S
C2694 C2713 1.429 . S
C2694 H2718 0.950 . S
C2695 C2712 1.574 . S
C2695 C2714 1.368 . S
C2695 H2719 0.949 . S
H2696 C2700 0.949 . S
C2697 C2698 1.349 . S
C2697 C2699 1.327 . S
C2697 H2720 0.950 . S
C2698 C2697 1.349 . S
C2698 C2710 1.349 . S
C2699 C2697 1.327 . S
C2699 C2715 1.429 . S
C2699 H2721 0.950 . S
C2700 H2696 0.949 . S
C2700 C2708 1.574 . S
C2700 C2716 1.368 . S
H2701 C2709 0.950 . S
H2702 C2707 0.950 . S
H2703 C2708 0.949 . S
H2704 C2710 0.950 . S
H2705 C2711 0.950 . S
H2706 C2712 0.949 . S
C2707 H2702 0.950 . S
C2707 C2709 1.327 . S
C2707 C2713 1.429 . S
C2708 C2700 1.574 . S
C2708 H2703 0.949 . S
C2708 C2714 1.368 . S
C2709 C2693 1.349 . S
C2709 H2701 0.950 . S
C2709 C2707 1.327 . S
C2710 C2698 1.349 . S
C2710 H2704 0.950 . S
C2710 C2711 1.327 . S
C2711 H2705 0.950 . S
C2711 C2710 1.327 . S
C2711 C2715 1.429 . S
C2712 C2695 1.574 . S
C2712 H2706 0.949 . S
C2712 C2716 1.368 . S
C2713 C2694 1.429 . S
C2713 C2707 1.429 . S
C2713 C2714 1.523 . S
C2714 C2695 1.368 . S
C2714 C2708 1.368 . S
C2714 C2713 1.523 . S
C2715 C2699 1.429 . S
C2715 C2711 1.429 . S
C2715 C2716 1.523 . S
C2716 C2700 1.368 . S
C2716 C2712 1.368 . S
C2716 C2715 1.523 . S
H2717 C2692 0.950 . S
H2718 C2694 0.950 . S
H2719 C2695 0.949 . S
H2720 C2697 0.950 . S
H2721 C2699 0.950 . S
C2722 C2723 1.349 . S
C2722 C2724 1.327 . S
C2722 H2747 0.950 . S
C2723 C2722 1.349 . S
C2723 C2739 1.349 . S
C2724 C2722 1.327 . S
C2724 C2743 1.429 . S
C2724 H2748 0.950 . S
C2725 C2742 1.574 . S
C2725 C2744 1.368 . S
C2725 H2749 0.949 . S
H2726 C2730 0.949 . S
C2727 C2728 1.349 . S
C2727 C2729 1.327 . S
C2727 H2750 0.950 . S
C2728 C2727 1.349 . S
C2728 C2740 1.349 . S
C2729 C2727 1.327 . S
C2729 C2745 1.429 . S
C2729 H2751 0.950 . S
C2730 H2726 0.949 . S
C2730 C2738 1.574 . S
C2730 C2746 1.368 . S
H2731 C2739 0.950 . S
H2732 C2737 0.950 . S
H2733 C2738 0.949 . S
H2734 C2740 0.950 . S
H2735 C2741 0.950 . S
H2736 C2742 0.949 . S
C2737 H2732 0.950 . S
C2737 C2739 1.327 . S
C2737 C2743 1.429 . S
C2738 C2730 1.574 . S
C2738 H2733 0.949 . S
C2738 C2744 1.368 . S
C2739 C2723 1.349 . S
C2739 H2731 0.950 . S
C2739 C2737 1.327 . S
C2740 C2728 1.349 . S
C2740 H2734 0.950 . S
C2740 C2741 1.327 . S
C2741 H2735 0.950 . S
C2741 C2740 1.327 . S
C2741 C2745 1.429 . S
C2742 C2725 1.574 . S
C2742 H2736 0.949 . S
C2742 C2746 1.368 . S
C2743 C2724 1.429 . S
C2743 C2737 1.429 . S
C2743 C2744 1.523 . S
C2744 C2725 1.368 . S
C2744 C2738 1.368 . S
C2744 C2743 1.523 . S
C2745 C2729 1.429 . S
C2745 C2741 1.429 . S
C2745 C2746 1.523 . S
C2746 C2730 1.368 . S
C2746 C2742 1.368 . S
C2746 C2745 1.523 . S
H2747 C2722 0.950 . S
H2748 C2724 0.950 . S
H2749 C2725 0.949 . S
H2750 C2727 0.950 . S
H2751 C2729 0.950 . S
C2752 C2753 1.349 . S
C2752 C2754 1.327 . S
C2752 H2777 0.950 . S
C2753 C2752 1.349 . S
C2753 C2769 1.349 . S
C2754 C2752 1.327 . S
C2754 C2773 1.429 . S
C2754 H2778 0.950 . S
C2755 C2772 1.574 . S
C2755 C2774 1.368 . S
C2755 H2779 0.949 . S
H2756 C2760 0.949 . S
C2757 C2758 1.349 . S
C2757 C2759 1.327 . S
C2757 H2780 0.950 . S
C2758 C2757 1.349 . S
C2758 C2770 1.349 . S
C2759 C2757 1.327 . S
C2759 C2775 1.429 . S
C2759 H2781 0.950 . S
C2760 H2756 0.949 . S
C2760 C2768 1.574 . S
C2760 C2776 1.368 . S
H2761 C2769 0.950 . S
H2762 C2767 0.950 . S
H2763 C2768 0.949 . S
H2764 C2770 0.950 . S
H2765 C2771 0.950 . S
H2766 C2772 0.949 . S
C2767 H2762 0.950 . S
C2767 C2769 1.327 . S
C2767 C2773 1.429 . S
C2768 C2760 1.574 . S
C2768 H2763 0.949 . S
C2768 C2774 1.368 . S
C2769 C2753 1.349 . S
C2769 H2761 0.950 . S
C2769 C2767 1.327 . S
C2770 C2758 1.349 . S
C2770 H2764 0.950 . S
C2770 C2771 1.327 . S
C2771 H2765 0.950 . S
C2771 C2770 1.327 . S
C2771 C2775 1.429 . S
C2772 C2755 1.574 . S
C2772 H2766 0.949 . S
C2772 C2776 1.368 . S
C2773 C2754 1.429 . S
C2773 C2767 1.429 . S
C2773 C2774 1.523 . S
C2774 C2755 1.368 . S
C2774 C2768 1.368 . S
C2774 C2773 1.523 . S
C2775 C2759 1.429 . S
C2775 C2771 1.429 . S
C2775 C2776 1.523 . S
C2776 C2760 1.368 . S
C2776 C2772 1.368 . S
C2776 C2775 1.523 . S
H2777 C2752 0.950 . S
H2778 C2754 0.950 . S
H2779 C2755 0.949 . S
H2780 C2757 0.950 . S
H2781 C2759 0.950 . S
C2782 C2783 1.349 . S
C2782 C2784 1.327 . S
C2782 H2807 0.950 . S
C2783 C2782 1.349 . S
C2783 C2799 1.349 . S
C2784 C2782 1.327 . S
C2784 C2803 1.429 . S
C2784 H2808 0.950 . S
C2785 C2802 1.574 . S
C2785 C2804 1.368 . S
C2785 H2809 0.949 . S
H2786 C2790 0.949 . S
C2787 C2788 1.349 . S
C2787 C2789 1.327 . S
C2787 H2810 0.950 . S
C2788 C2787 1.349 . S
C2788 C2800 1.349 . S
C2789 C2787 1.327 . S
C2789 C2805 1.429 . S
C2789 H2811 0.950 . S
C2790 H2786 0.949 . S
C2790 C2798 1.574 . S
C2790 C2806 1.368 . S
H2791 C2799 0.950 . S
H2792 C2797 0.950 . S
H2793 C2798 0.949 . S
H2794 C2800 0.950 . S
H2795 C2801 0.950 . S
H2796 C2802 0.949 . S
C2797 H2792 0.950 . S
C2797 C2799 1.327 . S
C2797 C2803 1.429 . S
C2798 C2790 1.574 . S
C2798 H2793 0.949 . S
C2798 C2804 1.368 . S
C2799 C2783 1.349 . S
C2799 H2791 0.950 . S
C2799 C2797 1.327 . S
C2800 C2788 1.349 . S
C2800 H2794 0.950 . S
C2800 C2801 1.327 . S
C2801 H2795 0.950 . S
C2801 C2800 1.327 . S
C2801 C2805 1.429 . S
C2802 C2785 1.574 . S
C2802 H2796 0.949 . S
C2802 C2806 1.368 . S
C2803 C2784 1.429 . S
C2803 C2797 1.429 . S
C2803 C2804 1.523 . S
C2804 C2785 1.368 . S
C2804 C2798 1.368 . S
C2804 C2803 1.523 . S
C2805 C2789 1.429 . S
C2805 C2801 1.429 . S
C2805 C2806 1.523 . S
C2806 C2790 1.368 . S
C2806 C2802 1.368 . S
C2806 C2805 1.523 . S
H2807 C2782 0.950 . S
H2808 C2784 0.950 . S
H2809 C2785 0.949 . S
H2810 C2787 0.950 . S
H2811 C2789 0.950 . S
C2812 C2813 1.349 . S
C2812 C2814 1.327 . S
C2812 H2837 0.950 . S
C2813 C2812 1.349 . S
C2813 C2829 1.349 . S
C2814 C2812 1.327 . S
C2814 C2833 1.429 . S
C2814 H2838 0.950 . S
C2815 C2832 1.574 . S
C2815 C2834 1.368 . S
C2815 H2839 0.949 . S
H2816 C2820 0.949 . S
C2817 C2818 1.349 . S
C2817 C2819 1.327 . S
C2817 H2840 0.950 . S
C2818 C2817 1.349 . S
C2818 C2830 1.349 . S
C2819 C2817 1.327 . S
C2819 C2835 1.429 . S
C2819 H2841 0.950 . S
C2820 H2816 0.949 . S
C2820 C2828 1.574 . S
C2820 C2836 1.368 . S
H2821 C2829 0.950 . S
H2822 C2827 0.950 . S
H2823 C2828 0.949 . S
H2824 C2830 0.950 . S
H2825 C2831 0.950 . S
H2826 C2832 0.949 . S
C2827 H2822 0.950 . S
C2827 C2829 1.327 . S
C2827 C2833 1.429 . S
C2828 C2820 1.574 . S
C2828 H2823 0.949 . S
C2828 C2834 1.368 . S
C2829 C2813 1.349 . S
C2829 H2821 0.950 . S
C2829 C2827 1.327 . S
C2830 C2818 1.349 . S
C2830 H2824 0.950 . S
C2830 C2831 1.327 . S
C2831 H2825 0.950 . S
C2831 C2830 1.327 . S
C2831 C2835 1.429 . S
C2832 C2815 1.574 . S
C2832 H2826 0.949 . S
C2832 C2836 1.368 . S
C2833 C2814 1.429 . S
C2833 C2827 1.429 . S
C2833 C2834 1.523 . S
C2834 C2815 1.368 . S
C2834 C2828 1.368 . S
C2834 C2833 1.523 . S
C2835 C2819 1.429 . S
C2835 C2831 1.429 . S
C2835 C2836 1.523 . S
C2836 C2820 1.368 . S
C2836 C2832 1.368 . S
C2836 C2835 1.523 . S
H2837 C2812 0.950 . S
H2838 C2814 0.950 . S
H2839 C2815 0.949 . S
H2840 C2817 0.950 . S
H2841 C2819 0.950 . S
C2842 C2843 1.349 . S
C2842 C2844 1.327 . S
C2842 H2867 0.950 . S
C2843 C2842 1.349 . S
C2843 C2859 1.349 . S
C2844 C2842 1.327 . S
C2844 C2863 1.429 . S
C2844 H2868 0.950 . S
C2845 C2862 1.574 . S
C2845 C2864 1.368 . S
C2845 H2869 0.949 . S
H2846 C2850 0.949 . S
C2847 C2848 1.349 . S
C2847 C2849 1.327 . S
C2847 H2870 0.950 . S
C2848 C2847 1.349 . S
C2848 C2860 1.349 . S
C2849 C2847 1.327 . S
C2849 C2865 1.429 . S
C2849 H2871 0.950 . S
C2850 H2846 0.949 . S
C2850 C2858 1.574 . S
C2850 C2866 1.368 . S
H2851 C2859 0.950 . S
H2852 C2857 0.950 . S
H2853 C2858 0.949 . S
H2854 C2860 0.950 . S
H2855 C2861 0.950 . S
H2856 C2862 0.949 . S
C2857 H2852 0.950 . S
C2857 C2859 1.327 . S
C2857 C2863 1.429 . S
C2858 C2850 1.574 . S
C2858 H2853 0.949 . S
C2858 C2864 1.368 . S
C2859 C2843 1.349 . S
C2859 H2851 0.950 . S
C2859 C2857 1.327 . S
C2860 C2848 1.349 . S
C2860 H2854 0.950 . S
C2860 C2861 1.327 . S
C2861 H2855 0.950 . S
C2861 C2860 1.327 . S
C2861 C2865 1.429 . S
C2862 C2845 1.574 . S
C2862 H2856 0.949 . S
C2862 C2866 1.368 . S
C2863 C2844 1.429 . S
C2863 C2857 1.429 . S
C2863 C2864 1.523 . S
C2864 C2845 1.368 . S
C2864 C2858 1.368 . S
C2864 C2863 1.523 . S
C2865 C2849 1.429 . S
C2865 C2861 1.429 . S
C2865 C2866 1.523 . S
C2866 C2850 1.368 . S
C2866 C2862 1.368 . S
C2866 C2865 1.523 . S
H2867 C2842 0.950 . S
H2868 C2844 0.950 . S
H2869 C2845 0.949 . S
H2870 C2847 0.950 . S
H2871 C2849 0.950 . S
C2872 C2873 1.349 . S
C2872 C2874 1.327 . S
C2872 H2897 0.950 . S
C2873 C2872 1.349 . S
C2873 C2889 1.349 . S
C2874 C2872 1.327 . S
C2874 C2893 1.429 . S
C2874 H2898 0.950 . S
C2875 C2892 1.574 . S
C2875 C2894 1.368 . S
C2875 H2899 0.949 . S
H2876 C2880 0.949 . S
C2877 C2878 1.349 . S
C2877 C2879 1.327 . S
C2877 H2900 0.950 . S
C2878 C2877 1.349 . S
C2878 C2890 1.349 . S
C2879 C2877 1.327 . S
C2879 C2895 1.429 . S
C2879 H2901 0.950 . S
C2880 H2876 0.949 . S
C2880 C2888 1.574 . S
C2880 C2896 1.368 . S
H2881 C2889 0.950 . S
H2882 C2887 0.950 . S
H2883 C2888 0.949 . S
H2884 C2890 0.950 . S
H2885 C2891 0.950 . S
H2886 C2892 0.949 . S
C2887 H2882 0.950 . S
C2887 C2889 1.327 . S
C2887 C2893 1.429 . S
C2888 C2880 1.574 . S
C2888 H2883 0.949 . S
C2888 C2894 1.368 . S
C2889 C2873 1.349 . S
C2889 H2881 0.950 . S
C2889 C2887 1.327 . S
C2890 C2878 1.349 . S
C2890 H2884 0.950 . S
C2890 C2891 1.327 . S
C2891 H2885 0.950 . S
C2891 C2890 1.327 . S
C2891 C2895 1.429 . S
C2892 C2875 1.574 . S
C2892 H2886 0.949 . S
C2892 C2896 1.368 . S
C2893 C2874 1.429 . S
C2893 C2887 1.429 . S
C2893 C2894 1.523 . S
C2894 C2875 1.368 . S
C2894 C2888 1.368 . S
C2894 C2893 1.523 . S
C2895 C2879 1.429 . S
C2895 C2891 1.429 . S
C2895 C2896 1.523 . S
C2896 C2880 1.368 . S
C2896 C2892 1.368 . S
C2896 C2895 1.523 . S
H2897 C2872 0.950 . S
H2898 C2874 0.950 . S
H2899 C2875 0.949 . S
H2900 C2877 0.950 . S
H2901 C2879 0.950 . S
C2902 C2903 1.349 . S
C2902 C2904 1.327 . S
C2902 H2927 0.950 . S
C2903 C2902 1.349 . S
C2903 C2919 1.349 . S
C2904 C2902 1.327 . S
C2904 C2923 1.429 . S
C2904 H2928 0.950 . S
C2905 C2922 1.574 . S
C2905 C2924 1.368 . S
C2905 H2929 0.949 . S
H2906 C2910 0.949 . S
C2907 C2908 1.349 . S
C2907 C2909 1.327 . S
C2907 H2930 0.950 . S
C2908 C2907 1.349 . S
C2908 C2920 1.349 . S
C2909 C2907 1.327 . S
C2909 C2925 1.429 . S
C2909 H2931 0.950 . S
C2910 H2906 0.949 . S
C2910 C2918 1.574 . S
C2910 C2926 1.368 . S
H2911 C2919 0.950 . S
H2912 C2917 0.950 . S
H2913 C2918 0.949 . S
H2914 C2920 0.950 . S
H2915 C2921 0.950 . S
H2916 C2922 0.949 . S
C2917 H2912 0.950 . S
C2917 C2919 1.327 . S
C2917 C2923 1.429 . S
C2918 C2910 1.574 . S
C2918 H2913 0.949 . S
C2918 C2924 1.368 . S
C2919 C2903 1.349 . S
C2919 H2911 0.950 . S
C2919 C2917 1.327 . S
C2920 C2908 1.349 . S
C2920 H2914 0.950 . S
C2920 C2921 1.327 . S
C2921 H2915 0.950 . S
C2921 C2920 1.327 . S
C2921 C2925 1.429 . S
C2922 C2905 1.574 . S
C2922 H2916 0.949 . S
C2922 C2926 1.368 . S
C2923 C2904 1.429 . S
C2923 C2917 1.429 . S
C2923 C2924 1.523 . S
C2924 C2905 1.368 . S
C2924 C2918 1.368 . S
C2924 C2923 1.523 . S
C2925 C2909 1.429 . S
C2925 C2921 1.429 . S
C2925 C2926 1.523 . S
C2926 C2910 1.368 . S
C2926 C2922 1.368 . S
C2926 C2925 1.523 . S
H2927 C2902 0.950 . S
H2928 C2904 0.950 . S
H2929 C2905 0.949 . S
H2930 C2907 0.950 . S
H2931 C2909 0.950 . S
C2932 C2933 1.349 . S
C2932 C2934 1.327 . S
C2932 H2957 0.950 . S
C2933 C2932 1.349 . S
C2933 C2949 1.349 . S
C2934 C2932 1.327 . S
C2934 C2953 1.429 . S
C2934 H2958 0.950 1_545 S
C2935 C2952 1.574 . S
C2935 C2954 1.368 . S
C2935 H2959 0.949 1_565 S
H2936 C2940 0.949 . S
C2937 C2938 1.349 . S
C2937 C2939 1.327 . S
C2937 H2960 0.950 . S
C2938 C2937 1.349 . S
C2938 C2950 1.349 . S
C2939 C2937 1.327 . S
C2939 C2955 1.429 . S
C2939 H2961 0.950 . S
C2940 H2936 0.949 . S
C2940 C2948 1.574 . S
C2940 C2956 1.368 . S
H2941 C2949 0.950 . S
H2942 C2947 0.950 . S
H2943 C2948 0.949 . S
H2944 C2950 0.950 . S
H2945 C2951 0.950 . S
H2946 C2952 0.949 . S
C2947 H2942 0.950 . S
C2947 C2949 1.327 . S
C2947 C2953 1.429 . S
C2948 C2940 1.574 . S
C2948 H2943 0.949 . S
C2948 C2954 1.368 . S
C2949 C2933 1.349 . S
C2949 H2941 0.950 . S
C2949 C2947 1.327 . S
C2950 C2938 1.349 . S
C2950 H2944 0.950 . S
C2950 C2951 1.327 . S
C2951 H2945 0.950 . S
C2951 C2950 1.327 . S
C2951 C2955 1.429 . S
C2952 C2935 1.574 . S
C2952 H2946 0.949 . S
C2952 C2956 1.368 . S
C2953 C2934 1.429 . S
C2953 C2947 1.429 . S
C2953 C2954 1.523 1_545 S
C2954 C2935 1.368 . S
C2954 C2948 1.368 . S
C2954 C2953 1.523 1_565 S
C2955 C2939 1.429 . S
C2955 C2951 1.429 . S
C2955 C2956 1.523 . S
C2956 C2940 1.368 . S
C2956 C2952 1.368 . S
C2956 C2955 1.523 . S
H2957 C2932 0.950 . S
H2958 C2934 0.950 1_565 S
H2959 C2935 0.949 1_545 S
H2960 C2937 0.950 . S
H2961 C2939 0.950 . S
C2962 C2963 1.349 . S
C2962 C2964 1.327 . S
C2962 H2987 0.950 . S
C2963 C2962 1.349 . S
C2963 C2979 1.349 . S
C2964 C2962 1.327 . S
C2964 C2983 1.429 . S
C2964 H2988 0.950 . S
C2965 C2982 1.574 1_565 S
C2965 C2984 1.368 . S
C2965 H2989 0.949 . S
H2966 C2970 0.949 . S
C2967 C2968 1.349 . S
C2967 C2969 1.327 . S
C2967 H2990 0.950 . S
C2968 C2967 1.349 . S
C2968 C2980 1.349 . S
C2969 C2967 1.327 . S
C2969 C2985 1.429 . S
C2969 H2991 0.950 . S
C2970 H2966 0.949 . S
C2970 C2978 1.574 . S
C2970 C2986 1.368 . S
H2971 C2979 0.950 . S
H2972 C2977 0.950 . S
H2973 C2978 0.949 . S
H2974 C2980 0.950 . S
H2975 C2981 0.950 . S
H2976 C2982 0.949 . S
C2977 H2972 0.950 . S
C2977 C2979 1.327 . S
C2977 C2983 1.429 . S
C2978 C2970 1.574 . S
C2978 H2973 0.949 . S
C2978 C2984 1.368 1_545 S
C2979 C2963 1.349 . S
C2979 H2971 0.950 . S
C2979 C2977 1.327 . S
C2980 C2968 1.349 . S
C2980 H2974 0.950 . S
C2980 C2981 1.327 . S
C2981 H2975 0.950 . S
C2981 C2980 1.327 . S
C2981 C2985 1.429 . S
C2982 C2965 1.574 1_545 S
C2982 H2976 0.949 . S
C2982 C2986 1.368 . S
C2983 C2964 1.429 . S
C2983 C2977 1.429 . S
C2983 C2984 1.523 . S
C2984 C2965 1.368 . S
C2984 C2978 1.368 1_565 S
C2984 C2983 1.523 . S
C2985 C2969 1.429 . S
C2985 C2981 1.429 . S
C2985 C2986 1.523 . S
C2986 C2970 1.368 . S
C2986 C2982 1.368 . S
C2986 C2985 1.523 . S
H2987 C2962 0.950 . S
H2988 C2964 0.950 . S
H2989 C2965 0.949 . S
H2990 C2967 0.950 . S
H2991 C2969 0.950 . S
C2992 C2993 1.349 . S
C2992 C2994 1.327 . S
C2992 H3017 0.950 . S
C2993 C2992 1.349 . S
C2993 C3009 1.349 . S
C2994 C2992 1.327 . S
C2994 C3013 1.429 . S
C2994 H3018 0.950 . S
C2995 C3012 1.574 . S
C2995 C3014 1.368 . S
C2995 H3019 0.949 . S
H2996 C3000 0.949 . S
C2997 C2998 1.349 . S
C2997 C2999 1.327 . S
C2997 H3020 0.950 . S
C2998 C2997 1.349 . S
C2998 C3010 1.349 . S
C2999 C2997 1.327 . S
C2999 C3015 1.429 . S
C2999 H3021 0.950 . S
C3000 H2996 0.949 . S
C3000 C3008 1.574 . S
C3000 C3016 1.368 . S
H3001 C3009 0.950 . S
H3002 C3007 0.950 . S
H3003 C3008 0.949 . S
H3004 C3010 0.950 . S
H3005 C3011 0.950 . S
H3006 C3012 0.949 . S
C3007 H3002 0.950 . S
C3007 C3009 1.327 . S
C3007 C3013 1.429 . S
C3008 C3000 1.574 . S
C3008 H3003 0.949 . S
C3008 C3014 1.368 . S
C3009 C2993 1.349 . S
C3009 H3001 0.950 . S
C3009 C3007 1.327 . S
C3010 C2998 1.349 . S
C3010 H3004 0.950 . S
C3010 C3011 1.327 . S
C3011 H3005 0.950 . S
C3011 C3010 1.327 . S
C3011 C3015 1.429 . S
C3012 C2995 1.574 . S
C3012 H3006 0.949 . S
C3012 C3016 1.368 . S
C3013 C2994 1.429 . S
C3013 C3007 1.429 . S
C3013 C3014 1.523 . S
C3014 C2995 1.368 . S
C3014 C3008 1.368 . S
C3014 C3013 1.523 . S
C3015 C2999 1.429 . S
C3015 C3011 1.429 . S
C3015 C3016 1.523 . S
C3016 C3000 1.368 . S
C3016 C3012 1.368 . S
C3016 C3015 1.523 . S
H3017 C2992 0.950 . S
H3018 C2994 0.950 . S
H3019 C2995 0.949 . S
H3020 C2997 0.950 . S
H3021 C2999 0.950 . S
C3022 C3023 1.349 . S
C3022 C3024 1.327 . S
C3022 H3047 0.950 . S
C3023 C3022 1.349 . S
C3023 C3039 1.349 . S
C3024 C3022 1.327 . S
C3024 C3043 1.429 . S
C3024 H3048 0.950 . S
C3025 C3042 1.574 . S
C3025 C3044 1.368 . S
C3025 H3049 0.949 . S
H3026 C3030 0.949 . S
C3027 C3028 1.349 . S
C3027 C3029 1.327 . S
C3027 H3050 0.950 . S
C3028 C3027 1.349 . S
C3028 C3040 1.349 . S
C3029 C3027 1.327 . S
C3029 C3045 1.429 . S
C3029 H3051 0.950 . S
C3030 H3026 0.949 . S
C3030 C3038 1.574 . S
C3030 C3046 1.368 . S
H3031 C3039 0.950 . S
H3032 C3037 0.950 . S
H3033 C3038 0.949 . S
H3034 C3040 0.950 . S
H3035 C3041 0.950 . S
H3036 C3042 0.949 . S
C3037 H3032 0.950 . S
C3037 C3039 1.327 . S
C3037 C3043 1.429 . S
C3038 C3030 1.574 . S
C3038 H3033 0.949 . S
C3038 C3044 1.368 . S
C3039 C3023 1.349 . S
C3039 H3031 0.950 . S
C3039 C3037 1.327 . S
C3040 C3028 1.349 . S
C3040 H3034 0.950 . S
C3040 C3041 1.327 . S
C3041 H3035 0.950 . S
C3041 C3040 1.327 . S
C3041 C3045 1.429 . S
C3042 C3025 1.574 . S
C3042 H3036 0.949 . S
C3042 C3046 1.368 . S
C3043 C3024 1.429 . S
C3043 C3037 1.429 . S
C3043 C3044 1.523 . S
C3044 C3025 1.368 . S
C3044 C3038 1.368 . S
C3044 C3043 1.523 . S
C3045 C3029 1.429 . S
C3045 C3041 1.429 . S
C3045 C3046 1.523 . S
C3046 C3030 1.368 . S
C3046 C3042 1.368 . S
C3046 C3045 1.523 . S
H3047 C3022 0.950 . S
H3048 C3024 0.950 . S
H3049 C3025 0.949 . S
H3050 C3027 0.950 . S
H3051 C3029 0.950 . S
C3052 C3053 1.349 . S
C3052 C3054 1.327 . S
C3052 H3077 0.950 . S
C3053 C3052 1.349 . S
C3053 C3069 1.349 . S
C3054 C3052 1.327 . S
C3054 C3073 1.429 . S
C3054 H3078 0.950 . S
C3055 C3072 1.574 . S
C3055 C3074 1.368 . S
C3055 H3079 0.949 . S
H3056 C3060 0.949 . S
C3057 C3058 1.349 . S
C3057 C3059 1.327 . S
C3057 H3080 0.950 . S
C3058 C3057 1.349 . S
C3058 C3070 1.349 . S
C3059 C3057 1.327 . S
C3059 C3075 1.429 . S
C3059 H3081 0.950 . S
C3060 H3056 0.949 . S
C3060 C3068 1.574 . S
C3060 C3076 1.368 . S
H3061 C3069 0.950 . S
H3062 C3067 0.950 . S
H3063 C3068 0.949 . S
H3064 C3070 0.950 . S
H3065 C3071 0.950 . S
H3066 C3072 0.949 . S
C3067 H3062 0.950 . S
C3067 C3069 1.327 . S
C3067 C3073 1.429 . S
C3068 C3060 1.574 . S
C3068 H3063 0.949 . S
C3068 C3074 1.368 . S
C3069 C3053 1.349 . S
C3069 H3061 0.950 . S
C3069 C3067 1.327 . S
C3070 C3058 1.349 . S
C3070 H3064 0.950 . S
C3070 C3071 1.327 . S
C3071 H3065 0.950 . S
C3071 C3070 1.327 . S
C3071 C3075 1.429 . S
C3072 C3055 1.574 . S
C3072 H3066 0.949 . S
C3072 C3076 1.368 . S
C3073 C3054 1.429 . S
C3073 C3067 1.429 . S
C3073 C3074 1.523 . S
C3074 C3055 1.368 . S
C3074 C3068 1.368 . S
C3074 C3073 1.523 . S
C3075 C3059 1.429 . S
C3075 C3071 1.429 . S
C3075 C3076 1.523 . S
C3076 C3060 1.368 . S
C3076 C3072 1.368 . S
C3076 C3075 1.523 . S
H3077 C3052 0.950 . S
H3078 C3054 0.950 . S
H3079 C3055 0.949 . S
H3080 C3057 0.950 . S
H3081 C3059 0.950 . S
C3082 C3083 1.349 . S
C3082 C3084 1.327 . S
C3082 H3107 0.950 . S
C3083 C3082 1.349 . S
C3083 C3099 1.349 . S
C3084 C3082 1.327 . S
C3084 C3103 1.429 . S
C3084 H3108 0.950 . S
C3085 C3102 1.574 1_545 S
C3085 C3104 1.368 . S
C3085 H3109 0.949 . S
H3086 C3090 0.949 1_565 S
C3087 C3088 1.349 . S
C3087 C3089 1.327 . S
C3087 H3110 0.950 . S
C3088 C3087 1.349 . S
C3088 C3100 1.349 . S
C3089 C3087 1.327 . S
C3089 C3105 1.429 . S
C3089 H3111 0.950 . S
C3090 H3086 0.949 1_545 S
C3090 C3098 1.574 . S
C3090 C3106 1.368 1_545 S
H3091 C3099 0.950 . S
H3092 C3097 0.950 . S
H3093 C3098 0.949 . S
H3094 C3100 0.950 . S
H3095 C3101 0.950 . S
H3096 C3102 0.949 . S
C3097 H3092 0.950 . S
C3097 C3099 1.327 . S
C3097 C3103 1.429 . S
C3098 C3090 1.574 . S
C3098 H3093 0.949 . S
C3098 C3104 1.368 . S
C3099 C3083 1.349 . S
C3099 H3091 0.950 . S
C3099 C3097 1.327 . S
C3100 C3088 1.349 . S
C3100 H3094 0.950 . S
C3100 C3101 1.327 . S
C3101 H3095 0.950 . S
C3101 C3100 1.327 . S
C3101 C3105 1.429 . S
C3102 C3085 1.574 1_565 S
C3102 H3096 0.949 . S
C3102 C3106 1.368 . S
C3103 C3084 1.429 . S
C3103 C3097 1.429 . S
C3103 C3104 1.523 . S
C3104 C3085 1.368 . S
C3104 C3098 1.368 . S
C3104 C3103 1.523 . S
C3105 C3089 1.429 . S
C3105 C3101 1.429 . S
C3105 C3106 1.523 . S
C3106 C3090 1.368 1_565 S
C3106 C3102 1.368 . S
C3106 C3105 1.523 . S
H3107 C3082 0.950 . S
H3108 C3084 0.950 . S
H3109 C3085 0.949 . S
H3110 C3087 0.950 . S
H3111 C3089 0.950 . S
C3112 C3113 1.349 . S
C3112 C3114 1.327 . S
C3112 H3137 0.950 . S
C3113 C3112 1.349 . S
C3113 C3129 1.349 . S
C3114 C3112 1.327 . S
C3114 C3133 1.429 . S
C3114 H3138 0.950 . S
C3115 C3132 1.574 . S
C3115 C3134 1.368 . S
C3115 H3139 0.949 . S
H3116 C3120 0.949 . S
C3117 C3118 1.349 . S
C3117 C3119 1.327 . S
C3117 H3140 0.950 . S
C3118 C3117 1.349 . S
C3118 C3130 1.349 . S
C3119 C3117 1.327 . S
C3119 C3135 1.429 . S
C3119 H3141 0.950 . S
C3120 H3116 0.949 . S
C3120 C3128 1.574 . S
C3120 C3136 1.368 . S
H3121 C3129 0.950 . S
H3122 C3127 0.950 . S
H3123 C3128 0.949 . S
H3124 C3130 0.950 . S
H3125 C3131 0.950 . S
H3126 C3132 0.949 . S
C3127 H3122 0.950 . S
C3127 C3129 1.327 . S
C3127 C3133 1.429 . S
C3128 C3120 1.574 . S
C3128 H3123 0.949 . S
C3128 C3134 1.368 . S
C3129 C3113 1.349 . S
C3129 H3121 0.950 . S
C3129 C3127 1.327 . S
C3130 C3118 1.349 . S
C3130 H3124 0.950 . S
C3130 C3131 1.327 . S
C3131 H3125 0.950 . S
C3131 C3130 1.327 . S
C3131 C3135 1.429 . S
C3132 C3115 1.574 . S
C3132 H3126 0.949 . S
C3132 C3136 1.368 . S
C3133 C3114 1.429 . S
C3133 C3127 1.429 . S
C3133 C3134 1.523 . S
C3134 C3115 1.368 . S
C3134 C3128 1.368 . S
C3134 C3133 1.523 . S
C3135 C3119 1.429 . S
C3135 C3131 1.429 . S
C3135 C3136 1.523 . S
C3136 C3120 1.368 . S
C3136 C3132 1.368 . S
C3136 C3135 1.523 . S
H3137 C3112 0.950 . S
H3138 C3114 0.950 . S
H3139 C3115 0.949 . S
H3140 C3117 0.950 . S
H3141 C3119 0.950 . S
C3142 C3143 1.349 . S
C3142 C3144 1.327 . S
C3142 H3167 0.950 . S
C3143 C3142 1.349 . S
C3143 C3159 1.349 . S
C3144 C3142 1.327 . S
C3144 C3163 1.429 . S
C3144 H3168 0.950 . S
C3145 C3162 1.574 . S
C3145 C3164 1.368 . S
C3145 H3169 0.949 . S
H3146 C3150 0.949 . S
C3147 C3148 1.349 . S
C3147 C3149 1.327 . S
C3147 H3170 0.950 . S
C3148 C3147 1.349 . S
C3148 C3160 1.349 . S
C3149 C3147 1.327 . S
C3149 C3165 1.429 . S
C3149 H3171 0.950 . S
C3150 H3146 0.949 . S
C3150 C3158 1.574 . S
C3150 C3166 1.368 . S
H3151 C3159 0.950 . S
H3152 C3157 0.950 . S
H3153 C3158 0.949 . S
H3154 C3160 0.950 . S
H3155 C3161 0.950 . S
H3156 C3162 0.949 . S
C3157 H3152 0.950 . S
C3157 C3159 1.327 . S
C3157 C3163 1.429 . S
C3158 C3150 1.574 . S
C3158 H3153 0.949 . S
C3158 C3164 1.368 . S
C3159 C3143 1.349 . S
C3159 H3151 0.950 . S
C3159 C3157 1.327 . S
C3160 C3148 1.349 . S
C3160 H3154 0.950 . S
C3160 C3161 1.327 . S
C3161 H3155 0.950 . S
C3161 C3160 1.327 . S
C3161 C3165 1.429 . S
C3162 C3145 1.574 . S
C3162 H3156 0.949 . S
C3162 C3166 1.368 . S
C3163 C3144 1.429 . S
C3163 C3157 1.429 . S
C3163 C3164 1.523 . S
C3164 C3145 1.368 . S
C3164 C3158 1.368 . S
C3164 C3163 1.523 . S
C3165 C3149 1.429 . S
C3165 C3161 1.429 . S
C3165 C3166 1.523 . S
C3166 C3150 1.368 . S
C3166 C3162 1.368 . S
C3166 C3165 1.523 . S
H3167 C3142 0.950 . S
H3168 C3144 0.950 . S
H3169 C3145 0.949 . S
H3170 C3147 0.950 . S
H3171 C3149 0.950 . S
C3172 C3173 1.349 . S
C3172 C3174 1.327 . S
C3172 H3197 0.950 . S
C3173 C3172 1.349 . S
C3173 C3189 1.349 . S
C3174 C3172 1.327 . S
C3174 C3193 1.429 . S
C3174 H3198 0.950 . S
C3175 C3192 1.574 . S
C3175 C3194 1.368 . S
C3175 H3199 0.949 . S
H3176 C3180 0.949 . S
C3177 C3178 1.349 . S
C3177 C3179 1.327 . S
C3177 H3200 0.950 . S
C3178 C3177 1.349 . S
C3178 C3190 1.349 . S
C3179 C3177 1.327 . S
C3179 C3195 1.429 . S
C3179 H3201 0.950 . S
C3180 H3176 0.949 . S
C3180 C3188 1.574 . S
C3180 C3196 1.368 . S
H3181 C3189 0.950 . S
H3182 C3187 0.950 . S
H3183 C3188 0.949 . S
H3184 C3190 0.950 . S
H3185 C3191 0.950 . S
H3186 C3192 0.949 . S
C3187 H3182 0.950 . S
C3187 C3189 1.327 . S
C3187 C3193 1.429 . S
C3188 C3180 1.574 . S
C3188 H3183 0.949 . S
C3188 C3194 1.368 . S
C3189 C3173 1.349 . S
C3189 H3181 0.950 . S
C3189 C3187 1.327 . S
C3190 C3178 1.349 . S
C3190 H3184 0.950 . S
C3190 C3191 1.327 . S
C3191 H3185 0.950 . S
C3191 C3190 1.327 . S
C3191 C3195 1.429 . S
C3192 C3175 1.574 . S
C3192 H3186 0.949 . S
C3192 C3196 1.368 . S
C3193 C3174 1.429 . S
C3193 C3187 1.429 . S
C3193 C3194 1.523 . S
C3194 C3175 1.368 . S
C3194 C3188 1.368 . S
C3194 C3193 1.523 . S
C3195 C3179 1.429 . S
C3195 C3191 1.429 . S
C3195 C3196 1.523 . S
C3196 C3180 1.368 . S
C3196 C3192 1.368 . S
C3196 C3195 1.523 . S
H3197 C3172 0.950 . S
H3198 C3174 0.950 . S
H3199 C3175 0.949 . S
H3200 C3177 0.950 . S
H3201 C3179 0.950 . S
C3202 C3203 1.349 . S
C3202 C3204 1.327 . S
C3202 H3227 0.950 . S
C3203 C3202 1.349 . S
C3203 C3219 1.349 . S
C3204 C3202 1.327 . S
C3204 C3223 1.429 . S
C3204 H3228 0.950 . S
C3205 C3222 1.574 . S
C3205 C3224 1.368 . S
C3205 H3229 0.949 . S
H3206 C3210 0.949 . S
C3207 C3208 1.349 . S
C3207 C3209 1.327 . S
C3207 H3230 0.950 . S
C3208 C3207 1.349 . S
C3208 C3220 1.349 . S
C3209 C3207 1.327 . S
C3209 C3225 1.429 . S
C3209 H3231 0.950 . S
C3210 H3206 0.949 . S
C3210 C3218 1.574 . S
C3210 C3226 1.368 . S
H3211 C3219 0.950 . S
H3212 C3217 0.950 . S
H3213 C3218 0.949 . S
H3214 C3220 0.950 . S
H3215 C3221 0.950 . S
H3216 C3222 0.949 . S
C3217 H3212 0.950 . S
C3217 C3219 1.327 . S
C3217 C3223 1.429 . S
C3218 C3210 1.574 . S
C3218 H3213 0.949 . S
C3218 C3224 1.368 . S
C3219 C3203 1.349 . S
C3219 H3211 0.950 . S
C3219 C3217 1.327 . S
C3220 C3208 1.349 . S
C3220 H3214 0.950 . S
C3220 C3221 1.327 . S
C3221 H3215 0.950 . S
C3221 C3220 1.327 . S
C3221 C3225 1.429 . S
C3222 C3205 1.574 . S
C3222 H3216 0.949 . S
C3222 C3226 1.368 . S
C3223 C3204 1.429 . S
C3223 C3217 1.429 . S
C3223 C3224 1.523 . S
C3224 C3205 1.368 . S
C3224 C3218 1.368 . S
C3224 C3223 1.523 . S
C3225 C3209 1.429 . S
C3225 C3221 1.429 . S
C3225 C3226 1.523 . S
C3226 C3210 1.368 . S
C3226 C3222 1.368 . S
C3226 C3225 1.523 . S
H3227 C3202 0.950 . S
H3228 C3204 0.950 . S
H3229 C3205 0.949 . S
H3230 C3207 0.950 . S
H3231 C3209 0.950 . S
C3232 C3233 1.349 . S
C3232 C3234 1.327 . S
C3232 H3257 0.950 . S
C3233 C3232 1.349 . S
C3233 C3249 1.349 . S
C3234 C3232 1.327 . S
C3234 C3253 1.429 . S
C3234 H3258 0.950 . S
C3235 C3252 1.574 . S
C3235 C3254 1.368 . S
C3235 H3259 0.949 . S
H3236 C3240 0.949 . S
C3237 C3238 1.399 . S
C3237 C3239 1.327 . S
C3237 H3260 0.950 . S
C3238 C3237 1.399 . S
C3238 C3250 1.327 1_556 S
C3239 C3237 1.327 . S
C3239 C3255 1.429 . S
C3239 H3261 0.950 . S
C3240 H3236 0.949 . S
C3240 C3248 1.574 . S
C3240 C3256 1.368 . S
H3241 C3249 0.950 . S
H3242 C3247 0.950 . S
H3243 C3248 0.949 . S
H3244 C3250 0.950 . S
H3245 C3251 0.950 1_554 S
H3246 C3252 0.949 . S
C3247 H3242 0.950 . S
C3247 C3249 1.327 . S
C3247 C3253 1.429 . S
C3248 C3240 1.574 . S
C3248 H3243 0.949 . S
C3248 C3254 1.368 . S
C3249 C3233 1.349 . S
C3249 H3241 0.950 . S
C3249 C3247 1.327 . S
C3250 C3238 1.327 1_554 S
C3250 H3244 0.950 . S
C3250 C3251 1.327 1_554 S
C3251 H3245 0.950 1_556 S
C3251 C3250 1.327 1_556 S
C3251 C3255 1.429 . S
C3252 C3235 1.574 . S
C3252 H3246 0.949 . S
C3252 C3256 1.368 . S
C3253 C3234 1.429 . S
C3253 C3247 1.429 . S
C3253 C3254 1.523 . S
C3254 C3235 1.368 . S
C3254 C3248 1.368 . S
C3254 C3253 1.523 . S
C3255 C3239 1.429 . S
C3255 C3251 1.429 . S
C3255 C3256 1.523 . S
C3256 C3240 1.368 . S
C3256 C3252 1.368 . S
C3256 C3255 1.523 . S
H3257 C3232 0.950 . S
H3258 C3234 0.950 . S
H3259 C3235 0.949 . S
H3260 C3237 0.950 . S
H3261 C3239 0.950 . S
C3262 C3263 1.349 . S
C3262 C3264 1.327 . S
C3262 H3287 0.950 . S
C3263 C3262 1.349 . S
C3263 C3279 1.349 . S
C3264 C3262 1.327 . S
C3264 C3283 1.429 . S
C3264 H3288 0.950 . S
C3265 C3282 1.574 . S
C3265 C3284 1.368 . S
C3265 H3289 0.949 . S
H3266 C3270 0.949 . S
C3267 C3268 1.349 . S
C3267 C3269 1.327 . S
C3267 H3290 0.950 . S
C3268 C3267 1.349 . S
C3268 C3280 1.349 . S
C3269 C3267 1.327 . S
C3269 C3285 1.429 . S
C3269 H3291 0.950 . S
C3270 H3266 0.949 . S
C3270 C3278 1.574 . S
C3270 C3286 1.368 . S
H3271 C3279 0.950 . S
H3272 C3277 0.950 . S
H3273 C3278 0.949 . S
H3274 C3280 0.950 . S
H3275 C3281 0.950 . S
H3276 C3282 0.949 . S
C3277 H3272 0.950 . S
C3277 C3279 1.327 . S
C3277 C3283 1.429 . S
C3278 C3270 1.574 . S
C3278 H3273 0.949 . S
C3278 C3284 1.368 . S
C3279 C3263 1.349 . S
C3279 H3271 0.950 . S
C3279 C3277 1.327 . S
C3280 C3268 1.349 . S
C3280 H3274 0.950 . S
C3280 C3281 1.327 . S
C3281 H3275 0.950 . S
C3281 C3280 1.327 . S
C3281 C3285 1.429 . S
C3282 C3265 1.574 . S
C3282 H3276 0.949 . S
C3282 C3286 1.368 . S
C3283 C3264 1.429 . S
C3283 C3277 1.429 . S
C3283 C3284 1.523 . S
C3284 C3265 1.368 . S
C3284 C3278 1.368 . S
C3284 C3283 1.523 . S
C3285 C3269 1.429 . S
C3285 C3281 1.429 . S
C3285 C3286 1.523 . S
C3286 C3270 1.368 . S
C3286 C3282 1.368 . S
C3286 C3285 1.523 . S
H3287 C3262 0.950 . S
H3288 C3264 0.950 . S
H3289 C3265 0.949 . S
H3290 C3267 0.950 . S
H3291 C3269 0.950 . S
C3292 C3293 1.349 . S
C3292 C3294 1.327 . S
C3292 H3317 0.980 . S
C3293 C3292 1.349 . S
C3293 C3309 1.349 . S
C3294 C3292 1.327 . S
C3294 C3313 1.429 . S
C3294 H3318 0.950 . S
C3295 C3312 1.574 . S
C3295 C3314 1.368 . S
C3295 H3319 0.949 . S
H3296 C3300 0.949 . S
C3297 C3298 1.349 . S
C3297 C3299 1.327 . S
C3297 H3320 0.950 . S
C3298 C3297 1.349 . S
C3298 C3310 1.349 . S
C3299 C3297 1.327 . S
C3299 C3315 1.429 . S
C3299 H3321 0.950 . S
C3300 H3296 0.949 . S
C3300 C3308 1.574 . S
C3300 C3316 1.368 . S
H3301 C3309 0.950 . S
H3302 C3307 0.950 . S
H3303 C3308 0.949 . S
H3304 C3310 0.950 . S
H3305 C3311 0.950 . S
H3306 C3312 0.949 . S
C3307 H3302 0.950 . S
C3307 C3309 1.327 . S
C3307 C3313 1.429 . S
C3308 C3300 1.574 . S
C3308 H3303 0.949 . S
C3308 C3314 1.368 . S
C3309 C3293 1.349 . S
C3309 H3301 0.950 . S
C3309 C3307 1.327 . S
C3310 C3298 1.349 . S
C3310 H3304 0.950 . S
C3310 C3311 1.327 . S
C3311 H3305 0.950 . S
C3311 C3310 1.327 . S
C3311 C3315 1.429 . S
C3312 C3295 1.574 . S
C3312 H3306 0.949 . S
C3312 C3316 1.368 . S
C3313 C3294 1.429 . S
C3313 C3307 1.429 . S
C3313 C3314 1.523 . S
C3314 C3295 1.368 . S
C3314 C3308 1.368 . S
C3314 C3313 1.523 . S
C3315 C3299 1.429 . S
C3315 C3311 1.429 . S
C3315 C3316 1.523 . S
C3316 C3300 1.368 . S
C3316 C3312 1.368 . S
C3316 C3315 1.523 . S
H3317 C3292 0.980 . S
H3318 C3294 0.950 . S
H3319 C3295 0.949 . S
H3320 C3297 0.950 . S
H3321 C3299 0.950 . S
C3322 C3323 1.349 . S
C3322 C3324 1.327 . S
C3322 H3347 0.950 . S
C3323 C3322 1.349 . S
C3323 C3339 1.349 . S
C3324 C3322 1.327 . S
C3324 C3343 1.429 . S
C3324 H3348 0.950 . S
C3325 C3342 1.574 . S
C3325 C3344 1.368 . S
C3325 H3349 0.949 . S
H3326 C3330 0.949 . S
C3327 C3328 1.349 . S
C3327 C3329 1.327 . S
C3327 H3350 0.950 . S
C3328 C3327 1.349 . S
C3328 C3340 1.349 . S
C3329 C3327 1.327 . S
C3329 C3345 1.429 . S
C3329 H3351 0.950 . S
C3330 H3326 0.949 . S
C3330 C3338 1.574 . S
C3330 C3346 1.368 . S
H3331 C3339 0.950 . S
H3332 C3337 0.950 . S
H3333 C3338 0.949 . S
H3334 C3340 0.950 . S
H3335 C3341 0.950 . S
H3336 C3342 0.949 . S
C3337 H3332 0.950 . S
C3337 C3339 1.327 . S
C3337 C3343 1.429 . S
C3338 C3330 1.574 . S
C3338 H3333 0.949 . S
C3338 C3344 1.368 . S
C3339 C3323 1.349 . S
C3339 H3331 0.950 . S
C3339 C3337 1.327 . S
C3340 C3328 1.349 . S
C3340 H3334 0.950 . S
C3340 C3341 1.327 . S
C3341 H3335 0.950 . S
C3341 C3340 1.327 . S
C3341 C3345 1.429 . S
C3342 C3325 1.574 . S
C3342 H3336 0.949 . S
C3342 C3346 1.368 . S
C3343 C3324 1.429 . S
C3343 C3337 1.429 . S
C3343 C3344 1.523 . S
C3344 C3325 1.368 . S
C3344 C3338 1.368 . S
C3344 C3343 1.523 . S
C3345 C3329 1.429 . S
C3345 C3341 1.429 . S
C3345 C3346 1.523 . S
C3346 C3330 1.368 . S
C3346 C3342 1.368 . S
C3346 C3345 1.523 . S
H3347 C3322 0.950 . S
H3348 C3324 0.950 . S
H3349 C3325 0.949 . S
H3350 C3327 0.950 . S
H3351 C3329 0.950 . S
C3352 C3353 1.349 . S
C3352 C3354 1.327 . S
C3352 H3377 0.950 . S
C3353 C3352 1.349 . S
C3353 C3369 1.349 . S
C3354 C3352 1.327 . S
C3354 C3373 1.429 . S
C3354 H3378 0.950 . S
C3355 C3372 1.574 . S
C3355 C3374 1.368 . S
C3355 H3379 0.949 . S
H3356 C3360 0.949 . S
C3357 C3358 1.349 . S
C3357 C3359 1.327 . S
C3357 H3380 0.950 . S
C3358 C3357 1.349 . S
C3358 C3370 1.349 . S
C3359 C3357 1.327 . S
C3359 C3375 1.429 . S
C3359 H3381 0.950 . S
C3360 H3356 0.949 . S
C3360 C3368 1.574 . S
C3360 C3376 1.368 . S
H3361 C3369 0.950 . S
H3362 C3367 0.950 . S
H3363 C3368 0.949 . S
H3364 C3370 0.950 . S
H3365 C3371 0.950 . S
H3366 C3372 0.949 . S
C3367 H3362 0.950 . S
C3367 C3369 1.327 . S
C3367 C3373 1.429 . S
C3368 C3360 1.574 . S
C3368 H3363 0.949 . S
C3368 C3374 1.368 . S
C3369 C3353 1.349 . S
C3369 H3361 0.950 . S
C3369 C3367 1.327 . S
C3370 C3358 1.349 . S
C3370 H3364 0.950 . S
C3370 C3371 1.327 . S
C3371 H3365 0.950 . S
C3371 C3370 1.327 . S
C3371 C3375 1.429 . S
C3372 C3355 1.574 . S
C3372 H3366 0.949 . S
C3372 C3376 1.368 . S
C3373 C3354 1.429 . S
C3373 C3367 1.429 . S
C3373 C3374 1.523 . S
C3374 C3355 1.368 . S
C3374 C3368 1.368 . S
C3374 C3373 1.523 . S
C3375 C3359 1.429 . S
C3375 C3371 1.429 . S
C3375 C3376 1.523 . S
C3376 C3360 1.368 . S
C3376 C3372 1.368 . S
C3376 C3375 1.523 . S
H3377 C3352 0.950 . S
H3378 C3354 0.950 . S
H3379 C3355 0.949 . S
H3380 C3357 0.950 . S
H3381 C3359 0.950 . S
C3382 C3383 1.349 . S
C3382 C3384 1.327 . S
C3382 H3407 0.950 . S
C3383 C3382 1.349 . S
C3383 C3399 1.349 . S
C3384 C3382 1.327 . S
C3384 C3403 1.429 . S
C3384 H3408 0.950 . S
C3385 C3402 1.574 . S
C3385 C3404 1.368 . S
C3385 H3409 0.949 . S
H3386 C3390 0.949 . S
C3387 C3388 1.349 . S
C3387 C3389 1.327 . S
C3387 H3410 0.950 . S
C3388 C3387 1.349 . S
C3388 C3400 1.349 . S
C3389 C3387 1.327 . S
C3389 C3405 1.429 . S
C3389 H3411 0.950 . S
C3390 H3386 0.949 . S
C3390 C3398 1.574 . S
C3390 C3406 1.368 . S
H3391 C3399 0.950 . S
H3392 C3397 0.950 . S
H3393 C3398 0.949 . S
H3394 C3400 0.950 . S
H3395 C3401 0.950 . S
H3396 C3402 0.949 . S
C3397 H3392 0.950 . S
C3397 C3399 1.327 . S
C3397 C3403 1.429 . S
C3398 C3390 1.574 . S
C3398 H3393 0.949 . S
C3398 C3404 1.368 . S
C3399 C3383 1.349 . S
C3399 H3391 0.950 . S
C3399 C3397 1.327 . S
C3400 C3388 1.349 . S
C3400 H3394 0.950 . S
C3400 C3401 1.327 . S
C3401 H3395 0.950 . S
C3401 C3400 1.327 . S
C3401 C3405 1.429 . S
C3402 C3385 1.574 . S
C3402 H3396 0.949 . S
C3402 C3406 1.368 . S
C3403 C3384 1.429 . S
C3403 C3397 1.429 . S
C3403 C3404 1.523 . S
C3404 C3385 1.368 . S
C3404 C3398 1.368 . S
C3404 C3403 1.523 . S
C3405 C3389 1.429 . S
C3405 C3401 1.429 . S
C3405 C3406 1.523 . S
C3406 C3390 1.368 . S
C3406 C3402 1.368 . S
C3406 C3405 1.523 . S
H3407 C3382 0.950 . S
H3408 C3384 0.950 . S
H3409 C3385 0.949 . S
H3410 C3387 0.950 . S
H3411 C3389 0.950 . S
C3412 C3413 1.349 . S
C3412 C3414 1.327 . S
C3412 H3437 0.950 . S
C3413 C3412 1.349 . S
C3413 C3429 1.349 . S
C3414 C3412 1.327 . S
C3414 C3433 1.429 . S
C3414 H3438 0.950 . S
C3415 C3432 1.574 1_655 S
C3415 C3434 1.368 . S
C3415 H3439 0.949 . S
H3416 C3420 0.949 . S
C3417 C3418 1.349 . S
C3417 C3419 1.327 . S
C3417 H3440 0.950 . S
C3418 C3417 1.349 . S
C3418 C3430 1.349 . S
C3419 C3417 1.327 . S
C3419 C3435 1.429 . S
C3419 H3441 0.950 . S
C3420 H3416 0.949 . S
C3420 C3428 1.574 . S
C3420 C3436 1.352 1_655 S
H3421 C3429 0.950 . S
H3422 C3427 0.950 . S
H3423 C3428 0.949 . S
H3424 C3430 0.950 . S
H3425 C3431 0.950 . S
H3426 C3432 0.949 . S
C3427 H3422 0.950 . S
C3427 C3429 1.327 . S
C3427 C3433 1.429 . S
C3428 C3420 1.574 . S
C3428 H3423 0.949 . S
C3428 C3434 1.368 . S
C3429 C3413 1.349 . S
C3429 H3421 0.950 . S
C3429 C3427 1.327 . S
C3430 C3418 1.349 . S
C3430 H3424 0.950 . S
C3430 C3431 1.327 . S
C3431 H3425 0.950 . S
C3431 C3430 1.327 . S
C3431 C3435 1.429 . S
C3432 C3415 1.574 1_455 S
C3432 H3426 0.949 . S
C3432 C3436 1.377 . S
C3433 C3414 1.429 . S
C3433 C3427 1.429 . S
C3433 C3434 1.523 . S
C3434 C3415 1.368 . S
C3434 C3428 1.368 . S
C3434 C3433 1.523 . S
C3435 C3419 1.429 . S
C3435 C3431 1.429 . S
C3435 C3436 1.533 . S
C3436 C3420 1.352 1_455 S
C3436 C3432 1.377 . S
C3436 C3435 1.533 . S
H3437 C3412 0.950 . S
H3438 C3414 0.950 . S
H3439 C3415 0.949 . S
H3440 C3417 0.950 . S
H3441 C3419 0.950 . S
C3442 C3443 1.349 . S
C3442 C3444 1.327 . S
C3442 H3467 0.950 . S
C3443 C3442 1.349 . S
C3443 C3459 1.349 . S
C3444 C3442 1.327 . S
C3444 C3463 1.429 . S
C3444 H3468 0.950 . S
C3445 C3462 1.574 . S
C3445 C3464 1.368 . S
C3445 H3469 0.949 . S
H3446 C3450 0.949 . S
C3447 C3448 1.349 . S
C3447 C3449 1.327 . S
C3447 H3470 0.950 . S
C3448 C3447 1.349 . S
C3448 C3460 1.349 . S
C3449 C3447 1.327 . S
C3449 C3465 1.429 . S
C3449 H3471 0.950 . S
C3450 H3446 0.949 . S
C3450 C3458 1.574 . S
C3450 C3466 1.368 . S
H3451 C3459 0.950 . S
H3452 C3457 0.950 . S
H3453 C3458 0.949 . S
H3454 C3460 0.950 . S
H3455 C3461 0.950 . S
H3456 C3462 0.949 . S
C3457 H3452 0.950 . S
C3457 C3459 1.327 . S
C3457 C3463 1.429 . S
C3458 C3450 1.574 . S
C3458 H3453 0.949 . S
C3458 C3464 1.368 . S
C3459 C3443 1.349 . S
C3459 H3451 0.950 . S
C3459 C3457 1.327 . S
C3460 C3448 1.349 . S
C3460 H3454 0.950 . S
C3460 C3461 1.327 . S
C3461 H3455 0.950 . S
C3461 C3460 1.327 . S
C3461 C3465 1.429 . S
C3462 C3445 1.574 . S
C3462 H3456 0.949 . S
C3462 C3466 1.368 . S
C3463 C3444 1.429 . S
C3463 C3457 1.429 . S
C3463 C3464 1.523 . S
C3464 C3445 1.368 . S
C3464 C3458 1.368 . S
C3464 C3463 1.523 . S
C3465 C3449 1.429 . S
C3465 C3461 1.429 . S
C3465 C3466 1.523 . S
C3466 C3450 1.368 . S
C3466 C3462 1.368 . S
C3466 C3465 1.523 . S
H3467 C3442 0.950 . S
H3468 C3444 0.950 . S
H3469 C3445 0.949 . S
H3470 C3447 0.950 . S
H3471 C3449 0.950 . S
C3472 C3473 1.349 . S
C3472 C3474 1.327 . S
C3472 H3497 0.950 . S
C3473 C3472 1.349 . S
C3473 C3489 1.349 . S
C3474 C3472 1.327 . S
C3474 C3493 1.429 . S
C3474 H3498 0.950 . S
C3475 C3492 1.574 . S
C3475 C3494 1.368 . S
C3475 H3499 0.949 . S
H3476 C3480 0.949 . S
C3477 C3478 1.349 . S
C3477 C3479 1.327 . S
C3477 H3500 0.950 . S
C3478 C3477 1.349 . S
C3478 C3490 1.349 . S
C3479 C3477 1.327 . S
C3479 C3495 1.429 . S
C3479 H3501 0.950 . S
C3480 H3476 0.949 . S
C3480 C3488 1.574 . S
C3480 C3496 1.368 . S
H3481 C3489 0.950 . S
H3482 C3487 0.950 . S
H3483 C3488 0.949 . S
H3484 C3490 0.950 . S
H3485 C3491 0.950 . S
H3486 C3492 0.949 . S
C3487 H3482 0.950 . S
C3487 C3489 1.327 . S
C3487 C3493 1.429 . S
C3488 C3480 1.574 . S
C3488 H3483 0.949 . S
C3488 C3494 1.368 . S
C3489 C3473 1.349 . S
C3489 H3481 0.950 . S
C3489 C3487 1.327 . S
C3490 C3478 1.349 . S
C3490 H3484 0.950 . S
C3490 C3491 1.327 . S
C3491 H3485 0.950 . S
C3491 C3490 1.327 . S
C3491 C3495 1.429 . S
C3492 C3475 1.574 . S
C3492 H3486 0.949 . S
C3492 C3496 1.368 . S
C3493 C3474 1.429 . S
C3493 C3487 1.429 . S
C3493 C3494 1.523 . S
C3494 C3475 1.368 . S
C3494 C3488 1.368 . S
C3494 C3493 1.523 . S
C3495 C3479 1.429 . S
C3495 C3491 1.429 . S
C3495 C3496 1.523 . S
C3496 C3480 1.368 . S
C3496 C3492 1.368 . S
C3496 C3495 1.523 . S
H3497 C3472 0.950 . S
H3498 C3474 0.950 . S
H3499 C3475 0.949 . S
H3500 C3477 0.950 . S
H3501 C3479 0.950 . S
C3502 C3503 1.349 . S
C3502 C3504 1.327 . S
C3502 H3527 0.950 . S
C3503 C3502 1.349 . S
C3503 C3519 1.349 . S
C3504 C3502 1.327 . S
C3504 C3523 1.429 . S
C3504 H3528 0.950 . S
C3505 C3522 1.574 . S
C3505 C3524 1.368 . S
C3505 H3529 0.949 . S
H3506 C3510 0.949 . S
C3507 C3508 1.349 . S
C3507 C3509 1.327 . S
C3507 H3530 0.950 . S
C3508 C3507 1.349 . S
C3508 C3520 1.349 . S
C3509 C3507 1.327 . S
C3509 C3525 1.429 . S
C3509 H3531 0.950 . S
C3510 H3506 0.949 . S
C3510 C3518 1.574 . S
C3510 C3526 1.368 . S
H3511 C3519 0.950 . S
H3512 C3517 0.950 . S
H3513 C3518 0.949 . S
H3514 C3520 0.950 . S
H3515 C3521 0.950 . S
H3516 C3522 0.949 . S
C3517 H3512 0.950 . S
C3517 C3519 1.327 . S
C3517 C3523 1.429 . S
C3518 C3510 1.574 . S
C3518 H3513 0.949 . S
C3518 C3524 1.368 . S
C3519 C3503 1.349 . S
C3519 H3511 0.950 . S
C3519 C3517 1.327 . S
C3520 C3508 1.349 . S
C3520 H3514 0.950 . S
C3520 C3521 1.327 . S
C3521 H3515 0.950 . S
C3521 C3520 1.327 . S
C3521 C3525 1.429 . S
C3522 C3505 1.574 . S
C3522 H3516 0.949 . S
C3522 C3526 1.368 . S
C3523 C3504 1.429 . S
C3523 C3517 1.429 . S
C3523 C3524 1.523 . S
C3524 C3505 1.368 . S
C3524 C3518 1.368 . S
C3524 C3523 1.523 . S
C3525 C3509 1.429 . S
C3525 C3521 1.429 . S
C3525 C3526 1.523 . S
C3526 C3510 1.368 . S
C3526 C3522 1.368 . S
C3526 C3525 1.523 . S
H3527 C3502 0.950 . S
H3528 C3504 0.950 . S
H3529 C3505 0.949 . S
H3530 C3507 0.950 . S
H3531 C3509 0.950 . S
C3532 C3533 1.349 . S
C3532 C3534 1.327 . S
C3532 H3557 0.950 . S
C3533 C3532 1.349 . S
C3533 C3549 1.349 . S
C3534 C3532 1.327 . S
C3534 C3553 1.429 . S
C3534 H3558 0.950 . S
C3535 C3552 1.574 . S
C3535 C3554 1.368 . S
C3535 H3559 0.949 . S
H3536 C3540 0.949 . S
C3537 C3538 1.349 . S
C3537 C3539 1.327 . S
C3537 H3560 0.950 . S
C3538 C3537 1.349 . S
C3538 C3550 1.343 . S
C3539 C3537 1.327 . S
C3539 C3555 1.429 . S
C3539 H3561 0.950 . S
C3540 H3536 0.949 . S
C3540 C3548 1.574 . S
C3540 C3556 1.368 . S
H3541 C3549 0.950 . S
H3542 C3547 0.950 . S
H3543 C3548 0.949 . S
H3544 C3550 0.937 1_455 S
H3545 C3551 0.950 . S
H3546 C3552 0.949 . S
C3547 H3542 0.950 . S
C3547 C3549 1.327 . S
C3547 C3553 1.429 . S
C3548 C3540 1.574 . S
C3548 H3543 0.949 . S
C3548 C3554 1.368 . S
C3549 C3533 1.349 . S
C3549 H3541 0.950 . S
C3549 C3547 1.327 . S
C3550 C3538 1.343 . S
C3550 H3544 0.937 1_655 S
C3550 C3551 1.348 . S
C3551 H3545 0.950 . S
C3551 C3550 1.348 . S
C3551 C3555 1.429 . S
C3552 C3535 1.574 . S
C3552 H3546 0.949 . S
C3552 C3556 1.368 . S
C3553 C3534 1.429 . S
C3553 C3547 1.429 . S
C3553 C3554 1.523 . S
C3554 C3535 1.368 . S
C3554 C3548 1.368 . S
C3554 C3553 1.523 . S
C3555 C3539 1.429 . S
C3555 C3551 1.429 . S
C3555 C3556 1.523 . S
C3556 C3540 1.368 . S
C3556 C3552 1.368 . S
C3556 C3555 1.523 . S
H3557 C3532 0.950 . S
H3558 C3534 0.950 . S
H3559 C3535 0.949 . S
H3560 C3537 0.950 . S
H3561 C3539 0.950 . S
C3562 C3563 1.349 . S
C3562 C3564 1.327 . S
C3562 H3587 0.950 . S
C3563 C3562 1.349 . S
C3563 C3579 1.349 . S
C3564 C3562 1.327 . S
C3564 C3583 1.429 . S
C3564 H3588 0.950 . S
C3565 C3582 1.574 . S
C3565 C3584 1.368 . S
C3565 H3589 0.949 . S
H3566 C3570 0.949 . S
C3567 C3568 1.349 . S
C3567 C3569 1.327 . S
C3567 H3590 0.950 . S
C3568 C3567 1.349 . S
C3568 C3580 1.349 . S
C3569 C3567 1.327 . S
C3569 C3585 1.429 . S
C3569 H3591 0.950 . S
C3570 H3566 0.949 . S
C3570 C3578 1.574 . S
C3570 C3586 1.368 . S
H3571 C3579 0.950 . S
H3572 C3577 0.950 . S
H3573 C3578 0.949 . S
H3574 C3580 0.950 . S
H3575 C3581 0.950 . S
H3576 C3582 0.949 . S
C3577 H3572 0.950 . S
C3577 C3579 1.327 . S
C3577 C3583 1.429 . S
C3578 C3570 1.574 . S
C3578 H3573 0.949 . S
C3578 C3584 1.368 . S
C3579 C3563 1.349 . S
C3579 H3571 0.950 . S
C3579 C3577 1.327 . S
C3580 C3568 1.349 . S
C3580 H3574 0.950 . S
C3580 C3581 1.327 . S
C3581 H3575 0.950 . S
C3581 C3580 1.327 . S
C3581 C3585 1.429 . S
C3582 C3565 1.574 . S
C3582 H3576 0.949 . S
C3582 C3586 1.368 . S
C3583 C3564 1.429 . S
C3583 C3577 1.429 . S
C3583 C3584 1.523 . S
C3584 C3565 1.368 . S
C3584 C3578 1.368 . S
C3584 C3583 1.523 . S
C3585 C3569 1.429 . S
C3585 C3581 1.429 . S
C3585 C3586 1.523 . S
C3586 C3570 1.368 . S
C3586 C3582 1.368 . S
C3586 C3585 1.523 . S
H3587 C3562 0.950 . S
H3588 C3564 0.950 . S
H3589 C3565 0.949 . S
H3590 C3567 0.950 . S
H3591 C3569 0.950 . S
C3592 C3593 1.349 . S
C3592 C3594 1.327 . S
C3592 H3617 0.950 . S
C3593 C3592 1.349 . S
C3593 C3609 1.349 . S
C3594 C3592 1.327 . S
C3594 C3613 1.429 . S
C3594 H3618 0.950 . S
C3595 C3612 1.574 . S
C3595 C3614 1.368 . S
C3595 H3619 0.949 . S
H3596 C3600 0.949 . S
C3597 C3598 1.349 . S
C3597 C3599 1.327 . S
C3597 H3620 0.950 . S
C3598 C3597 1.349 . S
C3598 C3610 1.349 . S
C3599 C3597 1.327 . S
C3599 C3615 1.429 . S
C3599 H3621 0.950 . S
C3600 H3596 0.949 . S
C3600 C3608 1.574 . S
C3600 C3616 1.368 . S
H3601 C3609 0.950 . S
H3602 C3607 0.950 . S
H3603 C3608 0.949 . S
H3604 C3610 0.950 . S
H3605 C3611 0.950 . S
H3606 C3612 0.949 . S
C3607 H3602 0.950 . S
C3607 C3609 1.327 . S
C3607 C3613 1.429 . S
C3608 C3600 1.574 . S
C3608 H3603 0.949 . S
C3608 C3614 1.368 . S
C3609 C3593 1.349 . S
C3609 H3601 0.950 . S
C3609 C3607 1.327 . S
C3610 C3598 1.349 . S
C3610 H3604 0.950 . S
C3610 C3611 1.327 . S
C3611 H3605 0.950 . S
C3611 C3610 1.327 . S
C3611 C3615 1.429 . S
C3612 C3595 1.574 . S
C3612 H3606 0.949 . S
C3612 C3616 1.368 . S
C3613 C3594 1.429 . S
C3613 C3607 1.429 . S
C3613 C3614 1.523 . S
C3614 C3595 1.368 . S
C3614 C3608 1.368 . S
C3614 C3613 1.523 . S
C3615 C3599 1.429 . S
C3615 C3611 1.429 . S
C3615 C3616 1.523 . S
C3616 C3600 1.368 . S
C3616 C3612 1.368 . S
C3616 C3615 1.523 . S
H3617 C3592 0.950 . S
H3618 C3594 0.950 . S
H3619 C3595 0.949 . S
H3620 C3597 0.950 . S
H3621 C3599 0.950 . S
C3622 C3623 1.349 . S
C3622 C3624 1.327 . S
C3622 H3647 0.950 . S
C3623 C3622 1.349 . S
C3623 C3639 1.349 . S
C3624 C3622 1.327 . S
C3624 C3643 1.429 . S
C3624 H3648 0.950 . S
C3625 C3642 1.574 1_565 S
C3625 C3644 1.368 . S
C3625 H3649 0.949 . S
H3626 C3630 0.948 . S
C3627 C3628 1.349 . S
C3627 C3629 1.327 . S
C3627 H3650 0.950 . S
C3628 C3627 1.349 . S
C3628 C3640 1.349 . S
C3629 C3627 1.327 . S
C3629 C3645 1.429 . S
C3629 H3651 0.950 . S
C3630 H3626 0.948 . S
C3630 C3638 1.567 1_545 S
C3630 C3646 1.376 . S
H3631 C3639 0.950 . S
H3632 C3637 0.950 . S
H3633 C3638 0.949 . S
H3634 C3640 0.950 . S
H3635 C3641 0.950 . S
H3636 C3642 0.949 . S
C3637 H3632 0.950 . S
C3637 C3639 1.327 . S
C3637 C3643 1.429 . S
C3638 C3630 1.567 1_565 S
C3638 H3633 0.949 . S
C3638 C3644 1.368 . S
C3639 C3623 1.349 . S
C3639 H3631 0.950 . S
C3639 C3637 1.327 . S
C3640 C3628 1.349 . S
C3640 H3634 0.950 . S
C3640 C3641 1.327 . S
C3641 H3635 0.950 . S
C3641 C3640 1.327 . S
C3641 C3645 1.429 . S
C3642 C3625 1.574 1_545 S
C3642 H3636 0.949 . S
C3642 C3646 1.368 . S
C3643 C3624 1.429 . S
C3643 C3637 1.429 . S
C3643 C3644 1.523 . S
C3644 C3625 1.368 . S
C3644 C3638 1.368 . S
C3644 C3643 1.523 . S
C3645 C3629 1.429 . S
C3645 C3641 1.429 . S
C3645 C3646 1.523 . S
C3646 C3630 1.376 . S
C3646 C3642 1.368 . S
C3646 C3645 1.523 . S
H3647 C3622 0.950 . S
H3648 C3624 0.950 . S
H3649 C3625 0.949 . S
H3650 C3627 0.950 . S
H3651 C3629 0.950 . S
C3652 C3653 1.349 . S
C3652 C3654 1.327 . S
C3652 H3677 0.950 . S
C3653 C3652 1.349 . S
C3653 C3669 1.349 . S
C3654 C3652 1.327 . S
C3654 C3673 1.429 . S
C3654 H3678 0.950 . S
C3655 C3672 1.574 . S
C3655 C3674 1.368 . S
C3655 H3679 0.949 . S
H3656 C3660 0.949 . S
C3657 C3658 1.349 . S
C3657 C3659 1.327 . S
C3657 H3680 0.950 . S
C3658 C3657 1.349 . S
C3658 C3670 1.349 . S
C3659 C3657 1.327 . S
C3659 C3675 1.429 . S
C3659 H3681 0.950 . S
C3660 H3656 0.949 . S
C3660 C3668 1.574 . S
C3660 C3676 1.368 . S
H3661 C3669 0.950 . S
H3662 C3667 0.950 . S
H3663 C3668 0.949 . S
H3664 C3670 0.950 . S
H3665 C3671 0.950 . S
H3666 C3672 0.949 . S
C3667 H3662 0.950 . S
C3667 C3669 1.327 . S
C3667 C3673 1.429 . S
C3668 C3660 1.574 . S
C3668 H3663 0.949 . S
C3668 C3674 1.368 . S
C3669 C3653 1.349 . S
C3669 H3661 0.950 . S
C3669 C3667 1.327 . S
C3670 C3658 1.349 . S
C3670 H3664 0.950 . S
C3670 C3671 1.327 . S
C3671 H3665 0.950 . S
C3671 C3670 1.327 . S
C3671 C3675 1.429 . S
C3672 C3655 1.574 . S
C3672 H3666 0.949 . S
C3672 C3676 1.368 . S
C3673 C3654 1.429 . S
C3673 C3667 1.429 . S
C3673 C3674 1.523 . S
C3674 C3655 1.368 . S
C3674 C3668 1.368 . S
C3674 C3673 1.523 . S
C3675 C3659 1.429 . S
C3675 C3671 1.429 . S
C3675 C3676 1.523 . S
C3676 C3660 1.368 . S
C3676 C3672 1.368 . S
C3676 C3675 1.523 . S
H3677 C3652 0.950 . S
H3678 C3654 0.950 . S
H3679 C3655 0.949 . S
H3680 C3657 0.950 . S
H3681 C3659 0.950 . S
C3682 C3683 1.349 . S
C3682 C3684 1.327 . S
C3682 H3707 0.950 . S
C3683 C3682 1.349 . S
C3683 C3699 1.349 1_556 S
C3684 C3682 1.327 . S
C3684 C3703 1.429 1_556 S
C3684 H3708 0.950 . S
C3685 C3702 1.574 . S
C3685 C3704 1.368 . S
C3685 H3709 0.949 . S
H3686 C3690 0.952 . S
C3687 C3688 1.349 . S
C3687 C3689 1.327 . S
C3687 H3710 0.950 . S
C3688 C3687 1.349 . S
C3688 C3700 1.349 . S
C3689 C3687 1.327 . S
C3689 C3705 1.429 . S
C3689 H3711 0.950 . S
C3690 H3686 0.952 . S
C3690 C3698 1.577 . S
C3690 C3706 1.361 1_556 S
H3691 C3699 0.950 . S
H3692 C3697 0.950 . S
H3693 C3698 0.949 . S
H3694 C3700 0.950 . S
H3695 C3701 0.950 1_556 S
H3696 C3702 0.949 . S
C3697 H3692 0.950 . S
C3697 C3699 1.327 . S
C3697 C3703 1.429 . S
C3698 C3690 1.577 . S
C3698 H3693 0.949 . S
C3698 C3704 1.368 1_556 S
C3699 C3683 1.349 1_554 S
C3699 H3691 0.950 . S
C3699 C3697 1.327 . S
C3700 C3688 1.349 . S
C3700 H3694 0.950 . S
C3700 C3701 1.327 . S
C3701 H3695 0.950 1_554 S
C3701 C3700 1.327 . S
C3701 C3705 1.429 . S
C3702 C3685 1.574 . S
C3702 H3696 0.949 . S
C3702 C3706 1.368 . S
C3703 C3684 1.429 1_554 S
C3703 C3697 1.429 . S
C3703 C3704 1.523 . S
C3704 C3685 1.368 . S
C3704 C3698 1.368 1_554 S
C3704 C3703 1.523 . S
C3705 C3689 1.429 . S
C3705 C3701 1.429 . S
C3705 C3706 1.523 . S
C3706 C3690 1.361 1_554 S
C3706 C3702 1.368 . S
C3706 C3705 1.523 . S
H3707 C3682 0.950 . S
H3708 C3684 0.950 . S
H3709 C3685 0.949 . S
H3710 C3687 0.950 . S
H3711 C3689 0.950 . S
C3712 C3713 1.349 . S
C3712 C3714 1.327 . S
C3712 H3737 0.950 . S
C3713 C3712 1.349 . S
C3713 C3729 1.349 . S
C3714 C3712 1.327 . S
C3714 C3733 1.429 . S
C3714 H3738 0.950 . S
C3715 C3732 1.574 . S
C3715 C3734 1.368 . S
C3715 H3739 0.949 . S
H3716 C3720 0.949 . S
C3717 C3718 1.349 . S
C3717 C3719 1.327 . S
C3717 H3740 0.950 . S
C3718 C3717 1.349 . S
C3718 C3730 1.349 . S
C3719 C3717 1.327 . S
C3719 C3735 1.429 . S
C3719 H3741 0.950 . S
C3720 H3716 0.949 . S
C3720 C3728 1.574 . S
C3720 C3736 1.368 . S
H3721 C3729 0.950 . S
H3722 C3727 0.950 . S
H3723 C3728 0.949 . S
H3724 C3730 0.950 . S
H3725 C3731 0.950 . S
H3726 C3732 0.949 . S
C3727 H3722 0.950 . S
C3727 C3729 1.327 . S
C3727 C3733 1.429 . S
C3728 C3720 1.574 . S
C3728 H3723 0.949 . S
C3728 C3734 1.368 . S
C3729 C3713 1.349 . S
C3729 H3721 0.950 . S
C3729 C3727 1.327 . S
C3730 C3718 1.349 . S
C3730 H3724 0.950 . S
C3730 C3731 1.327 . S
C3731 H3725 0.950 . S
C3731 C3730 1.327 . S
C3731 C3735 1.429 . S
C3732 C3715 1.574 . S
C3732 H3726 0.949 . S
C3732 C3736 1.368 . S
C3733 C3714 1.429 . S
C3733 C3727 1.429 . S
C3733 C3734 1.523 . S
C3734 C3715 1.368 . S
C3734 C3728 1.368 . S
C3734 C3733 1.523 . S
C3735 C3719 1.429 . S
C3735 C3731 1.429 . S
C3735 C3736 1.523 . S
C3736 C3720 1.368 . S
C3736 C3732 1.368 . S
C3736 C3735 1.523 . S
H3737 C3712 0.950 . S
H3738 C3714 0.950 . S
H3739 C3715 0.949 . S
H3740 C3717 0.950 . S
H3741 C3719 0.950 . S
C3742 C3743 1.349 . S
C3742 C3744 1.327 . S
C3742 H3767 0.950 . S
C3743 C3742 1.349 . S
C3743 C3759 1.349 . S
C3744 C3742 1.327 . S
C3744 C3763 1.429 . S
C3744 H3768 0.950 . S
C3745 C3762 1.574 . S
C3745 C3764 1.368 1_556 S
C3745 H3769 0.949 . S
H3746 C3750 0.949 . S
C3747 C3748 1.349 . S
C3747 C3749 1.327 . S
C3747 H3770 0.950 . S
C3748 C3747 1.349 . S
C3748 C3760 1.349 1_556 S
C3749 C3747 1.327 . S
C3749 C3765 1.429 1_556 S
C3749 H3771 0.950 . S
C3750 H3746 0.949 . S
C3750 C3758 1.574 . S
C3750 C3766 1.368 . S
H3751 C3759 0.950 1_556 S
H3752 C3757 0.950 1_556 S
H3753 C3758 0.949 . S
H3754 C3760 0.950 . S
H3755 C3761 0.950 . S
H3756 C3762 0.949 . S
C3757 H3752 0.950 1_554 S
C3757 C3759 1.327 . S
C3757 C3763 1.429 . S
C3758 C3750 1.574 . S
C3758 H3753 0.949 . S
C3758 C3764 1.368 . S
C3759 C3743 1.349 . S
C3759 H3751 0.950 1_554 S
C3759 C3757 1.327 . S
C3760 C3748 1.349 1_554 S
C3760 H3754 0.950 . S
C3760 C3761 1.327 . S
C3761 H3755 0.950 . S
C3761 C3760 1.327 . S
C3761 C3765 1.429 . S
C3762 C3745 1.574 . S
C3762 H3756 0.949 . S
C3762 C3766 1.368 1_556 S
C3763 C3744 1.429 . S
C3763 C3757 1.429 . S
C3763 C3764 1.523 . S
C3764 C3745 1.368 1_554 S
C3764 C3758 1.368 . S
C3764 C3763 1.523 . S
C3765 C3749 1.429 1_554 S
C3765 C3761 1.429 . S
C3765 C3766 1.523 . S
C3766 C3750 1.368 . S
C3766 C3762 1.368 1_554 S
C3766 C3765 1.523 . S
H3767 C3742 0.950 . S
H3768 C3744 0.950 . S
H3769 C3745 0.949 . S
H3770 C3747 0.950 . S
H3771 C3749 0.950 . S
C3772 C3773 1.349 . S
C3772 C3774 1.327 . S
C3772 H3797 0.950 . S
C3773 C3772 1.349 . S
C3773 C3789 1.349 . S
C3774 C3772 1.327 . S
C3774 C3793 1.429 . S
C3774 H3798 0.950 . S
C3775 C3792 1.574 . S
C3775 C3794 1.368 . S
C3775 H3799 0.949 . S
H3776 C3780 0.949 . S
C3777 C3778 1.349 . S
C3777 C3779 1.327 . S
C3777 H3800 0.950 . S
C3778 C3777 1.349 . S
C3778 C3790 1.349 . S
C3779 C3777 1.327 . S
C3779 C3795 1.429 . S
C3779 H3801 0.950 . S
C3780 H3776 0.949 . S
C3780 C3788 1.574 . S
C3780 C3796 1.368 . S
H3781 C3789 0.950 1_545 S
H3782 C3787 0.950 . S
H3783 C3788 0.949 . S
H3784 C3790 0.950 . S
H3785 C3791 0.950 . S
H3786 C3792 0.949 . S
C3787 H3782 0.950 . S
C3787 C3789 1.327 . S
C3787 C3793 1.429 . S
C3788 C3780 1.574 . S
C3788 H3783 0.949 . S
C3788 C3794 1.368 . S
C3789 C3773 1.349 . S
C3789 H3781 0.950 1_565 S
C3789 C3787 1.327 . S
C3790 C3778 1.349 . S
C3790 H3784 0.950 . S
C3790 C3791 1.327 . S
C3791 H3785 0.950 . S
C3791 C3790 1.327 . S
C3791 C3795 1.429 . S
C3792 C3775 1.574 . S
C3792 H3786 0.949 . S
C3792 C3796 1.368 . S
C3793 C3774 1.429 . S
C3793 C3787 1.429 . S
C3793 C3794 1.523 . S
C3794 C3775 1.368 . S
C3794 C3788 1.368 . S
C3794 C3793 1.523 . S
C3795 C3779 1.429 . S
C3795 C3791 1.429 . S
C3795 C3796 1.523 . S
C3796 C3780 1.368 . S
C3796 C3792 1.368 . S
C3796 C3795 1.523 . S
H3797 C3772 0.950 . S
H3798 C3774 0.950 . S
H3799 C3775 0.949 . S
H3800 C3777 0.950 . S
H3801 C3779 0.950 . S
C3802 C3803 1.349 . S
C3802 C3804 1.327 . S
C3802 H3827 0.950 . S
C3803 C3802 1.349 . S
C3803 C3819 1.349 . S
C3804 C3802 1.327 . S
C3804 C3823 1.429 . S
C3804 H3828 0.950 . S
C3805 C3822 1.574 . S
C3805 C3824 1.368 . S
C3805 H3829 0.949 . S
H3806 C3810 0.949 . S
C3807 C3808 1.349 . S
C3807 C3809 1.327 . S
C3807 H3830 0.950 . S
C3808 C3807 1.349 . S
C3808 C3820 1.349 . S
C3809 C3807 1.327 . S
C3809 C3825 1.429 . S
C3809 H3831 0.950 . S
C3810 H3806 0.949 . S
C3810 C3818 1.574 . S
C3810 C3826 1.368 . S
H3811 C3819 0.950 . S
H3812 C3817 0.950 . S
H3813 C3818 0.949 . S
H3814 C3820 0.950 . S
H3815 C3821 0.950 . S
H3816 C3822 0.949 . S
C3817 H3812 0.950 . S
C3817 C3819 1.327 . S
C3817 C3823 1.429 . S
C3818 C3810 1.574 . S
C3818 H3813 0.949 . S
C3818 C3824 1.368 . S
C3819 C3803 1.349 . S
C3819 H3811 0.950 . S
C3819 C3817 1.327 . S
C3820 C3808 1.349 . S
C3820 H3814 0.950 . S
C3820 C3821 1.327 . S
C3821 H3815 0.950 . S
C3821 C3820 1.327 . S
C3821 C3825 1.429 . S
C3822 C3805 1.574 . S
C3822 H3816 0.949 . S
C3822 C3826 1.368 . S
C3823 C3804 1.429 . S
C3823 C3817 1.429 . S
C3823 C3824 1.523 . S
C3824 C3805 1.368 . S
C3824 C3818 1.368 . S
C3824 C3823 1.523 . S
C3825 C3809 1.429 . S
C3825 C3821 1.429 . S
C3825 C3826 1.523 . S
C3826 C3810 1.368 . S
C3826 C3822 1.368 . S
C3826 C3825 1.523 . S
H3827 C3802 0.950 . S
H3828 C3804 0.950 . S
H3829 C3805 0.949 . S
H3830 C3807 0.950 . S
H3831 C3809 0.950 . S
C953 C101 2.165 . S
C958 C322 2.119 . S
C983 C57 1.721 . S
C988 C361 1.728 . S
C1013 C73 1.270 . S
C1018 C402 1.312 . S
C1048 C447 1.377 . S
C1043 C78 1.349 . S
C1073 C21 2.132 . S
C1078 C491 2.117 . S
C1108 C522 1.194 . S
C1103 C31 1.202 . S
C1138 C570 1.977 . S
C1133 C49 1.991 . S
C1163 C0 1.474 . S
C1168 C598 1.488 . S
C1198 C330 1.295 . S
C1193 C218 1.289 . S
C1223 C229 1.294 . S
C1228 C371 1.279 . S
C1258 C410 1.411 . S
C1253 C257 1.414 . S
C1288 C442 1.334 . S
C1283 C164 1.280 . S
C1313 C216 0.381 . S
C1318 C478 0.159 . S
C1348 C530 2.258 . S
C1343 C231 2.283 . S
C1378 C567 0.672 . S
C1373 C255 0.696 1_565 S
C1408 C601 1.874 . S
C1403 C166 1.892 . S
C1438 C327 1.750 . S
C1433 C143 1.721 . S
C1463 C265 1.957 . S
C1468 C641 1.967 . S
C1498 C687 0.969 . S
C1493 C299 0.936 . S
C1528 C722 1.410 1_655 S
C1523 C291 1.423 . S
C1553 C104 1.675 . S
C1558 C611 1.656 . S
C1583 C117 1.281 . S
C1588 C407 1.308 . S
C1613 C304 1.188 . S
C1618 C770 1.226 . S
C1648 C798 0.240 . S
C1643 C278 0.316 . S
C1678 C331 2.051 1_565 S
C1673 C60 2.091 . S
C1708 C810 1.638 . S
C1703 C96 1.657 . S
C1733 C88 1.173 . S
C1738 C411 1.162 . S
C1763 C65 1.310 . S
C1768 C758 1.313 . S
C1798 C482 1.961 . S
C1793 C10 1.988 . S
C1823 C44 1.126 . S
C1828 C691 1.130 . S
C1858 C561 1.842 1_565 S
C1853 C34 1.848 . S
C1888 C847 1.484 . S
C1883 C13 1.505 . S
C1918 C321 1.249 . S
C1913 C138 1.245 . S
C1948 C802 1.110 . S
C1943 C296 1.139 . S
C1973 C112 1.213 . S
C1978 C401 1.304 . S
C2003 C270 1.195 . S
C2008 C771 1.186 . S
C2033 C140 0.185 . S
C2038 C487 0.209 . S
C2068 C681 2.163 . S
C2063 C294 2.121 . S
C2093 C114 0.638 . S
C2098 C558 0.647 . S
C2123 C268 1.800 . S
C2128 C850 1.815 . S
C2153 C169 1.780 1_556 S
C2158 C318 1.742 . S
C2183 C161 1.891 . S
C2188 C650 1.878 . S
C2213 C234 0.982 . S
C2218 C518 0.956 . S
C2243 C226 1.307 . S
C2248 C731 1.310 . S
C2278 C842 1.611 . S
C2273 C247 1.674 . S
C2303 C195 1.262 . S
C2308 C398 1.252 . S
C2338 C441 1.115 . S
C2333 C239 1.113 . S
C2368 C367 0.198 . S
C2363 C187 0.264 . S
C2393 C75 2.165 . S
C2398 C882 2.119 . S
C2428 C801 1.729 . S
C2423 C83 1.722 . S
C2453 C99 1.270 . S
C2458 C922 1.312 . S
C2483 C52 1.349 . S
C2488 C767 1.377 . S
C2513 C47 2.133 . S
C2518 C651 2.117 . S
C2548 C682 1.194 . S
C2543 C5 1.202 . S
C2578 C730 1.977 . S
C2573 C23 1.991 . S
C2608 C838 1.488 . S
C2603 C26 1.474 . S
C2638 C890 1.295 . S
C2633 C244 1.289 . S
C2663 C177 1.295 . S
C2668 C811 1.286 . S
C2698 C930 1.411 . S
C2693 C192 1.404 . S
C2728 C762 1.333 . S
C2723 C203 1.279 . S
C2758 C638 0.123 . S
C2753 C242 0.381 . S
C2783 C179 2.281 . S
C2788 C690 2.249 . S
C2818 C727 0.671 . S
C2813 C190 0.695 . S
C2843 C205 1.892 . S
C2848 C841 1.874 . S
C2878 C887 1.750 . S
C2873 C286 1.721 . S
C2903 C122 1.957 . S
C2908 C481 1.967 . S
C2938 C527 0.969 . S
C2933 C130 0.937 . S
C2968 C562 1.410 . S
C2963 C148 1.424 . S
C2998 C851 1.656 . S
C2993 C273 1.675 . S
C3023 C260 1.281 . S
C3028 C927 1.307 . S
C3058 C450 1.227 . S
C3053 C135 1.189 . S
C3088 C358 0.241 . S
C3083 C109 0.316 . S
C3113 C86 2.091 . S
C3118 C891 2.051 . S
C3148 C370 1.638 . S
C3143 C70 1.657 . S
C3173 C62 1.172 . S
C3178 C931 1.162 . S
C3203 C91 1.310 . S
C3208 C438 1.313 . S
C3233 C36 1.988 . S
C3238 C642 1.934 1_556 S
C3268 C531 1.129 . S
C3263 C18 1.125 . S
C3293 C8 1.848 . S
C3298 C721 1.882 . S
C3323 C39 1.505 . S
C3328 C607 1.484 . S
C3358 C881 1.249 . S
C3353 C307 1.245 . S
C3383 C153 1.139 . S
C3388 C362 1.110 . S
C3418 C921 1.304 . S
C3413 C281 1.213 . S
C3443 C127 1.195 . S
C3448 C451 1.186 . S
C3473 C309 0.185 . S
C3478 C647 0.209 . S
C3508 C521 2.163 . S
C3503 C151 2.121 1_556 S
C3533 C283 0.638 . S
C3538 C718 0.647 1_655 S
C3568 C610 1.815 . S
C3563 C125 1.800 . S
C3598 C878 1.742 . S
C3593 C221 1.780 . S
C3628 C490 1.879 1_655 S
C3623 C200 1.891 . S
C3653 C208 0.982 . S
C3658 C678 0.956 . S
C3688 C571 1.310 . S
C3683 C174 1.307 . S
C3713 C182 1.674 . S
C3718 C602 1.611 . S
C3743 C156 1.262 . S
C3748 C918 1.252 . S
C3778 C761 1.115 . S
C3773 C213 1.112 1_565 S
C3808 C807 0.198 . S
C3803 C252 0.264 . S
