# Generated by pormake.
# Topology nia, (6,6)-cn, num edge types: 1
# Building blocks:
#     Node 0, Type 0, BuildingBlock: GEDQOX_clean_sbu_0, # of connection points: 6
#     Node 1, Type 0, BuildingBlock: GEDQOX_clean_sbu_0, # of connection points: 6
#     Node 2, Type 1, BuildingBlock: MIDCAF_clean_sbu_0, # of connection points: 6
#     Node 3, Type 1, BuildingBlock: MIDCAF_clean_sbu_0, # of connection points: 6
#     Edge 4, Type (0, 1), BuildingBlock: XIVTED_clean_linker_0, # of connection points: 2
#     Edge 5, Type (0, 1), BuildingBlock: XIVTED_clean_linker_0, # of connection points: 2
#     Edge 6, Type (0, 1), BuildingBlock: XIVTED_clean_linker_0, # of connection points: 2
#     Edge 7, Type (0, 1), BuildingBlock: XIVTED_clean_linker_0, # of connection points: 2
#     Edge 8, Type (0, 1), BuildingBlock: XIVTED_clean_linker_0, # of connection points: 2
#     Edge 9, Type (0, 1), BuildingBlock: XIVTED_clean_linker_0, # of connection points: 2
#     Edge 10, Type (0, 1), BuildingBlock: XIVTED_clean_linker_0, # of connection points: 2
#     Edge 11, Type (0, 1), BuildingBlock: XIVTED_clean_linker_0, # of connection points: 2
#     Edge 12, Type (0, 1), BuildingBlock: XIVTED_clean_linker_0, # of connection points: 2
#     Edge 13, Type (0, 1), BuildingBlock: XIVTED_clean_linker_0, # of connection points: 2
#     Edge 14, Type (0, 1), BuildingBlock: XIVTED_clean_linker_0, # of connection points: 2
#     Edge 15, Type (0, 1), BuildingBlock: XIVTED_clean_linker_0, # of connection points: 2
# Relax obj value: 0.299
# Max RMSD: 0.268
# Mean RMSD: 0.241
data_MOF--net-nia--node1-GEDQOX_clean_sbu_0--node2-MIDCAF_clean_sbu_0--edge1-XIVTED_clean_linker_0
_symmetry_space_group_name_H-M    P1
_symmetry_Int_Tables_number       1
_symmetry_cell_setting            triclinic
loop_
_symmetry_equiv_pos_as_xyz
'x, y, z'
_cell_length_a     28.770975
_cell_length_b     26.23285
_cell_length_c     31.857121
_cell_angle_alpha  101.95798
_cell_angle_beta   65.552977
_cell_angle_gamma 126.46561
loop_
_atom_site_label
_atom_site_type_symbol
_atom_site_fract_x
_atom_site_fract_y
_atom_site_fract_z
_atom_type_partial_charge
Nd0 Nd -0.01897 0.05271 1.05816 0.0
Nd1 Nd -0.04188 0.94255 0.11745 0.0
C2 C 0.02177 0.13872 0.99776 0.0
C3 C -0.00972 0.15609 0.98314 0.0
C4 C 0.01432 0.17843 0.93759 0.0
C5 C -0.01704 0.19256 0.9233 0.0
C6 C 0.92686 0.18437 0.95438 0.0
C7 C 0.90341 0.16242 1.00011 0.0
C8 C 0.93457 0.14818 1.01424 0.0
C9 C 0.86487 -0.01105 0.12845 0.0
C10 C 0.02515 0.09049 0.14684 0.0
C11 C 0.91638 0.85391 0.17596 0.0
C12 C -0.05562 0.83503 0.19344 0.0
C13 C 0.91005 0.77267 0.21085 0.0
C14 C 0.9375 0.75271 0.22448 0.0
C15 C -0.00012 0.79488 0.22094 0.0
C16 C 0.03371 0.85789 0.2044 0.0
C17 C 0.00627 0.87771 0.19056 0.0
C18 C 0.07356 0.00567 1.0456 0.0
C19 C 0.90527 0.90365 1.03445 0.0
O20 O 0.02031 0.15122 1.0402 0.0
O21 O 0.01137 0.08286 0.98612 0.0
O22 O 0.88323 0.03339 0.10137 0.0
O23 O 0.90808 0.98226 0.11703 0.0
O24 O 0.0327 0.10986 0.10776 0.0
O25 O -0.00534 0.03033 0.15975 0.0
O26 O 0.92398 0.8447 0.13217 0.0
O27 O 0.9238 0.90842 0.18893 0.0
O28 O 0.05524 0.9604 1.07183 0.0
O29 O 0.0307 0.01308 1.05852 0.0
O30 O 0.89559 0.88706 1.07534 0.0
O31 O -0.05577 0.96292 1.01693 0.0
H32 H 0.05701 0.18436 0.91297 0.0
H33 H 0.00206 0.20878 0.88775 0.0
H34 H 0.86108 0.15667 1.02527 0.0
H35 H 0.91493 0.13078 1.04954 0.0
H36 H 0.86227 0.73907 0.21319 0.0
H37 H 0.90999 0.7041 0.23753 0.0
H38 H 0.08202 0.8913 0.2007 0.0
H39 H 0.03373 0.92596 0.17676 0.0
Nd40 Nd 0.90501 0.95502 0.55708 0.0
Nd41 Nd 0.00321 0.01908 0.61407 0.0
C42 C 0.86177 0.93076 0.49189 0.0
C43 C 0.83509 0.94443 0.46916 0.0
C44 C 0.80958 0.97931 0.49022 0.0
C45 C 0.77115 0.97822 0.47336 0.0
C46 C 0.75698 0.94128 0.4358 0.0
C47 C 0.78745 0.91118 0.41264 0.0
C48 C 0.82624 0.91296 0.42916 0.0
C49 C 0.86626 0.8775 0.62859 0.0
C50 C 0.89164 0.04171 0.64419 0.0
C51 C 0.0458 0.03465 0.67798 0.0
C52 C 0.10336 0.06292 0.68592 0.0
C53 C 0.11568 0.02289 0.69513 0.0
C54 C 0.16824 0.04832 0.7051 0.0
C55 C 0.209 0.11423 0.70659 0.0
C56 C 0.19678 0.15436 0.69734 0.0
C57 C 0.14443 0.12896 0.68702 0.0
C58 C 0.04525 0.09744 0.54233 0.0
C59 C 0.01455 0.92832 0.52747 0.0
O60 O 0.92113 0.97097 0.48503 0.0
O61 O 0.82645 0.90464 0.53393 0.0
O62 O 0.83344 0.86016 0.6036 0.0
O63 O 0.91346 0.93253 0.61495 0.0
O64 O 0.88099 0.02047 0.60531 0.0
O65 O 0.92713 0.03632 0.65693 0.0
O66 O 0.02975 -0.01469 0.65236 0.0
O67 O 0.03441 0.07316 0.67102 0.0
O68 O 0.07834 0.11196 0.56661 0.0
O69 O -0.00437 0.04342 0.55626 0.0
O70 O 0.03456 0.96179 0.56099 0.0
O71 O -0.03067 0.92126 0.51933 0.0
H72 H 0.81634 0.00412 0.52114 0.0
H73 H 0.74977 0.00328 0.49137 0.0
H74 H 0.77755 0.88169 0.38402 0.0
H75 H 0.84556 0.88563 0.41264 0.0
H76 H 0.08419 0.97178 0.69517 0.0
H77 H 0.17628 0.01636 0.71263 0.0
H78 H 0.2279 0.20542 0.69787 0.0
H79 H 0.13599 0.16104 0.68031 0.0
Zn80 Zn 0.30655 0.61148 0.24715 0.0
Zn81 Zn 0.21743 0.61178 0.43478 0.0
Zn82 Zn 0.2659 0.61586 0.34029 0.0
C83 C 0.35107 0.69203 0.40049 0.0
C84 C 0.17844 0.48827 0.40989 0.0
O85 O 0.22918 0.65223 0.3154 0.0
O86 O 0.25753 0.63824 0.24022 0.0
C87 C 0.41134 0.69381 0.27084 0.0
O88 O 0.34608 0.67512 0.36082 0.0
O89 O 0.30315 0.67195 0.43717 0.0
O90 O 0.17118 0.51851 0.44563 0.0
O91 O 0.21149 0.51723 0.36956 0.0
O92 O 0.39641 0.67279 0.23583 0.0
O93 O 0.36933 0.67723 0.31189 0.0
O94 O 0.22786 0.51634 0.32129 0.0
O95 O 0.27324 0.52022 0.24524 0.0
C96 C 0.23717 0.4886 0.28337 0.0
O97 O 0.21352 0.6597 0.36361 0.0
O98 O 0.17187 0.64847 0.44012 0.0
C99 C 0.22916 0.65529 0.27556 0.0
C100 C 0.18026 0.66776 0.40284 0.0
Zn101 Zn 0.62067 0.36195 0.9269 0.0
Zn102 Zn 0.72824 0.39069 0.74076 0.0
Zn103 Zn 0.672 0.37863 0.83431 0.0
C104 C 0.76197 0.51144 0.7723 0.0
C105 C 0.59617 0.31507 0.76761 0.0
O106 O 0.70749 0.33842 0.85724 0.0
O107 O 0.65964 0.32279 0.93318 0.0
C108 C 0.69393 0.49338 0.90141 0.0
O109 O 0.72584 0.47974 0.81156 0.0
O110 O 0.77334 0.48411 0.73576 0.0
O111 O 0.64601 0.33532 0.73256 0.0
O112 O 0.59725 0.32698 0.80857 0.0
O113 O 0.65836 0.45401 0.93579 0.0
O114 O 0.7058 0.47434 0.86011 0.0
O115 O 0.56836 0.31671 0.85699 0.0
O116 O 0.53246 0.30797 0.93338 0.0
C117 C 0.52261 0.29514 0.89627 0.0
O118 O 0.72461 0.3347 0.80868 0.0
O119 O 0.77404 0.35369 0.73289 0.0
C120 C 0.69793 0.31984 0.8962 0.0
C121 C 0.76061 0.32928 0.76987 0.0
H122 H -0.00998 0.68321 0.19906 0.0
H123 H 0.22414 0.75646 0.31319 0.0
H124 H 0.0797 0.85538 0.2681 0.0
H125 H 0.15616 0.60232 0.2249 0.0
H126 H 0.16411 0.78883 0.30415 0.0
H127 H 0.04292 0.64804 0.21522 0.0
C128 C 0.02039 0.71339 0.21805 0.0
C129 C 0.03036 0.77236 0.23226 0.0
C130 C 0.16204 0.74772 0.28696 0.0
C131 C 0.09189 0.73259 0.25047 0.0
C132 C 0.1955 0.7288 0.29273 0.0
C133 C 0.19373 0.67592 0.2707 0.0
C134 C 0.12688 0.71346 0.25872 0.0
C135 C 0.15849 0.64329 0.24261 0.0
C136 C 0.05099 0.69347 0.22698 0.0
C137 C 0.07113 0.80986 0.25609 0.0
N138 N 0.12633 0.66244 0.23754 0.0
N139 N 0.1004 0.78935 0.26447 0.0
H140 H 0.24942 0.20581 0.76706 0.0
H141 H 0.56223 0.23197 0.70146 0.0
H142 H 0.29287 0.08324 0.67252 0.0
H143 H 0.4969 0.32107 0.81774 0.0
H144 H 0.46511 0.17883 0.68863 0.0
H145 H 0.34167 0.25105 0.78463 0.0
C146 C 0.27857 0.18861 0.74995 0.0
C147 C 0.2639 0.14106 0.71815 0.0
C148 C 0.47169 0.20938 0.71732 0.0
C149 C 0.36906 0.19222 0.7381 0.0
C150 C 0.52704 0.23975 0.72452 0.0
C151 C 0.5368 0.27999 0.76111 0.0
C152 C 0.4265 0.2204 0.74647 0.0
C153 C 0.49023 0.28897 0.78993 0.0
C154 C 0.33087 0.21405 0.76021 0.0
C155 C 0.30252 0.11967 0.69742 0.0
N156 N 0.43711 0.25966 0.78184 0.0
N157 N 0.35367 0.14574 0.70753 0.0
H158 H 0.10291 0.11005 0.18566 0.0
H159 H 0.11226 0.40409 0.3243 0.0
H160 H 0.00239 0.17995 0.18047 0.0
H161 H 0.28086 0.41685 0.23873 0.0
H162 H 0.05161 0.29382 0.30275 0.0
H163 H 0.14932 0.19785 0.23465 0.0
C164 C 0.09002 0.14334 0.19552 0.0
C165 C 0.04988 0.13903 0.17874 0.0
C166 C 0.10183 0.32032 0.29007 0.0
C167 C 0.09989 0.23632 0.23558 0.0
C168 C 0.13628 0.38277 0.30249 0.0
C169 C 0.20132 0.41919 0.28265 0.0
C170 C 0.13301 0.29442 0.2586 0.0
C171 C 0.23062 0.39001 0.25425 0.0
C172 C 0.11612 0.19286 0.2234 0.0
C173 C 0.03404 0.18269 0.19233 0.0
N174 N 0.19618 0.32923 0.24261 0.0
N175 N 0.0591 0.22968 0.22008 0.0
H176 H 0.78235 0.02466 0.65876 0.0
H177 H 0.87822 0.35915 0.73127 0.0
H178 H -0.05543 0.14098 0.69579 0.0
H179 H 0.68718 0.20533 0.79873 0.0
H180 H 0.9073 0.28362 0.71132 0.0
H181 H 0.74729 0.09231 0.70255 0.0
C182 C 0.81013 0.06396 0.6765 0.0
C183 C 0.86635 0.07743 0.67373 0.0
C184 C 0.85926 0.26677 0.73138 0.0
C185 C 0.82743 0.15501 0.72262 0.0
C186 C 0.84279 0.30964 0.74272 0.0
C187 C 0.78046 0.28803 0.76673 0.0
C188 C 0.81259 0.20182 0.74243 0.0
C189 C 0.73583 0.22349 0.78046 0.0
C190 C 0.78997 0.10209 0.70162 0.0
C191 C 0.90075 0.12887 0.69731 0.0
N192 N 0.75249 0.18208 0.76702 0.0
N193 N 0.88143 0.16675 0.71999 0.0
H194 H 0.78073 0.01822 0.16904 0.0
H195 H 0.49537 0.66467 0.23155 0.0
H196 H 0.80435 0.86922 0.16422 0.0
H197 H 0.47787 0.81824 0.29134 0.0
H198 H 0.60855 0.73804 0.2085 0.0
H199 H 0.67044 0.94698 0.216 0.0
C200 C 0.76271 0.97066 0.17852 0.0
C201 C 0.80129 0.9492 0.1625 0.0
C202 C 0.58003 0.75557 0.22744 0.0
C203 C 0.6751 0.86712 0.2153 0.0
C204 C 0.51563 0.71383 0.24041 0.0
C205 C 0.47786 0.73584 0.26326 0.0
C206 C 0.60682 0.82014 0.23614 0.0
C207 C 0.50582 0.79979 0.2738 0.0
C208 C 0.69987 0.93012 0.20542 0.0
C209 C 0.77593 0.88738 0.17581 0.0
N210 N 0.56891 0.8401 0.25946 0.0
N211 N 0.71399 0.84795 0.20072 0.0
H212 H -0.04844 0.87217 0.64021 0.0
H213 H 0.69827 0.56572 0.81463 0.0
H214 H 0.75467 0.78519 0.68892 0.0
H215 H 0.87561 0.60668 0.71721 0.0
H216 H 0.7269 0.66642 0.78926 0.0
H217 H 0.93157 0.7948 0.68853 0.0
C218 C 0.90432 0.83817 0.6624 0.0
C219 C 0.8548 0.83562 0.66138 0.0
C220 C 0.76001 0.65392 0.77433 0.0
C221 C 0.83129 0.74608 0.71577 0.0
C222 C 0.74402 0.59697 0.78908 0.0
C223 C 0.7846 0.578 0.76765 0.0
C224 C 0.81725 0.69217 0.73854 0.0
C225 C 0.84298 0.61964 0.73433 0.0
C226 C 0.89283 0.79353 0.68946 0.0
C227 C 0.79405 0.78862 0.68899 0.0
N228 N 0.85742 0.67457 0.72052 0.0
N229 N 0.78387 0.74544 0.71507 0.0
H230 H -0.03513 0.82367 0.47746 0.0
H231 H 0.25036 0.79512 0.40081 0.0
H232 H 0.12812 0.95559 0.51207 0.0
H233 H 0.06504 0.63341 0.41498 0.0
H234 H 0.21374 0.86401 0.42178 0.0
H235 H 0.00869 0.76285 0.43598 0.0
C236 C 0.01025 0.84035 0.47582 0.0
C237 C 0.04269 0.8945 0.49863 0.0
C238 C 0.18126 0.81364 0.41952 0.0
C239 C 0.09295 0.82552 0.45105 0.0
C240 C 0.2022 0.77456 0.40729 0.0
C241 C 0.16054 0.70902 0.40593 0.0
C242 C 0.11809 0.78674 0.4308 0.0
C243 C 0.09841 0.68401 0.41534 0.0
C244 C 0.03501 0.80548 0.45231 0.0
C245 C 0.10119 0.91377 0.49547 0.0
N246 N 0.0788 0.72299 0.42767 0.0
N247 N 0.12436 0.87926 0.47223 0.0
H248 H 0.15756 0.97607 1.00319 0.0
H249 H 0.44103 0.32762 0.9292 0.0
H250 H 0.13176 0.1233 1.00764 0.0
H251 H 0.45656 0.17181 0.8742 0.0
H252 H 0.32769 0.2547 0.95331 0.0
H253 H 0.26611 0.04575 0.95216 0.0
C254 C 0.17467 0.02288 0.99281 0.0
C255 C 0.13605 0.04432 1.00984 0.0
C256 C 0.35579 0.23656 0.93492 0.0
C257 C 0.26039 0.12472 0.95217 0.0
C258 C 0.42036 0.27818 0.92109 0.0
C259 C 0.45763 0.25537 0.89964 0.0
C260 C 0.32838 0.17137 0.92863 0.0
C261 C 0.42907 0.19098 0.89041 0.0
C262 C 0.23654 0.06254 0.96355 0.0
C263 C 0.16027 0.10518 0.99528 0.0
N264 N 0.3659 0.15083 0.90583 0.0
N265 N 0.22135 0.14382 0.96796 0.0
H266 H -0.03444 0.1041 0.52166 0.0
H267 H 0.23449 0.42673 0.36542 0.0
H268 H 0.16038 0.19295 0.489 0.0
H269 H 0.06464 0.39733 0.46887 0.0
H270 H 0.1983 0.32056 0.38679 0.0
H271 H -0.00656 0.192 0.47836 0.0
C272 C 0.01417 0.14111 0.50425 0.0
C273 C 0.06086 0.14175 0.50899 0.0
C274 C 0.1685 0.33698 0.40398 0.0
C275 C 0.09279 0.24117 0.45925 0.0
C276 C 0.18885 0.39718 0.39165 0.0
C277 C 0.15249 0.42066 0.4156 0.0
C278 C 0.11097 0.29981 0.43983 0.0
C279 C 0.09411 0.38091 0.44979 0.0
C280 C 0.02995 0.19125 0.47987 0.0
C281 C 0.12311 0.19107 0.48625 0.0
N282 N 0.07517 0.32245 0.46103 0.0
N283 N 0.13734 0.23896 0.46243 0.0
H284 H 0.80078 0.11843 0.97878 0.0
H285 H 0.81783 0.35802 0.84348 0.0
H286 H -0.0256 0.28233 0.89616 0.0
H287 H 0.65472 0.22674 0.95512 0.0
H288 H 0.87376 0.31975 0.8516 0.0
H289 H 0.74477 0.14692 0.95989 0.0
C290 C 0.82725 0.16053 0.95672 0.0
C291 C 0.89258 0.1986 0.93972 0.0
C292 C 0.8256 0.29905 0.87406 0.0
C293 C 0.82833 0.23096 0.91729 0.0
C294 C 0.79355 0.32039 0.86913 0.0
C295 C 0.73148 0.29503 0.8984 0.0
C296 C 0.79517 0.25201 0.9085 0.0
C297 C 0.7026 0.2476 0.93191 0.0
C298 C 0.79513 0.17657 0.94575 0.0
C299 C 0.92411 0.25147 0.91004 0.0
N300 N 0.73464 0.22764 0.93603 0.0
N301 N 0.89169 0.26632 0.9 0.0
H302 H 0.74296 0.9182 0.35164 0.0
H303 H 0.38286 0.78349 0.4624 0.0
H304 H 0.64771 0.92489 0.4969 0.0
H305 H 0.45874 0.70147 0.34704 0.0
H306 H 0.48615 0.85902 0.4669 0.0
H307 H 0.64506 0.86466 0.34004 0.0
C308 C 0.70195 0.90941 0.38099 0.0
C309 C 0.70361 0.92486 0.42559 0.0
C310 C 0.48024 0.82507 0.44016 0.0
C311 C 0.59211 0.8649 0.41216 0.0
C312 C 0.42146 0.78183 0.43775 0.0
C313 C 0.41288 0.73727 0.40356 0.0
C314 C 0.53063 0.82372 0.40806 0.0
C315 C 0.46416 0.73682 0.3726 0.0
C316 C 0.64622 0.87893 0.37424 0.0
C317 C 0.64924 0.91416 0.46189 0.0
N318 N 0.52107 0.7796 0.37545 0.0
N319 N 0.59558 0.88422 0.45444 0.0
H320 H 0.78461 0.80573 1.06839 0.0
H321 H 0.80952 0.59777 0.85327 0.0
H322 H -0.055 0.88555 0.94162 0.0
H323 H 0.64005 0.54237 0.97057 0.0
H324 H 0.85796 0.70711 0.8789 0.0
H325 H 0.72841 0.71282 1.02843 0.0
C326 C 0.80768 0.80374 1.03184 0.0
C327 C 0.86948 0.85269 1.00825 0.0
C328 C 0.80978 0.6712 0.89842 0.0
C329 C 0.80606 0.74577 0.9622 0.0
C330 C 0.78213 0.609 0.88369 0.0
C331 C 0.72111 0.56108 0.91029 0.0
C332 C 0.77596 0.68479 0.94004 0.0
C333 C 0.68767 0.57776 0.94959 0.0
C334 C 0.77561 0.75078 1.00891 0.0
C335 C 0.89723 0.84841 0.96086 0.0
N336 N 0.71572 0.63793 0.96352 0.0
N337 N 0.86566 0.79503 0.93943 0.0
loop_
_geom_bond_atom_site_label_1
_geom_bond_atom_site_label_2
_geom_bond_distance
_geom_bond_site_symmetry_2
_ccdc_geom_bond_type
Nd0 C2 2.836 . S
Nd0 O20 2.500 1_655 S
Nd0 O21 2.492 . S
Nd0 O22 2.487 1_546 S
Nd0 O23 2.682 1_546 S
Nd0 O24 2.410 1_656 S
Nd0 O29 2.414 1_655 S
Nd0 O31 2.424 1_545 S
Nd1 C11 2.828 1_545 S
Nd1 O23 2.417 1_445 S
Nd1 O25 2.432 . S
Nd1 O26 2.493 1_545 S
Nd1 O27 2.485 1_545 S
Nd1 O28 2.488 1_554 S
Nd1 O29 2.687 1_554 S
Nd1 O30 2.406 1_544 S
C2 Nd0 2.836 . S
C2 C3 1.498 . S
C2 O20 1.258 1_655 S
C2 O21 1.239 . S
C3 C2 1.498 . S
C3 C4 1.366 1_655 S
C3 C8 1.407 . S
C4 C3 1.366 1_455 S
C4 C5 1.392 . S
C4 H32 0.930 . S
C5 C4 1.392 . S
C5 C6 1.398 1_455 S
C5 H33 0.929 . S
C6 C5 1.398 1_655 S
C6 C7 1.352 . S
C7 C6 1.352 . S
C7 C8 1.384 . S
C7 H34 0.930 . S
C8 C3 1.407 . S
C8 C7 1.384 . S
C8 H35 0.929 . S
C9 O22 1.241 . S
C9 O23 1.273 . S
C10 O24 1.251 . S
C10 O25 1.268 . S
C11 Nd1 2.828 1_565 S
C11 C12 1.498 . S
C11 O26 1.258 . S
C11 O27 1.239 . S
C12 C11 1.498 . S
C12 C13 1.364 1_455 S
C12 C17 1.407 . S
C13 C12 1.364 1_655 S
C13 C14 1.388 . S
C13 H36 0.937 . S
C14 C13 1.388 . S
C14 C15 1.398 1_655 S
C14 H37 0.929 . S
C15 C14 1.398 1_455 S
C15 C16 1.352 . S
C16 C15 1.352 . S
C16 C17 1.384 . S
C16 H38 0.930 . S
C17 C12 1.407 . S
C17 C16 1.384 . S
C17 H39 0.929 . S
C18 O28 1.241 . S
C18 O29 1.273 . S
C19 O30 1.251 1_655 S
C19 O31 1.268 . S
O20 Nd0 2.500 1_455 S
O20 C2 1.258 1_455 S
O21 Nd0 2.492 . S
O21 C2 1.239 . S
O22 Nd0 2.487 1_564 S
O22 C9 1.241 . S
O23 Nd0 2.682 1_564 S
O23 Nd1 2.417 1_665 S
O23 C9 1.273 . S
O24 Nd0 2.410 1_454 S
O24 C10 1.251 . S
O25 Nd1 2.432 . S
O25 C10 1.268 . S
O26 Nd1 2.493 1_565 S
O26 C11 1.258 . S
O27 Nd1 2.485 1_565 S
O27 C11 1.239 . S
O28 Nd1 2.488 1_556 S
O28 C18 1.241 . S
O29 Nd0 2.414 1_455 S
O29 Nd1 2.687 1_556 S
O29 C18 1.273 . S
O30 Nd1 2.406 1_566 S
O30 C19 1.251 1_455 S
O31 Nd0 2.424 1_565 S
O31 C19 1.268 . S
H32 C4 0.930 . S
H33 C5 0.929 . S
H34 C7 0.930 . S
H35 C8 0.929 . S
H36 C13 0.937 . S
H37 C14 0.929 . S
H38 C16 0.930 . S
H39 C17 0.929 . S
Nd40 C42 2.836 . S
Nd40 O60 2.500 . S
Nd40 O61 2.492 . S
Nd40 O62 2.487 . S
Nd40 O63 2.682 1_655 S
Nd40 O64 2.410 . S
Nd40 O69 2.414 1_665 S
Nd40 O71 2.424 1_655 S
Nd41 C51 2.836 . S
Nd41 O63 2.414 1_545 S
Nd41 O65 2.424 . S
Nd41 O66 2.500 . S
Nd41 O67 2.492 . S
Nd41 O68 2.487 . S
Nd41 O69 2.682 . S
Nd41 O70 2.410 . S
C42 Nd40 2.836 . S
C42 C43 1.498 . S
C42 O60 1.258 . S
C42 O61 1.239 . S
C43 C42 1.498 . S
C43 C44 1.366 . S
C43 C48 1.407 . S
C44 C43 1.366 . S
C44 C45 1.392 . S
C44 H72 0.930 . S
C45 C44 1.392 . S
C45 C46 1.398 . S
C45 H73 0.929 . S
C46 C45 1.398 . S
C46 C47 1.352 . S
C47 C46 1.352 . S
C47 C48 1.384 . S
C47 H74 0.930 . S
C48 C43 1.407 . S
C48 C47 1.384 . S
C48 H75 0.929 . S
C49 O62 1.241 . S
C49 O63 1.273 1_655 S
C50 O64 1.251 1_545 S
C50 O65 1.268 1_655 S
C51 Nd41 2.836 . S
C51 C52 1.498 . S
C51 O66 1.258 . S
C51 O67 1.239 . S
C52 C51 1.498 . S
C52 C53 1.366 . S
C52 C57 1.407 . S
C53 C52 1.366 . S
C53 C54 1.392 . S
C53 H76 0.930 . S
C54 C53 1.392 . S
C54 C55 1.398 . S
C54 H77 0.929 . S
C55 C54 1.398 . S
C55 C56 1.352 . S
C56 C55 1.352 . S
C56 C57 1.384 . S
C56 H78 0.930 . S
C57 C52 1.407 . S
C57 C56 1.384 . S
C57 H79 0.929 . S
C58 O68 1.241 . S
C58 O69 1.273 . S
C59 O70 1.251 1_565 S
C59 O71 1.268 . S
O60 Nd40 2.500 . S
O60 C42 1.258 . S
O61 Nd40 2.492 . S
O61 C42 1.239 . S
O62 Nd40 2.487 . S
O62 C49 1.241 . S
O63 Nd40 2.682 1_455 S
O63 Nd41 2.414 1_565 S
O63 C49 1.273 1_455 S
O64 Nd40 2.410 . S
O64 C50 1.251 1_565 S
O65 Nd41 2.424 . S
O65 C50 1.268 1_455 S
O66 Nd41 2.500 . S
O66 C51 1.258 . S
O67 Nd41 2.492 . S
O67 C51 1.239 . S
O68 Nd41 2.487 . S
O68 C58 1.241 . S
O69 Nd40 2.414 1_445 S
O69 Nd41 2.682 . S
O69 C58 1.273 . S
O70 Nd41 2.410 . S
O70 C59 1.251 1_545 S
O71 Nd40 2.424 1_455 S
O71 C59 1.268 . S
H72 C44 0.930 . S
H73 C45 0.929 . S
H74 C47 0.930 . S
H75 C48 0.929 . S
H76 C53 0.930 . S
H77 C54 0.929 . S
H78 C56 0.930 . S
H79 C57 0.929 . S
Zn80 O86 1.920 . S
Zn80 O92 1.898 . S
Zn80 O95 1.905 . S
Zn81 O89 1.905 . S
Zn81 O90 1.898 . S
Zn81 O98 1.920 . S
Zn82 O85 2.080 . S
Zn82 O88 2.114 . S
Zn82 O91 2.120 . S
Zn82 O93 2.120 . S
Zn82 O94 2.114 . S
Zn82 O97 2.080 . S
C83 O88 1.166 . S
C83 O89 1.182 . S
C84 O90 1.167 . S
C84 O91 1.299 . S
O85 Zn82 2.080 . S
O85 C99 1.305 . S
O86 Zn80 1.920 . S
O86 C99 1.234 . S
C87 O92 1.167 . S
C87 O93 1.299 . S
O88 Zn82 2.114 . S
O88 C83 1.166 . S
O89 Zn81 1.905 . S
O89 C83 1.182 . S
O90 Zn81 1.898 . S
O90 C84 1.167 . S
O91 Zn82 2.120 . S
O91 C84 1.299 . S
O92 Zn80 1.898 . S
O92 C87 1.167 . S
O93 Zn82 2.120 . S
O93 C87 1.299 . S
O94 Zn82 2.114 . S
O94 C96 1.166 . S
O95 Zn80 1.905 . S
O95 C96 1.182 . S
C96 O94 1.166 . S
C96 O95 1.182 . S
O97 Zn82 2.080 . S
O97 C100 1.305 . S
O98 Zn81 1.920 . S
O98 C100 1.234 . S
C99 O85 1.305 . S
C99 O86 1.234 . S
C100 O97 1.305 . S
C100 O98 1.234 . S
Zn101 O107 1.920 . S
Zn101 O113 1.898 . S
Zn101 O116 1.905 . S
Zn102 O110 1.905 . S
Zn102 O111 1.898 . S
Zn102 O119 1.920 . S
Zn103 O106 2.080 . S
Zn103 O109 2.114 . S
Zn103 O112 2.120 . S
Zn103 O114 2.120 . S
Zn103 O115 2.114 . S
Zn103 O118 2.080 . S
C104 O109 1.166 . S
C104 O110 1.182 . S
C105 O111 1.167 . S
C105 O112 1.299 . S
O106 Zn103 2.080 . S
O106 C120 1.305 . S
O107 Zn101 1.920 . S
O107 C120 1.234 . S
C108 O113 1.167 . S
C108 O114 1.299 . S
O109 Zn103 2.114 . S
O109 C104 1.166 . S
O110 Zn102 1.905 . S
O110 C104 1.182 . S
O111 Zn102 1.898 . S
O111 C105 1.167 . S
O112 Zn103 2.120 . S
O112 C105 1.299 . S
O113 Zn101 1.898 . S
O113 C108 1.167 . S
O114 Zn103 2.120 . S
O114 C108 1.299 . S
O115 Zn103 2.114 . S
O115 C117 1.166 . S
O116 Zn101 1.905 . S
O116 C117 1.182 . S
C117 O115 1.166 . S
C117 O116 1.182 . S
O118 Zn103 2.080 . S
O118 C121 1.305 . S
O119 Zn102 1.920 . S
O119 C121 1.234 . S
C120 O106 1.305 . S
C120 O107 1.234 . S
C121 O118 1.305 . S
C121 O119 1.234 . S
H122 C128 0.930 . S
H123 C132 0.930 . S
H124 C137 0.929 . S
H125 C135 0.929 . S
H126 C130 0.929 . S
H127 C136 0.929 . S
C128 H122 0.930 . S
C128 C129 1.367 . S
C128 C136 1.378 . S
C129 C128 1.367 . S
C129 C137 1.433 . S
C130 H126 0.929 . S
C130 C132 1.378 . S
C130 C134 1.350 . S
C131 C134 1.463 . S
C131 C136 1.350 . S
C131 N139 1.427 . S
C132 H123 0.930 . S
C132 C130 1.378 . S
C132 C133 1.367 . S
C133 C132 1.367 . S
C133 C135 1.433 . S
C134 C130 1.350 . S
C134 C131 1.463 . S
C134 N138 1.427 . S
C135 H125 0.929 . S
C135 C133 1.433 . S
C135 N138 1.384 . S
C136 H127 0.929 . S
C136 C128 1.378 . S
C136 C131 1.350 . S
C137 H124 0.929 . S
C137 C129 1.433 . S
C137 N139 1.384 . S
N138 C134 1.427 . S
N138 C135 1.384 . S
N139 C131 1.427 . S
N139 C137 1.384 . S
H140 C146 0.930 . S
H141 C150 0.930 . S
H142 C155 0.929 . S
H143 C153 0.929 . S
H144 C148 0.929 . S
H145 C154 0.929 . S
C146 H140 0.930 . S
C146 C147 1.367 . S
C146 C154 1.378 . S
C147 C146 1.367 . S
C147 C155 1.433 . S
C148 H144 0.929 . S
C148 C150 1.378 . S
C148 C152 1.350 . S
C149 C152 1.463 . S
C149 C154 1.350 . S
C149 N157 1.427 . S
C150 H141 0.930 . S
C150 C148 1.378 . S
C150 C151 1.367 . S
C151 C150 1.367 . S
C151 C153 1.433 . S
C152 C148 1.350 . S
C152 C149 1.463 . S
C152 N156 1.427 . S
C153 H143 0.929 . S
C153 C151 1.433 . S
C153 N156 1.384 . S
C154 H145 0.929 . S
C154 C146 1.378 . S
C154 C149 1.350 . S
C155 H142 0.929 . S
C155 C147 1.433 . S
C155 N157 1.384 . S
N156 C152 1.427 . S
N156 C153 1.384 . S
N157 C149 1.427 . S
N157 C155 1.384 . S
H158 C164 0.930 . S
H159 C168 0.930 . S
H160 C173 0.929 . S
H161 C171 0.929 . S
H162 C166 0.929 . S
H163 C172 0.929 . S
C164 H158 0.930 . S
C164 C165 1.367 . S
C164 C172 1.378 . S
C165 C164 1.367 . S
C165 C173 1.433 . S
C166 H162 0.929 . S
C166 C168 1.378 . S
C166 C170 1.350 . S
C167 C170 1.463 . S
C167 C172 1.350 . S
C167 N175 1.427 . S
C168 H159 0.930 . S
C168 C166 1.378 . S
C168 C169 1.367 . S
C169 C168 1.367 . S
C169 C171 1.433 . S
C170 C166 1.350 . S
C170 C167 1.463 . S
C170 N174 1.427 . S
C171 H161 0.929 . S
C171 C169 1.433 . S
C171 N174 1.384 . S
C172 H163 0.929 . S
C172 C164 1.378 . S
C172 C167 1.350 . S
C173 H160 0.929 . S
C173 C165 1.433 . S
C173 N175 1.384 . S
N174 C170 1.427 . S
N174 C171 1.384 . S
N175 C167 1.427 . S
N175 C173 1.384 . S
H176 C182 0.930 . S
H177 C186 0.930 . S
H178 C191 0.929 . S
H179 C189 0.929 . S
H180 C184 0.929 . S
H181 C190 0.929 . S
C182 H176 0.930 . S
C182 C183 1.367 . S
C182 C190 1.378 . S
C183 C182 1.367 . S
C183 C191 1.433 . S
C184 H180 0.929 . S
C184 C186 1.378 . S
C184 C188 1.350 . S
C185 C188 1.463 . S
C185 C190 1.350 . S
C185 N193 1.427 . S
C186 H177 0.930 . S
C186 C184 1.378 . S
C186 C187 1.367 . S
C187 C186 1.367 . S
C187 C189 1.433 . S
C188 C184 1.350 . S
C188 C185 1.463 . S
C188 N192 1.427 . S
C189 H179 0.929 . S
C189 C187 1.433 . S
C189 N192 1.384 . S
C190 H181 0.929 . S
C190 C182 1.378 . S
C190 C185 1.350 . S
C191 H178 0.929 . S
C191 C183 1.433 . S
C191 N193 1.384 . S
N192 C188 1.427 . S
N192 C189 1.384 . S
N193 C185 1.427 . S
N193 C191 1.384 . S
H194 C200 0.930 . S
H195 C204 0.930 . S
H196 C209 0.929 . S
H197 C207 0.929 . S
H198 C202 0.929 . S
H199 C208 0.929 . S
C200 H194 0.930 . S
C200 C201 1.367 . S
C200 C208 1.378 . S
C201 C200 1.367 . S
C201 C209 1.433 . S
C202 H198 0.929 . S
C202 C204 1.378 . S
C202 C206 1.350 . S
C203 C206 1.463 . S
C203 C208 1.350 . S
C203 N211 1.427 . S
C204 H195 0.930 . S
C204 C202 1.378 . S
C204 C205 1.367 . S
C205 C204 1.367 . S
C205 C207 1.433 . S
C206 C202 1.350 . S
C206 C203 1.463 . S
C206 N210 1.427 . S
C207 H197 0.929 . S
C207 C205 1.433 . S
C207 N210 1.384 . S
C208 H199 0.929 . S
C208 C200 1.378 . S
C208 C203 1.350 . S
C209 H196 0.929 . S
C209 C201 1.433 . S
C209 N211 1.384 . S
N210 C206 1.427 . S
N210 C207 1.384 . S
N211 C203 1.427 . S
N211 C209 1.384 . S
H212 C218 0.930 . S
H213 C222 0.930 . S
H214 C227 0.929 . S
H215 C225 0.929 . S
H216 C220 0.929 . S
H217 C226 0.929 . S
C218 H212 0.930 . S
C218 C219 1.367 . S
C218 C226 1.378 . S
C219 C218 1.367 . S
C219 C227 1.433 . S
C220 H216 0.929 . S
C220 C222 1.378 . S
C220 C224 1.350 . S
C221 C224 1.463 . S
C221 C226 1.350 . S
C221 N229 1.427 . S
C222 H213 0.930 . S
C222 C220 1.378 . S
C222 C223 1.367 . S
C223 C222 1.367 . S
C223 C225 1.433 . S
C224 C220 1.350 . S
C224 C221 1.463 . S
C224 N228 1.427 . S
C225 H215 0.929 . S
C225 C223 1.433 . S
C225 N228 1.384 . S
C226 H217 0.929 . S
C226 C218 1.378 . S
C226 C221 1.350 . S
C227 H214 0.929 . S
C227 C219 1.433 . S
C227 N229 1.384 . S
N228 C224 1.427 . S
N228 C225 1.384 . S
N229 C221 1.427 . S
N229 C227 1.384 . S
H230 C236 0.930 . S
H231 C240 0.930 . S
H232 C245 0.929 . S
H233 C243 0.929 . S
H234 C238 0.929 . S
H235 C244 0.929 . S
C236 H230 0.930 . S
C236 C237 1.367 . S
C236 C244 1.378 . S
C237 C236 1.367 . S
C237 C245 1.433 . S
C238 H234 0.929 . S
C238 C240 1.378 . S
C238 C242 1.350 . S
C239 C242 1.463 . S
C239 C244 1.350 . S
C239 N247 1.427 . S
C240 H231 0.930 . S
C240 C238 1.378 . S
C240 C241 1.367 . S
C241 C240 1.367 . S
C241 C243 1.433 . S
C242 C238 1.350 . S
C242 C239 1.463 . S
C242 N246 1.427 . S
C243 H233 0.929 . S
C243 C241 1.433 . S
C243 N246 1.384 . S
C244 H235 0.929 . S
C244 C236 1.378 . S
C244 C239 1.350 . S
C245 H232 0.929 . S
C245 C237 1.433 . S
C245 N247 1.384 . S
N246 C242 1.427 . S
N246 C243 1.384 . S
N247 C239 1.427 . S
N247 C245 1.384 . S
H248 C254 0.930 . S
H249 C258 0.930 . S
H250 C263 0.929 . S
H251 C261 0.929 . S
H252 C256 0.929 . S
H253 C262 0.929 . S
C254 H248 0.930 . S
C254 C255 1.367 . S
C254 C262 1.378 . S
C255 C254 1.367 . S
C255 C263 1.433 . S
C256 H252 0.929 . S
C256 C258 1.378 . S
C256 C260 1.350 . S
C257 C260 1.463 . S
C257 C262 1.350 . S
C257 N265 1.427 . S
C258 H249 0.930 . S
C258 C256 1.378 . S
C258 C259 1.367 . S
C259 C258 1.367 . S
C259 C261 1.433 . S
C260 C256 1.350 . S
C260 C257 1.463 . S
C260 N264 1.427 . S
C261 H251 0.929 . S
C261 C259 1.433 . S
C261 N264 1.384 . S
C262 H253 0.929 . S
C262 C254 1.378 . S
C262 C257 1.350 . S
C263 H250 0.929 . S
C263 C255 1.433 . S
C263 N265 1.384 . S
N264 C260 1.427 . S
N264 C261 1.384 . S
N265 C257 1.427 . S
N265 C263 1.384 . S
H266 C272 0.930 . S
H267 C276 0.930 . S
H268 C281 0.929 . S
H269 C279 0.929 . S
H270 C274 0.929 . S
H271 C280 0.929 . S
C272 H266 0.930 . S
C272 C273 1.367 . S
C272 C280 1.378 . S
C273 C272 1.367 . S
C273 C281 1.433 . S
C274 H270 0.929 . S
C274 C276 1.378 . S
C274 C278 1.350 . S
C275 C278 1.463 . S
C275 C280 1.350 . S
C275 N283 1.427 . S
C276 H267 0.930 . S
C276 C274 1.378 . S
C276 C277 1.367 . S
C277 C276 1.367 . S
C277 C279 1.433 . S
C278 C274 1.350 . S
C278 C275 1.463 . S
C278 N282 1.427 . S
C279 H269 0.929 . S
C279 C277 1.433 . S
C279 N282 1.384 . S
C280 H271 0.929 . S
C280 C272 1.378 . S
C280 C275 1.350 . S
C281 H268 0.929 . S
C281 C273 1.433 . S
C281 N283 1.384 . S
N282 C278 1.427 . S
N282 C279 1.384 . S
N283 C275 1.427 . S
N283 C281 1.384 . S
H284 C290 0.930 . S
H285 C294 0.930 . S
H286 C299 0.929 1_455 S
H287 C297 0.929 . S
H288 C292 0.929 . S
H289 C298 0.929 . S
C290 H284 0.930 . S
C290 C291 1.367 . S
C290 C298 1.378 . S
C291 C290 1.367 . S
C291 C299 1.433 . S
C292 H288 0.929 . S
C292 C294 1.378 . S
C292 C296 1.350 . S
C293 C296 1.463 . S
C293 C298 1.350 . S
C293 N301 1.427 . S
C294 H285 0.930 . S
C294 C292 1.378 . S
C294 C295 1.367 . S
C295 C294 1.367 . S
C295 C297 1.433 . S
C296 C292 1.350 . S
C296 C293 1.463 . S
C296 N300 1.427 . S
C297 H287 0.929 . S
C297 C295 1.433 . S
C297 N300 1.384 . S
C298 H289 0.929 . S
C298 C290 1.378 . S
C298 C293 1.350 . S
C299 H286 0.929 1_655 S
C299 C291 1.433 . S
C299 N301 1.384 . S
N300 C296 1.427 . S
N300 C297 1.384 . S
N301 C293 1.427 . S
N301 C299 1.384 . S
H302 C308 0.930 . S
H303 C312 0.930 . S
H304 C317 0.929 . S
H305 C315 0.929 . S
H306 C310 0.929 . S
H307 C316 0.929 . S
C308 H302 0.930 . S
C308 C309 1.367 . S
C308 C316 1.378 . S
C309 C308 1.367 . S
C309 C317 1.433 . S
C310 H306 0.929 . S
C310 C312 1.378 . S
C310 C314 1.350 . S
C311 C314 1.463 . S
C311 C316 1.350 . S
C311 N319 1.427 . S
C312 H303 0.930 . S
C312 C310 1.378 . S
C312 C313 1.367 . S
C313 C312 1.367 . S
C313 C315 1.433 . S
C314 C310 1.350 . S
C314 C311 1.463 . S
C314 N318 1.427 . S
C315 H305 0.929 . S
C315 C313 1.433 . S
C315 N318 1.384 . S
C316 H307 0.929 . S
C316 C308 1.378 . S
C316 C311 1.350 . S
C317 H304 0.929 . S
C317 C309 1.433 . S
C317 N319 1.384 . S
N318 C314 1.427 . S
N318 C315 1.384 . S
N319 C311 1.427 . S
N319 C317 1.384 . S
H320 C326 0.930 . S
H321 C330 0.930 . S
H322 C335 0.929 . S
H323 C333 0.929 . S
H324 C328 0.929 . S
H325 C334 0.929 . S
C326 H320 0.930 . S
C326 C327 1.367 . S
C326 C334 1.378 . S
C327 C326 1.367 . S
C327 C335 1.433 1_655 S
C328 H324 0.929 . S
C328 C330 1.378 . S
C328 C332 1.350 . S
C329 C332 1.463 . S
C329 C334 1.350 . S
C329 N337 1.427 . S
C330 H321 0.930 . S
C330 C328 1.378 . S
C330 C331 1.367 . S
C331 C330 1.367 . S
C331 C333 1.433 . S
C332 C328 1.350 . S
C332 C329 1.463 . S
C332 N336 1.427 . S
C333 H323 0.929 . S
C333 C331 1.433 . S
C333 N336 1.384 . S
C334 H325 0.929 . S
C334 C326 1.378 . S
C334 C329 1.350 . S
C335 H322 0.929 . S
C335 C327 1.433 1_455 S
C335 N337 1.384 1_455 S
N336 C332 1.427 . S
N336 C333 1.384 . S
N337 C329 1.427 . S
N337 C335 1.384 1_655 S
C129 C15 1.450 . S
C133 C99 1.368 . S
C147 C55 0.939 . S
C151 C105 0.894 . S
C165 C10 1.332 . S
C169 C96 1.215 . S
C183 C50 1.985 . S
C187 C121 1.877 . S
C201 C9 2.002 . S
C205 C87 2.014 . S
C223 C104 1.867 . S
C219 C49 1.956 . S
C237 C59 1.688 . S
C241 C100 1.614 . S
C259 C117 2.196 . S
C255 C18 2.220 . S
C277 C84 2.105 . S
C273 C58 2.299 . S
C295 C120 1.437 . S
C291 C6 1.545 . S
C313 C83 0.918 . S
C309 C46 0.988 . S
C331 C108 1.029 . S
C327 C19 1.099 . S
