# Generated by pormake.
# Topology pth, (4,4)-cn, num edge types: 1
# Building blocks:
#     Node 0, Type 0, BuildingBlock: CEKHIL_clean_sbu_0, # of connection points: 4
#     Node 1, Type 0, BuildingBlock: CEKHIL_clean_sbu_0, # of connection points: 4
#     Node 2, Type 0, BuildingBlock: CEKHIL_clean_sbu_0, # of connection points: 4
#     Node 3, Type 1, BuildingBlock: MUDLON_clean_sbu_0, # of connection points: 4
#     Node 4, Type 1, BuildingBlock: MUDLON_clean_sbu_0, # of connection points: 4
#     Node 5, Type 1, BuildingBlock: MUDLON_clean_sbu_0, # of connection points: 4
#     Edge 6, Type (0, 1), BuildingBlock: FUNLAD_clean_linker_0, # of connection points: 2
#     Edge 7, Type (0, 1), BuildingBlock: FUNLAD_clean_linker_0, # of connection points: 2
#     Edge 8, Type (0, 1), BuildingBlock: FUNLAD_clean_linker_0, # of connection points: 2
#     Edge 9, Type (0, 1), BuildingBlock: FUNLAD_clean_linker_0, # of connection points: 2
#     Edge 10, Type (0, 1), BuildingBlock: FUNLAD_clean_linker_0, # of connection points: 2
#     Edge 11, Type (0, 1), BuildingBlock: FUNLAD_clean_linker_0, # of connection points: 2
#     Edge 12, Type (0, 1), BuildingBlock: FUNLAD_clean_linker_0, # of connection points: 2
#     Edge 13, Type (0, 1), BuildingBlock: FUNLAD_clean_linker_0, # of connection points: 2
#     Edge 14, Type (0, 1), BuildingBlock: FUNLAD_clean_linker_0, # of connection points: 2
#     Edge 15, Type (0, 1), BuildingBlock: FUNLAD_clean_linker_0, # of connection points: 2
#     Edge 16, Type (0, 1), BuildingBlock: FUNLAD_clean_linker_0, # of connection points: 2
#     Edge 17, Type (0, 1), BuildingBlock: FUNLAD_clean_linker_0, # of connection points: 2
# Relax obj value: 0.014
# Max RMSD: 0.063
# Mean RMSD: 0.051
data_MOF--net-pth--node1-CEKHIL_clean_sbu_0--node2-MUDLON_clean_sbu_0--edge1-FUNLAD_clean_linker_0
_symmetry_space_group_name_H-M    P1
_symmetry_Int_Tables_number       1
_symmetry_cell_setting            triclinic
loop_
_symmetry_equiv_pos_as_xyz
'x, y, z'
_cell_length_a     26.140759
_cell_length_b     26.180233
_cell_length_c     70.137113
_cell_angle_alpha  90.76903
_cell_angle_beta   89.87698
_cell_angle_gamma 120.34951
loop_
_atom_site_label
_atom_site_type_symbol
_atom_site_fract_x
_atom_site_fract_y
_atom_site_fract_z
_atom_type_partial_charge
Co0 Co 0.0474 0.07288 0.11713 0.0
O1 O 0.99514 0.02104 0.13641 0.0
O2 O 0.06351 0.00909 0.12193 0.0
C3 C 0.07241 0.15782 0.1334 0.0
O4 O 0.11136 0.11945 0.09715 0.0
Co5 Co 0.01816 0.15868 0.09678 0.0
O6 O 0.1017 0.19636 0.08828 0.0
C7 C 0.95269 0.03244 0.08569 0.0
C8 C 0.02193 0.99097 0.13471 0.0
C9 C 0.1304 0.16891 0.0884 0.0
O10 O 0.98724 0.0239 0.09662 0.0
O11 O 0.95521 0.08246 0.08468 0.0
O12 O 0.09908 0.12838 0.13677 0.0
O13 O 0.02845 0.1327 0.12149 0.0
Co14 Co 0.01958 0.06696 0.43301 0.0
O15 O 0.97661 0.08086 0.41336 0.0
O16 O 0.04384 0.15033 0.43232 0.0
C17 C 0.04289 0.00937 0.41476 0.0
O18 O 0.07506 0.07014 0.45419 0.0
Co19 Co 0.97501 0.94001 0.44752 0.0
O20 O 0.05448 0.97728 0.45981 0.0
C21 C 0.91238 1.0025 0.45899 0.0
C22 C 0.00676 0.13646 0.41817 0.0
C23 C 0.08688 0.03316 0.46218 0.0
O24 O 0.95492 0.05095 0.45216 0.0
O25 O 0.90919 0.95231 0.4569 0.0
O26 O 0.07439 0.0667 0.41391 0.0
O27 O 0.99606 0.98915 0.42522 0.0
Co28 Co 0.02491 0.05809 0.769 0.0
O29 O 0.08245 0.09507 0.74895 0.0
O30 O 0.07387 0.02204 0.76664 0.0
C31 C 0.94766 0.04832 0.75131 0.0
O32 O 0.97022 0.00582 0.79023 0.0
Co33 Co 0.95462 0.11311 0.78612 0.0
O34 O 0.91026 0.03852 0.80043 0.0
C35 C 0.08074 0.16315 0.79657 0.0
C36 C 0.09973 0.05759 0.75251 0.0
C37 C 0.92757 1.00097 0.80077 0.0
O38 O 0.08124 0.11903 0.78831 0.0
O39 O 0.03634 0.17112 0.79571 0.0
O40 O 0.96463 0.00955 0.74996 0.0
O41 O 0.9792 0.09284 0.76255 0.0
Mg42 Mg 0.06263 0.58891 0.27692 0.0
C43 C 0.97675 0.47563 0.30204 0.0
O44 O 0.93098 0.46566 0.29153 0.0
C45 C 0.00707 0.65624 0.26019 0.0
O46 O 0.0323 0.6899 0.27529 0.0
C47 C 0.05528 0.51014 0.24739 0.0
O48 O 1.00174 0.49453 0.25339 0.0
O49 O 0.09911 0.55461 0.25548 0.0
O50 O 0.0276 0.51981 0.29854 0.0
O51 O 0.1182 0.67267 0.29243 0.0
C52 C 0.1198 0.67199 0.31059 0.0
O53 O 0.09861 0.62084 0.31906 0.0
O54 O 0.0054 0.60686 0.25876 0.0
Mg55 Mg 0.51778 0.0586 0.60784 0.0
C56 C 0.45181 0.06989 0.57738 0.0
O57 O 0.4367 0.01396 0.57863 0.0
C58 C 0.61599 0.06839 0.63015 0.0
O59 O 0.5911 0.0166 0.62143 0.0
C60 C 0.44638 0.00519 0.64422 0.0
O61 O 0.49904 0.02014 0.65092 0.0
O62 O 0.44042 0.01025 0.62642 0.0
O63 O 0.48962 0.10694 0.58927 0.0
O64 O 0.54469 0.01237 0.58717 0.0
C65 C 0.57294 0.04315 0.57279 0.0
O66 O 0.57928 0.09586 0.57086 0.0
O67 O 0.59507 0.10229 0.62706 0.0
Mg68 Mg 0.55919 0.54753 0.94282 0.0
C69 C 0.48218 0.46539 0.91337 0.0
O70 O 0.52807 0.45782 0.91478 0.0
C71 C 0.63425 0.6452 0.96701 0.0
O72 O 0.65987 0.61406 0.96324 0.0
C73 C 0.4992 0.43181 0.9658 0.0
O74 O 0.46787 0.41034 0.95012 0.0
O75 O 0.54325 0.48462 0.96591 0.0
O76 O 0.48081 0.50452 0.92405 0.0
O77 O 0.63568 0.57952 0.92348 0.0
C78 C 0.62814 0.59589 0.90718 0.0
O79 O 0.5761 0.58888 0.90291 0.0
O80 O 0.58356 0.6281 0.95953 0.0
C81 C 0.05573 0.2423 0.1409 0.0
C82 C 0.08683 0.2125 0.14426 0.0
C83 C 0.0652 0.29027 0.15252 0.0
C84 C 0.10556 0.30907 0.16794 0.0
C85 C 0.13893 0.28125 0.17057 0.0
C86 C 0.12961 0.23344 0.15891 0.0
C87 C 0.11234 0.35563 0.18197 0.0
C88 C 0.06826 0.36681 0.18568 0.0
C89 C 0.06878 0.40618 0.20136 0.0
C90 C 0.01404 0.39883 0.20704 0.0
C91 C 0.01052 0.43286 0.22184 0.0
C92 C 0.0618 0.476 0.23142 0.0
H93 H 0.16392 0.45793 0.20652 0.0
C94 C 0.11714 0.48463 0.2256 0.0
C95 C 0.12067 0.44994 0.2107 0.0
H96 H 0.15748 0.51773 0.23262 0.0
H97 H 0.02315 0.22783 0.12953 0.0
H98 H 0.04032 0.31196 0.14943 0.0
H99 H 0.17085 0.29511 0.18212 0.0
H100 H 0.15473 0.21178 0.16177 0.0
H101 H 0.15222 0.37663 0.19069 0.0
H102 H 0.02684 0.34191 0.17785 0.0
H103 H 0.97332 0.36588 0.20014 0.0
H104 H 0.96706 0.42502 0.22577 0.0
C105 C 0.87944 0.04877 0.48411 0.0
C106 C 0.86535 0.00425 0.47026 0.0
C107 C 0.835 0.04732 0.49574 0.0
C108 C 0.77553 1.00223 0.49333 0.0
C109 C 0.76134 0.95895 0.47908 0.0
C110 C 0.80592 0.95924 0.46791 0.0
C111 C 0.72735 1.00114 0.5049 0.0
C112 C 0.73137 0.00909 0.52398 0.0
C113 C 0.68431 0.01044 0.5356 0.0
C114 C 0.67477 0.99014 0.55447 0.0
C115 C 0.63488 0.99652 0.56628 0.0
C116 C 0.60518 0.02493 0.55957 0.0
H117 H 0.65933 0.05341 0.51434 0.0
C118 C 0.6136 0.04387 0.54057 0.0
C119 C 0.65228 0.03624 0.52866 0.0
H120 H 0.59164 0.0664 0.5351 0.0
H121 H 0.92496 0.08376 0.48627 0.0
H122 H 0.84696 0.08187 0.50641 0.0
H123 H 0.71577 0.92416 0.47682 0.0
H124 H 0.79388 0.92446 0.45732 0.0
H125 H 0.68645 0.99056 0.4976 0.0
H126 H 0.76997 0.01364 0.53139 0.0
H127 H 0.69919 0.97047 0.5602 0.0
H128 H 0.62998 0.98243 0.58095 0.0
C129 C 0.90598 0.9018 0.81323 0.0
C130 C 0.89932 0.95184 0.81466 0.0
C131 C 0.87992 0.85651 0.82671 0.0
C132 C 0.84733 0.8608 0.84204 0.0
C133 C 0.84146 0.91109 0.84355 0.0
C134 C 0.8665 0.95565 0.82997 0.0
C135 C 0.81931 0.81456 0.8569 0.0
C136 C 0.79743 0.75634 0.85349 0.0
C137 C 0.75972 0.71073 0.86763 0.0
C138 C 0.70865 0.65934 0.86119 0.0
C139 C 0.66752 0.61981 0.8742 0.0
C140 C 0.67763 0.62973 0.89392 0.0
H141 H 0.81117 0.75778 0.89276 0.0
C142 C 0.73099 0.67854 0.90042 0.0
C143 C 0.77153 0.71909 0.88738 0.0
H144 H 0.73948 0.6875 0.91556 0.0
H145 H 0.93122 0.89755 0.80168 0.0
H146 H 0.88628 0.81887 0.82528 0.0
H147 H 0.81682 0.91574 0.85523 0.0
H148 H 0.86082 0.99367 0.83169 0.0
H149 H 0.81079 0.82841 0.87065 0.0
H150 H 0.80021 0.7413 0.83922 0.0
H151 H 0.69869 0.6516 0.84608 0.0
H152 H 0.62654 0.58264 0.86884 0.0
C153 C 0.04161 0.91342 0.14826 0.0
C154 C 0.00779 0.94148 0.14785 0.0
C155 C 0.03126 0.87124 0.16223 0.0
C156 C 0.98674 0.85633 0.17604 0.0
C157 C 0.95201 0.88318 0.17515 0.0
C158 C 0.96214 0.92487 0.16124 0.0
C159 C 0.97822 0.81751 0.19258 0.0
C160 C 0.99568 0.77706 0.19313 0.0
C161 C 0.99085 0.74286 0.21061 0.0
C162 C 0.98829 0.68807 0.20879 0.0
C163 C 0.98943 0.65767 0.22496 0.0
C164 C 0.99422 0.68195 0.24335 0.0
H165 H 0.99682 0.80862 0.23117 0.0
C166 C 0.99487 0.73582 0.24519 0.0
C167 C 0.99325 0.76591 0.22907 0.0
H168 H 0.99904 0.75608 0.2591 0.0
H169 H 0.07731 0.92544 0.13821 0.0
H170 H 0.05981 0.85248 0.16261 0.0
H171 H 0.91754 0.87283 0.18556 0.0
H172 H 0.93505 0.94536 0.16136 0.0
H173 H 0.95552 0.82226 0.20487 0.0
H174 H 0.01349 0.76795 0.18037 0.0
H175 H 0.98675 0.66933 0.19479 0.0
H176 H 0.98947 0.61659 0.22297 0.0
C177 C 0.16142 0.01808 0.47971 0.0
C178 C 0.13909 0.0553 0.47512 0.0
C179 C 0.2083 0.03655 0.49261 0.0
C180 C 0.23437 0.09291 0.50138 0.0
C181 C 0.21217 0.13028 0.49686 0.0
C182 C 0.16548 0.11199 0.48368 0.0
C183 C 0.28169 0.1111 0.51617 0.0
C184 C 0.32161 0.09288 0.51529 0.0
C185 C 0.36256 0.09773 0.53097 0.0
C186 C 0.39387 0.06764 0.5283 0.0
C187 C 0.42576 0.06208 0.54322 0.0
C188 C 0.42834 0.08744 0.56118 0.0
H189 H 0.34512 0.15044 0.55142 0.0
C190 C 0.40091 0.12136 0.56369 0.0
C191 C 0.36785 0.12622 0.54872 0.0
H192 H 0.40198 0.14096 0.57749 0.0
H193 H 0.14223 0.97409 0.47346 0.0
H194 H 0.22271 0.00564 0.49614 0.0
H195 H 0.23088 0.1736 0.50357 0.0
H196 H 0.14906 0.1416 0.48059 0.0
H197 H 0.28186 0.13805 0.52807 0.0
H198 H 0.3218 0.06902 0.5025 0.0
H199 H 0.3913 0.04559 0.51485 0.0
H200 H 0.44673 0.03585 0.54089 0.0
C201 C 0.17458 0.19226 0.81502 0.0
C202 C 0.13214 0.20586 0.80845 0.0
C203 C 0.2197 0.23093 0.82761 0.0
C204 C 0.22335 0.28416 0.83385 0.0
C205 C 0.18242 0.29867 0.82662 0.0
C206 C 0.13724 0.25999 0.81421 0.0
C207 C 0.26929 0.32611 0.84763 0.0
C208 C 0.29641 0.3096 0.86041 0.0
C209 C 0.34278 0.35113 0.87412 0.0
C210 C 0.38378 0.33607 0.88088 0.0
C211 C 0.42852 0.3733 0.89361 0.0
C212 C 0.43294 0.42631 0.90025 0.0
H213 H 0.31459 0.41622 0.87649 0.0
C214 C 0.39102 0.44098 0.89397 0.0
C215 C 0.34642 0.40386 0.88094 0.0
H216 H 0.39314 0.48137 0.89893 0.0
H217 H 0.17221 0.15117 0.8108 0.0
H218 H 0.25159 0.21894 0.83228 0.0
H219 H 0.18455 0.33963 0.83091 0.0
H220 H 0.10582 0.2724 0.80928 0.0
H221 H 0.27988 0.3719 0.84745 0.0
H222 H 0.28564 0.26377 0.86065 0.0
H223 H 0.38173 0.29553 0.87609 0.0
H224 H 0.45962 0.3602 0.89831 0.0
C225 C 0.89075 0.09411 0.73839 0.0
C226 C 0.90115 0.04638 0.73874 0.0
C227 C 0.85122 0.09509 0.72512 0.0
C228 C 0.82107 0.04812 0.71191 0.0
C229 C 0.82994 0.99949 0.71285 0.0
C230 C 0.86959 0.99868 0.72602 0.0
C231 C 0.78083 0.04758 0.69672 0.0
C232 C 0.77655 0.09473 0.69132 0.0
C233 C 0.73881 0.09154 0.67487 0.0
C234 C 0.71302 0.1275 0.67464 0.0
C235 C 0.67492 0.12253 0.65969 0.0
C236 C 0.66244 0.08174 0.64467 0.0
H237 H 0.75012 0.02717 0.65833 0.0
C238 C 0.69104 0.04846 0.64443 0.0
C239 C 0.72888 0.05347 0.65923 0.0
H240 H 0.68335 0.01741 0.63289 0.0
H241 H 0.91422 0.13148 0.74808 0.0
H242 H 0.84496 0.13286 0.7253 0.0
H243 H 0.80713 0.96238 0.70301 0.0
H244 H 0.87642 0.96117 0.72595 0.0
H245 H 0.75431 0.00574 0.68916 0.0
H246 H 0.80052 0.13657 0.699 0.0
H247 H 0.72083 0.15808 0.68633 0.0
H248 H 0.65359 0.14881 0.66027 0.0
C249 C 0.87357 0.99101 0.06008 0.0
C250 C 0.90947 0.98276 0.0732 0.0
C251 C 0.83543 0.94523 0.04758 0.0
C252 C 0.832 0.88981 0.04794 0.0
C253 C 0.867 0.88137 0.06131 0.0
C254 C 0.90506 0.92702 0.07378 0.0
C255 C 0.79629 0.84099 0.03394 0.0
C256 C 0.75386 0.83807 0.02219 0.0
C257 C 0.72345 0.78992 1.00753 0.0
C258 C 0.66526 0.77186 1.00153 0.0
C259 C 0.63591 0.72565 0.98805 0.0
C260 C 0.66457 0.69705 0.98022 0.0
H261 H 0.79821 0.77695 1.00252 0.0
C262 C 0.72351 0.71691 0.9857 0.0
C263 C 0.75258 0.76273 0.99904 0.0
H264 H 0.74755 0.69684 0.97974 0.0
H265 H 0.87576 0.03332 0.05916 0.0
H266 H 0.81026 0.9543 0.03735 0.0
H267 H 0.86564 0.83936 0.06194 0.0
H268 H 0.93175 0.91874 0.08366 0.0
H269 H 0.80563 0.80501 0.03344 0.0
H270 H 0.73977 0.87045 0.02352 0.0
H271 H 0.64205 0.79273 1.00757 0.0
H272 H 0.59066 0.71165 0.98406 0.0
C273 C 0.1068 0.99274 0.39155 0.0
C274 C 0.05866 0.96975 0.40422 0.0
C275 C 0.12003 0.95482 0.38109 0.0
C276 C 0.08527 0.89297 0.38309 0.0
C277 C 0.03804 0.87038 0.39608 0.0
C278 C 0.02469 0.90817 0.40643 0.0
C279 C 0.09678 0.85027 0.37228 0.0
C280 C 0.12722 0.86234 0.35576 0.0
C281 C 0.13285 0.81651 0.34454 0.0
C282 C 0.13879 0.82134 0.32461 0.0
C283 C 0.13818 0.77606 0.31351 0.0
C284 C 0.1321 0.7251 0.32215 0.0
H285 H 0.12893 0.76315 0.36858 0.0
C286 C 0.13039 0.72231 0.34218 0.0
C287 C 0.13095 0.76744 0.35324 0.0
H288 H 0.12651 0.68414 0.34936 0.0
H289 H 0.13407 0.04006 0.38961 0.0
H290 H 0.15778 0.97429 0.37165 0.0
H291 H 0.01071 0.82307 0.39809 0.0
H292 H 0.98746 0.88897 0.41612 0.0
H293 H 0.07542 0.80542 0.37762 0.0
H294 H 0.14424 0.90542 0.34935 0.0
H295 H 0.14132 0.85905 0.31752 0.0
H296 H 0.13978 0.77985 0.29813 0.0
C297 C 0.1549 0.00625 0.74202 0.0
C298 C 0.14271 0.05242 0.7399 0.0
C299 C 0.19095 0.99831 0.72886 0.0
C300 C 0.2159 0.0367 0.7133 0.0
C301 C 0.2044 0.08336 0.71148 0.0
C302 C 0.16848 0.09123 0.72458 0.0
C303 C 0.25217 0.02898 0.69824 0.0
C304 C 0.27801 0.99577 0.70003 0.0
C305 C 0.31699 0.99246 0.68505 0.0
C306 C 0.36333 0.98337 0.69059 0.0
C307 C 0.4037 0.98471 0.67717 0.0
C308 C 0.39813 0.99415 0.65778 0.0
H309 H 0.27311 0.00385 0.66056 0.0
C310 C 0.34957 0.99954 0.65202 0.0
C311 C 0.3095 0.99883 0.6655 0.0
H312 H 0.34376 0.00667 0.6372 0.0
H313 H 0.13527 0.9752 0.75355 0.0
H314 H 0.19751 0.96108 0.7307 0.0
H315 H 0.22278 0.11368 0.6997 0.0
H316 H 0.15994 0.12716 0.72245 0.0
H317 H 0.2602 0.05445 0.68535 0.0
H318 H 0.27471 0.974 0.7134 0.0
H319 H 0.36974 0.97746 0.70549 0.0
H320 H 0.44035 0.98004 0.68211 0.0
C321 C 0.21325 0.2534 0.07106 0.0
C322 C 0.18587 0.19422 0.07701 0.0
C323 C 0.26181 0.27654 0.05877 0.0
C324 C 0.28454 0.24113 0.05204 0.0
C325 C 0.25813 0.18237 0.05831 0.0
C326 C 0.2097 0.15928 0.07082 0.0
C327 C 0.33128 0.26248 0.03703 0.0
C328 C 0.37122 0.32033 0.03437 0.0
C329 C 0.41064 0.34395 0.01738 0.0
C330 C 0.45896 0.4023 0.01807 0.0
C331 C 0.49105 0.42969 1.00157 0.0
C332 C 0.47495 0.39954 0.98391 0.0
H333 H 0.35971 0.26803 0.99853 0.0
C334 C 0.42883 0.34009 0.98341 0.0
C335 C 0.39705 0.31258 0.9999 0.0
H336 H 0.41523 0.31553 0.97003 0.0
H337 H 0.19623 0.28174 0.07553 0.0
H338 H 0.27951 0.32142 0.05393 0.0
H339 H 0.27427 0.15384 0.05323 0.0
H340 H 0.18958 0.11348 0.07502 0.0
H341 H 0.33163 0.22924 0.02771 0.0
H342 H 0.37417 0.35268 0.04483 0.0
H343 H 0.47041 0.42774 0.03127 0.0
H344 H 0.52605 0.47562 1.00249 0.0
C345 C 0.96239 0.16456 0.39151 0.0
C346 C 1.00113 0.18166 0.40725 0.0
C347 C 0.95985 0.20695 0.38022 0.0
C348 C 0.99581 0.2678 0.38448 0.0
C349 C 0.03379 0.28469 0.40044 0.0
C350 C 0.03637 0.24222 0.41171 0.0
C351 C 0.99823 0.31497 0.37203 0.0
C352 C 0.95737 0.30579 0.35854 0.0
C353 C 0.96286 0.35209 0.34504 0.0
C354 C 0.91233 0.34292 0.33495 0.0
C355 C 0.91626 0.38335 0.32127 0.0
C356 C 0.97103 0.43395 0.31726 0.0
H357 H 0.0581 0.41145 0.34798 0.0
C358 C 0.02147 0.44347 0.32749 0.0
C359 C 0.01759 0.40308 0.34109 0.0
H360 H 0.06456 0.48171 0.32472 0.0
H361 H 0.93485 0.11826 0.38758 0.0
H362 H 0.93099 0.19149 0.36787 0.0
H363 H 0.06236 0.3311 0.40406 0.0
H364 H 0.06684 0.25696 0.42369 0.0
H365 H 0.03553 0.35934 0.3743 0.0
H366 H 0.91753 0.26269 0.35728 0.0
H367 H 0.86961 0.30391 0.33752 0.0
H368 H 0.87652 0.37447 0.31366 0.0
loop_
_geom_bond_atom_site_label_1
_geom_bond_atom_site_label_2
_geom_bond_distance
_geom_bond_site_symmetry_2
_ccdc_geom_bond_type
Co0 O1 2.216 1_445 S
Co0 O2 2.091 . S
Co0 O4 2.004 . S
Co0 O10 2.021 1_445 S
Co0 O12 2.137 . S
Co0 O13 2.244 1_455 S
O1 Co0 2.216 1_665 S
O1 C8 1.247 1_655 S
O2 Co0 2.091 . S
O2 C8 1.261 1_545 S
C3 O12 1.247 . S
C3 O13 1.272 1_455 S
O4 Co0 2.004 . S
O4 C9 1.259 . S
Co5 O6 2.061 1_655 S
Co5 O11 2.052 . S
Co5 O13 2.135 . S
O6 Co5 2.061 1_455 S
O6 C9 1.235 . S
C7 O10 1.238 . S
C7 O11 1.241 1_565 S
C8 O1 1.247 1_455 S
C8 O2 1.261 1_565 S
C9 O4 1.259 . S
C9 O6 1.235 . S
O10 Co0 2.021 1_665 S
O10 C7 1.238 . S
O11 Co5 2.052 . S
O11 C7 1.241 1_545 S
O12 Co0 2.137 . S
O12 C3 1.247 . S
O13 Co0 2.244 1_655 S
O13 C3 1.272 1_655 S
O13 Co5 2.135 . S
Co14 O15 2.216 . S
Co14 O16 2.091 . S
Co14 O18 2.004 . S
Co14 O24 2.021 . S
Co14 O26 2.137 . S
Co14 O27 2.244 1_545 S
O15 Co14 2.216 . S
O15 C22 1.247 . S
O16 Co14 2.091 . S
O16 C22 1.261 . S
C17 O26 1.247 1_565 S
C17 O27 1.272 . S
O18 Co14 2.004 . S
O18 C23 1.259 . S
Co19 O20 2.061 1_665 S
Co19 O25 2.052 . S
Co19 O27 2.135 1_655 S
O20 Co19 2.061 1_445 S
O20 C23 1.235 . S
C21 O24 1.238 1_655 S
C21 O25 1.241 1_545 S
C22 O15 1.247 . S
C22 O16 1.261 . S
C23 O18 1.259 . S
C23 O20 1.235 . S
O24 Co14 2.021 . S
O24 C21 1.238 1_455 S
O25 Co19 2.052 . S
O25 C21 1.241 1_565 S
O26 Co14 2.137 . S
O26 C17 1.247 1_545 S
O27 Co14 2.244 1_565 S
O27 C17 1.272 . S
O27 Co19 2.135 1_455 S
Co28 O29 2.216 . S
Co28 O30 2.091 1_545 S
Co28 O32 2.004 1_445 S
Co28 O38 2.021 . S
Co28 O40 2.137 1_455 S
Co28 O41 2.244 1_455 S
O29 Co28 2.216 . S
O29 C36 1.247 . S
O30 Co28 2.091 1_565 S
O30 C36 1.261 1_565 S
C31 O40 1.247 . S
C31 O41 1.272 . S
O32 Co28 2.004 1_665 S
O32 C37 1.259 . S
Co33 O34 2.061 . S
Co33 O39 2.052 1_655 S
Co33 O41 2.135 . S
O34 Co33 2.061 . S
O34 C37 1.235 1_545 S
C35 O38 1.238 . S
C35 O39 1.241 . S
C36 O29 1.247 . S
C36 O30 1.261 1_545 S
C37 O32 1.259 . S
C37 O34 1.235 1_565 S
O38 Co28 2.021 . S
O38 C35 1.238 . S
O39 Co33 2.052 1_455 S
O39 C35 1.241 . S
O40 Co28 2.137 1_655 S
O40 C31 1.247 . S
O41 Co28 2.244 1_655 S
O41 C31 1.272 . S
O41 Co33 2.135 . S
Mg42 O49 2.141 . S
Mg42 O50 2.048 . S
Mg42 O51 2.048 . S
Mg42 O54 2.141 . S
C43 O44 1.313 1_455 S
C43 O50 1.195 . S
O44 C43 1.313 1_655 S
C45 O46 1.245 1_455 S
C45 O54 1.289 . S
O46 C45 1.245 1_655 S
C47 O48 1.245 1_455 S
C47 O49 1.289 . S
O48 C47 1.245 1_655 S
O49 Mg42 2.141 . S
O49 C47 1.289 . S
O50 Mg42 2.048 . S
O50 C43 1.195 . S
O51 Mg42 2.048 . S
O51 C52 1.195 . S
C52 O51 1.195 . S
C52 O53 1.313 1_455 S
O53 C52 1.313 1_655 S
O54 Mg42 2.141 . S
O54 C45 1.289 . S
Mg55 O62 2.141 . S
Mg55 O63 2.048 . S
Mg55 O64 2.048 . S
Mg55 O67 2.141 . S
C56 O57 1.313 1_545 S
C56 O63 1.195 . S
O57 C56 1.313 1_565 S
C58 O59 1.245 1_545 S
C58 O67 1.289 . S
O59 C58 1.245 1_565 S
C60 O61 1.245 1_545 S
C60 O62 1.289 . S
O61 C60 1.245 1_565 S
O62 Mg55 2.141 . S
O62 C60 1.289 . S
O63 Mg55 2.048 . S
O63 C56 1.195 . S
O64 Mg55 2.048 . S
O64 C65 1.195 . S
C65 O64 1.195 . S
C65 O66 1.313 1_545 S
O66 C65 1.313 1_565 S
O67 Mg55 2.141 . S
O67 C58 1.289 . S
Mg68 O75 2.141 . S
Mg68 O76 2.048 . S
Mg68 O77 2.048 . S
Mg68 O80 2.141 . S
C69 O70 1.313 . S
C69 O76 1.195 . S
O70 C69 1.313 . S
C71 O72 1.245 . S
C71 O80 1.289 . S
O72 C71 1.245 . S
C73 O74 1.245 . S
C73 O75 1.289 . S
O74 C73 1.245 . S
O75 Mg68 2.141 . S
O75 C73 1.289 . S
O76 Mg68 2.048 . S
O76 C69 1.195 . S
O77 Mg68 2.048 . S
O77 C78 1.195 . S
C78 O77 1.195 . S
C78 O79 1.313 . S
O79 C78 1.313 . S
O80 Mg68 2.141 . S
O80 C71 1.289 . S
C81 C82 1.386 1_655 S
C81 C83 1.383 . S
C81 H97 0.951 . S
C82 C81 1.386 1_455 S
C82 C86 1.383 . S
C83 C81 1.383 . S
C83 C84 1.402 1_655 S
C83 H98 0.951 . S
C84 C83 1.402 1_455 S
C84 C85 1.375 . S
C84 C87 1.481 . S
C85 C84 1.375 . S
C85 C86 1.367 . S
C85 H99 0.951 . S
C86 C82 1.383 . S
C86 C85 1.367 . S
C86 H100 0.950 . S
C87 C84 1.481 . S
C87 C88 1.297 . S
C87 H101 0.950 . S
C88 C87 1.297 . S
C88 C89 1.479 . S
C88 H102 0.950 . S
C89 C88 1.479 . S
C89 C90 1.375 1_455 S
C89 C95 1.404 . S
C90 C89 1.375 1_655 S
C90 C91 1.369 . S
C90 H103 0.950 . S
C91 C90 1.369 . S
C91 C92 1.392 1_655 S
C91 H104 0.951 . S
C92 C91 1.392 1_455 S
C92 C94 1.384 . S
H93 C95 0.949 . S
C94 C92 1.384 . S
C94 C95 1.385 . S
C94 H96 0.950 . S
C95 C89 1.404 . S
C95 H93 0.949 . S
C95 C94 1.385 . S
H96 C94 0.950 . S
H97 C81 0.951 . S
H98 C83 0.951 . S
H99 C85 0.951 . S
H100 C86 0.950 . S
H101 C87 0.950 . S
H102 C88 0.950 . S
H103 C90 0.950 . S
H104 C91 0.951 . S
C105 C106 1.386 . S
C105 C107 1.383 . S
C105 H121 0.951 . S
C106 C105 1.386 . S
C106 C110 1.383 1_545 S
C107 C105 1.383 . S
C107 C108 1.402 . S
C107 H122 0.951 . S
C108 C107 1.402 . S
C108 C109 1.375 1_545 S
C108 C111 1.481 . S
C109 C108 1.375 1_565 S
C109 C110 1.367 . S
C109 H123 0.951 . S
C110 C106 1.383 1_565 S
C110 C109 1.367 . S
C110 H124 0.950 . S
C111 C108 1.481 . S
C111 C112 1.297 . S
C111 H125 0.950 1_545 S
C112 C111 1.297 . S
C112 C113 1.479 . S
C112 H126 0.950 . S
C113 C112 1.479 . S
C113 C114 1.375 . S
C113 C119 1.404 . S
C114 C113 1.375 . S
C114 C115 1.369 . S
C114 H127 0.950 . S
C115 C114 1.369 . S
C115 C116 1.392 . S
C115 H128 0.951 . S
C116 C115 1.392 . S
C116 C118 1.384 . S
H117 C119 0.949 1_565 S
C118 C116 1.384 . S
C118 C119 1.385 . S
C118 H120 0.950 1_545 S
C119 C113 1.404 . S
C119 H117 0.949 1_545 S
C119 C118 1.385 . S
H120 C118 0.950 1_565 S
H121 C105 0.951 . S
H122 C107 0.951 . S
H123 C109 0.951 . S
H124 C110 0.950 . S
H125 C111 0.950 1_565 S
H126 C112 0.950 . S
H127 C114 0.950 . S
H128 C115 0.951 . S
C129 C130 1.386 . S
C129 C131 1.383 . S
C129 H145 0.951 . S
C130 C129 1.386 . S
C130 C134 1.383 . S
C131 C129 1.383 . S
C131 C132 1.402 . S
C131 H146 0.951 . S
C132 C131 1.402 . S
C132 C133 1.375 . S
C132 C135 1.481 . S
C133 C132 1.375 . S
C133 C134 1.367 . S
C133 H147 0.951 . S
C134 C130 1.383 . S
C134 C133 1.367 . S
C134 H148 0.950 . S
C135 C132 1.481 . S
C135 C136 1.297 . S
C135 H149 0.950 . S
C136 C135 1.297 . S
C136 C137 1.479 . S
C136 H150 0.950 . S
C137 C136 1.479 . S
C137 C138 1.375 . S
C137 C143 1.404 . S
C138 C137 1.375 . S
C138 C139 1.369 . S
C138 H151 0.950 . S
C139 C138 1.369 . S
C139 C140 1.392 . S
C139 H152 0.951 . S
C140 C139 1.392 . S
C140 C142 1.384 . S
H141 C143 0.949 . S
C142 C140 1.384 . S
C142 C143 1.385 . S
C142 H144 0.950 . S
C143 C137 1.404 . S
C143 H141 0.949 . S
C143 C142 1.385 . S
H144 C142 0.950 . S
H145 C129 0.951 . S
H146 C131 0.951 . S
H147 C133 0.951 . S
H148 C134 0.950 . S
H149 C135 0.950 . S
H150 C136 0.950 . S
H151 C138 0.950 . S
H152 C139 0.951 . S
C153 C154 1.386 . S
C153 C155 1.383 . S
C153 H169 0.951 . S
C154 C153 1.386 . S
C154 C158 1.383 . S
C155 C153 1.383 . S
C155 C156 1.402 . S
C155 H170 0.951 . S
C156 C155 1.402 . S
C156 C157 1.375 . S
C156 C159 1.481 . S
C157 C156 1.375 . S
C157 C158 1.367 . S
C157 H171 0.951 . S
C158 C154 1.383 . S
C158 C157 1.367 . S
C158 H172 0.950 . S
C159 C156 1.481 . S
C159 C160 1.297 . S
C159 H173 0.950 . S
C160 C159 1.297 . S
C160 C161 1.479 . S
C160 H174 0.950 . S
C161 C160 1.479 . S
C161 C162 1.375 . S
C161 C167 1.404 . S
C162 C161 1.375 . S
C162 C163 1.369 . S
C162 H175 0.950 . S
C163 C162 1.369 . S
C163 C164 1.392 . S
C163 H176 0.951 . S
C164 C163 1.392 . S
C164 C166 1.384 . S
H165 C167 0.949 . S
C166 C164 1.384 . S
C166 C167 1.385 . S
C166 H168 0.950 . S
C167 C161 1.404 . S
C167 H165 0.949 . S
C167 C166 1.385 . S
H168 C166 0.950 . S
H169 C153 0.951 . S
H170 C155 0.951 . S
H171 C157 0.951 . S
H172 C158 0.950 . S
H173 C159 0.950 . S
H174 C160 0.950 . S
H175 C162 0.950 . S
H176 C163 0.951 . S
C177 C178 1.386 . S
C177 C179 1.383 . S
C177 H193 0.951 . S
C178 C177 1.386 . S
C178 C182 1.383 . S
C179 C177 1.383 . S
C179 C180 1.402 . S
C179 H194 0.951 . S
C180 C179 1.402 . S
C180 C181 1.375 . S
C180 C183 1.481 . S
C181 C180 1.375 . S
C181 C182 1.367 . S
C181 H195 0.951 . S
C182 C178 1.383 . S
C182 C181 1.367 . S
C182 H196 0.950 . S
C183 C180 1.481 . S
C183 C184 1.297 . S
C183 H197 0.950 . S
C184 C183 1.297 . S
C184 C185 1.479 . S
C184 H198 0.950 . S
C185 C184 1.479 . S
C185 C186 1.375 . S
C185 C191 1.404 . S
C186 C185 1.375 . S
C186 C187 1.369 . S
C186 H199 0.950 1_545 S
C187 C186 1.369 . S
C187 C188 1.392 . S
C187 H200 0.951 1_545 S
C188 C187 1.392 . S
C188 C190 1.384 . S
H189 C191 0.949 . S
C190 C188 1.384 . S
C190 C191 1.385 . S
C190 H192 0.950 . S
C191 C185 1.404 . S
C191 H189 0.949 . S
C191 C190 1.385 . S
H192 C190 0.950 . S
H193 C177 0.951 . S
H194 C179 0.951 . S
H195 C181 0.951 . S
H196 C182 0.950 . S
H197 C183 0.950 . S
H198 C184 0.950 . S
H199 C186 0.950 1_565 S
H200 C187 0.951 1_565 S
C201 C202 1.386 . S
C201 C203 1.383 . S
C201 H217 0.951 . S
C202 C201 1.386 . S
C202 C206 1.383 . S
C203 C201 1.383 . S
C203 C204 1.402 . S
C203 H218 0.951 . S
C204 C203 1.402 . S
C204 C205 1.375 . S
C204 C207 1.481 . S
C205 C204 1.375 . S
C205 C206 1.367 . S
C205 H219 0.951 . S
C206 C202 1.383 . S
C206 C205 1.367 . S
C206 H220 0.950 . S
C207 C204 1.481 . S
C207 C208 1.297 . S
C207 H221 0.950 . S
C208 C207 1.297 . S
C208 C209 1.479 . S
C208 H222 0.950 . S
C209 C208 1.479 . S
C209 C210 1.375 . S
C209 C215 1.404 . S
C210 C209 1.375 . S
C210 C211 1.369 . S
C210 H223 0.950 . S
C211 C210 1.369 . S
C211 C212 1.392 . S
C211 H224 0.951 . S
C212 C211 1.392 . S
C212 C214 1.384 . S
H213 C215 0.949 . S
C214 C212 1.384 . S
C214 C215 1.385 . S
C214 H216 0.950 . S
C215 C209 1.404 . S
C215 H213 0.949 . S
C215 C214 1.385 . S
H216 C214 0.950 . S
H217 C201 0.951 . S
H218 C203 0.951 . S
H219 C205 0.951 . S
H220 C206 0.950 . S
H221 C207 0.950 . S
H222 C208 0.950 . S
H223 C210 0.950 . S
H224 C211 0.951 . S
C225 C226 1.386 . S
C225 C227 1.383 . S
C225 H241 0.951 . S
C226 C225 1.386 . S
C226 C230 1.383 . S
C227 C225 1.383 . S
C227 C228 1.402 . S
C227 H242 0.951 . S
C228 C227 1.402 . S
C228 C229 1.361 1_545 S
C228 C231 1.481 . S
C229 C228 1.361 1_565 S
C229 C230 1.371 1_565 S
C229 H243 0.961 . S
C230 C226 1.383 . S
C230 C229 1.371 1_545 S
C230 H244 0.950 1_545 S
C231 C228 1.481 . S
C231 C232 1.297 . S
C231 H245 0.967 . S
C232 C231 1.297 . S
C232 C233 1.479 . S
C232 H246 0.950 . S
C233 C232 1.479 . S
C233 C234 1.375 . S
C233 C239 1.404 . S
C234 C233 1.375 . S
C234 C235 1.369 . S
C234 H247 0.950 . S
C235 C234 1.369 . S
C235 C236 1.392 . S
C235 H248 0.951 . S
C236 C235 1.392 . S
C236 C238 1.384 . S
H237 C239 0.949 1_565 S
C238 C236 1.384 . S
C238 C239 1.385 . S
C238 H240 0.950 1_545 S
C239 C233 1.404 . S
C239 H237 0.949 1_545 S
C239 C238 1.385 . S
H240 C238 0.950 1_565 S
H241 C225 0.951 . S
H242 C227 0.951 . S
H243 C229 0.961 . S
H244 C230 0.950 1_565 S
H245 C231 0.967 . S
H246 C232 0.950 . S
H247 C234 0.950 . S
H248 C235 0.951 . S
C249 C250 1.386 . S
C249 C251 1.383 . S
C249 H265 0.951 . S
C250 C249 1.386 . S
C250 C254 1.383 . S
C251 C249 1.383 . S
C251 C252 1.402 . S
C251 H266 0.951 . S
C252 C251 1.402 . S
C252 C253 1.375 . S
C252 C255 1.481 . S
C253 C252 1.375 . S
C253 C254 1.367 . S
C253 H267 0.951 . S
C254 C250 1.383 . S
C254 C253 1.367 . S
C254 H268 0.950 . S
C255 C252 1.481 . S
C255 C256 1.297 . S
C255 H269 0.950 . S
C256 C255 1.297 . S
C256 C257 1.479 1_554 S
C256 H270 0.950 . S
C257 C256 1.479 1_556 S
C257 C258 1.379 . S
C257 C263 1.404 . S
C258 C257 1.379 . S
C258 C259 1.381 . S
C258 H271 0.935 1_556 S
C259 C258 1.381 . S
C259 C260 1.392 . S
C259 H272 0.951 . S
C260 C259 1.392 . S
C260 C262 1.384 . S
H261 C263 0.949 . S
C262 C260 1.384 . S
C262 C263 1.385 . S
C262 H264 0.950 . S
C263 C257 1.404 . S
C263 H261 0.949 . S
C263 C262 1.385 . S
H264 C262 0.950 . S
H265 C249 0.951 . S
H266 C251 0.951 . S
H267 C253 0.951 . S
H268 C254 0.950 . S
H269 C255 0.950 . S
H270 C256 0.950 . S
H271 C258 0.935 1_554 S
H272 C259 0.951 . S
C273 C274 1.386 . S
C273 C275 1.383 . S
C273 H289 0.951 . S
C274 C273 1.386 . S
C274 C278 1.383 1_455 S
C275 C273 1.383 . S
C275 C276 1.402 . S
C275 H290 0.951 . S
C276 C275 1.402 . S
C276 C277 1.375 1_455 S
C276 C279 1.481 . S
C277 C276 1.375 1_655 S
C277 C278 1.367 . S
C277 H291 0.951 . S
C278 C274 1.383 1_655 S
C278 C277 1.367 . S
C278 H292 0.950 . S
C279 C276 1.481 . S
C279 C280 1.297 . S
C279 H293 0.950 1_455 S
C280 C279 1.297 . S
C280 C281 1.479 . S
C280 H294 0.950 . S
C281 C280 1.479 . S
C281 C282 1.375 . S
C281 C287 1.404 1_455 S
C282 C281 1.375 . S
C282 C283 1.369 . S
C282 H295 0.950 . S
C283 C282 1.369 . S
C283 C284 1.392 . S
C283 H296 0.951 . S
C284 C283 1.392 . S
C284 C286 1.384 1_455 S
H285 C287 0.949 . S
C286 C284 1.384 1_655 S
C286 C287 1.385 . S
C286 H288 0.950 . S
C287 C281 1.404 1_655 S
C287 H285 0.949 . S
C287 C286 1.385 . S
H288 C286 0.950 . S
H289 C273 0.951 . S
H290 C275 0.951 . S
H291 C277 0.951 . S
H292 C278 0.950 . S
H293 C279 0.950 1_655 S
H294 C280 0.950 . S
H295 C282 0.950 . S
H296 C283 0.951 . S
C297 C298 1.386 1_565 S
C297 C299 1.387 1_565 S
C297 H313 0.951 . S
C298 C297 1.386 1_545 S
C298 C302 1.383 . S
C299 C297 1.387 1_545 S
C299 C300 1.414 . S
C299 H314 0.935 1_545 S
C300 C299 1.414 . S
C300 C301 1.375 . S
C300 C303 1.481 . S
C301 C300 1.375 . S
C301 C302 1.367 . S
C301 H315 0.951 . S
C302 C298 1.383 . S
C302 C301 1.367 . S
C302 H316 0.950 . S
C303 C300 1.481 . S
C303 C304 1.297 . S
C303 H317 0.950 . S
C304 C303 1.297 . S
C304 C305 1.479 . S
C304 H318 0.950 1_545 S
C305 C304 1.479 . S
C305 C306 1.375 1_545 S
C305 C311 1.404 . S
C306 C305 1.375 1_565 S
C306 C307 1.369 . S
C306 H319 0.950 . S
C307 C306 1.369 . S
C307 C308 1.392 1_565 S
C307 H320 0.951 . S
C308 C307 1.392 1_545 S
C308 C310 1.384 . S
H309 C311 0.949 . S
C310 C308 1.384 . S
C310 C311 1.385 . S
C310 H312 0.950 . S
C311 C305 1.404 . S
C311 H309 0.949 . S
C311 C310 1.385 . S
H312 C310 0.950 . S
H313 C297 0.951 . S
H314 C299 0.935 1_565 S
H315 C301 0.951 . S
H316 C302 0.950 . S
H317 C303 0.950 . S
H318 C304 0.950 1_565 S
H319 C306 0.950 . S
H320 C307 0.951 . S
C321 C322 1.386 . S
C321 C323 1.383 . S
C321 H337 0.951 . S
C322 C321 1.386 . S
C322 C326 1.383 . S
C323 C321 1.383 . S
C323 C324 1.402 . S
C323 H338 0.951 . S
C324 C323 1.402 . S
C324 C325 1.375 . S
C324 C327 1.481 . S
C325 C324 1.375 . S
C325 C326 1.367 . S
C325 H339 0.951 . S
C326 C322 1.383 . S
C326 C325 1.367 . S
C326 H340 0.950 . S
C327 C324 1.481 . S
C327 C328 1.297 . S
C327 H341 0.950 . S
C328 C327 1.297 . S
C328 C329 1.479 . S
C328 H342 0.950 . S
C329 C328 1.479 . S
C329 C330 1.375 1_554 S
C329 C335 1.403 . S
C330 C329 1.375 1_556 S
C330 C331 1.369 . S
C330 H343 0.950 . S
C331 C330 1.369 . S
C331 C332 1.392 . S
C331 H344 0.951 . S
C332 C331 1.392 . S
C332 C334 1.384 . S
H333 C335 0.946 . S
C334 C332 1.384 . S
C334 C335 1.388 1_556 S
C334 H336 0.950 . S
C335 C329 1.403 . S
C335 H333 0.946 . S
C335 C334 1.388 1_554 S
H336 C334 0.950 . S
H337 C321 0.951 . S
H338 C323 0.951 . S
H339 C325 0.951 . S
H340 C326 0.950 . S
H341 C327 0.950 . S
H342 C328 0.950 . S
H343 C330 0.950 . S
H344 C331 0.951 . S
C345 C346 1.386 1_655 S
C345 C347 1.386 1_655 S
C345 H361 0.951 . S
C346 C345 1.386 1_455 S
C346 C350 1.383 . S
C347 C345 1.386 1_455 S
C347 C348 1.407 . S
C347 H362 0.942 1_455 S
C348 C347 1.407 . S
C348 C349 1.375 . S
C348 C351 1.481 . S
C349 C348 1.375 . S
C349 C350 1.367 . S
C349 H363 0.951 . S
C350 C346 1.383 . S
C350 C349 1.367 . S
C350 H364 0.950 . S
C351 C348 1.481 . S
C351 C352 1.297 . S
C351 H365 0.950 . S
C352 C351 1.297 . S
C352 C353 1.479 . S
C352 H366 0.950 1_455 S
C353 C352 1.479 . S
C353 C354 1.375 1_455 S
C353 C359 1.404 . S
C354 C353 1.375 1_655 S
C354 C355 1.369 . S
C354 H367 0.950 . S
C355 C354 1.369 . S
C355 C356 1.392 1_655 S
C355 H368 0.951 . S
C356 C355 1.392 1_455 S
C356 C358 1.384 . S
H357 C359 0.949 . S
C358 C356 1.384 . S
C358 C359 1.385 . S
C358 H360 0.950 . S
C359 C353 1.404 . S
C359 H357 0.949 . S
C359 C358 1.385 . S
H360 C358 0.950 . S
H361 C345 0.951 . S
H362 C347 0.942 1_655 S
H363 C349 0.951 . S
H364 C350 0.950 . S
H365 C351 0.950 . S
H366 C352 0.950 1_655 S
H367 C354 0.950 . S
H368 C355 0.951 . S
C92 C47 1.414 . S
C82 C3 1.403 . S
C106 C21 1.493 . S
C116 C65 1.508 . S
C130 C37 1.468 . S
C140 C78 1.465 . S
C154 C8 1.407 . S
C164 C45 1.421 . S
C188 C56 1.482 . S
C178 C23 1.483 . S
C202 C35 1.472 . S
C212 C69 1.469 . S
C236 C58 1.417 . S
C226 C31 1.400 . S
C250 C7 1.383 . S
C260 C71 1.425 . S
C284 C52 1.482 . S
C274 C17 1.491 . S
C308 C60 1.357 . S
C298 C36 1.371 . S
C332 C73 1.411 . S
C322 C9 1.422 . S
C346 C22 1.484 . S
C356 C43 1.469 . S
