# Generated by pormake.
# Topology ocu, (6,8)-cn, num edge types: 1
# Building blocks:
#     Node 0, Type 0, BuildingBlock: KUMJIN_clean_sbu_1, # of connection points: 6
#     Node 1, Type 0, BuildingBlock: KUMJIN_clean_sbu_1, # of connection points: 6
#     Node 2, Type 0, BuildingBlock: KUMJIN_clean_sbu_1, # of connection points: 6
#     Node 3, Type 0, BuildingBlock: KUMJIN_clean_sbu_1, # of connection points: 6
#     Node 4, Type 0, BuildingBlock: KUMJIN_clean_sbu_1, # of connection points: 6
#     Node 5, Type 0, BuildingBlock: KUMJIN_clean_sbu_1, # of connection points: 6
#     Node 6, Type 0, BuildingBlock: KUMJIN_clean_sbu_1, # of connection points: 6
#     Node 7, Type 0, BuildingBlock: KUMJIN_clean_sbu_1, # of connection points: 6
#     Node 8, Type 1, BuildingBlock: VETTIZ_charged_sbu_0, # of connection points: 8
#     Node 9, Type 1, BuildingBlock: VETTIZ_charged_sbu_0, # of connection points: 8
#     Node 10, Type 1, BuildingBlock: VETTIZ_charged_sbu_0, # of connection points: 8
#     Node 11, Type 1, BuildingBlock: VETTIZ_charged_sbu_0, # of connection points: 8
#     Node 12, Type 1, BuildingBlock: VETTIZ_charged_sbu_0, # of connection points: 8
#     Node 13, Type 1, BuildingBlock: VETTIZ_charged_sbu_0, # of connection points: 8
#     Edge 14, Type (0, 1), BuildingBlock: KIFKEQ_clean_linker_1, # of connection points: 2
#     Edge 15, Type (0, 1), BuildingBlock: KIFKEQ_clean_linker_1, # of connection points: 2
#     Edge 16, Type (0, 1), BuildingBlock: KIFKEQ_clean_linker_1, # of connection points: 2
#     Edge 17, Type (0, 1), BuildingBlock: KIFKEQ_clean_linker_1, # of connection points: 2
#     Edge 18, Type (0, 1), BuildingBlock: KIFKEQ_clean_linker_1, # of connection points: 2
#     Edge 19, Type (0, 1), BuildingBlock: KIFKEQ_clean_linker_1, # of connection points: 2
#     Edge 20, Type (0, 1), BuildingBlock: KIFKEQ_clean_linker_1, # of connection points: 2
#     Edge 21, Type (0, 1), BuildingBlock: KIFKEQ_clean_linker_1, # of connection points: 2
#     Edge 22, Type (0, 1), BuildingBlock: KIFKEQ_clean_linker_1, # of connection points: 2
#     Edge 23, Type (0, 1), BuildingBlock: KIFKEQ_clean_linker_1, # of connection points: 2
#     Edge 24, Type (0, 1), BuildingBlock: KIFKEQ_clean_linker_1, # of connection points: 2
#     Edge 25, Type (0, 1), BuildingBlock: KIFKEQ_clean_linker_1, # of connection points: 2
#     Edge 26, Type (0, 1), BuildingBlock: KIFKEQ_clean_linker_1, # of connection points: 2
#     Edge 27, Type (0, 1), BuildingBlock: KIFKEQ_clean_linker_1, # of connection points: 2
#     Edge 28, Type (0, 1), BuildingBlock: KIFKEQ_clean_linker_1, # of connection points: 2
#     Edge 29, Type (0, 1), BuildingBlock: KIFKEQ_clean_linker_1, # of connection points: 2
#     Edge 30, Type (0, 1), BuildingBlock: KIFKEQ_clean_linker_1, # of connection points: 2
#     Edge 31, Type (0, 1), BuildingBlock: KIFKEQ_clean_linker_1, # of connection points: 2
#     Edge 32, Type (0, 1), BuildingBlock: KIFKEQ_clean_linker_1, # of connection points: 2
#     Edge 33, Type (0, 1), BuildingBlock: KIFKEQ_clean_linker_1, # of connection points: 2
#     Edge 34, Type (0, 1), BuildingBlock: KIFKEQ_clean_linker_1, # of connection points: 2
#     Edge 35, Type (0, 1), BuildingBlock: KIFKEQ_clean_linker_1, # of connection points: 2
#     Edge 36, Type (0, 1), BuildingBlock: KIFKEQ_clean_linker_1, # of connection points: 2
#     Edge 37, Type (0, 1), BuildingBlock: KIFKEQ_clean_linker_1, # of connection points: 2
#     Edge 38, Type (0, 1), BuildingBlock: KIFKEQ_clean_linker_1, # of connection points: 2
#     Edge 39, Type (0, 1), BuildingBlock: KIFKEQ_clean_linker_1, # of connection points: 2
#     Edge 40, Type (0, 1), BuildingBlock: KIFKEQ_clean_linker_1, # of connection points: 2
#     Edge 41, Type (0, 1), BuildingBlock: KIFKEQ_clean_linker_1, # of connection points: 2
#     Edge 42, Type (0, 1), BuildingBlock: KIFKEQ_clean_linker_1, # of connection points: 2
#     Edge 43, Type (0, 1), BuildingBlock: KIFKEQ_clean_linker_1, # of connection points: 2
#     Edge 44, Type (0, 1), BuildingBlock: KIFKEQ_clean_linker_1, # of connection points: 2
#     Edge 45, Type (0, 1), BuildingBlock: KIFKEQ_clean_linker_1, # of connection points: 2
#     Edge 46, Type (0, 1), BuildingBlock: KIFKEQ_clean_linker_1, # of connection points: 2
#     Edge 47, Type (0, 1), BuildingBlock: KIFKEQ_clean_linker_1, # of connection points: 2
#     Edge 48, Type (0, 1), BuildingBlock: KIFKEQ_clean_linker_1, # of connection points: 2
#     Edge 49, Type (0, 1), BuildingBlock: KIFKEQ_clean_linker_1, # of connection points: 2
#     Edge 50, Type (0, 1), BuildingBlock: KIFKEQ_clean_linker_1, # of connection points: 2
#     Edge 51, Type (0, 1), BuildingBlock: KIFKEQ_clean_linker_1, # of connection points: 2
#     Edge 52, Type (0, 1), BuildingBlock: KIFKEQ_clean_linker_1, # of connection points: 2
#     Edge 53, Type (0, 1), BuildingBlock: KIFKEQ_clean_linker_1, # of connection points: 2
#     Edge 54, Type (0, 1), BuildingBlock: KIFKEQ_clean_linker_1, # of connection points: 2
#     Edge 55, Type (0, 1), BuildingBlock: KIFKEQ_clean_linker_1, # of connection points: 2
#     Edge 56, Type (0, 1), BuildingBlock: KIFKEQ_clean_linker_1, # of connection points: 2
#     Edge 57, Type (0, 1), BuildingBlock: KIFKEQ_clean_linker_1, # of connection points: 2
#     Edge 58, Type (0, 1), BuildingBlock: KIFKEQ_clean_linker_1, # of connection points: 2
#     Edge 59, Type (0, 1), BuildingBlock: KIFKEQ_clean_linker_1, # of connection points: 2
#     Edge 60, Type (0, 1), BuildingBlock: KIFKEQ_clean_linker_1, # of connection points: 2
#     Edge 61, Type (0, 1), BuildingBlock: KIFKEQ_clean_linker_1, # of connection points: 2
# Relax obj value: 0.070
# Max RMSD: 0.135
# Mean RMSD: 0.100
data_MOF--net-ocu--node1-KUMJIN_clean_sbu_1--node2-VETTIZ_charged_sbu_0--edge1-KIFKEQ_clean_linker_1
_symmetry_space_group_name_H-M    P1
_symmetry_Int_Tables_number       1
_symmetry_cell_setting            triclinic
loop_
_symmetry_equiv_pos_as_xyz
'x, y, z'
_cell_length_a     39.537587
_cell_length_b     40.433901
_cell_length_c     41.919456
_cell_angle_alpha  100.07546
_cell_angle_beta   80.165071
_cell_angle_gamma 103.86274
loop_
_atom_site_label
_atom_site_type_symbol
_atom_site_fract_x
_atom_site_fract_y
_atom_site_fract_z
_atom_type_partial_charge
Eu0 Eu 0.24265 0.25756 0.23859 0.0
C1 C 0.32806 0.34739 0.35241 0.0
N2 N 0.34129 0.33109 0.32346 0.0
C3 C 0.39089 0.37838 0.31871 0.0
C4 C 0.3457 0.38034 0.36541 0.0
C5 C 0.37256 0.34568 0.30684 0.0
C6 C 0.3773 0.39589 0.34801 0.0
C7 C 0.28287 0.34697 0.39968 0.0
C8 C 0.29699 0.33089 0.3694 0.0
C9 C 0.30014 0.37998 0.41244 0.0
C10 C 0.33144 0.39662 0.39536 0.0
Eu11 Eu 0.30762 0.27667 0.30502 0.0
N12 N 0.28023 0.29931 0.35602 0.0
C13 C 0.25184 0.32933 0.41626 0.0
C14 C 0.25102 0.28133 0.37282 0.0
C15 C 0.23607 0.29622 0.40293 0.0
H16 H 0.38371 0.33185 0.28469 0.0
H17 H 0.21249 0.28209 0.4159 0.0
H18 H 0.1742 0.19301 0.25894 0.0
H19 H 0.33996 0.26455 0.12934 0.0
H20 H 0.23921 0.2556 0.36305 0.0
H21 H 0.24014 0.34083 0.43956 0.0
H22 H 0.30999 0.2865 0.18269 0.0
H23 H 0.41559 0.38995 0.30538 0.0
H24 H 0.28959 0.39281 0.43559 0.0
H25 H 0.34456 0.42199 0.40564 0.0
H26 H 0.1497 0.13314 0.23666 0.0
H27 H 0.39162 0.42119 0.35719 0.0
H28 H 0.31869 0.2048 0.10377 0.0
N29 N 0.21627 0.20021 0.21989 0.0
C30 C 0.23119 0.18665 0.19028 0.0
C31 C 0.17278 0.14782 0.22352 0.0
C32 C 0.21763 0.15262 0.17647 0.0
C33 C 0.18706 0.18166 0.23629 0.0
C34 C 0.18822 0.13316 0.19359 0.0
N35 N 0.27345 0.23925 0.18789 0.0
C36 C 0.30097 0.26029 0.17201 0.0
C37 C 0.27632 0.1933 0.14309 0.0
C38 C 0.26023 0.2068 0.17366 0.0
C39 C 0.30555 0.21428 0.12724 0.0
C40 C 0.31774 0.24799 0.14166 0.0
H41 H 0.17703 0.10694 0.18376 0.0
H42 H 0.22369 0.11298 0.13514 0.0
H43 H 0.27505 0.14851 0.10603 0.0
O44 O 0.23493 0.29622 0.21142 0.0
O45 O 0.28425 0.22398 0.23304 0.0
O46 O 0.33289 0.25838 0.25406 0.0
O47 O 0.19361 0.25136 0.21867 0.0
O48 O 0.28137 0.30947 0.24383 0.0
O49 O 0.33116 0.29996 0.25877 0.0
O50 O 0.3119 0.23236 0.32636 0.0
O51 O 0.26807 0.31196 0.31218 0.0
O52 O 0.2193 0.28194 0.28801 0.0
O53 O 0.35419 0.27753 0.32675 0.0
O54 O 0.26629 0.22641 0.29932 0.0
O55 O 0.2168 0.23745 0.28626 0.0
C56 C 0.31865 0.23212 0.23373 0.0
C57 C 0.17643 0.30309 0.21659 0.0
C58 C 0.14833 0.34565 0.20266 0.0
C59 C 0.12662 0.34453 0.23302 0.0
C60 C 0.15445 0.30263 0.24661 0.0
C61 C 0.12983 0.32334 0.25478 0.0
C62 C 0.1734 0.32472 0.19472 0.0
C63 C 0.31557 0.31728 0.24424 0.0
C64 C 0.20247 0.28107 0.20802 0.0
C65 C 0.23371 0.1391 0.14606 0.0
C66 C 0.26295 0.15936 0.12944 0.0
C67 C 0.23487 0.30785 0.30796 0.0
C68 C 0.36975 0.22397 0.32148 0.0
C69 C 0.40012 0.18174 0.33226 0.0
C70 C 0.42107 0.18463 0.30162 0.0
C71 C 0.39061 0.22593 0.29096 0.0
C72 C 0.37418 0.20156 0.34181 0.0
C73 C 0.41602 0.20624 0.2811 0.0
C74 C 0.23191 0.22211 0.30326 0.0
C75 C 0.34393 0.24583 0.33257 0.0
H76 H 0.10654 0.35953 0.23982 0.0
H77 H 0.15612 0.28598 0.26359 0.0
H78 H 0.11288 0.32269 0.27796 0.0
H79 H 0.19071 0.3253 0.1717 0.0
H80 H 0.44198 0.17079 0.29359 0.0
H81 H 0.38761 0.24306 0.27499 0.0
H82 H 0.35737 0.19975 0.365 0.0
H83 H 0.43228 0.20815 0.25766 0.0
Eu84 Eu 0.75199 0.3059 0.28313 0.0
C85 C 0.85798 0.22042 0.19723 0.0
N86 N 0.82475 0.20841 0.21152 0.0
C87 C 0.81252 0.16885 0.16309 0.0
C88 C 0.86955 0.20733 0.16479 0.0
C89 C 0.80218 0.1827 0.19522 0.0
C90 C 0.84631 0.18131 0.14773 0.0
C91 C 0.91467 0.2598 0.20035 0.0
C92 C 0.88022 0.24654 0.21484 0.0
C93 C 0.92617 0.24692 0.168 0.0
C94 C 0.90369 0.22077 0.15029 0.0
Eu95 Eu 0.80939 0.23344 0.26563 0.0
N96 N 0.86813 0.25915 0.24593 0.0
C97 C 0.93669 0.28551 0.21886 0.0
C98 C 0.89033 0.28266 0.26463 0.0
C99 C 0.9246 0.29663 0.25127 0.0
H100 H 0.77646 0.17234 0.20727 0.0
H101 H 0.94186 0.31562 0.26616 0.0
H102 H 0.77782 0.35546 0.35116 0.0
H103 H 0.62212 0.22545 0.26321 0.0
H104 H 0.88243 0.29017 0.29012 0.0
H105 H 0.96331 0.29634 0.20861 0.0
H106 H 0.68146 0.25844 0.24691 0.0
H107 H 0.79449 0.14847 0.15024 0.0
H108 H 0.95248 0.25695 0.15649 0.0
H109 H 0.91297 0.21111 0.12536 0.0
H110 H 0.75503 0.36642 0.40985 0.0
H111 H 0.85422 0.17059 0.12279 0.0
H112 H 0.59745 0.22836 0.32171 0.0
N113 N 0.73159 0.31923 0.33919 0.0
C114 C 0.69821 0.30323 0.34986 0.0
C115 C 0.73886 0.34848 0.39327 0.0
C116 C 0.68425 0.30854 0.38316 0.0
C117 C 0.75176 0.34213 0.3601 0.0
C118 C 0.70506 0.33144 0.4049 0.0
N119 N 0.69295 0.2756 0.29556 0.0
C120 C 0.67228 0.25794 0.27249 0.0
C121 C 0.64403 0.26312 0.33801 0.0
C122 C 0.67857 0.28043 0.32753 0.0
C123 C 0.62408 0.24206 0.31466 0.0
C124 C 0.63801 0.24011 0.28166 0.0
H125 H 0.69527 0.3362 0.43067 0.0
H126 H 0.63923 0.29404 0.4193 0.0
H127 H 0.60392 0.25449 0.37976 0.0
O128 O 0.72484 0.32907 0.25363 0.0
O129 O 0.7528 0.27397 0.32254 0.0
O130 O 0.75473 0.22108 0.29376 0.0
O131 O 0.75006 0.36014 0.29466 0.0
O132 O 0.74467 0.26538 0.23738 0.0
O133 O 0.75399 0.21618 0.2521 0.0
O134 O 0.83455 0.21656 0.3012 0.0
O135 O 0.81454 0.26671 0.22577 0.0
O136 O 0.80549 0.3191 0.25295 0.0
O137 O 0.81296 0.17984 0.26095 0.0
O138 O 0.82001 0.27599 0.30901 0.0
O139 O 0.80713 0.3253 0.29731 0.0
C140 C 0.74354 0.24045 0.31992 0.0
C141 C 0.72084 0.38992 0.26581 0.0
C142 C 0.68783 0.41783 0.23813 0.0
C143 C 0.69814 0.44869 0.25888 0.0
C144 C 0.73074 0.42121 0.28609 0.0
C145 C 0.71953 0.45033 0.28253 0.0
C146 C 0.69959 0.38843 0.24148 0.0
C147 C 0.73975 0.23146 0.23415 0.0
C148 C 0.73171 0.35905 0.27145 0.0
C149 C 0.65029 0.29054 0.39376 0.0
C150 C 0.63024 0.26789 0.37126 0.0
C151 C 0.8205 0.30035 0.2283 0.0
C152 C 0.84005 0.15672 0.29739 0.0
C153 C 0.86427 0.13432 0.33693 0.0
C154 C 0.8579 0.10159 0.3182 0.0
C155 C 0.83409 0.12375 0.27905 0.0
C156 C 0.85563 0.16202 0.32624 0.0
C157 C 0.84307 0.09645 0.28939 0.0
C158 C 0.82332 0.30978 0.31337 0.0
C159 C 0.82919 0.18494 0.28643 0.0
H160 H 0.68998 0.47179 0.25651 0.0
H161 H 0.74702 0.4232 0.30497 0.0
H162 H 0.72735 0.47428 0.29828 0.0
H163 H 0.69162 0.36446 0.22576 0.0
H164 H 0.86459 0.07995 0.3258 0.0
H165 H 0.82231 0.11895 0.25671 0.0
H166 H 0.86022 0.18725 0.34073 0.0
H167 H 0.83835 0.07115 0.27512 0.0
Eu168 Eu 0.77475 0.73636 0.30315 0.0
C169 C 0.86464 0.82485 0.19457 0.0
N170 N 0.85092 0.83708 0.22515 0.0
C171 C 0.90322 0.88101 0.2304 0.0
C172 C 0.89874 0.84014 0.1809 0.0
C173 C 0.86934 0.86499 0.24297 0.0
C174 C 0.91806 0.86846 0.19929 0.0
C175 C 0.85848 0.78311 0.14543 0.0
C176 C 0.8447 0.79662 0.17697 0.0
C177 C 0.89246 0.79827 0.13181 0.0
C178 C 0.91251 0.82669 0.14948 0.0
Eu179 Eu 0.79387 0.80801 0.24411 0.0
N180 N 0.81233 0.78162 0.19123 0.0
C181 C 0.83775 0.75459 0.12858 0.0
C182 C 0.79147 0.75476 0.17442 0.0
C183 C 0.804 0.74055 0.14304 0.0
H184 H 0.85765 0.87532 0.26666 0.0
H185 H 0.78757 0.71889 0.12996 0.0
H186 H 0.70591 0.67403 0.28211 0.0
H187 H 0.79125 0.82169 0.41871 0.0
H188 H 0.76518 0.74428 0.18503 0.0
H189 H 0.84742 0.74343 0.10431 0.0
H190 H 0.81016 0.79508 0.36317 0.0
H191 H 0.91781 0.90311 0.24463 0.0
H192 H 0.90351 0.78817 0.10764 0.0
H193 H 0.93869 0.83807 0.13863 0.0
H194 H 0.64462 0.65115 0.30511 0.0
H195 H 0.94433 0.88092 0.18963 0.0
H196 H 0.73038 0.8025 0.44514 0.0
N197 N 0.71641 0.71164 0.32335 0.0
C198 C 0.70454 0.72448 0.35436 0.0
C199 C 0.66108 0.67198 0.3191 0.0
C200 C 0.66987 0.71188 0.36867 0.0
C201 C 0.69559 0.68532 0.30589 0.0
C202 C 0.64807 0.68545 0.35055 0.0
N203 N 0.76009 0.76298 0.35702 0.0
C204 C 0.78335 0.78731 0.37385 0.0
C205 C 0.71519 0.76476 0.40375 0.0
C206 C 0.72702 0.75065 0.37176 0.0
C207 C 0.73847 0.79098 0.42053 0.0
C208 C 0.7728 0.80203 0.40563 0.0
H209 H 0.62129 0.67506 0.3607 0.0
H210 H 0.63145 0.71675 0.41181 0.0
H211 H 0.67105 0.76303 0.44246 0.0
O212 O 0.81443 0.72057 0.32422 0.0
O213 O 0.73847 0.77525 0.31315 0.0
O214 O 0.77252 0.82565 0.2968 0.0
O215 O 0.76606 0.68436 0.31504 0.0
O216 O 0.82735 0.77464 0.3013 0.0
O217 O 0.81714 0.8255 0.2914 0.0
O218 O 0.75439 0.81801 0.21846 0.0
O219 O 0.83124 0.77027 0.23453 0.0
O220 O 0.79728 0.71975 0.25045 0.0
O221 O 0.79681 0.85962 0.23313 0.0
O222 O 0.74123 0.76982 0.24749 0.0
O223 O 0.75278 0.71911 0.25549 0.0
C224 C 0.74558 0.80909 0.31521 0.0
C225 C 0.8173 0.6623 0.30772 0.0
C226 C 0.85896 0.6274 0.31091 0.0
C227 C 0.85549 0.61205 0.27847 0.0
C228 C 0.81386 0.64626 0.27559 0.0
C229 C 0.83311 0.62152 0.26099 0.0
C230 C 0.83996 0.65292 0.32522 0.0
C231 C 0.83526 0.80837 0.30344 0.0
C232 C 0.79727 0.68864 0.32322 0.0
C233 C 0.65804 0.72603 0.40048 0.0
C234 C 0.68061 0.75239 0.41795 0.0
C235 C 0.82522 0.73657 0.23334 0.0
C236 C 0.74257 0.8737 0.23075 0.0
C237 C 0.70265 0.90556 0.21702 0.0
C238 C 0.69502 0.91728 0.25061 0.0
C239 C 0.73422 0.88551 0.26398 0.0
C240 C 0.7266 0.88355 0.20739 0.0
C241 C 0.71055 0.90716 0.2738 0.0
C242 C 0.73399 0.73608 0.24429 0.0
C243 C 0.76769 0.85094 0.22017 0.0
H244 H 0.86935 0.59208 0.26685 0.0
H245 H 0.79604 0.6527 0.26194 0.0
H246 H 0.83031 0.60929 0.23617 0.0
H247 H 0.8427 0.66554 0.34997 0.0
H248 H 0.67746 0.93476 0.25907 0.0
H249 H 0.74615 0.87815 0.28227 0.0
H250 H 0.73266 0.87373 0.18181 0.0
H251 H 0.70441 0.91635 0.29951 0.0
Eu252 Eu 0.25943 0.7817 0.27935 0.0
C253 C 0.33618 0.68563 0.32138 0.0
N254 N 0.34962 0.71653 0.31053 0.0
C255 C 0.38239 0.73554 0.35603 0.0
C256 C 0.34409 0.6791 0.35094 0.0
C257 C 0.374 0.74066 0.32644 0.0
C258 C 0.36688 0.70488 0.36867 0.0
C259 C 0.30258 0.62696 0.31171 0.0
C260 C 0.31588 0.6598 0.30201 0.0
C261 C 0.30915 0.6208 0.34178 0.0
C262 C 0.32986 0.64681 0.36136 0.0
Eu263 Eu 0.33054 0.72363 0.26188 0.0
N264 N 0.30941 0.66674 0.27339 0.0
C265 C 0.28337 0.60126 0.2907 0.0
C266 C 0.29195 0.64155 0.25217 0.0
C267 C 0.2784 0.60849 0.26062 0.0
H268 H 0.38754 0.76378 0.31627 0.0
H269 H 0.26399 0.58868 0.24403 0.0
H270 H 0.23276 0.77422 0.20641 0.0
H271 H 0.30476 0.90116 0.35948 0.0
H272 H 0.28793 0.64724 0.22903 0.0
H273 H 0.27269 0.57569 0.29726 0.0
H274 H 0.27567 0.8402 0.34668 0.0
H275 H 0.40115 0.7551 0.36888 0.0
H276 H 0.29884 0.59584 0.34986 0.0
H277 H 0.33534 0.64146 0.38417 0.0
H278 H 0.24029 0.80907 0.16147 0.0
H279 H 0.37362 0.70089 0.39149 0.0
H280 H 0.32438 0.9378 0.31543 0.0
N281 N 0.26344 0.81403 0.23635 0.0
C282 C 0.28022 0.84757 0.2409 0.0
C283 C 0.25189 0.82013 0.18358 0.0
C284 C 0.28539 0.86832 0.21601 0.0
C285 C 0.24751 0.80057 0.209 0.0
C286 C 0.27155 0.85395 0.18682 0.0
N287 N 0.2818 0.84129 0.29536 0.0
C288 C 0.28514 0.85557 0.32702 0.0
C289 C 0.30588 0.8968 0.27762 0.0
C290 C 0.29017 0.86153 0.27128 0.0
C291 C 0.31229 0.91084 0.30954 0.0
C292 C 0.30121 0.89026 0.33447 0.0
H293 H 0.27494 0.86905 0.1671 0.0
H294 H 0.30771 0.91923 0.20256 0.0
H295 H 0.32575 0.9442 0.25657 0.0
O296 O 0.21601 0.80295 0.30876 0.0
O297 O 0.29768 0.78116 0.23136 0.0
O298 O 0.34662 0.7782 0.25054 0.0
O299 O 0.20553 0.75977 0.27091 0.0
O300 O 0.29423 0.78834 0.31956 0.0
O301 O 0.34554 0.77804 0.28905 0.0
O302 O 0.35196 0.70639 0.21201 0.0
O303 O 0.27626 0.7029 0.28837 0.0
O304 O 0.26237 0.75134 0.31941 0.0
O305 O 0.38326 0.71296 0.25116 0.0
O306 O 0.29231 0.71207 0.22366 0.0
O307 O 0.24274 0.7276 0.25387 0.0
C308 C 0.33201 0.78845 0.22952 0.0
C309 C 0.16372 0.76071 0.31759 0.0
C310 C 0.10942 0.76138 0.35468 0.0
C311 C 0.10901 0.72845 0.36138 0.0
C312 C 0.16301 0.72755 0.32401 0.0
C313 C 0.13563 0.71149 0.34578 0.0
C314 C 0.13683 0.77713 0.33261 0.0
C315 C 0.32875 0.79359 0.31499 0.0
C316 C 0.19211 0.77896 0.29549 0.0
C317 C 0.30299 0.90295 0.22153 0.0
C318 C 0.31328 0.91716 0.25229 0.0
C319 C 0.26126 0.71813 0.31542 0.0
C320 C 0.41071 0.73555 0.20233 0.0
C321 C 0.43607 0.75737 0.1508 0.0
C322 C 0.45738 0.78551 0.16768 0.0
C323 C 0.4318 0.76419 0.21906 0.0
C324 C 0.41302 0.7325 0.16837 0.0
C325 C 0.4551 0.78889 0.20172 0.0
C326 C 0.25816 0.71105 0.22789 0.0
C327 C 0.38343 0.71065 0.21975 0.0
H328 H 0.08856 0.71623 0.37897 0.0
H329 H 0.18359 0.71423 0.3124 0.0
H330 H 0.13539 0.68612 0.35098 0.0
H331 H 0.13821 0.8031 0.32815 0.0
H332 H 0.47596 0.80452 0.15454 0.0
H333 H 0.42999 0.76781 0.24546 0.0
H334 H 0.39719 0.71006 0.15551 0.0
H335 H 0.47133 0.8108 0.21472 0.0
Eu336 Eu 0.26061 0.80427 0.77679 0.0
C337 C 0.37085 0.72568 0.69621 0.0
N338 N 0.33656 0.71203 0.70631 0.0
C339 C 0.33042 0.67916 0.65341 0.0
C340 C 0.38611 0.71691 0.66379 0.0
C341 C 0.31634 0.68878 0.68569 0.0
C342 C 0.36542 0.69335 0.64237 0.0
C343 C 0.42592 0.76412 0.70813 0.0
C344 C 0.39033 0.74939 0.71812 0.0
C345 C 0.44104 0.75581 0.67574 0.0
C346 C 0.4212 0.73227 0.65365 0.0
Eu347 Eu 0.3149 0.72939 0.76114 0.0
N348 N 0.3749 0.75727 0.74932 0.0
C349 C 0.44558 0.78605 0.73124 0.0
C350 C 0.39507 0.77579 0.7725 0.0
C351 C 0.43027 0.79131 0.76371 0.0
H352 H 0.2894 0.67747 0.69422 0.0
H353 H 0.44581 0.8066 0.78217 0.0
H354 H 0.29609 0.86516 0.83425 0.0
H355 H 0.12685 0.72496 0.77858 0.0
H356 H 0.38486 0.77756 0.79803 0.0
H357 H 0.47298 0.79782 0.72456 0.0
H358 H 0.18691 0.74795 0.75401 0.0
H359 H 0.31428 0.66081 0.63707 0.0
H360 H 0.46824 0.76709 0.66766 0.0
H361 H 0.4333 0.72603 0.62879 0.0
H362 H 0.2791 0.89059 0.89098 0.0
H363 H 0.37618 0.68599 0.61728 0.0
H364 H 0.10599 0.74687 0.83558 0.0
N365 N 0.24659 0.83079 0.8306 0.0
C366 C 0.21314 0.82019 0.84516 0.0
C367 C 0.26037 0.87068 0.87845 0.0
C368 C 0.20223 0.83421 0.87746 0.0
C369 C 0.27006 0.85595 0.84647 0.0
C370 C 0.22635 0.85969 0.89407 0.0
N371 N 0.20158 0.78069 0.79721 0.0
C372 C 0.17898 0.75686 0.77918 0.0
C373 C 0.15541 0.78249 0.8429 0.0
C374 C 0.19002 0.79448 0.82804 0.0
C375 C 0.13274 0.75677 0.82502 0.0
C376 C 0.14449 0.74419 0.79291 0.0
H377 H 0.21895 0.87109 0.91891 0.0
H378 H 0.15903 0.8326 0.91709 0.0
H379 H 0.11807 0.78739 0.88685 0.0
O380 O 0.23616 0.82182 0.74111 0.0
O381 O 0.25266 0.77025 0.81659 0.0
O382 O 0.25992 0.71776 0.78856 0.0
O383 O 0.26018 0.85854 0.78014 0.0
O384 O 0.24968 0.76252 0.73297 0.0
O385 O 0.26069 0.71218 0.74434 0.0
O386 O 0.33947 0.70676 0.7932 0.0
O387 O 0.31903 0.76066 0.71987 0.0
O388 O 0.31557 0.81289 0.74931 0.0
O389 O 0.31437 0.67453 0.7526 0.0
O390 O 0.3217 0.77025 0.80681 0.0
O391 O 0.31599 0.81979 0.79021 0.0
C392 C 0.24586 0.73655 0.81372 0.0
C393 C 0.23442 0.8825 0.7433 0.0
C394 C 0.20956 0.90514 0.70436 0.0
C395 C 0.22018 0.93852 0.72081 0.0
C396 C 0.24457 0.91614 0.75941 0.0
C397 C 0.23739 0.94389 0.74824 0.0
C398 C 0.21645 0.87704 0.71588 0.0
C399 C 0.2457 0.72867 0.72805 0.0
C400 C 0.24358 0.85372 0.75493 0.0
C401 C 0.16783 0.82219 0.89227 0.0
C402 C 0.14451 0.79641 0.87505 0.0
C403 C 0.3249 0.79418 0.72195 0.0
C404 C 0.34072 0.64533 0.7846 0.0
C405 C 0.37339 0.61833 0.81345 0.0
C406 C 0.36012 0.58632 0.79567 0.0
C407 C 0.32781 0.61294 0.7673 0.0
C408 C 0.36325 0.64786 0.80808 0.0
C409 C 0.33738 0.58369 0.77293 0.0
C410 C 0.32815 0.80422 0.80943 0.0
C411 C 0.3318 0.67618 0.77662 0.0
H412 H 0.21492 0.9605 0.71254 0.0
H413 H 0.25831 0.92112 0.78059 0.0
H414 H 0.24536 0.9697 0.76078 0.0
H415 H 0.20855 0.85128 0.70314 0.0
H416 H 0.36705 0.56315 0.79967 0.0
H417 H 0.31045 0.61017 0.74916 0.0
H418 H 0.37358 0.6727 0.82147 0.0
H419 H 0.32726 0.55887 0.75947 0.0
Eu420 Eu 0.27337 0.23706 0.80322 0.0
C421 C 0.36624 0.32792 0.69826 0.0
N422 N 0.3521 0.33908 0.72902 0.0
C423 C 0.40514 0.38137 0.73662 0.0
C424 C 0.40094 0.34277 0.68573 0.0
C425 C 0.37059 0.36592 0.74793 0.0
C426 C 0.42049 0.36958 0.70547 0.0
C427 C 0.35958 0.28985 0.64697 0.0
C428 C 0.34576 0.30181 0.67903 0.0
C429 C 0.39431 0.30426 0.63461 0.0
C430 C 0.41491 0.33065 0.65391 0.0
Eu431 Eu 0.29395 0.31085 0.74615 0.0
N432 N 0.31245 0.28777 0.69193 0.0
C433 C 0.33804 0.26379 0.62827 0.0
C434 C 0.29088 0.26351 0.67333 0.0
C435 C 0.30344 0.25081 0.64142 0.0
H436 H 0.35838 0.37598 0.77142 0.0
H437 H 0.28634 0.23117 0.62691 0.0
H438 H 0.20866 0.17139 0.77929 0.0
H439 H 0.28033 0.32398 0.91873 0.0
H440 H 0.26398 0.2541 0.68291 0.0
H441 H 0.3477 0.25386 0.60354 0.0
H442 H 0.30231 0.29989 0.86309 0.0
H443 H 0.41977 0.40256 0.7518 0.0
H444 H 0.40542 0.2953 0.61007 0.0
H445 H 0.44157 0.34167 0.64393 0.0
H446 H 0.14856 0.1434 0.8012 0.0
H447 H 0.44723 0.38168 0.69672 0.0
H448 H 0.22072 0.29881 0.9444 0.0
N449 N 0.21608 0.20825 0.8217 0.0
C450 C 0.20268 0.2197 0.85266 0.0
C451 C 0.16342 0.16495 0.81584 0.0
C452 C 0.16862 0.20424 0.86626 0.0
C453 C 0.19728 0.18109 0.80334 0.0
C454 C 0.14897 0.17662 0.8474 0.0
N455 N 0.25514 0.26275 0.85646 0.0
C456 C 0.27608 0.28923 0.87361 0.0
C457 C 0.20933 0.26017 0.90258 0.0
C458 C 0.22285 0.24744 0.87065 0.0
C459 C 0.23018 0.28825 0.91983 0.0
C460 C 0.26379 0.30266 0.90536 0.0
H461 H 0.12271 0.16406 0.85699 0.0
H462 H 0.12903 0.20534 0.9089 0.0
H463 H 0.16461 0.25424 0.94065 0.0
O464 O 0.312 0.22543 0.82882 0.0
O465 O 0.23566 0.27446 0.81299 0.0
O466 O 0.2705 0.32526 0.79892 0.0
O467 O 0.26933 0.18478 0.8129 0.0
O468 O 0.32648 0.27465 0.80056 0.0
O469 O 0.31486 0.32584 0.79437 0.0
O470 O 0.25378 0.32534 0.72486 0.0
O471 O 0.3292 0.2708 0.73388 0.0
O472 O 0.2953 0.22031 0.75057 0.0
O473 O 0.29887 0.36406 0.73896 0.0
O474 O 0.24175 0.27214 0.7463 0.0
O475 O 0.25094 0.22057 0.75542 0.0
C476 C 0.24149 0.30816 0.81433 0.0
C477 C 0.32305 0.16953 0.81478 0.0
C478 C 0.36247 0.13654 0.82741 0.0
C479 C 0.36988 0.12539 0.79368 0.0
C480 C 0.33112 0.15824 0.78138 0.0
C481 C 0.35445 0.13632 0.77094 0.0
C482 C 0.33892 0.15887 0.83766 0.0
C483 C 0.33388 0.3084 0.80458 0.0
C484 C 0.29829 0.19253 0.82607 0.0
C485 C 0.15516 0.21688 0.89808 0.0
C486 C 0.17544 0.24474 0.91618 0.0
C487 C 0.32195 0.23692 0.73189 0.0
C488 C 0.27234 0.37276 0.69559 0.0
C489 C 0.24544 0.4017 0.66357 0.0
C490 C 0.27377 0.40032 0.6384 0.0
C491 C 0.30058 0.37182 0.67038 0.0
C492 C 0.24503 0.38802 0.69224 0.0
C493 C 0.30127 0.38564 0.64195 0.0
C494 C 0.23461 0.23836 0.74209 0.0
C495 C 0.27037 0.35741 0.72528 0.0
H496 H 0.38719 0.10772 0.78478 0.0
H497 H 0.31923 0.16622 0.76343 0.0
H498 H 0.36039 0.12755 0.7451 0.0
H499 H 0.33307 0.16828 0.86339 0.0
H500 H 0.27463 0.41065 0.61604 0.0
H501 H 0.32197 0.3604 0.67261 0.0
H502 H 0.22299 0.38841 0.71157 0.0
H503 H 0.32305 0.38476 0.62251 0.0
Eu504 Eu 0.73465 0.30532 0.77785 0.0
C505 C 0.86944 0.23237 0.78283 0.0
N506 N 0.86426 0.25894 0.76996 0.0
C507 C 0.9224 0.29066 0.77816 0.0
C508 C 0.90117 0.23415 0.79474 0.0
C509 C 0.89055 0.28743 0.76637 0.0
C510 C 0.92759 0.26406 0.79278 0.0
C511 C 0.84873 0.17339 0.79332 0.0
C512 C 0.84368 0.20256 0.78218 0.0
C513 C 0.87964 0.17537 0.80653 0.0
C514 C 0.90582 0.20573 0.80726 0.0
Eu515 Eu 0.80886 0.25291 0.75286 0.0
N516 N 0.81455 0.20148 0.76876 0.0
C517 C 0.82302 0.1429 0.78993 0.0
C518 C 0.79017 0.17148 0.76401 0.0
C519 C 0.7938 0.14184 0.77483 0.0
H520 H 0.8866 0.30802 0.75506 0.0
H521 H 0.77415 0.11821 0.77144 0.0
H522 H 0.71702 0.32026 0.70736 0.0
H523 H 0.73078 0.38614 0.89707 0.0
H524 H 0.7677 0.17049 0.75212 0.0
H525 H 0.8259 0.11987 0.79813 0.0
H526 H 0.73287 0.33271 0.85865 0.0
H527 H 0.94291 0.31362 0.77595 0.0
H528 H 0.88391 0.15333 0.81548 0.0
H529 H 0.92989 0.20666 0.81678 0.0
H530 H 0.70904 0.3688 0.68287 0.0
H531 H 0.95235 0.26651 0.80172 0.0
H532 H 0.72622 0.43862 0.87683 0.0
N533 N 0.72419 0.34993 0.75377 0.0
C534 C 0.72397 0.38061 0.77283 0.0
C535 C 0.71337 0.37254 0.70818 0.0
C536 C 0.71917 0.40895 0.76009 0.0
C537 C 0.71797 0.34516 0.72208 0.0
C538 C 0.71431 0.40471 0.72719 0.0
N539 N 0.73015 0.3548 0.81692 0.0
C540 C 0.73071 0.35542 0.84954 0.0
C541 C 0.72552 0.41418 0.82658 0.0
C542 C 0.72702 0.38313 0.80551 0.0
C543 C 0.72723 0.41527 0.85983 0.0
C544 C 0.72971 0.38569 0.87136 0.0
H545 H 0.71058 0.42585 0.71643 0.0
H546 H 0.71521 0.46242 0.77133 0.0
H547 H 0.72082 0.46702 0.82965 0.0
O548 O 0.67807 0.30297 0.7855 0.0
O549 O 0.77244 0.31553 0.73176 0.0
O550 O 0.82351 0.30981 0.74624 0.0
O551 O 0.69662 0.25649 0.78203 0.0
O552 O 0.78127 0.32913 0.8072 0.0
O553 O 0.82328 0.29517 0.79471 0.0
O554 O 0.83906 0.22648 0.71222 0.0
O555 O 0.7609 0.23054 0.78773 0.0
O556 O 0.74716 0.2797 0.81733 0.0
O557 O 0.80837 0.26018 0.70245 0.0
O558 O 0.75306 0.22748 0.7442 0.0
O559 O 0.74108 0.27323 0.72793 0.0
C560 C 0.80663 0.32542 0.73113 0.0
C561 C 0.64543 0.26081 0.81742 0.0
C562 C 0.62892 0.27474 0.87593 0.0
C563 C 0.59874 0.24802 0.8744 0.0
C564 C 0.61529 0.23436 0.81582 0.0
C565 C 0.59237 0.22755 0.84447 0.0
C566 C 0.65295 0.27918 0.84754 0.0
C567 C 0.81113 0.32178 0.81131 0.0
C568 C 0.66939 0.27021 0.78818 0.0
C569 C 0.71865 0.44027 0.7807 0.0
C570 C 0.72182 0.44288 0.8139 0.0
C571 C 0.74667 0.24676 0.81489 0.0
C572 C 0.80772 0.20855 0.66648 0.0
C573 C 0.79426 0.14781 0.6438 0.0
C574 C 0.77093 0.15452 0.62517 0.0
C575 C 0.78486 0.21503 0.64717 0.0
C576 C 0.81247 0.17502 0.66427 0.0
C577 C 0.76644 0.18806 0.6268 0.0
C578 C 0.73716 0.23975 0.72543 0.0
C579 C 0.82528 0.23606 0.69009 0.0
H580 H 0.57944 0.24385 0.89578 0.0
H581 H 0.60943 0.21932 0.79261 0.0
H582 H 0.56895 0.20723 0.84329 0.0
H583 H 0.67718 0.2983 0.84841 0.0
H584 H 0.7567 0.13403 0.60901 0.0
H585 H 0.7807 0.24076 0.64831 0.0
H586 H 0.83136 0.17027 0.67791 0.0
H587 H 0.74852 0.19314 0.61234 0.0
Eu588 Eu 0.74985 0.75927 0.73844 0.0
C589 C 0.82481 0.85476 0.85176 0.0
N590 N 0.84034 0.84142 0.82236 0.0
C591 C 0.88133 0.89521 0.81784 0.0
C592 C 0.83672 0.88937 0.865 0.0
C593 C 0.86861 0.8608 0.80563 0.0
C594 C 0.86521 0.90962 0.84755 0.0
C595 C 0.77984 0.84717 0.89894 0.0
C596 C 0.79665 0.83383 0.86864 0.0
C597 C 0.79158 0.88168 0.91202 0.0
C598 C 0.81992 0.90269 0.89513 0.0
Eu599 Eu 0.81678 0.78311 0.80443 0.0
N600 N 0.78502 0.80076 0.85496 0.0
C601 C 0.75154 0.82546 0.91511 0.0
C602 C 0.75853 0.7791 0.87126 0.0
C603 C 0.74105 0.79121 0.90133 0.0
H604 H 0.88195 0.84964 0.78321 0.0
H605 H 0.71966 0.77406 0.91397 0.0
H606 H 0.67294 0.70798 0.76315 0.0
H607 H 0.84145 0.74359 0.62629 0.0
H608 H 0.75099 0.75245 0.86135 0.0
H609 H 0.73788 0.83478 0.93837 0.0
H610 H 0.81739 0.77404 0.67834 0.0
H611 H 0.90372 0.91052 0.80445 0.0
H612 H 0.77888 0.89238 0.93521 0.0
H613 H 0.82868 0.92924 0.9056 0.0
H614 H 0.63858 0.64963 0.74657 0.0
H615 H 0.87515 0.9363 0.85694 0.0
H616 H 0.81121 0.68439 0.60642 0.0
N617 N 0.71413 0.70476 0.72369 0.0
C618 C 0.72594 0.68613 0.69554 0.0
C619 C 0.66322 0.65949 0.73212 0.0
C620 C 0.70688 0.65297 0.68481 0.0
C621 C 0.68292 0.69232 0.74168 0.0
C622 C 0.67535 0.63962 0.70367 0.0
N623 N 0.77491 0.73236 0.68829 0.0
C624 C 0.8042 0.74832 0.66994 0.0
C625 C 0.76958 0.68209 0.64746 0.0
C626 C 0.75692 0.70049 0.67708 0.0
C627 C 0.80058 0.69771 0.62927 0.0
C628 C 0.81777 0.73109 0.64042 0.0
H629 H 0.65995 0.61424 0.69626 0.0
H630 H 0.70546 0.60877 0.64701 0.0
H631 H 0.76034 0.63427 0.61433 0.0
O632 O 0.74725 0.80011 0.71172 0.0
O633 O 0.79029 0.72498 0.73211 0.0
O634 O 0.83914 0.75663 0.75562 0.0
O635 O 0.70127 0.75996 0.7203 0.0
O636 O 0.79153 0.80949 0.7414 0.0
O637 O 0.84181 0.80148 0.75581 0.0
O638 O 0.82724 0.74739 0.8334 0.0
O639 O 0.77572 0.81648 0.80742 0.0
O640 O 0.72648 0.78015 0.78938 0.0
O641 O 0.86709 0.79239 0.8229 0.0
O642 O 0.77889 0.73062 0.80103 0.0
O643 O 0.72826 0.73848 0.78628 0.0
C644 C 0.8237 0.73007 0.73621 0.0
C645 C 0.69259 0.81569 0.71948 0.0
C646 C 0.66931 0.86194 0.70658 0.0
C647 C 0.6556 0.86854 0.73976 0.0
C648 C 0.67834 0.82258 0.75233 0.0
C649 C 0.66003 0.84891 0.76239 0.0
C650 C 0.6878 0.83525 0.69656 0.0
C651 C 0.82595 0.81382 0.73686 0.0
C652 C 0.71387 0.78934 0.70943 0.0
C653 C 0.71968 0.63434 0.65557 0.0
C654 C 0.75093 0.64887 0.63694 0.0
C655 C 0.74119 0.80757 0.8082 0.0
C656 C 0.88642 0.7423 0.82655 0.0
C657 C 0.91751 0.70273 0.84126 0.0
C658 C 0.93775 0.70252 0.8102 0.0
C659 C 0.90717 0.74178 0.79584 0.0
C660 C 0.89146 0.72248 0.84916 0.0
C661 C 0.93247 0.7218 0.78767 0.0
C662 C 0.74463 0.72198 0.80091 0.0
C663 C 0.85974 0.76359 0.83511 0.0
H664 H 0.64091 0.88857 0.74816 0.0
H665 H 0.68143 0.80765 0.77022 0.0
H666 H 0.64922 0.8541 0.78782 0.0
H667 H 0.69895 0.83012 0.67118 0.0
H668 H 0.9576 0.68724 0.80325 0.0
H669 H 0.90395 0.75707 0.77828 0.0
H670 H 0.87572 0.72305 0.87303 0.0
H671 H 0.94821 0.72144 0.76384 0.0
Fe672 Fe 0.03679 0.06233 0.53098 0.0
O673 O 1.00339 1.01863 0.51125 0.0
Fe674 Fe 0.11322 0.03417 0.52868 0.0
Fe675 Fe 0.95013 1.00301 0.51494 0.0
O676 O 0.06217 0.02815 0.5397 0.0
O677 O 0.06033 0.02358 0.54086 0.0
O678 O 1.00234 1.01468 0.51039 0.0
Fe679 Fe 1.03142 0.98216 0.51619 0.0
C680 C 0.98264 0.04024 0.57106 0.0
O681 O 1.00369 0.09055 0.5181 0.0
O682 O 0.95645 0.0499 0.49776 0.0
O683 O 0.06332 0.99575 0.47487 0.0
O684 O 0.11413 0.99655 0.4883 0.0
O685 O 0.11861 0.07146 0.49886 0.0
O686 O 0.06579 0.06713 0.48512 0.0
O687 O 0.96543 0.97345 0.47206 0.0
O688 O 1.00132 0.94317 0.48631 0.0
C689 C 0.09914 0.07698 0.47996 0.0
O690 O 0.06497 0.95323 0.52758 0.0
O691 O 0.1069 0.99371 0.55425 0.0
O692 O 1.00914 0.06226 0.57781 0.0
O693 O 0.98767 0.02457 0.54185 0.0
C694 C 0.97564 0.08098 0.50316 0.0
C695 C 0.981 0.94798 0.46711 0.0
C696 C 0.96415 0.95428 0.55804 0.0
O697 O 0.9462 0.95908 0.53708 0.0
O698 O 0.99726 0.96696 0.5571 0.0
C699 C 0.09193 0.98605 0.46823 0.0
O700 O 0.1116 0.07304 0.56712 0.0
O701 O 0.07377 0.10224 0.55341 0.0
C702 C 0.08935 0.96248 0.54686 0.0
C703 C 0.09694 0.09915 0.57078 0.0
Fe704 Fe 0.53174 0.9807 1.01756 0.0
O705 O 0.56053 0.02313 0.99954 0.0
Fe706 Fe 0.45222 1.00514 0.04784 0.0
Fe707 Fe 0.6123 0.03573 0.99638 0.0
O708 O 0.50373 1.01432 0.04349 0.0
O709 O 0.50396 1.01864 0.04467 0.0
O710 O 0.56078 0.02743 1.00078 0.0
Fe711 Fe 0.53252 0.06109 0.02644 0.0
C712 C 0.59488 0.99154 0.05219 0.0
O713 O 0.56703 0.95161 0.98607 0.0
O714 O 0.60799 0.99325 0.96062 0.0
O715 O 0.50258 0.05239 0.98897 0.0
O716 O 0.44853 0.03668 1.0152 0.0
O717 O 0.44841 0.96412 1.0105 0.0
O718 O 0.50073 0.96951 0.97991 0.0
O719 O 0.60844 0.07182 0.96867 0.0
O720 O 0.56756 0.10028 1.00112 0.0
C721 C 0.46755 0.95762 0.98351 0.0
O722 O 0.49683 0.09017 0.05749 0.0
O723 O 0.45576 0.04844 0.08265 0.0
O724 O 0.56184 0.98892 0.05493 0.0
O725 O 0.61557 1.00266 0.02772 0.0
C726 C 0.59324 0.96129 0.96331 0.0
C727 C 0.59274 0.09746 0.97659 0.0
C728 C 0.59664 0.08199 0.06171 0.0
O729 O 0.61649 0.0751 0.03524 0.0
O730 O 0.56318 0.07278 0.06414 0.0
C731 C 0.46943 0.04865 0.99119 0.0
O732 O 0.45704 0.97051 0.07651 0.0
O733 O 0.49686 0.94152 0.04306 0.0
C734 C 0.47024 0.08042 0.0799 0.0
C735 C 0.47259 0.94476 0.06835 0.0
Fe736 Fe 0.0354 0.56125 0.02778 0.0
O737 O 1.00221 0.52041 0.04465 0.0
Fe738 Fe 0.10919 0.52782 0.99294 0.0
Fe739 Fe 0.95069 0.51473 0.048 0.0
O740 O 0.05848 0.52506 0.99952 0.0
O741 O 0.05763 0.52104 0.9978 0.0
O742 O 1.00135 0.51635 0.04285 0.0
Fe743 Fe 1.02497 0.48012 1.01503 0.0
C744 C 0.97772 0.58562 0.08366 0.0
O745 O 1.00577 0.55831 0.9912 0.0
O746 O 0.95262 0.5527 1.01972 0.0
O747 O 0.05619 0.44773 0.98256 0.0
O748 O 0.09977 0.48674 0.95639 0.0
O749 O 0.10852 0.56684 0.96736 0.0
O750 O 0.0731 0.59865 1.0037 0.0
O751 O 0.94221 0.47825 1.00762 0.0
O752 O 0.99392 0.47383 0.97803 0.0
C753 C 0.09588 0.59429 0.97764 0.0
O754 O 0.05513 0.4837 0.05143 0.0
O755 O 0.10869 0.49163 0.02286 0.0
O756 O 1.00443 0.59363 0.06086 0.0
O757 O 0.95984 0.55445 0.08577 0.0
C758 C 0.97434 0.56216 0.9952 0.0
C759 C 0.96044 0.46897 0.98093 0.0
C760 C 0.96116 0.44651 0.0629 0.0
O761 O 0.94891 0.47427 0.07232 0.0
O762 O 0.98673 0.44271 0.03911 0.0
C763 C 0.08254 0.45557 0.95942 0.0
O764 O 0.11816 0.56608 0.03175 0.0
O765 O 0.06733 0.56689 0.06422 0.0
C766 C 0.08719 0.48149 0.0474 0.0
C767 C 0.101 0.57409 0.05945 0.0
Fe768 Fe 0.54178 0.51411 0.98823 0.0
O769 O 0.56268 0.54639 0.02513 0.0
Fe770 Fe 0.45361 0.49074 1.01947 0.0
Fe771 Fe 0.6122 0.55268 0.03193 0.0
O772 O 0.50341 0.49736 0.023 0.0
O773 O 0.50312 0.49668 0.02632 0.0
O774 O 0.56241 0.54566 0.02844 0.0
Fe775 Fe 0.52413 0.52889 0.06325 0.0
C776 C 0.59816 0.47995 0.99901 0.0
O777 O 0.5853 0.53654 0.95622 0.0
O778 O 0.6204 0.57591 0.9904 0.0
O779 O 0.49997 0.56533 0.0552 0.0
O780 O 0.44583 0.53502 0.05008 0.0
O781 O 0.46221 0.51808 0.98067 0.0
O782 O 0.51667 0.55019 0.97942 0.0
O783 O 0.60107 0.5931 0.06628 0.0
O784 O 0.5511 0.5661 0.09717 0.0
C785 C 0.48532 0.54426 0.97282 0.0
O786 O 0.48049 0.50646 0.09525 0.0
O787 O 0.44521 0.46751 0.0609 0.0
O788 O 0.56627 0.47778 0.99606 0.0
O789 O 0.62015 0.50864 1.00139 0.0
C790 C 0.61064 0.56339 0.96186 0.0
C791 C 0.57837 0.59125 0.09267 0.0
C792 C 0.58083 0.49871 0.07826 0.0
O793 O 0.60373 0.52517 0.07066 0.0
O794 O 0.54937 0.49276 0.07188 0.0
C795 C 0.46825 0.56345 0.05197 0.0
O796 O 0.46453 0.45017 0.9851 0.0
O797 O 0.51481 0.47684 0.95434 0.0
C798 C 0.45491 0.47987 0.08948 0.0
C799 C 0.48739 0.45183 0.95879 0.0
Fe800 Fe 0.04024 0.44648 0.52118 0.0
O801 O 0.0481 0.49689 0.52462 0.0
Fe802 Fe 0.03947 0.51642 0.48381 0.0
Fe803 Fe 1.02489 0.52679 0.56129 0.0
O804 O 0.04964 0.49663 0.52079 0.0
O805 O 1.01542 0.54558 0.52046 0.0
O806 O 1.01385 0.54582 0.52431 0.0
Fe807 Fe 1.02193 0.59568 0.52363 0.0
C808 C 0.9723 0.45979 0.56627 0.0
O809 O 0.06672 0.45983 0.56134 0.0
O810 O 0.04173 0.50249 0.59454 0.0
O811 O 0.06622 0.60048 0.48974 0.0
O812 O 0.08687 0.55261 0.4828 0.0
O813 O 0.06748 0.48186 0.45066 0.0
O814 O 0.08294 0.45071 0.48502 0.0
O815 O 0.07195 0.5622 0.56264 0.0
O816 O 0.05364 0.60959 0.56108 0.0
C817 C 0.08592 0.46124 0.45693 0.0
O818 O 0.99451 0.58094 0.48378 0.0
O819 O 1.02327 0.54099 0.45058 0.0
O820 O 0.99522 0.44192 0.55468 0.0
O821 O 0.97742 0.49151 0.56332 0.0
C822 C 0.06079 0.47924 0.58898 0.0
C823 C 0.07493 0.59457 0.56966 0.0
C824 C 0.97776 0.58113 0.58845 0.0
O825 O 0.99728 0.5615 0.59464 0.0
O826 O 0.9798 0.59109 0.56026 0.0
C827 C 0.09063 0.58415 0.47935 0.0
O828 O 0.99236 0.48104 0.4811 0.0
O829 O 1.00977 0.4334 0.48318 0.0
C830 C 1.00184 0.56203 0.45613 0.0
C831 C 0.98923 0.44868 0.47394 0.0
Fe832 Fe 0.52978 0.9804 0.51709 0.0
O833 O 0.50464 1.01462 0.54649 0.0
Fe834 Fe 0.56251 0.0219 0.44903 0.0
Fe835 Fe 0.49697 1.0186 0.59452 0.0
O836 O 0.55551 0.02199 0.49653 0.0
O837 O 0.55518 0.02592 0.49708 0.0
O838 O 0.50458 1.01854 0.5472 0.0
Fe839 Fe 0.52997 0.06004 0.52654 0.0
C840 C 0.47039 0.94365 0.56617 0.0
O841 O 0.56757 0.98829 0.54776 0.0
O842 O 0.53379 0.99077 0.59622 0.0
O843 O 0.56103 0.09863 0.49942 0.0
O844 O 0.59541 0.0694 0.45924 0.0
O845 O 0.59643 0.99086 0.45073 0.0
O846 O 0.56191 0.95065 0.48221 0.0
O847 O 0.5341 0.06356 0.60424 0.0
O848 O 0.56852 0.07116 0.55702 0.0
C849 C 0.58891 0.96074 0.46033 0.0
O850 O 0.49188 0.05162 0.49646 0.0
O851 O 0.52473 0.04873 0.44742 0.0
O852 O 0.49756 0.94174 0.54375 0.0
O853 O 0.46362 0.97179 0.58367 0.0
C854 C 0.56193 0.98561 0.57817 0.0
C855 C 0.56306 0.07681 0.58813 0.0
C856 C 0.47156 0.08052 0.58349 0.0
O857 O 0.4636 0.05035 0.59298 0.0
O858 O 0.49838 0.09015 0.56137 0.0
C859 C 0.58759 0.09731 0.4763 0.0
O860 O 0.5261 0.97639 0.43943 0.0
O861 O 0.49132 0.96946 0.4864 0.0
C862 C 0.49684 0.05368 0.46601 0.0
C863 C 0.49699 0.96327 0.45535 0.0
H864 H 0.1621 0.21606 0.32919 0.0
H865 H 0.25227 0.17335 0.32884 0.0
H866 H 0.12859 0.18027 0.37034 0.0
H867 H 0.21878 0.1369 0.36873 0.0
H868 H 0.1684 0.10819 0.46761 0.0
H869 H 0.19786 0.1414 0.42431 0.0
H870 H 0.09994 0.12451 0.38514 0.0
H871 H 0.06982 0.09175 0.42978 0.0
C872 C 0.17461 0.19863 0.33746 0.0
C873 C 0.21004 0.19786 0.32578 0.0
C874 C 0.15533 0.17796 0.36106 0.0
C875 C 0.17089 0.15579 0.3735 0.0
C876 C 0.20593 0.15418 0.36067 0.0
C877 C 0.22521 0.175 0.33744 0.0
C878 C 0.15291 0.1113 0.44982 0.0
C879 C 0.11655 0.09692 0.45236 0.0
C880 C 0.17004 0.13031 0.4246 0.0
C881 C 0.15164 0.13551 0.4006 0.0
C882 C 0.11513 0.12135 0.40315 0.0
C883 C 0.09781 0.10234 0.4287 0.0
H884 H 0.83981 0.09719 0.38703 0.0
H885 H 0.92287 0.18052 0.356 0.0
H886 H 0.86855 0.09707 0.43373 0.0
H887 H 0.95199 0.18084 0.40344 0.0
H888 H 0.91406 0.10133 0.51992 0.0
H889 H 0.88662 0.1267 0.48513 0.0
H890 H 0.983 0.14014 0.41767 0.0
H891 H 1.01068 0.11594 0.4534 0.0
C892 C 0.86397 0.11598 0.39068 0.0
C893 C 0.8793 0.13864 0.36784 0.0
C894 C 0.88034 0.11621 0.41765 0.0
C895 C 0.91264 0.13902 0.42246 0.0
C896 C 0.92722 0.16287 0.40037 0.0
C897 C 0.91052 0.16284 0.37338 0.0
C898 C 0.92979 0.1113 0.49845 0.0
C899 C 0.96438 0.10683 0.48923 0.0
C900 C 0.91402 0.12545 0.47831 0.0
C901 C 0.9323 0.1346 0.44817 0.0
C902 C 0.96816 0.13346 0.44072 0.0
C903 C 0.98412 0.11968 0.46119 0.0
H904 H 0.85064 0.87711 0.32601 0.0
H905 H 0.88439 0.78267 0.32445 0.0
H906 H 0.89478 0.90769 0.36064 0.0
H907 H 0.92875 0.81352 0.35942 0.0
H908 H 0.95772 0.87812 0.46218 0.0
H909 H 0.92835 0.84169 0.41725 0.0
H910 H 0.95806 0.92675 0.36123 0.0
H911 H 0.98617 0.96304 0.40633 0.0
C912 C 0.86799 0.863 0.33242 0.0
C913 C 0.86411 0.82751 0.32222 0.0
C914 C 0.89339 0.88055 0.3523 0.0
C915 C 0.91549 0.86305 0.36258 0.0
C916 C 0.91205 0.82765 0.35198 0.0
C917 C 0.88669 0.81007 0.3319 0.0
C918 C 0.95896 0.88846 0.43974 0.0
C919 C 0.97368 0.92331 0.43766 0.0
C920 C 0.94213 0.86772 0.41406 0.0
C921 C 0.94013 0.8817 0.38607 0.0
C922 C 0.95833 0.91555 0.38282 0.0
C923 C 0.97466 0.93622 0.40848 0.0
H924 H 0.09497 0.77369 0.42078 0.0
H925 H 0.07183 0.79834 0.33189 0.0
H926 H 0.08223 0.82779 0.45009 0.0
H927 H 0.06126 0.85329 0.36044 0.0
H928 H 0.04921 0.95497 0.42219 0.0
H929 H 0.0377 0.89416 0.39949 0.0
H930 H 0.12349 0.88101 0.4443 0.0
H931 H 0.13345 0.94092 0.46838 0.0
C932 C 0.08552 0.78993 0.40787 0.0
C933 C 0.08554 0.78263 0.37393 0.0
C934 C 0.07897 0.82126 0.42445 0.0
C935 C 0.07278 0.84558 0.40712 0.0
C936 C 0.06667 0.83549 0.37443 0.0
C937 C 0.0726 0.80391 0.35803 0.0
C938 C 0.06555 0.93894 0.42708 0.0
C939 C 0.09159 0.95247 0.4477 0.0
C940 C 0.0589 0.90414 0.41419 0.0
C941 C 0.07875 0.88241 0.42114 0.0
C942 C 0.10658 0.89664 0.43972 0.0
C943 C 0.11292 0.93127 0.45288 0.0
H944 H 0.23308 0.93673 0.65046 0.0
H945 H 0.14565 0.86397 0.69271 0.0
H946 H 0.2005 0.93759 0.60654 0.0
H947 H 0.11258 0.86452 0.64826 0.0
H948 H 0.14548 0.93364 0.5255 0.0
H949 H 0.17366 0.90701 0.55876 0.0
H950 H 0.08596 0.90964 0.63571 0.0
H951 H 0.05761 0.93541 0.60184 0.0
C952 C 0.20707 0.92031 0.64985 0.0
C953 C 0.19174 0.90051 0.67503 0.0
C954 C 0.18845 0.92052 0.62451 0.0
C955 C 0.15385 0.9011 0.62382 0.0
C956 C 0.13912 0.87986 0.64818 0.0
C957 C 0.15804 0.87938 0.67347 0.0
C958 C 0.13157 0.9269 0.54887 0.0
C959 C 0.09938 0.93619 0.56113 0.0
C960 C 0.14782 0.91205 0.56809 0.0
C961 C 0.1324 0.90683 0.60016 0.0
C962 C 0.09849 0.91309 0.61108 0.0
C963 C 0.08216 0.92778 0.59171 0.0
H964 H 0.1919 0.26574 0.71392 0.0
H965 H 0.21828 0.16947 0.72024 0.0
H966 H 0.15167 0.23578 0.67473 0.0
H967 H 0.17777 0.13977 0.68171 0.0
H968 H 0.08507 0.0889 0.63329 0.0
H969 H 0.11296 0.12557 0.67842 0.0
H970 H 0.15899 0.20376 0.616 0.0
H971 H 0.13038 0.1668 0.57068 0.0
C972 C 0.18881 0.23816 0.70735 0.0
C973 C 0.2081 0.21992 0.7205 0.0
C974 C 0.16586 0.22113 0.68484 0.0
C975 C 0.16141 0.1855 0.67544 0.0
C976 C 0.18018 0.1672 0.68903 0.0
C977 C 0.20338 0.18423 0.71118 0.0
C978 C 0.10022 0.11442 0.62961 0.0
C979 C 0.10575 0.12524 0.59877 0.0
C980 C 0.11637 0.13524 0.65528 0.0
C981 C 0.13862 0.16716 0.65047 0.0
C982 C 0.14185 0.17925 0.62032 0.0
C983 C 0.12548 0.15829 0.59449 0.0
H984 H 0.80637 0.10721 0.58606 0.0
H985 H 0.80649 0.11316 0.69001 0.0
H986 H 0.84457 0.06692 0.57555 0.0
H987 H 0.84624 0.07339 0.67928 0.0
H988 H 0.9675 0.07978 0.62917 0.0
H989 H 0.91017 0.0913 0.65363 0.0
H990 H 0.86066 1.01346 0.58158 0.0
H991 H 0.91661 1.00364 0.55648 0.0
C992 C 0.81314 0.09866 0.60677 0.0
C993 C 0.80442 0.11419 0.63877 0.0
C994 C 0.83527 0.07557 0.60076 0.0
C995 C 0.84909 0.06779 0.62665 0.0
C996 C 0.83647 0.07958 0.65892 0.0
C997 C 0.81377 0.10226 0.66497 0.0
C998 C 0.94433 0.06457 0.61893 0.0
C999 C 0.94744 0.04118 0.59006 0.0
C1000 C 0.9114 0.07085 0.63326 0.0
C1001 C 0.88104 0.05351 0.61912 0.0
C1002 C 0.88371 0.02751 0.5927 0.0
C1003 C 0.91647 0.02185 0.57812 0.0
H1004 H 0.8024 0.84012 0.69097 0.0
H1005 H 0.89813 0.83671 0.72535 0.0
H1006 H 0.83579 0.87164 0.64824 0.0
H1007 H 0.93204 0.87201 0.68453 0.0
H1008 H 0.9888 0.91276 0.59003 0.0
H1009 H 0.95654 0.87897 0.63284 0.0
H1010 H 0.86549 0.92051 0.63172 0.0
H1011 H 0.89662 0.95081 0.58706 0.0
C1012 C 0.83065 0.84672 0.68995 0.0
C1013 C 0.84725 0.83576 0.71204 0.0
C1014 C 0.85016 0.86551 0.66536 0.0
C1015 C 0.88716 0.87537 0.66254 0.0
C1016 C 0.90381 0.86482 0.68509 0.0
C1017 C 0.8842 0.8449 0.7091 0.0
C1018 C 0.96175 0.91428 0.5989 0.0
C1019 C 0.94524 0.93429 0.58488 0.0
C1020 C 0.94315 0.89511 0.62382 0.0
C1021 C 0.90778 0.89626 0.63619 0.0
C1022 C 0.89198 0.9174 0.62259 0.0
C1023 C 0.91012 0.93543 0.597 0.0
H1024 H 0.30108 0.16654 0.20064 0.0
H1025 H 0.38992 0.25128 0.21334 0.0
H1026 H 0.3392 0.13323 0.16331 0.0
H1027 H 0.42832 0.21767 0.17613 0.0
H1028 H 0.47793 0.15169 0.08085 0.0
H1029 H 0.44268 0.18981 0.11694 0.0
H1030 H 0.38628 0.10504 0.16801 0.0
H1031 H 0.42094 0.06774 0.13316 0.0
C1032 C 0.32873 0.17821 0.19544 0.0
C1033 C 0.34218 0.21171 0.21037 0.0
C1034 C 0.3508 0.15895 0.17406 0.0
C1035 C 0.3872 0.17246 0.16658 0.0
C1036 C 0.40056 0.20629 0.18096 0.0
C1037 C 0.37847 0.22549 0.20264 0.0
C1038 C 0.45835 0.14131 0.10003 0.0
C1039 C 0.45251 0.10619 0.10345 0.0
C1040 C 0.43797 0.1632 0.12076 0.0
C1041 C 0.41089 0.15051 0.14522 0.0
C1042 C 0.40606 0.11581 0.14913 0.0
C1043 C 0.42641 0.09429 0.12894 0.0
H1044 H 0.84488 0.27219 0.16655 0.0
H1045 H 0.85127 0.36863 0.23122 0.0
H1046 H 0.88382 0.30221 0.12359 0.0
H1047 H 0.88891 0.39844 0.18782 0.0
H1048 H 0.89189 0.43004 0.08397 0.0
H1049 H 0.86178 0.39083 0.12275 0.0
H1050 H 0.95782 0.35785 0.12223 0.0
H1051 H 0.9888 0.39805 0.08313 0.0
C1052 C 0.8551 0.29958 0.17188 0.0
C1053 C 0.84503 0.31796 0.20244 0.0
C1054 C 0.87737 0.31667 0.14726 0.0
C1055 C 0.88951 0.35244 0.15268 0.0
C1056 C 0.88008 0.37072 0.1833 0.0
C1057 C 0.85824 0.35367 0.20798 0.0
C1058 C 0.90664 0.4141 0.09164 0.0
C1059 C 0.94283 0.41739 0.08082 0.0
C1060 C 0.88932 0.39168 0.1138 0.0
C1061 C 0.90763 0.37176 0.12555 0.0
C1062 C 0.94329 0.37309 0.11331 0.0
C1063 C 0.96088 0.39585 0.09094 0.0
H1064 H 0.63576 0.9169 0.22287 0.0
H1065 H 0.73153 0.91981 0.15497 0.0
H1066 H 0.61004 0.93872 0.18446 0.0
H1067 H 0.70483 0.93915 0.11553 0.0
H1068 H 0.66308 1.00783 0.06444 0.0
H1069 H 0.68828 0.98709 0.1041 0.0
H1070 H 0.58602 0.92606 0.13542 0.0
H1071 H 0.56063 0.94816 0.09667 0.0
C1072 C 0.6514 0.92208 0.19972 0.0
C1073 C 0.686 0.91678 0.19236 0.0
C1074 C 0.63635 0.93416 0.17735 0.0
C1075 C 0.65524 0.94095 0.1467 0.0
C1076 C 0.68956 0.93491 0.13904 0.0
C1077 C 0.70475 0.92319 0.16157 0.0
C1078 C 0.64594 0.99008 0.07988 0.0
C1079 C 0.60982 0.97967 0.0773 0.0
C1080 C 0.66047 0.97789 0.10253 0.0
C1081 C 0.6394 0.95453 0.12299 0.0
C1082 C 0.60314 0.94435 0.12053 0.0
C1083 C 0.58852 0.95693 0.09816 0.0
H1084 H 0.27596 0.66764 0.17197 0.0
H1085 H 0.18722 0.70395 0.2298 0.0
H1086 H 0.23723 0.63275 0.13328 0.0
H1087 H 0.14919 0.67055 0.19086 0.0
H1088 H 0.0815 0.5854 0.12678 0.0
H1089 H 0.11926 0.61575 0.1683 0.0
H1090 H 0.20643 0.63837 0.0921 0.0
H1091 H 0.16955 0.60768 0.05138 0.0
C1092 C 0.24833 0.66836 0.17643 0.0
C1093 C 0.23505 0.68896 0.20405 0.0
C1094 C 0.22601 0.64846 0.15412 0.0
C1095 C 0.18981 0.64879 0.15864 0.0
C1096 C 0.1766 0.66905 0.18655 0.0
C1097 C 0.19877 0.68866 0.20887 0.0
C1098 C 0.1087 0.59692 0.11901 0.0
C1099 C 0.12232 0.59377 0.08564 0.0
C1100 C 0.13046 0.61442 0.1428 0.0
C1101 C 0.16629 0.62939 0.13377 0.0
C1102 C 0.17946 0.62655 0.10034 0.0
C1103 C 0.15797 0.60903 0.0768 0.0
H1104 H 0.34182 0.78663 0.86557 0.0
H1105 H 0.36629 0.87042 0.80847 0.0
H1106 H 0.37791 0.82238 0.90609 0.0
H1107 H 0.40241 0.90615 0.84895 0.0
H1108 H 0.48991 0.94954 0.91673 0.0
H1109 H 0.45826 0.91173 0.87363 0.0
H1110 H 0.37364 0.8743 0.94694 0.0
H1111 H 0.40474 0.91172 0.98952 0.0
C1112 C 0.35499 0.81262 0.86158 0.0
C1113 C 0.35084 0.82567 0.83386 0.0
C1114 C 0.37562 0.83319 0.88487 0.0
C1115 C 0.3931 0.86726 0.88088 0.0
C1116 C 0.38962 0.88001 0.85273 0.0
C1117 C 0.36863 0.85958 0.82966 0.0
C1118 C 0.46466 0.93308 0.92359 0.0
C1119 C 0.44995 0.93388 0.95668 0.0
C1120 C 0.44641 0.91154 0.89889 0.0
C1121 C 0.41336 0.88982 0.90677 0.0
C1122 C 0.39912 0.89029 0.93989 0.0
C1123 C 0.41697 0.91206 0.96436 0.0
H1124 H 0.17678 0.2825 0.84866 0.0
H1125 H 0.24728 0.37818 0.82856 0.0
H1126 H 0.13527 0.31436 0.88307 0.0
H1127 H 0.20583 0.40989 0.86256 0.0
H1128 H 0.11354 0.45927 0.89668 0.0
H1129 H 0.14958 0.42242 0.86225 0.0
H1130 H 0.12422 0.35338 0.93474 0.0
H1131 H 0.08749 0.39069 0.96951 0.0
C1132 C 0.18371 0.31031 0.85173 0.0
C1133 C 0.21582 0.32755 0.83574 0.0
C1134 C 0.15973 0.32867 0.87156 0.0
C1135 C 0.16673 0.36492 0.87564 0.0
C1136 C 0.19892 0.38206 0.85973 0.0
C1137 C 0.22298 0.36376 0.84022 0.0
C1138 C 0.11501 0.43592 0.9052 0.0
C1139 C 0.0974 0.42817 0.93609 0.0
C1140 C 0.13618 0.41486 0.88548 0.0
C1141 C 0.1408 0.38511 0.89578 0.0
C1142 C 0.12149 0.37604 0.92583 0.0
C1143 C 0.10012 0.39733 0.94575 0.0
H1144 H 0.71659 0.27131 0.87588 0.0
H1145 H 0.72377 0.17667 0.8117 0.0
H1146 H 0.67463 0.23906 0.91524 0.0
H1147 H 0.68315 0.1443 0.85149 0.0
H1148 H 0.58841 0.09262 0.91226 0.0
H1149 H 0.62366 0.13058 0.87396 0.0
H1150 H 0.66695 0.20078 0.95449 0.0
H1151 H 0.63039 0.16296 0.9928 0.0
C1152 C 0.70946 0.24357 0.87021 0.0
C1153 C 0.7235 0.22673 0.84031 0.0
C1154 C 0.68542 0.22498 0.89298 0.0
C1155 C 0.67485 0.18888 0.88667 0.0
C1156 C 0.68971 0.17206 0.85709 0.0
C1157 C 0.71356 0.19066 0.8343 0.0
C1158 C 0.60455 0.11679 0.92181 0.0
C1159 C 0.60614 0.12509 0.95557 0.0
C1160 C 0.62536 0.13833 0.8998 0.0
C1161 C 0.64905 0.16857 0.91079 0.0
C1162 C 0.64906 0.17789 0.94489 0.0
C1163 C 0.62788 0.15635 0.96701 0.0
H1164 H 0.86973 0.6592 0.8791 0.0
H1165 H 0.98087 0.70112 0.85749 0.0
H1166 H 0.88189 0.62368 0.91561 0.0
H1167 H 0.99312 0.66674 0.89452 0.0
H1168 H 1.00936 0.57711 0.93555 0.0
H1169 H 0.9942 0.60999 0.89887 0.0
H1170 H 0.90104 0.62335 0.96618 0.0
H1171 H 0.91563 0.58922 1.00234 0.0
C1172 C 0.89671 0.66113 0.88251 0.0
C1173 C 0.92435 0.68273 0.86522 0.0
C1174 C 0.90375 0.64082 0.90347 0.0
C1175 C 0.93859 0.64192 0.90788 0.0
C1176 C 0.96605 0.66435 0.89118 0.0
C1177 C 0.95903 0.68429 0.87004 0.0
C1178 C 0.9855 0.58684 0.94247 0.0
C1179 C 0.96379 0.58054 0.972 0.0
C1180 C 0.9769 0.60602 0.9215 0.0
C1181 C 0.94655 0.61984 0.9296 0.0
C1182 C 0.92443 0.61292 0.95886 0.0
C1183 C 0.93288 0.59341 0.97972 0.0
H1184 H 0.15342 0.3324 0.1354 0.0
H1185 H 0.13307 0.40992 0.21699 0.0
H1186 H 0.1416 0.36725 0.09821 0.0
H1187 H 0.12017 0.44396 0.17988 0.0
H1188 H 0.05414 0.46753 0.10803 0.0
H1189 H 0.07191 0.43653 0.14509 0.0
H1190 H 0.16454 0.42477 0.07671 0.0
H1191 H 0.14694 0.45599 0.03955 0.0
C1192 C 0.14691 0.357 0.14545 0.0
C1193 C 0.14389 0.36802 0.1794 0.0
C1194 C 0.14 0.37693 0.12408 0.0
C1195 C 0.1296 0.4082 0.13614 0.0
C1196 C 0.12752 0.4197 0.16988 0.0
C1197 C 0.13481 0.40003 0.19118 0.0
C1198 C 0.07845 0.45859 0.10094 0.0
C1199 C 0.09912 0.46436 0.07078 0.0
C1200 C 0.0887 0.44093 0.12227 0.0
C1201 C 0.11964 0.42818 0.11384 0.0
C1202 C 0.14045 0.43408 0.0838 0.0
C1203 C 0.13045 0.45218 0.06263 0.0
H1204 H 0.2124 0.66898 0.80897 0.0
H1205 H 0.22146 0.7642 0.87554 0.0
H1206 H 0.17119 0.63946 0.85015 0.0
H1207 H 0.17873 0.73488 0.91646 0.0
H1208 H 0.14214 0.65475 0.99177 0.0
H1209 H 0.17538 0.69293 0.95245 0.0
H1210 H 0.11278 0.63342 0.87845 0.0
H1211 H 0.08078 0.59482 0.91754 0.0
C1212 C 0.20535 0.68373 0.83232 0.0
C1213 C 0.22017 0.719 0.83887 0.0
C1214 C 0.18128 0.66687 0.85586 0.0
C1215 C 0.17126 0.68482 0.8866 0.0
C1216 C 0.18592 0.72022 0.89312 0.0
C1217 C 0.21019 0.73709 0.86953 0.0
C1218 C 0.13493 0.65069 0.96736 0.0
C1219 C 0.10898 0.62216 0.95752 0.0
C1220 C 0.15393 0.67243 0.94479 0.0
C1221 C 0.14719 0.66589 0.91207 0.0
C1222 C 0.11925 0.63874 0.90318 0.0
C1223 C 0.1006 0.61689 0.9256 0.0
H1224 H 0.42912 0.12456 0.82105 0.0
H1225 H 0.33326 0.121 0.88892 0.0
H1226 H 0.45466 0.10191 0.85905 0.0
H1227 H 0.35976 0.10081 0.92793 0.0
H1228 H 0.40144 0.03151 0.97817 0.0
H1229 H 0.37637 0.05237 0.93848 0.0
H1230 H 0.47837 0.11461 0.90842 0.0
H1231 H 0.50366 0.09251 0.94719 0.0
C1232 C 0.41342 0.11904 0.8441 0.0
C1233 C 0.3789 0.12448 0.85163 0.0
C1234 C 0.42835 0.10649 0.8662 0.0
C1235 C 0.40938 0.09933 0.89672 0.0
C1236 C 0.37508 0.10536 0.9045 0.0
C1237 C 0.36001 0.11757 0.88225 0.0
C1238 C 0.41856 0.04954 0.96298 0.0
C1239 C 0.45457 0.06034 0.96594 0.0
C1240 C 0.4041 0.06177 0.94033 0.0
C1241 C 0.42515 0.08552 0.92025 0.0
C1242 C 0.4613 0.09603 0.92302 0.0
C1243 C 0.47585 0.08343 0.94541 0.0
H1244 H 0.86528 0.30837 0.83629 0.0
H1245 H 0.80775 0.38775 0.84078 0.0
H1246 H 0.90281 0.34581 0.87413 0.0
H1247 H 0.84553 0.42545 0.87885 0.0
H1248 H 0.89183 0.46542 0.97555 0.0
H1249 H 0.85712 0.43167 0.93398 0.0
H1250 H 0.94885 0.39691 0.88109 0.0
H1251 H 0.98382 0.43045 0.92354 0.0
C1252 C 0.86072 0.33395 0.84512 0.0
C1253 C 0.83328 0.3449 0.83534 0.0
C1254 C 0.88251 0.35558 0.86682 0.0
C1255 C 0.87753 0.38888 0.87961 0.0
C1256 C 0.85003 0.39987 0.86987 0.0
C1257 C 0.82822 0.37819 0.84804 0.0
C1258 C 0.90486 0.45076 0.95503 0.0
C1259 C 0.94076 0.45056 0.9532 0.0
C1260 C 0.88484 0.43152 0.93091 0.0
C1261 C 0.89993 0.41131 0.90405 0.0
C1262 C 0.93611 0.41177 0.90164 0.0
C1263 C 0.95631 0.43124 0.92585 0.0
H1264 H 0.75885 0.87481 0.83719 0.0
H1265 H 0.67105 0.78789 0.83238 0.0
H1266 H 0.72159 0.90885 0.87469 0.0
H1267 H 0.63341 0.8222 0.86969 0.0
H1268 H 0.58705 0.89072 0.96399 0.0
H1269 H 0.62152 0.85234 0.92741 0.0
H1270 H 0.67304 0.93525 0.87214 0.0
H1271 H 0.63915 0.9729 0.90772 0.0
C1272 C 0.73159 0.86285 0.84414 0.0
C1273 C 0.71816 0.82849 0.83146 0.0
C1274 C 0.71 0.88252 0.86559 0.0
C1275 C 0.67411 0.86858 0.87531 0.0
C1276 C 0.66081 0.83395 0.86309 0.0
C1277 C 0.68241 0.81431 0.84139 0.0
C1278 C 0.60536 0.9006 0.94377 0.0
C1279 C 0.61017 0.93533 0.93938 0.0
C1280 C 0.62529 0.87857 0.92276 0.0
C1281 C 0.65083 0.8907 0.89696 0.0
C1282 C 0.65452 0.92496 0.89205 0.0
C1283 C 0.63463 0.94666 0.91263 0.0
H1284 H 0.89272 0.76087 0.20372 0.0
H1285 H 0.8129 0.66762 0.20942 0.0
H1286 H 0.93284 0.72803 0.16798 0.0
H1287 H 0.85309 0.63482 0.17491 0.0
H1288 H 0.94154 0.57903 0.14439 0.0
H1289 H 0.90684 0.61685 0.17916 0.0
H1290 H 0.9438 0.692 0.11259 0.0
H1291 H 0.97895 0.65351 0.07715 0.0
C1292 C 0.88364 0.73337 0.19749 0.0
C1293 C 0.84962 0.71688 0.21042 0.0
C1294 C 0.90674 0.7145 0.17687 0.0
C1295 C 0.8967 0.67849 0.16885 0.0
C1296 C 0.86234 0.6623 0.1811 0.0
C1297 C 0.83919 0.68116 0.20124 0.0
C1298 C 0.94284 0.60379 0.13714 0.0
C1299 C 0.96318 0.61289 0.10761 0.0
C1300 C 0.92252 0.62548 0.15711 0.0
C1301 C 0.92164 0.65735 0.14855 0.0
C1302 C 0.94363 0.66764 0.12006 0.0
C1303 C 0.96405 0.64565 0.09978 0.0
H1304 H 0.39692 0.82939 0.23413 0.0
H1305 H 0.31876 0.79393 0.16845 0.0
H1306 H 0.43517 0.86304 0.19389 0.0
H1307 H 0.35697 0.82826 0.128 0.0
H1308 H 0.44643 0.87524 0.05205 0.0
H1309 H 0.41381 0.83478 0.09005 0.0
H1310 H 0.436 0.91442 0.17163 0.0
H1311 H 0.46833 0.95411 0.13397 0.0
C1312 C 0.38787 0.82879 0.21103 0.0
C1313 C 0.35465 0.80914 0.20463 0.0
C1314 C 0.40979 0.84825 0.18794 0.0
C1315 C 0.39931 0.84848 0.15755 0.0
C1316 C 0.36617 0.82841 0.15093 0.0
C1317 C 0.34403 0.80911 0.17427 0.0
C1318 C 0.4452 0.88356 0.07815 0.0
C1319 C 0.46032 0.91768 0.09008 0.0
C1320 C 0.42604 0.86063 0.09992 0.0
C1321 C 0.42198 0.87133 0.13401 0.0
C1322 C 0.43873 0.90501 0.1457 0.0
C1323 C 0.45739 0.92783 0.12408 0.0
H1324 H 0.71209 0.25119 0.1861 0.0
H1325 H 0.71375 0.16163 0.22841 0.0
H1326 H 0.67427 0.21462 0.14716 0.0
H1327 H 0.67748 0.12524 0.18856 0.0
H1328 H 0.65692 0.07554 0.08038 0.0
H1329 H 0.68917 0.11137 0.12352 0.0
H1330 H 0.60941 0.17145 0.14914 0.0
H1331 H 0.57633 0.13467 0.10636 0.0
C1332 C 0.70451 0.22379 0.18715 0.0
C1333 C 0.71645 0.20947 0.21033 0.0
C1334 C 0.68272 0.20287 0.16488 0.0
C1335 C 0.67295 0.16703 0.16475 0.0
C1336 C 0.68472 0.15273 0.18792 0.0
C1337 C 0.70574 0.17367 0.21065 0.0
C1338 C 0.64601 0.09613 0.09546 0.0
C1339 C 0.61402 0.10221 0.09 0.0
C1340 C 0.66448 0.11662 0.12019 0.0
C1341 C 0.65195 0.14435 0.13963 0.0
C1342 C 0.61979 0.15037 0.13442 0.0
C1343 C 0.60075 0.12919 0.11015 0.0
H1344 H 0.76912 0.67462 0.82443 0.0
H1345 H 0.67336 0.70668 0.82064 0.0
H1346 H 0.73632 0.63207 0.8592 0.0
H1347 H 0.64051 0.66392 0.85548 0.0
H1348 H 0.5888 0.5659 0.90337 0.0
H1349 H 0.62049 0.60073 0.86059 0.0
H1350 H 0.70806 0.63728 0.91595 0.0
H1351 H 0.67694 0.60277 0.95806 0.0
C1352 C 0.74101 0.6724 0.83073 0.0
C1353 C 0.72392 0.69412 0.81969 0.0
C1354 C 0.7222 0.64801 0.85073 0.0
C1355 C 0.68581 0.64469 0.86027 0.0
C1356 C 0.66844 0.66552 0.84826 0.0
C1357 C 0.68731 0.69005 0.82828 0.0
C1358 C 0.615 0.58104 0.90609 0.0
C1359 C 0.63026 0.58162 0.9342 0.0
C1360 C 0.63303 0.60116 0.88174 0.0
C1361 C 0.66684 0.62174 0.88483 0.0
C1362 C 0.6823 0.62143 0.91252 0.0
C1363 C 0.66426 0.60178 0.93685 0.0
H1364 H 0.36832 0.64779 0.87761 0.0
H1365 H 0.43201 0.59183 0.80402 0.0
H1366 H 0.40131 0.64056 0.91949 0.0
H1367 H 0.46465 0.58429 0.8456 0.0
H1368 H 0.52562 0.58075 0.92494 0.0
H1369 H 0.5043 0.60958 0.8879 0.0
H1370 H 0.39995 0.58748 0.94167 0.0
H1371 H 0.42115 0.55896 0.97828 0.0
C1372 C 0.38995 0.63474 0.8703 0.0
C1373 C 0.39734 0.61999 0.83768 0.0
C1374 C 0.4087 0.63042 0.89425 0.0
C1375 C 0.43543 0.61158 0.88594 0.0
C1376 C 0.44447 0.59915 0.85287 0.0
C1377 C 0.42555 0.60318 0.82906 0.0
C1378 C 0.49836 0.58282 0.92918 0.0
C1379 C 0.47488 0.56709 0.95405 0.0
C1380 C 0.4861 0.59916 0.90794 0.0
C1381 C 0.45034 0.60057 0.91165 0.0
C1382 C 0.42765 0.58712 0.93818 0.0
C1383 C 0.43973 0.57043 0.95898 0.0
H1384 H 0.38457 0.28245 0.82284 0.0
H1385 H 0.34931 0.37682 0.82799 0.0
H1386 H 0.43168 0.31379 0.85488 0.0
H1387 H 0.39712 0.40795 0.8583 0.0
H1388 H 0.45518 0.38452 0.9597 0.0
H1389 H 0.42547 0.34634 0.91621 0.0
H1390 H 0.46709 0.42289 0.85146 0.0
H1391 H 0.49734 0.46098 0.89481 0.0
C1392 C 0.38721 0.30989 0.83023 0.0
C1393 C 0.36352 0.32726 0.82239 0.0
C1394 C 0.41425 0.32775 0.84834 0.0
C1395 C 0.41834 0.36329 0.85836 0.0
C1396 C 0.39509 0.38069 0.85004 0.0
C1397 C 0.36771 0.36281 0.83263 0.0
C1398 C 0.45899 0.39265 0.9358 0.0
C1399 C 0.47816 0.42576 0.93064 0.0
C1400 C 0.44215 0.37077 0.91093 0.0
C1401 C 0.44379 0.38196 0.88075 0.0
C1402 C 0.46543 0.41386 0.87466 0.0
C1403 C 0.48283 0.43552 0.89937 0.0
H1404 H 0.6556 0.34301 0.87578 0.0
H1405 H 0.61084 0.2678 0.94185 0.0
H1406 H 0.66001 0.3881 0.9207 0.0
H1407 H 0.61212 0.31505 0.98785 0.0
H1408 H 0.55687 0.4169 1.00687 0.0
H1409 H 0.57436 0.3621 0.99199 0.0
H1410 H 0.68313 0.41502 0.97591 0.0
H1411 H 0.66566 0.47031 0.99048 0.0
C1412 C 0.64808 0.3357 0.90005 0.0
C1413 C 0.63363 0.30136 0.90501 0.0
C1414 C 0.65057 0.36192 0.92606 0.0
C1415 C 0.63715 0.35505 0.95789 0.0
C1416 C 0.62331 0.32079 0.96348 0.0
C1417 C 0.622 0.29397 0.93716 0.0
C1418 C 0.58465 0.41692 1.00093 0.0
C1419 C 0.60981 0.44775 0.99785 0.0
C1420 C 0.5947 0.38546 0.99325 0.0
C1421 C 0.62997 0.38447 0.98209 0.0
C1422 C 0.65568 0.41529 0.98419 0.0
C1423 C 0.64562 0.44687 0.99191 0.0
H1424 H 0.62741 0.44135 0.24676 0.0
H1425 H 0.69797 0.3941 0.1726 0.0
H1426 H 0.59697 0.4514 0.20469 0.0
H1427 H 0.6671 0.40368 0.13019 0.0
H1428 H 0.64608 0.48697 0.07494 0.0
H1429 H 0.66684 0.45752 0.11103 0.0
H1430 H 0.56087 0.42891 0.1599 0.0
H1431 H 0.54002 0.45889 0.12355 0.0
C1432 C 0.6359 0.43243 0.22141 0.0
C1433 C 0.66536 0.41737 0.21292 0.0
C1434 C 0.61824 0.4379 0.19728 0.0
C1435 C 0.62975 0.42865 0.164 0.0
C1436 C 0.65781 0.41147 0.1556 0.0
C1437 C 0.67534 0.40574 0.17985 0.0
C1438 C 0.62708 0.47397 0.09308 0.0
C1439 C 0.59151 0.47577 0.09681 0.0
C1440 C 0.63894 0.45674 0.11358 0.0
C1441 C 0.6156 0.44103 0.13858 0.0
C1442 C 0.57959 0.44107 0.1411 0.0
C1443 C 0.5676 0.45806 0.12022 0.0
H1444 H 0.71724 0.66699 0.22381 0.0
H1445 H 0.68353 0.76148 0.2252 0.0
H1446 H 0.66906 0.63525 0.1941 0.0
H1447 H 0.63586 0.7295 0.19428 0.0
H1448 H 0.60979 0.65866 0.09182 0.0
H1449 H 0.64019 0.69676 0.13484 0.0
H1450 H 0.60046 0.61983 0.19948 0.0
H1451 H 0.56962 0.58173 0.15647 0.0
C1452 C 0.69916 0.68092 0.21839 0.0
C1453 C 0.704 0.71671 0.22723 0.0
C1454 C 0.6715 0.66269 0.20145 0.0
C1455 C 0.64854 0.67993 0.19237 0.0
C1456 C 0.65311 0.71566 0.20129 0.0
C1457 C 0.68048 0.73389 0.21879 0.0
C1458 C 0.60656 0.65042 0.11561 0.0
C1459 C 0.58775 0.61721 0.12081 0.0
C1460 C 0.62381 0.67225 0.14023 0.0
C1461 C 0.62293 0.66095 0.17022 0.0
C1462 C 0.60162 0.62893 0.17641 0.0
C1463 C 0.58384 0.60729 0.15192 0.0
H1464 H 0.49796 0.7564 0.11184 0.0
H1465 H 0.38659 0.73909 0.10874 0.0
H1466 H 0.50291 0.71218 0.06589 0.0
H1467 H 0.39129 0.69432 0.06201 0.0
H1468 H 0.40644 0.584 0.07495 0.0
H1469 H 0.39654 0.6416 0.07753 0.0
H1470 H 0.49756 0.67077 1.01926 0.0
H1471 H 0.50814 0.61386 1.01874 0.0
C1472 C 0.47488 0.74472 0.09988 0.0
C1473 C 0.4416 0.74953 0.11483 0.0
C1474 C 0.47759 0.719 0.07333 0.0
C1475 C 0.44695 0.69806 0.06169 0.0
C1476 C 0.41508 0.70893 0.07155 0.0
C1477 C 0.41242 0.73476 0.09813 0.0
C1478 C 0.42609 0.60261 0.06222 0.0
C1479 C 0.45857 0.59521 0.04797 0.0
C1480 C 0.42031 0.63556 0.06313 0.0
C1481 C 0.44678 0.66128 0.04927 0.0
C1482 C 0.47713 0.65198 0.03099 0.0
C1483 C 0.48328 0.61948 0.03093 0.0
H1484 H 0.38697 0.33167 0.22543 0.0
H1485 H 0.29284 0.36714 0.2229 0.0
H1486 H 0.42126 0.37573 0.19258 0.0
H1487 H 0.32708 0.41118 0.1904 0.0
H1488 H 0.38751 0.4436 0.09329 0.0
H1489 H 0.35524 0.4082 0.13423 0.0
H1490 H 0.44341 0.4387 0.18913 0.0
H1491 H 0.47638 0.47434 0.14732 0.0
C1492 C 0.37369 0.34928 0.21846 0.0
C1493 C 0.33711 0.34576 0.22671 0.0
C1494 C 0.3934 0.37461 0.19969 0.0
C1495 C 0.3769 0.39686 0.18867 0.0
C1496 C 0.34054 0.39413 0.19805 0.0
C1497 C 0.3209 0.36887 0.21673 0.0
C1498 C 0.40008 0.4431 0.11419 0.0
C1499 C 0.43464 0.46172 0.11693 0.0
C1500 C 0.38137 0.42295 0.13787 0.0
C1501 C 0.39664 0.42063 0.16506 0.0
C1502 C 0.43099 0.43982 0.16835 0.0
C1503 C 0.44974 0.46043 0.1446 0.0
H1504 H 0.80093 0.66498 0.704 0.0
H1505 H 0.89585 0.73951 0.72355 0.0
H1506 H 0.83612 0.62547 0.67201 0.0
H1507 H 0.93106 0.69961 0.6925 0.0
H1508 H 0.98655 0.61015 0.65227 0.0
H1509 H 0.9487 0.64419 0.69013 0.0
H1510 H 0.87454 0.62043 0.62049 0.0
H1511 H 0.91206 0.5868 0.58319 0.0
C1512 C 0.8293 0.67303 0.70159 0.0
C1513 C 0.84534 0.7056 0.71674 0.0
C1514 C 0.84959 0.65022 0.68326 0.0
C1515 C 0.88667 0.65902 0.67969 0.0
C1516 C 0.90268 0.69146 0.69512 0.0
C1517 C 0.88237 0.71444 0.71309 0.0
C1518 C 0.96168 0.61143 0.64555 0.0
C1519 C 0.95227 0.59543 0.61476 0.0
C1520 C 0.94016 0.63138 0.66703 0.0
C1521 C 0.90844 0.63541 0.65845 0.0
C1522 C 0.89841 0.61786 0.6283 0.0
C1523 C 0.92003 0.59848 0.60681 0.0
H1524 H 0.34862 0.86301 0.72062 0.0
H1525 H 0.34533 0.76471 0.65951 0.0
H1526 H 0.38159 0.89191 0.67499 0.0
H1527 H 0.38026 0.79394 0.61422 0.0
H1528 H 0.48693 0.88418 0.57538 0.0
H1529 H 0.44905 0.84166 0.60884 0.0
H1530 H 0.36256 0.89101 0.6138 0.0
H1531 H 0.39988 0.93293 0.58038 0.0
C1532 C 0.35514 0.84747 0.69759 0.0
C1533 C 0.34487 0.81143 0.69396 0.0
C1534 C 0.37402 0.86406 0.67149 0.0
C1535 C 0.38343 0.84504 0.64127 0.0
C1536 C 0.3735 0.80904 0.63744 0.0
C1537 C 0.35384 0.79239 0.66345 0.0
C1538 C 0.45939 0.88483 0.58232 0.0
C1539 C 0.44632 0.91192 0.57562 0.0
C1540 C 0.43784 0.8607 0.60157 0.0
C1541 C 0.40321 0.86361 0.61417 0.0
C1542 C 0.38929 0.88852 0.60455 0.0
C1543 C 0.41061 0.91237 0.58537 0.0
H1544 H 0.21544 0.45072 0.70454 0.0
H1545 H 0.20783 0.38373 0.6126 0.0
H1546 H 0.16516 0.473 0.69644 0.0
H1547 H 0.15769 0.40538 0.60486 0.0
H1548 H 0.11097 0.52425 0.62173 0.0
H1549 H 0.15411 0.50692 0.6476 0.0
H1550 H 0.09339 0.40252 0.63858 0.0
H1551 H 0.05069 0.41978 0.61286 0.0
C1552 C 0.2029 0.44073 0.68275 0.0
C1553 C 0.21544 0.41561 0.6591 0.0
C1554 C 0.17433 0.45348 0.67814 0.0
C1555 C 0.15746 0.44058 0.65025 0.0
C1556 C 0.17001 0.41541 0.62679 0.0
C1557 C 0.19882 0.40323 0.63106 0.0
C1558 C 0.10603 0.49807 0.62691 0.0
C1559 C 0.07771 0.47326 0.61537 0.0
C1560 C 0.13074 0.4881 0.64149 0.0
C1561 C 0.12724 0.45329 0.64445 0.0
C1562 C 0.09679 0.42943 0.63623 0.0
C1563 C 0.07226 0.43934 0.62179 0.0
H1564 H 0.73056 0.17029 0.70723 0.0
H1565 H 0.6883 0.25569 0.69497 0.0
H1566 H 0.69021 0.13144 0.67183 0.0
H1567 H 0.6474 0.21655 0.66036 0.0
H1568 H 0.5514 0.1201 0.64423 0.0
H1569 H 0.59467 0.16004 0.67571 0.0
H1570 H 0.67869 0.12835 0.6062 0.0
H1571 H 0.63518 0.08891 0.57379 0.0
C1572 C 0.71259 0.18077 0.69715 0.0
C1573 C 0.71269 0.21615 0.70396 0.0
C1574 C 0.68969 0.15854 0.67671 0.0
C1575 C 0.66581 0.17105 0.66332 0.0
C1576 C 0.66565 0.2063 0.67032 0.0
C1577 C 0.68908 0.22867 0.69012 0.0
C1578 C 0.57909 0.12169 0.63553 0.0
C1579 C 0.58988 0.10132 0.60651 0.0
C1580 C 0.60381 0.14465 0.65351 0.0
C1581 C 0.63994 0.14722 0.64338 0.0
C1582 C 0.65093 0.12676 0.61451 0.0
C1583 C 0.6261 0.10436 0.59596 0.0
H1584 H 0.8513 0.37959 0.32066 0.0
H1585 H 0.84666 0.28787 0.36211 0.0
H1586 H 0.8901 0.41318 0.35979 0.0
H1587 H 0.8841 0.32137 0.40188 0.0
H1588 H 0.98178 0.38132 0.4458 0.0
H1589 H 0.94183 0.34913 0.40772 0.0
H1590 H 0.89621 0.43756 0.41449 0.0
H1591 H 0.9374 0.4703 0.4518 0.0
C1592 C 0.85827 0.36662 0.33831 0.0
C1593 C 0.84598 0.33091 0.33796 0.0
C1594 C 0.88043 0.38596 0.36098 0.0
C1595 C 0.8907 0.37019 0.38417 0.0
C1596 C 0.87768 0.33454 0.3841 0.0
C1597 C 0.85589 0.31523 0.3613 0.0
C1598 C 0.96313 0.39396 0.4394 0.0
C1599 C 0.96291 0.42851 0.45214 0.0
C1600 C 0.93991 0.37532 0.41754 0.0
C1601 C 0.91535 0.39043 0.40784 0.0
C1602 C 0.91491 0.42498 0.42085 0.0
C1603 C 0.93841 0.44376 0.44258 0.0
H1604 H 0.67761 0.78739 0.34518 0.0
H1605 H 0.76238 0.87698 0.34124 0.0
H1606 H 0.64032 0.82184 0.38262 0.0
H1607 H 0.72598 0.91104 0.37914 0.0
H1608 H 0.64421 0.97406 0.41211 0.0
H1609 H 0.67999 0.93679 0.38003 0.0
H1610 H 0.6246 0.85432 0.43477 0.0
H1611 H 0.58678 0.89215 0.46685 0.0
C1612 C 0.68847 0.81437 0.35251 0.0
C1613 C 0.72299 0.82941 0.33958 0.0
C1614 C 0.66704 0.83421 0.37424 0.0
C1615 C 0.67951 0.86973 0.38385 0.0
C1616 C 0.71461 0.8842 0.37181 0.0
C1617 C 0.73578 0.86452 0.35 0.0
C1618 C 0.63933 0.94811 0.41788 0.0
C1619 C 0.61217 0.93659 0.44265 0.0
C1620 C 0.66048 0.92651 0.3993 0.0
C1621 C 0.65604 0.89227 0.40469 0.0
C1622 C 0.62898 0.88041 0.42954 0.0
C1623 C 0.60734 0.90225 0.44824 0.0
H1624 H 0.24767 0.73941 0.38082 0.0
H1625 H 0.22919 0.64977 0.3081 0.0
H1626 H 0.21314 0.70601 0.4229 0.0
H1627 H 0.19324 0.61644 0.34981 0.0
H1628 H 0.14107 0.55753 0.43444 0.0
H1629 H 0.18685 0.58892 0.39659 0.0
H1630 H 0.15524 0.68369 0.4407 0.0
H1631 H 0.11163 0.65308 0.4789 0.0
C1632 C 0.23605 0.71253 0.37382 0.0
C1633 C 0.24107 0.6973 0.34112 0.0
C1634 C 0.21604 0.69327 0.39795 0.0
C1635 C 0.19977 0.65835 0.38998 0.0
C1636 C 0.20557 0.64299 0.35722 0.0
C1637 C 0.22607 0.66219 0.33317 0.0
C1638 C 0.14467 0.5852 0.43652 0.0
C1639 C 0.12245 0.60263 0.45972 0.0
C1640 C 0.1706 0.60321 0.4145 0.0
C1641 C 0.17487 0.63905 0.41519 0.0
C1642 C 0.15352 0.65639 0.43942 0.0
C1643 C 0.12804 0.63858 0.46135 0.0
H1644 H 0.4223 0.12069 0.31522 0.0
H1645 H 0.39196 0.19074 0.39983 0.0
H1646 H 0.43976 0.0881 0.35009 0.0
H1647 H 0.40546 0.15562 0.43516 0.0
H1648 H 0.48053 0.11602 0.48426 0.0
H1649 H 0.45165 0.14459 0.45383 0.0
H1650 H 0.42812 0.05041 0.38648 0.0
H1651 H 0.45996 0.02326 0.41571 0.0
C1652 C 0.41896 0.12908 0.34131 0.0
C1653 C 0.40636 0.15905 0.35436 0.0
C1654 C 0.42829 0.10971 0.36161 0.0
C1655 C 0.42436 0.11902 0.39581 0.0
C1656 C 0.40981 0.14788 0.409 0.0
C1657 C 0.40136 0.16782 0.3886 0.0
C1658 C 0.46844 0.10139 0.46332 0.0
C1659 C 0.47228 0.06757 0.45224 0.0
C1660 C 0.45171 0.11768 0.44578 0.0
C1661 C 0.43773 0.10019 0.41711 0.0
C1662 C 0.43945 0.06531 0.40765 0.0
C1663 C 0.45718 0.04943 0.42465 0.0
H1664 H 0.67838 0.93172 0.71306 0.0
H1665 H 0.6467 0.8392 0.64663 0.0
H1666 H 0.6607 0.96533 0.67839 0.0
H1667 H 0.62829 0.87274 0.61207 0.0
H1668 H 0.60883 0.9452 0.54865 0.0
H1669 H 0.64264 0.91771 0.57609 0.0
H1670 H 0.6037 0.96952 0.66937 0.0
H1671 H 0.5708 0.99703 0.64218 0.0
C1672 C 0.66786 0.91861 0.69086 0.0
C1673 C 0.66342 0.88274 0.68284 0.0
C1674 C 0.65768 0.93786 0.67099 0.0
C1675 C 0.6425 0.92172 0.64268 0.0
C1676 C 0.64008 0.88609 0.63356 0.0
C1677 C 0.65053 0.86682 0.6534 0.0
C1678 C 0.60825 0.95125 0.57493 0.0
C1679 C 0.58698 0.97314 0.59327 0.0
C1680 C 0.62731 0.93527 0.59068 0.0
C1681 C 0.62582 0.94125 0.62499 0.0
C1682 C 0.60592 0.96454 0.64294 0.0
C1683 C 0.58678 0.98019 0.62733 0.0
H1684 H 0.69018 0.18412 0.31424 0.0
H1685 H 0.74196 0.26148 0.3854 0.0
H1686 H 0.64958 0.15773 0.35849 0.0
H1687 H 0.70193 0.23436 0.42977 0.0
H1688 H 0.65726 0.12401 0.47687 0.0
H1689 H 0.69401 0.1656 0.4422 0.0
H1690 H 0.6011 0.18044 0.41058 0.0
H1691 H 0.56426 0.13974 0.44625 0.0
C1692 C 0.69293 0.19529 0.33936 0.0
C1693 C 0.71932 0.2245 0.34655 0.0
C1694 C 0.66952 0.18051 0.36458 0.0
C1695 C 0.67266 0.19422 0.3974 0.0
C1696 C 0.699 0.22349 0.40462 0.0
C1697 C 0.72187 0.23881 0.37934 0.0
C1698 C 0.64472 0.1375 0.46374 0.0
C1699 C 0.60805 0.1293 0.46456 0.0
C1700 C 0.66566 0.16107 0.44382 0.0
C1701 C 0.65026 0.17594 0.42372 0.0
C1702 C 0.61346 0.1693 0.42599 0.0
C1703 C 0.59245 0.14638 0.44658 0.0
H1704 H 0.92338 0.61063 0.29022 0.0
H1705 H 0.84494 0.61778 0.37516 0.0
H1706 H 0.95858 0.58974 0.32162 0.0
H1707 H 0.88083 0.59884 0.40684 0.0
H1708 H 0.9334 0.53628 0.45095 0.0
H1709 H 0.89938 0.54881 0.41285 0.0
H1710 H 0.99431 0.60889 0.36543 0.0
H1711 H 1.02834 0.59487 0.403 0.0
C1712 C 0.91364 0.60778 0.31557 0.0
C1713 C 0.88128 0.61591 0.33015 0.0
C1714 C 0.93399 0.59611 0.33365 0.0
C1715 C 0.92246 0.59232 0.36671 0.0
C1716 C 0.89026 0.60075 0.38127 0.0
C1717 C 0.8699 0.61223 0.36322 0.0
C1718 C 0.94694 0.5514 0.43177 0.0
C1719 C 0.98328 0.56448 0.42952 0.0
C1720 C 0.92751 0.55896 0.41022 0.0
C1721 C 0.94399 0.58042 0.38644 0.0
C1722 C 0.9808 0.59212 0.38328 0.0
C1723 C 1.00031 0.58415 0.40469 0.0
H1724 H 0.3889 0.83843 0.29716 0.0
H1725 H 0.3167 0.80953 0.38206 0.0
H1726 H 0.42669 0.8804 0.33168 0.0
H1727 H 0.35583 0.85039 0.41747 0.0
H1728 H 0.42475 0.94609 0.47156 0.0
H1729 H 0.38193 0.90696 0.43869 0.0
H1730 H 0.46727 0.88351 0.36537 0.0
H1731 H 0.50913 0.92363 0.39706 0.0
C1732 C 0.38128 0.84093 0.3234 0.0
C1733 C 0.35001 0.82046 0.3369 0.0
C1734 C 0.40319 0.86487 0.34339 0.0
C1735 C 0.39512 0.86852 0.37774 0.0
C1736 C 0.36311 0.84862 0.39125 0.0
C1737 C 0.34067 0.82505 0.371 0.0
C1738 C 0.43416 0.93255 0.44834 0.0
C1739 C 0.47037 0.93838 0.43678 0.0
C1740 C 0.40962 0.90993 0.42948 0.0
C1741 C 0.42076 0.89218 0.39883 0.0
C1742 C 0.45718 0.89738 0.38809 0.0
C1743 C 0.48144 0.92033 0.40651 0.0
H1744 H 0.2591 0.37155 0.3419 0.0
H1745 H 0.16283 0.30105 0.31923 0.0
H1746 H 0.22529 0.41196 0.37429 0.0
H1747 H 0.12897 0.34195 0.35083 0.0
H1748 H 0.07752 0.43418 0.39259 0.0
H1749 H 0.11403 0.39892 0.35455 0.0
H1750 H 0.18631 0.41702 0.42529 0.0
H1751 H 0.15015 0.45188 0.46276 0.0
C1752 C 0.23071 0.36455 0.34375 0.0
C1753 C 0.2139 0.33281 0.32765 0.0
C1754 C 0.21121 0.38791 0.36233 0.0
C1755 C 0.17418 0.38055 0.36524 0.0
C1756 C 0.15738 0.34898 0.3488 0.0
C1757 C 0.1769 0.32542 0.33055 0.0
C1758 C 0.10174 0.43139 0.39954 0.0
C1759 C 0.111 0.4462 0.43067 0.0
C1760 C 0.12246 0.41072 0.37794 0.0
C1761 C 0.15323 0.40476 0.38675 0.0
C1762 C 0.16317 0.42107 0.41729 0.0
C1763 C 0.14233 0.44118 0.43889 0.0
H1764 H 0.38987 0.25724 0.70083 0.0
H1765 H 0.30298 0.16954 0.70532 0.0
H1766 H 0.42559 0.22163 0.6627 0.0
H1767 H 0.3377 0.13448 0.66676 0.0
H1768 H 0.41639 0.0683 0.63208 0.0
H1769 H 0.38241 0.10684 0.66497 0.0
H1770 H 0.43987 0.18877 0.61038 0.0
H1771 H 0.47584 0.14964 0.57754 0.0
C1772 C 0.37822 0.23045 0.69349 0.0
C1773 C 0.34361 0.21623 0.70683 0.0
C1774 C 0.39873 0.20995 0.67137 0.0
C1775 C 0.38517 0.17461 0.66174 0.0
C1776 C 0.34994 0.16107 0.67411 0.0
C1777 C 0.32972 0.18137 0.6963 0.0
C1778 C 0.42206 0.0944 0.62653 0.0
C1779 C 0.44923 0.10536 0.60157 0.0
C1780 C 0.40198 0.11676 0.64557 0.0
C1781 C 0.40755 0.15125 0.64047 0.0
C1782 C 0.43463 0.16253 0.61541 0.0
C1783 C 0.45518 0.13993 0.59627 0.0
H1784 H 0.87224 0.36641 0.73408 0.0
H1785 H 0.78796 0.33659 0.67458 0.0
H1786 H 0.90767 0.40232 0.69361 0.0
H1787 H 0.82394 0.37161 0.6337 0.0
H1788 H 0.93363 0.39409 0.55752 0.0
H1789 H 0.8898 0.36437 0.59782 0.0
H1790 H 0.89927 0.45846 0.66561 0.0
H1791 H 0.94218 0.48864 0.6248 0.0
C1792 C 0.86124 0.36766 0.71247 0.0
C1793 C 0.8273 0.34868 0.70756 0.0
C1794 C 0.88143 0.38832 0.68942 0.0
C1795 C 0.86848 0.38977 0.6606 0.0
C1796 C 0.83449 0.371 0.65575 0.0
C1797 C 0.81391 0.35105 0.6792 0.0
C1798 C 0.92557 0.40865 0.58066 0.0
C1799 C 0.94108 0.44376 0.58788 0.0
C1800 C 0.90058 0.39163 0.60372 0.0
C1801 C 0.89133 0.40909 0.63485 0.0
C1802 C 0.90599 0.44443 0.64178 0.0
C1803 C 0.93026 0.46173 0.61834 0.0
H1804 H 0.21798 0.65879 0.71841 0.0
H1805 H 0.22017 0.75285 0.68197 0.0
H1806 H 0.17795 0.62684 0.67975 0.0
H1807 H 0.18123 0.72098 0.64277 0.0
H1808 H 0.08166 0.66129 0.60026 0.0
H1809 H 0.12288 0.6927 0.63774 0.0
H1810 H 0.17129 0.60524 0.62445 0.0
H1811 H 0.12932 0.57351 0.58761 0.0
C1812 C 0.21024 0.67265 0.70196 0.0
C1813 C 0.22234 0.70852 0.70355 0.0
C1814 C 0.18732 0.65426 0.67956 0.0
C1815 C 0.17595 0.67113 0.65793 0.0
C1816 C 0.1886 0.70696 0.6593 0.0
C1817 C 0.21127 0.72532 0.68177 0.0
C1818 C 0.10124 0.64878 0.6051 0.0
C1819 C 0.10195 0.61472 0.59078 0.0
C1820 C 0.12512 0.66692 0.62663 0.0
C1821 C 0.15073 0.65173 0.63442 0.0
C1822 C 0.15174 0.6178 0.61967 0.0
C1823 C 0.12772 0.59959 0.59826 0.0
loop_
_geom_bond_atom_site_label_1
_geom_bond_atom_site_label_2
_geom_bond_distance
_geom_bond_site_symmetry_2
_ccdc_geom_bond_type
Eu0 N29 2.600 . S
Eu0 N35 2.562 . S
Eu0 O44 2.462 . S
Eu0 O45 2.373 . S
Eu0 O47 2.432 . S
Eu0 O48 2.291 . S
Eu0 O52 2.335 . S
Eu0 O55 2.372 . S
Eu0 C64 2.787 . S
C1 N2 1.365 . S
C1 C4 1.405 . S
C1 C8 1.448 . S
N2 C1 1.365 . S
N2 C5 1.319 . S
N2 Eu11 2.600 . S
C3 C5 1.397 . S
C3 C6 1.367 . S
C3 H23 0.931 . S
C4 C1 1.405 . S
C4 C6 1.403 . S
C4 C10 1.439 . S
C5 N2 1.319 . S
C5 C3 1.397 . S
C5 H16 0.930 . S
C6 C3 1.367 . S
C6 C4 1.403 . S
C6 H27 0.929 . S
C7 C8 1.430 . S
C7 C9 1.387 . S
C7 C13 1.404 . S
C8 C1 1.448 . S
C8 C7 1.430 . S
C8 N12 1.351 . S
C9 C7 1.387 . S
C9 C10 1.374 . S
C9 H24 0.931 . S
C10 C4 1.439 . S
C10 C9 1.374 . S
C10 H25 0.931 . S
Eu11 N2 2.600 . S
Eu11 N12 2.562 . S
Eu11 O46 2.335 . S
Eu11 O49 2.372 . S
Eu11 O50 2.462 . S
Eu11 O51 2.373 . S
Eu11 O53 2.432 . S
Eu11 O54 2.291 . S
Eu11 C75 2.787 . S
N12 C8 1.351 . S
N12 Eu11 2.562 . S
N12 C14 1.325 . S
C13 C7 1.404 . S
C13 C15 1.366 . S
C13 H21 0.930 . S
C14 N12 1.325 . S
C14 C15 1.416 . S
C14 H20 0.929 . S
C15 C13 1.366 . S
C15 C14 1.416 . S
C15 H17 0.930 . S
H16 C5 0.930 . S
H17 C15 0.930 . S
H18 C33 0.930 . S
H19 C40 0.930 . S
H20 C14 0.929 . S
H21 C13 0.930 . S
H22 C36 0.929 . S
H23 C3 0.931 . S
H24 C9 0.931 . S
H25 C10 0.931 . S
H26 C31 0.931 . S
H27 C6 0.929 . S
H28 C39 0.930 . S
N29 Eu0 2.600 . S
N29 C30 1.365 . S
N29 C33 1.319 . S
C30 N29 1.365 . S
C30 C32 1.405 . S
C30 C38 1.448 . S
C31 H26 0.931 . S
C31 C33 1.397 . S
C31 C34 1.367 . S
C32 C30 1.405 . S
C32 C34 1.403 . S
C32 C65 1.439 . S
C33 H18 0.930 . S
C33 N29 1.319 . S
C33 C31 1.397 . S
C34 C31 1.367 . S
C34 C32 1.403 . S
C34 H41 0.929 . S
N35 Eu0 2.562 . S
N35 C36 1.325 . S
N35 C38 1.351 . S
C36 H22 0.929 . S
C36 N35 1.325 . S
C36 C40 1.416 . S
C37 C38 1.430 . S
C37 C39 1.404 . S
C37 C66 1.387 . S
C38 C30 1.448 . S
C38 N35 1.351 . S
C38 C37 1.430 . S
C39 H28 0.930 . S
C39 C37 1.404 . S
C39 C40 1.366 . S
C40 H19 0.930 . S
C40 C36 1.416 . S
C40 C39 1.366 . S
H41 C34 0.929 . S
H42 C65 0.931 . S
H43 C66 0.931 . S
O44 Eu0 2.462 . S
O44 C64 1.252 . S
O45 Eu0 2.373 . S
O45 C56 1.249 . S
O46 Eu11 2.335 . S
O46 C56 1.264 . S
O47 Eu0 2.432 . S
O47 C64 1.268 . S
O48 Eu0 2.291 . S
O48 C63 1.255 . S
O49 Eu11 2.372 . S
O49 C63 1.257 . S
O50 Eu11 2.462 . S
O50 C75 1.252 . S
O51 Eu11 2.373 . S
O51 C67 1.249 . S
O52 Eu0 2.335 . S
O52 C67 1.264 . S
O53 Eu11 2.432 . S
O53 C75 1.268 . S
O54 Eu11 2.291 . S
O54 C74 1.255 . S
O55 Eu0 2.372 . S
O55 C74 1.257 . S
C56 O45 1.249 . S
C56 O46 1.264 . S
C57 C60 1.382 . S
C57 C62 1.390 . S
C57 C64 1.506 . S
C58 C59 1.398 . S
C58 C62 1.392 . S
C59 C58 1.398 . S
C59 C61 1.372 . S
C59 H76 0.931 . S
C60 C57 1.382 . S
C60 C61 1.390 . S
C60 H77 0.931 . S
C61 C59 1.372 . S
C61 C60 1.390 . S
C61 H78 0.929 . S
C62 C57 1.390 . S
C62 C58 1.392 . S
C62 H79 0.930 . S
C63 O48 1.255 . S
C63 O49 1.257 . S
C64 Eu0 2.787 . S
C64 O44 1.252 . S
C64 O47 1.268 . S
C64 C57 1.506 . S
C65 C32 1.439 . S
C65 H42 0.931 . S
C65 C66 1.374 . S
C66 C37 1.387 . S
C66 H43 0.931 . S
C66 C65 1.374 . S
C67 O51 1.249 . S
C67 O52 1.264 . S
C68 C71 1.382 . S
C68 C72 1.390 . S
C68 C75 1.506 . S
C69 C70 1.398 . S
C69 C72 1.392 . S
C70 C69 1.398 . S
C70 C73 1.372 . S
C70 H80 0.931 . S
C71 C68 1.382 . S
C71 C73 1.390 . S
C71 H81 0.931 . S
C72 C68 1.390 . S
C72 C69 1.392 . S
C72 H82 0.930 . S
C73 C70 1.372 . S
C73 C71 1.390 . S
C73 H83 0.929 . S
C74 O54 1.255 . S
C74 O55 1.257 . S
C75 Eu11 2.787 . S
C75 O50 1.252 . S
C75 O53 1.268 . S
C75 C68 1.506 . S
H76 C59 0.931 . S
H77 C60 0.931 . S
H78 C61 0.929 . S
H79 C62 0.930 . S
H80 C70 0.931 . S
H81 C71 0.931 . S
H82 C72 0.930 . S
H83 C73 0.929 . S
Eu84 N113 2.600 . S
Eu84 N119 2.562 . S
Eu84 O128 2.462 . S
Eu84 O129 2.373 . S
Eu84 O131 2.432 . S
Eu84 O132 2.291 . S
Eu84 O136 2.335 . S
Eu84 O139 2.372 . S
Eu84 C148 2.787 . S
C85 N86 1.365 . S
C85 C88 1.405 . S
C85 C92 1.448 . S
N86 C85 1.365 . S
N86 C89 1.319 . S
N86 Eu95 2.600 . S
C87 C89 1.397 . S
C87 C90 1.367 . S
C87 H107 0.931 . S
C88 C85 1.405 . S
C88 C90 1.403 . S
C88 C94 1.439 . S
C89 N86 1.319 . S
C89 C87 1.397 . S
C89 H100 0.930 . S
C90 C87 1.367 . S
C90 C88 1.403 . S
C90 H111 0.929 . S
C91 C92 1.430 . S
C91 C93 1.387 . S
C91 C97 1.404 . S
C92 C85 1.448 . S
C92 C91 1.430 . S
C92 N96 1.351 . S
C93 C91 1.387 . S
C93 C94 1.374 . S
C93 H108 0.931 . S
C94 C88 1.439 . S
C94 C93 1.374 . S
C94 H109 0.931 . S
Eu95 N86 2.600 . S
Eu95 N96 2.562 . S
Eu95 O130 2.335 . S
Eu95 O133 2.372 . S
Eu95 O134 2.462 . S
Eu95 O135 2.373 . S
Eu95 O137 2.432 . S
Eu95 O138 2.291 . S
Eu95 C159 2.787 . S
N96 C92 1.351 . S
N96 Eu95 2.562 . S
N96 C98 1.325 . S
C97 C91 1.404 . S
C97 C99 1.366 . S
C97 H105 0.930 . S
C98 N96 1.325 . S
C98 C99 1.416 . S
C98 H104 0.929 . S
C99 C97 1.366 . S
C99 C98 1.416 . S
C99 H101 0.930 . S
H100 C89 0.930 . S
H101 C99 0.930 . S
H102 C117 0.930 . S
H103 C124 0.930 . S
H104 C98 0.929 . S
H105 C97 0.930 . S
H106 C120 0.929 . S
H107 C87 0.931 . S
H108 C93 0.931 . S
H109 C94 0.931 . S
H110 C115 0.931 . S
H111 C90 0.929 . S
H112 C123 0.930 . S
N113 Eu84 2.600 . S
N113 C114 1.365 . S
N113 C117 1.319 . S
C114 N113 1.365 . S
C114 C116 1.405 . S
C114 C122 1.448 . S
C115 H110 0.931 . S
C115 C117 1.397 . S
C115 C118 1.367 . S
C116 C114 1.405 . S
C116 C118 1.403 . S
C116 C149 1.439 . S
C117 H102 0.930 . S
C117 N113 1.319 . S
C117 C115 1.397 . S
C118 C115 1.367 . S
C118 C116 1.403 . S
C118 H125 0.929 . S
N119 Eu84 2.562 . S
N119 C120 1.325 . S
N119 C122 1.351 . S
C120 H106 0.929 . S
C120 N119 1.325 . S
C120 C124 1.416 . S
C121 C122 1.430 . S
C121 C123 1.404 . S
C121 C150 1.387 . S
C122 C114 1.448 . S
C122 N119 1.351 . S
C122 C121 1.430 . S
C123 H112 0.930 . S
C123 C121 1.404 . S
C123 C124 1.366 . S
C124 H103 0.930 . S
C124 C120 1.416 . S
C124 C123 1.366 . S
H125 C118 0.929 . S
H126 C149 0.931 . S
H127 C150 0.931 . S
O128 Eu84 2.462 . S
O128 C148 1.252 . S
O129 Eu84 2.373 . S
O129 C140 1.249 . S
O130 Eu95 2.335 . S
O130 C140 1.264 . S
O131 Eu84 2.432 . S
O131 C148 1.268 . S
O132 Eu84 2.291 . S
O132 C147 1.255 . S
O133 Eu95 2.372 . S
O133 C147 1.257 . S
O134 Eu95 2.462 . S
O134 C159 1.252 . S
O135 Eu95 2.373 . S
O135 C151 1.249 . S
O136 Eu84 2.335 . S
O136 C151 1.264 . S
O137 Eu95 2.432 . S
O137 C159 1.268 . S
O138 Eu95 2.291 . S
O138 C158 1.255 . S
O139 Eu84 2.372 . S
O139 C158 1.257 . S
C140 O129 1.249 . S
C140 O130 1.264 . S
C141 C144 1.382 . S
C141 C146 1.390 . S
C141 C148 1.506 . S
C142 C143 1.398 . S
C142 C146 1.392 . S
C143 C142 1.398 . S
C143 C145 1.372 . S
C143 H160 0.931 . S
C144 C141 1.382 . S
C144 C145 1.390 . S
C144 H161 0.931 . S
C145 C143 1.372 . S
C145 C144 1.390 . S
C145 H162 0.929 . S
C146 C141 1.390 . S
C146 C142 1.392 . S
C146 H163 0.930 . S
C147 O132 1.255 . S
C147 O133 1.257 . S
C148 Eu84 2.787 . S
C148 O128 1.252 . S
C148 O131 1.268 . S
C148 C141 1.506 . S
C149 C116 1.439 . S
C149 H126 0.931 . S
C149 C150 1.374 . S
C150 C121 1.387 . S
C150 H127 0.931 . S
C150 C149 1.374 . S
C151 O135 1.249 . S
C151 O136 1.264 . S
C152 C155 1.382 . S
C152 C156 1.390 . S
C152 C159 1.506 . S
C153 C154 1.398 . S
C153 C156 1.392 . S
C154 C153 1.398 . S
C154 C157 1.372 . S
C154 H164 0.931 . S
C155 C152 1.382 . S
C155 C157 1.390 . S
C155 H165 0.931 . S
C156 C152 1.390 . S
C156 C153 1.392 . S
C156 H166 0.930 . S
C157 C154 1.372 . S
C157 C155 1.390 . S
C157 H167 0.929 . S
C158 O138 1.255 . S
C158 O139 1.257 . S
C159 Eu95 2.787 . S
C159 O134 1.252 . S
C159 O137 1.268 . S
C159 C152 1.506 . S
H160 C143 0.931 . S
H161 C144 0.931 . S
H162 C145 0.929 . S
H163 C146 0.930 . S
H164 C154 0.931 . S
H165 C155 0.931 . S
H166 C156 0.930 . S
H167 C157 0.929 . S
Eu168 N197 2.600 . S
Eu168 N203 2.562 . S
Eu168 O212 2.462 . S
Eu168 O213 2.373 . S
Eu168 O215 2.432 . S
Eu168 O216 2.291 . S
Eu168 O220 2.335 . S
Eu168 O223 2.372 . S
Eu168 C232 2.787 . S
C169 N170 1.365 . S
C169 C172 1.405 . S
C169 C176 1.448 . S
N170 C169 1.365 . S
N170 C173 1.319 . S
N170 Eu179 2.600 . S
C171 C173 1.397 . S
C171 C174 1.367 . S
C171 H191 0.931 . S
C172 C169 1.405 . S
C172 C174 1.403 . S
C172 C178 1.439 . S
C173 N170 1.319 . S
C173 C171 1.397 . S
C173 H184 0.930 . S
C174 C171 1.367 . S
C174 C172 1.403 . S
C174 H195 0.929 . S
C175 C176 1.430 . S
C175 C177 1.387 . S
C175 C181 1.404 . S
C176 C169 1.448 . S
C176 C175 1.430 . S
C176 N180 1.351 . S
C177 C175 1.387 . S
C177 C178 1.374 . S
C177 H192 0.931 . S
C178 C172 1.439 . S
C178 C177 1.374 . S
C178 H193 0.931 . S
Eu179 N170 2.600 . S
Eu179 N180 2.562 . S
Eu179 O214 2.335 . S
Eu179 O217 2.372 . S
Eu179 O218 2.462 . S
Eu179 O219 2.373 . S
Eu179 O221 2.432 . S
Eu179 O222 2.291 . S
Eu179 C243 2.787 . S
N180 C176 1.351 . S
N180 Eu179 2.562 . S
N180 C182 1.325 . S
C181 C175 1.404 . S
C181 C183 1.366 . S
C181 H189 0.930 . S
C182 N180 1.325 . S
C182 C183 1.416 . S
C182 H188 0.929 . S
C183 C181 1.366 . S
C183 C182 1.416 . S
C183 H185 0.930 . S
H184 C173 0.930 . S
H185 C183 0.930 . S
H186 C201 0.930 . S
H187 C208 0.930 . S
H188 C182 0.929 . S
H189 C181 0.930 . S
H190 C204 0.929 . S
H191 C171 0.931 . S
H192 C177 0.931 . S
H193 C178 0.931 . S
H194 C199 0.931 . S
H195 C174 0.929 . S
H196 C207 0.930 . S
N197 Eu168 2.600 . S
N197 C198 1.365 . S
N197 C201 1.319 . S
C198 N197 1.365 . S
C198 C200 1.405 . S
C198 C206 1.448 . S
C199 H194 0.931 . S
C199 C201 1.397 . S
C199 C202 1.367 . S
C200 C198 1.405 . S
C200 C202 1.403 . S
C200 C233 1.439 . S
C201 H186 0.930 . S
C201 N197 1.319 . S
C201 C199 1.397 . S
C202 C199 1.367 . S
C202 C200 1.403 . S
C202 H209 0.929 . S
N203 Eu168 2.562 . S
N203 C204 1.325 . S
N203 C206 1.351 . S
C204 H190 0.929 . S
C204 N203 1.325 . S
C204 C208 1.416 . S
C205 C206 1.430 . S
C205 C207 1.404 . S
C205 C234 1.387 . S
C206 C198 1.448 . S
C206 N203 1.351 . S
C206 C205 1.430 . S
C207 H196 0.930 . S
C207 C205 1.404 . S
C207 C208 1.366 . S
C208 H187 0.930 . S
C208 C204 1.416 . S
C208 C207 1.366 . S
H209 C202 0.929 . S
H210 C233 0.931 . S
H211 C234 0.931 . S
O212 Eu168 2.462 . S
O212 C232 1.252 . S
O213 Eu168 2.373 . S
O213 C224 1.249 . S
O214 Eu179 2.335 . S
O214 C224 1.264 . S
O215 Eu168 2.432 . S
O215 C232 1.268 . S
O216 Eu168 2.291 . S
O216 C231 1.255 . S
O217 Eu179 2.372 . S
O217 C231 1.257 . S
O218 Eu179 2.462 . S
O218 C243 1.252 . S
O219 Eu179 2.373 . S
O219 C235 1.249 . S
O220 Eu168 2.335 . S
O220 C235 1.264 . S
O221 Eu179 2.432 . S
O221 C243 1.268 . S
O222 Eu179 2.291 . S
O222 C242 1.255 . S
O223 Eu168 2.372 . S
O223 C242 1.257 . S
C224 O213 1.249 . S
C224 O214 1.264 . S
C225 C228 1.382 . S
C225 C230 1.390 . S
C225 C232 1.506 . S
C226 C227 1.398 . S
C226 C230 1.392 . S
C227 C226 1.398 . S
C227 C229 1.372 . S
C227 H244 0.931 . S
C228 C225 1.382 . S
C228 C229 1.390 . S
C228 H245 0.931 . S
C229 C227 1.372 . S
C229 C228 1.390 . S
C229 H246 0.929 . S
C230 C225 1.390 . S
C230 C226 1.392 . S
C230 H247 0.930 . S
C231 O216 1.255 . S
C231 O217 1.257 . S
C232 Eu168 2.787 . S
C232 O212 1.252 . S
C232 O215 1.268 . S
C232 C225 1.506 . S
C233 C200 1.439 . S
C233 H210 0.931 . S
C233 C234 1.374 . S
C234 C205 1.387 . S
C234 H211 0.931 . S
C234 C233 1.374 . S
C235 O219 1.249 . S
C235 O220 1.264 . S
C236 C239 1.382 . S
C236 C240 1.390 . S
C236 C243 1.506 . S
C237 C238 1.398 . S
C237 C240 1.392 . S
C238 C237 1.398 . S
C238 C241 1.372 . S
C238 H248 0.931 . S
C239 C236 1.382 . S
C239 C241 1.390 . S
C239 H249 0.931 . S
C240 C236 1.390 . S
C240 C237 1.392 . S
C240 H250 0.930 . S
C241 C238 1.372 . S
C241 C239 1.390 . S
C241 H251 0.929 . S
C242 O222 1.255 . S
C242 O223 1.257 . S
C243 Eu179 2.787 . S
C243 O218 1.252 . S
C243 O221 1.268 . S
C243 C236 1.506 . S
H244 C227 0.931 . S
H245 C228 0.931 . S
H246 C229 0.929 . S
H247 C230 0.930 . S
H248 C238 0.931 . S
H249 C239 0.931 . S
H250 C240 0.930 . S
H251 C241 0.929 . S
Eu252 N281 2.600 . S
Eu252 N287 2.562 . S
Eu252 O296 2.462 . S
Eu252 O297 2.373 . S
Eu252 O299 2.432 . S
Eu252 O300 2.291 . S
Eu252 O304 2.335 . S
Eu252 O307 2.372 . S
Eu252 C316 2.787 . S
C253 N254 1.365 . S
C253 C256 1.405 . S
C253 C260 1.448 . S
N254 C253 1.365 . S
N254 C257 1.319 . S
N254 Eu263 2.600 . S
C255 C257 1.397 . S
C255 C258 1.367 . S
C255 H275 0.931 . S
C256 C253 1.405 . S
C256 C258 1.403 . S
C256 C262 1.439 . S
C257 N254 1.319 . S
C257 C255 1.397 . S
C257 H268 0.930 . S
C258 C255 1.367 . S
C258 C256 1.403 . S
C258 H279 0.929 . S
C259 C260 1.430 . S
C259 C261 1.387 . S
C259 C265 1.404 . S
C260 C253 1.448 . S
C260 C259 1.430 . S
C260 N264 1.351 . S
C261 C259 1.387 . S
C261 C262 1.374 . S
C261 H276 0.931 . S
C262 C256 1.439 . S
C262 C261 1.374 . S
C262 H277 0.931 . S
Eu263 N254 2.600 . S
Eu263 N264 2.562 . S
Eu263 O298 2.335 . S
Eu263 O301 2.372 . S
Eu263 O302 2.462 . S
Eu263 O303 2.373 . S
Eu263 O305 2.432 . S
Eu263 O306 2.291 . S
Eu263 C327 2.787 . S
N264 C260 1.351 . S
N264 Eu263 2.562 . S
N264 C266 1.325 . S
C265 C259 1.404 . S
C265 C267 1.366 . S
C265 H273 0.930 . S
C266 N264 1.325 . S
C266 C267 1.416 . S
C266 H272 0.929 . S
C267 C265 1.366 . S
C267 C266 1.416 . S
C267 H269 0.930 . S
H268 C257 0.930 . S
H269 C267 0.930 . S
H270 C285 0.930 . S
H271 C292 0.930 . S
H272 C266 0.929 . S
H273 C265 0.930 . S
H274 C288 0.929 . S
H275 C255 0.931 . S
H276 C261 0.931 . S
H277 C262 0.931 . S
H278 C283 0.931 . S
H279 C258 0.929 . S
H280 C291 0.930 . S
N281 Eu252 2.600 . S
N281 C282 1.365 . S
N281 C285 1.319 . S
C282 N281 1.365 . S
C282 C284 1.405 . S
C282 C290 1.448 . S
C283 H278 0.931 . S
C283 C285 1.397 . S
C283 C286 1.367 . S
C284 C282 1.405 . S
C284 C286 1.403 . S
C284 C317 1.439 . S
C285 H270 0.930 . S
C285 N281 1.319 . S
C285 C283 1.397 . S
C286 C283 1.367 . S
C286 C284 1.403 . S
C286 H293 0.929 . S
N287 Eu252 2.562 . S
N287 C288 1.325 . S
N287 C290 1.351 . S
C288 H274 0.929 . S
C288 N287 1.325 . S
C288 C292 1.416 . S
C289 C290 1.430 . S
C289 C291 1.404 . S
C289 C318 1.387 . S
C290 C282 1.448 . S
C290 N287 1.351 . S
C290 C289 1.430 . S
C291 H280 0.930 . S
C291 C289 1.404 . S
C291 C292 1.366 . S
C292 H271 0.930 . S
C292 C288 1.416 . S
C292 C291 1.366 . S
H293 C286 0.929 . S
H294 C317 0.931 . S
H295 C318 0.931 . S
O296 Eu252 2.462 . S
O296 C316 1.252 . S
O297 Eu252 2.373 . S
O297 C308 1.249 . S
O298 Eu263 2.335 . S
O298 C308 1.264 . S
O299 Eu252 2.432 . S
O299 C316 1.268 . S
O300 Eu252 2.291 . S
O300 C315 1.255 . S
O301 Eu263 2.372 . S
O301 C315 1.257 . S
O302 Eu263 2.462 . S
O302 C327 1.252 . S
O303 Eu263 2.373 . S
O303 C319 1.249 . S
O304 Eu252 2.335 . S
O304 C319 1.264 . S
O305 Eu263 2.432 . S
O305 C327 1.268 . S
O306 Eu263 2.291 . S
O306 C326 1.255 . S
O307 Eu252 2.372 . S
O307 C326 1.257 . S
C308 O297 1.249 . S
C308 O298 1.264 . S
C309 C312 1.382 . S
C309 C314 1.390 . S
C309 C316 1.506 . S
C310 C311 1.398 . S
C310 C314 1.392 . S
C311 C310 1.398 . S
C311 C313 1.372 . S
C311 H328 0.931 . S
C312 C309 1.382 . S
C312 C313 1.390 . S
C312 H329 0.931 . S
C313 C311 1.372 . S
C313 C312 1.390 . S
C313 H330 0.929 . S
C314 C309 1.390 . S
C314 C310 1.392 . S
C314 H331 0.930 . S
C315 O300 1.255 . S
C315 O301 1.257 . S
C316 Eu252 2.787 . S
C316 O296 1.252 . S
C316 O299 1.268 . S
C316 C309 1.506 . S
C317 C284 1.439 . S
C317 H294 0.931 . S
C317 C318 1.374 . S
C318 C289 1.387 . S
C318 H295 0.931 . S
C318 C317 1.374 . S
C319 O303 1.249 . S
C319 O304 1.264 . S
C320 C323 1.382 . S
C320 C324 1.390 . S
C320 C327 1.506 . S
C321 C322 1.398 . S
C321 C324 1.392 . S
C322 C321 1.398 . S
C322 C325 1.372 . S
C322 H332 0.931 . S
C323 C320 1.382 . S
C323 C325 1.390 . S
C323 H333 0.931 . S
C324 C320 1.390 . S
C324 C321 1.392 . S
C324 H334 0.930 . S
C325 C322 1.372 . S
C325 C323 1.390 . S
C325 H335 0.929 . S
C326 O306 1.255 . S
C326 O307 1.257 . S
C327 Eu263 2.787 . S
C327 O302 1.252 . S
C327 O305 1.268 . S
C327 C320 1.506 . S
H328 C311 0.931 . S
H329 C312 0.931 . S
H330 C313 0.929 . S
H331 C314 0.930 . S
H332 C322 0.931 . S
H333 C323 0.931 . S
H334 C324 0.930 . S
H335 C325 0.929 . S
Eu336 N365 2.600 . S
Eu336 N371 2.562 . S
Eu336 O380 2.462 . S
Eu336 O381 2.373 . S
Eu336 O383 2.432 . S
Eu336 O384 2.291 . S
Eu336 O388 2.335 . S
Eu336 O391 2.372 . S
Eu336 C400 2.787 . S
C337 N338 1.365 . S
C337 C340 1.405 . S
C337 C344 1.448 . S
N338 C337 1.365 . S
N338 C341 1.319 . S
N338 Eu347 2.600 . S
C339 C341 1.397 . S
C339 C342 1.367 . S
C339 H359 0.931 . S
C340 C337 1.405 . S
C340 C342 1.403 . S
C340 C346 1.439 . S
C341 N338 1.319 . S
C341 C339 1.397 . S
C341 H352 0.930 . S
C342 C339 1.367 . S
C342 C340 1.403 . S
C342 H363 0.929 . S
C343 C344 1.430 . S
C343 C345 1.387 . S
C343 C349 1.404 . S
C344 C337 1.448 . S
C344 C343 1.430 . S
C344 N348 1.351 . S
C345 C343 1.387 . S
C345 C346 1.374 . S
C345 H360 0.931 . S
C346 C340 1.439 . S
C346 C345 1.374 . S
C346 H361 0.931 . S
Eu347 N338 2.600 . S
Eu347 N348 2.562 . S
Eu347 O382 2.335 . S
Eu347 O385 2.372 . S
Eu347 O386 2.462 . S
Eu347 O387 2.373 . S
Eu347 O389 2.432 . S
Eu347 O390 2.291 . S
Eu347 C411 2.787 . S
N348 C344 1.351 . S
N348 Eu347 2.562 . S
N348 C350 1.325 . S
C349 C343 1.404 . S
C349 C351 1.366 . S
C349 H357 0.930 . S
C350 N348 1.325 . S
C350 C351 1.416 . S
C350 H356 0.929 . S
C351 C349 1.366 . S
C351 C350 1.416 . S
C351 H353 0.930 . S
H352 C341 0.930 . S
H353 C351 0.930 . S
H354 C369 0.930 . S
H355 C376 0.930 . S
H356 C350 0.929 . S
H357 C349 0.930 . S
H358 C372 0.929 . S
H359 C339 0.931 . S
H360 C345 0.931 . S
H361 C346 0.931 . S
H362 C367 0.931 . S
H363 C342 0.929 . S
H364 C375 0.930 . S
N365 Eu336 2.600 . S
N365 C366 1.365 . S
N365 C369 1.319 . S
C366 N365 1.365 . S
C366 C368 1.405 . S
C366 C374 1.448 . S
C367 H362 0.931 . S
C367 C369 1.397 . S
C367 C370 1.367 . S
C368 C366 1.405 . S
C368 C370 1.403 . S
C368 C401 1.439 . S
C369 H354 0.930 . S
C369 N365 1.319 . S
C369 C367 1.397 . S
C370 C367 1.367 . S
C370 C368 1.403 . S
C370 H377 0.929 . S
N371 Eu336 2.562 . S
N371 C372 1.325 . S
N371 C374 1.351 . S
C372 H358 0.929 . S
C372 N371 1.325 . S
C372 C376 1.416 . S
C373 C374 1.430 . S
C373 C375 1.404 . S
C373 C402 1.387 . S
C374 C366 1.448 . S
C374 N371 1.351 . S
C374 C373 1.430 . S
C375 H364 0.930 . S
C375 C373 1.404 . S
C375 C376 1.366 . S
C376 H355 0.930 . S
C376 C372 1.416 . S
C376 C375 1.366 . S
H377 C370 0.929 . S
H378 C401 0.931 . S
H379 C402 0.931 . S
O380 Eu336 2.462 . S
O380 C400 1.252 . S
O381 Eu336 2.373 . S
O381 C392 1.249 . S
O382 Eu347 2.335 . S
O382 C392 1.264 . S
O383 Eu336 2.432 . S
O383 C400 1.268 . S
O384 Eu336 2.291 . S
O384 C399 1.255 . S
O385 Eu347 2.372 . S
O385 C399 1.257 . S
O386 Eu347 2.462 . S
O386 C411 1.252 . S
O387 Eu347 2.373 . S
O387 C403 1.249 . S
O388 Eu336 2.335 . S
O388 C403 1.264 . S
O389 Eu347 2.432 . S
O389 C411 1.268 . S
O390 Eu347 2.291 . S
O390 C410 1.255 . S
O391 Eu336 2.372 . S
O391 C410 1.257 . S
C392 O381 1.249 . S
C392 O382 1.264 . S
C393 C396 1.382 . S
C393 C398 1.390 . S
C393 C400 1.506 . S
C394 C395 1.398 . S
C394 C398 1.392 . S
C395 C394 1.398 . S
C395 C397 1.372 . S
C395 H412 0.931 . S
C396 C393 1.382 . S
C396 C397 1.390 . S
C396 H413 0.931 . S
C397 C395 1.372 . S
C397 C396 1.390 . S
C397 H414 0.929 . S
C398 C393 1.390 . S
C398 C394 1.392 . S
C398 H415 0.930 . S
C399 O384 1.255 . S
C399 O385 1.257 . S
C400 Eu336 2.787 . S
C400 O380 1.252 . S
C400 O383 1.268 . S
C400 C393 1.506 . S
C401 C368 1.439 . S
C401 H378 0.931 . S
C401 C402 1.374 . S
C402 C373 1.387 . S
C402 H379 0.931 . S
C402 C401 1.374 . S
C403 O387 1.249 . S
C403 O388 1.264 . S
C404 C407 1.382 . S
C404 C408 1.390 . S
C404 C411 1.506 . S
C405 C406 1.398 . S
C405 C408 1.392 . S
C406 C405 1.398 . S
C406 C409 1.372 . S
C406 H416 0.931 . S
C407 C404 1.382 . S
C407 C409 1.390 . S
C407 H417 0.931 . S
C408 C404 1.390 . S
C408 C405 1.392 . S
C408 H418 0.930 . S
C409 C406 1.372 . S
C409 C407 1.390 . S
C409 H419 0.929 . S
C410 O390 1.255 . S
C410 O391 1.257 . S
C411 Eu347 2.787 . S
C411 O386 1.252 . S
C411 O389 1.268 . S
C411 C404 1.506 . S
H412 C395 0.931 . S
H413 C396 0.931 . S
H414 C397 0.929 . S
H415 C398 0.930 . S
H416 C406 0.931 . S
H417 C407 0.931 . S
H418 C408 0.930 . S
H419 C409 0.929 . S
Eu420 N449 2.600 . S
Eu420 N455 2.562 . S
Eu420 O464 2.462 . S
Eu420 O465 2.373 . S
Eu420 O467 2.432 . S
Eu420 O468 2.291 . S
Eu420 O472 2.335 . S
Eu420 O475 2.372 . S
Eu420 C484 2.787 . S
C421 N422 1.365 . S
C421 C424 1.405 . S
C421 C428 1.448 . S
N422 C421 1.365 . S
N422 C425 1.319 . S
N422 Eu431 2.600 . S
C423 C425 1.397 . S
C423 C426 1.367 . S
C423 H443 0.931 . S
C424 C421 1.405 . S
C424 C426 1.403 . S
C424 C430 1.439 . S
C425 N422 1.319 . S
C425 C423 1.397 . S
C425 H436 0.930 . S
C426 C423 1.367 . S
C426 C424 1.403 . S
C426 H447 0.929 . S
C427 C428 1.430 . S
C427 C429 1.387 . S
C427 C433 1.404 . S
C428 C421 1.448 . S
C428 C427 1.430 . S
C428 N432 1.351 . S
C429 C427 1.387 . S
C429 C430 1.374 . S
C429 H444 0.931 . S
C430 C424 1.439 . S
C430 C429 1.374 . S
C430 H445 0.931 . S
Eu431 N422 2.600 . S
Eu431 N432 2.562 . S
Eu431 O466 2.335 . S
Eu431 O469 2.372 . S
Eu431 O470 2.462 . S
Eu431 O471 2.373 . S
Eu431 O473 2.432 . S
Eu431 O474 2.291 . S
Eu431 C495 2.787 . S
N432 C428 1.351 . S
N432 Eu431 2.562 . S
N432 C434 1.325 . S
C433 C427 1.404 . S
C433 C435 1.366 . S
C433 H441 0.930 . S
C434 N432 1.325 . S
C434 C435 1.416 . S
C434 H440 0.929 . S
C435 C433 1.366 . S
C435 C434 1.416 . S
C435 H437 0.930 . S
H436 C425 0.930 . S
H437 C435 0.930 . S
H438 C453 0.930 . S
H439 C460 0.930 . S
H440 C434 0.929 . S
H441 C433 0.930 . S
H442 C456 0.929 . S
H443 C423 0.931 . S
H444 C429 0.931 . S
H445 C430 0.931 . S
H446 C451 0.931 . S
H447 C426 0.929 . S
H448 C459 0.930 . S
N449 Eu420 2.600 . S
N449 C450 1.365 . S
N449 C453 1.319 . S
C450 N449 1.365 . S
C450 C452 1.405 . S
C450 C458 1.448 . S
C451 H446 0.931 . S
C451 C453 1.397 . S
C451 C454 1.367 . S
C452 C450 1.405 . S
C452 C454 1.403 . S
C452 C485 1.439 . S
C453 H438 0.930 . S
C453 N449 1.319 . S
C453 C451 1.397 . S
C454 C451 1.367 . S
C454 C452 1.403 . S
C454 H461 0.929 . S
N455 Eu420 2.562 . S
N455 C456 1.325 . S
N455 C458 1.351 . S
C456 H442 0.929 . S
C456 N455 1.325 . S
C456 C460 1.416 . S
C457 C458 1.430 . S
C457 C459 1.404 . S
C457 C486 1.387 . S
C458 C450 1.448 . S
C458 N455 1.351 . S
C458 C457 1.430 . S
C459 H448 0.930 . S
C459 C457 1.404 . S
C459 C460 1.366 . S
C460 H439 0.930 . S
C460 C456 1.416 . S
C460 C459 1.366 . S
H461 C454 0.929 . S
H462 C485 0.931 . S
H463 C486 0.931 . S
O464 Eu420 2.462 . S
O464 C484 1.252 . S
O465 Eu420 2.373 . S
O465 C476 1.249 . S
O466 Eu431 2.335 . S
O466 C476 1.264 . S
O467 Eu420 2.432 . S
O467 C484 1.268 . S
O468 Eu420 2.291 . S
O468 C483 1.255 . S
O469 Eu431 2.372 . S
O469 C483 1.257 . S
O470 Eu431 2.462 . S
O470 C495 1.252 . S
O471 Eu431 2.373 . S
O471 C487 1.249 . S
O472 Eu420 2.335 . S
O472 C487 1.264 . S
O473 Eu431 2.432 . S
O473 C495 1.268 . S
O474 Eu431 2.291 . S
O474 C494 1.255 . S
O475 Eu420 2.372 . S
O475 C494 1.257 . S
C476 O465 1.249 . S
C476 O466 1.264 . S
C477 C480 1.382 . S
C477 C482 1.390 . S
C477 C484 1.506 . S
C478 C479 1.398 . S
C478 C482 1.392 . S
C479 C478 1.398 . S
C479 C481 1.372 . S
C479 H496 0.931 . S
C480 C477 1.382 . S
C480 C481 1.390 . S
C480 H497 0.931 . S
C481 C479 1.372 . S
C481 C480 1.390 . S
C481 H498 0.929 . S
C482 C477 1.390 . S
C482 C478 1.392 . S
C482 H499 0.930 . S
C483 O468 1.255 . S
C483 O469 1.257 . S
C484 Eu420 2.787 . S
C484 O464 1.252 . S
C484 O467 1.268 . S
C484 C477 1.506 . S
C485 C452 1.439 . S
C485 H462 0.931 . S
C485 C486 1.374 . S
C486 C457 1.387 . S
C486 H463 0.931 . S
C486 C485 1.374 . S
C487 O471 1.249 . S
C487 O472 1.264 . S
C488 C491 1.382 . S
C488 C492 1.390 . S
C488 C495 1.506 . S
C489 C490 1.398 . S
C489 C492 1.392 . S
C490 C489 1.398 . S
C490 C493 1.372 . S
C490 H500 0.931 . S
C491 C488 1.382 . S
C491 C493 1.390 . S
C491 H501 0.931 . S
C492 C488 1.390 . S
C492 C489 1.392 . S
C492 H502 0.930 . S
C493 C490 1.372 . S
C493 C491 1.390 . S
C493 H503 0.929 . S
C494 O474 1.255 . S
C494 O475 1.257 . S
C495 Eu431 2.787 . S
C495 O470 1.252 . S
C495 O473 1.268 . S
C495 C488 1.506 . S
H496 C479 0.931 . S
H497 C480 0.931 . S
H498 C481 0.929 . S
H499 C482 0.930 . S
H500 C490 0.931 . S
H501 C491 0.931 . S
H502 C492 0.930 . S
H503 C493 0.929 . S
Eu504 N533 2.600 . S
Eu504 N539 2.562 . S
Eu504 O548 2.462 . S
Eu504 O549 2.373 . S
Eu504 O551 2.432 . S
Eu504 O552 2.291 . S
Eu504 O556 2.335 . S
Eu504 O559 2.372 . S
Eu504 C568 2.787 . S
C505 N506 1.365 . S
C505 C508 1.405 . S
C505 C512 1.448 . S
N506 C505 1.365 . S
N506 C509 1.319 . S
N506 Eu515 2.600 . S
C507 C509 1.397 . S
C507 C510 1.367 . S
C507 H527 0.931 . S
C508 C505 1.405 . S
C508 C510 1.403 . S
C508 C514 1.439 . S
C509 N506 1.319 . S
C509 C507 1.397 . S
C509 H520 0.930 . S
C510 C507 1.367 . S
C510 C508 1.403 . S
C510 H531 0.929 . S
C511 C512 1.430 . S
C511 C513 1.387 . S
C511 C517 1.404 . S
C512 C505 1.448 . S
C512 C511 1.430 . S
C512 N516 1.351 . S
C513 C511 1.387 . S
C513 C514 1.374 . S
C513 H528 0.931 . S
C514 C508 1.439 . S
C514 C513 1.374 . S
C514 H529 0.931 . S
Eu515 N506 2.600 . S
Eu515 N516 2.562 . S
Eu515 O550 2.335 . S
Eu515 O553 2.372 . S
Eu515 O554 2.462 . S
Eu515 O555 2.373 . S
Eu515 O557 2.432 . S
Eu515 O558 2.291 . S
Eu515 C579 2.787 . S
N516 C512 1.351 . S
N516 Eu515 2.562 . S
N516 C518 1.325 . S
C517 C511 1.404 . S
C517 C519 1.366 . S
C517 H525 0.930 . S
C518 N516 1.325 . S
C518 C519 1.416 . S
C518 H524 0.929 . S
C519 C517 1.366 . S
C519 C518 1.416 . S
C519 H521 0.930 . S
H520 C509 0.930 . S
H521 C519 0.930 . S
H522 C537 0.930 . S
H523 C544 0.930 . S
H524 C518 0.929 . S
H525 C517 0.930 . S
H526 C540 0.929 . S
H527 C507 0.931 . S
H528 C513 0.931 . S
H529 C514 0.931 . S
H530 C535 0.931 . S
H531 C510 0.929 . S
H532 C543 0.930 . S
N533 Eu504 2.600 . S
N533 C534 1.365 . S
N533 C537 1.319 . S
C534 N533 1.365 . S
C534 C536 1.405 . S
C534 C542 1.448 . S
C535 H530 0.931 . S
C535 C537 1.397 . S
C535 C538 1.367 . S
C536 C534 1.405 . S
C536 C538 1.403 . S
C536 C569 1.439 . S
C537 H522 0.930 . S
C537 N533 1.319 . S
C537 C535 1.397 . S
C538 C535 1.367 . S
C538 C536 1.403 . S
C538 H545 0.929 . S
N539 Eu504 2.562 . S
N539 C540 1.325 . S
N539 C542 1.351 . S
C540 H526 0.929 . S
C540 N539 1.325 . S
C540 C544 1.416 . S
C541 C542 1.430 . S
C541 C543 1.404 . S
C541 C570 1.387 . S
C542 C534 1.448 . S
C542 N539 1.351 . S
C542 C541 1.430 . S
C543 H532 0.930 . S
C543 C541 1.404 . S
C543 C544 1.366 . S
C544 H523 0.930 . S
C544 C540 1.416 . S
C544 C543 1.366 . S
H545 C538 0.929 . S
H546 C569 0.931 . S
H547 C570 0.931 . S
O548 Eu504 2.462 . S
O548 C568 1.252 . S
O549 Eu504 2.373 . S
O549 C560 1.249 . S
O550 Eu515 2.335 . S
O550 C560 1.264 . S
O551 Eu504 2.432 . S
O551 C568 1.268 . S
O552 Eu504 2.291 . S
O552 C567 1.255 . S
O553 Eu515 2.372 . S
O553 C567 1.257 . S
O554 Eu515 2.462 . S
O554 C579 1.252 . S
O555 Eu515 2.373 . S
O555 C571 1.249 . S
O556 Eu504 2.335 . S
O556 C571 1.264 . S
O557 Eu515 2.432 . S
O557 C579 1.268 . S
O558 Eu515 2.291 . S
O558 C578 1.255 . S
O559 Eu504 2.372 . S
O559 C578 1.257 . S
C560 O549 1.249 . S
C560 O550 1.264 . S
C561 C564 1.382 . S
C561 C566 1.390 . S
C561 C568 1.506 . S
C562 C563 1.398 . S
C562 C566 1.392 . S
C563 C562 1.398 . S
C563 C565 1.372 . S
C563 H580 0.931 . S
C564 C561 1.382 . S
C564 C565 1.390 . S
C564 H581 0.931 . S
C565 C563 1.372 . S
C565 C564 1.390 . S
C565 H582 0.929 . S
C566 C561 1.390 . S
C566 C562 1.392 . S
C566 H583 0.930 . S
C567 O552 1.255 . S
C567 O553 1.257 . S
C568 Eu504 2.787 . S
C568 O548 1.252 . S
C568 O551 1.268 . S
C568 C561 1.506 . S
C569 C536 1.439 . S
C569 H546 0.931 . S
C569 C570 1.374 . S
C570 C541 1.387 . S
C570 H547 0.931 . S
C570 C569 1.374 . S
C571 O555 1.249 . S
C571 O556 1.264 . S
C572 C575 1.382 . S
C572 C576 1.390 . S
C572 C579 1.506 . S
C573 C574 1.398 . S
C573 C576 1.392 . S
C574 C573 1.398 . S
C574 C577 1.372 . S
C574 H584 0.931 . S
C575 C572 1.382 . S
C575 C577 1.390 . S
C575 H585 0.931 . S
C576 C572 1.390 . S
C576 C573 1.392 . S
C576 H586 0.930 . S
C577 C574 1.372 . S
C577 C575 1.390 . S
C577 H587 0.929 . S
C578 O558 1.255 . S
C578 O559 1.257 . S
C579 Eu515 2.787 . S
C579 O554 1.252 . S
C579 O557 1.268 . S
C579 C572 1.506 . S
H580 C563 0.931 . S
H581 C564 0.931 . S
H582 C565 0.929 . S
H583 C566 0.930 . S
H584 C574 0.931 . S
H585 C575 0.931 . S
H586 C576 0.930 . S
H587 C577 0.929 . S
Eu588 N617 2.600 . S
Eu588 N623 2.562 . S
Eu588 O632 2.462 . S
Eu588 O633 2.373 . S
Eu588 O635 2.432 . S
Eu588 O636 2.291 . S
Eu588 O640 2.335 . S
Eu588 O643 2.372 . S
Eu588 C652 2.787 . S
C589 N590 1.365 . S
C589 C592 1.405 . S
C589 C596 1.448 . S
N590 C589 1.365 . S
N590 C593 1.319 . S
N590 Eu599 2.600 . S
C591 C593 1.397 . S
C591 C594 1.367 . S
C591 H611 0.931 . S
C592 C589 1.405 . S
C592 C594 1.403 . S
C592 C598 1.439 . S
C593 N590 1.319 . S
C593 C591 1.397 . S
C593 H604 0.930 . S
C594 C591 1.367 . S
C594 C592 1.403 . S
C594 H615 0.929 . S
C595 C596 1.430 . S
C595 C597 1.387 . S
C595 C601 1.404 . S
C596 C589 1.448 . S
C596 C595 1.430 . S
C596 N600 1.351 . S
C597 C595 1.387 . S
C597 C598 1.374 . S
C597 H612 0.931 . S
C598 C592 1.439 . S
C598 C597 1.374 . S
C598 H613 0.931 . S
Eu599 N590 2.600 . S
Eu599 N600 2.562 . S
Eu599 O634 2.335 . S
Eu599 O637 2.372 . S
Eu599 O638 2.462 . S
Eu599 O639 2.373 . S
Eu599 O641 2.432 . S
Eu599 O642 2.291 . S
Eu599 C663 2.787 . S
N600 C596 1.351 . S
N600 Eu599 2.562 . S
N600 C602 1.325 . S
C601 C595 1.404 . S
C601 C603 1.366 . S
C601 H609 0.930 . S
C602 N600 1.325 . S
C602 C603 1.416 . S
C602 H608 0.929 . S
C603 C601 1.366 . S
C603 C602 1.416 . S
C603 H605 0.930 . S
H604 C593 0.930 . S
H605 C603 0.930 . S
H606 C621 0.930 . S
H607 C628 0.930 . S
H608 C602 0.929 . S
H609 C601 0.930 . S
H610 C624 0.929 . S
H611 C591 0.931 . S
H612 C597 0.931 . S
H613 C598 0.931 . S
H614 C619 0.931 . S
H615 C594 0.929 . S
H616 C627 0.930 . S
N617 Eu588 2.600 . S
N617 C618 1.365 . S
N617 C621 1.319 . S
C618 N617 1.365 . S
C618 C620 1.405 . S
C618 C626 1.448 . S
C619 H614 0.931 . S
C619 C621 1.397 . S
C619 C622 1.367 . S
C620 C618 1.405 . S
C620 C622 1.403 . S
C620 C653 1.439 . S
C621 H606 0.930 . S
C621 N617 1.319 . S
C621 C619 1.397 . S
C622 C619 1.367 . S
C622 C620 1.403 . S
C622 H629 0.929 . S
N623 Eu588 2.562 . S
N623 C624 1.325 . S
N623 C626 1.351 . S
C624 H610 0.929 . S
C624 N623 1.325 . S
C624 C628 1.416 . S
C625 C626 1.430 . S
C625 C627 1.404 . S
C625 C654 1.387 . S
C626 C618 1.448 . S
C626 N623 1.351 . S
C626 C625 1.430 . S
C627 H616 0.930 . S
C627 C625 1.404 . S
C627 C628 1.366 . S
C628 H607 0.930 . S
C628 C624 1.416 . S
C628 C627 1.366 . S
H629 C622 0.929 . S
H630 C653 0.931 . S
H631 C654 0.931 . S
O632 Eu588 2.462 . S
O632 C652 1.252 . S
O633 Eu588 2.373 . S
O633 C644 1.249 . S
O634 Eu599 2.335 . S
O634 C644 1.264 . S
O635 Eu588 2.432 . S
O635 C652 1.268 . S
O636 Eu588 2.291 . S
O636 C651 1.255 . S
O637 Eu599 2.372 . S
O637 C651 1.257 . S
O638 Eu599 2.462 . S
O638 C663 1.252 . S
O639 Eu599 2.373 . S
O639 C655 1.249 . S
O640 Eu588 2.335 . S
O640 C655 1.264 . S
O641 Eu599 2.432 . S
O641 C663 1.268 . S
O642 Eu599 2.291 . S
O642 C662 1.255 . S
O643 Eu588 2.372 . S
O643 C662 1.257 . S
C644 O633 1.249 . S
C644 O634 1.264 . S
C645 C648 1.382 . S
C645 C650 1.390 . S
C645 C652 1.506 . S
C646 C647 1.398 . S
C646 C650 1.392 . S
C647 C646 1.398 . S
C647 C649 1.372 . S
C647 H664 0.931 . S
C648 C645 1.382 . S
C648 C649 1.390 . S
C648 H665 0.931 . S
C649 C647 1.372 . S
C649 C648 1.390 . S
C649 H666 0.929 . S
C650 C645 1.390 . S
C650 C646 1.392 . S
C650 H667 0.930 . S
C651 O636 1.255 . S
C651 O637 1.257 . S
C652 Eu588 2.787 . S
C652 O632 1.252 . S
C652 O635 1.268 . S
C652 C645 1.506 . S
C653 C620 1.439 . S
C653 H630 0.931 . S
C653 C654 1.374 . S
C654 C625 1.387 . S
C654 H631 0.931 . S
C654 C653 1.374 . S
C655 O639 1.249 . S
C655 O640 1.264 . S
C656 C659 1.382 . S
C656 C660 1.390 . S
C656 C663 1.506 . S
C657 C658 1.398 . S
C657 C660 1.392 . S
C658 C657 1.398 . S
C658 C661 1.372 . S
C658 H668 0.931 . S
C659 C656 1.382 . S
C659 C661 1.390 . S
C659 H669 0.931 . S
C660 C656 1.390 . S
C660 C657 1.392 . S
C660 H670 0.930 . S
C661 C658 1.372 . S
C661 C659 1.390 . S
C661 H671 0.929 . S
C662 O642 1.255 . S
C662 O643 1.257 . S
C663 Eu599 2.787 . S
C663 O638 1.252 . S
C663 O641 1.268 . S
C663 C656 1.506 . S
H664 C647 0.931 . S
H665 C648 0.931 . S
H666 C649 0.929 . S
H667 C650 0.930 . S
H668 C658 0.931 . S
H669 C659 0.931 . S
H670 C660 0.930 . S
H671 C661 0.929 . S
Fe672 O673 1.886 1_455 S
Fe672 O676 1.715 . S
Fe672 O681 2.077 1_455 S
Fe672 O686 1.935 . S
Fe672 O692 2.077 1_455 S
Fe672 O701 1.935 . S
O673 Fe672 1.886 1_655 S
O673 Fe675 1.715 1_545 S
Fe674 O676 1.886 . S
Fe674 O677 1.715 1_545 S
Fe674 O684 1.935 1_545 S
Fe674 O685 2.077 . S
Fe674 O691 1.935 1_545 S
Fe674 O700 2.077 . S
Fe675 O673 1.715 1_565 S
Fe675 O678 1.886 . S
Fe675 O682 1.935 1_565 S
Fe675 O687 2.077 . S
Fe675 O693 1.935 1_565 S
Fe675 O697 2.077 . S
O676 Fe672 1.715 . S
O676 Fe674 1.886 . S
O677 Fe674 1.715 1_565 S
O677 Fe679 1.886 1_455 S
O678 Fe675 1.886 . S
O678 Fe679 1.715 . S
Fe679 O677 1.886 1_655 S
Fe679 O678 1.715 . S
Fe679 O683 2.077 1_655 S
Fe679 O688 1.935 . S
Fe679 O690 2.077 1_655 S
Fe679 O698 1.935 . S
C680 O692 1.381 . S
C680 O693 1.421 . S
O681 Fe672 2.077 1_655 S
O681 C694 1.381 . S
O682 Fe675 1.935 1_545 S
O682 C694 1.421 . S
O683 Fe679 2.077 1_455 S
O683 C699 1.381 . S
O684 Fe674 1.935 1_565 S
O684 C699 1.421 . S
O685 Fe674 2.077 . S
O685 C689 1.381 . S
O686 Fe672 1.935 . S
O686 C689 1.421 . S
O687 Fe675 2.077 . S
O687 C695 1.381 . S
O688 Fe679 1.935 . S
O688 C695 1.421 . S
C689 O685 1.381 . S
C689 O686 1.421 . S
O690 Fe679 2.077 1_455 S
O690 C702 1.381 . S
O691 Fe674 1.935 1_565 S
O691 C702 1.421 . S
O692 Fe672 2.077 1_655 S
O692 C680 1.381 . S
O693 Fe675 1.935 1_545 S
O693 C680 1.421 . S
C694 O681 1.381 . S
C694 O682 1.421 . S
C695 O687 1.381 . S
C695 O688 1.421 . S
C696 O697 1.381 . S
C696 O698 1.421 . S
O697 Fe675 2.077 . S
O697 C696 1.381 . S
O698 Fe679 1.935 . S
O698 C696 1.421 . S
C699 O683 1.381 . S
C699 O684 1.421 . S
O700 Fe674 2.077 . S
O700 C703 1.381 . S
O701 Fe672 1.935 . S
O701 C703 1.421 . S
C702 O690 1.381 . S
C702 O691 1.421 . S
C703 O700 1.381 . S
C703 O701 1.421 . S
Fe704 O705 1.886 . S
Fe704 O708 1.715 . S
Fe704 O713 2.077 . S
Fe704 O718 1.935 . S
Fe704 O724 2.077 1_556 S
Fe704 O733 1.935 1_556 S
O705 Fe704 1.886 . S
O705 Fe707 1.715 1_565 S
Fe706 O708 1.886 1_554 S
Fe706 O709 1.715 1_565 S
Fe706 O716 1.935 1_564 S
Fe706 O717 2.077 1_554 S
Fe706 O723 1.935 1_565 S
Fe706 O732 2.077 . S
Fe707 O705 1.715 1_545 S
Fe707 O710 1.887 1_556 S
Fe707 O714 1.935 1_545 S
Fe707 O719 2.077 . S
Fe707 O725 1.935 1_546 S
Fe707 O729 2.077 1_556 S
O708 Fe704 1.715 . S
O708 Fe706 1.886 1_556 S
O709 Fe706 1.715 1_545 S
O709 Fe711 1.886 . S
O710 Fe707 1.887 1_554 S
O710 Fe711 1.714 . S
Fe711 O709 1.886 . S
Fe711 O710 1.714 . S
Fe711 O715 2.077 1_554 S
Fe711 O720 1.935 1_554 S
Fe711 O722 2.077 . S
Fe711 O730 1.935 . S
C712 O724 1.381 . S
C712 O725 1.421 . S
O713 Fe704 2.077 . S
O713 C726 1.381 . S
O714 Fe707 1.935 1_565 S
O714 C726 1.421 . S
O715 Fe711 2.077 1_556 S
O715 C731 1.381 . S
O716 Fe706 1.935 1_546 S
O716 C731 1.421 . S
O717 Fe706 2.077 1_556 S
O717 C721 1.381 . S
O718 Fe704 1.935 . S
O718 C721 1.421 . S
O719 Fe707 2.077 . S
O719 C727 1.381 . S
O720 Fe711 1.935 1_556 S
O720 C727 1.421 . S
C721 O717 1.381 . S
C721 O718 1.421 . S
O722 Fe711 2.077 . S
O722 C734 1.381 . S
O723 Fe706 1.935 1_545 S
O723 C734 1.421 . S
O724 Fe704 2.077 1_554 S
O724 C712 1.381 . S
O725 Fe707 1.935 1_564 S
O725 C712 1.421 . S
C726 O713 1.381 . S
C726 O714 1.421 . S
C727 O719 1.381 . S
C727 O720 1.421 . S
C728 O729 1.381 . S
C728 O730 1.421 . S
O729 Fe707 2.077 1_554 S
O729 C728 1.381 . S
O730 Fe711 1.935 . S
O730 C728 1.421 . S
C731 O715 1.381 . S
C731 O716 1.421 . S
O732 Fe706 2.077 . S
O732 C735 1.381 . S
O733 Fe704 1.935 1_554 S
O733 C735 1.421 . S
C734 O722 1.381 . S
C734 O723 1.421 . S
C735 O732 1.381 . S
C735 O733 1.421 . S
Fe736 O737 1.886 1_455 S
Fe736 O740 1.714 . S
Fe736 O745 2.077 1_454 S
Fe736 O750 1.935 1_554 S
Fe736 O756 2.077 1_455 S
Fe736 O765 1.935 . S
O737 Fe736 1.886 1_655 S
O737 Fe739 1.715 . S
Fe738 O740 1.887 1_556 S
Fe738 O741 1.715 . S
Fe738 O748 1.935 . S
Fe738 O749 2.077 . S
Fe738 O755 1.935 1_556 S
Fe738 O764 2.077 1_556 S
Fe739 O737 1.715 . S
Fe739 O742 1.886 1_554 S
Fe739 O746 1.935 1_554 S
Fe739 O751 2.077 1_554 S
Fe739 O757 1.935 . S
Fe739 O761 2.077 . S
O740 Fe736 1.714 . S
O740 Fe738 1.887 1_554 S
O741 Fe738 1.715 . S
O741 Fe743 1.886 1_455 S
O742 Fe739 1.886 1_556 S
O742 Fe743 1.715 . S
Fe743 O741 1.886 1_655 S
Fe743 O742 1.715 . S
Fe743 O747 2.077 1_655 S
Fe743 O752 1.935 . S
Fe743 O754 2.077 1_656 S
Fe743 O762 1.935 1_556 S
C744 O756 1.381 . S
C744 O757 1.421 . S
O745 Fe736 2.077 1_656 S
O745 C758 1.381 . S
O746 Fe739 1.935 1_556 S
O746 C758 1.421 . S
O747 Fe743 2.077 1_455 S
O747 C763 1.381 . S
O748 Fe738 1.935 . S
O748 C763 1.421 . S
O749 Fe738 2.077 . S
O749 C753 1.381 . S
O750 Fe736 1.935 1_556 S
O750 C753 1.421 . S
O751 Fe739 2.077 1_556 S
O751 C759 1.381 . S
O752 Fe743 1.935 . S
O752 C759 1.421 . S
C753 O749 1.381 . S
C753 O750 1.421 . S
O754 Fe743 2.077 1_454 S
O754 C766 1.381 . S
O755 Fe738 1.935 1_554 S
O755 C766 1.421 . S
O756 Fe736 2.077 1_655 S
O756 C744 1.381 . S
O757 Fe739 1.935 . S
O757 C744 1.421 . S
C758 O745 1.381 . S
C758 O746 1.421 . S
C759 O751 1.381 . S
C759 O752 1.421 . S
C760 O761 1.381 . S
C760 O762 1.421 . S
O761 Fe739 2.077 . S
O761 C760 1.381 . S
O762 Fe743 1.935 1_554 S
O762 C760 1.421 . S
C763 O747 1.381 . S
C763 O748 1.421 . S
O764 Fe738 2.077 1_554 S
O764 C767 1.381 . S
O765 Fe736 1.935 . S
O765 C767 1.421 . S
C766 O754 1.381 . S
C766 O755 1.421 . S
C767 O764 1.381 . S
C767 O765 1.421 . S
Fe768 O769 1.886 . S
Fe768 O772 1.715 . S
Fe768 O777 2.077 . S
Fe768 O782 1.935 . S
Fe768 O788 2.077 . S
Fe768 O797 1.935 . S
O769 Fe768 1.886 . S
O769 Fe771 1.715 . S
Fe770 O772 1.886 1_554 S
Fe770 O773 1.715 . S
Fe770 O780 1.935 . S
Fe770 O781 2.077 1_554 S
Fe770 O787 1.935 . S
Fe770 O796 2.077 1_554 S
Fe771 O769 1.715 . S
Fe771 O774 1.886 1_556 S
Fe771 O778 1.935 . S
Fe771 O783 2.077 1_556 S
Fe771 O789 1.935 . S
Fe771 O793 2.077 1_556 S
O772 Fe768 1.715 . S
O772 Fe770 1.886 1_556 S
O773 Fe770 1.715 . S
O773 Fe775 1.886 . S
O774 Fe771 1.886 1_554 S
O774 Fe775 1.715 . S
Fe775 O773 1.886 . S
Fe775 O774 1.715 . S
Fe775 O779 2.077 . S
Fe775 O784 1.935 . S
Fe775 O786 2.077 . S
Fe775 O794 1.935 . S
C776 O788 1.381 . S
C776 O789 1.421 . S
O777 Fe768 2.077 . S
O777 C790 1.381 . S
O778 Fe771 1.935 . S
O778 C790 1.421 . S
O779 Fe775 2.077 . S
O779 C795 1.381 . S
O780 Fe770 1.935 . S
O780 C795 1.421 . S
O781 Fe770 2.077 1_556 S
O781 C785 1.381 . S
O782 Fe768 1.935 . S
O782 C785 1.421 . S
O783 Fe771 2.077 1_554 S
O783 C791 1.381 . S
O784 Fe775 1.935 . S
O784 C791 1.421 . S
C785 O781 1.381 . S
C785 O782 1.421 . S
O786 Fe775 2.077 . S
O786 C798 1.381 . S
O787 Fe770 1.935 . S
O787 C798 1.421 . S
O788 Fe768 2.077 . S
O788 C776 1.381 . S
O789 Fe771 1.935 . S
O789 C776 1.421 . S
C790 O777 1.381 . S
C790 O778 1.421 . S
C791 O783 1.381 . S
C791 O784 1.421 . S
C792 O793 1.381 . S
C792 O794 1.421 . S
O793 Fe771 2.077 1_554 S
O793 C792 1.381 . S
O794 Fe775 1.935 . S
O794 C792 1.421 . S
C795 O779 1.381 . S
C795 O780 1.421 . S
O796 Fe770 2.077 1_556 S
O796 C799 1.381 . S
O797 Fe768 1.935 . S
O797 C799 1.421 . S
C798 O786 1.381 . S
C798 O787 1.421 . S
C799 O796 1.381 . S
C799 O797 1.421 . S
Fe800 O801 1.886 . S
Fe800 O804 1.715 . S
Fe800 O809 2.077 1_655 S
Fe800 O814 1.935 1_655 S
Fe800 O820 2.077 . S
Fe800 O829 1.935 . S
O801 Fe800 1.886 . S
O801 Fe803 1.715 . S
Fe802 O804 1.886 1_455 S
Fe802 O805 1.715 . S
Fe802 O812 1.935 . S
Fe802 O813 2.077 . S
Fe802 O819 1.935 1_455 S
Fe802 O828 2.077 1_455 S
Fe803 O801 1.715 . S
Fe803 O806 1.886 1_655 S
Fe803 O810 1.935 1_655 S
Fe803 O815 2.077 1_655 S
Fe803 O821 1.935 . S
Fe803 O825 2.077 . S
O804 Fe800 1.715 . S
O804 Fe802 1.886 1_655 S
O805 Fe802 1.715 . S
O805 Fe807 1.886 . S
O806 Fe803 1.886 1_455 S
O806 Fe807 1.715 . S
Fe807 O805 1.886 . S
Fe807 O806 1.715 . S
Fe807 O811 2.077 . S
Fe807 O816 1.935 . S
Fe807 O818 2.077 1_455 S
Fe807 O826 1.935 1_455 S
C808 O820 1.381 . S
C808 O821 1.421 . S
O809 Fe800 2.077 1_455 S
O809 C822 1.381 . S
O810 Fe803 1.935 1_455 S
O810 C822 1.421 . S
O811 Fe807 2.077 . S
O811 C827 1.381 . S
O812 Fe802 1.935 . S
O812 C827 1.421 . S
O813 Fe802 2.077 . S
O813 C817 1.381 . S
O814 Fe800 1.935 1_455 S
O814 C817 1.421 . S
O815 Fe803 2.077 1_455 S
O815 C823 1.381 . S
O816 Fe807 1.935 . S
O816 C823 1.421 . S
C817 O813 1.381 . S
C817 O814 1.421 . S
O818 Fe807 2.077 1_655 S
O818 C830 1.381 . S
O819 Fe802 1.935 1_655 S
O819 C830 1.421 . S
O820 Fe800 2.077 . S
O820 C808 1.381 . S
O821 Fe803 1.935 . S
O821 C808 1.421 . S
C822 O809 1.381 . S
C822 O810 1.421 . S
C823 O815 1.381 . S
C823 O816 1.421 . S
C824 O825 1.381 . S
C824 O826 1.421 . S
O825 Fe803 2.077 . S
O825 C824 1.381 . S
O826 Fe807 1.935 1_655 S
O826 C824 1.421 . S
C827 O811 1.381 . S
C827 O812 1.421 . S
O828 Fe802 2.077 1_655 S
O828 C831 1.381 . S
O829 Fe800 1.935 . S
O829 C831 1.421 . S
C830 O818 1.381 . S
C830 O819 1.421 . S
C831 O828 1.381 . S
C831 O829 1.421 . S
Fe832 O833 1.886 . S
Fe832 O836 1.715 . S
Fe832 O841 2.077 . S
Fe832 O846 1.935 . S
Fe832 O852 2.077 . S
Fe832 O861 1.935 . S
O833 Fe832 1.886 . S
O833 Fe835 1.715 1_565 S
Fe834 O836 1.886 . S
Fe834 O837 1.715 1_565 S
Fe834 O844 1.935 1_565 S
Fe834 O845 2.077 . S
Fe834 O851 1.935 1_565 S
Fe834 O860 2.077 . S
Fe835 O833 1.715 1_545 S
Fe835 O838 1.886 . S
Fe835 O842 1.935 1_545 S
Fe835 O847 2.077 . S
Fe835 O853 1.935 1_545 S
Fe835 O857 2.077 . S
O836 Fe832 1.715 . S
O836 Fe834 1.886 . S
O837 Fe834 1.715 1_545 S
O837 Fe839 1.886 . S
O838 Fe835 1.886 . S
O838 Fe839 1.715 . S
Fe839 O837 1.886 . S
Fe839 O838 1.715 . S
Fe839 O843 2.077 . S
Fe839 O848 1.935 . S
Fe839 O850 2.077 . S
Fe839 O858 1.935 . S
C840 O852 1.381 . S
C840 O853 1.421 . S
O841 Fe832 2.077 . S
O841 C854 1.381 . S
O842 Fe835 1.935 1_565 S
O842 C854 1.421 . S
O843 Fe839 2.077 . S
O843 C859 1.381 . S
O844 Fe834 1.935 1_545 S
O844 C859 1.421 . S
O845 Fe834 2.077 . S
O845 C849 1.381 . S
O846 Fe832 1.935 . S
O846 C849 1.421 . S
O847 Fe835 2.077 . S
O847 C855 1.381 . S
O848 Fe839 1.935 . S
O848 C855 1.421 . S
C849 O845 1.381 . S
C849 O846 1.421 . S
O850 Fe839 2.077 . S
O850 C862 1.381 . S
O851 Fe834 1.935 1_545 S
O851 C862 1.421 . S
O852 Fe832 2.077 . S
O852 C840 1.381 . S
O853 Fe835 1.935 1_565 S
O853 C840 1.421 . S
C854 O841 1.381 . S
C854 O842 1.421 . S
C855 O847 1.381 . S
C855 O848 1.421 . S
C856 O857 1.381 . S
C856 O858 1.421 . S
O857 Fe835 2.077 . S
O857 C856 1.381 . S
O858 Fe839 1.935 . S
O858 C856 1.421 . S
C859 O843 1.381 . S
C859 O844 1.421 . S
O860 Fe834 2.077 . S
O860 C863 1.381 . S
O861 Fe832 1.935 . S
O861 C863 1.421 . S
C862 O850 1.381 . S
C862 O851 1.421 . S
C863 O860 1.381 . S
C863 O861 1.421 . S
H864 C872 0.950 . S
H865 C877 0.950 . S
H866 C874 0.950 . S
H867 C876 0.950 . S
H868 C878 0.950 . S
H869 C880 0.950 . S
H870 C882 0.950 . S
H871 C883 0.950 . S
C872 H864 0.950 . S
C872 C873 1.386 . S
C872 C874 1.391 . S
C873 C872 1.386 . S
C873 C877 1.393 . S
C874 H866 0.950 . S
C874 C872 1.391 . S
C874 C875 1.400 . S
C875 C874 1.400 . S
C875 C876 1.398 . S
C875 C881 1.491 . S
C876 H867 0.950 . S
C876 C875 1.398 . S
C876 C877 1.391 . S
C877 H865 0.950 . S
C877 C873 1.393 . S
C877 C876 1.391 . S
C878 H868 0.950 . S
C878 C879 1.386 . S
C878 C880 1.391 . S
C879 C878 1.386 . S
C879 C883 1.393 . S
C880 H869 0.950 . S
C880 C878 1.391 . S
C880 C881 1.400 . S
C881 C875 1.491 . S
C881 C880 1.400 . S
C881 C882 1.398 . S
C882 H870 0.950 . S
C882 C881 1.398 . S
C882 C883 1.391 . S
C883 H871 0.950 . S
C883 C879 1.393 . S
C883 C882 1.391 . S
H884 C892 0.950 . S
H885 C897 0.950 . S
H886 C894 0.950 . S
H887 C896 0.950 . S
H888 C898 0.950 . S
H889 C900 0.950 . S
H890 C902 0.950 . S
H891 C903 0.950 . S
C892 H884 0.950 . S
C892 C893 1.386 . S
C892 C894 1.391 . S
C893 C892 1.386 . S
C893 C897 1.393 . S
C894 H886 0.950 . S
C894 C892 1.391 . S
C894 C895 1.400 . S
C895 C894 1.400 . S
C895 C896 1.398 . S
C895 C901 1.491 . S
C896 H887 0.950 . S
C896 C895 1.398 . S
C896 C897 1.391 . S
C897 H885 0.950 . S
C897 C893 1.393 . S
C897 C896 1.391 . S
C898 H888 0.950 . S
C898 C899 1.386 . S
C898 C900 1.391 . S
C899 C898 1.386 . S
C899 C903 1.393 . S
C900 H889 0.950 . S
C900 C898 1.391 . S
C900 C901 1.400 . S
C901 C895 1.491 . S
C901 C900 1.400 . S
C901 C902 1.398 . S
C902 H890 0.950 . S
C902 C901 1.398 . S
C902 C903 1.391 . S
C903 H891 0.950 . S
C903 C899 1.393 . S
C903 C902 1.391 . S
H904 C912 0.950 . S
H905 C917 0.950 . S
H906 C914 0.950 . S
H907 C916 0.950 . S
H908 C918 0.950 . S
H909 C920 0.950 . S
H910 C922 0.950 . S
H911 C923 0.950 . S
C912 H904 0.950 . S
C912 C913 1.386 . S
C912 C914 1.391 . S
C913 C912 1.386 . S
C913 C917 1.393 . S
C914 H906 0.950 . S
C914 C912 1.391 . S
C914 C915 1.400 . S
C915 C914 1.400 . S
C915 C916 1.398 . S
C915 C921 1.491 . S
C916 H907 0.950 . S
C916 C915 1.398 . S
C916 C917 1.391 . S
C917 H905 0.950 . S
C917 C913 1.393 . S
C917 C916 1.391 . S
C918 H908 0.950 . S
C918 C919 1.386 . S
C918 C920 1.391 . S
C919 C918 1.386 . S
C919 C923 1.393 . S
C920 H909 0.950 . S
C920 C918 1.391 . S
C920 C921 1.400 . S
C921 C915 1.491 . S
C921 C920 1.400 . S
C921 C922 1.398 . S
C922 H910 0.950 . S
C922 C921 1.398 . S
C922 C923 1.391 . S
C923 H911 0.950 . S
C923 C919 1.393 . S
C923 C922 1.391 . S
H924 C932 0.950 . S
H925 C937 0.950 . S
H926 C934 0.950 . S
H927 C936 0.950 . S
H928 C938 0.950 . S
H929 C940 0.950 . S
H930 C942 0.950 . S
H931 C943 0.950 . S
C932 H924 0.950 . S
C932 C933 1.386 . S
C932 C934 1.391 . S
C933 C932 1.386 . S
C933 C937 1.393 . S
C934 H926 0.950 . S
C934 C932 1.391 . S
C934 C935 1.400 . S
C935 C934 1.400 . S
C935 C936 1.398 . S
C935 C941 1.491 . S
C936 H927 0.950 . S
C936 C935 1.398 . S
C936 C937 1.391 . S
C937 H925 0.950 . S
C937 C933 1.393 . S
C937 C936 1.391 . S
C938 H928 0.950 . S
C938 C939 1.386 . S
C938 C940 1.391 . S
C939 C938 1.386 . S
C939 C943 1.393 . S
C940 H929 0.950 . S
C940 C938 1.391 . S
C940 C941 1.400 . S
C941 C935 1.491 . S
C941 C940 1.400 . S
C941 C942 1.398 . S
C942 H930 0.950 . S
C942 C941 1.398 . S
C942 C943 1.391 . S
C943 H931 0.950 . S
C943 C939 1.393 . S
C943 C942 1.391 . S
H944 C952 0.950 . S
H945 C957 0.950 . S
H946 C954 0.950 . S
H947 C956 0.950 . S
H948 C958 0.950 . S
H949 C960 0.950 . S
H950 C962 0.950 . S
H951 C963 0.950 . S
C952 H944 0.950 . S
C952 C953 1.386 . S
C952 C954 1.391 . S
C953 C952 1.386 . S
C953 C957 1.393 . S
C954 H946 0.950 . S
C954 C952 1.391 . S
C954 C955 1.400 . S
C955 C954 1.400 . S
C955 C956 1.398 . S
C955 C961 1.491 . S
C956 H947 0.950 . S
C956 C955 1.398 . S
C956 C957 1.391 . S
C957 H945 0.950 . S
C957 C953 1.393 . S
C957 C956 1.391 . S
C958 H948 0.950 . S
C958 C959 1.386 . S
C958 C960 1.391 . S
C959 C958 1.386 . S
C959 C963 1.393 . S
C960 H949 0.950 . S
C960 C958 1.391 . S
C960 C961 1.400 . S
C961 C955 1.491 . S
C961 C960 1.400 . S
C961 C962 1.398 . S
C962 H950 0.950 . S
C962 C961 1.398 . S
C962 C963 1.391 . S
C963 H951 0.950 . S
C963 C959 1.393 . S
C963 C962 1.391 . S
H964 C972 0.950 . S
H965 C977 0.950 . S
H966 C974 0.950 . S
H967 C976 0.950 . S
H968 C978 0.950 . S
H969 C980 0.950 . S
H970 C982 0.950 . S
H971 C983 0.950 . S
C972 H964 0.950 . S
C972 C973 1.386 . S
C972 C974 1.391 . S
C973 C972 1.386 . S
C973 C977 1.393 . S
C974 H966 0.950 . S
C974 C972 1.391 . S
C974 C975 1.400 . S
C975 C974 1.400 . S
C975 C976 1.398 . S
C975 C981 1.491 . S
C976 H967 0.950 . S
C976 C975 1.398 . S
C976 C977 1.391 . S
C977 H965 0.950 . S
C977 C973 1.393 . S
C977 C976 1.391 . S
C978 H968 0.950 . S
C978 C979 1.386 . S
C978 C980 1.391 . S
C979 C978 1.386 . S
C979 C983 1.393 . S
C980 H969 0.950 . S
C980 C978 1.391 . S
C980 C981 1.400 . S
C981 C975 1.491 . S
C981 C980 1.400 . S
C981 C982 1.398 . S
C982 H970 0.950 . S
C982 C981 1.398 . S
C982 C983 1.391 . S
C983 H971 0.950 . S
C983 C979 1.393 . S
C983 C982 1.391 . S
H984 C992 0.950 . S
H985 C997 0.950 . S
H986 C994 0.950 . S
H987 C996 0.950 . S
H988 C998 0.950 . S
H989 C1000 0.950 . S
H990 C1002 0.950 . S
H991 C1003 0.950 . S
C992 H984 0.950 . S
C992 C993 1.386 . S
C992 C994 1.391 . S
C993 C992 1.386 . S
C993 C997 1.393 . S
C994 H986 0.950 . S
C994 C992 1.391 . S
C994 C995 1.400 . S
C995 C994 1.400 . S
C995 C996 1.398 . S
C995 C1001 1.491 . S
C996 H987 0.950 . S
C996 C995 1.398 . S
C996 C997 1.391 . S
C997 H985 0.950 . S
C997 C993 1.393 . S
C997 C996 1.391 . S
C998 H988 0.950 . S
C998 C999 1.386 . S
C998 C1000 1.391 . S
C999 C998 1.386 . S
C999 C1003 1.393 . S
C1000 H989 0.950 . S
C1000 C998 1.391 . S
C1000 C1001 1.400 . S
C1001 C995 1.491 . S
C1001 C1000 1.400 . S
C1001 C1002 1.398 . S
C1002 H990 0.950 . S
C1002 C1001 1.398 . S
C1002 C1003 1.391 . S
C1003 H991 0.950 . S
C1003 C999 1.393 . S
C1003 C1002 1.391 . S
H1004 C1012 0.950 . S
H1005 C1017 0.950 . S
H1006 C1014 0.950 . S
H1007 C1016 0.950 . S
H1008 C1018 0.950 . S
H1009 C1020 0.950 . S
H1010 C1022 0.950 . S
H1011 C1023 0.950 . S
C1012 H1004 0.950 . S
C1012 C1013 1.386 . S
C1012 C1014 1.391 . S
C1013 C1012 1.386 . S
C1013 C1017 1.393 . S
C1014 H1006 0.950 . S
C1014 C1012 1.391 . S
C1014 C1015 1.400 . S
C1015 C1014 1.400 . S
C1015 C1016 1.398 . S
C1015 C1021 1.491 . S
C1016 H1007 0.950 . S
C1016 C1015 1.398 . S
C1016 C1017 1.391 . S
C1017 H1005 0.950 . S
C1017 C1013 1.393 . S
C1017 C1016 1.391 . S
C1018 H1008 0.950 . S
C1018 C1019 1.386 . S
C1018 C1020 1.391 . S
C1019 C1018 1.386 . S
C1019 C1023 1.393 . S
C1020 H1009 0.950 . S
C1020 C1018 1.391 . S
C1020 C1021 1.400 . S
C1021 C1015 1.491 . S
C1021 C1020 1.400 . S
C1021 C1022 1.398 . S
C1022 H1010 0.950 . S
C1022 C1021 1.398 . S
C1022 C1023 1.391 . S
C1023 H1011 0.950 . S
C1023 C1019 1.393 . S
C1023 C1022 1.391 . S
H1024 C1032 0.950 . S
H1025 C1037 0.950 . S
H1026 C1034 0.950 . S
H1027 C1036 0.950 . S
H1028 C1038 0.950 . S
H1029 C1040 0.950 . S
H1030 C1042 0.950 . S
H1031 C1043 0.950 . S
C1032 H1024 0.950 . S
C1032 C1033 1.386 . S
C1032 C1034 1.391 . S
C1033 C1032 1.386 . S
C1033 C1037 1.393 . S
C1034 H1026 0.950 . S
C1034 C1032 1.391 . S
C1034 C1035 1.400 . S
C1035 C1034 1.400 . S
C1035 C1036 1.398 . S
C1035 C1041 1.491 . S
C1036 H1027 0.950 . S
C1036 C1035 1.398 . S
C1036 C1037 1.391 . S
C1037 H1025 0.950 . S
C1037 C1033 1.393 . S
C1037 C1036 1.391 . S
C1038 H1028 0.950 . S
C1038 C1039 1.386 . S
C1038 C1040 1.391 . S
C1039 C1038 1.386 . S
C1039 C1043 1.393 . S
C1040 H1029 0.950 . S
C1040 C1038 1.391 . S
C1040 C1041 1.400 . S
C1041 C1035 1.491 . S
C1041 C1040 1.400 . S
C1041 C1042 1.398 . S
C1042 H1030 0.950 . S
C1042 C1041 1.398 . S
C1042 C1043 1.391 . S
C1043 H1031 0.950 . S
C1043 C1039 1.393 . S
C1043 C1042 1.391 . S
H1044 C1052 0.950 . S
H1045 C1057 0.950 . S
H1046 C1054 0.950 . S
H1047 C1056 0.950 . S
H1048 C1058 0.950 . S
H1049 C1060 0.950 . S
H1050 C1062 0.950 . S
H1051 C1063 0.950 . S
C1052 H1044 0.950 . S
C1052 C1053 1.386 . S
C1052 C1054 1.391 . S
C1053 C1052 1.386 . S
C1053 C1057 1.393 . S
C1054 H1046 0.950 . S
C1054 C1052 1.391 . S
C1054 C1055 1.400 . S
C1055 C1054 1.400 . S
C1055 C1056 1.398 . S
C1055 C1061 1.491 . S
C1056 H1047 0.950 . S
C1056 C1055 1.398 . S
C1056 C1057 1.391 . S
C1057 H1045 0.950 . S
C1057 C1053 1.393 . S
C1057 C1056 1.391 . S
C1058 H1048 0.950 . S
C1058 C1059 1.386 . S
C1058 C1060 1.391 . S
C1059 C1058 1.386 . S
C1059 C1063 1.393 . S
C1060 H1049 0.950 . S
C1060 C1058 1.391 . S
C1060 C1061 1.400 . S
C1061 C1055 1.491 . S
C1061 C1060 1.400 . S
C1061 C1062 1.398 . S
C1062 H1050 0.950 . S
C1062 C1061 1.398 . S
C1062 C1063 1.391 . S
C1063 H1051 0.950 . S
C1063 C1059 1.393 . S
C1063 C1062 1.391 . S
H1064 C1072 0.950 . S
H1065 C1077 0.950 . S
H1066 C1074 0.950 . S
H1067 C1076 0.950 . S
H1068 C1078 0.950 . S
H1069 C1080 0.950 . S
H1070 C1082 0.950 . S
H1071 C1083 0.950 . S
C1072 H1064 0.950 . S
C1072 C1073 1.386 . S
C1072 C1074 1.391 . S
C1073 C1072 1.386 . S
C1073 C1077 1.393 . S
C1074 H1066 0.950 . S
C1074 C1072 1.391 . S
C1074 C1075 1.400 . S
C1075 C1074 1.400 . S
C1075 C1076 1.398 . S
C1075 C1081 1.491 . S
C1076 H1067 0.950 . S
C1076 C1075 1.398 . S
C1076 C1077 1.391 . S
C1077 H1065 0.950 . S
C1077 C1073 1.393 . S
C1077 C1076 1.391 . S
C1078 H1068 0.950 . S
C1078 C1079 1.386 . S
C1078 C1080 1.391 . S
C1079 C1078 1.386 . S
C1079 C1083 1.393 . S
C1080 H1069 0.950 . S
C1080 C1078 1.391 . S
C1080 C1081 1.400 . S
C1081 C1075 1.491 . S
C1081 C1080 1.400 . S
C1081 C1082 1.398 . S
C1082 H1070 0.950 . S
C1082 C1081 1.398 . S
C1082 C1083 1.391 . S
C1083 H1071 0.950 . S
C1083 C1079 1.393 . S
C1083 C1082 1.391 . S
H1084 C1092 0.950 . S
H1085 C1097 0.950 . S
H1086 C1094 0.950 . S
H1087 C1096 0.950 . S
H1088 C1098 0.950 . S
H1089 C1100 0.950 . S
H1090 C1102 0.950 . S
H1091 C1103 0.950 . S
C1092 H1084 0.950 . S
C1092 C1093 1.386 . S
C1092 C1094 1.391 . S
C1093 C1092 1.386 . S
C1093 C1097 1.393 . S
C1094 H1086 0.950 . S
C1094 C1092 1.391 . S
C1094 C1095 1.400 . S
C1095 C1094 1.400 . S
C1095 C1096 1.398 . S
C1095 C1101 1.491 . S
C1096 H1087 0.950 . S
C1096 C1095 1.398 . S
C1096 C1097 1.391 . S
C1097 H1085 0.950 . S
C1097 C1093 1.393 . S
C1097 C1096 1.391 . S
C1098 H1088 0.950 . S
C1098 C1099 1.386 . S
C1098 C1100 1.391 . S
C1099 C1098 1.386 . S
C1099 C1103 1.393 . S
C1100 H1089 0.950 . S
C1100 C1098 1.391 . S
C1100 C1101 1.400 . S
C1101 C1095 1.491 . S
C1101 C1100 1.400 . S
C1101 C1102 1.398 . S
C1102 H1090 0.950 . S
C1102 C1101 1.398 . S
C1102 C1103 1.391 . S
C1103 H1091 0.950 . S
C1103 C1099 1.393 . S
C1103 C1102 1.391 . S
H1104 C1112 0.950 . S
H1105 C1117 0.950 . S
H1106 C1114 0.950 . S
H1107 C1116 0.950 . S
H1108 C1118 0.950 . S
H1109 C1120 0.950 . S
H1110 C1122 0.950 . S
H1111 C1123 0.950 . S
C1112 H1104 0.950 . S
C1112 C1113 1.386 . S
C1112 C1114 1.391 . S
C1113 C1112 1.386 . S
C1113 C1117 1.393 . S
C1114 H1106 0.950 . S
C1114 C1112 1.391 . S
C1114 C1115 1.400 . S
C1115 C1114 1.400 . S
C1115 C1116 1.398 . S
C1115 C1121 1.491 . S
C1116 H1107 0.950 . S
C1116 C1115 1.398 . S
C1116 C1117 1.391 . S
C1117 H1105 0.950 . S
C1117 C1113 1.393 . S
C1117 C1116 1.391 . S
C1118 H1108 0.950 . S
C1118 C1119 1.386 . S
C1118 C1120 1.391 . S
C1119 C1118 1.386 . S
C1119 C1123 1.393 . S
C1120 H1109 0.950 . S
C1120 C1118 1.391 . S
C1120 C1121 1.400 . S
C1121 C1115 1.491 . S
C1121 C1120 1.400 . S
C1121 C1122 1.398 . S
C1122 H1110 0.950 . S
C1122 C1121 1.398 . S
C1122 C1123 1.391 . S
C1123 H1111 0.950 . S
C1123 C1119 1.393 . S
C1123 C1122 1.391 . S
H1124 C1132 0.950 . S
H1125 C1137 0.950 . S
H1126 C1134 0.950 . S
H1127 C1136 0.950 . S
H1128 C1138 0.950 . S
H1129 C1140 0.950 . S
H1130 C1142 0.950 . S
H1131 C1143 0.950 . S
C1132 H1124 0.950 . S
C1132 C1133 1.386 . S
C1132 C1134 1.391 . S
C1133 C1132 1.386 . S
C1133 C1137 1.393 . S
C1134 H1126 0.950 . S
C1134 C1132 1.391 . S
C1134 C1135 1.400 . S
C1135 C1134 1.400 . S
C1135 C1136 1.398 . S
C1135 C1141 1.491 . S
C1136 H1127 0.950 . S
C1136 C1135 1.398 . S
C1136 C1137 1.391 . S
C1137 H1125 0.950 . S
C1137 C1133 1.393 . S
C1137 C1136 1.391 . S
C1138 H1128 0.950 . S
C1138 C1139 1.386 . S
C1138 C1140 1.391 . S
C1139 C1138 1.386 . S
C1139 C1143 1.393 . S
C1140 H1129 0.950 . S
C1140 C1138 1.391 . S
C1140 C1141 1.400 . S
C1141 C1135 1.491 . S
C1141 C1140 1.400 . S
C1141 C1142 1.398 . S
C1142 H1130 0.950 . S
C1142 C1141 1.398 . S
C1142 C1143 1.391 . S
C1143 H1131 0.950 . S
C1143 C1139 1.393 . S
C1143 C1142 1.391 . S
H1144 C1152 0.950 . S
H1145 C1157 0.950 . S
H1146 C1154 0.950 . S
H1147 C1156 0.950 . S
H1148 C1158 0.950 . S
H1149 C1160 0.950 . S
H1150 C1162 0.950 . S
H1151 C1163 0.950 . S
C1152 H1144 0.950 . S
C1152 C1153 1.386 . S
C1152 C1154 1.391 . S
C1153 C1152 1.386 . S
C1153 C1157 1.393 . S
C1154 H1146 0.950 . S
C1154 C1152 1.391 . S
C1154 C1155 1.400 . S
C1155 C1154 1.400 . S
C1155 C1156 1.398 . S
C1155 C1161 1.491 . S
C1156 H1147 0.950 . S
C1156 C1155 1.398 . S
C1156 C1157 1.391 . S
C1157 H1145 0.950 . S
C1157 C1153 1.393 . S
C1157 C1156 1.391 . S
C1158 H1148 0.950 . S
C1158 C1159 1.386 . S
C1158 C1160 1.391 . S
C1159 C1158 1.386 . S
C1159 C1163 1.393 . S
C1160 H1149 0.950 . S
C1160 C1158 1.391 . S
C1160 C1161 1.400 . S
C1161 C1155 1.491 . S
C1161 C1160 1.400 . S
C1161 C1162 1.398 . S
C1162 H1150 0.950 . S
C1162 C1161 1.398 . S
C1162 C1163 1.391 . S
C1163 H1151 0.950 . S
C1163 C1159 1.393 . S
C1163 C1162 1.391 . S
H1164 C1172 0.950 . S
H1165 C1177 0.950 . S
H1166 C1174 0.950 . S
H1167 C1176 0.950 . S
H1168 C1178 0.950 . S
H1169 C1180 0.950 . S
H1170 C1182 0.950 . S
H1171 C1183 0.950 . S
C1172 H1164 0.950 . S
C1172 C1173 1.386 . S
C1172 C1174 1.391 . S
C1173 C1172 1.386 . S
C1173 C1177 1.393 . S
C1174 H1166 0.950 . S
C1174 C1172 1.391 . S
C1174 C1175 1.400 . S
C1175 C1174 1.400 . S
C1175 C1176 1.398 . S
C1175 C1181 1.491 . S
C1176 H1167 0.950 . S
C1176 C1175 1.398 . S
C1176 C1177 1.391 . S
C1177 H1165 0.950 . S
C1177 C1173 1.393 . S
C1177 C1176 1.391 . S
C1178 H1168 0.950 . S
C1178 C1179 1.386 . S
C1178 C1180 1.391 . S
C1179 C1178 1.386 . S
C1179 C1183 1.393 . S
C1180 H1169 0.950 . S
C1180 C1178 1.391 . S
C1180 C1181 1.400 . S
C1181 C1175 1.491 . S
C1181 C1180 1.400 . S
C1181 C1182 1.398 . S
C1182 H1170 0.950 . S
C1182 C1181 1.398 . S
C1182 C1183 1.391 . S
C1183 H1171 0.950 . S
C1183 C1179 1.393 . S
C1183 C1182 1.391 . S
H1184 C1192 0.950 . S
H1185 C1197 0.950 . S
H1186 C1194 0.950 . S
H1187 C1196 0.950 . S
H1188 C1198 0.950 . S
H1189 C1200 0.950 . S
H1190 C1202 0.950 . S
H1191 C1203 0.950 . S
C1192 H1184 0.950 . S
C1192 C1193 1.386 . S
C1192 C1194 1.391 . S
C1193 C1192 1.386 . S
C1193 C1197 1.393 . S
C1194 H1186 0.950 . S
C1194 C1192 1.391 . S
C1194 C1195 1.400 . S
C1195 C1194 1.400 . S
C1195 C1196 1.398 . S
C1195 C1201 1.491 . S
C1196 H1187 0.950 . S
C1196 C1195 1.398 . S
C1196 C1197 1.391 . S
C1197 H1185 0.950 . S
C1197 C1193 1.393 . S
C1197 C1196 1.391 . S
C1198 H1188 0.950 . S
C1198 C1199 1.386 . S
C1198 C1200 1.391 . S
C1199 C1198 1.386 . S
C1199 C1203 1.393 . S
C1200 H1189 0.950 . S
C1200 C1198 1.391 . S
C1200 C1201 1.400 . S
C1201 C1195 1.491 . S
C1201 C1200 1.400 . S
C1201 C1202 1.398 . S
C1202 H1190 0.950 . S
C1202 C1201 1.398 . S
C1202 C1203 1.391 . S
C1203 H1191 0.950 . S
C1203 C1199 1.393 . S
C1203 C1202 1.391 . S
H1204 C1212 0.950 . S
H1205 C1217 0.950 . S
H1206 C1214 0.950 . S
H1207 C1216 0.950 . S
H1208 C1218 0.950 . S
H1209 C1220 0.950 . S
H1210 C1222 0.950 . S
H1211 C1223 0.950 . S
C1212 H1204 0.950 . S
C1212 C1213 1.386 . S
C1212 C1214 1.391 . S
C1213 C1212 1.386 . S
C1213 C1217 1.393 . S
C1214 H1206 0.950 . S
C1214 C1212 1.391 . S
C1214 C1215 1.400 . S
C1215 C1214 1.400 . S
C1215 C1216 1.398 . S
C1215 C1221 1.491 . S
C1216 H1207 0.950 . S
C1216 C1215 1.398 . S
C1216 C1217 1.391 . S
C1217 H1205 0.950 . S
C1217 C1213 1.393 . S
C1217 C1216 1.391 . S
C1218 H1208 0.950 . S
C1218 C1219 1.386 . S
C1218 C1220 1.391 . S
C1219 C1218 1.386 . S
C1219 C1223 1.393 . S
C1220 H1209 0.950 . S
C1220 C1218 1.391 . S
C1220 C1221 1.400 . S
C1221 C1215 1.491 . S
C1221 C1220 1.400 . S
C1221 C1222 1.398 . S
C1222 H1210 0.950 . S
C1222 C1221 1.398 . S
C1222 C1223 1.391 . S
C1223 H1211 0.950 . S
C1223 C1219 1.393 . S
C1223 C1222 1.391 . S
H1224 C1232 0.950 . S
H1225 C1237 0.950 . S
H1226 C1234 0.950 . S
H1227 C1236 0.950 . S
H1228 C1238 0.950 . S
H1229 C1240 0.950 . S
H1230 C1242 0.950 . S
H1231 C1243 0.950 . S
C1232 H1224 0.950 . S
C1232 C1233 1.386 . S
C1232 C1234 1.391 . S
C1233 C1232 1.386 . S
C1233 C1237 1.393 . S
C1234 H1226 0.950 . S
C1234 C1232 1.391 . S
C1234 C1235 1.400 . S
C1235 C1234 1.400 . S
C1235 C1236 1.398 . S
C1235 C1241 1.491 . S
C1236 H1227 0.950 . S
C1236 C1235 1.398 . S
C1236 C1237 1.391 . S
C1237 H1225 0.950 . S
C1237 C1233 1.393 . S
C1237 C1236 1.391 . S
C1238 H1228 0.950 . S
C1238 C1239 1.386 . S
C1238 C1240 1.391 . S
C1239 C1238 1.386 . S
C1239 C1243 1.393 . S
C1240 H1229 0.950 . S
C1240 C1238 1.391 . S
C1240 C1241 1.400 . S
C1241 C1235 1.491 . S
C1241 C1240 1.400 . S
C1241 C1242 1.398 . S
C1242 H1230 0.950 . S
C1242 C1241 1.398 . S
C1242 C1243 1.391 . S
C1243 H1231 0.950 . S
C1243 C1239 1.393 . S
C1243 C1242 1.391 . S
H1244 C1252 0.950 . S
H1245 C1257 0.950 . S
H1246 C1254 0.950 . S
H1247 C1256 0.950 . S
H1248 C1258 0.950 . S
H1249 C1260 0.950 . S
H1250 C1262 0.950 . S
H1251 C1263 0.950 . S
C1252 H1244 0.950 . S
C1252 C1253 1.386 . S
C1252 C1254 1.391 . S
C1253 C1252 1.386 . S
C1253 C1257 1.393 . S
C1254 H1246 0.950 . S
C1254 C1252 1.391 . S
C1254 C1255 1.400 . S
C1255 C1254 1.400 . S
C1255 C1256 1.398 . S
C1255 C1261 1.491 . S
C1256 H1247 0.950 . S
C1256 C1255 1.398 . S
C1256 C1257 1.391 . S
C1257 H1245 0.950 . S
C1257 C1253 1.393 . S
C1257 C1256 1.391 . S
C1258 H1248 0.950 . S
C1258 C1259 1.386 . S
C1258 C1260 1.391 . S
C1259 C1258 1.386 . S
C1259 C1263 1.393 . S
C1260 H1249 0.950 . S
C1260 C1258 1.391 . S
C1260 C1261 1.400 . S
C1261 C1255 1.491 . S
C1261 C1260 1.400 . S
C1261 C1262 1.398 . S
C1262 H1250 0.950 . S
C1262 C1261 1.398 . S
C1262 C1263 1.391 . S
C1263 H1251 0.950 . S
C1263 C1259 1.393 . S
C1263 C1262 1.391 . S
H1264 C1272 0.950 . S
H1265 C1277 0.950 . S
H1266 C1274 0.950 . S
H1267 C1276 0.950 . S
H1268 C1278 0.950 . S
H1269 C1280 0.950 . S
H1270 C1282 0.950 . S
H1271 C1283 0.950 . S
C1272 H1264 0.950 . S
C1272 C1273 1.386 . S
C1272 C1274 1.391 . S
C1273 C1272 1.386 . S
C1273 C1277 1.393 . S
C1274 H1266 0.950 . S
C1274 C1272 1.391 . S
C1274 C1275 1.400 . S
C1275 C1274 1.400 . S
C1275 C1276 1.398 . S
C1275 C1281 1.491 . S
C1276 H1267 0.950 . S
C1276 C1275 1.398 . S
C1276 C1277 1.391 . S
C1277 H1265 0.950 . S
C1277 C1273 1.393 . S
C1277 C1276 1.391 . S
C1278 H1268 0.950 . S
C1278 C1279 1.386 . S
C1278 C1280 1.391 . S
C1279 C1278 1.386 . S
C1279 C1283 1.393 . S
C1280 H1269 0.950 . S
C1280 C1278 1.391 . S
C1280 C1281 1.400 . S
C1281 C1275 1.491 . S
C1281 C1280 1.400 . S
C1281 C1282 1.398 . S
C1282 H1270 0.950 . S
C1282 C1281 1.398 . S
C1282 C1283 1.391 . S
C1283 H1271 0.950 . S
C1283 C1279 1.393 . S
C1283 C1282 1.391 . S
H1284 C1292 0.950 . S
H1285 C1297 0.950 . S
H1286 C1294 0.950 . S
H1287 C1296 0.950 . S
H1288 C1298 0.950 . S
H1289 C1300 0.950 . S
H1290 C1302 0.950 . S
H1291 C1303 0.950 . S
C1292 H1284 0.950 . S
C1292 C1293 1.386 . S
C1292 C1294 1.391 . S
C1293 C1292 1.386 . S
C1293 C1297 1.393 . S
C1294 H1286 0.950 . S
C1294 C1292 1.391 . S
C1294 C1295 1.400 . S
C1295 C1294 1.400 . S
C1295 C1296 1.398 . S
C1295 C1301 1.491 . S
C1296 H1287 0.950 . S
C1296 C1295 1.398 . S
C1296 C1297 1.391 . S
C1297 H1285 0.950 . S
C1297 C1293 1.393 . S
C1297 C1296 1.391 . S
C1298 H1288 0.950 . S
C1298 C1299 1.386 . S
C1298 C1300 1.391 . S
C1299 C1298 1.386 . S
C1299 C1303 1.393 . S
C1300 H1289 0.950 . S
C1300 C1298 1.391 . S
C1300 C1301 1.400 . S
C1301 C1295 1.491 . S
C1301 C1300 1.400 . S
C1301 C1302 1.398 . S
C1302 H1290 0.950 . S
C1302 C1301 1.398 . S
C1302 C1303 1.391 . S
C1303 H1291 0.950 . S
C1303 C1299 1.393 . S
C1303 C1302 1.391 . S
H1304 C1312 0.950 . S
H1305 C1317 0.950 . S
H1306 C1314 0.950 . S
H1307 C1316 0.950 . S
H1308 C1318 0.950 . S
H1309 C1320 0.950 . S
H1310 C1322 0.950 . S
H1311 C1323 0.950 . S
C1312 H1304 0.950 . S
C1312 C1313 1.386 . S
C1312 C1314 1.391 . S
C1313 C1312 1.386 . S
C1313 C1317 1.393 . S
C1314 H1306 0.950 . S
C1314 C1312 1.391 . S
C1314 C1315 1.400 . S
C1315 C1314 1.400 . S
C1315 C1316 1.398 . S
C1315 C1321 1.491 . S
C1316 H1307 0.950 . S
C1316 C1315 1.398 . S
C1316 C1317 1.391 . S
C1317 H1305 0.950 . S
C1317 C1313 1.393 . S
C1317 C1316 1.391 . S
C1318 H1308 0.950 . S
C1318 C1319 1.386 . S
C1318 C1320 1.391 . S
C1319 C1318 1.386 . S
C1319 C1323 1.393 . S
C1320 H1309 0.950 . S
C1320 C1318 1.391 . S
C1320 C1321 1.400 . S
C1321 C1315 1.491 . S
C1321 C1320 1.400 . S
C1321 C1322 1.398 . S
C1322 H1310 0.950 . S
C1322 C1321 1.398 . S
C1322 C1323 1.391 . S
C1323 H1311 0.950 . S
C1323 C1319 1.393 . S
C1323 C1322 1.391 . S
H1324 C1332 0.950 . S
H1325 C1337 0.950 . S
H1326 C1334 0.950 . S
H1327 C1336 0.950 . S
H1328 C1338 0.950 . S
H1329 C1340 0.950 . S
H1330 C1342 0.950 . S
H1331 C1343 0.950 . S
C1332 H1324 0.950 . S
C1332 C1333 1.386 . S
C1332 C1334 1.391 . S
C1333 C1332 1.386 . S
C1333 C1337 1.393 . S
C1334 H1326 0.950 . S
C1334 C1332 1.391 . S
C1334 C1335 1.400 . S
C1335 C1334 1.400 . S
C1335 C1336 1.398 . S
C1335 C1341 1.491 . S
C1336 H1327 0.950 . S
C1336 C1335 1.398 . S
C1336 C1337 1.391 . S
C1337 H1325 0.950 . S
C1337 C1333 1.393 . S
C1337 C1336 1.391 . S
C1338 H1328 0.950 . S
C1338 C1339 1.386 . S
C1338 C1340 1.391 . S
C1339 C1338 1.386 . S
C1339 C1343 1.393 . S
C1340 H1329 0.950 . S
C1340 C1338 1.391 . S
C1340 C1341 1.400 . S
C1341 C1335 1.491 . S
C1341 C1340 1.400 . S
C1341 C1342 1.398 . S
C1342 H1330 0.950 . S
C1342 C1341 1.398 . S
C1342 C1343 1.391 . S
C1343 H1331 0.950 . S
C1343 C1339 1.393 . S
C1343 C1342 1.391 . S
H1344 C1352 0.950 . S
H1345 C1357 0.950 . S
H1346 C1354 0.950 . S
H1347 C1356 0.950 . S
H1348 C1358 0.950 . S
H1349 C1360 0.950 . S
H1350 C1362 0.950 . S
H1351 C1363 0.950 . S
C1352 H1344 0.950 . S
C1352 C1353 1.386 . S
C1352 C1354 1.391 . S
C1353 C1352 1.386 . S
C1353 C1357 1.393 . S
C1354 H1346 0.950 . S
C1354 C1352 1.391 . S
C1354 C1355 1.400 . S
C1355 C1354 1.400 . S
C1355 C1356 1.398 . S
C1355 C1361 1.491 . S
C1356 H1347 0.950 . S
C1356 C1355 1.398 . S
C1356 C1357 1.391 . S
C1357 H1345 0.950 . S
C1357 C1353 1.393 . S
C1357 C1356 1.391 . S
C1358 H1348 0.950 . S
C1358 C1359 1.386 . S
C1358 C1360 1.391 . S
C1359 C1358 1.386 . S
C1359 C1363 1.393 . S
C1360 H1349 0.950 . S
C1360 C1358 1.391 . S
C1360 C1361 1.400 . S
C1361 C1355 1.491 . S
C1361 C1360 1.400 . S
C1361 C1362 1.398 . S
C1362 H1350 0.950 . S
C1362 C1361 1.398 . S
C1362 C1363 1.391 . S
C1363 H1351 0.950 . S
C1363 C1359 1.393 . S
C1363 C1362 1.391 . S
H1364 C1372 0.950 . S
H1365 C1377 0.950 . S
H1366 C1374 0.950 . S
H1367 C1376 0.950 . S
H1368 C1378 0.950 . S
H1369 C1380 0.950 . S
H1370 C1382 0.950 . S
H1371 C1383 0.950 . S
C1372 H1364 0.950 . S
C1372 C1373 1.386 . S
C1372 C1374 1.391 . S
C1373 C1372 1.386 . S
C1373 C1377 1.393 . S
C1374 H1366 0.950 . S
C1374 C1372 1.391 . S
C1374 C1375 1.400 . S
C1375 C1374 1.400 . S
C1375 C1376 1.398 . S
C1375 C1381 1.491 . S
C1376 H1367 0.950 . S
C1376 C1375 1.398 . S
C1376 C1377 1.391 . S
C1377 H1365 0.950 . S
C1377 C1373 1.393 . S
C1377 C1376 1.391 . S
C1378 H1368 0.950 . S
C1378 C1379 1.386 . S
C1378 C1380 1.391 . S
C1379 C1378 1.386 . S
C1379 C1383 1.393 . S
C1380 H1369 0.950 . S
C1380 C1378 1.391 . S
C1380 C1381 1.400 . S
C1381 C1375 1.491 . S
C1381 C1380 1.400 . S
C1381 C1382 1.398 . S
C1382 H1370 0.950 . S
C1382 C1381 1.398 . S
C1382 C1383 1.391 . S
C1383 H1371 0.950 . S
C1383 C1379 1.393 . S
C1383 C1382 1.391 . S
H1384 C1392 0.950 . S
H1385 C1397 0.950 . S
H1386 C1394 0.950 . S
H1387 C1396 0.950 . S
H1388 C1398 0.950 . S
H1389 C1400 0.950 . S
H1390 C1402 0.950 . S
H1391 C1403 0.950 . S
C1392 H1384 0.950 . S
C1392 C1393 1.386 . S
C1392 C1394 1.391 . S
C1393 C1392 1.386 . S
C1393 C1397 1.393 . S
C1394 H1386 0.950 . S
C1394 C1392 1.391 . S
C1394 C1395 1.400 . S
C1395 C1394 1.400 . S
C1395 C1396 1.398 . S
C1395 C1401 1.491 . S
C1396 H1387 0.950 . S
C1396 C1395 1.398 . S
C1396 C1397 1.391 . S
C1397 H1385 0.950 . S
C1397 C1393 1.393 . S
C1397 C1396 1.391 . S
C1398 H1388 0.950 . S
C1398 C1399 1.386 . S
C1398 C1400 1.391 . S
C1399 C1398 1.386 . S
C1399 C1403 1.393 . S
C1400 H1389 0.950 . S
C1400 C1398 1.391 . S
C1400 C1401 1.400 . S
C1401 C1395 1.491 . S
C1401 C1400 1.400 . S
C1401 C1402 1.398 . S
C1402 H1390 0.950 . S
C1402 C1401 1.398 . S
C1402 C1403 1.391 . S
C1403 H1391 0.950 . S
C1403 C1399 1.393 . S
C1403 C1402 1.391 . S
H1404 C1412 0.950 . S
H1405 C1417 0.950 . S
H1406 C1414 0.950 . S
H1407 C1416 0.950 . S
H1408 C1418 0.950 . S
H1409 C1420 0.950 . S
H1410 C1422 0.950 . S
H1411 C1423 0.950 . S
C1412 H1404 0.950 . S
C1412 C1413 1.386 . S
C1412 C1414 1.391 . S
C1413 C1412 1.386 . S
C1413 C1417 1.393 . S
C1414 H1406 0.950 . S
C1414 C1412 1.391 . S
C1414 C1415 1.400 . S
C1415 C1414 1.400 . S
C1415 C1416 1.398 . S
C1415 C1421 1.491 . S
C1416 H1407 0.950 . S
C1416 C1415 1.398 . S
C1416 C1417 1.391 . S
C1417 H1405 0.950 . S
C1417 C1413 1.393 . S
C1417 C1416 1.391 . S
C1418 H1408 0.950 . S
C1418 C1419 1.386 . S
C1418 C1420 1.391 . S
C1419 C1418 1.386 . S
C1419 C1423 1.393 . S
C1420 H1409 0.950 . S
C1420 C1418 1.391 . S
C1420 C1421 1.400 . S
C1421 C1415 1.491 . S
C1421 C1420 1.400 . S
C1421 C1422 1.398 . S
C1422 H1410 0.950 . S
C1422 C1421 1.398 . S
C1422 C1423 1.391 . S
C1423 H1411 0.950 . S
C1423 C1419 1.393 . S
C1423 C1422 1.391 . S
H1424 C1432 0.950 . S
H1425 C1437 0.950 . S
H1426 C1434 0.950 . S
H1427 C1436 0.950 . S
H1428 C1438 0.950 . S
H1429 C1440 0.950 . S
H1430 C1442 0.950 . S
H1431 C1443 0.950 . S
C1432 H1424 0.950 . S
C1432 C1433 1.386 . S
C1432 C1434 1.391 . S
C1433 C1432 1.386 . S
C1433 C1437 1.393 . S
C1434 H1426 0.950 . S
C1434 C1432 1.391 . S
C1434 C1435 1.400 . S
C1435 C1434 1.400 . S
C1435 C1436 1.398 . S
C1435 C1441 1.491 . S
C1436 H1427 0.950 . S
C1436 C1435 1.398 . S
C1436 C1437 1.391 . S
C1437 H1425 0.950 . S
C1437 C1433 1.393 . S
C1437 C1436 1.391 . S
C1438 H1428 0.950 . S
C1438 C1439 1.386 . S
C1438 C1440 1.391 . S
C1439 C1438 1.386 . S
C1439 C1443 1.393 . S
C1440 H1429 0.950 . S
C1440 C1438 1.391 . S
C1440 C1441 1.400 . S
C1441 C1435 1.491 . S
C1441 C1440 1.400 . S
C1441 C1442 1.398 . S
C1442 H1430 0.950 . S
C1442 C1441 1.398 . S
C1442 C1443 1.391 . S
C1443 H1431 0.950 . S
C1443 C1439 1.393 . S
C1443 C1442 1.391 . S
H1444 C1452 0.950 . S
H1445 C1457 0.950 . S
H1446 C1454 0.950 . S
H1447 C1456 0.950 . S
H1448 C1458 0.950 . S
H1449 C1460 0.950 . S
H1450 C1462 0.950 . S
H1451 C1463 0.950 . S
C1452 H1444 0.950 . S
C1452 C1453 1.386 . S
C1452 C1454 1.391 . S
C1453 C1452 1.386 . S
C1453 C1457 1.393 . S
C1454 H1446 0.950 . S
C1454 C1452 1.391 . S
C1454 C1455 1.400 . S
C1455 C1454 1.400 . S
C1455 C1456 1.398 . S
C1455 C1461 1.491 . S
C1456 H1447 0.950 . S
C1456 C1455 1.398 . S
C1456 C1457 1.391 . S
C1457 H1445 0.950 . S
C1457 C1453 1.393 . S
C1457 C1456 1.391 . S
C1458 H1448 0.950 . S
C1458 C1459 1.386 . S
C1458 C1460 1.391 . S
C1459 C1458 1.386 . S
C1459 C1463 1.393 . S
C1460 H1449 0.950 . S
C1460 C1458 1.391 . S
C1460 C1461 1.400 . S
C1461 C1455 1.491 . S
C1461 C1460 1.400 . S
C1461 C1462 1.398 . S
C1462 H1450 0.950 . S
C1462 C1461 1.398 . S
C1462 C1463 1.391 . S
C1463 H1451 0.950 . S
C1463 C1459 1.393 . S
C1463 C1462 1.391 . S
H1464 C1472 0.950 . S
H1465 C1477 0.950 . S
H1466 C1474 0.950 . S
H1467 C1476 0.950 . S
H1468 C1478 0.950 . S
H1469 C1480 0.950 . S
H1470 C1482 0.950 . S
H1471 C1483 0.950 . S
C1472 H1464 0.950 . S
C1472 C1473 1.386 . S
C1472 C1474 1.391 . S
C1473 C1472 1.386 . S
C1473 C1477 1.393 . S
C1474 H1466 0.950 . S
C1474 C1472 1.391 . S
C1474 C1475 1.400 . S
C1475 C1474 1.400 . S
C1475 C1476 1.398 . S
C1475 C1481 1.491 . S
C1476 H1467 0.950 . S
C1476 C1475 1.398 . S
C1476 C1477 1.391 . S
C1477 H1465 0.950 . S
C1477 C1473 1.393 . S
C1477 C1476 1.391 . S
C1478 H1468 0.950 . S
C1478 C1479 1.386 . S
C1478 C1480 1.391 . S
C1479 C1478 1.386 . S
C1479 C1483 1.393 . S
C1480 H1469 0.950 . S
C1480 C1478 1.391 . S
C1480 C1481 1.400 . S
C1481 C1475 1.491 . S
C1481 C1480 1.400 . S
C1481 C1482 1.398 . S
C1482 H1470 0.950 . S
C1482 C1481 1.398 . S
C1482 C1483 1.391 . S
C1483 H1471 0.950 . S
C1483 C1479 1.393 . S
C1483 C1482 1.391 . S
H1484 C1492 0.950 . S
H1485 C1497 0.950 . S
H1486 C1494 0.950 . S
H1487 C1496 0.950 . S
H1488 C1498 0.950 . S
H1489 C1500 0.950 . S
H1490 C1502 0.950 . S
H1491 C1503 0.950 . S
C1492 H1484 0.950 . S
C1492 C1493 1.386 . S
C1492 C1494 1.391 . S
C1493 C1492 1.386 . S
C1493 C1497 1.393 . S
C1494 H1486 0.950 . S
C1494 C1492 1.391 . S
C1494 C1495 1.400 . S
C1495 C1494 1.400 . S
C1495 C1496 1.398 . S
C1495 C1501 1.491 . S
C1496 H1487 0.950 . S
C1496 C1495 1.398 . S
C1496 C1497 1.391 . S
C1497 H1485 0.950 . S
C1497 C1493 1.393 . S
C1497 C1496 1.391 . S
C1498 H1488 0.950 . S
C1498 C1499 1.386 . S
C1498 C1500 1.391 . S
C1499 C1498 1.386 . S
C1499 C1503 1.393 . S
C1500 H1489 0.950 . S
C1500 C1498 1.391 . S
C1500 C1501 1.400 . S
C1501 C1495 1.491 . S
C1501 C1500 1.400 . S
C1501 C1502 1.398 . S
C1502 H1490 0.950 . S
C1502 C1501 1.398 . S
C1502 C1503 1.391 . S
C1503 H1491 0.950 . S
C1503 C1499 1.393 . S
C1503 C1502 1.391 . S
H1504 C1512 0.950 . S
H1505 C1517 0.950 . S
H1506 C1514 0.950 . S
H1507 C1516 0.950 . S
H1508 C1518 0.950 . S
H1509 C1520 0.950 . S
H1510 C1522 0.950 . S
H1511 C1523 0.950 . S
C1512 H1504 0.950 . S
C1512 C1513 1.386 . S
C1512 C1514 1.391 . S
C1513 C1512 1.386 . S
C1513 C1517 1.393 . S
C1514 H1506 0.950 . S
C1514 C1512 1.391 . S
C1514 C1515 1.400 . S
C1515 C1514 1.400 . S
C1515 C1516 1.398 . S
C1515 C1521 1.491 . S
C1516 H1507 0.950 . S
C1516 C1515 1.398 . S
C1516 C1517 1.391 . S
C1517 H1505 0.950 . S
C1517 C1513 1.393 . S
C1517 C1516 1.391 . S
C1518 H1508 0.950 . S
C1518 C1519 1.386 . S
C1518 C1520 1.391 . S
C1519 C1518 1.386 . S
C1519 C1523 1.393 . S
C1520 H1509 0.950 . S
C1520 C1518 1.391 . S
C1520 C1521 1.400 . S
C1521 C1515 1.491 . S
C1521 C1520 1.400 . S
C1521 C1522 1.398 . S
C1522 H1510 0.950 . S
C1522 C1521 1.398 . S
C1522 C1523 1.391 . S
C1523 H1511 0.950 . S
C1523 C1519 1.393 . S
C1523 C1522 1.391 . S
H1524 C1532 0.950 . S
H1525 C1537 0.950 . S
H1526 C1534 0.950 . S
H1527 C1536 0.950 . S
H1528 C1538 0.950 . S
H1529 C1540 0.950 . S
H1530 C1542 0.950 . S
H1531 C1543 0.950 . S
C1532 H1524 0.950 . S
C1532 C1533 1.386 . S
C1532 C1534 1.391 . S
C1533 C1532 1.386 . S
C1533 C1537 1.393 . S
C1534 H1526 0.950 . S
C1534 C1532 1.391 . S
C1534 C1535 1.400 . S
C1535 C1534 1.400 . S
C1535 C1536 1.398 . S
C1535 C1541 1.491 . S
C1536 H1527 0.950 . S
C1536 C1535 1.398 . S
C1536 C1537 1.391 . S
C1537 H1525 0.950 . S
C1537 C1533 1.393 . S
C1537 C1536 1.391 . S
C1538 H1528 0.950 . S
C1538 C1539 1.386 . S
C1538 C1540 1.391 . S
C1539 C1538 1.386 . S
C1539 C1543 1.393 . S
C1540 H1529 0.950 . S
C1540 C1538 1.391 . S
C1540 C1541 1.400 . S
C1541 C1535 1.491 . S
C1541 C1540 1.400 . S
C1541 C1542 1.398 . S
C1542 H1530 0.950 . S
C1542 C1541 1.398 . S
C1542 C1543 1.391 . S
C1543 H1531 0.950 . S
C1543 C1539 1.393 . S
C1543 C1542 1.391 . S
H1544 C1552 0.950 . S
H1545 C1557 0.950 . S
H1546 C1554 0.950 . S
H1547 C1556 0.950 . S
H1548 C1558 0.950 . S
H1549 C1560 0.950 . S
H1550 C1562 0.950 . S
H1551 C1563 0.950 . S
C1552 H1544 0.950 . S
C1552 C1553 1.386 . S
C1552 C1554 1.391 . S
C1553 C1552 1.386 . S
C1553 C1557 1.393 . S
C1554 H1546 0.950 . S
C1554 C1552 1.391 . S
C1554 C1555 1.400 . S
C1555 C1554 1.400 . S
C1555 C1556 1.398 . S
C1555 C1561 1.491 . S
C1556 H1547 0.950 . S
C1556 C1555 1.398 . S
C1556 C1557 1.391 . S
C1557 H1545 0.950 . S
C1557 C1553 1.393 . S
C1557 C1556 1.391 . S
C1558 H1548 0.950 . S
C1558 C1559 1.386 . S
C1558 C1560 1.391 . S
C1559 C1558 1.386 . S
C1559 C1563 1.393 . S
C1560 H1549 0.950 . S
C1560 C1558 1.391 . S
C1560 C1561 1.400 . S
C1561 C1555 1.491 . S
C1561 C1560 1.400 . S
C1561 C1562 1.398 . S
C1562 H1550 0.950 . S
C1562 C1561 1.398 . S
C1562 C1563 1.391 . S
C1563 H1551 0.950 . S
C1563 C1559 1.393 . S
C1563 C1562 1.391 . S
H1564 C1572 0.950 . S
H1565 C1577 0.950 . S
H1566 C1574 0.950 . S
H1567 C1576 0.950 . S
H1568 C1578 0.950 . S
H1569 C1580 0.950 . S
H1570 C1582 0.950 . S
H1571 C1583 0.950 . S
C1572 H1564 0.950 . S
C1572 C1573 1.386 . S
C1572 C1574 1.391 . S
C1573 C1572 1.386 . S
C1573 C1577 1.393 . S
C1574 H1566 0.950 . S
C1574 C1572 1.391 . S
C1574 C1575 1.400 . S
C1575 C1574 1.400 . S
C1575 C1576 1.398 . S
C1575 C1581 1.491 . S
C1576 H1567 0.950 . S
C1576 C1575 1.398 . S
C1576 C1577 1.391 . S
C1577 H1565 0.950 . S
C1577 C1573 1.393 . S
C1577 C1576 1.391 . S
C1578 H1568 0.950 . S
C1578 C1579 1.386 . S
C1578 C1580 1.391 . S
C1579 C1578 1.386 . S
C1579 C1583 1.393 . S
C1580 H1569 0.950 . S
C1580 C1578 1.391 . S
C1580 C1581 1.400 . S
C1581 C1575 1.491 . S
C1581 C1580 1.400 . S
C1581 C1582 1.398 . S
C1582 H1570 0.950 . S
C1582 C1581 1.398 . S
C1582 C1583 1.391 . S
C1583 H1571 0.950 . S
C1583 C1579 1.393 . S
C1583 C1582 1.391 . S
H1584 C1592 0.950 . S
H1585 C1597 0.950 . S
H1586 C1594 0.950 . S
H1587 C1596 0.950 . S
H1588 C1598 0.950 . S
H1589 C1600 0.950 . S
H1590 C1602 0.950 . S
H1591 C1603 0.950 . S
C1592 H1584 0.950 . S
C1592 C1593 1.386 . S
C1592 C1594 1.391 . S
C1593 C1592 1.386 . S
C1593 C1597 1.393 . S
C1594 H1586 0.950 . S
C1594 C1592 1.391 . S
C1594 C1595 1.400 . S
C1595 C1594 1.400 . S
C1595 C1596 1.398 . S
C1595 C1601 1.491 . S
C1596 H1587 0.950 . S
C1596 C1595 1.398 . S
C1596 C1597 1.391 . S
C1597 H1585 0.950 . S
C1597 C1593 1.393 . S
C1597 C1596 1.391 . S
C1598 H1588 0.950 . S
C1598 C1599 1.386 . S
C1598 C1600 1.391 . S
C1599 C1598 1.386 . S
C1599 C1603 1.393 . S
C1600 H1589 0.950 . S
C1600 C1598 1.391 . S
C1600 C1601 1.400 . S
C1601 C1595 1.491 . S
C1601 C1600 1.400 . S
C1601 C1602 1.398 . S
C1602 H1590 0.950 . S
C1602 C1601 1.398 . S
C1602 C1603 1.391 . S
C1603 H1591 0.950 . S
C1603 C1599 1.393 . S
C1603 C1602 1.391 . S
H1604 C1612 0.950 . S
H1605 C1617 0.950 . S
H1606 C1614 0.950 . S
H1607 C1616 0.950 . S
H1608 C1618 0.950 . S
H1609 C1620 0.950 . S
H1610 C1622 0.950 . S
H1611 C1623 0.950 . S
C1612 H1604 0.950 . S
C1612 C1613 1.386 . S
C1612 C1614 1.391 . S
C1613 C1612 1.386 . S
C1613 C1617 1.393 . S
C1614 H1606 0.950 . S
C1614 C1612 1.391 . S
C1614 C1615 1.400 . S
C1615 C1614 1.400 . S
C1615 C1616 1.398 . S
C1615 C1621 1.491 . S
C1616 H1607 0.950 . S
C1616 C1615 1.398 . S
C1616 C1617 1.391 . S
C1617 H1605 0.950 . S
C1617 C1613 1.393 . S
C1617 C1616 1.391 . S
C1618 H1608 0.950 . S
C1618 C1619 1.386 . S
C1618 C1620 1.391 . S
C1619 C1618 1.386 . S
C1619 C1623 1.393 . S
C1620 H1609 0.950 . S
C1620 C1618 1.391 . S
C1620 C1621 1.400 . S
C1621 C1615 1.491 . S
C1621 C1620 1.400 . S
C1621 C1622 1.398 . S
C1622 H1610 0.950 . S
C1622 C1621 1.398 . S
C1622 C1623 1.391 . S
C1623 H1611 0.950 . S
C1623 C1619 1.393 . S
C1623 C1622 1.391 . S
H1624 C1632 0.950 . S
H1625 C1637 0.950 . S
H1626 C1634 0.950 . S
H1627 C1636 0.950 . S
H1628 C1638 0.950 . S
H1629 C1640 0.950 . S
H1630 C1642 0.950 . S
H1631 C1643 0.950 . S
C1632 H1624 0.950 . S
C1632 C1633 1.386 . S
C1632 C1634 1.391 . S
C1633 C1632 1.386 . S
C1633 C1637 1.393 . S
C1634 H1626 0.950 . S
C1634 C1632 1.391 . S
C1634 C1635 1.400 . S
C1635 C1634 1.400 . S
C1635 C1636 1.398 . S
C1635 C1641 1.491 . S
C1636 H1627 0.950 . S
C1636 C1635 1.398 . S
C1636 C1637 1.391 . S
C1637 H1625 0.950 . S
C1637 C1633 1.393 . S
C1637 C1636 1.391 . S
C1638 H1628 0.950 . S
C1638 C1639 1.386 . S
C1638 C1640 1.391 . S
C1639 C1638 1.386 . S
C1639 C1643 1.393 . S
C1640 H1629 0.950 . S
C1640 C1638 1.391 . S
C1640 C1641 1.400 . S
C1641 C1635 1.491 . S
C1641 C1640 1.400 . S
C1641 C1642 1.398 . S
C1642 H1630 0.950 . S
C1642 C1641 1.398 . S
C1642 C1643 1.391 . S
C1643 H1631 0.950 . S
C1643 C1639 1.393 . S
C1643 C1642 1.391 . S
H1644 C1652 0.950 . S
H1645 C1657 0.950 . S
H1646 C1654 0.950 . S
H1647 C1656 0.950 . S
H1648 C1658 0.950 . S
H1649 C1660 0.950 . S
H1650 C1662 0.950 . S
H1651 C1663 0.950 . S
C1652 H1644 0.950 . S
C1652 C1653 1.386 . S
C1652 C1654 1.391 . S
C1653 C1652 1.386 . S
C1653 C1657 1.393 . S
C1654 H1646 0.950 . S
C1654 C1652 1.391 . S
C1654 C1655 1.400 . S
C1655 C1654 1.400 . S
C1655 C1656 1.398 . S
C1655 C1661 1.491 . S
C1656 H1647 0.950 . S
C1656 C1655 1.398 . S
C1656 C1657 1.391 . S
C1657 H1645 0.950 . S
C1657 C1653 1.393 . S
C1657 C1656 1.391 . S
C1658 H1648 0.950 . S
C1658 C1659 1.386 . S
C1658 C1660 1.391 . S
C1659 C1658 1.386 . S
C1659 C1663 1.393 . S
C1660 H1649 0.950 . S
C1660 C1658 1.391 . S
C1660 C1661 1.400 . S
C1661 C1655 1.491 . S
C1661 C1660 1.400 . S
C1661 C1662 1.398 . S
C1662 H1650 0.950 . S
C1662 C1661 1.398 . S
C1662 C1663 1.391 . S
C1663 H1651 0.950 . S
C1663 C1659 1.393 . S
C1663 C1662 1.391 . S
H1664 C1672 0.950 . S
H1665 C1677 0.950 . S
H1666 C1674 0.950 . S
H1667 C1676 0.950 . S
H1668 C1678 0.950 . S
H1669 C1680 0.950 . S
H1670 C1682 0.950 . S
H1671 C1683 0.950 . S
C1672 H1664 0.950 . S
C1672 C1673 1.386 . S
C1672 C1674 1.391 . S
C1673 C1672 1.386 . S
C1673 C1677 1.393 . S
C1674 H1666 0.950 . S
C1674 C1672 1.391 . S
C1674 C1675 1.400 . S
C1675 C1674 1.400 . S
C1675 C1676 1.398 . S
C1675 C1681 1.491 . S
C1676 H1667 0.950 . S
C1676 C1675 1.398 . S
C1676 C1677 1.391 . S
C1677 H1665 0.950 . S
C1677 C1673 1.393 . S
C1677 C1676 1.391 . S
C1678 H1668 0.950 . S
C1678 C1679 1.386 . S
C1678 C1680 1.391 . S
C1679 C1678 1.386 . S
C1679 C1683 1.393 . S
C1680 H1669 0.950 . S
C1680 C1678 1.391 . S
C1680 C1681 1.400 . S
C1681 C1675 1.491 . S
C1681 C1680 1.400 . S
C1681 C1682 1.398 . S
C1682 H1670 0.950 . S
C1682 C1681 1.398 . S
C1682 C1683 1.391 . S
C1683 H1671 0.950 . S
C1683 C1679 1.393 . S
C1683 C1682 1.391 . S
H1684 C1692 0.950 . S
H1685 C1697 0.950 . S
H1686 C1694 0.950 . S
H1687 C1696 0.950 . S
H1688 C1698 0.950 . S
H1689 C1700 0.950 . S
H1690 C1702 0.950 . S
H1691 C1703 0.950 . S
C1692 H1684 0.950 . S
C1692 C1693 1.386 . S
C1692 C1694 1.391 . S
C1693 C1692 1.386 . S
C1693 C1697 1.393 . S
C1694 H1686 0.950 . S
C1694 C1692 1.391 . S
C1694 C1695 1.400 . S
C1695 C1694 1.400 . S
C1695 C1696 1.398 . S
C1695 C1701 1.491 . S
C1696 H1687 0.950 . S
C1696 C1695 1.398 . S
C1696 C1697 1.391 . S
C1697 H1685 0.950 . S
C1697 C1693 1.393 . S
C1697 C1696 1.391 . S
C1698 H1688 0.950 . S
C1698 C1699 1.386 . S
C1698 C1700 1.391 . S
C1699 C1698 1.386 . S
C1699 C1703 1.393 . S
C1700 H1689 0.950 . S
C1700 C1698 1.391 . S
C1700 C1701 1.400 . S
C1701 C1695 1.491 . S
C1701 C1700 1.400 . S
C1701 C1702 1.398 . S
C1702 H1690 0.950 . S
C1702 C1701 1.398 . S
C1702 C1703 1.391 . S
C1703 H1691 0.950 . S
C1703 C1699 1.393 . S
C1703 C1702 1.391 . S
H1704 C1712 0.950 . S
H1705 C1717 0.950 . S
H1706 C1714 0.950 . S
H1707 C1716 0.950 . S
H1708 C1718 0.950 . S
H1709 C1720 0.950 . S
H1710 C1722 0.950 . S
H1711 C1723 0.950 . S
C1712 H1704 0.950 . S
C1712 C1713 1.386 . S
C1712 C1714 1.391 . S
C1713 C1712 1.386 . S
C1713 C1717 1.393 . S
C1714 H1706 0.950 . S
C1714 C1712 1.391 . S
C1714 C1715 1.400 . S
C1715 C1714 1.400 . S
C1715 C1716 1.398 . S
C1715 C1721 1.491 . S
C1716 H1707 0.950 . S
C1716 C1715 1.398 . S
C1716 C1717 1.391 . S
C1717 H1705 0.950 . S
C1717 C1713 1.393 . S
C1717 C1716 1.391 . S
C1718 H1708 0.950 . S
C1718 C1719 1.386 . S
C1718 C1720 1.391 . S
C1719 C1718 1.386 . S
C1719 C1723 1.393 . S
C1720 H1709 0.950 . S
C1720 C1718 1.391 . S
C1720 C1721 1.400 . S
C1721 C1715 1.491 . S
C1721 C1720 1.400 . S
C1721 C1722 1.398 . S
C1722 H1710 0.950 . S
C1722 C1721 1.398 . S
C1722 C1723 1.391 . S
C1723 H1711 0.950 . S
C1723 C1719 1.393 . S
C1723 C1722 1.391 . S
H1724 C1732 0.950 . S
H1725 C1737 0.950 . S
H1726 C1734 0.950 . S
H1727 C1736 0.950 . S
H1728 C1738 0.950 . S
H1729 C1740 0.950 . S
H1730 C1742 0.950 . S
H1731 C1743 0.950 . S
C1732 H1724 0.950 . S
C1732 C1733 1.386 . S
C1732 C1734 1.391 . S
C1733 C1732 1.386 . S
C1733 C1737 1.393 . S
C1734 H1726 0.950 . S
C1734 C1732 1.391 . S
C1734 C1735 1.400 . S
C1735 C1734 1.400 . S
C1735 C1736 1.398 . S
C1735 C1741 1.491 . S
C1736 H1727 0.950 . S
C1736 C1735 1.398 . S
C1736 C1737 1.391 . S
C1737 H1725 0.950 . S
C1737 C1733 1.393 . S
C1737 C1736 1.391 . S
C1738 H1728 0.950 . S
C1738 C1739 1.386 . S
C1738 C1740 1.391 . S
C1739 C1738 1.386 . S
C1739 C1743 1.393 . S
C1740 H1729 0.950 . S
C1740 C1738 1.391 . S
C1740 C1741 1.400 . S
C1741 C1735 1.491 . S
C1741 C1740 1.400 . S
C1741 C1742 1.398 . S
C1742 H1730 0.950 . S
C1742 C1741 1.398 . S
C1742 C1743 1.391 . S
C1743 H1731 0.950 . S
C1743 C1739 1.393 . S
C1743 C1742 1.391 . S
H1744 C1752 0.950 . S
H1745 C1757 0.950 . S
H1746 C1754 0.950 . S
H1747 C1756 0.950 . S
H1748 C1758 0.950 . S
H1749 C1760 0.950 . S
H1750 C1762 0.950 . S
H1751 C1763 0.950 . S
C1752 H1744 0.950 . S
C1752 C1753 1.386 . S
C1752 C1754 1.391 . S
C1753 C1752 1.386 . S
C1753 C1757 1.393 . S
C1754 H1746 0.950 . S
C1754 C1752 1.391 . S
C1754 C1755 1.400 . S
C1755 C1754 1.400 . S
C1755 C1756 1.398 . S
C1755 C1761 1.491 . S
C1756 H1747 0.950 . S
C1756 C1755 1.398 . S
C1756 C1757 1.391 . S
C1757 H1745 0.950 . S
C1757 C1753 1.393 . S
C1757 C1756 1.391 . S
C1758 H1748 0.950 . S
C1758 C1759 1.386 . S
C1758 C1760 1.391 . S
C1759 C1758 1.386 . S
C1759 C1763 1.393 . S
C1760 H1749 0.950 . S
C1760 C1758 1.391 . S
C1760 C1761 1.400 . S
C1761 C1755 1.491 . S
C1761 C1760 1.400 . S
C1761 C1762 1.398 . S
C1762 H1750 0.950 . S
C1762 C1761 1.398 . S
C1762 C1763 1.391 . S
C1763 H1751 0.950 . S
C1763 C1759 1.393 . S
C1763 C1762 1.391 . S
H1764 C1772 0.950 . S
H1765 C1777 0.950 . S
H1766 C1774 0.950 . S
H1767 C1776 0.950 . S
H1768 C1778 0.950 . S
H1769 C1780 0.950 . S
H1770 C1782 0.950 . S
H1771 C1783 0.950 . S
C1772 H1764 0.950 . S
C1772 C1773 1.386 . S
C1772 C1774 1.391 . S
C1773 C1772 1.386 . S
C1773 C1777 1.393 . S
C1774 H1766 0.950 . S
C1774 C1772 1.391 . S
C1774 C1775 1.400 . S
C1775 C1774 1.400 . S
C1775 C1776 1.398 . S
C1775 C1781 1.491 . S
C1776 H1767 0.950 . S
C1776 C1775 1.398 . S
C1776 C1777 1.391 . S
C1777 H1765 0.950 . S
C1777 C1773 1.393 . S
C1777 C1776 1.391 . S
C1778 H1768 0.950 . S
C1778 C1779 1.386 . S
C1778 C1780 1.391 . S
C1779 C1778 1.386 . S
C1779 C1783 1.393 . S
C1780 H1769 0.950 . S
C1780 C1778 1.391 . S
C1780 C1781 1.400 . S
C1781 C1775 1.491 . S
C1781 C1780 1.400 . S
C1781 C1782 1.398 . S
C1782 H1770 0.950 . S
C1782 C1781 1.398 . S
C1782 C1783 1.391 . S
C1783 H1771 0.950 . S
C1783 C1779 1.393 . S
C1783 C1782 1.391 . S
H1784 C1792 0.950 . S
H1785 C1797 0.950 . S
H1786 C1794 0.950 . S
H1787 C1796 0.950 . S
H1788 C1798 0.950 . S
H1789 C1800 0.950 . S
H1790 C1802 0.950 . S
H1791 C1803 0.950 . S
C1792 H1784 0.950 . S
C1792 C1793 1.386 . S
C1792 C1794 1.391 . S
C1793 C1792 1.386 . S
C1793 C1797 1.393 . S
C1794 H1786 0.950 . S
C1794 C1792 1.391 . S
C1794 C1795 1.400 . S
C1795 C1794 1.400 . S
C1795 C1796 1.398 . S
C1795 C1801 1.491 . S
C1796 H1787 0.950 . S
C1796 C1795 1.398 . S
C1796 C1797 1.391 . S
C1797 H1785 0.950 . S
C1797 C1793 1.393 . S
C1797 C1796 1.391 . S
C1798 H1788 0.950 . S
C1798 C1799 1.386 . S
C1798 C1800 1.391 . S
C1799 C1798 1.386 . S
C1799 C1803 1.393 . S
C1800 H1789 0.950 . S
C1800 C1798 1.391 . S
C1800 C1801 1.400 . S
C1801 C1795 1.491 . S
C1801 C1800 1.400 . S
C1801 C1802 1.398 . S
C1802 H1790 0.950 . S
C1802 C1801 1.398 . S
C1802 C1803 1.391 . S
C1803 H1791 0.950 . S
C1803 C1799 1.393 . S
C1803 C1802 1.391 . S
H1804 C1812 0.950 . S
H1805 C1817 0.950 . S
H1806 C1814 0.950 . S
H1807 C1816 0.950 . S
H1808 C1818 0.950 . S
H1809 C1820 0.950 . S
H1810 C1822 0.950 . S
H1811 C1823 0.950 . S
C1812 H1804 0.950 . S
C1812 C1813 1.386 . S
C1812 C1814 1.391 . S
C1813 C1812 1.386 . S
C1813 C1817 1.393 . S
C1814 H1806 0.950 . S
C1814 C1812 1.391 . S
C1814 C1815 1.400 . S
C1815 C1814 1.400 . S
C1815 C1816 1.398 . S
C1815 C1821 1.491 . S
C1816 H1807 0.950 . S
C1816 C1815 1.398 . S
C1816 C1817 1.391 . S
C1817 H1805 0.950 . S
C1817 C1813 1.393 . S
C1817 C1816 1.391 . S
C1818 H1808 0.950 . S
C1818 C1819 1.386 . S
C1818 C1820 1.391 . S
C1819 C1818 1.386 . S
C1819 C1823 1.393 . S
C1820 H1809 0.950 . S
C1820 C1818 1.391 . S
C1820 C1821 1.400 . S
C1821 C1815 1.491 . S
C1821 C1820 1.400 . S
C1821 C1822 1.398 . S
C1822 H1810 0.950 . S
C1822 C1821 1.398 . S
C1822 C1823 1.391 . S
C1823 H1811 0.950 . S
C1823 C1819 1.393 . S
C1823 C1822 1.391 . S
C879 C689 1.650 . S
C873 C74 1.644 . S
C899 C694 1.242 . S
C893 C153 1.171 . S
C919 C695 1.610 . S
C913 C231 1.578 . S
C933 C310 0.787 . S
C939 C699 0.568 . S
C953 C394 1.193 . S
C959 C702 1.270 . S
C979 C703 1.606 . S
C973 C494 1.572 . S
C993 C573 0.803 . S
C999 C680 0.601 . S
C1013 C651 1.630 . S
C1019 C696 1.653 . S
C1039 C734 2.360 . S
C1033 C56 2.442 . S
C1053 C151 1.574 . S
C1059 C760 1.549 . S
C1079 C712 1.238 . S
C1073 C237 1.170 . S
C1099 C767 1.562 . S
C1093 C326 1.554 . S
C1113 C410 1.576 . S
C1119 C721 1.569 . S
C1139 C763 2.352 . S
C1133 C476 2.431 . S
C1153 C571 1.597 . S
C1159 C727 1.554 . S
C1173 C657 1.174 . S
C1179 C758 1.226 . S
C1193 C58 1.166 . S
C1199 C766 1.234 . S
C1213 C392 1.574 . S
C1219 C753 1.543 . S
C1239 C731 1.254 . S
C1233 C478 1.209 . S
C1259 C759 1.548 . S
C1253 C567 1.540 . S
C1273 C655 2.443 . S
C1279 C726 2.346 . S
C1293 C235 2.429 . S
C1299 C744 2.337 . S
C1319 C735 1.569 . S
C1313 C308 1.595 . S
C1333 C147 1.578 . S
C1339 C728 1.572 . S
C1353 C662 1.602 . S
C1359 C790 1.579 . S
C1373 C405 1.152 . S
C1379 C785 1.233 . S
C1399 C799 1.531 . S
C1393 C483 1.554 . S
C1419 C776 0.364 . S
C1413 C562 0.806 . S
C1433 C142 1.143 . S
C1439 C792 1.236 . S
C1459 C791 1.514 . S
C1453 C242 1.571 . S
C1473 C321 0.830 . S
C1479 C795 0.407 . S
C1493 C63 1.603 . S
C1499 C798 1.576 . S
C1513 C644 2.450 . S
C1519 C824 2.411 . S
C1539 C840 1.521 . S
C1533 C403 1.586 . S
C1553 C489 1.178 . S
C1559 C822 1.256 . S
C1573 C578 1.564 . S
C1579 C855 1.558 . S
C1599 C831 1.527 . S
C1593 C158 1.557 . S
C1613 C224 2.461 . S
C1619 C849 2.389 . S
C1639 C827 1.495 . S
C1633 C319 1.575 . S
C1659 C862 1.278 . S
C1653 C69 1.186 . S
C1679 C854 1.253 . S
C1673 C646 1.229 . S
C1693 C140 1.584 . S
C1699 C859 1.503 . S
C1713 C226 1.221 . S
C1719 C830 1.274 . S
C1739 C863 1.557 . S
C1733 C315 1.567 . S
C1753 C67 2.452 . S
C1759 C817 2.397 . S
C1773 C487 2.463 . S
C1779 C856 2.397 . S
C1799 C808 1.509 . S
C1793 C560 1.580 . S
C1819 C823 1.548 . S
C1813 C399 1.552 . S
