# Generated by pormake.
# Topology gar, (4,6)-cn, num edge types: 1
# Building blocks:
#     Node 0, Type 0, BuildingBlock: KUFVIS_clean_sbu_0, # of connection points: 4
#     Node 1, Type 0, BuildingBlock: KUFVIS_clean_sbu_0, # of connection points: 4
#     Node 2, Type 0, BuildingBlock: KUFVIS_clean_sbu_0, # of connection points: 4
#     Node 3, Type 0, BuildingBlock: KUFVIS_clean_sbu_0, # of connection points: 4
#     Node 4, Type 0, BuildingBlock: KUFVIS_clean_sbu_0, # of connection points: 4
#     Node 5, Type 0, BuildingBlock: KUFVIS_clean_sbu_0, # of connection points: 4
#     Node 6, Type 0, BuildingBlock: KUFVIS_clean_sbu_0, # of connection points: 4
#     Node 7, Type 0, BuildingBlock: KUFVIS_clean_sbu_0, # of connection points: 4
#     Node 8, Type 0, BuildingBlock: KUFVIS_clean_sbu_0, # of connection points: 4
#     Node 9, Type 0, BuildingBlock: KUFVIS_clean_sbu_0, # of connection points: 4
#     Node 10, Type 0, BuildingBlock: KUFVIS_clean_sbu_0, # of connection points: 4
#     Node 11, Type 0, BuildingBlock: KUFVIS_clean_sbu_0, # of connection points: 4
#     Node 12, Type 0, BuildingBlock: KUFVIS_clean_sbu_0, # of connection points: 4
#     Node 13, Type 0, BuildingBlock: KUFVIS_clean_sbu_0, # of connection points: 4
#     Node 14, Type 0, BuildingBlock: KUFVIS_clean_sbu_0, # of connection points: 4
#     Node 15, Type 0, BuildingBlock: KUFVIS_clean_sbu_0, # of connection points: 4
#     Node 16, Type 0, BuildingBlock: KUFVIS_clean_sbu_0, # of connection points: 4
#     Node 17, Type 0, BuildingBlock: KUFVIS_clean_sbu_0, # of connection points: 4
#     Node 18, Type 0, BuildingBlock: KUFVIS_clean_sbu_0, # of connection points: 4
#     Node 19, Type 0, BuildingBlock: KUFVIS_clean_sbu_0, # of connection points: 4
#     Node 20, Type 0, BuildingBlock: KUFVIS_clean_sbu_0, # of connection points: 4
#     Node 21, Type 0, BuildingBlock: KUFVIS_clean_sbu_0, # of connection points: 4
#     Node 22, Type 0, BuildingBlock: KUFVIS_clean_sbu_0, # of connection points: 4
#     Node 23, Type 0, BuildingBlock: KUFVIS_clean_sbu_0, # of connection points: 4
#     Node 24, Type 1, BuildingBlock: KUMBOL_clean_sbu_1, # of connection points: 6
#     Node 25, Type 1, BuildingBlock: KUMBOL_clean_sbu_1, # of connection points: 6
#     Node 26, Type 1, BuildingBlock: KUMBOL_clean_sbu_1, # of connection points: 6
#     Node 27, Type 1, BuildingBlock: KUMBOL_clean_sbu_1, # of connection points: 6
#     Node 28, Type 1, BuildingBlock: KUMBOL_clean_sbu_1, # of connection points: 6
#     Node 29, Type 1, BuildingBlock: KUMBOL_clean_sbu_1, # of connection points: 6
#     Node 30, Type 1, BuildingBlock: KUMBOL_clean_sbu_1, # of connection points: 6
#     Node 31, Type 1, BuildingBlock: KUMBOL_clean_sbu_1, # of connection points: 6
#     Node 32, Type 1, BuildingBlock: KUMBOL_clean_sbu_1, # of connection points: 6
#     Node 33, Type 1, BuildingBlock: KUMBOL_clean_sbu_1, # of connection points: 6
#     Node 34, Type 1, BuildingBlock: KUMBOL_clean_sbu_1, # of connection points: 6
#     Node 35, Type 1, BuildingBlock: KUMBOL_clean_sbu_1, # of connection points: 6
#     Node 36, Type 1, BuildingBlock: KUMBOL_clean_sbu_1, # of connection points: 6
#     Node 37, Type 1, BuildingBlock: KUMBOL_clean_sbu_1, # of connection points: 6
#     Node 38, Type 1, BuildingBlock: KUMBOL_clean_sbu_1, # of connection points: 6
#     Node 39, Type 1, BuildingBlock: KUMBOL_clean_sbu_1, # of connection points: 6
#     Edge 40, Type (0, 1), BuildingBlock: XUDNAN_clean_linker_2, # of connection points: 2
#     Edge 41, Type (0, 1), BuildingBlock: XUDNAN_clean_linker_2, # of connection points: 2
#     Edge 42, Type (0, 1), BuildingBlock: XUDNAN_clean_linker_2, # of connection points: 2
#     Edge 43, Type (0, 1), BuildingBlock: XUDNAN_clean_linker_2, # of connection points: 2
#     Edge 44, Type (0, 1), BuildingBlock: XUDNAN_clean_linker_2, # of connection points: 2
#     Edge 45, Type (0, 1), BuildingBlock: XUDNAN_clean_linker_2, # of connection points: 2
#     Edge 46, Type (0, 1), BuildingBlock: XUDNAN_clean_linker_2, # of connection points: 2
#     Edge 47, Type (0, 1), BuildingBlock: XUDNAN_clean_linker_2, # of connection points: 2
#     Edge 48, Type (0, 1), BuildingBlock: XUDNAN_clean_linker_2, # of connection points: 2
#     Edge 49, Type (0, 1), BuildingBlock: XUDNAN_clean_linker_2, # of connection points: 2
#     Edge 50, Type (0, 1), BuildingBlock: XUDNAN_clean_linker_2, # of connection points: 2
#     Edge 51, Type (0, 1), BuildingBlock: XUDNAN_clean_linker_2, # of connection points: 2
#     Edge 52, Type (0, 1), BuildingBlock: XUDNAN_clean_linker_2, # of connection points: 2
#     Edge 53, Type (0, 1), BuildingBlock: XUDNAN_clean_linker_2, # of connection points: 2
#     Edge 54, Type (0, 1), BuildingBlock: XUDNAN_clean_linker_2, # of connection points: 2
#     Edge 55, Type (0, 1), BuildingBlock: XUDNAN_clean_linker_2, # of connection points: 2
#     Edge 56, Type (0, 1), BuildingBlock: XUDNAN_clean_linker_2, # of connection points: 2
#     Edge 57, Type (0, 1), BuildingBlock: XUDNAN_clean_linker_2, # of connection points: 2
#     Edge 58, Type (0, 1), BuildingBlock: XUDNAN_clean_linker_2, # of connection points: 2
#     Edge 59, Type (0, 1), BuildingBlock: XUDNAN_clean_linker_2, # of connection points: 2
#     Edge 60, Type (0, 1), BuildingBlock: XUDNAN_clean_linker_2, # of connection points: 2
#     Edge 61, Type (0, 1), BuildingBlock: XUDNAN_clean_linker_2, # of connection points: 2
#     Edge 62, Type (0, 1), BuildingBlock: XUDNAN_clean_linker_2, # of connection points: 2
#     Edge 63, Type (0, 1), BuildingBlock: XUDNAN_clean_linker_2, # of connection points: 2
#     Edge 64, Type (0, 1), BuildingBlock: XUDNAN_clean_linker_2, # of connection points: 2
#     Edge 65, Type (0, 1), BuildingBlock: XUDNAN_clean_linker_2, # of connection points: 2
#     Edge 66, Type (0, 1), BuildingBlock: XUDNAN_clean_linker_2, # of connection points: 2
#     Edge 67, Type (0, 1), BuildingBlock: XUDNAN_clean_linker_2, # of connection points: 2
#     Edge 68, Type (0, 1), BuildingBlock: XUDNAN_clean_linker_2, # of connection points: 2
#     Edge 69, Type (0, 1), BuildingBlock: XUDNAN_clean_linker_2, # of connection points: 2
#     Edge 70, Type (0, 1), BuildingBlock: XUDNAN_clean_linker_2, # of connection points: 2
#     Edge 71, Type (0, 1), BuildingBlock: XUDNAN_clean_linker_2, # of connection points: 2
#     Edge 72, Type (0, 1), BuildingBlock: XUDNAN_clean_linker_2, # of connection points: 2
#     Edge 73, Type (0, 1), BuildingBlock: XUDNAN_clean_linker_2, # of connection points: 2
#     Edge 74, Type (0, 1), BuildingBlock: XUDNAN_clean_linker_2, # of connection points: 2
#     Edge 75, Type (0, 1), BuildingBlock: XUDNAN_clean_linker_2, # of connection points: 2
#     Edge 76, Type (0, 1), BuildingBlock: XUDNAN_clean_linker_2, # of connection points: 2
#     Edge 77, Type (0, 1), BuildingBlock: XUDNAN_clean_linker_2, # of connection points: 2
#     Edge 78, Type (0, 1), BuildingBlock: XUDNAN_clean_linker_2, # of connection points: 2
#     Edge 79, Type (0, 1), BuildingBlock: XUDNAN_clean_linker_2, # of connection points: 2
#     Edge 80, Type (0, 1), BuildingBlock: XUDNAN_clean_linker_2, # of connection points: 2
#     Edge 81, Type (0, 1), BuildingBlock: XUDNAN_clean_linker_2, # of connection points: 2
#     Edge 82, Type (0, 1), BuildingBlock: XUDNAN_clean_linker_2, # of connection points: 2
#     Edge 83, Type (0, 1), BuildingBlock: XUDNAN_clean_linker_2, # of connection points: 2
#     Edge 84, Type (0, 1), BuildingBlock: XUDNAN_clean_linker_2, # of connection points: 2
#     Edge 85, Type (0, 1), BuildingBlock: XUDNAN_clean_linker_2, # of connection points: 2
#     Edge 86, Type (0, 1), BuildingBlock: XUDNAN_clean_linker_2, # of connection points: 2
#     Edge 87, Type (0, 1), BuildingBlock: XUDNAN_clean_linker_2, # of connection points: 2
#     Edge 88, Type (0, 1), BuildingBlock: XUDNAN_clean_linker_2, # of connection points: 2
#     Edge 89, Type (0, 1), BuildingBlock: XUDNAN_clean_linker_2, # of connection points: 2
#     Edge 90, Type (0, 1), BuildingBlock: XUDNAN_clean_linker_2, # of connection points: 2
#     Edge 91, Type (0, 1), BuildingBlock: XUDNAN_clean_linker_2, # of connection points: 2
#     Edge 92, Type (0, 1), BuildingBlock: XUDNAN_clean_linker_2, # of connection points: 2
#     Edge 93, Type (0, 1), BuildingBlock: XUDNAN_clean_linker_2, # of connection points: 2
#     Edge 94, Type (0, 1), BuildingBlock: XUDNAN_clean_linker_2, # of connection points: 2
#     Edge 95, Type (0, 1), BuildingBlock: XUDNAN_clean_linker_2, # of connection points: 2
#     Edge 96, Type (0, 1), BuildingBlock: XUDNAN_clean_linker_2, # of connection points: 2
#     Edge 97, Type (0, 1), BuildingBlock: XUDNAN_clean_linker_2, # of connection points: 2
#     Edge 98, Type (0, 1), BuildingBlock: XUDNAN_clean_linker_2, # of connection points: 2
#     Edge 99, Type (0, 1), BuildingBlock: XUDNAN_clean_linker_2, # of connection points: 2
#     Edge 100, Type (0, 1), BuildingBlock: XUDNAN_clean_linker_2, # of connection points: 2
#     Edge 101, Type (0, 1), BuildingBlock: XUDNAN_clean_linker_2, # of connection points: 2
#     Edge 102, Type (0, 1), BuildingBlock: XUDNAN_clean_linker_2, # of connection points: 2
#     Edge 103, Type (0, 1), BuildingBlock: XUDNAN_clean_linker_2, # of connection points: 2
#     Edge 104, Type (0, 1), BuildingBlock: XUDNAN_clean_linker_2, # of connection points: 2
#     Edge 105, Type (0, 1), BuildingBlock: XUDNAN_clean_linker_2, # of connection points: 2
#     Edge 106, Type (0, 1), BuildingBlock: XUDNAN_clean_linker_2, # of connection points: 2
#     Edge 107, Type (0, 1), BuildingBlock: XUDNAN_clean_linker_2, # of connection points: 2
#     Edge 108, Type (0, 1), BuildingBlock: XUDNAN_clean_linker_2, # of connection points: 2
#     Edge 109, Type (0, 1), BuildingBlock: XUDNAN_clean_linker_2, # of connection points: 2
#     Edge 110, Type (0, 1), BuildingBlock: XUDNAN_clean_linker_2, # of connection points: 2
#     Edge 111, Type (0, 1), BuildingBlock: XUDNAN_clean_linker_2, # of connection points: 2
#     Edge 112, Type (0, 1), BuildingBlock: XUDNAN_clean_linker_2, # of connection points: 2
#     Edge 113, Type (0, 1), BuildingBlock: XUDNAN_clean_linker_2, # of connection points: 2
#     Edge 114, Type (0, 1), BuildingBlock: XUDNAN_clean_linker_2, # of connection points: 2
#     Edge 115, Type (0, 1), BuildingBlock: XUDNAN_clean_linker_2, # of connection points: 2
#     Edge 116, Type (0, 1), BuildingBlock: XUDNAN_clean_linker_2, # of connection points: 2
#     Edge 117, Type (0, 1), BuildingBlock: XUDNAN_clean_linker_2, # of connection points: 2
#     Edge 118, Type (0, 1), BuildingBlock: XUDNAN_clean_linker_2, # of connection points: 2
#     Edge 119, Type (0, 1), BuildingBlock: XUDNAN_clean_linker_2, # of connection points: 2
#     Edge 120, Type (0, 1), BuildingBlock: XUDNAN_clean_linker_2, # of connection points: 2
#     Edge 121, Type (0, 1), BuildingBlock: XUDNAN_clean_linker_2, # of connection points: 2
#     Edge 122, Type (0, 1), BuildingBlock: XUDNAN_clean_linker_2, # of connection points: 2
#     Edge 123, Type (0, 1), BuildingBlock: XUDNAN_clean_linker_2, # of connection points: 2
#     Edge 124, Type (0, 1), BuildingBlock: XUDNAN_clean_linker_2, # of connection points: 2
#     Edge 125, Type (0, 1), BuildingBlock: XUDNAN_clean_linker_2, # of connection points: 2
#     Edge 126, Type (0, 1), BuildingBlock: XUDNAN_clean_linker_2, # of connection points: 2
#     Edge 127, Type (0, 1), BuildingBlock: XUDNAN_clean_linker_2, # of connection points: 2
#     Edge 128, Type (0, 1), BuildingBlock: XUDNAN_clean_linker_2, # of connection points: 2
#     Edge 129, Type (0, 1), BuildingBlock: XUDNAN_clean_linker_2, # of connection points: 2
#     Edge 130, Type (0, 1), BuildingBlock: XUDNAN_clean_linker_2, # of connection points: 2
#     Edge 131, Type (0, 1), BuildingBlock: XUDNAN_clean_linker_2, # of connection points: 2
#     Edge 132, Type (0, 1), BuildingBlock: XUDNAN_clean_linker_2, # of connection points: 2
#     Edge 133, Type (0, 1), BuildingBlock: XUDNAN_clean_linker_2, # of connection points: 2
#     Edge 134, Type (0, 1), BuildingBlock: XUDNAN_clean_linker_2, # of connection points: 2
#     Edge 135, Type (0, 1), BuildingBlock: XUDNAN_clean_linker_2, # of connection points: 2
# Relax obj value: 0.066
# Max RMSD: 0.181
# Mean RMSD: 0.108
data_MOF--net-gar--node1-KUFVIS_clean_sbu_0--node2-KUMBOL_clean_sbu_1--edge1-XUDNAN_clean_linker_2
_symmetry_space_group_name_H-M    P1
_symmetry_Int_Tables_number       1
_symmetry_cell_setting            triclinic
loop_
_symmetry_equiv_pos_as_xyz
'x, y, z'
_cell_length_a     59.477254
_cell_length_b     59.943345
_cell_length_c     57.14834
_cell_angle_alpha  96.183444
_cell_angle_beta   96.200466
_cell_angle_gamma 101.58682
loop_
_atom_site_label
_atom_site_type_symbol
_atom_site_fract_x
_atom_site_fract_y
_atom_site_fract_z
_atom_type_partial_charge
Mn0 Mn 0.04947 0.31507 0.37544 0.0
Mn1 Mn 0.05002 0.34967 0.33337 0.0
C2 C 0.01243 0.3196 0.35664 0.0
C3 C 0.05034 0.27936 0.38872 0.0
C4 C 0.05891 0.36842 0.38685 0.0
O5 O 0.08353 0.31762 0.36558 0.0
O6 O 0.08098 0.33902 0.33616 0.0
C7 C 0.05091 0.31648 0.29128 0.0
N8 N 0.04028 0.33162 0.30292 0.0
C9 C 1.00936 0.32528 0.27049 0.0
C10 C 0.02007 0.30976 0.25812 0.0
C11 C 0.04092 0.30532 0.26858 0.0
C12 C 0.02012 0.33588 0.29308 0.0
H13 H 0.06693 0.31295 0.29919 0.0
C14 C 0.09222 0.32669 0.34816 0.0
O15 O 0.05731 0.29862 0.4026 0.0
O16 O 0.04345 0.28067 0.36663 0.0
N17 N 0.02234 0.36108 0.32761 0.0
C18 C 0.01524 0.37802 0.34089 0.0
C19 C 0.99491 0.38486 0.33266 0.0
C20 C 0.98222 0.37446 0.31072 0.0
C21 C 0.99025 0.35762 0.297 0.0
C22 C 1.01069 0.35155 0.30608 0.0
H23 H 0.02476 0.3861 0.35779 0.0
O24 O 0.01497 0.3125 0.37718 0.0
O25 O 0.03211 0.32382 0.34745 0.0
O26 O 0.05605 0.34862 0.394 0.0
O27 O 0.05906 0.37034 0.36466 0.0
C28 C 0.97899 0.34696 0.27444 0.0
C29 C 0.98854 0.3308 0.2612 0.0
H30 H 0.01247 0.3012 0.24055 0.0
H31 H 0.04929 0.29336 0.25914 0.0
H32 H 0.98897 0.39803 0.34328 0.0
H33 H 0.96649 0.37972 0.30447 0.0
H34 H 0.96311 0.35125 0.267 0.0
H35 H 0.97983 0.32288 0.24377 0.0
Mn36 Mn 0.03164 0.75286 0.69698 0.0
Mn37 Mn 0.04345 0.79605 0.74296 0.0
C38 C 0.07099 0.76619 0.71748 0.0
C39 C 0.02304 0.71365 0.67708 0.0
C40 C 0.03735 0.80422 0.69142 0.0
O41 O 0.99761 0.75444 0.70663 0.0
O42 O 1.00883 0.78286 0.73736 0.0
C43 C 0.03135 0.76965 0.78234 0.0
N44 N 0.04728 0.78387 0.7723 0.0
C45 C 0.0758 0.78803 0.80664 0.0
C46 C 0.05969 0.77343 0.81735 0.0
C47 C 0.03741 0.76412 0.80511 0.0
C48 C 0.06891 0.79262 0.78377 0.0
H49 H 0.01411 0.76276 0.77312 0.0
C50 C 0.99263 0.76806 0.72384 0.0
O51 O 0.02001 0.73093 0.66639 0.0
O52 O 0.0288 0.71852 0.69997 0.0
N53 N 0.07539 0.81111 0.75066 0.0
C54 C 0.08792 0.82705 0.73912 0.0
C55 C 0.11024 0.83873 0.74935 0.0
C56 C 0.11929 0.83434 0.77167 0.0
C57 C 0.10587 0.81837 0.78355 0.0
C58 C 0.08373 0.80717 0.77238 0.0
H59 H 0.08076 0.83138 0.72257 0.0
O60 O 0.0664 0.75553 0.69603 0.0
O61 O 0.05217 0.76846 0.72683 0.0
O62 O 0.03362 0.78318 0.68261 0.0
O63 O 0.04087 0.81086 0.7137 0.0
C64 C 0.11324 0.81384 0.80645 0.0
C65 C 0.09824 0.79862 0.81797 0.0
H66 H 0.06418 0.7694 0.83506 0.0
H67 H 0.02486 0.75293 0.81333 0.0
H68 H 0.12024 0.85141 0.74027 0.0
H69 H 0.13633 0.84375 0.77976 0.0
H70 H 0.13026 0.82226 0.81553 0.0
H71 H 0.10401 0.79549 0.83571 0.0
Mn72 Mn 0.54887 0.81519 0.87422 0.0
Mn73 Mn 0.54898 0.85171 0.83405 0.0
C74 C 0.51178 0.81978 0.85508 0.0
C75 C 0.55134 0.78116 0.89125 0.0
C76 C 0.55714 0.86847 0.88725 0.0
O77 O 0.58264 0.81743 0.86353 0.0
O78 O 0.58069 0.84232 0.83727 0.0
C79 C 0.55259 0.82113 0.79087 0.0
N80 N 0.54091 0.83508 0.80278 0.0
C81 C 0.51113 0.82955 0.76935 0.0
C82 C 0.52294 0.81527 0.75669 0.0
C83 C 0.54374 0.81104 0.76752 0.0
C84 C 0.5209 0.83934 0.79248 0.0
H85 H 0.56854 0.81773 0.79906 0.0
C86 C 0.59178 0.82873 0.84763 0.0
O87 O 0.55822 0.80151 0.90267 0.0
O88 O 0.54293 0.78 0.869 0.0
N89 N 0.52032 0.86142 0.82839 0.0
C90 C 0.51028 0.87446 0.84346 0.0
C91 C 0.48888 0.87946 0.83565 0.0
C92 C 0.47803 0.8711 0.81244 0.0
C93 C 0.48866 0.85772 0.79727 0.0
C94 C 0.51001 0.85326 0.80604 0.0
H95 H 0.51831 0.88079 0.86142 0.0
O96 O 0.51425 0.81326 0.87596 0.0
O97 O 0.5315 0.82369 0.84596 0.0
O98 O 0.55557 0.8481 0.89228 0.0
O99 O 0.55655 0.87235 0.86566 0.0
C100 C 0.47864 0.84821 0.77397 0.0
C101 C 0.4899 0.8342 0.75999 0.0
H102 H 0.51612 0.80736 0.73871 0.0
H103 H 0.55292 0.8 0.75789 0.0
H104 H 0.4807 0.88962 0.84756 0.0
H105 H 0.46143 0.87485 0.80654 0.0
H106 H 0.46215 0.85137 0.76672 0.0
H107 H 0.48193 0.82686 0.74215 0.0
Mn108 Mn 0.53183 0.25047 0.19814 0.0
Mn109 Mn 0.48565 0.24046 0.15489 0.0
C110 C 0.51744 0.21201 0.1775 0.0
C111 C 0.5739 0.25725 0.21198 0.0
C112 C 0.48044 0.25399 0.20708 0.0
O113 O 0.53436 0.28202 0.18601 0.0
O114 O 0.50462 0.2724 0.15587 0.0
C115 C 0.50478 0.24421 0.10936 0.0
N116 N 0.49115 0.23191 0.12318 0.0
C117 C 0.47152 0.20503 0.08921 0.0
C118 C 0.48566 0.21727 0.07471 0.0
C119 C 0.5025 0.23685 0.08488 0.0
C120 C 0.47491 0.213 0.11353 0.0
H121 H 0.51685 0.25976 0.11687 0.0
C122 C 0.52222 0.28669 0.1679 0.0
O123 O 0.55907 0.26254 0.22551 0.0
O124 O 0.56456 0.24874 0.19054 0.0
N125 N 0.46684 0.21028 0.15207 0.0
C126 C 0.45663 0.19919 0.16902 0.0
C127 C 0.44079 0.17811 0.16226 0.0
C128 C 0.4353 0.16898 0.13812 0.0
C129 C 0.44618 0.18074 0.12104 0.0
C130 C 0.46237 0.20125 0.12897 0.0
H131 H 0.46047 0.20649 0.1875 0.0
O132 O 0.52633 0.21634 0.19976 0.0
O133 O 0.51397 0.2305 0.16867 0.0
O134 O 0.50187 0.25506 0.21526 0.0
O135 O 0.47374 0.24905 0.18498 0.0
C136 C 0.44167 0.17296 0.09648 0.0
C137 C 0.45424 0.18519 0.08054 0.0
H138 H 0.48379 0.21176 0.05579 0.0
H139 H 0.51335 0.24653 0.0738 0.0
H140 H 0.43255 0.16911 0.17556 0.0
H141 H 0.42282 0.15289 0.13291 0.0
H142 H 0.42897 0.15731 0.08972 0.0
H143 H 0.45102 0.17875 0.06177 0.0
Mn144 Mn 0.07906 0.79958 0.12503 0.0
Mn145 Mn 0.03734 0.78358 0.07755 0.0
C146 C 0.06788 0.75938 0.10756 0.0
C147 C 0.11796 0.80918 0.14705 0.0
C148 C 0.02626 0.79194 0.12793 0.0
O149 O 0.07784 0.83212 0.11253 0.0
O150 O 0.04961 0.8184 0.08194 0.0
C151 C 0.06459 0.79512 0.03849 0.0
N152 N 0.04937 0.77985 0.04814 0.0
C153 C 0.03863 0.75479 0.01105 0.0
C154 C 0.05378 0.77056 1.00049 0.0
C155 C 0.06706 0.79066 0.01436 0.0
C156 C 0.03717 0.76008 0.03518 0.0
H157 H 0.0746 0.81054 0.04917 0.0
C158 C 0.06382 0.8356 0.09482 0.0
O159 O 0.10003 0.81386 0.15577 0.0
O160 O 0.11408 0.80139 0.12453 0.0
N161 N 0.02336 0.7516 0.07024 0.0
C162 C 0.01257 0.73689 0.0841 0.0
C163 C 0.99966 0.71519 0.07365 0.0
C164 C 0.99793 0.70897 0.049 0.0
C165 C 1.01023 0.72402 0.03531 0.0
C166 C 0.02324 0.74512 0.04692 0.0
H167 H 0.01489 0.74134 0.10305 0.0
O168 O 0.07689 0.76635 0.12942 0.0
O169 O 0.06518 0.77651 0.09559 0.0
O170 O 0.0472 0.79876 0.13788 0.0
O171 O 0.02123 0.78574 0.1057 0.0
C172 C 1.01049 0.7188 0.01072 0.0
C173 C 0.0248 0.73412 0.99861 0.0
H174 H 0.0555 0.76732 0.98183 0.0
H175 H 0.07893 0.80281 0.00639 0.0
H176 H 0.9911 0.70333 0.08455 0.0
H177 H 0.98776 0.69233 0.04091 0.0
H178 H 1.00032 0.70275 1.00111 0.0
H179 H 0.02526 0.7297 0.97982 0.0
Mn180 Mn 0.50594 0.77065 0.45289 0.0
Mn181 Mn 0.50766 0.80618 0.40937 0.0
C182 C 0.47063 0.77397 0.42797 0.0
C183 C 0.5098 0.7312 0.46409 0.0
C184 C 0.51628 0.82526 0.46215 0.0
O185 O 0.54032 0.7779 0.44623 0.0
O186 O 0.53633 0.79426 0.41243 0.0
C187 C 0.50656 0.77361 0.36623 0.0
N188 N 0.49747 0.78977 0.37828 0.0
C189 C 0.47113 0.79145 0.34376 0.0
C190 C 0.48006 0.77467 0.33099 0.0
C191 C 0.49776 0.76562 0.34231 0.0
C192 C 0.48021 0.79834 0.36766 0.0
H193 H 0.52051 0.76704 0.37478 0.0
C194 C 0.54811 0.78568 0.42781 0.0
O195 O 0.51348 0.74971 0.47931 0.0
O196 O 0.50357 0.73547 0.44285 0.0
N197 N 0.48102 0.81926 0.40456 0.0
C198 C 0.47429 0.83533 0.41941 0.0
C199 C 0.45787 0.84716 0.41052 0.0
C200 C 0.44856 0.84241 0.38646 0.0
C201 C 0.45498 0.82514 0.37173 0.0
C202 C 0.47178 0.81424 0.38149 0.0
H203 H 0.48185 0.8397 0.43774 0.0
O204 O 0.46976 0.76532 0.44787 0.0
O205 O 0.49161 0.78009 0.4235 0.0
O206 O 0.51042 0.80581 0.47054 0.0
O207 O 0.51808 0.82581 0.44017 0.0
C208 C 0.44576 0.8187 0.34763 0.0
C209 C 0.45363 0.80165 0.33372 0.0
H210 H 0.47351 0.76866 0.31248 0.0
H211 H 0.5048 0.75275 0.33253 0.0
H212 H 0.45276 0.86025 0.42208 0.0
H213 H 0.43638 0.85207 0.37953 0.0
H214 H 0.43258 0.82669 0.33965 0.0
H215 H 0.44628 0.7967 0.31526 0.0
Mn216 Mn 0.5793 0.299 0.62471 0.0
Mn217 Mn 0.53772 0.28448 0.57715 0.0
C218 C 0.5681 0.25909 0.60671 0.0
C219 C 0.61758 0.3079 0.64799 0.0
C220 C 0.52661 0.29105 0.62758 0.0
O221 O 0.57808 0.33163 0.61349 0.0
O222 O 0.54947 0.31952 0.58296 0.0
C223 C 0.56389 0.29887 0.53819 0.0
N224 N 0.54976 0.28237 0.54757 0.0
C225 C 0.53928 0.25856 0.50967 0.0
C226 C 0.55392 0.27521 0.49962 0.0
C227 C 0.5664 0.29536 0.51398 0.0
C228 C 0.5379 0.26279 0.53394 0.0
H229 H 0.57273 0.31476 0.54899 0.0
C230 C 0.5641 0.33604 0.59635 0.0
O231 O 0.59921 0.31228 0.65596 0.0
O232 O 0.61467 0.30127 0.62522 0.0
N233 N 0.52399 0.25265 0.56844 0.0
C234 C 0.51315 0.23724 0.58157 0.0
C235 C 0.49989 0.21603 0.57024 0.0
C236 C 0.49808 0.21093 0.54545 0.0
C237 C 0.51078 0.2265 0.53253 0.0
C238 C 0.52394 0.24717 0.54499 0.0
H239 H 0.51575 0.2408 0.60055 0.0
O240 O 0.57709 0.26601 0.62855 0.0
O241 O 0.56558 0.27639 0.59469 0.0
O242 O 0.54752 0.29783 0.63742 0.0
O243 O 0.52143 0.28514 0.60533 0.0
C244 C 0.51129 0.2222 0.5079 0.0
C245 C 0.52567 0.23814 0.4965 0.0
H246 H 0.55557 0.27277 0.48088 0.0
H247 H 0.57752 0.3084 0.50628 0.0
H248 H 0.49117 0.20367 0.58056 0.0
H249 H 0.48767 0.19464 0.53666 0.0
H250 H 0.50112 0.20645 0.49768 0.0
H251 H 0.52614 0.2345 0.4776 0.0
Mn252 Mn 1.00446 0.2698 0.95368 0.0
Mn253 Mn 1.00953 0.30633 0.91111 0.0
C254 C 0.97067 0.27492 0.92801 0.0
C255 C 1.0069 0.23066 0.9661 0.0
C256 C 0.01622 0.3246 0.96371 0.0
O257 O 0.03885 0.27492 0.94764 0.0
O258 O 0.03696 0.2927 0.91462 0.0
C259 C 1.00791 0.27384 0.86776 0.0
N260 N 0.99953 0.29062 0.87969 0.0
C261 C 0.9757 0.29496 0.84438 0.0
C262 C 0.98394 0.27761 0.83171 0.0
C263 C 0.99996 0.26687 0.84349 0.0
C264 C 0.98366 0.30063 0.86866 0.0
H265 H 0.02072 0.26606 0.87666 0.0
C266 C 0.04736 0.28247 0.9295 0.0
O267 O 1.01024 0.24952 0.98072 0.0
O268 O 1.00122 0.23414 0.94441 0.0
N269 N 0.984 0.32099 0.90575 0.0
C270 C 0.97764 0.33737 0.92052 0.0
C271 C 0.96326 0.35104 0.91123 0.0
C272 C 0.9554 0.34767 0.88683 0.0
C273 C 0.96111 0.32992 0.87213 0.0
C274 C 0.97588 0.31712 0.88235 0.0
H275 H 0.98388 0.34049 0.93918 0.0
O276 O 0.96859 0.26593 0.94762 0.0
O277 O 0.99189 0.28019 0.92413 0.0
O278 O 1.00916 0.30492 0.97122 0.0
O279 O 0.02005 0.3255 0.94227 0.0
C280 C 0.95318 0.32482 0.84763 0.0
C281 C 0.9602 0.30712 0.83382 0.0
H282 H 0.97821 0.27252 0.8129 0.0
H283 H 1.00649 0.25356 0.83379 0.0
H284 H 0.95855 0.36439 0.92279 0.0
H285 H 0.94464 0.35856 0.87964 0.0
H286 H 0.94167 0.33439 0.83924 0.0
H287 H 0.9539 0.30327 0.81502 0.0
Mn288 Mn 0.39692 0.02267 0.31047 0.0
Mn289 Mn 0.35768 0.00823 0.34781 0.0
C290 C 0.38671 0.98579 0.31716 0.0
C291 C 0.40596 0.03004 0.27378 0.0
C292 C 0.40762 0.02982 0.364 0.0
O293 O 0.38291 0.04981 0.31437 0.0
O294 O 0.35688 0.0392 0.33907 0.0
C295 C 0.3153 1.00503 0.31425 0.0
N296 N 0.3285 0.99502 0.32914 0.0
C297 C 0.29934 0.96004 0.32329 0.0
C298 C 0.28542 0.96996 0.3079 0.0
C299 C 0.29349 0.99252 0.30327 0.0
C300 C 0.32111 0.97318 0.33333 0.0
H301 H 0.3213 0.02248 0.31089 0.0
C302 C 0.36715 0.05349 0.32656 0.0
O303 O 0.42019 0.03905 0.29282 0.0
O304 O 0.38624 0.01708 0.27606 0.0
N305 N 0.35614 0.97865 0.35794 0.0
C306 C 0.37069 0.97234 0.37489 0.0
C307 C 0.36513 0.95023 0.38158 0.0
C308 C 0.34436 0.93509 0.37131 0.0
C309 C 0.32914 0.9424 0.35479 0.0
C310 C 0.33571 0.96453 0.34863 0.0
H311 H 0.38647 0.98403 0.38315 0.0
O312 O 0.40592 0.99277 0.30871 0.0
O313 O 0.37344 1.00033 0.32054 0.0
O314 O 0.41379 0.03163 0.34362 0.0
O315 O 0.38729 0.02105 0.368 0.0
C316 C 0.30739 0.92884 0.34475 0.0
C317 C 0.29236 0.93774 0.32927 0.0
H318 H 0.26847 0.96045 0.29962 0.0
H319 H 0.28283 1.00032 0.29146 0.0
H320 H 0.37677 0.94492 0.39471 0.0
H321 H 0.34004 0.91809 0.3766 0.0
H322 H 0.30199 0.9116 0.34893 0.0
H323 H 0.27559 0.92717 0.32184 0.0
Mn324 Mn 0.26489 0.1906 0.52586 0.0
Mn325 Mn 0.25887 0.14632 0.48169 0.0
C326 C 0.22799 0.16629 0.51153 0.0
C327 C 0.27123 0.20729 0.56717 0.0
C328 C 0.26982 0.19618 0.4727 0.0
O329 O 0.29771 0.18374 0.52727 0.0
O330 O 0.29044 0.15228 0.4996 0.0
C331 C 0.26248 0.10732 0.50852 0.0
N332 N 0.25014 0.11726 0.49275 0.0
C333 C 0.2211 0.08231 0.4819 0.0
C334 C 0.23339 0.07174 0.49817 0.0
C335 C 0.2541 0.08434 0.51163 0.0
C336 C 0.23002 0.10539 0.47998 0.0
H337 H 0.27875 0.11675 0.51837 0.0
C338 C 0.30389 0.16666 0.516 0.0
O339 O 0.27579 0.21915 0.54995 0.0
O340 O 0.26326 0.18543 0.56067 0.0
N341 N 0.22887 0.13898 0.46346 0.0
C342 C 0.21902 0.15182 0.44873 0.0
C343 C 0.19841 0.1417 0.43373 0.0
C344 C 0.18836 0.11842 0.43378 0.0
C345 C 0.19858 0.10569 0.44944 0.0
C346 C 0.21889 0.11683 0.46428 0.0
H347 H 0.22696 0.16956 0.44819 0.0
O348 O 0.22986 0.18724 0.52153 0.0
O349 O 0.24771 0.16097 0.50922 0.0
O350 O 0.26863 0.20484 0.49399 0.0
O351 O 0.26737 0.17466 0.46689 0.0
C352 C 0.1896 0.08231 0.45067 0.0
C353 C 0.20069 0.07069 0.46708 0.0
H354 H 0.22721 0.05389 0.50028 0.0
H355 H 0.26379 0.07622 0.52404 0.0
H356 H 0.19052 0.15171 0.42188 0.0
H357 H 0.17267 0.11055 0.42187 0.0
H358 H 0.17405 0.07315 0.43922 0.0
H359 H 0.19351 0.05275 0.46796 0.0
Mn360 Mn 0.13979 0.06337 0.79156 0.0
Mn361 Mn 0.1837 0.07066 0.8365 0.0
C362 C 0.16376 0.10038 0.80524 0.0
C363 C 0.1246 0.05639 0.75013 0.0
C364 C 0.13303 0.05893 0.84416 0.0
O365 O 0.14673 0.03085 0.79167 0.0
O366 O 0.17877 0.03941 0.81898 0.0
C367 C 0.22378 0.06808 0.81057 0.0
N368 N 0.21316 0.07998 0.82603 0.0
C369 C 0.24749 0.10994 0.83671 0.0
C370 C 0.2588 0.09804 0.82085 0.0
C371 C 0.24684 0.07709 0.80762 0.0
C372 C 0.22438 0.10034 0.83853 0.0
H373 H 0.2148 0.05172 0.80078 0.0
C374 C 0.16435 0.02545 0.80302 0.0
O375 O 0.11157 0.05236 0.76663 0.0
O376 O 0.14652 0.06385 0.75746 0.0
N377 N 0.19001 0.10054 0.85437 0.0
C378 C 0.17648 0.10996 0.86865 0.0
C379 C 0.18582 0.1309 0.88316 0.0
C380 C 0.20907 0.14171 0.88314 0.0
C381 C 0.22257 0.13179 0.8681 0.0
C382 C 0.21217 0.11112 0.8537 0.0
H383 H 0.15879 0.10143 0.86923 0.0
O384 O 0.1428 0.09804 0.79464 0.0
O385 O 0.16924 0.08102 0.80844 0.0
O386 O 0.12471 0.0605 0.82286 0.0
O387 O 0.15469 0.06143 0.85044 0.0
C388 C 0.246 0.14145 0.86701 0.0
C389 C 0.25838 0.13068 0.85114 0.0
H390 H 0.2767 0.10475 0.81882 0.0
H391 H 0.25549 0.06773 0.79547 0.0
H392 H 0.17525 0.1385 0.89462 0.0
H393 H 0.21633 0.15769 0.89464 0.0
H394 H 0.2546 0.15731 0.87814 0.0
H395 H 0.27633 0.1384 0.85033 0.0
Mn396 Mn 0.31409 0.93273 0.00578 0.0
Mn397 Mn 0.31873 0.97319 0.96945 0.0
C398 C 0.34981 0.95145 0.99939 0.0
C399 C 0.30962 0.92208 0.04268 0.0
C400 C 0.30187 0.92239 0.95361 0.0
O401 O 0.28259 0.94058 1.00208 0.0
O402 O 0.29139 0.97342 0.98562 0.0
C403 C 0.32681 0.01649 1.00241 0.0
N404 N 0.33411 1.00285 0.98551 0.0
C405 C 0.36683 0.03288 0.98256 0.0
C406 C 0.35984 0.0471 1.00023 0.0
C407 C 0.33979 0.03882 0.01027 0.0
C408 C 0.35354 0.01055 0.97595 0.0
H409 H 0.31099 0.01056 0.0095 0.0
C410 C 0.27826 0.9593 0.99611 0.0
O411 O 0.30317 0.90736 0.02355 0.0
O412 O 0.31831 0.94327 0.04032 0.0
N413 N 0.3455 0.97445 0.95344 0.0
C414 C 0.34978 0.95867 0.93642 0.0
C415 C 0.36876 0.96457 0.92401 0.0
C416 C 0.38287 0.98674 0.92889 0.0
C417 C 0.37833 1.0026 0.94669 0.0
C418 C 0.35937 0.99564 0.95871 0.0
H419 H 0.33859 0.94186 0.93198 0.0
O420 O 0.34742 0.93177 0.00748 0.0
O421 O 0.33128 0.95922 0.99554 0.0
O422 O 0.30803 0.91569 0.97304 0.0
O423 O 0.30299 0.94341 0.95088 0.0
C424 C 0.39164 0.02516 0.95267 0.0
C425 C 0.38609 0.04019 0.97082 0.0
H426 H 0.36956 0.06451 0.00598 0.0
H427 H 0.33408 0.04977 0.0237 0.0
H428 H 0.37224 0.95219 0.91039 0.0
H429 H 0.39728 0.99135 0.91899 0.0
H430 H 0.40628 0.03108 0.94352 0.0
H431 H 0.39656 0.05745 0.97535 0.0
Mn432 Mn 0.31335 0.38473 0.04905 0.0
Mn433 Mn 0.31619 0.42589 0.0125 0.0
C434 C 0.34994 0.40793 0.04406 0.0
C435 C 0.30713 0.37333 0.08803 0.0
C436 C 0.30513 0.3746 0.99442 0.0
O437 O 0.27967 0.38956 0.04214 0.0
O438 O 0.28807 0.42346 0.02776 0.0
C439 C 0.32086 0.46741 0.04731 0.0
N440 N 0.32864 0.45598 0.02903 0.0
C441 C 0.35534 0.49017 0.02335 0.0
C442 C 0.34771 0.50235 0.04219 0.0
C443 C 0.33059 0.49085 0.05441 0.0
C444 C 0.3458 0.46662 0.01786 0.0
H445 H 0.30711 0.45875 0.05614 0.0
C446 C 0.27413 0.40779 0.0355 0.0
O447 O 0.30345 0.35862 0.0689 0.0
O448 O 0.31425 0.3945 0.08454 0.0
N449 N 0.34277 0.43075 0.99609 0.0
C450 C 0.34751 0.41676 0.97766 0.0
C451 C 0.3625 0.426 0.96216 0.0
C452 C 0.37234 0.44961 0.96555 0.0
C453 C 0.36787 0.4636 0.98503 0.0
C454 C 0.35271 0.45343 0.99987 0.0
H455 H 0.33933 0.39881 0.97419 0.0
O456 O 0.34879 0.38902 0.0535 0.0
O457 O 0.33006 0.41277 0.03873 0.0
O458 O 0.31058 0.3678 0.01447 0.0
O459 O 0.30351 0.3954 0.99285 0.0
C460 C 0.37732 0.4874 0.98985 0.0
C461 C 0.37142 0.50059 0.00929 0.0
H462 H 0.35467 0.52059 0.04722 0.0
H463 H 0.32451 0.50016 0.06886 0.0
H464 H 0.36605 0.41504 0.9473 0.0
H465 H 0.38363 0.45676 0.95331 0.0
H466 H 0.38914 0.49572 0.9787 0.0
H467 H 0.37886 0.51885 0.01287 0.0
Mn468 Mn 0.77265 0.14781 0.06991 0.0
Mn469 Mn 0.75508 0.10751 0.02216 0.0
C470 C 0.73494 0.13738 0.05382 0.0
C471 C 0.78042 0.16033 0.10939 0.0
C472 C 0.77556 0.15663 0.01892 0.0
O473 O 0.79987 0.13297 0.07035 0.0
O474 O 0.78687 0.10972 0.03609 0.0
C475 C 0.75729 0.06735 0.04773 0.0
N476 N 0.74516 0.0785 0.03302 0.0
C477 C 0.71372 0.04543 0.02361 0.0
C478 C 0.72585 0.0336 0.03867 0.0
C479 C 0.74761 0.04472 0.05101 0.0
C480 C 0.72382 0.06828 0.02183 0.0
H481 H 0.77431 0.07555 0.05673 0.0
C482 C 0.80228 0.11823 0.05378 0.0
O483 O 0.7898 0.17247 0.0941 0.0
O484 O 0.76743 0.14015 0.10175 0.0
N485 N 0.724 0.10289 0.00676 0.0
C486 C 0.71474 0.11648 0.9925 0.0
C487 C 0.69252 0.10825 0.97976 0.0
C488 C 0.68048 0.0858 0.98099 0.0
C489 C 0.69076 0.07179 0.99498 0.0
C490 C 0.7126 0.08119 0.00793 0.0
H491 H 0.72425 0.13348 0.9909 0.0
O492 O 0.7427 0.15735 0.06635 0.0
O493 O 0.7491 0.12373 0.05148 0.0
O494 O 0.7812 0.16255 0.04109 0.0
O495 O 0.76459 0.13664 0.00942 0.0
C496 C 0.68053 0.04862 0.99599 0.0
C497 C 0.69207 0.03541 0.01018 0.0
H498 H 0.71862 0.01599 0.04088 0.0
H499 H 0.7571 0.03572 0.06267 0.0
H500 H 0.68487 0.11904 0.96867 0.0
H501 H 0.66354 0.07937 0.97077 0.0
H502 H 0.66376 0.04081 0.98598 0.0
H503 H 0.68393 0.01769 0.011 0.0
Mn504 Mn 0.18547 0.56052 0.25086 0.0
Mn505 Mn 0.22798 0.57513 0.29689 0.0
C506 C 0.19811 0.59759 0.26712 0.0
C507 C 0.17205 0.55426 0.21134 0.0
C508 C 0.17891 0.55738 0.3027 0.0
O509 O 0.19886 0.53277 0.24899 0.0
O510 O 0.22256 0.54228 0.28368 0.0
C511 C 0.26694 0.56952 0.27024 0.0
N512 N 0.25697 0.58281 0.28502 0.0
C513 C 0.29204 0.61209 0.29371 0.0
C514 C 0.30266 0.59877 0.27848 0.0
C515 C 0.28998 0.5775 0.26652 0.0
C516 C 0.26882 0.6036 0.29608 0.0
H517 H 0.25747 0.55284 0.26166 0.0
C518 C 0.21217 0.52807 0.26561 0.0
O519 O 0.15957 0.54493 0.22647 0.0
O520 O 0.19272 0.56623 0.21905 0.0
N521 N 0.23497 0.60624 0.31195 0.0
C522 C 0.222 0.61723 0.32556 0.0
C523 C 0.23164 0.6393 0.33764 0.0
C524 C 0.25482 0.64942 0.33639 0.0
C525 C 0.26804 0.6375 0.32285 0.0
C526 C 0.25716 0.616 0.31035 0.0
H527 H 0.20424 0.60947 0.32663 0.0
O528 O 0.17738 0.59075 0.25568 0.0
O529 O 0.21121 0.58269 0.26852 0.0
O530 O 0.17147 0.55172 0.28067 0.0
O531 O 0.19946 0.56808 0.31078 0.0
C532 C 0.29167 0.64596 0.32152 0.0
C533 C 0.30365 0.63331 0.30686 0.0
H534 H 0.32056 0.60466 0.27591 0.0
H535 H 0.2981 0.56707 0.25483 0.0
H536 H 0.22131 0.64838 0.34805 0.0
H537 H 0.2623 0.6663 0.3459 0.0
H538 H 0.30066 0.66239 0.3313 0.0
H539 H 0.3217 0.64019 0.30562 0.0
Mn540 Mn 0.81434 0.88494 0.54912 0.0
Mn541 Mn 0.81879 0.92439 0.50972 0.0
C542 C 0.85073 0.90892 0.54578 0.0
C543 C 0.80929 0.8731 0.58786 0.0
C544 C 0.80914 0.87298 0.49402 0.0
O545 O 0.78114 0.89115 0.54364 0.0
O546 O 0.78791 0.91894 0.5198 0.0
C547 C 0.81287 0.96713 0.5372 0.0
N548 N 0.82567 0.95575 0.52379 0.0
C549 C 0.85168 0.99112 0.51987 0.0
C550 C 0.83891 1.00321 0.53384 0.0
C551 C 0.81947 0.99115 0.5426 0.0
C552 C 0.84427 0.96722 0.51507 0.0
H553 H 0.79762 0.95796 0.5435 0.0
C554 C 0.77481 0.90659 0.532 0.0
O555 O 0.8045 0.85866 0.56853 0.0
O556 O 0.8164 0.89439 0.58472 0.0
N557 N 0.84842 0.93117 0.49906 0.0
C558 C 0.86001 0.91665 0.48793 0.0
C559 C 0.88085 0.92575 0.47961 0.0
C560 C 0.88931 0.94966 0.48253 0.0
C561 C 0.877 0.96422 0.49404 0.0
C562 C 0.85652 0.95414 0.50223 0.0
H563 H 0.8534 0.89829 0.48545 0.0
O564 O 0.84961 0.88912 0.55344 0.0
O565 O 0.83082 0.91356 0.5392 0.0
O566 O 0.8107 0.86652 0.51475 0.0
O567 O 0.81139 0.89394 0.4912 0.0
C568 C 0.88447 0.98831 0.49814 0.0
C569 C 0.87176 1.00176 0.51095 0.0
H570 H 0.84395 0.02172 0.53806 0.0
H571 H 0.80948 1.00038 0.5533 0.0
H572 H 0.89028 0.91438 0.47084 0.0
H573 H 0.90537 0.95662 0.47605 0.0
H574 H 0.90017 0.99665 0.49187 0.0
H575 H 0.87789 0.02024 0.51431 0.0
Mn576 Mn 0.94299 0.01044 0.26683 0.0
Mn577 Mn 0.89833 1.00401 0.29892 0.0
C578 C 0.91998 0.973 0.2676 0.0
C579 C 0.956 0.01815 0.22874 0.0
C580 C 0.94894 0.01576 0.32148 0.0
O581 O 0.93682 0.04319 0.2748 0.0
O582 O 0.90103 0.03298 0.28539 0.0
C583 C 0.85557 1.00271 0.26701 0.0
N584 N 0.86778 0.99267 0.28277 0.0
C585 C 0.83279 0.97071 0.29356 0.0
C586 C 0.81981 0.98053 0.27715 0.0
C587 C 0.83126 0.99633 0.26355 0.0
C588 C 0.85691 0.97687 0.29533 0.0
H589 H 0.86431 0.01604 0.25781 0.0
C590 C 0.91771 0.04786 0.28027 0.0
O591 O 0.97028 0.02179 0.24833 0.0
O592 O 0.93458 0.01077 0.2315 0.0
N593 N 0.89375 0.97615 0.31283 0.0
C594 C 0.90906 0.96668 0.32581 0.0
C595 C 0.90066 0.94872 0.33856 0.0
C596 C 0.87666 0.94119 0.33832 0.0
C597 C 0.86131 0.95097 0.32439 0.0
C598 C 0.87076 0.96777 0.31095 0.0
H599 H 0.92746 0.97278 0.3264 0.0
O600 O 0.94041 0.97593 0.26081 0.0
O601 O 0.9133 0.99192 0.27311 0.0
O602 O 0.95856 0.01176 0.30272 0.0
O603 O 0.92763 0.01652 0.3198 0.0
C604 C 0.83705 0.94508 0.32357 0.0
C605 C 0.82279 0.95517 0.30837 0.0
H606 H 0.80106 0.97614 0.27491 0.0
H607 H 0.82136 1.00419 0.25107 0.0
H608 H 0.91266 0.9411 0.34901 0.0
H609 H 0.87023 0.92784 0.34877 0.0
H610 H 0.82917 0.93256 0.33424 0.0
H611 H 0.80415 0.95029 0.30763 0.0
Mn612 Mn 0.27368 0.64795 0.56229 0.0
Mn613 Mn 0.26542 0.59975 0.52378 0.0
C614 C 0.23717 0.62828 0.54754 0.0
C615 C 0.27883 0.66736 0.59949 0.0
C616 C 0.28345 0.64727 0.51188 0.0
O617 O 0.30433 0.63875 0.56641 0.0
O618 O 0.29492 0.60329 0.54481 0.0
C619 C 0.25956 0.5631 0.55481 0.0
N620 N 0.2509 0.57328 0.53672 0.0
C621 C 0.21578 0.54398 0.52929 0.0
C622 C 0.22431 0.53323 0.5479 0.0
C623 C 0.24628 0.54284 0.56071 0.0
C624 C 0.22983 0.56407 0.52415 0.0
H625 H 0.27649 0.5704 0.56461 0.0
C626 C 0.30853 0.61928 0.55953 0.0
O627 O 0.28603 0.67736 0.58185 0.0
O628 O 0.26983 0.64545 0.59594 0.0
N629 N 0.23677 0.59537 0.50319 0.0
C630 C 0.23055 0.60853 0.48661 0.0
C631 C 0.20889 0.60154 0.47251 0.0
C632 C 0.19387 0.5811 0.47555 0.0
C633 C 0.20046 0.56805 0.49301 0.0
C634 C 0.22233 0.57581 0.50644 0.0
H635 H 0.24202 0.62422 0.48407 0.0
O636 O 0.24054 0.64992 0.55576 0.0
O637 O 0.25523 0.61939 0.54795 0.0
O638 O 0.27983 0.65793 0.53094 0.0
O639 O 0.28003 0.62546 0.50781 0.0
C640 C 0.18612 0.54776 0.49774 0.0
C641 C 0.19377 0.53574 0.51588 0.0
H642 H 0.2141 0.51765 0.55256 0.0
H643 H 0.25297 0.53462 0.57507 0.0
H644 H 0.20382 0.61183 0.45925 0.0
H645 H 0.17725 0.57569 0.46451 0.0
H646 H 0.1691 0.54135 0.48768 0.0
H647 H 0.1825 0.52027 0.5195 0.0
Mn648 Mn 0.443 0.51201 0.76532 0.0
Mn649 Mn 0.40278 0.50792 0.80421 0.0
C650 C 0.41939 0.47591 0.77042 0.0
C651 C 0.45429 0.51709 0.72616 0.0
C652 C 0.4546 0.51739 0.82068 0.0
O653 O 0.43716 0.54522 0.7704 0.0
O654 O 0.40897 0.5382 0.79369 0.0
C655 C 0.36208 0.5121 0.77149 0.0
N656 N 0.37214 0.50044 0.78734 0.0
C657 C 0.33614 0.47351 0.78709 0.0
C658 C 0.3254 0.48515 0.77067 0.0
C659 C 0.33846 0.50445 0.76275 0.0
C660 C 0.35983 0.48162 0.79474 0.0
H661 H 0.37198 0.52717 0.76568 0.0
C662 C 0.42144 0.55142 0.78181 0.0
O663 O 0.46916 0.52106 0.74526 0.0
O664 O 0.43293 0.51019 0.72967 0.0
N665 N 0.39469 0.47912 0.81595 0.0
C666 C 0.40753 0.47021 0.83226 0.0
C667 C 0.39675 0.452 0.84341 0.0
C668 C 0.37284 0.44314 0.83768 0.0
C669 C 0.36009 0.45206 0.82031 0.0
C670 C 0.37169 0.47061 0.81026 0.0
H671 H 0.42569 0.4774 0.83728 0.0
O672 O 0.43885 0.47686 0.76179 0.0
O673 O 0.4146 0.49565 0.77597 0.0
O674 O 0.4612 0.51628 0.79992 0.0
O675 O 0.43343 0.51525 0.82382 0.0
C676 C 0.33619 0.44372 0.8131 0.0
C677 C 0.32428 0.45425 0.79625 0.0
H678 H 0.30713 0.47947 0.7641 0.0
H679 H 0.33028 0.51357 0.75013 0.0
H680 H 0.40677 0.44509 0.85669 0.0
H681 H 0.36444 0.42946 0.84674 0.0
H682 H 0.32682 0.42923 0.82041 0.0
H683 H 0.30594 0.44759 0.79071 0.0
Mn684 Mn 0.68207 0.06099 0.75154 0.0
Mn685 Mn 0.73087 0.07843 0.78979 0.0
C686 C 0.69396 0.10007 0.76565 0.0
C687 C 0.66788 0.04912 0.7127 0.0
C688 C 0.68322 0.05548 0.80205 0.0
O689 O 0.69477 0.03184 0.75429 0.0
O690 O 0.72922 0.0537 0.76443 0.0
C691 C 0.7658 0.09054 0.75747 0.0
N692 N 0.75511 0.09679 0.77634 0.0
C693 C 0.78295 0.13264 0.78603 0.0
C694 C 0.79402 0.12665 0.76658 0.0
C695 C 0.7854 0.1055 0.75226 0.0
C696 C 0.76327 0.11712 0.79026 0.0
H697 H 0.7598 0.07407 0.74665 0.0
C698 C 0.71601 0.03424 0.76172 0.0
O699 O 0.65577 0.0427 0.72932 0.0
O700 O 0.68834 0.06219 0.71854 0.0
N701 N 0.73496 0.1043 0.81388 0.0
C702 C 0.72697 0.10482 0.83535 0.0
C703 C 0.73432 0.12449 0.85224 0.0
C704 C 0.75145 0.14272 0.8478 0.0
C705 C 0.76147 0.14076 0.82679 0.0
C706 C 0.75265 0.12111 0.81012 0.0
H707 H 0.71601 0.08991 0.84008 0.0
O708 O 0.67409 0.09217 0.75273 0.0
O709 O 0.70711 0.0856 0.76774 0.0
O710 O 0.67102 0.05697 0.78284 0.0
O711 O 0.70559 0.06028 0.80546 0.0
C712 C 0.7806 0.15703 0.82232 0.0
C713 C 0.79136 0.15295 0.80197 0.0
H714 H 0.80945 0.13795 0.76278 0.0
H715 H 0.7941 0.10053 0.73748 0.0
H716 H 0.72752 0.12519 0.86906 0.0
H717 H 0.75759 0.15761 0.86115 0.0
H718 H 0.78767 0.17239 0.83483 0.0
H719 H 0.80654 0.16523 0.79913 0.0
Mn720 Mn 0.76338 0.68829 0.02491 0.0
Mn721 Mn 0.75339 0.64589 0.97806 0.0
C722 C 0.7253 0.66728 0.01075 0.0
C723 C 0.76939 0.70046 0.06731 0.0
C724 C 0.76696 0.69666 0.97194 0.0
O725 O 0.79553 0.67962 0.02417 0.0
O726 O 0.78519 0.65013 0.99426 0.0
C727 C 0.75598 0.60636 1.00438 0.0
N728 N 0.74388 0.61686 0.98895 0.0
C729 C 0.71146 0.58461 0.98245 0.0
C730 C 0.72357 0.57343 0.99823 0.0
C731 C 0.74591 0.58438 0.00929 0.0
C732 C 0.72231 0.60656 0.97839 0.0
H733 H 0.77321 0.61467 0.0128 0.0
C734 C 0.80005 0.66293 0.01061 0.0
O735 O 0.77508 0.71472 0.05227 0.0
O736 O 0.76159 0.67932 0.05783 0.0
N737 N 0.72296 0.63991 0.96083 0.0
C738 C 0.71404 0.65263 0.9453 0.0
C739 C 0.69207 0.64385 0.93222 0.0
C740 C 0.67962 0.62198 0.93503 0.0
C741 C 0.68935 0.60902 0.95077 0.0
C742 C 0.71138 0.61861 0.96321 0.0
H743 H 0.72364 0.66932 0.94281 0.0
O744 O 0.72891 0.68773 0.02243 0.0
O745 O 0.74396 0.66034 0.00677 0.0
O746 O 0.76702 0.70447 0.99392 0.0
O747 O 0.76271 0.67513 0.96464 0.0
C748 C 0.67809 0.58693 0.95457 0.0
C749 C 0.68909 0.57478 0.97048 0.0
H750 H 0.71591 0.55643 1.00197 0.0
H751 H 0.75538 0.57586 0.02148 0.0
H752 H 0.68477 0.65389 0.91997 0.0
H753 H 0.66265 0.61529 0.92496 0.0
H754 H 0.66097 0.57914 0.94533 0.0
H755 H 0.68024 0.55783 0.97327 0.0
Mn756 Mn 0.89742 0.51981 0.81036 0.0
Mn757 Mn 0.8588 0.51134 0.84939 0.0
C758 C 0.88278 0.4834 0.81886 0.0
C759 C 0.90908 0.52199 0.77328 0.0
C760 C 0.90941 0.53057 0.86362 0.0
O761 O 0.88539 0.54859 0.81137 0.0
O762 O 0.86051 0.54151 0.83818 0.0
C763 C 0.81624 0.50903 0.81635 0.0
N764 N 0.82855 0.49938 0.83243 0.0
C765 C 0.7958 0.46863 0.83313 0.0
C766 C 0.78276 0.47819 0.81654 0.0
C767 C 0.79309 0.49837 0.80795 0.0
C768 C 0.81903 0.47956 0.84017 0.0
H769 H 0.82396 0.52486 0.81021 0.0
C770 C 0.87077 0.55424 0.82429 0.0
O771 O 0.92235 0.53236 0.7924 0.0
O772 O 0.88814 0.51171 0.77551 0.0
N773 N 0.85509 0.48282 0.86213 0.0
C774 C 0.86951 0.47685 0.87944 0.0
C775 C 0.86134 0.45818 0.89132 0.0
C776 C 0.83824 0.44613 0.88569 0.0
C777 C 0.82377 0.45234 0.86762 0.0
C778 C 0.83292 0.4711 0.85635 0.0
H779 H 0.88688 0.48671 0.88471 0.0
O780 O 0.90301 0.48843 0.81181 0.0
O781 O 0.87215 0.50013 0.82169 0.0
O782 O 0.91477 0.53065 0.84288 0.0
O783 O 0.88918 0.52298 0.86853 0.0
C784 C 0.80038 0.44119 0.861 0.0
C785 C 0.78649 0.44911 0.84349 0.0
H786 H 0.76473 0.47033 0.81047 0.0
H787 H 0.7831 0.50592 0.79525 0.0
H788 H 0.87265 0.45345 0.90519 0.0
H789 H 0.83185 0.43197 0.8952 0.0
H790 H 0.79285 0.4266 0.86936 0.0
H791 H 0.76852 0.44041 0.83858 0.0
Mn792 Mn 0.8127 0.42743 0.50678 0.0
Mn793 Mn 0.82083 0.47074 0.47408 0.0
C794 C 0.8493 0.44581 0.505 0.0
C795 C 0.80218 0.41356 0.54062 0.0
C796 C 0.80695 0.42071 0.45413 0.0
O797 O 0.7815 0.43443 0.49909 0.0
O798 O 0.7903 0.46874 0.48585 0.0
C799 C 0.82366 0.51211 0.50838 0.0
N800 N 0.83354 0.49996 0.49242 0.0
C801 C 0.8655 0.53196 0.49339 0.0
C802 C 0.85573 0.54482 0.50993 0.0
C803 C 0.83481 0.53479 0.51759 0.0
C804 C 0.85386 0.5093 0.48525 0.0
H805 H 0.80725 0.50464 0.51378 0.0
C806 C 0.77612 0.45263 0.49306 0.0
O807 O 0.79862 0.40034 0.52047 0.0
O808 O 0.81198 0.4351 0.5412 0.0
N809 N 0.84989 0.47415 0.46186 0.0
C810 C 0.85735 0.4592 0.44636 0.0
C811 C 0.87877 0.46606 0.43816 0.0
C812 C 0.89199 0.4884 0.44545 0.0
C813 C 0.88375 0.50361 0.46107 0.0
C814 C 0.86262 0.49558 0.46922 0.0
H815 H 0.84714 0.44215 0.44032 0.0
O816 O 0.84537 0.42594 0.51268 0.0
O817 O 0.83171 0.45525 0.50036 0.0
O818 O 0.81114 0.41269 0.47331 0.0
O819 O 0.80788 0.4419 0.45273 0.0
C820 C 0.89555 0.5265 0.46867 0.0
C821 C 0.8863 0.54074 0.48462 0.0
H822 H 0.86415 0.5624 0.51686 0.0
H823 H 0.82712 0.54463 0.53028 0.0
H824 H 0.88494 0.45422 0.42604 0.0
H825 H 0.90836 0.49373 0.43884 0.0
H826 H 0.91181 0.53329 0.46247 0.0
H827 H 0.89561 0.55827 0.49046 0.0
Mn828 Mn 0.63881 0.56004 0.2923 0.0
Mn829 Mn 0.6865 0.57363 0.33367 0.0
C830 C 0.65939 0.5986 0.30308 0.0
C831 C 0.62173 0.5513 0.25116 0.0
C832 C 0.63753 0.55812 0.34643 0.0
O833 O 0.64926 0.52914 0.29315 0.0
O834 O 0.6829 0.54194 0.31804 0.0
C835 C 0.72481 0.57264 0.30496 0.0
N836 N 0.71419 0.58438 0.32053 0.0
C837 C 0.74641 0.61684 0.32716 0.0
C838 C 0.75767 0.60514 0.3111 0.0
C839 C 0.74678 0.58299 0.29987 0.0
C840 C 0.72443 0.60579 0.33128 0.0
H841 H 0.71671 0.55538 0.29678 0.0
C842 C 0.66821 0.52611 0.30423 0.0
O843 O 0.60997 0.54657 0.26852 0.0
O844 O 0.64352 0.56021 0.25751 0.0
N845 N 0.69158 0.60404 0.35025 0.0
C846 C 0.67867 0.61271 0.3658 0.0
C847 C 0.68701 0.6348 0.37839 0.0
C848 C 0.70868 0.64761 0.37512 0.0
C849 C 0.72177 0.63821 0.35923 0.0
C850 C 0.71247 0.61619 0.34703 0.0
H851 H 0.66205 0.60296 0.3685 0.0
O852 O 0.63775 0.59389 0.29399 0.0
O853 O 0.668 0.58085 0.30633 0.0
O854 O 0.62609 0.5571 0.3257 0.0
O855 O 0.65956 0.56323 0.34967 0.0
C856 C 0.74381 0.64972 0.35524 0.0
C857 C 0.75621 0.63897 0.33939 0.0
H858 H 0.77471 0.61298 0.30729 0.0
H859 H 0.75543 0.5738 0.28757 0.0
H860 H 0.6768 0.64188 0.39065 0.0
H861 H 0.71511 0.66461 0.38493 0.0
H862 H 0.75147 0.66678 0.36441 0.0
H863 H 0.77323 0.64793 0.33661 0.0
C864 C 0.99262 0.96604 0.988 0.0
C865 C 0.98313 0.94041 0.01736 0.0
C866 C 0.99164 0.9626 0.01162 0.0
C867 C 0.97579 0.92181 0.99918 0.0
C868 C 0.98474 0.94741 0.96969 0.0
C869 C 0.97656 0.9253 0.97543 0.0
N870 N 0.99952 0.98782 0.98282 0.0
C871 C 0.99795 0.99209 0.95976 0.0
C872 C 0.98431 0.95166 0.94605 0.0
C873 C 0.99073 0.97416 0.94108 0.0
Gd874 Gd 0.06659 0.04812 0.04704 0.0
Gd875 Gd 1.00855 0.017 0.01556 0.0
N876 N 0.99817 0.98103 0.02891 0.0
C877 C 0.98162 0.93762 0.04117 0.0
C878 C 0.99579 0.97845 0.05201 0.0
C879 C 0.98793 0.95675 0.05855 0.0
H880 H 1.00024 0.99297 0.06552 0.0
H881 H 0.98651 0.95483 0.07699 0.0
H882 H 0.08345 0.07543 1.00157 0.0
H883 H 0.9999 0.00944 0.95597 0.0
H884 H 0.1032 0.11374 0.9947 0.0
H885 H 0.9752 0.92085 0.04627 0.0
H886 H 0.96905 0.9047 1.00327 0.0
H887 H 0.07366 0.0493 0.10644 0.0
H888 H 0.97815 0.93784 0.93153 0.0
H889 H 0.98922 0.97779 0.9229 0.0
H890 H 0.11673 0.15841 0.07157 0.0
H891 H 0.9703 0.91085 0.96158 0.0
H892 H 0.10014 0.11884 0.13814 0.0
H893 H 0.08574 0.07795 0.14215 0.0
N894 N 0.0781 0.07404 0.0823 0.0
C895 C 0.0868 0.0963 0.07971 0.0
C896 C 0.07842 0.06727 0.10439 0.0
C897 C 0.09394 0.10646 0.12236 0.0
C898 C 0.08581 0.0834 0.1247 0.0
C899 C 0.09509 0.11308 0.0997 0.0
H900 H 0.11165 0.14873 0.11167 0.0
N901 N 0.08248 0.08502 0.03829 0.0
C902 C 0.08946 0.10187 0.05707 0.0
C903 C 0.10532 0.12855 0.03112 0.0
C904 C 0.10075 0.1242 0.05391 0.0
C905 C 0.08792 0.08895 0.01624 0.0
C906 C 0.09927 0.11072 0.0123 0.0
O907 O 0.03488 0.99412 0.0247 0.0
O908 O 0.055 0.01233 0.05981 0.0
O909 O 0.09069 0.02995 0.03204 0.0
O910 O 0.1017 0.05436 0.0644 0.0
O911 O 1.0082 0.03527 0.05282 0.0
O912 O 0.0428 0.03571 0.07419 0.0
O913 O 0.04554 0.07466 0.03368 0.0
O914 O 0.01584 0.05421 1.00533 0.0
O915 O 0.9784 0.02535 0.02936 0.0
O916 O 0.97525 1.00738 0.99379 0.0
O917 O 0.06656 0.03601 0.00727 0.0
O918 O 0.02976 0.03231 0.98835 0.0
C919 C 0.04685 0.9929 0.04533 0.0
C920 C 0.02064 0.03567 0.07342 0.0
C921 C 0.1177 0.02205 0.06089 0.0
C922 C 0.14896 1.0023 0.06293 0.0
C923 C 0.12129 0.99683 0.09091 0.0
C924 C 0.10956 0.01193 0.08031 0.0
C925 C 0.1412 0.99215 0.08237 0.0
C926 C 0.13712 0.01695 0.05207 0.0
C927 C 0.10687 0.03854 0.04986 0.0
C928 C 0.10812 0.14115 0.07368 0.0
C929 C 0.10523 0.13563 0.09652 0.0
H930 H 0.11412 0.14542 0.02801 0.0
C931 C 0.02866 0.07427 0.01616 0.0
C932 C 0.05218 0.03509 0.98772 0.0
C933 C 0.95579 0.03697 0.99919 0.0
C934 C 0.93351 0.06565 0.00562 0.0
C935 C 0.95207 0.06314 0.97008 0.0
C936 C 0.96106 0.04497 0.97768 0.0
C937 C 0.93812 0.07343 0.98396 0.0
C938 C 0.94221 0.04745 0.01307 0.0
C939 C 0.96581 0.01915 0.00864 0.0
H940 H 0.11521 0.98912 0.10598 0.0
H941 H 0.09449 0.01594 0.08743 0.0
H942 H 0.15069 0.98098 0.091 0.0
H943 H 0.14351 0.025 0.03722 0.0
H944 H 0.95587 0.0692 0.95348 0.0
H945 H 0.97218 0.0374 0.9669 0.0
H946 H 0.93077 0.08723 0.97781 0.0
H947 H 0.93807 0.04115 0.02957 0.0
C948 C 0.33369 0.74677 0.22342 0.0
C949 C 0.30359 0.72809 0.1912 0.0
C950 C 0.31233 0.74561 0.21042 0.0
C951 C 0.31662 0.71166 0.18538 0.0
C952 C 0.34715 0.73075 0.21719 0.0
C953 C 0.33838 0.71304 0.1983 0.0
N954 N 0.34141 0.76371 0.24201 0.0
C955 C 0.3631 0.76657 0.25407 0.0
C956 C 0.36906 0.73306 0.2301 0.0
C957 C 0.37718 0.75124 0.24841 0.0
Gd958 Gd 0.27724 0.79122 0.31196 0.0
Gd959 Gd 0.3156 0.78709 0.25182 0.0
N960 N 0.29984 0.76134 0.21702 0.0
C961 C 0.28199 0.72757 0.17847 0.0
C962 C 0.27931 0.7616 0.20389 0.0
C963 C 0.26994 0.74459 0.18466 0.0
H964 H 0.26993 0.77474 0.20816 0.0
H965 H 0.25342 0.7446 0.17465 0.0
H966 H 0.31584 0.79859 0.36139 0.0
H967 H 0.36958 0.78068 0.26817 0.0
H968 H 0.33635 0.83018 0.39233 0.0
H969 H 0.27461 0.71432 0.16366 0.0
H970 H 0.31011 0.69795 0.17082 0.0
H971 H 0.22613 0.80299 0.2928 0.0
H972 H 0.37995 0.72111 0.22586 0.0
H973 H 0.39425 0.75341 0.25824 0.0
H974 H 0.29215 0.88824 0.38447 0.0
H975 H 0.34836 0.7004 0.19344 0.0
H976 H 0.22348 0.8691 0.32757 0.0
H977 H 0.20586 0.83481 0.29835 0.0
N978 N 0.25551 0.81951 0.31774 0.0
C979 C 0.26499 0.83771 0.33459 0.0
C980 C 0.23426 0.81803 0.30525 0.0
C981 C 0.23259 0.85527 0.32503 0.0
C982 C 0.22259 0.83595 0.30852 0.0
C983 C 0.2539 0.85618 0.33857 0.0
H984 H 0.256 0.8891 0.35948 0.0
N985 N 0.29483 0.8186 0.34488 0.0
C986 C 0.28546 0.83735 0.34844 0.0
C987 C 0.3147 0.85324 0.38202 0.0
C988 C 0.29528 0.85532 0.36693 0.0
C989 C 0.31161 0.81518 0.36146 0.0
C990 C 0.32249 0.83275 0.37968 0.0
O991 O 0.29435 0.7521 0.25152 0.0
O992 O 0.28723 0.77281 0.28135 0.0
O993 O 0.27643 0.76447 0.33403 0.0
O994 O 0.24441 0.77614 0.32414 0.0
O995 O 0.2795 0.79719 0.24619 0.0
O996 O 0.25512 0.78603 0.27502 0.0
O997 O 0.29163 0.8248 0.3003 0.0
O998 O 0.31834 0.80849 0.28637 0.0
O999 O 0.31484 0.81536 0.23132 0.0
O1000 O 0.34758 0.80719 0.24377 0.0
O1001 O 0.3139 0.78323 0.32144 0.0
O1002 O 0.33425 0.78074 0.28805 0.0
C1003 C 0.28309 0.7525 0.26936 0.0
C1004 C 0.25875 0.79299 0.25398 0.0
C1005 C 0.24321 0.74697 0.35096 0.0
C1006 C 0.24678 0.72491 0.38368 0.0
C1007 C 0.20892 0.72949 0.36717 0.0
C1008 C 0.21912 0.74263 0.3508 0.0
C1009 C 0.22272 0.72085 0.38379 0.0
C1010 C 0.25688 0.73769 0.36713 0.0
C1011 C 0.25469 0.76306 0.33633 0.0
C1012 C 0.28477 0.87418 0.37046 0.0
C1013 C 0.26414 0.87463 0.35627 0.0
H1014 H 0.32285 0.86671 0.39637 0.0
C1015 C 0.30949 0.82647 0.28893 0.0
C1016 C 0.33235 0.77949 0.31118 0.0
C1017 C 0.34391 0.8204 0.20658 0.0
C1018 C 0.34187 0.83779 0.17035 0.0
C1019 C 0.36281 0.80723 0.17379 0.0
C1020 C 0.35714 0.8057 0.19671 0.0
C1021 C 0.35513 0.82314 0.16055 0.0
C1022 C 0.33648 0.83647 0.19339 0.0
C1023 C 0.33703 0.81901 0.23024 0.0
H1024 H 0.19037 0.72631 0.36722 0.0
H1025 H 0.20831 0.74977 0.33846 0.0
H1026 H 0.21467 0.71094 0.3966 0.0
H1027 H 0.27557 0.74121 0.36766 0.0
H1028 H 0.37308 0.796 0.16624 0.0
H1029 H 0.36299 0.79303 0.20658 0.0
H1030 H 0.35962 0.82412 0.14276 0.0
H1031 H 0.32603 0.84761 0.20087 0.0
C1032 C 0.59606 0.09099 0.49659 0.0
C1033 C 0.62127 0.11815 0.52814 0.0
C1034 C 0.60587 0.09685 0.52045 0.0
C1035 C 0.62641 0.13374 0.51185 0.0
C1036 C 0.60166 0.10656 0.48019 0.0
C1037 C 0.61661 0.128 0.488 0.0
N1038 N 0.58183 0.06993 0.48926 0.0
C1039 C 0.57402 0.06294 0.46569 0.0
C1040 C 0.59248 0.09996 0.45627 0.0
C1041 C 0.57882 0.078 0.44898 0.0
Gd1042 Gd 0.51331 0.03966 0.54668 0.0
Gd1043 Gd 0.57598 0.04698 0.51968 0.0
N1044 N 0.60017 0.08179 0.53622 0.0
C1045 C 0.63132 0.12302 0.55197 0.0
C1046 C 0.61085 0.0858 0.55904 0.0
C1047 C 0.62632 0.10665 0.56739 0.0
H1048 H 0.60755 0.07281 0.57057 0.0
H1049 H 0.6346 0.11 0.5856 0.0
H1050 H 0.47908 0.01532 0.49681 0.0
H1051 H 0.56452 0.04563 0.45943 0.0
H1052 H 0.45001 0.97923 0.48225 0.0
H1053 H 0.64335 0.13916 0.55851 0.0
H1054 H 0.63817 0.15023 0.51746 0.0
H1055 H 0.52271 0.04208 0.60665 0.0
H1056 H 0.59636 0.11147 0.44317 0.0
H1057 H 0.5723 0.0725 0.43039 0.0
H1058 H 0.44505 0.9392 0.55041 0.0
H1059 H 0.62102 0.14014 0.47562 0.0
H1060 H 0.48802 0.97774 0.62445 0.0
H1061 H 0.51349 0.01621 0.63651 0.0
N1062 N 0.50423 0.0178 0.57743 0.0
C1063 C 0.48922 0.99721 0.57061 0.0
C1064 C 0.51224 0.02505 0.6009 0.0
C1065 C 0.49233 0.98887 0.61113 0.0
C1066 C 0.50676 0.01056 0.618 0.0
C1067 C 0.483 0.98212 0.58727 0.0
H1068 H 0.46253 0.94914 0.59223 0.0
N1069 N 0.48558 1.00643 0.53138 0.0
C1070 C 0.47933 0.99153 0.54701 0.0
C1071 C 0.45274 0.96618 0.51579 0.0
C1072 C 0.46303 0.97075 0.53951 0.0
C1073 C 0.47492 1.00263 0.50855 0.0
C1074 C 0.45845 0.98236 0.50036 0.0
O1075 O 0.56542 0.0811 0.53503 0.0
O1076 O 0.53819 0.07388 0.56118 0.0
O1077 O 0.48608 0.05469 0.52933 0.0
O1078 O 0.49272 0.05731 0.56767 0.0
O1079 O 0.56351 0.03006 0.54982 0.0
O1080 O 0.5444 0.04797 0.57444 0.0
O1081 O 0.52149 1.00412 0.53068 0.0
O1082 O 0.55344 0.01042 0.50939 0.0
O1083 O 0.6036 0.03191 0.53585 0.0
O1084 O 0.6036 0.04072 0.50017 0.0
O1085 O 0.52657 0.05381 0.51514 0.0
O1086 O 0.54575 0.03473 0.49172 0.0
C1087 C 0.55296 0.08837 0.55122 0.0
C1088 C 0.56319 0.04117 0.57036 0.0
C1089 C 0.45613 0.06272 0.55223 0.0
C1090 C 0.42491 0.08383 0.55247 0.0
C1091 C 0.42198 0.04867 0.57057 0.0
C1092 C 0.44351 0.0463 0.56432 0.0
C1093 C 0.41277 0.06733 0.56478 0.0
C1094 C 0.44666 0.08148 0.54614 0.0
C1095 C 0.48054 0.06262 0.54962 0.0
C1096 C 0.45736 0.95537 0.5559 0.0
C1097 C 0.46735 0.96103 0.57971 0.0
H1098 H 0.44006 0.95044 0.50935 0.0
C1099 C 0.53593 0.9963 0.51677 0.0
C1100 C 0.52668 0.0412 0.49523 0.0
C1101 C 0.61908 0.00868 0.50775 0.0
C1102 C 0.64398 0.98092 0.51021 0.0
C1103 C 0.61403 0.97642 0.47655 0.0
C1104 C 0.60786 0.99642 0.48581 0.0
C1105 C 0.632 0.96875 0.48857 0.0
C1106 C 0.63718 1.00075 0.52006 0.0
C1107 C 0.61321 0.0307 0.51641 0.0
H1108 H 0.41258 0.03621 0.58033 0.0
H1109 H 0.45067 0.03208 0.56966 0.0
H1110 H 0.39618 0.06903 0.57009 0.0
H1111 H 0.45648 0.09455 0.5373 0.0
H1112 H 0.6051 0.96704 0.45977 0.0
H1113 H 0.59423 1.0023 0.47569 0.0
H1114 H 0.63679 0.95337 0.48076 0.0
H1115 H 0.64649 0.01041 0.53659 0.0
C1116 C 0.23023 0.3101 0.73677 0.0
C1117 C 0.20611 0.2757 0.71354 0.0
C1118 C 0.2218 0.28658 0.73369 0.0
C1119 C 0.19976 0.28881 0.696 0.0
C1120 C 0.22283 0.32353 0.71994 0.0
C1121 C 0.20805 0.3127 0.69922 0.0
N1122 N 0.24456 0.31996 0.75693 0.0
C1123 C 0.25018 0.34329 0.76256 0.0
C1124 C 0.22995 0.34747 0.7248 0.0
C1125 C 0.24329 0.3574 0.74644 0.0
Gd1126 Gd 0.31968 0.27709 0.78292 0.0
Gd1127 Gd 0.25747 0.29467 0.78131 0.0
N1128 N 0.22843 0.27444 0.75091 0.0
C1129 C 0.19691 0.25208 0.71193 0.0
C1130 C 0.21824 0.25179 0.75033 0.0
C1131 C 0.20268 0.24016 0.73064 0.0
H1132 H 0.22264 0.24262 0.76478 0.0
H1133 H 0.19519 0.22204 0.72988 0.0
H1134 H 0.36652 0.32032 0.79619 0.0
H1135 H 0.26051 0.35105 0.7793 0.0
H1136 H 0.39459 0.3384 0.83165 0.0
H1137 H 0.18488 0.24304 0.69667 0.0
H1138 H 0.18796 0.28074 0.6802 0.0
H1139 H 0.30496 0.21969 0.78728 0.0
H1140 H 0.22467 0.35842 0.71232 0.0
H1141 H 0.24835 0.3759 0.75067 0.0
H1142 H 0.38265 0.28312 0.88656 0.0
H1143 H 0.20247 0.3227 0.68588 0.0
H1144 H 0.3316 0.21046 0.85722 0.0
H1145 H 0.30788 0.19482 0.81845 0.0
N1146 N 0.32516 0.24984 0.80871 0.0
C1147 C 0.33975 0.25822 0.82915 0.0
C1148 C 0.31471 0.22706 0.80431 0.0
C1149 C 0.33012 0.2216 0.84367 0.0
C1150 C 0.31667 0.21273 0.82184 0.0
C1151 C 0.34232 0.24449 0.84736 0.0
H1152 H 0.35925 0.24372 0.88273 0.0
N1153 N 0.35066 0.29266 0.81299 0.0
C1154 C 0.35287 0.28039 0.83138 0.0
C1155 C 0.3835 0.31105 0.8522 0.0
C1156 C 0.36901 0.28944 0.85175 0.0
C1157 C 0.36634 0.31244 0.81224 0.0
C1158 C 0.38261 0.32231 0.83204 0.0
O1159 O 0.26269 0.27263 0.7473 0.0
O1160 O 0.30081 0.28751 0.75065 0.0
O1161 O 0.34574 0.28857 0.76056 0.0
O1162 O 0.33668 0.25264 0.76467 0.0
O1163 O 0.26446 0.26319 0.79699 0.0
O1164 O 0.28738 0.24872 0.77261 0.0
O1165 O 0.3066 0.28447 0.81881 0.0
O1166 O 0.28516 0.31154 0.81227 0.0
O1167 O 0.22834 0.28054 0.79979 0.0
O1168 O 0.24283 0.31698 0.80459 0.0
O1169 O 0.32283 0.31569 0.78731 0.0
O1170 O 0.28703 0.32311 0.77317 0.0
C1171 C 0.28201 0.27524 0.73774 0.0
C1172 C 0.26961 0.24561 0.78466 0.0
C1173 C 0.37477 0.26775 0.75644 0.0
C1174 C 0.41004 0.2726 0.73751 0.0
C1175 C 0.41061 0.26292 0.77776 0.0
C1176 C 0.38708 0.26299 0.77697 0.0
C1177 C 0.42206 0.26774 0.75819 0.0
C1178 C 0.38629 0.27249 0.73665 0.0
C1179 C 0.3501 0.26838 0.75546 0.0
C1180 C 0.37064 0.27633 0.87056 0.0
C1181 C 0.35733 0.25388 0.86836 0.0
H1182 H 0.39613 0.31866 0.86753 0.0
C1183 C 0.29676 0.30113 0.82694 0.0
C1184 C 0.30996 0.32931 0.77873 0.0
C1185 C 0.20409 0.30595 0.81221 0.0
C1186 C 0.17055 0.30349 0.83396 0.0
C1187 C 0.17758 0.33145 0.80631 0.0
C1188 C 0.19724 0.32367 0.80093 0.0
C1189 C 0.16446 0.32163 0.82288 0.0
C1190 C 0.19037 0.29554 0.82842 0.0
C1191 C 0.22706 0.30066 0.80994 0.0
H1192 H 0.41997 0.25891 0.79352 0.0
H1193 H 0.3785 0.25927 0.79233 0.0
H1194 H 0.44017 0.26702 0.75892 0.0
H1195 H 0.37678 0.27585 0.72059 0.0
H1196 H 0.17268 0.3454 0.79787 0.0
H1197 H 0.20748 0.33203 0.78851 0.0
H1198 H 0.14937 0.32809 0.82691 0.0
H1199 H 0.19562 0.28203 0.83743 0.0
C1200 C 0.021 0.09255 0.58677 0.0
C1201 C 0.0571 0.11625 0.60733 0.0
C1202 C 0.04466 0.1007 0.58773 0.0
C1203 C 0.04552 0.12286 0.62622 0.0
C1204 C 1.00921 0.09952 0.60547 0.0
C1205 C 0.02165 0.11447 0.62531 0.0
N1206 N 1.00942 0.07819 0.56732 0.0
C1207 C 0.98591 0.0715 0.56473 0.0
C1208 C 0.98519 0.09157 0.60346 0.0
C1209 C 0.97344 0.07772 0.58282 0.0
Gd1210 Gd 0.05166 0.00776 0.53248 0.0
Gd1211 Gd 0.03176 0.06791 0.53809 0.0
N1212 N 0.0555 0.09342 0.56946 0.0
C1213 C 0.08081 0.12464 0.60737 0.0
C1214 C 0.07826 0.10264 0.56881 0.0
C1215 C 0.09137 0.11801 0.58788 0.0
H1216 H 0.08621 0.09885 0.55336 0.0
H1217 H 0.10953 0.12501 0.58736 0.0
H1218 H 0.99738 0.97931 0.51078 0.0
H1219 H 0.97673 0.06246 0.5482 0.0
H1220 H 0.97717 0.95259 0.4758 0.0
H1221 H 0.09099 0.13658 0.6221 0.0
H1222 H 0.05485 0.13457 0.64154 0.0
H1223 H 0.10811 0.0174 0.52669 0.0
H1224 H 0.9755 0.09654 0.61741 0.0
H1225 H 0.95477 0.07221 0.58062 0.0
H1226 H 0.03776 0.94173 0.42951 0.0
H1227 H 0.01292 0.1199 0.6399 0.0
H1228 H 0.11548 0.98109 0.46024 0.0
H1229 H 0.13289 1.00718 0.49709 0.0
N1230 N 0.0769 0.99796 0.50639 0.0
C1231 C 0.067 0.98336 0.48642 0.0
C1232 C 0.10026 1.00634 0.51048 0.0
C1233 C 0.10449 0.98564 0.47309 0.0
C1234 C 0.11438 1.00041 0.49385 0.0
C1235 C 0.08055 0.97681 0.46921 0.0
H1236 H 0.07993 0.95661 0.43523 0.0
N1237 N 0.03055 0.98242 0.49963 0.0
C1238 C 0.04318 0.97511 0.48308 0.0
C1239 C 1.00832 0.95185 0.45993 0.0
C1240 C 0.03235 0.95991 0.46258 0.0
C1241 C 1.00723 0.97418 0.4974 0.0
C1242 C 0.99573 0.9589 0.47753 0.0
O1243 O 0.04171 0.05446 0.57361 0.0
O1244 O 0.06888 0.03475 0.56314 0.0
O1245 O 0.03898 0.98258 0.55553 0.0
O1246 O 0.07336 0.98544 0.54548 0.0
O1247 O 0.06435 0.06611 0.52061 0.0
O1248 O 0.08021 0.03989 0.53957 0.0
O1249 O 0.04123 0.02039 0.49682 0.0
O1250 O 0.01484 0.04195 0.50616 0.0
O1251 O 0.04256 0.09683 0.51741 0.0
O1252 O 1.00779 0.08828 0.52738 0.0
O1253 O 0.01741 0.00786 0.54686 0.0
O1254 O 1.0017 0.03663 0.53209 0.0
C1255 C 0.05834 0.04365 0.5796 0.0
C1256 C 0.08244 0.05798 0.5281 0.0
C1257 C 0.05564 0.9497 0.55657 0.0
C1258 C 0.05391 0.91595 0.57755 0.0
C1259 C 0.05631 0.9127 0.53514 0.0
C1260 C 0.05659 0.93605 0.53532 0.0
C1261 C 0.05503 0.90272 0.55608 0.0
C1262 C 0.05425 0.93957 0.57776 0.0
C1263 C 0.05792 0.97473 0.55724 0.0
C1264 C 0.04579 0.95332 0.44541 0.0
C1265 C 0.06981 0.9618 0.44868 0.0
H1266 H 0.99935 0.94011 0.44447 0.0
C1267 C 0.02457 0.03095 0.49028 0.0
C1268 C 0.99949 0.01671 0.54056 0.0
C1269 C 0.01437 0.12054 0.50544 0.0
C1270 C 0.01898 0.1517 0.48063 0.0
C1271 C 0.98423 0.14226 0.49951 0.0
C1272 C 0.99269 0.12502 0.5096 0.0
C1273 C 0.99722 0.15551 0.4852 0.0
C1274 C 0.02757 0.13393 0.49064 0.0
C1275 C 0.02205 0.1016 0.51666 0.0
H1276 H 0.05749 0.90235 0.51878 0.0
H1277 H 0.05799 0.94354 0.51898 0.0
H1278 H 0.05543 0.88468 0.55564 0.0
H1279 H 0.0541 0.95011 0.59438 0.0
H1280 H 0.96749 0.1454 0.50284 0.0
H1281 H 0.98207 0.11515 0.52075 0.0
H1282 H 0.99016 0.16881 0.47752 0.0
H1283 H 0.04429 0.13077 0.48716 0.0
C1284 C 0.24694 0.7334 0.82273 0.0
C1285 C 0.22029 0.70583 0.79271 0.0
C1286 C 0.2407 0.72303 0.79923 0.0
C1287 C 0.20575 0.69981 0.80981 0.0
C1288 C 0.23256 0.72686 0.84002 0.0
C1289 C 0.21179 0.71039 0.83335 0.0
N1290 N 0.26753 0.74884 0.82892 0.0
C1291 C 0.27547 0.7567 0.85234 0.0
C1292 C 0.2398 0.73649 0.8637 0.0
C1293 C 0.26148 0.7512 0.86991 0.0
Gd1294 Gd 0.29286 0.81919 0.77205 0.0
Gd1295 Gd 0.28871 0.75662 0.79705 0.0
N1296 N 0.25455 0.72976 0.78269 0.0
C1297 C 0.21506 0.69524 0.76911 0.0
C1298 C 0.25027 0.71858 0.76008 0.0
C1299 C 0.23028 0.70147 0.7528 0.0
H1300 H 0.26238 0.72278 0.74783 0.0
H1301 H 0.22676 0.69293 0.7347 0.0
H1302 H 0.31782 0.84854 0.82498 0.0
H1303 H 0.29277 0.76683 0.85784 0.0
H1304 H 0.35443 0.87582 0.84142 0.0
H1305 H 0.19956 0.68197 0.76343 0.0
H1306 H 0.18988 0.68684 0.80507 0.0
H1307 H 0.29423 0.8083 0.71253 0.0
H1308 H 0.22917 0.73198 0.87745 0.0
H1309 H 0.26766 0.75794 0.88833 0.0
H1310 H 0.39549 0.88568 0.77418 0.0
H1311 H 0.20051 0.7053 0.8464 0.0
H1312 H 0.35975 0.8446 0.69854 0.0
H1313 H 0.32189 0.81835 0.68449 0.0
N1314 N 0.3169 0.82701 0.74286 0.0
C1315 C 0.33725 0.84235 0.75089 0.0
C1316 C 0.31102 0.81896 0.71926 0.0
C1317 C 0.34783 0.8399 0.71114 0.0
C1318 C 0.32652 0.82499 0.70314 0.0
C1319 C 0.35333 0.849 0.73517 0.0
H1320 H 0.38682 0.86985 0.73194 0.0
N1321 N 0.32668 0.84467 0.79006 0.0
C1322 C 0.34214 0.8516 0.77494 0.0
C1323 C 0.36767 0.87587 0.80777 0.0
C1324 C 0.36322 0.86723 0.78356 0.0
C1325 C 0.33061 0.85342 0.81349 0.0
C1326 C 0.35124 0.86901 0.82276 0.0
O1327 O 0.25277 0.76371 0.7808 0.0
O1328 O 0.2549 0.79868 0.7655 0.0
O1329 O 0.28195 0.85037 0.78723 0.0
O1330 O 0.27725 0.83903 0.7489 0.0
O1331 O 0.29988 0.76551 0.76209 0.0
O1332 O 0.28068 0.78964 0.74441 0.0
O1333 O 0.32807 0.80808 0.7837 0.0
O1334 O 0.32479 0.78048 0.80985 0.0
O1335 O 0.30853 0.73305 0.7813 0.0
O1336 O 0.29487 0.72776 0.81421 0.0
O1337 O 0.27782 0.80337 0.80128 0.0
O1338 O 0.29847 0.78704 0.82564 0.0
C1339 C 0.24267 0.77891 0.7703 0.0
C1340 C 0.28628 0.76974 0.74431 0.0
C1341 C 0.26784 0.87515 0.75977 0.0
C1342 C 0.24299 0.90301 0.76192 0.0
C1343 C 0.26829 0.90257 0.73136 0.0
C1344 C 0.27638 0.8844 0.74008 0.0
C1345 C 0.25167 0.91178 0.74214 0.0
C1346 C 0.25115 0.88465 0.77086 0.0
C1347 C 0.2735 0.85348 0.76602 0.0
C1348 C 0.37922 0.87368 0.76787 0.0
C1349 C 0.37429 0.86461 0.74379 0.0
H1350 H 0.38367 0.88791 0.81504 0.0
C1351 C 0.33764 0.7965 0.7995 0.0
C1352 C 0.28934 0.80447 0.82184 0.0
C1353 C 0.32795 0.71321 0.80851 0.0
C1354 C 0.35245 0.68507 0.80711 0.0
C1355 C 0.35576 0.71238 0.84263 0.0
C1356 C 0.33868 0.72211 0.8317 0.0
C1357 C 0.36246 0.69386 0.83054 0.0
C1358 C 0.3352 0.69489 0.79604 0.0
C1359 C 0.30715 0.72068 0.7987 0.0
H1360 H 0.27468 0.90932 0.71594 0.0
H1361 H 0.28883 0.87711 0.73097 0.0
H1362 H 0.24542 0.92575 0.73494 0.0
H1363 H 0.24402 0.87736 0.78571 0.0
H1364 H 0.36357 0.71899 0.86068 0.0
H1365 H 0.33333 0.7361 0.8417 0.0
H1366 H 0.37559 0.6864 0.83947 0.0
H1367 H 0.32679 0.68768 0.77829 0.0
C1368 C 0.58447 1.00238 0.0919 0.0
C1369 C 0.59971 0.02888 0.12778 0.0
C1370 C 0.58314 0.02115 0.10751 0.0
C1371 C 0.61827 0.01784 0.13156 0.0
C1372 C 0.60214 0.99028 0.0964 0.0
C1373 C 0.61942 0.99848 0.11595 0.0
N1374 N 0.56777 0.99535 0.07292 0.0
C1375 C 0.5662 0.9748 0.05938 0.0
C1376 C 0.60154 0.97002 0.08145 0.0
C1377 C 0.58313 0.96196 0.06321 0.0
Gd1378 Gd 0.54248 0.06085 1.00524 0.0
Gd1379 Gd 0.54259 0.02038 0.06561 0.0
N1380 N 0.5652 0.03157 0.10298 0.0
C1381 C 0.59683 0.04716 0.14378 0.0
C1382 C 0.56115 0.04795 0.11946 0.0
C1383 C 0.57714 0.05636 0.13989 0.0
H1384 H 0.54578 0.05484 0.11669 0.0
H1385 H 0.57432 0.06999 0.15253 0.0
H1386 H 0.53208 0.01625 0.95821 0.0
H1387 H 0.55175 0.96807 0.04586 0.0
H1388 H 0.5001 0.99684 0.92822 0.0
H1389 H 0.60926 0.05376 0.15952 0.0
H1390 H 0.63143 0.02373 0.14683 0.0
H1391 H 0.53149 0.11198 0.02174 0.0
H1392 H 0.61469 0.96009 0.08435 0.0
H1393 H 0.58193 0.94582 0.05214 0.0
H1394 H 0.44569 0.04563 0.93042 0.0
H1395 H 0.6334 0.98968 0.11945 0.0
H1396 H 0.46701 0.11628 0.98334 0.0
H1397 H 0.50085 0.13342 0.01356 0.0
N1398 N 0.51513 0.08295 0.99656 0.0
C1399 C 0.49709 0.07351 0.97945 0.0
C1400 C 0.51677 0.10429 0.00858 0.0
C1401 C 0.48044 0.10681 0.98685 0.0
C1402 C 0.49949 0.11653 1.00392 0.0
C1403 C 0.47907 0.08507 0.97432 0.0
H1404 H 0.44627 0.08319 0.9528 0.0
N1405 N 0.5149 0.04201 0.97198 0.0
C1406 C 0.49677 0.05225 0.96703 0.0
C1407 C 0.47924 0.02156 0.93539 0.0
C1408 C 0.47836 0.04216 0.94885 0.0
C1409 C 0.51669 0.02303 0.9572 0.0
C1410 C 0.4987 0.01219 0.93932 0.0
O1411 O 0.57854 0.04034 0.06629 0.0
O1412 O 0.55974 0.04866 0.03546 0.0
O1413 O 0.57169 0.063 0.98528 0.0
O1414 O 0.5596 0.0936 0.99595 0.0
O1415 O 0.53964 0.05867 0.0736 0.0
O1416 O 0.54547 0.0822 0.04267 0.0
O1417 O 0.50876 0.05311 0.01913 0.0
O1418 O 0.52201 0.02475 0.03255 0.0
O1419 O 0.51375 0.02058 0.08576 0.0
O1420 O 0.52023 0.98841 0.06958 0.0
O1421 O 0.5487 0.02372 0.99648 0.0
O1422 O 0.54449 1.00159 0.02834 0.0
C1423 C 0.57941 0.05213 0.04881 0.0
C1424 C 0.54204 0.07897 0.06507 0.0
C1425 C 0.57221 0.09009 0.95827 0.0
C1426 C 0.58388 0.08411 0.91911 0.0
C1427 C 0.56142 0.1128 0.92785 0.0
C1428 C 0.56106 0.10726 0.95092 0.0
C1429 C 0.57295 0.10142 0.91202 0.0
C1430 C 0.58343 0.07843 0.94215 0.0
C1431 C 0.57257 0.08442 0.98268 0.0
C1432 C 0.46 0.05325 0.94418 0.0
C1433 C 0.46037 0.07467 0.95686 0.0
H1434 H 0.46541 0.01322 0.92137 0.0
C1435 C 0.50644 0.03703 0.03261 0.0
C1436 C 0.54751 1.00391 0.00571 0.0
C1437 C 0.50139 0.98698 0.10378 0.0
C1438 C 0.48326 0.98768 0.14008 0.0
C1439 C 0.489 0.95157 0.12001 0.0
C1440 C 0.49917 0.96314 0.10277 0.0
C1441 C 0.48051 0.96352 0.13809 0.0
C1442 C 0.49429 0.99926 0.12291 0.0
C1443 C 0.50786 0.9982 0.08319 0.0
H1444 H 0.55301 0.12615 0.92234 0.0
H1445 H 0.55221 0.11652 0.96297 0.0
H1446 H 0.57355 0.10624 0.89432 0.0
H1447 H 0.59245 0.06545 0.94769 0.0
H1448 H 0.48679 0.93309 0.1188 0.0
H1449 H 0.50445 0.95325 0.08814 0.0
H1450 H 0.47119 0.95338 0.14989 0.0
H1451 H 0.49681 0.01771 0.12383 0.0
C1452 C 0.35436 0.34205 0.32787 0.0
C1453 C 0.37785 0.35963 0.29981 0.0
C1454 C 0.35691 0.34633 0.30484 0.0
C1455 C 0.39656 0.36733 0.31796 0.0
C1456 C 0.37288 0.35064 0.34635 0.0
C1457 C 0.39414 0.3627 0.34114 0.0
N1458 N 0.33321 0.33141 0.33258 0.0
C1459 C 0.32904 0.33103 0.35561 0.0
C1460 C 0.36913 0.34802 0.36973 0.0
C1461 C 0.34696 0.33859 0.37442 0.0
Gd1462 Gd 0.27441 0.26113 0.26646 0.0
Gd1463 Gd 0.30375 0.32018 0.29966 0.0
N1464 N 0.3386 0.33838 0.2875 0.0
C1465 C 0.37919 0.36529 0.2768 0.0
C1466 C 0.33973 0.34438 0.26524 0.0
C1467 C 0.35994 0.35778 0.25948 0.0
H1468 H 0.32517 0.33884 0.25188 0.0
H1469 H 0.36066 0.36224 0.24168 0.0
H1470 H 0.24875 0.24745 0.31487 0.0
H1471 H 0.31146 0.32629 0.35948 0.0
H1472 H 0.21169 0.22609 0.32348 0.0
H1473 H 0.39488 0.3756 0.27229 0.0
H1474 H 0.41282 0.37733 0.31435 0.0
H1475 H 0.26701 0.26343 0.20733 0.0
H1476 H 0.38289 0.35441 0.38438 0.0
H1477 H 0.34345 0.33789 0.39255 0.0
H1478 H 0.164 0.20837 0.24805 0.0
H1479 H 0.40853 0.36932 0.35509 0.0
H1480 H 0.19683 0.23303 0.17999 0.0
H1481 H 0.23599 0.2526 0.17371 0.0
N1482 N 0.24533 0.25369 0.23328 0.0
C1483 C 0.22399 0.24251 0.23703 0.0
C1484 C 0.24968 0.2571 0.21077 0.0
C1485 C 0.21022 0.23889 0.19507 0.0
C1486 C 0.23223 0.25007 0.19147 0.0
C1487 C 0.20592 0.23471 0.21796 0.0
H1488 H 0.17036 0.21621 0.20769 0.0
N1489 N 0.23818 0.2454 0.27784 0.0
C1490 C 0.22042 0.23794 0.25983 0.0
C1491 C 0.19562 0.22128 0.28719 0.0
C1492 C 0.19867 0.22567 0.26406 0.0
C1493 C 0.23512 0.24126 0.30046 0.0
C1494 C 0.21391 0.22922 0.30548 0.0
O1495 O 0.33143 0.30155 0.28575 0.0
O1496 O 0.31307 0.26931 0.25971 0.0
O1497 O 0.28426 0.23 0.27638 0.0
O1498 O 0.27056 0.23198 0.23958 0.0
O1499 O 0.28379 0.31844 0.26256 0.0
O1500 O 0.28949 0.28633 0.24174 0.0
O1501 O 0.2475 0.28281 0.27867 0.0
O1502 O 0.26772 0.30761 0.31097 0.0
O1503 O 0.29169 0.34964 0.28713 0.0
O1504 O 0.30562 0.35003 0.32441 0.0
O1505 O 0.28747 0.25852 0.30541 0.0
O1506 O 0.29485 0.29499 0.3262 0.0
C1507 C 0.33242 0.28377 0.27008 0.0
C1508 C 0.28697 0.30761 0.24227 0.0
C1509 C 0.281 0.19656 0.24699 0.0
C1510 C 0.29606 0.16347 0.25583 0.0
C1511 C 0.27836 0.16487 0.21589 0.0
C1512 C 0.27419 0.18644 0.22327 0.0
C1513 C 0.28933 0.15338 0.23208 0.0
C1514 C 0.29181 0.18499 0.26317 0.0
C1515 C 0.27879 0.21993 0.25448 0.0
C1516 C 0.18073 0.21795 0.24513 0.0
C1517 C 0.18434 0.22247 0.22216 0.0
H1518 H 0.17921 0.21189 0.29112 0.0
C1519 C 0.24761 0.29743 0.29811 0.0
C1520 C 0.29166 0.27248 0.32568 0.0
C1521 C 0.29645 0.38467 0.31471 0.0
C1522 C 0.2744 0.41371 0.31181 0.0
C1523 C 0.30846 0.42062 0.34106 0.0
C1524 C 0.31186 0.39881 0.33335 0.0
C1525 C 0.28954 0.42805 0.33044 0.0
C1526 C 0.2781 0.39233 0.30363 0.0
C1527 C 0.29796 0.36114 0.30835 0.0
H1528 H 0.27325 0.15714 0.19759 0.0
H1529 H 0.26602 0.19531 0.21037 0.0
H1530 H 0.29244 0.13663 0.22611 0.0
H1531 H 0.29768 0.19305 0.28132 0.0
H1532 H 0.3202 0.43155 0.35547 0.0
H1533 H 0.3262 0.39285 0.34212 0.0
H1534 H 0.28668 0.44484 0.33666 0.0
H1535 H 0.26602 0.38126 0.28944 0.0
C1536 C 0.51554 0.59053 0.08077 0.0
C1537 C 0.55022 0.61737 0.10079 0.0
C1538 C 0.53907 0.60018 0.08198 0.0
C1539 C 0.53752 0.62459 0.1184 0.0
C1540 C 0.50277 0.59784 0.0984 0.0
C1541 C 0.5139 0.61482 0.11724 0.0
N1542 N 0.50517 0.57401 0.06243 0.0
C1543 C 0.48193 0.56497 0.06002 0.0
C1544 C 0.47912 0.58795 0.09655 0.0
C1545 C 0.46864 0.57157 0.07718 0.0
Gd1546 Gd 0.55296 0.50624 0.031 0.0
Gd1547 Gd 0.5293 0.56473 0.03483 0.0
N1548 N 0.55124 0.5921 0.06534 0.0
C1549 C 0.57391 0.62654 0.10156 0.0
C1550 C 0.57405 0.60169 0.06541 0.0
C1551 C 0.58582 0.61879 0.08367 0.0
H1552 H 0.58311 0.59663 0.0512 0.0
H1553 H 0.60402 0.62614 0.0838 0.0
H1554 H 0.50322 0.47016 0.01399 0.0
H1555 H 0.47339 0.55299 0.04468 0.0
H1556 H 0.48215 0.44407 0.97809 0.0
H1557 H 0.5831 0.63973 0.11574 0.0
H1558 H 0.54583 0.63767 0.13305 0.0
H1559 H 0.60971 0.51976 0.02384 0.0
H1560 H 0.46874 0.59307 0.10977 0.0
H1561 H 0.45027 0.56418 0.07533 0.0
H1562 H 0.54001 0.44541 0.92531 0.0
H1563 H 0.50436 0.62058 0.13098 0.0
H1564 H 0.61657 0.48911 0.95458 0.0
H1565 H 0.63398 0.5133 0.99257 0.0
N1566 N 0.57841 0.50077 1.00319 0.0
C1567 C 0.56865 0.48675 0.98271 0.0
C1568 C 0.60167 0.50983 0.00707 0.0
C1569 C 0.60569 0.49221 0.96808 0.0
C1570 C 0.61558 0.50592 0.98949 0.0
C1571 C 0.58201 0.48218 0.96458 0.0
H1572 H 0.58139 0.46391 0.92956 0.0
N1573 N 0.53287 0.48115 0.99795 0.0
C1574 C 0.54526 0.47639 0.98014 0.0
C1575 C 0.51145 0.44991 0.95862 0.0
C1576 C 0.53471 0.46106 0.95967 0.0
C1577 C 0.5111 0.46883 0.99804 0.0
C1578 C 0.49971 0.45348 0.97815 0.0
O1579 O 0.54297 0.55445 0.07074 0.0
O1580 O 0.56717 0.52862 0.06621 0.0
O1581 O 0.54003 0.4764 0.0484 0.0
O1582 O 0.5749 0.48248 0.03954 0.0
O1583 O 0.56061 0.56052 0.01714 0.0
O1584 O 0.58123 0.5393 0.03817 0.0
O1585 O 0.54005 0.51869 0.99583 0.0
O1586 O 0.51178 0.53845 1.00368 0.0
O1587 O 0.54079 0.59201 0.01221 0.0
O1588 O 0.50669 0.58627 0.02416 0.0
O1589 O 0.51905 0.50618 0.04655 0.0
O1590 O 0.50082 0.53253 0.02988 0.0
C1591 C 0.55795 0.54276 0.07965 0.0
C1592 C 0.58052 0.55703 0.02649 0.0
C1593 C 0.5672 0.46044 0.07132 0.0
C1594 C 0.56395 0.42988 0.09707 0.0
C1595 C 0.59487 0.46406 0.10673 0.0
C1596 C 0.58678 0.47288 0.08662 0.0
C1597 C 0.5834 0.44294 0.11213 0.0
C1598 C 0.55593 0.43868 0.07648 0.0
C1599 C 0.55936 0.46929 0.04926 0.0
C1600 C 0.54783 0.45698 0.9413 0.0
C1601 C 0.57141 0.46752 0.94374 0.0
H1602 H 0.50269 0.43796 0.94323 0.0
C1603 C 0.5225 0.52788 0.98855 0.0
C1604 C 0.50026 0.51367 0.03989 0.0
C1605 C 0.51238 0.61477 0.99768 0.0
C1606 C 0.51792 0.64661 0.97359 0.0
C1607 C 0.47931 0.62879 0.98088 0.0
C1608 C 0.48838 0.61375 0.99413 0.0
C1609 C 0.49387 0.645 0.97064 0.0
C1610 C 0.52729 0.63154 0.98748 0.0
C1611 C 0.52097 0.59822 0.0122 0.0
H1612 H 0.61022 0.47361 0.1182 0.0
H1613 H 0.59609 0.48927 0.08282 0.0
H1614 H 0.59025 0.43637 0.1277 0.0
H1615 H 0.54124 0.42854 0.0644 0.0
H1616 H 0.46083 0.62791 0.97856 0.0
H1617 H 0.47642 0.6013 1.00169 0.0
H1618 H 0.48627 0.65665 0.96066 0.0
H1619 H 0.54583 0.63275 0.99014 0.0
C1620 C 0.74827 0.23706 0.32539 0.0
C1621 C 0.72106 0.20706 0.2984 0.0
C1622 C 0.74207 0.22361 0.30331 0.0
C1623 C 0.70529 0.20573 0.31501 0.0
C1624 C 0.73306 0.23445 0.34275 0.0
C1625 C 0.71121 0.21951 0.33708 0.0
N1626 N 0.76997 0.25067 0.33074 0.0
C1627 C 0.77838 0.2591 0.35401 0.0
C1628 C 0.74075 0.2458 0.36575 0.0
C1629 C 0.76371 0.25764 0.37155 0.0
Gd1630 Gd 0.79272 0.31891 0.27219 0.0
Gd1631 Gd 0.79111 0.25388 0.29774 0.0
N1632 N 0.75735 0.22549 0.28722 0.0
C1633 C 0.71704 0.19159 0.27742 0.0
C1634 C 0.75463 0.20911 0.26804 0.0
C1635 C 0.73421 0.19223 0.2625 0.0
H1636 H 0.76823 0.2091 0.257 0.0
H1637 H 0.73179 0.1797 0.24681 0.0
H1638 H 0.81382 0.35501 0.32237 0.0
H1639 H 0.79645 0.26698 0.35945 0.0
H1640 H 0.84903 0.38444 0.33811 0.0
H1641 H 0.7012 0.17853 0.27309 0.0
H1642 H 0.68887 0.19345 0.31135 0.0
H1643 H 0.79502 0.30793 0.21182 0.0
H1644 H 0.72955 0.24431 0.37952 0.0
H1645 H 0.77028 0.26522 0.38967 0.0
H1646 H 0.89463 0.38713 0.27384 0.0
H1647 H 0.69925 0.21759 0.3501 0.0
H1648 H 0.86203 0.34156 0.19963 0.0
H1649 H 0.82397 0.316 0.185 0.0
N1650 N 0.81721 0.32642 0.24286 0.0
C1651 C 0.83744 0.34199 0.2509 0.0
C1652 C 0.81187 0.31812 0.21919 0.0
C1653 C 0.84955 0.33762 0.21188 0.0
C1654 C 0.82813 0.32311 0.20357 0.0
C1655 C 0.85424 0.34771 0.2356 0.0
H1656 H 0.88807 0.36808 0.2327 0.0
N1657 N 0.82493 0.34743 0.28894 0.0
C1658 C 0.8412 0.35304 0.27429 0.0
C1659 C 0.8646 0.38081 0.30595 0.0
C1660 C 0.86173 0.3696 0.28267 0.0
C1661 C 0.82726 0.35882 0.31135 0.0
C1662 C 0.84712 0.37565 0.32022 0.0
O1663 O 0.75586 0.2585 0.27754 0.0
O1664 O 0.75573 0.29671 0.27115 0.0
O1665 O 0.77979 0.34868 0.2868 0.0
O1666 O 0.77269 0.33557 0.24912 0.0
O1667 O 0.80159 0.27008 0.26593 0.0
O1668 O 0.78273 0.29006 0.24311 0.0
O1669 O 0.82829 0.31223 0.29038 0.0
O1670 O 0.82831 0.27651 0.30432 0.0
O1671 O 0.80759 0.22885 0.27966 0.0
O1672 O 0.80173 0.22741 0.31622 0.0
O1673 O 0.78071 0.29955 0.30071 0.0
O1674 O 0.80159 0.28435 0.32586 0.0
C1675 C 0.74485 0.27492 0.27114 0.0
C1676 C 0.78755 0.27058 0.24692 0.0
C1677 C 0.76825 0.37347 0.25926 0.0
C1678 C 0.748 0.40518 0.2608 0.0
C1679 C 0.77288 0.40035 0.23036 0.0
C1680 C 0.77818 0.38111 0.23955 0.0
C1681 C 0.7578 0.41224 0.24078 0.0
C1682 C 0.75342 0.38574 0.27001 0.0
C1683 C 0.76964 0.35071 0.26594 0.0
C1684 C 0.87868 0.37461 0.26762 0.0
C1685 C 0.87495 0.3637 0.2442 0.0
H1686 H 0.88011 0.39366 0.31298 0.0
C1687 C 0.83932 0.29716 0.30016 0.0
C1688 C 0.79285 0.30175 0.32121 0.0
C1689 C 0.83366 0.21409 0.3047 0.0
C1690 C 0.85863 0.18669 0.30716 0.0
C1691 C 0.87204 0.22575 0.32707 0.0
C1692 C 0.85107 0.23096 0.31883 0.0
C1693 C 0.87589 0.2038 0.32121 0.0
C1694 C 0.8375 0.1919 0.29873 0.0
C1695 C 0.81069 0.21878 0.2985 0.0
H1696 H 0.78027 0.40591 0.21492 0.0
H1697 H 0.78937 0.37174 0.23073 0.0
H1698 H 0.7541 0.4272 0.23337 0.0
H1699 H 0.74533 0.37957 0.2849 0.0
H1700 H 0.88507 0.23857 0.33863 0.0
H1701 H 0.84818 0.24789 0.32422 0.0
H1702 H 0.8921 0.1999 0.32831 0.0
H1703 H 0.82377 0.17854 0.28864 0.0
C1704 C 0.07901 0.498 0.59461 0.0
C1705 C 0.10221 0.5294 0.62281 0.0
C1706 C 0.08276 0.52043 0.60548 0.0
C1707 C 0.1179 0.51558 0.62864 0.0
C1708 C 0.0945 0.48391 0.60067 0.0
C1709 C 0.11405 0.49288 0.61761 0.0
N1710 N 0.06033 0.49 0.57788 0.0
C1711 C 0.05563 0.4679 0.56695 0.0
C1712 C 0.08996 0.46127 0.58935 0.0
C1713 C 0.07034 0.45319 0.57252 0.0
Gd1714 Gd 0.04117 0.55887 0.51042 0.0
Gd1715 Gd 0.03888 0.51645 0.56615 0.0
N1716 N 0.06751 0.53349 0.59896 0.0
C1717 C 0.10539 0.55201 0.63372 0.0
C1718 C 0.07028 0.5554 0.61027 0.0
C1719 C 0.0892 0.56495 0.62761 0.0
H1720 H 0.05823 0.56597 0.60643 0.0
H1721 H 0.09129 0.58238 0.63621 0.0
H1722 H 0.01528 0.5076 0.47569 0.0
H1723 H 0.0407 0.4617 0.55361 0.0
H1724 H 0.9847 0.49344 0.44253 0.0
H1725 H 0.12012 0.55954 0.64705 0.0
H1726 H 0.13303 0.52226 0.64173 0.0
H1727 H 0.03735 0.61294 0.52743 0.0
H1728 H 0.10147 0.44992 0.59347 0.0
H1729 H 0.06668 0.43572 0.56365 0.0
H1730 H 0.95339 0.55903 0.42845 0.0
H1731 H 0.12626 0.48239 0.62234 0.0
H1732 H 0.98377 0.62925 0.48039 0.0
H1733 H 0.01439 0.64063 0.51494 0.0
N1734 N 0.01985 0.5861 0.50025 0.0
C1735 C 1.00329 0.57955 0.48099 0.0
C1736 C 0.02387 0.60769 0.51245 0.0
C1737 C 0.99384 0.61702 0.48572 0.0
C1738 C 1.01103 0.62348 0.50531 0.0
C1739 C 0.98965 0.59481 0.4734 0.0
H1740 H 0.96127 0.59883 0.44816 0.0
N1741 N 0.01159 0.54241 0.47823 0.0
C1742 C 0.99913 0.55716 0.4695 0.0
C1743 C 0.97588 0.52634 0.44068 0.0
C1744 C 0.98084 0.54942 0.45064 0.0
C1745 C 1.00653 0.51976 0.46854 0.0
C1746 C 0.98872 0.51145 0.44976 0.0
O1747 O 0.07313 0.52624 0.55454 0.0
O1748 O 0.06532 0.55933 0.54388 0.0
O1749 O 0.06627 0.55583 0.48618 0.0
O1750 O 0.06221 0.58947 0.50078 0.0
O1751 O 0.03005 0.55235 0.57451 0.0
O1752 O 0.04096 0.57877 0.54762 0.0
O1753 O 1.00399 0.54412 0.51284 0.0
O1754 O 0.0262 0.53194 0.53739 0.0
O1755 O 0.0136 0.51664 0.59037 0.0
O1756 O 1.01077 0.48666 0.56434 0.0
O1757 O 0.04915 0.52249 0.50274 0.0
O1758 O 0.04031 0.49554 0.52957 0.0
C1759 C 0.07954 0.54534 0.54577 0.0
C1760 C 0.03329 0.57349 0.56795 0.0
C1761 C 0.0701 0.58464 0.46123 0.0
C1762 C 0.08051 0.57972 0.42161 0.0
C1763 C 0.05929 0.6089 0.43242 0.0
C1764 C 0.05925 0.60243 0.45516 0.0
C1765 C 0.07008 0.5977 0.41568 0.0
C1766 C 0.08058 0.57326 0.44429 0.0
C1767 C 0.07111 0.57785 0.48508 0.0
C1768 C 0.9675 0.5647 0.44288 0.0
C1769 C 0.97195 0.58734 0.45415 0.0
H1770 H 0.96184 0.51973 0.42634 0.0
C1771 C 1.00514 0.53082 0.5286 0.0
C1772 C 0.04691 0.50121 0.50883 0.0
C1773 C 0.99326 0.48121 0.59949 0.0
C1774 C 0.98106 0.47694 0.6384 0.0
C1775 C 0.9726 0.4442 0.60732 0.0
C1776 C 0.98352 0.45788 0.59192 0.0
C1777 C 0.97125 0.45362 0.63033 0.0
C1778 C 0.99186 0.49077 0.62281 0.0
C1779 C 1.00222 0.49588 0.58215 0.0
H1780 H 0.05122 0.62278 0.42786 0.0
H1781 H 0.05093 0.61147 0.46794 0.0
H1782 H 0.07053 0.60316 0.39824 0.0
H1783 H 0.0893 0.55975 0.44888 0.0
H1784 H 0.96485 0.42628 0.6013 0.0
H1785 H 0.98386 0.45033 0.57391 0.0
H1786 H 0.96219 0.44268 0.64175 0.0
H1787 H 0.99899 0.50885 0.62882 0.0
C1788 C 0.73478 0.81523 0.2362 0.0
C1789 C 0.70906 0.78128 0.21362 0.0
C1790 C 0.72549 0.79174 0.23339 0.0
C1791 C 0.70224 0.79472 0.19663 0.0
C1792 C 0.72776 0.82881 0.21932 0.0
C1793 C 0.71155 0.81841 0.19948 0.0
N1794 N 0.75056 0.82482 0.25547 0.0
C1795 C 0.75953 0.84791 0.25933 0.0
C1796 C 0.73723 0.85246 0.22291 0.0
C1797 C 0.75309 0.86206 0.24306 0.0
Gd1798 Gd 0.81613 0.77203 0.28249 0.0
Gd1799 Gd 0.76077 0.79947 0.28099 0.0
N1800 N 0.73279 0.77907 0.24986 0.0
C1801 C 0.69992 0.75762 0.21156 0.0
C1802 C 0.72314 0.75624 0.24854 0.0
C1803 C 0.70684 0.7451 0.22922 0.0
H1804 H 0.7279 0.7465 0.26224 0.0
H1805 H 0.69955 0.72689 0.22803 0.0
H1806 H 0.83828 0.82593 0.31218 0.0
H1807 H 0.77145 0.85549 0.27511 0.0
H1808 H 0.86588 0.84411 0.34719 0.0
H1809 H 0.6873 0.74894 0.1966 0.0
H1810 H 0.68969 0.78698 0.18127 0.0
H1811 H 0.80721 0.7156 0.28454 0.0
H1812 H 0.73227 0.86348 0.21033 0.0
H1813 H 0.76031 0.88036 0.24612 0.0
H1814 H 0.88454 0.78073 0.38365 0.0
H1815 H 0.70602 0.82857 0.18627 0.0
H1816 H 0.84721 0.70462 0.34751 0.0
H1817 H 0.81959 0.68915 0.31111 0.0
N1818 N 0.82742 0.74563 0.30594 0.0
C1819 C 0.84258 0.75456 0.32585 0.0
C1820 C 0.8191 0.7225 0.30054 0.0
C1821 C 0.84182 0.71631 0.33595 0.0
C1822 C 0.82618 0.7075 0.31544 0.0
C1823 C 0.85019 0.74007 0.34142 0.0
H1824 H 0.87156 0.73881 0.37425 0.0
N1825 N 0.84116 0.79192 0.3166 0.0
C1826 C 0.84994 0.77831 0.33116 0.0
C1827 C 0.87121 0.81193 0.35765 0.0
C1828 C 0.86504 0.788 0.35218 0.0
C1829 C 0.84674 0.81527 0.32229 0.0
C1830 C 0.86188 0.82561 0.34271 0.0
O1831 O 0.76987 0.78502 0.24438 0.0
O1832 O 0.78737 0.75552 0.25317 0.0
O1833 O 0.84149 0.78566 0.26004 0.0
O1834 O 0.83781 0.75056 0.26732 0.0
O1835 O 0.75982 0.76614 0.29707 0.0
O1836 O 0.78276 0.74473 0.27873 0.0
O1837 O 0.80422 0.78245 0.31828 0.0
O1838 O 0.78913 0.81364 0.31166 0.0
O1839 O 0.73596 0.78843 0.30513 0.0
O1840 O 0.74074 0.82287 0.29583 0.0
O1841 O 0.81495 0.80367 0.26414 0.0
O1842 O 0.79447 0.82636 0.28375 0.0
C1843 C 0.7775 0.76631 0.23756 0.0
C1844 C 0.76512 0.74626 0.29055 0.0
C1845 C 0.87445 0.76929 0.25818 0.0
C1846 C 0.90966 0.77539 0.23882 0.0
C1847 C 0.91157 0.76881 0.28017 0.0
C1848 C 0.88771 0.767 0.27926 0.0
C1849 C 0.9225 0.77308 0.26017 0.0
C1850 C 0.88549 0.77337 0.23787 0.0
C1851 C 0.8491 0.76678 0.2569 0.0
C1852 C 0.87297 0.77357 0.36744 0.0
C1853 C 0.86554 0.74969 0.3621 0.0
H1854 H 0.88266 0.82 0.37368 0.0
C1855 C 0.79649 0.80054 0.32645 0.0
C1856 C 0.81214 0.82409 0.27225 0.0
C1857 C 0.70448 0.80709 0.30811 0.0
C1858 C 0.67069 0.80377 0.3298 0.0
C1859 C 0.66709 0.80956 0.28816 0.0
C1860 C 0.69054 0.80975 0.28763 0.0
C1861 C 0.65721 0.80649 0.30899 0.0
C1862 C 0.6945 0.80424 0.32931 0.0
C1863 C 0.72951 0.80797 0.30776 0.0
H1864 H 0.92162 0.76663 0.29639 0.0
H1865 H 0.8796 0.76357 0.29495 0.0
H1866 H 0.94094 0.77385 0.26114 0.0
H1867 H 0.87532 0.7747 0.22135 0.0
H1868 H 0.65652 0.81188 0.27234 0.0
H1869 H 0.69781 0.81215 0.27127 0.0
H1870 H 0.639 0.80658 0.30896 0.0
H1871 H 0.70516 0.80234 0.34529 0.0
C1872 C 0.83377 0.24598 0.723 0.0
C1873 C 0.8032 0.22586 0.69183 0.0
C1874 C 0.81205 0.24405 0.7104 0.0
C1875 C 0.81646 0.20959 0.68626 0.0
C1876 C 0.8474 0.23003 0.71702 0.0
C1877 C 0.83853 0.21171 0.69877 0.0
N1878 N 0.8416 0.26347 0.74106 0.0
C1879 C 0.86359 0.267 0.75261 0.0
C1880 C 0.86959 0.233 0.72952 0.0
C1881 C 0.87782 0.25175 0.74717 0.0
Gd1882 Gd 0.77824 0.28883 0.8126 0.0
Gd1883 Gd 0.81538 0.28644 0.75094 0.0
N1884 N 0.79933 0.25966 0.71679 0.0
C1885 C 0.78123 0.2245 0.67949 0.0
C1886 C 0.77835 0.25897 0.70398 0.0
C1887 C 0.76891 0.24131 0.6854 0.0
H1888 H 0.76862 0.27187 0.70781 0.0
H1889 H 0.75209 0.24068 0.67565 0.0
H1890 H 0.81977 0.29861 0.86007 0.0
H1891 H 0.87028 0.28156 0.76615 0.0
H1892 H 0.83995 0.33085 0.89037 0.0
H1893 H 0.77379 0.21073 0.66519 0.0
H1894 H 0.80986 0.1954 0.6722 0.0
H1895 H 0.72592 0.29794 0.7964 0.0
H1896 H 0.88059 0.22112 0.72546 0.0
H1897 H 0.89511 0.25444 0.75666 0.0
H1898 H 0.79213 0.38621 0.88474 0.0
H1899 H 0.84866 0.19915 0.69412 0.0
H1900 H 0.72079 0.36302 0.83176 0.0
H1901 H 0.70356 0.328 0.80334 0.0
N1902 N 0.75558 0.31604 0.81972 0.0
C1903 C 0.76488 0.33453 0.83622 0.0
C1904 C 0.73367 0.31329 0.80839 0.0
C1905 C 0.7307 0.34994 0.82857 0.0
C1906 C 0.72092 0.33022 0.8125 0.0
C1907 C 0.75288 0.35219 0.84088 0.0
H1908 H 0.75435 0.38504 0.86166 0.0
N1909 N 0.79618 0.317 0.84497 0.0
C1910 C 0.78609 0.33519 0.84904 0.0
C1911 C 0.81618 0.35236 0.88148 0.0
C1912 C 0.7959 0.3535 0.8672 0.0
C1913 C 0.81429 0.31465 0.86061 0.0
C1914 C 0.82512 0.33258 0.8785 0.0
O1915 O 0.79759 0.25051 0.75354 0.0
O1916 O 0.7925 0.27073 0.78479 0.0
O1917 O 0.77543 0.27044 0.8427 0.0
O1918 O 0.74624 0.26372 0.81404 0.0
O1919 O 0.77773 0.29301 0.74553 0.0
O1920 O 0.75587 0.28127 0.77605 0.0
O1921 O 0.78509 0.32161 0.79702 0.0
O1922 O 0.81466 0.30943 0.78395 0.0
O1923 O 0.81331 0.31241 0.72786 0.0
O1924 O 0.84676 0.30835 0.74375 0.0
O1925 O 0.81582 0.28277 0.81996 0.0
O1926 O 0.83688 0.28402 0.78686 0.0
C1927 C 0.78838 0.25047 0.77279 0.0
C1928 C 0.75766 0.28757 0.75443 0.0
C1929 C 0.74184 0.24269 0.84811 0.0
C1930 C 0.74104 0.22388 0.88342 0.0
C1931 C 0.71008 0.21096 0.85069 0.0
C1932 C 0.72079 0.22791 0.83807 0.0
C1933 C 0.72017 0.20893 0.87338 0.0
C1934 C 0.75185 0.24058 0.87082 0.0
C1935 C 0.75448 0.25924 0.83464 0.0
C1936 C 0.78468 0.37182 0.87111 0.0
C1937 C 0.76316 0.37114 0.858 0.0
H1938 H 0.82436 0.36612 0.89554 0.0
C1939 C 0.80189 0.32463 0.78417 0.0
C1940 C 0.8351 0.28218 0.80984 0.0
C1941 C 0.84501 0.32238 0.70666 0.0
C1942 C 0.84147 0.33743 0.66917 0.0
C1943 C 0.87663 0.3255 0.68277 0.0
C1944 C 0.86733 0.31937 0.70319 0.0
C1945 C 0.86382 0.33476 0.66585 0.0
C1946 C 0.83212 0.33121 0.68942 0.0
C1947 C 0.83573 0.31871 0.72898 0.0
H1948 H 0.69401 0.19937 0.84285 0.0
H1949 H 0.71296 0.22907 0.82036 0.0
H1950 H 0.71173 0.19583 0.88311 0.0
H1951 H 0.76813 0.25185 0.87883 0.0
H1952 H 0.89389 0.32339 0.68023 0.0
H1953 H 0.87776 0.31275 0.71638 0.0
H1954 H 0.87126 0.33978 0.65022 0.0
H1955 H 0.81505 0.33403 0.69207 0.0
C1956 C 0.85651 0.83413 0.834 0.0
C1957 C 0.88289 0.85793 0.8125 0.0
C1958 C 0.86064 0.84509 0.81429 0.0
C1959 C 0.9013 0.85846 0.83022 0.0
C1960 C 0.8747 0.83602 0.85265 0.0
C1961 C 0.89721 0.84753 0.85028 0.0
N1962 N 0.83428 0.82402 0.83615 0.0
C1963 C 0.82899 0.81823 0.85768 0.0
C1964 C 0.86947 0.82764 0.87375 0.0
C1965 C 0.84643 0.81923 0.87647 0.0
Gd1966 Gd 0.77653 0.76177 0.76945 0.0
Gd1967 Gd 0.80644 0.82277 0.80269 0.0
N1968 N 0.84238 0.84496 0.7979 0.0
C1969 C 0.88566 0.87094 0.79366 0.0
C1970 C 0.84456 0.85938 0.78101 0.0
C1971 C 0.86626 0.87207 0.77814 0.0
H1972 H 0.82946 0.86148 0.76994 0.0
H1973 H 0.86792 0.88302 0.76428 0.0
H1974 H 0.75912 0.73571 0.81542 0.0
H1975 H 0.81141 0.81401 0.86105 0.0
H1976 H 0.72339 0.71521 0.82789 0.0
H1977 H 0.90244 0.88109 0.7917 0.0
H1978 H 0.91854 0.86811 0.8291 0.0
H1979 H 0.76359 0.76369 0.70986 0.0
H1980 H 0.8829 0.82892 0.88855 0.0
H1981 H 0.842 0.8142 0.89331 0.0
H1982 H 0.66667 0.70776 0.75982 0.0
H1983 H 0.91138 0.849 0.86437 0.0
H1984 H 0.69171 0.73566 0.68974 0.0
H1985 H 0.72971 0.75426 0.67966 0.0
N1986 N 0.74492 0.7542 0.73847 0.0
C1987 C 0.72435 0.74275 0.74401 0.0
C1988 C 0.74697 0.75766 0.71539 0.0
C1989 C 0.70644 0.74082 0.70353 0.0
C1990 C 0.7278 0.75145 0.69781 0.0
C1991 C 0.70457 0.73593 0.7267 0.0
H1992 H 0.66847 0.71832 0.71962 0.0
N1993 N 0.74293 0.74199 0.78263 0.0
C1994 C 0.72336 0.73637 0.76663 0.0
C1995 C 0.70247 0.7166 0.79511 0.0
C1996 C 0.70257 0.72361 0.77254 0.0
C1997 C 0.74323 0.7337 0.80395 0.0
C1998 C 0.723 0.72142 0.81078 0.0
O1999 O 0.83347 0.80475 0.7869 0.0
O2000 O 0.81522 0.77105 0.76279 0.0
O2001 O 0.78752 0.73073 0.77794 0.0
O2002 O 0.77366 0.73375 0.7415 0.0
O2003 O 0.80175 0.82258 0.7627 0.0
O2004 O 0.78649 0.78641 0.74235 0.0
O2005 O 0.74817 0.77967 0.78462 0.0
O2006 O 0.76679 0.81546 0.80421 0.0
O2007 O 0.79476 0.85195 0.79142 0.0
O2008 O 0.81057 0.85323 0.82808 0.0
O2009 O 0.79298 0.76364 0.80831 0.0
O2010 O 0.78769 0.79796 0.82514 0.0
C2011 C 0.83438 0.78653 0.7719 0.0
C2012 C 0.79513 0.8085 0.74272 0.0
C2013 C 0.78512 0.69845 0.74746 0.0
C2014 C 0.80045 0.66527 0.75523 0.0
C2015 C 0.78279 0.6676 0.71554 0.0
C2016 C 0.77842 0.68893 0.72354 0.0
C2017 C 0.79382 0.65575 0.73131 0.0
C2018 C 0.79605 0.68656 0.76317 0.0
C2019 C 0.78217 0.72135 0.75582 0.0
C2020 C 0.68274 0.7176 0.75559 0.0
C2021 C 0.68377 0.72366 0.73271 0.0
H2022 H 0.68686 0.70677 0.80029 0.0
C2023 C 0.74743 0.79958 0.79714 0.0
C2024 C 0.78886 0.77656 0.82687 0.0
C2025 C 0.78092 0.87318 0.82046 0.0
C2026 C 0.75776 0.90104 0.81462 0.0
C2027 C 0.7502 0.87586 0.84453 0.0
C2028 C 0.76824 0.8655 0.8385 0.0
C2029 C 0.74507 0.89387 0.83275 0.0
C2030 C 0.77532 0.89053 0.80835 0.0
C2031 C 0.79956 0.86325 0.8128 0.0
H2032 H 0.77774 0.66031 0.69711 0.0
H2033 H 0.77009 0.69805 0.71102 0.0
H2034 H 0.79705 0.63917 0.72487 0.0
H2035 H 0.80179 0.69418 0.78148 0.0
H2036 H 0.74048 0.87023 0.85855 0.0
H2037 H 0.77218 0.85161 0.84773 0.0
H2038 H 0.73188 0.90264 0.83822 0.0
H2039 H 0.78541 0.89664 0.79464 0.0
C2040 C 0.49283 0.46749 0.48757 0.0
C2041 C 0.47557 0.44431 0.51601 0.0
C2042 C 0.48762 0.46549 0.51048 0.0
C2043 C 0.46902 0.42523 0.49832 0.0
C2044 C 0.48596 0.44837 0.46968 0.0
C2045 C 0.47418 0.42726 0.47523 0.0
N2046 N 0.50359 0.48833 0.48248 0.0
C2047 C 0.50734 0.49123 0.45972 0.0
C2048 C 0.49052 0.45116 0.44655 0.0
C2049 C 0.50116 0.47272 0.44153 0.0
Gd2050 Gd 0.56676 0.54855 0.54985 0.0
Gd2051 Gd 0.51073 0.51887 0.51382 0.0
N2052 N 0.49375 0.48437 0.5272 0.0
C2053 C 0.46988 0.44305 0.53901 0.0
C2054 C 0.48718 0.48339 0.54929 0.0
C2055 C 0.47561 0.46273 0.55568 0.0
H2056 H 0.49019 0.49845 0.56195 0.0
H2057 H 0.47067 0.46214 0.57332 0.0
H2058 H 0.57964 0.5741 0.50163 0.0
H2059 H 0.51357 0.50809 0.45519 0.0
H2060 H 0.60053 0.6112 0.49279 0.0
H2061 H 0.46058 0.42713 0.54391 0.0
H2062 H 0.45965 0.4089 0.50224 0.0
H2063 H 0.56361 0.55525 0.60901 0.0
H2064 H 0.48536 0.43694 0.43232 0.0
H2065 H 0.50402 0.47527 0.42353 0.0
H2066 H 0.62075 0.65758 0.56877 0.0
H2067 H 0.46866 0.41246 0.46167 0.0
H2068 H 0.59745 0.62413 0.63702 0.0
H2069 H 0.57656 0.58557 0.64295 0.0
N2070 N 0.57514 0.57679 0.58336 0.0
C2071 C 0.58654 0.59796 0.57971 0.0
C2072 C 0.57146 0.57228 0.60577 0.0
C2073 C 0.59112 0.61106 0.62182 0.0
C2074 C 0.57926 0.58935 0.62524 0.0
C2075 C 0.59498 0.61559 0.59891 0.0
H2076 H 0.61411 0.65069 0.60933 0.0
N2077 N 0.58241 0.58447 0.53863 0.0
C2078 C 0.59047 0.60183 0.55679 0.0
C2079 C 0.60629 0.62679 0.52928 0.0
C2080 C 0.60269 0.62345 0.55256 0.0
C2081 C 0.58618 0.58763 0.51595 0.0
C2082 C 0.59789 0.60881 0.51088 0.0
O2083 O 0.53236 0.49252 0.52669 0.0
O2084 O 0.5532 0.51276 0.561 0.0
O2085 O 0.59626 0.53584 0.53875 0.0
O2086 O 0.59744 0.55234 0.57526 0.0
O2087 O 0.5085 0.53731 0.55104 0.0
O2088 O 0.54107 0.53401 0.57372 0.0
O2089 O 0.54525 0.5753 0.53702 0.0
O2090 O 0.52372 0.55497 0.50308 0.0
O2091 O 0.48001 0.53014 0.52265 0.0
O2092 O 0.4816 0.51478 0.48628 0.0
O2093 O 0.56918 0.53092 0.51275 0.0
O2094 O 0.53637 0.5322 0.48908 0.0
C2095 C 0.54469 0.4927 0.54758 0.0
C2096 C 0.51953 0.53613 0.57208 0.0
C2097 C 0.6315 0.53913 0.56596 0.0
C2098 C 0.66199 0.51948 0.55764 0.0
C2099 C 0.66642 0.54532 0.5942 0.0
C2100 C 0.64464 0.54979 0.58766 0.0
C2101 C 0.67509 0.53011 0.57926 0.0
C2102 C 0.64035 0.5241 0.55086 0.0
C2103 C 0.608 0.54238 0.55988 0.0
C2104 C 0.61115 0.64096 0.57166 0.0
C2105 C 0.60734 0.63703 0.59476 0.0
H2106 H 0.61556 0.64315 0.52533 0.0
C2107 C 0.5323 0.57509 0.51638 0.0
C2108 C 0.55838 0.53159 0.49152 0.0
C2109 C 0.44643 0.52676 0.49351 0.0
C2110 C 0.41462 0.54415 0.50228 0.0
C2111 C 0.41398 0.52402 0.463 0.0
C2112 C 0.43543 0.51909 0.4702 0.0
C2113 C 0.40362 0.53671 0.47894 0.0
C2114 C 0.43583 0.53899 0.50949 0.0
C2115 C 0.46973 0.52391 0.50087 0.0
H2116 H 0.67646 0.55344 0.61097 0.0
H2117 H 0.63799 0.56135 0.59966 0.0
H2118 H 0.69189 0.52649 0.58459 0.0
H2119 H 0.63026 0.51551 0.53421 0.0
H2120 H 0.40556 0.51829 0.445 0.0
H2121 H 0.44355 0.5097 0.4575 0.0
H2122 H 0.38713 0.54074 0.4731 0.0
H2123 H 0.44453 0.54543 0.52734 0.0
C2124 C 0.09267 0.58635 0.99704 0.0
C2125 C 0.11976 0.6148 0.02584 0.0
C2126 C 0.10407 0.59342 0.02005 0.0
C2127 C 0.12306 0.62958 0.00848 0.0
C2128 C 0.09686 0.60076 0.97932 0.0
C2129 C 0.11162 0.62259 0.9853 0.0
N2130 N 0.07884 0.56489 0.99165 0.0
C2131 C 0.07075 0.5561 0.96849 0.0
C2132 C 0.08682 0.5925 0.95592 0.0
C2133 C 0.07406 0.56994 0.95043 0.0
Gd2134 Gd 1.01021 0.53976 0.04881 0.0
Gd2135 Gd 0.07392 0.5443 0.02432 0.0
N2136 N 0.10028 0.57901 0.0367 0.0
C2137 C 0.13223 0.62034 0.04871 0.0
C2138 C 0.11399 0.58321 0.05806 0.0
C2139 C 0.12971 0.60422 0.06471 0.0
H2140 H 0.11294 0.57014 0.06968 0.0
H2141 H 0.1401 0.6078 0.08198 0.0
H2142 H 0.97501 0.51547 0.99952 0.0
H2143 H 0.06189 0.53836 0.96365 0.0
H2144 H 0.94487 0.47972 0.98634 0.0
H2145 H 0.14452 0.63657 0.05383 0.0
H2146 H 0.1349 0.64618 0.01263 0.0
H2147 H 0.02675 0.539 0.10842 0.0
H2148 H 0.0896 0.60305 0.94182 0.0
H2149 H 0.06708 0.56307 0.93222 0.0
H2150 H 0.94526 0.4382 0.05326 0.0
H2151 H 0.11486 0.63394 0.97194 0.0
H2152 H 0.9942 0.47372 0.12492 0.0
H2153 H 0.02059 0.51162 0.13689 0.0
N2154 N 1.00619 0.51607 0.079 0.0
C2155 C 0.99055 0.49574 0.07235 0.0
C2156 C 0.0162 0.52216 0.10214 0.0
C2157 C 0.99731 0.48548 0.11192 0.0
C2158 C 0.01231 0.50681 0.11872 0.0
C2159 C 0.98589 0.47987 0.08867 0.0
H2160 H 0.96603 0.4467 0.09382 0.0
N2161 N 0.98369 0.506 0.03344 0.0
C2162 C 0.97872 0.49079 0.04922 0.0
C2163 C 0.95022 0.46604 0.01916 0.0
C2164 C 0.96218 0.47009 0.04221 0.0
C2165 C 0.97177 0.50251 0.01119 0.0
C2166 C 0.95478 0.48245 1.00375 0.0
O2167 O 0.06679 0.57965 0.04108 0.0
O2168 O 0.0299 0.57696 0.05247 0.0
O2169 O 0.97838 0.5514 0.03574 0.0
O2170 O 0.98992 0.5523 0.07369 0.0
O2171 O 0.0613 0.53244 0.05713 0.0
O2172 O 0.04062 0.55415 0.07605 0.0
O2173 O 0.02058 0.50492 0.03574 0.0
O2174 O 0.05098 0.50778 0.01266 0.0
O2175 O 0.09958 0.52838 0.04245 0.0
O2176 O 0.10214 0.53599 0.00668 0.0
O2177 O 0.0202 0.55272 0.01531 0.0
O2178 O 0.04284 0.53186 0.99716 0.0
C2179 C 0.0501 0.58925 0.04904 0.0
C2180 C 0.05975 0.54712 0.07495 0.0
C2181 C 0.95444 0.56487 0.06519 0.0
C2182 C 0.92421 0.58733 0.06102 0.0
C2183 C 0.92982 0.56823 0.09607 0.0
C2184 C 0.94784 0.55992 0.08726 0.0
C2185 C 0.91803 0.58165 0.0831 0.0
C2186 C 0.94248 0.57856 0.05194 0.0
C2187 C 0.97476 0.55665 0.05762 0.0
C2188 C 0.95787 0.45423 0.05839 0.0
C2189 C 0.96972 0.45907 0.0815 0.0
H2190 H 0.93713 0.45048 0.01324 0.0
C2191 C 0.03384 0.49523 0.02195 0.0
C2192 C 0.02395 0.5398 0.99695 0.0
C2193 C 0.11533 0.50372 0.01685 0.0
C2194 C 0.14216 0.47804 0.01308 0.0
C2195 C 0.10255 0.46613 0.99376 0.0
C2196 C 0.09803 0.48706 1.00241 0.0
C2197 C 0.1243 0.46149 0.99914 0.0
C2198 C 0.13758 0.49921 0.0223 0.0
C2199 C 0.11052 0.5264 0.02402 0.0
H2200 H 0.9249 0.56417 0.11306 0.0
H2201 H 0.9567 0.54957 0.09788 0.0
H2202 H 0.90371 0.58725 0.09036 0.0
H2203 H 0.94776 0.58282 0.03512 0.0
H2204 H 0.0894 0.45379 0.98218 0.0
H2205 H 0.08123 0.49046 0.99705 0.0
H2206 H 0.12748 0.4452 0.99163 0.0
H2207 H 0.15137 0.51234 0.0326 0.0
H2208 H 0.0429 0.20444 0.9708 0.0
H2209 H 0.97098 0.20051 0.98005 0.0
H2210 H 0.96899 0.16216 0.99308 0.0
H2211 H 0.03664 0.1425 0.94928 0.0
H2212 H 0.06414 0.14037 0.96448 0.0
H2213 H 0.06017 0.16738 0.95545 0.0
H2214 H 0.07296 0.187 0.99861 0.0
H2215 H 0.07694 0.15999 0.00761 0.0
H2216 H 0.05823 0.17558 0.02212 0.0
H2217 H 0.97426 0.12189 1.00482 0.0
H2218 H 0.98661 0.08681 0.01536 0.0
H2219 H 0.0556 0.11487 1.00043 0.0
C2220 C 0.02666 0.19557 0.97554 0.0
C2221 C 1.00692 0.20636 0.97405 0.0
C2222 C 0.98636 0.1934 0.98069 0.0
C2223 C 0.98509 0.17125 0.98822 0.0
C2224 C 1.00457 0.16123 0.98946 0.0
C2225 C 0.02511 0.17307 0.98334 0.0
C2226 C 0.04351 0.15818 0.98648 0.0
C2227 C 0.0516 0.15174 0.9625 0.0
C2228 C 0.06414 0.17096 1.0048 0.0
C2229 C 0.03034 0.13644 0.9956 0.0
C2230 C 1.00775 0.13855 0.99684 0.0
C2231 C 0.99201 0.12049 1.00393 0.0
C2232 C 0.99923 0.10023 0.00988 0.0
C2233 C 0.0223 0.0972 0.00933 0.0
C2234 C 0.03799 0.11609 1.00191 0.0
H2235 H 0.14818 0.77821 0.14959 0.0
H2236 H 0.1387 0.84372 0.18234 0.0
H2237 H 0.1732 0.84657 0.21166 0.0
H2238 H 0.1654 0.75836 0.20554 0.0
H2239 H 0.18623 0.74339 0.19428 0.0
H2240 H 0.16175 0.74683 0.17457 0.0
H2241 H 0.18939 0.76594 0.14707 0.0
H2242 H 0.21391 0.7625 0.16673 0.0
H2243 H 0.21205 0.79056 0.15916 0.0
H2244 H 0.20912 0.84285 0.23803 0.0
H2245 H 0.24246 0.83204 0.26019 0.0
H2246 H 0.22867 0.76733 0.21387 0.0
C2247 C 0.15371 0.79342 0.16259 0.0
C2248 C 0.14077 0.81118 0.16297 0.0
C2249 C 0.14828 0.83016 0.18112 0.0
C2250 C 0.16795 0.83188 0.19801 0.0
C2251 C 0.18016 0.81422 0.19729 0.0
C2252 C 0.17327 0.79518 0.18017 0.0
C2253 C 0.18893 0.77809 0.18452 0.0
C2254 C 0.17473 0.75532 0.19005 0.0
C2255 C 0.20183 0.77403 0.16309 0.0
C2256 C 0.20584 0.79068 0.20639 0.0
C2257 C 0.20036 0.81155 0.21331 0.0
C2258 C 0.21338 0.82648 0.23276 0.0
C2259 C 0.23234 0.82013 0.24542 0.0
C2260 C 0.2384 0.79881 0.23919 0.0
C2261 C 0.22477 0.78385 0.21922 0.0
H2262 H 0.49188 0.85256 0.49179 0.0
H2263 H 0.55684 0.85462 0.46323 0.0
H2264 H 0.56702 0.89647 0.47365 0.0
H2265 H 0.47955 0.9046 0.47554 0.0
H2266 H 0.47033 0.91529 0.50283 0.0
H2267 H 0.46767 0.88484 0.49497 0.0
H2268 H 0.49165 0.88289 0.53483 0.0
H2269 H 0.49406 0.91331 0.5429 0.0
H2270 H 0.51976 0.9017 0.54304 0.0
H2271 H 0.56871 0.93823 0.48128 0.0
H2272 H 0.56587 0.97757 0.49274 0.0
H2273 H 0.50275 0.95395 0.52266 0.0
C2274 C 0.50873 0.86166 0.48875 0.0
C2275 C 0.52376 0.84933 0.4769 0.0
C2276 C 0.54511 0.86279 0.4726 0.0
C2277 C 0.55101 0.88692 0.47826 0.0
C2278 C 0.53582 0.89841 0.48905 0.0
C2279 C 0.51546 0.88637 0.49517 0.0
C2280 C 0.50307 0.90395 0.50754 0.0
C2281 C 0.4787 0.90205 0.49443 0.0
C2282 C 0.50205 0.90024 0.53363 0.0
C2283 C 0.51898 0.92752 0.50598 0.0
C2284 C 0.53766 0.92338 0.49511 0.0
C2285 C 0.55439 0.94152 0.49033 0.0
C2286 C 0.55257 0.9643 0.49707 0.0
C2287 C 0.53445 0.97015 0.50921 0.0
C2288 C 0.51714 0.95092 0.51364 0.0
H2289 H 0.51415 0.31939 0.66459 0.0
H2290 H 0.49421 0.25171 0.62346 0.0
H2291 H 0.4611 0.24203 0.64429 0.0
H2292 H 0.49776 0.30383 0.71991 0.0
H2293 H 0.48488 0.32803 0.72722 0.0
H2294 H 0.50748 0.33052 0.70849 0.0
H2295 H 0.48045 0.34321 0.67627 0.0
H2296 H 0.45759 0.34026 0.6948 0.0
H2297 H 0.45257 0.32493 0.66518 0.0
H2298 H 0.42998 0.23841 0.66864 0.0
H2299 H 0.40492 0.23978 0.70023 0.0
H2300 H 0.44264 0.30899 0.72751 0.0
C2301 C 0.50284 0.30254 0.66014 0.0
C2302 C 0.50724 0.28624 0.6422 0.0
C2303 C 0.49173 0.26455 0.63683 0.0
C2304 C 0.47247 0.25885 0.64857 0.0
C2305 C 0.46827 0.2752 0.66557 0.0
C2306 C 0.48289 0.29661 0.67159 0.0
C2307 C 0.47382 0.31057 0.69095 0.0
C2308 C 0.49208 0.3187 0.71295 0.0
C2309 C 0.46563 0.33096 0.68123 0.0
C2310 C 0.45323 0.29283 0.69598 0.0
C2311 C 0.44991 0.27294 0.68029 0.0
C2312 C 0.43225 0.25392 0.68103 0.0
C2313 C 0.41804 0.25485 0.69891 0.0
C2314 C 0.42185 0.27445 0.71608 0.0
C2315 C 0.43935 0.2939 0.71437 0.0
H2316 H 1.0078 0.82483 0.66395 0.0
H2317 H 0.07993 0.82283 0.68234 0.0
H2318 H 0.09171 0.85506 0.65977 0.0
H2319 H 0.01382 0.83485 0.6033 0.0
H2320 H 0.99328 0.85321 0.60184 0.0
H2321 H 0.99054 0.83135 0.62125 0.0
H2322 H 0.99123 0.86239 0.65668 0.0
H2323 H 0.9945 0.88444 0.63743 0.0
H2324 H 0.01531 0.88674 0.66344 0.0
H2325 H 0.09611 0.88759 0.63596 0.0
H2326 H 0.09271 0.91327 0.60529 0.0
H2327 H 0.01794 0.89261 0.59818 0.0
C2328 C 0.02603 0.83131 0.66318 0.0
C2329 C 0.04309 0.82198 0.67561 0.0
C2330 C 0.06671 0.8304 0.67375 0.0
C2331 C 0.07356 0.84866 0.66091 0.0
C2332 C 0.05652 0.85805 0.64945 0.0
C2333 C 0.03321 0.84932 0.64983 0.0
C2334 C 0.01856 0.86138 0.63404 0.0
C2335 C 1.00315 0.84417 0.61391 0.0
C2336 C 1.00404 0.87452 0.64878 0.0
C2337 C 0.03731 0.87788 0.62452 0.0
C2338 C 0.05906 0.87604 0.63425 0.0
C2339 C 0.07919 0.88917 0.62817 0.0
C2340 C 0.07712 0.90384 0.61089 0.0
C2341 C 0.05513 0.90507 0.59964 0.0
C2342 C 0.03494 0.89227 0.60688 0.0
H2343 H 0.47186 0.833 0.87055 0.0
H2344 H 0.49385 0.79894 0.80913 0.0
H2345 H 0.45358 0.79069 0.78862 0.0
H2346 H 0.41649 0.79646 0.86941 0.0
H2347 H 0.40138 0.81893 0.87696 0.0
H2348 H 0.43205 0.82333 0.88625 0.0
H2349 H 0.43924 0.85989 0.86548 0.0
H2350 H 0.40851 0.85562 0.85629 0.0
H2351 H 0.42833 0.8581 0.83453 0.0
H2352 H 0.40845 0.78431 0.77474 0.0
H2353 H 0.366 0.78138 0.76934 0.0
H2354 H 0.37133 0.8192 0.83934 0.0
C2355 C 0.46835 0.82407 0.85262 0.0
C2356 C 0.487 0.81724 0.84153 0.0
C2357 C 0.48076 0.80518 0.81813 0.0
C2358 C 0.45755 0.80018 0.8063 0.0
C2359 C 0.43979 0.80719 0.81767 0.0
C2360 C 0.44505 0.81919 0.84031 0.0
C2361 C 0.42273 0.82504 0.84847 0.0
C2362 C 0.41788 0.81536 0.87166 0.0
C2363 C 0.42482 0.85121 0.85139 0.0
C2364 C 0.40382 0.81325 0.82771 0.0
C2365 C 0.41421 0.80348 0.80987 0.0
C2366 C 0.40049 0.79202 0.78877 0.0
C2367 C 0.37606 0.79041 0.78578 0.0
C2368 C 0.36449 0.79979 0.80371 0.0
C2369 C 0.37904 0.81151 0.82509 0.0
H2370 H 0.50783 0.19519 0.12733 0.0
H2371 H 0.54045 0.18026 0.19352 0.0
H2372 H 0.55277 0.14826 0.17172 0.0
H2373 H 0.48476 0.13157 0.10425 0.0
H2374 H 0.48635 0.13762 0.07412 0.0
H2375 H 0.48175 0.15908 0.0966 0.0
H2376 H 0.51738 0.18659 0.08417 0.0
H2377 H 0.52263 0.16356 0.06394 0.0
H2378 H 0.54502 0.17852 0.08739 0.0
H2379 H 0.56443 0.11889 0.14204 0.0
H2380 H 0.56737 0.09018 0.10889 0.0
H2381 H 0.51988 0.11683 0.06243 0.0
C2382 C 0.51652 0.18484 0.13754 0.0
C2383 C 0.52225 0.19074 0.16275 0.0
C2384 C 0.53525 0.17667 0.17452 0.0
C2385 C 0.54257 0.15826 0.16215 0.0
C2386 C 0.53637 0.15297 0.13761 0.0
C2387 C 0.52295 0.16536 0.12546 0.0
C2388 C 0.51704 0.15451 0.09929 0.0
C2389 C 0.4909 0.14508 0.09312 0.0
C2390 C 0.52605 0.17183 0.08271 0.0
C2391 C 0.52976 0.13468 0.09854 0.0
C2392 C 0.54111 0.13446 0.1209 0.0
C2393 C 0.55475 0.11846 0.12478 0.0
C2394 C 0.55592 0.10171 0.10586 0.0
C2395 C 0.5428 0.09985 0.08323 0.0
C2396 C 0.53 0.11724 0.07943 0.0
H2397 H 0.11069 0.28823 0.32853 0.0
H2398 H 0.13121 0.3612 0.35311 0.0
H2399 H 0.17068 0.36104 0.34334 0.0
H2400 H 0.16655 0.27291 0.34794 0.0
H2401 H 0.16585 0.25273 0.32196 0.0
H2402 H 0.13916 0.25773 0.33155 0.0
H2403 H 0.12644 0.26792 0.29021 0.0
H2404 H 0.15309 0.26288 0.28055 0.0
H2405 H 0.1451 0.29007 0.27806 0.0
H2406 H 0.20989 0.35322 0.33213 0.0
H2407 H 0.24314 0.33954 0.31827 0.0
H2408 H 0.19953 0.27174 0.29628 0.0
C2409 C 0.12353 0.30418 0.33216 0.0
C2410 C 0.11711 0.32485 0.34244 0.0
C2411 C 0.13495 0.34509 0.34587 0.0
C2412 C 0.15775 0.34514 0.34022 0.0
C2413 C 0.16346 0.32481 0.33037 0.0
C2414 C 0.14675 0.30462 0.32603 0.0
C2415 C 0.15767 0.28543 0.31428 0.0
C2416 C 0.15728 0.26604 0.32985 0.0
C2417 C 0.1448 0.27601 0.28929 0.0
C2418 C 0.183 0.29788 0.31292 0.0
C2419 C 0.18579 0.32058 0.32265 0.0
C2420 C 0.20754 0.33548 0.3244 0.0
C2421 C 0.22669 0.3274 0.31635 0.0
C2422 C 0.225 0.30438 0.30577 0.0
C2423 C 0.20222 0.28949 0.30397 0.0
H2424 H 1.00043 0.03305 0.21389 0.0
H2425 H 0.92739 0.0098 0.18685 0.0
H2426 H 0.93635 0.0127 0.14624 0.0
H2427 H 0.01299 0.07395 0.16988 0.0
H2428 H 0.04122 0.06831 0.16666 0.0
H2429 H 0.02959 0.06535 0.1943 0.0
H2430 H 0.03528 0.02358 0.19179 0.0
H2431 H 0.0469 0.02648 0.16416 0.0
H2432 H 0.02255 1.00352 0.16566 0.0
H2433 H 0.95219 0.01809 0.10807 0.0
H2434 H 0.97401 0.02393 0.07454 0.0
H2435 H 0.03825 0.04243 0.12306 0.0
C2436 C 0.98632 0.02867 0.19944 0.0
C2437 C 0.96298 0.02116 0.20412 0.0
C2438 C 0.9453 0.01563 0.18432 0.0
C2439 C 0.95024 0.01724 0.16092 0.0
C2440 C 0.97312 0.02453 0.15692 0.0
C2441 C 0.991 0.03021 0.17552 0.0
C2442 C 0.01407 0.03741 0.16564 0.0
C2443 C 0.02513 0.06276 0.17467 0.0
C2444 C 0.03068 0.02181 0.1722 0.0
C2445 C 1.00632 0.03411 0.1387 0.0
C2446 C 0.9825 0.0271 0.13437 0.0
C2447 C 0.97086 0.02352 0.11132 0.0
C2448 C 0.98361 0.02703 0.09217 0.0
C2449 C 1.00819 0.03366 0.09546 0.0
C2450 C 0.01962 0.03727 0.11941 0.0
H2451 H 0.27517 0.68932 0.50797 0.0
H2452 H 0.30239 0.63508 0.47195 0.0
H2453 H 0.30449 0.65572 0.4368 0.0
H2454 H 0.23669 0.69155 0.46339 0.0
H2455 H 0.23802 0.72205 0.46792 0.0
H2456 H 0.24594 0.70777 0.4925 0.0
H2457 H 0.28613 0.73559 0.50098 0.0
H2458 H 0.27833 0.75024 0.47638 0.0
H2459 H 0.30425 0.73892 0.47772 0.0
H2460 H 0.29694 0.67791 0.40387 0.0
H2461 H 0.27661 0.69723 0.37471 0.0
H2462 H 0.25045 0.7339 0.43149 0.0
C2463 C 0.2826 0.68227 0.49311 0.0
C2464 C 0.28892 0.66083 0.49265 0.0
C2465 C 0.29767 0.65166 0.4726 0.0
C2466 C 0.29912 0.66336 0.45271 0.0
C2467 C 0.29169 0.68404 0.45333 0.0
C2468 C 0.28353 0.69337 0.47308 0.0
C2469 C 0.27197 0.71285 0.46787 0.0
C2470 C 0.24668 0.70824 0.47321 0.0
C2471 C 0.28602 0.73576 0.48154 0.0
C2472 C 0.27328 0.71188 0.44162 0.0
C2473 C 0.28567 0.69594 0.43378 0.0
C2474 C 0.28747 0.69062 0.40983 0.0
C2475 C 0.27566 0.70133 0.39342 0.0
C2476 C 0.26157 0.71627 0.4011 0.0
C2477 C 0.261 0.72224 0.42542 0.0
H2478 H 0.65106 0.07904 0.68842 0.0
H2479 H 0.65938 0.00864 0.68385 0.0
H2480 H 0.63483 0.99959 0.6447 0.0
H2481 H 0.59315 0.06592 0.6688 0.0
H2482 H 0.59249 0.08971 0.65213 0.0
H2483 H 0.61461 0.09233 0.67695 0.0
H2484 H 0.64687 0.10271 0.65022 0.0
H2485 H 0.62453 0.10112 0.62577 0.0
H2486 H 0.64626 0.08427 0.62295 0.0
H2487 H 0.60765 0.99765 0.60856 0.0
H2488 H 0.57817 1.00242 0.57676 0.0
H2489 H 0.58386 0.073 0.6077 0.0
C2490 C 0.64833 0.062 0.6786 0.0
C2491 C 0.65726 0.04454 0.6883 0.0
C2492 C 0.65285 0.02213 0.67599 0.0
C2493 C 0.63903 0.01693 0.65394 0.0
C2494 C 0.62973 0.03436 0.64506 0.0
C2495 C 0.63418 0.05647 0.65692 0.0
C2496 C 0.61981 0.07121 0.64501 0.0
C2497 C 0.60409 0.08031 0.66173 0.0
C2498 C 0.6353 0.09099 0.63541 0.0
C2499 C 0.60598 0.05366 0.6251 0.0
C2500 C 0.61245 0.03275 0.62511 0.0
C2501 C 0.60248 0.01393 0.60822 0.0
C2502 C 0.58578 0.01676 0.59041 0.0
C2503 C 0.57903 0.03804 0.59017 0.0
C2504 C 0.58875 0.05654 0.60793 0.0
H2505 H 0.29211 0.38274 0.94835 0.0
H2506 H 0.3132 0.33057 0.98748 0.0
H2507 H 0.31326 0.30651 0.94947 0.0
H2508 H 0.25408 0.34337 0.90003 0.0
H2509 H 0.26215 0.36143 0.87772 0.0
H2510 H 0.26296 0.37408 0.90795 0.0
H2511 H 0.30592 0.39394 0.9087 0.0
H2512 H 0.30532 0.38122 0.87854 0.0
H2513 H 0.32656 0.37682 0.9016 0.0
H2514 H 0.31343 0.28887 0.90641 0.0
H2515 H 0.31052 0.27802 0.86309 0.0
H2516 H 0.28817 0.34096 0.85135 0.0
C2517 C 0.29644 0.36611 0.94906 0.0
C2518 C 0.30258 0.35869 0.97134 0.0
C2519 C 0.30828 0.33679 0.97099 0.0
C2520 C 0.30848 0.32299 0.94935 0.0
C2521 C 0.30281 0.33106 0.92785 0.0
C2522 C 0.29663 0.35204 0.92757 0.0
C2523 C 0.29144 0.35685 0.90206 0.0
C2524 C 0.26615 0.35906 0.89663 0.0
C2525 C 0.30831 0.37849 0.89746 0.0
C2526 C 0.29566 0.33531 0.88796 0.0
C2527 C 0.30241 0.32074 0.90322 0.0
C2528 C 0.30796 0.30013 0.89442 0.0
C2529 C 0.30636 0.29413 0.86962 0.0
C2530 C 0.29905 0.30845 0.85343 0.0
C2531 C 0.29366 0.3294 0.863 0.0
H2532 H 0.99683 0.02798 0.34528 0.0
H2533 H 0.92529 1.00566 0.35796 0.0
H2534 H 0.93779 1.00514 0.39917 0.0
H2535 H 0.02308 0.9965 0.38915 0.0
H2536 H 0.04754 0.01951 0.40081 0.0
H2537 H 0.03426 0.01742 0.37053 0.0
H2538 H 0.02798 0.05886 0.37849 0.0
H2539 H 0.04138 0.0611 0.40874 0.0
H2540 H 0.01268 0.06639 0.4027 0.0
H2541 H 0.95543 1.00676 0.43931 0.0
H2542 H 0.97906 0.01339 0.47839 0.0
H2543 H 0.04079 0.03625 0.44578 0.0
C2544 C 0.98388 0.02272 0.35666 0.0
C2545 C 0.9598 0.01624 0.34716 0.0
C2546 C 0.94377 0.01027 0.36355 0.0
C2547 C 0.95065 0.00993 0.38755 0.0
C2548 C 0.97395 0.01615 0.3962 0.0
C2549 C 0.99053 0.02282 0.38166 0.0
C2550 C 0.01433 0.03003 0.39712 0.0
C2551 C 0.03079 0.01497 0.3889 0.0
C2552 C 0.02471 0.05561 0.39673 0.0
C2553 C 1.00816 0.02571 0.42202 0.0
C2554 C 0.9846 0.01774 0.42064 0.0
C2555 C 0.97397 0.01298 0.44068 0.0
C2556 C 0.98758 0.0168 0.46292 0.0
C2557 C 0.01181 0.02517 0.46542 0.0
C2558 C 0.02234 0.02946 0.4445 0.0
H2559 H 0.29515 0.66736 0.64648 0.0
H2560 H 0.25457 0.69963 0.59798 0.0
H2561 H 0.24957 0.72711 0.63103 0.0
H2562 H 0.26278 0.67772 0.69883 0.0
H2563 H 0.28877 0.68375 0.71986 0.0
H2564 H 0.28618 0.6637 0.6933 0.0
H2565 H 0.32423 0.68741 0.68242 0.0
H2566 H 0.32678 0.7075 0.70882 0.0
H2567 H 0.32665 0.71757 0.6802 0.0
H2568 H 0.2503 0.75166 0.6669 0.0
H2569 H 0.25857 0.77523 0.7056 0.0
H2570 H 0.30244 0.7307 0.73162 0.0
C2571 C 0.28482 0.67994 0.6432 0.0
C2572 C 0.27507 0.68163 0.62008 0.0
C2573 C 0.26204 0.69836 0.61582 0.0
C2574 C 0.25898 0.71384 0.63439 0.0
C2575 C 0.26915 0.71227 0.65698 0.0
C2576 C 0.28185 0.69591 0.66167 0.0
C2577 C 0.29262 0.69982 0.68746 0.0
C2578 C 0.28195 0.68007 0.70064 0.0
C2579 C 0.31915 0.70329 0.68984 0.0
C2580 C 0.28515 0.72171 0.69577 0.0
C2581 C 0.27092 0.72789 0.67802 0.0
C2582 C 0.26139 0.7471 0.68108 0.0
C2583 C 0.26642 0.76048 0.7031 0.0
C2584 C 0.28143 0.75493 0.72152 0.0
C2585 C 0.29105 0.73537 0.71778 0.0
H2586 H 0.67888 0.08933 0.83413 0.0
H2587 H 0.65524 0.01641 0.8118 0.0
H2588 H 0.62774 0.01463 0.84179 0.0
H2589 H 0.67592 0.08642 0.8991 0.0
H2590 H 0.66757 0.11376 0.9025 0.0
H2591 H 0.68654 0.10811 0.88108 0.0
H2592 H 0.6584 0.11825 0.84803 0.0
H2593 H 0.6391 0.12351 0.86906 0.0
H2594 H 0.62857 0.10289 0.84286 0.0
H2595 H 0.60112 0.02234 0.87262 0.0
H2596 H 0.57762 0.03882 0.90065 0.0
H2597 H 0.62148 0.10623 0.90263 0.0
C2598 C 0.66949 0.07265 0.83694 0.0
C2599 C 0.67057 0.05264 0.82232 0.0
C2600 C 0.6555 0.0316 0.82404 0.0
C2601 C 0.63984 0.03051 0.84086 0.0
C2602 C 0.63976 0.05064 0.8556 0.0
C2603 C 0.65444 0.07125 0.85387 0.0
C2604 C 0.6502 0.09086 0.87037 0.0
C2605 C 0.6713 0.10034 0.8894 0.0
C2606 C 0.64367 0.10997 0.85674 0.0
C2607 C 0.63 0.07838 0.88093 0.0
C2608 C 0.62433 0.05514 0.87258 0.0
C2609 C 0.60558 0.04045 0.87944 0.0
C2610 C 0.59234 0.04988 0.89519 0.0
C2611 C 0.59783 0.07372 0.9033 0.0
C2612 C 0.61696 0.08799 0.89633 0.0
H2613 H 0.2963 0.32939 0.10335 0.0
H2614 H 0.30995 0.40218 0.1293 0.0
H2615 H 0.30458 0.39303 0.16963 0.0
H2616 H 0.25257 0.31194 0.14372 0.0
H2617 H 0.26154 0.28557 0.14818 0.0
H2618 H 0.26485 0.29735 0.12069 0.0
H2619 H 0.30854 0.29729 0.1266 0.0
H2620 H 0.30526 0.28535 0.15394 0.0
H2621 H 0.32618 0.31166 0.15379 0.0
H2622 H 0.2953 0.37615 0.20744 0.0
H2623 H 0.28928 0.35358 0.24048 0.0
H2624 H 0.288 0.29146 0.19317 0.0
C2625 C 0.29809 0.34343 0.11749 0.0
C2626 C 0.30349 0.36671 0.11264 0.0
C2627 C 0.30575 0.3843 0.13204 0.0
C2628 C 0.30263 0.37924 0.15521 0.0
C2629 C 0.29731 0.35632 0.15935 0.0
C2630 C 0.2953 0.33863 0.1411 0.0
C2631 C 0.29019 0.3155 0.15089 0.0
C2632 C 0.26585 0.30177 0.14023 0.0
C2633 C 0.30866 0.30164 0.14602 0.0
C2634 C 0.29097 0.32306 0.17757 0.0
C2635 C 0.29402 0.34666 0.18171 0.0
C2636 C 0.29333 0.35768 0.20434 0.0
C2637 C 0.28983 0.34452 0.2232 0.0
C2638 C 0.28826 0.32034 0.22029 0.0
C2639 C 0.28885 0.30964 0.19673 0.0
H2640 H 0.23129 0.94632 0.98612 0.0
H2641 H 0.28789 0.99182 0.03321 0.0
H2642 H 0.26045 0.01108 0.05215 0.0
H2643 H 0.19328 0.98698 0.98008 0.0
H2644 H 0.16732 0.96589 0.98143 0.0
H2645 H 0.19147 0.95719 0.96937 0.0
H2646 H 0.19261 0.92785 0.99938 0.0
H2647 H 0.16827 0.93612 0.01134 0.0
H2648 H 0.19468 0.93751 0.03068 0.0
H2649 H 0.22822 0.02395 0.06706 0.0
H2650 H 0.19099 0.02733 0.08104 0.0
H2651 H 0.15458 0.97244 0.02618 0.0
C2652 C 0.23763 0.96046 1.0003 0.0
C2653 C 0.26135 0.9685 0.00782 0.0
C2654 C 0.26959 0.98645 0.02673 0.0
C2655 C 0.25423 0.99736 0.03758 0.0
C2656 C 0.23084 0.9896 0.02946 0.0
C2657 C 0.22244 0.97134 0.01163 0.0
C2658 C 0.19634 0.96506 0.00814 0.0
C2659 C 0.18653 0.96903 0.98328 0.0
C2660 C 0.18747 0.94016 0.01267 0.0
C2661 C 0.1916 0.9822 0.02736 0.0
C2662 C 0.2118 0.99646 0.03902 0.0
C2663 C 0.2122 0.01294 0.05822 0.0
C2664 C 0.19122 0.01455 0.06618 0.0
C2665 C 0.17059 0.9996 0.05497 0.0
C2666 C 0.17052 0.98362 0.03509 0.0
H2667 H 0.71153 0.63427 0.03942 0.0
H2668 H 0.68651 0.66563 0.97989 0.0
H2669 H 0.64874 0.63814 0.97572 0.0
H2670 H 0.6807 0.57537 0.02405 0.0
H2671 H 0.67274 0.57203 0.05321 0.0
H2672 H 0.69864 0.59232 0.04989 0.0
H2673 H 0.68357 0.62464 0.07327 0.0
H2674 H 0.65761 0.60429 0.07633 0.0
H2675 H 0.65558 0.62988 0.06311 0.0
H2676 H 0.61479 0.60628 0.97652 0.0
H2677 H 0.58294 0.57792 0.9869 0.0
H2678 H 0.62637 0.56976 0.05021 0.0
C2679 C 0.69813 0.63501 0.0253 0.0
C2680 C 0.70235 0.65117 0.00892 0.0
C2681 C 0.684 0.65271 0.99176 0.0
C2682 C 0.66247 0.63721 0.98939 0.0
C2683 C 0.65906 0.62099 1.00519 0.0
C2684 C 0.67601 0.62035 0.02345 0.0
C2685 C 0.66643 0.60343 0.04002 0.0
C2686 C 0.68048 0.58468 0.04189 0.0
C2687 C 0.66577 0.61632 0.06464 0.0
C2688 C 0.64194 0.59356 0.02729 0.0
C2689 C 0.63831 0.60403 0.0072 0.0
C2690 C 0.61734 0.59822 0.99237 0.0
C2691 C 0.59928 0.58194 0.99849 0.0
C2692 C 0.60187 0.57145 0.01947 0.0
C2693 C 0.62379 0.57713 0.0339 0.0
H2694 H 0.6651 0.49432 0.26424 0.0
H2695 H 0.68698 0.50753 0.34026 0.0
H2696 H 0.70576 0.47458 0.33787 0.0
H2697 H 0.65658 0.42899 0.26044 0.0
H2698 H 0.66726 0.42687 0.23213 0.0
H2699 H 0.65186 0.44903 0.24002 0.0
H2700 H 0.68654 0.48 0.23242 0.0
H2701 H 0.702 0.458 0.2246 0.0
H2702 H 0.71495 0.48123 0.24787 0.0
H2703 H 0.72685 0.44432 0.32713 0.0
H2704 H 0.74868 0.41808 0.30824 0.0
H2705 H 0.7132 0.42306 0.23916 0.0
C2706 C 0.67297 0.48958 0.28043 0.0
C2707 C 0.67432 0.5033 0.30247 0.0
C2708 C 0.68555 0.49712 0.32322 0.0
C2709 C 0.69627 0.4784 0.32208 0.0
C2710 C 0.69542 0.46569 0.30008 0.0
C2711 C 0.68384 0.47074 0.27962 0.0
C2712 C 0.68739 0.45534 0.25804 0.0
C2713 C 0.6644 0.43909 0.247 0.0
C2714 C 0.69838 0.4695 0.23967 0.0
C2715 C 0.70394 0.44214 0.26946 0.0
C2716 C 0.70786 0.44799 0.29379 0.0
C2717 C 0.72357 0.4392 0.30812 0.0
C2718 C 0.73587 0.42427 0.29725 0.0
C2719 C 0.73266 0.41852 0.27226 0.0
C2720 C 0.71608 0.42723 0.25831 0.0
H2721 H 0.87232 0.48745 0.52823 0.0
H2722 H 0.87947 0.42768 0.48204 0.0
H2723 H 0.92192 0.44086 0.4888 0.0
H2724 H 0.92152 0.52927 0.51292 0.0
H2725 H 0.92824 0.54281 0.54313 0.0
H2726 H 0.8989 0.52865 0.53191 0.0
H2727 H 0.90067 0.50528 0.56797 0.0
H2728 H 0.9309 0.51827 0.57677 0.0
H2729 H 0.92167 0.48746 0.57059 0.0
H2730 H 0.96214 0.45944 0.50006 0.0
H2731 H 0.99914 0.48718 0.50895 0.0
H2732 H 0.9673 0.5347 0.54943 0.0
C2733 C 0.88295 0.4777 0.51899 0.0
C2734 C 0.87307 0.45693 0.50422 0.0
C2735 C 0.88711 0.44388 0.49305 0.0
C2736 C 0.91109 0.45103 0.49704 0.0
C2737 C 0.92048 0.47098 0.5126 0.0
C2738 C 0.90702 0.48451 0.52301 0.0
C2739 C 0.92188 0.50521 0.53895 0.0
C2740 C 0.91729 0.52781 0.5312 0.0
C2741 C 0.91857 0.50396 0.56512 0.0
C2742 C 0.94561 0.50186 0.53449 0.0
C2743 C 0.94431 0.48149 0.51999 0.0
C2744 C 0.96356 0.47525 0.51175 0.0
C2745 C 0.98458 0.491 0.51712 0.0
C2746 C 0.98592 0.51252 0.53053 0.0
C2747 C 0.96654 0.51785 0.53993 0.0
H2748 H 0.3737 0.07899 0.29099 0.0
H2749 H 0.34133 0.07451 0.35542 0.0
H2750 H 0.32405 0.10759 0.34715 0.0
H2751 H 0.38384 0.14169 0.29047 0.0
H2752 H 0.37598 0.13802 0.2587 0.0
H2753 H 0.38951 0.11743 0.27233 0.0
H2754 H 0.35539 0.08456 0.2524 0.0
H2755 H 0.34163 0.10485 0.2388 0.0
H2756 H 0.32625 0.08614 0.25718 0.0
H2757 H 0.30618 0.13671 0.32886 0.0
H2758 H 0.28749 0.15856 0.30122 0.0
H2759 H 0.3316 0.14268 0.24884 0.0
C2760 C 0.36369 0.08542 0.30392 0.0
C2761 C 0.35902 0.07454 0.32401 0.0
C2762 C 0.34515 0.08288 0.34 0.0
C2763 C 0.33546 0.10167 0.33553 0.0
C2764 C 0.33994 0.1116 0.31509 0.0
C2765 C 0.35371 0.10368 0.29955 0.0
C2766 C 0.35306 0.11459 0.27705 0.0
C2767 C 0.37703 0.1288 0.27451 0.0
C2768 C 0.34351 0.09646 0.25509 0.0
C2769 C 0.33629 0.12961 0.28207 0.0
C2770 C 0.32916 0.12796 0.30421 0.0
C2771 C 0.31192 0.13854 0.3117 0.0
C2772 C 0.3014 0.15078 0.2959 0.0
C2773 C 0.30811 0.15198 0.27296 0.0
C2774 C 0.32611 0.14179 0.26625 0.0
H2775 H 0.32357 0.13428 0.49334 0.0
H2776 H 0.33657 0.18669 0.55475 0.0
H2777 H 0.37275 0.17446 0.56801 0.0
H2778 H 0.34014 0.09126 0.52196 0.0
H2779 H 0.35317 0.07948 0.49778 0.0
H2780 H 0.33035 0.09451 0.49179 0.0
H2781 H 0.357 0.122 0.46935 0.0
H2782 H 0.38006 0.10715 0.47552 0.0
H2783 H 0.38486 0.13772 0.4842 0.0
H2784 H 0.40542 0.15337 0.57667 0.0
H2785 H 0.4299 0.12463 0.58069 0.0
H2786 H 0.395 0.08625 0.51374 0.0
C2787 C 0.33418 0.14363 0.50935 0.0
C2788 C 0.32716 0.16167 0.52288 0.0
C2789 C 0.3416 0.17306 0.54387 0.0
C2790 C 0.36221 0.1662 0.55154 0.0
C2791 C 0.36831 0.14805 0.53794 0.0
C2792 C 0.35468 0.13702 0.5172 0.0
C2793 C 0.36391 0.11692 0.50661 0.0
C2794 C 0.34582 0.09421 0.50443 0.0
C2795 C 0.37193 0.12121 0.48249 0.0
C2796 C 0.38431 0.11761 0.52516 0.0
C2797 C 0.38693 0.13598 0.54287 0.0
C2798 C 0.40374 0.13921 0.56269 0.0
C2799 C 0.41764 0.1229 0.56479 0.0
C2800 C 0.41459 0.1036 0.54726 0.0
C2801 C 0.39807 0.10124 0.52701 0.0
H2802 H 0.69434 0.61393 0.27688 0.0
H2803 H 0.65607 0.6368 0.33173 0.0
H2804 H 0.68106 0.67577 0.33611 0.0
H2805 H 0.75275 0.65045 0.29464 0.0
H2806 H 0.75535 0.65555 0.26468 0.0
H2807 H 0.737 0.62942 0.27035 0.0
H2808 H 0.70426 0.64126 0.24257 0.0
H2809 H 0.72325 0.66816 0.24002 0.0
H2810 H 0.69594 0.668 0.25096 0.0
H2811 H 0.71093 0.71147 0.33595 0.0
H2812 H 0.73917 0.74422 0.32677 0.0
H2813 H 0.75588 0.70082 0.26816 0.0
C2814 C 0.69153 0.62717 0.29001 0.0
C2815 C 0.67398 0.62216 0.30487 0.0
C2816 C 0.66985 0.64012 0.32082 0.0
C2817 C 0.68398 0.66227 0.32338 0.0
C2818 C 0.7015 0.66657 0.309 0.0
C2819 C 0.70486 0.64978 0.29201 0.0
C2820 C 0.72259 0.66011 0.2765 0.0
C2821 C 0.74309 0.6481 0.27657 0.0
C2822 C 0.71081 0.65933 0.25101 0.0
C2823 C 0.73006 0.68479 0.2888 0.0
C2824 C 0.71746 0.68801 0.30738 0.0
C2825 C 0.72076 0.7092 0.32133 0.0
C2826 C 0.73694 0.72774 0.31596 0.0
C2827 C 0.74989 0.72525 0.29677 0.0
C2828 C 0.74653 0.70329 0.28315 0.0
H2829 H 0.87718 0.44509 0.84147 0.0
H2830 H 0.85829 0.471 0.77586 0.0
H2831 H 0.83705 0.4321 0.75804 0.0
H2832 H 0.88497 0.39044 0.81632 0.0
H2833 H 0.8718 0.37508 0.83856 0.0
H2834 H 0.88601 0.4049 0.8459 0.0
H2835 H 0.84929 0.41244 0.86029 0.0
H2836 H 0.83323 0.38374 0.85134 0.0
H2837 H 0.82238 0.40703 0.84022 0.0
H2838 H 0.81715 0.39069 0.74782 0.0
H2839 H 0.79828 0.34959 0.74719 0.0
H2840 H 0.8303 0.35156 0.81934 0.0
C2841 C 0.86828 0.4425 0.82354 0.0
C2842 C 0.86892 0.46069 0.81 0.0
C2843 C 0.85753 0.45698 0.78642 0.0
C2844 C 0.8456 0.43506 0.77615 0.0
C2845 C 0.84517 0.41729 0.7899 0.0
C2846 C 0.85595 0.42078 0.81315 0.0
C2847 C 0.85214 0.39888 0.82424 0.0
C2848 C 0.87511 0.39191 0.83166 0.0
C2849 C 0.83834 0.40073 0.84525 0.0
C2850 C 0.83782 0.38269 0.80366 0.0
C2851 C 0.83393 0.39349 0.78393 0.0
C2852 C 0.82009 0.38199 0.76314 0.0
C2853 C 0.80951 0.35886 0.76288 0.0
C2854 C 0.8132 0.34803 0.78322 0.0
C2855 C 0.82761 0.35984 0.80361 0.0
H2856 H 0.05862 0.88017 0.11805 0.0
H2857 H 0.06901 0.84652 0.0503 0.0
H2858 H 0.06652 0.88132 0.03224 0.0
H2859 H 0.01662 0.91154 0.09142 0.0
H2860 H 0.02608 0.93735 0.11232 0.0
H2861 H 0.0294 0.91006 0.12114 0.0
H2862 H 0.07322 0.92628 0.13347 0.0
H2863 H 0.06993 0.95361 0.12477 0.0
H2864 H 0.09044 0.939 0.11225 0.0
H2865 H 0.06075 0.91971 0.01944 0.0
H2866 H 0.05448 0.95833 0.01405 0.0
H2867 H 0.04863 0.97155 0.08897 0.0
C2868 C 0.06094 0.88022 0.09954 0.0
C2869 C 0.06474 0.85969 0.08606 0.0
C2870 C 0.06658 0.86121 0.06161 0.0
C2871 C 0.06505 0.88127 0.05094 0.0
C2872 C 0.06123 0.90078 0.06438 0.0
C2873 C 0.05919 0.90058 0.08824 0.0
C2874 C 0.05425 0.9241 0.098 0.0
C2875 C 0.03017 0.92055 0.10623 0.0
C2876 C 0.07309 0.93648 0.11835 0.0
C2877 C 0.05476 0.93762 0.07628 0.0
C2878 C 0.05834 0.92336 0.05701 0.0
C2879 C 0.05827 0.93095 0.03463 0.0
C2880 C 0.05466 0.95328 0.03169 0.0
C2881 C 0.05151 0.96907 0.05087 0.0
C2882 C 0.05159 0.9607 0.07372 0.0
H2883 H 0.93295 0.29739 0.92569 0.0
H2884 H 0.96318 0.2481 0.8856 0.0
H2885 H 0.93246 0.2445 0.85183 0.0
H2886 H 0.873 0.26939 0.90409 0.0
H2887 H 0.8626 0.29546 0.90219 0.0
H2888 H 0.88712 0.29526 0.9236 0.0
H2889 H 0.91359 0.32854 0.90568 0.0
H2890 H 0.88694 0.32929 0.88789 0.0
H2891 H 0.91149 0.32598 0.8735 0.0
H2892 H 0.89803 0.24601 0.82158 0.0
H2893 H 0.86314 0.25275 0.79812 0.0
H2894 H 0.85612 0.30296 0.85568 0.0
C2895 C 0.93298 0.28577 0.90983 0.0
C2896 C 0.95071 0.27295 0.90848 0.0
C2897 C 0.94999 0.25809 0.88723 0.0
C2898 C 0.93255 0.25596 0.86784 0.0
C2899 C 0.91554 0.26885 0.86954 0.0
C2900 C 0.91562 0.28364 0.88994 0.0
C2901 C 0.8948 0.29509 0.887 0.0
C2902 C 0.87841 0.28839 0.90531 0.0
C2903 C 0.90227 0.3213 0.88871 0.0
C2904 C 0.88351 0.28481 0.86183 0.0
C2905 C 0.89565 0.26959 0.85215 0.0
C2906 C 0.88857 0.25805 0.82909 0.0
C2907 C 0.86877 0.2622 0.81569 0.0
C2908 C 0.85612 0.27807 0.82491 0.0
C2909 C 0.86408 0.28971 0.84832 0.0
H2910 H 0.56297 0.22982 0.55992 0.0
H2911 H 0.564 0.22673 0.63575 0.0
H2912 H 0.56316 0.18594 0.62934 0.0
H2913 H 0.52087 0.17203 0.54479 0.0
H2914 H 0.53278 0.16165 0.51913 0.0
H2915 H 0.53472 0.19188 0.52634 0.0
H2916 H 0.57829 0.20185 0.52844 0.0
H2917 H 0.57751 0.17193 0.51934 0.0
H2918 H 0.59569 0.18672 0.54605 0.0
H2919 H 0.5635 0.14523 0.61694 0.0
H2920 H 0.56014 0.10572 0.59779 0.0
H2921 H 0.55575 0.12936 0.52869 0.0
C2922 C 0.56236 0.22055 0.57512 0.0
C2923 C 0.56367 0.23273 0.59868 0.0
C2924 C 0.56329 0.21899 0.6176 0.0
C2925 C 0.56276 0.19531 0.61419 0.0
C2926 C 0.56183 0.18413 0.59141 0.0
C2927 C 0.5609 0.19591 0.57192 0.0
C2928 C 0.55873 0.17828 0.54937 0.0
C2929 C 0.53534 0.17583 0.53403 0.0
C2930 C 0.57877 0.18511 0.53495 0.0
C2931 C 0.55971 0.15556 0.55956 0.0
C2932 C 0.56136 0.15966 0.58395 0.0
C2933 C 0.56197 0.14186 0.59779 0.0
C2934 C 0.56007 0.11924 0.58667 0.0
C2935 C 0.55772 0.11383 0.56163 0.0
C2936 C 0.55789 0.13261 0.54788 0.0
H2937 H 0.56396 0.75709 0.39629 0.0
H2938 H 0.58563 0.81885 0.44685 0.0
H2939 H 0.62266 0.82808 0.43021 0.0
H2940 H 0.62482 0.74511 0.39502 0.0
H2941 H 0.61838 0.73427 0.36384 0.0
H2942 H 0.59579 0.73041 0.38265 0.0
H2943 H 0.57105 0.75016 0.35474 0.0
H2944 H 0.59349 0.75417 0.33597 0.0
H2945 H 0.5831 0.77857 0.34827 0.0
H2946 H 0.65497 0.83329 0.40397 0.0
H2947 H 0.67889 0.83383 0.37094 0.0
H2948 H 0.63593 0.76885 0.33727 0.0
C2949 C 0.57712 0.77182 0.40472 0.0
C2950 C 0.57243 0.78668 0.42366 0.0
C2951 C 0.58939 0.80664 0.43321 0.0
C2952 C 0.61038 0.81213 0.42364 0.0
C2953 C 0.6143 0.79738 0.40459 0.0
C2954 C 0.59825 0.77739 0.39549 0.0
C2955 C 0.60572 0.76538 0.3738 0.0
C2956 C 0.61152 0.74243 0.37914 0.0
C2957 C 0.58724 0.76189 0.35192 0.0
C2958 C 0.62748 0.78254 0.37098 0.0
C2959 C 0.63257 0.80057 0.3893 0.0
C2960 C 0.65133 0.819 0.38984 0.0
C2961 C 0.66491 0.81916 0.37107 0.0
C2962 C 0.65945 0.80124 0.35176 0.0
C2963 C 0.6407 0.78258 0.35202 0.0
H2964 H 0.04743 0.27198 0.43447 0.0
H2965 H 0.04961 0.2365 0.36483 0.0
H2966 H 0.04712 0.19981 0.38197 0.0
H2967 H 0.07963 0.23992 0.47022 0.0
H2968 H 0.06104 0.23968 0.49315 0.0
H2969 H 0.06488 0.2631 0.47565 0.0
H2970 H 0.02046 0.25589 0.46351 0.0
H2971 H 0.0165 0.23276 0.48129 0.0
H2972 H 1.00481 0.22761 0.45029 0.0
H2973 H 0.04272 0.16637 0.40752 0.0
H2974 H 0.0321 0.13982 0.43706 0.0
H2975 H 0.0323 0.19802 0.48899 0.0
C2976 C 0.04779 0.25658 0.42284 0.0
C2977 C 0.04914 0.25716 0.39838 0.0
C2978 C 0.04879 0.23647 0.38366 0.0
C2979 C 0.04749 0.2156 0.39329 0.0
C2980 C 0.0463 0.21569 0.41761 0.0
C2981 C 0.0461 0.23569 0.43204 0.0
C2982 C 0.04251 0.23118 0.45705 0.0
C2983 C 0.06326 0.24425 0.47508 0.0
C2984 C 0.01972 0.23721 0.4634 0.0
C2985 C 0.04102 0.20554 0.45471 0.0
C2986 C 0.04337 0.19677 0.43192 0.0
C2987 C 0.04111 0.17316 0.42544 0.0
C2988 C 0.03534 0.1582 0.44237 0.0
C2989 C 0.03177 0.16693 0.46537 0.0
C2990 C 0.03544 0.19094 0.47168 0.0
H2991 H 0.61221 0.29324 0.23378 0.0
H2992 H 0.59327 0.21996 0.21036 0.0
H2993 H 0.63317 0.21659 0.22393 0.0
H2994 H 0.66981 0.30093 0.21441 0.0
H2995 H 0.68397 0.32243 0.23889 0.0
H2996 H 0.65359 0.31945 0.22888 0.0
H2997 H 0.64422 0.31412 0.2713 0.0
H2998 H 0.6746 0.31708 0.28137 0.0
H2999 H 0.65403 0.29194 0.28593 0.0
H3000 H 0.67555 0.2205 0.24113 0.0
H3001 H 0.71698 0.23185 0.25636 0.0
H3002 H 0.71197 0.30323 0.26623 0.0
C3003 C 0.61642 0.27646 0.23168 0.0
C3004 C 0.59899 0.2567 0.22107 0.0
C3005 C 0.60583 0.23531 0.21839 0.0
C3006 C 0.62864 0.23322 0.22615 0.0
C3007 C 0.6453 0.25278 0.23637 0.0
C3008 C 0.63966 0.27413 0.23887 0.0
C3009 C 0.66156 0.29246 0.24928 0.0
C3010 C 0.66758 0.30986 0.23183 0.0
C3011 C 0.6584 0.30462 0.2734 0.0
C3012 C 0.68017 0.2781 0.2523 0.0
C3013 C 0.67017 0.2552 0.24502 0.0
C3014 C 0.68342 0.23847 0.24664 0.0
C3015 C 0.70728 0.24513 0.25554 0.0
C3016 C 0.71859 0.26846 0.26266 0.0
C3017 C 0.70441 0.28516 0.26092 0.0
H3018 H 0.56793 0.9178 0.89047 0.0
H3019 H 0.54348 0.86216 0.93048 0.0
H3020 H 0.53803 0.89004 0.96281 0.0
H3021 H 0.60012 0.95756 0.94309 0.0
H3022 H 0.59315 0.98297 0.93258 0.0
H3023 H 0.59495 0.95885 0.91164 0.0
H3024 H 0.55337 0.95757 0.89194 0.0
H3025 H 0.55143 0.98155 0.91301 0.0
H3026 H 0.53005 0.95507 0.90986 0.0
H3027 H 0.53084 0.92321 0.98958 0.0
H3028 H 0.52882 0.95973 0.01203 0.0
H3029 H 0.56397 0.99681 0.96061 0.0
C3030 C 0.56164 0.91148 0.90611 0.0
C3031 C 0.55624 0.88724 0.90741 0.0
C3032 C 0.54801 0.88023 0.92853 0.0
C3033 C 0.54465 0.89608 0.94719 0.0
C3034 C 0.5499 0.9195 0.9453 0.0
C3035 C 0.5587 0.92738 0.92559 0.0
C3036 C 0.56363 0.95384 0.92905 0.0
C3037 C 0.58951 0.9639 0.92909 0.0
C3038 C 0.54874 0.96252 0.90981 0.0
C3039 C 0.55626 0.95938 0.95364 0.0
C3040 C 0.5479 0.93909 0.96223 0.0
C3041 C 0.53828 0.93918 0.98343 0.0
C3042 C 0.53769 0.96032 0.99651 0.0
C3043 C 0.54762 0.98178 0.98949 0.0
C3044 C 0.55669 0.98105 0.96721 0.0
H3045 H 0.95295 0.73954 0.74059 0.0
H3046 H 0.97515 0.8053 0.71596 0.0
H3047 H 0.93901 0.81625 0.72525 0.0
H3048 H 0.88999 0.73154 0.71875 0.0
H3049 H 0.88017 0.71943 0.74434 0.0
H3050 H 0.90758 0.71594 0.73547 0.0
H3051 H 0.92801 0.73387 0.77735 0.0
H3052 H 0.90066 0.7375 0.78628 0.0
H3053 H 0.92459 0.76187 0.78936 0.0
H3054 H 0.9008 0.8222 0.74004 0.0
H3055 H 0.86318 0.82083 0.75492 0.0
H3056 H 0.86103 0.75073 0.76839 0.0
C3057 C 0.94998 0.75599 0.73647 0.0
C3058 C 0.96752 0.77121 0.72657 0.0
C3059 C 0.96249 0.79289 0.72279 0.0
C3060 C 0.94177 0.79943 0.72827 0.0
C3061 C 0.92514 0.78437 0.73794 0.0
C3062 C 0.9288 0.76291 0.74183 0.0
C3063 C 0.9078 0.75038 0.75281 0.0
C3064 C 0.89567 0.72798 0.73689 0.0
C3065 C 0.91574 0.74561 0.77793 0.0
C3066 C 0.89171 0.76779 0.75386 0.0
C3067 C 0.90255 0.7875 0.74563 0.0
C3068 C 0.89219 0.8066 0.74609 0.0
C3069 C 0.8705 0.80568 0.75471 0.0
C3070 C 0.85806 0.78567 0.76264 0.0
C3071 C 0.86926 0.76633 0.76209 0.0
H3072 H 0.14446 0.06299 0.89331 0.0
H3073 H 0.08561 0.04339 0.83776 0.0
H3074 H 0.05969 0.03481 0.86813 0.0
H3075 H 0.12579 0.02047 0.93125 0.0
H3076 H 0.13577 0.03954 0.95865 0.0
H3077 H 0.14996 0.04443 0.93278 0.0
H3078 H 0.14285 0.08574 0.93595 0.0
H3079 H 0.1286 0.081 0.96183 0.0
H3080 H 0.11381 0.09013 0.93658 0.0
H3081 H 0.03968 0.03164 0.90457 0.0
H3082 H 0.02699 0.03084 0.94354 0.0
H3083 H 0.09826 0.04692 0.97698 0.0
C3084 C 0.12611 0.05683 0.88745 0.0
C3085 C 0.11719 0.05399 0.86282 0.0
C3086 C 0.09301 0.04599 0.85627 0.0
C3087 C 0.0781 0.041 0.87349 0.0
C3088 C 0.08743 0.0441 0.89745 0.0
C3089 C 0.11089 0.05178 0.90451 0.0
C3090 C 0.11622 0.05393 0.9316 0.0
C3091 C 0.13292 0.03867 0.939 0.0
C3092 C 0.12596 0.0792 0.94211 0.0
C3093 C 0.09218 0.04543 0.93858 0.0
C3094 C 0.0759 0.04049 0.91852 0.0
C3095 C 0.05239 0.03465 0.92025 0.0
C3096 C 0.04523 0.03368 0.94282 0.0
C3097 C 0.06122 0.03715 0.9639 0.0
C3098 C 0.08527 0.04331 0.96149 0.0
H3099 H 0.82437 0.42864 0.58516 0.0
H3100 H 0.7705 0.37508 0.54369 0.0
H3101 H 0.76945 0.35264 0.57728 0.0
H3102 H 0.85636 0.39549 0.6056 0.0
H3103 H 0.86572 0.41011 0.63537 0.0
H3104 H 0.85713 0.42578 0.6122 0.0
H3105 H 0.82658 0.43891 0.63631 0.0
H3106 H 0.83534 0.42352 0.65994 0.0
H3107 H 0.80541 0.41783 0.647 0.0
H3108 H 0.78023 0.33241 0.61001 0.0
H3109 H 0.80215 0.31588 0.64053 0.0
H3110 H 0.85044 0.38139 0.66007 0.0
C3111 C 0.81149 0.4128 0.58376 0.0
C3112 C 0.79734 0.40358 0.56218 0.0
C3113 C 0.78131 0.3824 0.56033 0.0
C3114 C 0.7805 0.36963 0.57933 0.0
C3115 C 0.79572 0.37843 0.59999 0.0
C3116 C 0.81075 0.3997 0.60251 0.0
C3117 C 0.82814 0.40333 0.62467 0.0
C3118 C 0.8533 0.40898 0.61908 0.0
C3119 C 0.82359 0.422 0.64307 0.0
C3120 C 0.82209 0.37991 0.63266 0.0
C3121 C 0.80271 0.36618 0.61883 0.0
C3122 C 0.79506 0.34313 0.62138 0.0
C3123 C 0.80767 0.33383 0.63844 0.0
C3124 C 0.82791 0.34749 0.65206 0.0
C3125 C 0.83498 0.37081 0.64955 0.0
H3126 H 0.42954 1.00122 0.38541 0.0
H3127 H 0.4268 0.07287 0.38507 0.0
H3128 H 0.46011 0.08404 0.41714 0.0
H3129 H 0.44371 1.00275 0.44765 0.0
H3130 H 0.46278 0.98298 0.44433 0.0
H3131 H 0.43903 0.98171 0.42158 0.0
H3132 H 0.4686 0.98597 0.3911 0.0
H3133 H 0.49219 0.98821 0.41442 0.0
H3134 H 0.49244 0.01058 0.39569 0.0
H3135 H 0.49046 0.08678 0.45063 0.0
H3136 H 0.51782 0.08141 0.48414 0.0
H3137 H 0.50297 0.00813 0.46051 0.0
C3138 C 0.43594 0.01919 0.39241 0.0
C3139 C 0.42573 0.03634 0.38374 0.0
C3140 C 0.4345 0.05974 0.3923 0.0
C3141 C 0.45337 0.06615 0.41017 0.0
C3142 C 0.46318 0.04882 0.41855 0.0
C3143 C 0.45492 0.02585 0.4099 0.0
C3144 C 0.46837 0.01066 0.42221 0.0
C3145 C 0.45251 0.99354 0.4347 0.0
C3146 C 0.48116 0.99813 0.40481 0.0
C3147 C 0.485 0.02868 0.43975 0.0
C3148 C 0.48173 0.05056 0.43722 0.0
C3149 C 0.49352 0.06986 0.45265 0.0
C3150 C 0.50881 0.06665 0.47159 0.0
C3151 C 0.51211 0.04439 0.47451 0.0
C3152 C 0.50073 0.02528 0.45814 0.0
H3153 H 0.78368 0.74435 0.09504 0.0
H3154 H 0.75547 0.67258 0.09989 0.0
H3155 H 0.75296 0.68237 0.14223 0.0
H3156 H 0.81837 0.7564 0.15432 0.0
H3157 H 0.81334 0.78497 0.16055 0.0
H3158 H 0.81323 0.77271 0.13031 0.0
H3159 H 0.77224 0.78009 0.1194 0.0
H3160 H 0.77218 0.79215 0.14969 0.0
H3161 H 0.74924 0.76854 0.13569 0.0
H3162 H 0.75293 0.69907 0.1841 0.0
H3163 H 0.75768 0.72159 0.2237 0.0
H3164 H 0.78581 0.78349 0.19449 0.0
C3165 C 0.77711 0.73069 0.10505 0.0
C3166 C 0.76976 0.70751 0.09367 0.0
C3167 C 0.76127 0.69036 0.10775 0.0
C3168 C 0.75968 0.69578 0.13199 0.0
C3169 C 0.76672 0.71858 0.14253 0.0
C3170 C 0.77549 0.73583 0.12969 0.0
C3171 C 0.78218 0.75888 0.14597 0.0
C3172 C 0.80833 0.76883 0.1479 0.0
C3173 C 0.76812 0.77592 0.13715 0.0
C3174 C 0.77551 0.75182 0.16972 0.0
C3175 C 0.76665 0.7284 0.16711 0.0
C3176 C 0.75979 0.71742 0.18629 0.0
C3177 C 0.76248 0.73042 0.2088 0.0
C3178 C 0.77179 0.7544 0.21239 0.0
C3179 C 0.77812 0.7653 0.19235 0.0
H3180 H 0.10505 0.08359 0.72056 0.0
H3181 H 0.12266 0.01693 0.72116 0.0
H3182 H 0.10669 1.00661 0.67864 0.0
H3183 H 0.05101 0.06498 0.68067 0.0
H3184 H 0.05521 0.08969 0.66495 0.0
H3185 H 0.06803 0.09219 0.69543 0.0
H3186 H 0.10846 0.10772 0.68356 0.0
H3187 H 0.09559 0.1054 0.65313 0.0
H3188 H 0.11896 0.09129 0.66046 0.0
H3189 H 0.08979 1.00357 0.63594 0.0
H3190 H 0.07302 0.00769 0.59587 0.0
H3191 H 0.06411 0.07566 0.62129 0.0
C3192 C 0.1055 0.06683 0.71165 0.0
C3193 C 0.11515 0.05098 0.72426 0.0
C3194 C 0.11546 0.0293 0.71195 0.0
C3195 C 0.10638 0.0233 0.68776 0.0
C3196 C 0.09697 0.03918 0.67583 0.0
C3197 C 0.09648 0.06056 0.68726 0.0
C3198 C 0.08555 0.07438 0.6699 0.0
C3199 C 0.06364 0.08068 0.67824 0.0
C3200 C 0.10319 0.09598 0.66657 0.0
C3201 C 0.07962 0.05727 0.64711 0.0
C3202 C 0.08666 0.03721 0.65106 0.0
C3203 C 0.08409 0.01917 0.63278 0.0
C3204 C 0.07442 0.02166 0.60993 0.0
C3205 C 0.06681 0.04185 0.60506 0.0
C3206 C 0.06929 0.05986 0.6242 0.0
H3207 H 0.82693 0.38509 0.44285 0.0
H3208 H 0.77445 0.4207 0.41703 0.0
H3209 H 0.76384 0.39224 0.38078 0.0
H3210 H 0.84572 0.373 0.38629 0.0
H3211 H 0.8513 0.34545 0.39184 0.0
H3212 H 0.85385 0.36787 0.41624 0.0
H3213 H 0.82459 0.34062 0.43651 0.0
H3214 H 0.82183 0.31817 0.41206 0.0
H3215 H 0.79645 0.32735 0.42048 0.0
H3216 H 0.75802 0.35979 0.34915 0.0
H3217 H 0.76043 0.32755 0.31991 0.0
H3218 H 0.81932 0.315 0.36453 0.0
C3219 C 0.81312 0.38672 0.42955 0.0
C3220 C 0.80122 0.40466 0.43246 0.0
C3221 C 0.78361 0.40687 0.41478 0.0
C3222 C 0.77743 0.3908 0.39438 0.0
C3223 C 0.78937 0.37312 0.3921 0.0
C3224 C 0.80709 0.37117 0.40894 0.0
C3225 C 0.81808 0.35139 0.4014 0.0
C3226 C 0.84375 0.35995 0.39878 0.0
C3227 C 0.81504 0.33332 0.41864 0.0
C3228 C 0.80366 0.34247 0.37764 0.0
C3229 C 0.78699 0.35508 0.3729 0.0
C3230 C 0.7712 0.34998 0.35239 0.0
C3231 C 0.77285 0.33178 0.33587 0.0
C3232 C 0.79059 0.31945 0.33978 0.0
C3233 C 0.80586 0.32446 0.36111 0.0
H3234 H 0.42087 0.99472 0.25473 0.0
H3235 H 0.41217 0.06296 0.24373 0.0
H3236 H 0.43181 0.06049 0.20741 0.0
H3237 H 0.47759 1.00255 0.24111 0.0
H3238 H 0.47448 0.97339 0.22734 0.0
H3239 H 0.4572 0.97959 0.25017 0.0
H3240 H 0.41955 0.96035 0.22183 0.0
H3241 H 0.43671 0.9537 0.199 0.0
H3242 H 0.4146 0.96974 0.19316 0.0
H3243 H 0.45088 0.04834 0.1711 0.0
H3244 H 0.46983 0.03003 0.14071 0.0
H3245 H 0.47354 0.97434 0.1832 0.0
C3246 C 0.4227 0.0089 0.24429 0.0
C3247 C 0.41471 0.02872 0.25116 0.0
C3248 C 0.4179 0.04745 0.238 0.0
C3249 C 0.42904 0.04619 0.21757 0.0
C3250 C 0.43717 0.02634 0.21138 0.0
C3251 C 0.43431 0.0082 0.22461 0.0
C3252 C 0.44603 0.98957 0.21572 0.0
C3253 C 0.46495 0.9861 0.23472 0.0
C3254 C 0.42816 0.96702 0.20691 0.0
C3255 C 0.45617 1.00001 0.19542 0.0
C3256 C 0.4504 0.02084 0.19263 0.0
C3257 C 0.45593 0.03225 0.17342 0.0
C3258 C 0.46708 0.0217 0.15632 0.0
C3259 C 0.47337 1.0003 0.15905 0.0
C3260 C 0.46853 0.99011 0.17958 0.0
H3261 H 0.77965 0.68792 0.9267 0.0
H3262 H 0.76342 0.74219 0.97424 0.0
H3263 H 0.76708 0.76753 0.94275 0.0
H3264 H 0.82305 0.72545 0.8995 0.0
H3265 H 0.81508 0.70905 0.87038 0.0
H3266 H 0.81096 0.69502 0.89643 0.0
H3267 H 0.76764 0.67971 0.88024 0.0
H3268 H 0.77162 0.69381 0.85421 0.0
H3269 H 0.75 0.69967 0.87239 0.0
H3270 H 0.7684 0.78571 0.90422 0.0
H3271 H 0.77316 0.79764 0.86498 0.0
H3272 H 0.79426 0.73422 0.84292 0.0
C3273 C 0.77698 0.7052 0.93063 0.0
C3274 C 0.77106 0.71283 0.95331 0.0
C3275 C 0.76795 0.73571 0.95735 0.0
C3276 C 0.7699 0.75026 0.93939 0.0
C3277 C 0.7754 0.74206 0.91728 0.0
C3278 C 0.77935 0.72018 0.91297 0.0
C3279 C 0.78568 0.71589 0.8878 0.0
C3280 C 0.81015 0.71107 0.88858 0.0
C3281 C 0.76767 0.69609 0.87278 0.0
C3282 C 0.78468 0.73875 0.87857 0.0
C3283 C 0.77818 0.75334 0.89578 0.0
C3284 C 0.77415 0.77461 0.89097 0.0
C3285 C 0.7771 0.78133 0.8684 0.0
C3286 C 0.78508 0.76753 0.85057 0.0
C3287 C 0.78874 0.74569 0.85599 0.0
H3288 H 0.81426 0.09401 0.0171 0.0
H3289 H 0.83859 0.12462 0.09025 0.0
H3290 H 0.87499 0.11059 0.08764 0.0
H3291 H 0.83868 0.0437 0.01761 0.0
H3292 H 0.84514 0.04509 0.98762 0.0
H3293 H 0.82049 0.05515 0.99683 0.0
H3294 H 0.83586 0.09489 0.98366 0.0
H3295 H 0.86046 0.08511 0.97429 0.0
H3296 H 0.8647 0.11062 0.99547 0.0
H3297 H 0.90955 0.09582 0.07476 0.0
H3298 H 0.93968 0.08353 0.05252 0.0
H3299 H 0.88996 0.06427 0.98871 0.0
C3300 C 0.82685 0.09751 0.03294 0.0
C3301 C 0.8237 0.11021 0.05394 0.0
C3302 C 0.8409 0.1148 0.07397 0.0
C3303 C 0.86137 0.10677 0.07271 0.0
C3304 C 0.8638 0.09431 0.0514 0.0
C3305 C 0.84689 0.08983 0.03196 0.0
C3306 C 0.8539 0.07835 0.01023 0.0
C3307 C 0.83867 0.05413 1.00265 0.0
C3308 C 0.85373 0.09314 0.98974 0.0
C3309 C 0.87797 0.07761 0.0201 0.0
C3310 C 0.88343 0.08647 0.04393 0.0
C3311 C 0.90547 0.08879 0.05618 0.0
C3312 C 0.92238 0.08212 0.04347 0.0
C3313 C 0.91687 0.0739 0.01895 0.0
C3314 C 0.89447 0.07119 0.00734 0.0
H3315 H 0.38569 0.41227 0.01592 0.0
H3316 H 0.36335 0.44403 0.07852 0.0
H3317 H 0.39948 0.47406 0.08512 0.0
H3318 H 0.44685 0.42453 0.04023 0.0
H3319 H 0.45741 0.4301 0.01258 0.0
H3320 H 0.4301 0.41049 0.01247 0.0
H3321 H 0.40903 0.43435 0.98564 0.0
H3322 H 0.43702 0.45198 0.9847 0.0
H3323 H 0.41457 0.46535 0.99395 0.0
H3324 H 0.43973 0.49973 0.08624 0.0
H3325 H 0.47801 0.52106 0.07856 0.0
H3326 H 0.46978 0.47773 0.01122 0.0
C3327 C 0.38844 0.42564 0.03091 0.0
C3328 C 0.37178 0.42581 0.04684 0.0
C3329 C 0.37595 0.44357 0.06622 0.0
C3330 C 0.39642 0.4607 0.07009 0.0
C3331 C 0.41259 0.46014 0.05421 0.0
C3332 C 0.40866 0.44332 0.03469 0.0
C3333 C 0.42903 0.44678 0.02045 0.0
C3334 C 0.44159 0.42679 0.02151 0.0
C3335 C 0.42184 0.44978 0.99463 0.0
C3336 C 0.444 0.46886 0.03403 0.0
C3337 C 0.43487 0.47571 0.05409 0.0
C3338 C 0.44675 0.49466 0.0703 0.0
C3339 C 0.4684 0.50682 0.06573 0.0
C3340 C 0.47743 0.50071 0.04462 0.0
C3341 C 0.46449 0.48195 0.02828 0.0
H3342 H 0.39482 0.56992 0.81058 0.0
H3343 H 0.432 0.58395 0.7506 0.0
H3344 H 0.41524 0.61866 0.74757 0.0
H3345 H 0.34261 0.58521 0.78616 0.0
H3346 H 0.33673 0.59623 0.81495 0.0
H3347 H 0.35211 0.57327 0.81215 0.0
H3348 H 0.38616 0.59725 0.84263 0.0
H3349 H 0.37071 0.62001 0.84583 0.0
H3350 H 0.39957 0.62582 0.83772 0.0
H3351 H 0.39355 0.65256 0.75235 0.0
H3352 H 0.37324 0.68284 0.76656 0.0
H3353 H 0.34962 0.64319 0.82155 0.0
C3354 C 0.39972 0.58014 0.7967 0.0
C3355 C 0.41493 0.5741 0.78084 0.0
C3356 C 0.42067 0.5883 0.76315 0.0
C3357 C 0.41095 0.60785 0.76114 0.0
C3358 C 0.39534 0.61264 0.7767 0.0
C3359 C 0.3899 0.59902 0.79414 0.0
C3360 C 0.37281 0.6072 0.80888 0.0
C3361 C 0.3497 0.58942 0.80531 0.0
C3362 C 0.38294 0.61292 0.83531 0.0
C3363 C 0.37018 0.62845 0.79793 0.0
C3364 C 0.38284 0.63123 0.77908 0.0
C3365 C 0.38354 0.65036 0.76698 0.0
C3366 C 0.37186 0.66739 0.77503 0.0
C3367 C 0.35997 0.66522 0.7951 0.0
C3368 C 0.35854 0.64516 0.8061 0.0
H3369 H 0.19473 0.6299 0.52454 0.0
H3370 H 0.23031 0.59464 0.57434 0.0
H3371 H 0.19381 0.56794 0.57673 0.0
H3372 H 0.14539 0.62777 0.55466 0.0
H3373 H 0.12455 0.62332 0.52832 0.0
H3374 H 0.15386 0.63842 0.52787 0.0
H3375 H 0.1583 0.60903 0.49202 0.0
H3376 H 0.12837 0.59557 0.49226 0.0
H3377 H 0.15012 0.57872 0.49425 0.0
H3378 H 0.1554 0.54493 0.57335 0.0
H3379 H 0.11379 0.52901 0.5691 0.0
H3380 H 0.10116 0.58157 0.52559 0.0
C3381 C 0.19462 0.61634 0.53564 0.0
C3382 C 0.21508 0.61339 0.54846 0.0
C3383 C 0.21467 0.59629 0.56368 0.0
C3384 C 0.19414 0.58114 0.56519 0.0
C3385 C 0.17428 0.58382 0.55176 0.0
C3386 C 0.17406 0.60111 0.53758 0.0
C3387 C 0.14966 0.60118 0.52698 0.0
C3388 C 0.14297 0.62403 0.53496 0.0
C3389 C 0.14647 0.59583 0.49976 0.0
C3390 C 0.13649 0.58151 0.53786 0.0
C3391 C 0.15121 0.57145 0.55148 0.0
C3392 C 0.14352 0.55259 0.56281 0.0
C3393 C 0.11985 0.54371 0.56024 0.0
C3394 C 0.10431 0.55413 0.54693 0.0
C3395 C 0.11271 0.57325 0.53565 0.0
H3396 H 0.70453 0.98795 0.74407 0.0
H3397 H 0.7501 0.03939 0.79715 0.0
H3398 H 0.77114 0.01093 0.80938 0.0
H3399 H 0.69657 0.94472 0.77809 0.0
H3400 H 0.69773 0.92142 0.7558 0.0
H3401 H 0.68916 0.94669 0.74703 0.0
H3402 H 0.72154 0.95148 0.71992 0.0
H3403 H 0.73059 0.92642 0.72911 0.0
H3404 H 0.75112 0.95349 0.73241 0.0
H3405 H 0.784 0.97878 0.82006 0.0
H3406 H 0.78417 0.94128 0.83353 0.0
H3407 H 0.73082 0.90819 0.77547 0.0
C3408 C 0.71913 0.99301 0.758 0.0
C3409 C 0.72623 0.01579 0.76922 0.0
C3410 C 0.74495 0.02205 0.78782 0.0
C3411 C 0.75722 1.00611 0.79475 0.0
C3412 C 0.75048 0.98394 0.78302 0.0
C3413 C 0.73172 0.97708 0.76533 0.0
C3414 C 0.72641 0.95131 0.75843 0.0
C3415 C 0.70096 0.94042 0.75997 0.0
C3416 C 0.7328 0.94531 0.73349 0.0
C3417 C 0.74296 0.94489 0.77736 0.0
C3418 C 0.75763 0.96421 0.79017 0.0
C3419 C 0.7729 0.96341 0.81009 0.0
C3420 C 0.77258 0.94228 0.81786 0.0
C3421 C 0.75693 0.92258 0.80585 0.0
C3422 C 0.74251 0.92348 0.78493 0.0
H3423 H 0.7516 0.9251 0.49871 0.0
H3424 H 0.74764 0.90442 0.56882 0.0
H3425 H 0.7147 0.92389 0.57291 0.0
H3426 H 0.74252 0.98122 0.51444 0.0
H3427 H 0.72676 0.98202 0.48588 0.0
H3428 H 0.74852 0.96509 0.48823 0.0
H3429 H 0.71854 0.92864 0.46801 0.0
H3430 H 0.69688 0.94557 0.46508 0.0
H3431 H 0.6917 0.92035 0.47995 0.0
H3432 H 0.68215 0.94753 0.56866 0.0
H3433 H 0.65196 0.96835 0.55494 0.0
H3434 H 0.68118 0.97484 0.48921 0.0
C3435 C 0.74363 0.92422 0.51486 0.0
C3436 C 0.75207 0.91297 0.53336 0.0
C3437 C 0.74116 0.91248 0.5542 0.0
C3438 C 0.72271 0.92383 0.55679 0.0
C3439 C 0.71567 0.93571 0.53849 0.0
C3440 C 0.72586 0.93574 0.51789 0.0
C3441 C 0.71603 0.95 0.50086 0.0
C3442 C 0.73456 0.97081 0.49715 0.0
C3443 C 0.70513 0.93525 0.47708 0.0
C3444 C 0.69796 0.95748 0.51458 0.0
C3445 C 0.69803 0.94945 0.5364 0.0
C3446 C 0.68208 0.95387 0.55163 0.0
C3447 C 0.66513 0.96585 0.54383 0.0
C3448 C 0.66432 0.97307 0.52103 0.0
C3449 C 0.68145 0.96948 0.50673 0.0
H3450 H 0.4204 0.43453 0.78843 0.0
H3451 H 0.37681 0.46888 0.74574 0.0
H3452 H 0.34401 0.43571 0.74314 0.0
H3453 H 0.39442 0.37762 0.75391 0.0
H3454 H 0.39696 0.36197 0.77891 0.0
H3455 H 0.41764 0.38826 0.77798 0.0
H3456 H 0.40714 0.40845 0.81899 0.0
H3457 H 0.39225 0.3792 0.81913 0.0
H3458 H 0.37675 0.40152 0.82257 0.0
H3459 H 0.31511 0.3989 0.74611 0.0
H3460 H 0.29374 0.36079 0.75287 0.0
H3461 H 0.35489 0.35185 0.79606 0.0
C3462 C 0.40396 0.43492 0.77848 0.0
C3463 C 0.40101 0.45448 0.76763 0.0
C3464 C 0.37935 0.45421 0.75444 0.0
C3465 C 0.36058 0.43544 0.75287 0.0
C3466 C 0.36368 0.41674 0.76439 0.0
C3467 C 0.38488 0.41618 0.7768 0.0
C3468 C 0.38375 0.39325 0.78627 0.0
C3469 C 0.3991 0.37946 0.7735 0.0
C3470 C 0.39045 0.39592 0.81332 0.0
C3471 C 0.35826 0.38213 0.7791 0.0
C3472 C 0.34712 0.39557 0.76587 0.0
C3473 C 0.3237 0.38833 0.75665 0.0
C3474 C 0.31151 0.36672 0.76092 0.0
C3475 C 0.32242 0.35281 0.77498 0.0
C3476 C 0.34604 0.36117 0.78446 0.0
H3477 H 0.23732 0.61917 0.25348 0.0
H3478 H 0.17943 0.6301 0.2899 0.0
H3479 H 0.19577 0.67212 0.29633 0.0
H3480 H 0.28478 0.66605 0.28384 0.0
H3481 H 0.29421 0.66972 0.2556 0.0
H3482 H 0.27881 0.6419 0.26038 0.0
H3483 H 0.25142 0.64562 0.2215 0.0
H3484 H 0.26615 0.67494 0.22132 0.0
H3485 H 0.23546 0.66822 0.22272 0.0
H3486 H 0.21753 0.71259 0.29667 0.0
H3487 H 0.24299 0.74864 0.28991 0.0
H3488 H 0.28651 0.70992 0.25478 0.0
C3489 C 0.2285 0.63046 0.26334 0.0
C3490 C 0.20784 0.6219 0.27217 0.0
C3491 C 0.19568 0.63682 0.28364 0.0
C3492 C 0.20479 0.66048 0.28734 0.0
C3493 C 0.22542 0.6685 0.27856 0.0
C3494 C 0.23693 0.65397 0.26647 0.0
C3495 C 0.25702 0.66699 0.25612 0.0
C3496 C 0.28003 0.66067 0.26452 0.0
C3497 C 0.2522 0.66375 0.2288 0.0
C3498 C 0.25637 0.69093 0.26635 0.0
C3499 C 0.23771 0.69163 0.27861 0.0
C3500 C 0.23274 0.71222 0.28793 0.0
C3501 C 0.24762 0.73261 0.28483 0.0
C3502 C 0.26755 0.73193 0.27378 0.0
C3503 C 0.27177 0.71086 0.26418 0.0
H3504 H 0.52786 0.71393 0.50708 0.0
H3505 H 0.49762 0.69059 0.43386 0.0
H3506 H 0.50038 0.65106 0.43953 0.0
H3507 H 0.56864 0.67434 0.50918 0.0
H3508 H 0.5656 0.66858 0.53911 0.0
H3509 H 0.56133 0.69556 0.53017 0.0
H3510 H 0.52068 0.6883 0.54343 0.0
H3511 H 0.52492 0.66138 0.55251 0.0
H3512 H 0.50011 0.66202 0.53168 0.0
H3513 H 0.50563 0.61221 0.4527 0.0
H3514 H 0.51339 0.57903 0.47137 0.0
H3515 H 0.54202 0.62387 0.53706 0.0
C3516 C 0.52174 0.70056 0.49216 0.0
C3517 C 0.51225 0.70646 0.46969 0.0
C3518 C 0.50485 0.6876 0.45117 0.0
C3519 C 0.50638 0.66465 0.45427 0.0
C3520 C 0.51564 0.65953 0.47623 0.0
C3521 C 0.52335 0.67699 0.49496 0.0
C3522 C 0.53277 0.66625 0.51662 0.0
C3523 C 0.55862 0.67682 0.52423 0.0
C3524 C 0.5188 0.66971 0.5373 0.0
C3525 C 0.52909 0.64026 0.50719 0.0
C3526 C 0.51905 0.63703 0.48376 0.0
C3527 C 0.51353 0.61486 0.47103 0.0
C3528 C 0.51809 0.59573 0.48205 0.0
C3529 C 0.52845 0.5977 0.50611 0.0
C3530 C 0.53412 0.6209 0.51872 0.0
H3531 H 0.66686 0.31456 0.64605 0.0
H3532 H 0.61367 0.29252 0.69013 0.0
H3533 H 0.64282 0.28415 0.71959 0.0
H3534 H 0.70309 0.2736 0.66062 0.0
H3535 H 0.73042 0.29367 0.66256 0.0
H3536 H 0.70558 0.29732 0.64348 0.0
H3537 H 0.71015 0.33855 0.66484 0.0
H3538 H 0.73508 0.33502 0.68384 0.0
H3539 H 0.71101 0.3431 0.69666 0.0
H3540 H 0.67641 0.27496 0.74343 0.0
H3541 H 0.71354 0.27127 0.7637 0.0
H3542 H 0.74895 0.30442 0.70988 0.0
C3543 C 0.6614 0.30801 0.66192 0.0
C3544 C 0.63747 0.30426 0.66541 0.0
C3545 C 0.63152 0.2958 0.68671 0.0
C3546 C 0.64808 0.29079 0.70369 0.0
C3547 C 0.6712 0.29461 0.69987 0.0
C3548 C 0.67816 0.30346 0.67982 0.0
C3549 C 0.70469 0.30694 0.68139 0.0
C3550 C 0.71134 0.292 0.66077 0.0
C3551 C 0.7159 0.33242 0.6817 0.0
C3552 C 0.71125 0.29866 0.70529 0.0
C3553 C 0.69136 0.29118 0.71515 0.0
C3554 C 0.69216 0.28141 0.7362 0.0
C3555 C 0.71368 0.27964 0.74787 0.0
C3556 C 0.73491 0.28837 0.73943 0.0
C3557 C 0.73341 0.2978 0.71738 0.0
H3558 H 0.02792 0.3679 0.9492 0.0
H3559 H 1.00888 0.33705 0.01141 0.0
H3560 H 1.01053 0.37618 0.03237 0.0
H3561 H 0.06718 0.41756 0.97653 0.0
H3562 H 0.05773 0.43607 0.956 0.0
H3563 H 0.05425 0.40587 0.94672 0.0
H3564 H 1.0109 0.40269 0.93461 0.0
H3565 H 0.01405 0.43295 0.94413 0.0
H3566 H 0.99353 0.4122 0.95601 0.0
H3567 H 0.01278 0.42118 0.046 0.0
H3568 H 0.01872 0.46356 0.05165 0.0
H3569 H 0.03823 0.46533 0.98092 0.0
C3570 C 0.02421 0.36903 0.96736 0.0
C3571 C 0.01849 0.34851 0.97842 0.0
C3572 C 0.01355 0.35182 1.00219 0.0
C3573 C 0.01432 0.37426 0.01426 0.0
C3574 C 0.01983 0.39386 1.00257 0.0
C3575 C 0.02459 0.39119 0.97948 0.0
C3576 C 0.02979 0.41459 0.97034 0.0
C3577 C 0.05372 0.41884 0.96196 0.0
C3578 C 1.01095 0.41567 0.95007 0.0
C3579 C 0.02878 0.43142 0.9923 0.0
C3580 C 0.02211 0.41902 0.01047 0.0
C3581 C 0.01831 0.4307 0.03184 0.0
C3582 C 0.02164 0.45511 0.03489 0.0
C3583 C 0.0293 0.46861 0.01707 0.0
C3584 C 0.03282 0.45612 0.99534 0.0
H3585 H 0.01596 0.81919 0.16733 0.0
H3586 H 0.99008 0.75537 0.12003 0.0
H3587 H 0.9574 0.74581 0.14166 0.0
H3588 H 0.99843 0.80237 0.22139 0.0
H3589 H 0.9871 0.82733 0.23004 0.0
H3590 H 1.00959 0.82939 0.21118 0.0
H3591 H 0.98375 0.84488 0.18015 0.0
H3592 H 0.96099 0.84239 0.1988 0.0
H3593 H 0.95522 0.82822 0.16867 0.0
H3594 H 0.92726 0.74192 0.16793 0.0
H3595 H 0.90254 0.74359 0.19988 0.0
H3596 H 0.94441 0.8104 0.23001 0.0
C3597 C 1.00352 0.80315 0.16174 0.0
C3598 C 1.0065 0.7876 0.14229 0.0
C3599 C 0.98919 0.76723 0.13517 0.0
C3600 C 0.97007 0.76171 0.14722 0.0
C3601 C 0.96748 0.77722 0.16598 0.0
C3602 C 0.98343 0.7977 0.17314 0.0
C3603 C 0.97528 0.81156 0.19329 0.0
C3604 C 0.99371 0.81802 0.21528 0.0
C3605 C 0.96842 0.83304 0.18473 0.0
C3606 C 0.95388 0.79453 0.19772 0.0
C3607 C 0.94926 0.77525 0.18101 0.0
C3608 C 0.93053 0.75701 0.18106 0.0
C3609 C 0.91649 0.75814 0.19917 0.0
C3610 C 0.92148 0.77713 0.21725 0.0
C3611 C 0.94017 0.79576 0.21625 0.0
H3612 H 0.5198 0.33287 0.17914 0.0
H3613 H 0.54706 0.28709 0.13131 0.0
H3614 H 0.55507 0.31707 0.10527 0.0
H3615 H 0.49591 0.3654 0.13807 0.0
H3616 H 0.50681 0.39317 0.15547 0.0
H3617 H 0.50124 0.36776 0.17 0.0
H3618 H 0.54347 0.37737 0.19106 0.0
H3619 H 0.54898 0.40312 0.17708 0.0
H3620 H 0.56702 0.38248 0.17358 0.0
H3621 H 0.55703 0.35078 0.08246 0.0
H3622 H 0.56433 0.38971 0.07027 0.0
H3623 H 0.54318 0.41676 0.13583 0.0
C3624 C 0.52768 0.32934 0.16331 0.0
C3625 C 0.53157 0.30713 0.15646 0.0
C3626 C 0.54252 0.30341 0.13603 0.0
C3627 C 0.54735 0.32045 0.12123 0.0
C3628 C 0.54224 0.34174 0.12765 0.0
C3629 C 0.53376 0.3467 0.14878 0.0
C3630 C 0.53261 0.37197 0.15263 0.0
C3631 C 0.50765 0.37472 0.15413 0.0
C3632 C 0.549 0.38447 0.17491 0.0
C3633 C 0.54117 0.38009 0.13014 0.0
C3634 C 0.54603 0.36214 0.11573 0.0
C3635 C 0.55363 0.36508 0.09376 0.0
C3636 C 0.55749 0.38718 0.08683 0.0
C3637 C 0.55426 0.40619 0.10202 0.0
C3638 C 0.5456 0.40247 0.12378 0.0
H3639 H 0.97811 0.28973 0.32186 0.0
H3640 H 0.98878 0.35198 0.37121 0.0
H3641 H 0.94796 0.35409 0.36058 0.0
H3642 H 0.93387 0.30263 0.27668 0.0
H3643 H 0.91628 0.27388 0.2721 0.0
H3644 H 0.94708 0.27855 0.28091 0.0
H3645 H 0.94019 0.25728 0.31736 0.0
H3646 H 0.90954 0.25217 0.30792 0.0
H3647 H 0.92142 0.26623 0.33752 0.0
H3648 H 0.90435 0.34951 0.34458 0.0
H3649 H 0.86283 0.33653 0.32888 0.0
H3650 H 0.87666 0.27451 0.29271 0.0
C3651 C 0.97212 0.30434 0.32973 0.0
C3652 C 0.98796 0.3219 0.34619 0.0
C3653 C 0.97813 0.33926 0.35742 0.0
C3654 C 0.95457 0.34041 0.35164 0.0
C3655 C 0.93969 0.32331 0.33519 0.0
C3656 C 0.94803 0.3053 0.32464 0.0
C3657 C 0.92757 0.28792 0.30943 0.0
C3658 C 0.93143 0.28561 0.28322 0.0
C3659 C 0.92449 0.2645 0.31863 0.0
C3660 C 0.90658 0.29893 0.31298 0.0
C3661 C 0.91422 0.31962 0.32762 0.0
C3662 C 0.89844 0.33331 0.33313 0.0
C3663 C 0.8746 0.32589 0.3238 0.0
C3664 C 0.86571 0.30465 0.30901 0.0
C3665 C 0.88235 0.29093 0.30382 0.0
H3666 H 0.05051 0.70117 0.64349 0.0
H3667 H 0.9927 0.67285 0.67907 0.0
H3668 H 0.989 0.63494 0.65503 0.0
H3669 H 0.03177 0.67042 0.58535 0.0
H3670 H 0.05961 0.66489 0.58004 0.0
H3671 H 0.05798 0.6897 0.60004 0.0
H3672 H 0.08316 0.67647 0.63336 0.0
H3673 H 0.08493 0.65167 0.61335 0.0
H3674 H 0.07435 0.64805 0.64137 0.0
H3675 H 0.99127 0.59961 0.62646 0.0
H3676 H 0.99961 0.57008 0.59703 0.0
H3677 H 0.05643 0.62013 0.57919 0.0
C3678 C 0.0371 0.68694 0.64625 0.0
C3679 C 0.02177 0.69021 0.66332 0.0
C3680 C 1.00469 0.67097 0.66639 0.0
C3681 C 1.00245 0.6493 0.65267 0.0
C3682 C 0.01771 0.64666 0.63603 0.0
C3683 C 0.03497 0.66492 0.63299 0.0
C3684 C 0.04969 0.65712 0.61453 0.0
C3685 C 0.04975 0.67139 0.59376 0.0
C3686 C 0.07451 0.65841 0.62635 0.0
C3687 C 0.03716 0.63207 0.60655 0.0
C3688 C 0.01905 0.62633 0.61962 0.0
C3689 C 1.0054 0.60406 0.61621 0.0
C3690 C 1.01031 0.58728 0.59934 0.0
C3691 C 0.02854 0.59249 0.58538 0.0
C3692 C 0.04209 0.61545 0.58913 0.0
H3693 H 0.61599 0.79058 0.84325 0.0
H3694 H 0.62456 0.86259 0.83443 0.0
H3695 H 0.66264 0.86216 0.82136 0.0
H3696 H 0.67755 0.79107 0.86316 0.0
H3697 H 0.6777 0.76387 0.84636 0.0
H3698 H 0.65119 0.76932 0.85599 0.0
H3699 H 0.63115 0.75982 0.81275 0.0
H3700 H 0.65765 0.75442 0.80302 0.0
H3701 H 0.64366 0.77509 0.79014 0.0
H3702 H 0.70141 0.85486 0.80914 0.0
H3703 H 0.73555 0.84127 0.79774 0.0
H3704 H 0.70486 0.77271 0.81119 0.0
C3705 C 0.62594 0.8064 0.83886 0.0
C3706 C 0.61641 0.82696 0.84062 0.0
C3707 C 0.63058 0.84668 0.83379 0.0
C3708 C 0.65262 0.84658 0.82619 0.0
C3709 C 0.66129 0.82641 0.82461 0.0
C3710 C 0.6483 0.80648 0.83053 0.0
C3711 C 0.66181 0.787 0.82611 0.0
C3712 C 0.66739 0.77723 0.84929 0.0
C3713 C 0.64772 0.76794 0.80687 0.0
C3714 C 0.68442 0.79915 0.8173 0.0
C3715 C 0.68349 0.82197 0.81673 0.0
C3716 C 0.70202 0.837 0.80962 0.0
C3717 C 0.72177 0.829 0.80317 0.0
C3718 C 0.72402 0.8058 0.80334 0.0
C3719 C 0.70441 0.79058 0.81045 0.0
H3720 H 0.49265 0.50821 0.70465 0.0
H3721 H 0.43117 0.53592 0.69211 0.0
H3722 H 0.4415 0.54448 0.65274 0.0
H3723 H 0.53151 0.54618 0.67512 0.0
H3724 H 0.54439 0.52422 0.66133 0.0
H3725 H 0.53261 0.52058 0.68876 0.0
H3726 H 0.50629 0.48183 0.66933 0.0
H3727 H 0.51812 0.48536 0.64188 0.0
H3728 H 0.48729 0.48083 0.64227 0.0
H3729 H 0.45857 0.55032 0.61396 0.0
H3730 H 0.47993 0.55157 0.57915 0.0
H3731 H 0.53027 0.51915 0.61497 0.0
C3732 C 0.48141 0.51616 0.69364 0.0
C3733 C 0.46103 0.52154 0.70188 0.0
C3734 C 0.44674 0.53154 0.68649 0.0
C3735 C 0.45255 0.53655 0.66398 0.0
C3736 C 0.47259 0.53104 0.65638 0.0
C3737 C 0.48666 0.52072 0.67061 0.0
C3738 C 0.50653 0.51544 0.65745 0.0
C3739 C 0.53016 0.52733 0.67151 0.0
C3740 C 0.50444 0.48932 0.65245 0.0
C3741 C 0.50214 0.5255 0.63424 0.0
C3742 C 0.48224 0.5341 0.63391 0.0
C3743 C 0.47418 0.54362 0.61417 0.0
C3744 C 0.4865 0.54429 0.59433 0.0
C3745 C 0.50707 0.53577 0.59402 0.0
C3746 C 0.51489 0.52625 0.61452 0.0
H3747 H 0.79355 0.15838 0.97719 0.0
H3748 H 0.76028 0.19527 0.02769 0.0
H3749 H 0.75587 0.22331 1.00009 0.0
H3750 H 0.82167 0.21488 0.95185 0.0
H3751 H 0.81866 0.19882 0.92274 0.0
H3752 H 0.82515 0.18559 0.94885 0.0
H3753 H 0.78945 0.15238 0.93479 0.0
H3754 H 0.78281 0.16539 0.90885 0.0
H3755 H 0.76128 0.15897 0.9285 0.0
H3756 H 0.74539 0.23965 0.96483 0.0
H3757 H 0.7314 0.24495 0.92394 0.0
H3758 H 0.77336 0.19986 0.89601 0.0
C3759 C 0.78632 0.17302 0.98261 0.0
C3760 C 0.77749 0.1751 1.00435 0.0
C3761 C 0.76759 0.19393 0.01115 0.0
C3762 C 0.76511 0.20995 0.99568 0.0
C3763 C 0.77335 0.20721 0.97391 0.0
C3764 C 0.78435 0.18959 0.96758 0.0
C3765 C 0.78915 0.18906 0.94212 0.0
C3766 C 0.8152 0.1976 0.94133 0.0
C3767 C 0.78009 0.16503 0.92775 0.0
C3768 C 0.77567 0.2064 0.93416 0.0
C3769 C 0.76773 0.21751 0.9531 0.0
C3770 C 0.75215 0.2318 0.94994 0.0
C3771 C 0.74406 0.23447 0.9268 0.0
C3772 C 0.75139 0.22266 0.90738 0.0
C3773 C 0.76788 0.20911 0.91095 0.0
H3774 H 0.14317 0.52008 0.18039 0.0
H3775 H 0.17565 0.59265 0.19081 0.0
H3776 H 0.14979 0.59867 0.15648 0.0
H3777 H 0.13563 0.51516 0.11356 0.0
H3778 H 0.1086 0.49453 0.11101 0.0
H3779 H 0.13096 0.49562 0.13531 0.0
H3780 H 0.10159 0.5006 0.16486 0.0
H3781 H 0.07938 0.50026 0.14071 0.0
H3782 H 0.08708 0.52424 0.16406 0.0
H3783 H 0.11559 0.59818 0.12783 0.0
H3784 H 0.08224 0.58928 0.09612 0.0
H3785 H 0.07601 0.51651 0.0996 0.0
C3786 C 0.1453 0.53699 0.17478 0.0
C3787 C 0.16122 0.55593 0.18785 0.0
C3788 C 0.16364 0.57796 0.18055 0.0
C3789 C 0.14894 0.58159 0.16133 0.0
C3790 C 0.13265 0.5628 0.14936 0.0
C3791 C 0.13139 0.54075 0.15502 0.0
C3792 C 0.11242 0.52362 0.13889 0.0
C3793 C 0.12251 0.50621 0.12379 0.0
C3794 C 0.09404 0.51148 0.15299 0.0
C3795 C 0.10286 0.5397 0.12394 0.0
C3796 C 0.11435 0.56228 0.13079 0.0
C3797 C 0.10691 0.58053 0.12165 0.0
C3798 C 0.08779 0.57541 0.10407 0.0
C3799 C 0.07736 0.55234 0.09536 0.0
C3800 C 0.08454 0.53426 0.10562 0.0
H3801 H 0.79539 0.88086 0.44873 0.0
H3802 H 0.81564 0.82799 0.48732 0.0
H3803 H 0.81413 0.80359 0.44888 0.0
H3804 H 0.75572 0.84252 0.40119 0.0
H3805 H 0.76371 0.86072 0.37898 0.0
H3806 H 0.76531 0.87313 0.40943 0.0
H3807 H 0.8084 0.89221 0.40943 0.0
H3808 H 0.80702 0.87971 0.37907 0.0
H3809 H 0.82842 0.87462 0.40154 0.0
H3810 H 0.8128 0.78605 0.40512 0.0
H3811 H 0.80914 0.77593 0.36166 0.0
H3812 H 0.78921 0.8404 0.3518 0.0
C3813 C 0.79933 0.86405 0.4493 0.0
C3814 C 0.80572 0.85647 0.4714 0.0
C3815 C 0.81058 0.83425 0.4709 0.0
C3816 C 0.80988 0.82033 0.44904 0.0
C3817 C 0.80409 0.82868 0.42768 0.0
C3818 C 0.79861 0.84998 0.42776 0.0
C3819 C 0.79314 0.85528 0.40254 0.0
C3820 C 0.76798 0.85807 0.39776 0.0
C3821 C 0.81027 0.87672 0.39788 0.0
C3822 C 0.79659 0.83372 0.38804 0.0
C3823 C 0.80297 0.81859 0.40286 0.0
C3824 C 0.80763 0.79777 0.39351 0.0
C3825 C 0.80554 0.79218 0.36864 0.0
C3826 C 0.79879 0.80724 0.35296 0.0
C3827 C 0.79429 0.82835 0.36305 0.0
H3828 H 0.46394 0.48751 0.85229 0.0
H3829 H 0.48203 0.55873 0.8407 0.0
H3830 H 0.50291 0.56884 0.88168 0.0
H3831 H 0.45223 0.49803 0.91128 0.0
H3832 H 0.46388 0.47484 0.92179 0.0
H3833 H 0.45248 0.47293 0.89096 0.0
H3834 H 0.49154 0.4662 0.87869 0.0
H3835 H 0.50289 0.46797 0.90954 0.0
H3836 H 0.51796 0.48654 0.89084 0.0
H3837 H 0.51839 0.57174 0.92584 0.0
H3838 H 0.52937 0.56683 0.96768 0.0
H3839 H 0.50158 0.49366 0.95113 0.0
C3840 C 0.47271 0.50515 0.85816 0.0
C3841 C 0.47169 0.52227 0.84291 0.0
C3842 C 0.48315 0.5452 0.85163 0.0
C3843 C 0.49485 0.55112 0.87505 0.0
C3844 C 0.49505 0.53393 0.88978 0.0
C3845 C 0.48451 0.51132 0.88154 0.0
C3846 C 0.48645 0.49623 0.90123 0.0
C3847 C 0.46233 0.48484 0.90663 0.0
C3848 C 0.50055 0.47816 0.89468 0.0
C3849 C 0.49948 0.51385 0.92197 0.0
C3850 C 0.50422 0.53552 0.91497 0.0
C3851 C 0.51504 0.55476 0.93126 0.0
C3852 C 0.52121 0.55183 0.95509 0.0
C3853 C 0.51682 0.52982 0.96272 0.0
C3854 C 0.50581 0.51058 0.94579 0.0
H3855 H 0.80997 0.19916 0.13117 0.0
H3856 H 0.75112 0.14653 0.14099 0.0
H3857 H 0.74561 0.17052 0.17693 0.0
H3858 H 0.83346 0.21717 0.19231 0.0
H3859 H 0.84077 0.24715 0.18855 0.0
H3860 H 0.84028 0.22546 0.16404 0.0
H3861 H 0.81141 0.24327 0.13855 0.0
H3862 H 0.81133 0.26462 0.16328 0.0
H3863 H 0.78451 0.24626 0.14897 0.0
H3864 H 0.7417 0.20353 0.20569 0.0
H3865 H 0.74828 0.23779 0.23568 0.0
H3866 H 0.81347 0.2649 0.21188 0.0
C3867 C 0.79634 0.19238 0.14127 0.0
C3868 C 0.78094 0.17113 0.13351 0.0
C3869 C 0.76317 0.16279 0.14691 0.0
C3870 C 0.75968 0.17638 0.16703 0.0
C3871 C 0.77434 0.19789 0.17337 0.0
C3872 C 0.79276 0.20557 0.1614 0.0
C3873 C 0.80598 0.22934 0.17197 0.0
C3874 C 0.83164 0.22977 0.1797 0.0
C3875 C 0.80314 0.24689 0.15466 0.0
C3876 C 0.79312 0.23304 0.19281 0.0
C3877 C 0.77402 0.21541 0.19229 0.0
C3878 C 0.75736 0.21673 0.2073 0.0
C3879 C 0.76134 0.23595 0.22444 0.0
C3880 C 0.78248 0.25212 0.22749 0.0
C3881 C 0.79806 0.25146 0.21085 0.0
H3882 H 0.18085 0.5839 0.34406 0.0
H3883 H 0.1403 0.52257 0.29999 0.0
H3884 H 0.11253 0.51831 0.32958 0.0
H3885 H 0.17125 0.56895 0.40232 0.0
H3886 H 0.1685 0.59758 0.41296 0.0
H3887 H 0.18678 0.5933 0.39045 0.0
H3888 H 0.16439 0.61523 0.36269 0.0
H3889 H 0.14615 0.61981 0.38505 0.0
H3890 H 0.13339 0.606 0.35569 0.0
H3891 H 0.08822 0.5229 0.36278 0.0
H3892 H 0.06694 0.53826 0.39376 0.0
H3893 H 0.12299 0.59812 0.41271 0.0
C3894 C 0.16643 0.56929 0.34071 0.0
C3895 C 0.16272 0.55343 0.31999 0.0
C3896 C 0.14333 0.53483 0.31597 0.0
C3897 C 0.12769 0.53222 0.3327 0.0
C3898 C 0.13178 0.54854 0.35289 0.0
C3899 C 0.15057 0.56688 0.35667 0.0
C3900 C 0.14963 0.58405 0.37758 0.0
C3901 C 0.17025 0.58606 0.39698 0.0
C3902 C 0.1483 0.60764 0.36977 0.0
C3903 C 0.12722 0.57257 0.38513 0.0
C3904 C 0.11731 0.55191 0.37103 0.0
C3905 C 0.09581 0.53896 0.37397 0.0
C3906 C 0.08387 0.54776 0.39139 0.0
C3907 C 0.09349 0.56933 0.40498 0.0
C3908 C 0.11551 0.58158 0.40226 0.0
H3909 H 0.78167 0.83463 0.60354 0.0
H3910 H 0.83652 0.89478 0.62836 0.0
H3911 H 0.83932 0.88311 0.66841 0.0
H3912 H 0.75358 0.83715 0.65775 0.0
H3913 H 0.74573 0.80644 0.65736 0.0
H3914 H 0.74843 0.81842 0.62994 0.0
H3915 H 0.77787 0.7936 0.6201 0.0
H3916 H 0.77538 0.78173 0.64764 0.0
H3917 H 0.80337 0.79551 0.64101 0.0
H3918 H 0.84003 0.86281 0.70434 0.0
H3919 H 0.83249 0.84057 0.73707 0.0
H3920 H 0.77148 0.7976 0.6946 0.0
C3921 C 0.79423 0.84534 0.61745 0.0
C3922 C 0.80911 0.8657 0.61242 0.0
C3923 C 0.825 0.87923 0.6314 0.0
C3924 C 0.82682 0.87262 0.65431 0.0
C3925 C 0.81225 0.85255 0.65861 0.0
C3926 C 0.79578 0.83933 0.64099 0.0
C3927 C 0.78149 0.81929 0.65136 0.0
C3928 C 0.75577 0.8204 0.64896 0.0
C3929 C 0.78471 0.79616 0.6393 0.0
C3930 C 0.79237 0.82362 0.67753 0.0
C3931 C 0.8106 0.84249 0.68077 0.0
C3932 C 0.825 0.84883 0.7023 0.0
C3933 C 0.82017 0.83641 0.72128 0.0
C3934 C 0.80031 0.81848 0.71987 0.0
C3935 C 0.78652 0.81153 0.69709 0.0
H3936 H 0.75679 0.48923 0.48452 0.0
H3937 H 0.74328 0.42321 0.51115 0.0
H3938 H 0.70704 0.43063 0.52333 0.0
H3939 H 0.7413 0.52006 0.52934 0.0
H3940 H 0.72714 0.53822 0.5124 0.0
H3941 H 0.7491 0.5256 0.50055 0.0
H3942 H 0.72033 0.50718 0.46287 0.0
H3943 H 0.69806 0.5197 0.47467 0.0
H3944 H 0.6929 0.48914 0.46577 0.0
H3945 H 0.6776 0.44768 0.54 0.0
H3946 H 0.6567 0.47413 0.56029 0.0
H3947 H 0.68786 0.52864 0.52252 0.0
C3948 C 0.74579 0.47601 0.49213 0.0
C3949 C 0.75284 0.45569 0.49677 0.0
C3950 C 0.73821 0.43892 0.50721 0.0
C3951 C 0.71744 0.44285 0.51408 0.0
C3952 C 0.71129 0.46338 0.50994 0.0
C3953 C 0.72486 0.4796 0.49898 0.0
C3954 C 0.71579 0.5014 0.49939 0.0
C3955 C 0.73444 0.52254 0.51114 0.0
C3956 C 0.70619 0.50454 0.47418 0.0
C3957 C 0.6965 0.49569 0.51438 0.0
C3958 C 0.69367 0.47334 0.51952 0.0
C3959 C 0.67902 0.46495 0.53551 0.0
C3960 C 0.66737 0.48 0.54702 0.0
C3961 C 0.67077 0.50301 0.54252 0.0
C3962 C 0.68484 0.51083 0.52559 0.0
H3963 H 0.1835 0.15081 0.48568 0.0
H3964 H 0.22798 0.14083 0.54719 0.0
H3965 H 0.1961 0.11204 0.55762 0.0
H3966 H 0.13128 0.14585 0.51092 0.0
H3967 H 0.11246 0.12916 0.48549 0.0
H3968 H 0.13896 0.1481 0.48144 0.0
H3969 H 0.15149 0.11416 0.45862 0.0
H3970 H 0.12504 0.09524 0.46258 0.0
H3971 H 0.15228 0.08846 0.47243 0.0
H3972 H 0.15956 0.08479 0.56215 0.0
H3973 H 0.12048 0.06061 0.56027 0.0
H3974 H 0.0982 0.08757 0.4963 0.0
C3975 C 0.18647 0.14235 0.50117 0.0
C3976 C 0.20828 0.14807 0.51568 0.0
C3977 C 0.21151 0.13663 0.5358 0.0
C3978 C 0.19348 0.12023 0.54186 0.0
C3979 C 0.17221 0.11499 0.52743 0.0
C3980 C 0.16859 0.1254 0.50729 0.0
C3981 C 0.14375 0.11644 0.49514 0.0
C3982 C 0.13085 0.13607 0.49316 0.0
C3983 C 0.14318 0.10278 0.47071 0.0
C3984 C 0.1339 0.10035 0.51213 0.0
C3985 C 0.1508 0.09944 0.53035 0.0
C3986 C 0.14626 0.08523 0.54781 0.0
C3987 C 0.12399 0.0714 0.54648 0.0
C3988 C 0.10624 0.07195 0.528 0.0
C3989 C 0.11135 0.08677 0.51066 0.0
H3990 H 0.20456 0.01238 0.8172 0.0
H3991 H 0.13729 0.98654 0.77494 0.0
H3992 H 0.14833 0.94922 0.76474 0.0
H3993 H 0.23632 0.98823 0.77744 0.0
H3994 H 0.25708 0.98261 0.80024 0.0
H3995 H 0.24253 1.00577 0.80601 0.0
H3996 H 0.22837 0.98831 0.84279 0.0
H3997 H 0.24256 0.96482 0.8368 0.0
H3998 H 0.21205 0.95909 0.8393 0.0
H3999 H 0.16824 0.91546 0.7572 0.0
H4000 H 0.19627 0.89094 0.74915 0.0
H4001 H 0.25024 0.93995 0.79575 0.0
C4002 C 0.19181 0.99885 0.80612 0.0
C4003 C 0.16982 1.00243 0.79715 0.0
C4004 C 0.15412 0.98424 0.78223 0.0
C4005 C 0.16023 0.96294 0.77646 0.0
C4006 C 0.1821 0.96013 0.7857 0.0
C4007 C 0.19767 0.97776 0.80005 0.0
C4008 C 0.22086 0.97148 0.806 0.0
C4009 C 0.24033 0.98799 0.79687 0.0
C4010 C 0.22627 0.97089 0.83282 0.0
C4011 C 0.2162 0.94762 0.79233 0.0
C4012 C 0.19361 0.94111 0.78108 0.0
C4013 C 0.18582 0.9203 0.76619 0.0
C4014 C 0.20176 0.90638 0.76186 0.0
C4015 C 0.22517 0.9134 0.7723 0.0
C4016 C 0.23224 0.93391 0.78822 0.0
H4017 H 0.38854 0.95584 0.9778 0.0
H4018 H 0.35878 0.9824 0.03802 0.0
H4019 H 0.39687 1.00685 0.05496 0.0
H4020 H 0.44121 0.95209 0.00769 0.0
H4021 H 0.45866 0.96208 0.98543 0.0
H4022 H 0.42876 0.94791 0.9769 0.0
H4023 H 0.42101 0.98287 0.95711 0.0
H4024 H 0.45093 0.99663 0.9651 0.0
H4025 H 0.42909 0.01127 0.97405 0.0
H4026 H 0.43797 0.0275 0.06552 0.0
H4027 H 0.47977 0.0454 0.0671 0.0
H4028 H 0.48175 1.00409 1.00063 0.0
C4029 C 0.39016 0.9672 0.99425 0.0
C4030 C 0.3713 0.96774 0.00672 0.0
C4031 C 0.37346 0.98237 0.02831 0.0
C4032 C 0.39485 0.99613 0.03805 0.0
C4033 C 0.41346 0.99502 0.02562 0.0
C4034 C 0.41127 0.98135 1.00396 0.0
C4035 C 0.43402 0.98327 0.99437 0.0
C4036 C 0.44107 0.95994 0.99094 0.0
C4037 C 0.43365 0.99419 0.97127 0.0
C4038 C 0.44931 0.99942 0.01434 0.0
C4039 C 0.43723 1.00626 0.03214 0.0
C4040 C 0.44772 0.02232 0.05174 0.0
C4041 C 0.4712 0.03228 0.05258 0.0
C4042 C 0.48329 0.02555 0.03414 0.0
C4043 C 0.47252 0.00883 0.01512 0.0
H4044 H 0.87824 0.58006 0.78876 0.0
H4045 H 0.84672 0.57644 0.85377 0.0
H4046 H 0.8298 0.60957 0.84586 0.0
H4047 H 0.88856 0.64371 0.78915 0.0
H4048 H 0.88074 0.64039 0.7574 0.0
H4049 H 0.89445 0.61975 0.77073 0.0
H4050 H 0.86048 0.58681 0.75041 0.0
H4051 H 0.84655 0.60717 0.73714 0.0
H4052 H 0.8313 0.58811 0.75529 0.0
H4053 H 0.81114 0.63775 0.82773 0.0
H4054 H 0.7919 0.65943 0.80042 0.0
H4055 H 0.83599 0.64463 0.7476 0.0
C4056 C 0.86855 0.58678 0.80183 0.0
C4057 C 0.86387 0.57593 0.8219 0.0
C4058 C 0.85052 0.58469 0.83827 0.0
C4059 C 0.84099 0.60355 0.83404 0.0
C4060 C 0.84522 0.61334 0.81354 0.0
C4061 C 0.85878 0.60534 0.79777 0.0
C4062 C 0.85796 0.61649 0.77542 0.0
C4063 C 0.88185 0.63096 0.77305 0.0
C4064 C 0.84851 0.59858 0.75329 0.0
C4065 C 0.84107 0.63136 0.78067 0.0
C4066 C 0.8342 0.62961 0.80287 0.0
C4067 C 0.81678 0.63979 0.81056 0.0
C4068 C 0.80592 0.65192 0.79494 0.0
C4069 C 0.81253 0.65345 0.77199 0.0
C4070 C 0.83061 0.64351 0.76503 0.0
H4071 H 0.83183 0.66679 0.05142 0.0
H4072 H 0.8197 0.64304 0.97572 0.0
H4073 H 0.85276 0.62438 0.9796 0.0
H4074 H 0.8971 0.67654 0.0562 0.0
H4075 H 0.89945 0.66681 0.08495 0.0
H4076 H 0.87638 0.68086 0.07613 0.0
H4077 H 0.84621 0.64586 0.0843 0.0
H4078 H 0.86913 0.63172 0.09304 0.0
H4079 H 0.84622 0.61763 0.06975 0.0
H4080 H 0.88349 0.60346 0.99211 0.0
H4081 H 0.91085 0.58366 0.01269 0.0
H4082 H 0.90619 0.62338 0.07952 0.0
C4083 C 0.8367 0.65843 0.03558 0.0
C4084 C 0.82309 0.65655 0.01326 0.0
C4085 C 0.82975 0.64481 0.99306 0.0
C4086 C 0.84859 0.6341 0.99501 0.0
C4087 C 0.86114 0.63553 0.01726 0.0
C4088 C 0.8558 0.64772 0.03716 0.0
C4089 C 0.87152 0.64541 0.05913 0.0
C4090 C 0.88703 0.6688 0.06973 0.0
C4091 C 0.85742 0.6345 0.07763 0.0
C4092 C 0.88567 0.62936 0.04854 0.0
C4093 C 0.87953 0.62395 0.02434 0.0
C4094 C 0.88886 0.60796 0.01102 0.0
C4095 C 0.90454 0.59686 0.02286 0.0
C4096 C 0.91075 0.60175 0.0478 0.0
C4097 C 0.90168 0.61888 0.0605 0.0
H4098 H 0.1791 0.14491 0.83021 0.0
H4099 H 0.18926 0.09996 0.76943 0.0
H4100 H 0.21721 0.13176 0.75774 0.0
H4101 H 0.1822 0.19578 0.80365 0.0
H4102 H 0.19903 0.21522 0.82855 0.0
H4103 H 0.18071 0.18879 0.83344 0.0
H4104 H 0.21585 0.17756 0.85615 0.0
H4105 H 0.23402 0.20406 0.85146 0.0
H4106 H 0.24161 0.1773 0.84198 0.0
H4107 H 0.24299 0.16862 0.75139 0.0
H4108 H 0.26623 0.20783 0.752 0.0
H4109 H 0.24071 0.22979 0.81704 0.0
C4110 C 0.18748 0.1418 0.81465 0.0
C4111 C 0.182 0.11988 0.80069 0.0
C4112 C 0.19329 0.1165 0.78043 0.0
C4113 C 0.2092 0.13449 0.77363 0.0
C4114 C 0.21413 0.15591 0.78749 0.0
C4115 C 0.20399 0.15963 0.80784 0.0
C4116 C 0.2126 0.18453 0.81936 0.0
C4117 C 0.19242 0.1968 0.82135 0.0
C4118 C 0.22685 0.18588 0.84371 0.0
C4119 C 0.22821 0.19424 0.80181 0.0
C4120 C 0.22908 0.17732 0.78374 0.0
C4121 C 0.24261 0.18193 0.76562 0.0
C4122 C 0.25585 0.20428 0.76616 0.0
C4123 C 0.25552 0.22194 0.78463 0.0
C4124 C 0.24134 0.21674 0.80262 0.0
H4125 H 0.35215 0.95898 0.2865 0.0
H4126 H 0.40465 0.95841 0.34506 0.0
H4127 H 0.39124 0.91625 0.34303 0.0
H4128 H 0.30541 0.91268 0.29443 0.0
H4129 H 0.30037 0.90329 0.26317 0.0
H4130 H 0.31298 0.93301 0.2739 0.0
H4131 H 0.34608 0.9262 0.24777 0.0
H4132 H 0.33353 0.89587 0.24119 0.0
H4133 H 0.36297 0.90555 0.25535 0.0
H4134 H 0.37007 0.87591 0.33697 0.0
H4135 H 0.34469 0.83756 0.32431 0.0
H4136 H 0.30933 0.86374 0.26636 0.0
C4137 C 0.36041 0.94983 0.29907 0.0
C4138 C 0.37841 0.96146 0.31681 0.0
C4139 C 0.39019 0.94938 0.33204 0.0
C4140 C 0.38284 0.92564 0.33088 0.0
C4141 C 0.36474 0.91455 0.31341 0.0
C4142 C 0.35407 0.92607 0.29733 0.0
C4143 C 0.33674 0.90969 0.27878 0.0
C4144 C 0.31247 0.91509 0.27753 0.0
C4145 C 0.34535 0.90932 0.25433 0.0
C4146 C 0.33746 0.88752 0.28867 0.0
C4147 C 0.35413 0.89067 0.30832 0.0
C4148 C 0.35734 0.87302 0.32132 0.0
C4149 C 0.34295 0.85148 0.31407 0.0
C4150 C 0.32564 0.84821 0.29429 0.0
C4151 C 0.32285 0.86617 0.2813 0.0
H4152 H 0.55616 0.35654 0.55377 0.0
H4153 H 0.56897 0.37397 0.63027 0.0
H4154 H 0.56434 0.41352 0.62596 0.0
H4155 H 0.58911 0.41413 0.54285 0.0
H4156 H 0.57059 0.41465 0.5159 0.0
H4157 H 0.57462 0.38758 0.52475 0.0
H4158 H 0.53037 0.37397 0.52283 0.0
H4159 H 0.52623 0.40106 0.51417 0.0
H4160 H 0.5145 0.391 0.53987 0.0
H4161 H 0.55739 0.45256 0.61337 0.0
H4162 H 0.55159 0.4864 0.5945 0.0
H4163 H 0.54413 0.44656 0.52508 0.0
C4164 C 0.55814 0.36867 0.5697 0.0
C4165 C 0.5631 0.36132 0.59263 0.0
C4166 C 0.56554 0.37844 0.61257 0.0
C4167 C 0.56275 0.40123 0.61023 0.0
C4168 C 0.55792 0.40778 0.58763 0.0
C4169 C 0.55604 0.39204 0.5676 0.0
C4170 C 0.55202 0.40414 0.54535 0.0
C4171 C 0.57281 0.40517 0.53137 0.0
C4172 C 0.52943 0.3918 0.52962 0.0
C4173 C 0.55059 0.42865 0.55587 0.0
C4174 C 0.55439 0.4303 0.58038 0.0
C4175 C 0.55456 0.45117 0.5942 0.0
C4176 C 0.55122 0.47064 0.58312 0.0
C4177 C 0.54733 0.47008 0.55799 0.0
C4178 C 0.54684 0.44822 0.54428 0.0
H4179 H 0.43021 0.79277 0.42767 0.0
H4180 H 0.4635 0.74838 0.38479 0.0
H4181 H 0.43238 0.74462 0.3514 0.0
H4182 H 0.37115 0.76001 0.40408 0.0
H4183 H 0.35808 0.78466 0.40468 0.0
H4184 H 0.38304 0.78495 0.42574 0.0
H4185 H 0.40769 0.82228 0.41079 0.0
H4186 H 0.37972 0.82189 0.39491 0.0
H4187 H 0.40392 0.82263 0.3789 0.0
H4188 H 0.39808 0.74677 0.32119 0.0
H4189 H 0.36259 0.75268 0.29834 0.0
H4190 H 0.35106 0.79642 0.35926 0.0
C4191 C 0.43087 0.78219 0.41128 0.0
C4192 C 0.44985 0.77112 0.40896 0.0
C4193 C 0.44958 0.75726 0.38714 0.0
C4194 C 0.43186 0.75502 0.36795 0.0
C4195 C 0.41387 0.76654 0.37046 0.0
C4196 C 0.41304 0.77976 0.39165 0.0
C4197 C 0.39083 0.78922 0.38972 0.0
C4198 C 0.37482 0.7791 0.40709 0.0
C4199 C 0.39598 0.81558 0.39394 0.0
C4200 C 0.38019 0.78033 0.36394 0.0
C4201 C 0.39366 0.76708 0.35328 0.0
C4202 C 0.38752 0.7572 0.32954 0.0
C4203 C 0.36732 0.76095 0.31645 0.0
C4204 C 0.35324 0.77492 0.32655 0.0
C4205 C 0.3602 0.78478 0.35082 0.0
H4206 H 0.06749 0.73164 0.06154 0.0
H4207 H 0.05733 0.72635 0.13507 0.0
H4208 H 0.05392 0.68489 0.12784 0.0
H4209 H 0.02545 0.67555 0.03799 0.0
H4210 H 0.0418 0.66641 0.01544 0.0
H4211 H 0.04397 0.69656 0.02413 0.0
H4212 H 0.0876 0.70412 0.03417 0.0
H4213 H 0.08654 0.6742 0.02468 0.0
H4214 H 0.10039 0.68723 0.05397 0.0
H4215 H 0.05178 0.64381 0.11454 0.0
H4216 H 0.04875 0.60474 0.0947 0.0
H4217 H 0.06031 0.63161 0.02852 0.0
C4218 C 0.06401 0.72173 0.07597 0.0
C4219 C 0.06262 0.73318 0.09918 0.0
C4220 C 0.05855 0.71886 0.11726 0.0
C4221 C 0.05654 0.69492 0.11333 0.0
C4222 C 0.05833 0.68437 0.09088 0.0
C4223 C 0.06158 0.69703 0.07221 0.0
C4224 C 0.06252 0.68025 0.04987 0.0
C4225 C 0.04217 0.67967 0.03073 0.0
C4226 C 0.08566 0.68685 0.0401 0.0
C4227 C 0.06005 0.65676 0.0593 0.0
C4228 C 0.05745 0.6599 0.08306 0.0
C4229 C 0.05395 0.64127 0.09596 0.0
C4230 C 0.0525 0.61892 0.08447 0.0
C4231 C 0.05509 0.61452 0.06012 0.0
C4232 C 0.05901 0.63406 0.04733 0.0
H4233 H 0.08858 0.31269 0.93301 0.0
H4234 H 0.05357 0.24255 0.90707 0.0
H4235 H 0.08485 0.2384 0.88273 0.0
H4236 H 0.10473 0.32818 0.88161 0.0
H4237 H 0.13292 0.34565 0.89319 0.0
H4238 H 0.1106 0.34156 0.91209 0.0
H4239 H 0.13733 0.32607 0.9423 0.0
H4240 H 0.1599 0.3303 0.92351 0.0
H4241 H 0.15007 0.30244 0.93246 0.0
H4242 H 0.11693 0.2441 0.85652 0.0
H4243 H 0.14667 0.25907 0.83152 0.0
H4244 H 0.16055 0.32554 0.87459 0.0
C4245 C 0.08834 0.29605 0.92336 0.0
C4246 C 0.06931 0.27755 0.92284 0.0
C4247 C 0.06865 0.25647 0.90871 0.0
C4248 C 0.08622 0.25409 0.89459 0.0
C4249 C 0.10452 0.27288 0.89501 0.0
C4250 C 0.10588 0.29336 0.90939 0.0
C4251 C 0.12609 0.31162 0.90504 0.0
C4252 C 0.11808 0.33299 0.89753 0.0
C4253 C 0.14444 0.31799 0.92714 0.0
C4254 C 0.13491 0.2988 0.88488 0.0
C4255 C 0.12266 0.27629 0.8797 0.0
C4256 C 0.12693 0.26155 0.8608 0.0
C4257 C 0.14387 0.27014 0.84672 0.0
C4258 C 0.15597 0.29335 0.85131 0.0
C4259 C 0.15168 0.30765 0.8709 0.0
H4260 H 0.53021 0.73445 0.87862 0.0
H4261 H 0.57577 0.7827 0.93436 0.0
H4262 H 0.57651 0.75201 0.95928 0.0
H4263 H 0.49601 0.70394 0.91553 0.0
H4264 H 0.49306 0.67588 0.89906 0.0
H4265 H 0.49817 0.701 0.88415 0.0
H4266 H 0.53427 0.68904 0.86934 0.0
H4267 H 0.52938 0.66398 0.88452 0.0
H4268 H 0.55687 0.68413 0.89057 0.0
H4269 H 0.56982 0.71717 0.98023 0.0
H4270 H 0.55369 0.68118 0.99585 0.0
H4271 H 0.51303 0.65477 0.92734 0.0
C4272 C 0.54077 0.73838 0.8958 0.0
C4273 C 0.55304 0.76111 0.9043 0.0
C4274 C 0.56624 0.76552 0.92721 0.0
C4275 C 0.5669 0.74813 0.94161 0.0
C4276 C 0.55446 0.72605 0.93297 0.0
C4277 C 0.54168 0.72102 0.91059 0.0
C4278 C 0.52871 0.69606 0.90643 0.0
C4279 C 0.50244 0.69413 0.90098 0.0
C4280 C 0.53785 0.6825 0.88652 0.0
C4281 C 0.53519 0.68842 0.93033 0.0
C4282 C 0.55056 0.70582 0.94519 0.0
C4283 C 0.55807 0.70326 0.96862 0.0
C4284 C 0.54899 0.68268 0.97733 0.0
C4285 C 0.53233 0.66508 0.96277 0.0
C4286 C 0.526 0.66782 0.93876 0.0
H4287 H 0.11409 0.79544 0.71337 0.0
H4288 H 0.08394 0.74065 0.75138 0.0
H4289 H 0.12325 0.73762 0.76805 0.0
H4290 H 0.16364 0.77672 0.69886 0.0
H4291 H 0.18395 0.804 0.70558 0.0
H4292 H 0.15364 0.80309 0.69744 0.0
H4293 H 0.15343 0.82935 0.73613 0.0
H4294 H 0.1837 0.83031 0.74444 0.0
H4295 H 0.16327 0.82103 0.76428 0.0
H4296 H 0.16717 0.73871 0.77896 0.0
H4297 H 0.20967 0.74657 0.78625 0.0
H4298 H 0.21351 0.80191 0.74319 0.0
C4299 C 0.11571 0.78325 0.72577 0.0
C4300 C 0.09526 0.76851 0.73125 0.0
C4301 C 0.09876 0.75254 0.74717 0.0
C4302 C 0.12128 0.75059 0.75666 0.0
C4303 C 0.14089 0.76511 0.75079 0.0
C4304 C 0.13833 0.78171 0.73628 0.0
C4305 C 0.1625 0.79562 0.73351 0.0
C4306 C 0.16614 0.79479 0.70727 0.0
C4307 C 0.16588 0.82057 0.74528 0.0
C4308 C 0.17894 0.78331 0.74724 0.0
C4309 C 0.16601 0.76592 0.75729 0.0
C4310 C 0.17718 0.75234 0.77101 0.0
C4311 C 0.20175 0.75669 0.77481 0.0
C4312 C 0.21589 0.77432 0.76489 0.0
C4313 C 0.20382 0.78793 0.75094 0.0
H4314 H 0.057 0.37563 0.43742 0.0
H4315 H 0.06293 0.41217 0.37591 0.0
H4316 H 0.06066 0.44756 0.40021 0.0
H4317 H 0.01779 0.40482 0.46546 0.0
H4318 H 0.03193 0.40784 0.49553 0.0
H4319 H 0.03477 0.38455 0.4741 0.0
H4320 H 0.07927 0.39737 0.48247 0.0
H4321 H 0.07655 0.42066 0.50402 0.0
H4322 H 0.0929 0.4265 0.47978 0.0
H4323 H 0.05731 0.4796 0.42978 0.0
H4324 H 0.05342 0.50684 0.46301 0.0
H4325 H 0.04891 0.4531 0.50884 0.0
C4326 C 0.0581 0.39112 0.42909 0.0
C4327 C 0.06008 0.3904 0.40411 0.0
C4328 C 0.0614 0.4115 0.39454 0.0
C4329 C 0.0601 0.43201 0.40836 0.0
C4330 C 0.05785 0.43207 0.43241 0.0
C4331 C 0.05719 0.41236 0.44301 0.0
C4332 C 0.05527 0.41811 0.46968 0.0
C4333 C 0.03364 0.40292 0.47659 0.0
C4334 C 0.0773 0.41549 0.48489 0.0
C4335 C 0.05353 0.44362 0.47183 0.0
C4336 C 0.05565 0.45111 0.44998 0.0
C4337 C 0.05555 0.47382 0.44692 0.0
C4338 C 0.05323 0.48937 0.46631 0.0
C4339 C 0.05035 0.48275 0.48922 0.0
C4340 C 0.05068 0.45917 0.49183 0.0
H4341 H 0.43825 0.22769 0.21832 0.0
H4342 H 0.47919 0.29721 0.22795 0.0
H4343 H 0.44694 0.31124 0.24438 0.0
H4344 H 0.38257 0.2373 0.20216 0.0
H4345 H 0.36703 0.2182 0.22014 0.0
H4346 H 0.39364 0.21301 0.21062 0.0
H4347 H 0.41075 0.21339 0.25415 0.0
H4348 H 0.38406 0.21839 0.26378 0.0
H4349 H 0.41112 0.23777 0.27569 0.0
H4350 H 0.4091 0.31838 0.25949 0.0
H4351 H 0.37096 0.31801 0.27158 0.0
H4352 H 0.35102 0.24453 0.25213 0.0
C4353 C 0.44077 0.24582 0.22456 0.0
C4354 C 0.46228 0.26115 0.22226 0.0
C4355 C 0.46385 0.28479 0.2301 0.0
C4356 C 0.44525 0.293 0.23932 0.0
C4357 C 0.42454 0.27758 0.24125 0.0
C4358 C 0.42232 0.25434 0.23452 0.0
C4359 C 0.39821 0.24153 0.23923 0.0
C4360 C 0.38455 0.22663 0.21667 0.0
C4361 C 0.4012 0.22688 0.25939 0.0
C4362 C 0.3864 0.26123 0.24746 0.0
C4363 C 0.40244 0.28176 0.24922 0.0
C4364 C 0.39659 0.30226 0.2578 0.0
C4365 C 0.37432 0.30198 0.26463 0.0
C4366 C 0.35665 0.28173 0.26252 0.0
C4367 C 0.36328 0.26078 0.25368 0.0
H4368 H 0.59049 0.53924 0.355 0.0
H4369 H 0.66006 0.56955 0.39113 0.0
H4370 H 0.64708 0.56414 0.429 0.0
H4371 H 0.55979 0.56396 0.39976 0.0
H4372 H 0.53723 0.5387 0.39901 0.0
H4373 H 0.55124 0.54367 0.37305 0.0
H4374 H 0.56175 0.50384 0.37189 0.0
H4375 H 0.54788 0.49885 0.39798 0.0
H4376 H 0.57767 0.49684 0.39774 0.0
H4377 H 0.62938 0.5541 0.46358 0.0
H4378 H 0.60513 0.54506 0.49459 0.0
H4379 H 0.54449 0.52496 0.44102 0.0
C4380 C 0.60292 0.54483 0.37086 0.0
C4381 C 0.62663 0.55479 0.36919 0.0
C4382 C 0.64197 0.56169 0.39091 0.0
C4383 C 0.63481 0.55866 0.413 0.0
C4384 C 0.61193 0.54866 0.41405 0.0
C4385 C 0.59592 0.54201 0.39383 0.0
C4386 C 0.5722 0.53208 0.40124 0.0
C4387 C 0.55404 0.54541 0.39276 0.0
C4388 C 0.5644 0.50638 0.39163 0.0
C4389 C 0.57759 0.53544 0.42855 0.0
C4390 C 0.60091 0.54421 0.43511 0.0
C4391 C 0.61095 0.54751 0.45874 0.0
C4392 C 0.59687 0.54218 0.47638 0.0
C4393 C 0.57251 0.53445 0.47093 0.0
C4394 C 0.56283 0.53092 0.44635 0.0
H4395 H 0.29714 0.87826 0.05168 0.0
H4396 H 0.32217 0.94834 0.08625 0.0
H4397 H 0.32718 0.93397 0.12501 0.0
H4398 H 0.26878 0.85402 0.10189 0.0
H4399 H 0.27831 0.82755 0.09561 0.0
H4400 H 0.27157 0.84356 0.0718 0.0
H4401 H 0.31242 0.84458 0.05942 0.0
H4402 H 0.31933 0.82881 0.08318 0.0
H4403 H 0.33762 0.8562 0.08104 0.0
H4404 H 0.335 0.91185 0.15845 0.0
H4405 H 0.34657 0.88377 0.1835 0.0
H4406 H 0.31796 0.82857 0.12616 0.0
C4407 C 0.30289 0.89067 0.06749 0.0
C4408 C 0.30906 0.91437 0.06612 0.0
C4409 C 0.31711 0.93008 0.08706 0.0
C4410 C 0.31992 0.92209 0.10912 0.0
C4411 C 0.31445 0.89845 0.10973 0.0
C4412 C 0.30601 0.88298 0.08944 0.0
C4413 C 0.30461 0.85847 0.09408 0.0
C4414 C 0.27931 0.84512 0.09065 0.0
C4415 C 0.31938 0.84633 0.07852 0.0
C4416 C 0.3148 0.86258 0.11986 0.0
C4417 C 0.31975 0.88567 0.12881 0.0
C4418 C 0.33086 0.89371 0.15178 0.0
C4419 C 0.33744 0.87774 0.16579 0.0
C4420 C 0.33328 0.85423 0.15645 0.0
C4421 C 0.3214 0.84654 0.13348 0.0
H4422 H 0.92601 0.50156 0.8896 0.0
H4423 H 0.93652 0.57285 0.87774 0.0
H4424 H 0.97169 0.58231 0.90765 0.0
H4425 H 0.9424 0.51028 0.95199 0.0
H4426 H 0.95575 0.4857 0.9504 0.0
H4427 H 0.93233 0.48675 0.92829 0.0
H4428 H 0.96016 0.47926 0.89721 0.0
H4429 H 0.98356 0.48055 0.92049 0.0
H4430 H 0.98725 0.49949 0.89809 0.0
H4431 H 1.00176 0.58441 0.94161 0.0
H4432 H 0.02547 0.57926 0.97812 0.0
H4433 H 0.99713 0.50592 0.96531 0.0
C4434 C 0.93548 0.51921 0.89378 0.0
C4435 C 0.92844 0.53679 0.88255 0.0
C4436 C 0.94166 0.55949 0.88707 0.0
C4437 C 0.96165 0.56487 0.90364 0.0
C4438 C 0.96814 0.5471 0.91469 0.0
C4439 C 0.95553 0.52472 0.90987 0.0
C4440 C 0.96564 0.50895 0.9247 0.0
C4441 C 0.94793 0.4973 0.93976 0.0
C4442 C 0.9747 0.49102 0.90918 0.0
C4443 C 0.98519 0.52623 0.93972 0.0
C4444 C 0.98653 0.54809 0.93339 0.0
C4445 C 1.00131 0.56739 0.94647 0.0
C4446 C 0.0145 0.56437 0.96711 0.0
C4447 C 0.01278 0.54225 0.97399 0.0
C4448 C 0.99876 0.52287 0.95984 0.0
H4449 H 0.24598 0.19906 0.60584 0.0
H4450 H 0.30746 0.24161 0.5866 0.0
H4451 H 0.31639 0.26223 0.62731 0.0
H4452 H 0.23047 0.24553 0.64314 0.0
H4453 H 0.2199 0.22816 0.66512 0.0
H4454 H 0.21854 0.21523 0.63487 0.0
H4455 H 0.24153 0.18585 0.64928 0.0
H4456 H 0.24282 0.19864 0.67956 0.0
H4457 H 0.26913 0.19602 0.66759 0.0
H4458 H 0.31953 0.27835 0.66988 0.0
H4459 H 0.31571 0.29076 0.71131 0.0
H4460 H 0.25066 0.2409 0.70506 0.0
C4461 C 0.26145 0.21256 0.61033 0.0
C4462 C 0.27619 0.21848 0.59276 0.0
C4463 C 0.29593 0.23661 0.59946 0.0
C4464 C 0.30118 0.24846 0.62267 0.0
C4465 C 0.28634 0.24251 0.63939 0.0
C4466 C 0.26672 0.22515 0.63361 0.0
C4467 C 0.25327 0.2233 0.65508 0.0
C4468 C 0.22911 0.22835 0.6492 0.0
C4469 C 0.25159 0.19954 0.66337 0.0
C4470 C 0.26852 0.24219 0.67369 0.0
C4471 C 0.28759 0.25277 0.66408 0.0
C4472 C 0.30458 0.27027 0.67749 0.0
C4473 C 0.30221 0.27723 0.70122 0.0
C4474 C 0.28282 0.26712 0.71184 0.0
C4475 C 0.26561 0.24928 0.69763 0.0
H4476 H 0.62163 0.52341 0.20799 0.0
H4477 H 0.59577 0.58109 0.23852 0.0
H4478 H 0.57722 0.585 0.19879 0.0
H4479 H 0.63354 0.54249 0.15248 0.0
H4480 H 0.62216 0.51529 0.13421 0.0
H4481 H 0.63344 0.51606 0.16491 0.0
H4482 H 0.59522 0.49105 0.1718 0.0
H4483 H 0.5819 0.4906 0.14182 0.0
H4484 H 0.5686 0.5008 0.1663 0.0
H4485 H 0.56 0.58207 0.15607 0.0
H4486 H 0.54673 0.57355 0.11342 0.0
H4487 H 0.58482 0.51928 0.10782 0.0
C4488 C 0.61202 0.53682 0.20623 0.0
C4489 C 0.6101 0.55197 0.22659 0.0
C4490 C 0.59729 0.56918 0.22341 0.0
C4491 C 0.58673 0.57157 0.20082 0.0
C4492 C 0.58875 0.55644 0.18119 0.0
C4493 C 0.60095 0.53928 0.18358 0.0
C4494 C 0.59943 0.52486 0.15942 0.0
C4495 C 0.62359 0.52466 0.15235 0.0
C4496 C 0.58553 0.50037 0.15988 0.0
C4497 C 0.58594 0.53757 0.14297 0.0
C4498 C 0.57944 0.55531 0.15618 0.0
C4499 C 0.56554 0.56856 0.14555 0.0
C4500 C 0.55831 0.56383 0.12092 0.0
C4501 C 0.56553 0.54661 0.10636 0.0
C4502 C 0.57943 0.53309 0.11793 0.0
H4503 H 0.31362 0.88099 0.947 0.0
H4504 H 0.27345 0.92501 0.91388 0.0
H4505 H 0.26173 0.89584 0.87849 0.0
H4506 H 0.33699 0.86405 0.89771 0.0
H4507 H 0.336 0.83481 0.90311 0.0
H4508 H 0.33792 0.85688 0.9276 0.0
H4509 H 0.30088 0.83369 0.94092 0.0
H4510 H 0.29883 0.81146 0.91637 0.0
H4511 H 0.2747 0.82488 0.92015 0.0
H4512 H 0.25525 0.86361 0.84741 0.0
H4513 H 0.2592 0.83254 0.81804 0.0
H4514 H 0.30794 0.8115 0.86901 0.0
C4515 C 0.30187 0.8842 0.93251 0.0
C4516 C 0.29404 0.90493 0.93308 0.0
C4517 C 0.27937 0.90905 0.91366 0.0
C4518 C 0.27248 0.89255 0.8937 0.0
C4519 C 0.28055 0.8723 0.89368 0.0
C4520 C 0.29514 0.86811 0.91237 0.0
C4521 C 0.30358 0.84624 0.90651 0.0
C4522 C 0.3302 0.8508 0.90885 0.0
C4523 C 0.29393 0.82799 0.92191 0.0
C4524 C 0.29259 0.83965 0.88101 0.0
C4525 C 0.27856 0.8544 0.87453 0.0
C4526 C 0.26632 0.85205 0.85211 0.0
C4527 C 0.26901 0.8345 0.83549 0.0
C4528 C 0.28468 0.82026 0.84107 0.0
C4529 C 0.29612 0.82236 0.8643 0.0
H4530 H 0.92174 0.54303 0.73422 0.0
H4531 H 0.92281 0.48282 0.76985 0.0
H4532 H 0.9494 0.47067 0.7436 0.0
H4533 H 0.9183 0.51378 0.67595 0.0
H4534 H 0.93647 0.53711 0.66488 0.0
H4535 H 0.9203 0.54306 0.68877 0.0
H4536 H 0.95837 0.56556 0.71415 0.0
H4537 H 0.97474 0.55898 0.6905 0.0
H4538 H 0.98212 0.55148 0.71962 0.0
H4539 H 0.97603 0.46529 0.716 0.0
H4540 H 0.99013 0.45761 0.67785 0.0
H4541 H 0.96782 0.51721 0.65442 0.0
C4542 C 0.92748 0.52719 0.7361 0.0
C4543 C 0.92044 0.51371 0.75387 0.0
C4544 C 0.92807 0.49316 0.75614 0.0
C4545 C 0.9435 0.48639 0.74169 0.0
C4546 C 0.95083 0.50024 0.72481 0.0
C4547 C 0.94242 0.51964 0.7211 0.0
C4548 C 0.95074 0.5292 0.69922 0.0
C4549 C 0.93022 0.53085 0.68113 0.0
C4550 C 0.96749 0.5527 0.70629 0.0
C4551 C 0.96346 0.51093 0.69038 0.0
C4552 C 0.9646 0.49552 0.70657 0.0
C4553 C 0.97504 0.47694 0.70291 0.0
C4554 C 0.98288 0.47267 0.68117 0.0
C4555 C 0.97929 0.48629 0.663 0.0
C4556 C 0.97067 0.50647 0.66804 0.0
H4557 H 0.25887 0.18469 0.42355 0.0
H4558 H 0.29149 0.24198 0.47757 0.0
H4559 H 0.30119 0.26609 0.44601 0.0
H4560 H 0.29808 0.196 0.38028 0.0
H4561 H 0.27603 0.18856 0.35482 0.0
H4562 H 0.27167 0.17544 0.38137 0.0
H4563 H 0.23341 0.18938 0.38315 0.0
H4564 H 0.23758 0.2025 0.35655 0.0
H4565 H 0.23355 0.21949 0.38315 0.0
H4566 H 0.31045 0.28293 0.40876 0.0
H4567 H 0.31399 0.29348 0.36935 0.0
H4568 H 0.27165 0.2279 0.33731 0.0
C4569 C 0.26797 0.20237 0.42881 0.0
C4570 C 0.27444 0.21131 0.45341 0.0
C4571 C 0.2862 0.2346 0.45917 0.0
C4572 C 0.2919 0.24842 0.44125 0.0
C4573 C 0.28543 0.23902 0.41737 0.0
C4574 C 0.27336 0.21664 0.41104 0.0
C4575 C 0.26784 0.21118 0.38391 0.0
C4576 C 0.27907 0.19163 0.37455 0.0
C4577 C 0.24153 0.20528 0.37623 0.0
C4578 C 0.27901 0.23391 0.37591 0.0
C4579 C 0.28918 0.24949 0.39569 0.0
C4580 C 0.30167 0.27111 0.3933 0.0
C4581 C 0.30317 0.27734 0.37044 0.0
C4582 C 0.29172 0.26284 0.34952 0.0
C4583 C 0.28 0.24021 0.35254 0.0
H4584 H 0.34037 0.63244 0.53283 0.0
H4585 H 0.32686 0.5975 0.59372 0.0
H4586 H 0.36177 0.58139 0.59083 0.0
H4587 H 0.34576 0.58629 0.50158 0.0
H4588 H 0.36694 0.59884 0.4838 0.0
H4589 H 0.34843 0.61574 0.49619 0.0
H4590 H 0.38398 0.64636 0.51728 0.0
H4591 H 0.40289 0.6298 0.50452 0.0
H4592 H 0.4062 0.63791 0.53622 0.0
H4593 H 0.38973 0.56115 0.57508 0.0
H4594 H 0.40788 0.53768 0.54766 0.0
H4595 H 0.40022 0.58284 0.4944 0.0
C4596 C 0.34595 0.62275 0.54649 0.0
C4597 C 0.33204 0.61673 0.56401 0.0
C4598 C 0.33823 0.60278 0.58081 0.0
C4599 C 0.35792 0.59361 0.5792 0.0
C4600 C 0.37053 0.59836 0.56041 0.0
C4601 C 0.36475 0.61268 0.5443 0.0
C4602 C 0.37624 0.61009 0.5222 0.0
C4603 C 0.35827 0.60227 0.49967 0.0
C4604 C 0.39337 0.63237 0.51994 0.0
C4605 C 0.38854 0.59135 0.52783 0.0
C4606 C 0.38564 0.58524 0.55017 0.0
C4607 C 0.3927 0.56616 0.55785 0.0
C4608 C 0.40269 0.55284 0.54215 0.0
C4609 C 0.40496 0.55852 0.51902 0.0
C4610 C 0.39841 0.57824 0.51203 0.0
H4611 H 0.89751 0.9057 0.54574 0.0
H4612 H 0.85404 0.95392 0.56033 0.0
H4613 H 0.88653 0.98629 0.55879 0.0
H4614 H 0.94603 0.94732 0.5893 0.0
H4615 H 0.96857 0.9378 0.57489 0.0
H4616 H 0.94151 0.918 0.57556 0.0
H4617 H 0.93658 0.90924 0.52968 0.0
H4618 H 0.96332 0.92934 0.5288 0.0
H4619 H 0.93691 0.93251 0.51207 0.0
H4620 H 0.91965 0.01058 0.54106 0.0
H4621 H 0.95767 0.02986 0.53282 0.0
H4622 H 0.98572 0.97107 0.5489 0.0
C4623 C 0.89488 0.92309 0.54843 0.0
C4624 C 0.87238 0.92735 0.54991 0.0
C4625 C 0.87031 0.95027 0.55605 0.0
C4626 C 0.88876 0.96879 0.55563 0.0
C4627 C 0.90993 0.96412 0.55115 0.0
C4628 C 0.91377 0.94209 0.54997 0.0
C4629 C 0.93962 0.94287 0.55039 0.0
C4630 C 0.94953 0.93608 0.57393 0.0
C4631 C 0.94437 0.92758 0.52894 0.0
C4632 C 0.94894 0.96833 0.54911 0.0
C4633 C 0.93119 0.97998 0.54889 0.0
C4634 C 0.93419 1.00232 0.54332 0.0
C4635 C 0.95619 0.0135 0.53923 0.0
C4636 C 0.97564 1.00335 0.54271 0.0
C4637 C 0.97168 0.98008 0.5474 0.0
H4638 H 0.90839 0.08077 0.2517 0.0
H4639 H 0.91904 0.06668 0.3245 0.0
H4640 H 0.89968 0.09749 0.3374 0.0
H4641 H 0.92049 0.14499 0.26978 0.0
H4642 H 0.89997 0.14906 0.24586 0.0
H4643 H 0.915 0.12591 0.24219 0.0
H4644 H 0.87536 0.09735 0.23101 0.0
H4645 H 0.86028 0.12036 0.23561 0.0
H4646 H 0.85433 0.09594 0.25158 0.0
H4647 H 0.87506 0.12518 0.34203 0.0
H4648 H 0.85859 0.15973 0.34159 0.0
H4649 H 0.86766 0.16108 0.26745 0.0
C4650 C 0.90761 0.085 0.27046 0.0
C4651 C 0.91547 0.07155 0.28722 0.0
C4652 C 0.91356 0.07712 0.31153 0.0
C4653 C 0.90216 0.09424 0.31896 0.0
C4654 C 0.89343 0.10629 0.30199 0.0
C4655 C 0.89704 0.10293 0.27849 0.0
C4656 C 0.88735 0.12001 0.26465 0.0
C4657 C 0.90686 0.13594 0.25505 0.0
C4658 C 0.86819 0.10766 0.24452 0.0
C4659 C 0.87755 0.13304 0.28407 0.0
C4660 C 0.88063 0.12413 0.3052 0.0
C4661 C 0.87296 0.13271 0.32577 0.0
C4662 C 0.86349 0.15217 0.32533 0.0
C4663 C 0.86215 0.16298 0.30462 0.0
C4664 C 0.86842 0.15289 0.28343 0.0
H4665 H 0.71328 0.0998 0.06915 0.0
H4666 H 0.70251 0.15547 0.02972 0.0
H4667 H 0.66014 0.13905 0.02319 0.0
H4668 H 0.66683 0.05175 0.04006 0.0
H4669 H 0.66295 0.04358 0.06873 0.0
H4670 H 0.69096 0.05878 0.06378 0.0
H4671 H 0.68609 0.08712 0.10149 0.0
H4672 H 0.6565 0.07244 0.10139 0.0
H4673 H 0.66313 0.10266 0.09876 0.0
H4674 H 0.61964 0.11815 0.02393 0.0
H4675 H 0.58348 0.09268 0.03043 0.0
H4676 H 0.62207 0.0501 0.06666 0.0
C4677 C 0.70192 0.1082 0.05877 0.0
C4678 C 0.7105 0.12826 0.0492 0.0
C4679 C 0.69564 0.1398 0.03675 0.0
C4680 C 0.67185 0.13064 0.03299 0.0
C4681 C 0.6638 0.11067 0.04269 0.0
C4682 C 0.67834 0.09973 0.05554 0.0
C4683 C 0.66525 0.08017 0.06642 0.0
C4684 C 0.67204 0.05725 0.0593 0.0
C4685 C 0.6679 0.08596 0.09362 0.0
C4686 C 0.64127 0.08026 0.05545 0.0
C4687 C 0.64062 0.09845 0.04264 0.0
C4688 C 0.62001 0.10316 0.03284 0.0
C4689 C 0.59958 0.08823 0.03566 0.0
C4690 C 0.60023 0.06838 0.0465 0.0
C4691 C 0.62124 0.06468 0.05715 0.0
H4692 H 0.23199 0.49848 0.24038 0.0
H4693 H 0.18875 0.50519 0.29572 0.0
H4694 H 0.1894 0.46594 0.30387 0.0
H4695 H 0.21233 0.43002 0.22585 0.0
H4696 H 0.24167 0.42883 0.22152 0.0
H4697 H 0.22948 0.45231 0.2125 0.0
H4698 H 0.26381 0.48133 0.23802 0.0
H4699 H 0.27595 0.45817 0.24699 0.0
H4700 H 0.26995 0.47915 0.26921 0.0
H4701 H 0.20494 0.43527 0.31563 0.0
H4702 H 0.23554 0.41643 0.33104 0.0
H4703 H 0.26948 0.42707 0.26877 0.0
C4704 C 0.22193 0.49094 0.25336 0.0
C4705 C 0.21038 0.50413 0.26751 0.0
C4706 C 0.19768 0.49479 0.28487 0.0
C4707 C 0.19764 0.47246 0.28927 0.0
C4708 C 0.21038 0.45992 0.27609 0.0
C4709 C 0.22216 0.4687 0.25822 0.0
C4710 C 0.23899 0.45438 0.25084 0.0
C4711 C 0.23008 0.44055 0.22622 0.0
C4712 C 0.2636 0.46915 0.25137 0.0
C4713 C 0.23765 0.43881 0.26997 0.0
C4714 C 0.21994 0.44123 0.28333 0.0
C4715 C 0.21825 0.43246 0.30487 0.0
C4716 C 0.23577 0.42214 0.3137 0.0
C4717 C 0.25441 0.4208 0.30087 0.0
C4718 C 0.25484 0.42791 0.27833 0.0
H4719 H 0.24564 0.42298 0.06658 0.0
H4720 H 0.25015 0.40097 0.99272 0.0
H4721 H 0.22098 0.42252 0.98019 0.0
H4722 H 0.18028 0.41652 0.0547 0.0
H4723 H 0.18059 0.44014 0.0772 0.0
H4724 H 0.20183 0.4227 0.08059 0.0
H4725 H 0.23424 0.45956 0.08561 0.0
H4726 H 0.21306 0.47692 0.08127 0.0
H4727 H 0.23562 0.47785 0.0625 0.0
H4728 H 0.19778 0.45157 0.97546 0.0
H4729 H 0.16655 0.47288 0.9769 0.0
H4730 H 0.16974 0.47096 0.05282 0.0
C4731 C 0.23944 0.42162 0.04785 0.0
C4732 C 0.24996 0.41001 0.03057 0.0
C4733 C 0.24191 0.40924 0.00619 0.0
C4734 C 0.2258 0.42193 0.99889 0.0
C4735 C 0.21696 0.43445 0.01619 0.0
C4736 C 0.2222 0.43326 0.0401 0.0
C4737 C 0.20802 0.44672 0.05454 0.0
C4738 C 0.1917 0.43056 0.06753 0.0
C4739 C 0.22369 0.46643 0.07201 0.0
C4740 C 0.19457 0.45595 0.03491 0.0
C4741 C 0.20095 0.44934 0.01312 0.0
C4742 C 0.19205 0.4563 0.99228 0.0
C4743 C 0.17455 0.46862 0.99331 0.0
C4744 C 0.16563 0.47322 0.01485 0.0
C4745 C 0.1764 0.46773 0.03617 0.0
H4746 H 0.87277 0.95381 0.25256 0.0
H4747 H 0.9365 0.93857 0.28466 0.0
H4748 H 0.91599 0.89894 0.28659 0.0
H4749 H 0.82998 0.91846 0.28247 0.0
H4750 H 0.81005 0.90896 0.25585 0.0
H4751 H 0.83014 0.9361 0.2584 0.0
H4752 H 0.84282 0.92042 0.21882 0.0
H4753 H 0.82387 0.89284 0.21876 0.0
H4754 H 0.85434 0.89477 0.21765 0.0
H4755 H 0.89017 0.86054 0.2826 0.0
H4756 H 0.85859 0.82686 0.28004 0.0
H4757 H 0.80896 0.86642 0.25647 0.0
C4758 C 0.8822 0.94217 0.26039 0.0
C4759 C 0.90627 0.94949 0.26903 0.0
C4760 C 0.91818 0.93347 0.27813 0.0
C4761 C 0.90666 0.91088 0.27925 0.0
C4762 C 0.88314 0.90417 0.27073 0.0
C4763 C 0.87083 0.91919 0.26148 0.0
C4764 C 0.84576 0.90651 0.25264 0.0
C4765 C 0.82795 0.91837 0.26303 0.0
C4766 C 0.84145 0.90346 0.22535 0.0
C4767 C 0.84539 0.8834 0.26159 0.0
C4768 C 0.86758 0.88206 0.27029 0.0
C4769 C 0.87257 0.86177 0.27686 0.0
C4770 C 0.85431 0.8427 0.27563 0.0
C4771 C 0.83091 0.84434 0.27009 0.0
C4772 C 0.82646 0.86493 0.26224 0.0
H4773 H 0.70925 0.12829 0.73541 0.0
H4774 H 0.69735 0.12611 0.80857 0.0
H4775 H 0.72009 0.16629 0.81923 0.0
H4776 H 0.76497 0.16062 0.74365 0.0
H4777 H 0.76084 0.17766 0.72006 0.0
H4778 H 0.74326 0.14923 0.71839 0.0
H4779 H 0.70599 0.1656 0.71356 0.0
H4780 H 0.7235 0.1941 0.71499 0.0
H4781 H 0.70248 0.18836 0.73528 0.0
H4782 H 0.7544 0.20052 0.82203 0.0
H4783 H 0.78264 0.23514 0.8153 0.0
H4784 H 0.76172 0.21851 0.73964 0.0
C4785 C 0.71116 0.13653 0.75357 0.0
C4786 C 0.70289 0.1244 0.77158 0.0
C4787 C 0.70475 0.13535 0.795 0.0
C4788 C 0.71745 0.15796 0.80108 0.0
C4789 C 0.72704 0.16905 0.78315 0.0
C4790 C 0.7229 0.15915 0.75967 0.0
C4791 C 0.73382 0.1751 0.74351 0.0
C4792 C 0.75178 0.16504 0.73066 0.0
C4793 C 0.71534 0.18116 0.7258 0.0
C4794 C 0.74531 0.19531 0.76168 0.0
C4795 C 0.74213 0.19118 0.78455 0.0
C4796 C 0.75536 0.20517 0.80433 0.0
C4797 C 0.77101 0.2248 0.80048 0.0
C4798 C 0.7722 0.23045 0.77732 0.0
C4799 C 0.75972 0.21528 0.75768 0.0
loop_
_geom_bond_atom_site_label_1
_geom_bond_atom_site_label_2
_geom_bond_distance
_geom_bond_site_symmetry_2
_ccdc_geom_bond_type
Mn0 O5 2.095 . S
Mn0 O15 2.162 . S
Mn0 O16 2.297 . S
Mn0 O24 2.358 1_455 S
Mn0 O25 2.209 . S
Mn0 O26 2.094 . S
Mn1 O6 2.121 . S
Mn1 N8 2.257 . S
Mn1 N17 2.282 . S
Mn1 O25 2.215 . S
Mn1 O27 2.117 . S
C2 O24 1.229 1_455 S
C2 O25 1.283 . S
C3 O15 1.281 . S
C3 O16 1.236 . S
C4 O26 1.240 . S
C4 O27 1.264 . S
O5 Mn0 2.095 . S
O5 C14 1.250 . S
O6 Mn1 2.121 . S
O6 C14 1.258 . S
C7 N8 1.326 . S
C7 C11 1.460 . S
C7 H13 0.929 . S
N8 Mn1 2.257 . S
N8 C7 1.326 . S
N8 C12 1.362 . S
C9 C10 1.258 1_655 S
C9 C12 1.431 1_655 S
C9 C29 1.449 . S
C10 C9 1.258 1_455 S
C10 C11 1.477 . S
C10 H30 0.926 1_455 S
C11 C7 1.460 . S
C11 C10 1.477 . S
C11 H31 0.930 . S
C12 N8 1.362 . S
C12 C9 1.431 1_455 S
C12 C22 1.476 1_455 S
H13 C7 0.929 . S
C14 O5 1.250 . S
C14 O6 1.258 . S
O15 Mn0 2.162 . S
O15 C3 1.281 . S
O16 Mn0 2.297 . S
O16 C3 1.236 . S
N17 Mn1 2.282 . S
N17 C18 1.328 1_455 S
N17 C22 1.318 1_455 S
C18 N17 1.328 1_655 S
C18 C19 1.457 . S
C18 H23 0.929 1_655 S
C19 C18 1.457 . S
C19 C20 1.291 . S
C19 H32 0.931 . S
C20 C19 1.291 . S
C20 C21 1.373 . S
C20 H33 0.929 . S
C21 C20 1.373 . S
C21 C22 1.396 . S
C21 C28 1.403 . S
C22 C12 1.476 1_655 S
C22 N17 1.318 1_655 S
C22 C21 1.396 . S
H23 C18 0.929 1_455 S
O24 Mn0 2.358 1_655 S
O24 C2 1.229 1_655 S
O25 Mn0 2.209 . S
O25 Mn1 2.215 . S
O25 C2 1.283 . S
O26 Mn0 2.094 . S
O26 C4 1.240 . S
O27 Mn1 2.117 . S
O27 C4 1.264 . S
C28 C21 1.403 . S
C28 C29 1.399 . S
C28 H34 0.929 . S
C29 C9 1.449 . S
C29 C28 1.399 . S
C29 H35 0.930 . S
H30 C10 0.926 1_655 S
H31 C11 0.930 . S
H32 C19 0.931 . S
H33 C20 0.929 . S
H34 C28 0.929 . S
H35 C29 0.930 . S
Mn36 O41 2.095 1_455 S
Mn36 O51 2.162 . S
Mn36 O52 2.297 . S
Mn36 O60 2.385 . S
Mn36 O61 2.209 . S
Mn36 O62 2.094 . S
Mn37 O42 2.121 1_455 S
Mn37 N44 2.257 . S
Mn37 N53 2.282 . S
Mn37 O61 2.215 . S
Mn37 O63 2.117 . S
C38 O60 1.234 . S
C38 O61 1.283 . S
C39 O51 1.281 . S
C39 O52 1.236 . S
C40 O62 1.240 . S
C40 O63 1.264 . S
O41 Mn36 2.095 1_655 S
O41 C50 1.250 . S
O42 Mn37 2.121 1_655 S
O42 C50 1.258 . S
C43 N44 1.326 . S
C43 C47 1.460 . S
C43 H49 0.929 . S
N44 Mn37 2.257 . S
N44 C43 1.326 . S
N44 C48 1.362 . S
C45 C46 1.258 . S
C45 C48 1.431 . S
C45 C65 1.449 . S
C46 C45 1.258 . S
C46 C47 1.477 . S
C46 H66 0.931 . S
C47 C43 1.460 . S
C47 C46 1.477 . S
C47 H67 0.930 . S
C48 N44 1.362 . S
C48 C45 1.431 . S
C48 C58 1.476 . S
H49 C43 0.929 . S
C50 O41 1.250 . S
C50 O42 1.258 . S
O51 Mn36 2.162 . S
O51 C39 1.281 . S
O52 Mn36 2.297 . S
O52 C39 1.236 . S
N53 Mn37 2.282 . S
N53 C54 1.328 . S
N53 C58 1.318 . S
C54 N53 1.328 . S
C54 C55 1.457 . S
C54 H59 0.929 . S
C55 C54 1.457 . S
C55 C56 1.291 . S
C55 H68 0.931 . S
C56 C55 1.291 . S
C56 C57 1.373 . S
C56 H69 0.929 . S
C57 C56 1.373 . S
C57 C58 1.396 . S
C57 C64 1.403 . S
C58 C48 1.476 . S
C58 N53 1.318 . S
C58 C57 1.396 . S
H59 C54 0.929 . S
O60 Mn36 2.385 . S
O60 C38 1.234 . S
O61 Mn36 2.209 . S
O61 Mn37 2.215 . S
O61 C38 1.283 . S
O62 Mn36 2.094 . S
O62 C40 1.240 . S
O63 Mn37 2.117 . S
O63 C40 1.264 . S
C64 C57 1.403 . S
C64 C65 1.399 . S
C64 H70 0.929 . S
C65 C45 1.449 . S
C65 C64 1.399 . S
C65 H71 0.930 . S
H66 C46 0.931 . S
H67 C47 0.930 . S
H68 C55 0.931 . S
H69 C56 0.929 . S
H70 C64 0.929 . S
H71 C65 0.930 . S
Mn72 O77 2.095 . S
Mn72 O87 2.162 . S
Mn72 O88 2.297 . S
Mn72 O96 2.385 . S
Mn72 O97 2.209 . S
Mn72 O98 2.094 . S
Mn73 O78 2.121 . S
Mn73 N80 2.257 . S
Mn73 N89 2.282 . S
Mn73 O97 2.215 . S
Mn73 O99 2.117 . S
C74 O96 1.234 . S
C74 O97 1.283 . S
C75 O87 1.281 . S
C75 O88 1.236 . S
C76 O98 1.240 . S
C76 O99 1.264 . S
O77 Mn72 2.095 . S
O77 C86 1.250 . S
O78 Mn73 2.121 . S
O78 C86 1.258 . S
C79 N80 1.326 . S
C79 C83 1.460 . S
C79 H85 0.929 . S
N80 Mn73 2.257 . S
N80 C79 1.326 . S
N80 C84 1.362 . S
C81 C82 1.258 . S
C81 C84 1.431 . S
C81 C101 1.449 . S
C82 C81 1.258 . S
C82 C83 1.477 . S
C82 H102 0.931 . S
C83 C79 1.460 . S
C83 C82 1.477 . S
C83 H103 0.930 . S
C84 N80 1.362 . S
C84 C81 1.431 . S
C84 C94 1.476 . S
H85 C79 0.929 . S
C86 O77 1.250 . S
C86 O78 1.258 . S
O87 Mn72 2.162 . S
O87 C75 1.281 . S
O88 Mn72 2.297 . S
O88 C75 1.236 . S
N89 Mn73 2.282 . S
N89 C90 1.328 . S
N89 C94 1.318 . S
C90 N89 1.328 . S
C90 C91 1.457 . S
C90 H95 0.929 . S
C91 C90 1.457 . S
C91 C92 1.291 . S
C91 H104 0.931 . S
C92 C91 1.291 . S
C92 C93 1.373 . S
C92 H105 0.929 . S
C93 C92 1.373 . S
C93 C94 1.396 . S
C93 C100 1.403 . S
C94 C84 1.476 . S
C94 N89 1.318 . S
C94 C93 1.396 . S
H95 C90 0.929 . S
O96 Mn72 2.385 . S
O96 C74 1.234 . S
O97 Mn72 2.209 . S
O97 Mn73 2.215 . S
O97 C74 1.283 . S
O98 Mn72 2.094 . S
O98 C76 1.240 . S
O99 Mn73 2.117 . S
O99 C76 1.264 . S
C100 C93 1.403 . S
C100 C101 1.399 . S
C100 H106 0.929 . S
C101 C81 1.449 . S
C101 C100 1.399 . S
C101 H107 0.930 . S
H102 C82 0.931 . S
H103 C83 0.930 . S
H104 C91 0.931 . S
H105 C92 0.929 . S
H106 C100 0.929 . S
H107 C101 0.930 . S
Mn108 O113 2.095 . S
Mn108 O123 2.162 . S
Mn108 O124 2.297 . S
Mn108 O132 2.385 . S
Mn108 O133 2.209 . S
Mn108 O134 2.094 . S
Mn109 O114 2.121 . S
Mn109 N116 2.257 . S
Mn109 N125 2.282 . S
Mn109 O133 2.215 . S
Mn109 O135 2.117 . S
C110 O132 1.234 . S
C110 O133 1.283 . S
C111 O123 1.281 . S
C111 O124 1.236 . S
C112 O134 1.240 . S
C112 O135 1.264 . S
O113 Mn108 2.095 . S
O113 C122 1.250 . S
O114 Mn109 2.121 . S
O114 C122 1.258 . S
C115 N116 1.326 . S
C115 C119 1.460 . S
C115 H121 0.929 . S
N116 Mn109 2.257 . S
N116 C115 1.326 . S
N116 C120 1.362 . S
C117 C118 1.258 . S
C117 C120 1.431 . S
C117 C137 1.449 . S
C118 C117 1.258 . S
C118 C119 1.477 . S
C118 H138 0.931 . S
C119 C115 1.460 . S
C119 C118 1.477 . S
C119 H139 0.930 . S
C120 N116 1.362 . S
C120 C117 1.431 . S
C120 C130 1.476 . S
H121 C115 0.929 . S
C122 O113 1.250 . S
C122 O114 1.258 . S
O123 Mn108 2.162 . S
O123 C111 1.281 . S
O124 Mn108 2.297 . S
O124 C111 1.236 . S
N125 Mn109 2.282 . S
N125 C126 1.328 . S
N125 C130 1.318 . S
C126 N125 1.328 . S
C126 C127 1.457 . S
C126 H131 0.929 . S
C127 C126 1.457 . S
C127 C128 1.291 . S
C127 H140 0.931 . S
C128 C127 1.291 . S
C128 C129 1.373 . S
C128 H141 0.929 . S
C129 C128 1.373 . S
C129 C130 1.396 . S
C129 C136 1.403 . S
C130 C120 1.476 . S
C130 N125 1.318 . S
C130 C129 1.396 . S
H131 C126 0.929 . S
O132 Mn108 2.385 . S
O132 C110 1.234 . S
O133 Mn108 2.209 . S
O133 Mn109 2.215 . S
O133 C110 1.283 . S
O134 Mn108 2.094 . S
O134 C112 1.240 . S
O135 Mn109 2.117 . S
O135 C112 1.264 . S
C136 C129 1.403 . S
C136 C137 1.399 . S
C136 H142 0.929 . S
C137 C117 1.449 . S
C137 C136 1.399 . S
C137 H143 0.930 . S
H138 C118 0.931 . S
H139 C119 0.930 . S
H140 C127 0.931 . S
H141 C128 0.929 . S
H142 C136 0.929 . S
H143 C137 0.930 . S
Mn144 O149 2.095 . S
Mn144 O159 2.162 . S
Mn144 O160 2.297 . S
Mn144 O168 2.385 . S
Mn144 O169 2.209 . S
Mn144 O170 2.094 . S
Mn145 O150 2.121 . S
Mn145 N152 2.257 . S
Mn145 N161 2.291 . S
Mn145 O169 2.215 . S
Mn145 O171 2.117 . S
C146 O168 1.234 . S
C146 O169 1.283 . S
C147 O159 1.281 . S
C147 O160 1.236 . S
C148 O170 1.240 . S
C148 O171 1.264 . S
O149 Mn144 2.095 . S
O149 C158 1.250 . S
O150 Mn145 2.121 . S
O150 C158 1.258 . S
C151 N152 1.326 . S
C151 C155 1.460 1_554 S
C151 H157 0.929 . S
N152 Mn145 2.257 . S
N152 C151 1.326 . S
N152 C156 1.362 . S
C153 C154 1.258 1_554 S
C153 C156 1.431 . S
C153 C173 1.449 1_454 S
C154 C153 1.258 1_556 S
C154 C155 1.477 . S
C154 H174 0.931 . S
C155 C151 1.460 1_556 S
C155 C154 1.477 . S
C155 H175 0.930 . S
C156 N152 1.362 . S
C156 C153 1.431 . S
C156 C166 1.476 1_455 S
H157 C151 0.929 . S
C158 O149 1.250 . S
C158 O150 1.258 . S
O159 Mn144 2.162 . S
O159 C147 1.281 . S
O160 Mn144 2.297 . S
O160 C147 1.236 . S
N161 Mn145 2.291 . S
N161 C162 1.317 1_455 S
N161 C166 1.321 1_455 S
C162 N161 1.317 1_655 S
C162 C163 1.457 . S
C162 H167 0.929 . S
C163 C162 1.457 . S
C163 C164 1.291 . S
C163 H176 0.931 . S
C164 C163 1.291 . S
C164 C165 1.373 . S
C164 H177 0.929 . S
C165 C164 1.373 . S
C165 C166 1.396 . S
C165 C172 1.403 . S
C166 C156 1.476 1_655 S
C166 N161 1.321 1_655 S
C166 C165 1.396 . S
H167 C162 0.929 . S
O168 Mn144 2.385 . S
O168 C146 1.234 . S
O169 Mn144 2.209 . S
O169 Mn145 2.215 . S
O169 C146 1.283 . S
O170 Mn144 2.094 . S
O170 C148 1.240 . S
O171 Mn145 2.117 . S
O171 C148 1.264 . S
C172 C165 1.403 . S
C172 C173 1.399 1_554 S
C172 H178 0.929 . S
C173 C153 1.449 1_656 S
C173 C172 1.399 1_556 S
C173 H179 0.930 . S
H174 C154 0.931 . S
H175 C155 0.930 . S
H176 C163 0.931 . S
H177 C164 0.929 . S
H178 C172 0.929 . S
H179 C173 0.930 . S
Mn180 O185 2.095 . S
Mn180 O195 2.162 . S
Mn180 O196 2.297 . S
Mn180 O204 2.385 . S
Mn180 O205 2.209 . S
Mn180 O206 2.094 . S
Mn181 O186 2.121 . S
Mn181 N188 2.257 . S
Mn181 N197 2.282 . S
Mn181 O205 2.215 . S
Mn181 O207 2.117 . S
C182 O204 1.234 . S
C182 O205 1.283 . S
C183 O195 1.281 . S
C183 O196 1.236 . S
C184 O206 1.240 . S
C184 O207 1.264 . S
O185 Mn180 2.095 . S
O185 C194 1.250 . S
O186 Mn181 2.121 . S
O186 C194 1.258 . S
C187 N188 1.326 . S
C187 C191 1.460 . S
C187 H193 0.929 . S
N188 Mn181 2.257 . S
N188 C187 1.326 . S
N188 C192 1.362 . S
C189 C190 1.258 . S
C189 C192 1.431 . S
C189 C209 1.449 . S
C190 C189 1.258 . S
C190 C191 1.477 . S
C190 H210 0.931 . S
C191 C187 1.460 . S
C191 C190 1.477 . S
C191 H211 0.930 . S
C192 N188 1.362 . S
C192 C189 1.431 . S
C192 C202 1.476 . S
H193 C187 0.929 . S
C194 O185 1.250 . S
C194 O186 1.258 . S
O195 Mn180 2.162 . S
O195 C183 1.281 . S
O196 Mn180 2.297 . S
O196 C183 1.236 . S
N197 Mn181 2.282 . S
N197 C198 1.328 . S
N197 C202 1.318 . S
C198 N197 1.328 . S
C198 C199 1.457 . S
C198 H203 0.929 . S
C199 C198 1.457 . S
C199 C200 1.291 . S
C199 H212 0.931 . S
C200 C199 1.291 . S
C200 C201 1.373 . S
C200 H213 0.929 . S
C201 C200 1.373 . S
C201 C202 1.396 . S
C201 C208 1.403 . S
C202 C192 1.476 . S
C202 N197 1.318 . S
C202 C201 1.396 . S
H203 C198 0.929 . S
O204 Mn180 2.385 . S
O204 C182 1.234 . S
O205 Mn180 2.209 . S
O205 Mn181 2.215 . S
O205 C182 1.283 . S
O206 Mn180 2.094 . S
O206 C184 1.240 . S
O207 Mn181 2.117 . S
O207 C184 1.264 . S
C208 C201 1.403 . S
C208 C209 1.399 . S
C208 H214 0.929 . S
C209 C189 1.449 . S
C209 C208 1.399 . S
C209 H215 0.930 . S
H210 C190 0.931 . S
H211 C191 0.930 . S
H212 C199 0.931 . S
H213 C200 0.929 . S
H214 C208 0.929 . S
H215 C209 0.930 . S
Mn216 O221 2.095 . S
Mn216 O231 2.162 . S
Mn216 O232 2.297 . S
Mn216 O240 2.385 . S
Mn216 O241 2.209 . S
Mn216 O242 2.094 . S
Mn217 O222 2.121 . S
Mn217 N224 2.257 . S
Mn217 N233 2.282 . S
Mn217 O241 2.215 . S
Mn217 O243 2.117 . S
C218 O240 1.234 . S
C218 O241 1.283 . S
C219 O231 1.281 . S
C219 O232 1.236 . S
C220 O242 1.240 . S
C220 O243 1.264 . S
O221 Mn216 2.095 . S
O221 C230 1.250 . S
O222 Mn217 2.121 . S
O222 C230 1.258 . S
C223 N224 1.326 . S
C223 C227 1.460 . S
C223 H229 0.929 . S
N224 Mn217 2.257 . S
N224 C223 1.326 . S
N224 C228 1.362 . S
C225 C226 1.258 . S
C225 C228 1.431 . S
C225 C245 1.449 . S
C226 C225 1.258 . S
C226 C227 1.477 . S
C226 H246 0.931 . S
C227 C223 1.460 . S
C227 C226 1.477 . S
C227 H247 0.930 . S
C228 N224 1.362 . S
C228 C225 1.431 . S
C228 C238 1.476 . S
H229 C223 0.929 . S
C230 O221 1.250 . S
C230 O222 1.258 . S
O231 Mn216 2.162 . S
O231 C219 1.281 . S
O232 Mn216 2.297 . S
O232 C219 1.236 . S
N233 Mn217 2.282 . S
N233 C234 1.328 . S
N233 C238 1.318 . S
C234 N233 1.328 . S
C234 C235 1.457 . S
C234 H239 0.929 . S
C235 C234 1.457 . S
C235 C236 1.291 . S
C235 H248 0.931 . S
C236 C235 1.291 . S
C236 C237 1.373 . S
C236 H249 0.929 . S
C237 C236 1.373 . S
C237 C238 1.396 . S
C237 C244 1.403 . S
C238 C228 1.476 . S
C238 N233 1.318 . S
C238 C237 1.396 . S
H239 C234 0.929 . S
O240 Mn216 2.385 . S
O240 C218 1.234 . S
O241 Mn216 2.209 . S
O241 Mn217 2.215 . S
O241 C218 1.283 . S
O242 Mn216 2.094 . S
O242 C220 1.240 . S
O243 Mn217 2.117 . S
O243 C220 1.264 . S
C244 C237 1.403 . S
C244 C245 1.399 . S
C244 H250 0.929 . S
C245 C225 1.449 . S
C245 C244 1.399 . S
C245 H251 0.930 . S
H246 C226 0.931 . S
H247 C227 0.930 . S
H248 C235 0.931 . S
H249 C236 0.929 . S
H250 C244 0.929 . S
H251 C245 0.930 . S
Mn252 O257 2.073 1_655 S
Mn252 O267 2.159 1_655 S
Mn252 O268 2.294 . S
Mn252 O276 2.409 . S
Mn252 O277 2.219 . S
Mn252 O278 2.097 1_655 S
Mn253 O258 2.121 1_655 S
Mn253 N260 2.257 . S
Mn253 N269 2.282 . S
Mn253 O277 2.215 . S
Mn253 O279 2.117 1_655 S
C254 O276 1.234 . S
C254 O277 1.283 . S
C255 O267 1.281 1_655 S
C255 O268 1.236 . S
C256 O278 1.240 . S
C256 O279 1.264 . S
O257 Mn252 2.073 1_455 S
O257 C266 1.250 . S
O258 Mn253 2.121 1_455 S
O258 C266 1.258 . S
C259 N260 1.326 . S
C259 C263 1.460 . S
C259 H265 0.929 1_655 S
N260 Mn253 2.257 . S
N260 C259 1.326 . S
N260 C264 1.362 . S
C261 C262 1.258 . S
C261 C264 1.431 . S
C261 C281 1.449 . S
C262 C261 1.258 . S
C262 C263 1.477 . S
C262 H282 0.931 . S
C263 C259 1.460 . S
C263 C262 1.477 . S
C263 H283 0.930 . S
C264 N260 1.362 . S
C264 C261 1.431 . S
C264 C274 1.476 . S
H265 C259 0.929 1_455 S
C266 O257 1.250 . S
C266 O258 1.258 . S
O267 Mn252 2.159 1_455 S
O267 C255 1.281 1_455 S
O268 Mn252 2.294 . S
O268 C255 1.236 . S
N269 Mn253 2.282 . S
N269 C270 1.328 . S
N269 C274 1.318 . S
C270 N269 1.328 . S
C270 C271 1.457 . S
C270 H275 0.929 . S
C271 C270 1.457 . S
C271 C272 1.291 . S
C271 H284 0.931 . S
C272 C271 1.291 . S
C272 C273 1.373 . S
C272 H285 0.929 . S
C273 C272 1.373 . S
C273 C274 1.396 . S
C273 C280 1.403 . S
C274 C264 1.476 . S
C274 N269 1.318 . S
C274 C273 1.396 . S
H275 C270 0.929 . S
O276 Mn252 2.409 . S
O276 C254 1.234 . S
O277 Mn252 2.219 . S
O277 Mn253 2.215 . S
O277 C254 1.283 . S
O278 Mn252 2.097 1_455 S
O278 C256 1.240 . S
O279 Mn253 2.117 1_455 S
O279 C256 1.264 . S
C280 C273 1.403 . S
C280 C281 1.399 . S
C280 H286 0.929 . S
C281 C261 1.449 . S
C281 C280 1.399 . S
C281 H287 0.930 . S
H282 C262 0.931 . S
H283 C263 0.930 . S
H284 C271 0.931 . S
H285 C272 0.929 . S
H286 C280 0.929 . S
H287 C281 0.930 . S
Mn288 O293 2.095 . S
Mn288 O303 2.162 . S
Mn288 O304 2.297 . S
Mn288 O312 2.385 1_545 S
Mn288 O313 2.209 1_545 S
Mn288 O314 2.094 . S
Mn289 O294 2.121 . S
Mn289 N296 2.257 1_545 S
Mn289 N305 2.282 1_545 S
Mn289 O313 2.215 1_545 S
Mn289 O315 2.117 . S
C290 O312 1.234 . S
C290 O313 1.283 . S
C291 O303 1.281 . S
C291 O304 1.236 . S
C292 O314 1.240 . S
C292 O315 1.264 . S
O293 Mn288 2.095 . S
O293 C302 1.250 . S
O294 Mn289 2.121 . S
O294 C302 1.258 . S
C295 N296 1.326 . S
C295 C299 1.460 . S
C295 H301 0.929 1_565 S
N296 Mn289 2.257 1_565 S
N296 C295 1.326 . S
N296 C300 1.362 . S
C297 C298 1.258 . S
C297 C300 1.431 . S
C297 C317 1.449 . S
C298 C297 1.258 . S
C298 C299 1.477 . S
C298 H318 0.931 . S
C299 C295 1.460 . S
C299 C298 1.477 . S
C299 H319 0.930 . S
C300 N296 1.362 . S
C300 C297 1.431 . S
C300 C310 1.476 . S
H301 C295 0.929 1_545 S
C302 O293 1.250 . S
C302 O294 1.258 . S
O303 Mn288 2.162 . S
O303 C291 1.281 . S
O304 Mn288 2.297 . S
O304 C291 1.236 . S
N305 Mn289 2.282 1_565 S
N305 C306 1.328 . S
N305 C310 1.318 . S
C306 N305 1.328 . S
C306 C307 1.457 . S
C306 H311 0.929 . S
C307 C306 1.457 . S
C307 C308 1.291 . S
C307 H320 0.931 . S
C308 C307 1.291 . S
C308 C309 1.373 . S
C308 H321 0.929 . S
C309 C308 1.373 . S
C309 C310 1.396 . S
C309 C316 1.403 . S
C310 C300 1.476 . S
C310 N305 1.318 . S
C310 C309 1.396 . S
H311 C306 0.929 . S
O312 Mn288 2.385 1_565 S
O312 C290 1.234 . S
O313 Mn288 2.209 1_565 S
O313 Mn289 2.215 1_565 S
O313 C290 1.283 . S
O314 Mn288 2.094 . S
O314 C292 1.240 . S
O315 Mn289 2.117 . S
O315 C292 1.264 . S
C316 C309 1.403 . S
C316 C317 1.399 . S
C316 H322 0.929 . S
C317 C297 1.449 . S
C317 C316 1.399 . S
C317 H323 0.930 . S
H318 C298 0.931 . S
H319 C299 0.930 . S
H320 C307 0.931 . S
H321 C308 0.929 . S
H322 C316 0.929 . S
H323 C317 0.930 . S
Mn324 O329 2.095 . S
Mn324 O339 2.162 . S
Mn324 O340 2.297 . S
Mn324 O348 2.385 . S
Mn324 O349 2.209 . S
Mn324 O350 2.094 . S
Mn325 O330 2.121 . S
Mn325 N332 2.257 . S
Mn325 N341 2.282 . S
Mn325 O349 2.215 . S
Mn325 O351 2.117 . S
C326 O348 1.234 . S
C326 O349 1.283 . S
C327 O339 1.281 . S
C327 O340 1.236 . S
C328 O350 1.240 . S
C328 O351 1.264 . S
O329 Mn324 2.095 . S
O329 C338 1.250 . S
O330 Mn325 2.121 . S
O330 C338 1.258 . S
C331 N332 1.326 . S
C331 C335 1.460 . S
C331 H337 0.929 . S
N332 Mn325 2.257 . S
N332 C331 1.326 . S
N332 C336 1.362 . S
C333 C334 1.258 . S
C333 C336 1.431 . S
C333 C353 1.449 . S
C334 C333 1.258 . S
C334 C335 1.477 . S
C334 H354 0.931 . S
C335 C331 1.460 . S
C335 C334 1.477 . S
C335 H355 0.930 . S
C336 N332 1.362 . S
C336 C333 1.431 . S
C336 C346 1.476 . S
H337 C331 0.929 . S
C338 O329 1.250 . S
C338 O330 1.258 . S
O339 Mn324 2.162 . S
O339 C327 1.281 . S
O340 Mn324 2.297 . S
O340 C327 1.236 . S
N341 Mn325 2.282 . S
N341 C342 1.328 . S
N341 C346 1.318 . S
C342 N341 1.328 . S
C342 C343 1.457 . S
C342 H347 0.929 . S
C343 C342 1.457 . S
C343 C344 1.291 . S
C343 H356 0.931 . S
C344 C343 1.291 . S
C344 C345 1.373 . S
C344 H357 0.929 . S
C345 C344 1.373 . S
C345 C346 1.396 . S
C345 C352 1.403 . S
C346 C336 1.476 . S
C346 N341 1.318 . S
C346 C345 1.396 . S
H347 C342 0.929 . S
O348 Mn324 2.385 . S
O348 C326 1.234 . S
O349 Mn324 2.209 . S
O349 Mn325 2.215 . S
O349 C326 1.283 . S
O350 Mn324 2.094 . S
O350 C328 1.240 . S
O351 Mn325 2.117 . S
O351 C328 1.264 . S
C352 C345 1.403 . S
C352 C353 1.399 . S
C352 H358 0.929 . S
C353 C333 1.449 . S
C353 C352 1.399 . S
C353 H359 0.930 . S
H354 C334 0.931 . S
H355 C335 0.930 . S
H356 C343 0.931 . S
H357 C344 0.929 . S
H358 C352 0.929 . S
H359 C353 0.930 . S
Mn360 O365 2.095 . S
Mn360 O375 2.162 . S
Mn360 O376 2.297 . S
Mn360 O384 2.385 . S
Mn360 O385 2.209 . S
Mn360 O386 2.094 . S
Mn361 O366 2.121 . S
Mn361 N368 2.257 . S
Mn361 N377 2.282 . S
Mn361 O385 2.215 . S
Mn361 O387 2.117 . S
C362 O384 1.234 . S
C362 O385 1.283 . S
C363 O375 1.281 . S
C363 O376 1.236 . S
C364 O386 1.240 . S
C364 O387 1.264 . S
O365 Mn360 2.095 . S
O365 C374 1.250 . S
O366 Mn361 2.121 . S
O366 C374 1.258 . S
C367 N368 1.326 . S
C367 C371 1.460 . S
C367 H373 0.929 . S
N368 Mn361 2.257 . S
N368 C367 1.326 . S
N368 C372 1.362 . S
C369 C370 1.258 . S
C369 C372 1.431 . S
C369 C389 1.449 . S
C370 C369 1.258 . S
C370 C371 1.477 . S
C370 H390 0.931 . S
C371 C367 1.460 . S
C371 C370 1.477 . S
C371 H391 0.930 . S
C372 N368 1.362 . S
C372 C369 1.431 . S
C372 C382 1.476 . S
H373 C367 0.929 . S
C374 O365 1.250 . S
C374 O366 1.258 . S
O375 Mn360 2.162 . S
O375 C363 1.281 . S
O376 Mn360 2.297 . S
O376 C363 1.236 . S
N377 Mn361 2.282 . S
N377 C378 1.328 . S
N377 C382 1.318 . S
C378 N377 1.328 . S
C378 C379 1.457 . S
C378 H383 0.929 . S
C379 C378 1.457 . S
C379 C380 1.291 . S
C379 H392 0.931 . S
C380 C379 1.291 . S
C380 C381 1.373 . S
C380 H393 0.929 . S
C381 C380 1.373 . S
C381 C382 1.396 . S
C381 C388 1.403 . S
C382 C372 1.476 . S
C382 N377 1.318 . S
C382 C381 1.396 . S
H383 C378 0.929 . S
O384 Mn360 2.385 . S
O384 C362 1.234 . S
O385 Mn360 2.209 . S
O385 Mn361 2.215 . S
O385 C362 1.283 . S
O386 Mn360 2.094 . S
O386 C364 1.240 . S
O387 Mn361 2.117 . S
O387 C364 1.264 . S
C388 C381 1.403 . S
C388 C389 1.399 . S
C388 H394 0.929 . S
C389 C369 1.449 . S
C389 C388 1.399 . S
C389 H395 0.930 . S
H390 C370 0.931 . S
H391 C371 0.930 . S
H392 C379 0.931 . S
H393 C380 0.929 . S
H394 C388 0.929 . S
H395 C389 0.930 . S
Mn396 O401 2.095 1_554 S
Mn396 O411 2.162 . S
Mn396 O412 2.297 . S
Mn396 O420 2.385 . S
Mn396 O421 2.207 1_554 S
Mn396 O422 2.094 1_554 S
Mn397 O402 2.121 . S
Mn397 N404 2.233 1_565 S
Mn397 N413 2.282 . S
Mn397 O421 2.219 . S
Mn397 O423 2.117 . S
C398 O420 1.234 . S
C398 O421 1.283 1_554 S
C399 O411 1.281 . S
C399 O412 1.236 . S
C400 O422 1.240 . S
C400 O423 1.264 . S
O401 Mn396 2.095 1_556 S
O401 C410 1.250 . S
O402 Mn397 2.121 . S
O402 C410 1.258 . S
C403 N404 1.345 . S
C403 C407 1.460 . S
C403 H409 0.929 . S
N404 Mn397 2.233 1_545 S
N404 C403 1.345 . S
N404 C408 1.368 . S
C405 C406 1.258 . S
C405 C408 1.431 . S
C405 C425 1.449 . S
C406 C405 1.258 . S
C406 C407 1.477 . S
C406 H426 0.931 . S
C407 C403 1.460 . S
C407 C406 1.477 . S
C407 H427 0.930 . S
C408 N404 1.368 . S
C408 C405 1.431 . S
C408 C418 1.476 1_545 S
H409 C403 0.929 . S
C410 O401 1.250 . S
C410 O402 1.258 . S
O411 Mn396 2.162 . S
O411 C399 1.281 . S
O412 Mn396 2.297 . S
O412 C399 1.236 . S
N413 Mn397 2.282 . S
N413 C414 1.328 . S
N413 C418 1.318 . S
C414 N413 1.328 . S
C414 C415 1.457 . S
C414 H419 0.929 . S
C415 C414 1.457 . S
C415 C416 1.291 . S
C415 H428 0.931 . S
C416 C415 1.291 . S
C416 C417 1.411 . S
C416 H429 0.929 . S
C417 C416 1.411 . S
C417 C418 1.405 . S
C417 C424 1.359 1_565 S
C418 C408 1.476 1_565 S
C418 N413 1.318 . S
C418 C417 1.405 . S
H419 C414 0.929 . S
O420 Mn396 2.385 . S
O420 C398 1.234 . S
O421 Mn396 2.207 1_556 S
O421 Mn397 2.219 . S
O421 C398 1.283 1_556 S
O422 Mn396 2.094 1_556 S
O422 C400 1.240 . S
O423 Mn397 2.117 . S
O423 C400 1.264 . S
C424 C417 1.359 1_545 S
C424 C425 1.399 . S
C424 H430 0.929 . S
C425 C405 1.449 . S
C425 C424 1.399 . S
C425 H431 0.930 . S
H426 C406 0.931 . S
H427 C407 0.930 . S
H428 C415 0.931 . S
H429 C416 0.929 . S
H430 C424 0.929 . S
H431 C425 0.930 . S
Mn432 O437 2.095 . S
Mn432 O447 2.162 . S
Mn432 O448 2.297 . S
Mn432 O456 2.385 . S
Mn432 O457 2.209 . S
Mn432 O458 2.094 . S
Mn433 O438 2.121 . S
Mn433 N440 2.257 . S
Mn433 N449 2.282 1_554 S
Mn433 O457 2.215 . S
Mn433 O459 2.117 1_554 S
C434 O456 1.234 . S
C434 O457 1.283 . S
C435 O447 1.281 . S
C435 O448 1.236 . S
C436 O458 1.240 1_556 S
C436 O459 1.264 . S
O437 Mn432 2.095 . S
O437 C446 1.250 . S
O438 Mn433 2.121 . S
O438 C446 1.258 . S
C439 N440 1.326 . S
C439 C443 1.460 . S
C439 H445 0.929 . S
N440 Mn433 2.257 . S
N440 C439 1.326 . S
N440 C444 1.362 . S
C441 C442 1.258 . S
C441 C444 1.431 . S
C441 C461 1.449 . S
C442 C441 1.258 . S
C442 C443 1.477 . S
C442 H462 0.931 . S
C443 C439 1.460 . S
C443 C442 1.477 . S
C443 H463 0.930 . S
C444 N440 1.362 . S
C444 C441 1.431 . S
C444 C454 1.476 1_554 S
H445 C439 0.929 . S
C446 O437 1.250 . S
C446 O438 1.258 . S
O447 Mn432 2.162 . S
O447 C435 1.281 . S
O448 Mn432 2.297 . S
O448 C435 1.236 . S
N449 Mn433 2.282 1_556 S
N449 C450 1.328 . S
N449 C454 1.318 . S
C450 N449 1.328 . S
C450 C451 1.457 . S
C450 H455 0.929 . S
C451 C450 1.457 . S
C451 C452 1.291 . S
C451 H464 0.931 . S
C452 C451 1.291 . S
C452 C453 1.373 . S
C452 H465 0.929 . S
C453 C452 1.373 . S
C453 C454 1.396 . S
C453 C460 1.403 . S
C454 C444 1.476 1_556 S
C454 N449 1.318 . S
C454 C453 1.396 . S
H455 C450 0.929 . S
O456 Mn432 2.385 . S
O456 C434 1.234 . S
O457 Mn432 2.209 . S
O457 Mn433 2.215 . S
O457 C434 1.283 . S
O458 Mn432 2.094 . S
O458 C436 1.240 1_554 S
O459 Mn433 2.117 1_556 S
O459 C436 1.264 . S
C460 C453 1.403 . S
C460 C461 1.399 1_556 S
C460 H466 0.929 . S
C461 C441 1.449 . S
C461 C460 1.399 1_554 S
C461 H467 0.930 . S
H462 C442 0.931 . S
H463 C443 0.930 . S
H464 C451 0.931 . S
H465 C452 0.929 . S
H466 C460 0.929 . S
H467 C461 0.930 . S
Mn468 O473 2.095 . S
Mn468 O483 2.162 . S
Mn468 O484 2.297 . S
Mn468 O492 2.385 . S
Mn468 O493 2.209 . S
Mn468 O494 2.094 . S
Mn469 O474 2.121 . S
Mn469 N476 2.257 . S
Mn469 N485 2.282 1_554 S
Mn469 O493 2.215 . S
Mn469 O495 2.117 . S
C470 O492 1.234 . S
C470 O493 1.283 . S
C471 O483 1.281 . S
C471 O484 1.236 . S
C472 O494 1.240 . S
C472 O495 1.264 . S
O473 Mn468 2.095 . S
O473 C482 1.250 . S
O474 Mn469 2.121 . S
O474 C482 1.258 . S
C475 N476 1.326 . S
C475 C479 1.460 . S
C475 H481 0.929 . S
N476 Mn469 2.257 . S
N476 C475 1.326 . S
N476 C480 1.362 . S
C477 C478 1.258 . S
C477 C480 1.431 . S
C477 C497 1.449 1_554 S
C478 C477 1.258 . S
C478 C479 1.477 . S
C478 H498 0.931 1_545 S
C479 C475 1.460 . S
C479 C478 1.477 . S
C479 H499 0.930 . S
C480 N476 1.362 . S
C480 C477 1.431 . S
C480 C490 1.476 1_554 S
H481 C475 0.929 . S
C482 O473 1.250 . S
C482 O474 1.258 . S
O483 Mn468 2.162 . S
O483 C471 1.281 . S
O484 Mn468 2.297 . S
O484 C471 1.236 . S
N485 Mn469 2.282 1_556 S
N485 C486 1.328 . S
N485 C490 1.318 . S
C486 N485 1.328 . S
C486 C487 1.457 . S
C486 H491 0.929 . S
C487 C486 1.457 . S
C487 C488 1.291 . S
C487 H500 0.931 . S
C488 C487 1.291 . S
C488 C489 1.373 . S
C488 H501 0.929 . S
C489 C488 1.373 . S
C489 C490 1.396 . S
C489 C496 1.403 . S
C490 C480 1.476 1_556 S
C490 N485 1.318 . S
C490 C489 1.396 . S
H491 C486 0.929 . S
O492 Mn468 2.385 . S
O492 C470 1.234 . S
O493 Mn468 2.209 . S
O493 Mn469 2.215 . S
O493 C470 1.283 . S
O494 Mn468 2.094 . S
O494 C472 1.240 . S
O495 Mn469 2.117 . S
O495 C472 1.264 . S
C496 C489 1.403 . S
C496 C497 1.399 . S
C496 H502 0.929 . S
C497 C477 1.449 1_556 S
C497 C496 1.399 . S
C497 H503 0.930 . S
H498 C478 0.931 1_565 S
H499 C479 0.930 . S
H500 C487 0.931 . S
H501 C488 0.929 . S
H502 C496 0.929 . S
H503 C497 0.930 . S
Mn504 O509 2.095 . S
Mn504 O519 2.162 . S
Mn504 O520 2.297 . S
Mn504 O528 2.385 . S
Mn504 O529 2.209 . S
Mn504 O530 2.094 . S
Mn505 O510 2.121 . S
Mn505 N512 2.257 . S
Mn505 N521 2.282 . S
Mn505 O529 2.215 . S
Mn505 O531 2.117 . S
C506 O528 1.234 . S
C506 O529 1.283 . S
C507 O519 1.281 . S
C507 O520 1.236 . S
C508 O530 1.240 . S
C508 O531 1.264 . S
O509 Mn504 2.095 . S
O509 C518 1.250 . S
O510 Mn505 2.121 . S
O510 C518 1.258 . S
C511 N512 1.326 . S
C511 C515 1.460 . S
C511 H517 0.929 . S
N512 Mn505 2.257 . S
N512 C511 1.326 . S
N512 C516 1.362 . S
C513 C514 1.258 . S
C513 C516 1.431 . S
C513 C533 1.449 . S
C514 C513 1.258 . S
C514 C515 1.477 . S
C514 H534 0.931 . S
C515 C511 1.460 . S
C515 C514 1.477 . S
C515 H535 0.930 . S
C516 N512 1.362 . S
C516 C513 1.431 . S
C516 C526 1.476 . S
H517 C511 0.929 . S
C518 O509 1.250 . S
C518 O510 1.258 . S
O519 Mn504 2.162 . S
O519 C507 1.281 . S
O520 Mn504 2.297 . S
O520 C507 1.236 . S
N521 Mn505 2.282 . S
N521 C522 1.328 . S
N521 C526 1.318 . S
C522 N521 1.328 . S
C522 C523 1.457 . S
C522 H527 0.929 . S
C523 C522 1.457 . S
C523 C524 1.291 . S
C523 H536 0.931 . S
C524 C523 1.291 . S
C524 C525 1.373 . S
C524 H537 0.929 . S
C525 C524 1.373 . S
C525 C526 1.396 . S
C525 C532 1.403 . S
C526 C516 1.476 . S
C526 N521 1.318 . S
C526 C525 1.396 . S
H527 C522 0.929 . S
O528 Mn504 2.385 . S
O528 C506 1.234 . S
O529 Mn504 2.209 . S
O529 Mn505 2.215 . S
O529 C506 1.283 . S
O530 Mn504 2.094 . S
O530 C508 1.240 . S
O531 Mn505 2.117 . S
O531 C508 1.264 . S
C532 C525 1.403 . S
C532 C533 1.399 . S
C532 H538 0.929 . S
C533 C513 1.449 . S
C533 C532 1.399 . S
C533 H539 0.930 . S
H534 C514 0.931 . S
H535 C515 0.930 . S
H536 C523 0.931 . S
H537 C524 0.929 . S
H538 C532 0.929 . S
H539 C533 0.930 . S
Mn540 O545 2.095 . S
Mn540 O555 2.162 . S
Mn540 O556 2.297 . S
Mn540 O564 2.385 . S
Mn540 O565 2.209 . S
Mn540 O566 2.094 . S
Mn541 O546 2.121 . S
Mn541 N548 2.257 . S
Mn541 N557 2.282 . S
Mn541 O565 2.215 . S
Mn541 O567 2.117 . S
C542 O564 1.234 . S
C542 O565 1.283 . S
C543 O555 1.281 . S
C543 O556 1.236 . S
C544 O566 1.240 . S
C544 O567 1.264 . S
O545 Mn540 2.095 . S
O545 C554 1.250 . S
O546 Mn541 2.121 . S
O546 C554 1.258 . S
C547 N548 1.326 . S
C547 C551 1.460 . S
C547 H553 0.929 . S
N548 Mn541 2.257 . S
N548 C547 1.326 . S
N548 C552 1.362 . S
C549 C550 1.258 1_565 S
C549 C552 1.431 . S
C549 C569 1.449 . S
C550 C549 1.258 1_545 S
C550 C551 1.477 1_545 S
C550 H570 0.931 . S
C551 C547 1.460 . S
C551 C550 1.477 1_565 S
C551 H571 0.930 1_565 S
C552 N548 1.362 . S
C552 C549 1.431 . S
C552 C562 1.476 . S
H553 C547 0.929 . S
C554 O545 1.250 . S
C554 O546 1.258 . S
O555 Mn540 2.162 . S
O555 C543 1.281 . S
O556 Mn540 2.297 . S
O556 C543 1.236 . S
N557 Mn541 2.282 . S
N557 C558 1.328 . S
N557 C562 1.318 . S
C558 N557 1.328 . S
C558 C559 1.457 . S
C558 H563 0.929 . S
C559 C558 1.457 . S
C559 C560 1.291 . S
C559 H572 0.931 . S
C560 C559 1.291 . S
C560 C561 1.373 . S
C560 H573 0.929 . S
C561 C560 1.373 . S
C561 C562 1.396 . S
C561 C568 1.403 . S
C562 C552 1.476 . S
C562 N557 1.318 . S
C562 C561 1.396 . S
H563 C558 0.929 . S
O564 Mn540 2.385 . S
O564 C542 1.234 . S
O565 Mn540 2.209 . S
O565 Mn541 2.215 . S
O565 C542 1.283 . S
O566 Mn540 2.094 . S
O566 C544 1.240 . S
O567 Mn541 2.117 . S
O567 C544 1.264 . S
C568 C561 1.403 . S
C568 C569 1.399 . S
C568 H574 0.929 . S
C569 C549 1.449 . S
C569 C568 1.399 . S
C569 H575 0.930 1_565 S
H570 C550 0.931 . S
H571 C551 0.930 1_545 S
H572 C559 0.931 . S
H573 C560 0.929 . S
H574 C568 0.929 . S
H575 C569 0.930 1_545 S
Mn576 O581 2.095 . S
Mn576 O591 2.162 . S
Mn576 O592 2.297 . S
Mn576 O600 2.385 1_545 S
Mn576 O601 2.209 1_545 S
Mn576 O602 2.094 . S
Mn577 O582 2.121 . S
Mn577 N584 2.257 1_545 S
Mn577 N593 2.282 1_545 S
Mn577 O601 2.215 1_545 S
Mn577 O603 2.117 . S
C578 O600 1.234 . S
C578 O601 1.283 . S
C579 O591 1.281 . S
C579 O592 1.236 . S
C580 O602 1.240 . S
C580 O603 1.264 . S
O581 Mn576 2.095 . S
O581 C590 1.250 . S
O582 Mn577 2.121 . S
O582 C590 1.258 . S
C583 N584 1.326 1_545 S
C583 C587 1.460 1_545 S
C583 H589 0.929 . S
N584 Mn577 2.257 1_565 S
N584 C583 1.326 1_565 S
N584 C588 1.362 . S
C585 C586 1.258 . S
C585 C588 1.431 . S
C585 C605 1.449 . S
C586 C585 1.258 . S
C586 C587 1.477 . S
C586 H606 0.931 . S
C587 C583 1.460 1_565 S
C587 C586 1.477 . S
C587 H607 0.916 1_565 S
C588 N584 1.362 . S
C588 C585 1.431 . S
C588 C598 1.476 . S
H589 C583 0.929 . S
C590 O581 1.250 . S
C590 O582 1.258 . S
O591 Mn576 2.162 . S
O591 C579 1.281 . S
O592 Mn576 2.297 . S
O592 C579 1.236 . S
N593 Mn577 2.282 1_565 S
N593 C594 1.328 . S
N593 C598 1.318 . S
C594 N593 1.328 . S
C594 C595 1.457 . S
C594 H599 0.929 . S
C595 C594 1.457 . S
C595 C596 1.291 . S
C595 H608 0.931 . S
C596 C595 1.291 . S
C596 C597 1.373 . S
C596 H609 0.929 . S
C597 C596 1.373 . S
C597 C598 1.396 . S
C597 C604 1.403 . S
C598 C588 1.476 . S
C598 N593 1.318 . S
C598 C597 1.396 . S
H599 C594 0.929 . S
O600 Mn576 2.385 1_565 S
O600 C578 1.234 . S
O601 Mn576 2.209 1_565 S
O601 Mn577 2.215 1_565 S
O601 C578 1.283 . S
O602 Mn576 2.094 . S
O602 C580 1.240 . S
O603 Mn577 2.117 . S
O603 C580 1.264 . S
C604 C597 1.403 . S
C604 C605 1.399 . S
C604 H610 0.929 . S
C605 C585 1.449 . S
C605 C604 1.399 . S
C605 H611 0.930 . S
H606 C586 0.931 . S
H607 C587 0.916 1_545 S
H608 C595 0.931 . S
H609 C596 0.929 . S
H610 C604 0.929 . S
H611 C605 0.930 . S
Mn612 O617 2.095 . S
Mn612 O627 2.162 . S
Mn612 O628 2.297 . S
Mn612 O636 2.385 . S
Mn612 O637 2.209 . S
Mn612 O638 2.094 . S
Mn613 O618 2.121 . S
Mn613 N620 2.257 . S
Mn613 N629 2.282 . S
Mn613 O637 2.215 . S
Mn613 O639 2.117 . S
C614 O636 1.234 . S
C614 O637 1.283 . S
C615 O627 1.281 . S
C615 O628 1.236 . S
C616 O638 1.240 . S
C616 O639 1.264 . S
O617 Mn612 2.095 . S
O617 C626 1.250 . S
O618 Mn613 2.121 . S
O618 C626 1.258 . S
C619 N620 1.326 . S
C619 C623 1.460 . S
C619 H625 0.929 . S
N620 Mn613 2.257 . S
N620 C619 1.326 . S
N620 C624 1.362 . S
C621 C622 1.258 . S
C621 C624 1.431 . S
C621 C641 1.449 . S
C622 C621 1.258 . S
C622 C623 1.477 . S
C622 H642 0.931 . S
C623 C619 1.460 . S
C623 C622 1.477 . S
C623 H643 0.930 . S
C624 N620 1.362 . S
C624 C621 1.431 . S
C624 C634 1.476 . S
H625 C619 0.929 . S
C626 O617 1.250 . S
C626 O618 1.258 . S
O627 Mn612 2.162 . S
O627 C615 1.281 . S
O628 Mn612 2.297 . S
O628 C615 1.236 . S
N629 Mn613 2.282 . S
N629 C630 1.328 . S
N629 C634 1.318 . S
C630 N629 1.328 . S
C630 C631 1.457 . S
C630 H635 0.929 . S
C631 C630 1.457 . S
C631 C632 1.291 . S
C631 H644 0.931 . S
C632 C631 1.291 . S
C632 C633 1.373 . S
C632 H645 0.929 . S
C633 C632 1.373 . S
C633 C634 1.396 . S
C633 C640 1.403 . S
C634 C624 1.476 . S
C634 N629 1.318 . S
C634 C633 1.396 . S
H635 C630 0.929 . S
O636 Mn612 2.385 . S
O636 C614 1.234 . S
O637 Mn612 2.209 . S
O637 Mn613 2.215 . S
O637 C614 1.283 . S
O638 Mn612 2.094 . S
O638 C616 1.240 . S
O639 Mn613 2.117 . S
O639 C616 1.264 . S
C640 C633 1.403 . S
C640 C641 1.399 . S
C640 H646 0.929 . S
C641 C621 1.449 . S
C641 C640 1.399 . S
C641 H647 0.930 . S
H642 C622 0.931 . S
H643 C623 0.930 . S
H644 C631 0.931 . S
H645 C632 0.929 . S
H646 C640 0.929 . S
H647 C641 0.930 . S
Mn648 O653 2.095 . S
Mn648 O663 2.162 . S
Mn648 O664 2.297 . S
Mn648 O672 2.385 . S
Mn648 O673 2.209 . S
Mn648 O674 2.094 . S
Mn649 O654 2.121 . S
Mn649 N656 2.257 . S
Mn649 N665 2.282 . S
Mn649 O673 2.215 . S
Mn649 O675 2.117 . S
C650 O672 1.234 . S
C650 O673 1.283 . S
C651 O663 1.281 . S
C651 O664 1.236 . S
C652 O674 1.240 . S
C652 O675 1.264 . S
O653 Mn648 2.095 . S
O653 C662 1.250 . S
O654 Mn649 2.121 . S
O654 C662 1.258 . S
C655 N656 1.326 . S
C655 C659 1.460 . S
C655 H661 0.929 . S
N656 Mn649 2.257 . S
N656 C655 1.326 . S
N656 C660 1.362 . S
C657 C658 1.258 . S
C657 C660 1.431 . S
C657 C677 1.449 . S
C658 C657 1.258 . S
C658 C659 1.477 . S
C658 H678 0.931 . S
C659 C655 1.460 . S
C659 C658 1.477 . S
C659 H679 0.930 . S
C660 N656 1.362 . S
C660 C657 1.431 . S
C660 C670 1.476 . S
H661 C655 0.929 . S
C662 O653 1.250 . S
C662 O654 1.258 . S
O663 Mn648 2.162 . S
O663 C651 1.281 . S
O664 Mn648 2.297 . S
O664 C651 1.236 . S
N665 Mn649 2.282 . S
N665 C666 1.328 . S
N665 C670 1.318 . S
C666 N665 1.328 . S
C666 C667 1.457 . S
C666 H671 0.929 . S
C667 C666 1.457 . S
C667 C668 1.291 . S
C667 H680 0.931 . S
C668 C667 1.291 . S
C668 C669 1.373 . S
C668 H681 0.929 . S
C669 C668 1.373 . S
C669 C670 1.396 . S
C669 C676 1.403 . S
C670 C660 1.476 . S
C670 N665 1.318 . S
C670 C669 1.396 . S
H671 C666 0.929 . S
O672 Mn648 2.385 . S
O672 C650 1.234 . S
O673 Mn648 2.209 . S
O673 Mn649 2.215 . S
O673 C650 1.283 . S
O674 Mn648 2.094 . S
O674 C652 1.240 . S
O675 Mn649 2.117 . S
O675 C652 1.264 . S
C676 C669 1.403 . S
C676 C677 1.399 . S
C676 H682 0.929 . S
C677 C657 1.449 . S
C677 C676 1.399 . S
C677 H683 0.930 . S
H678 C658 0.931 . S
H679 C659 0.930 . S
H680 C667 0.931 . S
H681 C668 0.929 . S
H682 C676 0.929 . S
H683 C677 0.930 . S
Mn684 O689 2.095 . S
Mn684 O699 2.162 . S
Mn684 O700 2.297 . S
Mn684 O708 2.385 . S
Mn684 O709 2.209 . S
Mn684 O710 2.094 . S
Mn685 O690 2.121 . S
Mn685 N692 2.257 . S
Mn685 N701 2.282 . S
Mn685 O709 2.215 . S
Mn685 O711 2.117 . S
C686 O708 1.234 . S
C686 O709 1.283 . S
C687 O699 1.281 . S
C687 O700 1.236 . S
C688 O710 1.240 . S
C688 O711 1.264 . S
O689 Mn684 2.095 . S
O689 C698 1.250 . S
O690 Mn685 2.121 . S
O690 C698 1.258 . S
C691 N692 1.326 . S
C691 C695 1.460 . S
C691 H697 0.929 . S
N692 Mn685 2.257 . S
N692 C691 1.326 . S
N692 C696 1.362 . S
C693 C694 1.258 . S
C693 C696 1.431 . S
C693 C713 1.449 . S
C694 C693 1.258 . S
C694 C695 1.477 . S
C694 H714 0.931 . S
C695 C691 1.460 . S
C695 C694 1.477 . S
C695 H715 0.930 . S
C696 N692 1.362 . S
C696 C693 1.431 . S
C696 C706 1.476 . S
H697 C691 0.929 . S
C698 O689 1.250 . S
C698 O690 1.258 . S
O699 Mn684 2.162 . S
O699 C687 1.281 . S
O700 Mn684 2.297 . S
O700 C687 1.236 . S
N701 Mn685 2.282 . S
N701 C702 1.328 . S
N701 C706 1.318 . S
C702 N701 1.328 . S
C702 C703 1.457 . S
C702 H707 0.929 . S
C703 C702 1.457 . S
C703 C704 1.291 . S
C703 H716 0.931 . S
C704 C703 1.291 . S
C704 C705 1.373 . S
C704 H717 0.929 . S
C705 C704 1.373 . S
C705 C706 1.396 . S
C705 C712 1.403 . S
C706 C696 1.476 . S
C706 N701 1.318 . S
C706 C705 1.396 . S
H707 C702 0.929 . S
O708 Mn684 2.385 . S
O708 C686 1.234 . S
O709 Mn684 2.209 . S
O709 Mn685 2.215 . S
O709 C686 1.283 . S
O710 Mn684 2.094 . S
O710 C688 1.240 . S
O711 Mn685 2.117 . S
O711 C688 1.264 . S
C712 C705 1.403 . S
C712 C713 1.399 . S
C712 H718 0.929 . S
C713 C693 1.449 . S
C713 C712 1.399 . S
C713 H719 0.930 . S
H714 C694 0.931 . S
H715 C695 0.930 . S
H716 C703 0.931 . S
H717 C704 0.929 . S
H718 C712 0.929 . S
H719 C713 0.930 . S
Mn720 O725 2.095 . S
Mn720 O735 2.162 . S
Mn720 O736 2.297 . S
Mn720 O744 2.385 . S
Mn720 O745 2.209 . S
Mn720 O746 2.094 1_554 S
Mn721 O726 2.121 . S
Mn721 N728 2.257 . S
Mn721 N737 2.282 . S
Mn721 O745 2.215 1_556 S
Mn721 O747 2.117 . S
C722 O744 1.234 . S
C722 O745 1.283 . S
C723 O735 1.281 . S
C723 O736 1.236 . S
C724 O746 1.240 . S
C724 O747 1.264 . S
O725 Mn720 2.095 . S
O725 C734 1.250 . S
O726 Mn721 2.121 . S
O726 C734 1.258 1_556 S
C727 N728 1.326 . S
C727 C731 1.460 . S
C727 H733 0.929 . S
N728 Mn721 2.257 . S
N728 C727 1.326 . S
N728 C732 1.362 . S
C729 C730 1.258 . S
C729 C732 1.431 . S
C729 C749 1.449 . S
C730 C729 1.258 . S
C730 C731 1.477 . S
C730 H750 0.931 . S
C731 C727 1.460 . S
C731 C730 1.477 . S
C731 H751 0.930 . S
C732 N728 1.362 . S
C732 C729 1.431 . S
C732 C742 1.476 . S
H733 C727 0.929 . S
C734 O725 1.250 . S
C734 O726 1.258 1_554 S
O735 Mn720 2.162 . S
O735 C723 1.281 . S
O736 Mn720 2.297 . S
O736 C723 1.236 . S
N737 Mn721 2.282 . S
N737 C738 1.328 . S
N737 C742 1.318 . S
C738 N737 1.328 . S
C738 C739 1.457 . S
C738 H743 0.929 . S
C739 C738 1.457 . S
C739 C740 1.291 . S
C739 H752 0.931 . S
C740 C739 1.291 . S
C740 C741 1.373 . S
C740 H753 0.929 . S
C741 C740 1.373 . S
C741 C742 1.396 . S
C741 C748 1.403 . S
C742 C732 1.476 . S
C742 N737 1.318 . S
C742 C741 1.396 . S
H743 C738 0.929 . S
O744 Mn720 2.385 . S
O744 C722 1.234 . S
O745 Mn720 2.209 . S
O745 Mn721 2.215 1_554 S
O745 C722 1.283 . S
O746 Mn720 2.094 1_556 S
O746 C724 1.240 . S
O747 Mn721 2.117 . S
O747 C724 1.264 . S
C748 C741 1.403 . S
C748 C749 1.399 . S
C748 H754 0.929 . S
C749 C729 1.449 . S
C749 C748 1.399 . S
C749 H755 0.930 . S
H750 C730 0.931 . S
H751 C731 0.930 . S
H752 C739 0.931 . S
H753 C740 0.929 . S
H754 C748 0.929 . S
H755 C749 0.930 . S
Mn756 O761 2.095 . S
Mn756 O771 2.162 . S
Mn756 O772 2.297 . S
Mn756 O780 2.385 . S
Mn756 O781 2.209 . S
Mn756 O782 2.094 . S
Mn757 O762 2.121 . S
Mn757 N764 2.257 . S
Mn757 N773 2.282 . S
Mn757 O781 2.215 . S
Mn757 O783 2.117 . S
C758 O780 1.234 . S
C758 O781 1.283 . S
C759 O771 1.281 . S
C759 O772 1.236 . S
C760 O782 1.240 . S
C760 O783 1.264 . S
O761 Mn756 2.095 . S
O761 C770 1.250 . S
O762 Mn757 2.121 . S
O762 C770 1.258 . S
C763 N764 1.326 . S
C763 C767 1.460 . S
C763 H769 0.929 . S
N764 Mn757 2.257 . S
N764 C763 1.326 . S
N764 C768 1.362 . S
C765 C766 1.258 . S
C765 C768 1.431 . S
C765 C785 1.449 . S
C766 C765 1.258 . S
C766 C767 1.477 . S
C766 H786 0.931 . S
C767 C763 1.460 . S
C767 C766 1.477 . S
C767 H787 0.930 . S
C768 N764 1.362 . S
C768 C765 1.431 . S
C768 C778 1.476 . S
H769 C763 0.929 . S
C770 O761 1.250 . S
C770 O762 1.258 . S
O771 Mn756 2.162 . S
O771 C759 1.281 . S
O772 Mn756 2.297 . S
O772 C759 1.236 . S
N773 Mn757 2.282 . S
N773 C774 1.328 . S
N773 C778 1.318 . S
C774 N773 1.328 . S
C774 C775 1.457 . S
C774 H779 0.929 . S
C775 C774 1.457 . S
C775 C776 1.291 . S
C775 H788 0.931 . S
C776 C775 1.291 . S
C776 C777 1.373 . S
C776 H789 0.929 . S
C777 C776 1.373 . S
C777 C778 1.396 . S
C777 C784 1.403 . S
C778 C768 1.476 . S
C778 N773 1.318 . S
C778 C777 1.396 . S
H779 C774 0.929 . S
O780 Mn756 2.385 . S
O780 C758 1.234 . S
O781 Mn756 2.209 . S
O781 Mn757 2.215 . S
O781 C758 1.283 . S
O782 Mn756 2.094 . S
O782 C760 1.240 . S
O783 Mn757 2.117 . S
O783 C760 1.264 . S
C784 C777 1.403 . S
C784 C785 1.399 . S
C784 H790 0.929 . S
C785 C765 1.449 . S
C785 C784 1.399 . S
C785 H791 0.930 . S
H786 C766 0.931 . S
H787 C767 0.930 . S
H788 C775 0.931 . S
H789 C776 0.929 . S
H790 C784 0.929 . S
H791 C785 0.930 . S
Mn792 O797 2.095 . S
Mn792 O807 2.162 . S
Mn792 O808 2.297 . S
Mn792 O816 2.385 . S
Mn792 O817 2.209 . S
Mn792 O818 2.094 . S
Mn793 O798 2.121 . S
Mn793 N800 2.257 . S
Mn793 N809 2.282 . S
Mn793 O817 2.215 . S
Mn793 O819 2.117 . S
C794 O816 1.234 . S
C794 O817 1.283 . S
C795 O807 1.281 . S
C795 O808 1.236 . S
C796 O818 1.240 . S
C796 O819 1.264 . S
O797 Mn792 2.095 . S
O797 C806 1.250 . S
O798 Mn793 2.121 . S
O798 C806 1.258 . S
C799 N800 1.326 . S
C799 C803 1.460 . S
C799 H805 0.929 . S
N800 Mn793 2.257 . S
N800 C799 1.326 . S
N800 C804 1.362 . S
C801 C802 1.258 . S
C801 C804 1.431 . S
C801 C821 1.449 . S
C802 C801 1.258 . S
C802 C803 1.477 . S
C802 H822 0.931 . S
C803 C799 1.460 . S
C803 C802 1.477 . S
C803 H823 0.930 . S
C804 N800 1.362 . S
C804 C801 1.431 . S
C804 C814 1.476 . S
H805 C799 0.929 . S
C806 O797 1.250 . S
C806 O798 1.258 . S
O807 Mn792 2.162 . S
O807 C795 1.281 . S
O808 Mn792 2.297 . S
O808 C795 1.236 . S
N809 Mn793 2.282 . S
N809 C810 1.328 . S
N809 C814 1.318 . S
C810 N809 1.328 . S
C810 C811 1.457 . S
C810 H815 0.929 . S
C811 C810 1.457 . S
C811 C812 1.291 . S
C811 H824 0.931 . S
C812 C811 1.291 . S
C812 C813 1.373 . S
C812 H825 0.929 . S
C813 C812 1.373 . S
C813 C814 1.396 . S
C813 C820 1.403 . S
C814 C804 1.476 . S
C814 N809 1.318 . S
C814 C813 1.396 . S
H815 C810 0.929 . S
O816 Mn792 2.385 . S
O816 C794 1.234 . S
O817 Mn792 2.209 . S
O817 Mn793 2.215 . S
O817 C794 1.283 . S
O818 Mn792 2.094 . S
O818 C796 1.240 . S
O819 Mn793 2.117 . S
O819 C796 1.264 . S
C820 C813 1.403 . S
C820 C821 1.399 . S
C820 H826 0.929 . S
C821 C801 1.449 . S
C821 C820 1.399 . S
C821 H827 0.930 . S
H822 C802 0.931 . S
H823 C803 0.930 . S
H824 C811 0.931 . S
H825 C812 0.929 . S
H826 C820 0.929 . S
H827 C821 0.930 . S
Mn828 O833 2.095 . S
Mn828 O843 2.162 . S
Mn828 O844 2.297 . S
Mn828 O852 2.385 . S
Mn828 O853 2.209 . S
Mn828 O854 2.094 . S
Mn829 O834 2.121 . S
Mn829 N836 2.257 . S
Mn829 N845 2.282 . S
Mn829 O853 2.215 . S
Mn829 O855 2.117 . S
C830 O852 1.234 . S
C830 O853 1.283 . S
C831 O843 1.281 . S
C831 O844 1.236 . S
C832 O854 1.240 . S
C832 O855 1.264 . S
O833 Mn828 2.095 . S
O833 C842 1.250 . S
O834 Mn829 2.121 . S
O834 C842 1.258 . S
C835 N836 1.326 . S
C835 C839 1.460 . S
C835 H841 0.929 . S
N836 Mn829 2.257 . S
N836 C835 1.326 . S
N836 C840 1.362 . S
C837 C838 1.258 . S
C837 C840 1.431 . S
C837 C857 1.449 . S
C838 C837 1.258 . S
C838 C839 1.477 . S
C838 H858 0.931 . S
C839 C835 1.460 . S
C839 C838 1.477 . S
C839 H859 0.930 . S
C840 N836 1.362 . S
C840 C837 1.431 . S
C840 C850 1.476 . S
H841 C835 0.929 . S
C842 O833 1.250 . S
C842 O834 1.258 . S
O843 Mn828 2.162 . S
O843 C831 1.281 . S
O844 Mn828 2.297 . S
O844 C831 1.236 . S
N845 Mn829 2.282 . S
N845 C846 1.328 . S
N845 C850 1.318 . S
C846 N845 1.328 . S
C846 C847 1.457 . S
C846 H851 0.929 . S
C847 C846 1.457 . S
C847 C848 1.291 . S
C847 H860 0.931 . S
C848 C847 1.291 . S
C848 C849 1.373 . S
C848 H861 0.929 . S
C849 C848 1.373 . S
C849 C850 1.396 . S
C849 C856 1.403 . S
C850 C840 1.476 . S
C850 N845 1.318 . S
C850 C849 1.396 . S
H851 C846 0.929 . S
O852 Mn828 2.385 . S
O852 C830 1.234 . S
O853 Mn828 2.209 . S
O853 Mn829 2.215 . S
O853 C830 1.283 . S
O854 Mn828 2.094 . S
O854 C832 1.240 . S
O855 Mn829 2.117 . S
O855 C832 1.264 . S
C856 C849 1.403 . S
C856 C857 1.399 . S
C856 H862 0.929 . S
C857 C837 1.449 . S
C857 C856 1.399 . S
C857 H863 0.930 . S
H858 C838 0.931 . S
H859 C839 0.930 . S
H860 C847 0.931 . S
H861 C848 0.929 . S
H862 C856 0.929 . S
H863 C857 0.930 . S
C864 C866 1.422 1_556 S
C864 C868 1.415 . S
C864 N870 1.369 . S
C865 C866 1.421 . S
C865 C867 1.417 1_554 S
C865 C877 1.422 . S
C866 C864 1.422 1_554 S
C866 C865 1.421 . S
C866 N876 1.359 . S
C867 C865 1.417 1_556 S
C867 C869 1.329 . S
C867 H886 0.930 . S
C868 C864 1.415 . S
C868 C869 1.437 . S
C868 C872 1.413 . S
C869 C867 1.329 . S
C869 C868 1.437 . S
C869 H891 0.929 . S
N870 C864 1.369 . S
N870 C871 1.338 . S
N870 Gd875 2.622 1_566 S
C871 N870 1.338 . S
C871 C873 1.378 . S
C871 H883 0.929 . S
C872 C868 1.413 . S
C872 C873 1.348 . S
C872 H888 0.931 . S
C873 C871 1.378 . S
C873 C872 1.348 . S
C873 H889 0.930 . S
Gd874 N894 2.622 . S
Gd874 N901 2.570 . S
Gd874 O908 2.353 1_545 S
Gd874 O909 2.468 . S
Gd874 O910 2.427 . S
Gd874 O912 2.388 . S
Gd874 O913 2.386 . S
Gd874 O917 2.307 . S
Gd874 C927 2.805 . S
Gd875 N870 2.622 1_544 S
Gd875 N876 2.570 1_545 S
Gd875 O907 2.386 1_645 S
Gd875 O911 2.307 1_655 S
Gd875 O914 2.353 1_655 S
Gd875 O915 2.468 . S
Gd875 O916 2.427 1_554 S
Gd875 O918 2.388 1_654 S
Gd875 C939 2.805 . S
N876 C866 1.359 . S
N876 Gd875 2.570 1_565 S
N876 C878 1.343 . S
C877 C865 1.422 . S
C877 C879 1.321 . S
C877 H885 0.931 . S
C878 N876 1.343 . S
C878 C879 1.390 . S
C878 H880 0.931 . S
C879 C877 1.321 . S
C879 C878 1.390 . S
C879 H881 0.930 . S
H880 C878 0.931 . S
H881 C879 0.930 . S
H882 C905 0.931 1_556 S
H883 C871 0.929 . S
H884 C906 0.930 1_556 S
H885 C877 0.931 . S
H886 C867 0.930 . S
H887 C896 0.929 . S
H888 C872 0.931 . S
H889 C873 0.930 . S
H890 C928 0.930 . S
H891 C869 0.929 . S
H892 C897 0.931 . S
H893 C898 0.930 . S
N894 Gd874 2.622 . S
N894 C895 1.369 . S
N894 C896 1.338 . S
C895 N894 1.369 . S
C895 C899 1.415 . S
C895 C902 1.422 . S
C896 H887 0.929 . S
C896 N894 1.338 . S
C896 C898 1.378 . S
C897 H892 0.931 . S
C897 C898 1.348 . S
C897 C899 1.413 . S
C898 H893 0.930 . S
C898 C896 1.378 . S
C898 C897 1.348 . S
C899 C895 1.415 . S
C899 C897 1.413 . S
C899 C929 1.437 . S
H900 C929 0.929 . S
N901 Gd874 2.570 . S
N901 C902 1.359 . S
N901 C905 1.343 . S
C902 C895 1.422 . S
C902 N901 1.359 . S
C902 C904 1.421 . S
C903 C904 1.422 . S
C903 C906 1.321 . S
C903 H930 0.931 . S
C904 C902 1.421 . S
C904 C903 1.422 . S
C904 C928 1.417 . S
C905 H882 0.931 1_554 S
C905 N901 1.343 . S
C905 C906 1.390 . S
C906 H884 0.930 1_554 S
C906 C903 1.321 . S
C906 C905 1.390 . S
O907 Gd875 2.386 1_465 S
O907 C919 1.265 . S
O908 Gd874 2.353 1_565 S
O908 C919 1.242 . S
O909 Gd874 2.468 . S
O909 C927 1.263 . S
O910 Gd874 2.427 . S
O910 C927 1.252 . S
O911 Gd875 2.307 1_455 S
O911 C920 1.261 . S
O912 Gd874 2.388 . S
O912 C920 1.252 . S
O913 Gd874 2.386 . S
O913 C931 1.265 . S
O914 Gd875 2.353 1_455 S
O914 C931 1.242 . S
O915 Gd875 2.468 . S
O915 C939 1.263 . S
O916 Gd875 2.427 1_556 S
O916 C939 1.252 1_556 S
O917 Gd874 2.307 . S
O917 C932 1.261 1_554 S
O918 Gd875 2.388 1_456 S
O918 C932 1.252 . S
C919 O907 1.265 . S
C919 O908 1.242 . S
C920 O911 1.261 . S
C920 O912 1.252 . S
C921 C924 1.394 . S
C921 C926 1.370 . S
C921 C927 1.500 . S
C922 C925 1.389 1_565 S
C922 C926 1.392 1_565 S
C923 C924 1.396 . S
C923 C925 1.374 . S
C923 H940 0.929 . S
C924 C921 1.394 . S
C924 C923 1.396 . S
C924 H941 0.930 . S
C925 C922 1.389 1_545 S
C925 C923 1.374 . S
C925 H942 0.918 1_545 S
C926 C921 1.370 . S
C926 C922 1.392 1_545 S
C926 H943 0.930 . S
C927 Gd874 2.805 . S
C927 O909 1.263 . S
C927 O910 1.252 . S
C927 C921 1.500 . S
C928 H890 0.930 . S
C928 C904 1.417 . S
C928 C929 1.329 . S
C929 C899 1.437 . S
C929 H900 0.929 . S
C929 C928 1.329 . S
H930 C903 0.931 . S
C931 O913 1.265 . S
C931 O914 1.242 . S
C932 O917 1.261 1_556 S
C932 O918 1.252 . S
C933 C936 1.394 . S
C933 C938 1.370 1_556 S
C933 C939 1.500 1_556 S
C934 C937 1.383 1_554 S
C934 C938 1.395 . S
C935 C936 1.396 . S
C935 C937 1.365 . S
C935 H944 0.929 . S
C936 C933 1.394 . S
C936 C935 1.396 . S
C936 H945 0.930 . S
C937 C934 1.383 1_556 S
C937 C935 1.365 . S
C937 H946 0.931 . S
C938 C933 1.370 1_554 S
C938 C934 1.395 . S
C938 H947 0.930 . S
C939 Gd875 2.805 . S
C939 O915 1.263 . S
C939 O916 1.252 1_554 S
C939 C933 1.500 1_554 S
H940 C923 0.929 . S
H941 C924 0.930 . S
H942 C925 0.918 1_565 S
H943 C926 0.930 . S
H944 C935 0.929 . S
H945 C936 0.930 . S
H946 C937 0.931 . S
H947 C938 0.930 . S
C948 C950 1.422 . S
C948 C952 1.415 . S
C948 N954 1.369 . S
C949 C950 1.421 . S
C949 C951 1.417 . S
C949 C961 1.422 . S
C950 C948 1.422 . S
C950 C949 1.421 . S
C950 N960 1.359 . S
C951 C949 1.417 . S
C951 C953 1.329 . S
C951 H970 0.930 . S
C952 C948 1.415 . S
C952 C953 1.437 . S
C952 C956 1.413 . S
C953 C951 1.329 . S
C953 C952 1.437 . S
C953 H975 0.929 . S
N954 C948 1.369 . S
N954 C955 1.338 . S
N954 Gd959 2.622 . S
C955 N954 1.338 . S
C955 C957 1.378 . S
C955 H967 0.929 . S
C956 C952 1.413 . S
C956 C957 1.348 . S
C956 H972 0.931 . S
C957 C955 1.378 . S
C957 C956 1.348 . S
C957 H973 0.930 . S
Gd958 N978 2.622 . S
Gd958 N985 2.570 . S
Gd958 O992 2.353 . S
Gd958 O993 2.468 . S
Gd958 O994 2.427 . S
Gd958 O996 2.388 . S
Gd958 O997 2.386 . S
Gd958 O1001 2.307 . S
Gd958 C1011 2.805 . S
Gd959 N954 2.622 . S
Gd959 N960 2.570 . S
Gd959 O991 2.386 . S
Gd959 O995 2.307 . S
Gd959 O998 2.353 . S
Gd959 O999 2.468 . S
Gd959 O1000 2.427 . S
Gd959 O1002 2.388 . S
Gd959 C1023 2.805 . S
N960 C950 1.359 . S
N960 Gd959 2.570 . S
N960 C962 1.343 . S
C961 C949 1.422 . S
C961 C963 1.321 . S
C961 H969 0.931 . S
C962 N960 1.343 . S
C962 C963 1.390 . S
C962 H964 0.931 . S
C963 C961 1.321 . S
C963 C962 1.390 . S
C963 H965 0.930 . S
H964 C962 0.931 . S
H965 C963 0.930 . S
H966 C989 0.931 . S
H967 C955 0.929 . S
H968 C990 0.930 . S
H969 C961 0.931 . S
H970 C951 0.930 . S
H971 C980 0.929 . S
H972 C956 0.931 . S
H973 C957 0.930 . S
H974 C1012 0.930 . S
H975 C953 0.929 . S
H976 C981 0.931 . S
H977 C982 0.930 . S
N978 Gd958 2.622 . S
N978 C979 1.369 . S
N978 C980 1.338 . S
C979 N978 1.369 . S
C979 C983 1.415 . S
C979 C986 1.422 . S
C980 H971 0.929 . S
C980 N978 1.338 . S
C980 C982 1.378 . S
C981 H976 0.931 . S
C981 C982 1.348 . S
C981 C983 1.413 . S
C982 H977 0.930 . S
C982 C980 1.378 . S
C982 C981 1.348 . S
C983 C979 1.415 . S
C983 C981 1.413 . S
C983 C1013 1.437 . S
H984 C1013 0.929 . S
N985 Gd958 2.570 . S
N985 C986 1.359 . S
N985 C989 1.343 . S
C986 C979 1.422 . S
C986 N985 1.359 . S
C986 C988 1.421 . S
C987 C988 1.422 . S
C987 C990 1.321 . S
C987 H1014 0.931 . S
C988 C986 1.421 . S
C988 C987 1.422 . S
C988 C1012 1.417 . S
C989 H966 0.931 . S
C989 N985 1.343 . S
C989 C990 1.390 . S
C990 H968 0.930 . S
C990 C987 1.321 . S
C990 C989 1.390 . S
O991 Gd959 2.386 . S
O991 C1003 1.265 . S
O992 Gd958 2.353 . S
O992 C1003 1.242 . S
O993 Gd958 2.468 . S
O993 C1011 1.263 . S
O994 Gd958 2.427 . S
O994 C1011 1.252 . S
O995 Gd959 2.307 . S
O995 C1004 1.261 . S
O996 Gd958 2.388 . S
O996 C1004 1.252 . S
O997 Gd958 2.386 . S
O997 C1015 1.265 . S
O998 Gd959 2.353 . S
O998 C1015 1.242 . S
O999 Gd959 2.468 . S
O999 C1023 1.263 . S
O1000 Gd959 2.427 . S
O1000 C1023 1.252 . S
O1001 Gd958 2.307 . S
O1001 C1016 1.261 . S
O1002 Gd959 2.388 . S
O1002 C1016 1.252 . S
C1003 O991 1.265 . S
C1003 O992 1.242 . S
C1004 O995 1.261 . S
C1004 O996 1.252 . S
C1005 C1008 1.394 . S
C1005 C1010 1.370 . S
C1005 C1011 1.500 . S
C1006 C1009 1.383 . S
C1006 C1010 1.395 . S
C1007 C1008 1.396 . S
C1007 C1009 1.365 . S
C1007 H1024 0.929 . S
C1008 C1005 1.394 . S
C1008 C1007 1.396 . S
C1008 H1025 0.930 . S
C1009 C1006 1.383 . S
C1009 C1007 1.365 . S
C1009 H1026 0.931 . S
C1010 C1005 1.370 . S
C1010 C1006 1.395 . S
C1010 H1027 0.930 . S
C1011 Gd958 2.805 . S
C1011 O993 1.263 . S
C1011 O994 1.252 . S
C1011 C1005 1.500 . S
C1012 H974 0.930 . S
C1012 C988 1.417 . S
C1012 C1013 1.329 . S
C1013 C983 1.437 . S
C1013 H984 0.929 . S
C1013 C1012 1.329 . S
H1014 C987 0.931 . S
C1015 O997 1.265 . S
C1015 O998 1.242 . S
C1016 O1001 1.261 . S
C1016 O1002 1.252 . S
C1017 C1020 1.394 . S
C1017 C1022 1.370 . S
C1017 C1023 1.500 . S
C1018 C1021 1.383 . S
C1018 C1022 1.395 . S
C1019 C1020 1.396 . S
C1019 C1021 1.365 . S
C1019 H1028 0.929 . S
C1020 C1017 1.394 . S
C1020 C1019 1.396 . S
C1020 H1029 0.930 . S
C1021 C1018 1.383 . S
C1021 C1019 1.365 . S
C1021 H1030 0.931 . S
C1022 C1017 1.370 . S
C1022 C1018 1.395 . S
C1022 H1031 0.930 . S
C1023 Gd959 2.805 . S
C1023 O999 1.263 . S
C1023 O1000 1.252 . S
C1023 C1017 1.500 . S
H1024 C1007 0.929 . S
H1025 C1008 0.930 . S
H1026 C1009 0.931 . S
H1027 C1010 0.930 . S
H1028 C1019 0.929 . S
H1029 C1020 0.930 . S
H1030 C1021 0.931 . S
H1031 C1022 0.930 . S
C1032 C1034 1.422 . S
C1032 C1036 1.415 . S
C1032 N1038 1.369 . S
C1033 C1034 1.421 . S
C1033 C1035 1.417 . S
C1033 C1045 1.422 . S
C1034 C1032 1.422 . S
C1034 C1033 1.421 . S
C1034 N1044 1.359 . S
C1035 C1033 1.417 . S
C1035 C1037 1.329 . S
C1035 H1054 0.930 . S
C1036 C1032 1.415 . S
C1036 C1037 1.437 . S
C1036 C1040 1.413 . S
C1037 C1035 1.329 . S
C1037 C1036 1.437 . S
C1037 H1059 0.929 . S
N1038 C1032 1.369 . S
N1038 C1039 1.338 . S
N1038 Gd1043 2.622 . S
C1039 N1038 1.338 . S
C1039 C1041 1.378 . S
C1039 H1051 0.929 . S
C1040 C1036 1.413 . S
C1040 C1041 1.348 . S
C1040 H1056 0.931 . S
C1041 C1039 1.378 . S
C1041 C1040 1.348 . S
C1041 H1057 0.930 . S
Gd1042 N1062 2.622 . S
Gd1042 N1069 2.570 1_545 S
Gd1042 O1076 2.353 . S
Gd1042 O1077 2.468 . S
Gd1042 O1078 2.427 . S
Gd1042 O1080 2.388 . S
Gd1042 O1081 2.386 1_545 S
Gd1042 O1085 2.307 . S
Gd1042 C1095 2.805 . S
Gd1043 N1038 2.622 . S
Gd1043 N1044 2.570 . S
Gd1043 O1075 2.386 . S
Gd1043 O1079 2.307 . S
Gd1043 O1082 2.353 . S
Gd1043 O1083 2.468 . S
Gd1043 O1084 2.427 . S
Gd1043 O1086 2.388 . S
Gd1043 C1107 2.805 . S
N1044 C1034 1.359 . S
N1044 Gd1043 2.570 . S
N1044 C1046 1.343 . S
C1045 C1033 1.422 . S
C1045 C1047 1.321 . S
C1045 H1053 0.931 . S
C1046 N1044 1.343 . S
C1046 C1047 1.390 . S
C1046 H1048 0.931 . S
C1047 C1045 1.321 . S
C1047 C1046 1.390 . S
C1047 H1049 0.930 . S
H1048 C1046 0.931 . S
H1049 C1047 0.930 . S
H1050 C1073 0.931 1_545 S
H1051 C1039 0.929 . S
H1052 C1074 0.930 . S
H1053 C1045 0.931 . S
H1054 C1035 0.930 . S
H1055 C1064 0.929 . S
H1056 C1040 0.931 . S
H1057 C1041 0.930 . S
H1058 C1096 0.930 . S
H1059 C1037 0.929 . S
H1060 C1065 0.931 . S
H1061 C1066 0.930 . S
N1062 Gd1042 2.622 . S
N1062 C1063 1.369 1_545 S
N1062 C1064 1.338 . S
C1063 N1062 1.369 1_565 S
C1063 C1067 1.415 . S
C1063 C1070 1.422 . S
C1064 H1055 0.929 . S
C1064 N1062 1.338 . S
C1064 C1066 1.378 1_545 S
C1065 H1060 0.931 . S
C1065 C1066 1.348 . S
C1065 C1067 1.413 . S
C1066 H1061 0.930 . S
C1066 C1064 1.378 1_565 S
C1066 C1065 1.348 . S
C1067 C1063 1.415 . S
C1067 C1065 1.413 . S
C1067 C1097 1.437 . S
H1068 C1097 0.929 . S
N1069 Gd1042 2.570 1_565 S
N1069 C1070 1.359 . S
N1069 C1073 1.343 . S
C1070 C1063 1.422 . S
C1070 N1069 1.359 . S
C1070 C1072 1.421 . S
C1071 C1072 1.422 . S
C1071 C1074 1.321 . S
C1071 H1098 0.931 . S
C1072 C1070 1.421 . S
C1072 C1071 1.422 . S
C1072 C1096 1.417 . S
C1073 H1050 0.931 1_565 S
C1073 N1069 1.343 . S
C1073 C1074 1.390 . S
C1074 H1052 0.930 . S
C1074 C1071 1.321 . S
C1074 C1073 1.390 . S
O1075 Gd1043 2.386 . S
O1075 C1087 1.265 . S
O1076 Gd1042 2.353 . S
O1076 C1087 1.242 . S
O1077 Gd1042 2.468 . S
O1077 C1095 1.263 . S
O1078 Gd1042 2.427 . S
O1078 C1095 1.252 . S
O1079 Gd1043 2.307 . S
O1079 C1088 1.261 . S
O1080 Gd1042 2.388 . S
O1080 C1088 1.252 . S
O1081 Gd1042 2.386 1_565 S
O1081 C1099 1.265 . S
O1082 Gd1043 2.353 . S
O1082 C1099 1.242 1_545 S
O1083 Gd1043 2.468 . S
O1083 C1107 1.263 . S
O1084 Gd1043 2.427 . S
O1084 C1107 1.252 . S
O1085 Gd1042 2.307 . S
O1085 C1100 1.261 . S
O1086 Gd1043 2.388 . S
O1086 C1100 1.252 . S
C1087 O1075 1.265 . S
C1087 O1076 1.242 . S
C1088 O1079 1.261 . S
C1088 O1080 1.252 . S
C1089 C1092 1.394 . S
C1089 C1094 1.370 . S
C1089 C1095 1.500 . S
C1090 C1093 1.383 . S
C1090 C1094 1.395 . S
C1091 C1092 1.396 . S
C1091 C1093 1.365 . S
C1091 H1108 0.929 . S
C1092 C1089 1.394 . S
C1092 C1091 1.396 . S
C1092 H1109 0.930 . S
C1093 C1090 1.383 . S
C1093 C1091 1.365 . S
C1093 H1110 0.931 . S
C1094 C1089 1.370 . S
C1094 C1090 1.395 . S
C1094 H1111 0.930 . S
C1095 Gd1042 2.805 . S
C1095 O1077 1.263 . S
C1095 O1078 1.252 . S
C1095 C1089 1.500 . S
C1096 H1058 0.930 . S
C1096 C1072 1.417 . S
C1096 C1097 1.329 . S
C1097 C1067 1.437 . S
C1097 H1068 0.929 . S
C1097 C1096 1.329 . S
H1098 C1071 0.931 . S
C1099 O1081 1.265 . S
C1099 O1082 1.242 1_565 S
C1100 O1085 1.261 . S
C1100 O1086 1.252 . S
C1101 C1104 1.394 1_545 S
C1101 C1106 1.370 1_545 S
C1101 C1107 1.500 . S
C1102 C1105 1.383 . S
C1102 C1106 1.395 . S
C1103 C1104 1.396 . S
C1103 C1105 1.365 . S
C1103 H1112 0.929 . S
C1104 C1101 1.394 1_565 S
C1104 C1103 1.396 . S
C1104 H1113 0.907 1_565 S
C1105 C1102 1.383 . S
C1105 C1103 1.365 . S
C1105 H1114 0.931 . S
C1106 C1101 1.370 1_565 S
C1106 C1102 1.395 . S
C1106 H1115 0.931 1_565 S
C1107 Gd1043 2.805 . S
C1107 O1083 1.263 . S
C1107 O1084 1.252 . S
C1107 C1101 1.500 . S
H1108 C1091 0.929 . S
H1109 C1092 0.930 . S
H1110 C1093 0.931 . S
H1111 C1094 0.930 . S
H1112 C1103 0.929 . S
H1113 C1104 0.907 1_545 S
H1114 C1105 0.931 . S
H1115 C1106 0.931 1_545 S
C1116 C1118 1.422 . S
C1116 C1120 1.415 . S
C1116 N1122 1.369 . S
C1117 C1118 1.421 . S
C1117 C1119 1.417 . S
C1117 C1129 1.422 . S
C1118 C1116 1.422 . S
C1118 C1117 1.421 . S
C1118 N1128 1.359 . S
C1119 C1117 1.417 . S
C1119 C1121 1.329 . S
C1119 H1138 0.930 . S
C1120 C1116 1.415 . S
C1120 C1121 1.437 . S
C1120 C1124 1.413 . S
C1121 C1119 1.329 . S
C1121 C1120 1.437 . S
C1121 H1143 0.929 . S
N1122 C1116 1.369 . S
N1122 C1123 1.338 . S
N1122 Gd1127 2.622 . S
C1123 N1122 1.338 . S
C1123 C1125 1.378 . S
C1123 H1135 0.929 . S
C1124 C1120 1.413 . S
C1124 C1125 1.348 . S
C1124 H1140 0.931 . S
C1125 C1123 1.378 . S
C1125 C1124 1.348 . S
C1125 H1141 0.930 . S
Gd1126 N1146 2.622 . S
Gd1126 N1153 2.570 . S
Gd1126 O1160 2.353 . S
Gd1126 O1161 2.468 . S
Gd1126 O1162 2.427 . S
Gd1126 O1164 2.388 . S
Gd1126 O1165 2.386 . S
Gd1126 O1169 2.307 . S
Gd1126 C1179 2.805 . S
Gd1127 N1122 2.622 . S
Gd1127 N1128 2.570 . S
Gd1127 O1159 2.386 . S
Gd1127 O1163 2.307 . S
Gd1127 O1166 2.353 . S
Gd1127 O1167 2.468 . S
Gd1127 O1168 2.427 . S
Gd1127 O1170 2.388 . S
Gd1127 C1191 2.805 . S
N1128 C1118 1.359 . S
N1128 Gd1127 2.570 . S
N1128 C1130 1.343 . S
C1129 C1117 1.422 . S
C1129 C1131 1.321 . S
C1129 H1137 0.931 . S
C1130 N1128 1.343 . S
C1130 C1131 1.390 . S
C1130 H1132 0.931 . S
C1131 C1129 1.321 . S
C1131 C1130 1.390 . S
C1131 H1133 0.930 . S
H1132 C1130 0.931 . S
H1133 C1131 0.930 . S
H1134 C1157 0.931 . S
H1135 C1123 0.929 . S
H1136 C1158 0.930 . S
H1137 C1129 0.931 . S
H1138 C1119 0.930 . S
H1139 C1148 0.929 . S
H1140 C1124 0.931 . S
H1141 C1125 0.930 . S
H1142 C1180 0.930 . S
H1143 C1121 0.929 . S
H1144 C1149 0.931 . S
H1145 C1150 0.930 . S
N1146 Gd1126 2.622 . S
N1146 C1147 1.369 . S
N1146 C1148 1.338 . S
C1147 N1146 1.369 . S
C1147 C1151 1.415 . S
C1147 C1154 1.422 . S
C1148 H1139 0.929 . S
C1148 N1146 1.338 . S
C1148 C1150 1.378 . S
C1149 H1144 0.931 . S
C1149 C1150 1.348 . S
C1149 C1151 1.413 . S
C1150 H1145 0.930 . S
C1150 C1148 1.378 . S
C1150 C1149 1.348 . S
C1151 C1147 1.415 . S
C1151 C1149 1.413 . S
C1151 C1181 1.437 . S
H1152 C1181 0.929 . S
N1153 Gd1126 2.570 . S
N1153 C1154 1.359 . S
N1153 C1157 1.343 . S
C1154 C1147 1.422 . S
C1154 N1153 1.359 . S
C1154 C1156 1.421 . S
C1155 C1156 1.422 . S
C1155 C1158 1.321 . S
C1155 H1182 0.931 . S
C1156 C1154 1.421 . S
C1156 C1155 1.422 . S
C1156 C1180 1.417 . S
C1157 H1134 0.931 . S
C1157 N1153 1.343 . S
C1157 C1158 1.390 . S
C1158 H1136 0.930 . S
C1158 C1155 1.321 . S
C1158 C1157 1.390 . S
O1159 Gd1127 2.386 . S
O1159 C1171 1.265 . S
O1160 Gd1126 2.353 . S
O1160 C1171 1.242 . S
O1161 Gd1126 2.468 . S
O1161 C1179 1.263 . S
O1162 Gd1126 2.427 . S
O1162 C1179 1.252 . S
O1163 Gd1127 2.307 . S
O1163 C1172 1.261 . S
O1164 Gd1126 2.388 . S
O1164 C1172 1.252 . S
O1165 Gd1126 2.386 . S
O1165 C1183 1.265 . S
O1166 Gd1127 2.353 . S
O1166 C1183 1.242 . S
O1167 Gd1127 2.468 . S
O1167 C1191 1.263 . S
O1168 Gd1127 2.427 . S
O1168 C1191 1.252 . S
O1169 Gd1126 2.307 . S
O1169 C1184 1.261 . S
O1170 Gd1127 2.388 . S
O1170 C1184 1.252 . S
C1171 O1159 1.265 . S
C1171 O1160 1.242 . S
C1172 O1163 1.261 . S
C1172 O1164 1.252 . S
C1173 C1176 1.394 . S
C1173 C1178 1.370 . S
C1173 C1179 1.500 . S
C1174 C1177 1.383 . S
C1174 C1178 1.395 . S
C1175 C1176 1.396 . S
C1175 C1177 1.365 . S
C1175 H1192 0.929 . S
C1176 C1173 1.394 . S
C1176 C1175 1.396 . S
C1176 H1193 0.930 . S
C1177 C1174 1.383 . S
C1177 C1175 1.365 . S
C1177 H1194 0.931 . S
C1178 C1173 1.370 . S
C1178 C1174 1.395 . S
C1178 H1195 0.930 . S
C1179 Gd1126 2.805 . S
C1179 O1161 1.263 . S
C1179 O1162 1.252 . S
C1179 C1173 1.500 . S
C1180 H1142 0.930 . S
C1180 C1156 1.417 . S
C1180 C1181 1.329 . S
C1181 C1151 1.437 . S
C1181 H1152 0.929 . S
C1181 C1180 1.329 . S
H1182 C1155 0.931 . S
C1183 O1165 1.265 . S
C1183 O1166 1.242 . S
C1184 O1169 1.261 . S
C1184 O1170 1.252 . S
C1185 C1188 1.394 . S
C1185 C1190 1.370 . S
C1185 C1191 1.500 . S
C1186 C1189 1.383 . S
C1186 C1190 1.395 . S
C1187 C1188 1.396 . S
C1187 C1189 1.365 . S
C1187 H1196 0.929 . S
C1188 C1185 1.394 . S
C1188 C1187 1.396 . S
C1188 H1197 0.930 . S
C1189 C1186 1.383 . S
C1189 C1187 1.365 . S
C1189 H1198 0.931 . S
C1190 C1185 1.370 . S
C1190 C1186 1.395 . S
C1190 H1199 0.930 . S
C1191 Gd1127 2.805 . S
C1191 O1167 1.263 . S
C1191 O1168 1.252 . S
C1191 C1185 1.500 . S
H1192 C1175 0.929 . S
H1193 C1176 0.930 . S
H1194 C1177 0.931 . S
H1195 C1178 0.930 . S
H1196 C1187 0.929 . S
H1197 C1188 0.930 . S
H1198 C1189 0.931 . S
H1199 C1190 0.930 . S
C1200 C1202 1.422 . S
C1200 C1204 1.415 1_455 S
C1200 N1206 1.369 1_455 S
C1201 C1202 1.421 . S
C1201 C1203 1.417 . S
C1201 C1213 1.422 . S
C1202 C1200 1.422 . S
C1202 C1201 1.421 . S
C1202 N1212 1.359 . S
C1203 C1201 1.417 . S
C1203 C1205 1.329 . S
C1203 H1222 0.930 . S
C1204 C1200 1.415 1_655 S
C1204 C1205 1.437 1_655 S
C1204 C1208 1.413 . S
C1205 C1203 1.329 . S
C1205 C1204 1.437 1_455 S
C1205 H1227 0.929 1_455 S
N1206 C1200 1.369 1_655 S
N1206 C1207 1.338 . S
N1206 Gd1211 2.622 1_655 S
C1207 N1206 1.338 . S
C1207 C1209 1.378 . S
C1207 H1219 0.929 . S
C1208 C1204 1.413 . S
C1208 C1209 1.348 . S
C1208 H1224 0.931 . S
C1209 C1207 1.378 . S
C1209 C1208 1.348 . S
C1209 H1225 0.930 . S
Gd1210 N1230 2.623 1_545 S
Gd1210 N1237 2.572 1_545 S
Gd1210 O1244 2.352 . S
Gd1210 O1245 2.471 1_545 S
Gd1210 O1246 2.430 1_545 S
Gd1210 O1248 2.385 . S
Gd1210 O1249 2.384 . S
Gd1210 O1253 2.306 . S
Gd1210 C1263 2.809 1_545 S
Gd1211 N1206 2.622 1_455 S
Gd1211 N1212 2.570 . S
Gd1211 O1243 2.386 . S
Gd1211 O1247 2.307 . S
Gd1211 O1250 2.353 . S
Gd1211 O1251 2.468 . S
Gd1211 O1252 2.427 1_455 S
Gd1211 O1254 2.388 1_455 S
Gd1211 C1275 2.805 . S
N1212 C1202 1.359 . S
N1212 Gd1211 2.570 . S
N1212 C1214 1.343 . S
C1213 C1201 1.422 . S
C1213 C1215 1.321 . S
C1213 H1221 0.931 . S
C1214 N1212 1.343 . S
C1214 C1215 1.390 . S
C1214 H1216 0.931 . S
C1215 C1213 1.321 . S
C1215 C1214 1.390 . S
C1215 H1217 0.930 . S
H1216 C1214 0.931 . S
H1217 C1215 0.930 . S
H1218 C1241 0.931 . S
H1219 C1207 0.929 . S
H1220 C1242 0.930 . S
H1221 C1213 0.931 . S
H1222 C1203 0.930 . S
H1223 C1232 0.929 1_545 S
H1224 C1208 0.931 . S
H1225 C1209 0.930 . S
H1226 C1264 0.930 . S
H1227 C1205 0.929 1_655 S
H1228 C1233 0.931 . S
H1229 C1234 0.944 . S
N1230 Gd1210 2.623 1_565 S
N1230 C1231 1.369 . S
N1230 C1232 1.338 . S
C1231 N1230 1.369 . S
C1231 C1235 1.415 . S
C1231 C1238 1.422 . S
C1232 H1223 0.929 1_565 S
C1232 N1230 1.338 . S
C1232 C1234 1.378 . S
C1233 H1228 0.931 . S
C1233 C1234 1.348 . S
C1233 C1235 1.413 . S
C1234 H1229 0.944 . S
C1234 C1232 1.378 . S
C1234 C1233 1.348 . S
C1235 C1231 1.415 . S
C1235 C1233 1.413 . S
C1235 C1265 1.437 . S
H1236 C1265 0.929 . S
N1237 Gd1210 2.572 1_565 S
N1237 C1238 1.359 . S
N1237 C1241 1.343 1_455 S
C1238 C1231 1.422 . S
C1238 N1237 1.359 . S
C1238 C1240 1.421 . S
C1239 C1240 1.422 1_655 S
C1239 C1242 1.321 . S
C1239 H1266 0.931 . S
C1240 C1238 1.421 . S
C1240 C1239 1.422 1_455 S
C1240 C1264 1.417 . S
C1241 H1218 0.931 . S
C1241 N1237 1.343 1_655 S
C1241 C1242 1.390 . S
C1242 H1220 0.930 . S
C1242 C1239 1.321 . S
C1242 C1241 1.390 . S
O1243 Gd1211 2.386 . S
O1243 C1255 1.265 . S
O1244 Gd1210 2.352 . S
O1244 C1255 1.242 . S
O1245 Gd1210 2.471 1_565 S
O1245 C1263 1.263 . S
O1246 Gd1210 2.430 1_565 S
O1246 C1263 1.252 . S
O1247 Gd1211 2.307 . S
O1247 C1256 1.261 . S
O1248 Gd1210 2.385 . S
O1248 C1256 1.252 . S
O1249 Gd1210 2.384 . S
O1249 C1267 1.265 . S
O1250 Gd1211 2.353 . S
O1250 C1267 1.242 . S
O1251 Gd1211 2.468 . S
O1251 C1275 1.263 . S
O1252 Gd1211 2.427 1_655 S
O1252 C1275 1.252 1_655 S
O1253 Gd1210 2.306 . S
O1253 C1268 1.261 1_455 S
O1254 Gd1211 2.388 1_655 S
O1254 C1268 1.252 . S
C1255 O1243 1.265 . S
C1255 O1244 1.242 . S
C1256 O1247 1.261 . S
C1256 O1248 1.252 . S
C1257 C1260 1.394 . S
C1257 C1262 1.370 . S
C1257 C1263 1.500 . S
C1258 C1261 1.383 . S
C1258 C1262 1.395 . S
C1259 C1260 1.396 . S
C1259 C1261 1.365 . S
C1259 H1276 0.929 . S
C1260 C1257 1.394 . S
C1260 C1259 1.396 . S
C1260 H1277 0.930 . S
C1261 C1258 1.383 . S
C1261 C1259 1.365 . S
C1261 H1278 0.931 . S
C1262 C1257 1.370 . S
C1262 C1258 1.395 . S
C1262 H1279 0.930 . S
C1263 Gd1210 2.809 1_565 S
C1263 O1245 1.263 . S
C1263 O1246 1.252 . S
C1263 C1257 1.500 . S
C1264 H1226 0.930 . S
C1264 C1240 1.417 . S
C1264 C1265 1.329 . S
C1265 C1235 1.437 . S
C1265 H1236 0.929 . S
C1265 C1264 1.329 . S
H1266 C1239 0.931 . S
C1267 O1249 1.265 . S
C1267 O1250 1.242 . S
C1268 O1253 1.261 1_655 S
C1268 O1254 1.252 . S
C1269 C1272 1.394 1_455 S
C1269 C1274 1.370 . S
C1269 C1275 1.500 . S
C1270 C1273 1.383 1_455 S
C1270 C1274 1.395 . S
C1271 C1272 1.396 . S
C1271 C1273 1.365 . S
C1271 H1280 0.929 . S
C1272 C1269 1.394 1_655 S
C1272 C1271 1.396 . S
C1272 H1281 0.930 . S
C1273 C1270 1.383 1_655 S
C1273 C1271 1.365 . S
C1273 H1282 0.931 . S
C1274 C1269 1.370 . S
C1274 C1270 1.395 . S
C1274 H1283 0.930 . S
C1275 Gd1211 2.805 . S
C1275 O1251 1.263 . S
C1275 O1252 1.252 1_455 S
C1275 C1269 1.500 . S
H1276 C1259 0.929 . S
H1277 C1260 0.930 . S
H1278 C1261 0.931 . S
H1279 C1262 0.930 . S
H1280 C1271 0.929 . S
H1281 C1272 0.930 . S
H1282 C1273 0.931 . S
H1283 C1274 0.930 . S
C1284 C1286 1.422 . S
C1284 C1288 1.415 . S
C1284 N1290 1.369 . S
C1285 C1286 1.421 . S
C1285 C1287 1.417 . S
C1285 C1297 1.422 . S
C1286 C1284 1.422 . S
C1286 C1285 1.421 . S
C1286 N1296 1.359 . S
C1287 C1285 1.417 . S
C1287 C1289 1.329 . S
C1287 H1306 0.930 . S
C1288 C1284 1.415 . S
C1288 C1289 1.437 . S
C1288 C1292 1.413 . S
C1289 C1287 1.329 . S
C1289 C1288 1.437 . S
C1289 H1311 0.929 . S
N1290 C1284 1.369 . S
N1290 C1291 1.338 . S
N1290 Gd1295 2.622 . S
C1291 N1290 1.338 . S
C1291 C1293 1.378 . S
C1291 H1303 0.929 . S
C1292 C1288 1.413 . S
C1292 C1293 1.348 . S
C1292 H1308 0.931 . S
C1293 C1291 1.378 . S
C1293 C1292 1.348 . S
C1293 H1309 0.930 . S
Gd1294 N1314 2.622 . S
Gd1294 N1321 2.570 . S
Gd1294 O1328 2.353 . S
Gd1294 O1329 2.468 . S
Gd1294 O1330 2.427 . S
Gd1294 O1332 2.388 . S
Gd1294 O1333 2.386 . S
Gd1294 O1337 2.307 . S
Gd1294 C1347 2.805 . S
Gd1295 N1290 2.622 . S
Gd1295 N1296 2.570 . S
Gd1295 O1327 2.386 . S
Gd1295 O1331 2.307 . S
Gd1295 O1334 2.353 . S
Gd1295 O1335 2.468 . S
Gd1295 O1336 2.427 . S
Gd1295 O1338 2.388 . S
Gd1295 C1359 2.805 . S
N1296 C1286 1.359 . S
N1296 Gd1295 2.570 . S
N1296 C1298 1.343 . S
C1297 C1285 1.422 . S
C1297 C1299 1.321 . S
C1297 H1305 0.931 . S
C1298 N1296 1.343 . S
C1298 C1299 1.390 . S
C1298 H1300 0.931 . S
C1299 C1297 1.321 . S
C1299 C1298 1.390 . S
C1299 H1301 0.930 . S
H1300 C1298 0.931 . S
H1301 C1299 0.930 . S
H1302 C1325 0.931 . S
H1303 C1291 0.929 . S
H1304 C1326 0.930 . S
H1305 C1297 0.931 . S
H1306 C1287 0.930 . S
H1307 C1316 0.929 . S
H1308 C1292 0.931 . S
H1309 C1293 0.930 . S
H1310 C1348 0.930 . S
H1311 C1289 0.929 . S
H1312 C1317 0.931 . S
H1313 C1318 0.930 . S
N1314 Gd1294 2.622 . S
N1314 C1315 1.369 . S
N1314 C1316 1.338 . S
C1315 N1314 1.369 . S
C1315 C1319 1.415 . S
C1315 C1322 1.422 . S
C1316 H1307 0.929 . S
C1316 N1314 1.338 . S
C1316 C1318 1.378 . S
C1317 H1312 0.931 . S
C1317 C1318 1.348 . S
C1317 C1319 1.413 . S
C1318 H1313 0.930 . S
C1318 C1316 1.378 . S
C1318 C1317 1.348 . S
C1319 C1315 1.415 . S
C1319 C1317 1.413 . S
C1319 C1349 1.437 . S
H1320 C1349 0.929 . S
N1321 Gd1294 2.570 . S
N1321 C1322 1.359 . S
N1321 C1325 1.343 . S
C1322 C1315 1.422 . S
C1322 N1321 1.359 . S
C1322 C1324 1.421 . S
C1323 C1324 1.422 . S
C1323 C1326 1.321 . S
C1323 H1350 0.931 . S
C1324 C1322 1.421 . S
C1324 C1323 1.422 . S
C1324 C1348 1.417 . S
C1325 H1302 0.931 . S
C1325 N1321 1.343 . S
C1325 C1326 1.390 . S
C1326 H1304 0.930 . S
C1326 C1323 1.321 . S
C1326 C1325 1.390 . S
O1327 Gd1295 2.386 . S
O1327 C1339 1.265 . S
O1328 Gd1294 2.353 . S
O1328 C1339 1.242 . S
O1329 Gd1294 2.468 . S
O1329 C1347 1.263 . S
O1330 Gd1294 2.427 . S
O1330 C1347 1.252 . S
O1331 Gd1295 2.307 . S
O1331 C1340 1.261 . S
O1332 Gd1294 2.388 . S
O1332 C1340 1.252 . S
O1333 Gd1294 2.386 . S
O1333 C1351 1.265 . S
O1334 Gd1295 2.353 . S
O1334 C1351 1.242 . S
O1335 Gd1295 2.468 . S
O1335 C1359 1.263 . S
O1336 Gd1295 2.427 . S
O1336 C1359 1.252 . S
O1337 Gd1294 2.307 . S
O1337 C1352 1.261 . S
O1338 Gd1295 2.388 . S
O1338 C1352 1.252 . S
C1339 O1327 1.265 . S
C1339 O1328 1.242 . S
C1340 O1331 1.261 . S
C1340 O1332 1.252 . S
C1341 C1344 1.394 . S
C1341 C1346 1.370 . S
C1341 C1347 1.500 . S
C1342 C1345 1.383 . S
C1342 C1346 1.395 . S
C1343 C1344 1.396 . S
C1343 C1345 1.365 . S
C1343 H1360 0.929 . S
C1344 C1341 1.394 . S
C1344 C1343 1.396 . S
C1344 H1361 0.930 . S
C1345 C1342 1.383 . S
C1345 C1343 1.365 . S
C1345 H1362 0.931 . S
C1346 C1341 1.370 . S
C1346 C1342 1.395 . S
C1346 H1363 0.930 . S
C1347 Gd1294 2.805 . S
C1347 O1329 1.263 . S
C1347 O1330 1.252 . S
C1347 C1341 1.500 . S
C1348 H1310 0.930 . S
C1348 C1324 1.417 . S
C1348 C1349 1.329 . S
C1349 C1319 1.437 . S
C1349 H1320 0.929 . S
C1349 C1348 1.329 . S
H1350 C1323 0.931 . S
C1351 O1333 1.265 . S
C1351 O1334 1.242 . S
C1352 O1337 1.261 . S
C1352 O1338 1.252 . S
C1353 C1356 1.394 . S
C1353 C1358 1.370 . S
C1353 C1359 1.500 . S
C1354 C1357 1.383 . S
C1354 C1358 1.395 . S
C1355 C1356 1.396 . S
C1355 C1357 1.365 . S
C1355 H1364 0.929 . S
C1356 C1353 1.394 . S
C1356 C1355 1.396 . S
C1356 H1365 0.930 . S
C1357 C1354 1.383 . S
C1357 C1355 1.365 . S
C1357 H1366 0.931 . S
C1358 C1353 1.370 . S
C1358 C1354 1.395 . S
C1358 H1367 0.930 . S
C1359 Gd1295 2.805 . S
C1359 O1335 1.263 . S
C1359 O1336 1.252 . S
C1359 C1353 1.500 . S
H1360 C1343 0.929 . S
H1361 C1344 0.930 . S
H1362 C1345 0.931 . S
H1363 C1346 0.930 . S
H1364 C1355 0.929 . S
H1365 C1356 0.930 . S
H1366 C1357 0.931 . S
H1367 C1358 0.930 . S
C1368 C1370 1.422 . S
C1368 C1372 1.415 1_545 S
C1368 N1374 1.369 1_545 S
C1369 C1370 1.421 . S
C1369 C1371 1.417 . S
C1369 C1381 1.422 . S
C1370 C1368 1.422 . S
C1370 C1369 1.421 . S
C1370 N1380 1.359 . S
C1371 C1369 1.417 . S
C1371 C1373 1.329 . S
C1371 H1390 0.930 . S
C1372 C1368 1.415 1_565 S
C1372 C1373 1.437 1_565 S
C1372 C1376 1.413 . S
C1373 C1371 1.329 . S
C1373 C1372 1.437 1_545 S
C1373 H1395 0.929 1_545 S
N1374 C1368 1.369 1_565 S
N1374 C1375 1.338 . S
N1374 Gd1379 2.622 1_565 S
C1375 N1374 1.338 . S
C1375 C1377 1.378 . S
C1375 H1387 0.929 . S
C1376 C1372 1.413 . S
C1376 C1377 1.348 . S
C1376 H1392 0.931 . S
C1377 C1375 1.378 . S
C1377 C1376 1.348 . S
C1377 H1393 0.930 . S
Gd1378 N1398 2.622 . S
Gd1378 N1405 2.570 . S
Gd1378 O1412 2.353 1_556 S
Gd1378 O1413 2.468 . S
Gd1378 O1414 2.427 . S
Gd1378 O1416 2.388 1_556 S
Gd1378 O1417 2.386 1_556 S
Gd1378 O1421 2.307 1_556 S
Gd1378 C1431 2.805 . S
Gd1379 N1374 2.622 1_545 S
Gd1379 N1380 2.570 . S
Gd1379 O1411 2.386 . S
Gd1379 O1415 2.307 . S
Gd1379 O1418 2.353 . S
Gd1379 O1419 2.468 . S
Gd1379 O1420 2.427 1_545 S
Gd1379 O1422 2.388 1_545 S
Gd1379 C1443 2.805 . S
N1380 C1370 1.359 . S
N1380 Gd1379 2.570 . S
N1380 C1382 1.343 . S
C1381 C1369 1.422 . S
C1381 C1383 1.321 . S
C1381 H1389 0.931 . S
C1382 N1380 1.343 . S
C1382 C1383 1.390 . S
C1382 H1384 0.931 . S
C1383 C1381 1.321 . S
C1383 C1382 1.390 . S
C1383 H1385 0.930 . S
H1384 C1382 0.931 . S
H1385 C1383 0.930 . S
H1386 C1409 0.931 . S
H1387 C1375 0.929 . S
H1388 C1410 0.900 1_565 S
H1389 C1381 0.931 . S
H1390 C1371 0.930 . S
H1391 C1400 0.929 1_554 S
H1392 C1376 0.931 . S
H1393 C1377 0.930 . S
H1394 C1432 0.930 . S
H1395 C1373 0.929 1_565 S
H1396 C1401 0.931 . S
H1397 C1402 0.930 . S
N1398 Gd1378 2.622 . S
N1398 C1399 1.369 . S
N1398 C1400 1.338 . S
C1399 N1398 1.369 . S
C1399 C1403 1.415 . S
C1399 C1406 1.422 . S
C1400 H1391 0.929 1_556 S
C1400 N1398 1.338 . S
C1400 C1402 1.378 . S
C1401 H1396 0.931 . S
C1401 C1402 1.348 . S
C1401 C1403 1.413 . S
C1402 H1397 0.930 . S
C1402 C1400 1.378 . S
C1402 C1401 1.348 . S
C1403 C1399 1.415 . S
C1403 C1401 1.413 . S
C1403 C1433 1.437 . S
H1404 C1433 0.929 . S
N1405 Gd1378 2.570 . S
N1405 C1406 1.359 . S
N1405 C1409 1.343 . S
C1406 C1399 1.422 . S
C1406 N1405 1.359 . S
C1406 C1408 1.421 . S
C1407 C1408 1.422 . S
C1407 C1410 1.343 . S
C1407 H1434 0.931 . S
C1408 C1406 1.421 . S
C1408 C1407 1.422 . S
C1408 C1432 1.417 . S
C1409 H1386 0.931 . S
C1409 N1405 1.343 . S
C1409 C1410 1.398 . S
C1410 H1388 0.900 1_545 S
C1410 C1407 1.343 . S
C1410 C1409 1.398 . S
O1411 Gd1379 2.386 . S
O1411 C1423 1.265 . S
O1412 Gd1378 2.353 1_554 S
O1412 C1423 1.242 . S
O1413 Gd1378 2.468 . S
O1413 C1431 1.263 . S
O1414 Gd1378 2.427 . S
O1414 C1431 1.252 . S
O1415 Gd1379 2.307 . S
O1415 C1424 1.261 . S
O1416 Gd1378 2.388 1_554 S
O1416 C1424 1.252 . S
O1417 Gd1378 2.386 1_554 S
O1417 C1435 1.265 . S
O1418 Gd1379 2.353 . S
O1418 C1435 1.242 . S
O1419 Gd1379 2.468 . S
O1419 C1443 1.263 . S
O1420 Gd1379 2.427 1_565 S
O1420 C1443 1.252 1_565 S
O1421 Gd1378 2.307 1_554 S
O1421 C1436 1.261 1_545 S
O1422 Gd1379 2.388 1_565 S
O1422 C1436 1.252 . S
C1423 O1411 1.265 . S
C1423 O1412 1.242 . S
C1424 O1415 1.261 . S
C1424 O1416 1.252 . S
C1425 C1428 1.394 . S
C1425 C1430 1.370 . S
C1425 C1431 1.500 . S
C1426 C1429 1.383 . S
C1426 C1430 1.395 . S
C1427 C1428 1.396 . S
C1427 C1429 1.365 . S
C1427 H1444 0.929 . S
C1428 C1425 1.394 . S
C1428 C1427 1.396 . S
C1428 H1445 0.930 . S
C1429 C1426 1.383 . S
C1429 C1427 1.365 . S
C1429 H1446 0.931 . S
C1430 C1425 1.370 . S
C1430 C1426 1.395 . S
C1430 H1447 0.930 . S
C1431 Gd1378 2.805 . S
C1431 O1413 1.263 . S
C1431 O1414 1.252 . S
C1431 C1425 1.500 . S
C1432 H1394 0.930 . S
C1432 C1408 1.417 . S
C1432 C1433 1.329 . S
C1433 C1403 1.437 . S
C1433 H1404 0.929 . S
C1433 C1432 1.329 . S
H1434 C1407 0.931 . S
C1435 O1417 1.265 . S
C1435 O1418 1.242 . S
C1436 O1421 1.261 1_565 S
C1436 O1422 1.252 . S
C1437 C1440 1.394 . S
C1437 C1442 1.370 1_565 S
C1437 C1443 1.500 1_565 S
C1438 C1441 1.383 1_545 S
C1438 C1442 1.395 . S
C1439 C1440 1.396 . S
C1439 C1441 1.365 . S
C1439 H1448 0.929 . S
C1440 C1437 1.394 . S
C1440 C1439 1.396 . S
C1440 H1449 0.930 . S
C1441 C1438 1.383 1_565 S
C1441 C1439 1.365 . S
C1441 H1450 0.931 . S
C1442 C1437 1.370 1_545 S
C1442 C1438 1.395 . S
C1442 H1451 0.930 . S
C1443 Gd1379 2.805 . S
C1443 O1419 1.263 . S
C1443 O1420 1.252 1_545 S
C1443 C1437 1.500 1_545 S
H1444 C1427 0.929 . S
H1445 C1428 0.930 . S
H1446 C1429 0.931 . S
H1447 C1430 0.930 . S
H1448 C1439 0.929 . S
H1449 C1440 0.930 . S
H1450 C1441 0.931 . S
H1451 C1442 0.930 . S
C1452 C1454 1.422 . S
C1452 C1456 1.415 . S
C1452 N1458 1.369 . S
C1453 C1454 1.421 . S
C1453 C1455 1.417 . S
C1453 C1465 1.422 . S
C1454 C1452 1.422 . S
C1454 C1453 1.421 . S
C1454 N1464 1.359 . S
C1455 C1453 1.417 . S
C1455 C1457 1.329 . S
C1455 H1474 0.930 . S
C1456 C1452 1.415 . S
C1456 C1457 1.437 . S
C1456 C1460 1.413 . S
C1457 C1455 1.329 . S
C1457 C1456 1.437 . S
C1457 H1479 0.929 . S
N1458 C1452 1.369 . S
N1458 C1459 1.338 . S
N1458 Gd1463 2.622 . S
C1459 N1458 1.338 . S
C1459 C1461 1.378 . S
C1459 H1471 0.929 . S
C1460 C1456 1.413 . S
C1460 C1461 1.348 . S
C1460 H1476 0.931 . S
C1461 C1459 1.378 . S
C1461 C1460 1.348 . S
C1461 H1477 0.930 . S
Gd1462 N1482 2.622 . S
Gd1462 N1489 2.570 . S
Gd1462 O1496 2.353 . S
Gd1462 O1497 2.468 . S
Gd1462 O1498 2.427 . S
Gd1462 O1500 2.388 . S
Gd1462 O1501 2.386 . S
Gd1462 O1505 2.307 . S
Gd1462 C1515 2.805 . S
Gd1463 N1458 2.622 . S
Gd1463 N1464 2.570 . S
Gd1463 O1495 2.386 . S
Gd1463 O1499 2.307 . S
Gd1463 O1502 2.353 . S
Gd1463 O1503 2.468 . S
Gd1463 O1504 2.427 . S
Gd1463 O1506 2.388 . S
Gd1463 C1527 2.805 . S
N1464 C1454 1.359 . S
N1464 Gd1463 2.570 . S
N1464 C1466 1.343 . S
C1465 C1453 1.422 . S
C1465 C1467 1.321 . S
C1465 H1473 0.931 . S
C1466 N1464 1.343 . S
C1466 C1467 1.390 . S
C1466 H1468 0.931 . S
C1467 C1465 1.321 . S
C1467 C1466 1.390 . S
C1467 H1469 0.930 . S
H1468 C1466 0.931 . S
H1469 C1467 0.930 . S
H1470 C1493 0.931 . S
H1471 C1459 0.929 . S
H1472 C1494 0.930 . S
H1473 C1465 0.931 . S
H1474 C1455 0.930 . S
H1475 C1484 0.929 . S
H1476 C1460 0.931 . S
H1477 C1461 0.930 . S
H1478 C1516 0.930 . S
H1479 C1457 0.929 . S
H1480 C1485 0.931 . S
H1481 C1486 0.930 . S
N1482 Gd1462 2.622 . S
N1482 C1483 1.369 . S
N1482 C1484 1.338 . S
C1483 N1482 1.369 . S
C1483 C1487 1.415 . S
C1483 C1490 1.422 . S
C1484 H1475 0.929 . S
C1484 N1482 1.338 . S
C1484 C1486 1.378 . S
C1485 H1480 0.931 . S
C1485 C1486 1.348 . S
C1485 C1487 1.413 . S
C1486 H1481 0.930 . S
C1486 C1484 1.378 . S
C1486 C1485 1.348 . S
C1487 C1483 1.415 . S
C1487 C1485 1.413 . S
C1487 C1517 1.437 . S
H1488 C1517 0.929 . S
N1489 Gd1462 2.570 . S
N1489 C1490 1.359 . S
N1489 C1493 1.343 . S
C1490 C1483 1.422 . S
C1490 N1489 1.359 . S
C1490 C1492 1.421 . S
C1491 C1492 1.422 . S
C1491 C1494 1.321 . S
C1491 H1518 0.931 . S
C1492 C1490 1.421 . S
C1492 C1491 1.422 . S
C1492 C1516 1.417 . S
C1493 H1470 0.931 . S
C1493 N1489 1.343 . S
C1493 C1494 1.390 . S
C1494 H1472 0.930 . S
C1494 C1491 1.321 . S
C1494 C1493 1.390 . S
O1495 Gd1463 2.386 . S
O1495 C1507 1.265 . S
O1496 Gd1462 2.353 . S
O1496 C1507 1.242 . S
O1497 Gd1462 2.468 . S
O1497 C1515 1.263 . S
O1498 Gd1462 2.427 . S
O1498 C1515 1.252 . S
O1499 Gd1463 2.307 . S
O1499 C1508 1.261 . S
O1500 Gd1462 2.388 . S
O1500 C1508 1.252 . S
O1501 Gd1462 2.386 . S
O1501 C1519 1.265 . S
O1502 Gd1463 2.353 . S
O1502 C1519 1.242 . S
O1503 Gd1463 2.468 . S
O1503 C1527 1.263 . S
O1504 Gd1463 2.427 . S
O1504 C1527 1.252 . S
O1505 Gd1462 2.307 . S
O1505 C1520 1.261 . S
O1506 Gd1463 2.388 . S
O1506 C1520 1.252 . S
C1507 O1495 1.265 . S
C1507 O1496 1.242 . S
C1508 O1499 1.261 . S
C1508 O1500 1.252 . S
C1509 C1512 1.394 . S
C1509 C1514 1.370 . S
C1509 C1515 1.500 . S
C1510 C1513 1.383 . S
C1510 C1514 1.395 . S
C1511 C1512 1.396 . S
C1511 C1513 1.365 . S
C1511 H1528 0.929 . S
C1512 C1509 1.394 . S
C1512 C1511 1.396 . S
C1512 H1529 0.930 . S
C1513 C1510 1.383 . S
C1513 C1511 1.365 . S
C1513 H1530 0.931 . S
C1514 C1509 1.370 . S
C1514 C1510 1.395 . S
C1514 H1531 0.930 . S
C1515 Gd1462 2.805 . S
C1515 O1497 1.263 . S
C1515 O1498 1.252 . S
C1515 C1509 1.500 . S
C1516 H1478 0.930 . S
C1516 C1492 1.417 . S
C1516 C1517 1.329 . S
C1517 C1487 1.437 . S
C1517 H1488 0.929 . S
C1517 C1516 1.329 . S
H1518 C1491 0.931 . S
C1519 O1501 1.265 . S
C1519 O1502 1.242 . S
C1520 O1505 1.261 . S
C1520 O1506 1.252 . S
C1521 C1524 1.394 . S
C1521 C1526 1.370 . S
C1521 C1527 1.500 . S
C1522 C1525 1.383 . S
C1522 C1526 1.395 . S
C1523 C1524 1.396 . S
C1523 C1525 1.365 . S
C1523 H1532 0.929 . S
C1524 C1521 1.394 . S
C1524 C1523 1.396 . S
C1524 H1533 0.930 . S
C1525 C1522 1.383 . S
C1525 C1523 1.365 . S
C1525 H1534 0.931 . S
C1526 C1521 1.370 . S
C1526 C1522 1.395 . S
C1526 H1535 0.930 . S
C1527 Gd1463 2.805 . S
C1527 O1503 1.263 . S
C1527 O1504 1.252 . S
C1527 C1521 1.500 . S
H1528 C1511 0.929 . S
H1529 C1512 0.930 . S
H1530 C1513 0.931 . S
H1531 C1514 0.930 . S
H1532 C1523 0.929 . S
H1533 C1524 0.930 . S
H1534 C1525 0.931 . S
H1535 C1526 0.930 . S
C1536 C1538 1.422 . S
C1536 C1540 1.415 . S
C1536 N1542 1.369 . S
C1537 C1538 1.421 . S
C1537 C1539 1.417 . S
C1537 C1549 1.422 . S
C1538 C1536 1.422 . S
C1538 C1537 1.421 . S
C1538 N1548 1.359 . S
C1539 C1537 1.417 . S
C1539 C1541 1.329 . S
C1539 H1558 0.930 . S
C1540 C1536 1.415 . S
C1540 C1541 1.437 . S
C1540 C1544 1.413 . S
C1541 C1539 1.329 . S
C1541 C1540 1.437 . S
C1541 H1563 0.929 . S
N1542 C1536 1.369 . S
N1542 C1543 1.338 . S
N1542 Gd1547 2.622 . S
C1543 N1542 1.338 . S
C1543 C1545 1.378 . S
C1543 H1555 0.929 . S
C1544 C1540 1.413 . S
C1544 C1545 1.348 . S
C1544 H1560 0.931 . S
C1545 C1543 1.378 . S
C1545 C1544 1.348 . S
C1545 H1561 0.930 . S
Gd1546 N1566 2.622 1_554 S
Gd1546 N1573 2.570 1_554 S
Gd1546 O1580 2.353 . S
Gd1546 O1581 2.468 . S
Gd1546 O1582 2.427 . S
Gd1546 O1584 2.388 . S
Gd1546 O1585 2.386 1_554 S
Gd1546 O1589 2.307 . S
Gd1546 C1599 2.805 . S
Gd1547 N1542 2.622 . S
Gd1547 N1548 2.570 . S
Gd1547 O1579 2.386 . S
Gd1547 O1583 2.307 . S
Gd1547 O1586 2.353 1_554 S
Gd1547 O1587 2.468 . S
Gd1547 O1588 2.427 . S
Gd1547 O1590 2.388 . S
Gd1547 C1611 2.805 . S
N1548 C1538 1.359 . S
N1548 Gd1547 2.570 . S
N1548 C1550 1.343 . S
C1549 C1537 1.422 . S
C1549 C1551 1.321 . S
C1549 H1557 0.931 . S
C1550 N1548 1.343 . S
C1550 C1551 1.390 . S
C1550 H1552 0.931 . S
C1551 C1549 1.321 . S
C1551 C1550 1.390 . S
C1551 H1553 0.930 . S
H1552 C1550 0.931 . S
H1553 C1551 0.930 . S
H1554 C1577 0.931 1_554 S
H1555 C1543 0.929 . S
H1556 C1578 0.930 . S
H1557 C1549 0.931 . S
H1558 C1539 0.930 . S
H1559 C1568 0.929 1_554 S
H1560 C1544 0.931 . S
H1561 C1545 0.930 . S
H1562 C1600 0.930 . S
H1563 C1541 0.929 . S
H1564 C1569 0.931 . S
H1565 C1570 0.930 . S
N1566 Gd1546 2.622 1_556 S
N1566 C1567 1.369 . S
N1566 C1568 1.338 . S
C1567 N1566 1.369 . S
C1567 C1571 1.415 . S
C1567 C1574 1.422 . S
C1568 H1559 0.929 1_556 S
C1568 N1566 1.338 . S
C1568 C1570 1.378 . S
C1569 H1564 0.931 . S
C1569 C1570 1.348 . S
C1569 C1571 1.413 . S
C1570 H1565 0.930 . S
C1570 C1568 1.378 . S
C1570 C1569 1.348 . S
C1571 C1567 1.415 . S
C1571 C1569 1.413 . S
C1571 C1601 1.437 . S
H1572 C1601 0.929 . S
N1573 Gd1546 2.570 1_556 S
N1573 C1574 1.359 . S
N1573 C1577 1.343 . S
C1574 C1567 1.422 . S
C1574 N1573 1.359 . S
C1574 C1576 1.421 . S
C1575 C1576 1.422 . S
C1575 C1578 1.321 . S
C1575 H1602 0.931 . S
C1576 C1574 1.421 . S
C1576 C1575 1.422 . S
C1576 C1600 1.417 . S
C1577 H1554 0.931 1_556 S
C1577 N1573 1.343 . S
C1577 C1578 1.390 . S
C1578 H1556 0.930 . S
C1578 C1575 1.321 . S
C1578 C1577 1.390 . S
O1579 Gd1547 2.386 . S
O1579 C1591 1.265 . S
O1580 Gd1546 2.353 . S
O1580 C1591 1.242 . S
O1581 Gd1546 2.468 . S
O1581 C1599 1.263 . S
O1582 Gd1546 2.427 . S
O1582 C1599 1.252 . S
O1583 Gd1547 2.307 . S
O1583 C1592 1.261 . S
O1584 Gd1546 2.388 . S
O1584 C1592 1.252 . S
O1585 Gd1546 2.386 1_556 S
O1585 C1603 1.265 . S
O1586 Gd1547 2.353 1_556 S
O1586 C1603 1.242 . S
O1587 Gd1547 2.468 . S
O1587 C1611 1.263 . S
O1588 Gd1547 2.427 . S
O1588 C1611 1.252 . S
O1589 Gd1546 2.307 . S
O1589 C1604 1.261 . S
O1590 Gd1547 2.388 . S
O1590 C1604 1.252 . S
C1591 O1579 1.265 . S
C1591 O1580 1.242 . S
C1592 O1583 1.261 . S
C1592 O1584 1.252 . S
C1593 C1596 1.394 . S
C1593 C1598 1.370 . S
C1593 C1599 1.500 . S
C1594 C1597 1.383 . S
C1594 C1598 1.395 . S
C1595 C1596 1.396 . S
C1595 C1597 1.365 . S
C1595 H1612 0.929 . S
C1596 C1593 1.394 . S
C1596 C1595 1.396 . S
C1596 H1613 0.930 . S
C1597 C1594 1.383 . S
C1597 C1595 1.365 . S
C1597 H1614 0.931 . S
C1598 C1593 1.370 . S
C1598 C1594 1.395 . S
C1598 H1615 0.930 . S
C1599 Gd1546 2.805 . S
C1599 O1581 1.263 . S
C1599 O1582 1.252 . S
C1599 C1593 1.500 . S
C1600 H1562 0.930 . S
C1600 C1576 1.417 . S
C1600 C1601 1.329 . S
C1601 C1571 1.437 . S
C1601 H1572 0.929 . S
C1601 C1600 1.329 . S
H1602 C1575 0.931 . S
C1603 O1585 1.265 . S
C1603 O1586 1.242 . S
C1604 O1589 1.261 . S
C1604 O1590 1.252 . S
C1605 C1608 1.394 . S
C1605 C1610 1.370 . S
C1605 C1611 1.500 1_556 S
C1606 C1609 1.383 . S
C1606 C1610 1.395 . S
C1607 C1608 1.396 . S
C1607 C1609 1.365 . S
C1607 H1616 0.929 . S
C1608 C1605 1.394 . S
C1608 C1607 1.396 . S
C1608 H1617 0.930 . S
C1609 C1606 1.383 . S
C1609 C1607 1.365 . S
C1609 H1618 0.931 . S
C1610 C1605 1.370 . S
C1610 C1606 1.395 . S
C1610 H1619 0.930 . S
C1611 Gd1547 2.805 . S
C1611 O1587 1.263 . S
C1611 O1588 1.252 . S
C1611 C1605 1.500 1_554 S
H1612 C1595 0.929 . S
H1613 C1596 0.930 . S
H1614 C1597 0.931 . S
H1615 C1598 0.930 . S
H1616 C1607 0.929 . S
H1617 C1608 0.930 . S
H1618 C1609 0.931 . S
H1619 C1610 0.930 . S
C1620 C1622 1.422 . S
C1620 C1624 1.415 . S
C1620 N1626 1.369 . S
C1621 C1622 1.421 . S
C1621 C1623 1.417 . S
C1621 C1633 1.422 . S
C1622 C1620 1.422 . S
C1622 C1621 1.421 . S
C1622 N1632 1.359 . S
C1623 C1621 1.417 . S
C1623 C1625 1.329 . S
C1623 H1642 0.930 . S
C1624 C1620 1.415 . S
C1624 C1625 1.437 . S
C1624 C1628 1.413 . S
C1625 C1623 1.329 . S
C1625 C1624 1.437 . S
C1625 H1647 0.929 . S
N1626 C1620 1.369 . S
N1626 C1627 1.338 . S
N1626 Gd1631 2.622 . S
C1627 N1626 1.338 . S
C1627 C1629 1.378 . S
C1627 H1639 0.929 . S
C1628 C1624 1.413 . S
C1628 C1629 1.348 . S
C1628 H1644 0.931 . S
C1629 C1627 1.378 . S
C1629 C1628 1.348 . S
C1629 H1645 0.930 . S
Gd1630 N1650 2.622 . S
Gd1630 N1657 2.570 . S
Gd1630 O1664 2.353 . S
Gd1630 O1665 2.468 . S
Gd1630 O1666 2.427 . S
Gd1630 O1668 2.388 . S
Gd1630 O1669 2.386 . S
Gd1630 O1673 2.307 . S
Gd1630 C1683 2.805 . S
Gd1631 N1626 2.622 . S
Gd1631 N1632 2.570 . S
Gd1631 O1663 2.386 . S
Gd1631 O1667 2.307 . S
Gd1631 O1670 2.353 . S
Gd1631 O1671 2.468 . S
Gd1631 O1672 2.427 . S
Gd1631 O1674 2.388 . S
Gd1631 C1695 2.805 . S
N1632 C1622 1.359 . S
N1632 Gd1631 2.570 . S
N1632 C1634 1.343 . S
C1633 C1621 1.422 . S
C1633 C1635 1.321 . S
C1633 H1641 0.931 . S
C1634 N1632 1.343 . S
C1634 C1635 1.390 . S
C1634 H1636 0.931 . S
C1635 C1633 1.321 . S
C1635 C1634 1.390 . S
C1635 H1637 0.930 . S
H1636 C1634 0.931 . S
H1637 C1635 0.930 . S
H1638 C1661 0.931 . S
H1639 C1627 0.929 . S
H1640 C1662 0.930 . S
H1641 C1633 0.931 . S
H1642 C1623 0.930 . S
H1643 C1652 0.929 . S
H1644 C1628 0.931 . S
H1645 C1629 0.930 . S
H1646 C1684 0.930 . S
H1647 C1625 0.929 . S
H1648 C1653 0.931 . S
H1649 C1654 0.930 . S
N1650 Gd1630 2.622 . S
N1650 C1651 1.369 . S
N1650 C1652 1.338 . S
C1651 N1650 1.369 . S
C1651 C1655 1.415 . S
C1651 C1658 1.422 . S
C1652 H1643 0.929 . S
C1652 N1650 1.338 . S
C1652 C1654 1.378 . S
C1653 H1648 0.931 . S
C1653 C1654 1.348 . S
C1653 C1655 1.413 . S
C1654 H1649 0.930 . S
C1654 C1652 1.378 . S
C1654 C1653 1.348 . S
C1655 C1651 1.415 . S
C1655 C1653 1.413 . S
C1655 C1685 1.437 . S
H1656 C1685 0.929 . S
N1657 Gd1630 2.570 . S
N1657 C1658 1.359 . S
N1657 C1661 1.343 . S
C1658 C1651 1.422 . S
C1658 N1657 1.359 . S
C1658 C1660 1.421 . S
C1659 C1660 1.422 . S
C1659 C1662 1.321 . S
C1659 H1686 0.931 . S
C1660 C1658 1.421 . S
C1660 C1659 1.422 . S
C1660 C1684 1.417 . S
C1661 H1638 0.931 . S
C1661 N1657 1.343 . S
C1661 C1662 1.390 . S
C1662 H1640 0.930 . S
C1662 C1659 1.321 . S
C1662 C1661 1.390 . S
O1663 Gd1631 2.386 . S
O1663 C1675 1.265 . S
O1664 Gd1630 2.353 . S
O1664 C1675 1.242 . S
O1665 Gd1630 2.468 . S
O1665 C1683 1.263 . S
O1666 Gd1630 2.427 . S
O1666 C1683 1.252 . S
O1667 Gd1631 2.307 . S
O1667 C1676 1.261 . S
O1668 Gd1630 2.388 . S
O1668 C1676 1.252 . S
O1669 Gd1630 2.386 . S
O1669 C1687 1.265 . S
O1670 Gd1631 2.353 . S
O1670 C1687 1.242 . S
O1671 Gd1631 2.468 . S
O1671 C1695 1.263 . S
O1672 Gd1631 2.427 . S
O1672 C1695 1.252 . S
O1673 Gd1630 2.307 . S
O1673 C1688 1.261 . S
O1674 Gd1631 2.388 . S
O1674 C1688 1.252 . S
C1675 O1663 1.265 . S
C1675 O1664 1.242 . S
C1676 O1667 1.261 . S
C1676 O1668 1.252 . S
C1677 C1680 1.394 . S
C1677 C1682 1.370 . S
C1677 C1683 1.500 . S
C1678 C1681 1.383 . S
C1678 C1682 1.395 . S
C1679 C1680 1.396 . S
C1679 C1681 1.365 . S
C1679 H1696 0.929 . S
C1680 C1677 1.394 . S
C1680 C1679 1.396 . S
C1680 H1697 0.930 . S
C1681 C1678 1.383 . S
C1681 C1679 1.365 . S
C1681 H1698 0.931 . S
C1682 C1677 1.370 . S
C1682 C1678 1.395 . S
C1682 H1699 0.930 . S
C1683 Gd1630 2.805 . S
C1683 O1665 1.263 . S
C1683 O1666 1.252 . S
C1683 C1677 1.500 . S
C1684 H1646 0.930 . S
C1684 C1660 1.417 . S
C1684 C1685 1.329 . S
C1685 C1655 1.437 . S
C1685 H1656 0.929 . S
C1685 C1684 1.329 . S
H1686 C1659 0.931 . S
C1687 O1669 1.265 . S
C1687 O1670 1.242 . S
C1688 O1673 1.261 . S
C1688 O1674 1.252 . S
C1689 C1692 1.394 . S
C1689 C1694 1.370 . S
C1689 C1695 1.500 . S
C1690 C1693 1.383 . S
C1690 C1694 1.395 . S
C1691 C1692 1.396 . S
C1691 C1693 1.365 . S
C1691 H1700 0.929 . S
C1692 C1689 1.394 . S
C1692 C1691 1.396 . S
C1692 H1701 0.930 . S
C1693 C1690 1.383 . S
C1693 C1691 1.365 . S
C1693 H1702 0.931 . S
C1694 C1689 1.370 . S
C1694 C1690 1.395 . S
C1694 H1703 0.930 . S
C1695 Gd1631 2.805 . S
C1695 O1671 1.263 . S
C1695 O1672 1.252 . S
C1695 C1689 1.500 . S
H1696 C1679 0.929 . S
H1697 C1680 0.930 . S
H1698 C1681 0.931 . S
H1699 C1682 0.930 . S
H1700 C1691 0.929 . S
H1701 C1692 0.930 . S
H1702 C1693 0.931 . S
H1703 C1694 0.930 . S
C1704 C1706 1.422 . S
C1704 C1708 1.415 . S
C1704 N1710 1.369 . S
C1705 C1706 1.421 . S
C1705 C1707 1.417 . S
C1705 C1717 1.422 . S
C1706 C1704 1.422 . S
C1706 C1705 1.421 . S
C1706 N1716 1.359 . S
C1707 C1705 1.417 . S
C1707 C1709 1.329 . S
C1707 H1726 0.930 . S
C1708 C1704 1.415 . S
C1708 C1709 1.437 . S
C1708 C1712 1.413 . S
C1709 C1707 1.329 . S
C1709 C1708 1.437 . S
C1709 H1731 0.929 . S
N1710 C1704 1.369 . S
N1710 C1711 1.338 . S
N1710 Gd1715 2.622 . S
C1711 N1710 1.338 . S
C1711 C1713 1.378 . S
C1711 H1723 0.929 . S
C1712 C1708 1.413 . S
C1712 C1713 1.348 . S
C1712 H1728 0.931 . S
C1713 C1711 1.378 . S
C1713 C1712 1.348 . S
C1713 H1729 0.930 . S
Gd1714 N1734 2.620 1_455 S
Gd1714 N1741 2.570 1_455 S
Gd1714 O1748 2.353 . S
Gd1714 O1749 2.468 . S
Gd1714 O1750 2.427 . S
Gd1714 O1752 2.388 . S
Gd1714 O1753 2.386 1_455 S
Gd1714 O1757 2.307 . S
Gd1714 C1767 2.805 . S
Gd1715 N1710 2.622 . S
Gd1715 N1716 2.570 . S
Gd1715 O1747 2.386 . S
Gd1715 O1751 2.307 . S
Gd1715 O1754 2.353 1_455 S
Gd1715 O1755 2.468 . S
Gd1715 O1756 2.427 . S
Gd1715 O1758 2.388 . S
Gd1715 C1779 2.805 . S
N1716 C1706 1.359 . S
N1716 Gd1715 2.570 . S
N1716 C1718 1.343 . S
C1717 C1705 1.422 . S
C1717 C1719 1.321 . S
C1717 H1725 0.931 . S
C1718 N1716 1.343 . S
C1718 C1719 1.390 . S
C1718 H1720 0.931 . S
C1719 C1717 1.321 . S
C1719 C1718 1.390 . S
C1719 H1721 0.930 . S
H1720 C1718 0.931 . S
H1721 C1719 0.930 . S
H1722 C1745 0.931 1_455 S
H1723 C1711 0.929 . S
H1724 C1746 0.930 . S
H1725 C1717 0.931 . S
H1726 C1707 0.930 . S
H1727 C1736 0.929 . S
H1728 C1712 0.931 . S
H1729 C1713 0.930 . S
H1730 C1768 0.930 . S
H1731 C1709 0.929 . S
H1732 C1737 0.931 . S
H1733 C1738 0.930 . S
N1734 Gd1714 2.620 1_655 S
N1734 C1735 1.370 . S
N1734 C1736 1.338 1_655 S
C1735 N1734 1.370 . S
C1735 C1739 1.415 . S
C1735 C1742 1.422 . S
C1736 H1727 0.929 . S
C1736 N1734 1.338 1_455 S
C1736 C1738 1.378 1_455 S
C1737 H1732 0.931 . S
C1737 C1738 1.348 . S
C1737 C1739 1.413 . S
C1738 H1733 0.930 . S
C1738 C1736 1.378 1_655 S
C1738 C1737 1.348 . S
C1739 C1735 1.415 . S
C1739 C1737 1.413 . S
C1739 C1769 1.437 . S
H1740 C1769 0.929 . S
N1741 Gd1714 2.570 1_655 S
N1741 C1742 1.359 . S
N1741 C1745 1.343 . S
C1742 C1735 1.422 . S
C1742 N1741 1.359 . S
C1742 C1744 1.421 . S
C1743 C1744 1.422 . S
C1743 C1746 1.321 . S
C1743 H1770 0.931 . S
C1744 C1742 1.421 . S
C1744 C1743 1.422 . S
C1744 C1768 1.417 . S
C1745 H1722 0.931 1_655 S
C1745 N1741 1.343 . S
C1745 C1746 1.390 . S
C1746 H1724 0.930 . S
C1746 C1743 1.321 . S
C1746 C1745 1.390 . S
O1747 Gd1715 2.386 . S
O1747 C1759 1.265 . S
O1748 Gd1714 2.353 . S
O1748 C1759 1.242 . S
O1749 Gd1714 2.468 . S
O1749 C1767 1.263 . S
O1750 Gd1714 2.427 . S
O1750 C1767 1.252 . S
O1751 Gd1715 2.307 . S
O1751 C1760 1.261 . S
O1752 Gd1714 2.388 . S
O1752 C1760 1.252 . S
O1753 Gd1714 2.386 1_655 S
O1753 C1771 1.265 . S
O1754 Gd1715 2.353 1_655 S
O1754 C1771 1.242 . S
O1755 Gd1715 2.468 . S
O1755 C1779 1.263 . S
O1756 Gd1715 2.427 . S
O1756 C1779 1.252 . S
O1757 Gd1714 2.307 . S
O1757 C1772 1.261 . S
O1758 Gd1715 2.388 . S
O1758 C1772 1.252 . S
C1759 O1747 1.265 . S
C1759 O1748 1.242 . S
C1760 O1751 1.261 . S
C1760 O1752 1.252 . S
C1761 C1764 1.394 . S
C1761 C1766 1.370 . S
C1761 C1767 1.500 . S
C1762 C1765 1.383 . S
C1762 C1766 1.395 . S
C1763 C1764 1.396 . S
C1763 C1765 1.365 . S
C1763 H1780 0.929 . S
C1764 C1761 1.394 . S
C1764 C1763 1.396 . S
C1764 H1781 0.930 . S
C1765 C1762 1.383 . S
C1765 C1763 1.365 . S
C1765 H1782 0.931 . S
C1766 C1761 1.370 . S
C1766 C1762 1.395 . S
C1766 H1783 0.930 . S
C1767 Gd1714 2.805 . S
C1767 O1749 1.263 . S
C1767 O1750 1.252 . S
C1767 C1761 1.500 . S
C1768 H1730 0.930 . S
C1768 C1744 1.417 . S
C1768 C1769 1.329 . S
C1769 C1739 1.437 . S
C1769 H1740 0.929 . S
C1769 C1768 1.329 . S
H1770 C1743 0.931 . S
C1771 O1753 1.265 . S
C1771 O1754 1.242 . S
C1772 O1757 1.261 . S
C1772 O1758 1.252 . S
C1773 C1776 1.394 . S
C1773 C1778 1.370 . S
C1773 C1779 1.500 1_655 S
C1774 C1777 1.383 . S
C1774 C1778 1.395 . S
C1775 C1776 1.396 . S
C1775 C1777 1.365 . S
C1775 H1784 0.929 . S
C1776 C1773 1.394 . S
C1776 C1775 1.396 . S
C1776 H1785 0.930 . S
C1777 C1774 1.383 . S
C1777 C1775 1.365 . S
C1777 H1786 0.931 . S
C1778 C1773 1.370 . S
C1778 C1774 1.395 . S
C1778 H1787 0.930 . S
C1779 Gd1715 2.805 . S
C1779 O1755 1.263 . S
C1779 O1756 1.252 . S
C1779 C1773 1.500 1_455 S
H1780 C1763 0.929 . S
H1781 C1764 0.930 . S
H1782 C1765 0.931 . S
H1783 C1766 0.930 . S
H1784 C1775 0.929 . S
H1785 C1776 0.930 . S
H1786 C1777 0.931 . S
H1787 C1778 0.930 . S
C1788 C1790 1.422 . S
C1788 C1792 1.415 . S
C1788 N1794 1.369 . S
C1789 C1790 1.421 . S
C1789 C1791 1.417 . S
C1789 C1801 1.422 . S
C1790 C1788 1.422 . S
C1790 C1789 1.421 . S
C1790 N1800 1.359 . S
C1791 C1789 1.417 . S
C1791 C1793 1.329 . S
C1791 H1810 0.930 . S
C1792 C1788 1.415 . S
C1792 C1793 1.437 . S
C1792 C1796 1.413 . S
C1793 C1791 1.329 . S
C1793 C1792 1.437 . S
C1793 H1815 0.929 . S
N1794 C1788 1.369 . S
N1794 C1795 1.338 . S
N1794 Gd1799 2.622 . S
C1795 N1794 1.338 . S
C1795 C1797 1.378 . S
C1795 H1807 0.929 . S
C1796 C1792 1.413 . S
C1796 C1797 1.348 . S
C1796 H1812 0.931 . S
C1797 C1795 1.378 . S
C1797 C1796 1.348 . S
C1797 H1813 0.930 . S
Gd1798 N1818 2.622 . S
Gd1798 N1825 2.570 . S
Gd1798 O1832 2.353 . S
Gd1798 O1833 2.468 . S
Gd1798 O1834 2.427 . S
Gd1798 O1836 2.388 . S
Gd1798 O1837 2.386 . S
Gd1798 O1841 2.307 . S
Gd1798 C1851 2.805 . S
Gd1799 N1794 2.622 . S
Gd1799 N1800 2.570 . S
Gd1799 O1831 2.386 . S
Gd1799 O1835 2.307 . S
Gd1799 O1838 2.353 . S
Gd1799 O1839 2.468 . S
Gd1799 O1840 2.427 . S
Gd1799 O1842 2.388 . S
Gd1799 C1863 2.805 . S
N1800 C1790 1.359 . S
N1800 Gd1799 2.570 . S
N1800 C1802 1.343 . S
C1801 C1789 1.422 . S
C1801 C1803 1.321 . S
C1801 H1809 0.931 . S
C1802 N1800 1.343 . S
C1802 C1803 1.390 . S
C1802 H1804 0.931 . S
C1803 C1801 1.321 . S
C1803 C1802 1.390 . S
C1803 H1805 0.930 . S
H1804 C1802 0.931 . S
H1805 C1803 0.930 . S
H1806 C1829 0.931 . S
H1807 C1795 0.929 . S
H1808 C1830 0.930 . S
H1809 C1801 0.931 . S
H1810 C1791 0.930 . S
H1811 C1820 0.929 . S
H1812 C1796 0.931 . S
H1813 C1797 0.930 . S
H1814 C1852 0.930 . S
H1815 C1793 0.929 . S
H1816 C1821 0.931 . S
H1817 C1822 0.930 . S
N1818 Gd1798 2.622 . S
N1818 C1819 1.369 . S
N1818 C1820 1.338 . S
C1819 N1818 1.369 . S
C1819 C1823 1.415 . S
C1819 C1826 1.422 . S
C1820 H1811 0.929 . S
C1820 N1818 1.338 . S
C1820 C1822 1.378 . S
C1821 H1816 0.931 . S
C1821 C1822 1.348 . S
C1821 C1823 1.413 . S
C1822 H1817 0.930 . S
C1822 C1820 1.378 . S
C1822 C1821 1.348 . S
C1823 C1819 1.415 . S
C1823 C1821 1.413 . S
C1823 C1853 1.437 . S
H1824 C1853 0.929 . S
N1825 Gd1798 2.570 . S
N1825 C1826 1.359 . S
N1825 C1829 1.343 . S
C1826 C1819 1.422 . S
C1826 N1825 1.359 . S
C1826 C1828 1.421 . S
C1827 C1828 1.422 . S
C1827 C1830 1.321 . S
C1827 H1854 0.931 . S
C1828 C1826 1.421 . S
C1828 C1827 1.422 . S
C1828 C1852 1.417 . S
C1829 H1806 0.931 . S
C1829 N1825 1.343 . S
C1829 C1830 1.390 . S
C1830 H1808 0.930 . S
C1830 C1827 1.321 . S
C1830 C1829 1.390 . S
O1831 Gd1799 2.386 . S
O1831 C1843 1.265 . S
O1832 Gd1798 2.353 . S
O1832 C1843 1.242 . S
O1833 Gd1798 2.468 . S
O1833 C1851 1.263 . S
O1834 Gd1798 2.427 . S
O1834 C1851 1.252 . S
O1835 Gd1799 2.307 . S
O1835 C1844 1.261 . S
O1836 Gd1798 2.388 . S
O1836 C1844 1.252 . S
O1837 Gd1798 2.386 . S
O1837 C1855 1.265 . S
O1838 Gd1799 2.353 . S
O1838 C1855 1.242 . S
O1839 Gd1799 2.468 . S
O1839 C1863 1.263 . S
O1840 Gd1799 2.427 . S
O1840 C1863 1.252 . S
O1841 Gd1798 2.307 . S
O1841 C1856 1.261 . S
O1842 Gd1799 2.388 . S
O1842 C1856 1.252 . S
C1843 O1831 1.265 . S
C1843 O1832 1.242 . S
C1844 O1835 1.261 . S
C1844 O1836 1.252 . S
C1845 C1848 1.394 . S
C1845 C1850 1.370 . S
C1845 C1851 1.500 . S
C1846 C1849 1.383 . S
C1846 C1850 1.395 . S
C1847 C1848 1.396 . S
C1847 C1849 1.365 . S
C1847 H1864 0.929 . S
C1848 C1845 1.394 . S
C1848 C1847 1.396 . S
C1848 H1865 0.930 . S
C1849 C1846 1.383 . S
C1849 C1847 1.365 . S
C1849 H1866 0.931 . S
C1850 C1845 1.370 . S
C1850 C1846 1.395 . S
C1850 H1867 0.930 . S
C1851 Gd1798 2.805 . S
C1851 O1833 1.263 . S
C1851 O1834 1.252 . S
C1851 C1845 1.500 . S
C1852 H1814 0.930 . S
C1852 C1828 1.417 . S
C1852 C1853 1.329 . S
C1853 C1823 1.437 . S
C1853 H1824 0.929 . S
C1853 C1852 1.329 . S
H1854 C1827 0.931 . S
C1855 O1837 1.265 . S
C1855 O1838 1.242 . S
C1856 O1841 1.261 . S
C1856 O1842 1.252 . S
C1857 C1860 1.394 . S
C1857 C1862 1.370 . S
C1857 C1863 1.500 . S
C1858 C1861 1.383 . S
C1858 C1862 1.395 . S
C1859 C1860 1.396 . S
C1859 C1861 1.365 . S
C1859 H1868 0.929 . S
C1860 C1857 1.394 . S
C1860 C1859 1.396 . S
C1860 H1869 0.930 . S
C1861 C1858 1.383 . S
C1861 C1859 1.365 . S
C1861 H1870 0.931 . S
C1862 C1857 1.370 . S
C1862 C1858 1.395 . S
C1862 H1871 0.930 . S
C1863 Gd1799 2.805 . S
C1863 O1839 1.263 . S
C1863 O1840 1.252 . S
C1863 C1857 1.500 . S
H1864 C1847 0.929 . S
H1865 C1848 0.930 . S
H1866 C1849 0.931 . S
H1867 C1850 0.930 . S
H1868 C1859 0.929 . S
H1869 C1860 0.930 . S
H1870 C1861 0.931 . S
H1871 C1862 0.930 . S
C1872 C1874 1.422 . S
C1872 C1876 1.415 . S
C1872 N1878 1.369 . S
C1873 C1874 1.421 . S
C1873 C1875 1.417 . S
C1873 C1885 1.422 . S
C1874 C1872 1.422 . S
C1874 C1873 1.421 . S
C1874 N1884 1.359 . S
C1875 C1873 1.417 . S
C1875 C1877 1.329 . S
C1875 H1894 0.930 . S
C1876 C1872 1.415 . S
C1876 C1877 1.437 . S
C1876 C1880 1.413 . S
C1877 C1875 1.329 . S
C1877 C1876 1.437 . S
C1877 H1899 0.929 . S
N1878 C1872 1.369 . S
N1878 C1879 1.338 . S
N1878 Gd1883 2.622 . S
C1879 N1878 1.338 . S
C1879 C1881 1.378 . S
C1879 H1891 0.929 . S
C1880 C1876 1.413 . S
C1880 C1881 1.348 . S
C1880 H1896 0.931 . S
C1881 C1879 1.378 . S
C1881 C1880 1.348 . S
C1881 H1897 0.930 . S
Gd1882 N1902 2.622 . S
Gd1882 N1909 2.570 . S
Gd1882 O1916 2.353 . S
Gd1882 O1917 2.468 . S
Gd1882 O1918 2.427 . S
Gd1882 O1920 2.388 . S
Gd1882 O1921 2.386 . S
Gd1882 O1925 2.307 . S
Gd1882 C1935 2.805 . S
Gd1883 N1878 2.622 . S
Gd1883 N1884 2.570 . S
Gd1883 O1915 2.386 . S
Gd1883 O1919 2.307 . S
Gd1883 O1922 2.353 . S
Gd1883 O1923 2.468 . S
Gd1883 O1924 2.427 . S
Gd1883 O1926 2.388 . S
Gd1883 C1947 2.805 . S
N1884 C1874 1.359 . S
N1884 Gd1883 2.570 . S
N1884 C1886 1.343 . S
C1885 C1873 1.422 . S
C1885 C1887 1.321 . S
C1885 H1893 0.931 . S
C1886 N1884 1.343 . S
C1886 C1887 1.390 . S
C1886 H1888 0.931 . S
C1887 C1885 1.321 . S
C1887 C1886 1.390 . S
C1887 H1889 0.930 . S
H1888 C1886 0.931 . S
H1889 C1887 0.930 . S
H1890 C1913 0.931 . S
H1891 C1879 0.929 . S
H1892 C1914 0.930 . S
H1893 C1885 0.931 . S
H1894 C1875 0.930 . S
H1895 C1904 0.929 . S
H1896 C1880 0.931 . S
H1897 C1881 0.930 . S
H1898 C1936 0.930 . S
H1899 C1877 0.929 . S
H1900 C1905 0.931 . S
H1901 C1906 0.930 . S
N1902 Gd1882 2.622 . S
N1902 C1903 1.369 . S
N1902 C1904 1.338 . S
C1903 N1902 1.369 . S
C1903 C1907 1.415 . S
C1903 C1910 1.422 . S
C1904 H1895 0.929 . S
C1904 N1902 1.338 . S
C1904 C1906 1.378 . S
C1905 H1900 0.931 . S
C1905 C1906 1.348 . S
C1905 C1907 1.413 . S
C1906 H1901 0.930 . S
C1906 C1904 1.378 . S
C1906 C1905 1.348 . S
C1907 C1903 1.415 . S
C1907 C1905 1.413 . S
C1907 C1937 1.437 . S
H1908 C1937 0.929 . S
N1909 Gd1882 2.570 . S
N1909 C1910 1.359 . S
N1909 C1913 1.343 . S
C1910 C1903 1.422 . S
C1910 N1909 1.359 . S
C1910 C1912 1.421 . S
C1911 C1912 1.422 . S
C1911 C1914 1.321 . S
C1911 H1938 0.931 . S
C1912 C1910 1.421 . S
C1912 C1911 1.422 . S
C1912 C1936 1.417 . S
C1913 H1890 0.931 . S
C1913 N1909 1.343 . S
C1913 C1914 1.390 . S
C1914 H1892 0.930 . S
C1914 C1911 1.321 . S
C1914 C1913 1.390 . S
O1915 Gd1883 2.386 . S
O1915 C1927 1.265 . S
O1916 Gd1882 2.353 . S
O1916 C1927 1.242 . S
O1917 Gd1882 2.468 . S
O1917 C1935 1.263 . S
O1918 Gd1882 2.427 . S
O1918 C1935 1.252 . S
O1919 Gd1883 2.307 . S
O1919 C1928 1.261 . S
O1920 Gd1882 2.388 . S
O1920 C1928 1.252 . S
O1921 Gd1882 2.386 . S
O1921 C1939 1.265 . S
O1922 Gd1883 2.353 . S
O1922 C1939 1.242 . S
O1923 Gd1883 2.468 . S
O1923 C1947 1.263 . S
O1924 Gd1883 2.427 . S
O1924 C1947 1.252 . S
O1925 Gd1882 2.307 . S
O1925 C1940 1.261 . S
O1926 Gd1883 2.388 . S
O1926 C1940 1.252 . S
C1927 O1915 1.265 . S
C1927 O1916 1.242 . S
C1928 O1919 1.261 . S
C1928 O1920 1.252 . S
C1929 C1932 1.394 . S
C1929 C1934 1.370 . S
C1929 C1935 1.500 . S
C1930 C1933 1.383 . S
C1930 C1934 1.395 . S
C1931 C1932 1.396 . S
C1931 C1933 1.365 . S
C1931 H1948 0.929 . S
C1932 C1929 1.394 . S
C1932 C1931 1.396 . S
C1932 H1949 0.930 . S
C1933 C1930 1.383 . S
C1933 C1931 1.365 . S
C1933 H1950 0.931 . S
C1934 C1929 1.370 . S
C1934 C1930 1.395 . S
C1934 H1951 0.930 . S
C1935 Gd1882 2.805 . S
C1935 O1917 1.263 . S
C1935 O1918 1.252 . S
C1935 C1929 1.500 . S
C1936 H1898 0.930 . S
C1936 C1912 1.417 . S
C1936 C1937 1.329 . S
C1937 C1907 1.437 . S
C1937 H1908 0.929 . S
C1937 C1936 1.329 . S
H1938 C1911 0.931 . S
C1939 O1921 1.265 . S
C1939 O1922 1.242 . S
C1940 O1925 1.261 . S
C1940 O1926 1.252 . S
C1941 C1944 1.394 . S
C1941 C1946 1.370 . S
C1941 C1947 1.500 . S
C1942 C1945 1.383 . S
C1942 C1946 1.395 . S
C1943 C1944 1.396 . S
C1943 C1945 1.365 . S
C1943 H1952 0.929 . S
C1944 C1941 1.394 . S
C1944 C1943 1.396 . S
C1944 H1953 0.930 . S
C1945 C1942 1.383 . S
C1945 C1943 1.365 . S
C1945 H1954 0.931 . S
C1946 C1941 1.370 . S
C1946 C1942 1.395 . S
C1946 H1955 0.930 . S
C1947 Gd1883 2.805 . S
C1947 O1923 1.263 . S
C1947 O1924 1.252 . S
C1947 C1941 1.500 . S
H1948 C1931 0.929 . S
H1949 C1932 0.930 . S
H1950 C1933 0.931 . S
H1951 C1934 0.930 . S
H1952 C1943 0.929 . S
H1953 C1944 0.930 . S
H1954 C1945 0.931 . S
H1955 C1946 0.930 . S
C1956 C1958 1.422 . S
C1956 C1960 1.415 . S
C1956 N1962 1.369 . S
C1957 C1958 1.421 . S
C1957 C1959 1.417 . S
C1957 C1969 1.422 . S
C1958 C1956 1.422 . S
C1958 C1957 1.421 . S
C1958 N1968 1.359 . S
C1959 C1957 1.417 . S
C1959 C1961 1.329 . S
C1959 H1978 0.930 . S
C1960 C1956 1.415 . S
C1960 C1961 1.437 . S
C1960 C1964 1.413 . S
C1961 C1959 1.329 . S
C1961 C1960 1.437 . S
C1961 H1983 0.929 . S
N1962 C1956 1.369 . S
N1962 C1963 1.338 . S
N1962 Gd1967 2.622 . S
C1963 N1962 1.338 . S
C1963 C1965 1.378 . S
C1963 H1975 0.929 . S
C1964 C1960 1.413 . S
C1964 C1965 1.348 . S
C1964 H1980 0.931 . S
C1965 C1963 1.378 . S
C1965 C1964 1.348 . S
C1965 H1981 0.930 . S
Gd1966 N1986 2.622 . S
Gd1966 N1993 2.570 . S
Gd1966 O2000 2.353 . S
Gd1966 O2001 2.468 . S
Gd1966 O2002 2.427 . S
Gd1966 O2004 2.388 . S
Gd1966 O2005 2.386 . S
Gd1966 O2009 2.307 . S
Gd1966 C2019 2.805 . S
Gd1967 N1962 2.622 . S
Gd1967 N1968 2.570 . S
Gd1967 O1999 2.386 . S
Gd1967 O2003 2.307 . S
Gd1967 O2006 2.353 . S
Gd1967 O2007 2.468 . S
Gd1967 O2008 2.427 . S
Gd1967 O2010 2.388 . S
Gd1967 C2031 2.805 . S
N1968 C1958 1.359 . S
N1968 Gd1967 2.570 . S
N1968 C1970 1.343 . S
C1969 C1957 1.422 . S
C1969 C1971 1.321 . S
C1969 H1977 0.931 . S
C1970 N1968 1.343 . S
C1970 C1971 1.390 . S
C1970 H1972 0.931 . S
C1971 C1969 1.321 . S
C1971 C1970 1.390 . S
C1971 H1973 0.930 . S
H1972 C1970 0.931 . S
H1973 C1971 0.930 . S
H1974 C1997 0.931 . S
H1975 C1963 0.929 . S
H1976 C1998 0.930 . S
H1977 C1969 0.931 . S
H1978 C1959 0.930 . S
H1979 C1988 0.929 . S
H1980 C1964 0.931 . S
H1981 C1965 0.930 . S
H1982 C2020 0.930 . S
H1983 C1961 0.929 . S
H1984 C1989 0.931 . S
H1985 C1990 0.930 . S
N1986 Gd1966 2.622 . S
N1986 C1987 1.369 . S
N1986 C1988 1.338 . S
C1987 N1986 1.369 . S
C1987 C1991 1.415 . S
C1987 C1994 1.422 . S
C1988 H1979 0.929 . S
C1988 N1986 1.338 . S
C1988 C1990 1.378 . S
C1989 H1984 0.931 . S
C1989 C1990 1.348 . S
C1989 C1991 1.413 . S
C1990 H1985 0.930 . S
C1990 C1988 1.378 . S
C1990 C1989 1.348 . S
C1991 C1987 1.415 . S
C1991 C1989 1.413 . S
C1991 C2021 1.437 . S
H1992 C2021 0.929 . S
N1993 Gd1966 2.570 . S
N1993 C1994 1.359 . S
N1993 C1997 1.343 . S
C1994 C1987 1.422 . S
C1994 N1993 1.359 . S
C1994 C1996 1.421 . S
C1995 C1996 1.422 . S
C1995 C1998 1.321 . S
C1995 H2022 0.931 . S
C1996 C1994 1.421 . S
C1996 C1995 1.422 . S
C1996 C2020 1.417 . S
C1997 H1974 0.931 . S
C1997 N1993 1.343 . S
C1997 C1998 1.390 . S
C1998 H1976 0.930 . S
C1998 C1995 1.321 . S
C1998 C1997 1.390 . S
O1999 Gd1967 2.386 . S
O1999 C2011 1.265 . S
O2000 Gd1966 2.353 . S
O2000 C2011 1.242 . S
O2001 Gd1966 2.468 . S
O2001 C2019 1.263 . S
O2002 Gd1966 2.427 . S
O2002 C2019 1.252 . S
O2003 Gd1967 2.307 . S
O2003 C2012 1.261 . S
O2004 Gd1966 2.388 . S
O2004 C2012 1.252 . S
O2005 Gd1966 2.386 . S
O2005 C2023 1.265 . S
O2006 Gd1967 2.353 . S
O2006 C2023 1.242 . S
O2007 Gd1967 2.468 . S
O2007 C2031 1.263 . S
O2008 Gd1967 2.427 . S
O2008 C2031 1.252 . S
O2009 Gd1966 2.307 . S
O2009 C2024 1.261 . S
O2010 Gd1967 2.388 . S
O2010 C2024 1.252 . S
C2011 O1999 1.265 . S
C2011 O2000 1.242 . S
C2012 O2003 1.261 . S
C2012 O2004 1.252 . S
C2013 C2016 1.394 . S
C2013 C2018 1.370 . S
C2013 C2019 1.500 . S
C2014 C2017 1.383 . S
C2014 C2018 1.395 . S
C2015 C2016 1.396 . S
C2015 C2017 1.365 . S
C2015 H2032 0.929 . S
C2016 C2013 1.394 . S
C2016 C2015 1.396 . S
C2016 H2033 0.930 . S
C2017 C2014 1.383 . S
C2017 C2015 1.365 . S
C2017 H2034 0.931 . S
C2018 C2013 1.370 . S
C2018 C2014 1.395 . S
C2018 H2035 0.930 . S
C2019 Gd1966 2.805 . S
C2019 O2001 1.263 . S
C2019 O2002 1.252 . S
C2019 C2013 1.500 . S
C2020 H1982 0.930 . S
C2020 C1996 1.417 . S
C2020 C2021 1.329 . S
C2021 C1991 1.437 . S
C2021 H1992 0.929 . S
C2021 C2020 1.329 . S
H2022 C1995 0.931 . S
C2023 O2005 1.265 . S
C2023 O2006 1.242 . S
C2024 O2009 1.261 . S
C2024 O2010 1.252 . S
C2025 C2028 1.394 . S
C2025 C2030 1.370 . S
C2025 C2031 1.500 . S
C2026 C2029 1.383 . S
C2026 C2030 1.395 . S
C2027 C2028 1.396 . S
C2027 C2029 1.365 . S
C2027 H2036 0.929 . S
C2028 C2025 1.394 . S
C2028 C2027 1.396 . S
C2028 H2037 0.930 . S
C2029 C2026 1.383 . S
C2029 C2027 1.365 . S
C2029 H2038 0.931 . S
C2030 C2025 1.370 . S
C2030 C2026 1.395 . S
C2030 H2039 0.930 . S
C2031 Gd1967 2.805 . S
C2031 O2007 1.263 . S
C2031 O2008 1.252 . S
C2031 C2025 1.500 . S
H2032 C2015 0.929 . S
H2033 C2016 0.930 . S
H2034 C2017 0.931 . S
H2035 C2018 0.930 . S
H2036 C2027 0.929 . S
H2037 C2028 0.930 . S
H2038 C2029 0.931 . S
H2039 C2030 0.930 . S
C2040 C2042 1.422 . S
C2040 C2044 1.415 . S
C2040 N2046 1.369 . S
C2041 C2042 1.421 . S
C2041 C2043 1.417 . S
C2041 C2053 1.422 . S
C2042 C2040 1.422 . S
C2042 C2041 1.421 . S
C2042 N2052 1.359 . S
C2043 C2041 1.417 . S
C2043 C2045 1.329 . S
C2043 H2062 0.930 . S
C2044 C2040 1.415 . S
C2044 C2045 1.437 . S
C2044 C2048 1.413 . S
C2045 C2043 1.329 . S
C2045 C2044 1.437 . S
C2045 H2067 0.929 . S
N2046 C2040 1.369 . S
N2046 C2047 1.338 . S
N2046 Gd2051 2.622 . S
C2047 N2046 1.338 . S
C2047 C2049 1.378 . S
C2047 H2059 0.929 . S
C2048 C2044 1.413 . S
C2048 C2049 1.348 . S
C2048 H2064 0.931 . S
C2049 C2047 1.378 . S
C2049 C2048 1.348 . S
C2049 H2065 0.930 . S
Gd2050 N2070 2.622 . S
Gd2050 N2077 2.570 . S
Gd2050 O2084 2.353 . S
Gd2050 O2085 2.468 . S
Gd2050 O2086 2.427 . S
Gd2050 O2088 2.388 . S
Gd2050 O2089 2.386 . S
Gd2050 O2093 2.307 . S
Gd2050 C2103 2.805 . S
Gd2051 N2046 2.622 . S
Gd2051 N2052 2.570 . S
Gd2051 O2083 2.386 . S
Gd2051 O2087 2.307 . S
Gd2051 O2090 2.353 . S
Gd2051 O2091 2.468 . S
Gd2051 O2092 2.427 . S
Gd2051 O2094 2.388 . S
Gd2051 C2115 2.805 . S
N2052 C2042 1.359 . S
N2052 Gd2051 2.570 . S
N2052 C2054 1.343 . S
C2053 C2041 1.422 . S
C2053 C2055 1.321 . S
C2053 H2061 0.931 . S
C2054 N2052 1.343 . S
C2054 C2055 1.390 . S
C2054 H2056 0.931 . S
C2055 C2053 1.321 . S
C2055 C2054 1.390 . S
C2055 H2057 0.930 . S
H2056 C2054 0.931 . S
H2057 C2055 0.930 . S
H2058 C2081 0.931 . S
H2059 C2047 0.929 . S
H2060 C2082 0.930 . S
H2061 C2053 0.931 . S
H2062 C2043 0.930 . S
H2063 C2072 0.929 . S
H2064 C2048 0.931 . S
H2065 C2049 0.930 . S
H2066 C2104 0.930 . S
H2067 C2045 0.929 . S
H2068 C2073 0.931 . S
H2069 C2074 0.930 . S
N2070 Gd2050 2.622 . S
N2070 C2071 1.369 . S
N2070 C2072 1.338 . S
C2071 N2070 1.369 . S
C2071 C2075 1.415 . S
C2071 C2078 1.422 . S
C2072 H2063 0.929 . S
C2072 N2070 1.338 . S
C2072 C2074 1.378 . S
C2073 H2068 0.931 . S
C2073 C2074 1.348 . S
C2073 C2075 1.413 . S
C2074 H2069 0.930 . S
C2074 C2072 1.378 . S
C2074 C2073 1.348 . S
C2075 C2071 1.415 . S
C2075 C2073 1.413 . S
C2075 C2105 1.437 . S
H2076 C2105 0.929 . S
N2077 Gd2050 2.570 . S
N2077 C2078 1.359 . S
N2077 C2081 1.343 . S
C2078 C2071 1.422 . S
C2078 N2077 1.359 . S
C2078 C2080 1.421 . S
C2079 C2080 1.422 . S
C2079 C2082 1.321 . S
C2079 H2106 0.931 . S
C2080 C2078 1.421 . S
C2080 C2079 1.422 . S
C2080 C2104 1.417 . S
C2081 H2058 0.931 . S
C2081 N2077 1.343 . S
C2081 C2082 1.390 . S
C2082 H2060 0.930 . S
C2082 C2079 1.321 . S
C2082 C2081 1.390 . S
O2083 Gd2051 2.386 . S
O2083 C2095 1.265 . S
O2084 Gd2050 2.353 . S
O2084 C2095 1.242 . S
O2085 Gd2050 2.468 . S
O2085 C2103 1.263 . S
O2086 Gd2050 2.427 . S
O2086 C2103 1.252 . S
O2087 Gd2051 2.307 . S
O2087 C2096 1.261 . S
O2088 Gd2050 2.388 . S
O2088 C2096 1.252 . S
O2089 Gd2050 2.386 . S
O2089 C2107 1.265 . S
O2090 Gd2051 2.353 . S
O2090 C2107 1.242 . S
O2091 Gd2051 2.468 . S
O2091 C2115 1.263 . S
O2092 Gd2051 2.427 . S
O2092 C2115 1.252 . S
O2093 Gd2050 2.307 . S
O2093 C2108 1.261 . S
O2094 Gd2051 2.388 . S
O2094 C2108 1.252 . S
C2095 O2083 1.265 . S
C2095 O2084 1.242 . S
C2096 O2087 1.261 . S
C2096 O2088 1.252 . S
C2097 C2100 1.394 . S
C2097 C2102 1.370 . S
C2097 C2103 1.500 . S
C2098 C2101 1.383 . S
C2098 C2102 1.395 . S
C2099 C2100 1.396 . S
C2099 C2101 1.365 . S
C2099 H2116 0.929 . S
C2100 C2097 1.394 . S
C2100 C2099 1.396 . S
C2100 H2117 0.930 . S
C2101 C2098 1.383 . S
C2101 C2099 1.365 . S
C2101 H2118 0.931 . S
C2102 C2097 1.370 . S
C2102 C2098 1.395 . S
C2102 H2119 0.930 . S
C2103 Gd2050 2.805 . S
C2103 O2085 1.263 . S
C2103 O2086 1.252 . S
C2103 C2097 1.500 . S
C2104 H2066 0.930 . S
C2104 C2080 1.417 . S
C2104 C2105 1.329 . S
C2105 C2075 1.437 . S
C2105 H2076 0.929 . S
C2105 C2104 1.329 . S
H2106 C2079 0.931 . S
C2107 O2089 1.265 . S
C2107 O2090 1.242 . S
C2108 O2093 1.261 . S
C2108 O2094 1.252 . S
C2109 C2112 1.394 . S
C2109 C2114 1.370 . S
C2109 C2115 1.500 . S
C2110 C2113 1.383 . S
C2110 C2114 1.395 . S
C2111 C2112 1.396 . S
C2111 C2113 1.365 . S
C2111 H2120 0.929 . S
C2112 C2109 1.394 . S
C2112 C2111 1.396 . S
C2112 H2121 0.930 . S
C2113 C2110 1.383 . S
C2113 C2111 1.365 . S
C2113 H2122 0.931 . S
C2114 C2109 1.370 . S
C2114 C2110 1.395 . S
C2114 H2123 0.930 . S
C2115 Gd2051 2.805 . S
C2115 O2091 1.263 . S
C2115 O2092 1.252 . S
C2115 C2109 1.500 . S
H2116 C2099 0.929 . S
H2117 C2100 0.930 . S
H2118 C2101 0.931 . S
H2119 C2102 0.930 . S
H2120 C2111 0.929 . S
H2121 C2112 0.930 . S
H2122 C2113 0.931 . S
H2123 C2114 0.930 . S
C2124 C2126 1.422 1_556 S
C2124 C2128 1.415 . S
C2124 N2130 1.369 . S
C2125 C2126 1.421 . S
C2125 C2127 1.417 . S
C2125 C2137 1.422 . S
C2126 C2124 1.422 1_554 S
C2126 C2125 1.421 . S
C2126 N2136 1.359 . S
C2127 C2125 1.417 . S
C2127 C2129 1.329 1_554 S
C2127 H2146 0.930 . S
C2128 C2124 1.415 . S
C2128 C2129 1.437 . S
C2128 C2132 1.413 . S
C2129 C2127 1.329 1_556 S
C2129 C2128 1.437 . S
C2129 H2151 0.929 . S
N2130 C2124 1.369 . S
N2130 C2131 1.338 . S
N2130 Gd2135 2.622 1_556 S
C2131 N2130 1.338 . S
C2131 C2133 1.378 . S
C2131 H2143 0.929 . S
C2132 C2128 1.413 . S
C2132 C2133 1.348 . S
C2132 H2148 0.931 . S
C2133 C2131 1.378 . S
C2133 C2132 1.348 . S
C2133 H2149 0.930 . S
Gd2134 N2154 2.613 1_455 S
Gd2134 N2161 2.549 1_455 S
Gd2134 O2168 2.363 . S
Gd2134 O2169 2.440 1_455 S
Gd2134 O2170 2.404 1_455 S
Gd2134 O2172 2.411 . S
Gd2134 O2173 2.404 . S
Gd2134 O2177 2.313 . S
Gd2134 C2187 2.777 1_455 S
Gd2135 N2130 2.622 1_554 S
Gd2135 N2136 2.570 . S
Gd2135 O2167 2.386 . S
Gd2135 O2171 2.307 . S
Gd2135 O2174 2.353 . S
Gd2135 O2175 2.468 . S
Gd2135 O2176 2.427 1_554 S
Gd2135 O2178 2.388 1_554 S
Gd2135 C2199 2.805 . S
N2136 C2126 1.359 . S
N2136 Gd2135 2.570 . S
N2136 C2138 1.343 . S
C2137 C2125 1.422 . S
C2137 C2139 1.321 . S
C2137 H2145 0.931 . S
C2138 N2136 1.343 . S
C2138 C2139 1.390 . S
C2138 H2140 0.931 . S
C2139 C2137 1.321 . S
C2139 C2138 1.390 . S
C2139 H2141 0.930 . S
H2140 C2138 0.931 . S
H2141 C2139 0.930 . S
H2142 C2165 0.931 1_556 S
H2143 C2131 0.929 . S
H2144 C2166 0.948 . S
H2145 C2137 0.931 . S
H2146 C2127 0.930 . S
H2147 C2156 0.929 1_455 S
H2148 C2132 0.931 . S
H2149 C2133 0.930 . S
H2150 C2188 0.930 . S
H2151 C2129 0.929 . S
H2152 C2157 0.931 . S
H2153 C2158 0.936 . S
N2154 Gd2134 2.613 1_655 S
N2154 C2155 1.369 . S
N2154 C2156 1.338 . S
C2155 N2154 1.369 . S
C2155 C2159 1.415 . S
C2155 C2162 1.422 . S
C2156 H2147 0.929 1_655 S
C2156 N2154 1.338 . S
C2156 C2158 1.378 . S
C2157 H2152 0.931 . S
C2157 C2158 1.348 . S
C2157 C2159 1.413 . S
C2158 H2153 0.936 . S
C2158 C2156 1.378 . S
C2158 C2157 1.348 . S
C2159 C2155 1.415 . S
C2159 C2157 1.413 . S
C2159 C2189 1.437 . S
H2160 C2189 0.929 . S
N2161 Gd2134 2.549 1_655 S
N2161 C2162 1.359 . S
N2161 C2165 1.343 . S
C2162 C2155 1.422 . S
C2162 N2161 1.359 . S
C2162 C2164 1.421 . S
C2163 C2164 1.422 . S
C2163 C2166 1.307 1_554 S
C2163 H2190 0.931 . S
C2164 C2162 1.421 . S
C2164 C2163 1.422 . S
C2164 C2188 1.417 . S
C2165 H2142 0.931 1_554 S
C2165 N2161 1.343 . S
C2165 C2166 1.387 1_554 S
C2166 H2144 0.948 . S
C2166 C2163 1.307 1_556 S
C2166 C2165 1.387 1_556 S
O2167 Gd2135 2.386 . S
O2167 C2179 1.265 . S
O2168 Gd2134 2.363 . S
O2168 C2179 1.242 . S
O2169 Gd2134 2.440 1_655 S
O2169 C2187 1.263 . S
O2170 Gd2134 2.404 1_655 S
O2170 C2187 1.252 . S
O2171 Gd2135 2.307 . S
O2171 C2180 1.261 . S
O2172 Gd2134 2.411 . S
O2172 C2180 1.252 . S
O2173 Gd2134 2.404 . S
O2173 C2191 1.265 . S
O2174 Gd2135 2.353 . S
O2174 C2191 1.242 . S
O2175 Gd2135 2.468 . S
O2175 C2199 1.263 . S
O2176 Gd2135 2.427 1_556 S
O2176 C2199 1.252 1_556 S
O2177 Gd2134 2.313 . S
O2177 C2192 1.261 1_554 S
O2178 Gd2135 2.388 1_556 S
O2178 C2192 1.252 . S
C2179 O2167 1.265 . S
C2179 O2168 1.242 . S
C2180 O2171 1.261 . S
C2180 O2172 1.252 . S
C2181 C2184 1.394 . S
C2181 C2186 1.370 . S
C2181 C2187 1.500 . S
C2182 C2185 1.383 . S
C2182 C2186 1.395 . S
C2183 C2184 1.396 . S
C2183 C2185 1.365 . S
C2183 H2200 0.929 . S
C2184 C2181 1.394 . S
C2184 C2183 1.396 . S
C2184 H2201 0.930 . S
C2185 C2182 1.383 . S
C2185 C2183 1.365 . S
C2185 H2202 0.931 . S
C2186 C2181 1.370 . S
C2186 C2182 1.395 . S
C2186 H2203 0.930 . S
C2187 Gd2134 2.777 1_655 S
C2187 O2169 1.263 . S
C2187 O2170 1.252 . S
C2187 C2181 1.500 . S
C2188 H2150 0.930 . S
C2188 C2164 1.417 . S
C2188 C2189 1.329 . S
C2189 C2159 1.437 . S
C2189 H2160 0.929 . S
C2189 C2188 1.329 . S
H2190 C2163 0.931 . S
C2191 O2173 1.265 . S
C2191 O2174 1.242 . S
C2192 O2177 1.261 1_556 S
C2192 O2178 1.252 . S
C2193 C2196 1.394 . S
C2193 C2198 1.370 1_556 S
C2193 C2199 1.500 1_556 S
C2194 C2197 1.383 1_554 S
C2194 C2198 1.395 . S
C2195 C2196 1.396 . S
C2195 C2197 1.365 . S
C2195 H2204 0.929 . S
C2196 C2193 1.394 . S
C2196 C2195 1.396 . S
C2196 H2205 0.930 . S
C2197 C2194 1.383 1_556 S
C2197 C2195 1.365 . S
C2197 H2206 0.931 . S
C2198 C2193 1.370 1_554 S
C2198 C2194 1.395 . S
C2198 H2207 0.930 . S
C2199 Gd2135 2.805 . S
C2199 O2175 1.263 . S
C2199 O2176 1.252 1_554 S
C2199 C2193 1.500 1_554 S
H2200 C2183 0.929 . S
H2201 C2184 0.930 . S
H2202 C2185 0.931 . S
H2203 C2186 0.930 . S
H2204 C2195 0.929 . S
H2205 C2196 0.930 . S
H2206 C2197 0.931 . S
H2207 C2198 0.930 . S
H2208 C2220 0.930 . S
H2209 C2222 0.930 . S
H2210 C2223 0.906 1_554 S
H2211 C2227 0.959 . S
H2212 C2227 0.959 . S
H2213 C2227 0.961 . S
H2214 C2228 0.960 1_556 S
H2215 C2228 0.961 . S
H2216 C2228 0.959 . S
H2217 C2231 0.929 . S
H2218 C2232 0.931 . S
H2219 C2234 0.930 1_556 S
C2220 H2208 0.930 . S
C2220 C2221 1.399 1_455 S
C2220 C2225 1.399 . S
C2221 C2220 1.399 1_655 S
C2221 C2222 1.376 . S
C2222 H2209 0.930 . S
C2222 C2221 1.376 . S
C2222 C2223 1.409 . S
C2223 H2210 0.906 1_556 S
C2223 C2222 1.409 . S
C2223 C2224 1.396 . S
C2224 C2223 1.396 . S
C2224 C2225 1.394 1_655 S
C2224 C2230 1.465 1_656 S
C2225 C2220 1.399 . S
C2225 C2224 1.394 1_455 S
C2225 C2226 1.516 . S
C2226 C2225 1.516 . S
C2226 C2227 1.502 . S
C2226 C2228 1.561 1_556 S
C2226 C2229 1.526 . S
C2227 H2211 0.959 . S
C2227 H2212 0.959 . S
C2227 H2213 0.961 . S
C2227 C2226 1.502 . S
C2228 H2214 0.960 1_554 S
C2228 H2215 0.961 . S
C2228 H2216 0.959 . S
C2228 C2226 1.561 1_554 S
C2229 C2226 1.526 . S
C2229 C2230 1.396 1_556 S
C2229 C2234 1.390 1_556 S
C2230 C2224 1.465 1_454 S
C2230 C2229 1.396 1_554 S
C2230 C2231 1.399 1_455 S
C2231 H2217 0.929 . S
C2231 C2230 1.399 1_655 S
C2231 C2232 1.385 . S
C2232 H2218 0.931 . S
C2232 C2231 1.385 . S
C2232 C2233 1.389 1_655 S
C2233 C2232 1.389 1_455 S
C2233 C2234 1.387 . S
C2234 H2219 0.930 1_554 S
C2234 C2229 1.390 1_554 S
C2234 C2233 1.387 . S
H2235 C2247 0.930 . S
H2236 C2249 0.930 . S
H2237 C2250 0.930 . S
H2238 C2254 0.959 . S
H2239 C2254 0.959 . S
H2240 C2254 0.961 . S
H2241 C2255 0.960 . S
H2242 C2255 0.961 . S
H2243 C2255 0.959 . S
H2244 C2258 0.929 . S
H2245 C2259 0.931 . S
H2246 C2261 0.930 . S
C2247 H2235 0.930 . S
C2247 C2248 1.399 . S
C2247 C2252 1.399 . S
C2248 C2247 1.399 . S
C2248 C2249 1.376 . S
C2249 H2236 0.930 . S
C2249 C2248 1.376 . S
C2249 C2250 1.388 . S
C2250 H2237 0.930 . S
C2250 C2249 1.388 . S
C2250 C2251 1.390 . S
C2251 C2250 1.390 . S
C2251 C2252 1.394 . S
C2251 C2257 1.465 . S
C2252 C2247 1.399 . S
C2252 C2251 1.394 . S
C2252 C2253 1.516 . S
C2253 C2252 1.516 . S
C2253 C2254 1.502 . S
C2253 C2255 1.561 . S
C2253 C2256 1.526 . S
C2254 H2238 0.959 . S
C2254 H2239 0.959 . S
C2254 H2240 0.961 . S
C2254 C2253 1.502 . S
C2255 H2241 0.960 . S
C2255 H2242 0.961 . S
C2255 H2243 0.959 . S
C2255 C2253 1.561 . S
C2256 C2253 1.526 . S
C2256 C2257 1.396 . S
C2256 C2261 1.390 . S
C2257 C2251 1.465 . S
C2257 C2256 1.396 . S
C2257 C2258 1.399 . S
C2258 H2244 0.929 . S
C2258 C2257 1.399 . S
C2258 C2259 1.385 . S
C2259 H2245 0.931 . S
C2259 C2258 1.385 . S
C2259 C2260 1.389 . S
C2260 C2259 1.389 . S
C2260 C2261 1.387 . S
C2261 H2246 0.930 . S
C2261 C2256 1.390 . S
C2261 C2260 1.387 . S
H2262 C2274 0.930 . S
H2263 C2276 0.930 . S
H2264 C2277 0.930 . S
H2265 C2281 0.959 . S
H2266 C2281 0.959 . S
H2267 C2281 0.961 . S
H2268 C2282 0.960 . S
H2269 C2282 0.961 . S
H2270 C2282 0.959 . S
H2271 C2285 0.929 . S
H2272 C2286 0.931 . S
H2273 C2288 0.930 . S
C2274 H2262 0.930 . S
C2274 C2275 1.399 . S
C2274 C2279 1.399 . S
C2275 C2274 1.399 . S
C2275 C2276 1.376 . S
C2276 H2263 0.930 . S
C2276 C2275 1.376 . S
C2276 C2277 1.388 . S
C2277 H2264 0.930 . S
C2277 C2276 1.388 . S
C2277 C2278 1.390 . S
C2278 C2277 1.390 . S
C2278 C2279 1.394 . S
C2278 C2284 1.465 . S
C2279 C2274 1.399 . S
C2279 C2278 1.394 . S
C2279 C2280 1.516 . S
C2280 C2279 1.516 . S
C2280 C2281 1.502 . S
C2280 C2282 1.561 . S
C2280 C2283 1.526 . S
C2281 H2265 0.959 . S
C2281 H2266 0.959 . S
C2281 H2267 0.961 . S
C2281 C2280 1.502 . S
C2282 H2268 0.960 . S
C2282 H2269 0.961 . S
C2282 H2270 0.959 . S
C2282 C2280 1.561 . S
C2283 C2280 1.526 . S
C2283 C2284 1.396 . S
C2283 C2288 1.390 . S
C2284 C2278 1.465 . S
C2284 C2283 1.396 . S
C2284 C2285 1.399 . S
C2285 H2271 0.929 . S
C2285 C2284 1.399 . S
C2285 C2286 1.385 . S
C2286 H2272 0.931 . S
C2286 C2285 1.385 . S
C2286 C2287 1.389 . S
C2287 C2286 1.389 . S
C2287 C2288 1.387 . S
C2288 H2273 0.930 . S
C2288 C2283 1.390 . S
C2288 C2287 1.387 . S
H2289 C2301 0.930 . S
H2290 C2303 0.930 . S
H2291 C2304 0.930 . S
H2292 C2308 0.959 . S
H2293 C2308 0.959 . S
H2294 C2308 0.961 . S
H2295 C2309 0.960 . S
H2296 C2309 0.961 . S
H2297 C2309 0.959 . S
H2298 C2312 0.929 . S
H2299 C2313 0.931 . S
H2300 C2315 0.930 . S
C2301 H2289 0.930 . S
C2301 C2302 1.399 . S
C2301 C2306 1.399 . S
C2302 C2301 1.399 . S
C2302 C2303 1.376 . S
C2303 H2290 0.930 . S
C2303 C2302 1.376 . S
C2303 C2304 1.388 . S
C2304 H2291 0.930 . S
C2304 C2303 1.388 . S
C2304 C2305 1.390 . S
C2305 C2304 1.390 . S
C2305 C2306 1.394 . S
C2305 C2311 1.465 . S
C2306 C2301 1.399 . S
C2306 C2305 1.394 . S
C2306 C2307 1.516 . S
C2307 C2306 1.516 . S
C2307 C2308 1.502 . S
C2307 C2309 1.561 . S
C2307 C2310 1.526 . S
C2308 H2292 0.959 . S
C2308 H2293 0.959 . S
C2308 H2294 0.961 . S
C2308 C2307 1.502 . S
C2309 H2295 0.960 . S
C2309 H2296 0.961 . S
C2309 H2297 0.959 . S
C2309 C2307 1.561 . S
C2310 C2307 1.526 . S
C2310 C2311 1.396 . S
C2310 C2315 1.390 . S
C2311 C2305 1.465 . S
C2311 C2310 1.396 . S
C2311 C2312 1.399 . S
C2312 H2298 0.929 . S
C2312 C2311 1.399 . S
C2312 C2313 1.385 . S
C2313 H2299 0.931 . S
C2313 C2312 1.385 . S
C2313 C2314 1.389 . S
C2314 C2313 1.389 . S
C2314 C2315 1.387 . S
C2315 H2300 0.930 . S
C2315 C2310 1.390 . S
C2315 C2314 1.387 . S
H2316 C2328 0.930 1_655 S
H2317 C2330 0.930 . S
H2318 C2331 0.930 . S
H2319 C2335 0.959 . S
H2320 C2335 0.959 . S
H2321 C2335 0.961 . S
H2322 C2336 0.960 . S
H2323 C2336 0.961 . S
H2324 C2336 0.959 1_455 S
H2325 C2339 0.929 . S
H2326 C2340 0.931 . S
H2327 C2342 0.930 1_655 S
C2328 H2316 0.930 1_455 S
C2328 C2329 1.399 . S
C2328 C2333 1.399 . S
C2329 C2328 1.399 . S
C2329 C2330 1.376 . S
C2330 H2317 0.930 . S
C2330 C2329 1.376 . S
C2330 C2331 1.388 . S
C2331 H2318 0.930 . S
C2331 C2330 1.388 . S
C2331 C2332 1.390 . S
C2332 C2331 1.390 . S
C2332 C2333 1.394 . S
C2332 C2338 1.465 . S
C2333 C2328 1.399 . S
C2333 C2332 1.394 . S
C2333 C2334 1.483 1_455 S
C2334 C2333 1.483 1_655 S
C2334 C2335 1.533 . S
C2334 C2336 1.590 . S
C2334 C2337 1.496 1_655 S
C2335 H2319 0.959 . S
C2335 H2320 0.959 . S
C2335 H2321 0.961 . S
C2335 C2334 1.533 . S
C2336 H2322 0.960 . S
C2336 H2323 0.961 . S
C2336 H2324 0.959 1_655 S
C2336 C2334 1.590 . S
C2337 C2334 1.496 1_455 S
C2337 C2338 1.396 . S
C2337 C2342 1.390 . S
C2338 C2332 1.465 . S
C2338 C2337 1.396 . S
C2338 C2339 1.399 . S
C2339 H2325 0.929 . S
C2339 C2338 1.399 . S
C2339 C2340 1.385 . S
C2340 H2326 0.931 . S
C2340 C2339 1.385 . S
C2340 C2341 1.389 . S
C2341 C2340 1.389 . S
C2341 C2342 1.387 . S
C2342 H2327 0.930 1_455 S
C2342 C2337 1.390 . S
C2342 C2341 1.387 . S
H2343 C2355 0.930 . S
H2344 C2357 0.930 . S
H2345 C2358 0.930 . S
H2346 C2362 0.959 . S
H2347 C2362 0.959 . S
H2348 C2362 0.961 . S
H2349 C2363 0.960 . S
H2350 C2363 0.961 . S
H2351 C2363 0.959 . S
H2352 C2366 0.929 . S
H2353 C2367 0.931 . S
H2354 C2369 0.930 . S
C2355 H2343 0.930 . S
C2355 C2356 1.399 . S
C2355 C2360 1.399 . S
C2356 C2355 1.399 . S
C2356 C2357 1.376 . S
C2357 H2344 0.930 . S
C2357 C2356 1.376 . S
C2357 C2358 1.388 . S
C2358 H2345 0.930 . S
C2358 C2357 1.388 . S
C2358 C2359 1.390 . S
C2359 C2358 1.390 . S
C2359 C2360 1.394 . S
C2359 C2365 1.465 . S
C2360 C2355 1.399 . S
C2360 C2359 1.394 . S
C2360 C2361 1.516 . S
C2361 C2360 1.516 . S
C2361 C2362 1.502 . S
C2361 C2363 1.561 . S
C2361 C2364 1.526 . S
C2362 H2346 0.959 . S
C2362 H2347 0.959 . S
C2362 H2348 0.961 . S
C2362 C2361 1.502 . S
C2363 H2349 0.960 . S
C2363 H2350 0.961 . S
C2363 H2351 0.959 . S
C2363 C2361 1.561 . S
C2364 C2361 1.526 . S
C2364 C2365 1.396 . S
C2364 C2369 1.390 . S
C2365 C2359 1.465 . S
C2365 C2364 1.396 . S
C2365 C2366 1.399 . S
C2366 H2352 0.929 . S
C2366 C2365 1.399 . S
C2366 C2367 1.385 . S
C2367 H2353 0.931 . S
C2367 C2366 1.385 . S
C2367 C2368 1.389 . S
C2368 C2367 1.389 . S
C2368 C2369 1.387 . S
C2369 H2354 0.930 . S
C2369 C2364 1.390 . S
C2369 C2368 1.387 . S
H2370 C2382 0.930 . S
H2371 C2384 0.930 . S
H2372 C2385 0.930 . S
H2373 C2389 0.959 . S
H2374 C2389 0.959 . S
H2375 C2389 0.961 . S
H2376 C2390 0.960 . S
H2377 C2390 0.961 . S
H2378 C2390 0.959 . S
H2379 C2393 0.929 . S
H2380 C2394 0.931 . S
H2381 C2396 0.930 . S
C2382 H2370 0.930 . S
C2382 C2383 1.399 . S
C2382 C2387 1.399 . S
C2383 C2382 1.399 . S
C2383 C2384 1.376 . S
C2384 H2371 0.930 . S
C2384 C2383 1.376 . S
C2384 C2385 1.388 . S
C2385 H2372 0.930 . S
C2385 C2384 1.388 . S
C2385 C2386 1.390 . S
C2386 C2385 1.390 . S
C2386 C2387 1.394 . S
C2386 C2392 1.465 . S
C2387 C2382 1.399 . S
C2387 C2386 1.394 . S
C2387 C2388 1.516 . S
C2388 C2387 1.516 . S
C2388 C2389 1.502 . S
C2388 C2390 1.561 . S
C2388 C2391 1.526 . S
C2389 H2373 0.959 . S
C2389 H2374 0.959 . S
C2389 H2375 0.961 . S
C2389 C2388 1.502 . S
C2390 H2376 0.960 . S
C2390 H2377 0.961 . S
C2390 H2378 0.959 . S
C2390 C2388 1.561 . S
C2391 C2388 1.526 . S
C2391 C2392 1.396 . S
C2391 C2396 1.390 . S
C2392 C2386 1.465 . S
C2392 C2391 1.396 . S
C2392 C2393 1.399 . S
C2393 H2379 0.929 . S
C2393 C2392 1.399 . S
C2393 C2394 1.385 . S
C2394 H2380 0.931 . S
C2394 C2393 1.385 . S
C2394 C2395 1.389 . S
C2395 C2394 1.389 . S
C2395 C2396 1.387 . S
C2396 H2381 0.930 . S
C2396 C2391 1.390 . S
C2396 C2395 1.387 . S
H2397 C2409 0.930 . S
H2398 C2411 0.930 . S
H2399 C2412 0.930 . S
H2400 C2416 0.959 . S
H2401 C2416 0.959 . S
H2402 C2416 0.961 . S
H2403 C2417 0.960 . S
H2404 C2417 0.961 . S
H2405 C2417 0.959 . S
H2406 C2420 0.929 . S
H2407 C2421 0.931 . S
H2408 C2423 0.930 . S
C2409 H2397 0.930 . S
C2409 C2410 1.399 . S
C2409 C2414 1.399 . S
C2410 C2409 1.399 . S
C2410 C2411 1.376 . S
C2411 H2398 0.930 . S
C2411 C2410 1.376 . S
C2411 C2412 1.388 . S
C2412 H2399 0.930 . S
C2412 C2411 1.388 . S
C2412 C2413 1.390 . S
C2413 C2412 1.390 . S
C2413 C2414 1.394 . S
C2413 C2419 1.465 . S
C2414 C2409 1.399 . S
C2414 C2413 1.394 . S
C2414 C2415 1.516 . S
C2415 C2414 1.516 . S
C2415 C2416 1.502 . S
C2415 C2417 1.561 . S
C2415 C2418 1.526 . S
C2416 H2400 0.959 . S
C2416 H2401 0.959 . S
C2416 H2402 0.961 . S
C2416 C2415 1.502 . S
C2417 H2403 0.960 . S
C2417 H2404 0.961 . S
C2417 H2405 0.959 . S
C2417 C2415 1.561 . S
C2418 C2415 1.526 . S
C2418 C2419 1.396 . S
C2418 C2423 1.390 . S
C2419 C2413 1.465 . S
C2419 C2418 1.396 . S
C2419 C2420 1.399 . S
C2420 H2406 0.929 . S
C2420 C2419 1.399 . S
C2420 C2421 1.385 . S
C2421 H2407 0.931 . S
C2421 C2420 1.385 . S
C2421 C2422 1.389 . S
C2422 C2421 1.389 . S
C2422 C2423 1.387 . S
C2423 H2408 0.930 . S
C2423 C2418 1.390 . S
C2423 C2422 1.387 . S
H2424 C2436 0.930 . S
H2425 C2438 0.930 . S
H2426 C2439 0.930 . S
H2427 C2443 0.959 1_655 S
H2428 C2443 0.959 . S
H2429 C2443 0.961 . S
H2430 C2444 0.960 . S
H2431 C2444 0.961 . S
H2432 C2444 0.959 . S
H2433 C2447 0.929 1_565 S
H2434 C2448 0.931 . S
H2435 C2450 0.930 . S
C2436 H2424 0.930 . S
C2436 C2437 1.399 . S
C2436 C2441 1.399 . S
C2437 C2436 1.399 . S
C2437 C2438 1.376 1_545 S
C2438 H2425 0.930 . S
C2438 C2437 1.376 1_565 S
C2438 C2439 1.388 . S
C2439 H2426 0.930 . S
C2439 C2438 1.388 . S
C2439 C2440 1.390 1_565 S
C2440 C2439 1.390 1_545 S
C2440 C2441 1.394 . S
C2440 C2446 1.465 . S
C2441 C2436 1.399 . S
C2441 C2440 1.394 . S
C2441 C2442 1.516 1_655 S
C2442 C2441 1.516 1_455 S
C2442 C2443 1.502 . S
C2442 C2444 1.561 . S
C2442 C2445 1.526 1_455 S
C2443 H2427 0.959 1_455 S
C2443 H2428 0.959 . S
C2443 H2429 0.961 . S
C2443 C2442 1.502 . S
C2444 H2430 0.960 . S
C2444 H2431 0.961 . S
C2444 H2432 0.959 . S
C2444 C2442 1.561 . S
C2445 C2442 1.526 1_655 S
C2445 C2446 1.396 . S
C2445 C2450 1.390 1_655 S
C2446 C2440 1.465 . S
C2446 C2445 1.396 . S
C2446 C2447 1.399 . S
C2447 H2433 0.929 1_545 S
C2447 C2446 1.399 . S
C2447 C2448 1.385 . S
C2448 H2434 0.931 . S
C2448 C2447 1.385 . S
C2448 C2449 1.354 1_655 S
C2449 C2448 1.354 1_455 S
C2449 C2450 1.397 . S
C2450 H2435 0.930 . S
C2450 C2445 1.390 1_455 S
C2450 C2449 1.397 . S
H2451 C2463 0.930 . S
H2452 C2465 0.930 . S
H2453 C2466 0.930 . S
H2454 C2470 0.959 . S
H2455 C2470 0.959 . S
H2456 C2470 0.961 . S
H2457 C2471 0.960 . S
H2458 C2471 0.961 . S
H2459 C2471 0.959 . S
H2460 C2474 0.929 . S
H2461 C2475 0.931 . S
H2462 C2477 0.930 . S
C2463 H2451 0.930 . S
C2463 C2464 1.399 . S
C2463 C2468 1.399 . S
C2464 C2463 1.399 . S
C2464 C2465 1.376 . S
C2465 H2452 0.930 . S
C2465 C2464 1.376 . S
C2465 C2466 1.388 . S
C2466 H2453 0.930 . S
C2466 C2465 1.388 . S
C2466 C2467 1.390 . S
C2467 C2466 1.390 . S
C2467 C2468 1.394 . S
C2467 C2473 1.465 . S
C2468 C2463 1.399 . S
C2468 C2467 1.394 . S
C2468 C2469 1.516 . S
C2469 C2468 1.516 . S
C2469 C2470 1.502 . S
C2469 C2471 1.561 . S
C2469 C2472 1.526 . S
C2470 H2454 0.959 . S
C2470 H2455 0.959 . S
C2470 H2456 0.961 . S
C2470 C2469 1.502 . S
C2471 H2457 0.960 . S
C2471 H2458 0.961 . S
C2471 H2459 0.959 . S
C2471 C2469 1.561 . S
C2472 C2469 1.526 . S
C2472 C2473 1.396 . S
C2472 C2477 1.390 . S
C2473 C2467 1.465 . S
C2473 C2472 1.396 . S
C2473 C2474 1.399 . S
C2474 H2460 0.929 . S
C2474 C2473 1.399 . S
C2474 C2475 1.385 . S
C2475 H2461 0.931 . S
C2475 C2474 1.385 . S
C2475 C2476 1.389 . S
C2476 C2475 1.389 . S
C2476 C2477 1.387 . S
C2477 H2462 0.930 . S
C2477 C2472 1.390 . S
C2477 C2476 1.387 . S
H2478 C2490 0.930 . S
H2479 C2492 0.930 . S
H2480 C2493 0.930 . S
H2481 C2497 0.959 . S
H2482 C2497 0.959 . S
H2483 C2497 0.961 . S
H2484 C2498 0.960 . S
H2485 C2498 0.961 . S
H2486 C2498 0.959 . S
H2487 C2501 0.929 1_565 S
H2488 C2502 0.922 1_565 S
H2489 C2504 0.930 . S
C2490 H2478 0.930 . S
C2490 C2491 1.399 . S
C2490 C2495 1.399 . S
C2491 C2490 1.399 . S
C2491 C2492 1.376 . S
C2492 H2479 0.930 . S
C2492 C2491 1.376 . S
C2492 C2493 1.388 . S
C2493 H2480 0.930 . S
C2493 C2492 1.388 . S
C2493 C2494 1.390 . S
C2494 C2493 1.390 . S
C2494 C2495 1.394 . S
C2494 C2500 1.465 . S
C2495 C2490 1.399 . S
C2495 C2494 1.394 . S
C2495 C2496 1.516 . S
C2496 C2495 1.516 . S
C2496 C2497 1.502 . S
C2496 C2498 1.561 . S
C2496 C2499 1.526 . S
C2497 H2481 0.959 . S
C2497 H2482 0.959 . S
C2497 H2483 0.961 . S
C2497 C2496 1.502 . S
C2498 H2484 0.960 . S
C2498 H2485 0.961 . S
C2498 H2486 0.959 . S
C2498 C2496 1.561 . S
C2499 C2496 1.526 . S
C2499 C2500 1.396 . S
C2499 C2504 1.390 . S
C2500 C2494 1.465 . S
C2500 C2499 1.396 . S
C2500 C2501 1.399 . S
C2501 H2487 0.929 1_545 S
C2501 C2500 1.399 . S
C2501 C2502 1.385 . S
C2502 H2488 0.922 1_545 S
C2502 C2501 1.385 . S
C2502 C2503 1.389 . S
C2503 C2502 1.389 . S
C2503 C2504 1.387 . S
C2504 H2489 0.930 . S
C2504 C2499 1.390 . S
C2504 C2503 1.387 . S
H2505 C2517 0.930 . S
H2506 C2519 0.930 . S
H2507 C2520 0.930 . S
H2508 C2524 0.959 . S
H2509 C2524 0.959 . S
H2510 C2524 0.961 . S
H2511 C2525 0.960 . S
H2512 C2525 0.961 . S
H2513 C2525 0.959 . S
H2514 C2528 0.929 . S
H2515 C2529 0.931 . S
H2516 C2531 0.930 . S
C2517 H2505 0.930 . S
C2517 C2518 1.399 . S
C2517 C2522 1.399 . S
C2518 C2517 1.399 . S
C2518 C2519 1.376 . S
C2519 H2506 0.930 . S
C2519 C2518 1.376 . S
C2519 C2520 1.388 . S
C2520 H2507 0.930 . S
C2520 C2519 1.388 . S
C2520 C2521 1.390 . S
C2521 C2520 1.390 . S
C2521 C2522 1.394 . S
C2521 C2527 1.465 . S
C2522 C2517 1.399 . S
C2522 C2521 1.394 . S
C2522 C2523 1.516 . S
C2523 C2522 1.516 . S
C2523 C2524 1.502 . S
C2523 C2525 1.561 . S
C2523 C2526 1.526 . S
C2524 H2508 0.959 . S
C2524 H2509 0.959 . S
C2524 H2510 0.961 . S
C2524 C2523 1.502 . S
C2525 H2511 0.960 . S
C2525 H2512 0.961 . S
C2525 H2513 0.959 . S
C2525 C2523 1.561 . S
C2526 C2523 1.526 . S
C2526 C2527 1.396 . S
C2526 C2531 1.390 . S
C2527 C2521 1.465 . S
C2527 C2526 1.396 . S
C2527 C2528 1.399 . S
C2528 H2514 0.929 . S
C2528 C2527 1.399 . S
C2528 C2529 1.385 . S
C2529 H2515 0.931 . S
C2529 C2528 1.385 . S
C2529 C2530 1.389 . S
C2530 C2529 1.389 . S
C2530 C2531 1.387 . S
C2531 H2516 0.930 . S
C2531 C2526 1.390 . S
C2531 C2530 1.387 . S
H2532 C2544 0.930 . S
H2533 C2546 0.930 . S
H2534 C2547 0.930 . S
H2535 C2551 0.959 . S
H2536 C2551 0.959 . S
H2537 C2551 0.961 . S
H2538 C2552 0.960 . S
H2539 C2552 0.961 . S
H2540 C2552 0.959 . S
H2541 C2555 0.929 . S
H2542 C2556 0.931 . S
H2543 C2558 0.930 . S
C2544 H2532 0.930 . S
C2544 C2545 1.399 . S
C2544 C2549 1.399 . S
C2545 C2544 1.399 . S
C2545 C2546 1.376 . S
C2546 H2533 0.930 . S
C2546 C2545 1.376 . S
C2546 C2547 1.388 . S
C2547 H2534 0.930 . S
C2547 C2546 1.388 . S
C2547 C2548 1.390 . S
C2548 C2547 1.390 . S
C2548 C2549 1.394 . S
C2548 C2554 1.465 . S
C2549 C2544 1.399 . S
C2549 C2548 1.394 . S
C2549 C2550 1.516 1_655 S
C2550 C2549 1.516 1_455 S
C2550 C2551 1.502 . S
C2550 C2552 1.561 . S
C2550 C2553 1.526 1_455 S
C2551 H2535 0.959 . S
C2551 H2536 0.959 . S
C2551 H2537 0.961 . S
C2551 C2550 1.502 . S
C2552 H2538 0.960 . S
C2552 H2539 0.961 . S
C2552 H2540 0.959 . S
C2552 C2550 1.561 . S
C2553 C2550 1.526 1_655 S
C2553 C2554 1.396 . S
C2553 C2558 1.390 1_655 S
C2554 C2548 1.465 . S
C2554 C2553 1.396 . S
C2554 C2555 1.399 . S
C2555 H2541 0.929 . S
C2555 C2554 1.399 . S
C2555 C2556 1.385 . S
C2556 H2542 0.931 . S
C2556 C2555 1.385 . S
C2556 C2557 1.389 1_655 S
C2557 C2556 1.389 1_455 S
C2557 C2558 1.387 . S
C2558 H2543 0.930 . S
C2558 C2553 1.390 1_455 S
C2558 C2557 1.387 . S
H2559 C2571 0.930 . S
H2560 C2573 0.930 . S
H2561 C2574 0.930 . S
H2562 C2578 0.959 . S
H2563 C2578 0.959 . S
H2564 C2578 0.961 . S
H2565 C2579 0.960 . S
H2566 C2579 0.961 . S
H2567 C2579 0.959 . S
H2568 C2582 0.929 . S
H2569 C2583 0.931 . S
H2570 C2585 0.930 . S
C2571 H2559 0.930 . S
C2571 C2572 1.399 . S
C2571 C2576 1.399 . S
C2572 C2571 1.399 . S
C2572 C2573 1.376 . S
C2573 H2560 0.930 . S
C2573 C2572 1.376 . S
C2573 C2574 1.388 . S
C2574 H2561 0.930 . S
C2574 C2573 1.388 . S
C2574 C2575 1.390 . S
C2575 C2574 1.390 . S
C2575 C2576 1.394 . S
C2575 C2581 1.465 . S
C2576 C2571 1.399 . S
C2576 C2575 1.394 . S
C2576 C2577 1.516 . S
C2577 C2576 1.516 . S
C2577 C2578 1.502 . S
C2577 C2579 1.561 . S
C2577 C2580 1.526 . S
C2578 H2562 0.959 . S
C2578 H2563 0.959 . S
C2578 H2564 0.961 . S
C2578 C2577 1.502 . S
C2579 H2565 0.960 . S
C2579 H2566 0.961 . S
C2579 H2567 0.959 . S
C2579 C2577 1.561 . S
C2580 C2577 1.526 . S
C2580 C2581 1.396 . S
C2580 C2585 1.390 . S
C2581 C2575 1.465 . S
C2581 C2580 1.396 . S
C2581 C2582 1.399 . S
C2582 H2568 0.929 . S
C2582 C2581 1.399 . S
C2582 C2583 1.385 . S
C2583 H2569 0.931 . S
C2583 C2582 1.385 . S
C2583 C2584 1.389 . S
C2584 C2583 1.389 . S
C2584 C2585 1.387 . S
C2585 H2570 0.930 . S
C2585 C2580 1.390 . S
C2585 C2584 1.387 . S
H2586 C2598 0.930 . S
H2587 C2600 0.930 . S
H2588 C2601 0.930 . S
H2589 C2605 0.959 . S
H2590 C2605 0.959 . S
H2591 C2605 0.961 . S
H2592 C2606 0.960 . S
H2593 C2606 0.961 . S
H2594 C2606 0.959 . S
H2595 C2609 0.929 . S
H2596 C2610 0.931 . S
H2597 C2612 0.930 . S
C2598 H2586 0.930 . S
C2598 C2599 1.399 . S
C2598 C2603 1.399 . S
C2599 C2598 1.399 . S
C2599 C2600 1.376 . S
C2600 H2587 0.930 . S
C2600 C2599 1.376 . S
C2600 C2601 1.388 . S
C2601 H2588 0.930 . S
C2601 C2600 1.388 . S
C2601 C2602 1.390 . S
C2602 C2601 1.390 . S
C2602 C2603 1.394 . S
C2602 C2608 1.465 . S
C2603 C2598 1.399 . S
C2603 C2602 1.394 . S
C2603 C2604 1.516 . S
C2604 C2603 1.516 . S
C2604 C2605 1.502 . S
C2604 C2606 1.561 . S
C2604 C2607 1.526 . S
C2605 H2589 0.959 . S
C2605 H2590 0.959 . S
C2605 H2591 0.961 . S
C2605 C2604 1.502 . S
C2606 H2592 0.960 . S
C2606 H2593 0.961 . S
C2606 H2594 0.959 . S
C2606 C2604 1.561 . S
C2607 C2604 1.526 . S
C2607 C2608 1.396 . S
C2607 C2612 1.390 . S
C2608 C2602 1.465 . S
C2608 C2607 1.396 . S
C2608 C2609 1.399 . S
C2609 H2595 0.929 . S
C2609 C2608 1.399 . S
C2609 C2610 1.385 . S
C2610 H2596 0.931 . S
C2610 C2609 1.385 . S
C2610 C2611 1.389 . S
C2611 C2610 1.389 . S
C2611 C2612 1.387 . S
C2612 H2597 0.930 . S
C2612 C2607 1.390 . S
C2612 C2611 1.387 . S
H2613 C2625 0.930 . S
H2614 C2627 0.930 . S
H2615 C2628 0.930 . S
H2616 C2632 0.959 . S
H2617 C2632 0.959 . S
H2618 C2632 0.961 . S
H2619 C2633 0.960 . S
H2620 C2633 0.961 . S
H2621 C2633 0.959 . S
H2622 C2636 0.929 . S
H2623 C2637 0.931 . S
H2624 C2639 0.930 . S
C2625 H2613 0.930 . S
C2625 C2626 1.399 . S
C2625 C2630 1.399 . S
C2626 C2625 1.399 . S
C2626 C2627 1.376 . S
C2627 H2614 0.930 . S
C2627 C2626 1.376 . S
C2627 C2628 1.388 . S
C2628 H2615 0.930 . S
C2628 C2627 1.388 . S
C2628 C2629 1.390 . S
C2629 C2628 1.390 . S
C2629 C2630 1.394 . S
C2629 C2635 1.465 . S
C2630 C2625 1.399 . S
C2630 C2629 1.394 . S
C2630 C2631 1.516 . S
C2631 C2630 1.516 . S
C2631 C2632 1.502 . S
C2631 C2633 1.561 . S
C2631 C2634 1.526 . S
C2632 H2616 0.959 . S
C2632 H2617 0.959 . S
C2632 H2618 0.961 . S
C2632 C2631 1.502 . S
C2633 H2619 0.960 . S
C2633 H2620 0.961 . S
C2633 H2621 0.959 . S
C2633 C2631 1.561 . S
C2634 C2631 1.526 . S
C2634 C2635 1.396 . S
C2634 C2639 1.390 . S
C2635 C2629 1.465 . S
C2635 C2634 1.396 . S
C2635 C2636 1.399 . S
C2636 H2622 0.929 . S
C2636 C2635 1.399 . S
C2636 C2637 1.385 . S
C2637 H2623 0.931 . S
C2637 C2636 1.385 . S
C2637 C2638 1.389 . S
C2638 C2637 1.389 . S
C2638 C2639 1.387 . S
C2639 H2624 0.930 . S
C2639 C2634 1.390 . S
C2639 C2638 1.387 . S
H2640 C2652 0.930 . S
H2641 C2654 0.930 . S
H2642 C2655 0.930 . S
H2643 C2659 0.959 . S
H2644 C2659 0.959 . S
H2645 C2659 0.961 . S
H2646 C2660 0.960 1_556 S
H2647 C2660 0.961 1_556 S
H2648 C2660 0.959 . S
H2649 C2663 0.929 . S
H2650 C2664 0.931 . S
H2651 C2666 0.930 . S
C2652 H2640 0.930 . S
C2652 C2653 1.399 1_556 S
C2652 C2657 1.399 1_556 S
C2653 C2652 1.399 1_554 S
C2653 C2654 1.376 . S
C2654 H2641 0.930 . S
C2654 C2653 1.376 . S
C2654 C2655 1.388 . S
C2655 H2642 0.930 . S
C2655 C2654 1.388 . S
C2655 C2656 1.390 . S
C2656 C2655 1.390 . S
C2656 C2657 1.394 . S
C2656 C2662 1.465 . S
C2657 C2652 1.399 1_554 S
C2657 C2656 1.394 . S
C2657 C2658 1.516 1_554 S
C2658 C2657 1.516 1_556 S
C2658 C2659 1.502 . S
C2658 C2660 1.561 1_556 S
C2658 C2661 1.526 1_556 S
C2659 H2643 0.959 . S
C2659 H2644 0.959 . S
C2659 H2645 0.961 . S
C2659 C2658 1.502 . S
C2660 H2646 0.960 1_554 S
C2660 H2647 0.961 1_554 S
C2660 H2648 0.959 . S
C2660 C2658 1.561 1_554 S
C2661 C2658 1.526 1_554 S
C2661 C2662 1.396 . S
C2661 C2666 1.390 . S
C2662 C2656 1.465 . S
C2662 C2661 1.396 . S
C2662 C2663 1.399 1_565 S
C2663 H2649 0.929 . S
C2663 C2662 1.399 1_545 S
C2663 C2664 1.385 . S
C2664 H2650 0.931 . S
C2664 C2663 1.385 . S
C2664 C2665 1.389 1_545 S
C2665 C2664 1.389 1_565 S
C2665 C2666 1.387 . S
C2666 H2651 0.930 . S
C2666 C2661 1.390 . S
C2666 C2665 1.387 . S
H2667 C2679 0.930 . S
H2668 C2681 0.930 . S
H2669 C2682 0.930 . S
H2670 C2686 0.959 . S
H2671 C2686 0.959 . S
H2672 C2686 0.961 . S
H2673 C2687 0.960 . S
H2674 C2687 0.961 . S
H2675 C2687 0.959 . S
H2676 C2690 0.929 . S
H2677 C2691 0.931 . S
H2678 C2693 0.930 . S
C2679 H2667 0.930 . S
C2679 C2680 1.399 . S
C2679 C2684 1.399 . S
C2680 C2679 1.399 . S
C2680 C2681 1.376 1_554 S
C2681 H2668 0.930 . S
C2681 C2680 1.376 1_556 S
C2681 C2682 1.388 . S
C2682 H2669 0.930 . S
C2682 C2681 1.388 . S
C2682 C2683 1.390 1_556 S
C2683 C2682 1.390 1_554 S
C2683 C2684 1.394 . S
C2683 C2689 1.465 . S
C2684 C2679 1.399 . S
C2684 C2683 1.394 . S
C2684 C2685 1.516 . S
C2685 C2684 1.516 . S
C2685 C2686 1.502 . S
C2685 C2687 1.561 . S
C2685 C2688 1.526 . S
C2686 H2670 0.959 . S
C2686 H2671 0.959 . S
C2686 H2672 0.961 . S
C2686 C2685 1.502 . S
C2687 H2673 0.960 . S
C2687 H2674 0.961 . S
C2687 H2675 0.959 . S
C2687 C2685 1.561 . S
C2688 C2685 1.526 . S
C2688 C2689 1.396 . S
C2688 C2693 1.390 . S
C2689 C2683 1.465 . S
C2689 C2688 1.396 . S
C2689 C2690 1.399 1_554 S
C2690 H2676 0.929 . S
C2690 C2689 1.399 1_556 S
C2690 C2691 1.385 . S
C2691 H2677 0.931 . S
C2691 C2690 1.385 . S
C2691 C2692 1.389 1_556 S
C2692 C2691 1.389 1_554 S
C2692 C2693 1.387 . S
C2693 H2678 0.930 . S
C2693 C2688 1.390 . S
C2693 C2692 1.387 . S
H2694 C2706 0.930 . S
H2695 C2708 0.930 . S
H2696 C2709 0.930 . S
H2697 C2713 0.959 . S
H2698 C2713 0.959 . S
H2699 C2713 0.961 . S
H2700 C2714 0.960 . S
H2701 C2714 0.961 . S
H2702 C2714 0.959 . S
H2703 C2717 0.929 . S
H2704 C2718 0.931 . S
H2705 C2720 0.930 . S
C2706 H2694 0.930 . S
C2706 C2707 1.399 . S
C2706 C2711 1.399 . S
C2707 C2706 1.399 . S
C2707 C2708 1.376 . S
C2708 H2695 0.930 . S
C2708 C2707 1.376 . S
C2708 C2709 1.388 . S
C2709 H2696 0.930 . S
C2709 C2708 1.388 . S
C2709 C2710 1.390 . S
C2710 C2709 1.390 . S
C2710 C2711 1.394 . S
C2710 C2716 1.465 . S
C2711 C2706 1.399 . S
C2711 C2710 1.394 . S
C2711 C2712 1.516 . S
C2712 C2711 1.516 . S
C2712 C2713 1.502 . S
C2712 C2714 1.561 . S
C2712 C2715 1.526 . S
C2713 H2697 0.959 . S
C2713 H2698 0.959 . S
C2713 H2699 0.961 . S
C2713 C2712 1.502 . S
C2714 H2700 0.960 . S
C2714 H2701 0.961 . S
C2714 H2702 0.959 . S
C2714 C2712 1.561 . S
C2715 C2712 1.526 . S
C2715 C2716 1.396 . S
C2715 C2720 1.390 . S
C2716 C2710 1.465 . S
C2716 C2715 1.396 . S
C2716 C2717 1.399 . S
C2717 H2703 0.929 . S
C2717 C2716 1.399 . S
C2717 C2718 1.385 . S
C2718 H2704 0.931 . S
C2718 C2717 1.385 . S
C2718 C2719 1.389 . S
C2719 C2718 1.389 . S
C2719 C2720 1.387 . S
C2720 H2705 0.930 . S
C2720 C2715 1.390 . S
C2720 C2719 1.387 . S
H2721 C2733 0.930 . S
H2722 C2735 0.930 . S
H2723 C2736 0.930 . S
H2724 C2740 0.959 . S
H2725 C2740 0.959 . S
H2726 C2740 0.961 . S
H2727 C2741 0.960 . S
H2728 C2741 0.961 . S
H2729 C2741 0.959 . S
H2730 C2744 0.929 . S
H2731 C2745 0.931 . S
H2732 C2747 0.930 . S
C2733 H2721 0.930 . S
C2733 C2734 1.399 . S
C2733 C2738 1.399 . S
C2734 C2733 1.399 . S
C2734 C2735 1.376 . S
C2735 H2722 0.930 . S
C2735 C2734 1.376 . S
C2735 C2736 1.388 . S
C2736 H2723 0.930 . S
C2736 C2735 1.388 . S
C2736 C2737 1.390 . S
C2737 C2736 1.390 . S
C2737 C2738 1.394 . S
C2737 C2743 1.465 . S
C2738 C2733 1.399 . S
C2738 C2737 1.394 . S
C2738 C2739 1.516 . S
C2739 C2738 1.516 . S
C2739 C2740 1.502 . S
C2739 C2741 1.561 . S
C2739 C2742 1.526 . S
C2740 H2724 0.959 . S
C2740 H2725 0.959 . S
C2740 H2726 0.961 . S
C2740 C2739 1.502 . S
C2741 H2727 0.960 . S
C2741 H2728 0.961 . S
C2741 H2729 0.959 . S
C2741 C2739 1.561 . S
C2742 C2739 1.526 . S
C2742 C2743 1.396 . S
C2742 C2747 1.390 . S
C2743 C2737 1.465 . S
C2743 C2742 1.396 . S
C2743 C2744 1.399 . S
C2744 H2730 0.929 . S
C2744 C2743 1.399 . S
C2744 C2745 1.385 . S
C2745 H2731 0.931 . S
C2745 C2744 1.385 . S
C2745 C2746 1.389 . S
C2746 C2745 1.389 . S
C2746 C2747 1.387 . S
C2747 H2732 0.930 . S
C2747 C2742 1.390 . S
C2747 C2746 1.387 . S
H2748 C2760 0.930 . S
H2749 C2762 0.930 . S
H2750 C2763 0.930 . S
H2751 C2767 0.959 . S
H2752 C2767 0.959 . S
H2753 C2767 0.961 . S
H2754 C2768 0.960 . S
H2755 C2768 0.961 . S
H2756 C2768 0.959 . S
H2757 C2771 0.929 . S
H2758 C2772 0.931 . S
H2759 C2774 0.930 . S
C2760 H2748 0.930 . S
C2760 C2761 1.399 . S
C2760 C2765 1.399 . S
C2761 C2760 1.399 . S
C2761 C2762 1.376 . S
C2762 H2749 0.930 . S
C2762 C2761 1.376 . S
C2762 C2763 1.388 . S
C2763 H2750 0.930 . S
C2763 C2762 1.388 . S
C2763 C2764 1.390 . S
C2764 C2763 1.390 . S
C2764 C2765 1.394 . S
C2764 C2770 1.465 . S
C2765 C2760 1.399 . S
C2765 C2764 1.394 . S
C2765 C2766 1.516 . S
C2766 C2765 1.516 . S
C2766 C2767 1.502 . S
C2766 C2768 1.561 . S
C2766 C2769 1.526 . S
C2767 H2751 0.959 . S
C2767 H2752 0.959 . S
C2767 H2753 0.961 . S
C2767 C2766 1.502 . S
C2768 H2754 0.960 . S
C2768 H2755 0.961 . S
C2768 H2756 0.959 . S
C2768 C2766 1.561 . S
C2769 C2766 1.526 . S
C2769 C2770 1.396 . S
C2769 C2774 1.390 . S
C2770 C2764 1.465 . S
C2770 C2769 1.396 . S
C2770 C2771 1.399 . S
C2771 H2757 0.929 . S
C2771 C2770 1.399 . S
C2771 C2772 1.385 . S
C2772 H2758 0.931 . S
C2772 C2771 1.385 . S
C2772 C2773 1.389 . S
C2773 C2772 1.389 . S
C2773 C2774 1.387 . S
C2774 H2759 0.930 . S
C2774 C2769 1.390 . S
C2774 C2773 1.387 . S
H2775 C2787 0.930 . S
H2776 C2789 0.930 . S
H2777 C2790 0.930 . S
H2778 C2794 0.959 . S
H2779 C2794 0.959 . S
H2780 C2794 0.961 . S
H2781 C2795 0.960 . S
H2782 C2795 0.961 . S
H2783 C2795 0.959 . S
H2784 C2798 0.929 . S
H2785 C2799 0.931 . S
H2786 C2801 0.930 . S
C2787 H2775 0.930 . S
C2787 C2788 1.399 . S
C2787 C2792 1.399 . S
C2788 C2787 1.399 . S
C2788 C2789 1.376 . S
C2789 H2776 0.930 . S
C2789 C2788 1.376 . S
C2789 C2790 1.388 . S
C2790 H2777 0.930 . S
C2790 C2789 1.388 . S
C2790 C2791 1.390 . S
C2791 C2790 1.390 . S
C2791 C2792 1.394 . S
C2791 C2797 1.465 . S
C2792 C2787 1.399 . S
C2792 C2791 1.394 . S
C2792 C2793 1.516 . S
C2793 C2792 1.516 . S
C2793 C2794 1.502 . S
C2793 C2795 1.561 . S
C2793 C2796 1.526 . S
C2794 H2778 0.959 . S
C2794 H2779 0.959 . S
C2794 H2780 0.961 . S
C2794 C2793 1.502 . S
C2795 H2781 0.960 . S
C2795 H2782 0.961 . S
C2795 H2783 0.959 . S
C2795 C2793 1.561 . S
C2796 C2793 1.526 . S
C2796 C2797 1.396 . S
C2796 C2801 1.390 . S
C2797 C2791 1.465 . S
C2797 C2796 1.396 . S
C2797 C2798 1.399 . S
C2798 H2784 0.929 . S
C2798 C2797 1.399 . S
C2798 C2799 1.385 . S
C2799 H2785 0.931 . S
C2799 C2798 1.385 . S
C2799 C2800 1.389 . S
C2800 C2799 1.389 . S
C2800 C2801 1.387 . S
C2801 H2786 0.930 . S
C2801 C2796 1.390 . S
C2801 C2800 1.387 . S
H2802 C2814 0.930 . S
H2803 C2816 0.930 . S
H2804 C2817 0.930 . S
H2805 C2821 0.959 . S
H2806 C2821 0.959 . S
H2807 C2821 0.961 . S
H2808 C2822 0.960 . S
H2809 C2822 0.961 . S
H2810 C2822 0.959 . S
H2811 C2825 0.929 . S
H2812 C2826 0.931 . S
H2813 C2828 0.930 . S
C2814 H2802 0.930 . S
C2814 C2815 1.399 . S
C2814 C2819 1.399 . S
C2815 C2814 1.399 . S
C2815 C2816 1.376 . S
C2816 H2803 0.930 . S
C2816 C2815 1.376 . S
C2816 C2817 1.388 . S
C2817 H2804 0.930 . S
C2817 C2816 1.388 . S
C2817 C2818 1.390 . S
C2818 C2817 1.390 . S
C2818 C2819 1.394 . S
C2818 C2824 1.465 . S
C2819 C2814 1.399 . S
C2819 C2818 1.394 . S
C2819 C2820 1.516 . S
C2820 C2819 1.516 . S
C2820 C2821 1.502 . S
C2820 C2822 1.561 . S
C2820 C2823 1.526 . S
C2821 H2805 0.959 . S
C2821 H2806 0.959 . S
C2821 H2807 0.961 . S
C2821 C2820 1.502 . S
C2822 H2808 0.960 . S
C2822 H2809 0.961 . S
C2822 H2810 0.959 . S
C2822 C2820 1.561 . S
C2823 C2820 1.526 . S
C2823 C2824 1.396 . S
C2823 C2828 1.390 . S
C2824 C2818 1.465 . S
C2824 C2823 1.396 . S
C2824 C2825 1.399 . S
C2825 H2811 0.929 . S
C2825 C2824 1.399 . S
C2825 C2826 1.385 . S
C2826 H2812 0.931 . S
C2826 C2825 1.385 . S
C2826 C2827 1.389 . S
C2827 C2826 1.389 . S
C2827 C2828 1.387 . S
C2828 H2813 0.930 . S
C2828 C2823 1.390 . S
C2828 C2827 1.387 . S
H2829 C2841 0.930 . S
H2830 C2843 0.930 . S
H2831 C2844 0.930 . S
H2832 C2848 0.959 . S
H2833 C2848 0.959 . S
H2834 C2848 0.961 . S
H2835 C2849 0.960 . S
H2836 C2849 0.961 . S
H2837 C2849 0.959 . S
H2838 C2852 0.929 . S
H2839 C2853 0.931 . S
H2840 C2855 0.930 . S
C2841 H2829 0.930 . S
C2841 C2842 1.399 . S
C2841 C2846 1.399 . S
C2842 C2841 1.399 . S
C2842 C2843 1.376 . S
C2843 H2830 0.930 . S
C2843 C2842 1.376 . S
C2843 C2844 1.388 . S
C2844 H2831 0.930 . S
C2844 C2843 1.388 . S
C2844 C2845 1.390 . S
C2845 C2844 1.390 . S
C2845 C2846 1.394 . S
C2845 C2851 1.465 . S
C2846 C2841 1.399 . S
C2846 C2845 1.394 . S
C2846 C2847 1.516 . S
C2847 C2846 1.516 . S
C2847 C2848 1.502 . S
C2847 C2849 1.561 . S
C2847 C2850 1.526 . S
C2848 H2832 0.959 . S
C2848 H2833 0.959 . S
C2848 H2834 0.961 . S
C2848 C2847 1.502 . S
C2849 H2835 0.960 . S
C2849 H2836 0.961 . S
C2849 H2837 0.959 . S
C2849 C2847 1.561 . S
C2850 C2847 1.526 . S
C2850 C2851 1.396 . S
C2850 C2855 1.390 . S
C2851 C2845 1.465 . S
C2851 C2850 1.396 . S
C2851 C2852 1.399 . S
C2852 H2838 0.929 . S
C2852 C2851 1.399 . S
C2852 C2853 1.385 . S
C2853 H2839 0.931 . S
C2853 C2852 1.385 . S
C2853 C2854 1.389 . S
C2854 C2853 1.389 . S
C2854 C2855 1.387 . S
C2855 H2840 0.930 . S
C2855 C2850 1.390 . S
C2855 C2854 1.387 . S
H2856 C2868 0.930 . S
H2857 C2870 0.930 . S
H2858 C2871 0.930 . S
H2859 C2875 0.959 . S
H2860 C2875 0.959 . S
H2861 C2875 0.961 . S
H2862 C2876 0.960 . S
H2863 C2876 0.961 . S
H2864 C2876 0.959 . S
H2865 C2879 0.929 . S
H2866 C2880 0.931 . S
H2867 C2882 0.930 . S
C2868 H2856 0.930 . S
C2868 C2869 1.399 . S
C2868 C2873 1.399 . S
C2869 C2868 1.399 . S
C2869 C2870 1.376 . S
C2870 H2857 0.930 . S
C2870 C2869 1.376 . S
C2870 C2871 1.388 . S
C2871 H2858 0.930 . S
C2871 C2870 1.388 . S
C2871 C2872 1.390 . S
C2872 C2871 1.390 . S
C2872 C2873 1.394 . S
C2872 C2878 1.465 . S
C2873 C2868 1.399 . S
C2873 C2872 1.394 . S
C2873 C2874 1.516 . S
C2874 C2873 1.516 . S
C2874 C2875 1.502 . S
C2874 C2876 1.561 . S
C2874 C2877 1.526 . S
C2875 H2859 0.959 . S
C2875 H2860 0.959 . S
C2875 H2861 0.961 . S
C2875 C2874 1.502 . S
C2876 H2862 0.960 . S
C2876 H2863 0.961 . S
C2876 H2864 0.959 . S
C2876 C2874 1.561 . S
C2877 C2874 1.526 . S
C2877 C2878 1.396 . S
C2877 C2882 1.390 . S
C2878 C2872 1.465 . S
C2878 C2877 1.396 . S
C2878 C2879 1.399 . S
C2879 H2865 0.929 . S
C2879 C2878 1.399 . S
C2879 C2880 1.385 . S
C2880 H2866 0.931 . S
C2880 C2879 1.385 . S
C2880 C2881 1.389 . S
C2881 C2880 1.389 . S
C2881 C2882 1.387 . S
C2882 H2867 0.930 . S
C2882 C2877 1.390 . S
C2882 C2881 1.387 . S
H2883 C2895 0.930 . S
H2884 C2897 0.930 . S
H2885 C2898 0.930 . S
H2886 C2902 0.959 . S
H2887 C2902 0.959 . S
H2888 C2902 0.961 . S
H2889 C2903 0.960 . S
H2890 C2903 0.961 . S
H2891 C2903 0.959 . S
H2892 C2906 0.929 . S
H2893 C2907 0.931 . S
H2894 C2909 0.930 . S
C2895 H2883 0.930 . S
C2895 C2896 1.399 . S
C2895 C2900 1.399 . S
C2896 C2895 1.399 . S
C2896 C2897 1.376 . S
C2897 H2884 0.930 . S
C2897 C2896 1.376 . S
C2897 C2898 1.388 . S
C2898 H2885 0.930 . S
C2898 C2897 1.388 . S
C2898 C2899 1.390 . S
C2899 C2898 1.390 . S
C2899 C2900 1.394 . S
C2899 C2905 1.465 . S
C2900 C2895 1.399 . S
C2900 C2899 1.394 . S
C2900 C2901 1.516 . S
C2901 C2900 1.516 . S
C2901 C2902 1.502 . S
C2901 C2903 1.561 . S
C2901 C2904 1.526 . S
C2902 H2886 0.959 . S
C2902 H2887 0.959 . S
C2902 H2888 0.961 . S
C2902 C2901 1.502 . S
C2903 H2889 0.960 . S
C2903 H2890 0.961 . S
C2903 H2891 0.959 . S
C2903 C2901 1.561 . S
C2904 C2901 1.526 . S
C2904 C2905 1.396 . S
C2904 C2909 1.390 . S
C2905 C2899 1.465 . S
C2905 C2904 1.396 . S
C2905 C2906 1.399 . S
C2906 H2892 0.929 . S
C2906 C2905 1.399 . S
C2906 C2907 1.385 . S
C2907 H2893 0.931 . S
C2907 C2906 1.385 . S
C2907 C2908 1.389 . S
C2908 C2907 1.389 . S
C2908 C2909 1.387 . S
C2909 H2894 0.930 . S
C2909 C2904 1.390 . S
C2909 C2908 1.387 . S
H2910 C2922 0.930 . S
H2911 C2924 0.930 . S
H2912 C2925 0.930 . S
H2913 C2929 0.959 . S
H2914 C2929 0.959 . S
H2915 C2929 0.961 . S
H2916 C2930 0.960 . S
H2917 C2930 0.961 . S
H2918 C2930 0.959 . S
H2919 C2933 0.929 . S
H2920 C2934 0.931 . S
H2921 C2936 0.930 . S
C2922 H2910 0.930 . S
C2922 C2923 1.399 . S
C2922 C2927 1.399 . S
C2923 C2922 1.399 . S
C2923 C2924 1.376 . S
C2924 H2911 0.930 . S
C2924 C2923 1.376 . S
C2924 C2925 1.388 . S
C2925 H2912 0.930 . S
C2925 C2924 1.388 . S
C2925 C2926 1.390 . S
C2926 C2925 1.390 . S
C2926 C2927 1.394 . S
C2926 C2932 1.465 . S
C2927 C2922 1.399 . S
C2927 C2926 1.394 . S
C2927 C2928 1.516 . S
C2928 C2927 1.516 . S
C2928 C2929 1.502 . S
C2928 C2930 1.561 . S
C2928 C2931 1.526 . S
C2929 H2913 0.959 . S
C2929 H2914 0.959 . S
C2929 H2915 0.961 . S
C2929 C2928 1.502 . S
C2930 H2916 0.960 . S
C2930 H2917 0.961 . S
C2930 H2918 0.959 . S
C2930 C2928 1.561 . S
C2931 C2928 1.526 . S
C2931 C2932 1.396 . S
C2931 C2936 1.390 . S
C2932 C2926 1.465 . S
C2932 C2931 1.396 . S
C2932 C2933 1.399 . S
C2933 H2919 0.929 . S
C2933 C2932 1.399 . S
C2933 C2934 1.385 . S
C2934 H2920 0.931 . S
C2934 C2933 1.385 . S
C2934 C2935 1.389 . S
C2935 C2934 1.389 . S
C2935 C2936 1.387 . S
C2936 H2921 0.930 . S
C2936 C2931 1.390 . S
C2936 C2935 1.387 . S
H2937 C2949 0.930 . S
H2938 C2951 0.930 . S
H2939 C2952 0.930 . S
H2940 C2956 0.959 . S
H2941 C2956 0.959 . S
H2942 C2956 0.961 . S
H2943 C2957 0.960 . S
H2944 C2957 0.961 . S
H2945 C2957 0.959 . S
H2946 C2960 0.929 . S
H2947 C2961 0.931 . S
H2948 C2963 0.930 . S
C2949 H2937 0.930 . S
C2949 C2950 1.399 . S
C2949 C2954 1.399 . S
C2950 C2949 1.399 . S
C2950 C2951 1.376 . S
C2951 H2938 0.930 . S
C2951 C2950 1.376 . S
C2951 C2952 1.388 . S
C2952 H2939 0.930 . S
C2952 C2951 1.388 . S
C2952 C2953 1.390 . S
C2953 C2952 1.390 . S
C2953 C2954 1.394 . S
C2953 C2959 1.465 . S
C2954 C2949 1.399 . S
C2954 C2953 1.394 . S
C2954 C2955 1.516 . S
C2955 C2954 1.516 . S
C2955 C2956 1.502 . S
C2955 C2957 1.561 . S
C2955 C2958 1.526 . S
C2956 H2940 0.959 . S
C2956 H2941 0.959 . S
C2956 H2942 0.961 . S
C2956 C2955 1.502 . S
C2957 H2943 0.960 . S
C2957 H2944 0.961 . S
C2957 H2945 0.959 . S
C2957 C2955 1.561 . S
C2958 C2955 1.526 . S
C2958 C2959 1.396 . S
C2958 C2963 1.390 . S
C2959 C2953 1.465 . S
C2959 C2958 1.396 . S
C2959 C2960 1.399 . S
C2960 H2946 0.929 . S
C2960 C2959 1.399 . S
C2960 C2961 1.385 . S
C2961 H2947 0.931 . S
C2961 C2960 1.385 . S
C2961 C2962 1.389 . S
C2962 C2961 1.389 . S
C2962 C2963 1.387 . S
C2963 H2948 0.930 . S
C2963 C2958 1.390 . S
C2963 C2962 1.387 . S
H2964 C2976 0.930 . S
H2965 C2978 0.930 . S
H2966 C2979 0.930 . S
H2967 C2983 0.959 . S
H2968 C2983 0.959 . S
H2969 C2983 0.961 . S
H2970 C2984 0.960 . S
H2971 C2984 0.961 . S
H2972 C2984 0.959 1_655 S
H2973 C2987 0.929 . S
H2974 C2988 0.931 . S
H2975 C2990 0.930 . S
C2976 H2964 0.930 . S
C2976 C2977 1.399 . S
C2976 C2981 1.399 . S
C2977 C2976 1.399 . S
C2977 C2978 1.376 . S
C2978 H2965 0.930 . S
C2978 C2977 1.376 . S
C2978 C2979 1.388 . S
C2979 H2966 0.930 . S
C2979 C2978 1.388 . S
C2979 C2980 1.390 . S
C2980 C2979 1.390 . S
C2980 C2981 1.394 . S
C2980 C2986 1.465 . S
C2981 C2976 1.399 . S
C2981 C2980 1.394 . S
C2981 C2982 1.516 . S
C2982 C2981 1.516 . S
C2982 C2983 1.502 . S
C2982 C2984 1.561 . S
C2982 C2985 1.526 . S
C2983 H2967 0.959 . S
C2983 H2968 0.959 . S
C2983 H2969 0.961 . S
C2983 C2982 1.502 . S
C2984 H2970 0.960 . S
C2984 H2971 0.961 . S
C2984 H2972 0.959 1_455 S
C2984 C2982 1.561 . S
C2985 C2982 1.526 . S
C2985 C2986 1.396 . S
C2985 C2990 1.390 . S
C2986 C2980 1.465 . S
C2986 C2985 1.396 . S
C2986 C2987 1.399 . S
C2987 H2973 0.929 . S
C2987 C2986 1.399 . S
C2987 C2988 1.385 . S
C2988 H2974 0.931 . S
C2988 C2987 1.385 . S
C2988 C2989 1.389 . S
C2989 C2988 1.389 . S
C2989 C2990 1.387 . S
C2990 H2975 0.930 . S
C2990 C2985 1.390 . S
C2990 C2989 1.387 . S
H2991 C3003 0.930 . S
H2992 C3005 0.930 . S
H2993 C3006 0.930 . S
H2994 C3010 0.959 . S
H2995 C3010 0.959 . S
H2996 C3010 0.961 . S
H2997 C3011 0.960 . S
H2998 C3011 0.961 . S
H2999 C3011 0.959 . S
H3000 C3014 0.929 . S
H3001 C3015 0.931 . S
H3002 C3017 0.930 . S
C3003 H2991 0.930 . S
C3003 C3004 1.399 . S
C3003 C3008 1.399 . S
C3004 C3003 1.399 . S
C3004 C3005 1.376 . S
C3005 H2992 0.930 . S
C3005 C3004 1.376 . S
C3005 C3006 1.388 . S
C3006 H2993 0.930 . S
C3006 C3005 1.388 . S
C3006 C3007 1.390 . S
C3007 C3006 1.390 . S
C3007 C3008 1.394 . S
C3007 C3013 1.465 . S
C3008 C3003 1.399 . S
C3008 C3007 1.394 . S
C3008 C3009 1.516 . S
C3009 C3008 1.516 . S
C3009 C3010 1.502 . S
C3009 C3011 1.561 . S
C3009 C3012 1.526 . S
C3010 H2994 0.959 . S
C3010 H2995 0.959 . S
C3010 H2996 0.961 . S
C3010 C3009 1.502 . S
C3011 H2997 0.960 . S
C3011 H2998 0.961 . S
C3011 H2999 0.959 . S
C3011 C3009 1.561 . S
C3012 C3009 1.526 . S
C3012 C3013 1.396 . S
C3012 C3017 1.390 . S
C3013 C3007 1.465 . S
C3013 C3012 1.396 . S
C3013 C3014 1.399 . S
C3014 H3000 0.929 . S
C3014 C3013 1.399 . S
C3014 C3015 1.385 . S
C3015 H3001 0.931 . S
C3015 C3014 1.385 . S
C3015 C3016 1.389 . S
C3016 C3015 1.389 . S
C3016 C3017 1.387 . S
C3017 H3002 0.930 . S
C3017 C3012 1.390 . S
C3017 C3016 1.387 . S
H3018 C3030 0.930 . S
H3019 C3032 0.930 . S
H3020 C3033 0.930 . S
H3021 C3037 0.959 . S
H3022 C3037 0.959 . S
H3023 C3037 0.961 . S
H3024 C3038 0.960 . S
H3025 C3038 0.961 . S
H3026 C3038 0.959 . S
H3027 C3041 0.929 . S
H3028 C3042 0.931 1_554 S
H3029 C3044 0.930 . S
C3030 H3018 0.930 . S
C3030 C3031 1.399 . S
C3030 C3035 1.399 . S
C3031 C3030 1.399 . S
C3031 C3032 1.376 . S
C3032 H3019 0.930 . S
C3032 C3031 1.376 . S
C3032 C3033 1.388 . S
C3033 H3020 0.930 . S
C3033 C3032 1.388 . S
C3033 C3034 1.390 . S
C3034 C3033 1.390 . S
C3034 C3035 1.394 . S
C3034 C3040 1.465 . S
C3035 C3030 1.399 . S
C3035 C3034 1.394 . S
C3035 C3036 1.516 . S
C3036 C3035 1.516 . S
C3036 C3037 1.502 . S
C3036 C3038 1.561 . S
C3036 C3039 1.526 . S
C3037 H3021 0.959 . S
C3037 H3022 0.959 . S
C3037 H3023 0.961 . S
C3037 C3036 1.502 . S
C3038 H3024 0.960 . S
C3038 H3025 0.961 . S
C3038 H3026 0.959 . S
C3038 C3036 1.561 . S
C3039 C3036 1.526 . S
C3039 C3040 1.396 . S
C3039 C3044 1.390 . S
C3040 C3034 1.465 . S
C3040 C3039 1.396 . S
C3040 C3041 1.399 . S
C3041 H3027 0.929 . S
C3041 C3040 1.399 . S
C3041 C3042 1.385 . S
C3042 H3028 0.931 1_556 S
C3042 C3041 1.385 . S
C3042 C3043 1.389 . S
C3043 C3042 1.389 . S
C3043 C3044 1.387 . S
C3044 H3029 0.930 . S
C3044 C3039 1.390 . S
C3044 C3043 1.387 . S
H3045 C3057 0.930 . S
H3046 C3059 0.930 . S
H3047 C3060 0.930 . S
H3048 C3064 0.959 . S
H3049 C3064 0.959 . S
H3050 C3064 0.961 . S
H3051 C3065 0.960 . S
H3052 C3065 0.961 . S
H3053 C3065 0.959 . S
H3054 C3068 0.929 . S
H3055 C3069 0.931 . S
H3056 C3071 0.930 . S
C3057 H3045 0.930 . S
C3057 C3058 1.399 . S
C3057 C3062 1.399 . S
C3058 C3057 1.399 . S
C3058 C3059 1.376 . S
C3059 H3046 0.930 . S
C3059 C3058 1.376 . S
C3059 C3060 1.388 . S
C3060 H3047 0.930 . S
C3060 C3059 1.388 . S
C3060 C3061 1.390 . S
C3061 C3060 1.390 . S
C3061 C3062 1.394 . S
C3061 C3067 1.465 . S
C3062 C3057 1.399 . S
C3062 C3061 1.394 . S
C3062 C3063 1.516 . S
C3063 C3062 1.516 . S
C3063 C3064 1.502 . S
C3063 C3065 1.561 . S
C3063 C3066 1.526 . S
C3064 H3048 0.959 . S
C3064 H3049 0.959 . S
C3064 H3050 0.961 . S
C3064 C3063 1.502 . S
C3065 H3051 0.960 . S
C3065 H3052 0.961 . S
C3065 H3053 0.959 . S
C3065 C3063 1.561 . S
C3066 C3063 1.526 . S
C3066 C3067 1.396 . S
C3066 C3071 1.390 . S
C3067 C3061 1.465 . S
C3067 C3066 1.396 . S
C3067 C3068 1.399 . S
C3068 H3054 0.929 . S
C3068 C3067 1.399 . S
C3068 C3069 1.385 . S
C3069 H3055 0.931 . S
C3069 C3068 1.385 . S
C3069 C3070 1.389 . S
C3070 C3069 1.389 . S
C3070 C3071 1.387 . S
C3071 H3056 0.930 . S
C3071 C3066 1.390 . S
C3071 C3070 1.387 . S
H3072 C3084 0.930 . S
H3073 C3086 0.930 . S
H3074 C3087 0.930 . S
H3075 C3091 0.959 . S
H3076 C3091 0.959 . S
H3077 C3091 0.961 . S
H3078 C3092 0.960 . S
H3079 C3092 0.961 . S
H3080 C3092 0.959 . S
H3081 C3095 0.929 . S
H3082 C3096 0.931 . S
H3083 C3098 0.930 . S
C3084 H3072 0.930 . S
C3084 C3085 1.399 . S
C3084 C3089 1.399 . S
C3085 C3084 1.399 . S
C3085 C3086 1.376 . S
C3086 H3073 0.930 . S
C3086 C3085 1.376 . S
C3086 C3087 1.388 . S
C3087 H3074 0.930 . S
C3087 C3086 1.388 . S
C3087 C3088 1.390 . S
C3088 C3087 1.390 . S
C3088 C3089 1.394 . S
C3088 C3094 1.465 . S
C3089 C3084 1.399 . S
C3089 C3088 1.394 . S
C3089 C3090 1.516 . S
C3090 C3089 1.516 . S
C3090 C3091 1.502 . S
C3090 C3092 1.561 . S
C3090 C3093 1.526 . S
C3091 H3075 0.959 . S
C3091 H3076 0.959 . S
C3091 H3077 0.961 . S
C3091 C3090 1.502 . S
C3092 H3078 0.960 . S
C3092 H3079 0.961 . S
C3092 H3080 0.959 . S
C3092 C3090 1.561 . S
C3093 C3090 1.526 . S
C3093 C3094 1.396 . S
C3093 C3098 1.390 . S
C3094 C3088 1.465 . S
C3094 C3093 1.396 . S
C3094 C3095 1.399 . S
C3095 H3081 0.929 . S
C3095 C3094 1.399 . S
C3095 C3096 1.385 . S
C3096 H3082 0.931 . S
C3096 C3095 1.385 . S
C3096 C3097 1.389 . S
C3097 C3096 1.389 . S
C3097 C3098 1.387 . S
C3098 H3083 0.930 . S
C3098 C3093 1.390 . S
C3098 C3097 1.387 . S
H3099 C3111 0.930 . S
H3100 C3113 0.930 . S
H3101 C3114 0.930 . S
H3102 C3118 0.959 . S
H3103 C3118 0.959 . S
H3104 C3118 0.961 . S
H3105 C3119 0.960 . S
H3106 C3119 0.961 . S
H3107 C3119 0.959 . S
H3108 C3122 0.929 . S
H3109 C3123 0.931 . S
H3110 C3125 0.930 . S
C3111 H3099 0.930 . S
C3111 C3112 1.399 . S
C3111 C3116 1.399 . S
C3112 C3111 1.399 . S
C3112 C3113 1.376 . S
C3113 H3100 0.930 . S
C3113 C3112 1.376 . S
C3113 C3114 1.388 . S
C3114 H3101 0.930 . S
C3114 C3113 1.388 . S
C3114 C3115 1.390 . S
C3115 C3114 1.390 . S
C3115 C3116 1.394 . S
C3115 C3121 1.465 . S
C3116 C3111 1.399 . S
C3116 C3115 1.394 . S
C3116 C3117 1.516 . S
C3117 C3116 1.516 . S
C3117 C3118 1.502 . S
C3117 C3119 1.561 . S
C3117 C3120 1.526 . S
C3118 H3102 0.959 . S
C3118 H3103 0.959 . S
C3118 H3104 0.961 . S
C3118 C3117 1.502 . S
C3119 H3105 0.960 . S
C3119 H3106 0.961 . S
C3119 H3107 0.959 . S
C3119 C3117 1.561 . S
C3120 C3117 1.526 . S
C3120 C3121 1.396 . S
C3120 C3125 1.390 . S
C3121 C3115 1.465 . S
C3121 C3120 1.396 . S
C3121 C3122 1.399 . S
C3122 H3108 0.929 . S
C3122 C3121 1.399 . S
C3122 C3123 1.385 . S
C3123 H3109 0.931 . S
C3123 C3122 1.385 . S
C3123 C3124 1.389 . S
C3124 C3123 1.389 . S
C3124 C3125 1.387 . S
C3125 H3110 0.930 . S
C3125 C3120 1.390 . S
C3125 C3124 1.387 . S
H3126 C3138 0.930 1_565 S
H3127 C3140 0.930 . S
H3128 C3141 0.930 . S
H3129 C3145 0.959 . S
H3130 C3145 0.959 . S
H3131 C3145 0.961 . S
H3132 C3146 0.960 . S
H3133 C3146 0.961 . S
H3134 C3146 0.959 . S
H3135 C3149 0.929 . S
H3136 C3150 0.931 . S
H3137 C3152 0.930 . S
C3138 H3126 0.930 1_545 S
C3138 C3139 1.399 . S
C3138 C3143 1.399 . S
C3139 C3138 1.399 . S
C3139 C3140 1.376 . S
C3140 H3127 0.930 . S
C3140 C3139 1.376 . S
C3140 C3141 1.388 . S
C3141 H3128 0.930 . S
C3141 C3140 1.388 . S
C3141 C3142 1.390 . S
C3142 C3141 1.390 . S
C3142 C3143 1.394 . S
C3142 C3148 1.465 . S
C3143 C3138 1.399 . S
C3143 C3142 1.394 . S
C3143 C3144 1.485 1_545 S
C3144 C3143 1.485 1_565 S
C3144 C3145 1.530 . S
C3144 C3146 1.588 . S
C3144 C3147 1.500 1_565 S
C3145 H3129 0.959 . S
C3145 H3130 0.959 . S
C3145 H3131 0.961 . S
C3145 C3144 1.530 . S
C3146 H3132 0.960 . S
C3146 H3133 0.961 . S
C3146 H3134 0.959 . S
C3146 C3144 1.588 . S
C3147 C3144 1.500 1_545 S
C3147 C3148 1.396 . S
C3147 C3152 1.390 . S
C3148 C3142 1.465 . S
C3148 C3147 1.396 . S
C3148 C3149 1.399 . S
C3149 H3135 0.929 . S
C3149 C3148 1.399 . S
C3149 C3150 1.385 . S
C3150 H3136 0.931 . S
C3150 C3149 1.385 . S
C3150 C3151 1.389 . S
C3151 C3150 1.389 . S
C3151 C3152 1.387 . S
C3152 H3137 0.930 . S
C3152 C3147 1.390 . S
C3152 C3151 1.387 . S
H3153 C3165 0.930 . S
H3154 C3167 0.930 . S
H3155 C3168 0.930 . S
H3156 C3172 0.959 . S
H3157 C3172 0.959 . S
H3158 C3172 0.961 . S
H3159 C3173 0.960 . S
H3160 C3173 0.961 . S
H3161 C3173 0.959 . S
H3162 C3176 0.929 . S
H3163 C3177 0.931 . S
H3164 C3179 0.930 . S
C3165 H3153 0.930 . S
C3165 C3166 1.399 . S
C3165 C3170 1.399 . S
C3166 C3165 1.399 . S
C3166 C3167 1.376 . S
C3167 H3154 0.930 . S
C3167 C3166 1.376 . S
C3167 C3168 1.388 . S
C3168 H3155 0.930 . S
C3168 C3167 1.388 . S
C3168 C3169 1.390 . S
C3169 C3168 1.390 . S
C3169 C3170 1.394 . S
C3169 C3175 1.465 . S
C3170 C3165 1.399 . S
C3170 C3169 1.394 . S
C3170 C3171 1.516 . S
C3171 C3170 1.516 . S
C3171 C3172 1.502 . S
C3171 C3173 1.561 . S
C3171 C3174 1.526 . S
C3172 H3156 0.959 . S
C3172 H3157 0.959 . S
C3172 H3158 0.961 . S
C3172 C3171 1.502 . S
C3173 H3159 0.960 . S
C3173 H3160 0.961 . S
C3173 H3161 0.959 . S
C3173 C3171 1.561 . S
C3174 C3171 1.526 . S
C3174 C3175 1.396 . S
C3174 C3179 1.390 . S
C3175 C3169 1.465 . S
C3175 C3174 1.396 . S
C3175 C3176 1.399 . S
C3176 H3162 0.929 . S
C3176 C3175 1.399 . S
C3176 C3177 1.385 . S
C3177 H3163 0.931 . S
C3177 C3176 1.385 . S
C3177 C3178 1.389 . S
C3178 C3177 1.389 . S
C3178 C3179 1.387 . S
C3179 H3164 0.930 . S
C3179 C3174 1.390 . S
C3179 C3178 1.387 . S
H3180 C3192 0.930 . S
H3181 C3194 0.930 . S
H3182 C3195 0.930 1_565 S
H3183 C3199 0.959 . S
H3184 C3199 0.959 . S
H3185 C3199 0.961 . S
H3186 C3200 0.960 . S
H3187 C3200 0.961 . S
H3188 C3200 0.959 . S
H3189 C3203 0.929 1_565 S
H3190 C3204 0.931 . S
H3191 C3206 0.930 . S
C3192 H3180 0.930 . S
C3192 C3193 1.399 . S
C3192 C3197 1.399 . S
C3193 C3192 1.399 . S
C3193 C3194 1.376 . S
C3194 H3181 0.930 . S
C3194 C3193 1.376 . S
C3194 C3195 1.388 . S
C3195 H3182 0.930 1_545 S
C3195 C3194 1.388 . S
C3195 C3196 1.390 . S
C3196 C3195 1.390 . S
C3196 C3197 1.394 . S
C3196 C3202 1.465 . S
C3197 C3192 1.399 . S
C3197 C3196 1.394 . S
C3197 C3198 1.516 . S
C3198 C3197 1.516 . S
C3198 C3199 1.502 . S
C3198 C3200 1.561 . S
C3198 C3201 1.526 . S
C3199 H3183 0.959 . S
C3199 H3184 0.959 . S
C3199 H3185 0.961 . S
C3199 C3198 1.502 . S
C3200 H3186 0.960 . S
C3200 H3187 0.961 . S
C3200 H3188 0.959 . S
C3200 C3198 1.561 . S
C3201 C3198 1.526 . S
C3201 C3202 1.396 . S
C3201 C3206 1.390 . S
C3202 C3196 1.465 . S
C3202 C3201 1.396 . S
C3202 C3203 1.399 . S
C3203 H3189 0.929 1_545 S
C3203 C3202 1.399 . S
C3203 C3204 1.385 . S
C3204 H3190 0.931 . S
C3204 C3203 1.385 . S
C3204 C3205 1.389 . S
C3205 C3204 1.389 . S
C3205 C3206 1.387 . S
C3206 H3191 0.930 . S
C3206 C3201 1.390 . S
C3206 C3205 1.387 . S
H3207 C3219 0.930 . S
H3208 C3221 0.930 . S
H3209 C3222 0.930 . S
H3210 C3226 0.959 . S
H3211 C3226 0.959 . S
H3212 C3226 0.961 . S
H3213 C3227 0.960 . S
H3214 C3227 0.961 . S
H3215 C3227 0.959 . S
H3216 C3230 0.929 . S
H3217 C3231 0.931 . S
H3218 C3233 0.930 . S
C3219 H3207 0.930 . S
C3219 C3220 1.399 . S
C3219 C3224 1.399 . S
C3220 C3219 1.399 . S
C3220 C3221 1.376 . S
C3221 H3208 0.930 . S
C3221 C3220 1.376 . S
C3221 C3222 1.388 . S
C3222 H3209 0.930 . S
C3222 C3221 1.388 . S
C3222 C3223 1.390 . S
C3223 C3222 1.390 . S
C3223 C3224 1.394 . S
C3223 C3229 1.465 . S
C3224 C3219 1.399 . S
C3224 C3223 1.394 . S
C3224 C3225 1.516 . S
C3225 C3224 1.516 . S
C3225 C3226 1.502 . S
C3225 C3227 1.561 . S
C3225 C3228 1.526 . S
C3226 H3210 0.959 . S
C3226 H3211 0.959 . S
C3226 H3212 0.961 . S
C3226 C3225 1.502 . S
C3227 H3213 0.960 . S
C3227 H3214 0.961 . S
C3227 H3215 0.959 . S
C3227 C3225 1.561 . S
C3228 C3225 1.526 . S
C3228 C3229 1.396 . S
C3228 C3233 1.390 . S
C3229 C3223 1.465 . S
C3229 C3228 1.396 . S
C3229 C3230 1.399 . S
C3230 H3216 0.929 . S
C3230 C3229 1.399 . S
C3230 C3231 1.385 . S
C3231 H3217 0.931 . S
C3231 C3230 1.385 . S
C3231 C3232 1.389 . S
C3232 C3231 1.389 . S
C3232 C3233 1.387 . S
C3233 H3218 0.930 . S
C3233 C3228 1.390 . S
C3233 C3232 1.387 . S
H3234 C3246 0.930 . S
H3235 C3248 0.930 . S
H3236 C3249 0.930 . S
H3237 C3253 0.959 . S
H3238 C3253 0.959 . S
H3239 C3253 0.961 . S
H3240 C3254 0.960 . S
H3241 C3254 0.961 . S
H3242 C3254 0.959 . S
H3243 C3257 0.929 . S
H3244 C3258 0.931 . S
H3245 C3260 0.930 . S
C3246 H3234 0.930 . S
C3246 C3247 1.399 1_565 S
C3246 C3251 1.399 . S
C3247 C3246 1.399 1_545 S
C3247 C3248 1.376 . S
C3248 H3235 0.930 . S
C3248 C3247 1.376 . S
C3248 C3249 1.388 . S
C3249 H3236 0.930 . S
C3249 C3248 1.388 . S
C3249 C3250 1.390 . S
C3250 C3249 1.390 . S
C3250 C3251 1.394 1_545 S
C3250 C3256 1.465 . S
C3251 C3246 1.399 . S
C3251 C3250 1.394 1_565 S
C3251 C3252 1.516 . S
C3252 C3251 1.516 . S
C3252 C3253 1.502 . S
C3252 C3254 1.561 . S
C3252 C3255 1.499 1_565 S
C3253 H3237 0.959 . S
C3253 H3238 0.959 . S
C3253 H3239 0.961 . S
C3253 C3252 1.502 . S
C3254 H3240 0.960 . S
C3254 H3241 0.961 . S
C3254 H3242 0.959 . S
C3254 C3252 1.561 . S
C3255 C3252 1.499 1_545 S
C3255 C3256 1.436 . S
C3255 C3260 1.383 1_545 S
C3256 C3250 1.465 . S
C3256 C3255 1.436 . S
C3256 C3257 1.399 . S
C3257 H3243 0.929 . S
C3257 C3256 1.399 . S
C3257 C3258 1.385 . S
C3258 H3244 0.931 . S
C3258 C3257 1.385 . S
C3258 C3259 1.389 . S
C3259 C3258 1.389 . S
C3259 C3260 1.387 1_545 S
C3260 H3245 0.930 . S
C3260 C3255 1.383 1_565 S
C3260 C3259 1.387 1_565 S
H3261 C3273 0.930 . S
H3262 C3275 0.930 . S
H3263 C3276 0.930 . S
H3264 C3280 0.959 . S
H3265 C3280 0.959 . S
H3266 C3280 0.961 . S
H3267 C3281 0.960 . S
H3268 C3281 0.961 . S
H3269 C3281 0.959 . S
H3270 C3284 0.929 . S
H3271 C3285 0.931 . S
H3272 C3287 0.930 . S
C3273 H3261 0.930 . S
C3273 C3274 1.399 . S
C3273 C3278 1.399 . S
C3274 C3273 1.399 . S
C3274 C3275 1.376 . S
C3275 H3262 0.930 . S
C3275 C3274 1.376 . S
C3275 C3276 1.388 . S
C3276 H3263 0.930 . S
C3276 C3275 1.388 . S
C3276 C3277 1.390 . S
C3277 C3276 1.390 . S
C3277 C3278 1.394 . S
C3277 C3283 1.465 . S
C3278 C3273 1.399 . S
C3278 C3277 1.394 . S
C3278 C3279 1.516 . S
C3279 C3278 1.516 . S
C3279 C3280 1.502 . S
C3279 C3281 1.561 . S
C3279 C3282 1.526 . S
C3280 H3264 0.959 . S
C3280 H3265 0.959 . S
C3280 H3266 0.961 . S
C3280 C3279 1.502 . S
C3281 H3267 0.960 . S
C3281 H3268 0.961 . S
C3281 H3269 0.959 . S
C3281 C3279 1.561 . S
C3282 C3279 1.526 . S
C3282 C3283 1.396 . S
C3282 C3287 1.390 . S
C3283 C3277 1.465 . S
C3283 C3282 1.396 . S
C3283 C3284 1.399 . S
C3284 H3270 0.929 . S
C3284 C3283 1.399 . S
C3284 C3285 1.385 . S
C3285 H3271 0.931 . S
C3285 C3284 1.385 . S
C3285 C3286 1.389 . S
C3286 C3285 1.389 . S
C3286 C3287 1.387 . S
C3287 H3272 0.930 . S
C3287 C3282 1.390 . S
C3287 C3286 1.387 . S
H3288 C3300 0.930 . S
H3289 C3302 0.930 . S
H3290 C3303 0.930 . S
H3291 C3307 0.965 . S
H3292 C3307 0.952 1_556 S
H3293 C3307 0.959 1_556 S
H3294 C3308 0.960 . S
H3295 C3308 0.961 . S
H3296 C3308 0.959 1_554 S
H3297 C3311 0.929 . S
H3298 C3312 0.931 . S
H3299 C3314 0.930 1_556 S
C3300 H3288 0.930 . S
C3300 C3301 1.399 . S
C3300 C3305 1.399 . S
C3301 C3300 1.399 . S
C3301 C3302 1.376 . S
C3302 H3289 0.930 . S
C3302 C3301 1.376 . S
C3302 C3303 1.388 . S
C3303 H3290 0.930 . S
C3303 C3302 1.388 . S
C3303 C3304 1.390 . S
C3304 C3303 1.390 . S
C3304 C3305 1.394 . S
C3304 C3310 1.465 . S
C3305 C3300 1.399 . S
C3305 C3304 1.394 . S
C3305 C3306 1.516 . S
C3306 C3305 1.516 . S
C3306 C3307 1.504 . S
C3306 C3308 1.561 1_554 S
C3306 C3309 1.526 . S
C3307 H3291 0.965 . S
C3307 H3292 0.952 1_554 S
C3307 H3293 0.959 1_554 S
C3307 C3306 1.504 . S
C3308 H3294 0.960 . S
C3308 H3295 0.961 . S
C3308 H3296 0.959 1_556 S
C3308 C3306 1.561 1_556 S
C3309 C3306 1.526 . S
C3309 C3310 1.396 . S
C3309 C3314 1.390 . S
C3310 C3304 1.465 . S
C3310 C3309 1.396 . S
C3310 C3311 1.399 . S
C3311 H3297 0.929 . S
C3311 C3310 1.399 . S
C3311 C3312 1.385 . S
C3312 H3298 0.931 . S
C3312 C3311 1.385 . S
C3312 C3313 1.389 . S
C3313 C3312 1.389 . S
C3313 C3314 1.387 . S
C3314 H3299 0.930 1_554 S
C3314 C3309 1.390 . S
C3314 C3313 1.387 . S
H3315 C3327 0.930 . S
H3316 C3329 0.930 . S
H3317 C3330 0.930 . S
H3318 C3334 0.959 . S
H3319 C3334 0.959 1_556 S
H3320 C3334 0.961 1_556 S
H3321 C3335 0.960 . S
H3322 C3335 0.961 . S
H3323 C3335 0.959 1_554 S
H3324 C3338 0.929 . S
H3325 C3339 0.931 . S
H3326 C3341 0.930 . S
C3327 H3315 0.930 . S
C3327 C3328 1.399 . S
C3327 C3332 1.399 . S
C3328 C3327 1.399 . S
C3328 C3329 1.376 . S
C3329 H3316 0.930 . S
C3329 C3328 1.376 . S
C3329 C3330 1.388 . S
C3330 H3317 0.930 . S
C3330 C3329 1.388 . S
C3330 C3331 1.390 . S
C3331 C3330 1.390 . S
C3331 C3332 1.394 . S
C3331 C3337 1.465 . S
C3332 C3327 1.399 . S
C3332 C3331 1.394 . S
C3332 C3333 1.516 . S
C3333 C3332 1.516 . S
C3333 C3334 1.502 . S
C3333 C3335 1.561 1_554 S
C3333 C3336 1.526 . S
C3334 H3318 0.959 . S
C3334 H3319 0.959 1_554 S
C3334 H3320 0.961 1_554 S
C3334 C3333 1.502 . S
C3335 H3321 0.960 . S
C3335 H3322 0.961 . S
C3335 H3323 0.959 1_556 S
C3335 C3333 1.561 1_556 S
C3336 C3333 1.526 . S
C3336 C3337 1.396 . S
C3336 C3341 1.390 . S
C3337 C3331 1.465 . S
C3337 C3336 1.396 . S
C3337 C3338 1.399 . S
C3338 H3324 0.929 . S
C3338 C3337 1.399 . S
C3338 C3339 1.385 . S
C3339 H3325 0.931 . S
C3339 C3338 1.385 . S
C3339 C3340 1.389 . S
C3340 C3339 1.389 . S
C3340 C3341 1.387 . S
C3341 H3326 0.930 . S
C3341 C3336 1.390 . S
C3341 C3340 1.387 . S
H3342 C3354 0.930 . S
H3343 C3356 0.930 . S
H3344 C3357 0.930 . S
H3345 C3361 0.959 . S
H3346 C3361 0.959 . S
H3347 C3361 0.961 . S
H3348 C3362 0.960 . S
H3349 C3362 0.961 . S
H3350 C3362 0.959 . S
H3351 C3365 0.929 . S
H3352 C3366 0.931 . S
H3353 C3368 0.930 . S
C3354 H3342 0.930 . S
C3354 C3355 1.399 . S
C3354 C3359 1.399 . S
C3355 C3354 1.399 . S
C3355 C3356 1.376 . S
C3356 H3343 0.930 . S
C3356 C3355 1.376 . S
C3356 C3357 1.388 . S
C3357 H3344 0.930 . S
C3357 C3356 1.388 . S
C3357 C3358 1.390 . S
C3358 C3357 1.390 . S
C3358 C3359 1.394 . S
C3358 C3364 1.465 . S
C3359 C3354 1.399 . S
C3359 C3358 1.394 . S
C3359 C3360 1.516 . S
C3360 C3359 1.516 . S
C3360 C3361 1.502 . S
C3360 C3362 1.561 . S
C3360 C3363 1.526 . S
C3361 H3345 0.959 . S
C3361 H3346 0.959 . S
C3361 H3347 0.961 . S
C3361 C3360 1.502 . S
C3362 H3348 0.960 . S
C3362 H3349 0.961 . S
C3362 H3350 0.959 . S
C3362 C3360 1.561 . S
C3363 C3360 1.526 . S
C3363 C3364 1.396 . S
C3363 C3368 1.390 . S
C3364 C3358 1.465 . S
C3364 C3363 1.396 . S
C3364 C3365 1.399 . S
C3365 H3351 0.929 . S
C3365 C3364 1.399 . S
C3365 C3366 1.385 . S
C3366 H3352 0.931 . S
C3366 C3365 1.385 . S
C3366 C3367 1.389 . S
C3367 C3366 1.389 . S
C3367 C3368 1.387 . S
C3368 H3353 0.930 . S
C3368 C3363 1.390 . S
C3368 C3367 1.387 . S
H3369 C3381 0.930 . S
H3370 C3383 0.930 . S
H3371 C3384 0.930 . S
H3372 C3388 0.959 . S
H3373 C3388 0.959 . S
H3374 C3388 0.961 . S
H3375 C3389 0.960 . S
H3376 C3389 0.961 . S
H3377 C3389 0.959 . S
H3378 C3392 0.929 . S
H3379 C3393 0.931 . S
H3380 C3395 0.930 . S
C3381 H3369 0.930 . S
C3381 C3382 1.399 . S
C3381 C3386 1.399 . S
C3382 C3381 1.399 . S
C3382 C3383 1.376 . S
C3383 H3370 0.930 . S
C3383 C3382 1.376 . S
C3383 C3384 1.388 . S
C3384 H3371 0.930 . S
C3384 C3383 1.388 . S
C3384 C3385 1.390 . S
C3385 C3384 1.390 . S
C3385 C3386 1.394 . S
C3385 C3391 1.465 . S
C3386 C3381 1.399 . S
C3386 C3385 1.394 . S
C3386 C3387 1.516 . S
C3387 C3386 1.516 . S
C3387 C3388 1.502 . S
C3387 C3389 1.561 . S
C3387 C3390 1.526 . S
C3388 H3372 0.959 . S
C3388 H3373 0.959 . S
C3388 H3374 0.961 . S
C3388 C3387 1.502 . S
C3389 H3375 0.960 . S
C3389 H3376 0.961 . S
C3389 H3377 0.959 . S
C3389 C3387 1.561 . S
C3390 C3387 1.526 . S
C3390 C3391 1.396 . S
C3390 C3395 1.390 . S
C3391 C3385 1.465 . S
C3391 C3390 1.396 . S
C3391 C3392 1.399 . S
C3392 H3378 0.929 . S
C3392 C3391 1.399 . S
C3392 C3393 1.385 . S
C3393 H3379 0.931 . S
C3393 C3392 1.385 . S
C3393 C3394 1.389 . S
C3394 C3393 1.389 . S
C3394 C3395 1.387 . S
C3395 H3380 0.930 . S
C3395 C3390 1.390 . S
C3395 C3394 1.387 . S
H3396 C3408 0.930 . S
H3397 C3410 0.930 . S
H3398 C3411 0.930 . S
H3399 C3415 0.959 . S
H3400 C3415 0.959 . S
H3401 C3415 0.961 . S
H3402 C3416 0.960 . S
H3403 C3416 0.961 . S
H3404 C3416 0.959 . S
H3405 C3419 0.929 . S
H3406 C3420 0.931 . S
H3407 C3422 0.930 . S
C3408 H3396 0.930 . S
C3408 C3409 1.399 1_565 S
C3408 C3413 1.399 . S
C3409 C3408 1.399 1_545 S
C3409 C3410 1.376 . S
C3410 H3397 0.930 . S
C3410 C3409 1.376 . S
C3410 C3411 1.388 . S
C3411 H3398 0.930 . S
C3411 C3410 1.388 . S
C3411 C3412 1.390 1_545 S
C3412 C3411 1.390 1_565 S
C3412 C3413 1.394 . S
C3412 C3418 1.465 . S
C3413 C3408 1.399 . S
C3413 C3412 1.394 . S
C3413 C3414 1.516 . S
C3414 C3413 1.516 . S
C3414 C3415 1.502 . S
C3414 C3416 1.561 . S
C3414 C3417 1.526 . S
C3415 H3399 0.959 . S
C3415 H3400 0.959 . S
C3415 H3401 0.961 . S
C3415 C3414 1.502 . S
C3416 H3402 0.960 . S
C3416 H3403 0.961 . S
C3416 H3404 0.959 . S
C3416 C3414 1.561 . S
C3417 C3414 1.526 . S
C3417 C3418 1.396 . S
C3417 C3422 1.390 . S
C3418 C3412 1.465 . S
C3418 C3417 1.396 . S
C3418 C3419 1.399 . S
C3419 H3405 0.929 . S
C3419 C3418 1.399 . S
C3419 C3420 1.385 . S
C3420 H3406 0.931 . S
C3420 C3419 1.385 . S
C3420 C3421 1.389 . S
C3421 C3420 1.389 . S
C3421 C3422 1.387 . S
C3422 H3407 0.930 . S
C3422 C3417 1.390 . S
C3422 C3421 1.387 . S
H3423 C3435 0.930 . S
H3424 C3437 0.930 . S
H3425 C3438 0.930 . S
H3426 C3442 0.959 . S
H3427 C3442 0.959 . S
H3428 C3442 0.961 . S
H3429 C3443 0.960 . S
H3430 C3443 0.961 . S
H3431 C3443 0.959 . S
H3432 C3446 0.929 . S
H3433 C3447 0.931 . S
H3434 C3449 0.930 . S
C3435 H3423 0.930 . S
C3435 C3436 1.399 . S
C3435 C3440 1.399 . S
C3436 C3435 1.399 . S
C3436 C3437 1.376 . S
C3437 H3424 0.930 . S
C3437 C3436 1.376 . S
C3437 C3438 1.388 . S
C3438 H3425 0.930 . S
C3438 C3437 1.388 . S
C3438 C3439 1.390 . S
C3439 C3438 1.390 . S
C3439 C3440 1.394 . S
C3439 C3445 1.465 . S
C3440 C3435 1.399 . S
C3440 C3439 1.394 . S
C3440 C3441 1.516 . S
C3441 C3440 1.516 . S
C3441 C3442 1.502 . S
C3441 C3443 1.561 . S
C3441 C3444 1.526 . S
C3442 H3426 0.959 . S
C3442 H3427 0.959 . S
C3442 H3428 0.961 . S
C3442 C3441 1.502 . S
C3443 H3429 0.960 . S
C3443 H3430 0.961 . S
C3443 H3431 0.959 . S
C3443 C3441 1.561 . S
C3444 C3441 1.526 . S
C3444 C3445 1.396 . S
C3444 C3449 1.390 . S
C3445 C3439 1.465 . S
C3445 C3444 1.396 . S
C3445 C3446 1.399 . S
C3446 H3432 0.929 . S
C3446 C3445 1.399 . S
C3446 C3447 1.385 . S
C3447 H3433 0.931 . S
C3447 C3446 1.385 . S
C3447 C3448 1.389 . S
C3448 C3447 1.389 . S
C3448 C3449 1.387 . S
C3449 H3434 0.930 . S
C3449 C3444 1.390 . S
C3449 C3448 1.387 . S
H3450 C3462 0.930 . S
H3451 C3464 0.930 . S
H3452 C3465 0.930 . S
H3453 C3469 0.959 . S
H3454 C3469 0.959 . S
H3455 C3469 0.961 . S
H3456 C3470 0.960 . S
H3457 C3470 0.961 . S
H3458 C3470 0.959 . S
H3459 C3473 0.929 . S
H3460 C3474 0.931 . S
H3461 C3476 0.930 . S
C3462 H3450 0.930 . S
C3462 C3463 1.399 . S
C3462 C3467 1.399 . S
C3463 C3462 1.399 . S
C3463 C3464 1.376 . S
C3464 H3451 0.930 . S
C3464 C3463 1.376 . S
C3464 C3465 1.388 . S
C3465 H3452 0.930 . S
C3465 C3464 1.388 . S
C3465 C3466 1.390 . S
C3466 C3465 1.390 . S
C3466 C3467 1.394 . S
C3466 C3472 1.465 . S
C3467 C3462 1.399 . S
C3467 C3466 1.394 . S
C3467 C3468 1.516 . S
C3468 C3467 1.516 . S
C3468 C3469 1.502 . S
C3468 C3470 1.561 . S
C3468 C3471 1.526 . S
C3469 H3453 0.959 . S
C3469 H3454 0.959 . S
C3469 H3455 0.961 . S
C3469 C3468 1.502 . S
C3470 H3456 0.960 . S
C3470 H3457 0.961 . S
C3470 H3458 0.959 . S
C3470 C3468 1.561 . S
C3471 C3468 1.526 . S
C3471 C3472 1.396 . S
C3471 C3476 1.390 . S
C3472 C3466 1.465 . S
C3472 C3471 1.396 . S
C3472 C3473 1.399 . S
C3473 H3459 0.929 . S
C3473 C3472 1.399 . S
C3473 C3474 1.385 . S
C3474 H3460 0.931 . S
C3474 C3473 1.385 . S
C3474 C3475 1.389 . S
C3475 C3474 1.389 . S
C3475 C3476 1.387 . S
C3476 H3461 0.930 . S
C3476 C3471 1.390 . S
C3476 C3475 1.387 . S
H3477 C3489 0.930 . S
H3478 C3491 0.930 . S
H3479 C3492 0.930 . S
H3480 C3496 0.959 . S
H3481 C3496 0.959 . S
H3482 C3496 0.961 . S
H3483 C3497 0.960 . S
H3484 C3497 0.961 . S
H3485 C3497 0.959 . S
H3486 C3500 0.929 . S
H3487 C3501 0.931 . S
H3488 C3503 0.930 . S
C3489 H3477 0.930 . S
C3489 C3490 1.399 . S
C3489 C3494 1.399 . S
C3490 C3489 1.399 . S
C3490 C3491 1.376 . S
C3491 H3478 0.930 . S
C3491 C3490 1.376 . S
C3491 C3492 1.388 . S
C3492 H3479 0.930 . S
C3492 C3491 1.388 . S
C3492 C3493 1.390 . S
C3493 C3492 1.390 . S
C3493 C3494 1.394 . S
C3493 C3499 1.465 . S
C3494 C3489 1.399 . S
C3494 C3493 1.394 . S
C3494 C3495 1.516 . S
C3495 C3494 1.516 . S
C3495 C3496 1.502 . S
C3495 C3497 1.561 . S
C3495 C3498 1.526 . S
C3496 H3480 0.959 . S
C3496 H3481 0.959 . S
C3496 H3482 0.961 . S
C3496 C3495 1.502 . S
C3497 H3483 0.960 . S
C3497 H3484 0.961 . S
C3497 H3485 0.959 . S
C3497 C3495 1.561 . S
C3498 C3495 1.526 . S
C3498 C3499 1.396 . S
C3498 C3503 1.390 . S
C3499 C3493 1.465 . S
C3499 C3498 1.396 . S
C3499 C3500 1.399 . S
C3500 H3486 0.929 . S
C3500 C3499 1.399 . S
C3500 C3501 1.385 . S
C3501 H3487 0.931 . S
C3501 C3500 1.385 . S
C3501 C3502 1.389 . S
C3502 C3501 1.389 . S
C3502 C3503 1.387 . S
C3503 H3488 0.930 . S
C3503 C3498 1.390 . S
C3503 C3502 1.387 . S
H3504 C3516 0.930 . S
H3505 C3518 0.930 . S
H3506 C3519 0.930 . S
H3507 C3523 0.959 . S
H3508 C3523 0.959 . S
H3509 C3523 0.961 . S
H3510 C3524 0.960 . S
H3511 C3524 0.961 . S
H3512 C3524 0.959 . S
H3513 C3527 0.929 . S
H3514 C3528 0.931 . S
H3515 C3530 0.930 . S
C3516 H3504 0.930 . S
C3516 C3517 1.399 . S
C3516 C3521 1.399 . S
C3517 C3516 1.399 . S
C3517 C3518 1.376 . S
C3518 H3505 0.930 . S
C3518 C3517 1.376 . S
C3518 C3519 1.388 . S
C3519 H3506 0.930 . S
C3519 C3518 1.388 . S
C3519 C3520 1.390 . S
C3520 C3519 1.390 . S
C3520 C3521 1.394 . S
C3520 C3526 1.465 . S
C3521 C3516 1.399 . S
C3521 C3520 1.394 . S
C3521 C3522 1.516 . S
C3522 C3521 1.516 . S
C3522 C3523 1.502 . S
C3522 C3524 1.561 . S
C3522 C3525 1.526 . S
C3523 H3507 0.959 . S
C3523 H3508 0.959 . S
C3523 H3509 0.961 . S
C3523 C3522 1.502 . S
C3524 H3510 0.960 . S
C3524 H3511 0.961 . S
C3524 H3512 0.959 . S
C3524 C3522 1.561 . S
C3525 C3522 1.526 . S
C3525 C3526 1.396 . S
C3525 C3530 1.390 . S
C3526 C3520 1.465 . S
C3526 C3525 1.396 . S
C3526 C3527 1.399 . S
C3527 H3513 0.929 . S
C3527 C3526 1.399 . S
C3527 C3528 1.385 . S
C3528 H3514 0.931 . S
C3528 C3527 1.385 . S
C3528 C3529 1.389 . S
C3529 C3528 1.389 . S
C3529 C3530 1.387 . S
C3530 H3515 0.930 . S
C3530 C3525 1.390 . S
C3530 C3529 1.387 . S
H3531 C3543 0.930 . S
H3532 C3545 0.930 . S
H3533 C3546 0.930 . S
H3534 C3550 0.959 . S
H3535 C3550 0.959 . S
H3536 C3550 0.961 . S
H3537 C3551 0.960 . S
H3538 C3551 0.961 . S
H3539 C3551 0.959 . S
H3540 C3554 0.929 . S
H3541 C3555 0.931 . S
H3542 C3557 0.930 . S
C3543 H3531 0.930 . S
C3543 C3544 1.399 . S
C3543 C3548 1.399 . S
C3544 C3543 1.399 . S
C3544 C3545 1.376 . S
C3545 H3532 0.930 . S
C3545 C3544 1.376 . S
C3545 C3546 1.388 . S
C3546 H3533 0.930 . S
C3546 C3545 1.388 . S
C3546 C3547 1.390 . S
C3547 C3546 1.390 . S
C3547 C3548 1.394 . S
C3547 C3553 1.465 . S
C3548 C3543 1.399 . S
C3548 C3547 1.394 . S
C3548 C3549 1.516 . S
C3549 C3548 1.516 . S
C3549 C3550 1.502 . S
C3549 C3551 1.561 . S
C3549 C3552 1.526 . S
C3550 H3534 0.959 . S
C3550 H3535 0.959 . S
C3550 H3536 0.961 . S
C3550 C3549 1.502 . S
C3551 H3537 0.960 . S
C3551 H3538 0.961 . S
C3551 H3539 0.959 . S
C3551 C3549 1.561 . S
C3552 C3549 1.526 . S
C3552 C3553 1.396 . S
C3552 C3557 1.390 . S
C3553 C3547 1.465 . S
C3553 C3552 1.396 . S
C3553 C3554 1.399 . S
C3554 H3540 0.929 . S
C3554 C3553 1.399 . S
C3554 C3555 1.385 . S
C3555 H3541 0.931 . S
C3555 C3554 1.385 . S
C3555 C3556 1.389 . S
C3556 C3555 1.389 . S
C3556 C3557 1.387 . S
C3557 H3542 0.930 . S
C3557 C3552 1.390 . S
C3557 C3556 1.387 . S
H3558 C3570 0.930 . S
H3559 C3572 0.930 . S
H3560 C3573 0.930 . S
H3561 C3577 0.959 . S
H3562 C3577 0.959 . S
H3563 C3577 0.961 . S
H3564 C3578 0.960 . S
H3565 C3578 0.961 . S
H3566 C3578 0.959 . S
H3567 C3581 0.929 . S
H3568 C3582 0.931 . S
H3569 C3584 0.930 . S
C3570 H3558 0.930 . S
C3570 C3571 1.399 . S
C3570 C3575 1.399 . S
C3571 C3570 1.399 . S
C3571 C3572 1.376 1_556 S
C3572 H3559 0.930 . S
C3572 C3571 1.376 1_554 S
C3572 C3573 1.388 . S
C3573 H3560 0.930 . S
C3573 C3572 1.388 . S
C3573 C3574 1.390 . S
C3574 C3573 1.390 . S
C3574 C3575 1.394 1_554 S
C3574 C3580 1.465 . S
C3575 C3570 1.399 . S
C3575 C3574 1.394 1_556 S
C3575 C3576 1.516 . S
C3576 C3575 1.516 . S
C3576 C3577 1.502 . S
C3576 C3578 1.561 1_455 S
C3576 C3579 1.526 . S
C3577 H3561 0.959 . S
C3577 H3562 0.959 . S
C3577 H3563 0.961 . S
C3577 C3576 1.502 . S
C3578 H3564 0.960 . S
C3578 H3565 0.961 . S
C3578 H3566 0.959 . S
C3578 C3576 1.561 1_655 S
C3579 C3576 1.526 . S
C3579 C3580 1.396 1_556 S
C3579 C3584 1.390 . S
C3580 C3574 1.465 . S
C3580 C3579 1.396 1_554 S
C3580 C3581 1.399 . S
C3581 H3567 0.929 . S
C3581 C3580 1.399 . S
C3581 C3582 1.385 . S
C3582 H3568 0.931 . S
C3582 C3581 1.385 . S
C3582 C3583 1.389 . S
C3583 C3582 1.389 . S
C3583 C3584 1.387 1_554 S
C3584 H3569 0.930 . S
C3584 C3579 1.390 . S
C3584 C3583 1.387 1_556 S
H3585 C3597 0.930 . S
H3586 C3599 0.930 . S
H3587 C3600 0.930 . S
H3588 C3604 0.959 . S
H3589 C3604 0.959 . S
H3590 C3604 0.961 . S
H3591 C3605 0.960 . S
H3592 C3605 0.961 . S
H3593 C3605 0.959 . S
H3594 C3608 0.929 . S
H3595 C3609 0.931 . S
H3596 C3611 0.930 . S
C3597 H3585 0.930 . S
C3597 C3598 1.399 . S
C3597 C3602 1.399 . S
C3598 C3597 1.399 . S
C3598 C3599 1.376 . S
C3599 H3586 0.930 . S
C3599 C3598 1.376 . S
C3599 C3600 1.388 . S
C3600 H3587 0.930 . S
C3600 C3599 1.388 . S
C3600 C3601 1.390 . S
C3601 C3600 1.390 . S
C3601 C3602 1.394 . S
C3601 C3607 1.465 . S
C3602 C3597 1.399 . S
C3602 C3601 1.394 . S
C3602 C3603 1.516 . S
C3603 C3602 1.516 . S
C3603 C3604 1.502 . S
C3603 C3605 1.561 . S
C3603 C3606 1.526 . S
C3604 H3588 0.959 . S
C3604 H3589 0.959 . S
C3604 H3590 0.961 . S
C3604 C3603 1.502 . S
C3605 H3591 0.960 . S
C3605 H3592 0.961 . S
C3605 H3593 0.959 . S
C3605 C3603 1.561 . S
C3606 C3603 1.526 . S
C3606 C3607 1.396 . S
C3606 C3611 1.390 . S
C3607 C3601 1.465 . S
C3607 C3606 1.396 . S
C3607 C3608 1.399 . S
C3608 H3594 0.929 . S
C3608 C3607 1.399 . S
C3608 C3609 1.385 . S
C3609 H3595 0.931 . S
C3609 C3608 1.385 . S
C3609 C3610 1.389 . S
C3610 C3609 1.389 . S
C3610 C3611 1.387 . S
C3611 H3596 0.930 . S
C3611 C3606 1.390 . S
C3611 C3610 1.387 . S
H3612 C3624 0.930 . S
H3613 C3626 0.930 . S
H3614 C3627 0.930 . S
H3615 C3631 0.959 . S
H3616 C3631 0.959 . S
H3617 C3631 0.961 . S
H3618 C3632 0.960 . S
H3619 C3632 0.961 . S
H3620 C3632 0.959 . S
H3621 C3635 0.929 . S
H3622 C3636 0.931 . S
H3623 C3638 0.930 . S
C3624 H3612 0.930 . S
C3624 C3625 1.399 . S
C3624 C3629 1.399 . S
C3625 C3624 1.399 . S
C3625 C3626 1.376 . S
C3626 H3613 0.930 . S
C3626 C3625 1.376 . S
C3626 C3627 1.388 . S
C3627 H3614 0.930 . S
C3627 C3626 1.388 . S
C3627 C3628 1.390 . S
C3628 C3627 1.390 . S
C3628 C3629 1.394 . S
C3628 C3634 1.465 . S
C3629 C3624 1.399 . S
C3629 C3628 1.394 . S
C3629 C3630 1.516 . S
C3630 C3629 1.516 . S
C3630 C3631 1.502 . S
C3630 C3632 1.561 . S
C3630 C3633 1.526 . S
C3631 H3615 0.959 . S
C3631 H3616 0.959 . S
C3631 H3617 0.961 . S
C3631 C3630 1.502 . S
C3632 H3618 0.960 . S
C3632 H3619 0.961 . S
C3632 H3620 0.959 . S
C3632 C3630 1.561 . S
C3633 C3630 1.526 . S
C3633 C3634 1.396 . S
C3633 C3638 1.390 . S
C3634 C3628 1.465 . S
C3634 C3633 1.396 . S
C3634 C3635 1.399 . S
C3635 H3621 0.929 . S
C3635 C3634 1.399 . S
C3635 C3636 1.385 . S
C3636 H3622 0.931 . S
C3636 C3635 1.385 . S
C3636 C3637 1.389 . S
C3637 C3636 1.389 . S
C3637 C3638 1.387 . S
C3638 H3623 0.930 . S
C3638 C3633 1.390 . S
C3638 C3637 1.387 . S
H3639 C3651 0.930 . S
H3640 C3653 0.930 . S
H3641 C3654 0.930 . S
H3642 C3658 0.959 . S
H3643 C3658 0.959 . S
H3644 C3658 0.961 . S
H3645 C3659 0.960 . S
H3646 C3659 0.961 . S
H3647 C3659 0.959 . S
H3648 C3662 0.929 . S
H3649 C3663 0.931 . S
H3650 C3665 0.930 . S
C3651 H3639 0.930 . S
C3651 C3652 1.399 . S
C3651 C3656 1.399 . S
C3652 C3651 1.399 . S
C3652 C3653 1.376 . S
C3653 H3640 0.930 . S
C3653 C3652 1.376 . S
C3653 C3654 1.388 . S
C3654 H3641 0.930 . S
C3654 C3653 1.388 . S
C3654 C3655 1.390 . S
C3655 C3654 1.390 . S
C3655 C3656 1.394 . S
C3655 C3661 1.465 . S
C3656 C3651 1.399 . S
C3656 C3655 1.394 . S
C3656 C3657 1.516 . S
C3657 C3656 1.516 . S
C3657 C3658 1.502 . S
C3657 C3659 1.561 . S
C3657 C3660 1.526 . S
C3658 H3642 0.959 . S
C3658 H3643 0.959 . S
C3658 H3644 0.961 . S
C3658 C3657 1.502 . S
C3659 H3645 0.960 . S
C3659 H3646 0.961 . S
C3659 H3647 0.959 . S
C3659 C3657 1.561 . S
C3660 C3657 1.526 . S
C3660 C3661 1.396 . S
C3660 C3665 1.390 . S
C3661 C3655 1.465 . S
C3661 C3660 1.396 . S
C3661 C3662 1.399 . S
C3662 H3648 0.929 . S
C3662 C3661 1.399 . S
C3662 C3663 1.385 . S
C3663 H3649 0.931 . S
C3663 C3662 1.385 . S
C3663 C3664 1.389 . S
C3664 C3663 1.389 . S
C3664 C3665 1.387 . S
C3665 H3650 0.930 . S
C3665 C3660 1.390 . S
C3665 C3664 1.387 . S
H3666 C3678 0.930 . S
H3667 C3680 0.930 . S
H3668 C3681 0.930 . S
H3669 C3685 0.959 . S
H3670 C3685 0.959 . S
H3671 C3685 0.961 . S
H3672 C3686 0.960 . S
H3673 C3686 0.961 . S
H3674 C3686 0.959 . S
H3675 C3689 0.929 . S
H3676 C3690 0.931 1_655 S
H3677 C3692 0.930 . S
C3678 H3666 0.930 . S
C3678 C3679 1.399 . S
C3678 C3683 1.399 . S
C3679 C3678 1.399 . S
C3679 C3680 1.376 1_455 S
C3680 H3667 0.930 . S
C3680 C3679 1.376 1_655 S
C3680 C3681 1.388 . S
C3681 H3668 0.930 . S
C3681 C3680 1.388 . S
C3681 C3682 1.390 1_655 S
C3682 C3681 1.390 1_455 S
C3682 C3683 1.394 . S
C3682 C3688 1.465 . S
C3683 C3678 1.399 . S
C3683 C3682 1.394 . S
C3683 C3684 1.516 . S
C3684 C3683 1.516 . S
C3684 C3685 1.502 . S
C3684 C3686 1.561 . S
C3684 C3687 1.526 . S
C3685 H3669 0.959 . S
C3685 H3670 0.959 . S
C3685 H3671 0.961 . S
C3685 C3684 1.502 . S
C3686 H3672 0.960 . S
C3686 H3673 0.961 . S
C3686 H3674 0.959 . S
C3686 C3684 1.561 . S
C3687 C3684 1.526 . S
C3687 C3688 1.396 . S
C3687 C3692 1.390 . S
C3688 C3682 1.465 . S
C3688 C3687 1.396 . S
C3688 C3689 1.399 1_455 S
C3689 H3675 0.929 . S
C3689 C3688 1.399 1_655 S
C3689 C3690 1.385 1_655 S
C3690 H3676 0.931 1_455 S
C3690 C3689 1.385 1_455 S
C3690 C3691 1.389 . S
C3691 C3690 1.389 . S
C3691 C3692 1.387 . S
C3692 H3677 0.930 . S
C3692 C3687 1.390 . S
C3692 C3691 1.387 . S
H3693 C3705 0.930 . S
H3694 C3707 0.930 . S
H3695 C3708 0.930 . S
H3696 C3712 0.959 . S
H3697 C3712 0.959 . S
H3698 C3712 0.961 . S
H3699 C3713 0.960 . S
H3700 C3713 0.961 . S
H3701 C3713 0.959 . S
H3702 C3716 0.929 . S
H3703 C3717 0.931 . S
H3704 C3719 0.930 . S
C3705 H3693 0.930 . S
C3705 C3706 1.399 . S
C3705 C3710 1.399 . S
C3706 C3705 1.399 . S
C3706 C3707 1.376 . S
C3707 H3694 0.930 . S
C3707 C3706 1.376 . S
C3707 C3708 1.388 . S
C3708 H3695 0.930 . S
C3708 C3707 1.388 . S
C3708 C3709 1.390 . S
C3709 C3708 1.390 . S
C3709 C3710 1.394 . S
C3709 C3715 1.465 . S
C3710 C3705 1.399 . S
C3710 C3709 1.394 . S
C3710 C3711 1.516 . S
C3711 C3710 1.516 . S
C3711 C3712 1.502 . S
C3711 C3713 1.561 . S
C3711 C3714 1.526 . S
C3712 H3696 0.959 . S
C3712 H3697 0.959 . S
C3712 H3698 0.961 . S
C3712 C3711 1.502 . S
C3713 H3699 0.960 . S
C3713 H3700 0.961 . S
C3713 H3701 0.959 . S
C3713 C3711 1.561 . S
C3714 C3711 1.526 . S
C3714 C3715 1.396 . S
C3714 C3719 1.390 . S
C3715 C3709 1.465 . S
C3715 C3714 1.396 . S
C3715 C3716 1.399 . S
C3716 H3702 0.929 . S
C3716 C3715 1.399 . S
C3716 C3717 1.385 . S
C3717 H3703 0.931 . S
C3717 C3716 1.385 . S
C3717 C3718 1.389 . S
C3718 C3717 1.389 . S
C3718 C3719 1.387 . S
C3719 H3704 0.930 . S
C3719 C3714 1.390 . S
C3719 C3718 1.387 . S
H3720 C3732 0.930 . S
H3721 C3734 0.930 . S
H3722 C3735 0.930 . S
H3723 C3739 0.959 . S
H3724 C3739 0.959 . S
H3725 C3739 0.961 . S
H3726 C3740 0.960 . S
H3727 C3740 0.961 . S
H3728 C3740 0.959 . S
H3729 C3743 0.929 . S
H3730 C3744 0.931 . S
H3731 C3746 0.930 . S
C3732 H3720 0.930 . S
C3732 C3733 1.399 . S
C3732 C3737 1.399 . S
C3733 C3732 1.399 . S
C3733 C3734 1.376 . S
C3734 H3721 0.930 . S
C3734 C3733 1.376 . S
C3734 C3735 1.388 . S
C3735 H3722 0.930 . S
C3735 C3734 1.388 . S
C3735 C3736 1.390 . S
C3736 C3735 1.390 . S
C3736 C3737 1.394 . S
C3736 C3742 1.465 . S
C3737 C3732 1.399 . S
C3737 C3736 1.394 . S
C3737 C3738 1.516 . S
C3738 C3737 1.516 . S
C3738 C3739 1.502 . S
C3738 C3740 1.561 . S
C3738 C3741 1.526 . S
C3739 H3723 0.959 . S
C3739 H3724 0.959 . S
C3739 H3725 0.961 . S
C3739 C3738 1.502 . S
C3740 H3726 0.960 . S
C3740 H3727 0.961 . S
C3740 H3728 0.959 . S
C3740 C3738 1.561 . S
C3741 C3738 1.526 . S
C3741 C3742 1.396 . S
C3741 C3746 1.390 . S
C3742 C3736 1.465 . S
C3742 C3741 1.396 . S
C3742 C3743 1.399 . S
C3743 H3729 0.929 . S
C3743 C3742 1.399 . S
C3743 C3744 1.385 . S
C3744 H3730 0.931 . S
C3744 C3743 1.385 . S
C3744 C3745 1.389 . S
C3745 C3744 1.389 . S
C3745 C3746 1.387 . S
C3746 H3731 0.930 . S
C3746 C3741 1.390 . S
C3746 C3745 1.387 . S
H3747 C3759 0.930 . S
H3748 C3761 0.930 1_554 S
H3749 C3762 0.930 . S
H3750 C3766 0.959 . S
H3751 C3766 0.959 . S
H3752 C3766 0.961 . S
H3753 C3767 0.960 . S
H3754 C3767 0.961 . S
H3755 C3767 0.959 . S
H3756 C3770 0.929 . S
H3757 C3771 0.931 . S
H3758 C3773 0.930 . S
C3759 H3747 0.930 . S
C3759 C3760 1.408 . S
C3759 C3764 1.399 . S
C3760 C3759 1.408 . S
C3760 C3761 1.378 . S
C3761 H3748 0.930 1_556 S
C3761 C3760 1.378 . S
C3761 C3762 1.388 . S
C3762 H3749 0.930 . S
C3762 C3761 1.388 . S
C3762 C3763 1.390 . S
C3763 C3762 1.390 . S
C3763 C3764 1.394 . S
C3763 C3769 1.465 . S
C3764 C3759 1.399 . S
C3764 C3763 1.394 . S
C3764 C3765 1.516 . S
C3765 C3764 1.516 . S
C3765 C3766 1.502 . S
C3765 C3767 1.561 . S
C3765 C3768 1.526 . S
C3766 H3750 0.959 . S
C3766 H3751 0.959 . S
C3766 H3752 0.961 . S
C3766 C3765 1.502 . S
C3767 H3753 0.960 . S
C3767 H3754 0.961 . S
C3767 H3755 0.959 . S
C3767 C3765 1.561 . S
C3768 C3765 1.526 . S
C3768 C3769 1.396 . S
C3768 C3773 1.390 . S
C3769 C3763 1.465 . S
C3769 C3768 1.396 . S
C3769 C3770 1.399 . S
C3770 H3756 0.929 . S
C3770 C3769 1.399 . S
C3770 C3771 1.385 . S
C3771 H3757 0.931 . S
C3771 C3770 1.385 . S
C3771 C3772 1.389 . S
C3772 C3771 1.389 . S
C3772 C3773 1.387 . S
C3773 H3758 0.930 . S
C3773 C3768 1.390 . S
C3773 C3772 1.387 . S
H3774 C3786 0.930 . S
H3775 C3788 0.930 . S
H3776 C3789 0.930 . S
H3777 C3793 0.959 . S
H3778 C3793 0.959 . S
H3779 C3793 0.961 . S
H3780 C3794 0.960 . S
H3781 C3794 0.961 . S
H3782 C3794 0.959 . S
H3783 C3797 0.929 . S
H3784 C3798 0.931 . S
H3785 C3800 0.930 . S
C3786 H3774 0.930 . S
C3786 C3787 1.399 . S
C3786 C3791 1.399 . S
C3787 C3786 1.399 . S
C3787 C3788 1.376 . S
C3788 H3775 0.930 . S
C3788 C3787 1.376 . S
C3788 C3789 1.388 . S
C3789 H3776 0.930 . S
C3789 C3788 1.388 . S
C3789 C3790 1.390 . S
C3790 C3789 1.390 . S
C3790 C3791 1.394 . S
C3790 C3796 1.465 . S
C3791 C3786 1.399 . S
C3791 C3790 1.394 . S
C3791 C3792 1.516 . S
C3792 C3791 1.516 . S
C3792 C3793 1.502 . S
C3792 C3794 1.561 . S
C3792 C3795 1.526 . S
C3793 H3777 0.959 . S
C3793 H3778 0.959 . S
C3793 H3779 0.961 . S
C3793 C3792 1.502 . S
C3794 H3780 0.960 . S
C3794 H3781 0.961 . S
C3794 H3782 0.959 . S
C3794 C3792 1.561 . S
C3795 C3792 1.526 . S
C3795 C3796 1.396 . S
C3795 C3800 1.390 . S
C3796 C3790 1.465 . S
C3796 C3795 1.396 . S
C3796 C3797 1.399 . S
C3797 H3783 0.929 . S
C3797 C3796 1.399 . S
C3797 C3798 1.385 . S
C3798 H3784 0.931 . S
C3798 C3797 1.385 . S
C3798 C3799 1.389 . S
C3799 C3798 1.389 . S
C3799 C3800 1.387 . S
C3800 H3785 0.930 . S
C3800 C3795 1.390 . S
C3800 C3799 1.387 . S
H3801 C3813 0.930 . S
H3802 C3815 0.930 . S
H3803 C3816 0.930 . S
H3804 C3820 0.959 . S
H3805 C3820 0.959 . S
H3806 C3820 0.961 . S
H3807 C3821 0.960 . S
H3808 C3821 0.961 . S
H3809 C3821 0.959 . S
H3810 C3824 0.929 . S
H3811 C3825 0.931 . S
H3812 C3827 0.930 . S
C3813 H3801 0.930 . S
C3813 C3814 1.399 . S
C3813 C3818 1.399 . S
C3814 C3813 1.399 . S
C3814 C3815 1.376 . S
C3815 H3802 0.930 . S
C3815 C3814 1.376 . S
C3815 C3816 1.388 . S
C3816 H3803 0.930 . S
C3816 C3815 1.388 . S
C3816 C3817 1.390 . S
C3817 C3816 1.390 . S
C3817 C3818 1.394 . S
C3817 C3823 1.465 . S
C3818 C3813 1.399 . S
C3818 C3817 1.394 . S
C3818 C3819 1.516 . S
C3819 C3818 1.516 . S
C3819 C3820 1.502 . S
C3819 C3821 1.561 . S
C3819 C3822 1.526 . S
C3820 H3804 0.959 . S
C3820 H3805 0.959 . S
C3820 H3806 0.961 . S
C3820 C3819 1.502 . S
C3821 H3807 0.960 . S
C3821 H3808 0.961 . S
C3821 H3809 0.959 . S
C3821 C3819 1.561 . S
C3822 C3819 1.526 . S
C3822 C3823 1.396 . S
C3822 C3827 1.390 . S
C3823 C3817 1.465 . S
C3823 C3822 1.396 . S
C3823 C3824 1.399 . S
C3824 H3810 0.929 . S
C3824 C3823 1.399 . S
C3824 C3825 1.385 . S
C3825 H3811 0.931 . S
C3825 C3824 1.385 . S
C3825 C3826 1.389 . S
C3826 C3825 1.389 . S
C3826 C3827 1.387 . S
C3827 H3812 0.930 . S
C3827 C3822 1.390 . S
C3827 C3826 1.387 . S
H3828 C3840 0.930 . S
H3829 C3842 0.930 . S
H3830 C3843 0.930 . S
H3831 C3847 0.959 . S
H3832 C3847 0.959 . S
H3833 C3847 0.961 . S
H3834 C3848 0.960 . S
H3835 C3848 0.961 . S
H3836 C3848 0.959 . S
H3837 C3851 0.929 . S
H3838 C3852 0.931 . S
H3839 C3854 0.930 . S
C3840 H3828 0.930 . S
C3840 C3841 1.399 . S
C3840 C3845 1.399 . S
C3841 C3840 1.399 . S
C3841 C3842 1.376 . S
C3842 H3829 0.930 . S
C3842 C3841 1.376 . S
C3842 C3843 1.388 . S
C3843 H3830 0.930 . S
C3843 C3842 1.388 . S
C3843 C3844 1.390 . S
C3844 C3843 1.390 . S
C3844 C3845 1.394 . S
C3844 C3850 1.465 . S
C3845 C3840 1.399 . S
C3845 C3844 1.394 . S
C3845 C3846 1.516 . S
C3846 C3845 1.516 . S
C3846 C3847 1.502 . S
C3846 C3848 1.561 . S
C3846 C3849 1.526 . S
C3847 H3831 0.959 . S
C3847 H3832 0.959 . S
C3847 H3833 0.961 . S
C3847 C3846 1.502 . S
C3848 H3834 0.960 . S
C3848 H3835 0.961 . S
C3848 H3836 0.959 . S
C3848 C3846 1.561 . S
C3849 C3846 1.526 . S
C3849 C3850 1.396 . S
C3849 C3854 1.390 . S
C3850 C3844 1.465 . S
C3850 C3849 1.396 . S
C3850 C3851 1.399 . S
C3851 H3837 0.929 . S
C3851 C3850 1.399 . S
C3851 C3852 1.385 . S
C3852 H3838 0.931 . S
C3852 C3851 1.385 . S
C3852 C3853 1.389 . S
C3853 C3852 1.389 . S
C3853 C3854 1.387 . S
C3854 H3839 0.930 . S
C3854 C3849 1.390 . S
C3854 C3853 1.387 . S
H3855 C3867 0.930 . S
H3856 C3869 0.930 . S
H3857 C3870 0.930 . S
H3858 C3874 0.959 . S
H3859 C3874 0.959 . S
H3860 C3874 0.961 . S
H3861 C3875 0.960 . S
H3862 C3875 0.961 . S
H3863 C3875 0.959 . S
H3864 C3878 0.929 . S
H3865 C3879 0.931 . S
H3866 C3881 0.930 . S
C3867 H3855 0.930 . S
C3867 C3868 1.399 . S
C3867 C3872 1.399 . S
C3868 C3867 1.399 . S
C3868 C3869 1.376 . S
C3869 H3856 0.930 . S
C3869 C3868 1.376 . S
C3869 C3870 1.388 . S
C3870 H3857 0.930 . S
C3870 C3869 1.388 . S
C3870 C3871 1.390 . S
C3871 C3870 1.390 . S
C3871 C3872 1.394 . S
C3871 C3877 1.465 . S
C3872 C3867 1.399 . S
C3872 C3871 1.394 . S
C3872 C3873 1.516 . S
C3873 C3872 1.516 . S
C3873 C3874 1.502 . S
C3873 C3875 1.561 . S
C3873 C3876 1.526 . S
C3874 H3858 0.959 . S
C3874 H3859 0.959 . S
C3874 H3860 0.961 . S
C3874 C3873 1.502 . S
C3875 H3861 0.960 . S
C3875 H3862 0.961 . S
C3875 H3863 0.959 . S
C3875 C3873 1.561 . S
C3876 C3873 1.526 . S
C3876 C3877 1.396 . S
C3876 C3881 1.390 . S
C3877 C3871 1.465 . S
C3877 C3876 1.396 . S
C3877 C3878 1.399 . S
C3878 H3864 0.929 . S
C3878 C3877 1.399 . S
C3878 C3879 1.385 . S
C3879 H3865 0.931 . S
C3879 C3878 1.385 . S
C3879 C3880 1.389 . S
C3880 C3879 1.389 . S
C3880 C3881 1.387 . S
C3881 H3866 0.930 . S
C3881 C3876 1.390 . S
C3881 C3880 1.387 . S
H3882 C3894 0.930 . S
H3883 C3896 0.930 . S
H3884 C3897 0.930 . S
H3885 C3901 0.959 . S
H3886 C3901 0.959 . S
H3887 C3901 0.961 . S
H3888 C3902 0.960 . S
H3889 C3902 0.961 . S
H3890 C3902 0.959 . S
H3891 C3905 0.929 . S
H3892 C3906 0.931 . S
H3893 C3908 0.930 . S
C3894 H3882 0.930 . S
C3894 C3895 1.399 . S
C3894 C3899 1.399 . S
C3895 C3894 1.399 . S
C3895 C3896 1.376 . S
C3896 H3883 0.930 . S
C3896 C3895 1.376 . S
C3896 C3897 1.388 . S
C3897 H3884 0.930 . S
C3897 C3896 1.388 . S
C3897 C3898 1.390 . S
C3898 C3897 1.390 . S
C3898 C3899 1.394 . S
C3898 C3904 1.465 . S
C3899 C3894 1.399 . S
C3899 C3898 1.394 . S
C3899 C3900 1.516 . S
C3900 C3899 1.516 . S
C3900 C3901 1.502 . S
C3900 C3902 1.561 . S
C3900 C3903 1.526 . S
C3901 H3885 0.959 . S
C3901 H3886 0.959 . S
C3901 H3887 0.961 . S
C3901 C3900 1.502 . S
C3902 H3888 0.960 . S
C3902 H3889 0.961 . S
C3902 H3890 0.959 . S
C3902 C3900 1.561 . S
C3903 C3900 1.526 . S
C3903 C3904 1.396 . S
C3903 C3908 1.390 . S
C3904 C3898 1.465 . S
C3904 C3903 1.396 . S
C3904 C3905 1.399 . S
C3905 H3891 0.929 . S
C3905 C3904 1.399 . S
C3905 C3906 1.385 . S
C3906 H3892 0.931 . S
C3906 C3905 1.385 . S
C3906 C3907 1.389 . S
C3907 C3906 1.389 . S
C3907 C3908 1.387 . S
C3908 H3893 0.930 . S
C3908 C3903 1.390 . S
C3908 C3907 1.387 . S
H3909 C3921 0.930 . S
H3910 C3923 0.930 . S
H3911 C3924 0.930 . S
H3912 C3928 0.959 . S
H3913 C3928 0.959 . S
H3914 C3928 0.961 . S
H3915 C3929 0.960 . S
H3916 C3929 0.961 . S
H3917 C3929 0.959 . S
H3918 C3932 0.929 . S
H3919 C3933 0.931 . S
H3920 C3935 0.930 . S
C3921 H3909 0.930 . S
C3921 C3922 1.399 . S
C3921 C3926 1.399 . S
C3922 C3921 1.399 . S
C3922 C3923 1.376 . S
C3923 H3910 0.930 . S
C3923 C3922 1.376 . S
C3923 C3924 1.388 . S
C3924 H3911 0.930 . S
C3924 C3923 1.388 . S
C3924 C3925 1.390 . S
C3925 C3924 1.390 . S
C3925 C3926 1.394 . S
C3925 C3931 1.465 . S
C3926 C3921 1.399 . S
C3926 C3925 1.394 . S
C3926 C3927 1.516 . S
C3927 C3926 1.516 . S
C3927 C3928 1.502 . S
C3927 C3929 1.561 . S
C3927 C3930 1.526 . S
C3928 H3912 0.959 . S
C3928 H3913 0.959 . S
C3928 H3914 0.961 . S
C3928 C3927 1.502 . S
C3929 H3915 0.960 . S
C3929 H3916 0.961 . S
C3929 H3917 0.959 . S
C3929 C3927 1.561 . S
C3930 C3927 1.526 . S
C3930 C3931 1.396 . S
C3930 C3935 1.390 . S
C3931 C3925 1.465 . S
C3931 C3930 1.396 . S
C3931 C3932 1.399 . S
C3932 H3918 0.929 . S
C3932 C3931 1.399 . S
C3932 C3933 1.385 . S
C3933 H3919 0.931 . S
C3933 C3932 1.385 . S
C3933 C3934 1.389 . S
C3934 C3933 1.389 . S
C3934 C3935 1.387 . S
C3935 H3920 0.930 . S
C3935 C3930 1.390 . S
C3935 C3934 1.387 . S
H3936 C3948 0.930 . S
H3937 C3950 0.930 . S
H3938 C3951 0.930 . S
H3939 C3955 0.959 . S
H3940 C3955 0.959 . S
H3941 C3955 0.961 . S
H3942 C3956 0.960 . S
H3943 C3956 0.961 . S
H3944 C3956 0.959 . S
H3945 C3959 0.929 . S
H3946 C3960 0.931 . S
H3947 C3962 0.930 . S
C3948 H3936 0.930 . S
C3948 C3949 1.399 . S
C3948 C3953 1.399 . S
C3949 C3948 1.399 . S
C3949 C3950 1.376 . S
C3950 H3937 0.930 . S
C3950 C3949 1.376 . S
C3950 C3951 1.388 . S
C3951 H3938 0.930 . S
C3951 C3950 1.388 . S
C3951 C3952 1.390 . S
C3952 C3951 1.390 . S
C3952 C3953 1.394 . S
C3952 C3958 1.465 . S
C3953 C3948 1.399 . S
C3953 C3952 1.394 . S
C3953 C3954 1.516 . S
C3954 C3953 1.516 . S
C3954 C3955 1.502 . S
C3954 C3956 1.561 . S
C3954 C3957 1.526 . S
C3955 H3939 0.959 . S
C3955 H3940 0.959 . S
C3955 H3941 0.961 . S
C3955 C3954 1.502 . S
C3956 H3942 0.960 . S
C3956 H3943 0.961 . S
C3956 H3944 0.959 . S
C3956 C3954 1.561 . S
C3957 C3954 1.526 . S
C3957 C3958 1.396 . S
C3957 C3962 1.390 . S
C3958 C3952 1.465 . S
C3958 C3957 1.396 . S
C3958 C3959 1.399 . S
C3959 H3945 0.929 . S
C3959 C3958 1.399 . S
C3959 C3960 1.385 . S
C3960 H3946 0.931 . S
C3960 C3959 1.385 . S
C3960 C3961 1.389 . S
C3961 C3960 1.389 . S
C3961 C3962 1.387 . S
C3962 H3947 0.930 . S
C3962 C3957 1.390 . S
C3962 C3961 1.387 . S
H3963 C3975 0.930 . S
H3964 C3977 0.930 . S
H3965 C3978 0.930 . S
H3966 C3982 0.959 . S
H3967 C3982 0.959 . S
H3968 C3982 0.961 . S
H3969 C3983 0.960 . S
H3970 C3983 0.961 . S
H3971 C3983 0.959 . S
H3972 C3986 0.929 . S
H3973 C3987 0.931 . S
H3974 C3989 0.930 . S
C3975 H3963 0.930 . S
C3975 C3976 1.399 . S
C3975 C3980 1.399 . S
C3976 C3975 1.399 . S
C3976 C3977 1.376 . S
C3977 H3964 0.930 . S
C3977 C3976 1.376 . S
C3977 C3978 1.388 . S
C3978 H3965 0.930 . S
C3978 C3977 1.388 . S
C3978 C3979 1.390 . S
C3979 C3978 1.390 . S
C3979 C3980 1.394 . S
C3979 C3985 1.465 . S
C3980 C3975 1.399 . S
C3980 C3979 1.394 . S
C3980 C3981 1.516 . S
C3981 C3980 1.516 . S
C3981 C3982 1.502 . S
C3981 C3983 1.561 . S
C3981 C3984 1.526 . S
C3982 H3966 0.959 . S
C3982 H3967 0.959 . S
C3982 H3968 0.961 . S
C3982 C3981 1.502 . S
C3983 H3969 0.960 . S
C3983 H3970 0.961 . S
C3983 H3971 0.959 . S
C3983 C3981 1.561 . S
C3984 C3981 1.526 . S
C3984 C3985 1.396 . S
C3984 C3989 1.390 . S
C3985 C3979 1.465 . S
C3985 C3984 1.396 . S
C3985 C3986 1.399 . S
C3986 H3972 0.929 . S
C3986 C3985 1.399 . S
C3986 C3987 1.385 . S
C3987 H3973 0.931 . S
C3987 C3986 1.385 . S
C3987 C3988 1.389 . S
C3988 C3987 1.389 . S
C3988 C3989 1.387 . S
C3989 H3974 0.930 . S
C3989 C3984 1.390 . S
C3989 C3988 1.387 . S
H3990 C4002 0.930 1_545 S
H3991 C4004 0.930 . S
H3992 C4005 0.930 . S
H3993 C4009 0.959 . S
H3994 C4009 0.959 . S
H3995 C4009 0.961 . S
H3996 C4010 0.960 . S
H3997 C4010 0.961 . S
H3998 C4010 0.959 . S
H3999 C4013 0.929 . S
H4000 C4014 0.931 . S
H4001 C4016 0.930 . S
C4002 H3990 0.930 1_565 S
C4002 C4003 1.399 . S
C4002 C4007 1.399 . S
C4003 C4002 1.399 . S
C4003 C4004 1.376 . S
C4004 H3991 0.930 . S
C4004 C4003 1.376 . S
C4004 C4005 1.388 . S
C4005 H3992 0.930 . S
C4005 C4004 1.388 . S
C4005 C4006 1.390 . S
C4006 C4005 1.390 . S
C4006 C4007 1.394 . S
C4006 C4012 1.465 . S
C4007 C4002 1.399 . S
C4007 C4006 1.394 . S
C4007 C4008 1.516 . S
C4008 C4007 1.516 . S
C4008 C4009 1.502 . S
C4008 C4010 1.561 . S
C4008 C4011 1.526 . S
C4009 H3993 0.959 . S
C4009 H3994 0.959 . S
C4009 H3995 0.961 . S
C4009 C4008 1.502 . S
C4010 H3996 0.960 . S
C4010 H3997 0.961 . S
C4010 H3998 0.959 . S
C4010 C4008 1.561 . S
C4011 C4008 1.526 . S
C4011 C4012 1.396 . S
C4011 C4016 1.390 . S
C4012 C4006 1.465 . S
C4012 C4011 1.396 . S
C4012 C4013 1.399 . S
C4013 H3999 0.929 . S
C4013 C4012 1.399 . S
C4013 C4014 1.385 . S
C4014 H4000 0.931 . S
C4014 C4013 1.385 . S
C4014 C4015 1.389 . S
C4015 C4014 1.389 . S
C4015 C4016 1.387 . S
C4016 H4001 0.930 . S
C4016 C4011 1.390 . S
C4016 C4015 1.387 . S
H4017 C4029 0.930 . S
H4018 C4031 0.930 . S
H4019 C4032 0.930 . S
H4020 C4036 0.959 . S
H4021 C4036 0.959 . S
H4022 C4036 0.961 . S
H4023 C4037 0.960 1_565 S
H4024 C4037 0.961 . S
H4025 C4037 0.959 . S
H4026 C4040 0.929 . S
H4027 C4041 0.931 . S
H4028 C4043 0.930 1_556 S
C4029 H4017 0.930 . S
C4029 C4030 1.399 1_556 S
C4029 C4034 1.399 1_556 S
C4030 C4029 1.399 1_554 S
C4030 C4031 1.376 . S
C4031 H4018 0.930 . S
C4031 C4030 1.376 . S
C4031 C4032 1.388 . S
C4032 H4019 0.930 . S
C4032 C4031 1.388 . S
C4032 C4033 1.390 . S
C4033 C4032 1.390 . S
C4033 C4034 1.393 . S
C4033 C4039 1.465 . S
C4034 C4029 1.399 1_554 S
C4034 C4033 1.393 . S
C4034 C4035 1.517 1_554 S
C4035 C4034 1.517 1_556 S
C4035 C4036 1.502 . S
C4035 C4037 1.561 1_565 S
C4035 C4038 1.526 1_556 S
C4036 H4020 0.959 . S
C4036 H4021 0.959 . S
C4036 H4022 0.961 . S
C4036 C4035 1.502 . S
C4037 H4023 0.960 1_545 S
C4037 H4024 0.961 . S
C4037 H4025 0.959 . S
C4037 C4035 1.561 1_545 S
C4038 C4035 1.526 1_554 S
C4038 C4039 1.396 . S
C4038 C4043 1.390 1_565 S
C4039 C4033 1.465 . S
C4039 C4038 1.396 . S
C4039 C4040 1.399 1_565 S
C4040 H4026 0.929 . S
C4040 C4039 1.399 1_545 S
C4040 C4041 1.385 . S
C4041 H4027 0.931 . S
C4041 C4040 1.385 . S
C4041 C4042 1.389 . S
C4042 C4041 1.389 . S
C4042 C4043 1.387 . S
C4043 H4028 0.930 1_554 S
C4043 C4038 1.390 1_545 S
C4043 C4042 1.387 . S
H4044 C4056 0.930 . S
H4045 C4058 0.930 . S
H4046 C4059 0.930 . S
H4047 C4063 0.959 . S
H4048 C4063 0.959 . S
H4049 C4063 0.961 . S
H4050 C4064 0.960 . S
H4051 C4064 0.961 . S
H4052 C4064 0.959 . S
H4053 C4067 0.929 . S
H4054 C4068 0.931 . S
H4055 C4070 0.930 . S
C4056 H4044 0.930 . S
C4056 C4057 1.399 . S
C4056 C4061 1.399 . S
C4057 C4056 1.399 . S
C4057 C4058 1.376 . S
C4058 H4045 0.930 . S
C4058 C4057 1.376 . S
C4058 C4059 1.388 . S
C4059 H4046 0.930 . S
C4059 C4058 1.388 . S
C4059 C4060 1.390 . S
C4060 C4059 1.390 . S
C4060 C4061 1.394 . S
C4060 C4066 1.465 . S
C4061 C4056 1.399 . S
C4061 C4060 1.394 . S
C4061 C4062 1.516 . S
C4062 C4061 1.516 . S
C4062 C4063 1.502 . S
C4062 C4064 1.561 . S
C4062 C4065 1.526 . S
C4063 H4047 0.959 . S
C4063 H4048 0.959 . S
C4063 H4049 0.961 . S
C4063 C4062 1.502 . S
C4064 H4050 0.960 . S
C4064 H4051 0.961 . S
C4064 H4052 0.959 . S
C4064 C4062 1.561 . S
C4065 C4062 1.526 . S
C4065 C4066 1.396 . S
C4065 C4070 1.390 . S
C4066 C4060 1.465 . S
C4066 C4065 1.396 . S
C4066 C4067 1.399 . S
C4067 H4053 0.929 . S
C4067 C4066 1.399 . S
C4067 C4068 1.385 . S
C4068 H4054 0.931 . S
C4068 C4067 1.385 . S
C4068 C4069 1.389 . S
C4069 C4068 1.389 . S
C4069 C4070 1.387 . S
C4070 H4055 0.930 . S
C4070 C4065 1.390 . S
C4070 C4069 1.387 . S
H4071 C4083 0.930 . S
H4072 C4085 0.930 . S
H4073 C4086 0.930 . S
H4074 C4090 0.959 . S
H4075 C4090 0.959 . S
H4076 C4090 0.961 . S
H4077 C4091 0.960 . S
H4078 C4091 0.961 . S
H4079 C4091 0.959 . S
H4080 C4094 0.935 . S
H4081 C4095 0.931 1_556 S
H4082 C4097 0.930 . S
C4083 H4071 0.930 . S
C4083 C4084 1.399 . S
C4083 C4088 1.399 . S
C4084 C4083 1.399 . S
C4084 C4085 1.376 1_554 S
C4085 H4072 0.930 . S
C4085 C4084 1.376 1_556 S
C4085 C4086 1.388 . S
C4086 H4073 0.930 . S
C4086 C4085 1.388 . S
C4086 C4087 1.390 1_556 S
C4087 C4086 1.390 1_554 S
C4087 C4088 1.394 . S
C4087 C4093 1.465 . S
C4088 C4083 1.399 . S
C4088 C4087 1.394 . S
C4088 C4089 1.516 . S
C4089 C4088 1.516 . S
C4089 C4090 1.502 . S
C4089 C4091 1.561 . S
C4089 C4092 1.526 . S
C4090 H4074 0.959 . S
C4090 H4075 0.959 . S
C4090 H4076 0.961 . S
C4090 C4089 1.502 . S
C4091 H4077 0.960 . S
C4091 H4078 0.961 . S
C4091 H4079 0.959 . S
C4091 C4089 1.561 . S
C4092 C4089 1.526 . S
C4092 C4093 1.396 . S
C4092 C4097 1.390 . S
C4093 C4087 1.465 . S
C4093 C4092 1.396 . S
C4093 C4094 1.395 1_554 S
C4094 H4080 0.935 . S
C4094 C4093 1.395 1_556 S
C4094 C4095 1.383 1_556 S
C4095 H4081 0.931 1_554 S
C4095 C4094 1.383 1_554 S
C4095 C4096 1.389 . S
C4096 C4095 1.389 . S
C4096 C4097 1.387 . S
C4097 H4082 0.930 . S
C4097 C4092 1.390 . S
C4097 C4096 1.387 . S
H4098 C4110 0.930 . S
H4099 C4112 0.930 . S
H4100 C4113 0.930 . S
H4101 C4117 0.959 . S
H4102 C4117 0.959 . S
H4103 C4117 0.961 . S
H4104 C4118 0.960 . S
H4105 C4118 0.961 . S
H4106 C4118 0.959 . S
H4107 C4121 0.929 . S
H4108 C4122 0.931 . S
H4109 C4124 0.930 . S
C4110 H4098 0.930 . S
C4110 C4111 1.399 . S
C4110 C4115 1.399 . S
C4111 C4110 1.399 . S
C4111 C4112 1.376 . S
C4112 H4099 0.930 . S
C4112 C4111 1.376 . S
C4112 C4113 1.388 . S
C4113 H4100 0.930 . S
C4113 C4112 1.388 . S
C4113 C4114 1.390 . S
C4114 C4113 1.390 . S
C4114 C4115 1.394 . S
C4114 C4120 1.465 . S
C4115 C4110 1.399 . S
C4115 C4114 1.394 . S
C4115 C4116 1.516 . S
C4116 C4115 1.516 . S
C4116 C4117 1.502 . S
C4116 C4118 1.561 . S
C4116 C4119 1.526 . S
C4117 H4101 0.959 . S
C4117 H4102 0.959 . S
C4117 H4103 0.961 . S
C4117 C4116 1.502 . S
C4118 H4104 0.960 . S
C4118 H4105 0.961 . S
C4118 H4106 0.959 . S
C4118 C4116 1.561 . S
C4119 C4116 1.526 . S
C4119 C4120 1.396 . S
C4119 C4124 1.390 . S
C4120 C4114 1.465 . S
C4120 C4119 1.396 . S
C4120 C4121 1.399 . S
C4121 H4107 0.929 . S
C4121 C4120 1.399 . S
C4121 C4122 1.385 . S
C4122 H4108 0.931 . S
C4122 C4121 1.385 . S
C4122 C4123 1.389 . S
C4123 C4122 1.389 . S
C4123 C4124 1.387 . S
C4124 H4109 0.930 . S
C4124 C4119 1.390 . S
C4124 C4123 1.387 . S
H4125 C4137 0.930 . S
H4126 C4139 0.930 . S
H4127 C4140 0.930 . S
H4128 C4144 0.959 . S
H4129 C4144 0.959 . S
H4130 C4144 0.961 . S
H4131 C4145 0.960 . S
H4132 C4145 0.961 . S
H4133 C4145 0.959 . S
H4134 C4148 0.929 . S
H4135 C4149 0.931 . S
H4136 C4151 0.930 . S
C4137 H4125 0.930 . S
C4137 C4138 1.399 . S
C4137 C4142 1.399 . S
C4138 C4137 1.399 . S
C4138 C4139 1.376 . S
C4139 H4126 0.930 . S
C4139 C4138 1.376 . S
C4139 C4140 1.388 . S
C4140 H4127 0.930 . S
C4140 C4139 1.388 . S
C4140 C4141 1.390 . S
C4141 C4140 1.390 . S
C4141 C4142 1.394 . S
C4141 C4147 1.465 . S
C4142 C4137 1.399 . S
C4142 C4141 1.394 . S
C4142 C4143 1.516 . S
C4143 C4142 1.516 . S
C4143 C4144 1.502 . S
C4143 C4145 1.561 . S
C4143 C4146 1.526 . S
C4144 H4128 0.959 . S
C4144 H4129 0.959 . S
C4144 H4130 0.961 . S
C4144 C4143 1.502 . S
C4145 H4131 0.960 . S
C4145 H4132 0.961 . S
C4145 H4133 0.959 . S
C4145 C4143 1.561 . S
C4146 C4143 1.526 . S
C4146 C4147 1.396 . S
C4146 C4151 1.390 . S
C4147 C4141 1.465 . S
C4147 C4146 1.396 . S
C4147 C4148 1.399 . S
C4148 H4134 0.929 . S
C4148 C4147 1.399 . S
C4148 C4149 1.385 . S
C4149 H4135 0.931 . S
C4149 C4148 1.385 . S
C4149 C4150 1.389 . S
C4150 C4149 1.389 . S
C4150 C4151 1.387 . S
C4151 H4136 0.930 . S
C4151 C4146 1.390 . S
C4151 C4150 1.387 . S
H4152 C4164 0.930 . S
H4153 C4166 0.930 . S
H4154 C4167 0.930 . S
H4155 C4171 0.959 . S
H4156 C4171 0.959 . S
H4157 C4171 0.961 . S
H4158 C4172 0.960 . S
H4159 C4172 0.961 . S
H4160 C4172 0.959 . S
H4161 C4175 0.929 . S
H4162 C4176 0.931 . S
H4163 C4178 0.930 . S
C4164 H4152 0.930 . S
C4164 C4165 1.399 . S
C4164 C4169 1.399 . S
C4165 C4164 1.399 . S
C4165 C4166 1.376 . S
C4166 H4153 0.930 . S
C4166 C4165 1.376 . S
C4166 C4167 1.388 . S
C4167 H4154 0.930 . S
C4167 C4166 1.388 . S
C4167 C4168 1.390 . S
C4168 C4167 1.390 . S
C4168 C4169 1.394 . S
C4168 C4174 1.465 . S
C4169 C4164 1.399 . S
C4169 C4168 1.394 . S
C4169 C4170 1.516 . S
C4170 C4169 1.516 . S
C4170 C4171 1.502 . S
C4170 C4172 1.561 . S
C4170 C4173 1.526 . S
C4171 H4155 0.959 . S
C4171 H4156 0.959 . S
C4171 H4157 0.961 . S
C4171 C4170 1.502 . S
C4172 H4158 0.960 . S
C4172 H4159 0.961 . S
C4172 H4160 0.959 . S
C4172 C4170 1.561 . S
C4173 C4170 1.526 . S
C4173 C4174 1.396 . S
C4173 C4178 1.390 . S
C4174 C4168 1.465 . S
C4174 C4173 1.396 . S
C4174 C4175 1.399 . S
C4175 H4161 0.929 . S
C4175 C4174 1.399 . S
C4175 C4176 1.385 . S
C4176 H4162 0.931 . S
C4176 C4175 1.385 . S
C4176 C4177 1.389 . S
C4177 C4176 1.389 . S
C4177 C4178 1.387 . S
C4178 H4163 0.930 . S
C4178 C4173 1.390 . S
C4178 C4177 1.387 . S
H4179 C4191 0.930 . S
H4180 C4193 0.930 . S
H4181 C4194 0.930 . S
H4182 C4198 0.959 . S
H4183 C4198 0.959 . S
H4184 C4198 0.961 . S
H4185 C4199 0.960 . S
H4186 C4199 0.961 . S
H4187 C4199 0.959 . S
H4188 C4202 0.929 . S
H4189 C4203 0.931 . S
H4190 C4205 0.930 . S
C4191 H4179 0.930 . S
C4191 C4192 1.399 . S
C4191 C4196 1.399 . S
C4192 C4191 1.399 . S
C4192 C4193 1.376 . S
C4193 H4180 0.930 . S
C4193 C4192 1.376 . S
C4193 C4194 1.388 . S
C4194 H4181 0.930 . S
C4194 C4193 1.388 . S
C4194 C4195 1.390 . S
C4195 C4194 1.390 . S
C4195 C4196 1.394 . S
C4195 C4201 1.465 . S
C4196 C4191 1.399 . S
C4196 C4195 1.394 . S
C4196 C4197 1.516 . S
C4197 C4196 1.516 . S
C4197 C4198 1.502 . S
C4197 C4199 1.561 . S
C4197 C4200 1.526 . S
C4198 H4182 0.959 . S
C4198 H4183 0.959 . S
C4198 H4184 0.961 . S
C4198 C4197 1.502 . S
C4199 H4185 0.960 . S
C4199 H4186 0.961 . S
C4199 H4187 0.959 . S
C4199 C4197 1.561 . S
C4200 C4197 1.526 . S
C4200 C4201 1.396 . S
C4200 C4205 1.390 . S
C4201 C4195 1.465 . S
C4201 C4200 1.396 . S
C4201 C4202 1.399 . S
C4202 H4188 0.929 . S
C4202 C4201 1.399 . S
C4202 C4203 1.385 . S
C4203 H4189 0.931 . S
C4203 C4202 1.385 . S
C4203 C4204 1.389 . S
C4204 C4203 1.389 . S
C4204 C4205 1.387 . S
C4205 H4190 0.930 . S
C4205 C4200 1.390 . S
C4205 C4204 1.387 . S
H4206 C4218 0.930 . S
H4207 C4220 0.930 . S
H4208 C4221 0.930 . S
H4209 C4225 0.959 . S
H4210 C4225 0.959 . S
H4211 C4225 0.961 . S
H4212 C4226 0.960 . S
H4213 C4226 0.961 . S
H4214 C4226 0.959 . S
H4215 C4229 0.929 . S
H4216 C4230 0.931 . S
H4217 C4232 0.930 . S
C4218 H4206 0.930 . S
C4218 C4219 1.399 . S
C4218 C4223 1.399 . S
C4219 C4218 1.399 . S
C4219 C4220 1.376 . S
C4220 H4207 0.930 . S
C4220 C4219 1.376 . S
C4220 C4221 1.388 . S
C4221 H4208 0.930 . S
C4221 C4220 1.388 . S
C4221 C4222 1.390 . S
C4222 C4221 1.390 . S
C4222 C4223 1.394 . S
C4222 C4228 1.465 . S
C4223 C4218 1.399 . S
C4223 C4222 1.394 . S
C4223 C4224 1.516 . S
C4224 C4223 1.516 . S
C4224 C4225 1.502 . S
C4224 C4226 1.561 . S
C4224 C4227 1.526 . S
C4225 H4209 0.959 . S
C4225 H4210 0.959 . S
C4225 H4211 0.961 . S
C4225 C4224 1.502 . S
C4226 H4212 0.960 . S
C4226 H4213 0.961 . S
C4226 H4214 0.959 . S
C4226 C4224 1.561 . S
C4227 C4224 1.526 . S
C4227 C4228 1.396 . S
C4227 C4232 1.390 . S
C4228 C4222 1.465 . S
C4228 C4227 1.396 . S
C4228 C4229 1.399 . S
C4229 H4215 0.929 . S
C4229 C4228 1.399 . S
C4229 C4230 1.385 . S
C4230 H4216 0.931 . S
C4230 C4229 1.385 . S
C4230 C4231 1.389 . S
C4231 C4230 1.389 . S
C4231 C4232 1.387 . S
C4232 H4217 0.930 . S
C4232 C4227 1.390 . S
C4232 C4231 1.387 . S
H4233 C4245 0.930 . S
H4234 C4247 0.930 . S
H4235 C4248 0.930 . S
H4236 C4252 0.959 . S
H4237 C4252 0.959 . S
H4238 C4252 0.961 . S
H4239 C4253 0.960 . S
H4240 C4253 0.961 . S
H4241 C4253 0.959 . S
H4242 C4256 0.929 . S
H4243 C4257 0.931 . S
H4244 C4259 0.930 . S
C4245 H4233 0.930 . S
C4245 C4246 1.399 . S
C4245 C4250 1.399 . S
C4246 C4245 1.399 . S
C4246 C4247 1.376 . S
C4247 H4234 0.930 . S
C4247 C4246 1.376 . S
C4247 C4248 1.388 . S
C4248 H4235 0.930 . S
C4248 C4247 1.388 . S
C4248 C4249 1.390 . S
C4249 C4248 1.390 . S
C4249 C4250 1.394 . S
C4249 C4255 1.465 . S
C4250 C4245 1.399 . S
C4250 C4249 1.394 . S
C4250 C4251 1.516 . S
C4251 C4250 1.516 . S
C4251 C4252 1.502 . S
C4251 C4253 1.561 . S
C4251 C4254 1.526 . S
C4252 H4236 0.959 . S
C4252 H4237 0.959 . S
C4252 H4238 0.961 . S
C4252 C4251 1.502 . S
C4253 H4239 0.960 . S
C4253 H4240 0.961 . S
C4253 H4241 0.959 . S
C4253 C4251 1.561 . S
C4254 C4251 1.526 . S
C4254 C4255 1.396 . S
C4254 C4259 1.390 . S
C4255 C4249 1.465 . S
C4255 C4254 1.396 . S
C4255 C4256 1.399 . S
C4256 H4242 0.929 . S
C4256 C4255 1.399 . S
C4256 C4257 1.385 . S
C4257 H4243 0.931 . S
C4257 C4256 1.385 . S
C4257 C4258 1.389 . S
C4258 C4257 1.389 . S
C4258 C4259 1.387 . S
C4259 H4244 0.930 . S
C4259 C4254 1.390 . S
C4259 C4258 1.387 . S
H4260 C4272 0.930 . S
H4261 C4274 0.930 . S
H4262 C4275 0.930 . S
H4263 C4279 0.959 . S
H4264 C4279 0.959 . S
H4265 C4279 0.961 . S
H4266 C4280 0.960 . S
H4267 C4280 0.961 . S
H4268 C4280 0.959 . S
H4269 C4283 0.929 . S
H4270 C4284 0.931 . S
H4271 C4286 0.930 . S
C4272 H4260 0.930 . S
C4272 C4273 1.399 . S
C4272 C4277 1.399 . S
C4273 C4272 1.399 . S
C4273 C4274 1.376 . S
C4274 H4261 0.930 . S
C4274 C4273 1.376 . S
C4274 C4275 1.388 . S
C4275 H4262 0.930 . S
C4275 C4274 1.388 . S
C4275 C4276 1.390 . S
C4276 C4275 1.390 . S
C4276 C4277 1.394 . S
C4276 C4282 1.465 . S
C4277 C4272 1.399 . S
C4277 C4276 1.394 . S
C4277 C4278 1.516 . S
C4278 C4277 1.516 . S
C4278 C4279 1.502 . S
C4278 C4280 1.561 . S
C4278 C4281 1.526 . S
C4279 H4263 0.959 . S
C4279 H4264 0.959 . S
C4279 H4265 0.961 . S
C4279 C4278 1.502 . S
C4280 H4266 0.960 . S
C4280 H4267 0.961 . S
C4280 H4268 0.959 . S
C4280 C4278 1.561 . S
C4281 C4278 1.526 . S
C4281 C4282 1.396 . S
C4281 C4286 1.390 . S
C4282 C4276 1.465 . S
C4282 C4281 1.396 . S
C4282 C4283 1.399 . S
C4283 H4269 0.929 . S
C4283 C4282 1.399 . S
C4283 C4284 1.385 . S
C4284 H4270 0.931 . S
C4284 C4283 1.385 . S
C4284 C4285 1.389 . S
C4285 C4284 1.389 . S
C4285 C4286 1.387 . S
C4286 H4271 0.930 . S
C4286 C4281 1.390 . S
C4286 C4285 1.387 . S
H4287 C4299 0.930 . S
H4288 C4301 0.930 . S
H4289 C4302 0.930 . S
H4290 C4306 0.959 . S
H4291 C4306 0.959 . S
H4292 C4306 0.961 . S
H4293 C4307 0.960 . S
H4294 C4307 0.961 . S
H4295 C4307 0.959 . S
H4296 C4310 0.929 . S
H4297 C4311 0.931 . S
H4298 C4313 0.930 . S
C4299 H4287 0.930 . S
C4299 C4300 1.399 . S
C4299 C4304 1.399 . S
C4300 C4299 1.399 . S
C4300 C4301 1.376 . S
C4301 H4288 0.930 . S
C4301 C4300 1.376 . S
C4301 C4302 1.388 . S
C4302 H4289 0.930 . S
C4302 C4301 1.388 . S
C4302 C4303 1.390 . S
C4303 C4302 1.390 . S
C4303 C4304 1.394 . S
C4303 C4309 1.465 . S
C4304 C4299 1.399 . S
C4304 C4303 1.394 . S
C4304 C4305 1.516 . S
C4305 C4304 1.516 . S
C4305 C4306 1.502 . S
C4305 C4307 1.561 . S
C4305 C4308 1.526 . S
C4306 H4290 0.959 . S
C4306 H4291 0.959 . S
C4306 H4292 0.961 . S
C4306 C4305 1.502 . S
C4307 H4293 0.960 . S
C4307 H4294 0.961 . S
C4307 H4295 0.959 . S
C4307 C4305 1.561 . S
C4308 C4305 1.526 . S
C4308 C4309 1.396 . S
C4308 C4313 1.390 . S
C4309 C4303 1.465 . S
C4309 C4308 1.396 . S
C4309 C4310 1.399 . S
C4310 H4296 0.929 . S
C4310 C4309 1.399 . S
C4310 C4311 1.385 . S
C4311 H4297 0.931 . S
C4311 C4310 1.385 . S
C4311 C4312 1.389 . S
C4312 C4311 1.389 . S
C4312 C4313 1.387 . S
C4313 H4298 0.930 . S
C4313 C4308 1.390 . S
C4313 C4312 1.387 . S
H4314 C4326 0.930 . S
H4315 C4328 0.930 . S
H4316 C4329 0.930 . S
H4317 C4333 0.959 . S
H4318 C4333 0.959 . S
H4319 C4333 0.961 . S
H4320 C4334 0.960 . S
H4321 C4334 0.961 . S
H4322 C4334 0.959 . S
H4323 C4337 0.929 . S
H4324 C4338 0.931 . S
H4325 C4340 0.930 . S
C4326 H4314 0.930 . S
C4326 C4327 1.399 . S
C4326 C4331 1.399 . S
C4327 C4326 1.399 . S
C4327 C4328 1.376 . S
C4328 H4315 0.930 . S
C4328 C4327 1.376 . S
C4328 C4329 1.388 . S
C4329 H4316 0.930 . S
C4329 C4328 1.388 . S
C4329 C4330 1.390 . S
C4330 C4329 1.390 . S
C4330 C4331 1.394 . S
C4330 C4336 1.465 . S
C4331 C4326 1.399 . S
C4331 C4330 1.394 . S
C4331 C4332 1.516 . S
C4332 C4331 1.516 . S
C4332 C4333 1.502 . S
C4332 C4334 1.561 . S
C4332 C4335 1.526 . S
C4333 H4317 0.959 . S
C4333 H4318 0.959 . S
C4333 H4319 0.961 . S
C4333 C4332 1.502 . S
C4334 H4320 0.960 . S
C4334 H4321 0.961 . S
C4334 H4322 0.959 . S
C4334 C4332 1.561 . S
C4335 C4332 1.526 . S
C4335 C4336 1.396 . S
C4335 C4340 1.390 . S
C4336 C4330 1.465 . S
C4336 C4335 1.396 . S
C4336 C4337 1.399 . S
C4337 H4323 0.929 . S
C4337 C4336 1.399 . S
C4337 C4338 1.385 . S
C4338 H4324 0.931 . S
C4338 C4337 1.385 . S
C4338 C4339 1.389 . S
C4339 C4338 1.389 . S
C4339 C4340 1.387 . S
C4340 H4325 0.930 . S
C4340 C4335 1.390 . S
C4340 C4339 1.387 . S
H4341 C4353 0.930 . S
H4342 C4355 0.930 . S
H4343 C4356 0.930 . S
H4344 C4360 0.959 . S
H4345 C4360 0.959 . S
H4346 C4360 0.961 . S
H4347 C4361 0.960 . S
H4348 C4361 0.961 . S
H4349 C4361 0.959 . S
H4350 C4364 0.929 . S
H4351 C4365 0.931 . S
H4352 C4367 0.930 . S
C4353 H4341 0.930 . S
C4353 C4354 1.399 . S
C4353 C4358 1.399 . S
C4354 C4353 1.399 . S
C4354 C4355 1.376 . S
C4355 H4342 0.930 . S
C4355 C4354 1.376 . S
C4355 C4356 1.388 . S
C4356 H4343 0.930 . S
C4356 C4355 1.388 . S
C4356 C4357 1.390 . S
C4357 C4356 1.390 . S
C4357 C4358 1.394 . S
C4357 C4363 1.465 . S
C4358 C4353 1.399 . S
C4358 C4357 1.394 . S
C4358 C4359 1.516 . S
C4359 C4358 1.516 . S
C4359 C4360 1.502 . S
C4359 C4361 1.561 . S
C4359 C4362 1.526 . S
C4360 H4344 0.959 . S
C4360 H4345 0.959 . S
C4360 H4346 0.961 . S
C4360 C4359 1.502 . S
C4361 H4347 0.960 . S
C4361 H4348 0.961 . S
C4361 H4349 0.959 . S
C4361 C4359 1.561 . S
C4362 C4359 1.526 . S
C4362 C4363 1.396 . S
C4362 C4367 1.390 . S
C4363 C4357 1.465 . S
C4363 C4362 1.396 . S
C4363 C4364 1.399 . S
C4364 H4350 0.929 . S
C4364 C4363 1.399 . S
C4364 C4365 1.385 . S
C4365 H4351 0.931 . S
C4365 C4364 1.385 . S
C4365 C4366 1.389 . S
C4366 C4365 1.389 . S
C4366 C4367 1.387 . S
C4367 H4352 0.930 . S
C4367 C4362 1.390 . S
C4367 C4366 1.387 . S
H4368 C4380 0.930 . S
H4369 C4382 0.930 . S
H4370 C4383 0.930 . S
H4371 C4387 0.959 . S
H4372 C4387 0.959 . S
H4373 C4387 0.961 . S
H4374 C4388 0.960 . S
H4375 C4388 0.961 . S
H4376 C4388 0.959 . S
H4377 C4391 0.929 . S
H4378 C4392 0.931 . S
H4379 C4394 0.930 . S
C4380 H4368 0.930 . S
C4380 C4381 1.399 . S
C4380 C4385 1.399 . S
C4381 C4380 1.399 . S
C4381 C4382 1.376 . S
C4382 H4369 0.930 . S
C4382 C4381 1.376 . S
C4382 C4383 1.388 . S
C4383 H4370 0.930 . S
C4383 C4382 1.388 . S
C4383 C4384 1.390 . S
C4384 C4383 1.390 . S
C4384 C4385 1.394 . S
C4384 C4390 1.465 . S
C4385 C4380 1.399 . S
C4385 C4384 1.394 . S
C4385 C4386 1.516 . S
C4386 C4385 1.516 . S
C4386 C4387 1.502 . S
C4386 C4388 1.561 . S
C4386 C4389 1.526 . S
C4387 H4371 0.959 . S
C4387 H4372 0.959 . S
C4387 H4373 0.961 . S
C4387 C4386 1.502 . S
C4388 H4374 0.960 . S
C4388 H4375 0.961 . S
C4388 H4376 0.959 . S
C4388 C4386 1.561 . S
C4389 C4386 1.526 . S
C4389 C4390 1.396 . S
C4389 C4394 1.390 . S
C4390 C4384 1.465 . S
C4390 C4389 1.396 . S
C4390 C4391 1.399 . S
C4391 H4377 0.929 . S
C4391 C4390 1.399 . S
C4391 C4392 1.385 . S
C4392 H4378 0.931 . S
C4392 C4391 1.385 . S
C4392 C4393 1.389 . S
C4393 C4392 1.389 . S
C4393 C4394 1.387 . S
C4394 H4379 0.930 . S
C4394 C4389 1.390 . S
C4394 C4393 1.387 . S
H4395 C4407 0.930 . S
H4396 C4409 0.930 . S
H4397 C4410 0.930 . S
H4398 C4414 0.959 . S
H4399 C4414 0.959 . S
H4400 C4414 0.961 . S
H4401 C4415 0.960 . S
H4402 C4415 0.961 . S
H4403 C4415 0.959 . S
H4404 C4418 0.929 . S
H4405 C4419 0.931 . S
H4406 C4421 0.930 . S
C4407 H4395 0.930 . S
C4407 C4408 1.399 . S
C4407 C4412 1.399 . S
C4408 C4407 1.399 . S
C4408 C4409 1.376 . S
C4409 H4396 0.930 . S
C4409 C4408 1.376 . S
C4409 C4410 1.388 . S
C4410 H4397 0.930 . S
C4410 C4409 1.388 . S
C4410 C4411 1.390 . S
C4411 C4410 1.390 . S
C4411 C4412 1.394 . S
C4411 C4417 1.465 . S
C4412 C4407 1.399 . S
C4412 C4411 1.394 . S
C4412 C4413 1.516 . S
C4413 C4412 1.516 . S
C4413 C4414 1.502 . S
C4413 C4415 1.561 . S
C4413 C4416 1.526 . S
C4414 H4398 0.959 . S
C4414 H4399 0.959 . S
C4414 H4400 0.961 . S
C4414 C4413 1.502 . S
C4415 H4401 0.960 . S
C4415 H4402 0.961 . S
C4415 H4403 0.959 . S
C4415 C4413 1.561 . S
C4416 C4413 1.526 . S
C4416 C4417 1.396 . S
C4416 C4421 1.390 . S
C4417 C4411 1.465 . S
C4417 C4416 1.396 . S
C4417 C4418 1.399 . S
C4418 H4404 0.929 . S
C4418 C4417 1.399 . S
C4418 C4419 1.385 . S
C4419 H4405 0.931 . S
C4419 C4418 1.385 . S
C4419 C4420 1.389 . S
C4420 C4419 1.389 . S
C4420 C4421 1.387 . S
C4421 H4406 0.930 . S
C4421 C4416 1.390 . S
C4421 C4420 1.387 . S
H4422 C4434 0.930 . S
H4423 C4436 0.930 . S
H4424 C4437 0.930 . S
H4425 C4441 0.959 . S
H4426 C4441 0.959 . S
H4427 C4441 0.961 . S
H4428 C4442 0.960 . S
H4429 C4442 0.961 . S
H4430 C4442 0.959 . S
H4431 C4445 0.929 . S
H4432 C4446 0.931 . S
H4433 C4448 0.930 . S
C4434 H4422 0.930 . S
C4434 C4435 1.399 . S
C4434 C4439 1.399 . S
C4435 C4434 1.399 . S
C4435 C4436 1.376 . S
C4436 H4423 0.930 . S
C4436 C4435 1.376 . S
C4436 C4437 1.388 . S
C4437 H4424 0.930 . S
C4437 C4436 1.388 . S
C4437 C4438 1.390 . S
C4438 C4437 1.390 . S
C4438 C4439 1.394 . S
C4438 C4444 1.465 . S
C4439 C4434 1.399 . S
C4439 C4438 1.394 . S
C4439 C4440 1.516 . S
C4440 C4439 1.516 . S
C4440 C4441 1.502 . S
C4440 C4442 1.561 . S
C4440 C4443 1.526 . S
C4441 H4425 0.959 . S
C4441 H4426 0.959 . S
C4441 H4427 0.961 . S
C4441 C4440 1.502 . S
C4442 H4428 0.960 . S
C4442 H4429 0.961 . S
C4442 H4430 0.959 . S
C4442 C4440 1.561 . S
C4443 C4440 1.526 . S
C4443 C4444 1.396 . S
C4443 C4448 1.390 . S
C4444 C4438 1.465 . S
C4444 C4443 1.396 . S
C4444 C4445 1.399 . S
C4445 H4431 0.929 . S
C4445 C4444 1.399 . S
C4445 C4446 1.385 1_655 S
C4446 H4432 0.931 . S
C4446 C4445 1.385 1_455 S
C4446 C4447 1.389 1_455 S
C4447 C4446 1.389 1_655 S
C4447 C4448 1.387 . S
C4448 H4433 0.930 . S
C4448 C4443 1.390 . S
C4448 C4447 1.387 . S
H4449 C4461 0.930 . S
H4450 C4463 0.930 . S
H4451 C4464 0.930 . S
H4452 C4468 0.959 . S
H4453 C4468 0.959 . S
H4454 C4468 0.961 . S
H4455 C4469 0.960 . S
H4456 C4469 0.961 . S
H4457 C4469 0.959 . S
H4458 C4472 0.929 . S
H4459 C4473 0.931 . S
H4460 C4475 0.930 . S
C4461 H4449 0.930 . S
C4461 C4462 1.399 . S
C4461 C4466 1.399 . S
C4462 C4461 1.399 . S
C4462 C4463 1.376 . S
C4463 H4450 0.930 . S
C4463 C4462 1.376 . S
C4463 C4464 1.388 . S
C4464 H4451 0.930 . S
C4464 C4463 1.388 . S
C4464 C4465 1.390 . S
C4465 C4464 1.390 . S
C4465 C4466 1.394 . S
C4465 C4471 1.465 . S
C4466 C4461 1.399 . S
C4466 C4465 1.394 . S
C4466 C4467 1.516 . S
C4467 C4466 1.516 . S
C4467 C4468 1.502 . S
C4467 C4469 1.561 . S
C4467 C4470 1.526 . S
C4468 H4452 0.959 . S
C4468 H4453 0.959 . S
C4468 H4454 0.961 . S
C4468 C4467 1.502 . S
C4469 H4455 0.960 . S
C4469 H4456 0.961 . S
C4469 H4457 0.959 . S
C4469 C4467 1.561 . S
C4470 C4467 1.526 . S
C4470 C4471 1.396 . S
C4470 C4475 1.390 . S
C4471 C4465 1.465 . S
C4471 C4470 1.396 . S
C4471 C4472 1.399 . S
C4472 H4458 0.929 . S
C4472 C4471 1.399 . S
C4472 C4473 1.385 . S
C4473 H4459 0.931 . S
C4473 C4472 1.385 . S
C4473 C4474 1.389 . S
C4474 C4473 1.389 . S
C4474 C4475 1.387 . S
C4475 H4460 0.930 . S
C4475 C4470 1.390 . S
C4475 C4474 1.387 . S
H4476 C4488 0.930 . S
H4477 C4490 0.930 . S
H4478 C4491 0.930 . S
H4479 C4495 0.959 . S
H4480 C4495 0.959 . S
H4481 C4495 0.961 . S
H4482 C4496 0.960 . S
H4483 C4496 0.961 . S
H4484 C4496 0.959 . S
H4485 C4499 0.929 . S
H4486 C4500 0.931 . S
H4487 C4502 0.930 . S
C4488 H4476 0.930 . S
C4488 C4489 1.399 . S
C4488 C4493 1.399 . S
C4489 C4488 1.399 . S
C4489 C4490 1.376 . S
C4490 H4477 0.930 . S
C4490 C4489 1.376 . S
C4490 C4491 1.388 . S
C4491 H4478 0.930 . S
C4491 C4490 1.388 . S
C4491 C4492 1.390 . S
C4492 C4491 1.390 . S
C4492 C4493 1.394 . S
C4492 C4498 1.465 . S
C4493 C4488 1.399 . S
C4493 C4492 1.394 . S
C4493 C4494 1.516 . S
C4494 C4493 1.516 . S
C4494 C4495 1.502 . S
C4494 C4496 1.561 . S
C4494 C4497 1.526 . S
C4495 H4479 0.959 . S
C4495 H4480 0.959 . S
C4495 H4481 0.961 . S
C4495 C4494 1.502 . S
C4496 H4482 0.960 . S
C4496 H4483 0.961 . S
C4496 H4484 0.959 . S
C4496 C4494 1.561 . S
C4497 C4494 1.526 . S
C4497 C4498 1.396 . S
C4497 C4502 1.390 . S
C4498 C4492 1.465 . S
C4498 C4497 1.396 . S
C4498 C4499 1.399 . S
C4499 H4485 0.929 . S
C4499 C4498 1.399 . S
C4499 C4500 1.385 . S
C4500 H4486 0.931 . S
C4500 C4499 1.385 . S
C4500 C4501 1.389 . S
C4501 C4500 1.389 . S
C4501 C4502 1.387 . S
C4502 H4487 0.930 . S
C4502 C4497 1.390 . S
C4502 C4501 1.387 . S
H4503 C4515 0.930 . S
H4504 C4517 0.930 . S
H4505 C4518 0.930 . S
H4506 C4522 0.959 . S
H4507 C4522 0.959 . S
H4508 C4522 0.961 . S
H4509 C4523 0.960 . S
H4510 C4523 0.961 . S
H4511 C4523 0.959 . S
H4512 C4526 0.929 . S
H4513 C4527 0.931 . S
H4514 C4529 0.930 . S
C4515 H4503 0.930 . S
C4515 C4516 1.399 . S
C4515 C4520 1.399 . S
C4516 C4515 1.399 . S
C4516 C4517 1.376 . S
C4517 H4504 0.930 . S
C4517 C4516 1.376 . S
C4517 C4518 1.388 . S
C4518 H4505 0.930 . S
C4518 C4517 1.388 . S
C4518 C4519 1.390 . S
C4519 C4518 1.390 . S
C4519 C4520 1.394 . S
C4519 C4525 1.465 . S
C4520 C4515 1.399 . S
C4520 C4519 1.394 . S
C4520 C4521 1.516 . S
C4521 C4520 1.516 . S
C4521 C4522 1.502 . S
C4521 C4523 1.561 . S
C4521 C4524 1.526 . S
C4522 H4506 0.959 . S
C4522 H4507 0.959 . S
C4522 H4508 0.961 . S
C4522 C4521 1.502 . S
C4523 H4509 0.960 . S
C4523 H4510 0.961 . S
C4523 H4511 0.959 . S
C4523 C4521 1.561 . S
C4524 C4521 1.526 . S
C4524 C4525 1.396 . S
C4524 C4529 1.390 . S
C4525 C4519 1.465 . S
C4525 C4524 1.396 . S
C4525 C4526 1.399 . S
C4526 H4512 0.929 . S
C4526 C4525 1.399 . S
C4526 C4527 1.385 . S
C4527 H4513 0.931 . S
C4527 C4526 1.385 . S
C4527 C4528 1.389 . S
C4528 C4527 1.389 . S
C4528 C4529 1.387 . S
C4529 H4514 0.930 . S
C4529 C4524 1.390 . S
C4529 C4528 1.387 . S
H4530 C4542 0.930 . S
H4531 C4544 0.930 . S
H4532 C4545 0.930 . S
H4533 C4549 0.959 . S
H4534 C4549 0.959 . S
H4535 C4549 0.961 . S
H4536 C4550 0.960 . S
H4537 C4550 0.961 . S
H4538 C4550 0.959 . S
H4539 C4553 0.929 . S
H4540 C4554 0.931 . S
H4541 C4556 0.930 . S
C4542 H4530 0.930 . S
C4542 C4543 1.399 . S
C4542 C4547 1.399 . S
C4543 C4542 1.399 . S
C4543 C4544 1.376 . S
C4544 H4531 0.930 . S
C4544 C4543 1.376 . S
C4544 C4545 1.388 . S
C4545 H4532 0.930 . S
C4545 C4544 1.388 . S
C4545 C4546 1.390 . S
C4546 C4545 1.390 . S
C4546 C4547 1.394 . S
C4546 C4552 1.465 . S
C4547 C4542 1.399 . S
C4547 C4546 1.394 . S
C4547 C4548 1.516 . S
C4548 C4547 1.516 . S
C4548 C4549 1.502 . S
C4548 C4550 1.561 . S
C4548 C4551 1.526 . S
C4549 H4533 0.959 . S
C4549 H4534 0.959 . S
C4549 H4535 0.961 . S
C4549 C4548 1.502 . S
C4550 H4536 0.960 . S
C4550 H4537 0.961 . S
C4550 H4538 0.959 . S
C4550 C4548 1.561 . S
C4551 C4548 1.526 . S
C4551 C4552 1.396 . S
C4551 C4556 1.390 . S
C4552 C4546 1.465 . S
C4552 C4551 1.396 . S
C4552 C4553 1.399 . S
C4553 H4539 0.929 . S
C4553 C4552 1.399 . S
C4553 C4554 1.385 . S
C4554 H4540 0.931 . S
C4554 C4553 1.385 . S
C4554 C4555 1.389 . S
C4555 C4554 1.389 . S
C4555 C4556 1.387 . S
C4556 H4541 0.930 . S
C4556 C4551 1.390 . S
C4556 C4555 1.387 . S
H4557 C4569 0.930 . S
H4558 C4571 0.930 . S
H4559 C4572 0.930 . S
H4560 C4576 0.959 . S
H4561 C4576 0.959 . S
H4562 C4576 0.961 . S
H4563 C4577 0.960 . S
H4564 C4577 0.961 . S
H4565 C4577 0.959 . S
H4566 C4580 0.929 . S
H4567 C4581 0.931 . S
H4568 C4583 0.930 . S
C4569 H4557 0.930 . S
C4569 C4570 1.399 . S
C4569 C4574 1.399 . S
C4570 C4569 1.399 . S
C4570 C4571 1.376 . S
C4571 H4558 0.930 . S
C4571 C4570 1.376 . S
C4571 C4572 1.388 . S
C4572 H4559 0.930 . S
C4572 C4571 1.388 . S
C4572 C4573 1.390 . S
C4573 C4572 1.390 . S
C4573 C4574 1.394 . S
C4573 C4579 1.465 . S
C4574 C4569 1.399 . S
C4574 C4573 1.394 . S
C4574 C4575 1.516 . S
C4575 C4574 1.516 . S
C4575 C4576 1.502 . S
C4575 C4577 1.561 . S
C4575 C4578 1.526 . S
C4576 H4560 0.959 . S
C4576 H4561 0.959 . S
C4576 H4562 0.961 . S
C4576 C4575 1.502 . S
C4577 H4563 0.960 . S
C4577 H4564 0.961 . S
C4577 H4565 0.959 . S
C4577 C4575 1.561 . S
C4578 C4575 1.526 . S
C4578 C4579 1.396 . S
C4578 C4583 1.390 . S
C4579 C4573 1.465 . S
C4579 C4578 1.396 . S
C4579 C4580 1.399 . S
C4580 H4566 0.929 . S
C4580 C4579 1.399 . S
C4580 C4581 1.385 . S
C4581 H4567 0.931 . S
C4581 C4580 1.385 . S
C4581 C4582 1.389 . S
C4582 C4581 1.389 . S
C4582 C4583 1.387 . S
C4583 H4568 0.930 . S
C4583 C4578 1.390 . S
C4583 C4582 1.387 . S
H4584 C4596 0.930 . S
H4585 C4598 0.930 . S
H4586 C4599 0.930 . S
H4587 C4603 0.959 . S
H4588 C4603 0.959 . S
H4589 C4603 0.961 . S
H4590 C4604 0.960 . S
H4591 C4604 0.961 . S
H4592 C4604 0.959 . S
H4593 C4607 0.929 . S
H4594 C4608 0.931 . S
H4595 C4610 0.930 . S
C4596 H4584 0.930 . S
C4596 C4597 1.399 . S
C4596 C4601 1.399 . S
C4597 C4596 1.399 . S
C4597 C4598 1.376 . S
C4598 H4585 0.930 . S
C4598 C4597 1.376 . S
C4598 C4599 1.388 . S
C4599 H4586 0.930 . S
C4599 C4598 1.388 . S
C4599 C4600 1.390 . S
C4600 C4599 1.390 . S
C4600 C4601 1.394 . S
C4600 C4606 1.465 . S
C4601 C4596 1.399 . S
C4601 C4600 1.394 . S
C4601 C4602 1.516 . S
C4602 C4601 1.516 . S
C4602 C4603 1.502 . S
C4602 C4604 1.561 . S
C4602 C4605 1.526 . S
C4603 H4587 0.959 . S
C4603 H4588 0.959 . S
C4603 H4589 0.961 . S
C4603 C4602 1.502 . S
C4604 H4590 0.960 . S
C4604 H4591 0.961 . S
C4604 H4592 0.959 . S
C4604 C4602 1.561 . S
C4605 C4602 1.526 . S
C4605 C4606 1.396 . S
C4605 C4610 1.390 . S
C4606 C4600 1.465 . S
C4606 C4605 1.396 . S
C4606 C4607 1.399 . S
C4607 H4593 0.929 . S
C4607 C4606 1.399 . S
C4607 C4608 1.385 . S
C4608 H4594 0.931 . S
C4608 C4607 1.385 . S
C4608 C4609 1.389 . S
C4609 C4608 1.389 . S
C4609 C4610 1.387 . S
C4610 H4595 0.930 . S
C4610 C4605 1.390 . S
C4610 C4609 1.387 . S
H4611 C4623 0.930 . S
H4612 C4625 0.930 . S
H4613 C4626 0.930 . S
H4614 C4630 0.959 . S
H4615 C4630 0.959 . S
H4616 C4630 0.961 . S
H4617 C4631 0.960 . S
H4618 C4631 0.961 . S
H4619 C4631 0.959 . S
H4620 C4634 0.929 . S
H4621 C4635 0.906 1_545 S
H4622 C4637 0.930 . S
C4623 H4611 0.930 . S
C4623 C4624 1.399 . S
C4623 C4628 1.399 . S
C4624 C4623 1.399 . S
C4624 C4625 1.376 . S
C4625 H4612 0.930 . S
C4625 C4624 1.376 . S
C4625 C4626 1.388 . S
C4626 H4613 0.930 . S
C4626 C4625 1.388 . S
C4626 C4627 1.390 . S
C4627 C4626 1.390 . S
C4627 C4628 1.394 . S
C4627 C4633 1.465 . S
C4628 C4623 1.399 . S
C4628 C4627 1.394 . S
C4628 C4629 1.516 . S
C4629 C4628 1.516 . S
C4629 C4630 1.502 . S
C4629 C4631 1.561 . S
C4629 C4632 1.526 . S
C4630 H4614 0.959 . S
C4630 H4615 0.959 . S
C4630 H4616 0.961 . S
C4630 C4629 1.502 . S
C4631 H4617 0.960 . S
C4631 H4618 0.961 . S
C4631 H4619 0.959 . S
C4631 C4629 1.561 . S
C4632 C4629 1.526 . S
C4632 C4633 1.396 . S
C4632 C4637 1.390 . S
C4633 C4627 1.465 . S
C4633 C4632 1.396 . S
C4633 C4634 1.399 . S
C4634 H4620 0.929 . S
C4634 C4633 1.399 . S
C4634 C4635 1.395 . S
C4635 H4621 0.906 1_565 S
C4635 C4634 1.395 . S
C4635 C4636 1.405 . S
C4636 C4635 1.405 . S
C4636 C4637 1.387 . S
C4637 H4622 0.930 . S
C4637 C4632 1.390 . S
C4637 C4636 1.387 . S
H4638 C4650 0.930 . S
H4639 C4652 0.930 . S
H4640 C4653 0.930 . S
H4641 C4657 0.959 . S
H4642 C4657 0.959 . S
H4643 C4657 0.961 . S
H4644 C4658 0.960 . S
H4645 C4658 0.961 . S
H4646 C4658 0.959 . S
H4647 C4661 0.929 . S
H4648 C4662 0.931 . S
H4649 C4664 0.930 . S
C4650 H4638 0.930 . S
C4650 C4651 1.399 . S
C4650 C4655 1.399 . S
C4651 C4650 1.399 . S
C4651 C4652 1.376 . S
C4652 H4639 0.930 . S
C4652 C4651 1.376 . S
C4652 C4653 1.388 . S
C4653 H4640 0.930 . S
C4653 C4652 1.388 . S
C4653 C4654 1.390 . S
C4654 C4653 1.390 . S
C4654 C4655 1.394 . S
C4654 C4660 1.465 . S
C4655 C4650 1.399 . S
C4655 C4654 1.394 . S
C4655 C4656 1.516 . S
C4656 C4655 1.516 . S
C4656 C4657 1.502 . S
C4656 C4658 1.561 . S
C4656 C4659 1.526 . S
C4657 H4641 0.959 . S
C4657 H4642 0.959 . S
C4657 H4643 0.961 . S
C4657 C4656 1.502 . S
C4658 H4644 0.960 . S
C4658 H4645 0.961 . S
C4658 H4646 0.959 . S
C4658 C4656 1.561 . S
C4659 C4656 1.526 . S
C4659 C4660 1.396 . S
C4659 C4664 1.390 . S
C4660 C4654 1.465 . S
C4660 C4659 1.396 . S
C4660 C4661 1.399 . S
C4661 H4647 0.929 . S
C4661 C4660 1.399 . S
C4661 C4662 1.385 . S
C4662 H4648 0.931 . S
C4662 C4661 1.385 . S
C4662 C4663 1.389 . S
C4663 C4662 1.389 . S
C4663 C4664 1.387 . S
C4664 H4649 0.930 . S
C4664 C4659 1.390 . S
C4664 C4663 1.387 . S
H4665 C4677 0.930 . S
H4666 C4679 0.930 . S
H4667 C4680 0.930 . S
H4668 C4684 0.959 . S
H4669 C4684 0.959 . S
H4670 C4684 0.961 . S
H4671 C4685 0.960 . S
H4672 C4685 0.961 . S
H4673 C4685 0.959 . S
H4674 C4688 0.929 . S
H4675 C4689 0.931 . S
H4676 C4691 0.930 . S
C4677 H4665 0.930 . S
C4677 C4678 1.399 . S
C4677 C4682 1.399 . S
C4678 C4677 1.399 . S
C4678 C4679 1.376 . S
C4679 H4666 0.930 . S
C4679 C4678 1.376 . S
C4679 C4680 1.388 . S
C4680 H4667 0.930 . S
C4680 C4679 1.388 . S
C4680 C4681 1.390 . S
C4681 C4680 1.390 . S
C4681 C4682 1.394 . S
C4681 C4687 1.465 . S
C4682 C4677 1.399 . S
C4682 C4681 1.394 . S
C4682 C4683 1.516 . S
C4683 C4682 1.516 . S
C4683 C4684 1.502 . S
C4683 C4685 1.561 . S
C4683 C4686 1.526 . S
C4684 H4668 0.959 . S
C4684 H4669 0.959 . S
C4684 H4670 0.961 . S
C4684 C4683 1.502 . S
C4685 H4671 0.960 . S
C4685 H4672 0.961 . S
C4685 H4673 0.959 . S
C4685 C4683 1.561 . S
C4686 C4683 1.526 . S
C4686 C4687 1.396 . S
C4686 C4691 1.390 . S
C4687 C4681 1.465 . S
C4687 C4686 1.396 . S
C4687 C4688 1.399 . S
C4688 H4674 0.929 . S
C4688 C4687 1.399 . S
C4688 C4689 1.385 . S
C4689 H4675 0.931 . S
C4689 C4688 1.385 . S
C4689 C4690 1.389 . S
C4690 C4689 1.389 . S
C4690 C4691 1.387 . S
C4691 H4676 0.930 . S
C4691 C4686 1.390 . S
C4691 C4690 1.387 . S
H4692 C4704 0.930 . S
H4693 C4706 0.930 . S
H4694 C4707 0.930 . S
H4695 C4711 0.959 . S
H4696 C4711 0.959 . S
H4697 C4711 0.961 . S
H4698 C4712 0.960 . S
H4699 C4712 0.961 . S
H4700 C4712 0.959 . S
H4701 C4715 0.929 . S
H4702 C4716 0.931 . S
H4703 C4718 0.930 . S
C4704 H4692 0.930 . S
C4704 C4705 1.399 . S
C4704 C4709 1.399 . S
C4705 C4704 1.399 . S
C4705 C4706 1.376 . S
C4706 H4693 0.930 . S
C4706 C4705 1.376 . S
C4706 C4707 1.388 . S
C4707 H4694 0.930 . S
C4707 C4706 1.388 . S
C4707 C4708 1.390 . S
C4708 C4707 1.390 . S
C4708 C4709 1.394 . S
C4708 C4714 1.465 . S
C4709 C4704 1.399 . S
C4709 C4708 1.394 . S
C4709 C4710 1.516 . S
C4710 C4709 1.516 . S
C4710 C4711 1.502 . S
C4710 C4712 1.561 . S
C4710 C4713 1.526 . S
C4711 H4695 0.959 . S
C4711 H4696 0.959 . S
C4711 H4697 0.961 . S
C4711 C4710 1.502 . S
C4712 H4698 0.960 . S
C4712 H4699 0.961 . S
C4712 H4700 0.959 . S
C4712 C4710 1.561 . S
C4713 C4710 1.526 . S
C4713 C4714 1.396 . S
C4713 C4718 1.390 . S
C4714 C4708 1.465 . S
C4714 C4713 1.396 . S
C4714 C4715 1.399 . S
C4715 H4701 0.929 . S
C4715 C4714 1.399 . S
C4715 C4716 1.385 . S
C4716 H4702 0.931 . S
C4716 C4715 1.385 . S
C4716 C4717 1.389 . S
C4717 C4716 1.389 . S
C4717 C4718 1.387 . S
C4718 H4703 0.930 . S
C4718 C4713 1.390 . S
C4718 C4717 1.387 . S
H4719 C4731 0.930 . S
H4720 C4733 0.930 . S
H4721 C4734 0.930 1_556 S
H4722 C4738 0.959 . S
H4723 C4738 0.959 . S
H4724 C4738 0.961 . S
H4725 C4739 0.960 . S
H4726 C4739 0.961 . S
H4727 C4739 0.959 . S
H4728 C4742 0.929 . S
H4729 C4743 0.931 . S
H4730 C4745 0.930 . S
C4731 H4719 0.930 . S
C4731 C4732 1.399 . S
C4731 C4736 1.399 . S
C4732 C4731 1.399 . S
C4732 C4733 1.376 . S
C4733 H4720 0.930 . S
C4733 C4732 1.376 . S
C4733 C4734 1.388 . S
C4734 H4721 0.930 1_554 S
C4734 C4733 1.388 . S
C4734 C4735 1.390 . S
C4735 C4734 1.390 . S
C4735 C4736 1.394 . S
C4735 C4741 1.465 . S
C4736 C4731 1.399 . S
C4736 C4735 1.394 . S
C4736 C4737 1.516 . S
C4737 C4736 1.516 . S
C4737 C4738 1.502 . S
C4737 C4739 1.561 . S
C4737 C4740 1.526 . S
C4738 H4722 0.959 . S
C4738 H4723 0.959 . S
C4738 H4724 0.961 . S
C4738 C4737 1.502 . S
C4739 H4725 0.960 . S
C4739 H4726 0.961 . S
C4739 H4727 0.959 . S
C4739 C4737 1.561 . S
C4740 C4737 1.526 . S
C4740 C4741 1.396 . S
C4740 C4745 1.390 . S
C4741 C4735 1.465 . S
C4741 C4740 1.396 . S
C4741 C4742 1.399 1_554 S
C4742 H4728 0.929 . S
C4742 C4741 1.399 1_556 S
C4742 C4743 1.385 . S
C4743 H4729 0.931 . S
C4743 C4742 1.385 . S
C4743 C4744 1.389 1_556 S
C4744 C4743 1.389 1_554 S
C4744 C4745 1.387 . S
C4745 H4730 0.930 . S
C4745 C4740 1.390 . S
C4745 C4744 1.387 . S
H4746 C4758 0.930 . S
H4747 C4760 0.930 . S
H4748 C4761 0.930 . S
H4749 C4765 0.959 . S
H4750 C4765 0.959 . S
H4751 C4765 0.961 . S
H4752 C4766 0.960 . S
H4753 C4766 0.961 . S
H4754 C4766 0.959 . S
H4755 C4769 0.929 . S
H4756 C4770 0.931 . S
H4757 C4772 0.930 . S
C4758 H4746 0.930 . S
C4758 C4759 1.399 . S
C4758 C4763 1.399 . S
C4759 C4758 1.399 . S
C4759 C4760 1.376 . S
C4760 H4747 0.930 . S
C4760 C4759 1.376 . S
C4760 C4761 1.388 . S
C4761 H4748 0.930 . S
C4761 C4760 1.388 . S
C4761 C4762 1.390 . S
C4762 C4761 1.390 . S
C4762 C4763 1.394 . S
C4762 C4768 1.465 . S
C4763 C4758 1.399 . S
C4763 C4762 1.394 . S
C4763 C4764 1.516 . S
C4764 C4763 1.516 . S
C4764 C4765 1.502 . S
C4764 C4766 1.561 . S
C4764 C4767 1.526 . S
C4765 H4749 0.959 . S
C4765 H4750 0.959 . S
C4765 H4751 0.961 . S
C4765 C4764 1.502 . S
C4766 H4752 0.960 . S
C4766 H4753 0.961 . S
C4766 H4754 0.959 . S
C4766 C4764 1.561 . S
C4767 C4764 1.526 . S
C4767 C4768 1.396 . S
C4767 C4772 1.390 . S
C4768 C4762 1.465 . S
C4768 C4767 1.396 . S
C4768 C4769 1.399 . S
C4769 H4755 0.929 . S
C4769 C4768 1.399 . S
C4769 C4770 1.385 . S
C4770 H4756 0.931 . S
C4770 C4769 1.385 . S
C4770 C4771 1.389 . S
C4771 C4770 1.389 . S
C4771 C4772 1.387 . S
C4772 H4757 0.930 . S
C4772 C4767 1.390 . S
C4772 C4771 1.387 . S
H4773 C4785 0.930 . S
H4774 C4787 0.930 . S
H4775 C4788 0.930 . S
H4776 C4792 0.959 . S
H4777 C4792 0.959 . S
H4778 C4792 0.961 . S
H4779 C4793 0.960 . S
H4780 C4793 0.961 . S
H4781 C4793 0.959 . S
H4782 C4796 0.929 . S
H4783 C4797 0.931 . S
H4784 C4799 0.930 . S
C4785 H4773 0.930 . S
C4785 C4786 1.399 . S
C4785 C4790 1.399 . S
C4786 C4785 1.399 . S
C4786 C4787 1.376 . S
C4787 H4774 0.930 . S
C4787 C4786 1.376 . S
C4787 C4788 1.388 . S
C4788 H4775 0.930 . S
C4788 C4787 1.388 . S
C4788 C4789 1.390 . S
C4789 C4788 1.390 . S
C4789 C4790 1.394 . S
C4789 C4795 1.465 . S
C4790 C4785 1.399 . S
C4790 C4789 1.394 . S
C4790 C4791 1.516 . S
C4791 C4790 1.516 . S
C4791 C4792 1.502 . S
C4791 C4793 1.561 . S
C4791 C4794 1.526 . S
C4792 H4776 0.959 . S
C4792 H4777 0.959 . S
C4792 H4778 0.961 . S
C4792 C4791 1.502 . S
C4793 H4779 0.960 . S
C4793 H4780 0.961 . S
C4793 H4781 0.959 . S
C4793 C4791 1.561 . S
C4794 C4791 1.526 . S
C4794 C4795 1.396 . S
C4794 C4799 1.390 . S
C4795 C4789 1.465 . S
C4795 C4794 1.396 . S
C4795 C4796 1.399 . S
C4796 H4782 0.929 . S
C4796 C4795 1.399 . S
C4796 C4797 1.385 . S
C4797 H4783 0.931 . S
C4797 C4796 1.385 . S
C4797 C4798 1.389 . S
C4798 C4797 1.389 . S
C4798 C4799 1.387 . S
C4799 H4784 0.930 . S
C4799 C4794 1.390 . S
C4799 C4798 1.387 . S
C2221 C255 2.075 . S
C2233 C931 2.075 . S
C2248 C147 1.864 . S
C2260 C1004 1.875 . S
C2275 C184 1.764 . S
C2287 C1099 1.791 . S
C2314 C1174 1.330 . S
C2302 C220 1.490 . S
C2329 C40 1.461 . S
C2341 C1258 1.299 . S
C2368 C1351 1.892 . S
C2356 C74 1.875 . S
C2395 C1424 1.886 . S
C2383 C110 1.890 . S
C2410 C14 2.038 . S
C2422 C1519 2.040 . S
C2449 C920 1.741 . S
C2437 C579 1.769 . S
C2464 C616 0.941 . S
C2476 C1006 0.949 . S
C2503 C1088 1.217 . S
C2491 C687 1.200 . S
C2530 C1183 1.667 . S
C2518 C436 1.654 . S
C2545 C580 1.608 . S
C2557 C1267 1.642 . S
C2584 C1340 1.151 . S
C2572 C615 1.136 . S
C2611 C1426 0.965 . S
C2599 C688 0.946 . S
C2638 C1508 1.692 . S
C2626 C435 1.752 . S
C2665 C922 0.926 . S
C2653 C410 1.015 1_554 S
C2680 C722 1.722 . S
C2692 C1592 1.727 . S
C2719 C1678 1.395 . S
C2707 C842 1.361 . S
C2746 C1771 0.862 . S
C2734 C794 0.803 . S
C2761 C302 1.005 . S
C2773 C1510 1.055 . S
C2788 C338 1.402 . S
C2800 C1090 1.270 . S
C2815 C830 1.747 . S
C2827 C1844 1.753 . S
C2854 C1939 0.904 . S
C2842 C758 0.924 . S
C2881 C919 2.057 . S
C2869 C158 1.970 . S
C2908 C1940 1.848 . S
C2896 C254 1.850 . S
C2923 C218 1.757 . S
C2935 C1087 1.822 . S
C2950 C194 1.367 . S
C2962 C1858 1.311 . S
C2989 C1270 1.349 . S
C2977 C3 1.462 . S
C3004 C111 1.729 . S
C3016 C1675 1.732 . S
C3043 C1436 1.835 1_556 S
C3031 C76 1.830 . S
C3070 C2011 2.125 . S
C3058 C50 1.968 . S
C3097 C932 1.664 . S
C3085 C364 1.722 . S
C3124 C1942 0.924 . S
C3112 C795 0.881 . S
C3139 C292 1.148 . S
C3151 C1100 1.165 . S
C3166 C723 1.600 . S
C3178 C1843 1.602 . S
C3193 C363 1.612 . S
C3205 C1255 1.599 . S
C3232 C1688 1.178 . S
C3220 C796 1.171 . S
C3247 C291 0.920 . S
C3259 C1438 0.960 . S
C3274 C724 1.741 . S
C3286 C2024 1.663 . S
C3301 C482 1.028 . S
C3313 C934 1.033 . S
C3328 C434 1.700 . S
C3340 C1604 1.686 . S
C3355 C662 1.378 . S
C3367 C1354 1.366 . S
C3382 C614 0.875 . S
C3394 C1759 0.850 . S
C3421 C2026 0.950 . S
C3409 C698 0.921 . S
C3436 C554 1.382 . S
C3448 C1102 1.373 . S
C3475 C1184 1.682 . S
C3463 C650 1.702 . S
C3502 C1003 0.840 . S
C3490 C506 0.803 . S
C3517 C183 2.073 . S
C3529 C2107 2.075 . S
C3556 C1928 1.853 . S
C3544 C219 1.838 . S
C3571 C256 1.776 . S
C3583 C2191 1.794 . S
C3598 C148 1.489 1_655 S
C3610 C1846 1.330 . S
C3625 C122 1.460 . S
C3637 C1594 1.374 . S
C3664 C1687 1.837 . S
C3652 C2 1.758 1_655 S
C3691 C1760 1.818 . S
C3679 C39 1.811 . S
C3718 C2023 2.113 . S
C3706 C86 2.106 . S
C3745 C2096 1.751 . S
C3733 C651 1.764 . S
C3760 C472 0.924 1_556 S
C3772 C1930 0.813 . S
C3799 C2180 1.139 . S
C3787 C507 1.172 . S
C3826 C1855 1.674 . S
C3814 C544 1.661 . S
C3853 C1603 1.625 . S
C3841 C652 1.640 . S
C3868 C471 1.176 . S
C3880 C1676 1.130 . S
C3907 C1762 0.958 . S
C3895 C508 0.941 . S
C3922 C543 1.768 . S
C3934 C2012 1.705 . S
C3961 C2098 0.953 . S
C3949 C806 1.048 . S
C3976 C326 1.697 . S
C3988 C1256 1.666 . S
C4015 C1342 1.297 . S
C4003 C374 1.404 1_565 S
C4042 C1435 0.857 . S
C4030 C398 0.884 . S
C4069 C2014 1.045 . S
C4057 C770 0.998 . S
C4084 C734 1.322 . S
C4096 C2182 1.359 . S
C4123 C1172 1.697 . S
C4111 C362 1.729 . S
C4150 C1015 0.941 . S
C4138 C290 0.895 . S
C4165 C230 1.923 . S
C4177 C2095 2.056 . S
C4204 C1016 1.851 . S
C4192 C182 1.852 . S
C4219 C146 1.754 . S
C4231 C2179 1.822 . S
C4246 C266 1.443 . S
C4258 C1186 1.420 . S
C4273 C75 1.462 . S
C4285 C1606 1.406 . S
C4312 C1339 1.885 . S
C4300 C38 1.851 . S
C4327 C4 1.788 . S
C4339 C1772 1.785 . S
C4354 C112 2.003 . S
C4366 C1507 2.033 . S
C4393 C2108 1.666 . S
C4381 C832 1.706 . S
C4408 C399 0.938 . S
C4420 C1018 0.837 . S
C4447 C2192 1.155 1_655 S
C4435 C760 1.140 . S
C4462 C327 1.597 . S
C4474 C1171 1.581 . S
C4489 C831 1.639 . S
C4501 C1591 1.642 . S
C4528 C1352 1.169 . S
C4516 C400 1.182 . S
C4543 C759 0.916 . S
C4555 C1774 0.813 . S
C4582 C1520 1.686 . S
C4570 C328 1.741 . S
C4609 C2110 1.049 . S
C4597 C626 1.043 . S
C4636 C1268 1.662 1_565 S
C4624 C542 1.686 . S
C4651 C590 1.256 . S
C4663 C1690 1.262 . S
C4690 C1423 0.851 . S
C4678 C470 0.806 . S
C4705 C518 0.879 . S
C4717 C1522 0.908 . S
C4732 C446 1.269 . S
C4744 C2194 1.273 . S
C4771 C1856 1.696 . S
C4759 C578 1.697 . S
C4798 C1927 0.815 . S
C4786 C686 0.806 . S
