# Generated by pormake.
# Topology tsx, (6,3)-cn, num edge types: 1
# Building blocks:
#     Node 0, Type 0, BuildingBlock: LEVNOQ01_clean_sbu_1, # of connection points: 6
#     Node 1, Type 0, BuildingBlock: LEVNOQ01_clean_sbu_1, # of connection points: 6
#     Node 2, Type 1, BuildingBlock: WUSLED_clean_sbu_0, # of connection points: 3
#     Node 3, Type 1, BuildingBlock: WUSLED_clean_sbu_0, # of connection points: 3
#     Node 4, Type 1, BuildingBlock: WUSLED_clean_sbu_0, # of connection points: 3
#     Node 5, Type 1, BuildingBlock: WUSLED_clean_sbu_0, # of connection points: 3
#     Edge 6, Type (0, 1), BuildingBlock: EZIPEK_clean_linker_0, # of connection points: 2
#     Edge 7, Type (0, 1), BuildingBlock: EZIPEK_clean_linker_0, # of connection points: 2
#     Edge 8, Type (0, 1), BuildingBlock: EZIPEK_clean_linker_0, # of connection points: 2
#     Edge 9, Type (0, 1), BuildingBlock: EZIPEK_clean_linker_0, # of connection points: 2
#     Edge 10, Type (0, 1), BuildingBlock: EZIPEK_clean_linker_0, # of connection points: 2
#     Edge 11, Type (0, 1), BuildingBlock: EZIPEK_clean_linker_0, # of connection points: 2
#     Edge 12, Type (0, 1), BuildingBlock: EZIPEK_clean_linker_0, # of connection points: 2
#     Edge 13, Type (0, 1), BuildingBlock: EZIPEK_clean_linker_0, # of connection points: 2
#     Edge 14, Type (0, 1), BuildingBlock: EZIPEK_clean_linker_0, # of connection points: 2
#     Edge 15, Type (0, 1), BuildingBlock: EZIPEK_clean_linker_0, # of connection points: 2
#     Edge 16, Type (0, 1), BuildingBlock: EZIPEK_clean_linker_0, # of connection points: 2
#     Edge 17, Type (0, 1), BuildingBlock: EZIPEK_clean_linker_0, # of connection points: 2
# Relax obj value: 0.123
# Max RMSD: 0.154
# Mean RMSD: 0.115
data_MOF--net-tsx--node1-LEVNOQ01_clean_sbu_1--node2-WUSLED_clean_sbu_0--edge1-EZIPEK_clean_linker_0
_symmetry_space_group_name_H-M    P1
_symmetry_Int_Tables_number       1
_symmetry_cell_setting            triclinic
loop_
_symmetry_equiv_pos_as_xyz
'x, y, z'
_cell_length_a     18.749251
_cell_length_b     22.986362
_cell_length_c     37.657425
_cell_angle_alpha  97.387618
_cell_angle_beta   91.726637
_cell_angle_gamma 90.741077
loop_
_atom_site_label
_atom_site_type_symbol
_atom_site_fract_x
_atom_site_fract_y
_atom_site_fract_z
_atom_type_partial_charge
O0 O 0.14255 0.04853 0.09755 0.0
Mg1 Mg 0.19927 0.0531 0.05074 0.0
O2 O 0.03803 0.03281 0.06832 0.0
Mg3 Mg 0.05411 0.03793 0.00729 0.0
O4 O 0.14941 0.10478 0.01757 0.0
O5 O 0.25548 0.12755 0.04513 0.0
O6 O 0.07241 0.04216 0.94618 0.0
O7 O 0.98362 0.12297 0.01258 0.0
Mg8 Mg 0.91223 0.01917 0.96073 0.0
O9 O 0.95688 0.97247 0.99821 0.0
O10 O 0.97274 0.01577 0.91461 0.0
O11 O 0.88041 0.10314 0.98285 0.0
O12 O 0.85334 0.94701 0.96888 0.0
C13 C 0.18925 0.93809 0.00657 0.0
C14 C 0.07597 0.03847 0.09735 0.0
C15 C 0.20398 0.14054 0.02421 0.0
C16 C 0.03814 0.03047 0.91622 0.0
C17 C 0.92202 0.13872 0.00218 0.0
C18 C 0.90176 0.93705 0.99232 0.0
O19 O 0.23355 0.97376 0.02384 0.0
O20 O 0.12488 0.95278 1.00042 0.0
O21 O 0.63753 0.55447 0.59941 0.0
Mg22 Mg 0.69602 0.55592 0.55286 0.0
O23 O 0.5343 0.53752 0.5691 0.0
Mg24 Mg 0.55247 0.54058 0.50808 0.0
O25 O 0.64831 0.60696 0.51851 0.0
O26 O 0.75378 0.62937 0.5468 0.0
O27 O 0.57207 0.54336 0.44695 0.0
O28 O 0.4823 0.62562 0.51233 0.0
Mg29 Mg 0.41038 0.52107 0.4608 0.0
O30 O 0.45535 0.47548 0.49871 0.0
O31 O 0.47253 0.51718 0.41513 0.0
O32 O 0.37903 0.60536 0.48267 0.0
O33 O 0.35211 0.44869 0.4696 0.0
C34 C 0.68623 0.4402 0.50936 0.0
C35 C 0.57099 0.54405 0.59852 0.0
C36 C 0.70322 0.6423 0.52533 0.0
C37 C 0.53809 0.53145 0.41692 0.0
C38 C 0.42072 0.64117 0.5018 0.0
C39 C 0.40073 0.43954 0.49314 0.0
O40 O 0.73009 0.47556 0.5272 0.0
O41 O 0.62248 0.45531 0.50227 0.0
C42 C 0.94137 0.13585 0.48158 0.0
C43 C 0.89499 0.14243 0.45235 0.0
C44 C 0.84285 0.22773 0.48592 0.0
C45 C 0.84582 0.18778 0.45459 0.0
C46 C 0.88833 0.22071 0.51538 0.0
C47 C 0.93738 0.17498 0.51322 0.0
U48 U 0.05045 0.03605 0.41996 0.0
O49 O 0.16173 0.00679 0.42151 0.0
O50 O 0.07352 0.94184 0.41627 0.0
C51 C 0.14288 0.95108 0.41955 0.0
C52 C 0.99584 0.09003 0.47805 0.0
C53 C 0.18289 0.91422 0.4423 0.0
C54 C 0.25867 0.90031 0.49422 0.0
C55 C 0.21551 0.93654 0.47552 0.0
C56 C 0.23541 0.81941 0.44717 0.0
C57 C 0.26975 0.84174 0.47972 0.0
C58 C 0.19242 0.85525 0.42869 0.0
C59 C 1.01264 0.05384 0.3199 0.0
C60 C 0.97741 0.99783 0.26251 0.0
C61 C 0.05646 0.08248 0.26443 0.0
C62 C 0.0536 0.09151 0.30172 0.0
C63 C 0.018 0.03592 0.24462 0.0
C64 C 0.9747 0.0067 0.2999 0.0
C65 C 1.00401 0.06794 0.35898 0.0
O66 O 0.97281 0.03853 0.46242 0.0
O67 O 0.05716 0.10609 0.46596 0.0
O68 O 0.05875 0.09344 0.37775 0.0
O69 O 0.97139 0.02843 0.37529 0.0
H70 H 0.89762 0.11301 0.42755 0.0
H71 H 0.81129 0.19266 0.43161 0.0
H72 H 0.88676 0.25131 0.53974 0.0
H73 H 0.97295 0.17079 0.53593 0.0
H74 H 0.2846 0.91814 0.51943 0.0
H75 H 0.20882 0.98194 0.48658 0.0
H76 H 0.24307 0.77431 0.43568 0.0
H77 H 0.1679 0.83719 0.40314 0.0
H78 H 0.9473 0.96177 0.2475 0.0
H79 H 0.08788 0.11234 0.25093 0.0
H80 H 0.0823 0.1288 0.31627 0.0
H81 H 0.94173 0.97737 0.31299 0.0
C82 C 0.9341 0.94875 0.53133 0.0
C83 C 0.93807 0.89899 0.54941 0.0
C84 C 0.83169 0.85701 0.51688 0.0
C85 C 0.88741 0.85358 0.54218 0.0
C86 C 0.82675 0.90695 0.49911 0.0
C87 C 0.8773 0.95277 0.50656 0.0
U88 U 0.05809 0.03846 0.59821 0.0
O89 O 0.17069 0.06612 0.59666 0.0
O90 O 0.08797 0.13228 0.6077 0.0
C91 C 0.15609 0.12229 0.6025 0.0
C92 C 0.98821 0.99655 0.5389 0.0
C93 C 0.19626 0.16222 0.582 0.0
C94 C 0.31166 0.19554 0.56318 0.0
C95 C 0.26977 0.15371 0.57727 0.0
C96 C 0.20728 0.25498 0.55751 0.0
C97 C 0.28089 0.24684 0.55367 0.0
C98 C 0.16527 0.21312 0.57158 0.0
C99 C 0.04835 1.00044 0.6944 0.0
C100 C 0.11869 0.04952 0.74511 0.0
C101 C 0.02553 0.9794 0.75449 0.0
C102 C 1.01035 0.96975 0.71771 0.0
C103 C 0.07897 0.0199 0.7685 0.0
C104 C 0.10318 0.04001 0.70814 0.0
C105 C 0.02719 0.99235 0.65624 0.0
O106 O 0.96789 0.04337 0.5597 0.0
O107 O 0.05292 0.98004 0.54714 0.0
O108 O 0.0758 0.97105 0.63396 0.0
O109 O 0.9919 0.03594 0.64515 0.0
H110 H 0.98046 0.89511 0.56912 0.0
H111 H 0.89194 0.8154 0.5562 0.0
H112 H 0.78388 0.91038 0.4796 0.0
H113 H 0.87176 0.99129 0.49303 0.0
H114 H 0.36834 0.18852 0.56038 0.0
H115 H 0.29546 0.11553 0.58561 0.0
H116 H 0.18263 0.29432 0.55023 0.0
H117 H 0.1091 0.22154 0.57526 0.0
H118 H 0.16009 0.08094 0.75557 0.0
H119 H 0.99444 0.95622 0.77219 0.0
H120 H 0.96784 0.93917 0.70751 0.0
H121 H 0.13285 0.06417 0.69041 0.0
C122 C 0.44523 0.63378 0.98014 0.0
C123 C 0.39872 0.63999 0.9509 0.0
C124 C 0.34715 0.72604 0.98398 0.0
C125 C 0.34982 0.68554 0.95288 0.0
C126 C 0.39287 0.71947 0.01344 0.0
C127 C 0.44171 0.67357 0.01153 0.0
U128 U 0.54734 0.52885 0.91849 0.0
O129 O 0.65846 0.49882 0.91783 0.0
O130 O 0.56988 0.43479 0.91664 0.0
C131 C 0.63937 0.4435 0.9178 0.0
C132 C 0.49907 0.58741 0.97682 0.0
C133 C 0.68156 0.40807 0.94059 0.0
C134 C 0.7578 0.39632 0.99274 0.0
C135 C 0.71375 0.43148 0.9737 0.0
C136 C 0.73648 0.31439 0.94617 0.0
C137 C 0.77014 0.33772 0.97871 0.0
C138 C 0.69265 0.34917 0.92735 0.0
C139 C 0.49618 0.54257 0.81909 0.0
C140 C 0.56294 0.52017 0.76491 0.0
C141 C 0.43784 0.54489 0.76084 0.0
C142 C 0.43485 0.55056 0.79812 0.0
C143 C 0.5023 0.53107 0.74412 0.0
C144 C 0.55993 0.52584 0.80228 0.0
C145 C 0.49318 0.55741 0.85814 0.0
O146 O 0.47442 0.53529 0.96317 0.0
O147 O 0.55913 0.60166 0.96271 0.0
O148 O 0.55024 0.5831 0.87465 0.0
O149 O 0.46371 0.518 0.87566 0.0
H150 H 0.40095 0.61002 0.92631 0.0
H151 H 0.31512 0.69003 0.92989 0.0
H152 H 0.39153 0.75048 0.03763 0.0
H153 H 0.47737 0.66967 0.03425 0.0
H154 H 0.78322 0.41496 0.01792 0.0
H155 H 0.7058 0.47685 0.98447 0.0
H156 H 0.74511 0.26927 0.93502 0.0
H157 H 0.6684 0.33026 0.90191 0.0
H158 H 0.61319 0.50981 0.7523 0.0
H159 H 0.3908 0.55375 0.74512 0.0
H160 H 0.38527 0.56356 0.81068 0.0
H161 H 0.60783 0.5194 0.81802 0.0
C162 C 0.42879 0.44996 0.03224 0.0
C163 C 0.43159 0.40108 0.05112 0.0
C164 C 0.32754 0.3575 0.01725 0.0
C165 C 0.38152 0.35528 0.04363 0.0
C166 C 0.3235 0.40674 0.9988 0.0
C167 C 0.37351 0.45292 0.00649 0.0
U168 U 0.55347 0.53965 0.09884 0.0
O169 O 0.66624 0.56659 0.09696 0.0
O170 O 0.58418 0.63334 0.10788 0.0
C171 C 0.65214 0.62287 0.1025 0.0
C172 C 0.48301 0.49766 0.03971 0.0
C173 C 0.69235 0.66212 0.08157 0.0
C174 C 0.80762 0.69374 0.06165 0.0
C175 C 0.76544 0.6525 0.0761 0.0
C176 C 0.70433 0.75475 0.057 0.0
C177 C 0.77758 0.74555 0.0525 0.0
C178 C 0.66202 0.71348 0.07145 0.0
C179 C 0.54425 0.50208 0.19524 0.0
C180 C 0.61827 0.54805 0.24552 0.0
C181 C 0.52018 0.48292 0.25557 0.0
C182 C 0.50411 0.47372 0.21886 0.0
C183 C 0.57666 0.52066 0.26921 0.0
C184 C 0.60188 0.539 0.20862 0.0
C185 C 0.52277 0.49413 0.15711 0.0
O186 O 0.46296 0.54458 0.0605 0.0
O187 O 0.54765 0.48094 0.0479 0.0
O188 O 0.57096 0.47241 0.13471 0.0
O189 O 0.4878 0.53792 0.14605 0.0
H190 H 0.47283 0.39807 0.07156 0.0
H191 H 0.38531 0.31766 0.05817 0.0
H192 H 0.28198 0.40922 0.97846 0.0
H193 H 0.36892 0.49077 0.99228 0.0
H194 H 0.86403 0.68592 0.05836 0.0
H195 H 0.79067 0.61394 0.08418 0.0
H196 H 0.68025 0.79452 0.05004 0.0
H197 H 0.60622 0.72276 0.07568 0.0
H198 H 0.66204 0.57731 0.25568 0.0
H199 H 0.4876 0.46147 0.27349 0.0
H200 H 0.45944 0.4452 0.20895 0.0
H201 H 0.63325 0.56137 0.19065 0.0
C202 C 0.26142 0.20287 0.98427 0.0
C203 C 0.20919 0.19736 0.00992 0.0
C204 C 0.21476 0.30352 0.02854 0.0
C205 C 0.27754 0.30645 0.00865 0.0
N206 N 0.35715 0.26196 0.96441 0.0
N207 N 0.1265 0.24123 0.05232 0.0
C208 C 0.2988 0.25725 0.98483 0.0
C209 C 0.18152 0.24778 0.03011 0.0
N210 N 0.2758 0.15521 0.96013 0.0
N211 N 0.18863 0.35381 0.04648 0.0
H212 H 0.10008 0.201 0.05245 0.0
H213 H 0.10736 0.27464 0.07065 0.0
H214 H 0.21276 0.3948 0.04582 0.0
H215 H 0.14098 0.35594 0.05998 0.0
H216 H 0.31014 0.15615 0.93902 0.0
H217 H 0.24792 0.11546 0.9597 0.0
H218 H 0.38058 0.22654 0.94938 0.0
H219 H 0.3838 0.30181 0.96335 0.0
C220 C 0.19669 0.83052 0.01184 0.0
C221 C 0.21511 0.87875 0.99374 0.0
C222 C 0.31601 0.82499 0.96665 0.0
C223 C 0.29851 0.77689 0.98516 0.0
N224 N 0.21345 0.72768 0.01819 0.0
N225 N 0.27808 0.91645 0.94675 0.0
C226 C 0.23581 0.77767 0.00544 0.0
C227 C 0.27013 0.87394 0.96866 0.0
N228 N 0.14433 0.8363 0.03647 0.0
N229 N 0.37842 0.82536 0.9488 0.0
H230 H 0.24465 0.95256 0.9477 0.0
H231 H 0.31267 0.91312 0.92549 0.0
H232 H 0.41377 0.79053 0.94676 0.0
H233 H 0.39798 0.86189 0.93825 0.0
H234 H 0.13439 0.80574 0.05394 0.0
H235 H 0.11266 0.87337 0.04064 0.0
H236 H 0.16466 0.72359 0.03019 0.0
H237 H 0.24118 0.68845 0.01407 0.0
C238 C 0.87257 0.89182 0.04773 0.0
C239 C 0.89156 0.88494 0.01127 0.0
C240 C 0.84402 0.78401 0.00295 0.0
C241 C 0.82306 0.79122 0.03911 0.0
N242 N 0.83364 0.84514 0.09835 0.0
N243 N 0.91561 0.82066 0.95765 0.0
C244 C 0.84292 0.84297 0.06234 0.0
C245 C 0.88406 0.82948 0.99011 0.0
N246 N 0.87884 0.94573 0.06772 0.0
N247 N 0.82251 0.73512 0.98038 0.0
H248 H 0.94607 0.85331 0.94807 0.0
H249 H 0.91773 0.7799 0.94209 0.0
H250 H 0.79356 0.70065 0.98883 0.0
H251 H 0.82901 0.73043 0.95281 0.0
H252 H 0.85817 0.95546 0.09311 0.0
H253 H 0.90181 0.98194 0.05813 0.0
H254 H 0.8532 0.8792 0.11717 0.0
H255 H 0.81164 0.81025 0.10976 0.0
C256 C 0.8335 0.21158 0.02666 0.0
C257 C 0.89879 0.20055 0.00928 0.0
C258 C 0.8913 0.29539 0.98608 0.0
C259 C 0.81945 0.29955 0.99673 0.0
N260 N 0.72293 0.26582 0.02988 0.0
N261 N 0.99424 0.23345 0.9748 0.0
C262 C 0.7913 0.25953 0.01858 0.0
C263 C 0.9301 0.24377 0.99056 0.0
N264 N 0.81205 0.17531 0.05047 0.0
N265 N 0.9215 0.34039 0.97103 0.0
H266 H 0.02554 0.19759 0.97874 0.0
H267 H 0.01567 0.25916 0.95681 0.0
H268 H 0.89362 0.37815 0.96711 0.0
H269 H 0.97532 0.34282 0.96531 0.0
H270 H 0.76749 0.18255 0.06616 0.0
H271 H 0.84319 0.14045 0.05676 0.0
H272 H 0.69584 0.23471 0.04238 0.0
H273 H 0.69219 0.30194 0.02555 0.0
C274 C 0.76121 0.70329 0.48476 0.0
C275 C 0.70955 0.69886 0.51083 0.0
C276 C 0.71823 0.80495 0.52936 0.0
C277 C 0.78037 0.80673 0.50886 0.0
N278 N 0.85727 0.76083 0.4638 0.0
N279 N 0.62909 0.7443 0.55384 0.0
C280 C 0.79971 0.75707 0.48487 0.0
C281 C 0.68368 0.74983 0.5312 0.0
N282 N 0.77395 0.6552 0.46065 0.0
N283 N 0.694 0.85571 0.54763 0.0
H284 H 0.60168 0.70455 0.55416 0.0
H285 H 0.61122 0.77806 0.57232 0.0
H286 H 0.71914 0.89626 0.54687 0.0
H287 H 0.64693 0.85871 0.56161 0.0
H288 H 0.80787 0.65531 0.4393 0.0
H289 H 0.74521 0.61592 0.46054 0.0
H290 H 0.87935 0.72504 0.44848 0.0
H291 H 0.88457 0.80028 0.4624 0.0
C292 C 0.6935 0.3327 0.51459 0.0
C293 C 0.71198 0.38092 0.49652 0.0
C294 C 0.8121 0.32692 0.46894 0.0
C295 C 0.79445 0.2787 0.48732 0.0
N296 N 0.70948 0.22962 0.52047 0.0
N297 N 0.77433 0.41859 0.44931 0.0
C298 C 0.73206 0.27964 0.50784 0.0
C299 C 0.76652 0.37603 0.4712 0.0
N300 N 0.64162 0.33868 0.53948 0.0
N301 N 0.8744 0.32725 0.45098 0.0
H302 H 0.74105 0.45482 0.45042 0.0
H303 H 0.80858 0.41518 0.42791 0.0
H304 H 0.90966 0.29236 0.44881 0.0
H305 H 0.89401 0.36385 0.44053 0.0
H306 H 0.6315 0.30792 0.55679 0.0
H307 H 0.61066 0.37612 0.54404 0.0
H308 H 0.66087 0.22572 0.53268 0.0
H309 H 0.73679 0.19021 0.51604 0.0
C310 C 0.37258 0.39429 0.54867 0.0
C311 C 0.39177 0.38749 0.51224 0.0
C312 C 0.34696 0.28577 0.50418 0.0
C313 C 0.32576 0.2929 0.5403 0.0
N314 N 0.33543 0.34724 0.59945 0.0
N315 N 0.4177 0.32328 0.45887 0.0
C316 C 0.34443 0.34505 0.56342 0.0
C317 C 0.38583 0.33179 0.49125 0.0
N318 N 0.37709 0.44843 0.56846 0.0
N319 N 0.32674 0.2364 0.48173 0.0
H320 H 0.44731 0.35636 0.44922 0.0
H321 H 0.42094 0.28247 0.44345 0.0
H322 H 0.29876 0.20149 0.49025 0.0
H323 H 0.33336 0.23165 0.45416 0.0
H324 H 0.35618 0.45788 0.59381 0.0
H325 H 0.39897 0.48497 0.55875 0.0
H326 H 0.35436 0.38169 0.61817 0.0
H327 H 0.31448 0.31203 0.61095 0.0
C328 C 0.42887 0.74643 0.49053 0.0
C329 C 0.39726 0.70292 0.50892 0.0
C330 C 0.29011 0.76219 0.51863 0.0
C331 C 0.31866 0.80268 0.49721 0.0
N332 N 0.42101 0.84364 0.47181 0.0
N333 N 0.31009 0.67706 0.54976 0.0
C334 C 0.39046 0.79839 0.4865 0.0
C335 C 0.33192 0.7138 0.5263 0.0
N336 N 0.49293 0.73613 0.47467 0.0
N337 N 0.22173 0.76851 0.52991 0.0
H338 H 0.34089 0.64185 0.55577 0.0
H339 H 0.26553 0.68418 0.56546 0.0
H340 H 0.19127 0.80494 0.52593 0.0
H341 H 0.19432 0.73712 0.54205 0.0
H342 H 0.51448 0.76212 0.45688 0.0
H343 H 0.524 0.7 0.47831 0.0
H344 H 0.47486 0.84595 0.46612 0.0
H345 H 0.39344 0.88166 0.46815 0.0
C346 C 0.99896 0.07156 0.14936 0.0
C347 C 0.04449 0.02921 0.13171 0.0
C348 C 0.06377 0.98509 0.18694 0.0
C349 C 0.01984 0.02837 0.20495 0.0
N350 N 0.93085 0.10243 0.20214 0.0
N351 N 0.10213 0.93603 0.12997 0.0
C352 C 0.98234 0.06816 0.18566 0.0
C353 C 0.07075 0.98264 0.14937 0.0
N354 N 0.97506 0.11677 0.13215 0.0
N355 N 0.10189 0.94852 0.20596 0.0
H356 H 0.10707 0.93302 0.10227 0.0
H357 H 0.11668 0.89806 0.14057 0.0
H358 H 0.09769 0.94852 0.23351 0.0
H359 H 0.14126 0.92089 0.19491 0.0
H360 H 0.94889 0.15293 0.14487 0.0
H361 H 0.98475 0.11973 0.10531 0.0
H362 H 0.89701 0.1285 0.18876 0.0
H363 H 0.91768 0.10079 0.22873 0.0
C364 C 0.10987 0.99021 0.86394 0.0
C365 C 0.07224 0.03742 0.88217 0.0
C366 C 0.05633 0.08178 0.82689 0.0
C367 C 0.0895 0.03244 0.80801 0.0
N368 N 0.16488 0.94876 0.80886 0.0
N369 N 0.02979 0.13589 0.88463 0.0
C370 C 0.12244 0.98977 0.82681 0.0
C371 C 0.05272 0.08608 0.86475 0.0
N372 N 0.1299 0.94454 0.88173 0.0
N373 N 0.02408 0.1223 0.80848 0.0
H374 H 0.02692 0.1396 0.91247 0.0
H375 H 0.02022 0.17496 0.87419 0.0
H376 H 0.02655 0.12125 0.78079 0.0
H377 H 0.99157 0.15521 0.82029 0.0
H378 H 0.15044 0.90555 0.8693 0.0
H379 H 0.12346 0.94507 0.90921 0.0
H380 H 0.19492 0.91891 0.82127 0.0
H381 H 0.17468 0.94797 0.78166 0.0
C382 C 0.53424 0.59376 0.65728 0.0
C383 C 0.53654 0.54151 0.633 0.0
C384 C 0.49984 0.48397 0.68002 0.0
C385 C 0.50864 0.53503 0.70537 0.0
N386 N 0.53649 0.63849 0.71915 0.0
N387 N 0.52209 0.43657 0.61999 0.0
C388 C 0.52566 0.59013 0.69423 0.0
C389 C 0.51828 0.48649 0.64383 0.0
N390 N 0.53957 0.64682 0.64469 0.0
N391 N 0.47378 0.43338 0.69066 0.0
H392 H 0.53316 0.43723 0.59306 0.0
H393 H 0.5174 0.39438 0.627 0.0
H394 H 0.46126 0.43008 0.71715 0.0
H395 H 0.45958 0.39611 0.67303 0.0
H396 H 0.5317 0.68685 0.6603 0.0
H397 H 0.5452 0.65053 0.61757 0.0
H398 H 0.55742 0.67815 0.71322 0.0
H399 H 0.52889 0.63816 0.74645 0.0
C400 C 0.55653 0.5873 0.36587 0.0
C401 C 0.57283 0.53754 0.38291 0.0
C402 C 0.61894 0.48805 0.32702 0.0
C403 C 0.58881 0.53247 0.30865 0.0
N404 N 0.53032 0.6256 0.30997 0.0
N405 N 0.62447 0.44222 0.38177 0.0
C406 C 0.55955 0.58326 0.32798 0.0
C407 C 0.60703 0.4888 0.36424 0.0
N408 N 0.53711 0.63792 0.38612 0.0
N409 N 0.65804 0.44512 0.30858 0.0
H410 H 0.61878 0.44304 0.40933 0.0
H411 H 0.64226 0.40237 0.36912 0.0
H412 H 0.66735 0.44411 0.28132 0.0
H413 H 0.68598 0.41363 0.3206 0.0
H414 H 0.53 0.67756 0.37597 0.0
H415 H 0.53469 0.64139 0.41397 0.0
H416 H 0.50047 0.66007 0.3221 0.0
H417 H 0.53264 0.62473 0.28228 0.0
loop_
_geom_bond_atom_site_label_1
_geom_bond_atom_site_label_2
_geom_bond_distance
_geom_bond_site_symmetry_2
_ccdc_geom_bond_type
O0 Mg1 1.990 . S
O0 C14 1.253 . S
Mg1 O0 1.990 . S
Mg1 O4 2.180 . S
Mg1 O5 2.117 . S
Mg1 O19 2.030 1_545 S
O2 Mg3 2.066 1_554 S
O2 C14 1.260 . S
Mg3 O2 2.066 1_556 S
Mg3 O4 2.098 1_556 S
Mg3 O6 2.085 . S
Mg3 O7 2.072 1_456 S
Mg3 O9 2.100 1_445 S
Mg3 O20 2.079 1_545 S
O4 Mg1 2.180 . S
O4 Mg3 2.098 1_554 S
O4 C15 1.279 . S
O5 Mg1 2.117 . S
O5 C15 1.250 . S
O6 Mg3 2.085 . S
O6 C16 1.264 . S
O7 Mg3 2.072 1_654 S
O7 C17 1.260 1_554 S
Mg8 O9 2.180 1_545 S
Mg8 O10 2.030 . S
Mg8 O11 1.990 . S
Mg8 O12 2.117 1_545 S
O9 Mg3 2.100 1_665 S
O9 Mg8 2.180 1_565 S
O9 C18 1.264 1_556 S
O10 Mg8 2.030 . S
O10 C16 1.248 1_655 S
O11 Mg8 1.990 . S
O11 C17 1.253 . S
O12 Mg8 2.117 1_565 S
O12 C18 1.242 1_556 S
C13 O19 1.248 . S
C13 O20 1.264 1_554 S
C14 O0 1.253 . S
C14 O2 1.260 . S
C15 O4 1.279 . S
C15 O5 1.250 . S
C16 O6 1.264 . S
C16 O10 1.248 1_455 S
C17 O7 1.260 1_556 S
C17 O11 1.253 . S
C18 O9 1.264 1_554 S
C18 O12 1.242 1_554 S
O19 Mg1 2.030 1_565 S
O19 C13 1.248 . S
O20 Mg3 2.079 1_565 S
O20 C13 1.264 1_556 S
O21 Mg22 1.990 . S
O21 C35 1.253 . S
Mg22 O21 1.990 . S
Mg22 O25 2.180 . S
Mg22 O26 2.117 . S
Mg22 O40 2.030 . S
O23 Mg24 2.072 . S
O23 C35 1.260 . S
Mg24 O23 2.072 . S
Mg24 O25 2.099 . S
Mg24 O27 2.079 . S
Mg24 O28 2.072 . S
Mg24 O30 2.099 . S
Mg24 O41 2.079 . S
O25 Mg22 2.180 . S
O25 Mg24 2.099 . S
O25 C36 1.279 . S
O26 Mg22 2.117 . S
O26 C36 1.250 . S
O27 Mg24 2.079 . S
O27 C37 1.264 . S
O28 Mg24 2.072 . S
O28 C38 1.260 . S
Mg29 O30 2.180 . S
Mg29 O31 2.030 . S
Mg29 O32 1.990 . S
Mg29 O33 2.117 . S
O30 Mg24 2.099 . S
O30 Mg29 2.180 . S
O30 C39 1.279 . S
O31 Mg29 2.030 . S
O31 C37 1.248 . S
O32 Mg29 1.990 . S
O32 C38 1.253 . S
O33 Mg29 2.117 . S
O33 C39 1.250 . S
C34 O40 1.248 . S
C34 O41 1.264 . S
C35 O21 1.253 . S
C35 O23 1.260 . S
C36 O25 1.279 . S
C36 O26 1.250 . S
C37 O27 1.264 . S
C37 O31 1.248 . S
C38 O28 1.260 . S
C38 O32 1.253 . S
C39 O30 1.279 . S
C39 O33 1.250 . S
O40 Mg22 2.030 . S
O40 C34 1.248 . S
O41 Mg24 2.079 . S
O41 C34 1.264 . S
C42 C43 1.264 . S
C42 C47 1.479 . S
C42 C52 1.465 . S
C43 C42 1.264 . S
C43 C45 1.339 . S
C43 H70 0.931 . S
C44 C45 1.395 . S
C44 C46 1.320 . S
C45 C43 1.339 . S
C45 C44 1.395 . S
C45 H71 0.929 . S
C46 C44 1.320 . S
C46 C47 1.405 . S
C46 H72 0.930 . S
C47 C42 1.479 . S
C47 C46 1.405 . S
C47 H73 0.931 . S
U48 O49 2.454 1_545 S
U48 O50 2.458 1_545 S
U48 C51 2.984 1_545 S
U48 C52 2.847 1_455 S
U48 C65 2.882 . S
U48 O66 2.441 . S
U48 O67 2.420 . S
U48 O68 2.455 1_545 S
U48 O69 2.449 . S
O49 U48 2.454 1_565 S
O49 C51 1.353 . S
O50 U48 2.458 1_565 S
O50 C51 1.286 . S
C51 U48 2.984 1_565 S
C51 O49 1.353 . S
C51 O50 1.286 . S
C51 C53 1.363 . S
C52 C42 1.465 . S
C52 U48 2.847 1_655 S
C52 O66 1.249 1_655 S
C52 O67 1.202 1_655 S
C53 C51 1.363 . S
C53 C55 1.408 . S
C53 C58 1.342 . S
C54 C55 1.310 . S
C54 C57 1.461 . S
C54 H74 0.932 . S
C55 C53 1.408 . S
C55 C54 1.310 . S
C55 H75 0.930 . S
C56 C57 1.474 . S
C56 C58 1.285 . S
C56 H76 0.929 . S
C57 C54 1.461 . S
C57 C56 1.474 . S
C58 C53 1.342 . S
C58 C56 1.285 . S
C58 H77 0.930 . S
C59 C62 1.424 . S
C59 C64 1.245 1_545 S
C59 C65 1.428 . S
C60 C63 1.260 . S
C60 C64 1.477 . S
C60 H78 0.932 . S
C61 C62 1.384 . S
C61 C63 1.479 1_545 S
C61 H79 0.929 . S
C62 C59 1.424 . S
C62 C61 1.384 . S
C62 H80 0.928 . S
C63 C60 1.260 . S
C63 C61 1.479 1_565 S
C64 C59 1.245 1_565 S
C64 C60 1.477 . S
C64 H81 0.932 . S
C65 U48 2.882 . S
C65 C59 1.428 . S
C65 O68 1.301 1_545 S
C65 O69 1.282 . S
O66 U48 2.441 . S
O66 C52 1.249 1_455 S
O67 U48 2.420 . S
O67 C52 1.202 1_455 S
O68 U48 2.455 1_565 S
O68 C65 1.301 1_565 S
O69 U48 2.449 . S
O69 C65 1.282 . S
H70 C43 0.931 . S
H71 C45 0.929 . S
H72 C46 0.930 . S
H73 C47 0.931 . S
H74 C54 0.932 . S
H75 C55 0.930 . S
H76 C56 0.929 . S
H77 C58 0.930 . S
H78 C60 0.932 . S
H79 C61 0.929 . S
H80 C62 0.928 . S
H81 C64 0.932 . S
C82 C83 1.264 . S
C82 C87 1.479 . S
C82 C92 1.465 . S
C83 C82 1.264 . S
C83 C85 1.339 . S
C83 H110 0.931 . S
C84 C85 1.395 . S
C84 C86 1.320 . S
C85 C83 1.339 . S
C85 C84 1.395 . S
C85 H111 0.929 . S
C86 C84 1.320 . S
C86 C87 1.405 . S
C86 H112 0.930 . S
C87 C82 1.479 . S
C87 C86 1.405 . S
C87 H113 0.931 . S
U88 O89 2.454 . S
U88 O90 2.458 . S
U88 C91 2.984 . S
U88 C92 2.847 1_445 S
U88 C105 2.882 . S
U88 O106 2.441 1_455 S
U88 O107 2.420 1_445 S
U88 O108 2.455 . S
U88 O109 2.449 . S
O89 U88 2.454 . S
O89 C91 1.353 . S
O90 U88 2.458 . S
O90 C91 1.286 . S
C91 U88 2.984 . S
C91 O89 1.353 . S
C91 O90 1.286 . S
C91 C93 1.363 . S
C92 C82 1.465 . S
C92 U88 2.847 1_665 S
C92 O106 1.249 1_565 S
C92 O107 1.202 . S
C93 C91 1.363 . S
C93 C95 1.408 . S
C93 C98 1.342 . S
C94 C95 1.310 . S
C94 C97 1.461 . S
C94 H114 0.932 . S
C95 C93 1.408 . S
C95 C94 1.310 . S
C95 H115 0.930 . S
C96 C97 1.474 . S
C96 C98 1.285 . S
C96 H116 0.929 . S
C97 C94 1.461 . S
C97 C96 1.474 . S
C98 C93 1.342 . S
C98 C96 1.285 . S
C98 H117 0.930 . S
C99 C102 1.424 1_455 S
C99 C104 1.245 . S
C99 C105 1.428 . S
C100 C103 1.260 . S
C100 C104 1.477 . S
C100 H118 0.932 . S
C101 C102 1.384 . S
C101 C103 1.479 1_655 S
C101 H119 0.929 . S
C102 C99 1.424 1_655 S
C102 C101 1.384 . S
C102 H120 0.928 . S
C103 C100 1.260 . S
C103 C101 1.479 1_455 S
C104 C99 1.245 . S
C104 C100 1.477 . S
C104 H121 0.932 . S
C105 U88 2.882 . S
C105 C99 1.428 . S
C105 O108 1.301 . S
C105 O109 1.282 . S
O106 U88 2.441 1_655 S
O106 C92 1.249 1_545 S
O107 U88 2.420 1_665 S
O107 C92 1.202 . S
O108 U88 2.455 . S
O108 C105 1.301 . S
O109 U88 2.449 . S
O109 C105 1.282 . S
H110 C83 0.931 . S
H111 C85 0.929 . S
H112 C86 0.930 . S
H113 C87 0.931 . S
H114 C94 0.932 . S
H115 C95 0.930 . S
H116 C96 0.929 . S
H117 C98 0.930 . S
H118 C100 0.932 . S
H119 C101 0.929 . S
H120 C102 0.928 . S
H121 C104 0.932 . S
C122 C123 1.264 . S
C122 C127 1.479 1_556 S
C122 C132 1.465 . S
C123 C122 1.264 . S
C123 C125 1.339 . S
C123 H150 0.931 . S
C124 C125 1.395 1_554 S
C124 C126 1.320 . S
C125 C123 1.339 . S
C125 C124 1.395 1_556 S
C125 H151 0.929 . S
C126 C124 1.320 . S
C126 C127 1.405 . S
C126 H152 0.930 . S
C127 C122 1.479 1_554 S
C127 C126 1.405 . S
C127 H153 0.931 . S
U128 O129 2.454 . S
U128 O130 2.458 . S
U128 C131 2.984 . S
U128 C132 2.847 . S
U128 C145 2.882 . S
U128 O146 2.441 . S
U128 O147 2.420 . S
U128 O148 2.455 . S
U128 O149 2.449 . S
O129 U128 2.454 . S
O129 C131 1.353 . S
O130 U128 2.458 . S
O130 C131 1.286 . S
C131 U128 2.984 . S
C131 O129 1.353 . S
C131 O130 1.286 . S
C131 C133 1.363 . S
C132 C122 1.465 . S
C132 U128 2.847 . S
C132 O146 1.249 . S
C132 O147 1.202 . S
C133 C131 1.363 . S
C133 C135 1.408 1_556 S
C133 C138 1.342 . S
C134 C135 1.310 . S
C134 C137 1.469 . S
C134 H154 0.932 . S
C135 C133 1.408 1_554 S
C135 C134 1.310 . S
C135 H155 0.930 . S
C136 C137 1.456 1_556 S
C136 C138 1.285 . S
C136 H156 0.929 . S
C137 C134 1.469 . S
C137 C136 1.456 1_554 S
C138 C133 1.342 . S
C138 C136 1.285 . S
C138 H157 0.930 . S
C139 C142 1.424 . S
C139 C144 1.245 . S
C139 C145 1.428 . S
C140 C143 1.260 . S
C140 C144 1.477 . S
C140 H158 0.932 . S
C141 C142 1.384 . S
C141 C143 1.479 . S
C141 H159 0.929 . S
C142 C139 1.424 . S
C142 C141 1.384 . S
C142 H160 0.928 . S
C143 C140 1.260 . S
C143 C141 1.479 . S
C144 C139 1.245 . S
C144 C140 1.477 . S
C144 H161 0.932 . S
C145 U128 2.882 . S
C145 C139 1.428 . S
C145 O148 1.301 . S
C145 O149 1.282 . S
O146 U128 2.441 . S
O146 C132 1.249 . S
O147 U128 2.420 . S
O147 C132 1.202 . S
O148 U128 2.455 . S
O148 C145 1.301 . S
O149 U128 2.449 . S
O149 C145 1.282 . S
H150 C123 0.931 . S
H151 C125 0.929 . S
H152 C126 0.930 . S
H153 C127 0.931 . S
H154 C134 0.932 . S
H155 C135 0.930 . S
H156 C136 0.929 . S
H157 C138 0.930 . S
H158 C140 0.932 . S
H159 C141 0.929 . S
H160 C142 0.928 . S
H161 C144 0.932 . S
C162 C163 1.264 . S
C162 C167 1.479 1_554 S
C162 C172 1.465 . S
C163 C162 1.264 . S
C163 C165 1.339 . S
C163 H190 0.931 . S
C164 C165 1.395 1_556 S
C164 C166 1.320 . S
C165 C163 1.339 . S
C165 C164 1.395 1_554 S
C165 H191 0.929 . S
C166 C164 1.320 . S
C166 C167 1.405 . S
C166 H192 0.930 . S
C167 C162 1.479 1_556 S
C167 C166 1.405 . S
C167 H193 0.931 . S
U168 O169 2.454 . S
U168 O170 2.458 . S
U168 C171 2.984 . S
U168 C172 2.847 . S
U168 C185 2.882 . S
U168 O186 2.441 . S
U168 O187 2.420 . S
U168 O188 2.455 . S
U168 O189 2.449 . S
O169 U168 2.454 . S
O169 C171 1.353 . S
O170 U168 2.458 . S
O170 C171 1.286 . S
C171 U168 2.984 . S
C171 O169 1.353 . S
C171 O170 1.286 . S
C171 C173 1.363 . S
C172 C162 1.465 . S
C172 U168 2.847 . S
C172 O186 1.249 . S
C172 O187 1.202 . S
C173 C171 1.363 . S
C173 C175 1.408 . S
C173 C178 1.342 . S
C174 C175 1.310 1_556 S
C174 C177 1.461 1_556 S
C174 H194 0.932 . S
C175 C173 1.408 . S
C175 C174 1.310 1_554 S
C175 H195 0.930 1_554 S
C176 C177 1.474 . S
C176 C178 1.285 . S
C176 H196 0.929 . S
C177 C174 1.461 1_554 S
C177 C176 1.474 . S
C178 C173 1.342 . S
C178 C176 1.285 . S
C178 H197 0.930 . S
C179 C182 1.424 . S
C179 C184 1.245 . S
C179 C185 1.428 . S
C180 C183 1.260 . S
C180 C184 1.477 . S
C180 H198 0.932 . S
C181 C182 1.384 . S
C181 C183 1.479 . S
C181 H199 0.929 . S
C182 C179 1.424 . S
C182 C181 1.384 . S
C182 H200 0.928 . S
C183 C180 1.260 . S
C183 C181 1.479 . S
C184 C179 1.245 . S
C184 C180 1.477 . S
C184 H201 0.932 . S
C185 U168 2.882 . S
C185 C179 1.428 . S
C185 O188 1.301 . S
C185 O189 1.282 . S
O186 U168 2.441 . S
O186 C172 1.249 . S
O187 U168 2.420 . S
O187 C172 1.202 . S
O188 U168 2.455 . S
O188 C185 1.301 . S
O189 U168 2.449 . S
O189 C185 1.282 . S
H190 C163 0.931 . S
H191 C165 0.929 . S
H192 C166 0.930 . S
H193 C167 0.931 . S
H194 C174 0.932 . S
H195 C175 0.930 1_556 S
H196 C176 0.929 . S
H197 C178 0.930 . S
H198 C180 0.932 . S
H199 C181 0.929 . S
H200 C182 0.928 . S
H201 C184 0.932 . S
C202 C203 1.363 1_556 S
C202 C208 1.379 . S
C202 N210 1.356 . S
C203 C202 1.363 1_554 S
C203 C209 1.363 . S
C204 C205 1.363 1_554 S
C204 C209 1.379 . S
C204 N211 1.356 . S
C205 C204 1.363 1_556 S
C205 C208 1.363 . S
N206 C208 1.356 . S
N206 H218 0.984 . S
N206 H219 0.985 . S
N207 C209 1.356 . S
N207 H212 0.984 . S
N207 H213 0.985 . S
C208 C202 1.379 . S
C208 C205 1.363 . S
C208 N206 1.356 . S
C209 C203 1.363 . S
C209 C204 1.379 . S
C209 N207 1.356 . S
N210 C202 1.356 . S
N210 H216 0.984 . S
N210 H217 0.984 . S
N211 C204 1.356 . S
N211 H214 0.984 . S
N211 H215 0.985 . S
H212 N207 0.984 . S
H213 N207 0.985 . S
H214 N211 0.984 . S
H215 N211 0.985 . S
H216 N210 0.984 . S
H217 N210 0.984 . S
H218 N206 0.984 . S
H219 N206 0.985 . S
C220 C221 1.366 . S
C220 C226 1.386 . S
C220 N228 1.347 1_554 S
C221 C220 1.366 . S
C221 C227 1.363 . S
C222 C223 1.363 . S
C222 C227 1.379 . S
C222 N229 1.356 . S
C223 C222 1.363 . S
C223 C226 1.363 . S
N224 C226 1.356 . S
N224 H236 0.984 1_554 S
N224 H237 0.985 . S
N225 C227 1.356 . S
N225 H230 0.984 . S
N225 H231 0.985 . S
C226 C220 1.386 . S
C226 C223 1.363 . S
C226 N224 1.356 . S
C227 C221 1.363 . S
C227 C222 1.379 . S
C227 N225 1.356 . S
N228 C220 1.347 1_556 S
N228 H234 0.984 . S
N228 H235 0.984 . S
N229 C222 1.356 . S
N229 H232 0.984 . S
N229 H233 0.985 . S
H230 N225 0.984 . S
H231 N225 0.985 . S
H232 N229 0.984 . S
H233 N229 0.985 . S
H234 N228 0.984 . S
H235 N228 0.984 . S
H236 N224 0.984 1_556 S
H237 N224 0.985 . S
C238 C239 1.363 . S
C238 C244 1.379 . S
C238 N246 1.356 . S
C239 C238 1.363 . S
C239 C245 1.363 1_554 S
C240 C241 1.363 1_556 S
C240 C245 1.379 . S
C240 N247 1.356 . S
C241 C240 1.363 1_554 S
C241 C244 1.363 . S
N242 C244 1.356 . S
N242 H254 0.984 . S
N242 H255 0.985 . S
N243 C245 1.356 . S
N243 H248 0.984 . S
N243 H249 0.985 . S
C244 C238 1.379 . S
C244 C241 1.363 . S
C244 N242 1.356 . S
C245 C239 1.363 1_556 S
C245 C240 1.379 . S
C245 N243 1.356 . S
N246 C238 1.356 . S
N246 H252 0.984 . S
N246 H253 0.984 . S
N247 C240 1.356 . S
N247 H250 0.984 . S
N247 H251 0.985 . S
H248 N243 0.984 . S
H249 N243 0.985 . S
H250 N247 0.984 . S
H251 N247 0.985 . S
H252 N246 0.984 . S
H253 N246 0.984 . S
H254 N242 0.984 . S
H255 N242 0.985 . S
C256 C257 1.363 . S
C256 C262 1.379 . S
C256 N264 1.356 . S
C257 C256 1.363 . S
C257 C263 1.363 1_554 S
C258 C259 1.363 1_556 S
C258 C263 1.379 . S
C258 N265 1.356 . S
C259 C258 1.363 1_554 S
C259 C262 1.363 . S
N260 C262 1.356 . S
N260 H272 0.984 . S
N260 H273 0.985 . S
N261 C263 1.356 . S
N261 H266 0.984 . S
N261 H267 0.985 . S
C262 C256 1.379 . S
C262 C259 1.363 . S
C262 N260 1.356 . S
C263 C257 1.363 1_556 S
C263 C258 1.379 . S
C263 N261 1.356 . S
N264 C256 1.356 . S
N264 H270 0.984 . S
N264 H271 0.984 . S
N265 C258 1.356 . S
N265 H268 0.984 . S
N265 H269 0.985 . S
H266 N261 0.984 . S
H267 N261 0.985 . S
H268 N265 0.984 . S
H269 N265 0.985 . S
H270 N264 0.984 . S
H271 N264 0.984 . S
H272 N260 0.984 . S
H273 N260 0.985 . S
C274 C275 1.363 . S
C274 C280 1.379 . S
C274 N282 1.356 . S
C275 C274 1.363 . S
C275 C281 1.363 . S
C276 C277 1.363 . S
C276 C281 1.379 . S
C276 N283 1.356 . S
C277 C276 1.363 . S
C277 C280 1.363 . S
N278 C280 1.356 . S
N278 H290 0.984 . S
N278 H291 0.985 . S
N279 C281 1.356 . S
N279 H284 0.984 . S
N279 H285 0.985 . S
C280 C274 1.379 . S
C280 C277 1.363 . S
C280 N278 1.356 . S
C281 C275 1.363 . S
C281 C276 1.379 . S
C281 N279 1.356 . S
N282 C274 1.356 . S
N282 H288 0.984 . S
N282 H289 0.984 . S
N283 C276 1.356 . S
N283 H286 0.984 . S
N283 H287 0.985 . S
H284 N279 0.984 . S
H285 N279 0.985 . S
H286 N283 0.984 . S
H287 N283 0.985 . S
H288 N282 0.984 . S
H289 N282 0.984 . S
H290 N278 0.984 . S
H291 N278 0.985 . S
C292 C293 1.363 . S
C292 C298 1.379 . S
C292 N300 1.356 . S
C293 C292 1.363 . S
C293 C299 1.363 . S
C294 C295 1.363 . S
C294 C299 1.379 . S
C294 N301 1.356 . S
C295 C294 1.363 . S
C295 C298 1.363 . S
N296 C298 1.356 . S
N296 H308 0.984 . S
N296 H309 0.985 . S
N297 C299 1.356 . S
N297 H302 0.984 . S
N297 H303 0.985 . S
C298 C292 1.379 . S
C298 C295 1.363 . S
C298 N296 1.356 . S
C299 C293 1.363 . S
C299 C294 1.379 . S
C299 N297 1.356 . S
N300 C292 1.356 . S
N300 H306 0.984 . S
N300 H307 0.984 . S
N301 C294 1.356 . S
N301 H304 0.984 . S
N301 H305 0.985 . S
H302 N297 0.984 . S
H303 N297 0.985 . S
H304 N301 0.984 . S
H305 N301 0.985 . S
H306 N300 0.984 . S
H307 N300 0.984 . S
H308 N296 0.984 . S
H309 N296 0.985 . S
C310 C311 1.363 . S
C310 C316 1.379 . S
C310 N318 1.356 . S
C311 C310 1.363 . S
C311 C317 1.363 . S
C312 C313 1.363 . S
C312 C317 1.379 . S
C312 N319 1.356 . S
C313 C312 1.363 . S
C313 C316 1.363 . S
N314 C316 1.356 . S
N314 H326 0.984 . S
N314 H327 0.985 . S
N315 C317 1.356 . S
N315 H320 0.984 . S
N315 H321 0.985 . S
C316 C310 1.379 . S
C316 C313 1.363 . S
C316 N314 1.356 . S
C317 C311 1.363 . S
C317 C312 1.379 . S
C317 N315 1.356 . S
N318 C310 1.356 . S
N318 H324 0.984 . S
N318 H325 0.984 . S
N319 C312 1.356 . S
N319 H322 0.984 . S
N319 H323 0.985 . S
H320 N315 0.984 . S
H321 N315 0.985 . S
H322 N319 0.984 . S
H323 N319 0.985 . S
H324 N318 0.984 . S
H325 N318 0.984 . S
H326 N314 0.984 . S
H327 N314 0.985 . S
C328 C329 1.363 . S
C328 C334 1.379 . S
C328 N336 1.356 . S
C329 C328 1.363 . S
C329 C335 1.363 . S
C330 C331 1.363 . S
C330 C335 1.379 . S
C330 N337 1.356 . S
C331 C330 1.363 . S
C331 C334 1.363 . S
N332 C334 1.356 . S
N332 H344 0.984 . S
N332 H345 0.985 . S
N333 C335 1.356 . S
N333 H338 0.984 . S
N333 H339 0.985 . S
C334 C328 1.379 . S
C334 C331 1.363 . S
C334 N332 1.356 . S
C335 C329 1.363 . S
C335 C330 1.379 . S
C335 N333 1.356 . S
N336 C328 1.356 . S
N336 H342 0.984 . S
N336 H343 0.984 . S
N337 C330 1.356 . S
N337 H340 0.984 . S
N337 H341 0.985 . S
H338 N333 0.984 . S
H339 N333 0.985 . S
H340 N337 0.984 . S
H341 N337 0.985 . S
H342 N336 0.984 . S
H343 N336 0.984 . S
H344 N332 0.984 . S
H345 N332 0.985 . S
C346 C347 1.363 1_655 S
C346 C352 1.379 1_655 S
C346 N354 1.356 . S
C347 C346 1.363 1_455 S
C347 C353 1.363 1_545 S
C348 C349 1.363 . S
C348 C353 1.379 . S
C348 N355 1.356 . S
C349 C348 1.363 . S
C349 C352 1.373 1_565 S
N350 C352 1.348 1_655 S
N350 H362 0.984 . S
N350 H363 0.985 . S
N351 C353 1.356 . S
N351 H356 0.984 . S
N351 H357 0.985 . S
C352 C346 1.379 1_455 S
C352 C349 1.373 1_545 S
C352 N350 1.348 1_455 S
C353 C347 1.363 1_565 S
C353 C348 1.379 . S
C353 N351 1.356 . S
N354 C346 1.356 . S
N354 H360 0.984 . S
N354 H361 0.984 . S
N355 C348 1.356 . S
N355 H358 0.984 . S
N355 H359 0.985 . S
H356 N351 0.984 . S
H357 N351 0.985 . S
H358 N355 0.984 . S
H359 N355 0.985 . S
H360 N354 0.984 . S
H361 N354 0.984 . S
H362 N350 0.984 . S
H363 N350 0.985 . S
C364 C365 1.363 . S
C364 C370 1.379 . S
C364 N372 1.356 1_545 S
C365 C364 1.363 . S
C365 C371 1.363 1_455 S
C366 C367 1.363 1_655 S
C366 C371 1.379 . S
C366 N373 1.356 . S
C367 C366 1.363 1_455 S
C367 C370 1.363 . S
N368 C370 1.356 . S
N368 H380 0.984 1_545 S
N368 H381 0.985 . S
N369 C371 1.356 . S
N369 H374 0.984 . S
N369 H375 0.985 . S
C370 C364 1.379 . S
C370 C367 1.363 . S
C370 N368 1.356 . S
C371 C365 1.363 1_655 S
C371 C366 1.379 . S
C371 N369 1.356 . S
N372 C364 1.356 1_565 S
N372 H378 0.984 . S
N372 H379 0.984 . S
N373 C366 1.356 . S
N373 H376 0.984 . S
N373 H377 0.985 . S
H374 N369 0.984 . S
H375 N369 0.985 . S
H376 N373 0.984 . S
H377 N373 0.985 . S
H378 N372 0.984 . S
H379 N372 0.984 . S
H380 N368 0.984 1_565 S
H381 N368 0.985 . S
C382 C383 1.363 . S
C382 C388 1.379 . S
C382 N390 1.356 . S
C383 C382 1.363 . S
C383 C389 1.363 . S
C384 C385 1.363 . S
C384 C389 1.379 . S
C384 N391 1.356 . S
C385 C384 1.363 . S
C385 C388 1.363 . S
N386 C388 1.356 . S
N386 H398 0.984 . S
N386 H399 0.985 . S
N387 C389 1.356 . S
N387 H392 0.984 . S
N387 H393 0.985 . S
C388 C382 1.379 . S
C388 C385 1.363 . S
C388 N386 1.356 . S
C389 C383 1.363 . S
C389 C384 1.379 . S
C389 N387 1.356 . S
N390 C382 1.356 . S
N390 H396 0.984 . S
N390 H397 0.984 . S
N391 C384 1.356 . S
N391 H394 0.984 . S
N391 H395 0.985 . S
H392 N387 0.984 . S
H393 N387 0.985 . S
H394 N391 0.984 . S
H395 N391 0.985 . S
H396 N390 0.984 . S
H397 N390 0.984 . S
H398 N386 0.984 . S
H399 N386 0.985 . S
C400 C401 1.363 . S
C400 C406 1.379 . S
C400 N408 1.356 . S
C401 C400 1.363 . S
C401 C407 1.363 . S
C402 C403 1.363 . S
C402 C407 1.379 . S
C402 N409 1.356 . S
C403 C402 1.363 . S
C403 C406 1.363 . S
N404 C406 1.356 . S
N404 H416 0.984 . S
N404 H417 0.985 . S
N405 C407 1.356 . S
N405 H410 0.984 . S
N405 H411 0.985 . S
C406 C400 1.379 . S
C406 C403 1.363 . S
C406 N404 1.356 . S
C407 C401 1.363 . S
C407 C402 1.379 . S
C407 N405 1.356 . S
N408 C400 1.356 . S
N408 H414 0.984 . S
N408 H415 0.984 . S
N409 C402 1.356 . S
N409 H412 0.984 . S
N409 H413 0.985 . S
H410 N405 0.984 . S
H411 N405 0.985 . S
H412 N409 0.984 . S
H413 N409 0.985 . S
H414 N408 0.984 . S
H415 N408 0.984 . S
H416 N404 0.984 . S
H417 N404 0.985 . S
C205 C164 1.622 . S
C203 C15 1.631 . S
C221 C13 1.684 . S
C223 C124 1.649 . S
C239 C18 1.351 . S
C241 C177 1.589 . S
C257 C17 1.473 1_554 S
C259 C137 1.493 . S
C275 C36 1.631 . S
C277 C84 1.623 . S
C293 C34 1.684 . S
C295 C44 1.649 . S
C313 C97 1.589 . S
C311 C39 1.338 . S
C331 C57 1.488 . S
C329 C38 1.473 . S
C347 C14 1.522 . S
C349 C63 1.545 . S
C365 C16 1.410 . S
C367 C103 1.425 . S
C385 C143 1.545 . S
C383 C35 1.522 . S
C401 C37 1.410 . S
C403 C183 1.425 . S
