# Generated by pormake.
# Topology nia, (6,6)-cn, num edge types: 1
# Building blocks:
#     Node 0, Type 0, BuildingBlock: INOVEN_clean_sbu_0, # of connection points: 6
#     Node 1, Type 0, BuildingBlock: INOVEN_clean_sbu_0, # of connection points: 6
#     Node 2, Type 1, BuildingBlock: MIDCAF_clean_sbu_0, # of connection points: 6
#     Node 3, Type 1, BuildingBlock: MIDCAF_clean_sbu_0, # of connection points: 6
#     Edge 4, Type (0, 1), BuildingBlock: XIVTED_clean_linker_0, # of connection points: 2
#     Edge 5, Type (0, 1), BuildingBlock: XIVTED_clean_linker_0, # of connection points: 2
#     Edge 6, Type (0, 1), BuildingBlock: XIVTED_clean_linker_0, # of connection points: 2
#     Edge 7, Type (0, 1), BuildingBlock: XIVTED_clean_linker_0, # of connection points: 2
#     Edge 8, Type (0, 1), BuildingBlock: XIVTED_clean_linker_0, # of connection points: 2
#     Edge 9, Type (0, 1), BuildingBlock: XIVTED_clean_linker_0, # of connection points: 2
#     Edge 10, Type (0, 1), BuildingBlock: XIVTED_clean_linker_0, # of connection points: 2
#     Edge 11, Type (0, 1), BuildingBlock: XIVTED_clean_linker_0, # of connection points: 2
#     Edge 12, Type (0, 1), BuildingBlock: XIVTED_clean_linker_0, # of connection points: 2
#     Edge 13, Type (0, 1), BuildingBlock: XIVTED_clean_linker_0, # of connection points: 2
#     Edge 14, Type (0, 1), BuildingBlock: XIVTED_clean_linker_0, # of connection points: 2
#     Edge 15, Type (0, 1), BuildingBlock: XIVTED_clean_linker_0, # of connection points: 2
# Relax obj value: 0.325
# Max RMSD: 0.269
# Mean RMSD: 0.251
data_MOF--net-nia--node1-INOVEN_clean_sbu_0--node2-MIDCAF_clean_sbu_0--edge1-XIVTED_clean_linker_0
_symmetry_space_group_name_H-M    P1
_symmetry_Int_Tables_number       1
_symmetry_cell_setting            triclinic
loop_
_symmetry_equiv_pos_as_xyz
'x, y, z'
_cell_length_a     25.682602
_cell_length_b     28.353301
_cell_length_c     33.936675
_cell_angle_alpha  71.784722
_cell_angle_beta   100.28282
_cell_angle_gamma 127.56996
loop_
_atom_site_label
_atom_site_type_symbol
_atom_site_fract_x
_atom_site_fract_y
_atom_site_fract_z
_atom_type_partial_charge
Gd0 Gd 0.06741 0.04266 0.0367 0.0
Gd1 Gd 0.9663 0.92747 1.00209 0.0
C2 C 0.95802 0.04379 0.97065 0.0
C3 C 0.16105 0.15166 0.04332 0.0
C4 C 0.16291 0.19638 0.05681 0.0
C5 C 0.11188 0.17673 0.08192 0.0
C6 C 0.21768 0.258 0.04713 0.0
C7 C 0.17609 0.27793 0.09381 0.0
C8 C 0.22414 0.29887 0.06543 0.0
C9 C 0.11854 0.21736 0.10051 0.0
C10 C 0.95401 0.95533 0.08266 0.0
C11 C 0.0756 0.92913 0.06757 0.0
C12 C 0.87054 0.82481 0.98685 0.0
C13 C 0.87402 0.79154 0.96346 0.0
C14 C 0.93553 0.80666 0.95707 0.0
C15 C 0.81971 0.75379 0.94151 0.0
C16 C 0.88926 0.74832 0.90559 0.0
C17 C 0.82706 0.73165 0.91307 0.0
C18 C 0.94332 0.78603 0.92801 0.0
C19 C 0.08456 0.00318 0.95971 0.0
O20 O 0.01259 0.07574 0.99109 0.0
O21 O 0.92915 0.98515 0.97292 0.0
O22 O 0.14555 0.10182 0.07254 0.0
O23 O 0.13101 0.14068 1.00837 0.0
O24 O 0.01054 0.99245 0.09785 0.0
O25 O 0.96003 0.97045 0.04377 0.0
O26 O 0.01354 0.8944 0.05601 0.0
O27 O 0.11061 0.98993 0.05605 0.0
O28 O 0.88416 0.8779 0.96405 0.0
O29 O 0.90022 0.82785 0.02277 0.0
O30 O 0.0341 0.95361 0.9502 0.0
O31 O 0.06663 0.00765 0.98922 0.0
H32 H 0.06873 0.12915 0.089 0.0
H33 H 0.2567 0.27369 0.0271 0.0
H34 H 0.2683 0.34589 0.05922 0.0
H35 H 0.08095 0.20018 0.12232 0.0
H36 H 0.97821 0.83631 0.97354 0.0
H37 H 0.77216 0.74263 0.94566 0.0
H38 H 0.78396 0.7013 0.89717 0.0
H39 H 0.99199 0.80042 0.92282 0.0
Gd40 Gd 0.99904 0.0295 0.5491 0.0
Gd41 Gd 0.07392 0.98542 0.5199 0.0
C42 C 0.94 0.9606 0.47445 0.0
C43 C 0.9669 0.0972 0.55468 0.0
C44 C 0.91419 0.09519 0.56778 0.0
C45 C 0.87093 0.04772 0.60059 0.0
C46 C 0.91079 0.14473 0.54901 0.0
C47 C 0.82599 0.10316 0.59857 0.0
C48 C 0.86708 0.14875 0.56423 0.0
C49 C 0.82705 0.0517 0.61591 0.0
C50 C 0.95384 0.91017 0.5923 0.0
C51 C 0.13324 0.05507 0.59136 0.0
C52 C 0.11587 0.9264 0.51246 0.0
C53 C 0.14868 0.92902 0.4799 0.0
C54 C 0.13177 0.94014 0.43802 0.0
C55 C 0.19886 0.92158 0.49094 0.0
C56 C 0.21341 0.93363 0.41882 0.0
C57 C 0.23112 0.92401 0.46066 0.0
C58 C 0.16363 0.94191 0.40766 0.0
C59 C 0.11705 0.10396 0.4764 0.0
O60 O 0.94098 -0.00434 0.49341 0.0
O61 O 0.98193 0.94624 0.48236 0.0
O62 O 0.99728 0.08008 0.58414 0.0
O63 O 0.95689 0.07895 0.52127 0.0
O64 O 0.93063 0.93787 0.59752 0.0
O65 O 0.9986 0.94841 0.56506 0.0
O66 O 0.11981 0.00796 0.58036 0.0
O67 O 0.10001 0.07856 0.5768 0.0
O68 O 0.05455 0.90687 0.50598 0.0
O69 O 0.15125 0.97392 0.52836 0.0
O70 O 0.1381 0.07576 0.46912 0.0
O71 O 0.07515 0.06635 0.50516 0.0
H72 H 0.8727 0.00886 0.61523 0.0
H73 H 0.94401 0.18175 0.52366 0.0
H74 H 0.86826 0.1894 0.55052 0.0
H75 H 0.79541 0.01552 0.64208 0.0
H76 H 0.0937 0.94694 0.42882 0.0
H77 H 0.21269 0.91333 0.5231 0.0
H78 H 0.26853 0.91636 0.47019 0.0
H79 H 0.14925 0.94943 0.3756 0.0
Zn80 Zn 0.38557 0.71453 0.1948 0.0
Zn81 Zn 0.40148 0.6735 0.35242 0.0
Zn82 Zn 0.39835 0.69415 0.27359 0.0
C83 C 0.53035 0.73847 0.32497 0.0
C84 C 0.3197 0.55656 0.34592 0.0
O85 O 0.34226 0.73815 0.24618 0.0
O86 O 0.34278 0.75565 0.17792 0.0
C87 C 0.51978 0.76994 0.20732 0.0
O88 O 0.50414 0.74469 0.28938 0.0
O89 O 0.49471 0.70356 0.35726 0.0
O90 O 0.33293 0.58349 0.37351 0.0
O91 O 0.34184 0.58958 0.30833 0.0
O92 O 0.47839 0.76156 0.17877 0.0
O93 O 0.50031 0.74895 0.24554 0.0
O94 O 0.34002 0.60339 0.26463 0.0
O95 O 0.32651 0.6261 0.19669 0.0
C96 C 0.31499 0.58688 0.23095 0.0
O97 O 0.36154 0.73892 0.28748 0.0
O98 O 0.38566 0.73329 0.35397 0.0
C99 C 0.32596 0.75776 0.20959 0.0
C100 C 0.36574 0.75323 0.3209 0.0
Zn101 Zn 0.6837 0.28408 0.89951 0.0
Zn102 Zn 0.65061 0.35184 0.66455 0.0
Zn103 Zn 0.66667 0.31471 0.7926 0.0
C104 C 0.73302 0.45332 0.70862 0.0
C105 C 0.55423 0.27233 0.74309 0.0
O106 O 0.71437 0.26486 0.81614 0.0
O107 O 0.71601 0.24138 0.88578 0.0
C108 C 0.75803 0.40006 0.8571 0.0
O109 O 0.71701 0.41297 0.74489 0.0
O110 O 0.71254 0.43749 0.67439 0.0
O111 O 0.60633 0.30762 0.72133 0.0
O112 O 0.56185 0.26404 0.78225 0.0
O113 O 0.75347 0.37477 0.89552 0.0
O114 O 0.72275 0.367 0.83237 0.0
O115 O 0.56959 0.26599 0.82337 0.0
O116 O 0.58822 0.25342 0.89164 0.0
C117 C 0.54981 0.24836 0.86122 0.0
O118 O 0.69105 0.26411 0.77594 0.0
O119 O 0.66891 0.3049 0.71685 0.0
C120 C 0.72842 0.24042 0.85161 0.0
C121 C 0.68445 0.2695 0.73707 0.0
H122 H 0.0275 0.80609 0.09325 0.0
H123 H 0.36017 0.87094 0.20838 0.0
H124 H 0.19767 0.98637 0.10269 0.0
H125 H 0.19702 0.69378 0.19025 0.0
H126 H 0.29572 0.91125 0.17814 0.0
H127 H 0.08359 0.76183 0.13527 0.0
C128 C 0.07644 0.83642 0.10421 0.0
C129 C 0.10772 0.90028 0.09399 0.0
C130 C 0.27343 0.86321 0.18147 0.0
C131 C 0.17252 0.84962 0.14261 0.0
C132 C 0.31001 0.84007 0.19926 0.0
C133 C 0.28335 0.77858 0.2027 0.0
C134 C 0.21 0.82484 0.16634 0.0
C135 C 0.21887 0.74112 0.18901 0.0
C136 C 0.10854 0.81106 0.1283 0.0
C137 C 0.17139 0.93698 0.10936 0.0
N138 N 0.18467 0.76479 0.17128 0.0
N139 N 0.20147 0.91128 0.13265 0.0
H140 H 0.19006 0.00481 0.64569 0.0
H141 H 0.51172 0.3235 0.67648 0.0
H142 H 0.20728 0.17389 0.59764 0.0
H143 H 0.45075 0.15094 0.76495 0.0
H144 H 0.40497 0.27009 0.64246 0.0
H145 H 0.28985 0.05763 0.68569 0.0
C146 C 0.21459 0.05294 0.64376 0.0
C147 C 0.1903 0.085 0.6183 0.0
C148 C 0.41465 0.24408 0.66964 0.0
C149 C 0.30505 0.14587 0.66339 0.0
C150 C 0.47541 0.27444 0.68892 0.0
C151 C 0.48908 0.24157 0.72395 0.0
C152 C 0.36819 0.18012 0.68483 0.0
C153 C 0.44114 0.178 0.7386 0.0
C154 C 0.2714 0.08296 0.66667 0.0
C155 C 0.22407 0.14731 0.61705 0.0
N156 N 0.38294 0.14915 0.71876 0.0
N157 N 0.2802 0.17594 0.63886 0.0
H158 H 0.28929 0.34214 0.1339 0.0
H159 H 0.18885 0.51151 0.20915 0.0
H160 H 0.09429 0.29674 0.11689 0.0
H161 H 0.36476 0.52302 0.24658 0.0
H162 H 0.1446 0.42122 0.18456 0.0
H163 H 0.31241 0.40105 0.18141 0.0
C164 C 0.25153 0.34519 0.13994 0.0
C165 C 0.19033 0.31582 0.12089 0.0
C166 C 0.19184 0.44204 0.19953 0.0
C167 C 0.21569 0.38172 0.17614 0.0
C168 C 0.21668 0.49305 0.21376 0.0
C169 C 0.27976 0.52338 0.23018 0.0
C170 C 0.23166 0.42317 0.20083 0.0
C171 C 0.31521 0.49953 0.23483 0.0
C172 C 0.26429 0.37787 0.16766 0.0
C173 C 0.14232 0.31938 0.13078 0.0
N174 N 0.29106 0.45119 0.21951 0.0
N175 N 0.1563 0.3525 0.15752 0.0
H176 H 0.75663 0.15002 0.5618 0.0
H177 H 0.71382 0.1885 0.77455 0.0
H178 H 0.81147 0.08138 0.68156 0.0
H179 H 0.68005 0.27639 0.65433 0.0
H180 H 0.73535 0.1371 0.74147 0.0
H181 H 0.71254 0.18354 0.59578 0.0
C182 C 0.75869 0.14135 0.59527 0.0
C183 C 0.78844 0.11346 0.61883 0.0
C184 C 0.72305 0.16746 0.72225 0.0
C185 C 0.73821 0.15165 0.6578 0.0
C186 C 0.71107 0.19709 0.74114 0.0
C187 C 0.69612 0.23746 0.71708 0.0
C188 C 0.72005 0.17824 0.67892 0.0
C189 C 0.69208 0.24605 0.67396 0.0
C190 C 0.73351 0.16046 0.61462 0.0
C191 C 0.78867 0.10232 0.66214 0.0
N192 N 0.70438 0.21689 0.65617 0.0
N193 N 0.76463 0.12205 0.68017 0.0
H194 H 0.83405 0.91285 0.04749 0.0
H195 H 0.62158 0.76929 0.25296 0.0
H196 H 0.92884 0.92483 0.16612 0.0
H197 H 0.57583 0.84304 0.13152 0.0
H198 H 0.72967 0.81325 0.22532 0.0
H199 H 0.73191 0.86983 0.08089 0.0
C200 C 0.83324 0.90582 0.08071 0.0
C201 C 0.89031 0.92286 0.10396 0.0
C202 C 0.69589 0.82009 0.20505 0.0
C203 C 0.77275 0.87329 0.14269 0.0
C204 C 0.63448 0.79552 0.22089 0.0
C205 C 0.58911 0.80218 0.19463 0.0
C206 C 0.71124 0.85049 0.1626 0.0
C207 C 0.6084 0.83582 0.15303 0.0
C208 C 0.7749 0.88159 0.09978 0.0
C209 C 0.88599 0.91254 0.14701 0.0
N210 N 0.6672 0.85789 0.13838 0.0
N211 N 0.82819 0.88834 0.16508 0.0
H212 H 0.99438 0.84311 0.58316 0.0
H213 H 0.71111 0.52328 0.73457 0.0
H214 H 0.8541 0.82658 0.65002 0.0
H215 H 0.84919 0.53942 0.66597 0.0
H216 H 0.76972 0.63578 0.71013 0.0
H217 H 0.9478 0.73419 0.6173 0.0
C218 C 0.95388 0.8167 0.60501 0.0
C219 C 0.928 0.84431 0.61335 0.0
C220 C 0.78812 0.61499 0.70104 0.0
C221 C 0.87416 0.71881 0.65313 0.0
C222 C 0.75525 0.55065 0.71573 0.0
C223 C 0.77647 0.52165 0.70368 0.0
C224 C 0.84202 0.65096 0.67317 0.0
C225 C 0.83198 0.55971 0.67706 0.0
C226 C 0.92725 0.75435 0.62467 0.0
C227 C 0.87562 0.80745 0.64236 0.0
N228 N 0.86236 0.62177 0.66267 0.0
N229 N 0.85049 0.74704 0.66095 0.0
H230 H 0.34339 0.98932 0.40726 0.0
H231 H 0.25825 0.7495 0.28855 0.0
H232 H 0.15109 0.86728 0.3611 0.0
H233 H 0.43721 0.8502 0.35426 0.0
H234 H 0.22841 0.81349 0.2966 0.0
H235 H 0.38847 0.96164 0.36871 0.0
C236 C 0.31097 0.95758 0.3883 0.0
C237 C 0.24332 0.92935 0.38804 0.0
C238 C 0.27479 0.82232 0.30854 0.0
C239 C 0.29404 0.89679 0.34449 0.0
C240 C 0.29185 0.78614 0.30373 0.0
C241 C 0.34993 0.79483 0.32094 0.0
C242 C 0.31619 0.86693 0.33089 0.0
C243 C 0.39152 0.84182 0.34106 0.0
C244 C 0.3366 0.94177 0.36633 0.0
C245 C 0.2035 0.88959 0.36235 0.0
N246 N 0.37357 0.87582 0.34581 0.0
N247 N 0.22925 0.87337 0.34223 0.0
H248 H 0.12517 0.0004 0.89166 0.0
H249 H 0.5052 0.24756 0.92852 0.0
H250 H 0.19595 0.09942 0.98529 0.0
H251 H 0.43668 0.18441 0.81732 0.0
H252 H 0.39187 0.19314 0.94933 0.0
H253 H 0.2377 0.06587 0.86356 0.0
C254 C 0.16436 0.03625 0.90608 0.0
C255 C 0.15131 0.04457 0.94083 0.0
C256 C 0.40135 0.19141 0.92016 0.0
C257 C 0.28007 0.11918 0.90917 0.0
C258 C 0.46624 0.22245 0.90823 0.0
C259 C 0.48072 0.22026 0.87108 0.0
C260 C 0.34979 0.15685 0.89516 0.0
C261 C 0.42796 0.18745 0.84602 0.0
C262 C 0.2285 0.07364 0.89 0.0
C263 C 0.2038 0.09154 0.9584 0.0
N264 N 0.36478 0.15637 0.85872 0.0
N265 N 0.2658 0.12668 0.9426 0.0
H266 H 0.08684 0.17381 0.49386 0.0
H267 H 0.33261 0.48184 0.3187 0.0
H268 H 0.20106 0.1823 0.40957 0.0
H269 H 0.2233 0.47442 0.40571 0.0
H270 H 0.27788 0.37042 0.34702 0.0
H271 H 0.12998 0.28161 0.45883 0.0
C272 C 0.12051 0.19812 0.46778 0.0
C273 C 0.1401 0.16866 0.45468 0.0
C274 C 0.26504 0.39291 0.35956 0.0
C275 C 0.19041 0.29285 0.41426 0.0
C276 C 0.29547 0.45648 0.34269 0.0
C277 C 0.2814 0.48762 0.35881 0.0
C278 C 0.22043 0.35987 0.3933 0.0
C279 C 0.23545 0.45254 0.3919 0.0
C280 C 0.1454 0.25987 0.44778 0.0
C281 C 0.18451 0.20297 0.42083 0.0
N282 N 0.20697 0.39107 0.40799 0.0
N283 N 0.2081 0.26289 0.40196 0.0
H284 H 0.83306 0.98752 0.9396 0.0
H285 H 0.85951 0.29897 0.84291 0.0
H286 H 0.00784 0.16691 0.94676 0.0
H287 H 0.67558 0.11836 0.87174 0.0
H288 H 0.91813 0.25182 0.86735 0.0
H289 H 0.7785 0.03522 0.90273 0.0
C290 C 0.8603 0.03702 0.93322 0.0
C291 C 0.92534 0.07306 0.94664 0.0
C292 C 0.86494 0.22236 0.8675 0.0
C293 C 0.86273 0.12825 0.90381 0.0
C294 C 0.83151 0.2492 0.85295 0.0
C295 C 0.76263 0.21232 0.85443 0.0
C296 C 0.82916 0.15808 0.88368 0.0
C297 C 0.72868 0.14824 0.86925 0.0
C298 C 0.82891 0.06422 0.91216 0.0
C299 C 0.95766 0.13707 0.93733 0.0
N300 N 0.76218 0.12318 0.88335 0.0
N301 N 0.92612 0.16253 0.91654 0.0
H302 H 0.86502 -0.0006 0.4329 0.0
H303 H 0.60258 0.69692 0.36232 0.0
H304 H 0.8969 0.86255 0.44532 0.0
H305 H 0.61834 0.8637 0.30407 0.0
H306 H 0.71227 0.75725 0.39086 0.0
H307 H 0.77531 0.95148 0.38517 0.0
C308 C 0.85344 0.95951 0.42546 0.0
C309 C 0.88823 0.93466 0.4435 0.0
C310 C 0.69265 0.78104 0.37096 0.0
C311 C 0.78544 0.87951 0.38901 0.0
C312 C 0.6303 0.74665 0.35444 0.0
C313 C 0.60195 0.77562 0.33061 0.0
C314 C 0.72588 0.8446 0.36479 0.0
C315 C 0.63909 0.83993 0.3219 0.0
C316 C 0.80256 0.9325 0.39794 0.0
C317 C 0.87139 0.88324 0.43232 0.0
N318 N 0.69868 0.87225 0.33982 0.0
N319 N 0.82063 0.85687 0.40632 0.0
H320 H 0.82648 0.72498 0.8318 0.0
H321 H 0.88675 0.47785 0.87384 0.0
H322 H 0.97001 0.71337 0.91381 0.0
H323 H 0.72544 0.4709 0.8047 0.0
H324 H 0.94903 0.58962 0.85983 0.0
H325 H 0.82049 0.65973 0.79558 0.0
C326 C 0.85756 0.70971 0.84176 0.0
C327 C 0.89665 0.72249 0.87706 0.0
C328 C 0.90067 0.56402 0.84671 0.0
C329 C 0.89087 0.64909 0.83547 0.0
C330 C 0.8653 0.5005 0.85498 0.0
C331 C 0.80084 0.46633 0.84139 0.0
C332 C 0.86946 0.59206 0.82679 0.0
C333 C 0.77504 0.49666 0.81613 0.0
C334 C 0.85479 0.67322 0.8207 0.0
C335 C 0.93823 0.70407 0.88729 0.0
N336 N 0.80873 0.55804 0.81066 0.0
N337 N 0.93314 0.66719 0.86715 0.0
loop_
_geom_bond_atom_site_label_1
_geom_bond_atom_site_label_2
_geom_bond_distance
_geom_bond_site_symmetry_2
_ccdc_geom_bond_type
Gd0 C3 2.818 . S
Gd0 O20 2.377 . S
Gd0 O22 2.448 . S
Gd0 O23 2.506 . S
Gd0 O24 2.435 1_445 S
Gd0 O25 2.717 1_445 S
Gd0 O27 2.395 1_545 S
Gd0 O31 2.327 1_554 S
Gd1 C12 2.818 . S
Gd1 O21 2.395 1_565 S
Gd1 O25 2.327 1_556 S
Gd1 O26 2.377 1_656 S
Gd1 O28 2.448 . S
Gd1 O29 2.506 . S
Gd1 O30 2.435 1_665 S
Gd1 O31 2.717 1_665 S
C2 O20 1.240 1_656 S
C2 O21 1.240 . S
C3 Gd0 2.818 . S
C3 C4 1.510 . S
C3 O22 1.249 . S
C3 O23 1.252 . S
C4 C3 1.510 . S
C4 C5 1.404 . S
C4 C6 1.352 . S
C5 C4 1.404 . S
C5 C9 1.389 . S
C5 H32 0.930 . S
C6 C4 1.352 . S
C6 C8 1.374 . S
C6 H33 0.931 . S
C7 C8 1.359 . S
C7 C9 1.364 . S
C8 C6 1.374 . S
C8 C7 1.359 . S
C8 H34 0.931 . S
C9 C5 1.389 . S
C9 C7 1.364 . S
C9 H35 0.931 . S
C10 O24 1.256 . S
C10 O25 1.257 . S
C11 O26 1.240 . S
C11 O27 1.240 . S
C12 Gd1 2.818 . S
C12 C13 1.510 . S
C12 O28 1.249 . S
C12 O29 1.252 . S
C13 C12 1.510 . S
C13 C14 1.404 . S
C13 C15 1.352 . S
C14 C13 1.404 . S
C14 C18 1.389 . S
C14 H36 0.930 . S
C15 C13 1.352 . S
C15 C17 1.374 . S
C15 H37 0.931 1_556 S
C16 C17 1.359 . S
C16 C18 1.364 . S
C17 C15 1.374 . S
C17 C16 1.359 . S
C17 H38 0.931 . S
C18 C14 1.389 . S
C18 C16 1.364 . S
C18 H39 0.931 . S
C19 O30 1.256 . S
C19 O31 1.257 . S
O20 Gd0 2.377 . S
O20 C2 1.240 1_454 S
O21 Gd1 2.395 1_545 S
O21 C2 1.240 . S
O22 Gd0 2.448 . S
O22 C3 1.249 . S
O23 Gd0 2.506 . S
O23 C3 1.252 . S
O24 Gd0 2.435 1_665 S
O24 C10 1.256 . S
O25 Gd0 2.717 1_665 S
O25 Gd1 2.327 1_554 S
O25 C10 1.257 . S
O26 Gd1 2.377 1_454 S
O26 C11 1.240 . S
O27 Gd0 2.395 1_565 S
O27 C11 1.240 . S
O28 Gd1 2.448 . S
O28 C12 1.249 . S
O29 Gd1 2.506 . S
O29 C12 1.252 . S
O30 Gd1 2.435 1_445 S
O30 C19 1.256 . S
O31 Gd0 2.327 1_556 S
O31 Gd1 2.717 1_445 S
O31 C19 1.257 . S
H32 C5 0.930 . S
H33 C6 0.931 . S
H34 C8 0.931 . S
H35 C9 0.931 . S
H36 C14 0.930 . S
H37 C15 0.931 1_554 S
H38 C17 0.931 . S
H39 C18 0.931 . S
Gd40 C43 2.818 1_455 S
Gd40 O60 2.377 1_445 S
Gd40 O62 2.448 1_455 S
Gd40 O63 2.506 1_455 S
Gd40 O64 2.435 1_445 S
Gd40 O65 2.717 1_545 S
Gd40 O67 2.395 . S
Gd40 O71 2.327 . S
Gd41 C52 2.818 . S
Gd41 O61 2.395 1_455 S
Gd41 O65 2.327 . S
Gd41 O66 2.377 1_565 S
Gd41 O68 2.448 1_565 S
Gd41 O69 2.506 . S
Gd41 O70 2.435 1_565 S
Gd41 O71 2.717 1_565 S
C42 O60 1.240 . S
C42 O61 1.240 . S
C43 Gd40 2.818 1_655 S
C43 C44 1.510 . S
C43 O62 1.249 . S
C43 O63 1.252 . S
C44 C43 1.510 . S
C44 C45 1.404 . S
C44 C46 1.352 . S
C45 C44 1.404 . S
C45 C49 1.389 . S
C45 H72 0.930 . S
C46 C44 1.352 . S
C46 C48 1.374 . S
C46 H73 0.931 . S
C47 C48 1.359 . S
C47 C49 1.364 . S
C48 C46 1.374 . S
C48 C47 1.359 . S
C48 H74 0.931 . S
C49 C45 1.389 . S
C49 C47 1.364 . S
C49 H75 0.931 . S
C50 O64 1.256 . S
C50 O65 1.257 1_655 S
C51 O66 1.240 . S
C51 O67 1.240 . S
C52 Gd41 2.818 . S
C52 C53 1.510 . S
C52 O68 1.249 1_565 S
C52 O69 1.252 . S
C53 C52 1.510 . S
C53 C54 1.404 . S
C53 C55 1.352 . S
C54 C53 1.404 . S
C54 C58 1.389 . S
C54 H76 0.930 1_565 S
C55 C53 1.352 . S
C55 C57 1.374 . S
C55 H77 0.931 . S
C56 C57 1.359 . S
C56 C58 1.364 . S
C57 C55 1.374 . S
C57 C56 1.359 . S
C57 H78 0.931 . S
C58 C54 1.389 . S
C58 C56 1.364 . S
C58 H79 0.931 1_565 S
C59 O70 1.256 . S
C59 O71 1.257 . S
O60 Gd40 2.377 1_665 S
O60 C42 1.240 . S
O61 Gd41 2.395 1_655 S
O61 C42 1.240 . S
O62 Gd40 2.448 1_655 S
O62 C43 1.249 . S
O63 Gd40 2.506 1_655 S
O63 C43 1.252 . S
O64 Gd40 2.435 1_665 S
O64 C50 1.256 . S
O65 Gd40 2.717 1_565 S
O65 Gd41 2.327 . S
O65 C50 1.257 1_455 S
O66 Gd41 2.377 1_545 S
O66 C51 1.240 . S
O67 Gd40 2.395 . S
O67 C51 1.240 . S
O68 Gd41 2.448 1_545 S
O68 C52 1.249 1_545 S
O69 Gd41 2.506 . S
O69 C52 1.252 . S
O70 Gd41 2.435 1_545 S
O70 C59 1.256 . S
O71 Gd40 2.327 . S
O71 Gd41 2.717 1_545 S
O71 C59 1.257 . S
H72 C45 0.930 . S
H73 C46 0.931 . S
H74 C48 0.931 . S
H75 C49 0.931 . S
H76 C54 0.930 1_545 S
H77 C55 0.931 . S
H78 C57 0.931 . S
H79 C58 0.931 1_545 S
Zn80 O86 1.920 . S
Zn80 O92 1.898 . S
Zn80 O95 1.905 . S
Zn81 O89 1.905 . S
Zn81 O90 1.898 . S
Zn81 O98 1.920 . S
Zn82 O85 2.080 . S
Zn82 O88 2.114 . S
Zn82 O91 2.120 . S
Zn82 O93 2.120 . S
Zn82 O94 2.114 . S
Zn82 O97 2.080 . S
C83 O88 1.166 . S
C83 O89 1.182 . S
C84 O90 1.167 . S
C84 O91 1.299 . S
O85 Zn82 2.080 . S
O85 C99 1.305 . S
O86 Zn80 1.920 . S
O86 C99 1.234 . S
C87 O92 1.167 . S
C87 O93 1.299 . S
O88 Zn82 2.114 . S
O88 C83 1.166 . S
O89 Zn81 1.905 . S
O89 C83 1.182 . S
O90 Zn81 1.898 . S
O90 C84 1.167 . S
O91 Zn82 2.120 . S
O91 C84 1.299 . S
O92 Zn80 1.898 . S
O92 C87 1.167 . S
O93 Zn82 2.120 . S
O93 C87 1.299 . S
O94 Zn82 2.114 . S
O94 C96 1.166 . S
O95 Zn80 1.905 . S
O95 C96 1.182 . S
C96 O94 1.166 . S
C96 O95 1.182 . S
O97 Zn82 2.080 . S
O97 C100 1.305 . S
O98 Zn81 1.920 . S
O98 C100 1.234 . S
C99 O85 1.305 . S
C99 O86 1.234 . S
C100 O97 1.305 . S
C100 O98 1.234 . S
Zn101 O107 1.920 . S
Zn101 O113 1.898 . S
Zn101 O116 1.905 . S
Zn102 O110 1.905 . S
Zn102 O111 1.898 . S
Zn102 O119 1.920 . S
Zn103 O106 2.080 . S
Zn103 O109 2.114 . S
Zn103 O112 2.120 . S
Zn103 O114 2.120 . S
Zn103 O115 2.114 . S
Zn103 O118 2.080 . S
C104 O109 1.166 . S
C104 O110 1.182 . S
C105 O111 1.167 . S
C105 O112 1.299 . S
O106 Zn103 2.080 . S
O106 C120 1.305 . S
O107 Zn101 1.920 . S
O107 C120 1.234 . S
C108 O113 1.167 . S
C108 O114 1.299 . S
O109 Zn103 2.114 . S
O109 C104 1.166 . S
O110 Zn102 1.905 . S
O110 C104 1.182 . S
O111 Zn102 1.898 . S
O111 C105 1.167 . S
O112 Zn103 2.120 . S
O112 C105 1.299 . S
O113 Zn101 1.898 . S
O113 C108 1.167 . S
O114 Zn103 2.120 . S
O114 C108 1.299 . S
O115 Zn103 2.114 . S
O115 C117 1.166 . S
O116 Zn101 1.905 . S
O116 C117 1.182 . S
C117 O115 1.166 . S
C117 O116 1.182 . S
O118 Zn103 2.080 . S
O118 C121 1.305 . S
O119 Zn102 1.920 . S
O119 C121 1.234 . S
C120 O106 1.305 . S
C120 O107 1.234 . S
C121 O118 1.305 . S
C121 O119 1.234 . S
H122 C128 0.930 . S
H123 C132 0.930 . S
H124 C137 0.929 . S
H125 C135 0.929 . S
H126 C130 0.929 . S
H127 C136 0.929 . S
C128 H122 0.930 . S
C128 C129 1.367 . S
C128 C136 1.378 . S
C129 C128 1.367 . S
C129 C137 1.433 . S
C130 H126 0.929 . S
C130 C132 1.378 . S
C130 C134 1.350 . S
C131 C134 1.463 . S
C131 C136 1.350 . S
C131 N139 1.427 . S
C132 H123 0.930 . S
C132 C130 1.378 . S
C132 C133 1.367 . S
C133 C132 1.367 . S
C133 C135 1.433 . S
C134 C130 1.350 . S
C134 C131 1.463 . S
C134 N138 1.427 . S
C135 H125 0.929 . S
C135 C133 1.433 . S
C135 N138 1.384 . S
C136 H127 0.929 . S
C136 C128 1.378 . S
C136 C131 1.350 . S
C137 H124 0.929 . S
C137 C129 1.433 . S
C137 N139 1.384 . S
N138 C134 1.427 . S
N138 C135 1.384 . S
N139 C131 1.427 . S
N139 C137 1.384 . S
H140 C146 0.930 1_565 S
H141 C150 0.930 . S
H142 C155 0.929 . S
H143 C153 0.929 . S
H144 C148 0.929 . S
H145 C154 0.929 . S
C146 H140 0.930 1_545 S
C146 C147 1.367 . S
C146 C154 1.378 . S
C147 C146 1.367 . S
C147 C155 1.433 . S
C148 H144 0.929 . S
C148 C150 1.378 . S
C148 C152 1.350 . S
C149 C152 1.463 . S
C149 C154 1.350 . S
C149 N157 1.427 . S
C150 H141 0.930 . S
C150 C148 1.378 . S
C150 C151 1.367 . S
C151 C150 1.367 . S
C151 C153 1.433 . S
C152 C148 1.350 . S
C152 C149 1.463 . S
C152 N156 1.427 . S
C153 H143 0.929 . S
C153 C151 1.433 . S
C153 N156 1.384 . S
C154 H145 0.929 . S
C154 C146 1.378 . S
C154 C149 1.350 . S
C155 H142 0.929 . S
C155 C147 1.433 . S
C155 N157 1.384 . S
N156 C152 1.427 . S
N156 C153 1.384 . S
N157 C149 1.427 . S
N157 C155 1.384 . S
H158 C164 0.930 . S
H159 C168 0.930 . S
H160 C173 0.929 . S
H161 C171 0.929 . S
H162 C166 0.929 . S
H163 C172 0.929 . S
C164 H158 0.930 . S
C164 C165 1.367 . S
C164 C172 1.378 . S
C165 C164 1.367 . S
C165 C173 1.433 . S
C166 H162 0.929 . S
C166 C168 1.378 . S
C166 C170 1.350 . S
C167 C170 1.463 . S
C167 C172 1.350 . S
C167 N175 1.427 . S
C168 H159 0.930 . S
C168 C166 1.378 . S
C168 C169 1.367 . S
C169 C168 1.367 . S
C169 C171 1.433 . S
C170 C166 1.350 . S
C170 C167 1.463 . S
C170 N174 1.427 . S
C171 H161 0.929 . S
C171 C169 1.433 . S
C171 N174 1.384 . S
C172 H163 0.929 . S
C172 C164 1.378 . S
C172 C167 1.350 . S
C173 H160 0.929 . S
C173 C165 1.433 . S
C173 N175 1.384 . S
N174 C170 1.427 . S
N174 C171 1.384 . S
N175 C167 1.427 . S
N175 C173 1.384 . S
H176 C182 0.930 . S
H177 C186 0.930 . S
H178 C191 0.929 . S
H179 C189 0.929 . S
H180 C184 0.929 . S
H181 C190 0.929 . S
C182 H176 0.930 . S
C182 C183 1.367 . S
C182 C190 1.378 . S
C183 C182 1.367 . S
C183 C191 1.433 . S
C184 H180 0.929 . S
C184 C186 1.378 . S
C184 C188 1.350 . S
C185 C188 1.463 . S
C185 C190 1.350 . S
C185 N193 1.427 . S
C186 H177 0.930 . S
C186 C184 1.378 . S
C186 C187 1.367 . S
C187 C186 1.367 . S
C187 C189 1.433 . S
C188 C184 1.350 . S
C188 C185 1.463 . S
C188 N192 1.427 . S
C189 H179 0.929 . S
C189 C187 1.433 . S
C189 N192 1.384 . S
C190 H181 0.929 . S
C190 C182 1.378 . S
C190 C185 1.350 . S
C191 H178 0.929 . S
C191 C183 1.433 . S
C191 N193 1.384 . S
N192 C188 1.427 . S
N192 C189 1.384 . S
N193 C185 1.427 . S
N193 C191 1.384 . S
H194 C200 0.930 . S
H195 C204 0.930 . S
H196 C209 0.929 . S
H197 C207 0.929 . S
H198 C202 0.929 . S
H199 C208 0.929 . S
C200 H194 0.930 . S
C200 C201 1.367 . S
C200 C208 1.378 . S
C201 C200 1.367 . S
C201 C209 1.433 . S
C202 H198 0.929 . S
C202 C204 1.378 . S
C202 C206 1.350 . S
C203 C206 1.463 . S
C203 C208 1.350 . S
C203 N211 1.427 . S
C204 H195 0.930 . S
C204 C202 1.378 . S
C204 C205 1.367 . S
C205 C204 1.367 . S
C205 C207 1.433 . S
C206 C202 1.350 . S
C206 C203 1.463 . S
C206 N210 1.427 . S
C207 H197 0.929 . S
C207 C205 1.433 . S
C207 N210 1.384 . S
C208 H199 0.929 . S
C208 C200 1.378 . S
C208 C203 1.350 . S
C209 H196 0.929 . S
C209 C201 1.433 . S
C209 N211 1.384 . S
N210 C206 1.427 . S
N210 C207 1.384 . S
N211 C203 1.427 . S
N211 C209 1.384 . S
H212 C218 0.930 . S
H213 C222 0.930 . S
H214 C227 0.929 . S
H215 C225 0.929 . S
H216 C220 0.929 . S
H217 C226 0.929 . S
C218 H212 0.930 . S
C218 C219 1.367 . S
C218 C226 1.378 . S
C219 C218 1.367 . S
C219 C227 1.433 . S
C220 H216 0.929 . S
C220 C222 1.378 . S
C220 C224 1.350 . S
C221 C224 1.463 . S
C221 C226 1.350 . S
C221 N229 1.427 . S
C222 H213 0.930 . S
C222 C220 1.378 . S
C222 C223 1.367 . S
C223 C222 1.367 . S
C223 C225 1.433 . S
C224 C220 1.350 . S
C224 C221 1.463 . S
C224 N228 1.427 . S
C225 H215 0.929 . S
C225 C223 1.433 . S
C225 N228 1.384 . S
C226 H217 0.929 . S
C226 C218 1.378 . S
C226 C221 1.350 . S
C227 H214 0.929 . S
C227 C219 1.433 . S
C227 N229 1.384 . S
N228 C224 1.427 . S
N228 C225 1.384 . S
N229 C221 1.427 . S
N229 C227 1.384 . S
H230 C236 0.930 . S
H231 C240 0.930 . S
H232 C245 0.929 . S
H233 C243 0.929 . S
H234 C238 0.929 . S
H235 C244 0.929 . S
C236 H230 0.930 . S
C236 C237 1.367 . S
C236 C244 1.378 . S
C237 C236 1.367 . S
C237 C245 1.433 . S
C238 H234 0.929 . S
C238 C240 1.378 . S
C238 C242 1.350 . S
C239 C242 1.463 . S
C239 C244 1.350 . S
C239 N247 1.427 . S
C240 H231 0.930 . S
C240 C238 1.378 . S
C240 C241 1.367 . S
C241 C240 1.367 . S
C241 C243 1.433 . S
C242 C238 1.350 . S
C242 C239 1.463 . S
C242 N246 1.427 . S
C243 H233 0.929 . S
C243 C241 1.433 . S
C243 N246 1.384 . S
C244 H235 0.929 . S
C244 C236 1.378 . S
C244 C239 1.350 . S
C245 H232 0.929 . S
C245 C237 1.433 . S
C245 N247 1.384 . S
N246 C242 1.427 . S
N246 C243 1.384 . S
N247 C239 1.427 . S
N247 C245 1.384 . S
H248 C254 0.930 . S
H249 C258 0.930 . S
H250 C263 0.929 . S
H251 C261 0.929 . S
H252 C256 0.929 . S
H253 C262 0.929 . S
C254 H248 0.930 . S
C254 C255 1.367 . S
C254 C262 1.378 . S
C255 C254 1.367 . S
C255 C263 1.433 . S
C256 H252 0.929 . S
C256 C258 1.378 . S
C256 C260 1.350 . S
C257 C260 1.463 . S
C257 C262 1.350 . S
C257 N265 1.427 . S
C258 H249 0.930 . S
C258 C256 1.378 . S
C258 C259 1.367 . S
C259 C258 1.367 . S
C259 C261 1.433 . S
C260 C256 1.350 . S
C260 C257 1.463 . S
C260 N264 1.427 . S
C261 H251 0.929 . S
C261 C259 1.433 . S
C261 N264 1.384 . S
C262 H253 0.929 . S
C262 C254 1.378 . S
C262 C257 1.350 . S
C263 H250 0.929 . S
C263 C255 1.433 . S
C263 N265 1.384 . S
N264 C260 1.427 . S
N264 C261 1.384 . S
N265 C257 1.427 . S
N265 C263 1.384 . S
H266 C272 0.930 . S
H267 C276 0.930 . S
H268 C281 0.929 . S
H269 C279 0.929 . S
H270 C274 0.929 . S
H271 C280 0.929 . S
C272 H266 0.930 . S
C272 C273 1.367 . S
C272 C280 1.378 . S
C273 C272 1.367 . S
C273 C281 1.433 . S
C274 H270 0.929 . S
C274 C276 1.378 . S
C274 C278 1.350 . S
C275 C278 1.463 . S
C275 C280 1.350 . S
C275 N283 1.427 . S
C276 H267 0.930 . S
C276 C274 1.378 . S
C276 C277 1.367 . S
C277 C276 1.367 . S
C277 C279 1.433 . S
C278 C274 1.350 . S
C278 C275 1.463 . S
C278 N282 1.427 . S
C279 H269 0.929 . S
C279 C277 1.433 . S
C279 N282 1.384 . S
C280 H271 0.929 . S
C280 C272 1.378 . S
C280 C275 1.350 . S
C281 H268 0.929 . S
C281 C273 1.433 . S
C281 N283 1.384 . S
N282 C278 1.427 . S
N282 C279 1.384 . S
N283 C275 1.427 . S
N283 C281 1.384 . S
H284 C290 0.930 . S
H285 C294 0.930 . S
H286 C299 0.929 1_455 S
H287 C297 0.929 . S
H288 C292 0.929 . S
H289 C298 0.929 . S
C290 H284 0.930 . S
C290 C291 1.367 . S
C290 C298 1.378 . S
C291 C290 1.367 . S
C291 C299 1.433 . S
C292 H288 0.929 . S
C292 C294 1.378 . S
C292 C296 1.350 . S
C293 C296 1.463 . S
C293 C298 1.350 . S
C293 N301 1.427 . S
C294 H285 0.930 . S
C294 C292 1.378 . S
C294 C295 1.367 . S
C295 C294 1.367 . S
C295 C297 1.433 . S
C296 C292 1.350 . S
C296 C293 1.463 . S
C296 N300 1.427 . S
C297 H287 0.929 . S
C297 C295 1.433 . S
C297 N300 1.384 . S
C298 H289 0.929 . S
C298 C290 1.378 . S
C298 C293 1.350 . S
C299 H286 0.929 1_655 S
C299 C291 1.433 . S
C299 N301 1.384 . S
N300 C296 1.427 . S
N300 C297 1.384 . S
N301 C293 1.427 . S
N301 C299 1.384 . S
H302 C308 0.930 . S
H303 C312 0.930 . S
H304 C317 0.929 . S
H305 C315 0.929 . S
H306 C310 0.929 . S
H307 C316 0.929 . S
C308 H302 0.930 . S
C308 C309 1.367 . S
C308 C316 1.378 . S
C309 C308 1.367 . S
C309 C317 1.433 . S
C310 H306 0.929 . S
C310 C312 1.378 . S
C310 C314 1.350 . S
C311 C314 1.463 . S
C311 C316 1.350 . S
C311 N319 1.427 . S
C312 H303 0.930 . S
C312 C310 1.378 . S
C312 C313 1.367 . S
C313 C312 1.367 . S
C313 C315 1.433 . S
C314 C310 1.350 . S
C314 C311 1.463 . S
C314 N318 1.427 . S
C315 H305 0.929 . S
C315 C313 1.433 . S
C315 N318 1.384 . S
C316 H307 0.929 . S
C316 C308 1.378 . S
C316 C311 1.350 . S
C317 H304 0.929 . S
C317 C309 1.433 . S
C317 N319 1.384 . S
N318 C314 1.427 . S
N318 C315 1.384 . S
N319 C311 1.427 . S
N319 C317 1.384 . S
H320 C326 0.930 . S
H321 C330 0.930 . S
H322 C335 0.929 . S
H323 C333 0.929 . S
H324 C328 0.929 . S
H325 C334 0.929 . S
C326 H320 0.930 . S
C326 C327 1.367 . S
C326 C334 1.378 . S
C327 C326 1.367 . S
C327 C335 1.433 . S
C328 H324 0.929 . S
C328 C330 1.378 . S
C328 C332 1.350 . S
C329 C332 1.463 . S
C329 C334 1.350 . S
C329 N337 1.427 . S
C330 H321 0.930 . S
C330 C328 1.378 . S
C330 C331 1.367 . S
C331 C330 1.367 . S
C331 C333 1.433 . S
C332 C328 1.350 . S
C332 C329 1.463 . S
C332 N336 1.427 . S
C333 H323 0.929 . S
C333 C331 1.433 . S
C333 N336 1.384 . S
C334 H325 0.929 . S
C334 C326 1.378 . S
C334 C329 1.350 . S
C335 H322 0.929 . S
C335 C327 1.433 . S
C335 N337 1.384 . S
N336 C332 1.427 . S
N336 C333 1.384 . S
N337 C329 1.427 . S
N337 C335 1.384 . S
C129 C11 1.936 . S
C133 C99 1.866 . S
C147 C51 1.247 . S
C151 C105 1.146 . S
C165 C7 0.903 . S
C169 C96 0.860 . S
C183 C47 1.379 . S
C187 C121 1.265 . S
C201 C10 2.078 . S
C205 C87 1.977 . S
C223 C104 2.288 . S
C219 C50 2.354 . S
C237 C56 1.246 . S
C241 C100 1.164 . S
C259 C117 1.735 . S
C255 C19 1.796 . S
C277 C84 2.103 . S
C273 C59 2.202 . S
C295 C120 2.068 . S
C291 C2 2.130 . S
C313 C83 1.419 . S
C309 C42 1.505 . S
C331 C108 0.850 . S
C327 C16 0.896 . S
