# Generated by pormake.
# Topology gar, (4,6)-cn, num edge types: 1
# Building blocks:
#     Node 0, Type 0, BuildingBlock: TATPOV_clean_sbu_0, # of connection points: 4
#     Node 1, Type 0, BuildingBlock: TATPOV_clean_sbu_0, # of connection points: 4
#     Node 2, Type 0, BuildingBlock: TATPOV_clean_sbu_0, # of connection points: 4
#     Node 3, Type 0, BuildingBlock: TATPOV_clean_sbu_0, # of connection points: 4
#     Node 4, Type 0, BuildingBlock: TATPOV_clean_sbu_0, # of connection points: 4
#     Node 5, Type 0, BuildingBlock: TATPOV_clean_sbu_0, # of connection points: 4
#     Node 6, Type 0, BuildingBlock: TATPOV_clean_sbu_0, # of connection points: 4
#     Node 7, Type 0, BuildingBlock: TATPOV_clean_sbu_0, # of connection points: 4
#     Node 8, Type 0, BuildingBlock: TATPOV_clean_sbu_0, # of connection points: 4
#     Node 9, Type 0, BuildingBlock: TATPOV_clean_sbu_0, # of connection points: 4
#     Node 10, Type 0, BuildingBlock: TATPOV_clean_sbu_0, # of connection points: 4
#     Node 11, Type 0, BuildingBlock: TATPOV_clean_sbu_0, # of connection points: 4
#     Node 12, Type 0, BuildingBlock: TATPOV_clean_sbu_0, # of connection points: 4
#     Node 13, Type 0, BuildingBlock: TATPOV_clean_sbu_0, # of connection points: 4
#     Node 14, Type 0, BuildingBlock: TATPOV_clean_sbu_0, # of connection points: 4
#     Node 15, Type 0, BuildingBlock: TATPOV_clean_sbu_0, # of connection points: 4
#     Node 16, Type 0, BuildingBlock: TATPOV_clean_sbu_0, # of connection points: 4
#     Node 17, Type 0, BuildingBlock: TATPOV_clean_sbu_0, # of connection points: 4
#     Node 18, Type 0, BuildingBlock: TATPOV_clean_sbu_0, # of connection points: 4
#     Node 19, Type 0, BuildingBlock: TATPOV_clean_sbu_0, # of connection points: 4
#     Node 20, Type 0, BuildingBlock: TATPOV_clean_sbu_0, # of connection points: 4
#     Node 21, Type 0, BuildingBlock: TATPOV_clean_sbu_0, # of connection points: 4
#     Node 22, Type 0, BuildingBlock: TATPOV_clean_sbu_0, # of connection points: 4
#     Node 23, Type 0, BuildingBlock: TATPOV_clean_sbu_0, # of connection points: 4
#     Node 24, Type 1, BuildingBlock: MIFKUJ_clean_sbu_0, # of connection points: 6
#     Node 25, Type 1, BuildingBlock: MIFKUJ_clean_sbu_0, # of connection points: 6
#     Node 26, Type 1, BuildingBlock: MIFKUJ_clean_sbu_0, # of connection points: 6
#     Node 27, Type 1, BuildingBlock: MIFKUJ_clean_sbu_0, # of connection points: 6
#     Node 28, Type 1, BuildingBlock: MIFKUJ_clean_sbu_0, # of connection points: 6
#     Node 29, Type 1, BuildingBlock: MIFKUJ_clean_sbu_0, # of connection points: 6
#     Node 30, Type 1, BuildingBlock: MIFKUJ_clean_sbu_0, # of connection points: 6
#     Node 31, Type 1, BuildingBlock: MIFKUJ_clean_sbu_0, # of connection points: 6
#     Node 32, Type 1, BuildingBlock: MIFKUJ_clean_sbu_0, # of connection points: 6
#     Node 33, Type 1, BuildingBlock: MIFKUJ_clean_sbu_0, # of connection points: 6
#     Node 34, Type 1, BuildingBlock: MIFKUJ_clean_sbu_0, # of connection points: 6
#     Node 35, Type 1, BuildingBlock: MIFKUJ_clean_sbu_0, # of connection points: 6
#     Node 36, Type 1, BuildingBlock: MIFKUJ_clean_sbu_0, # of connection points: 6
#     Node 37, Type 1, BuildingBlock: MIFKUJ_clean_sbu_0, # of connection points: 6
#     Node 38, Type 1, BuildingBlock: MIFKUJ_clean_sbu_0, # of connection points: 6
#     Node 39, Type 1, BuildingBlock: MIFKUJ_clean_sbu_0, # of connection points: 6
#     Edge 40, Type (0, 1), None
#     Edge 41, Type (0, 1), None
#     Edge 42, Type (0, 1), None
#     Edge 43, Type (0, 1), None
#     Edge 44, Type (0, 1), None
#     Edge 45, Type (0, 1), None
#     Edge 46, Type (0, 1), None
#     Edge 47, Type (0, 1), None
#     Edge 48, Type (0, 1), None
#     Edge 49, Type (0, 1), None
#     Edge 50, Type (0, 1), None
#     Edge 51, Type (0, 1), None
#     Edge 52, Type (0, 1), None
#     Edge 53, Type (0, 1), None
#     Edge 54, Type (0, 1), None
#     Edge 55, Type (0, 1), None
#     Edge 56, Type (0, 1), None
#     Edge 57, Type (0, 1), None
#     Edge 58, Type (0, 1), None
#     Edge 59, Type (0, 1), None
#     Edge 60, Type (0, 1), None
#     Edge 61, Type (0, 1), None
#     Edge 62, Type (0, 1), None
#     Edge 63, Type (0, 1), None
#     Edge 64, Type (0, 1), None
#     Edge 65, Type (0, 1), None
#     Edge 66, Type (0, 1), None
#     Edge 67, Type (0, 1), None
#     Edge 68, Type (0, 1), None
#     Edge 69, Type (0, 1), None
#     Edge 70, Type (0, 1), None
#     Edge 71, Type (0, 1), None
#     Edge 72, Type (0, 1), None
#     Edge 73, Type (0, 1), None
#     Edge 74, Type (0, 1), None
#     Edge 75, Type (0, 1), None
#     Edge 76, Type (0, 1), None
#     Edge 77, Type (0, 1), None
#     Edge 78, Type (0, 1), None
#     Edge 79, Type (0, 1), None
#     Edge 80, Type (0, 1), None
#     Edge 81, Type (0, 1), None
#     Edge 82, Type (0, 1), None
#     Edge 83, Type (0, 1), None
#     Edge 84, Type (0, 1), None
#     Edge 85, Type (0, 1), None
#     Edge 86, Type (0, 1), None
#     Edge 87, Type (0, 1), None
#     Edge 88, Type (0, 1), None
#     Edge 89, Type (0, 1), None
#     Edge 90, Type (0, 1), None
#     Edge 91, Type (0, 1), None
#     Edge 92, Type (0, 1), None
#     Edge 93, Type (0, 1), None
#     Edge 94, Type (0, 1), None
#     Edge 95, Type (0, 1), None
#     Edge 96, Type (0, 1), None
#     Edge 97, Type (0, 1), None
#     Edge 98, Type (0, 1), None
#     Edge 99, Type (0, 1), None
#     Edge 100, Type (0, 1), None
#     Edge 101, Type (0, 1), None
#     Edge 102, Type (0, 1), None
#     Edge 103, Type (0, 1), None
#     Edge 104, Type (0, 1), None
#     Edge 105, Type (0, 1), None
#     Edge 106, Type (0, 1), None
#     Edge 107, Type (0, 1), None
#     Edge 108, Type (0, 1), None
#     Edge 109, Type (0, 1), None
#     Edge 110, Type (0, 1), None
#     Edge 111, Type (0, 1), None
#     Edge 112, Type (0, 1), None
#     Edge 113, Type (0, 1), None
#     Edge 114, Type (0, 1), None
#     Edge 115, Type (0, 1), None
#     Edge 116, Type (0, 1), None
#     Edge 117, Type (0, 1), None
#     Edge 118, Type (0, 1), None
#     Edge 119, Type (0, 1), None
#     Edge 120, Type (0, 1), None
#     Edge 121, Type (0, 1), None
#     Edge 122, Type (0, 1), None
#     Edge 123, Type (0, 1), None
#     Edge 124, Type (0, 1), None
#     Edge 125, Type (0, 1), None
#     Edge 126, Type (0, 1), None
#     Edge 127, Type (0, 1), None
#     Edge 128, Type (0, 1), None
#     Edge 129, Type (0, 1), None
#     Edge 130, Type (0, 1), None
#     Edge 131, Type (0, 1), None
#     Edge 132, Type (0, 1), None
#     Edge 133, Type (0, 1), None
#     Edge 134, Type (0, 1), None
#     Edge 135, Type (0, 1), None
# Relax obj value: 0.151
# Max RMSD: 0.384
# Mean RMSD: 0.168
data_MOF--net-gar--node1-TATPOV_clean_sbu_0--node2-MIFKUJ_clean_sbu_0--edge1-none
_symmetry_space_group_name_H-M    P1
_symmetry_Int_Tables_number       1
_symmetry_cell_setting            triclinic
loop_
_symmetry_equiv_pos_as_xyz
'x, y, z'
_cell_length_a     27.507102
_cell_length_b     27.148558
_cell_length_c     25.566063
_cell_angle_alpha  92.145874
_cell_angle_beta   95.195934
_cell_angle_gamma 104.12757
loop_
_atom_site_label
_atom_site_type_symbol
_atom_site_fract_x
_atom_site_fract_y
_atom_site_fract_z
_atom_type_partial_charge
Zn0 Zn 0.96439 0.29179 0.48271 0.0
Zn1 Zn 0.06016 0.31817 0.45769 0.0
O2 O 0.06622 0.37396 0.51571 0.0
O3 O 0.98625 0.3569 0.53042 0.0
O4 O 0.12782 0.32497 0.43408 0.0
O5 O 0.96989 0.22376 0.50817 0.0
O6 O 0.04411 0.245 0.47775 0.0
C7 C 0.03085 0.38478 0.53901 0.0
C8 C 0.97722 0.31535 0.37333 0.0
O9 O 0.0235 0.33066 0.38945 0.0
O10 O 0.94559 0.29455 0.40392 0.0
C11 C 0.13143 0.29951 0.3924 0.0
O12 O 0.09123 0.26863 0.367 0.0
C13 C 0.00992 0.21264 0.49705 0.0
Zn14 Zn 0.06409 0.70746 0.75379 0.0
Zn15 Zn 0.0572 0.75553 0.65915 0.0
O16 O -0.00949 0.75162 0.6901 0.0
O17 O -0.00417 0.72088 0.76854 0.0
O18 O 0.05924 0.80779 0.60398 0.0
O19 O 0.13142 0.75768 0.77928 0.0
O20 O 0.12027 0.79163 0.70375 0.0
C21 C 0.97145 0.7388 0.73268 0.0
C22 C 0.06501 0.64692 0.65304 0.0
O23 O 0.06248 0.68642 0.62837 0.0
O24 O 0.06502 0.64728 0.70278 0.0
C25 C 0.03638 0.8062 0.55829 0.0
O26 O 0.00577 0.76343 0.53804 0.0
C27 C 0.14628 0.79109 0.74711 0.0
Zn28 Zn 0.46438 0.79179 0.98268 0.0
Zn29 Zn 0.56015 0.81817 0.95768 0.0
O30 O 0.5662 0.87395 0.0157 0.0
O31 O 0.48624 0.85689 0.0304 0.0
O32 O 0.62781 0.82498 0.93407 0.0
O33 O 0.46988 0.72376 0.00814 0.0
O34 O 0.5441 0.74499 0.97774 0.0
C35 C 0.53083 0.88478 0.03899 0.0
C36 C 0.47722 0.81535 0.87331 0.0
O37 O 0.52349 0.83066 0.88944 0.0
O38 O 0.44559 0.79455 0.90389 0.0
C39 C 0.63143 0.79952 0.89239 0.0
O40 O 0.59123 0.76864 0.86699 0.0
C41 C 0.50991 0.71264 -0.00297 0.0
Zn42 Zn 0.56409 0.20745 0.25378 0.0
Zn43 Zn 0.5572 0.25552 0.15914 0.0
O44 O 0.49051 0.25161 0.19009 0.0
O45 O 0.49584 0.22087 0.26853 0.0
O46 O 0.55924 0.30778 0.10398 0.0
O47 O 0.63142 0.25767 0.27927 0.0
O48 O 0.62027 0.29162 0.20374 0.0
C49 C 0.47145 0.23879 0.23266 0.0
C50 C 0.56501 0.14691 0.15303 0.0
O51 O 0.56248 0.18641 0.12836 0.0
O52 O 0.56502 0.14727 0.20277 0.0
C53 C 0.53638 0.30619 0.05829 0.0
O54 O 0.50576 0.26343 0.03804 0.0
C55 C 0.64628 0.29107 0.2471 0.0
Zn56 Zn 0.0792 0.71974 0.06568 0.0
Zn57 Zn 0.03617 0.7312 0.16031 0.0
O58 O 0.02835 0.79059 0.1164 0.0
O59 O 0.06134 0.7856 0.04166 0.0
O60 O -0.0095 0.73334 0.21824 0.0
O61 O 0.0304 0.64948 0.05262 0.0
O62 O 0.00261 0.66175 0.129 0.0
C63 C 0.03896 0.80827 0.07233 0.0
C64 C 0.14636 0.72974 0.16533 0.0
O65 O 0.10894 0.73529 0.1891 0.0
O66 O 0.14271 0.72306 0.11558 0.0
C67 C 0.98131 0.77565 0.2302 0.0
O68 O 0.01038 0.81741 0.21496 0.0
C69 C 0.00254 0.63365 0.08842 0.0
Zn70 Zn 0.43657 0.7033 0.41734 0.0
Zn71 Zn 0.49906 0.73635 0.34775 0.0
O72 O 0.50247 0.8033 0.38599 0.0
O73 O 0.45899 0.77586 0.45213 0.0
O74 O 0.55253 0.75003 0.30015 0.0
O75 O 0.47562 0.65465 0.44756 0.0
O76 O 0.53247 0.69494 0.39966 0.0
C77 C 0.48679 0.81163 0.42991 0.0
C78 C 0.38928 0.69323 0.30833 0.0
O79 O 0.43409 0.71081 0.29726 0.0
O80 O 0.38116 0.68581 0.35581 0.0
C81 C 0.58549 0.79156 0.29868 0.0
O82 O 0.57867 0.83393 0.31963 0.0
C83 C 0.52034 0.66488 0.4359 0.0
Zn84 Zn 0.5792 0.21973 0.5657 0.0
Zn85 Zn 0.53616 0.2312 0.66031 0.0
O86 O 0.52833 0.29059 0.6164 0.0
O87 O 0.56133 0.28559 0.54166 0.0
O88 O 0.49049 0.23334 0.71825 0.0
O89 O 0.53039 0.14947 0.55263 0.0
O90 O 0.5026 0.16174 0.62901 0.0
C91 C 0.53895 0.30826 0.57233 0.0
C92 C 0.64635 0.22975 0.66535 0.0
O93 O 0.60893 0.2353 0.68911 0.0
O94 O 0.64269 0.22306 0.6156 0.0
C95 C 0.4813 0.27565 0.7302 0.0
O96 O 0.51037 0.31741 0.71496 0.0
C97 C 0.50254 0.13364 0.58843 0.0
Zn98 Zn 0.93657 0.20331 0.91737 0.0
Zn99 Zn -0.00095 0.23636 0.84777 0.0
O100 O 0.00247 0.30331 0.88601 0.0
O101 O 0.95899 0.27588 0.95216 0.0
O102 O 0.05251 0.25004 0.80016 0.0
O103 O 0.97562 0.15467 0.94758 0.0
O104 O 0.03246 0.19495 0.89967 0.0
C105 C -0.0132 0.31164 0.92993 0.0
C106 C 0.88927 0.19325 0.80836 0.0
O107 O 0.93407 0.21081 0.79728 0.0
O108 O 0.88115 0.18583 0.85585 0.0
C109 C 0.08547 0.29157 0.79869 0.0
O110 O 0.07866 0.33393 0.81964 0.0
C111 C 0.02033 0.16489 0.93591 0.0
Zn112 Zn 0.41695 0.92983 0.31262 0.0
Zn113 Zn 0.3642 0.98706 0.32434 0.0
O114 O 0.39931 0.97772 0.39604 0.0
O115 O 0.46897 0.96175 0.37218 0.0
O116 O 0.32512 0.03849 0.33497 0.0
O117 O 0.42211 0.95133 0.23907 0.0
O118 O 0.40987 0.02238 0.272 0.0
C119 C 0.44382 0.97281 0.40776 0.0
C120 C 0.31918 0.8782 0.29973 0.0
O121 O 0.31563 0.92293 0.29062 0.0
O122 O 0.35882 0.87196 0.32474 0.0
C123 C 0.30931 0.05766 0.29415 0.0
O124 O 0.31048 0.03651 0.24738 0.0
C125 C 0.42214 -0.00252 0.23473 0.0
Zn126 Zn 0.21464 0.21057 0.52028 0.0
Zn127 Zn 0.26268 0.13705 0.50271 0.0
O128 O 0.27648 0.18469 0.44022 0.0
O129 O 0.24092 0.24747 0.45492 0.0
O130 O 0.30738 0.08957 0.49222 0.0
O131 O 0.25493 0.23288 0.59092 0.0
O132 O 0.2908 0.16996 0.57678 0.0
C133 C 0.26778 0.22709 0.42753 0.0
C134 C 0.152 0.10177 0.51499 0.0
O135 O 0.19163 0.08909 0.50388 0.0
O136 O 0.15276 0.14865 0.52171 0.0
C137 C 0.31013 0.05387 0.52231 0.0
O138 O 0.28127 0.04533 0.56086 0.0
C139 C 0.28498 0.20655 0.60632 0.0
Zn140 Zn 0.08722 0.08716 0.78892 0.0
Zn141 Zn 0.1587 0.03851 0.8163 0.0
O142 O 0.11018 0.02451 0.87485 0.0
O143 O 0.05026 0.06329 0.85437 0.0
O144 O 0.20467 -0.00611 0.8351 0.0
O145 O 0.06595 0.04455 0.72017 0.0
O146 O 0.12826 0.00889 0.74193 0.0
C147 C 0.06888 0.03489 0.8843 0.0
C148 C 0.19523 0.14912 0.7973 0.0
O149 O 0.20701 0.10951 0.81374 0.0
O150 O 0.14907 0.14851 0.78622 0.0
C151 C 0.24039 0.99151 0.80778 0.0
O152 O 0.24916 0.02097 0.76834 0.0
C153 C 0.09243 0.0142 0.70914 0.0
Zn154 Zn 0.3931 0.88957 0.01168 0.0
Zn155 Zn 0.30346 0.9137 -0.01054 0.0
O156 O 0.31197 0.87644 0.92165 0.0
O157 O 0.38005 0.8491 0.94305 0.0
O158 O 0.23526 0.9271 0.97957 0.0
O159 O 0.37009 0.85253 0.07379 0.0
O160 O 0.29624 0.86821 0.05117 0.0
C161 C 0.34296 0.85057 0.91078 0.0
C162 C 0.39685 -0.00192 0.01258 0.0
O163 O 0.34938 0.9848 0.00223 0.0
O164 O 0.42208 0.96522 0.01656 0.0
C165 C 0.22005 0.94986 0.01677 0.0
O166 O 0.24975 0.96548 0.06045 0.0
C167 C 0.32416 0.84707 0.08024 0.0
Zn168 Zn 0.32879 0.31902 0.04505 0.0
Zn169 Zn 0.28003 0.39127 0.06638 0.0
O170 O 0.25385 0.35821 -0.0085 0.0
O171 O 0.29114 0.2975 0.97303 0.0
O172 O 0.22622 0.43036 0.08067 0.0
O173 O 0.31004 0.28335 0.11224 0.0
O174 O 0.27659 0.34647 0.13216 0.0
C175 C 0.26108 0.32436 0.9593 0.0
C176 C 0.39116 0.42581 0.0507 0.0
O177 O 0.35173 0.43976 0.06161 0.0
O178 O 0.38992 0.37888 0.04465 0.0
C179 C 0.19336 0.43804 0.04537 0.0
O180 O 0.19769 0.42806 -0.00438 0.0
C181 C 0.2885 0.30539 0.14433 0.0
Zn182 Zn 0.73315 0.23944 0.04899 0.0
Zn183 Zn 0.81238 0.19355 0.06043 0.0
O184 O 0.79856 0.21126 0.98537 0.0
O185 O 0.74265 0.25725 0.97541 0.0
O186 O 0.87542 0.16919 0.06281 0.0
O187 O 0.76501 0.28861 0.10973 0.0
O188 O 0.82411 0.24661 0.12055 0.0
C189 C 0.77278 0.23475 0.95643 0.0
C190 C 0.71313 0.12807 0.06838 0.0
O191 O 0.76004 0.13164 0.07322 0.0
O192 O 0.69542 0.16618 0.05879 0.0
C193 C 0.87744 0.13274 0.03118 0.0
O194 O 0.839 0.11284 -0.00383 0.0
C195 C 0.80407 0.28161 0.13517 0.0
Zn196 Zn 0.01501 0.52034 0.29019 0.0
Zn197 Zn 0.0957 0.4793 0.2821 0.0
O198 O 0.07363 0.46521 0.35499 0.0
O199 O 0.00861 0.49812 0.36342 0.0
O200 O 0.14795 0.43961 0.27303 0.0
O201 O 0.97791 0.48087 0.22399 0.0
O202 O 0.04882 0.45937 0.21419 0.0
C203 C 0.04158 0.47688 0.38293 0.0
C204 C 0.11313 0.59167 0.28665 0.0
O205 O 0.13105 0.55277 0.28485 0.0
O206 O 0.0662 0.58764 0.28621 0.0
C207 C 0.19129 0.44371 0.29755 0.0
O208 O 0.20862 0.47865 0.33612 0.0
C209 C 0.0046 0.46078 0.19623 0.0
Zn210 Zn 0.8288 0.81902 0.54506 0.0
Zn211 Zn 0.78004 0.89126 0.56638 0.0
O212 O 0.75386 0.85821 0.4915 0.0
O213 O 0.79115 0.7975 0.47303 0.0
O214 O 0.72621 0.93035 0.58067 0.0
O215 O 0.81004 0.78335 0.61224 0.0
O216 O 0.7766 0.84647 0.63216 0.0
C217 C 0.76109 0.82435 0.4593 0.0
C218 C 0.89116 0.92581 0.5507 0.0
O219 O 0.85173 0.93976 0.56161 0.0
O220 O 0.88993 0.87888 0.54465 0.0
C221 C 0.69335 0.93802 0.54536 0.0
O222 O 0.69768 0.92803 0.49562 0.0
C223 C 0.7885 0.80539 0.64433 0.0
Zn224 Zn 0.98033 0.96418 0.26805 0.0
Zn225 Zn 0.91187 0.01637 0.23893 0.0
O226 O 0.94435 0.04108 0.31435 0.0
O227 O 0.00533 0.00434 0.33769 0.0
O228 O 0.87665 0.07273 0.22158 0.0
O229 O 0.01342 0.97645 0.19913 0.0
O230 O 0.95575 0.01726 0.17576 0.0
C231 C 0.97827 0.03415 0.34858 0.0
C232 C 0.87177 0.90785 0.26184 0.0
O233 O 0.86021 0.94738 0.24414 0.0
O234 O 0.91756 0.90755 0.27305 0.0
C235 C 0.85863 0.09606 0.25625 0.0
O236 O 0.85518 0.07861 0.30334 0.0
C237 C -0.00642 0.00058 0.16525 0.0
Zn238 Zn 0.23316 0.73947 0.54895 0.0
Zn239 Zn 0.31239 0.69357 0.56041 0.0
O240 O 0.29859 0.71129 0.48535 0.0
O241 O 0.2427 0.75729 0.47538 0.0
O242 O 0.37543 0.6692 0.56281 0.0
O243 O 0.26501 0.78862 0.60971 0.0
O244 O 0.32411 0.74663 0.62053 0.0
C245 C 0.27282 0.73479 0.45641 0.0
C246 C 0.21313 0.62809 0.56832 0.0
O247 O 0.26004 0.63166 0.5732 0.0
O248 O 0.19542 0.66621 0.55872 0.0
C249 C 0.37744 0.63275 0.53117 0.0
O250 O 0.33901 0.61286 0.49616 0.0
C251 C 0.30407 0.78162 0.63515 0.0
Zn252 Zn 0.48032 0.46418 0.76804 0.0
Zn253 Zn 0.41187 0.51638 0.73892 0.0
O254 O 0.44434 0.54108 0.81434 0.0
O255 O 0.50532 0.50434 0.83769 0.0
O256 O 0.37665 0.57274 0.72157 0.0
O257 O 0.5134 0.47645 0.69913 0.0
O258 O 0.45574 0.51726 0.67575 0.0
C259 C 0.47826 0.53415 0.84858 0.0
C260 C 0.37176 0.40786 0.76183 0.0
O261 O 0.3602 0.44739 0.74414 0.0
O262 O 0.41755 0.40756 0.77304 0.0
C263 C 0.35863 0.59608 0.75624 0.0
O264 O 0.35518 0.57863 0.80333 0.0
C265 C 0.49358 0.50058 0.66525 0.0
Zn266 Zn 0.51501 0.02031 0.79018 0.0
Zn267 Zn 0.59571 0.97928 0.78209 0.0
O268 O 0.57365 0.9652 0.85499 0.0
O269 O 0.50863 -0.00191 0.86342 0.0
O270 O 0.64796 0.93961 0.77301 0.0
O271 O 0.4779 0.98083 0.72399 0.0
O272 O 0.54882 0.95935 0.71418 0.0
C273 C 0.5416 0.97687 0.88293 0.0
C274 C 0.61312 0.09166 0.78663 0.0
O275 O 0.63104 0.05276 0.78483 0.0
O276 O 0.56619 0.08762 0.78619 0.0
C277 C 0.6913 0.94371 0.79754 0.0
O278 O 0.70862 0.97864 0.83612 0.0
C279 C 0.50459 0.96075 0.69623 0.0
Zn280 Zn 0.71464 0.71057 0.02029 0.0
Zn281 Zn 0.76267 0.63705 0.0027 0.0
O282 O 0.77647 0.68469 0.94022 0.0
O283 O 0.74092 0.74747 0.95493 0.0
O284 O 0.80737 0.58956 -0.00779 0.0
O285 O 0.75493 0.73287 0.09092 0.0
O286 O 0.7908 0.66996 0.07678 0.0
C287 C 0.76777 0.72709 0.92753 0.0
C288 C 0.65199 0.60177 0.01499 0.0
O289 O 0.69163 0.58909 0.00388 0.0
O290 O 0.65276 0.64865 0.02171 0.0
C291 C 0.81012 0.55387 0.0223 0.0
O292 O 0.78127 0.54533 0.06085 0.0
C293 C 0.78499 0.70654 0.10632 0.0
Zn294 Zn 0.91694 0.42983 0.81263 0.0
Zn295 Zn 0.8642 0.48707 0.82435 0.0
O296 O 0.89931 0.47773 0.89604 0.0
O297 O 0.96897 0.46175 0.87218 0.0
O298 O 0.82513 0.5385 0.83498 0.0
O299 O 0.9221 0.45133 0.73907 0.0
O300 O 0.90987 0.52238 0.772 0.0
C301 C 0.94383 0.47282 0.90775 0.0
C302 C 0.81917 0.37821 0.79974 0.0
O303 O 0.81562 0.42293 0.79063 0.0
O304 O 0.85881 0.37197 0.82475 0.0
C305 C 0.80932 0.55767 0.79416 0.0
O306 O 0.81047 0.53651 0.74739 0.0
C307 C 0.92213 0.49748 0.73473 0.0
Zn308 Zn 0.89309 0.38955 0.5117 0.0
Zn309 Zn 0.80345 0.41368 0.48948 0.0
O310 O 0.81196 0.37642 0.42167 0.0
O311 O 0.88004 0.34908 0.44307 0.0
O312 O 0.73526 0.42709 0.47958 0.0
O313 O 0.87008 0.35251 0.57381 0.0
O314 O 0.79623 0.3682 0.55119 0.0
C315 C 0.84295 0.35055 0.4108 0.0
C316 C 0.89685 0.49806 0.51259 0.0
O317 O 0.84938 0.48478 0.50223 0.0
O318 O 0.92208 0.4652 0.51658 0.0
C319 C 0.72005 0.44985 0.51678 0.0
O320 O 0.74974 0.46547 0.56047 0.0
C321 C 0.82415 0.34706 0.58027 0.0
Zn322 Zn 0.58723 0.58716 0.28892 0.0
Zn323 Zn 0.65871 0.53851 0.3163 0.0
O324 O 0.61018 0.52451 0.37485 0.0
O325 O 0.55027 0.56329 0.35437 0.0
O326 O 0.70467 0.49388 0.33511 0.0
O327 O 0.56596 0.54455 0.22017 0.0
O328 O 0.62826 0.50889 0.24193 0.0
C329 C 0.56888 0.53488 0.3843 0.0
C330 C 0.69524 0.64911 0.29731 0.0
O331 O 0.70702 0.6095 0.31374 0.0
O332 O 0.64908 0.6485 0.28622 0.0
C333 C 0.74039 0.4915 0.30779 0.0
O334 O 0.74917 0.52096 0.26835 0.0
C335 C 0.59244 0.5142 0.20914 0.0
Zn336 Zn 0.07525 0.96238 0.03531 0.0
Zn337 Zn -0.00717 0.05988 0.00626 0.0
C338 C 0.03184 0.85917 0.06198 0.0
O339 O 0.01321 0.88285 0.0979 0.0
C340 C 0.06068 0.15436 0.97264 0.0
O341 O 0.10587 0.18526 0.97528 0.0
O342 O 0.14986 0.97229 0.05059 0.0
O343 O 0.0706 -0.00246 0.96649 0.0
O344 O 0.00138 0.02124 0.93993 0.0
C345 C 0.16795 0.95402 0.01237 0.0
O346 O 0.1381 0.93446 0.96976 0.0
O347 O 0.05398 0.88445 0.02622 0.0
C348 C 0.92246 0.11306 0.034 0.0
O349 O 0.95921 0.13067 0.07153 0.0
O350 O 0.92751 0.08082 -0.00113 0.0
O351 O -0.00788 0.03077 0.07888 0.0
O352 O 0.0455 0.98357 0.10057 0.0
O353 O 0.05232 0.12026 0.006 0.0
C354 C 0.04513 0.01634 0.93221 0.0
C355 C 0.01211 0.0061 0.11234 0.0
Zn356 Zn 0.2393 0.714 0.29659 0.0
Zn357 Zn 0.30045 0.74645 0.20143 0.0
C358 C 0.14755 0.6417 0.29148 0.0
O359 O 0.13033 0.68268 0.29391 0.0
C360 C 0.28865 0.83556 0.26606 0.0
O361 O 0.25667 0.84399 0.22826 0.0
O362 O 0.24418 0.7461 0.36858 0.0
O363 O 0.30732 0.70196 0.29029 0.0
O364 O 0.35024 0.70477 0.22289 0.0
C365 C 0.26958 0.72466 0.40016 0.0
O366 O 0.28419 0.68499 0.38316 0.0
O367 O 0.19455 0.64552 0.29495 0.0
C368 C 0.30239 0.81402 0.11977 0.0
O369 O 0.25468 0.80773 0.1268 0.0
O370 O 0.32914 0.78954 0.1457 0.0
O371 O 0.22767 0.71303 0.1752 0.0
O372 O 0.20194 0.74744 0.24337 0.0
O373 O 0.30612 0.79653 0.26263 0.0
C374 C 0.34612 0.696 0.27075 0.0
C375 C 0.19419 0.73006 0.19589 0.0
Zn376 Zn 0.42775 0.98161 0.55449 0.0
Zn377 Zn 0.53465 0.94114 0.53238 0.0
C378 C 0.47086 0.08201 0.58522 0.0
O379 O 0.43815 0.06864 0.61968 0.0
C380 C 0.50537 0.86209 0.45667 0.0
O381 O 0.53371 0.89846 0.43241 0.0
O382 O 0.3598 -0.00171 0.55344 0.0
O383 O 0.42979 0.94169 0.4901 0.0
O384 O 0.50721 0.98358 0.47923 0.0
C385 C 0.35087 0.02814 0.51865 0.0
O386 O 0.38313 0.04211 0.48393 0.0
O387 O 0.47619 0.04905 0.55142 0.0
C388 C 0.64568 0.94809 0.56008 0.0
O389 O 0.63738 0.95022 0.60979 0.0
O390 O 0.60968 0.94631 0.52428 0.0
O391 O 0.5244 0.95117 0.60955 0.0
O392 O 0.44579 0.95343 0.62204 0.0
O393 O 0.4994 0.86995 0.50476 0.0
C394 C 0.46077 0.96824 0.46221 0.0
C395 C 0.48982 0.95108 0.63967 0.0
Zn396 Zn 0.33168 0.25423 0.76731 0.0
Zn397 Zn 0.23716 0.30269 0.7894 0.0
C398 C 0.31037 0.21558 0.66001 0.0
O399 O 0.33749 0.18489 0.67764 0.0
C400 C 0.23919 0.32122 0.90429 0.0
O401 O 0.20303 0.34383 0.8919 0.0
O402 O 0.40185 0.2408 0.76452 0.0
O403 O 0.34706 0.32739 0.79717 0.0
O404 O 0.28737 0.35505 0.75398 0.0
C405 C 0.43084 0.27715 0.74358 0.0
O406 O 0.41249 0.31436 0.72619 0.0
O407 O 0.30261 0.24986 0.69119 0.0
C408 C 0.13628 0.28657 0.79428 0.0
O409 O 0.14765 0.24541 0.81102 0.0
O410 O 0.17125 0.32305 0.78268 0.0
O411 O 0.22122 0.22906 0.7604 0.0
O412 O 0.28095 0.20105 0.80377 0.0
O413 O 0.25967 0.30289 0.86795 0.0
C414 C 0.33329 0.36156 0.77117 0.0
C415 C 0.23444 0.19542 0.78783 0.0
Zn416 Zn 0.04628 0.96516 0.54783 0.0
Zn417 Zn 0.00039 0.0593 0.51827 0.0
C418 C 0.08432 0.98773 0.65686 0.0
O419 O 0.114 0.95886 0.64438 0.0
C420 C 0.98101 0.0559 0.40261 0.0
O421 O 0.95713 0.09118 0.41179 0.0
O422 O 0.06262 0.89625 0.55709 0.0
O423 O 0.97213 0.94581 0.52057 0.0
O424 O 0.9469 0.00979 0.55433 0.0
C425 C 0.03619 0.85457 0.534 0.0
O426 O 0.00154 0.85555 0.4955 0.0
O427 O 0.0517 -0.00395 0.62203 0.0
C428 C 0.01633 0.16136 0.50216 0.0
O429 O 0.05485 0.14944 0.48292 0.0
O430 O 0.98304 0.12684 0.51986 0.0
O431 O 0.0731 0.077 0.54955 0.0
O432 O 0.09813 0.01598 0.50938 0.0
O433 O 6e-05 0.03587 0.4411 0.0
C434 C 0.93887 0.96256 0.542 0.0
C435 C 0.10557 0.06291 0.5242 0.0
Zn436 Zn 0.2962 0.86566 0.77361 0.0
Zn437 Zn 0.36291 0.75295 0.78782 0.0
C438 C 0.19561 0.82705 0.75565 0.0
O439 O 0.20689 0.86287 0.72242 0.0
C440 C 0.46077 0.81688 0.81784 0.0
O441 O 0.4482 0.85815 0.80283 0.0
O442 O 0.28877 0.93745 0.77745 0.0
O443 O 0.35198 0.85629 0.82194 0.0
O444 O 0.34178 0.78109 0.85345 0.0
C445 C 0.26361 0.94877 0.81331 0.0
O446 O 0.24924 0.9159 0.84866 0.0
O447 O 0.23031 0.81954 0.78819 0.0
C448 C 0.35371 0.64818 0.74792 0.0
O449 O 0.36763 0.66981 0.70475 0.0
O450 O 0.34615 0.67547 0.78649 0.0
O451 O 0.33597 0.77917 0.72204 0.0
O452 O 0.30433 0.84443 0.70072 0.0
O453 O 0.43802 0.77441 0.7945 0.0
C454 C 0.33969 0.82717 0.85845 0.0
C455 C 0.31836 0.80483 0.68794 0.0
Zn456 Zn 0.57934 0.03346 0.03787 0.0
Zn457 Zn 0.49184 0.01725 0.09951 0.0
C458 C 0.67808 0.07893 0.0685 0.0
O459 O 0.66305 0.06309 0.1136 0.0
C460 C 0.42343 0.05153 0.02018 0.0
O461 O 0.40578 0.0861 -0.00443 0.0
O462 O 0.54014 0.01401 0.96713 0.0
O463 O 0.58049 0.96696 0.07108 0.0
O464 O 0.49886 0.95145 0.06828 0.0
C465 C 0.5532 0.98012 0.93988 0.0
O466 O 0.58981 0.96102 0.95973 0.0
O467 O 0.64935 0.06375 0.02642 0.0
C468 C 0.43984 0.02181 0.18832 0.0
O469 O 0.46024 0.07096 0.19003 0.0
O470 O 0.44404 -0.00674 0.14972 0.0
O471 O 0.55163 0.05758 0.14616 0.0
O472 O 0.56513 0.09651 0.07461 0.0
O473 O 0.46389 0.06477 0.05096 0.0
C474 C 0.53784 0.93531 0.06559 0.0
C475 C 0.564 0.09883 0.12397 0.0
Zn476 Zn 0.31998 0.21148 0.27237 0.0
Zn477 Zn 0.25538 0.3225 0.3104 0.0
C478 C 0.41857 0.23944 0.23653 0.0
O479 O 0.39128 0.24559 0.19363 0.0
C480 C 0.1799 0.30828 0.37124 0.0
O481 O 0.21889 0.33916 0.39861 0.0
O482 O 0.3013 0.13519 0.25847 0.0
O483 O 0.29276 0.21992 0.3422 0.0
O484 O 0.29336 0.29732 0.3723 0.0
C485 C 0.30526 0.11015 0.29917 0.0
O486 O 0.31767 0.13447 0.34562 0.0
O487 O 0.3972 0.22768 0.27816 0.0
C488 C 0.21707 0.40348 0.2873 0.0
O489 O 0.19594 0.36774 0.25041 0.0
O490 O 0.25277 0.39663 0.31935 0.0
O491 O 0.26968 0.31328 0.23331 0.0
O492 O 0.29806 0.24689 0.20881 0.0
O493 O 0.18456 0.29064 0.32547 0.0
C494 C 0.28547 0.24969 0.37831 0.0
C495 C 0.28306 0.28647 0.19794 0.0
Zn496 Zn 0.54628 0.46516 0.04784 0.0
Zn497 Zn 0.50038 0.5593 0.01827 0.0
C498 C 0.58432 0.48772 0.15686 0.0
O499 O 0.614 0.45885 0.14438 0.0
C500 C 0.48101 0.55589 0.9026 0.0
O501 O 0.45712 0.59117 0.91179 0.0
O502 O 0.56262 0.39625 0.05709 0.0
O503 O 0.47213 0.44581 0.02057 0.0
O504 O 0.4469 0.50979 0.05433 0.0
C505 C 0.53619 0.35457 0.034 0.0
O506 O 0.50153 0.35555 -0.0045 0.0
O507 O 0.5517 0.49605 0.12204 0.0
C508 C 0.51632 0.66136 0.00215 0.0
O509 O 0.55484 0.64944 0.98291 0.0
O510 O 0.48304 0.62684 0.01985 0.0
O511 O 0.57309 0.577 0.04955 0.0
O512 O 0.59813 0.51598 0.00938 0.0
O513 O 0.50006 0.53587 0.9411 0.0
C514 C 0.43886 0.46256 0.042 0.0
C515 C 0.60556 0.56291 0.0242 0.0
Zn516 Zn 0.7962 0.36565 0.27362 0.0
Zn517 Zn 0.86291 0.25293 0.28783 0.0
C518 C 0.69561 0.32703 0.25564 0.0
O519 O 0.7069 0.36286 0.22241 0.0
C520 C 0.96076 0.31687 0.31786 0.0
O521 O 0.94819 0.35813 0.30284 0.0
O522 O 0.78877 0.43744 0.27747 0.0
O523 O 0.85198 0.35627 0.32196 0.0
O524 O 0.84177 0.28107 0.35346 0.0
C525 C 0.76361 0.44876 0.31332 0.0
O526 O 0.74924 0.41588 0.34867 0.0
O527 O 0.73031 0.31952 0.28819 0.0
C528 C 0.85371 0.14817 0.24793 0.0
O529 O 0.86763 0.1698 0.20476 0.0
O530 O 0.84614 0.17545 0.28651 0.0
O531 O 0.83598 0.27916 0.22205 0.0
O532 O 0.80434 0.34442 0.20074 0.0
O533 O 0.93801 0.27439 0.29453 0.0
C534 C 0.83968 0.32715 0.35847 0.0
C535 C 0.81837 0.30482 0.18795 0.0
Zn536 Zn 0.07932 0.53348 0.53786 0.0
Zn537 Zn -0.00816 0.51725 0.59951 0.0
C538 C 0.17807 0.57896 0.56845 0.0
O539 O 0.16307 0.56311 0.61356 0.0
C540 C 0.92343 0.55151 0.52018 0.0
O541 O 0.90578 0.58608 0.49556 0.0
O542 O 0.04011 0.51402 0.46713 0.0
O543 O 0.0805 0.46698 0.57107 0.0
O544 O -0.00113 0.45146 0.5683 0.0
C545 C 0.05316 0.48013 0.43988 0.0
O546 O 0.08978 0.46104 0.45973 0.0
O547 O 0.14932 0.56379 0.52638 0.0
C548 C 0.93983 0.52181 0.68832 0.0
O549 O 0.96023 0.57096 0.69003 0.0
O550 O 0.94404 0.49326 0.64972 0.0
O551 O 0.05163 0.55758 0.64616 0.0
O552 O 0.06512 0.59652 0.57462 0.0
O553 O 0.96389 0.56476 0.55096 0.0
C554 C 0.03786 0.43532 0.5656 0.0
C555 C 0.06399 0.59884 0.62398 0.0
Zn556 Zn 0.83169 0.75422 0.26731 0.0
Zn557 Zn 0.73718 0.80268 0.2894 0.0
C558 C 0.81038 0.71557 0.16001 0.0
O559 O 0.83749 0.68489 0.17764 0.0
C560 C 0.7392 0.82122 0.40428 0.0
O561 O 0.70304 0.84383 0.3919 0.0
O562 O 0.90187 0.74079 0.26452 0.0
O563 O 0.84707 0.82738 0.29718 0.0
O564 O 0.78738 0.85504 0.25398 0.0
C565 C 0.93085 0.77715 0.24358 0.0
O566 O 0.9125 0.81435 0.22619 0.0
O567 O 0.80262 0.74985 0.19119 0.0
C568 C 0.63629 0.78657 0.29428 0.0
O569 O 0.64767 0.74541 0.31103 0.0
O570 O 0.67126 0.82305 0.28268 0.0
O571 O 0.72124 0.72905 0.2604 0.0
O572 O 0.78096 0.70104 0.30377 0.0
O573 O 0.75968 0.80288 0.36794 0.0
C574 C 0.8333 0.86155 0.27118 0.0
C575 C 0.73446 0.69541 0.28783 0.0
Zn576 Zn 0.73927 0.214 0.7966 0.0
Zn577 Zn 0.80043 0.24645 0.70146 0.0
C578 C 0.64753 0.14169 0.79147 0.0
O579 O 0.6303 0.18267 0.7939 0.0
C580 C 0.78864 0.33557 0.76609 0.0
O581 O 0.75666 0.344 0.72828 0.0
O582 O 0.74414 0.24608 0.8686 0.0
O583 O 0.80731 0.20196 0.79033 0.0
O584 O 0.85022 0.20478 0.72292 0.0
C585 C 0.76954 0.22463 0.90018 0.0
O586 O 0.78415 0.18496 0.88317 0.0
O587 O 0.69453 0.14552 0.79495 0.0
C588 C 0.80238 0.31402 0.61979 0.0
O589 O 0.75466 0.30773 0.62682 0.0
O590 O 0.82913 0.28954 0.64573 0.0
O591 O 0.72765 0.21303 0.67523 0.0
O592 O 0.70193 0.24745 0.7434 0.0
O593 O 0.80611 0.29653 0.76266 0.0
C594 C 0.8461 0.19601 0.77078 0.0
C595 C 0.69418 0.23006 0.69591 0.0
Zn596 Zn 0.81998 0.71148 0.77237 0.0
Zn597 Zn 0.75539 0.8225 0.8104 0.0
C598 C 0.91857 0.73946 0.73654 0.0
O599 O 0.89128 0.74562 0.69365 0.0
C600 C 0.6799 0.80829 0.87123 0.0
O601 O 0.71889 0.83917 0.89861 0.0
O602 O 0.8013 0.63519 0.75848 0.0
O603 O 0.79275 0.71992 0.8422 0.0
O604 O 0.79336 0.79733 0.8723 0.0
C605 C 0.80527 0.61016 0.79918 0.0
O606 O 0.81769 0.63449 0.84562 0.0
O607 O 0.8972 0.72769 0.77817 0.0
C608 C 0.71709 0.90349 0.78729 0.0
O609 O 0.69597 0.86775 0.75039 0.0
O610 O 0.75278 0.89663 0.81935 0.0
O611 O 0.76968 0.81328 0.73331 0.0
O612 O 0.79805 0.74689 0.7088 0.0
O613 O 0.68456 0.79065 0.82546 0.0
C614 C 0.78546 0.74969 0.87832 0.0
C615 C 0.78306 0.78647 0.69794 0.0
Zn616 Zn 0.57524 0.46237 0.53531 0.0
Zn617 Zn 0.49283 0.55988 0.50625 0.0
C618 C 0.53183 0.35916 0.56198 0.0
O619 O 0.51319 0.38284 0.59789 0.0
C620 C 0.56068 0.65436 0.47263 0.0
O621 O 0.60587 0.68526 0.47527 0.0
O622 O 0.64985 0.47229 0.5506 0.0
O623 O 0.57059 0.49753 0.46649 0.0
O624 O 0.50138 0.52124 0.43993 0.0
C625 C 0.66794 0.45401 0.51238 0.0
O626 O 0.6381 0.43445 0.46976 0.0
O627 O 0.55397 0.38444 0.52622 0.0
C628 C 0.42247 0.61307 0.534 0.0
O629 O 0.45921 0.63068 0.57153 0.0
O630 O 0.42752 0.58083 0.49887 0.0
O631 O 0.49212 0.53077 0.57888 0.0
O632 O 0.54549 0.48356 0.60056 0.0
O633 O 0.55233 0.62026 0.506 0.0
C634 C 0.54513 0.51633 0.43221 0.0
C635 C 0.5121 0.5061 0.61233 0.0
Zn636 Zn 0.92775 0.48162 0.05449 0.0
Zn637 Zn 0.03466 0.44116 0.03239 0.0
C638 C 0.97086 0.58202 0.0852 0.0
O639 O 0.93815 0.56865 0.11967 0.0
C640 C 0.00538 0.3621 0.95669 0.0
O641 O 0.03372 0.39847 0.93242 0.0
O642 O 0.8598 0.4983 0.05343 0.0
O643 O 0.9298 0.44169 -0.0099 0.0
O644 O 0.00722 0.4836 0.97923 0.0
C645 C 0.85087 0.52815 0.01864 0.0
O646 O 0.88313 0.54211 0.98392 0.0
O647 O 0.97619 0.54906 0.05141 0.0
C648 C 0.14569 0.4481 0.06008 0.0
O649 O 0.13738 0.45023 0.10979 0.0
O650 O 0.10969 0.44634 0.02429 0.0
O651 O 0.02441 0.4512 0.10956 0.0
O652 O 0.9458 0.45345 0.12203 0.0
O653 O -0.00059 0.36997 0.00478 0.0
C654 C 0.96078 0.46824 0.9622 0.0
C655 C -0.01018 0.4511 0.13967 0.0
loop_
_geom_bond_atom_site_label_1
_geom_bond_atom_site_label_2
_geom_bond_distance
_geom_bond_site_symmetry_2
_ccdc_geom_bond_type
Zn0 O3 2.031 1_655 S
Zn0 O5 2.049 . S
Zn0 O10 2.067 . S
Zn1 O2 1.962 . S
Zn1 O4 1.986 . S
Zn1 O6 1.996 . S
Zn1 O9 1.943 . S
O2 Zn1 1.962 . S
O2 C7 1.254 . S
O3 Zn0 2.031 1_455 S
O3 C7 1.269 . S
O4 Zn1 1.986 . S
O4 C11 1.262 . S
O5 Zn0 2.049 . S
O5 C13 1.260 1_655 S
O6 Zn1 1.996 . S
O6 C13 1.257 . S
C7 O2 1.254 . S
C7 O3 1.269 . S
C8 O9 1.249 1_655 S
C8 O10 1.270 . S
O9 Zn1 1.943 . S
O9 C8 1.249 1_455 S
O10 Zn0 2.067 . S
O10 C8 1.270 . S
C11 O4 1.262 . S
C11 O12 1.232 . S
O12 C11 1.232 . S
C13 O5 1.260 1_455 S
C13 O6 1.257 . S
Zn14 O17 2.031 1_455 S
Zn14 O19 2.049 . S
Zn14 O24 2.067 . S
Zn15 O16 1.962 1_455 S
Zn15 O18 1.986 . S
Zn15 O20 1.996 . S
Zn15 O23 1.943 . S
O16 Zn15 1.962 1_655 S
O16 C21 1.254 . S
O17 Zn14 2.031 1_655 S
O17 C21 1.269 . S
O18 Zn15 1.986 . S
O18 C25 1.262 . S
O19 Zn14 2.049 . S
O19 C27 1.260 . S
O20 Zn15 1.996 . S
O20 C27 1.257 . S
C21 O16 1.254 . S
C21 O17 1.269 . S
C22 O23 1.249 . S
C22 O24 1.270 . S
O23 Zn15 1.943 . S
O23 C22 1.249 . S
O24 Zn14 2.067 . S
O24 C22 1.270 . S
C25 O18 1.262 . S
C25 O26 1.232 1_455 S
O26 C25 1.232 1_655 S
C27 O19 1.260 . S
C27 O20 1.257 . S
Zn28 O31 2.031 1_554 S
Zn28 O33 2.049 . S
Zn28 O38 2.067 1_554 S
Zn29 O30 1.962 . S
Zn29 O32 1.986 . S
Zn29 O34 1.996 . S
Zn29 O37 1.943 . S
O30 Zn29 1.962 . S
O30 C35 1.254 1_556 S
O31 Zn28 2.031 1_556 S
O31 C35 1.269 1_556 S
O32 Zn29 1.986 . S
O32 C39 1.262 . S
O33 Zn28 2.049 . S
O33 C41 1.260 . S
O34 Zn29 1.996 . S
O34 C41 1.257 1_556 S
C35 O30 1.254 1_554 S
C35 O31 1.269 1_554 S
C36 O37 1.249 . S
C36 O38 1.270 . S
O37 Zn29 1.943 . S
O37 C36 1.249 . S
O38 Zn28 2.067 1_556 S
O38 C36 1.270 . S
C39 O32 1.262 . S
C39 O40 1.232 . S
O40 C39 1.232 . S
C41 O33 1.260 . S
C41 O34 1.257 1_554 S
Zn42 O45 2.031 . S
Zn42 O47 2.049 . S
Zn42 O52 2.067 . S
Zn43 O44 1.962 . S
Zn43 O46 1.986 . S
Zn43 O48 1.996 . S
Zn43 O51 1.943 . S
O44 Zn43 1.962 . S
O44 C49 1.254 . S
O45 Zn42 2.031 . S
O45 C49 1.269 . S
O46 Zn43 1.986 . S
O46 C53 1.262 . S
O47 Zn42 2.049 . S
O47 C55 1.260 . S
O48 Zn43 1.996 . S
O48 C55 1.257 . S
C49 O44 1.254 . S
C49 O45 1.269 . S
C50 O51 1.249 . S
C50 O52 1.270 . S
O51 Zn43 1.943 . S
O51 C50 1.249 . S
O52 Zn42 2.067 . S
O52 C50 1.270 . S
C53 O46 1.262 . S
C53 O54 1.232 . S
O54 C53 1.232 . S
C55 O47 1.260 . S
C55 O48 1.257 . S
Zn56 O59 2.031 . S
Zn56 O61 2.049 . S
Zn56 O66 2.067 . S
Zn57 O58 1.962 . S
Zn57 O60 1.986 1_455 S
Zn57 O62 1.996 . S
Zn57 O65 1.943 . S
O58 Zn57 1.962 . S
O58 C63 1.254 . S
O59 Zn56 2.031 . S
O59 C63 1.269 . S
O60 Zn57 1.986 1_655 S
O60 C67 1.262 . S
O61 Zn56 2.049 . S
O61 C69 1.260 . S
O62 Zn57 1.996 . S
O62 C69 1.257 . S
C63 O58 1.254 . S
C63 O59 1.269 . S
C64 O65 1.249 . S
C64 O66 1.270 . S
O65 Zn57 1.943 . S
O65 C64 1.249 . S
O66 Zn56 2.067 . S
O66 C64 1.270 . S
C67 O60 1.262 . S
C67 O68 1.232 1_655 S
O68 C67 1.232 1_455 S
C69 O61 1.260 . S
C69 O62 1.257 . S
Zn70 O73 2.031 . S
Zn70 O75 2.049 . S
Zn70 O80 2.067 . S
Zn71 O72 1.962 . S
Zn71 O74 1.986 . S
Zn71 O76 1.996 . S
Zn71 O79 1.943 . S
O72 Zn71 1.962 . S
O72 C77 1.254 . S
O73 Zn70 2.031 . S
O73 C77 1.269 . S
O74 Zn71 1.986 . S
O74 C81 1.262 . S
O75 Zn70 2.049 . S
O75 C83 1.260 . S
O76 Zn71 1.996 . S
O76 C83 1.257 . S
C77 O72 1.254 . S
C77 O73 1.269 . S
C78 O79 1.249 . S
C78 O80 1.270 . S
O79 Zn71 1.943 . S
O79 C78 1.249 . S
O80 Zn70 2.067 . S
O80 C78 1.270 . S
C81 O74 1.262 . S
C81 O82 1.232 . S
O82 C81 1.232 . S
C83 O75 1.260 . S
C83 O76 1.257 . S
Zn84 O87 2.031 . S
Zn84 O89 2.049 . S
Zn84 O94 2.067 . S
Zn85 O86 1.962 . S
Zn85 O88 1.986 . S
Zn85 O90 1.996 . S
Zn85 O93 1.943 . S
O86 Zn85 1.962 . S
O86 C91 1.254 . S
O87 Zn84 2.031 . S
O87 C91 1.269 . S
O88 Zn85 1.986 . S
O88 C95 1.262 . S
O89 Zn84 2.049 . S
O89 C97 1.260 . S
O90 Zn85 1.996 . S
O90 C97 1.257 . S
C91 O86 1.254 . S
C91 O87 1.269 . S
C92 O93 1.249 . S
C92 O94 1.270 . S
O93 Zn85 1.943 . S
O93 C92 1.249 . S
O94 Zn84 2.067 . S
O94 C92 1.270 . S
C95 O88 1.262 . S
C95 O96 1.232 . S
O96 C95 1.232 . S
C97 O89 1.260 . S
C97 O90 1.257 . S
Zn98 O101 2.031 . S
Zn98 O103 2.049 . S
Zn98 O108 2.067 . S
Zn99 O100 1.962 . S
Zn99 O102 1.986 . S
Zn99 O104 1.996 . S
Zn99 O107 1.943 1_455 S
O100 Zn99 1.962 . S
O100 C105 1.254 . S
O101 Zn98 2.031 . S
O101 C105 1.269 1_655 S
O102 Zn99 1.986 . S
O102 C109 1.262 . S
O103 Zn98 2.049 . S
O103 C111 1.260 . S
O104 Zn99 1.996 . S
O104 C111 1.257 1_455 S
C105 O100 1.254 . S
C105 O101 1.269 1_455 S
C106 O107 1.249 . S
C106 O108 1.270 . S
O107 Zn99 1.943 1_655 S
O107 C106 1.249 . S
O108 Zn98 2.067 . S
O108 C106 1.270 . S
C109 O102 1.262 . S
C109 O110 1.232 . S
O110 C109 1.232 . S
C111 O103 1.260 . S
C111 O104 1.257 1_655 S
Zn112 O115 2.031 . S
Zn112 O117 2.049 . S
Zn112 O122 2.067 . S
Zn113 O114 1.962 . S
Zn113 O116 1.986 . S
Zn113 O118 1.996 . S
Zn113 O121 1.943 1_545 S
O114 Zn113 1.962 . S
O114 C119 1.254 . S
O115 Zn112 2.031 . S
O115 C119 1.269 1_565 S
O116 Zn113 1.986 . S
O116 C123 1.262 . S
O117 Zn112 2.049 . S
O117 C125 1.260 1_565 S
O118 Zn113 1.996 . S
O118 C125 1.257 . S
C119 O114 1.254 . S
C119 O115 1.269 1_545 S
C120 O121 1.249 . S
C120 O122 1.270 . S
O121 Zn113 1.943 1_565 S
O121 C120 1.249 . S
O122 Zn112 2.067 . S
O122 C120 1.270 . S
C123 O116 1.262 . S
C123 O124 1.232 . S
O124 C123 1.232 . S
C125 O117 1.260 1_545 S
C125 O118 1.257 . S
Zn126 O129 2.031 . S
Zn126 O131 2.049 . S
Zn126 O136 2.067 . S
Zn127 O128 1.962 . S
Zn127 O130 1.986 . S
Zn127 O132 1.996 . S
Zn127 O135 1.943 . S
O128 Zn127 1.962 . S
O128 C133 1.254 . S
O129 Zn126 2.031 . S
O129 C133 1.269 . S
O130 Zn127 1.986 . S
O130 C137 1.262 . S
O131 Zn126 2.049 . S
O131 C139 1.260 . S
O132 Zn127 1.996 . S
O132 C139 1.257 . S
C133 O128 1.254 . S
C133 O129 1.269 . S
C134 O135 1.249 . S
C134 O136 1.270 . S
O135 Zn127 1.943 . S
O135 C134 1.249 . S
O136 Zn126 2.067 . S
O136 C134 1.270 . S
C137 O130 1.262 . S
C137 O138 1.232 . S
O138 C137 1.232 . S
C139 O131 1.260 . S
C139 O132 1.257 . S
Zn140 O143 2.031 . S
Zn140 O145 2.049 . S
Zn140 O150 2.067 . S
Zn141 O142 1.962 . S
Zn141 O144 1.986 1_545 S
Zn141 O146 1.996 . S
Zn141 O149 1.943 . S
O142 Zn141 1.962 . S
O142 C147 1.254 . S
O143 Zn140 2.031 . S
O143 C147 1.269 . S
O144 Zn141 1.986 1_565 S
O144 C151 1.262 . S
O145 Zn140 2.049 . S
O145 C153 1.260 . S
O146 Zn141 1.996 . S
O146 C153 1.257 . S
C147 O142 1.254 . S
C147 O143 1.269 . S
C148 O149 1.249 . S
C148 O150 1.270 . S
O149 Zn141 1.943 . S
O149 C148 1.249 . S
O150 Zn140 2.067 . S
O150 C148 1.270 . S
C151 O144 1.262 . S
C151 O152 1.232 . S
O152 C151 1.232 . S
C153 O145 1.260 . S
C153 O146 1.257 . S
Zn154 O157 2.031 1_554 S
Zn154 O159 2.049 . S
Zn154 O164 2.067 . S
Zn155 O156 1.962 1_554 S
Zn155 O158 1.986 . S
Zn155 O160 1.996 . S
Zn155 O163 1.943 . S
O156 Zn155 1.962 1_556 S
O156 C161 1.254 . S
O157 Zn154 2.031 1_556 S
O157 C161 1.269 . S
O158 Zn155 1.986 . S
O158 C165 1.262 . S
O159 Zn154 2.049 . S
O159 C167 1.260 . S
O160 Zn155 1.996 . S
O160 C167 1.257 . S
C161 O156 1.254 . S
C161 O157 1.269 . S
C162 O163 1.249 . S
C162 O164 1.270 . S
O163 Zn155 1.943 . S
O163 C162 1.249 . S
O164 Zn154 2.067 . S
O164 C162 1.270 . S
C165 O158 1.262 . S
C165 O166 1.232 1_554 S
O166 C165 1.232 1_556 S
C167 O159 1.260 . S
C167 O160 1.257 . S
Zn168 O171 2.031 . S
Zn168 O173 2.049 . S
Zn168 O178 2.067 . S
Zn169 O170 1.962 . S
Zn169 O172 1.986 . S
Zn169 O174 1.996 . S
Zn169 O177 1.943 . S
O170 Zn169 1.962 . S
O170 C175 1.254 1_554 S
O171 Zn168 2.031 . S
O171 C175 1.269 1_554 S
O172 Zn169 1.986 . S
O172 C179 1.262 . S
O173 Zn168 2.049 . S
O173 C181 1.260 . S
O174 Zn169 1.996 . S
O174 C181 1.257 . S
C175 O170 1.254 1_556 S
C175 O171 1.269 1_556 S
C176 O177 1.249 . S
C176 O178 1.270 . S
O177 Zn169 1.943 . S
O177 C176 1.249 . S
O178 Zn168 2.067 . S
O178 C176 1.270 . S
C179 O172 1.262 . S
C179 O180 1.232 . S
O180 C179 1.232 . S
C181 O173 1.260 . S
C181 O174 1.257 . S
Zn182 O185 2.031 . S
Zn182 O187 2.049 . S
Zn182 O192 2.067 . S
Zn183 O184 1.962 . S
Zn183 O186 1.986 . S
Zn183 O188 1.996 . S
Zn183 O191 1.943 . S
O184 Zn183 1.962 . S
O184 C189 1.254 1_554 S
O185 Zn182 2.031 . S
O185 C189 1.269 1_554 S
O186 Zn183 1.986 . S
O186 C193 1.262 . S
O187 Zn182 2.049 . S
O187 C195 1.260 . S
O188 Zn183 1.996 . S
O188 C195 1.257 . S
C189 O184 1.254 1_556 S
C189 O185 1.269 1_556 S
C190 O191 1.249 . S
C190 O192 1.270 . S
O191 Zn183 1.943 . S
O191 C190 1.249 . S
O192 Zn182 2.067 . S
O192 C190 1.270 . S
C193 O186 1.262 . S
C193 O194 1.232 . S
O194 C193 1.232 . S
C195 O187 1.260 . S
C195 O188 1.257 . S
Zn196 O199 2.031 . S
Zn196 O201 2.049 . S
Zn196 O206 2.067 . S
Zn197 O198 1.962 . S
Zn197 O200 1.986 . S
Zn197 O202 1.996 . S
Zn197 O205 1.943 . S
O198 Zn197 1.962 . S
O198 C203 1.254 . S
O199 Zn196 2.031 . S
O199 C203 1.269 . S
O200 Zn197 1.986 . S
O200 C207 1.262 . S
O201 Zn196 2.049 . S
O201 C209 1.260 . S
O202 Zn197 1.996 . S
O202 C209 1.257 . S
C203 O198 1.254 . S
C203 O199 1.269 . S
C204 O205 1.249 . S
C204 O206 1.270 . S
O205 Zn197 1.943 . S
O205 C204 1.249 . S
O206 Zn196 2.067 . S
O206 C204 1.270 . S
C207 O200 1.262 . S
C207 O208 1.232 . S
O208 C207 1.232 . S
C209 O201 1.260 . S
C209 O202 1.257 . S
Zn210 O213 2.031 . S
Zn210 O215 2.049 . S
Zn210 O220 2.067 . S
Zn211 O212 1.962 . S
Zn211 O214 1.986 . S
Zn211 O216 1.996 . S
Zn211 O219 1.943 . S
O212 Zn211 1.962 . S
O212 C217 1.254 . S
O213 Zn210 2.031 . S
O213 C217 1.269 . S
O214 Zn211 1.986 . S
O214 C221 1.262 . S
O215 Zn210 2.049 . S
O215 C223 1.260 . S
O216 Zn211 1.996 . S
O216 C223 1.257 . S
C217 O212 1.254 . S
C217 O213 1.269 . S
C218 O219 1.249 . S
C218 O220 1.270 . S
O219 Zn211 1.943 . S
O219 C218 1.249 . S
O220 Zn210 2.067 . S
O220 C218 1.270 . S
C221 O214 1.262 . S
C221 O222 1.232 . S
O222 C221 1.232 . S
C223 O215 1.260 . S
C223 O216 1.257 . S
Zn224 O227 2.031 . S
Zn224 O229 2.049 . S
Zn224 O234 2.067 . S
Zn225 O226 1.962 . S
Zn225 O228 1.986 . S
Zn225 O230 1.996 . S
Zn225 O233 1.943 1_545 S
O226 Zn225 1.962 . S
O226 C231 1.254 . S
O227 Zn224 2.031 . S
O227 C231 1.269 1_565 S
O228 Zn225 1.986 . S
O228 C235 1.262 . S
O229 Zn224 2.049 . S
O229 C237 1.260 . S
O230 Zn225 1.996 . S
O230 C237 1.257 1_545 S
C231 O226 1.254 . S
C231 O227 1.269 1_545 S
C232 O233 1.249 . S
C232 O234 1.270 . S
O233 Zn225 1.943 1_565 S
O233 C232 1.249 . S
O234 Zn224 2.067 . S
O234 C232 1.270 . S
C235 O228 1.262 . S
C235 O236 1.232 . S
O236 C235 1.232 . S
C237 O229 1.260 . S
C237 O230 1.257 1_565 S
Zn238 O241 2.031 . S
Zn238 O243 2.049 . S
Zn238 O248 2.067 . S
Zn239 O240 1.962 . S
Zn239 O242 1.986 . S
Zn239 O244 1.996 . S
Zn239 O247 1.943 . S
O240 Zn239 1.962 . S
O240 C245 1.254 . S
O241 Zn238 2.031 . S
O241 C245 1.269 . S
O242 Zn239 1.986 . S
O242 C249 1.262 . S
O243 Zn238 2.049 . S
O243 C251 1.260 . S
O244 Zn239 1.996 . S
O244 C251 1.257 . S
C245 O240 1.254 . S
C245 O241 1.269 . S
C246 O247 1.249 . S
C246 O248 1.270 . S
O247 Zn239 1.943 . S
O247 C246 1.249 . S
O248 Zn238 2.067 . S
O248 C246 1.270 . S
C249 O242 1.262 . S
C249 O250 1.232 . S
O250 C249 1.232 . S
C251 O243 1.260 . S
C251 O244 1.257 . S
Zn252 O255 2.031 . S
Zn252 O257 2.049 . S
Zn252 O262 2.067 . S
Zn253 O254 1.962 . S
Zn253 O256 1.986 . S
Zn253 O258 1.996 . S
Zn253 O261 1.943 . S
O254 Zn253 1.962 . S
O254 C259 1.254 . S
O255 Zn252 2.031 . S
O255 C259 1.269 . S
O256 Zn253 1.986 . S
O256 C263 1.262 . S
O257 Zn252 2.049 . S
O257 C265 1.260 . S
O258 Zn253 1.996 . S
O258 C265 1.257 . S
C259 O254 1.254 . S
C259 O255 1.269 . S
C260 O261 1.249 . S
C260 O262 1.270 . S
O261 Zn253 1.943 . S
O261 C260 1.249 . S
O262 Zn252 2.067 . S
O262 C260 1.270 . S
C263 O256 1.262 . S
C263 O264 1.232 . S
O264 C263 1.232 . S
C265 O257 1.260 . S
C265 O258 1.257 . S
Zn266 O269 2.031 . S
Zn266 O271 2.049 . S
Zn266 O276 2.067 . S
Zn267 O268 1.962 . S
Zn267 O270 1.986 . S
Zn267 O272 1.996 . S
Zn267 O275 1.943 1_565 S
O268 Zn267 1.962 . S
O268 C273 1.254 1_565 S
O269 Zn266 2.031 . S
O269 C273 1.269 . S
O270 Zn267 1.986 . S
O270 C277 1.262 . S
O271 Zn266 2.049 . S
O271 C279 1.260 . S
O272 Zn267 1.996 . S
O272 C279 1.257 1_565 S
C273 O268 1.254 1_545 S
C273 O269 1.269 . S
C274 O275 1.249 . S
C274 O276 1.270 . S
O275 Zn267 1.943 1_545 S
O275 C274 1.249 . S
O276 Zn266 2.067 . S
O276 C274 1.270 . S
C277 O270 1.262 . S
C277 O278 1.232 . S
O278 C277 1.232 . S
C279 O271 1.260 . S
C279 O272 1.257 1_545 S
Zn280 O283 2.031 1_554 S
Zn280 O285 2.049 . S
Zn280 O290 2.067 . S
Zn281 O282 1.978 . S
Zn281 O284 1.978 1_556 S
Zn281 O286 1.983 1_556 S
Zn281 O289 1.941 . S
O282 Zn281 1.978 . S
O282 C287 1.254 . S
O283 Zn280 2.031 1_556 S
O283 C287 1.269 . S
O284 Zn281 1.978 1_554 S
O284 C291 1.262 1_554 S
O285 Zn280 2.049 . S
O285 C293 1.260 . S
O286 Zn281 1.983 1_554 S
O286 C293 1.257 . S
C287 O282 1.254 . S
C287 O283 1.269 . S
C288 O289 1.249 . S
C288 O290 1.270 1_556 S
O289 Zn281 1.941 . S
O289 C288 1.249 . S
O290 Zn280 2.067 . S
O290 C288 1.270 1_554 S
C291 O284 1.262 1_556 S
C291 O292 1.232 . S
O292 C291 1.232 . S
C293 O285 1.260 . S
C293 O286 1.257 . S
Zn294 O297 2.031 1_455 S
Zn294 O299 2.049 . S
Zn294 O304 2.067 1_455 S
Zn295 O296 1.962 . S
Zn295 O298 1.986 . S
Zn295 O300 1.996 . S
Zn295 O303 1.943 . S
O296 Zn295 1.962 . S
O296 C301 1.254 1_655 S
O297 Zn294 2.031 1_655 S
O297 C301 1.269 1_655 S
O298 Zn295 1.986 . S
O298 C305 1.262 . S
O299 Zn294 2.049 . S
O299 C307 1.260 . S
O300 Zn295 1.996 . S
O300 C307 1.257 1_655 S
C301 O296 1.254 1_455 S
C301 O297 1.269 1_455 S
C302 O303 1.249 . S
C302 O304 1.270 . S
O303 Zn295 1.943 . S
O303 C302 1.249 . S
O304 Zn294 2.067 1_655 S
O304 C302 1.270 . S
C305 O298 1.262 . S
C305 O306 1.232 . S
O306 C305 1.232 . S
C307 O299 1.260 . S
C307 O300 1.257 1_455 S
Zn308 O311 2.031 . S
Zn308 O313 2.049 . S
Zn308 O318 2.067 . S
Zn309 O310 1.962 . S
Zn309 O312 1.986 . S
Zn309 O314 1.996 . S
Zn309 O317 1.943 . S
O310 Zn309 1.962 . S
O310 C315 1.254 . S
O311 Zn308 2.031 . S
O311 C315 1.269 . S
O312 Zn309 1.986 . S
O312 C319 1.262 . S
O313 Zn308 2.049 . S
O313 C321 1.260 . S
O314 Zn309 1.996 . S
O314 C321 1.257 . S
C315 O310 1.254 . S
C315 O311 1.269 . S
C316 O317 1.249 . S
C316 O318 1.270 . S
O317 Zn309 1.943 . S
O317 C316 1.249 . S
O318 Zn308 2.067 . S
O318 C316 1.270 . S
C319 O312 1.262 . S
C319 O320 1.232 . S
O320 C319 1.232 . S
C321 O313 1.260 . S
C321 O314 1.257 . S
Zn322 O325 2.031 . S
Zn322 O327 2.049 . S
Zn322 O332 2.067 . S
Zn323 O324 1.962 . S
Zn323 O326 1.986 . S
Zn323 O328 1.996 . S
Zn323 O331 1.943 . S
O324 Zn323 1.962 . S
O324 C329 1.254 . S
O325 Zn322 2.031 . S
O325 C329 1.269 . S
O326 Zn323 1.986 . S
O326 C333 1.262 . S
O327 Zn322 2.049 . S
O327 C335 1.260 . S
O328 Zn323 1.996 . S
O328 C335 1.257 . S
C329 O324 1.254 . S
C329 O325 1.269 . S
C330 O331 1.249 . S
C330 O332 1.270 . S
O331 Zn323 1.943 . S
O331 C330 1.249 . S
O332 Zn322 2.067 . S
O332 C330 1.270 . S
C333 O326 1.262 . S
C333 O334 1.232 . S
O334 C333 1.232 . S
C335 O327 1.260 . S
C335 O328 1.257 . S
Zn336 O342 1.969 1_565 S
Zn336 O343 1.965 1_565 S
Zn336 O347 2.024 . S
Zn336 O352 1.969 1_565 S
Zn337 O344 1.968 1_654 S
Zn337 O350 1.970 1_554 S
Zn337 O351 1.964 1_655 S
Zn337 O353 2.023 1_655 S
C338 O339 1.229 . S
C338 O347 1.058 . S
O339 C338 1.229 . S
C340 O341 1.229 1_554 S
C340 O353 1.058 . S
O341 C340 1.229 1_556 S
O342 Zn336 1.969 1_545 S
O342 C345 1.267 1_545 S
O343 Zn336 1.965 1_545 S
O343 C354 1.260 1_554 S
O344 Zn337 1.968 1_456 S
O344 C354 1.258 . S
C345 O342 1.267 1_565 S
C345 O346 1.228 . S
O346 C345 1.228 . S
O347 Zn336 2.024 . S
O347 C338 1.058 . S
C348 O349 1.228 . S
C348 O350 1.267 1_554 S
O349 C348 1.228 . S
O350 Zn337 1.970 1_556 S
O350 C348 1.267 1_556 S
O351 Zn337 1.964 1_455 S
O351 C355 1.260 . S
O352 Zn336 1.969 1_545 S
O352 C355 1.258 . S
O353 Zn337 2.023 1_455 S
O353 C340 1.058 . S
C354 O343 1.260 1_556 S
C354 O344 1.258 . S
C355 O351 1.260 . S
C355 O352 1.258 . S
Zn356 O362 1.969 . S
Zn356 O363 1.965 . S
Zn356 O367 2.024 . S
Zn356 O372 1.969 . S
Zn357 O364 1.969 . S
Zn357 O370 1.969 . S
Zn357 O371 1.965 . S
Zn357 O373 2.024 . S
C358 O359 1.229 . S
C358 O367 1.058 . S
O359 C358 1.229 . S
C360 O361 1.229 . S
C360 O373 1.058 . S
O361 C360 1.229 . S
O362 Zn356 1.969 . S
O362 C365 1.267 . S
O363 Zn356 1.965 . S
O363 C374 1.260 . S
O364 Zn357 1.969 . S
O364 C374 1.258 . S
C365 O362 1.267 . S
C365 O366 1.228 . S
O366 C365 1.228 . S
O367 Zn356 2.024 . S
O367 C358 1.058 . S
C368 O369 1.228 . S
C368 O370 1.267 . S
O369 C368 1.228 . S
O370 Zn357 1.969 . S
O370 C368 1.267 . S
O371 Zn357 1.965 . S
O371 C375 1.260 . S
O372 Zn356 1.969 . S
O372 C375 1.258 . S
O373 Zn357 2.024 . S
O373 C360 1.058 . S
C374 O363 1.260 . S
C374 O364 1.258 . S
C375 O371 1.260 . S
C375 O372 1.258 . S
Zn376 O382 1.969 . S
Zn376 O383 1.965 . S
Zn376 O387 2.024 . S
Zn376 O392 1.969 . S
Zn377 O384 1.969 . S
Zn377 O390 1.969 . S
Zn377 O391 1.965 1_565 S
Zn377 O393 2.024 . S
C378 O379 1.229 . S
C378 O387 1.058 . S
O379 C378 1.229 . S
C380 O381 1.229 . S
C380 O393 1.058 . S
O381 C380 1.229 . S
O382 Zn376 1.969 . S
O382 C385 1.267 . S
O383 Zn376 1.965 . S
O383 C394 1.260 . S
O384 Zn377 1.969 . S
O384 C394 1.258 1_565 S
C385 O382 1.267 . S
C385 O386 1.228 . S
O386 C385 1.228 . S
O387 Zn376 2.024 . S
O387 C378 1.058 . S
C388 O389 1.228 . S
C388 O390 1.267 . S
O389 C388 1.228 . S
O390 Zn377 1.969 . S
O390 C388 1.267 . S
O391 Zn377 1.965 1_545 S
O391 C395 1.260 . S
O392 Zn376 1.969 . S
O392 C395 1.258 . S
O393 Zn377 2.024 . S
O393 C380 1.058 . S
C394 O383 1.260 . S
C394 O384 1.258 1_545 S
C395 O391 1.260 . S
C395 O392 1.258 . S
Zn396 O402 1.969 . S
Zn396 O403 1.965 . S
Zn396 O407 2.024 . S
Zn396 O412 1.969 . S
Zn397 O404 1.969 . S
Zn397 O410 1.969 . S
Zn397 O411 1.965 . S
Zn397 O413 2.024 . S
C398 O399 1.229 . S
C398 O407 1.058 . S
O399 C398 1.229 . S
C400 O401 1.229 . S
C400 O413 1.058 . S
O401 C400 1.229 . S
O402 Zn396 1.969 . S
O402 C405 1.267 . S
O403 Zn396 1.965 . S
O403 C414 1.260 . S
O404 Zn397 1.969 . S
O404 C414 1.258 . S
C405 O402 1.267 . S
C405 O406 1.228 . S
O406 C405 1.228 . S
O407 Zn396 2.024 . S
O407 C398 1.058 . S
C408 O409 1.228 . S
C408 O410 1.267 . S
O409 C408 1.228 . S
O410 Zn397 1.969 . S
O410 C408 1.267 . S
O411 Zn397 1.965 . S
O411 C415 1.260 . S
O412 Zn396 1.969 . S
O412 C415 1.258 . S
O413 Zn397 2.024 . S
O413 C400 1.058 . S
C414 O403 1.260 . S
C414 O404 1.258 . S
C415 O411 1.260 . S
C415 O412 1.258 . S
Zn416 O422 1.969 . S
Zn416 O423 1.954 1_455 S
Zn416 O427 2.024 1_565 S
Zn416 O432 1.969 1_565 S
Zn417 O424 1.969 1_455 S
Zn417 O430 1.969 . S
Zn417 O431 1.965 . S
Zn417 O433 2.024 . S
C418 O419 1.229 1_545 S
C418 O427 1.058 . S
O419 C418 1.229 1_565 S
C420 O421 1.229 . S
C420 O433 1.058 1_655 S
O421 C420 1.229 . S
O422 Zn416 1.969 . S
O422 C425 1.267 . S
O423 Zn416 1.954 1_655 S
O423 C434 1.272 . S
O424 Zn417 1.969 1_655 S
O424 C434 1.258 1_545 S
C425 O422 1.267 . S
C425 O426 1.228 . S
O426 C425 1.228 . S
O427 Zn416 2.024 1_545 S
O427 C418 1.058 . S
C428 O429 1.228 . S
C428 O430 1.267 . S
O429 C428 1.228 . S
O430 Zn417 1.969 . S
O430 C428 1.267 . S
O431 Zn417 1.965 . S
O431 C435 1.260 . S
O432 Zn416 1.969 1_545 S
O432 C435 1.258 . S
O433 Zn417 2.024 . S
O433 C420 1.058 1_455 S
C434 O423 1.272 . S
C434 O424 1.258 1_565 S
C435 O431 1.260 . S
C435 O432 1.258 . S
Zn436 O442 1.969 . S
Zn436 O443 1.965 . S
Zn436 O447 2.024 . S
Zn436 O452 1.969 . S
Zn437 O444 1.969 . S
Zn437 O450 1.969 . S
Zn437 O451 1.965 . S
Zn437 O453 2.024 . S
C438 O439 1.229 . S
C438 O447 1.058 . S
O439 C438 1.229 . S
C440 O441 1.229 . S
C440 O453 1.058 . S
O441 C440 1.229 . S
O442 Zn436 1.969 . S
O442 C445 1.267 . S
O443 Zn436 1.965 . S
O443 C454 1.260 . S
O444 Zn437 1.969 . S
O444 C454 1.258 . S
C445 O442 1.267 . S
C445 O446 1.228 . S
O446 C445 1.228 . S
O447 Zn436 2.024 . S
O447 C438 1.058 . S
C448 O449 1.228 . S
C448 O450 1.267 . S
O449 C448 1.228 . S
O450 Zn437 1.969 . S
O450 C448 1.267 . S
O451 Zn437 1.965 . S
O451 C455 1.260 . S
O452 Zn436 1.969 . S
O452 C455 1.258 . S
O453 Zn437 2.024 . S
O453 C440 1.058 . S
C454 O443 1.260 . S
C454 O444 1.258 . S
C455 O451 1.260 . S
C455 O452 1.258 . S
Zn456 O462 1.969 . S
Zn456 O463 1.965 1_545 S
Zn456 O467 2.024 1_556 S
Zn456 O472 1.969 1_556 S
Zn457 O464 1.969 . S
Zn457 O470 1.969 . S
Zn457 O471 1.965 1_565 S
Zn457 O473 2.024 . S
C458 O459 1.229 . S
C458 O467 1.058 . S
O459 C458 1.229 . S
C460 O461 1.229 . S
C460 O473 1.058 . S
O461 C460 1.229 . S
O462 Zn456 1.969 . S
O462 C465 1.267 . S
O463 Zn456 1.965 1_565 S
O463 C474 1.260 1_556 S
O464 Zn457 1.969 . S
O464 C474 1.258 . S
C465 O462 1.267 . S
C465 O466 1.228 . S
O466 C465 1.228 . S
O467 Zn456 2.024 1_554 S
O467 C458 1.058 . S
C468 O469 1.228 . S
C468 O470 1.267 1_545 S
O469 C468 1.228 . S
O470 Zn457 1.969 . S
O470 C468 1.267 1_565 S
O471 Zn457 1.965 1_545 S
O471 C475 1.260 . S
O472 Zn456 1.969 1_554 S
O472 C475 1.258 . S
O473 Zn457 2.024 . S
O473 C460 1.058 . S
C474 O463 1.260 1_554 S
C474 O464 1.258 . S
C475 O471 1.260 . S
C475 O472 1.258 . S
Zn476 O482 1.969 . S
Zn476 O483 1.965 . S
Zn476 O487 2.024 . S
Zn476 O492 1.969 . S
Zn477 O484 1.969 . S
Zn477 O490 1.969 . S
Zn477 O491 1.965 . S
Zn477 O493 2.024 . S
C478 O479 1.229 . S
C478 O487 1.058 . S
O479 C478 1.229 . S
C480 O481 1.229 . S
C480 O493 1.058 . S
O481 C480 1.229 . S
O482 Zn476 1.969 . S
O482 C485 1.267 . S
O483 Zn476 1.965 . S
O483 C494 1.260 . S
O484 Zn477 1.969 . S
O484 C494 1.258 . S
C485 O482 1.267 . S
C485 O486 1.228 . S
O486 C485 1.228 . S
O487 Zn476 2.024 . S
O487 C478 1.058 . S
C488 O489 1.228 . S
C488 O490 1.267 . S
O489 C488 1.228 . S
O490 Zn477 1.969 . S
O490 C488 1.267 . S
O491 Zn477 1.965 . S
O491 C495 1.260 . S
O492 Zn476 1.969 . S
O492 C495 1.258 . S
O493 Zn477 2.024 . S
O493 C480 1.058 . S
C494 O483 1.260 . S
C494 O484 1.258 . S
C495 O491 1.260 . S
C495 O492 1.258 . S
Zn496 O502 1.969 . S
Zn496 O503 1.965 . S
Zn496 O507 2.024 . S
Zn496 O512 1.969 . S
Zn497 O504 1.969 1_556 S
Zn497 O510 1.969 1_556 S
Zn497 O511 1.965 1_556 S
Zn497 O513 2.024 . S
C498 O499 1.229 . S
C498 O507 1.058 . S
O499 C498 1.229 . S
C500 O501 1.229 . S
C500 O513 1.058 . S
O501 C500 1.229 . S
O502 Zn496 1.969 . S
O502 C505 1.267 . S
O503 Zn496 1.965 . S
O503 C514 1.260 . S
O504 Zn497 1.969 1_554 S
O504 C514 1.258 . S
C505 O502 1.267 . S
C505 O506 1.228 . S
O506 C505 1.228 . S
O507 Zn496 2.024 . S
O507 C498 1.058 . S
C508 O509 1.228 . S
C508 O510 1.267 1_556 S
O509 C508 1.228 . S
O510 Zn497 1.969 1_554 S
O510 C508 1.267 1_554 S
O511 Zn497 1.965 1_554 S
O511 C515 1.260 . S
O512 Zn496 1.969 . S
O512 C515 1.258 . S
O513 Zn497 2.024 . S
O513 C500 1.058 . S
C514 O503 1.260 . S
C514 O504 1.258 . S
C515 O511 1.260 . S
C515 O512 1.258 . S
Zn516 O522 1.969 . S
Zn516 O523 1.965 . S
Zn516 O527 2.024 . S
Zn516 O532 1.969 . S
Zn517 O524 1.969 . S
Zn517 O530 1.969 . S
Zn517 O531 1.965 . S
Zn517 O533 2.024 . S
C518 O519 1.229 . S
C518 O527 1.058 . S
O519 C518 1.229 . S
C520 O521 1.229 . S
C520 O533 1.058 . S
O521 C520 1.229 . S
O522 Zn516 1.969 . S
O522 C525 1.267 . S
O523 Zn516 1.965 . S
O523 C534 1.260 . S
O524 Zn517 1.969 . S
O524 C534 1.258 . S
C525 O522 1.267 . S
C525 O526 1.228 . S
O526 C525 1.228 . S
O527 Zn516 2.024 . S
O527 C518 1.058 . S
C528 O529 1.228 . S
C528 O530 1.267 . S
O529 C528 1.228 . S
O530 Zn517 1.969 . S
O530 C528 1.267 . S
O531 Zn517 1.965 . S
O531 C535 1.260 . S
O532 Zn516 1.969 . S
O532 C535 1.258 . S
O533 Zn517 2.024 . S
O533 C520 1.058 . S
C534 O523 1.260 . S
C534 O524 1.258 . S
C535 O531 1.260 . S
C535 O532 1.258 . S
Zn536 O542 1.969 . S
Zn536 O543 1.965 . S
Zn536 O547 2.024 . S
Zn536 O552 1.969 . S
Zn537 O544 1.969 1_655 S
Zn537 O550 1.969 . S
Zn537 O551 1.965 1_655 S
Zn537 O553 2.024 . S
C538 O539 1.229 . S
C538 O547 1.058 . S
O539 C538 1.229 . S
C540 O541 1.229 . S
C540 O553 1.058 . S
O541 C540 1.229 . S
O542 Zn536 1.969 . S
O542 C545 1.267 . S
O543 Zn536 1.965 . S
O543 C554 1.260 . S
O544 Zn537 1.969 1_455 S
O544 C554 1.258 . S
C545 O542 1.267 . S
C545 O546 1.228 . S
O546 C545 1.228 . S
O547 Zn536 2.024 . S
O547 C538 1.058 . S
C548 O549 1.228 . S
C548 O550 1.267 . S
O549 C548 1.228 . S
O550 Zn537 1.969 . S
O550 C548 1.267 . S
O551 Zn537 1.965 1_455 S
O551 C555 1.260 . S
O552 Zn536 1.969 . S
O552 C555 1.258 . S
O553 Zn537 2.024 . S
O553 C540 1.058 . S
C554 O543 1.260 . S
C554 O544 1.258 . S
C555 O551 1.260 . S
C555 O552 1.258 . S
Zn556 O562 1.969 . S
Zn556 O563 1.965 . S
Zn556 O567 2.024 . S
Zn556 O572 1.969 . S
Zn557 O564 1.969 . S
Zn557 O570 1.969 . S
Zn557 O571 1.965 . S
Zn557 O573 2.024 . S
C558 O559 1.229 . S
C558 O567 1.058 . S
O559 C558 1.229 . S
C560 O561 1.229 . S
C560 O573 1.058 . S
O561 C560 1.229 . S
O562 Zn556 1.969 . S
O562 C565 1.267 . S
O563 Zn556 1.965 . S
O563 C574 1.260 . S
O564 Zn557 1.969 . S
O564 C574 1.258 . S
C565 O562 1.267 . S
C565 O566 1.228 . S
O566 C565 1.228 . S
O567 Zn556 2.024 . S
O567 C558 1.058 . S
C568 O569 1.228 . S
C568 O570 1.267 . S
O569 C568 1.228 . S
O570 Zn557 1.969 . S
O570 C568 1.267 . S
O571 Zn557 1.965 . S
O571 C575 1.260 . S
O572 Zn556 1.969 . S
O572 C575 1.258 . S
O573 Zn557 2.024 . S
O573 C560 1.058 . S
C574 O563 1.260 . S
C574 O564 1.258 . S
C575 O571 1.260 . S
C575 O572 1.258 . S
Zn576 O582 1.969 . S
Zn576 O583 1.965 . S
Zn576 O587 2.024 . S
Zn576 O592 1.969 . S
Zn577 O584 1.969 . S
Zn577 O590 1.969 . S
Zn577 O591 1.965 . S
Zn577 O593 2.024 . S
C578 O579 1.229 . S
C578 O587 1.058 . S
O579 C578 1.229 . S
C580 O581 1.229 . S
C580 O593 1.058 . S
O581 C580 1.229 . S
O582 Zn576 1.969 . S
O582 C585 1.267 . S
O583 Zn576 1.965 . S
O583 C594 1.260 . S
O584 Zn577 1.969 . S
O584 C594 1.258 . S
C585 O582 1.267 . S
C585 O586 1.228 . S
O586 C585 1.228 . S
O587 Zn576 2.024 . S
O587 C578 1.058 . S
C588 O589 1.228 . S
C588 O590 1.267 . S
O589 C588 1.228 . S
O590 Zn577 1.969 . S
O590 C588 1.267 . S
O591 Zn577 1.965 . S
O591 C595 1.260 . S
O592 Zn576 1.969 . S
O592 C595 1.258 . S
O593 Zn577 2.024 . S
O593 C580 1.058 . S
C594 O583 1.260 . S
C594 O584 1.258 . S
C595 O591 1.260 . S
C595 O592 1.258 . S
Zn596 O602 1.969 . S
Zn596 O603 1.965 . S
Zn596 O607 2.024 . S
Zn596 O612 1.969 . S
Zn597 O604 1.969 . S
Zn597 O610 1.969 . S
Zn597 O611 1.965 . S
Zn597 O613 2.024 . S
C598 O599 1.229 . S
C598 O607 1.058 . S
O599 C598 1.229 . S
C600 O601 1.229 . S
C600 O613 1.058 . S
O601 C600 1.229 . S
O602 Zn596 1.969 . S
O602 C605 1.267 . S
O603 Zn596 1.965 . S
O603 C614 1.260 . S
O604 Zn597 1.969 . S
O604 C614 1.258 . S
C605 O602 1.267 . S
C605 O606 1.228 . S
O606 C605 1.228 . S
O607 Zn596 2.024 . S
O607 C598 1.058 . S
C608 O609 1.228 . S
C608 O610 1.267 . S
O609 C608 1.228 . S
O610 Zn597 1.969 . S
O610 C608 1.267 . S
O611 Zn597 1.965 . S
O611 C615 1.260 . S
O612 Zn596 1.969 . S
O612 C615 1.258 . S
O613 Zn597 2.024 . S
O613 C600 1.058 . S
C614 O603 1.260 . S
C614 O604 1.258 . S
C615 O611 1.260 . S
C615 O612 1.258 . S
Zn616 O622 1.969 . S
Zn616 O623 1.965 . S
Zn616 O627 2.024 . S
Zn616 O632 1.969 . S
Zn617 O624 1.969 . S
Zn617 O630 1.969 . S
Zn617 O631 1.965 . S
Zn617 O633 2.024 . S
C618 O619 1.229 . S
C618 O627 1.058 . S
O619 C618 1.229 . S
C620 O621 1.229 . S
C620 O633 1.058 . S
O621 C620 1.229 . S
O622 Zn616 1.969 . S
O622 C625 1.267 . S
O623 Zn616 1.965 . S
O623 C634 1.260 . S
O624 Zn617 1.969 . S
O624 C634 1.258 . S
C625 O622 1.267 . S
C625 O626 1.228 . S
O626 C625 1.228 . S
O627 Zn616 2.024 . S
O627 C618 1.058 . S
C628 O629 1.228 . S
C628 O630 1.267 . S
O629 C628 1.228 . S
O630 Zn617 1.969 . S
O630 C628 1.267 . S
O631 Zn617 1.965 . S
O631 C635 1.260 . S
O632 Zn616 1.969 . S
O632 C635 1.258 . S
O633 Zn617 2.024 . S
O633 C620 1.058 . S
C634 O623 1.260 . S
C634 O624 1.258 . S
C635 O631 1.260 . S
C635 O632 1.258 . S
Zn636 O642 1.969 . S
Zn636 O643 1.965 . S
Zn636 O647 2.024 1_655 S
Zn636 O652 1.969 1_655 S
Zn637 O644 1.969 1_554 S
Zn637 O650 1.969 . S
Zn637 O651 1.965 . S
Zn637 O653 2.024 . S
C638 O639 1.229 . S
C638 O647 1.058 . S
O639 C638 1.229 . S
C640 O641 1.229 . S
C640 O653 1.058 1_556 S
O641 C640 1.229 . S
O642 Zn636 1.969 . S
O642 C645 1.267 . S
O643 Zn636 1.965 . S
O643 C654 1.260 1_654 S
O644 Zn637 1.969 1_556 S
O644 C654 1.258 . S
C645 O642 1.267 . S
C645 O646 1.228 . S
O646 C645 1.228 . S
O647 Zn636 2.024 1_455 S
O647 C638 1.058 . S
C648 O649 1.228 . S
C648 O650 1.267 . S
O649 C648 1.228 . S
O650 Zn637 1.969 . S
O650 C648 1.267 . S
O651 Zn637 1.965 . S
O651 C655 1.260 . S
O652 Zn636 1.969 1_455 S
O652 C655 1.258 . S
O653 Zn637 2.024 . S
O653 C640 1.058 1_554 S
C654 O643 1.260 1_456 S
C654 O644 1.258 . S
C655 O651 1.260 . S
C655 O652 1.258 . S
C111 C340 1.967 1_656 S
C64 C375 1.828 . S
C77 C380 0.996 . S
C405 C95 1.407 . S
C25 C425 1.391 . S
C440 C36 1.012 . S
C475 C50 1.794 . S
C11 C480 1.922 . S
C355 C237 2.057 1_445 S
C245 C365 1.253 . S
C395 C279 1.132 . S
C400 C175 1.175 . S
C231 C420 1.214 . S
C455 C251 1.159 . S
C465 C273 1.279 . S
C495 C181 2.066 . S
C345 C165 2.337 . S
C288 C515 2.166 1_556 S
C525 C333 1.883 . S
C540 C316 1.016 . S
C123 C485 2.324 . S
C137 C385 1.866 . S
C330 C575 2.150 . S
C580 C302 0.962 . S
C338 C63 1.966 . S
C594 C106 2.028 . S
C97 C378 1.140 . S
C81 C568 1.504 . S
C428 C13 1.679 . S
C55 C518 1.100 . S
C474 C35 1.777 . S
C598 C21 1.925 . S
C354 C147 2.259 . S
C588 C321 1.341 . S
C119 C394 1.400 . S
C293 C558 1.423 . S
C153 C418 1.380 . S
C534 C315 1.428 . S
C125 C468 1.382 . S
C287 C614 2.208 . S
C193 C348 2.086 . S
C176 C514 2.363 . S
C263 C448 1.860 . S
C246 C538 1.199 . S
C608 C277 1.968 . S
C221 C388 1.761 . S
C414 C260 2.371 . S
C358 C204 1.189 . S
C83 C620 1.969 . S
C595 C92 1.828 . S
C105 C640 0.995 . S
C67 C565 1.407 . S
C53 C505 1.391 . S
C520 C8 1.012 . S
C555 C22 1.794 . S
C600 C39 1.923 . S
C635 C265 2.057 . S
C189 C585 1.253 . S
C655 C209 1.132 . S
C560 C217 1.175 . S
C500 C259 1.214 . S
C195 C535 1.159 . S
C545 C203 1.279 . S
C223 C615 2.066 . S
C625 C319 2.337 . S
C134 C435 2.168 . S
C445 C151 1.883 . S
C460 C162 1.016 . S
C605 C305 2.324 . S
C291 C645 1.864 1_556 S
C415 C148 2.150 . S
C360 C120 0.962 . S
C91 C618 1.966 . S
C374 C78 2.027 . S
C69 C638 1.140 . S
C109 C408 1.502 . S
C41 C508 1.679 1_554 S
C438 C27 1.100 . S
C7 C554 1.777 . S
C49 C478 1.926 . S
C634 C329 2.258 . S
C167 C368 1.341 . S
C654 C301 1.400 . S
C139 C398 1.426 . S
C335 C498 1.380 . S
C454 C161 1.428 . S
C307 C548 1.382 1_455 S
C494 C133 2.206 . S
C628 C249 2.085 . S
C434 C218 2.364 . S
C235 C528 1.860 . S
C458 C190 1.200 . S
C207 C488 1.968 . S
C179 C648 1.761 . S
C574 C232 2.370 . S
C578 C274 1.189 . S
