# Generated by pormake.
# Topology nia, (6,6)-cn, num edge types: 1
# Building blocks:
#     Node 0, Type 0, BuildingBlock: JUFBIX_clean_sbu_0, # of connection points: 6
#     Node 1, Type 0, BuildingBlock: JUFBIX_clean_sbu_0, # of connection points: 6
#     Node 2, Type 1, BuildingBlock: MIDCAF_clean_sbu_0, # of connection points: 6
#     Node 3, Type 1, BuildingBlock: MIDCAF_clean_sbu_0, # of connection points: 6
#     Edge 4, Type (0, 1), BuildingBlock: CIFDUS_clean_linker_0, # of connection points: 2
#     Edge 5, Type (0, 1), BuildingBlock: CIFDUS_clean_linker_0, # of connection points: 2
#     Edge 6, Type (0, 1), BuildingBlock: CIFDUS_clean_linker_0, # of connection points: 2
#     Edge 7, Type (0, 1), BuildingBlock: CIFDUS_clean_linker_0, # of connection points: 2
#     Edge 8, Type (0, 1), BuildingBlock: CIFDUS_clean_linker_0, # of connection points: 2
#     Edge 9, Type (0, 1), BuildingBlock: CIFDUS_clean_linker_0, # of connection points: 2
#     Edge 10, Type (0, 1), BuildingBlock: CIFDUS_clean_linker_0, # of connection points: 2
#     Edge 11, Type (0, 1), BuildingBlock: CIFDUS_clean_linker_0, # of connection points: 2
#     Edge 12, Type (0, 1), BuildingBlock: CIFDUS_clean_linker_0, # of connection points: 2
#     Edge 13, Type (0, 1), BuildingBlock: CIFDUS_clean_linker_0, # of connection points: 2
#     Edge 14, Type (0, 1), BuildingBlock: CIFDUS_clean_linker_0, # of connection points: 2
#     Edge 15, Type (0, 1), BuildingBlock: CIFDUS_clean_linker_0, # of connection points: 2
# Relax obj value: 0.156
# Max RMSD: 0.240
# Mean RMSD: 0.159
data_MOF--net-nia--node1-JUFBIX_clean_sbu_0--node2-MIDCAF_clean_sbu_0--edge1-CIFDUS_clean_linker_0
_symmetry_space_group_name_H-M    P1
_symmetry_Int_Tables_number       1
_symmetry_cell_setting            triclinic
loop_
_symmetry_equiv_pos_as_xyz
'x, y, z'
_cell_length_a     21.730342
_cell_length_b     21.71737
_cell_length_c     28.281534
_cell_angle_alpha  82.96694
_cell_angle_beta   83.129721
_cell_angle_gamma 121.41758
loop_
_atom_site_label
_atom_site_type_symbol
_atom_site_fract_x
_atom_site_fract_y
_atom_site_fract_z
_atom_type_partial_charge
Co0 Co 0.94029 0.91888 1.06628 0.0
C1 C 0.83824 0.91357 0.1424 0.0
Co2 Co -0.02466 0.02244 0.09208 0.0
C3 C 0.92503 0.79498 1.02306 0.0
C4 C 0.82422 0.78865 1.04717 0.0
N5 N 0.89723 0.82868 1.04689 0.0
N6 N 0.87179 0.73668 1.00833 0.0
C7 C 0.80863 0.73251 1.02379 0.0
H8 H -0.01684 0.81505 1.01425 0.0
H9 H 0.78483 0.80185 1.06087 0.0
C10 C 0.07792 0.028 1.01639 0.0
N11 N 0.0144 0.11417 0.10834 0.0
C12 C 0.0072 0.13443 0.15109 0.0
C13 C 0.05367 0.17823 0.07441 0.0
N14 N 0.04039 0.20848 0.14446 0.0
C15 C 0.06948 0.23594 0.09642 0.0
C16 C 0.01288 0.93154 0.14148 0.0
O17 O 0.02965 -0.0396 1.01824 0.0
O18 O 0.06345 0.06172 1.04495 0.0
O19 O 0.01649 -0.00753 0.13879 0.0
O20 O -0.01895 0.88937 0.11285 0.0
O21 O 0.88567 -0.01836 0.13945 0.0
H22 H 0.06742 0.18256 1.03561 0.0
H23 H -0.02437 0.09579 0.18571 0.0
O24 O 0.85339 0.8794 0.1147 0.0
O25 O 0.89903 0.94875 1.02018 0.0
O26 O 0.9347 0.0515 1.04493 0.0
C27 C 0.90268 0.00925 1.01677 0.0
H28 H 0.75519 0.69264 1.01731 0.0
H29 H 0.09805 0.29366 0.07841 0.0
Co30 Co 0.00373 -0.00123 0.59759 0.0
C31 C 0.00603 0.08838 0.51691 0.0
Co32 Co 0.91312 0.94069 0.56009 0.0
C33 C 0.12168 0.03215 0.64745 0.0
C34 C 0.09467 0.11416 0.64377 0.0
N35 N 0.07718 0.0507 0.62992 0.0
N36 N 0.16591 0.08129 0.67205 0.0
C37 C 0.14918 0.13307 0.66974 0.0
H38 H 0.12088 -0.01698 0.64281 0.0
H39 H 0.0691 0.1445 0.63568 0.0
C40 C 0.91119 0.85115 0.64072 0.0
N41 N 0.83965 0.88893 0.52773 0.0
C42 C 0.79545 0.9079 0.51019 0.0
C43 C 0.8219 0.8255 0.51376 0.0
N44 N 0.75115 0.85907 0.48547 0.0
C45 C 0.76751 0.80702 0.48771 0.0
C46 C 0.04025 0.94288 0.52547 0.0
O47 O -0.03105 0.91044 0.64377 0.0
O48 O 0.87799 0.85232 0.60684 0.0
O49 O -0.02471 0.92152 0.52049 0.0
O50 O 0.06546 -0.02071 0.55793 0.0
O51 O -0.05184 0.02924 0.51376 0.0
H52 H 0.84724 0.79491 0.52179 0.0
H53 H 0.79656 0.95718 0.51488 0.0
O54 O 0.03879 0.08694 0.55097 0.0
O55 O -0.0585 0.01785 0.63722 0.0
O56 O 0.85139 -0.03976 0.59974 0.0
C57 C 0.87657 -0.00344 0.63223 0.0
H58 H 0.17567 0.182 0.68475 0.0
H59 H 0.74091 0.75824 0.47257 0.0
Zn60 Zn 0.28209 0.69537 0.23213 0.0
Zn61 Zn 0.24461 0.64713 0.42331 0.0
Zn62 Zn 0.26169 0.66738 0.32901 0.0
C63 C 0.39476 0.73775 0.38615 0.0
C64 C 0.19319 0.50949 0.4023 0.0
O65 O 0.20186 0.7202 0.30715 0.0
O66 O 0.23784 0.75514 0.22656 0.0
C67 C 0.42137 0.76036 0.25193 0.0
O68 O 0.37236 0.72489 0.34619 0.0
O69 O 0.34885 0.71254 0.42625 0.0
O70 O 0.20341 0.54019 0.4382 0.0
O71 O 0.20904 0.54735 0.35887 0.0
O72 O 0.39138 0.74639 0.21578 0.0
O73 O 0.38168 0.73666 0.29559 0.0
O74 O 0.20876 0.55847 0.30948 0.0
O75 O 0.21806 0.58868 0.2301 0.0
C76 C 0.19493 0.53983 0.26868 0.0
O77 O 0.19998 0.71553 0.35776 0.0
O78 O 0.18305 0.68584 0.43805 0.0
C79 C 0.20141 0.75248 0.26586 0.0
C80 C 0.17517 0.71738 0.40095 0.0
Zn81 Zn 0.63265 0.24031 0.92567 0.0
Zn82 Zn 0.67344 0.29336 0.73504 0.0
Zn83 Zn 0.655 0.27196 0.8294 0.0
C84 C 0.72612 0.43084 0.7576 0.0
C85 C 0.5229 0.20461 0.77137 0.0
O86 O 0.71299 0.21751 0.85058 0.0
O87 O 0.67192 0.17617 0.93062 0.0
C88 C 0.72541 0.39584 0.89194 0.0
O89 O 0.709 0.39245 0.80105 0.0
O90 O 0.71637 0.40059 0.7215 0.0
O91 O 0.56921 0.22976 0.73147 0.0
O92 O 0.54476 0.21654 0.81158 0.0
O93 O 0.70106 0.34535 0.92973 0.0
O94 O 0.71 0.37937 0.85086 0.0
O95 O 0.53449 0.20364 0.86222 0.0
O96 O 0.524 0.19373 0.94207 0.0
C97 C 0.49438 0.18054 0.90572 0.0
O98 O 0.71603 0.22343 0.79978 0.0
O99 O 0.73386 0.25372 0.71948 0.0
C100 C 0.71056 0.1817 0.89137 0.0
C101 C 0.74109 0.22169 0.75663 0.0
H102 H -0.03595 0.79768 0.1977 0.0
H103 H 0.14867 0.02436 0.15779 0.0
H104 H 0.22238 -0.00916 0.20015 0.0
H105 H 0.23924 0.89335 0.23793 0.0
H106 H 0.05304 0.668 0.28147 0.0
H107 H -0.02594 0.70449 0.2496 0.0
C108 C 0.01994 0.83976 0.19922 0.0
C109 C 0.05154 0.91302 0.1742 0.0
C110 C 0.06145 0.82025 0.22435 0.0
C111 C 0.12349 -0.03245 0.1768 0.0
C112 C 0.16568 0.94836 0.20083 0.0
C113 C 0.1807 0.85302 0.24202 0.0
C114 C 0.15148 0.77837 0.26209 0.0
C115 C 0.13597 0.87448 0.22337 0.0
C116 C 0.07605 0.72597 0.26672 0.0
C117 C 0.03124 0.74669 0.24796 0.0
H118 H 0.21137 0.13394 0.75082 0.0
H119 H 0.24961 0.03057 0.63999 0.0
H120 H 0.35896 0.04873 0.66756 0.0
H121 H 0.45297 0.11026 0.71487 0.0
H122 H 0.4197 0.22091 0.82202 0.0
H123 H 0.29807 0.18201 0.80545 0.0
C124 C 0.24342 0.1149 0.73308 0.0
C125 C 0.22342 0.08226 0.69291 0.0
C126 C 0.30683 0.12663 0.74864 0.0
C127 C 0.26402 0.05594 0.67094 0.0
C128 C 0.32675 0.06669 0.6865 0.0
C129 C 0.41811 0.12423 0.73532 0.0
C130 C 0.4444 0.16762 0.76989 0.0
C131 C 0.34999 0.10425 0.72412 0.0
C132 C 0.39939 0.18574 0.79626 0.0
C133 C 0.33056 0.16467 0.7861 0.0
H134 H 0.10668 0.2347 0.22068 0.0
H135 H -0.02639 0.28196 0.14159 0.0
H136 H 0.00085 0.38488 0.18091 0.0
H137 H 0.08149 0.47465 0.22481 0.0
H138 H 0.21803 0.43186 0.30323 0.0
H139 H 0.16991 0.31324 0.27836 0.0
C140 C 0.08156 0.26595 0.21385 0.0
C141 C 0.0384 0.25152 0.17845 0.0
C142 C 0.09937 0.32649 0.23574 0.0
C143 C 0.00673 0.29257 0.16894 0.0
C144 C 0.02286 0.35162 0.19104 0.0
C145 C 0.09909 0.43824 0.23747 0.0
C146 C 0.1536 0.46176 0.26512 0.0
C147 C 0.07204 0.37125 0.2225 0.0
C148 C 0.17589 0.41443 0.28188 0.0
C149 C 0.14884 0.34703 0.2673 0.0
H150 H 0.9169 0.07682 0.70247 0.0
H151 H 0.74066 -0.03088 0.62608 0.0
H152 H 0.67867 0.02301 0.66394 0.0
H153 H 0.68231 0.11223 0.71017 0.0
H154 H 0.85913 0.22443 0.78439 0.0
H155 H 0.91288 0.15605 0.7568 0.0
C156 C 0.86436 0.06423 0.69467 0.0
C157 C 0.83396 0.01988 0.66089 0.0
C158 C 0.82946 0.09631 0.71606 0.0
C159 C 0.76556 0.00353 0.65156 0.0
C160 C 0.73013 0.03444 0.6731 0.0
C161 C 0.73194 0.12052 0.72098 0.0
C162 C 0.76717 0.17284 0.74904 0.0
C163 C 0.76278 0.0826 0.70408 0.0
C164 C 0.831 0.18352 0.76326 0.0
C165 C 0.86191 0.14508 0.74702 0.0
H166 H 0.7668 -0.02826 0.18706 0.0
H167 H 0.74022 0.76563 0.1675 0.0
H168 H 0.60933 0.69922 0.2039 0.0
H169 H 0.49949 0.70115 0.2313 0.0
H170 H 0.52207 0.90393 0.25312 0.0
H171 H 0.65712 -0.02975 0.22622 0.0
C172 C 0.73259 0.91215 0.19182 0.0
C173 C 0.76312 0.87404 0.17368 0.0
C174 C 0.65641 0.87381 0.21257 0.0
C175 C 0.71807 0.79666 0.18034 0.0
C176 C 0.643 0.75843 0.2011 0.0
C177 C 0.53441 0.75963 0.23087 0.0
C178 C 0.50194 0.79817 0.24358 0.0
C179 C 0.61119 0.79672 0.21564 0.0
C180 C 0.54674 0.87364 0.24332 0.0
C181 C 0.62365 0.91137 0.22786 0.0
H182 H 0.77219 0.73065 0.6662 0.0
H183 H -0.00824 0.81377 0.69024 0.0
H184 H -0.04857 0.69089 0.73592 0.0
H185 H 0.85669 0.55576 0.75931 0.0
H186 H 0.63829 0.47542 0.73409 0.0
H187 H 0.67444 0.60115 0.69953 0.0
C188 C 0.81095 0.72202 0.68199 0.0
C189 C 0.88495 0.78053 0.67419 0.0
C190 C 0.78745 0.6516 0.70804 0.0
C191 C 0.93444 0.76919 0.69556 0.0
C192 C 0.91149 0.69894 0.72153 0.0
C193 C 0.81689 0.56656 0.74748 0.0
C194 C 0.74514 0.50724 0.74904 0.0
C195 C 0.8386 0.63914 0.72672 0.0
C196 C 0.69376 0.52091 0.73326 0.0
C197 C 0.7145 0.59254 0.71322 0.0
H198 H 0.00099 0.86434 0.45424 0.0
H199 H 0.17497 -0.03177 0.53293 0.0
H200 H 0.23651 0.91374 0.49542 0.0
H201 H 0.23297 0.82514 0.44875 0.0
H202 H 0.05889 0.71713 0.3717 0.0
H203 H 0.00556 0.78594 0.39927 0.0
C204 C 0.05296 0.87597 0.46262 0.0
C205 C 0.08281 0.9194 0.49694 0.0
C206 C 0.08765 0.84359 0.44137 0.0
C207 C 0.1505 0.93457 0.50701 0.0
C208 C 0.18566 0.9033 0.48567 0.0
C209 C 0.18397 0.81776 0.43738 0.0
C210 C 0.14926 0.76635 0.40865 0.0
C211 C 0.15349 0.85602 0.45413 0.0
C212 C 0.08645 0.7571 0.39354 0.0
C213 C 0.05582 0.79583 0.40972 0.0
H214 H 0.14881 -0.02986 0.9704 0.0
H215 H 0.17653 0.17585 0.99223 0.0
H216 H 0.30725 0.24217 0.95553 0.0
H217 H 0.41678 0.24011 0.92729 0.0
H218 H 0.39315 0.03785 0.90304 0.0
H219 H 0.25817 -0.02817 0.93016 0.0
C220 C 0.18323 0.02964 0.96608 0.0
C221 C 0.15304 0.06759 0.985 0.0
C222 C 0.25937 0.06798 0.94509 0.0
C223 C 0.19838 0.14487 0.97887 0.0
C224 C 0.27338 0.18308 0.95789 0.0
C225 C 0.38165 0.18185 0.92718 0.0
C226 C 0.41385 0.14336 0.91375 0.0
C227 C 0.30488 0.14489 0.94258 0.0
C228 C 0.36873 0.06814 0.91337 0.0
C229 C 0.29184 0.03055 0.92899 0.0
H230 H 0.14468 0.20896 0.49436 0.0
H231 H 0.92851 0.12617 0.46386 0.0
H232 H -0.02937 0.24954 0.41789 0.0
H233 H 0.06523 0.38489 0.39631 0.0
H234 H 0.27928 0.46476 0.42955 0.0
H235 H 0.24253 0.33869 0.46352 0.0
C236 C 0.10702 0.21773 0.47714 0.0
C237 C 0.0334 0.15918 0.4832 0.0
C238 C 0.1314 0.28843 0.45121 0.0
C239 C -0.01452 0.17077 0.45994 0.0
C240 C 0.00945 0.2413 0.4338 0.0
C241 C 0.10402 0.37395 0.4098 0.0
C242 C 0.17457 0.43322 0.41078 0.0
C243 C 0.08173 0.30114 0.43052 0.0
C244 C 0.22468 0.41935 0.4286 0.0
C245 C 0.20358 0.34751 0.44827 0.0
H246 H -0.04938 0.14119 0.95841 0.0
H247 H 0.76592 0.91478 1.00326 0.0
H248 H 0.6908 0.94586 0.96075 0.0
H249 H 0.67307 0.04165 0.92154 0.0
H250 H 0.85906 0.26656 0.87293 0.0
H251 H 0.93935 0.23195 0.90476 0.0
C252 C 0.89437 0.09866 0.95792 0.0
C253 C 0.86306 0.0263 0.98437 0.0
C254 C 0.85209 0.11666 0.93264 0.0
C255 C 0.79072 -0.02902 0.98315 0.0
C256 C 0.74778 -0.01127 0.95902 0.0
C257 C 0.73179 0.08219 0.91636 0.0
C258 C 0.76066 0.15622 0.89499 0.0
C259 C 0.77719 0.06186 0.93502 0.0
C260 C 0.83636 0.20899 0.88878 0.0
C261 C 0.8819 0.1894 0.90753 0.0
H262 H 0.7057 0.80701 0.40652 0.0
H263 H 0.66817 0.91059 0.51746 0.0
H264 H 0.55935 0.89357 0.48967 0.0
H265 H 0.46529 0.83263 0.44226 0.0
H266 H 0.49765 0.7214 0.33522 0.0
H267 H 0.61916 0.75977 0.35172 0.0
C268 C 0.67393 0.82636 0.42423 0.0
C269 C 0.69396 0.8587 0.46451 0.0
C270 C 0.6108 0.81527 0.40854 0.0
C271 C 0.65373 0.88542 0.48644 0.0
C272 C 0.5913 0.87534 0.47075 0.0
C273 C 0.49997 0.8185 0.42178 0.0
C274 C 0.47343 0.77509 0.38725 0.0
C275 C 0.56797 0.83802 0.43303 0.0
C276 C 0.51819 0.7567 0.36087 0.0
C277 C 0.58694 0.7774 0.37104 0.0
H278 H 0.82543 0.71054 0.92586 0.0
H279 H 0.92629 0.65265 1.02952 0.0
H280 H 0.89825 0.54341 0.99658 0.0
H281 H 0.82463 0.45399 0.94863 0.0
H282 H 0.71784 0.50984 0.84829 0.0
H283 H 0.76966 0.63123 0.86845 0.0
C284 C 0.84335 0.6751 0.93992 0.0
C285 C 0.8773 0.68864 0.98006 0.0
C286 C 0.82492 0.61177 0.92177 0.0
C287 C 0.90059 0.64309 0.99837 0.0
C288 C 0.88361 0.58033 0.97996 0.0
C289 C 0.81413 0.49353 0.93049 0.0
C290 C 0.76764 0.47334 0.89695 0.0
C291 C 0.84259 0.56235 0.94332 0.0
C292 C 0.75458 0.52479 0.87342 0.0
C293 C 0.78346 0.5938 0.88546 0.0
loop_
_geom_bond_atom_site_label_1
_geom_bond_atom_site_label_2
_geom_bond_distance
_geom_bond_site_symmetry_2
_ccdc_geom_bond_type
Co0 N5 2.057 . S
Co0 O17 2.021 1_665 S
Co0 O20 2.062 1_656 S
Co0 O24 2.117 1_556 S
Co0 O25 2.020 1_565 S
C1 O21 1.259 1_565 S
C1 O24 1.258 . S
Co2 N11 2.057 . S
Co2 O18 2.117 1_554 S
Co2 O19 2.020 . S
Co2 O21 2.021 1_455 S
Co2 O26 2.058 1_454 S
C3 N5 1.316 . S
C3 N6 1.347 . S
C3 H8 0.931 1_655 S
C4 N5 1.375 . S
C4 C7 1.350 . S
C4 H9 0.930 . S
N5 Co0 2.057 . S
N5 C3 1.316 . S
N5 C4 1.375 . S
N6 C3 1.347 . S
N6 C7 1.373 . S
C7 C4 1.350 . S
C7 N6 1.373 . S
C7 H28 0.931 . S
H8 C3 0.931 1_455 S
H9 C4 0.930 . S
C10 O17 1.259 . S
C10 O18 1.258 . S
N11 Co2 2.057 . S
N11 C12 1.316 . S
N11 C13 1.375 . S
C12 N11 1.316 . S
C12 N14 1.347 . S
C12 H23 0.931 . S
C13 N11 1.375 . S
C13 C15 1.350 . S
C13 H22 0.930 . S
N14 C12 1.347 . S
N14 C15 1.373 . S
C15 C13 1.350 . S
C15 N14 1.373 . S
C15 H29 0.931 . S
C16 O19 1.256 1_565 S
C16 O20 1.255 . S
O17 Co0 2.021 1_445 S
O17 C10 1.259 . S
O18 Co2 2.117 1_556 S
O18 C10 1.258 . S
O19 Co2 2.020 . S
O19 C16 1.256 1_545 S
O20 Co0 2.062 1_454 S
O20 C16 1.255 . S
O21 C1 1.259 1_545 S
O21 Co2 2.021 1_655 S
H22 C13 0.930 . S
H23 C12 0.931 . S
O24 Co0 2.117 1_554 S
O24 C1 1.258 . S
O25 Co0 2.020 1_545 S
O25 C27 1.256 . S
O26 Co2 2.058 1_656 S
O26 C27 1.256 . S
C27 O25 1.256 . S
C27 O26 1.256 . S
H28 C7 0.931 . S
H29 C15 0.931 . S
Co30 N35 2.057 . S
Co30 O47 2.021 1_545 S
Co30 O50 2.062 1_545 S
Co30 O54 2.117 . S
Co30 O55 2.020 . S
C31 O51 1.259 . S
C31 O54 1.258 . S
Co32 N41 2.057 . S
Co32 O48 2.117 . S
Co32 O49 2.020 1_655 S
Co32 O51 2.021 1_665 S
Co32 O56 2.062 1_565 S
C33 N35 1.316 . S
C33 N36 1.347 . S
C33 H38 0.931 . S
C34 N35 1.375 . S
C34 C37 1.350 . S
C34 H39 0.930 . S
N35 Co30 2.057 . S
N35 C33 1.316 . S
N35 C34 1.375 . S
N36 C33 1.347 . S
N36 C37 1.373 . S
C37 C34 1.350 . S
C37 N36 1.373 . S
C37 H58 0.931 . S
H38 C33 0.931 . S
H39 C34 0.930 . S
C40 O47 1.259 1_655 S
C40 O48 1.258 . S
N41 Co32 2.057 . S
N41 C42 1.316 . S
N41 C43 1.375 . S
C42 N41 1.316 . S
C42 N44 1.347 . S
C42 H53 0.931 . S
C43 N41 1.375 . S
C43 C45 1.350 . S
C43 H52 0.930 . S
N44 C42 1.347 . S
N44 C45 1.373 . S
C45 C43 1.350 . S
C45 N44 1.373 . S
C45 H59 0.931 . S
C46 O49 1.256 . S
C46 O50 1.255 . S
O47 Co30 2.021 1_565 S
O47 C40 1.259 1_455 S
O48 Co32 2.117 . S
O48 C40 1.258 . S
O49 Co32 2.020 1_455 S
O49 C46 1.256 . S
O50 Co30 2.062 1_565 S
O50 C46 1.255 . S
O51 C31 1.259 . S
O51 Co32 2.021 1_445 S
H52 C43 0.930 . S
H53 C42 0.931 . S
O54 Co30 2.117 . S
O54 C31 1.258 . S
O55 Co30 2.020 . S
O55 C57 1.256 1_455 S
O56 Co32 2.062 1_545 S
O56 C57 1.255 . S
C57 O55 1.256 1_655 S
C57 O56 1.255 . S
H58 C37 0.931 . S
H59 C45 0.931 . S
Zn60 O66 1.920 . S
Zn60 O72 1.898 . S
Zn60 O75 1.905 . S
Zn61 O69 1.905 . S
Zn61 O70 1.898 . S
Zn61 O78 1.920 . S
Zn62 O65 2.080 . S
Zn62 O68 2.114 . S
Zn62 O71 2.120 . S
Zn62 O73 2.120 . S
Zn62 O74 2.114 . S
Zn62 O77 2.080 . S
C63 O68 1.166 . S
C63 O69 1.182 . S
C64 O70 1.167 . S
C64 O71 1.299 . S
O65 Zn62 2.080 . S
O65 C79 1.305 . S
O66 Zn60 1.920 . S
O66 C79 1.234 . S
C67 O72 1.167 . S
C67 O73 1.299 . S
O68 Zn62 2.114 . S
O68 C63 1.166 . S
O69 Zn61 1.905 . S
O69 C63 1.182 . S
O70 Zn61 1.898 . S
O70 C64 1.167 . S
O71 Zn62 2.120 . S
O71 C64 1.299 . S
O72 Zn60 1.898 . S
O72 C67 1.167 . S
O73 Zn62 2.120 . S
O73 C67 1.299 . S
O74 Zn62 2.114 . S
O74 C76 1.166 . S
O75 Zn60 1.905 . S
O75 C76 1.182 . S
C76 O74 1.166 . S
C76 O75 1.182 . S
O77 Zn62 2.080 . S
O77 C80 1.305 . S
O78 Zn61 1.920 . S
O78 C80 1.234 . S
C79 O65 1.305 . S
C79 O66 1.234 . S
C80 O77 1.305 . S
C80 O78 1.234 . S
Zn81 O87 1.920 . S
Zn81 O93 1.898 . S
Zn81 O96 1.905 . S
Zn82 O90 1.905 . S
Zn82 O91 1.898 . S
Zn82 O99 1.920 . S
Zn83 O86 2.080 . S
Zn83 O89 2.114 . S
Zn83 O92 2.120 . S
Zn83 O94 2.120 . S
Zn83 O95 2.114 . S
Zn83 O98 2.080 . S
C84 O89 1.166 . S
C84 O90 1.182 . S
C85 O91 1.167 . S
C85 O92 1.299 . S
O86 Zn83 2.080 . S
O86 C100 1.305 . S
O87 Zn81 1.920 . S
O87 C100 1.234 . S
C88 O93 1.167 . S
C88 O94 1.299 . S
O89 Zn83 2.114 . S
O89 C84 1.166 . S
O90 Zn82 1.905 . S
O90 C84 1.182 . S
O91 Zn82 1.898 . S
O91 C85 1.167 . S
O92 Zn83 2.120 . S
O92 C85 1.299 . S
O93 Zn81 1.898 . S
O93 C88 1.167 . S
O94 Zn83 2.120 . S
O94 C88 1.299 . S
O95 Zn83 2.114 . S
O95 C97 1.166 . S
O96 Zn81 1.905 . S
O96 C97 1.182 . S
C97 O95 1.166 . S
C97 O96 1.182 . S
O98 Zn83 2.080 . S
O98 C101 1.305 . S
O99 Zn82 1.920 . S
O99 C101 1.234 . S
C100 O86 1.305 . S
C100 O87 1.234 . S
C101 O98 1.305 . S
C101 O99 1.234 . S
H102 C108 0.930 . S
H103 C111 0.930 . S
H104 C112 0.930 . S
H105 C113 0.930 . S
H106 C116 0.930 . S
H107 C117 0.930 . S
C108 H102 0.930 . S
C108 C109 1.355 . S
C108 C110 1.415 . S
C109 C108 1.355 . S
C109 C111 1.419 . S
C110 C108 1.415 . S
C110 C115 1.425 . S
C110 C117 1.409 . S
C111 H103 0.930 . S
C111 C109 1.419 . S
C111 C112 1.362 . S
C112 H104 0.930 . S
C112 C111 1.362 . S
C112 C115 1.409 . S
C113 H105 0.930 . S
C113 C114 1.355 . S
C113 C115 1.415 . S
C114 C113 1.355 . S
C114 C116 1.419 . S
C115 C110 1.425 . S
C115 C112 1.409 . S
C115 C113 1.415 . S
C116 H106 0.930 . S
C116 C114 1.419 . S
C116 C117 1.362 . S
C117 H107 0.930 . S
C117 C110 1.409 . S
C117 C116 1.362 . S
H118 C124 0.930 . S
H119 C127 0.930 . S
H120 C128 0.930 . S
H121 C129 0.930 . S
H122 C132 0.930 . S
H123 C133 0.930 . S
C124 H118 0.930 . S
C124 C125 1.355 . S
C124 C126 1.415 . S
C125 C124 1.355 . S
C125 C127 1.419 . S
C126 C124 1.415 . S
C126 C131 1.425 . S
C126 C133 1.409 . S
C127 H119 0.930 . S
C127 C125 1.419 . S
C127 C128 1.362 . S
C128 H120 0.930 . S
C128 C127 1.362 . S
C128 C131 1.409 . S
C129 H121 0.930 . S
C129 C130 1.355 . S
C129 C131 1.415 . S
C130 C129 1.355 . S
C130 C132 1.419 . S
C131 C126 1.425 . S
C131 C128 1.409 . S
C131 C129 1.415 . S
C132 H122 0.930 . S
C132 C130 1.419 . S
C132 C133 1.362 . S
C133 H123 0.930 . S
C133 C126 1.409 . S
C133 C132 1.362 . S
H134 C140 0.930 . S
H135 C143 0.930 . S
H136 C144 0.930 . S
H137 C145 0.930 . S
H138 C148 0.930 . S
H139 C149 0.930 . S
C140 H134 0.930 . S
C140 C141 1.355 . S
C140 C142 1.415 . S
C141 C140 1.355 . S
C141 C143 1.419 . S
C142 C140 1.415 . S
C142 C147 1.425 . S
C142 C149 1.409 . S
C143 H135 0.930 . S
C143 C141 1.419 . S
C143 C144 1.362 . S
C144 H136 0.930 . S
C144 C143 1.362 . S
C144 C147 1.409 . S
C145 H137 0.930 . S
C145 C146 1.355 . S
C145 C147 1.415 . S
C146 C145 1.355 . S
C146 C148 1.419 . S
C147 C142 1.425 . S
C147 C144 1.409 . S
C147 C145 1.415 . S
C148 H138 0.930 . S
C148 C146 1.419 . S
C148 C149 1.362 . S
C149 H139 0.930 . S
C149 C142 1.409 . S
C149 C148 1.362 . S
H150 C156 0.930 . S
H151 C159 0.930 . S
H152 C160 0.930 . S
H153 C161 0.930 . S
H154 C164 0.930 . S
H155 C165 0.930 . S
C156 H150 0.930 . S
C156 C157 1.355 . S
C156 C158 1.415 . S
C157 C156 1.355 . S
C157 C159 1.419 . S
C158 C156 1.415 . S
C158 C163 1.425 . S
C158 C165 1.409 . S
C159 H151 0.930 . S
C159 C157 1.419 . S
C159 C160 1.362 . S
C160 H152 0.930 . S
C160 C159 1.362 . S
C160 C163 1.409 . S
C161 H153 0.930 . S
C161 C162 1.355 . S
C161 C163 1.415 . S
C162 C161 1.355 . S
C162 C164 1.419 . S
C163 C158 1.425 . S
C163 C160 1.409 . S
C163 C161 1.415 . S
C164 H154 0.930 . S
C164 C162 1.419 . S
C164 C165 1.362 . S
C165 H155 0.930 . S
C165 C158 1.409 . S
C165 C164 1.362 . S
H166 C172 0.930 . S
H167 C175 0.930 . S
H168 C176 0.930 . S
H169 C177 0.930 . S
H170 C180 0.930 . S
H171 C181 0.930 . S
C172 H166 0.930 . S
C172 C173 1.355 . S
C172 C174 1.415 . S
C173 C172 1.355 . S
C173 C175 1.419 . S
C174 C172 1.415 . S
C174 C179 1.425 . S
C174 C181 1.409 . S
C175 H167 0.930 . S
C175 C173 1.419 . S
C175 C176 1.362 . S
C176 H168 0.930 . S
C176 C175 1.362 . S
C176 C179 1.409 . S
C177 H169 0.930 . S
C177 C178 1.355 . S
C177 C179 1.415 . S
C178 C177 1.355 . S
C178 C180 1.419 . S
C179 C174 1.425 . S
C179 C176 1.409 . S
C179 C177 1.415 . S
C180 H170 0.930 . S
C180 C178 1.419 . S
C180 C181 1.362 . S
C181 H171 0.930 . S
C181 C174 1.409 . S
C181 C180 1.362 . S
H182 C188 0.930 . S
H183 C191 0.930 . S
H184 C192 0.930 . S
H185 C193 0.930 . S
H186 C196 0.930 . S
H187 C197 0.930 . S
C188 H182 0.930 . S
C188 C189 1.355 . S
C188 C190 1.415 . S
C189 C188 1.355 . S
C189 C191 1.419 . S
C190 C188 1.415 . S
C190 C195 1.425 . S
C190 C197 1.409 . S
C191 H183 0.930 . S
C191 C189 1.419 . S
C191 C192 1.362 . S
C192 H184 0.930 . S
C192 C191 1.362 . S
C192 C195 1.409 . S
C193 H185 0.930 . S
C193 C194 1.355 . S
C193 C195 1.415 . S
C194 C193 1.355 . S
C194 C196 1.419 . S
C195 C190 1.425 . S
C195 C192 1.409 . S
C195 C193 1.415 . S
C196 H186 0.930 . S
C196 C194 1.419 . S
C196 C197 1.362 . S
C197 H187 0.930 . S
C197 C190 1.409 . S
C197 C196 1.362 . S
H198 C204 0.930 . S
H199 C207 0.930 . S
H200 C208 0.930 . S
H201 C209 0.930 . S
H202 C212 0.930 . S
H203 C213 0.930 . S
C204 H198 0.930 . S
C204 C205 1.355 . S
C204 C206 1.415 . S
C205 C204 1.355 . S
C205 C207 1.419 . S
C206 C204 1.415 . S
C206 C211 1.425 . S
C206 C213 1.409 . S
C207 H199 0.930 . S
C207 C205 1.419 . S
C207 C208 1.362 . S
C208 H200 0.930 . S
C208 C207 1.362 . S
C208 C211 1.409 . S
C209 H201 0.930 . S
C209 C210 1.355 . S
C209 C211 1.415 . S
C210 C209 1.355 . S
C210 C212 1.419 . S
C211 C206 1.425 . S
C211 C208 1.409 . S
C211 C209 1.415 . S
C212 H202 0.930 . S
C212 C210 1.419 . S
C212 C213 1.362 . S
C213 H203 0.930 . S
C213 C206 1.409 . S
C213 C212 1.362 . S
H214 C220 0.930 . S
H215 C223 0.930 . S
H216 C224 0.930 . S
H217 C225 0.930 . S
H218 C228 0.930 . S
H219 C229 0.930 . S
C220 H214 0.930 . S
C220 C221 1.355 . S
C220 C222 1.415 . S
C221 C220 1.355 . S
C221 C223 1.419 . S
C222 C220 1.415 . S
C222 C227 1.425 . S
C222 C229 1.409 . S
C223 H215 0.930 . S
C223 C221 1.419 . S
C223 C224 1.362 . S
C224 H216 0.930 . S
C224 C223 1.362 . S
C224 C227 1.409 . S
C225 H217 0.930 . S
C225 C226 1.355 . S
C225 C227 1.415 . S
C226 C225 1.355 . S
C226 C228 1.419 . S
C227 C222 1.425 . S
C227 C224 1.409 . S
C227 C225 1.415 . S
C228 H218 0.930 . S
C228 C226 1.419 . S
C228 C229 1.362 . S
C229 H219 0.930 . S
C229 C222 1.409 . S
C229 C228 1.362 . S
H230 C236 0.930 . S
H231 C239 0.930 1_655 S
H232 C240 0.930 . S
H233 C241 0.930 . S
H234 C244 0.930 . S
H235 C245 0.930 . S
C236 H230 0.930 . S
C236 C237 1.355 . S
C236 C238 1.415 . S
C237 C236 1.355 . S
C237 C239 1.419 . S
C238 C236 1.415 . S
C238 C243 1.425 . S
C238 C245 1.409 . S
C239 H231 0.930 1_455 S
C239 C237 1.419 . S
C239 C240 1.362 . S
C240 H232 0.930 . S
C240 C239 1.362 . S
C240 C243 1.409 . S
C241 H233 0.930 . S
C241 C242 1.355 . S
C241 C243 1.415 . S
C242 C241 1.355 . S
C242 C244 1.419 . S
C243 C238 1.425 . S
C243 C240 1.409 . S
C243 C241 1.415 . S
C244 H234 0.930 . S
C244 C242 1.419 . S
C244 C245 1.362 . S
C245 H235 0.930 . S
C245 C238 1.409 . S
C245 C244 1.362 . S
H246 C252 0.930 . S
H247 C255 0.930 . S
H248 C256 0.930 . S
H249 C257 0.930 . S
H250 C260 0.930 . S
H251 C261 0.930 . S
C252 H246 0.930 . S
C252 C253 1.355 . S
C252 C254 1.415 . S
C253 C252 1.355 . S
C253 C255 1.419 . S
C254 C252 1.415 . S
C254 C259 1.425 . S
C254 C261 1.409 . S
C255 H247 0.930 . S
C255 C253 1.419 . S
C255 C256 1.362 . S
C256 H248 0.930 . S
C256 C255 1.362 . S
C256 C259 1.409 . S
C257 H249 0.930 . S
C257 C258 1.355 . S
C257 C259 1.415 . S
C258 C257 1.355 . S
C258 C260 1.419 . S
C259 C254 1.425 . S
C259 C256 1.409 . S
C259 C257 1.415 . S
C260 H250 0.930 . S
C260 C258 1.419 . S
C260 C261 1.362 . S
C261 H251 0.930 . S
C261 C254 1.409 . S
C261 C260 1.362 . S
H262 C268 0.930 . S
H263 C271 0.930 . S
H264 C272 0.930 . S
H265 C273 0.930 . S
H266 C276 0.930 . S
H267 C277 0.930 . S
C268 H262 0.930 . S
C268 C269 1.355 . S
C268 C270 1.415 . S
C269 C268 1.355 . S
C269 C271 1.419 . S
C270 C268 1.415 . S
C270 C275 1.425 . S
C270 C277 1.409 . S
C271 H263 0.930 . S
C271 C269 1.419 . S
C271 C272 1.362 . S
C272 H264 0.930 . S
C272 C271 1.362 . S
C272 C275 1.409 . S
C273 H265 0.930 . S
C273 C274 1.355 . S
C273 C275 1.415 . S
C274 C273 1.355 . S
C274 C276 1.419 . S
C275 C270 1.425 . S
C275 C272 1.409 . S
C275 C273 1.415 . S
C276 H266 0.930 . S
C276 C274 1.419 . S
C276 C277 1.362 . S
C277 H267 0.930 . S
C277 C270 1.409 . S
C277 C276 1.362 . S
H278 C284 0.930 . S
H279 C287 0.930 . S
H280 C288 0.930 . S
H281 C289 0.930 . S
H282 C292 0.930 . S
H283 C293 0.930 . S
C284 H278 0.930 . S
C284 C285 1.355 . S
C284 C286 1.415 . S
C285 C284 1.355 . S
C285 C287 1.419 . S
C286 C284 1.415 . S
C286 C291 1.425 . S
C286 C293 1.409 . S
C287 H279 0.930 . S
C287 C285 1.419 . S
C287 C288 1.362 . S
C288 H280 0.930 . S
C288 C287 1.362 . S
C288 C291 1.409 . S
C289 H281 0.930 . S
C289 C290 1.355 . S
C289 C291 1.415 . S
C290 C289 1.355 . S
C290 C292 1.419 . S
C291 C286 1.425 . S
C291 C288 1.409 . S
C291 C289 1.415 . S
C292 H282 0.930 . S
C292 C290 1.419 . S
C292 C293 1.362 . S
C293 H283 0.930 . S
C293 C286 1.409 . S
C293 C292 1.362 . S
C109 C16 1.507 . S
C114 C79 1.283 . S
C125 N36 1.243 . S
C130 C85 1.143 . S
C141 N14 1.259 . S
C146 C76 1.131 . S
C157 C57 1.680 . S
C162 C101 1.522 . S
C173 C1 1.818 . S
C178 C67 1.626 . S
C194 C84 1.609 . S
C189 C40 1.685 . S
C205 C46 1.505 . S
C210 C80 1.285 . S
C226 C97 1.610 . S
C221 C10 1.684 . S
C242 C64 1.664 . S
C237 C31 1.806 . S
C258 C100 1.411 . S
C253 C27 1.648 . S
C274 C63 1.222 . S
C269 N44 1.251 . S
C290 C88 1.165 . S
C285 N6 1.185 . S
