# Generated by pormake.
# Topology gar, (4,6)-cn, num edge types: 1
# Building blocks:
#     Node 0, Type 0, BuildingBlock: UXUYUI_clean_sbu_0, # of connection points: 4
#     Node 1, Type 0, BuildingBlock: UXUYUI_clean_sbu_0, # of connection points: 4
#     Node 2, Type 0, BuildingBlock: UXUYUI_clean_sbu_0, # of connection points: 4
#     Node 3, Type 0, BuildingBlock: UXUYUI_clean_sbu_0, # of connection points: 4
#     Node 4, Type 0, BuildingBlock: UXUYUI_clean_sbu_0, # of connection points: 4
#     Node 5, Type 0, BuildingBlock: UXUYUI_clean_sbu_0, # of connection points: 4
#     Node 6, Type 0, BuildingBlock: UXUYUI_clean_sbu_0, # of connection points: 4
#     Node 7, Type 0, BuildingBlock: UXUYUI_clean_sbu_0, # of connection points: 4
#     Node 8, Type 0, BuildingBlock: UXUYUI_clean_sbu_0, # of connection points: 4
#     Node 9, Type 0, BuildingBlock: UXUYUI_clean_sbu_0, # of connection points: 4
#     Node 10, Type 0, BuildingBlock: UXUYUI_clean_sbu_0, # of connection points: 4
#     Node 11, Type 0, BuildingBlock: UXUYUI_clean_sbu_0, # of connection points: 4
#     Node 12, Type 0, BuildingBlock: UXUYUI_clean_sbu_0, # of connection points: 4
#     Node 13, Type 0, BuildingBlock: UXUYUI_clean_sbu_0, # of connection points: 4
#     Node 14, Type 0, BuildingBlock: UXUYUI_clean_sbu_0, # of connection points: 4
#     Node 15, Type 0, BuildingBlock: UXUYUI_clean_sbu_0, # of connection points: 4
#     Node 16, Type 0, BuildingBlock: UXUYUI_clean_sbu_0, # of connection points: 4
#     Node 17, Type 0, BuildingBlock: UXUYUI_clean_sbu_0, # of connection points: 4
#     Node 18, Type 0, BuildingBlock: UXUYUI_clean_sbu_0, # of connection points: 4
#     Node 19, Type 0, BuildingBlock: UXUYUI_clean_sbu_0, # of connection points: 4
#     Node 20, Type 0, BuildingBlock: UXUYUI_clean_sbu_0, # of connection points: 4
#     Node 21, Type 0, BuildingBlock: UXUYUI_clean_sbu_0, # of connection points: 4
#     Node 22, Type 0, BuildingBlock: UXUYUI_clean_sbu_0, # of connection points: 4
#     Node 23, Type 0, BuildingBlock: UXUYUI_clean_sbu_0, # of connection points: 4
#     Node 24, Type 1, BuildingBlock: PAMTOO_clean_sbu_0, # of connection points: 6
#     Node 25, Type 1, BuildingBlock: PAMTOO_clean_sbu_0, # of connection points: 6
#     Node 26, Type 1, BuildingBlock: PAMTOO_clean_sbu_0, # of connection points: 6
#     Node 27, Type 1, BuildingBlock: PAMTOO_clean_sbu_0, # of connection points: 6
#     Node 28, Type 1, BuildingBlock: PAMTOO_clean_sbu_0, # of connection points: 6
#     Node 29, Type 1, BuildingBlock: PAMTOO_clean_sbu_0, # of connection points: 6
#     Node 30, Type 1, BuildingBlock: PAMTOO_clean_sbu_0, # of connection points: 6
#     Node 31, Type 1, BuildingBlock: PAMTOO_clean_sbu_0, # of connection points: 6
#     Node 32, Type 1, BuildingBlock: PAMTOO_clean_sbu_0, # of connection points: 6
#     Node 33, Type 1, BuildingBlock: PAMTOO_clean_sbu_0, # of connection points: 6
#     Node 34, Type 1, BuildingBlock: PAMTOO_clean_sbu_0, # of connection points: 6
#     Node 35, Type 1, BuildingBlock: PAMTOO_clean_sbu_0, # of connection points: 6
#     Node 36, Type 1, BuildingBlock: PAMTOO_clean_sbu_0, # of connection points: 6
#     Node 37, Type 1, BuildingBlock: PAMTOO_clean_sbu_0, # of connection points: 6
#     Node 38, Type 1, BuildingBlock: PAMTOO_clean_sbu_0, # of connection points: 6
#     Node 39, Type 1, BuildingBlock: PAMTOO_clean_sbu_0, # of connection points: 6
#     Edge 40, Type (0, 1), BuildingBlock: CIFDUS_clean_linker_0, # of connection points: 2
#     Edge 41, Type (0, 1), BuildingBlock: CIFDUS_clean_linker_0, # of connection points: 2
#     Edge 42, Type (0, 1), BuildingBlock: CIFDUS_clean_linker_0, # of connection points: 2
#     Edge 43, Type (0, 1), BuildingBlock: CIFDUS_clean_linker_0, # of connection points: 2
#     Edge 44, Type (0, 1), BuildingBlock: CIFDUS_clean_linker_0, # of connection points: 2
#     Edge 45, Type (0, 1), BuildingBlock: CIFDUS_clean_linker_0, # of connection points: 2
#     Edge 46, Type (0, 1), BuildingBlock: CIFDUS_clean_linker_0, # of connection points: 2
#     Edge 47, Type (0, 1), BuildingBlock: CIFDUS_clean_linker_0, # of connection points: 2
#     Edge 48, Type (0, 1), BuildingBlock: CIFDUS_clean_linker_0, # of connection points: 2
#     Edge 49, Type (0, 1), BuildingBlock: CIFDUS_clean_linker_0, # of connection points: 2
#     Edge 50, Type (0, 1), BuildingBlock: CIFDUS_clean_linker_0, # of connection points: 2
#     Edge 51, Type (0, 1), BuildingBlock: CIFDUS_clean_linker_0, # of connection points: 2
#     Edge 52, Type (0, 1), BuildingBlock: CIFDUS_clean_linker_0, # of connection points: 2
#     Edge 53, Type (0, 1), BuildingBlock: CIFDUS_clean_linker_0, # of connection points: 2
#     Edge 54, Type (0, 1), BuildingBlock: CIFDUS_clean_linker_0, # of connection points: 2
#     Edge 55, Type (0, 1), BuildingBlock: CIFDUS_clean_linker_0, # of connection points: 2
#     Edge 56, Type (0, 1), BuildingBlock: CIFDUS_clean_linker_0, # of connection points: 2
#     Edge 57, Type (0, 1), BuildingBlock: CIFDUS_clean_linker_0, # of connection points: 2
#     Edge 58, Type (0, 1), BuildingBlock: CIFDUS_clean_linker_0, # of connection points: 2
#     Edge 59, Type (0, 1), BuildingBlock: CIFDUS_clean_linker_0, # of connection points: 2
#     Edge 60, Type (0, 1), BuildingBlock: CIFDUS_clean_linker_0, # of connection points: 2
#     Edge 61, Type (0, 1), BuildingBlock: CIFDUS_clean_linker_0, # of connection points: 2
#     Edge 62, Type (0, 1), BuildingBlock: CIFDUS_clean_linker_0, # of connection points: 2
#     Edge 63, Type (0, 1), BuildingBlock: CIFDUS_clean_linker_0, # of connection points: 2
#     Edge 64, Type (0, 1), BuildingBlock: CIFDUS_clean_linker_0, # of connection points: 2
#     Edge 65, Type (0, 1), BuildingBlock: CIFDUS_clean_linker_0, # of connection points: 2
#     Edge 66, Type (0, 1), BuildingBlock: CIFDUS_clean_linker_0, # of connection points: 2
#     Edge 67, Type (0, 1), BuildingBlock: CIFDUS_clean_linker_0, # of connection points: 2
#     Edge 68, Type (0, 1), BuildingBlock: CIFDUS_clean_linker_0, # of connection points: 2
#     Edge 69, Type (0, 1), BuildingBlock: CIFDUS_clean_linker_0, # of connection points: 2
#     Edge 70, Type (0, 1), BuildingBlock: CIFDUS_clean_linker_0, # of connection points: 2
#     Edge 71, Type (0, 1), BuildingBlock: CIFDUS_clean_linker_0, # of connection points: 2
#     Edge 72, Type (0, 1), BuildingBlock: CIFDUS_clean_linker_0, # of connection points: 2
#     Edge 73, Type (0, 1), BuildingBlock: CIFDUS_clean_linker_0, # of connection points: 2
#     Edge 74, Type (0, 1), BuildingBlock: CIFDUS_clean_linker_0, # of connection points: 2
#     Edge 75, Type (0, 1), BuildingBlock: CIFDUS_clean_linker_0, # of connection points: 2
#     Edge 76, Type (0, 1), BuildingBlock: CIFDUS_clean_linker_0, # of connection points: 2
#     Edge 77, Type (0, 1), BuildingBlock: CIFDUS_clean_linker_0, # of connection points: 2
#     Edge 78, Type (0, 1), BuildingBlock: CIFDUS_clean_linker_0, # of connection points: 2
#     Edge 79, Type (0, 1), BuildingBlock: CIFDUS_clean_linker_0, # of connection points: 2
#     Edge 80, Type (0, 1), BuildingBlock: CIFDUS_clean_linker_0, # of connection points: 2
#     Edge 81, Type (0, 1), BuildingBlock: CIFDUS_clean_linker_0, # of connection points: 2
#     Edge 82, Type (0, 1), BuildingBlock: CIFDUS_clean_linker_0, # of connection points: 2
#     Edge 83, Type (0, 1), BuildingBlock: CIFDUS_clean_linker_0, # of connection points: 2
#     Edge 84, Type (0, 1), BuildingBlock: CIFDUS_clean_linker_0, # of connection points: 2
#     Edge 85, Type (0, 1), BuildingBlock: CIFDUS_clean_linker_0, # of connection points: 2
#     Edge 86, Type (0, 1), BuildingBlock: CIFDUS_clean_linker_0, # of connection points: 2
#     Edge 87, Type (0, 1), BuildingBlock: CIFDUS_clean_linker_0, # of connection points: 2
#     Edge 88, Type (0, 1), BuildingBlock: CIFDUS_clean_linker_0, # of connection points: 2
#     Edge 89, Type (0, 1), BuildingBlock: CIFDUS_clean_linker_0, # of connection points: 2
#     Edge 90, Type (0, 1), BuildingBlock: CIFDUS_clean_linker_0, # of connection points: 2
#     Edge 91, Type (0, 1), BuildingBlock: CIFDUS_clean_linker_0, # of connection points: 2
#     Edge 92, Type (0, 1), BuildingBlock: CIFDUS_clean_linker_0, # of connection points: 2
#     Edge 93, Type (0, 1), BuildingBlock: CIFDUS_clean_linker_0, # of connection points: 2
#     Edge 94, Type (0, 1), BuildingBlock: CIFDUS_clean_linker_0, # of connection points: 2
#     Edge 95, Type (0, 1), BuildingBlock: CIFDUS_clean_linker_0, # of connection points: 2
#     Edge 96, Type (0, 1), BuildingBlock: CIFDUS_clean_linker_0, # of connection points: 2
#     Edge 97, Type (0, 1), BuildingBlock: CIFDUS_clean_linker_0, # of connection points: 2
#     Edge 98, Type (0, 1), BuildingBlock: CIFDUS_clean_linker_0, # of connection points: 2
#     Edge 99, Type (0, 1), BuildingBlock: CIFDUS_clean_linker_0, # of connection points: 2
#     Edge 100, Type (0, 1), BuildingBlock: CIFDUS_clean_linker_0, # of connection points: 2
#     Edge 101, Type (0, 1), BuildingBlock: CIFDUS_clean_linker_0, # of connection points: 2
#     Edge 102, Type (0, 1), BuildingBlock: CIFDUS_clean_linker_0, # of connection points: 2
#     Edge 103, Type (0, 1), BuildingBlock: CIFDUS_clean_linker_0, # of connection points: 2
#     Edge 104, Type (0, 1), BuildingBlock: CIFDUS_clean_linker_0, # of connection points: 2
#     Edge 105, Type (0, 1), BuildingBlock: CIFDUS_clean_linker_0, # of connection points: 2
#     Edge 106, Type (0, 1), BuildingBlock: CIFDUS_clean_linker_0, # of connection points: 2
#     Edge 107, Type (0, 1), BuildingBlock: CIFDUS_clean_linker_0, # of connection points: 2
#     Edge 108, Type (0, 1), BuildingBlock: CIFDUS_clean_linker_0, # of connection points: 2
#     Edge 109, Type (0, 1), BuildingBlock: CIFDUS_clean_linker_0, # of connection points: 2
#     Edge 110, Type (0, 1), BuildingBlock: CIFDUS_clean_linker_0, # of connection points: 2
#     Edge 111, Type (0, 1), BuildingBlock: CIFDUS_clean_linker_0, # of connection points: 2
#     Edge 112, Type (0, 1), BuildingBlock: CIFDUS_clean_linker_0, # of connection points: 2
#     Edge 113, Type (0, 1), BuildingBlock: CIFDUS_clean_linker_0, # of connection points: 2
#     Edge 114, Type (0, 1), BuildingBlock: CIFDUS_clean_linker_0, # of connection points: 2
#     Edge 115, Type (0, 1), BuildingBlock: CIFDUS_clean_linker_0, # of connection points: 2
#     Edge 116, Type (0, 1), BuildingBlock: CIFDUS_clean_linker_0, # of connection points: 2
#     Edge 117, Type (0, 1), BuildingBlock: CIFDUS_clean_linker_0, # of connection points: 2
#     Edge 118, Type (0, 1), BuildingBlock: CIFDUS_clean_linker_0, # of connection points: 2
#     Edge 119, Type (0, 1), BuildingBlock: CIFDUS_clean_linker_0, # of connection points: 2
#     Edge 120, Type (0, 1), BuildingBlock: CIFDUS_clean_linker_0, # of connection points: 2
#     Edge 121, Type (0, 1), BuildingBlock: CIFDUS_clean_linker_0, # of connection points: 2
#     Edge 122, Type (0, 1), BuildingBlock: CIFDUS_clean_linker_0, # of connection points: 2
#     Edge 123, Type (0, 1), BuildingBlock: CIFDUS_clean_linker_0, # of connection points: 2
#     Edge 124, Type (0, 1), BuildingBlock: CIFDUS_clean_linker_0, # of connection points: 2
#     Edge 125, Type (0, 1), BuildingBlock: CIFDUS_clean_linker_0, # of connection points: 2
#     Edge 126, Type (0, 1), BuildingBlock: CIFDUS_clean_linker_0, # of connection points: 2
#     Edge 127, Type (0, 1), BuildingBlock: CIFDUS_clean_linker_0, # of connection points: 2
#     Edge 128, Type (0, 1), BuildingBlock: CIFDUS_clean_linker_0, # of connection points: 2
#     Edge 129, Type (0, 1), BuildingBlock: CIFDUS_clean_linker_0, # of connection points: 2
#     Edge 130, Type (0, 1), BuildingBlock: CIFDUS_clean_linker_0, # of connection points: 2
#     Edge 131, Type (0, 1), BuildingBlock: CIFDUS_clean_linker_0, # of connection points: 2
#     Edge 132, Type (0, 1), BuildingBlock: CIFDUS_clean_linker_0, # of connection points: 2
#     Edge 133, Type (0, 1), BuildingBlock: CIFDUS_clean_linker_0, # of connection points: 2
#     Edge 134, Type (0, 1), BuildingBlock: CIFDUS_clean_linker_0, # of connection points: 2
#     Edge 135, Type (0, 1), BuildingBlock: CIFDUS_clean_linker_0, # of connection points: 2
# Relax obj value: 0.161
# Max RMSD: 0.257
# Mean RMSD: 0.201
data_MOF--net-gar--node1-UXUYUI_clean_sbu_0--node2-PAMTOO_clean_sbu_0--edge1-CIFDUS_clean_linker_0
_symmetry_space_group_name_H-M    P1
_symmetry_Int_Tables_number       1
_symmetry_cell_setting            triclinic
loop_
_symmetry_equiv_pos_as_xyz
'x, y, z'
_cell_length_a     65.260537
_cell_length_b     65.606929
_cell_length_c     63.76916
_cell_angle_alpha  96.561508
_cell_angle_beta   96.048533
_cell_angle_gamma 103.99052
loop_
_atom_site_label
_atom_site_type_symbol
_atom_site_fract_x
_atom_site_fract_y
_atom_site_fract_z
_atom_type_partial_charge
Li0 Li 0.03088 0.31658 0.35233 0.0
Li1 Li 0.05397 0.34214 0.38284 0.0
Li2 Li 0.07095 0.31922 0.35555 0.0
Li3 Li 0.04911 0.30181 0.38097 0.0
C4 C 0.04923 0.35041 0.3334 0.0
N5 N 0.03686 0.36637 0.29725 0.0
C6 C 0.04141 0.36849 0.33517 0.0
C7 C 0.05094 0.34057 0.31329 0.0
C8 C 0.03519 0.37628 0.31669 0.0
C9 C 0.04455 0.34884 0.29519 0.0
C10 C 1.00729 0.31519 0.38498 0.0
C11 C 0.97548 0.32719 0.38811 0.0
N12 N 0.96389 0.30666 0.38608 0.0
C13 C 0.99511 0.29422 0.38307 0.0
C14 C 0.99746 0.33184 0.38762 0.0
C15 C 0.97317 0.29023 0.38362 0.0
C16 C 0.98943 0.29228 0.3293 0.0
N17 N 1.0017 0.31245 0.3359 0.0
C18 C 0.97092 0.32596 0.32735 0.0
C19 C 0.99277 0.32918 0.33482 0.0
C20 C 0.95768 0.30526 0.32119 0.0
C21 C 0.96751 0.28836 0.32191 0.0
H22 H 0.99639 0.27904 0.33078 0.0
H23 H 1.00221 0.34505 0.341 0.0
C24 C 0.06376 0.38799 0.39549 0.0
N25 N 0.05582 0.3687 0.40153 0.0
C26 C 0.06308 0.40677 0.40815 0.0
C27 C 0.04668 0.38571 0.43342 0.0
C28 C 0.0475 0.36734 0.4202 0.0
C29 C 0.05427 0.40588 0.4274 0.0
H30 H 0.0703 0.38883 0.38063 0.0
H31 H 0.04104 0.35188 0.42465 0.0
C32 C 0.0506 0.28159 0.3325 0.0
N33 N 0.06062 0.25866 0.29771 0.0
C34 C 0.06592 0.27012 0.33525 0.0
C35 C 0.04036 0.2814 0.31206 0.0
C36 C 0.07076 0.25862 0.31746 0.0
C37 C 0.04565 0.2697 0.29467 0.0
C38 C 0.08561 0.31872 0.40483 0.0
C39 C 0.09467 0.30155 0.40177 0.0
C40 C 0.08554 0.32844 0.42548 0.0
C41 C 0.10341 0.29427 0.4195 0.0
C42 C 0.09447 0.32071 0.4428 0.0
N43 N 0.10312 0.30392 0.43948 0.0
C44 C 0.11667 0.32466 0.35723 0.0
C45 C 0.09976 0.31256 0.32199 0.0
C46 C 0.13662 0.32395 0.35102 0.0
N47 N 0.09848 0.31887 0.34291 0.0
C48 C 0.11954 0.31167 0.31505 0.0
C49 C 0.1386 0.31745 0.3296 0.0
H50 H 0.11579 0.32973 0.37375 0.0
H51 H 0.08545 0.30796 0.31053 0.0
C52 C 0.04682 0.2595 0.39118 0.0
N53 N 0.04546 0.27931 0.39881 0.0
C54 C 0.04402 0.24334 0.40406 0.0
C55 C 0.03836 0.26814 0.43245 0.0
C56 C 0.0413 0.28381 0.41904 0.0
C57 C 0.0396 0.24747 0.42504 0.0
H58 H 0.04989 0.25614 0.375 0.0
H59 H 0.04024 0.29964 0.42479 0.0
O60 O 0.05531 0.34246 0.35127 0.0
O61 O 0.02863 0.31938 0.38369 0.0
O62 O 0.04566 0.29296 0.34971 0.0
O63 O 0.07635 0.32562 0.38769 0.0
H64 H 0.03991 0.37625 0.35063 0.0
H65 H 0.0571 0.32668 0.31168 0.0
H66 H 0.02898 0.39017 0.31781 0.0
H67 H 0.04572 0.34133 0.27951 0.0
H68 H 0.96761 0.3399 0.38998 0.0
H69 H 1.00249 0.28116 0.38087 0.0
H70 H 1.00667 0.34816 0.38896 0.0
H71 H 0.9635 0.27407 0.38199 0.0
H72 H 0.96427 0.33957 0.32755 0.0
H73 H 0.95823 0.27208 0.31724 0.0
H74 H 0.06937 0.42187 0.40287 0.0
H75 H 0.03952 0.38406 0.4479 0.0
H76 H 0.07418 0.27031 0.35093 0.0
H77 H 0.02854 0.29028 0.30964 0.0
H78 H 0.08266 0.24976 0.31933 0.0
H79 H 0.03789 0.26945 0.27876 0.0
H80 H 0.09468 0.29374 0.38587 0.0
H81 H 0.07854 0.34171 0.4281 0.0
H82 H 0.11035 0.2809 0.41739 0.0
H83 H 0.09446 0.32803 0.45889 0.0
H84 H 0.15038 0.32823 0.36321 0.0
H85 H 0.11984 0.30673 0.29833 0.0
H86 H 0.04483 0.22765 0.39747 0.0
H87 H 0.03528 0.27226 0.44853 0.0
Li88 Li 0.0274 0.77998 0.68065 0.0
Li89 Li 0.04685 0.76687 0.70866 0.0
Li90 Li 0.02268 0.74065 0.67993 0.0
Li91 Li 1.00632 0.76351 0.70837 0.0
C92 C 0.06625 0.77414 0.67079 0.0
N93 N 0.10221 0.79719 0.65676 0.0
C94 C 0.0775 0.79391 0.68202 0.0
C95 C 0.07322 0.76611 0.65237 0.0
C96 C 0.09567 0.80531 0.6747 0.0
C97 C 0.09145 0.778 0.64554 0.0
C98 C 0.04014 0.80504 0.72849 0.0
C99 C 0.04712 0.81731 0.76631 0.0
N100 N 0.05934 0.83615 0.76258 0.0
C101 C 0.0527 0.82456 0.72503 0.0
C102 C 0.03727 0.80139 0.74928 0.0
C103 C 0.0623 0.84006 0.74248 0.0
C104 C 0.02274 0.82027 0.67117 0.0
N105 N 0.0286 0.80276 0.66304 0.0
C106 C 0.0367 0.81846 0.63163 0.0
C107 C 0.03525 0.8015 0.64349 0.0
C108 C 0.03128 0.83701 0.63988 0.0
C109 C 0.024 0.83757 0.6599 0.0
H110 H 0.01719 0.82086 0.68657 0.0
H111 H 0.0396 0.78738 0.63713 0.0
C112 C 0.08635 0.75519 0.7171 0.0
N113 N 0.07631 0.77017 0.72408 0.0
C114 C 0.108 0.75715 0.72434 0.0
C115 C 0.10913 0.79009 0.74585 0.0
C116 C 0.08736 0.78734 0.73846 0.0
C117 C 0.11996 0.77502 0.73864 0.0
H118 H 0.07778 0.74201 0.70513 0.0
H119 H 0.07968 0.79943 0.7437 0.0
C120 C 0.98933 0.76315 0.65964 0.0
N121 N 0.96948 0.77814 0.62653 0.0
C122 C 0.97676 0.77721 0.66386 0.0
C123 C 0.99177 0.75663 0.63862 0.0
C124 C 0.96686 0.78463 0.64688 0.0
C125 C 0.9816 0.76441 0.62208 0.0
C126 C 0.03196 0.73216 0.72753 0.0
C127 C 0.04293 0.71685 0.72236 0.0
C128 C 0.03012 0.73823 0.74883 0.0
C129 C 0.0523 0.70817 0.73868 0.0
C130 C 0.03969 0.72916 0.7647 0.0
N131 N 0.05052 0.71446 0.75934 0.0
C132 C 0.03951 0.70941 0.65895 0.0
C133 C 1.00195 0.69814 0.65643 0.0
C134 C 0.04015 0.69012 0.64743 0.0
N135 N 0.02063 0.71318 0.66318 0.0
C136 C 1.00188 0.67846 0.64495 0.0
C137 C 0.02119 0.67421 0.6402 0.0
H138 H 0.05421 0.72136 0.6648 0.0
H139 H 0.9871 0.70135 0.66001 0.0
C140 C 0.97944 0.78314 0.7341 0.0
N141 N 0.97994 0.76476 0.72205 0.0
C142 C 0.96061 0.78567 0.74181 0.0
C143 C 0.94256 0.75037 0.72478 0.0
C144 C 0.96187 0.74842 0.7175 0.0
C145 C 0.94144 0.76938 0.73691 0.0
H146 H 0.99353 0.79626 0.73728 0.0
H147 H 0.96218 0.73401 0.70757 0.0
O148 O 0.04834 0.76279 0.67762 0.0
O149 O 0.03056 0.78967 0.71161 0.0
O150 O 0.99979 0.75635 0.67605 0.0
O151 O 0.02294 0.74106 0.7118 0.0
H152 H 0.07228 0.80037 0.69625 0.0
H153 H 0.06457 0.75092 0.64335 0.0
H154 H 0.10455 0.82062 0.68328 0.0
H155 H 0.09703 0.77199 0.63129 0.0
H156 H 0.04504 0.81469 0.78248 0.0
H157 H 0.05504 0.82772 0.70905 0.0
H158 H 0.02751 0.78646 0.75223 0.0
H159 H 0.0721 0.85521 0.74004 0.0
H160 H 0.04251 0.81721 0.61637 0.0
H161 H 0.01922 0.85125 0.66683 0.0
H162 H 0.11554 0.74524 0.71798 0.0
H163 H 0.11752 0.80414 0.75691 0.0
H164 H 0.97489 0.78251 0.68009 0.0
H165 H 1.0016 0.74587 0.63516 0.0
H166 H 0.95717 0.79561 0.64989 0.0
H167 H 0.98341 0.7596 0.60573 0.0
H168 H 0.04432 0.71184 0.70593 0.0
H169 H 0.02132 0.74974 0.75306 0.0
H170 H 0.06099 0.69642 0.73492 0.0
H171 H 0.03848 0.73377 0.78126 0.0
H172 H 0.05546 0.68756 0.64457 0.0
H173 H 0.98683 0.6668 0.63963 0.0
H174 H 0.96115 0.80056 0.75139 0.0
H175 H 0.92846 0.73731 0.7202 0.0
Li176 Li 0.53195 0.81248 0.85388 0.0
Li177 Li 0.55631 0.83843 0.88313 0.0
Li178 Li 0.57275 0.81534 0.8557 0.0
Li179 Li 0.55193 0.79882 0.88363 0.0
C180 C 0.54849 0.8461 0.83442 0.0
N181 N 0.5319 0.86207 0.80014 0.0
C182 C 0.5357 0.86015 0.83748 0.0
C183 C 0.55311 0.84038 0.81401 0.0
C184 C 0.52738 0.86799 0.81992 0.0
C185 C 0.54451 0.84858 0.79686 0.0
C186 C 0.52249 0.819 0.90376 0.0
C187 C 0.52781 0.82608 0.94216 0.0
N188 N 0.50688 0.82579 0.94186 0.0
C189 C 0.50099 0.81866 0.90382 0.0
C190 C 0.53599 0.82265 0.92306 0.0
C191 C 0.49342 0.82217 0.92325 0.0
C192 C 0.49263 0.79152 0.82327 0.0
N193 N 0.50267 0.80853 0.83824 0.0
C194 C 0.46997 0.81973 0.83772 0.0
C195 C 0.4917 0.82264 0.84526 0.0
C196 C 0.45891 0.80203 0.82264 0.0
C197 C 0.4709 0.78808 0.81517 0.0
H198 H 0.50121 0.78014 0.818 0.0
H199 H 0.49962 0.83583 0.85749 0.0
C200 C 0.57665 0.87948 0.91021 0.0
N201 N 0.55801 0.86594 0.90027 0.0
C202 C 0.57663 0.89863 0.92271 0.0
C203 C 0.53832 0.88958 0.91471 0.0
C204 C 0.5391 0.8709 0.90209 0.0
C205 C 0.55722 0.90382 0.92532 0.0
H206 H 0.59157 0.87542 0.90855 0.0
H207 H 0.52447 0.86026 0.89375 0.0
C208 C 0.54689 0.77409 0.83567 0.0
N209 N 0.5459 0.74322 0.80202 0.0
C210 C 0.54938 0.75423 0.83953 0.0
C211 C 0.54385 0.77826 0.81473 0.0
C212 C 0.54884 0.73882 0.82229 0.0
C213 C 0.54341 0.76244 0.79792 0.0
C214 C 0.59487 0.82005 0.90222 0.0
C215 C 0.60788 0.80702 0.89604 0.0
C216 C 0.59875 0.83107 0.92293 0.0
C217 C 0.62433 0.80489 0.91083 0.0
C218 C 0.61536 0.82853 0.93726 0.0
N219 N 0.6277 0.81559 0.93097 0.0
C220 C 0.6155 0.83207 0.84389 0.0
C221 C 0.60256 0.79516 0.83338 0.0
C222 C 0.63542 0.83157 0.8373 0.0
N223 N 0.59941 0.81401 0.84208 0.0
C224 C 0.62221 0.79396 0.8265 0.0
C225 C 0.63934 0.81227 0.82865 0.0
H226 H 0.61315 0.84695 0.85105 0.0
H227 H 0.59013 0.78072 0.8324 0.0
C228 C 0.53077 0.76949 0.90953 0.0
N229 N 0.54912 0.77567 0.90092 0.0
C230 C 0.52762 0.75247 0.92126 0.0
C231 C 0.562 0.74778 0.91473 0.0
C232 C 0.56455 0.76502 0.90319 0.0
C233 C 0.54326 0.74116 0.92394 0.0
H234 H 0.51828 0.77749 0.90703 0.0
H235 H 0.57864 0.76947 0.89556 0.0
O236 O 0.55651 0.838 0.85134 0.0
O237 O 0.5303 0.81589 0.88489 0.0
O238 O 0.54765 0.78942 0.85236 0.0
O239 O 0.57886 0.82256 0.88786 0.0
H240 H 0.53215 0.86487 0.85323 0.0
H241 H 0.56326 0.82974 0.81147 0.0
H242 H 0.51733 0.87878 0.82201 0.0
H243 H 0.54787 0.84423 0.78095 0.0
H244 H 0.53811 0.82895 0.95721 0.0
H245 H 0.49026 0.8157 0.88904 0.0
H246 H 0.55257 0.82272 0.92327 0.0
H247 H 0.47683 0.822 0.92355 0.0
H248 H 0.46175 0.83087 0.84442 0.0
H249 H 0.46355 0.77435 0.80333 0.0
H250 H 0.59161 0.90909 0.93058 0.0
H251 H 0.52302 0.89299 0.91591 0.0
H252 H 0.55177 0.75078 0.85567 0.0
H253 H 0.54179 0.79352 0.81151 0.0
H254 H 0.55079 0.72338 0.82502 0.0
H255 H 0.54107 0.76544 0.78162 0.0
H256 H 0.60515 0.79841 0.88008 0.0
H257 H 0.58913 0.84157 0.92788 0.0
H258 H 0.63442 0.79472 0.90631 0.0
H259 H 0.6185 0.83691 0.95336 0.0
H260 H 0.64771 0.8463 0.83916 0.0
H261 H 0.62416 0.77859 0.82032 0.0
H262 H 0.51295 0.74823 0.92812 0.0
H263 H 0.57436 0.73937 0.91586 0.0
Li264 Li 0.52294 0.27272 0.17885 0.0
Li265 Li 0.54364 0.2608 0.20705 0.0
Li266 Li 0.51784 0.23463 0.18008 0.0
Li267 Li 0.5024 0.25804 0.20632 0.0
C268 C 0.54841 0.25189 0.15594 0.0
N269 N 0.55735 0.24353 0.11493 0.0
C270 C 0.56899 0.2511 0.15243 0.0
C271 C 0.53235 0.24842 0.1386 0.0
C272 C 0.5732 0.24686 0.13157 0.0
C273 C 0.5372 0.24422 0.11799 0.0
C274 C 0.53466 0.30482 0.20975 0.0
C275 C 0.52786 0.33939 0.21025 0.0
N276 N 0.54818 0.34749 0.20654 0.0
C277 C 0.55551 0.3135 0.20607 0.0
C278 C 0.52074 0.31786 0.21197 0.0
C279 C 0.56203 0.33511 0.20447 0.0
C280 C 0.50709 0.30263 0.15708 0.0
N281 N 0.52443 0.2948 0.16071 0.0
C282 C 0.54417 0.31976 0.14078 0.0
C283 C 0.54277 0.303 0.1528 0.0
C284 C 0.52662 0.32841 0.137 0.0
C285 C 0.50786 0.31952 0.14531 0.0
H286 H 0.49275 0.29598 0.16366 0.0
H287 H 0.55652 0.29686 0.1562 0.0
C288 C 0.58409 0.25081 0.21413 0.0
N289 N 0.57319 0.26463 0.22198 0.0
C290 C 0.60596 0.25374 0.2211 0.0
C291 C 0.60528 0.28479 0.24475 0.0
C292 C 0.58336 0.28127 0.23733 0.0
C293 C 0.6172 0.27119 0.23637 0.0
H294 H 0.57595 0.23781 0.20178 0.0
H295 H 0.57469 0.29227 0.24338 0.0
C296 C 0.47568 0.23705 0.1692 0.0
N297 N 0.4355 0.20962 0.15908 0.0
C298 C 0.46952 0.22021 0.18071 0.0
C299 C 0.46141 0.23998 0.15259 0.0
C300 C 0.44913 0.20651 0.17534 0.0
C301 C 0.44117 0.22592 0.1477 0.0
C302 C 0.5279 0.23287 0.23131 0.0
C303 C 0.53977 0.21788 0.23282 0.0
C304 C 0.5256 0.24536 0.24974 0.0
C305 C 0.54917 0.21561 0.25284 0.0
C306 C 0.53523 0.2426 0.26947 0.0
N307 N 0.54673 0.22791 0.2706 0.0
C308 C 0.5327 0.19863 0.16834 0.0
C309 C 0.50034 0.19702 0.14695 0.0
C310 C 0.53433 0.17976 0.15671 0.0
N311 N 0.51587 0.2069 0.16347 0.0
C312 C 0.50133 0.17801 0.13486 0.0
C313 C 0.51854 0.16902 0.13962 0.0
H314 H 0.54525 0.20703 0.18102 0.0
H315 H 0.48733 0.204 0.14284 0.0
C316 C 0.46559 0.27455 0.21307 0.0
N317 N 0.47601 0.26029 0.21989 0.0
C318 C 0.44622 0.27631 0.22019 0.0
C319 C 0.44793 0.24841 0.2411 0.0
C320 C 0.46741 0.24729 0.23372 0.0
C321 C 0.4368 0.26306 0.23437 0.0
H322 H 0.47204 0.28434 0.20157 0.0
H323 H 0.47542 0.23568 0.23879 0.0
O324 O 0.54399 0.25573 0.17629 0.0
O325 O 0.52784 0.28357 0.21068 0.0
O326 O 0.49545 0.25085 0.17427 0.0
O327 O 0.51913 0.23585 0.21184 0.0
H328 H 0.58158 0.25371 0.16569 0.0
H329 H 0.51631 0.2489 0.141 0.0
H330 H 0.58906 0.24619 0.12861 0.0
H331 H 0.52494 0.24149 0.10442 0.0
H332 H 0.51723 0.34965 0.21182 0.0
H333 H 0.5664 0.30356 0.20406 0.0
H334 H 0.50459 0.31142 0.21489 0.0
H335 H 0.57806 0.342 0.20145 0.0
H336 H 0.55906 0.32627 0.13501 0.0
H337 H 0.49388 0.32552 0.14269 0.0
H338 H 0.61414 0.24284 0.21383 0.0
H339 H 0.61284 0.2983 0.25678 0.0
H340 H 0.48031 0.21771 0.19365 0.0
H341 H 0.46595 0.253 0.14358 0.0
H342 H 0.44414 0.19341 0.18411 0.0
H343 H 0.42995 0.22798 0.13486 0.0
H344 H 0.54178 0.20816 0.21869 0.0
H345 H 0.51666 0.25721 0.24878 0.0
H346 H 0.55845 0.20409 0.25426 0.0
H347 H 0.53363 0.25218 0.28388 0.0
H348 H 0.5482 0.17396 0.16081 0.0
H349 H 0.48868 0.17042 0.12194 0.0
H350 H 0.43837 0.28759 0.21402 0.0
H351 H 0.44168 0.23783 0.25206 0.0
Li352 Li 0.07086 0.82408 0.10274 0.0
Li353 Li 0.09153 0.80827 0.12883 0.0
Li354 Li 0.06794 0.7832 0.09993 0.0
Li355 Li 0.05257 0.8018 0.13042 0.0
C356 C 0.09694 0.80844 0.07688 0.0
N357 N 0.10387 0.81054 0.0351 0.0
C358 C 0.11713 0.81826 0.07227 0.0
C359 C 0.08028 0.79969 0.06027 0.0
C360 C 0.12031 0.81917 0.05104 0.0
C361 C 0.0841 0.80089 0.03924 0.0
C362 C 0.08765 0.84734 0.14672 0.0
C363 C 0.09733 0.87244 0.17905 0.0
N364 N 0.11458 0.88322 0.171 0.0
C365 C 0.10545 0.85864 0.13874 0.0
C366 C 0.0835 0.85424 0.16701 0.0
C367 C 0.11888 0.87675 0.15128 0.0
C368 C 0.05064 0.85676 0.089 0.0
N369 N 0.06915 0.85049 0.0894 0.0
C370 C 0.08551 0.88255 0.0756 0.0
C371 C 0.0864 0.86305 0.08265 0.0
C372 C 0.0667 0.88969 0.07532 0.0
C373 C 0.04906 0.8761 0.08202 0.0
H374 H 0.03708 0.84696 0.09464 0.0
H375 H 0.10113 0.85822 0.08313 0.0
C376 C 0.13451 0.80428 0.13926 0.0
N377 N 0.11854 0.81131 0.14738 0.0
C378 C 0.15243 0.80282 0.15278 0.0
C379 C 0.13762 0.81658 0.18271 0.0
C380 C 0.12004 0.81775 0.16867 0.0
C381 C 0.154 0.80855 0.17497 0.0
H382 H 0.13289 0.79885 0.12236 0.0
H383 H 0.10707 0.82287 0.17496 0.0
C384 C 0.02599 0.78916 0.08579 0.0
N385 N 0.98819 0.76867 0.06004 0.0
C386 C 0.01144 0.77276 0.09264 0.0
C387 C 0.02125 0.79532 0.06596 0.0
C388 C 0.99244 0.76254 0.07936 0.0
C389 C 1.00207 0.78471 0.05314 0.0
C390 C 0.08078 0.77208 0.14483 0.0
C391 C 0.09388 0.7595 0.13777 0.0
C392 C 0.07924 0.77582 0.16656 0.0
C393 C 0.10541 0.75099 0.15265 0.0
C394 C 0.09101 0.767 0.18093 0.0
N395 N 0.10377 0.7549 0.17373 0.0
C396 C 0.08022 0.74922 0.07348 0.0
C397 C 0.04744 0.73811 0.08654 0.0
C398 C 0.07937 0.72804 0.0654 0.0
N399 N 0.06439 0.75402 0.0839 0.0
C400 C 0.04594 0.71673 0.07866 0.0
C401 C 0.06214 0.71117 0.06805 0.0
H402 H 0.09405 0.76173 0.07215 0.0
H403 H 0.03532 0.74185 0.09546 0.0
C404 C 0.0209 0.81456 0.15365 0.0
N405 N 0.02981 0.79832 0.14813 0.0
C406 C 1.00486 0.81206 0.16692 0.0
C407 C 1.00734 0.77616 0.16852 0.0
C408 C 0.02321 0.7793 0.15516 0.0
C409 C 0.99796 0.79268 0.17475 0.0
H410 H 0.02641 0.82957 0.14792 0.0
H411 H 0.03037 0.76654 0.15046 0.0
O412 O 0.09357 0.80774 0.09761 0.0
O413 O 0.07448 0.82945 0.1348 0.0
O414 O 0.04463 0.79942 0.09859 0.0
O415 O 0.06994 0.78115 0.13061 0.0
H416 H 0.13018 0.82518 0.085 0.0
H417 H 0.06461 0.7919 0.06354 0.0
H418 H 0.13585 0.82675 0.04723 0.0
H419 H 0.07134 0.79415 0.02622 0.0
H420 H 0.09436 0.87797 0.1948 0.0
H421 H 0.10896 0.85333 0.12314 0.0
H422 H 0.0698 0.84557 0.17339 0.0
H423 H 0.13276 0.88564 0.14535 0.0
H424 H 0.09959 0.89195 0.07041 0.0
H425 H 0.03421 0.88062 0.08255 0.0
H426 H 0.16442 0.79633 0.14598 0.0
H427 H 0.13811 0.8215 0.19958 0.0
H428 H 0.01482 0.76793 0.10802 0.0
H429 H 0.03228 0.80815 0.06054 0.0
H430 H 0.98106 0.74975 0.08441 0.0
H431 H 0.99821 0.78925 0.03772 0.0
H432 H 0.09538 0.7566 0.12103 0.0
H433 H 0.06934 0.78572 0.1723 0.0
H434 H 0.11574 0.74135 0.14744 0.0
H435 H 0.09012 0.76989 0.19781 0.0
H436 H 0.09259 0.72493 0.05782 0.0
H437 H 0.03216 0.70467 0.08108 0.0
H438 H 0.99829 0.82532 0.1714 0.0
H439 H 1.00239 0.76084 0.17382 0.0
Li440 Li 0.51025 0.79278 0.45553 0.0
Li441 Li 0.48598 0.76759 0.42574 0.0
Li442 Li 0.50762 0.75178 0.45417 0.0
Li443 Li 0.52523 0.77192 0.42685 0.0
C444 C 0.47624 0.77318 0.47533 0.0
N445 N 0.45923 0.78331 0.51179 0.0
C446 C 0.45984 0.78348 0.47442 0.0
C447 C 0.48376 0.7677 0.49468 0.0
C448 C 0.45152 0.78857 0.49306 0.0
C449 C 0.47502 0.77304 0.51297 0.0
C450 C 0.50175 0.80239 0.40751 0.0
C451 C 0.48978 0.79994 0.36998 0.0
N452 N 0.48621 0.81955 0.37351 0.0
C453 C 0.49813 0.82259 0.41074 0.0
C454 C 0.4977 0.79105 0.38694 0.0
C455 C 0.49022 0.83096 0.39336 0.0
C456 C 0.53369 0.83453 0.47923 0.0
N457 N 0.51392 0.8224 0.47053 0.0
C458 C 0.50015 0.85349 0.4752 0.0
C459 C 0.49722 0.83153 0.4688 0.0
C460 C 0.52054 0.86664 0.48361 0.0
C461 C 0.53728 0.85648 0.48605 0.0
H462 H 0.54701 0.8274 0.48013 0.0
H463 H 0.48174 0.82207 0.46115 0.0
C464 C 0.45006 0.74832 0.39202 0.0
N465 N 0.45904 0.76528 0.40736 0.0
C466 C 0.43224 0.74835 0.37756 0.0
C467 C 0.4327 0.78298 0.3952 0.0
C468 C 0.45041 0.78224 0.40936 0.0
C469 C 0.42341 0.76601 0.37872 0.0
H470 H 0.45693 0.73488 0.39072 0.0
H471 H 0.45777 0.79564 0.42157 0.0
C472 C 0.54621 0.77792 0.47738 0.0
N473 N 0.57154 0.77954 0.5154 0.0
C474 C 0.56452 0.77041 0.47751 0.0
C475 C 0.54087 0.7864 0.49654 0.0
C476 C 0.57709 0.77133 0.49691 0.0
C477 C 0.55385 0.78704 0.51561 0.0
C478 C 0.50883 0.73146 0.40803 0.0
C479 C 0.52234 0.71954 0.41564 0.0
C480 C 0.50261 0.72965 0.3861 0.0
C481 C 0.52953 0.70613 0.40117 0.0
C482 C 0.51016 0.71607 0.37214 0.0
N483 N 0.52336 0.70469 0.3799 0.0
C484 C 0.49458 0.70648 0.45808 0.0
C485 C 0.52203 0.72484 0.48556 0.0
C486 C 0.49532 0.68685 0.46488 0.0
N487 N 0.50797 0.72517 0.46819 0.0
C488 C 0.52331 0.70552 0.49287 0.0
C489 C 0.50998 0.68588 0.48246 0.0
H490 H 0.48363 0.70663 0.44417 0.0
H491 H 0.5326 0.73951 0.49375 0.0
C492 C 0.55196 0.78785 0.39586 0.0
N493 N 0.54891 0.77389 0.41018 0.0
C494 C 0.56888 0.78933 0.3838 0.0
C495 C 0.57972 0.76244 0.40172 0.0
C496 C 0.5626 0.7615 0.41343 0.0
C497 C 0.58307 0.77644 0.38653 0.0
H498 H 0.54135 0.79799 0.39379 0.0
H499 H 0.56032 0.75088 0.42522 0.0
O500 O 0.48463 0.7681 0.45728 0.0
O501 O 0.50885 0.79359 0.42442 0.0
O502 O 0.53372 0.77718 0.45855 0.0
O503 O 0.50177 0.74482 0.42199 0.0
H504 H 0.45364 0.78755 0.45949 0.0
H505 H 0.49621 0.7594 0.49557 0.0
H506 H 0.43891 0.79666 0.49263 0.0
H507 H 0.48076 0.769 0.52809 0.0
H508 H 0.48646 0.79125 0.35401 0.0
H509 H 0.50138 0.83173 0.42645 0.0
H510 H 0.50057 0.77549 0.38415 0.0
H511 H 0.48727 0.84654 0.39565 0.0
H512 H 0.48665 0.86018 0.47253 0.0
H513 H 0.55327 0.86544 0.49279 0.0
H514 H 0.42553 0.73464 0.36551 0.0
H515 H 0.42685 0.7971 0.39677 0.0
H516 H 0.56893 0.76387 0.46283 0.0
H517 H 0.5269 0.7925 0.4967 0.0
H518 H 0.59126 0.7655 0.49728 0.0
H519 H 0.54988 0.79352 0.53056 0.0
H520 H 0.52759 0.72093 0.43252 0.0
H521 H 0.49205 0.73857 0.37986 0.0
H522 H 0.54012 0.69694 0.40686 0.0
H523 H 0.5055 0.71456 0.35513 0.0
H524 H 0.48479 0.67248 0.45589 0.0
H525 H 0.53469 0.70608 0.50669 0.0
H526 H 0.57064 0.80029 0.37225 0.0
H527 H 0.5904 0.75247 0.40477 0.0
Li528 Li 0.56621 0.32063 0.59943 0.0
Li529 Li 0.58888 0.30359 0.62795 0.0
Li530 Li 0.56289 0.28013 0.59887 0.0
Li531 Li 0.5486 0.29914 0.62667 0.0
C532 C 0.59747 0.29566 0.57934 0.0
N533 N 0.61415 0.27858 0.54549 0.0
C534 C 0.61786 0.2923 0.58243 0.0
C535 C 0.58567 0.29057 0.55901 0.0
C536 C 0.62599 0.2836 0.56511 0.0
C537 C 0.59434 0.28186 0.54211 0.0
C538 C 0.56536 0.33722 0.64791 0.0
C539 C 0.56005 0.34308 0.68474 0.0
N540 N 0.54916 0.35762 0.68008 0.0
C541 C 0.55413 0.3522 0.64347 0.0
C542 C 0.56836 0.33259 0.6687 0.0
C543 C 0.54607 0.36236 0.65996 0.0
C544 C 0.54417 0.34926 0.57998 0.0
N545 N 0.56411 0.34691 0.5858 0.0
C546 C 0.57908 0.38179 0.57644 0.0
C547 C 0.58145 0.3629 0.58414 0.0
C548 C 0.55862 0.38465 0.57024 0.0
C549 C 0.5411 0.36777 0.57219 0.0
H550 H 0.53042 0.33691 0.58185 0.0
H551 H 0.59727 0.36124 0.58908 0.0
C552 C 0.6264 0.29074 0.6433 0.0
N553 N 0.61584 0.30613 0.64662 0.0
C554 C 0.64419 0.29031 0.65761 0.0
C555 C 0.64057 0.32201 0.67831 0.0
C556 C 0.62287 0.32184 0.66358 0.0
C557 C 0.65138 0.30586 0.67575 0.0
H558 H 0.62069 0.27835 0.62978 0.0
H559 H 0.61447 0.33406 0.66601 0.0
C560 C 0.5228 0.28783 0.58076 0.0
N561 N 0.48723 0.27108 0.55061 0.0
C562 C 0.50427 0.2752 0.58642 0.0
C563 C 0.52312 0.2922 0.55984 0.0
C564 C 0.48649 0.2668 0.57093 0.0
C565 C 0.505 0.28352 0.54481 0.0
C566 C 0.5589 0.2573 0.63135 0.0
C567 C 0.53709 0.2475 0.62914 0.0
C568 C 0.57361 0.24517 0.63417 0.0
C569 C 0.53035 0.22569 0.62963 0.0
C570 C 0.56625 0.22339 0.63452 0.0
N571 N 0.54495 0.21417 0.63225 0.0
C572 C 0.57505 0.24175 0.58029 0.0
C573 C 0.538 0.23777 0.57754 0.0
C574 C 0.57184 0.21998 0.57257 0.0
N575 N 0.55824 0.25042 0.58268 0.0
C576 C 0.53409 0.21592 0.57018 0.0
C577 C 0.55106 0.20637 0.56754 0.0
H578 H 0.59112 0.25148 0.58516 0.0
H579 H 0.52469 0.24426 0.58029 0.0
C580 C 0.50943 0.30695 0.63687 0.0
N581 N 0.52545 0.2983 0.64367 0.0
C582 C 0.49189 0.30595 0.64798 0.0
C583 C 0.50784 0.28771 0.67335 0.0
C584 C 0.52507 0.28902 0.66171 0.0
C585 C 0.49075 0.29603 0.66642 0.0
H586 H 0.51018 0.31446 0.62262 0.0
H587 H 0.53804 0.28236 0.66691 0.0
O588 O 0.58916 0.30395 0.59613 0.0
O589 O 0.57267 0.32653 0.63185 0.0
O590 O 0.54029 0.29643 0.59576 0.0
O591 O 0.56576 0.27855 0.63027 0.0
H592 H 0.62731 0.29642 0.598 0.0
H593 H 0.56992 0.29311 0.55637 0.0
H594 H 0.64172 0.28085 0.56728 0.0
H595 H 0.58532 0.2777 0.52632 0.0
H596 H 0.56213 0.33956 0.70088 0.0
H597 H 0.55151 0.35583 0.62743 0.0
H598 H 0.57667 0.32073 0.67231 0.0
H599 H 0.5373 0.37395 0.65675 0.0
H600 H 0.59325 0.39397 0.57525 0.0
H601 H 0.52494 0.36896 0.56823 0.0
H602 H 0.6517 0.27742 0.65487 0.0
H603 H 0.6456 0.33463 0.69171 0.0
H604 H 0.50366 0.27178 0.60257 0.0
H605 H 0.53712 0.30237 0.5553 0.0
H606 H 0.47211 0.25688 0.57506 0.0
H607 H 0.50505 0.28674 0.52855 0.0
H608 H 0.52546 0.25656 0.6267 0.0
H609 H 0.59053 0.25243 0.63588 0.0
H610 H 0.51351 0.21789 0.62779 0.0
H611 H 0.57746 0.21379 0.63654 0.0
H612 H 0.58569 0.21395 0.57083 0.0
H613 H 0.51771 0.20656 0.5674 0.0
H614 H 0.47935 0.31293 0.64218 0.0
H615 H 0.50767 0.27977 0.68733 0.0
Li616 Li 1.01032 0.29476 0.96199 0.0
Li617 Li 0.98336 0.27013 0.93215 0.0
Li618 Li 1.00678 0.25412 0.95965 0.0
Li619 Li 0.02273 0.27377 0.93301 0.0
C620 C 0.97596 0.27889 0.98107 0.0
N621 N 0.95987 0.29622 0.01518 0.0
C622 C 0.95819 0.28702 0.97759 0.0
C623 C 0.98548 0.27941 1.00186 0.0
C624 C 0.95031 0.29577 0.99506 0.0
C625 C 0.97712 0.28828 0.01891 0.0
C626 C 0.01709 0.31083 0.9208 0.0
C627 C 0.02061 0.32903 0.89008 0.0
N628 N 0.03974 0.34161 0.8999 0.0
C629 C 0.0368 0.32388 0.93056 0.0
C630 C 1.00892 0.31336 0.90038 0.0
C631 C 0.048 0.33938 0.91974 0.0
C632 C 0.03127 0.33761 0.98789 0.0
N633 N 0.01317 0.3245 0.97622 0.0
C634 C 0.99689 0.3539 0.97684 0.0
C635 C 0.99624 0.33245 0.97064 0.0
C636 C 0.0153 0.36796 0.98883 0.0
C637 C 0.03264 0.35932 0.99439 0.0
H638 H 0.04498 0.33149 0.99162 0.0
H639 H 0.98232 0.32225 0.96059 0.0
C640 C 0.94096 0.25261 0.90564 0.0
N641 N 0.95652 0.27012 0.91503 0.0
C642 C 0.923 0.25473 0.89252 0.0
C643 C 0.9373 0.29271 0.89913 0.0
C644 C 0.95467 0.28991 0.9123 0.0
C645 C 0.92123 0.27502 0.88876 0.0
H646 H 0.94263 0.23698 0.90797 0.0
H647 H 0.96699 0.30365 0.92009 0.0
C648 C 0.04525 0.27427 0.9808 0.0
N649 N 0.06905 0.26427 0.01471 0.0
C650 C 0.05628 0.25864 0.97747 0.0
C651 C 0.04629 0.2848 1.00135 0.0
C652 C 0.06823 0.25381 0.99483 0.0
C653 C 0.05843 0.27953 0.0183 0.0
C654 C 1.00436 0.23689 0.91004 0.0
C655 C 0.0216 0.22776 0.91207 0.0
C656 C 0.99309 0.23593 0.88991 0.0
C657 C 0.02739 0.21793 0.89383 0.0
C658 C 0.99937 0.22591 0.87206 0.0
N659 N 0.01626 0.21722 0.87437 0.0
C660 C 1.00319 0.20858 0.96033 0.0
C661 C 0.01427 0.22805 0.99471 0.0
C662 C 1.00558 0.18976 0.96797 0.0
N663 N 1.00786 0.22753 0.97351 0.0
C664 C 0.01698 0.20959 0.003 0.0
C665 C 0.0129 0.18988 0.98962 0.0
H666 H 0.99792 0.208 0.94358 0.0
H667 H 0.01781 0.24292 0.00529 0.0
C668 C 0.03964 0.2764 0.89315 0.0
N669 N 0.04482 0.27597 0.91431 0.0
C670 C 0.05513 0.27766 0.8794 0.0
C671 C 0.08124 0.27832 0.90936 0.0
C672 C 0.06524 0.27712 0.92256 0.0
C673 C 0.07633 0.2785 0.88736 0.0
H674 H 0.0234 0.2757 0.88689 0.0
H675 H 0.06914 0.27703 0.93943 0.0
O676 O 0.98414 0.27063 0.96418 0.0
O677 O 1.00611 0.29531 0.93098 0.0
O678 O 0.03342 0.27917 0.96402 0.0
O679 O 0.99868 0.24696 0.92763 0.0
H680 H 0.95066 0.28671 0.96155 0.0
H681 H 0.9992 0.27311 0.00479 0.0
H682 H 0.93662 0.30222 0.99262 0.0
H683 H 0.98436 0.28887 0.03511 0.0
H684 H 0.01452 0.33115 0.87425 0.0
H685 H 0.04349 0.32188 0.94623 0.0
H686 H 0.99383 0.30318 0.89247 0.0
H687 H 0.0633 0.34957 0.92709 0.0
H688 H 0.98322 0.35953 0.97155 0.0
H689 H 0.04723 0.36925 0.00361 0.0
H690 H 0.91104 0.24064 0.88478 0.0
H691 H 0.93655 0.30865 0.89692 0.0
H692 H 0.05542 0.25015 0.96169 0.0
H693 H 0.03769 0.29679 0.00422 0.0
H694 H 0.07677 0.24169 0.99251 0.0
H695 H 0.05935 0.28751 0.03431 0.0
H696 H 0.03057 0.22852 0.92754 0.0
H697 H 0.97978 0.24302 0.88807 0.0
H698 H 0.04079 0.21092 0.89514 0.0
H699 H 0.99086 0.22512 0.85636 0.0
H700 H 1.00228 0.17533 0.95671 0.0
H701 H 0.02225 0.21086 0.01987 0.0
H702 H 0.05052 0.27817 0.86269 0.0
H703 H 0.09723 0.27874 0.91632 0.0
Li704 Li 0.4195 0.05588 0.3346 0.0
Li705 Li 0.39219 0.02557 0.31931 0.0
Li706 Li 0.41904 0.04017 0.2973 0.0
Li707 Li 0.3915 0.05808 0.30761 0.0
C708 C 0.44022 0.02558 0.33578 0.0
N709 N 0.47604 0.02333 0.36173 0.0
C710 C 0.43827 0.01806 0.35531 0.0
C711 C 0.46035 0.03177 0.32935 0.0
C712 C 0.45659 0.01712 0.36824 0.0
C713 C 0.47828 0.03054 0.34272 0.0
C714 C 0.3726 0.0425 0.34746 0.0
C715 C 0.33589 0.03617 0.35364 0.0
N716 N 0.3398 0.02418 0.36889 0.0
C717 C 0.37626 0.03015 0.36324 0.0
C718 C 0.35225 0.04556 0.34262 0.0
C719 C 0.35947 0.021 0.37386 0.0
C720 C 0.4596 0.07814 0.35554 0.0
N721 N 0.43939 0.06905 0.35883 0.0
C722 C 0.45083 0.06911 0.39552 0.0
C723 C 0.43457 0.06552 0.37849 0.0
C724 C 0.47217 0.07651 0.39217 0.0
C725 C 0.47637 0.08213 0.37215 0.0
H726 H 0.46289 0.0806 0.33961 0.0
H727 H 0.41836 0.05825 0.38058 0.0
C728 C 0.38651 0.98301 0.32319 0.0
N729 N 0.37559 0.99817 0.32255 0.0
C730 C 0.37563 0.96169 0.32087 0.0
C731 C 0.34236 0.97189 0.31817 0.0
C732 C 0.35392 0.99309 0.32069 0.0
C733 C 0.35326 0.95587 0.31752 0.0
H734 H 0.40368 0.98735 0.32431 0.0
H735 H 0.34552 0.0053 0.31974 0.0
C736 C 0.42362 0.09082 0.30666 0.0
N737 N 0.42223 0.13169 0.30136 0.0
C738 C 0.42183 0.09655 0.28622 0.0
C739 C 0.42471 0.10586 0.3244 0.0
C740 C 0.42114 0.11729 0.28388 0.0
C741 C 0.424 0.12645 0.32139 0.0
C742 C 0.37029 0.01578 0.27981 0.0
C743 C 0.37257 0.99636 0.27018 0.0
C744 C 0.3499 0.01903 0.28002 0.0
C745 C 0.35439 0.98043 0.26109 0.0
C746 C 0.33213 1.00275 0.27066 0.0
N747 N 0.33472 0.98393 0.2615 0.0
C748 C 0.43461 0.01238 0.27139 0.0
C749 C 0.44674 0.04839 0.26637 0.0
C750 C 0.44523 0.00589 0.25506 0.0
N751 N 0.43521 0.03323 0.27633 0.0
C752 C 0.45777 0.04264 0.25004 0.0
C753 C 0.45676 0.0211 0.24401 0.0
H754 H 0.4257 1.00081 0.28004 0.0
H755 H 0.44715 0.06488 0.27093 0.0
C756 C 0.36883 0.08938 0.3112 0.0
N757 N 0.37468 0.07526 0.29733 0.0
C758 C 0.35575 0.10165 0.3037 0.0
C759 C 0.35565 0.08506 0.26775 0.0
C760 C 0.36868 0.07307 0.27597 0.0
C761 C 0.34885 0.09938 0.28173 0.0
H762 H 0.37423 0.09097 0.32808 0.0
H763 H 0.37387 0.06183 0.26537 0.0
O764 O 0.42251 0.02713 0.32316 0.0
O765 O 0.38888 0.05179 0.33701 0.0
O766 O 0.42361 0.07041 0.30925 0.0
O767 O 0.38789 0.03145 0.2891 0.0
H768 H 0.4228 0.0132 0.36052 0.0
H769 H 0.46217 0.03775 0.31436 0.0
H770 H 0.45535 0.01151 0.38348 0.0
H771 H 0.49398 0.03543 0.33803 0.0
H772 H 0.32006 0.03835 0.35001 0.0
H773 H 0.39178 0.02733 0.36697 0.0
H774 H 0.34902 0.05488 0.33035 0.0
H775 H 0.36205 0.0113 0.386 0.0
H776 H 0.44679 0.06434 0.41058 0.0
H777 H 0.49254 0.08816 0.36898 0.0
H778 H 0.38465 0.94982 0.32084 0.0
H779 H 0.32511 0.96806 0.31543 0.0
H780 H 0.42059 0.085 0.2723 0.0
H781 H 0.42583 0.10162 0.34031 0.0
H782 H 0.41961 0.12192 0.26816 0.0
H783 H 0.42476 0.13825 0.33496 0.0
H784 H 0.38817 0.99351 0.26991 0.0
H785 H 0.34776 0.03379 0.2877 0.0
H786 H 0.35593 0.96527 0.25375 0.0
H787 H 0.31627 0.00501 0.27083 0.0
H788 H 0.44436 0.98918 0.25102 0.0
H789 H 0.46643 0.0548 0.24179 0.0
H790 H 0.35118 0.11286 0.31492 0.0
H791 H 0.35064 0.08286 0.25073 0.0
Li792 Li 0.27988 0.21654 0.5381 0.0
Li793 Li 0.29179 0.18876 0.5176 0.0
Li794 Li 0.2777 0.21549 0.49821 0.0
Li795 Li 0.25398 0.18706 0.51509 0.0
C796 C 0.31766 0.23981 0.52604 0.0
N797 N 0.34571 0.27939 0.538 0.0
C798 C 0.33706 0.24199 0.53878 0.0
C799 C 0.31259 0.25772 0.51925 0.0
C800 C 0.35102 0.26215 0.54469 0.0
C801 C 0.32696 0.2776 0.5255 0.0
C802 C 0.28322 0.17456 0.55285 0.0
C803 C 0.28939 0.14115 0.56031 0.0
N804 N 0.30433 0.15159 0.57705 0.0
C805 C 0.29865 0.18497 0.57012 0.0
C806 C 0.27852 0.15247 0.5479 0.0
C807 C 0.30912 0.17307 0.58217 0.0
C808 C 0.26749 0.22397 0.57864 0.0
N809 N 0.2825 0.2328 0.56669 0.0
C810 C 0.3002 0.25879 0.59691 0.0
C811 C 0.2985 0.25019 0.57537 0.0
C812 C 0.2851 0.24969 0.60967 0.0
C813 C 0.26834 0.23229 0.60006 0.0
H814 H 0.25513 0.2099 0.57169 0.0
H815 H 0.31034 0.25715 0.56588 0.0
C816 C 0.30781 0.1545 0.50159 0.0
N817 N 0.31222 0.1718 0.51685 0.0
C818 C 0.32133 0.14094 0.50084 0.0
C819 C 0.34433 0.16361 0.53103 0.0
C820 C 0.3302 0.17666 0.53133 0.0
C821 C 0.33981 0.14532 0.51578 0.0
H822 H 0.29372 0.15111 0.49 0.0
H823 H 0.3334 0.19047 0.54334 0.0
C824 C 0.24541 0.23075 0.52789 0.0
N825 N 0.2264 0.25683 0.55187 0.0
C826 C 0.22864 0.22196 0.53872 0.0
C827 C 0.25237 0.25279 0.52907 0.0
C828 C 0.21927 0.23542 0.55081 0.0
C829 C 0.2426 0.26571 0.54133 0.0
C830 C 0.25664 0.16854 0.47692 0.0
C831 C 0.24792 0.17383 0.45795 0.0
C832 C 0.25014 0.14775 0.48137 0.0
C833 C 0.23273 0.15825 0.4438 0.0
C834 C 0.23489 0.13263 0.46684 0.0
N835 N 0.22656 0.13815 0.44852 0.0
C836 C 0.29741 0.23002 0.46265 0.0
C837 C 0.2627 0.23486 0.46322 0.0
C838 C 0.29814 0.23639 0.44238 0.0
N839 N 0.27976 0.22907 0.47252 0.0
C840 C 0.26269 0.24115 0.44289 0.0
C841 C 0.28041 0.2416 0.43192 0.0
H842 H 0.31066 0.22502 0.47015 0.0
H843 H 0.24871 0.23373 0.47118 0.0
C844 C 0.22165 0.15569 0.52793 0.0
N845 N 0.2258 0.16865 0.51287 0.0
C846 C 0.20133 0.14224 0.52726 0.0
C847 C 0.18979 0.15573 0.49562 0.0
C848 C 0.21034 0.16901 0.49695 0.0
C849 C 0.185 0.14212 0.51096 0.0
H850 H 0.23405 0.15602 0.54068 0.0
H851 H 0.21398 0.17963 0.48529 0.0
O852 O 0.30386 0.22019 0.52001 0.0
O853 O 0.27315 0.18596 0.54052 0.0
O854 O 0.25506 0.21785 0.51633 0.0
O855 O 0.2713 0.18368 0.49114 0.0
H856 H 0.34126 0.22829 0.54414 0.0
H857 H 0.29775 0.25629 0.50922 0.0
H858 H 0.36606 0.26409 0.55461 0.0
H859 H 0.32321 0.29161 0.5204 0.0
H860 H 0.28599 0.12406 0.55659 0.0
H861 H 0.30275 0.20207 0.57401 0.0
H862 H 0.26679 0.14417 0.53448 0.0
H863 H 0.32115 0.18092 0.59553 0.0
H864 H 0.31336 0.27229 0.6036 0.0
H865 H 0.25652 0.22455 0.60927 0.0
H866 H 0.3174 0.1272 0.4886 0.0
H867 H 0.35834 0.1675 0.54292 0.0
H868 H 0.22307 0.20495 0.53803 0.0
H869 H 0.26522 0.25986 0.52066 0.0
H870 H 0.20637 0.22884 0.55939 0.0
H871 H 0.24789 0.28279 0.54246 0.0
H872 H 0.25279 0.18977 0.45416 0.0
H873 H 0.25655 0.14341 0.49606 0.0
H874 H 0.22583 0.16214 0.42909 0.0
H875 H 0.2296 0.11653 0.47017 0.0
H876 H 0.31207 0.23626 0.43458 0.0
H877 H 0.24873 0.24525 0.43568 0.0
H878 H 0.19835 0.13242 0.53971 0.0
H879 H 0.17781 0.15611 0.48266 0.0
Li880 Li 0.14511 0.06737 0.79207 0.0
Li881 Li 0.11746 0.04409 0.80885 0.0
Li882 Li 0.14364 0.02923 0.78695 0.0
Li883 Li 0.1157 0.04327 0.7694 0.0
C884 C 0.16719 0.06213 0.82636 0.0
N885 N 0.20328 0.08987 0.84953 0.0
C886 C 0.16531 0.07767 0.84241 0.0
C887 C 0.18738 0.06062 0.8221 0.0
C888 C 0.18376 0.09157 0.85395 0.0
C889 C 0.20545 0.07482 0.834 0.0
C890 C 0.09639 0.07355 0.78905 0.0
C891 C 0.05886 0.06807 0.79138 0.0
N892 N 0.05923 0.08662 0.78366 0.0
C893 C 0.09646 0.09267 0.78135 0.0
C894 C 0.0775 0.06123 0.79429 0.0
C895 C 0.07749 0.09897 0.77865 0.0
C896 C 0.18351 0.0981 0.78819 0.0
N897 N 0.16425 0.09529 0.79537 0.0
C898 C 0.16954 0.13285 0.80352 0.0
C899 C 0.15733 0.11213 0.80337 0.0
C900 C 0.18908 0.13633 0.79528 0.0
C901 C 0.19625 0.11857 0.78801 0.0
H902 H 0.18866 0.08444 0.78189 0.0
H903 H 0.14202 0.10947 0.8091 0.0
C904 C 0.0995 0.0235 0.84331 0.0
N905 N 0.10456 0.04219 0.83529 0.0
C906 C 0.09284 0.0228 0.86358 0.0
C907 C 0.09629 0.06048 0.86688 0.0
C908 C 0.10283 0.06045 0.8466 0.0
C909 C 0.09151 0.04155 0.87594 0.0
H910 H 0.10127 0.00918 0.83427 0.0
H911 H 0.10709 0.07519 0.84009 0.0
C912 C 0.15112 0.06116 0.75001 0.0
N913 N 0.16092 0.08601 0.71843 0.0
C914 C 0.14057 0.07691 0.74656 0.0
C915 C 0.16676 0.05815 0.73748 0.0
C916 C 0.14571 0.08927 0.7305 0.0
C917 C 0.17146 0.07085 0.72157 0.0
C918 C 0.09741 1.00314 0.77175 0.0
C919 C 0.10435 0.98849 0.75844 0.0
C920 C 0.0757 1.00238 0.77006 0.0
C921 C 0.08947 0.97351 0.74344 0.0
C922 C 0.06132 0.98717 0.75485 0.0
N923 N 0.06845 0.97318 0.74195 0.0
C924 C 0.16521 0.99893 0.80123 0.0
C925 C 0.16738 0.00492 0.76551 0.0
C926 C 0.17803 0.98465 0.79929 0.0
N927 N 0.16027 0.0088 0.78447 0.0
C928 C 0.18035 0.99095 0.76293 0.0
C929 C 0.18598 0.98068 0.77999 0.0
H930 H 0.1594 1.00234 0.81618 0.0
H931 H 0.16297 0.01272 0.75235 0.0
C932 C 0.0837 0.04927 0.73511 0.0
N933 N 0.09887 0.03908 0.74086 0.0
C934 C 0.07512 0.04751 0.71358 0.0
C935 C 0.09729 0.02431 0.70426 0.0
C936 C 0.10558 0.02669 0.72582 0.0
C937 C 0.08199 0.03498 0.69773 0.0
H938 H 0.07855 0.05921 0.74701 0.0
H939 H 0.11803 0.01916 0.73049 0.0
O940 O 0.14935 0.04883 0.81443 0.0
O941 O 0.11485 0.06723 0.79192 0.0
O942 O 0.14644 0.04895 0.76578 0.0
O943 O 0.11184 0.01823 0.78618 0.0
H944 H 0.14977 0.07912 0.84576 0.0
H945 H 0.18907 0.04877 0.80959 0.0
H946 H 0.18257 0.10375 0.86636 0.0
H947 H 0.22119 0.07391 0.83084 0.0
H948 H 0.04411 0.05865 0.79531 0.0
H949 H 0.111 0.10253 0.77742 0.0
H950 H 0.07726 0.04663 0.80068 0.0
H951 H 0.07728 0.11367 0.77259 0.0
H952 H 0.16353 0.14602 0.80964 0.0
H953 H 0.21109 0.12044 0.78137 0.0
H954 H 0.08957 0.00784 0.86981 0.0
H955 H 0.09521 0.07532 0.87547 0.0
H956 H 0.12855 0.07958 0.75617 0.0
H957 H 0.17528 0.04622 0.74006 0.0
H958 H 0.13762 0.10148 0.72765 0.0
H959 H 0.18353 0.06868 0.71175 0.0
H960 H 0.12106 0.9888 0.75952 0.0
H961 H 0.06999 0.01345 0.7803 0.0
H962 H 0.09465 0.96217 0.73295 0.0
H963 H 0.0445 0.98649 0.75329 0.0
H964 H 0.1821 0.97721 0.81289 0.0
H965 H 0.18583 0.98813 0.74767 0.0
H966 H 0.06324 0.05591 0.70939 0.0
H967 H 0.10339 0.01473 0.69272 0.0
Li968 Li 0.25849 0.93588 0.00829 0.0
Li969 Li 0.26786 0.90932 0.0288 0.0
Li970 Li 0.29383 0.9314 0.01094 0.0
Li971 Li 0.26577 0.904 0.98942 0.0
C972 C 0.28432 0.9603 0.04483 0.0
N973 N 0.29448 1.00129 0.06613 0.0
C974 C 0.28019 0.9641 0.06578 0.0
C975 C 0.29376 0.9773 0.03477 0.0
C976 C 0.2854 0.98495 0.07627 0.0
C977 C 0.29875 0.99792 0.04579 0.0
C978 C 0.2285 0.88582 0.00593 0.0
C979 C 0.22234 0.84776 0.0028 0.0
N980 N 0.20116 0.84591 0.00313 0.0
C981 C 0.20668 0.88354 0.00617 0.0
C982 C 0.23642 0.86779 0.0042 0.0
C983 C 0.19312 0.86323 0.00478 0.0
C984 C 0.23841 0.96336 0.98839 0.0
N985 N 0.24249 0.95598 0.00705 0.0
C986 C 0.22535 0.97938 0.02536 0.0
C987 C 0.23595 0.96336 0.02526 0.0
C988 C 0.22118 0.98757 0.00643 0.0
C989 C 0.22758 0.97925 0.98769 0.0
H990 H 0.24366 0.95698 0.97412 0.0
H991 H 0.23907 0.95684 0.03973 0.0
C992 C 0.28446 0.9049 0.06786 0.0
N993 N 0.26616 0.89714 0.05407 0.0
C994 C 0.28823 0.89513 0.08555 0.0
C995 C 0.25326 0.8708 0.07575 0.0
C996 C 0.25022 0.881 0.05804 0.0
C997 C 0.27284 0.87739 0.08916 0.0
H998 H 0.29668 0.91795 0.06437 0.0
H999 H 0.23557 0.87543 0.04715 0.0
C1000 C 0.28611 0.94365 0.97 0.0
N1001 N 0.30708 0.96358 0.93949 0.0
C1002 C 0.29206 0.93171 0.95318 0.0
C1003 C 0.29045 0.96571 0.97101 0.0
C1004 C 0.30274 0.94209 0.93799 0.0
C1005 C 0.30118 0.97549 0.95552 0.0
C1006 C 0.3081 0.89724 0.01069 0.0
C1007 C 0.31768 0.89851 0.99211 0.0
C1008 C 0.31937 0.89348 0.02911 0.0
C1009 C 0.33846 0.89632 0.99235 0.0
C1010 C 0.34014 0.89139 0.02873 0.0
N1011 N 0.34919 0.89287 0.01052 0.0
C1012 C 0.33253 0.95043 0.03628 0.0
C1013 C 0.33511 0.94991 0.99945 0.0
C1014 C 0.35426 0.96009 0.04152 0.0
N1015 N 0.32338 0.94572 0.01556 0.0
C1016 C 0.35692 0.95934 0.00394 0.0
C1017 C 0.36677 0.96466 0.02523 0.0
H1018 H 0.32293 0.94649 0.04878 0.0
H1019 H 0.32778 0.94537 0.98311 0.0
C1020 C 0.24403 0.88674 0.9486 0.0
N1021 N 0.25841 0.88418 0.96441 0.0
C1022 C 0.24086 0.87435 0.92868 0.0
C1023 C 0.26673 0.85644 0.94217 0.0
C1024 C 0.26906 0.86888 0.96188 0.0
C1025 C 0.25295 0.85953 0.925 0.0
H1026 H 0.23572 0.89902 0.95123 0.0
H1027 H 0.28012 0.86699 0.9749 0.0
O1028 O 0.27911 0.93998 0.03431 0.0
O1029 O 0.24184 0.90563 0.00693 0.0
O1030 O 0.2754 0.93374 0.98489 0.0
O1031 O 0.28791 0.89989 0.01086 0.0
H1032 H 0.27292 0.95106 0.0738 0.0
H1033 H 0.29731 0.97458 0.0187 0.0
H1034 H 0.28222 0.98814 0.09247 0.0
H1035 H 0.30604 0.01124 0.03817 0.0
H1036 H 0.22825 0.83368 1.00151 0.0
H1037 H 0.20029 0.89734 0.0074 0.0
H1038 H 0.25325 0.86919 0.00416 0.0
H1039 H 0.1762 0.86123 0.00498 0.0
H1040 H 0.22016 0.98507 0.04 0.0
H1041 H 0.22446 0.98511 0.97279 0.0
H1042 H 0.30337 0.90083 0.09583 0.0
H1043 H 0.241 0.85722 0.07823 0.0
H1044 H 0.28856 0.91462 0.95185 0.0
H1045 H 0.28545 0.9752 0.98349 0.0
H1046 H 0.30755 0.93304 0.925 0.0
H1047 H 0.30473 0.99256 0.95619 0.0
H1048 H 0.30929 0.9015 0.97773 0.0
H1049 H 0.31221 0.89212 0.04355 0.0
H1050 H 0.3461 0.89747 0.97813 0.0
H1051 H 0.34905 0.88858 0.04292 0.0
H1052 H 0.36113 0.96399 0.05814 0.0
H1053 H 0.36604 0.96202 0.99082 0.0
H1054 H 0.22969 0.87694 0.9161 0.0
H1055 H 0.2766 0.84546 0.9402 0.0
Li1056 Li 0.27702 0.39643 0.03659 0.0
Li1057 Li 0.28903 0.37201 0.05718 0.0
Li1058 Li 0.3156 0.39947 0.04021 0.0
Li1059 Li 0.2888 0.36752 0.01705 0.0
C1060 C 0.29303 0.42115 0.0736 0.0
N1061 N 0.28263 0.45606 0.09391 0.0
C1062 C 0.27396 0.41869 0.08233 0.0
C1063 C 0.3068 0.44139 0.0752 0.0
C1064 C 0.26897 0.43653 0.09251 0.0
C1065 C 0.30127 0.45883 0.08554 0.0
C1066 C 0.25053 0.34773 0.0383 0.0
C1067 C 0.23742 0.30967 0.03469 0.0
N1068 N 0.22322 0.31206 0.04834 0.0
C1069 C 0.23564 0.34982 0.05208 0.0
C1070 C 0.25131 0.32752 0.02935 0.0
C1071 C 0.22204 0.33159 0.05704 0.0
C1072 C 0.23527 0.40279 0.02904 0.0
N1073 N 0.25629 0.41318 0.03352 0.0
C1074 C 0.24766 0.44671 0.03362 0.0
C1075 C 0.26266 0.43475 0.03552 0.0
C1076 C 0.22577 0.43645 0.02928 0.0
C1077 C 0.21972 0.41412 0.02682 0.0
H1078 H 0.23054 0.38565 0.02708 0.0
H1079 H 0.27942 0.44275 0.03874 0.0
C1080 C 0.30038 0.34675 0.08902 0.0
N1081 N 0.28653 0.35831 0.0832 0.0
C1082 C 0.29982 0.33815 0.10821 0.0
C1083 C 0.27103 0.35372 0.11557 0.0
C1084 C 0.27202 0.36185 0.09615 0.0
C1085 C 0.28506 0.34165 0.12194 0.0
H1086 H 0.31223 0.3445 0.079 0.0
H1087 H 0.26123 0.37118 0.09159 0.0
C1088 C 0.28996 0.41161 1.00164 0.0
N1089 N 0.27648 0.43925 0.97717 0.0
C1090 C 0.27151 0.40442 0.98678 0.0
C1091 C 0.30162 0.43281 0.004 0.0
C1092 C 0.26493 0.41866 0.97459 0.0
C1093 C 0.29453 0.44654 0.99148 0.0
C1094 C 0.32275 0.35267 0.03567 0.0
C1095 C 0.34378 0.35803 0.03133 0.0
C1096 C 0.31214 0.33135 0.03512 0.0
C1097 C 0.35379 0.34189 0.02627 0.0
C1098 C 0.3227 0.31568 0.03 0.0
N1099 N 0.34313 0.32123 0.02569 0.0
C1100 C 0.35686 0.42736 0.05874 0.0
C1101 C 0.35087 0.41671 0.02136 0.0
C1102 C 0.37758 0.43924 0.05756 0.0
N1103 N 0.34399 0.41649 0.04074 0.0
C1104 C 0.37145 0.4281 0.01948 0.0
C1105 C 0.38515 0.43953 0.03771 0.0
H1106 H 0.35112 0.42669 0.07402 0.0
H1107 H 0.34034 0.40782 0.00732 0.0
C1108 C 0.26683 0.34408 0.97672 0.0
N1109 N 0.2861 0.35022 0.98924 0.0
C1110 C 0.26501 0.33479 0.95541 0.0
C1111 C 0.30273 0.3375 0.96031 0.0
C1112 C 0.30388 0.34709 0.98138 0.0
C1113 C 0.28315 0.33148 0.94669 0.0
H1114 H 0.25295 0.34719 0.98301 0.0
H1115 H 0.3192 0.35266 0.9912 0.0
O1116 O 0.29819 0.40389 0.06352 0.0
O1117 O 0.26408 0.36539 0.0334 0.0
O1118 O 0.2964 0.39803 0.01405 0.0
O1119 O 0.31263 0.36825 0.04041 0.0
H1120 H 0.26286 0.40327 0.08078 0.0
H1121 H 0.32147 0.44367 0.06829 0.0
H1122 H 0.25419 0.43485 0.09918 0.0
H1123 H 0.31176 0.47459 0.08683 0.0
H1124 H 0.23792 0.29393 0.02795 0.0
H1125 H 0.23468 0.36537 0.05895 0.0
H1126 H 0.26248 0.32564 0.01836 0.0
H1127 H 0.21053 0.33296 0.06781 0.0
H1128 H 0.25322 0.46385 0.03589 0.0
H1129 H 0.20314 0.40538 0.023 0.0
H1130 H 0.3112 0.32923 0.11248 0.0
H1131 H 0.25923 0.35672 0.12541 0.0
H1132 H 0.26223 0.38809 0.98491 0.0
H1133 H 0.31585 0.43865 0.01557 0.0
H1134 H 0.25061 0.41336 0.96312 0.0
H1135 H 0.30333 0.46302 0.9932 0.0
H1136 H 0.35226 0.37446 0.03178 0.0
H1137 H 0.29599 0.32696 0.03874 0.0
H1138 H 0.37004 0.3458 0.02279 0.0
H1139 H 0.31467 0.29911 0.02948 0.0
H1140 H 0.38774 0.44767 0.07202 0.0
H1141 H 0.37658 0.42801 0.00386 0.0
H1142 H 0.24957 0.33099 0.94574 0.0
H1143 H 0.3172 0.33512 0.95476 0.0
Li1144 Li 0.80331 0.16468 0.06759 0.0
Li1145 Li 0.80323 0.13996 0.0376 0.0
Li1146 Li 0.79575 0.17508 0.03292 0.0
Li1147 Li 0.77034 0.14576 0.04554 0.0
C1148 C 0.84155 0.18171 0.05534 0.0
N1149 N 0.88019 0.20746 0.07563 0.0
C1150 C 0.85361 0.17448 0.07092 0.0
C1151 C 0.84921 0.20199 0.05 0.0
C1152 C 0.87308 0.18776 0.08103 0.0
C1153 C 0.86877 0.21477 0.06045 0.0
C1154 C 0.79613 0.11617 0.06729 0.0
C1155 C 0.79355 0.07878 0.0583 0.0
N1156 N 0.80992 0.08043 0.07399 0.0
C1157 C 0.81301 0.11748 0.08327 0.0
C1158 C 0.78634 0.09663 0.05467 0.0
C1159 C 0.8197 0.09924 0.08644 0.0
C1160 C 0.807 0.16646 0.11204 0.0
N1161 N 0.81427 0.17726 0.09622 0.0
C1162 C 0.82888 0.20895 0.12095 0.0
C1163 C 0.82534 0.19803 0.10032 0.0
C1164 C 0.82059 0.19847 0.13737 0.0
C1165 C 0.81018 0.17677 0.13292 0.0
H1166 H 0.79726 0.15032 0.10821 0.0
H1167 H 0.82991 0.20663 0.08739 0.0
C1168 C 0.80717 0.10571 0.00796 0.0
N1169 N 0.81642 0.11931 0.02607 0.0
C1170 C 0.81511 0.08831 1.0018 0.0
C1171 C 0.84237 0.09996 0.03253 0.0
C1172 C 0.83416 0.11722 0.03786 0.0
C1173 C 0.83247 0.08504 0.01463 0.0
H1174 H 0.79326 0.10795 0.99871 0.0
H1175 H 0.84126 0.12832 0.05204 0.0
C1176 C 0.7736 0.18541 0.075 0.0
N1177 N 0.76375 0.20324 0.11283 0.0
C1178 C 0.76114 0.17265 0.08748 0.0
C1179 C 0.78109 0.20725 0.08182 0.0
C1180 C 0.75631 0.18197 0.10653 0.0
C1181 C 0.77592 0.21596 0.10098 0.0
C1182 C 0.7622 0.13893 0.00404 0.0
C1183 C 0.75287 0.15333 0.99462 0.0
C1184 C 0.75172 0.11731 1.00034 0.0
C1185 C 0.73315 0.14587 0.98173 0.0
C1186 C 0.73199 0.11049 0.98739 0.0
N1187 N 0.72319 0.12478 0.97844 0.0
C1188 C 0.80692 0.19519 0.99792 0.0
C1189 C 0.78992 0.21371 0.02185 0.0
C1190 C 0.80696 0.21015 0.98403 0.0
N1191 N 0.7982 0.19712 0.01621 0.0
C1192 C 0.78988 0.22919 0.0086 0.0
C1193 C 0.79803 0.22727 0.98913 0.0
H1194 H 0.81313 0.18162 0.9938 0.0
H1195 H 0.7827 0.21456 0.03627 0.0
C1196 C 0.73355 0.11321 0.04788 0.0
N1197 N 0.7407 0.13356 0.04433 0.0
C1198 C 0.71177 0.10352 0.04494 0.0
C1199 C 0.70506 0.13638 0.03602 0.0
C1200 C 0.72702 0.14532 0.03881 0.0
C1201 C 0.69716 0.11507 0.03878 0.0
H1202 H 0.74473 0.10434 0.05257 0.0
H1203 H 0.73323 0.16155 0.03624 0.0
O1204 O 0.8225 0.16898 0.04511 0.0
O1205 O 0.78948 0.13394 0.06379 0.0
O1206 O 0.77912 0.17643 0.05666 0.0
O1207 O 0.78123 0.14602 0.0172 0.0
H1208 H 0.8478 0.15902 0.07556 0.0
H1209 H 0.84014 0.20783 0.03793 0.0
H1210 H 0.88248 0.18244 0.09324 0.0
H1211 H 0.87486 0.23052 0.0565 0.0
H1212 H 0.78625 0.06364 0.0485 0.0
H1213 H 0.82119 0.13246 0.09289 0.0
H1214 H 0.77378 0.09535 0.04174 0.0
H1215 H 0.83279 0.10008 0.09869 0.0
H1216 H 0.83685 0.22573 0.12377 0.0
H1217 H 0.80311 0.1683 0.14508 0.0
H1218 H 0.80734 0.07716 0.98772 0.0
H1219 H 0.85608 0.09805 0.04252 0.0
H1220 H 0.75563 0.15566 0.08281 0.0
H1221 H 0.79125 0.21735 0.07276 0.0
H1222 H 0.74679 0.17225 0.11639 0.0
H1223 H 0.78176 0.23281 0.10652 0.0
H1224 H 0.76062 0.17013 0.99739 0.0
H1225 H 0.75848 0.10596 0.00776 0.0
H1226 H 0.72571 0.15685 0.97442 0.0
H1227 H 0.72362 0.09383 0.98458 0.0
H1228 H 0.81304 0.20774 0.96903 0.0
H1229 H 0.78305 0.2422 0.01331 0.0
H1230 H 0.70654 0.087 0.047 0.0
H1231 H 0.69444 0.14607 0.03173 0.0
Li1232 Li 0.17537 0.5583 0.25106 0.0
Li1233 Li 0.14904 0.54285 0.27164 0.0
Li1234 Li 0.1768 0.52472 0.26317 0.0
Li1235 Li 0.14733 0.52654 0.23637 0.0
C1236 C 0.18521 0.56912 0.29697 0.0
N1237 N 0.1953 0.60247 0.33015 0.0
C1238 C 0.18097 0.58854 0.2939 0.0
C1239 C 0.19467 0.56672 0.31694 0.0
C1240 C 0.18617 0.60519 0.31085 0.0
C1241 C 0.19961 0.58374 0.33351 0.0
C1242 C 0.12909 0.56589 0.24847 0.0
C1243 C 0.09341 0.56569 0.25553 0.0
N1244 N 0.09798 0.58703 0.25549 0.0
C1245 C 0.13342 0.58786 0.24858 0.0
C1246 C 0.10891 0.55474 0.25203 0.0
C1247 C 0.11749 0.59823 0.25213 0.0
C1248 C 0.18746 0.59539 0.23136 0.0
N1249 N 0.19383 0.58371 0.24582 0.0
C1250 C 0.22585 0.61078 0.25811 0.0
C1251 C 0.213 0.59056 0.25841 0.0
C1252 C 0.21898 0.62382 0.24446 0.0
C1253 C 0.19993 0.61569 0.23037 0.0
H1254 H 0.17231 0.58927 0.22124 0.0
H1255 H 0.21781 0.58067 0.26944 0.0
C1256 C 0.12292 0.53132 0.30251 0.0
N1257 N 0.13282 0.54825 0.29364 0.0
C1258 C 0.11015 0.53398 0.31826 0.0
C1259 C 0.11837 0.57152 0.31573 0.0
C1260 C 0.13089 0.56813 0.30001 0.0
C1261 C 0.1078 0.55431 0.325 0.0
H1262 H 0.12496 0.51575 0.29736 0.0
H1263 H 0.13864 0.58133 0.29261 0.0
C1264 C 0.19219 0.54078 0.22127 0.0
N1265 N 0.22054 0.56085 0.19623 0.0
C1266 C 0.18465 0.54733 0.20251 0.0
C1267 C 0.21414 0.5445 0.22734 0.0
C1268 C 0.19924 0.55742 0.19005 0.0
C1269 C 0.22821 0.55466 0.21445 0.0
C1270 C 0.13294 0.49291 0.25346 0.0
C1271 C 0.14184 0.47766 0.24352 0.0
C1272 C 0.1109 0.48843 0.25354 0.0
C1273 C 0.12847 0.45816 0.23372 0.0
C1274 C 0.09808 0.46874 0.24356 0.0
N1275 N 0.10705 0.45414 0.23393 0.0
C1276 C 0.19927 0.50824 0.29391 0.0
C1277 C 0.20528 0.49948 0.25834 0.0
C1278 C 0.21433 0.49803 0.30153 0.0
N1279 N 0.19532 0.50897 0.27272 0.0
C1280 C 0.22037 0.48901 0.26522 0.0
C1281 C 0.22522 0.48839 0.28711 0.0
H1282 H 0.19086 0.51579 0.30486 0.0
H1283 H 0.2016 0.5002 0.24155 0.0
C1284 C 0.10827 0.51128 0.20908 0.0
N1285 N 0.12928 0.51164 0.21124 0.0
C1286 C 0.09569 0.50448 0.18934 0.0
C1287 C 0.12617 0.49673 0.17479 0.0
C1288 C 0.13812 0.50355 0.19493 0.0
C1289 C 0.10497 0.4982 0.17167 0.0
H1290 H 0.10147 0.51734 0.22232 0.0
H1291 H 0.15481 0.50366 0.1972 0.0
O1292 O 0.18051 0.55263 0.2805 0.0
O1293 O 0.14451 0.55545 0.24485 0.0
O1294 O 0.17817 0.53138 0.23397 0.0
O1295 O 0.14573 0.51227 0.26267 0.0
H1296 H 0.17349 0.59069 0.27866 0.0
H1297 H 0.19823 0.5519 0.31964 0.0
H1298 H 0.18289 0.62026 0.30866 0.0
H1299 H 0.20691 0.58207 0.34904 0.0
H1300 H 0.07783 0.55725 0.25853 0.0
H1301 H 0.14893 0.59689 0.24613 0.0
H1302 H 0.10551 0.53797 0.25304 0.0
H1303 H 0.12066 0.61522 0.25227 0.0
H1304 H 0.24064 0.61644 0.26894 0.0
H1305 H 0.19418 0.62533 0.21959 0.0
H1306 H 0.10252 0.52038 0.32535 0.0
H1307 H 0.11677 0.58741 0.32041 0.0
H1308 H 0.16773 0.54496 0.19779 0.0
H1309 H 0.22026 0.53987 0.24201 0.0
H1310 H 0.19364 0.56265 0.17553 0.0
H1311 H 0.24524 0.55771 0.21899 0.0
H1312 H 0.15885 0.48094 0.24319 0.0
H1313 H 0.10374 0.50012 0.26103 0.0
H1314 H 0.13512 0.44624 0.22588 0.0
H1315 H 0.08098 0.46509 0.24341 0.0
H1316 H 0.21762 0.49796 0.31852 0.0
H1317 H 0.22801 0.48134 0.25352 0.0
H1318 H 0.07945 0.50597 0.1876 0.0
H1319 H 0.1338 0.49176 0.16153 0.0
Li1320 Li 0.78126 0.88622 0.54098 0.0
Li1321 Li 0.79657 0.86296 0.56135 0.0
Li1322 Li 0.82028 0.8927 0.54599 0.0
Li1323 Li 0.79688 0.86049 0.52143 0.0
C1324 C 0.80155 0.90966 0.5837 0.0
N1325 N 0.80238 0.94148 0.61641 0.0
C1326 C 0.79017 0.90508 0.60071 0.0
C1327 C 0.81357 0.93039 0.58347 0.0
C1328 C 0.79074 0.92139 0.61705 0.0
C1329 C 0.81371 0.94626 0.60011 0.0
C1330 C 0.75309 0.84654 0.54508 0.0
C1331 C 0.72065 0.81911 0.54379 0.0
N1332 N 0.71547 0.83051 0.5607 0.0
C1333 C 0.74743 0.858 0.5624 0.0
C1334 C 0.7396 0.82696 0.53564 0.0
C1335 C 0.72836 0.84963 0.57008 0.0
C1336 C 0.73972 0.89064 0.52612 0.0
N1337 N 0.75839 0.90053 0.53885 0.0
C1338 C 0.7452 0.93098 0.54798 0.0
C1339 C 0.76134 0.92039 0.5496 0.0
C1340 C 0.72569 0.92115 0.53509 0.0
C1341 C 0.72308 0.90065 0.52407 0.0
H1342 H 0.7378 0.87499 0.51743 0.0
H1343 H 0.77634 0.92826 0.55921 0.0
C1344 C 0.81051 0.8608 0.60418 0.0
N1345 N 0.79537 0.85012 0.58767 0.0
C1346 C 0.80972 0.85527 0.62473 0.0
C1347 C 0.77821 0.82718 0.61104 0.0
C1348 C 0.77962 0.83325 0.59067 0.0
C1349 C 0.79316 0.83851 0.62863 0.0
H1350 H 0.82289 0.87416 0.60153 0.0
H1351 H 0.76772 0.82485 0.57744 0.0
C1352 C 0.79201 0.90414 0.50818 0.0
N1353 N 0.77186 0.92984 0.48688 0.0
C1354 C 0.77758 0.89558 0.48968 0.0
C1355 C 0.79621 0.92578 0.51584 0.0
C1356 C 0.76756 0.90884 0.47914 0.0
C1357 C 0.78586 0.93851 0.50484 0.0
C1358 C 0.82573 0.84275 0.5449 0.0
C1359 C 0.84688 0.84165 0.54865 0.0
C1360 C 0.80925 0.8241 0.54128 0.0
C1361 C 0.85123 0.82182 0.54868 0.0
C1362 C 0.81425 0.80458 0.54146 0.0
N1363 N 0.83496 0.80385 0.54512 0.0
C1364 C 0.86222 0.91304 0.56665 0.0
C1365 C 0.85194 0.92615 0.53514 0.0
C1366 C 0.88262 0.92684 0.56892 0.0
N1367 N 0.84745 0.91285 0.54986 0.0
C1368 C 0.87197 0.94043 0.53699 0.0
C1369 C 0.8877 0.9407 0.55388 0.0
H1370 H 0.85827 0.90217 0.57804 0.0
H1371 H 0.84015 0.92533 0.52165 0.0
C1372 C 0.7789 0.83684 0.47963 0.0
N1373 N 0.79702 0.84398 0.49391 0.0
C1374 C 0.77978 0.82847 0.45855 0.0
C1375 C 0.81772 0.83382 0.46741 0.0
C1376 C 0.81617 0.84235 0.48823 0.0
C1377 C 0.79945 0.82719 0.45202 0.0
H1378 H 0.76386 0.83848 0.48434 0.0
H1379 H 0.83046 0.84849 0.49964 0.0
O1380 O 0.80149 0.89387 0.56768 0.0
O1381 O 0.77171 0.85436 0.53732 0.0
O1382 O 0.80145 0.89127 0.51912 0.0
O1383 O 0.82124 0.86204 0.54481 0.0
H1384 H 0.78107 0.88909 0.60139 0.0
H1385 H 0.8225 0.93424 0.57047 0.0
H1386 H 0.78198 0.91808 0.63029 0.0
H1387 H 0.82282 0.96239 0.60006 0.0
H1388 H 0.71007 0.80396 0.53667 0.0
H1389 H 0.75762 0.87321 0.56976 0.0
H1390 H 0.74377 0.81792 0.5222 0.0
H1391 H 0.72379 0.85833 0.58348 0.0
H1392 H 0.74794 0.94666 0.55693 0.0
H1393 H 0.70844 0.89254 0.51371 0.0
H1394 H 0.82194 0.86425 0.6375 0.0
H1395 H 0.76507 0.81422 0.61309 0.0
H1396 H 0.77401 0.87886 0.48363 0.0
H1397 H 0.807 0.9326 0.53037 0.0
H1398 H 0.7563 0.9024 0.46484 0.0
H1399 H 0.78884 0.95525 0.51068 0.0
H1400 H 0.8598 0.85598 0.55149 0.0
H1401 H 0.79278 0.82465 0.53836 0.0
H1402 H 0.86753 0.82071 0.55155 0.0
H1403 H 0.80167 0.79001 0.53868 0.0
H1404 H 0.89436 0.92655 0.58214 0.0
H1405 H 0.87539 0.95056 0.52485 0.0
H1406 H 0.76522 0.8234 0.44735 0.0
H1407 H 0.83326 0.83338 0.46317 0.0
Li1408 Li 0.96129 0.03407 0.29138 0.0
Li1409 Li 0.92697 0.01058 0.26687 0.0
Li1410 Li 0.95621 0.03401 0.25163 0.0
Li1411 Li 0.93413 0.0495 0.27202 0.0
C1412 C 0.97213 1.00217 0.25726 0.0
N1413 N 1.00121 0.98896 0.23413 0.0
C1414 C 0.96505 0.98782 0.23846 0.0
C1415 C 0.99396 0.00975 0.26437 0.0
C1416 C 0.98002 0.98135 0.22697 0.0
C1417 C 1.00842 1.00287 0.25244 0.0
C1418 C 0.91886 0.03957 0.30717 0.0
C1419 C 0.88544 0.04343 0.31779 0.0
N1420 N 0.8962 0.06009 0.33278 0.0
C1421 C 0.92958 0.05673 0.32266 0.0
C1422 C 0.8966 0.03286 0.30467 0.0
C1423 C 0.91784 0.06689 0.33546 0.0
C1424 C 0.98693 0.05197 0.33266 0.0
N1425 N 0.97806 0.03387 0.31872 0.0
C1426 C 0.9871 0.01288 0.34512 0.0
C1427 C 0.97829 0.01456 0.32451 0.0
C1428 C 0.99564 0.03123 0.3602 0.0
C1429 C 0.99577 0.05101 0.3535 0.0
H1430 H 0.98648 0.06718 0.32788 0.0
H1431 H 0.97088 1.00033 0.31334 0.0
C1432 C 0.89932 0.97086 0.24578 0.0
N1433 N 0.90592 0.98417 0.26455 0.0
C1434 C 0.88389 0.95162 0.24477 0.0
C1435 C 0.88209 0.96042 0.28226 0.0
C1436 C 0.89782 0.97919 0.28265 0.0
C1437 C 0.87497 0.94633 0.26318 0.0
H1438 H 0.90608 0.97517 0.23163 0.0
H1439 H 0.90366 0.9898 0.29747 0.0
C1440 C 0.98329 0.07209 0.27013 0.0
N1441 N 0.01897 0.09897 0.25941 0.0
C1442 C 0.98108 0.08589 0.25539 0.0
C1443 C 1.0036 0.07211 0.27961 0.0
C1444 C 0.99933 0.0993 0.25011 0.0
C1445 C 0.02146 0.0858 0.27394 0.0
C1446 C 0.91082 0.03607 0.2327 0.0
C1447 C 0.91763 0.05432 0.22331 0.0
C1448 C 0.88932 0.02496 0.22909 0.0
C1449 C 0.90268 0.06139 0.2107 0.0
C1450 C 0.87487 0.03254 0.21637 0.0
N1451 N 0.88179 0.05045 0.20754 0.0
C1452 C 0.9559 0.02695 0.20638 0.0
C1453 C 0.99047 0.0436 0.2243 0.0
C1454 C 0.96334 0.02751 0.1865 0.0
N1455 N 0.96935 0.03512 0.22488 0.0
C1456 C 0.99855 0.04471 0.20475 0.0
C1457 C 0.98498 0.03662 0.1853 0.0
H1458 H 0.93926 0.0198 0.20697 0.0
H1459 H 1.00118 0.04957 0.23896 0.0
C1460 C 0.93138 0.09249 0.2815 0.0
N1461 N 0.9197 0.07213 0.27505 0.0
C1462 C 0.9213 0.10903 0.28401 0.0
C1463 C 0.88734 0.08342 0.27324 0.0
C1464 C 0.89805 0.0674 0.27107 0.0
C1465 C 0.89892 0.10465 0.27982 0.0
H1466 H 0.94855 0.09589 0.28488 0.0
H1467 H 0.88899 0.05113 0.2663 0.0
O1468 O 0.95781 0.00937 0.26827 0.0
O1469 O 0.93009 0.02982 0.29411 0.0
O1470 O 0.96565 0.05897 0.27564 0.0
O1471 O 0.92517 0.02893 0.24515 0.0
H1472 H 0.94819 0.98198 0.23268 0.0
H1473 H 0.99965 0.02096 0.27885 0.0
H1474 H 0.9748 0.97036 0.21231 0.0
H1475 H 0.02537 0.00867 0.25769 0.0
H1476 H 0.86821 0.03848 0.31596 0.0
H1477 H 0.94675 0.06233 0.32458 0.0
H1478 H 0.88799 0.0199 0.29246 0.0
H1479 H 0.92593 0.08025 0.34745 0.0
H1480 H 0.98636 0.99726 0.34944 0.0
H1481 H 1.00238 0.06564 0.36436 0.0
H1482 H 0.87882 0.94109 0.22978 0.0
H1483 H 0.87588 0.95672 0.29686 0.0
H1484 H 0.96545 0.08622 0.24812 0.0
H1485 H 1.00555 0.0616 0.29115 0.0
H1486 H 0.99788 0.10999 0.23865 0.0
H1487 H 0.03729 0.08593 0.28107 0.0
H1488 H 0.93426 0.06295 0.2258 0.0
H1489 H 0.88384 0.01076 0.23621 0.0
H1490 H 0.90769 0.07556 0.20342 0.0
H1491 H 0.85815 0.02419 0.21354 0.0
H1492 H 0.95218 0.02052 0.17224 0.0
H1493 H 0.01531 0.05211 0.20501 0.0
H1494 H 0.93095 0.12505 0.28946 0.0
H1495 H 0.87014 0.07916 0.26953 0.0
Li1496 Li 0.29851 0.67442 0.56162 0.0
Li1497 Li 0.30839 0.65601 0.53267 0.0
Li1498 Li 0.28985 0.6828 0.5249 0.0
Li1499 Li 0.27213 0.64809 0.53492 0.0
C1500 C 0.33866 0.69289 0.53941 0.0
N1501 N 0.38082 0.70317 0.53268 0.0
C1502 C 0.35485 0.70055 0.55667 0.0
C1503 C 0.34387 0.69061 0.51871 0.0
C1504 C 0.37608 0.70563 0.55294 0.0
C1505 C 0.36529 0.69583 0.51565 0.0
C1506 C 0.30485 0.62899 0.56093 0.0
C1507 C 0.31198 0.59471 0.55316 0.0
N1508 N 0.32759 0.59989 0.57021 0.0
C1509 C 0.3209 0.63393 0.57845 0.0
C1510 C 0.30024 0.60916 0.54827 0.0
C1511 C 0.33222 0.61901 0.58286 0.0
C1512 C 0.29799 0.67515 0.60548 0.0
N1513 N 0.30336 0.6873 0.59007 0.0
C1514 C 0.30822 0.71909 0.6143 0.0
C1515 C 0.30897 0.70883 0.59412 0.0
C1516 C 0.30178 0.70697 0.63038 0.0
C1517 C 0.29738 0.68472 0.62595 0.0
H1518 H 0.2931 0.65805 0.60158 0.0
H1519 H 0.3127 0.71797 0.5813 0.0
C1520 C 0.32592 0.62843 0.50712 0.0
N1521 N 0.33003 0.64281 0.52513 0.0
C1522 C 0.33904 0.61477 0.50384 0.0
C1523 C 0.36125 0.63222 0.53687 0.0
C1524 C 0.3477 0.64545 0.53953 0.0
C1525 C 0.35647 0.61609 0.5193 0.0
H1526 H 0.31176 0.62668 0.49596 0.0
H1527 H 0.35045 0.65678 0.55386 0.0
C1528 C 0.26037 0.68304 0.56238 0.0
N1529 N 0.24111 0.69628 0.59611 0.0
C1530 C 0.25015 0.66834 0.57462 0.0
C1531 C 0.26074 0.70445 0.56724 0.0
C1532 C 0.24051 0.67536 0.59161 0.0
C1533 C 0.25092 0.71084 0.58437 0.0
C1534 C 0.27048 0.64231 0.49298 0.0
C1535 C 0.25925 0.65232 0.47934 0.0
C1536 C 0.26564 0.62013 0.49042 0.0
C1537 C 0.24307 0.63998 0.46365 0.0
C1538 C 0.24932 0.60835 0.47456 0.0
N1539 N 0.23845 0.61843 0.46162 0.0
C1540 C 0.29883 0.7156 0.49916 0.0
C1541 C 0.26419 0.70685 0.50935 0.0
C1542 C 0.2932 0.73011 0.48678 0.0
N1543 N 0.28421 0.70413 0.50979 0.0
C1544 C 0.25791 0.72123 0.49728 0.0
C1545 C 0.27237 0.73276 0.48546 0.0
H1546 H 0.31462 0.71307 0.49981 0.0
H1547 H 0.25288 0.69735 0.51788 0.0
C1548 C 0.24074 0.61004 0.53786 0.0
N1549 N 0.24484 0.62905 0.53052 0.0
C1550 C 0.21994 0.59711 0.53487 0.0
C1551 C 0.20824 0.62358 0.51667 0.0
C1552 C 0.22916 0.63601 0.52017 0.0
C1553 C 0.2034 0.60395 0.52423 0.0
H1554 H 0.2535 0.60511 0.54637 0.0
H1555 H 0.23294 0.65141 0.51489 0.0
O1556 O 0.31782 0.68783 0.5428 0.0
O1557 O 0.2937 0.64348 0.55626 0.0
O1558 O 0.2707 0.67664 0.54627 0.0
O1559 O 0.28619 0.65413 0.50867 0.0
H1560 H 0.35103 0.70244 0.57278 0.0
H1561 H 0.33151 0.6845 0.50521 0.0
H1562 H 0.3888 0.71151 0.56614 0.0
H1563 H 0.36958 0.69399 0.49974 0.0
H1564 H 0.30873 0.5794 0.54336 0.0
H1565 H 0.32485 0.64927 0.5883 0.0
H1566 H 0.28795 0.60507 0.53464 0.0
H1567 H 0.34479 0.62269 0.59625 0.0
H1568 H 0.31144 0.73623 0.61688 0.0
H1569 H 0.2927 0.67476 0.63795 0.0
H1570 H 0.33486 0.60251 0.49009 0.0
H1571 H 0.37475 0.63394 0.54897 0.0
H1572 H 0.25 0.65176 0.57127 0.0
H1573 H 0.26882 0.71606 0.55808 0.0
H1574 H 0.23268 0.66419 0.60131 0.0
H1575 H 0.2512 0.72738 0.58841 0.0
H1576 H 0.26295 0.66943 0.48083 0.0
H1577 H 0.27417 0.61209 0.50077 0.0
H1578 H 0.23418 0.64753 0.45307 0.0
H1579 H 0.24527 0.59119 0.47256 0.0
H1580 H 0.30474 0.73843 0.47763 0.0
H1581 H 0.24178 0.72293 0.49682 0.0
H1582 H 0.21678 0.58208 0.54096 0.0
H1583 H 0.19588 0.62961 0.50881 0.0
Li1584 Li 0.43335 0.50728 0.76768 0.0
Li1585 Li 0.46508 0.53113 0.79112 0.0
Li1586 Li 0.43688 0.54628 0.77184 0.0
Li1587 Li 0.46198 0.53222 0.75109 0.0
C1588 C 0.41817 0.51923 0.80512 0.0
N1589 N 0.38531 0.5028 0.82733 0.0
C1590 C 0.42264 0.51394 0.82543 0.0
C1591 C 0.39699 0.51641 0.79625 0.0
C1592 C 0.40581 0.50559 0.83637 0.0
C1593 C 0.3806 0.50802 0.80768 0.0
C1594 C 0.48 0.49822 0.77159 0.0
C1595 C 0.51669 0.49708 0.77208 0.0
N1596 N 0.51222 0.47859 0.78044 0.0
C1597 C 0.47569 0.47908 0.77993 0.0
C1598 C 0.50059 0.50721 0.76742 0.0
C1599 C 0.49223 0.46945 0.7844 0.0
C1600 C 0.40298 0.46997 0.74529 0.0
N1601 N 0.41405 0.47947 0.76464 0.0
C1602 C 0.39757 0.44965 0.78087 0.0
C1603 C 0.41189 0.46954 0.78219 0.0
C1604 C 0.38581 0.43953 0.76116 0.0
C1605 C 0.38879 0.44983 0.74315 0.0
H1606 H 0.40519 0.47803 0.73149 0.0
H1607 H 0.42137 0.47701 0.79725 0.0
C1608 C 0.4916 0.55248 0.83028 0.0
N1609 N 0.48189 0.53304 0.81896 0.0
C1610 C 0.50013 0.55446 0.8518 0.0
C1611 C 0.48922 0.51639 0.84964 0.0
C1612 C 0.48087 0.51513 0.82817 0.0
C1613 C 0.49856 0.5363 0.86202 0.0
H1614 H 0.49189 0.56658 0.82291 0.0
H1615 H 0.47236 0.49988 0.81928 0.0
C1616 C 0.41432 0.52979 0.73188 0.0
N1617 N 0.38245 0.5388 0.70525 0.0
C1618 C 0.41951 0.54325 0.7167 0.0
C1619 C 0.39291 0.52062 0.73327 0.0
C1620 C 0.40317 0.5477 0.70345 0.0
C1621 C 0.37703 0.52545 0.71974 0.0
C1622 C 0.48677 0.57118 0.77296 0.0
C1623 C 0.48531 0.58981 0.76495 0.0
C1624 C 0.50678 0.56776 0.77874 0.0
C1625 C 0.50398 0.60458 0.76248 0.0
C1626 C 0.52507 0.58292 0.77605 0.0
N1627 N 0.5233 0.60085 0.76801 0.0
C1628 C 0.4125 0.57048 0.79305 0.0
C1629 C 0.42023 0.58103 0.7599 0.0
C1630 C 0.40106 0.58578 0.79623 0.0
N1631 N 0.42156 0.56811 0.77498 0.0
C1632 C 0.40895 0.59662 0.76244 0.0
C1633 C 0.39911 0.59918 0.78083 0.0
H1634 H 0.41423 0.5606 0.80518 0.0
H1635 H 0.42815 0.57945 0.74599 0.0
C1636 C 0.4785 0.51637 0.71438 0.0
N1637 N 0.47558 0.53446 0.72496 0.0
C1638 C 0.48521 0.51613 0.69416 0.0
C1639 C 0.48638 0.55327 0.69599 0.0
C1640 C 0.47963 0.5528 0.71621 0.0
C1641 C 0.48889 0.53465 0.68437 0.0
H1642 H 0.47496 0.50185 0.72136 0.0
H1643 H 0.47667 0.56691 0.72442 0.0
O1644 O 0.43445 0.52713 0.79402 0.0
O1645 O 0.46401 0.50786 0.76709 0.0
O1646 O 0.43012 0.52528 0.745 0.0
O1647 O 0.46868 0.55656 0.77547 0.0
H1648 H 0.43891 0.51621 0.83266 0.0
H1649 H 0.39327 0.5208 0.78076 0.0
H1650 H 0.40904 0.50134 0.85205 0.0
H1651 H 0.36414 0.5057 0.80096 0.0
H1652 H 0.53272 0.50389 0.76901 0.0
H1653 H 0.45977 0.47183 0.78304 0.0
H1654 H 0.50406 0.52178 0.76053 0.0
H1655 H 0.48918 0.45471 0.79101 0.0
H1656 H 0.39603 0.44203 0.79504 0.0
H1657 H 0.38008 0.44246 0.72765 0.0
H1658 H 0.50738 0.57018 0.86049 0.0
H1659 H 0.48724 0.50194 0.85674 0.0
H1660 H 0.43596 0.55041 0.71531 0.0
H1661 H 0.38857 0.50975 0.74454 0.0
H1662 H 0.40697 0.55825 0.69176 0.0
H1663 H 0.3604 0.51851 0.7207 0.0
H1664 H 0.46992 0.59274 0.76055 0.0
H1665 H 0.50817 0.55362 0.78537 0.0
H1666 H 0.5031 0.61901 0.75617 0.0
H1667 H 0.54068 0.58045 0.7804 0.0
H1668 H 0.39369 0.58696 0.8106 0.0
H1669 H 0.4083 0.60683 0.75032 0.0
H1670 H 0.48719 0.50141 0.68614 0.0
H1671 H 0.48868 0.5679 0.68917 0.0
Li1672 Li 0.65627 0.03876 0.76584 0.0
Li1673 Li 0.68172 0.05363 0.74351 0.0
Li1674 Li 0.64946 0.02865 0.72764 0.0
Li1675 Li 0.67791 0.01772 0.74863 0.0
C1676 C 0.65215 0.07663 0.75304 0.0
N1677 N 0.65216 0.117 0.77115 0.0
C1678 C 0.66714 0.08718 0.7706 0.0
C1679 C 0.63707 0.08661 0.74478 0.0
C1680 C 0.66693 0.10758 0.77949 0.0
C1681 C 0.63734 0.10701 0.75415 0.0
C1682 C 0.70637 0.04959 0.78336 0.0
C1683 C 0.74365 0.05048 0.79069 0.0
N1684 N 0.74508 0.06305 0.80957 0.0
C1685 C 0.7082 0.06242 0.8029 0.0
C1686 C 0.72424 0.04351 0.77724 0.0
C1687 C 0.72791 0.06911 0.81588 0.0
C1688 C 0.65214 0.03892 0.80914 0.0
N1689 N 0.64378 0.04375 0.7905 0.0
C1690 C 0.61803 0.05722 0.80756 0.0
C1691 C 0.62693 0.05251 0.78933 0.0
C1692 C 0.6264 0.0526 0.82713 0.0
C1693 C 0.64365 0.04328 0.82782 0.0
H1694 H 0.66544 0.03176 0.80946 0.0
H1695 H 0.62044 0.05599 0.77427 0.0
C1696 C 0.69068 0.09008 0.72508 0.0
N1697 N 0.69975 0.07976 0.73925 0.0
C1698 C 0.69941 0.11156 0.72463 0.0
C1699 C 0.72771 0.11089 0.75205 0.0
C1700 C 0.71842 0.08941 0.75196 0.0
C1701 C 0.71762 0.1224 0.73894 0.0
H1702 H 0.67573 0.08202 0.71526 0.0
H1703 H 0.7254 0.08102 0.76307 0.0
C1704 C 0.62543 1.00093 0.75188 0.0
N1705 N 0.58323 0.98413 0.75619 0.0
C1706 C 0.61904 0.98088 0.75811 0.0
C1707 C 0.61036 0.01245 0.74786 0.0
C1708 C 0.59763 0.97265 0.7602 0.0
C1709 C 0.58911 0.00368 0.75012 0.0
C1710 C 0.69191 0.03808 0.7078 0.0
C1711 C 0.68373 0.04523 0.68969 0.0
C1712 C 0.71388 0.04064 0.71234 0.0
C1713 C 0.69774 0.05521 0.67664 0.0
C1714 C 0.72736 0.0507 0.69891 0.0
N1715 N 0.71909 0.05774 0.6815 0.0
C1716 C 0.62556 0.04051 0.69651 0.0
C1717 C 0.61657 1.00302 0.69479 0.0
C1718 C 0.61051 0.03912 0.67904 0.0
N1719 N 0.62836 0.02268 0.70393 0.0
C1720 C 0.60126 1.00085 0.67701 0.0
C1721 C 0.59836 0.01912 0.66884 0.0
H1722 H 0.63534 0.05586 0.70403 0.0
H1723 H 0.61916 0.98913 0.70119 0.0
C1724 C 0.69634 0.99345 0.7732 0.0
N1725 N 0.69251 0.99712 0.75283 0.0
C1726 C 0.71036 0.98129 0.77837 0.0
C1727 C 0.71511 0.97585 0.74117 0.0
C1728 C 0.70121 0.98842 0.73678 0.0
C1729 C 0.72023 0.97256 0.7623 0.0
H1730 H 0.68935 1.00096 0.7856 0.0
H1731 H 0.69793 0.99187 0.72077 0.0
O1732 O 0.65228 0.05677 0.74372 0.0
O1733 O 0.68706 0.04271 0.7706 0.0
O1734 O 0.64639 0.0092 0.74997 0.0
O1735 O 0.67847 0.02861 0.72098 0.0
H1736 H 0.67894 0.07982 0.77719 0.0
H1737 H 0.62522 0.07868 0.73131 0.0
H1738 H 0.67853 0.11593 0.793 0.0
H1739 H 0.62578 0.11491 0.7479 0.0
H1740 H 0.75759 0.04591 0.78612 0.0
H1741 H 0.69456 0.06721 0.80801 0.0
H1742 H 0.72322 0.03359 0.76227 0.0
H1743 H 0.72954 0.07908 0.831 0.0
H1744 H 0.60488 0.06461 0.80637 0.0
H1745 H 0.65034 0.03917 0.84254 0.0
H1746 H 0.69134 0.11984 0.71406 0.0
H1747 H 0.74171 0.11868 0.76344 0.0
H1748 H 0.63053 0.97179 0.76134 0.0
H1749 H 0.61499 0.02802 0.74308 0.0
H1750 H 0.59246 0.95714 0.76501 0.0
H1751 H 0.5773 0.01244 0.74707 0.0
H1752 H 0.66678 0.04323 0.6858 0.0
H1753 H 0.72047 0.03497 0.7261 0.0
H1754 H 0.69164 0.06095 0.66265 0.0
H1755 H 0.74441 0.0529 0.70232 0.0
H1756 H 0.60852 0.05361 0.67347 0.0
H1757 H 0.59221 0.98516 0.66949 0.0
H1758 H 0.71407 0.97951 0.7949 0.0
H1759 H 0.72205 0.9691 0.72824 0.0
Li1760 Li 0.78737 0.70776 0.0431 0.0
Li1761 Li 0.80155 0.67896 0.0236 0.0
Li1762 Li 0.78582 0.70498 0.00289 0.0
Li1763 Li 0.76397 0.6783 0.02008 0.0
C1764 C 0.83085 0.72397 0.03406 0.0
N1765 N 0.87007 0.75035 0.05188 0.0
C1766 C 0.84388 0.71735 0.04926 0.0
C1767 C 0.83792 0.74387 0.02766 0.0
C1768 C 0.86361 0.73096 0.05817 0.0
C1769 C 0.85775 0.75702 0.03693 0.0
C1770 C 0.76972 0.66424 0.05662 0.0
C1771 C 0.75546 0.62941 0.06572 0.0
N1772 N 0.74154 0.63713 0.07673 0.0
C1773 C 0.75534 0.67186 0.0681 0.0
C1774 C 0.76985 0.64287 0.05545 0.0
C1775 C 0.74119 0.65789 0.07812 0.0
C1776 C 0.77686 0.73535 0.07759 0.0
N1777 N 0.79111 0.72452 0.07137 0.0
C1778 C 0.80914 0.73107 0.10725 0.0
C1779 C 0.80696 0.7222 0.08584 0.0
C1780 C 0.7947 0.74232 0.11423 0.0
C1781 C 0.77843 0.74448 0.09894 0.0
H1782 H 0.76376 0.73633 0.06622 0.0
H1783 H 0.81745 0.71265 0.08096 0.0
C1784 C 0.83356 0.66076 0.00819 0.0
N1785 N 0.82301 0.66348 0.02516 0.0
C1786 C 0.84938 0.64965 0.00918 0.0
C1787 C 0.84311 0.64423 0.04504 0.0
C1788 C 0.8275 0.65553 0.04339 0.0
C1789 C 0.85436 0.64118 0.0278 0.0
H1790 H 0.82967 0.66724 0.99387 0.0
H1791 H 0.81908 0.65814 0.05676 0.0
C1792 C 0.7614 0.72896 0.02125 0.0
N1793 N 0.75809 0.77015 0.02095 0.0
C1794 C 0.74165 0.73289 0.01522 0.0
C1795 C 0.77947 0.746 0.02705 0.0
C1796 C 0.74031 0.75382 0.01519 0.0
C1797 C 0.77747 0.7667 0.02684 0.0
C1798 C 0.76834 0.65733 0.98276 0.0
C1799 C 0.75078 0.66061 0.97036 0.0
C1800 C 0.77245 0.63731 0.98064 0.0
C1801 C 0.73741 0.64366 0.95616 0.0
C1802 C 0.75872 0.62078 0.96623 0.0
N1803 N 0.74163 0.62427 0.95441 0.0
C1804 C 0.80578 0.72289 0.96814 0.0
C1805 C 0.76889 0.7205 0.96667 0.0
C1806 C 0.80585 0.72946 0.94789 0.0
N1807 N 0.78739 0.71828 0.977 0.0
C1808 C 0.76824 0.72693 0.94645 0.0
C1809 C 0.78677 0.7311 0.93647 0.0
H1810 H 0.82026 0.72071 0.97643 0.0
H1811 H 0.75439 0.71652 0.97379 0.0
C1812 C 0.7195 0.66827 0.02019 0.0
N1813 N 0.73584 0.65917 0.01749 0.0
C1814 C 0.69873 0.65571 0.01926 0.0
C1815 C 0.71186 0.62447 0.01294 0.0
C1816 C 0.73242 0.63768 0.01405 0.0
C1817 C 0.69461 0.63345 0.01552 0.0
H1818 H 0.72263 0.68535 0.02339 0.0
H1819 H 0.74567 0.63072 0.01237 0.0
O1820 O 0.81158 0.71079 0.02496 0.0
O1821 O 0.78331 0.67757 0.04627 0.0
O1822 O 0.76297 0.70849 0.02095 0.0
O1823 O 0.78151 0.67364 0.99685 0.0
H1824 H 0.83877 0.70191 0.0542 0.0
H1825 H 0.82819 0.7491 0.01562 0.0
H1826 H 0.87379 0.72609 0.07005 0.0
H1827 H 0.86338 0.7725 0.0322 0.0
H1828 H 0.75528 0.61281 0.06485 0.0
H1829 H 0.75493 0.68832 0.069 0.0
H1830 H 0.78071 0.63667 0.04642 0.0
H1831 H 0.72988 0.66353 0.08695 0.0
H1832 H 0.82161 0.7284 0.11839 0.0
H1833 H 0.7669 0.75299 0.10342 0.0
H1834 H 0.85747 0.64753 0.99543 0.0
H1835 H 0.8466 0.63828 0.0598 0.0
H1836 H 0.72752 0.7199 0.01047 0.0
H1837 H 0.7948 0.74333 0.03192 0.0
H1838 H 0.72512 0.75707 0.01053 0.0
H1839 H 0.79133 0.78002 0.03138 0.0
H1840 H 0.74736 0.676 0.9719 0.0
H1841 H 0.78602 0.63456 0.99014 0.0
H1842 H 0.72367 0.64592 0.94656 0.0
H1843 H 0.76164 0.60517 0.96447 0.0
H1844 H 0.8205 0.7323 0.94087 0.0
H1845 H 0.75319 0.72824 0.93854 0.0
H1846 H 0.68609 0.6634 0.02182 0.0
H1847 H 0.70949 0.60743 0.00993 0.0
Li1848 Li 0.88209 0.52441 0.80478 0.0
Li1849 Li 0.91234 0.55051 0.82282 0.0
Li1850 Li 0.87935 0.5598 0.81272 0.0
Li1851 Li 0.90112 0.55077 0.78591 0.0
C1852 C 0.88683 0.5292 0.84953 0.0
N1853 N 0.89208 0.50619 0.88249 0.0
C1854 C 0.8962 0.51222 0.84676 0.0
C1855 C 0.88012 0.53447 0.86906 0.0
C1856 C 0.89872 0.50079 0.86362 0.0
C1857 C 0.88291 0.52265 0.88553 0.0
C1858 C 0.93128 0.52899 0.79321 0.0
C1859 C 0.96679 0.54844 0.78934 0.0
N1860 N 0.97079 0.53008 0.78075 0.0
C1861 C 0.93576 0.51032 0.78437 0.0
C1862 C 0.94692 0.54822 0.79572 0.0
C1863 C 0.95583 0.5112 0.77817 0.0
C1864 C 0.87124 0.48262 0.78518 0.0
N1865 N 0.86677 0.49567 0.80116 0.0
C1866 C 0.8403 0.46723 0.81014 0.0
C1867 C 0.85162 0.48853 0.81356 0.0
C1868 C 0.84467 0.4533 0.7938 0.0
C1869 C 0.86036 0.46124 0.78122 0.0
H1870 H 0.88325 0.48892 0.7755 0.0
H1871 H 0.84821 0.49942 0.82595 0.0
C1872 C 0.9426 0.57374 0.85754 0.0
N1873 N 0.93616 0.55513 0.84402 0.0
C1874 C 0.95913 0.57653 0.87426 0.0
C1875 C 0.96243 0.54129 0.86222 0.0
C1876 C 0.94582 0.53913 0.84591 0.0
C1877 C 0.96901 0.56001 0.87688 0.0
H1878 H 0.93452 0.58613 0.85566 0.0
H1879 H 0.94021 0.52437 0.83515 0.0
C1880 C 0.85037 0.52792 0.77757 0.0
N1881 N 0.81097 0.50017 0.76301 0.0
C1882 C 0.84617 0.51691 0.75684 0.0
C1883 C 0.83448 0.52492 0.79084 0.0
C1884 C 0.82616 0.50292 0.7498 0.0
C1885 C 0.81468 0.5108 0.78319 0.0
C1886 C 0.90824 0.59412 0.80194 0.0
C1887 C 0.89412 0.59396 0.7838 0.0
C1888 C 0.92136 0.61341 0.81258 0.0
C1889 C 0.89337 0.61313 0.77661 0.0
C1890 C 0.92015 0.63225 0.80489 0.0
N1891 N 0.90629 0.63172 0.78721 0.0
C1892 C 0.8602 0.58517 0.83988 0.0
C1893 C 0.84683 0.57865 0.803 0.0
C1894 C 0.84534 0.59678 0.8441 0.0
N1895 N 0.86058 0.57645 0.81957 0.0
C1896 C 0.83167 0.58981 0.8065 0.0
C1897 C 0.83073 0.59897 0.82724 0.0
H1898 H 0.87138 0.58308 0.85272 0.0
H1899 H 0.8476 0.57167 0.78702 0.0
C1900 C 0.90663 0.53579 0.74585 0.0
N1901 N 0.91172 0.55407 0.7598 0.0
C1902 C 0.91764 0.53402 0.7285 0.0
C1903 C 0.93829 0.57034 0.73961 0.0
C1904 C 0.92693 0.57137 0.75689 0.0
C1905 C 0.93414 0.55122 0.72565 0.0
H1906 H 0.89519 0.52204 0.74918 0.0
H1907 H 0.93142 0.58537 0.76876 0.0
O1908 O 0.88433 0.54084 0.83339 0.0
O1909 O 0.91138 0.52841 0.79855 0.0
O1910 O 0.87003 0.54134 0.78496 0.0
O1911 O 0.90914 0.57564 0.80956 0.0
H1912 H 0.90153 0.50789 0.8318 0.0
H1913 H 0.87285 0.5476 0.87147 0.0
H1914 H 0.90597 0.48763 0.86169 0.0
H1915 H 0.8778 0.52657 0.90074 0.0
H1916 H 0.979 0.56322 0.79112 0.0
H1917 H 0.9238 0.49532 0.78219 0.0
H1918 H 0.94372 0.56288 0.80233 0.0
H1919 H 0.95948 0.49688 0.77125 0.0
H1920 H 0.82814 0.46178 0.81999 0.0
H1921 H 0.86439 0.45098 0.76863 0.0
H1922 H 0.96379 0.5912 0.8853 0.0
H1923 H 0.9693 0.528 0.86395 0.0
H1924 H 0.85819 0.51913 0.74629 0.0
H1925 H 0.83754 0.5331 0.80702 0.0
H1926 H 0.82271 0.49424 0.73382 0.0
H1927 H 0.8023 0.50821 0.79335 0.0
H1928 H 0.88392 0.57921 0.77525 0.0
H1929 H 0.93234 0.61381 0.82668 0.0
H1930 H 0.88253 0.61322 0.76259 0.0
H1931 H 0.93021 0.64729 0.81297 0.0
H1932 H 0.84517 0.60384 0.86027 0.0
H1933 H 0.82107 0.59165 0.79298 0.0
H1934 H 0.91402 0.51903 0.71803 0.0
H1935 H 0.95116 0.5838 0.73806 0.0
Li1936 Li 0.7807 0.39808 0.51888 0.0
Li1937 Li 0.77208 0.43207 0.50932 0.0
Li1938 Li 0.77153 0.40285 0.48299 0.0
Li1939 Li 0.80515 0.42335 0.50072 0.0
C1940 C 0.73408 0.38806 0.5022 0.0
N1941 N 0.69489 0.35867 0.49482 0.0
C1942 C 0.71569 0.39414 0.4953 0.0
C1943 C 0.7325 0.3671 0.50568 0.0
C1944 C 0.69604 0.37901 0.49155 0.0
C1945 C 0.71255 0.35246 0.50178 0.0
C1946 C 0.81303 0.4416 0.54163 0.0
C1947 C 0.83668 0.47659 0.55189 0.0
N1948 N 0.84919 0.46859 0.56545 0.0
C1949 C 0.82603 0.43373 0.55572 0.0
C1950 C 0.81829 0.4632 0.53973 0.0
C1951 C 0.84428 0.44764 0.56761 0.0
C1952 C 0.79247 0.36567 0.53705 0.0
N1953 N 0.78095 0.38025 0.53955 0.0
C1954 C 0.77377 0.3712 0.57361 0.0
C1955 C 0.7714 0.38309 0.55716 0.0
C1956 C 0.78606 0.35638 0.57169 0.0
C1957 C 0.79513 0.35336 0.55298 0.0
H1958 H 0.8002 0.36411 0.52299 0.0
H1959 H 0.76251 0.39501 0.55865 0.0
C1960 C 0.75953 0.47063 0.50911 0.0
N1961 N 0.76116 0.45446 0.52017 0.0
C1962 C 0.75143 0.48697 0.51787 0.0
C1963 C 0.74805 0.47031 0.54972 0.0
C1964 C 0.7559 0.45411 0.54018 0.0
C1965 C 0.74539 0.48687 0.5384 0.0
H1966 H 0.76441 0.47085 0.49347 0.0
H1967 H 0.75786 0.44123 0.54872 0.0
C1968 C 0.7978 0.37717 0.47951 0.0
N1969 N 0.80075 0.34657 0.44723 0.0
C1970 C 0.8133 0.38186 0.466 0.0
C1971 C 0.78401 0.35683 0.47682 0.0
C1972 C 0.8145 0.36618 0.44974 0.0
C1973 C 0.78568 0.34161 0.46032 0.0
C1974 C 0.77499 0.43989 0.4653 0.0
C1975 C 0.78704 0.4497 0.45065 0.0
C1976 C 0.75277 0.43572 0.46181 0.0
C1977 C 0.77662 0.45522 0.43272 0.0
C1978 C 0.74295 0.44149 0.44369 0.0
N1979 N 0.75498 0.45104 0.42963 0.0
C1980 C 0.74222 0.37026 0.45125 0.0
C1981 C 0.77217 0.39284 0.44039 0.0
C1982 C 0.73809 0.35712 0.43161 0.0
N1983 N 0.75941 0.38742 0.45542 0.0
C1984 C 0.76857 0.38035 0.42063 0.0
C1985 C 0.75171 0.36191 0.41625 0.0
H1986 H 0.73244 0.36588 0.46338 0.0
H1987 H 0.78626 0.40592 0.44433 0.0
C1988 C 0.84743 0.42452 0.51086 0.0
N1989 N 0.83441 0.43483 0.50096 0.0
C1990 C 0.86938 0.4332 0.5143 0.0
C1991 C 0.86412 0.46252 0.4964 0.0
C1992 C 0.84218 0.45337 0.49357 0.0
C1993 C 0.87802 0.45257 0.50723 0.0
H1994 H 0.84062 0.40993 0.51681 0.0
H1995 H 0.83131 0.46131 0.48602 0.0
O1996 O 0.75336 0.40276 0.50636 0.0
O1997 O 0.7955 0.42814 0.52936 0.0
O1998 O 0.79608 0.39246 0.49522 0.0
O1999 O 0.78486 0.43372 0.48259 0.0
H2000 H 0.71656 0.41039 0.49295 0.0
H2001 H 0.7465 0.36211 0.51112 0.0
H2002 H 0.68169 0.38347 0.48611 0.0
H2003 H 0.71111 0.33616 0.50426 0.0
H2004 H 0.84105 0.49332 0.5505 0.0
H2005 H 0.82217 0.41701 0.55727 0.0
H2006 H 0.80842 0.46948 0.52878 0.0
H2007 H 0.85457 0.44177 0.5785 0.0
H2008 H 0.76649 0.37386 0.58783 0.0
H2009 H 0.80499 0.34233 0.55111 0.0
H2010 H 0.74944 0.49924 0.50842 0.0
H2011 H 0.74402 0.46978 0.56572 0.0
H2012 H 0.82409 0.39753 0.46788 0.0
H2013 H 0.77194 0.35295 0.48715 0.0
H2014 H 0.82629 0.36963 0.43905 0.0
H2015 H 0.77495 0.32589 0.45788 0.0
H2016 H 0.80424 0.45281 0.453 0.0
H2017 H 0.74326 0.42801 0.47293 0.0
H2018 H 0.78573 0.46277 0.42121 0.0
H2019 H 0.72577 0.43833 0.44077 0.0
H2020 H 0.72494 0.34299 0.42878 0.0
H2021 H 0.77983 0.38434 0.40949 0.0
H2022 H 0.87936 0.42516 0.52308 0.0
H2023 H 0.87007 0.47731 0.49042 0.0
Li2024 Li 0.62359 0.54544 0.30965 0.0
Li2025 Li 0.65264 0.56783 0.29414 0.0
Li2026 Li 0.61982 0.5452 0.26934 0.0
Li2027 Li 0.64642 0.52929 0.28769 0.0
C2028 C 0.61516 0.5849 0.3034 0.0
N2029 N 0.60044 0.61604 0.32533 0.0
C2030 C 0.62583 0.59533 0.32331 0.0
C2031 C 0.59695 0.59024 0.29465 0.0
C2032 C 0.61816 0.61104 0.33415 0.0
C2033 C 0.58977 0.60606 0.30598 0.0
C2034 C 0.67149 0.55925 0.33051 0.0
C2035 C 0.70932 0.57286 0.34183 0.0
N2036 N 0.70529 0.5819 0.36071 0.0
C2037 C 0.66774 0.56862 0.35008 0.0
C2038 C 0.69246 0.5613 0.3264 0.0
C2039 C 0.68503 0.58001 0.36512 0.0
C2040 C 0.61742 0.53176 0.34991 0.0
N2041 N 0.60947 0.5426 0.33541 0.0
C2042 C 0.58467 0.54999 0.35871 0.0
C2043 C 0.59316 0.55143 0.3394 0.0
C2044 C 0.59288 0.53927 0.37424 0.0
C2045 C 0.60946 0.53 0.36944 0.0
H2046 H 0.63028 0.52471 0.34646 0.0
H2047 H 0.58682 0.55982 0.32771 0.0
C2048 C 0.67986 0.59946 0.27698 0.0
N2049 N 0.67364 0.5947 0.29593 0.0
C2050 C 0.69495 0.61834 0.27597 0.0
C2051 C 0.69668 0.62766 0.31395 0.0
C2052 C 0.68165 0.60845 0.31427 0.0
C2053 C 0.70359 0.63277 0.2946 0.0
H2054 H 0.67297 0.58864 0.26251 0.0
H2055 H 0.67642 0.60466 0.32916 0.0
C2056 C 0.5929 0.51182 0.28452 0.0
N2057 N 0.54955 0.49481 0.28256 0.0
C2058 C 0.58487 0.49015 0.28505 0.0
C2059 C 0.5789 0.52485 0.28298 0.0
C2060 C 0.5629 0.48185 0.28403 0.0
C2061 C 0.55703 0.51595 0.28201 0.0
C2062 C 0.66371 0.54251 0.25395 0.0
C2063 C 0.65534 0.53 0.23426 0.0
C2064 C 0.68568 0.54772 0.2606 0.0
C2065 C 0.66906 0.5226 0.22169 0.0
C2066 C 0.69887 0.54001 0.24759 0.0
N2067 N 0.69036 0.52769 0.22857 0.0
C2068 C 0.60261 0.56439 0.23623 0.0
C2069 C 0.59579 0.52714 0.22759 0.0
C2070 C 0.59464 0.56607 0.21537 0.0
N2071 N 0.60336 0.54519 0.24191 0.0
C2072 C 0.58794 0.52813 0.20643 0.0
C2073 C 0.58768 0.54788 0.1998 0.0
H2074 H 0.60902 0.57859 0.2477 0.0
H2075 H 0.59693 0.51207 0.23227 0.0
C2076 C 0.67582 0.50493 0.29889 0.0
N2077 N 0.65998 0.50632 0.28388 0.0
C2078 C 0.68638 0.48885 0.29583 0.0
C2079 C 0.66389 0.47561 0.2621 0.0
C2080 C 0.65368 0.49186 0.26589 0.0
C2081 C 0.6806 0.47395 0.27713 0.0
H2082 H 0.68025 0.51626 0.31331 0.0
H2083 H 0.64084 0.49311 0.25431 0.0
O2084 O 0.62223 0.56926 0.29267 0.0
O2085 O 0.65476 0.548 0.31556 0.0
O2086 O 0.61439 0.52016 0.28568 0.0
O2087 O 0.65049 0.54958 0.26668 0.0
H2088 H 0.6397 0.59112 0.33043 0.0
H2089 H 0.58839 0.58219 0.27932 0.0
H2090 H 0.62624 0.6192 0.34962 0.0
H2091 H 0.5757 0.61035 0.2994 0.0
H2092 H 0.72562 0.57462 0.3388 0.0
H2093 H 0.65168 0.56732 0.3536 0.0
H2094 H 0.69572 0.55406 0.31146 0.0
H2095 H 0.68234 0.58742 0.38027 0.0
H2096 H 0.57202 0.55757 0.36157 0.0
H2097 H 0.61614 0.52125 0.38057 0.0
H2098 H 0.69946 0.6218 0.26063 0.0
H2099 H 0.70295 0.63833 0.32871 0.0
H2100 H 0.59553 0.47987 0.28626 0.0
H2101 H 0.58479 0.54164 0.28252 0.0
H2102 H 0.55645 0.4651 0.28444 0.0
H2103 H 0.54601 0.52585 0.28084 0.0
H2104 H 0.63841 0.52582 0.22882 0.0
H2105 H 0.69247 0.55766 0.27562 0.0
H2106 H 0.66276 0.51276 0.20648 0.0
H2107 H 0.71589 0.54385 0.2526 0.0
H2108 H 0.59441 0.58164 0.21143 0.0
H2109 H 0.58311 0.51361 0.1952 0.0
H2110 H 0.69879 0.48799 0.30812 0.0
H2111 H 0.65893 0.46468 0.24736 0.0
Dy2112 Dy 0.05444 0.0483 0.03886 0.0
Dy2113 Dy 1.00794 0.02175 0.01513 0.0
C2114 C 0.04773 0.02903 0.98915 0.0
O2115 O 0.03665 0.07374 0.03416 0.0
O2116 O 0.01084 0.05491 0.00722 0.0
O2117 O 0.07969 0.07721 0.04365 0.0
O2118 O 0.08239 0.05198 0.06186 0.0
O2119 O 1.00142 0.03589 0.04694 0.0
O2120 O 0.0349 0.04219 0.06541 0.0
O2121 O 0.02046 0.99783 0.0314 0.0
O2122 O 0.05627 0.01364 0.03711 0.0
O2123 O 0.97851 0.99786 0.0142 0.0
O2124 O 0.98469 0.01374 0.98674 0.0
C2125 C 0.0218 0.07324 0.01821 0.0
O2126 O 0.05791 0.04485 0.00399 0.0
O2127 O 0.03068 0.01521 0.99273 0.0
C2128 C 0.11371 0.07116 0.05102 0.0
C2129 C 0.15271 0.0658 0.03955 0.0
C2130 C 0.13751 0.06987 0.02439 0.0
C2131 C 0.11809 0.07235 0.03002 0.0
C2132 C 0.1295 0.06884 0.06654 0.0
C2133 C 0.14884 0.06612 0.06087 0.0
C2134 C 0.09218 0.06996 0.05644 0.0
C2135 C 0.01427 0.03956 0.06511 0.0
C2136 C 0.04016 0.99675 0.03665 0.0
C2137 C 0.94947 0.00494 0.99396 0.0
C2138 C 0.91018 0.01551 0.98979 0.0
C2139 C 0.92407 0.02163 0.00911 0.0
C2140 C 0.94357 0.01648 0.01115 0.0
C2141 C 0.93552 0.99838 0.97477 0.0
C2142 C 0.91598 0.00372 0.97264 0.0
C2143 C 0.97068 1.001 0.99554 0.0
H2144 H 0.14017 0.07004 0.00792 0.0
H2145 H 0.10616 0.07417 0.01771 0.0
H2146 H 0.1264 0.06788 0.08281 0.0
H2147 H 0.16006 0.06277 0.07291 0.0
H2148 H 0.92027 0.03118 0.02243 0.0
H2149 H 0.95426 0.02199 0.026 0.0
H2150 H 0.93996 0.98959 0.96131 0.0
H2151 H 0.90557 0.99891 0.95758 0.0
Dy2152 Dy 0.30488 0.78543 0.25644 0.0
Dy2153 Dy 0.27671 0.79454 0.29397 0.0
C2154 C 0.30745 0.83212 0.27749 0.0
O2155 O 0.32084 0.77539 0.28504 0.0
O2156 O 0.30936 0.79584 0.31061 0.0
O2157 O 0.33489 0.79061 0.2438 0.0
O2158 O 0.30638 0.76974 0.22521 0.0
O2159 O 0.27513 0.75999 0.29166 0.0
O2160 O 0.28111 0.755 0.25698 0.0
O2161 O 0.25414 0.78833 0.26354 0.0
O2162 O 0.27894 0.79876 0.2415 0.0
O2163 O 0.25052 0.7856 0.31209 0.0
O2164 O 0.2714 0.8174 0.31838 0.0
C2165 C 0.32255 0.7845 0.30488 0.0
O2166 O 0.3186 0.81905 0.27125 0.0
O2167 O 0.28803 0.82502 0.28163 0.0
C2168 C 0.32786 0.7938 0.20771 0.0
C2169 C 0.32156 0.81556 0.17325 0.0
C2170 C 0.32104 0.82483 0.19404 0.0
C2171 C 0.32414 0.81404 0.21113 0.0
C2172 C 0.32962 0.78497 0.18712 0.0
C2173 C 0.32663 0.79591 0.16991 0.0
C2174 C 0.32578 0.78083 0.22493 0.0
C2175 C 0.27416 0.7475 0.27379 0.0
C2176 C 0.25903 0.79466 0.24545 0.0
C2177 C 0.25886 0.80247 0.34753 0.0
C2178 C 0.26384 0.79825 0.39093 0.0
C2179 C 0.28105 0.79924 0.37925 0.0
C2180 C 0.27854 0.80124 0.3577 0.0
C2181 C 0.2418 0.80214 0.35919 0.0
C2182 C 0.24424 0.79998 0.3808 0.0
C2183 C 0.25614 0.80371 0.32471 0.0
H2184 H 0.31736 0.84006 0.19697 0.0
H2185 H 0.3224 0.821 0.22688 0.0
H2186 H 0.33213 0.76922 0.18421 0.0
H2187 H 0.32703 0.7885 0.15393 0.0
H2188 H 0.29618 0.79748 0.3865 0.0
H2189 H 0.29185 0.80139 0.34887 0.0
H2190 H 0.22652 0.80313 0.35151 0.0
H2191 H 0.23074 0.79922 0.38948 0.0
Dy2192 Dy 0.50511 0.03414 0.5259 0.0
Dy2193 Dy 0.56401 0.03857 0.52337 0.0
C2194 C 0.53745 0.04549 0.48913 0.0
O2195 O 0.51004 1.00065 0.51879 0.0
O2196 O 0.54575 0.00403 0.51183 0.0
O2197 O 0.48105 0.03517 0.5002 0.0
O2198 O 0.47245 0.02982 0.53151 0.0
O2199 O 0.53875 0.03523 0.54337 0.0
O2200 O 0.51234 0.03092 0.56065 0.0
O2201 O 0.55993 0.0716 0.53513 0.0
O2202 O 0.52296 0.06904 0.53552 0.0
O2203 O 0.58598 0.03048 0.5467 0.0
O2204 O 0.59766 0.04654 0.52063 0.0
C2205 C 0.52601 0.99251 0.51304 0.0
O2206 O 0.52981 0.03684 0.50492 0.0
O2207 O 0.55765 0.04645 0.49016 0.0
C2208 C 0.45397 0.05002 0.51215 0.0
C2209 C 0.42898 0.0798 0.51283 0.0
C2210 C 0.4219 0.06011 0.49945 0.0
C2211 C 0.43425 0.04537 0.49917 0.0
C2212 C 0.46146 0.06984 0.52507 0.0
C2213 C 0.44907 0.08456 0.52545 0.0
C2214 C 0.46622 0.03388 0.51261 0.0
C2215 C 0.53268 0.03288 0.56178 0.0
C2216 C 0.54344 0.08004 0.53809 0.0
C2217 C 0.6169 0.02288 0.53398 0.0
C2218 C 0.6472 0.99841 0.53121 0.0
C2219 C 0.63135 0.99399 0.54459 0.0
C2220 C 0.61644 0.00611 0.54602 0.0
C2221 C 0.6325 0.02704 0.52032 0.0
C2222 C 0.64738 0.01493 0.51889 0.0
C2223 C 0.60235 0.03699 0.53675 0.0
H2224 H 0.40678 0.05603 0.48915 0.0
H2225 H 0.42829 0.03023 0.48897 0.0
H2226 H 0.47671 0.07377 0.53515 0.0
H2227 H 0.45502 0.09943 0.53608 0.0
H2228 H 0.63088 0.9816 0.55453 0.0
H2229 H 0.60484 1.00261 0.55693 0.0
H2230 H 0.63345 0.03994 0.51096 0.0
H2231 H 0.65918 0.01863 0.50821 0.0
Dy2232 Dy 0.30965 0.28389 0.77967 0.0
Dy2233 Dy 0.26231 0.29522 0.77822 0.0
C2234 C 0.30511 0.32955 0.77269 0.0
O2235 O 0.30787 0.30037 0.81232 0.0
O2236 O 0.2717 0.2908 0.8118 0.0
O2237 O 0.34369 0.29386 0.78978 0.0
O2238 O 0.32935 0.26252 0.77218 0.0
O2239 O 0.25569 0.26 0.77537 0.0
O2240 O 0.28785 0.25609 0.7904 0.0
O2241 O 0.26792 0.29217 0.74383 0.0
O2242 O 0.29455 0.27445 0.74558 0.0
O2243 O 0.22804 0.28764 0.76867 0.0
O2244 O 0.24421 0.31695 0.78907 0.0
C2245 C 0.29097 0.29806 0.82236 0.0
O2246 O 0.31317 0.314 0.76581 0.0
O2247 O 0.28768 0.32595 0.78182 0.0
C2248 C 0.36484 0.27909 0.76743 0.0
C2249 C 0.4001 0.28477 0.74419 0.0
C2250 C 0.38224 0.29229 0.73783 0.0
C2251 C 0.36479 0.28951 0.74936 0.0
C2252 C 0.3824 0.2713 0.7736 0.0
C2253 C 0.39979 0.27407 0.76214 0.0
C2254 C 0.34708 0.2765 0.78035 0.0
C2255 C 0.26722 0.24858 0.7842 0.0
C2256 C 0.28008 0.28143 0.73458 0.0
C2257 C 0.20923 0.30044 0.79505 0.0
C2258 C 0.17748 0.2955 0.82264 0.0
C2259 C 0.19858 0.29535 0.83 0.0
C2260 C 0.21425 0.29774 0.81636 0.0
C2261 C 0.18817 0.30022 0.78753 0.0
C2262 C 0.17246 0.29774 0.80113 0.0
C2263 C 0.22585 0.30418 0.78075 0.0
H2264 H 0.38194 0.30074 0.72422 0.0
H2265 H 0.35138 0.29567 0.74433 0.0
H2266 H 0.38273 0.26313 0.78742 0.0
H2267 H 0.413 0.2677 0.76734 0.0
H2268 H 0.20301 0.29337 0.84635 0.0
H2269 H 0.23035 0.29771 0.82253 0.0
H2270 H 0.18392 0.30231 0.77117 0.0
H2271 H 0.15649 0.29815 0.79492 0.0
Dy2272 Dy 0.04193 0.01672 0.52795 0.0
Dy2273 Dy 0.03048 0.06413 0.53373 0.0
C2274 C 0.99653 0.02207 0.5409 0.0
O2275 O 0.03677 0.02497 0.49437 0.0
O2276 O 0.01533 0.04719 0.50149 0.0
O2277 O 0.03379 0.98324 0.51498 0.0
O2278 O 0.06316 0.99727 0.53617 0.0
O2279 O 0.05941 0.06741 0.51738 0.0
O2280 O 0.0728 0.04153 0.53038 0.0
O2281 O 0.04635 0.06134 0.56602 0.0
O2282 O 0.04165 0.02514 0.56303 0.0
O2283 O 0.04165 0.09814 0.54331 0.0
O2284 O 1.00934 0.08435 0.5279 0.0
C2285 C 0.02337 0.03591 0.48778 0.0
O2286 O 1.00733 0.01037 0.53098 0.0
O2287 O 1.00365 0.0428 0.54617 0.0
C2288 C 0.04617 0.96136 0.53811 0.0
C2289 C 0.03984 0.92608 0.56106 0.0
C2290 C 0.0352 0.94515 0.56915 0.0
C2291 C 0.03829 0.96257 0.55778 0.0
C2292 C 0.05082 0.94245 0.53001 0.0
C2293 C 0.04771 0.92506 0.5413 0.0
C2294 C 0.05022 0.97972 0.5261 0.0
C2295 C 0.07553 0.05942 0.52237 0.0
C2296 C 0.04655 0.04402 0.57463 0.0
C2297 C 0.02694 0.11812 0.52001 0.0
C2298 C 0.03299 0.14987 0.49278 0.0
C2299 C 0.02825 0.15432 0.51362 0.0
C2300 C 0.02527 0.13863 0.52704 0.0
C2301 C 0.03158 0.1135 0.49925 0.0
C2302 C 0.03454 0.12916 0.48579 0.0
C2303 C 0.0242 0.10185 0.53452 0.0
H2304 H 0.02891 0.94654 0.58415 0.0
H2305 H 0.03457 0.97701 0.56438 0.0
H2306 H 0.05705 0.94117 0.51496 0.0
H2307 H 0.05183 0.91088 0.53464 0.0
H2308 H 0.02723 0.17008 0.51975 0.0
H2309 H 0.02182 0.14259 0.54303 0.0
H2310 H 0.03297 0.09776 0.49347 0.0
H2311 H 0.03788 0.12497 0.46982 0.0
Dy2312 Dy 0.29144 0.81137 0.77461 0.0
Dy2313 Dy 0.28671 0.76254 0.78666 0.0
C2314 C 0.27801 0.79916 0.81937 0.0
O2315 O 0.32366 0.81153 0.79177 0.0
O2316 O 0.32173 0.77598 0.78537 0.0
O2317 O 0.30261 0.84528 0.78388 0.0
O2318 O 0.28531 0.83253 0.75234 0.0
O2319 O 0.28385 0.76075 0.75151 0.0
O2320 O 0.30364 0.79395 0.74856 0.0
O2321 O 0.25266 0.7653 0.78217 0.0
O2322 O 0.25695 0.79397 0.76367 0.0
O2323 O 0.27466 0.72847 0.77867 0.0
O2324 O 0.29613 0.74185 0.80782 0.0
C2325 C 0.333 0.79576 0.79118 0.0
O2326 O 0.27577 0.81017 0.80379 0.0
O2327 O 0.28559 0.78237 0.81714 0.0
C2328 C 0.27873 0.86387 0.76948 0.0
C2329 C 0.25145 0.89131 0.77454 0.0
C2330 C 0.25536 0.87892 0.79041 0.0
C2331 C 0.26874 0.86531 0.78787 0.0
C2332 C 0.27492 0.87617 0.7536 0.0
C2333 C 0.26141 0.8897 0.75607 0.0
C2334 C 0.29283 0.84943 0.76656 0.0
C2335 C 0.29527 0.77394 0.74069 0.0
C2336 C 0.2446 0.77781 0.77067 0.0
C2337 C 0.29933 0.7094 0.79016 0.0
C2338 C 0.32474 0.68065 0.78241 0.0
C2339 C 0.32276 0.69541 0.76842 0.0
C2340 C 0.31026 0.70971 0.77231 0.0
C2341 C 0.30124 0.69471 0.80411 0.0
C2342 C 0.31382 0.68051 0.80032 0.0
C2343 C 0.28643 0.72461 0.79481 0.0
H2344 H 0.24827 0.87988 0.80499 0.0
H2345 H 0.2713 0.85594 0.80034 0.0
H2346 H 0.28231 0.87521 0.73921 0.0
H2347 H 0.25855 0.89867 0.74332 0.0
H2348 H 0.33113 0.69612 0.75462 0.0
H2349 H 0.30923 0.72109 0.76144 0.0
H2350 H 0.29301 0.69426 0.81802 0.0
H2351 H 0.31478 0.66923 0.81128 0.0
Dy2352 Dy 0.52963 0.0465 0.00937 0.0
Dy2353 Dy 0.53629 0.02363 0.05158 0.0
C2354 C 0.53748 1.00024 0.00476 0.0
O2355 O 0.49813 0.02528 0.01188 0.0
O2356 O 0.50173 0.02264 0.04757 0.0
O2357 O 0.51483 0.04452 0.97711 0.0
O2358 O 0.53531 0.07434 0.99359 0.0
O2359 O 0.53607 0.05708 0.06455 0.0
O2360 O 0.51879 0.06597 0.03507 0.0
O2361 O 0.56814 0.03296 0.04076 0.0
O2362 O 0.56315 0.06079 0.0242 0.0
O2363 O 0.55462 0.02376 0.08185 0.0
O2364 O 0.52847 0.99661 0.06826 0.0
C2365 C 0.48987 0.02095 0.02921 0.0
O2366 O 0.54285 0.01895 0.99838 0.0
O2367 O 0.53021 0.99833 0.0231 0.0
C2368 C 0.53654 0.06588 0.95721 0.0
C2369 C 0.55704 0.06601 0.92073 0.0
C2370 C 0.56526 0.05876 0.9389 0.0
C2371 C 0.55507 0.0587 0.95702 0.0
C2372 C 0.52853 0.07363 0.9394 0.0
C2373 C 0.53875 0.07373 0.92123 0.0
C2374 C 0.52487 0.06389 0.97546 0.0
C2375 C 0.52597 0.0697 0.05557 0.0
C2376 C 0.57575 0.05074 0.0335 0.0
C2377 C 0.53423 0.00606 0.10556 0.0
C2378 C 0.5199 0.00921 0.1455 0.0
C2379 C 0.50621 0.00902 0.1269 0.0
C2380 C 0.51335 0.00759 0.10709 0.0
C2381 C 0.54787 0.00597 0.12404 0.0
C2382 C 0.54078 0.00762 0.14393 0.0
C2383 C 0.5423 0.00582 0.08497 0.0
H2384 H 0.57911 0.05241 0.93888 0.0
H2385 H 0.56131 0.05252 0.97068 0.0
H2386 H 0.51418 0.07918 0.9394 0.0
H2387 H 0.53221 0.07959 0.90751 0.0
H2388 H 0.49015 0.01058 0.12773 0.0
H2389 H 0.50267 0.00803 0.09303 0.0
H2390 H 0.56408 0.00496 0.12311 0.0
H2391 H 0.55159 0.00769 0.15807 0.0
Dy2392 Dy 0.2759 0.26988 0.26645 0.0
Dy2393 Dy 0.29851 0.31683 0.29064 0.0
C2394 C 0.29358 0.27786 0.31621 0.0
O2395 O 0.24888 0.28573 0.26914 0.0
O2396 O 0.26447 0.31055 0.29802 0.0
O2397 O 0.2497 0.24186 0.26273 0.0
O2398 O 0.2741 0.24347 0.24212 0.0
O2399 O 0.28391 0.32219 0.25874 0.0
O2400 O 0.28131 0.28956 0.24009 0.0
O2401 O 0.32421 0.30702 0.27406 0.0
O2402 O 0.31135 0.27094 0.27017 0.0
O2403 O 0.31556 0.34959 0.29115 0.0
O2404 O 0.30858 0.33767 0.32054 0.0
C2405 C 0.24717 0.29911 0.28556 0.0
O2406 O 0.2778 0.26742 0.30148 0.0
O2407 O 0.30728 0.29468 0.31219 0.0
C2408 C 0.26027 0.2107 0.253 0.0
C2409 C 0.27149 0.17335 0.26098 0.0
C2410 C 0.27127 0.1889 0.27797 0.0
C2411 C 0.26583 0.2075 0.27401 0.0
C2412 C 0.25936 0.19475 0.23607 0.0
C2413 C 0.26498 0.17618 0.24003 0.0
C2414 C 0.25771 0.23141 0.24853 0.0
C2415 C 0.2819 0.30974 0.24051 0.0
C2416 C 0.32708 0.28786 0.26966 0.0
C2417 C 0.30601 0.37216 0.31734 0.0
C2418 C 0.28722 0.40621 0.32382 0.0
C2419 C 0.27474 0.38518 0.32151 0.0
C2420 C 0.28405 0.36831 0.31822 0.0
C2421 C 0.31872 0.39307 0.32055 0.0
C2422 C 0.30938 0.41002 0.32378 0.0
C2423 C 0.31522 0.35442 0.31149 0.0
H2424 H 0.27655 0.18727 0.29424 0.0
H2425 H 0.26689 0.21975 0.2873 0.0
H2426 H 0.25519 0.19705 0.21977 0.0
H2427 H 0.26497 0.16436 0.22668 0.0
H2428 H 0.25759 0.3817 0.32107 0.0
H2429 H 0.27396 0.35226 0.31561 0.0
H2430 H 0.3357 0.39626 0.31987 0.0
H2431 H 0.31935 0.4261 0.3256 0.0
Dy2432 Dy 0.54769 0.51076 0.02795 0.0
Dy2433 Dy 0.53677 0.55802 0.0322 0.0
C2434 C 0.50077 0.51568 0.03446 0.0
O2435 O 0.54577 0.51853 0.99441 0.0
O2436 O 0.52613 0.54325 0.99801 0.0
O2437 O 0.54053 0.47722 0.01581 0.0
O2438 O 0.56905 0.49203 0.03806 0.0
O2439 O 0.56723 0.56178 0.01851 0.0
O2440 O 0.5788 0.53577 0.03321 0.0
O2441 O 0.55114 0.55442 0.06514 0.0
O2442 O 0.54189 0.51807 0.06153 0.0
O2443 O 0.54719 0.59175 0.04323 0.0
O2444 O 0.51583 0.57825 0.02524 0.0
C2445 C 0.53398 0.53011 0.98601 0.0
O2446 O 0.51223 0.50449 0.0249 0.0
O2447 O 0.50851 0.53599 0.04191 0.0
C2448 C 0.55301 0.45589 0.03968 0.0
C2449 C 0.54707 0.42042 0.0622 0.0
C2450 C 0.53109 0.4314 0.0595 0.0
C2451 C 0.53403 0.44897 0.04837 0.0
C2452 C 0.56902 0.44518 0.04258 0.0
C2453 C 0.56614 0.42773 0.05371 0.0
C2454 C 0.55676 0.47426 0.02775 0.0
C2455 C 0.58272 0.55352 0.02495 0.0
C2456 C 0.54817 0.53665 0.07359 0.0
C2457 C 0.53401 0.61286 0.01981 0.0
C2458 C 0.54099 0.64663 0.99501 0.0
C2459 C 0.55544 0.63384 0.99684 0.0
C2460 C 0.55195 0.61711 0.00902 0.0
C2461 C 0.51947 0.62541 0.01785 0.0
C2462 C 0.52287 0.64206 0.00557 0.0
C2463 C 0.53032 0.59564 0.03328 0.0
H2464 H 0.51614 0.4262 0.06565 0.0
H2465 H 0.52146 0.45707 0.04648 0.0
H2466 H 0.58387 0.45034 0.03621 0.0
H2467 H 0.57903 0.42008 0.0558 0.0
H2468 H 0.56941 0.63667 0.98873 0.0
H2469 H 0.56334 0.60757 0.01007 0.0
H2470 H 0.50551 0.62245 0.02599 0.0
H2471 H 0.51152 0.65165 0.00474 0.0
Dy2472 Dy 0.79024 0.31058 0.26444 0.0
Dy2473 Dy 0.78593 0.26504 0.28379 0.0
C2474 C 0.77914 0.30586 0.31083 0.0
O2475 O 0.82406 0.30713 0.26942 0.0
O2476 O 0.82011 0.28393 0.29407 0.0
O2477 O 0.80444 0.34433 0.2672 0.0
O2478 O 0.77946 0.32874 0.24127 0.0
O2479 O 0.80042 0.26175 0.25398 0.0
O2480 O 0.78897 0.28648 0.23648 0.0
O2481 O 0.75319 0.26295 0.26627 0.0
O2482 O 0.75524 0.29842 0.2668 0.0
O2483 O 0.77501 0.23088 0.27903 0.0
O2484 O 0.79266 0.24749 0.30938 0.0
C2485 C 0.83239 0.29752 0.28401 0.0
O2486 O 0.79203 0.31689 0.29948 0.0
O2487 O 0.77228 0.28515 0.30631 0.0
C2488 C 0.7794 0.36359 0.25628 0.0
C2489 C 0.7572 0.39528 0.26432 0.0
C2490 C 0.7727 0.39245 0.28002 0.0
C2491 C 0.78365 0.37679 0.27608 0.0
C2492 C 0.76396 0.36646 0.24057 0.0
C2493 C 0.75293 0.38203 0.24456 0.0
C2494 C 0.79084 0.34686 0.25181 0.0
C2495 C 0.7967 0.2698 0.23651 0.0
C2496 C 0.74387 0.27854 0.26414 0.0
C2497 C 0.79847 0.21413 0.297 0.0
C2498 C 0.82303 0.18388 0.29563 0.0
C2499 C 0.82314 0.19735 0.27992 0.0
C2500 C 0.81105 0.21235 0.28064 0.0
C2501 C 0.79863 0.20108 0.31292 0.0
C2502 C 0.8108 0.18618 0.31229 0.0
C2503 C 0.7848 0.22913 0.29741 0.0
H2504 H 0.77624 0.40222 0.29549 0.0
H2505 H 0.7954 0.37506 0.2886 0.0
H2506 H 0.76042 0.35664 0.22512 0.0
H2507 H 0.74129 0.38395 0.23202 0.0
H2508 H 0.83213 0.19597 0.26673 0.0
H2509 H 0.81127 0.22234 0.26822 0.0
H2510 H 0.78918 0.2023 0.32577 0.0
H2511 H 0.81061 0.17643 0.32492 0.0
Dy2512 Dy 0.03664 0.54985 0.51856 0.0
Dy2513 Dy 0.04393 0.52707 0.56011 0.0
C2514 C 0.04628 0.50319 0.51382 0.0
O2515 O 1.00548 0.54133 0.53085 0.0
O2516 O 0.01081 0.5121 0.54414 0.0
O2517 O 0.02045 0.54949 0.48707 0.0
O2518 O 0.04097 0.57875 0.50479 0.0
O2519 O 0.0315 0.55535 0.57067 0.0
O2520 O 0.04703 0.57508 0.54699 0.0
O2521 O 0.07627 0.54593 0.55591 0.0
O2522 O 0.07079 0.54984 0.52057 0.0
O2523 O 0.05821 0.52989 0.59276 0.0
O2524 O 0.03737 0.5 0.57698 0.0
C2525 C 0.99794 0.52274 0.53647 0.0
O2526 O 0.03685 0.51646 0.50506 0.0
O2527 O 0.05329 0.5063 0.53439 0.0
C2528 C 0.04047 0.57358 0.46781 0.0
C2529 C 0.06006 0.57933 0.43113 0.0
C2530 C 0.07226 0.57891 0.45049 0.0
C2531 C 0.06251 0.57591 0.46869 0.0
C2532 C 0.02834 0.57456 0.44867 0.0
C2533 C 0.03807 0.57735 0.43037 0.0
C2534 C 0.02996 0.56931 0.48655 0.0
C2535 C 0.03883 0.57399 0.56483 0.0
C2536 C 0.08356 0.55067 0.53816 0.0
C2537 C 0.03328 0.51159 0.61195 0.0
C2538 C 1.00877 0.51702 0.64478 0.0
C2539 C 1.00203 0.52022 0.62405 0.0
C2540 C 0.0142 0.51757 0.60781 0.0
C2541 C 0.0399 0.50786 0.63245 0.0
C2542 C 0.02764 0.51047 0.64881 0.0
C2543 C 0.04683 0.51124 0.59514 0.0
H2544 H 0.08917 0.58003 0.45136 0.0
H2545 H 0.07211 0.575 0.48331 0.0
H2546 H 0.0113 0.57274 0.44779 0.0
H2547 H 0.02839 0.57762 0.41557 0.0
H2548 H 0.9874 0.52493 0.62042 0.0
H2549 H 1.00893 0.52066 0.59206 0.0
H2550 H 0.05473 0.50345 0.6359 0.0
H2551 H 0.03321 0.50801 0.6647 0.0
Dy2552 Dy 0.81366 0.78282 0.28357 0.0
Dy2553 Dy 0.76739 0.7965 0.27853 0.0
C2554 C 0.81057 0.82841 0.27049 0.0
O2555 O 0.8064 0.78937 0.31743 0.0
O2556 O 0.78463 0.81133 0.3108 0.0
O2557 O 0.84707 0.78897 0.29616 0.0
O2558 O 0.83182 0.76058 0.27392 0.0
O2559 O 0.76324 0.76867 0.29617 0.0
O2560 O 0.78755 0.75307 0.28232 0.0
O2561 O 0.76898 0.77849 0.24676 0.0
O2562 O 0.80521 0.78369 0.24877 0.0
O2563 O 0.73329 0.78653 0.26901 0.0
O2564 O 0.74813 0.8188 0.28393 0.0
C2565 C 0.79604 0.80329 0.32426 0.0
O2566 O 0.82174 0.81722 0.28031 0.0
O2567 O 0.78968 0.82221 0.26563 0.0
C2568 C 0.86751 0.77735 0.27055 0.0
C2569 C 0.89998 0.78454 0.24369 0.0
C2570 C 0.88906 0.80012 0.24898 0.0
C2571 C 0.873 0.79654 0.26217 0.0
C2572 C 0.87844 0.76184 0.26549 0.0
C2573 C 0.89445 0.76537 0.25225 0.0
C2574 C 0.84986 0.77292 0.28369 0.0
C2575 C 0.77019 0.75182 0.29137 0.0
C2576 C 0.78612 0.77826 0.23761 0.0
C2577 C 0.71336 0.80315 0.29128 0.0
C2578 C 0.6804 0.80068 0.31732 0.0
C2579 C 0.6954 0.78858 0.32 0.0
C2580 C 0.71175 0.78987 0.30716 0.0
C2581 C 0.69847 0.81519 0.28855 0.0
C2582 C 0.68221 0.814 0.30141 0.0
C2583 C 0.73022 0.80449 0.27729 0.0
H2584 H 0.89295 0.8152 0.24303 0.0
H2585 H 0.86479 0.80875 0.2657 0.0
H2586 H 0.87437 0.74683 0.27157 0.0
H2587 H 0.90216 0.75282 0.24835 0.0
H2588 H 0.69468 0.77835 0.33222 0.0
H2589 H 0.72313 0.78048 0.30963 0.0
H2590 H 0.69937 0.82549 0.27636 0.0
H2591 H 0.67084 0.82333 0.29866 0.0
Dy2592 Dy 0.80126 0.28808 0.76609 0.0
Dy2593 Dy 0.76802 0.28649 0.80058 0.0
C2594 C 0.79619 0.32957 0.79167 0.0
O2595 O 0.82178 0.2922 0.79761 0.0
O2596 O 0.79606 0.27734 0.8172 0.0
O2597 O 0.8296 0.30423 0.75411 0.0
O2598 O 0.81175 0.27262 0.73918 0.0
O2599 O 0.75852 0.25596 0.77827 0.0
O2600 O 0.79235 0.25537 0.7739 0.0
O2601 O 0.75072 0.29545 0.77209 0.0
O2602 O 0.76947 0.28471 0.74624 0.0
O2603 O 0.74702 0.26817 0.81939 0.0
O2604 O 0.75027 0.30201 0.82107 0.0
C2605 C 0.81628 0.2837 0.81456 0.0
O2606 O 0.79555 0.32003 0.77238 0.0
O2607 O 0.79113 0.31844 0.80702 0.0
C2608 C 0.82546 0.29728 0.71669 0.0
C2609 C 0.82016 0.31585 0.67957 0.0
C2610 C 0.83774 0.32498 0.69534 0.0
C2611 C 0.84042 0.31571 0.71373 0.0
C2612 C 0.80843 0.28763 0.70044 0.0
C2613 C 0.80583 0.29683 0.68206 0.0
C2614 C 0.82641 0.28964 0.7375 0.0
C2615 C 0.77239 0.24538 0.77333 0.0
C2616 C 0.75278 0.29095 0.75187 0.0
C2617 C 0.74657 0.28674 0.85263 0.0
C2618 C 0.75646 0.28307 0.89579 0.0
C2619 C 0.7361 0.27291 0.8846 0.0
C2620 C 0.73121 0.27475 0.86318 0.0
C2621 C 0.76645 0.29795 0.864 0.0
C2622 C 0.77129 0.29627 0.88548 0.0
C2623 C 0.74288 0.28488 0.82936 0.0
H2624 H 0.84915 0.33953 0.69365 0.0
H2625 H 0.85369 0.32338 0.72602 0.0
H2626 H 0.79656 0.27344 0.70222 0.0
H2627 H 0.79202 0.28956 0.67026 0.0
H2628 H 0.7244 0.26238 0.89193 0.0
H2629 H 0.71588 0.26582 0.85454 0.0
H2630 H 0.77859 0.30717 0.85604 0.0
H2631 H 0.78699 0.30454 0.89373 0.0
Dy2632 Dy 0.774 0.75741 0.77197 0.0
Dy2633 Dy 0.79921 0.80551 0.79076 0.0
C2634 C 0.79385 0.77006 0.82116 0.0
O2635 O 0.7487 0.77551 0.77187 0.0
O2636 O 0.76542 0.80215 0.79863 0.0
O2637 O 0.74445 0.73304 0.76814 0.0
O2638 O 0.77184 0.72604 0.7556 0.0
O2639 O 0.78551 0.80753 0.75722 0.0
O2640 O 0.77963 0.7726 0.74279 0.0
O2641 O 0.8242 0.79255 0.77606 0.0
O2642 O 0.80892 0.75696 0.77412 0.0
O2643 O 0.82207 0.83488 0.78894 0.0
O2644 O 0.8058 0.83149 0.81665 0.0
C2645 C 0.74768 0.7904 0.7871 0.0
O2646 O 0.77729 0.75922 0.80754 0.0
O2647 O 0.80755 0.78607 0.81563 0.0
C2648 C 0.75056 0.69968 0.77146 0.0
C2649 C 0.75395 0.66556 0.79333 0.0
C2650 C 0.75396 0.68522 0.80466 0.0
C2651 C 0.75235 0.70217 0.79381 0.0
C2652 C 0.749 0.67973 0.76005 0.0
C2653 C 0.75064 0.66276 0.77089 0.0
C2654 C 0.75283 0.71827 0.76028 0.0
C2655 C 0.782 0.79267 0.74051 0.0
C2656 C 0.82544 0.77276 0.77262 0.0
C2657 C 0.81115 0.86433 0.80417 0.0
C2658 C 0.79168 0.89776 0.80043 0.0
C2659 C 0.7957 0.88607 0.78216 0.0
C2660 C 0.80527 0.86946 0.78399 0.0
C2661 C 0.80836 0.87682 0.8225 0.0
C2662 C 0.79859 0.89338 0.82064 0.0
C2663 C 0.81758 0.8446 0.80617 0.0
H2664 H 0.75632 0.6878 0.82193 0.0
H2665 H 0.75354 0.71748 0.80292 0.0
H2666 H 0.74771 0.67758 0.74281 0.0
H2667 H 0.75088 0.6479 0.76169 0.0
H2668 H 0.79029 0.88893 0.76637 0.0
H2669 H 0.80707 0.86003 0.76954 0.0
H2670 H 0.81278 0.8731 0.8382 0.0
H2671 H 0.7958 0.9023 0.83496 0.0
Dy2672 Dy 0.56899 0.55382 0.54369 0.0
Dy2673 Dy 0.5221 0.52833 0.52007 0.0
C2674 C 0.56273 0.53577 0.49392 0.0
O2675 O 0.55731 0.57816 0.52712 0.0
O2676 O 0.52135 0.56324 0.52226 0.0
O2677 O 0.59966 0.57583 0.54453 0.0
O2678 O 0.59122 0.56232 0.57277 0.0
O2679 O 0.51985 0.53101 0.55525 0.0
O2680 O 0.54637 0.56116 0.5658 0.0
O2681 O 0.53771 0.50148 0.52519 0.0
O2682 O 0.56539 0.52014 0.55067 0.0
O2683 O 0.49134 0.50674 0.52026 0.0
O2684 O 0.49841 0.52081 0.49206 0.0
C2685 C 0.53771 0.57972 0.52218 0.0
O2686 O 0.5756 0.53973 0.51206 0.0
O2687 O 0.5421 0.53321 0.49362 0.0
C2688 C 0.62705 0.56757 0.56685 0.0
C2689 C 0.66312 0.5512 0.57102 0.0
C2690 C 0.65736 0.55905 0.55228 0.0
C2691 C 0.63951 0.56716 0.5502 0.0
C2692 C 0.63368 0.56112 0.58614 0.0
C2693 C 0.6515 0.55289 0.58817 0.0
C2694 C 0.60646 0.57316 0.56374 0.0
C2695 C 0.52981 0.54708 0.56988 0.0
C2696 C 0.55332 0.50186 0.54036 0.0
C2697 C 0.46467 0.51873 0.50174 0.0
C2698 C 0.43101 0.53852 0.49976 0.0
C2699 C 0.44752 0.54461 0.51702 0.0
C2700 C 0.4642 0.53486 0.51797 0.0
C2701 C 0.44816 0.51234 0.48456 0.0
C2702 C 0.43138 0.52222 0.48355 0.0
C2703 C 0.4836 0.51048 0.50184 0.0
H2704 H 0.6659 0.55777 0.53871 0.0
H2705 H 0.63499 0.57222 0.5352 0.0
H2706 H 0.62456 0.5616 0.59936 0.0
H2707 H 0.65576 0.54716 0.60288 0.0
H2708 H 0.44795 0.55746 0.52948 0.0
H2709 H 0.47708 0.54035 0.53112 0.0
H2710 H 0.44851 0.50012 0.47175 0.0
H2711 H 0.41884 0.51726 0.47008 0.0
Dy2712 Dy 0.01865 0.53501 0.03614 0.0
Dy2713 Dy 0.06534 0.54564 0.01827 0.0
C2714 C 0.02384 0.55034 0.99081 0.0
O2715 O 0.02018 0.50332 0.01862 0.0
O2716 O 0.05637 0.51028 0.01845 0.0
O2717 O 0.9847 0.52122 0.02975 0.0
O2718 O 0.99889 0.53882 0.06088 0.0
O2719 O 0.07137 0.54454 0.05302 0.0
O2720 O 0.03975 0.52294 0.05866 0.0
O2721 O 0.05876 0.57795 0.02566 0.0
O2722 O 0.03582 0.56889 0.05 0.0
O2723 O 0.09899 0.56145 0.02264 0.0
O2724 O 0.08472 0.53947 0.99397 0.0
C2725 C 0.03745 0.49671 0.01594 0.0
O2726 O 0.01523 0.55198 0.00833 0.0
O2727 O 0.04121 0.54375 0.99017 0.0
C2728 C 0.96512 0.54266 0.04683 0.0
C2729 C 0.93386 0.5661 0.04478 0.0
C2730 C 0.94611 0.56442 0.02806 0.0
C2731 C 0.9616 0.55292 0.02911 0.0
C2732 C 0.95312 0.54443 0.06362 0.0
C2733 C 0.9377 0.55604 0.06265 0.0
C2734 C 0.98124 0.5302 0.04794 0.0
C2735 C 0.06032 0.53119 0.06401 0.0
C2736 C 0.04825 0.58349 0.04105 0.0
C2737 C 0.11934 0.53912 0.00837 0.0
C2738 C 0.15048 0.51571 0.0122 0.0
C2739 C 0.13732 0.51728 0.02816 0.0
C2740 C 0.12186 0.52877 0.02621 0.0
C2741 C 0.1324 0.53767 0.99246 0.0
C2742 C 0.14777 0.52608 0.99432 0.0
C2743 C 0.10243 0.55043 0.0056 0.0
H2744 H 0.9435 0.57166 0.01391 0.0
H2745 H 0.97069 0.55191 0.01595 0.0
H2746 H 0.95567 0.53681 0.07752 0.0
H2747 H 0.92889 0.55725 0.07601 0.0
H2748 H 0.13905 0.50978 0.04228 0.0
H2749 H 0.11178 0.52946 0.0386 0.0
H2750 H 0.13052 0.54529 0.97843 0.0
H2751 H 0.15726 0.52495 0.9815 0.0
H2752 H 0.9912 0.14733 0.97673 0.0
H2753 H 0.04381 0.18684 0.02156 0.0
H2754 H 0.05082 0.15536 0.03477 0.0
H2755 H 0.04279 0.11589 0.03329 0.0
H2756 H 0.99033 0.07681 0.98797 0.0
H2757 H 0.98295 0.10835 0.97552 0.0
C2758 C 1.00433 0.14922 0.9893 0.0
C2759 C 0.01681 0.16997 0.99797 0.0
C2760 C 1.00847 0.1308 0.99691 0.0
C2761 C 0.03352 0.17149 0.01457 0.0
C2762 C 0.03771 0.1533 0.02213 0.0
C2763 C 0.02966 0.11421 0.02078 0.0
C2764 C 0.01723 0.09353 0.01174 0.0
C2765 C 0.02536 0.13276 0.01343 0.0
C2766 C 1.00034 0.09215 0.99542 0.0
C2767 C 0.99604 0.11035 0.98817 0.0
H2768 H 0.19676 0.81425 0.17075 0.0
H2769 H 0.15114 0.79417 0.21343 0.0
H2770 H 0.17915 0.7883 0.23856 0.0
H2771 H 0.21657 0.78869 0.24878 0.0
H2772 H 0.26259 0.80824 0.20636 0.0
H2773 H 0.23458 0.81418 0.18092 0.0
C2774 C 0.19289 0.80848 0.18548 0.0
C2775 C 0.17169 0.80496 0.19012 0.0
C2776 C 0.20923 0.80495 0.20002 0.0
C2777 C 0.16723 0.79756 0.20947 0.0
C2778 C 0.18328 0.794 0.22386 0.0
C2779 C 0.22057 0.79422 0.23397 0.0
C2780 C 0.24183 0.79797 0.22965 0.0
C2781 C 0.20435 0.79768 0.21938 0.0
C2782 C 0.24647 0.80517 0.21026 0.0
C2783 C 0.23039 0.8086 0.19565 0.0
H2784 H 0.49353 0.89099 0.49748 0.0
H2785 H 0.55693 0.89745 0.48054 0.0
H2786 H 0.56415 0.93584 0.48822 0.0
H2787 H 0.55278 0.96825 0.49942 0.0
H2788 H 0.48904 0.96214 0.51513 0.0
H2789 H 0.48182 0.92354 0.50789 0.0
C2790 C 0.50891 0.90066 0.49526 0.0
C2791 C 0.52466 0.89069 0.48859 0.0
C2792 C 0.513 0.92317 0.4994 0.0
C2793 C 0.5445 0.90407 0.48615 0.0
C2794 C 0.54866 0.9263 0.49035 0.0
C2795 C 0.53724 0.95858 0.50124 0.0
C2796 C 0.52154 0.96857 0.50788 0.0
C2797 C 0.53307 0.9361 0.49699 0.0
C2798 C 0.50156 0.95532 0.51005 0.0
C2799 C 0.49738 0.93305 0.50592 0.0
H2800 H 0.48955 0.30019 0.70954 0.0
H2801 H 0.44868 0.2869 0.64922 0.0
H2802 H 0.41733 0.28292 0.66767 0.0
H2803 H 0.40122 0.28217 0.701 0.0
H2804 H 0.44223 0.29552 0.76126 0.0
H2805 H 0.47353 0.30006 0.7428 0.0
C2806 C 0.47379 0.29628 0.70039 0.0
C2807 C 0.47164 0.29389 0.67794 0.0
C2808 C 0.45571 0.29387 0.71113 0.0
C2809 C 0.45099 0.28915 0.66647 0.0
C2810 C 0.43297 0.28672 0.67703 0.0
C2811 C 0.417 0.28628 0.71012 0.0
C2812 C 0.41919 0.2883 0.73257 0.0
C2813 C 0.4351 0.28899 0.69937 0.0
C2814 C 0.43988 0.29344 0.74401 0.0
C2815 C 0.45788 0.29618 0.73345 0.0
H2816 H 0.0226 0.83757 0.59676 0.0
H2817 H 0.04561 0.87922 0.6564 0.0
H2818 H 0.04967 0.91008 0.63771 0.0
H2819 H 0.04753 0.92555 0.60429 0.0
H2820 H 0.02443 0.8839 0.54465 0.0
H2821 H 0.02003 0.85305 0.56338 0.0
C2822 C 0.02865 0.85337 0.6057 0.0
C2823 C 0.03369 0.85586 0.62808 0.0
C2824 C 0.03107 0.87122 0.59479 0.0
C2825 C 0.04124 0.87663 0.63926 0.0
C2826 C 0.04371 0.89438 0.62854 0.0
C2827 C 0.04132 0.90976 0.59536 0.0
C2828 C 0.03648 0.90726 0.57295 0.0
C2829 C 0.0387 0.89191 0.60629 0.0
C2830 C 0.02869 0.88649 0.5618 0.0
C2831 C 0.02603 0.86875 0.57254 0.0
H2832 H 0.43381 0.83049 0.81799 0.0
H2833 H 0.42933 0.76324 0.81175 0.0
H2834 H 0.39101 0.75553 0.80112 0.0
H2835 H 0.35809 0.76749 0.79419 0.0
H2836 H 0.3622 0.83462 0.80161 0.0
H2837 H 0.40081 0.84247 0.8114 0.0
C2838 C 0.42456 0.8141 0.81449 0.0
C2839 C 0.43503 0.79757 0.81565 0.0
C2840 C 0.40212 0.80962 0.80862 0.0
C2841 C 0.42229 0.77648 0.81065 0.0
C2842 C 0.40012 0.77197 0.80471 0.0
C2843 C 0.36736 0.78387 0.79791 0.0
C2844 C 0.35688 0.80039 0.79707 0.0
C2845 C 0.38979 0.78837 0.80367 0.0
C2846 C 0.36951 0.82147 0.80205 0.0
C2847 C 0.39174 0.82602 0.80768 0.0
H2848 H 0.5076 0.15551 0.09642 0.0
H2849 H 0.53358 0.13671 0.15403 0.0
H2850 H 0.53829 0.10482 0.13354 0.0
H2851 H 0.53551 0.08212 0.09907 0.0
H2852 H 0.50872 0.10066 0.04165 0.0
H2853 H 0.50368 0.13229 0.06223 0.0
C2854 C 0.51405 0.14435 0.1046 0.0
C2855 C 0.52034 0.14886 0.12688 0.0
C2856 C 0.51663 0.1258 0.09268 0.0
C2857 C 0.52893 0.13411 0.13693 0.0
C2858 C 0.53153 0.11569 0.12521 0.0
C2859 C 0.52853 0.09303 0.09102 0.0
C2860 C 0.52259 0.08881 0.06869 0.0
C2861 C 0.52558 0.11139 0.10303 0.0
C2862 C 0.5135 0.10328 0.05873 0.0
C2863 C 0.51059 0.12149 0.07052 0.0
H2864 H 0.14907 0.29062 0.29728 0.0
H2865 H 0.17809 0.34397 0.34629 0.0
H2866 H 0.21321 0.34303 0.33744 0.0
H2867 H 0.23656 0.32697 0.31621 0.0
H2868 H 0.20782 0.2746 0.26625 0.0
H2869 H 0.17241 0.2756 0.27484 0.0
C2870 C 0.16297 0.30223 0.30597 0.0
C2871 C 0.16036 0.31713 0.32285 0.0
C2872 C 0.18358 0.30185 0.30058 0.0
C2873 C 0.17906 0.33184 0.3337 0.0
C2874 C 0.19941 0.33147 0.3285 0.0
C2875 C 0.22261 0.31579 0.30708 0.0
C2876 C 0.22527 0.30069 0.2905 0.0
C2877 C 0.20198 0.31647 0.31208 0.0
C2878 C 0.20665 0.28647 0.27902 0.0
C2879 C 0.18621 0.28699 0.28399 0.0
H2880 H 0.96459 0.04045 0.14599 0.0
H2881 H 0.02462 0.03379 0.17623 0.0
H2882 H 0.03887 0.03524 0.14259 0.0
H2883 H 0.03451 0.03764 0.10432 0.0
H2884 H 0.9741 0.04192 0.07304 0.0
H2885 H 0.95987 0.04177 0.10711 0.0
C2886 C 0.98073 0.03908 0.1453 0.0
C2887 C 0.99343 0.03723 0.16411 0.0
C2888 C 0.98885 0.03944 0.12555 0.0
C2889 C 0.01443 0.03578 0.1625 0.0
C2890 C 0.02263 0.0364 0.14308 0.0
C2891 C 0.01824 0.03867 0.10487 0.0
C2892 C 1.00551 0.03995 0.08596 0.0
C2893 C 1.01003 0.03824 0.1245 0.0
C2894 C 0.98436 0.04098 0.0872 0.0
C2895 C 0.97619 0.04088 0.10675 0.0
H2896 H 0.29405 0.77143 0.4775 0.0
H2897 H 0.23474 0.72323 0.45895 0.0
H2898 H 0.22516 0.74178 0.42999 0.0
H2899 H 0.23612 0.76831 0.40672 0.0
H2900 H 0.29635 0.8153 0.42356 0.0
H2901 H 0.30314 0.80059 0.45639 0.0
C2902 C 0.27896 0.76512 0.46721 0.0
C2903 C 0.26527 0.74588 0.47022 0.0
C2904 C 0.27382 0.77551 0.45016 0.0
C2905 C 0.24553 0.73809 0.45708 0.0
C2906 C 0.2401 0.74858 0.44038 0.0
C2907 C 0.25042 0.77575 0.4179 0.0
C2908 C 0.26581 0.7927 0.41272 0.0
C2909 C 0.25445 0.76687 0.43635 0.0
C2910 C 0.2844 0.80204 0.42718 0.0
C2911 C 0.2883 0.79362 0.44588 0.0
H2912 H 0.60601 0.04099 0.6361 0.0
H2913 H 0.55743 0.99416 0.65784 0.0
H2914 H 0.53232 0.99437 0.62645 0.0
H2915 H 0.52413 0.00892 0.59324 0.0
H2916 H 0.57283 0.05685 0.57314 0.0
H2917 H 0.59796 0.0556 0.60384 0.0
C2918 C 0.58986 0.03094 0.63408 0.0
C2919 C 0.58345 0.01777 0.64932 0.0
C2920 C 0.57558 0.03149 0.6164 0.0
C2921 C 0.5627 0.00438 0.64622 0.0
C2922 C 0.54833 0.00464 0.62841 0.0
C2923 C 0.54023 0.0191 0.59577 0.0
C2924 C 0.54694 0.03266 0.58095 0.0
C2925 C 0.55455 0.01832 0.61351 0.0
C2926 C 0.56767 0.0459 0.58419 0.0
C2927 C 0.58196 0.04527 0.60173 0.0
H2928 H 0.31369 0.33943 0.91957 0.0
H2929 H 0.24933 0.30276 0.92099 0.0
H2930 H 0.2461 0.2896 0.88324 0.0
H2931 H 0.26121 0.28854 0.84941 0.0
H2932 H 0.32627 0.32318 0.84844 0.0
H2933 H 0.32963 0.33641 0.88641 0.0
C2934 C 0.29903 0.32826 0.91189 0.0
C2935 C 0.28173 0.32244 0.92354 0.0
C2936 C 0.29739 0.32019 0.89007 0.0
C2937 C 0.26283 0.30814 0.91271 0.0
C2938 C 0.26099 0.30036 0.891 0.0
C2939 C 0.27619 0.2989 0.85749 0.0
C2940 C 0.29344 0.30486 0.8459 0.0
C2941 C 0.2781 0.30636 0.87947 0.0
C2942 C 0.31273 0.31821 0.85683 0.0
C2943 C 0.31464 0.32588 0.87859 0.0
H2944 H 0.98968 0.05416 0.39656 0.0
H2945 H 0.01861 0.00438 0.37532 0.0
H2946 H 0.02986 1.00109 0.4124 0.0
H2947 H 0.03134 0.01239 0.45151 0.0
H2948 H 1.00162 0.06221 0.47139 0.0
H2949 H 0.99126 0.06541 0.43465 0.0
C2950 C 0.99869 0.04275 0.39994 0.0
C2951 C 1.0033 0.02965 0.38294 0.0
C2952 C 1.00501 0.04083 0.42133 0.0
C2953 C 0.01463 0.01464 0.38793 0.0
C2954 C 0.02116 0.01278 0.40922 0.0
C2955 C 0.02259 0.02391 0.4478 0.0
C2956 C 0.01727 0.03687 0.46457 0.0
C2957 C 0.01638 0.02575 0.42618 0.0
C2958 C 1.00591 0.05175 0.45917 0.0
C2959 C 0.99994 0.05372 0.43798 0.0
H2960 H 0.32491 0.74464 0.65381 0.0
H2961 H 0.26938 0.69273 0.65298 0.0
H2962 H 0.26254 0.70915 0.68672 0.0
H2963 H 0.27214 0.73785 0.71639 0.0
H2964 H 0.32643 0.79091 0.71726 0.0
H2965 H 0.33352 0.77471 0.68308 0.0
C2966 C 0.31122 0.73701 0.66092 0.0
C2967 C 0.29793 0.71726 0.65101 0.0
C2968 C 0.30702 0.74681 0.68017 0.0
C2969 C 0.28029 0.70758 0.66052 0.0
C2970 C 0.27619 0.71707 0.67972 0.0
C2971 C 0.28553 0.74595 0.70913 0.0
C2972 C 0.29884 0.76546 0.71936 0.0
C2973 C 0.28947 0.7366 0.68968 0.0
C2974 C 0.31593 0.77587 0.70961 0.0
C2975 C 0.32004 0.76657 0.69017 0.0
H2976 H 0.58441 0.04609 0.83063 0.0
H2977 H 0.64701 0.06938 0.86724 0.0
H2978 H 0.63102 0.07651 0.89937 0.0
H2979 H 0.59923 0.07565 0.917 0.0
H2980 H 0.53674 0.05208 0.8802 0.0
H2981 H 0.5528 0.04635 0.84791 0.0
C2982 C 0.59458 0.05301 0.84557 0.0
C2983 C 0.61684 0.05719 0.84658 0.0
C2984 C 0.58532 0.05721 0.86385 0.0
C2985 C 0.6298 0.06575 0.86613 0.0
C2986 C 0.62069 0.06997 0.88446 0.0
C2987 C 0.58915 0.06924 0.9019 0.0
C2988 C 0.56686 0.06427 0.90097 0.0
C2989 C 0.59847 0.06565 0.8835 0.0
C2990 C 0.55396 0.05629 0.88128 0.0
C2991 C 0.56311 0.05283 0.86285 0.0
H2992 H 0.27989 0.3606 0.16124 0.0
H2993 H 0.28838 0.3022 0.12928 0.0
H2994 H 0.28762 0.28723 0.16259 0.0
H2995 H 0.28495 0.29061 0.20094 0.0
H2996 H 0.27729 0.34912 0.23347 0.0
H2997 H 0.2771 0.36394 0.19992 0.0
C2998 C 0.28141 0.34453 0.1615 0.0
C2999 C 0.28426 0.33263 0.14259 0.0
C3000 C 0.28108 0.33597 0.18091 0.0
C3001 C 0.28646 0.31191 0.14348 0.0
C3002 C 0.28591 0.30326 0.16258 0.0
C3003 C 0.2831 0.30658 0.20076 0.0
C3004 C 0.28103 0.31863 0.21988 0.0
C3005 C 0.2833 0.31513 0.18141 0.0
C3006 C 0.27888 0.33939 0.21913 0.0
C3007 C 0.27879 0.3479 0.19989 0.0
H3008 H 0.22887 0.02399 0.03393 0.0
H3009 H 0.18656 0.98753 0.97866 0.0
H3010 H 0.16302 0.01122 0.98215 0.0
H3011 H 0.15188 0.03837 0.00419 0.0
H3012 H 0.19374 0.0747 0.05993 0.0
H3013 H 0.22018 0.0549 0.05296 0.0
C3014 C 0.21463 0.02148 0.02251 0.0
C3015 C 0.20919 0.00394 0.00629 0.0
C3016 C 0.20106 0.03492 0.02483 0.0
C3017 C 0.19099 1.00096 0.99129 0.0
C3018 C 0.17749 0.0144 0.99336 0.0
C3019 C 0.16707 0.04254 0.01444 0.0
C3020 C 0.1707 0.05779 0.03274 0.0
C3021 C 0.182 0.03094 0.01052 0.0
C3022 C 0.1904 0.06273 0.04596 0.0
C3023 C 0.20551 0.05143 0.042 0.0
H3024 H 0.68167 0.59604 0.03145 0.0
H3025 H 0.65758 0.64025 0.99699 0.0
H3026 H 0.62116 0.6193 0.99657 0.0
H3027 H 0.59603 0.589 0.00658 0.0
H3028 H 0.61973 0.54424 0.0405 0.0
H3029 H 0.65637 0.56462 0.04011 0.0
C3030 C 0.66849 0.60096 0.02359 0.0
C3031 C 0.67247 0.61987 0.01443 0.0
C3032 C 0.64747 0.58872 0.02326 0.0
C3033 C 0.65507 0.62604 0.00454 0.0
C3034 C 0.63419 0.61399 0.00416 0.0
C3035 C 0.60917 0.58359 0.01384 0.0
C3036 C 0.60504 0.56511 0.02364 0.0
C3037 C 0.63019 0.59541 0.01362 0.0
C3038 C 0.62237 0.55838 0.03284 0.0
C3039 C 0.64336 0.57006 0.03266 0.0
H3040 H 0.72309 0.47652 0.28713 0.0
H3041 H 0.66349 0.43256 0.25861 0.0
H3042 H 0.68182 0.40468 0.25183 0.0
H3043 H 0.71476 0.3925 0.25428 0.0
H3044 H 0.77414 0.43623 0.28359 0.0
H3045 H 0.75582 0.4642 0.29022 0.0
C3046 C 0.71401 0.46079 0.27966 0.0
C3047 C 0.69187 0.4568 0.27335 0.0
C3048 C 0.72462 0.44468 0.27602 0.0
C3049 C 0.68056 0.43632 0.26334 0.0
C3050 C 0.69102 0.42026 0.25958 0.0
C3051 C 0.72371 0.40819 0.262 0.0
C3052 C 0.74582 0.41221 0.26842 0.0
C3053 C 0.71306 0.42426 0.2658 0.0
C3054 C 0.75709 0.43258 0.27869 0.0
C3055 C 0.74664 0.44864 0.28239 0.0
H3056 H 0.89778 0.49468 0.51812 0.0
H3057 H 0.91065 0.43306 0.50701 0.0
H3058 H 0.94872 0.4493 0.51665 0.0
H3059 H 0.9784 0.48097 0.52767 0.0
H3060 H 0.96597 0.54283 0.53576 0.0
H3061 H 0.92758 0.52652 0.52758 0.0
C3062 C 0.90889 0.4848 0.51744 0.0
C3063 C 0.90127 0.46264 0.51191 0.0
C3064 C 0.93081 0.49427 0.52253 0.0
C3065 C 0.91598 0.4501 0.51155 0.0
C3066 C 0.93778 0.45938 0.51696 0.0
C3067 C 0.96724 0.49084 0.52781 0.0
C3068 C 0.97486 0.513 0.53246 0.0
C3069 C 0.94535 0.48142 0.52252 0.0
C3070 C 0.96037 0.5257 0.53223 0.0
C3071 C 0.93848 0.5164 0.52754 0.0
H3072 H 0.31381 0.10613 0.2976 0.0
H3073 H 0.35203 0.12057 0.24736 0.0
H3074 H 0.32963 0.1429 0.23494 0.0
H3075 H 0.30124 0.16065 0.24034 0.0
H3076 H 0.26378 0.14733 0.29134 0.0
H3077 H 0.28389 0.12217 0.30159 0.0
C3078 C 0.31722 0.11421 0.28395 0.0
C3079 C 0.33462 0.11192 0.27352 0.0
C3080 C 0.30446 0.12718 0.27709 0.0
C3081 C 0.33865 0.12206 0.25558 0.0
C3082 C 0.32592 0.13488 0.24854 0.0
C3083 C 0.29714 0.15184 0.25336 0.0
C3084 C 0.2811 0.15576 0.26508 0.0
C3085 C 0.30901 0.1378 0.25938 0.0
C3086 C 0.27618 0.14458 0.28218 0.0
C3087 C 0.28768 0.13027 0.28806 0.0
H3088 H 0.3833 0.15511 0.51877 0.0
H3089 H 0.32782 0.10221 0.51227 0.0
H3090 H 0.35037 0.07745 0.5109 0.0
H3091 H 0.38572 0.07073 0.51159 0.0
H3092 H 0.44133 0.12337 0.51669 0.0
H3093 H 0.41894 0.14824 0.519 0.0
C3094 C 0.3762 0.13817 0.51721 0.0
C3095 C 0.35389 0.13053 0.51556 0.0
C3096 C 0.38928 0.12395 0.51623 0.0
C3097 C 0.34491 0.1085 0.51332 0.0
C3098 C 0.3578 0.09433 0.51261 0.0
C3099 C 0.39299 0.08762 0.51292 0.0
C3100 C 0.41527 0.09505 0.51392 0.0
C3101 C 0.37999 0.10185 0.51393 0.0
C3102 C 0.42431 0.1171 0.51614 0.0
C3103 C 0.41148 0.13138 0.51734 0.0
H3104 H 0.7044 0.67225 0.31394 0.0
H3105 H 0.73789 0.6392 0.27268 0.0
H3106 H 0.76224 0.67292 0.26893 0.0
H3107 H 0.77303 0.71204 0.27605 0.0
H3108 H 0.7387 0.74492 0.3166 0.0
H3109 H 0.71597 0.71114 0.32211 0.0
C3110 C 0.71722 0.6724 0.30438 0.0
C3111 C 0.71926 0.65321 0.29357 0.0
C3112 C 0.73103 0.69188 0.30209 0.0
C3113 C 0.73579 0.65375 0.28098 0.0
C3114 C 0.74978 0.67303 0.27888 0.0
C3115 C 0.76073 0.71181 0.28627 0.0
C3116 C 0.75761 0.73105 0.29584 0.0
C3117 C 0.7474 0.69224 0.28915 0.0
C3118 C 0.74146 0.7304 0.30892 0.0
C3119 C 0.7284 0.71106 0.31211 0.0
H3120 H 0.83492 0.4272 0.82349 0.0
H3121 H 0.82885 0.42834 0.75558 0.0
H3122 H 0.81256 0.3902 0.74909 0.0
H3123 H 0.80159 0.35652 0.76257 0.0
H3124 H 0.80712 0.35496 0.83041 0.0
H3125 H 0.8217 0.39351 0.83709 0.0
C3126 C 0.82971 0.41915 0.80729 0.0
C3127 C 0.83326 0.43052 0.79003 0.0
C3128 C 0.82032 0.39723 0.80367 0.0
C3129 C 0.82664 0.41985 0.76912 0.0
C3130 C 0.81724 0.39809 0.76539 0.0
C3131 C 0.8059 0.36459 0.77885 0.0
C3132 C 0.80349 0.35291 0.79597 0.0
C3133 C 0.81431 0.3866 0.78254 0.0
C3134 C 0.80889 0.36362 0.81695 0.0
C3135 C 0.81728 0.38563 0.82077 0.0
H3136 H 0.03243 0.90143 0.05491 0.0
H3137 H 0.09867 0.92729 0.08076 0.0
H3138 H 0.09714 0.96181 0.07077 0.0
H3139 H 0.07659 0.98575 0.05527 0.0
H3140 H 1.01017 0.95891 0.03017 0.0
H3141 H 0.01236 0.92463 0.0394 0.0
C3142 C 0.04659 0.91455 0.05859 0.0
C3143 C 0.06567 0.91119 0.06871 0.0
C3144 C 0.04562 0.9347 0.05289 0.0
C3145 C 0.08375 0.92879 0.07277 0.0
C3146 C 0.08287 0.94882 0.06715 0.0
C3147 C 0.06262 0.97241 0.05169 0.0
C3148 C 0.04318 0.97548 0.04195 0.0
C3149 C 0.06385 0.95212 0.05721 0.0
C3150 C 0.02539 0.95761 0.03767 0.0
C3151 C 0.02657 0.93771 0.04298 0.0
H3152 H 0.87774 0.25881 0.88643 0.0
H3153 H 0.92528 0.29829 0.85614 0.0
H3154 H 0.89742 0.30454 0.83089 0.0
H3155 H 0.85956 0.299 0.81721 0.0
H3156 H 0.81152 0.2608 0.84808 0.0
H3157 H 0.83933 0.25406 0.87316 0.0
C3158 C 0.88195 0.26868 0.87422 0.0
C3159 C 0.90366 0.27804 0.87322 0.0
C3160 C 0.86569 0.27257 0.85984 0.0
C3161 C 0.90877 0.29099 0.85741 0.0
C3162 C 0.89282 0.29456 0.8429 0.0
C3163 C 0.85509 0.28921 0.82942 0.0
C3164 C 0.83331 0.28039 0.83055 0.0
C3165 C 0.87121 0.28551 0.84397 0.0
C3166 C 0.82805 0.26786 0.8467 0.0
C3167 C 0.844 0.26392 0.86108 0.0
H3168 H 0.57704 0.17885 0.57495 0.0
H3169 H 0.5156 0.17914 0.54231 0.0
H3170 H 0.50763 0.14107 0.53168 0.0
H3171 H 0.5177 0.10699 0.53105 0.0
H3172 H 0.58018 0.10685 0.56062 0.0
H3173 H 0.58804 0.14512 0.57237 0.0
C3174 C 0.56198 0.17085 0.56527 0.0
C3175 C 0.54692 0.18256 0.56 0.0
C3176 C 0.55756 0.14859 0.55844 0.0
C3177 C 0.52747 0.17112 0.54749 0.0
C3178 C 0.52287 0.14909 0.54109 0.0
C3179 C 0.53305 0.11528 0.54011 0.0
C3180 C 0.54824 0.10372 0.54498 0.0
C3181 C 0.5377 0.13757 0.54652 0.0
C3182 C 0.56813 0.11507 0.55651 0.0
C3183 C 0.57264 0.13708 0.56331 0.0
H3184 H 0.60867 0.81161 0.3744 0.0
H3185 H 0.59824 0.74361 0.36943 0.0
H3186 H 0.62757 0.7451 0.34838 0.0
H3187 H 0.65578 0.76557 0.3305 0.0
H3188 H 0.66584 0.83349 0.33518 0.0
H3189 H 0.6369 0.83205 0.35673 0.0
C3190 C 0.61264 0.79706 0.36858 0.0
C3191 C 0.60113 0.77752 0.37363 0.0
C3192 C 0.62948 0.79798 0.35626 0.0
C3193 C 0.60691 0.75893 0.36615 0.0
C3194 C 0.62364 0.75974 0.35395 0.0
C3195 C 0.65179 0.78009 0.3364 0.0
C3196 C 0.66302 0.79961 0.33106 0.0
C3197 C 0.63505 0.77917 0.34886 0.0
C3198 C 0.65735 0.8182 0.3387 0.0
C3199 C 0.64083 0.81741 0.35115 0.0
H3200 H 0.06035 0.21594 0.42873 0.0
H3201 H 1.01006 0.2401 0.45267 0.0
H3202 H 1.00371 0.21248 0.47553 0.0
H3203 H 0.01199 0.1811 0.48858 0.0
H3204 H 0.06244 0.15702 0.46491 0.0
H3205 H 0.06866 0.18449 0.44185 0.0
C3206 C 0.04787 0.2151 0.43881 0.0
C3207 C 0.0358 0.2303 0.43893 0.0
C3208 C 0.04417 0.19901 0.45194 0.0
C3209 C 0.01989 0.22896 0.45239 0.0
C3210 C 0.01612 0.21302 0.46542 0.0
C3211 C 0.02449 0.18192 0.47854 0.0
C3212 C 0.03665 0.1668 0.47858 0.0
C3213 C 0.02818 0.19797 0.46538 0.0
C3214 C 0.05254 0.1681 0.46509 0.0
C3215 C 0.05624 0.18396 0.45195 0.0
H3216 H 0.64265 0.24298 0.24056 0.0
H3217 H 0.64661 0.31006 0.24595 0.0
H3218 H 0.68519 0.31812 0.25509 0.0
H3219 H 0.71842 0.30647 0.26104 0.0
H3220 H 0.71474 0.23948 0.2554 0.0
H3221 H 0.67596 0.2313 0.24672 0.0
C3222 C 0.65186 0.2594 0.24361 0.0
C3223 C 0.64121 0.27581 0.24258 0.0
C3224 C 0.67441 0.26405 0.24878 0.0
C3225 C 0.65387 0.29694 0.24693 0.0
C3226 C 0.67615 0.30163 0.25202 0.0
C3227 C 0.70921 0.29004 0.25792 0.0
C3228 C 0.71987 0.27367 0.25891 0.0
C3229 C 0.68667 0.28536 0.25296 0.0
C3230 C 0.70731 0.25252 0.25482 0.0
C3231 C 0.68498 0.24779 0.24982 0.0
H3232 H 0.53112 0.90867 0.95534 0.0
H3233 H 0.5818 0.9443 0.9257 0.0
H3234 H 0.5799 0.97729 0.94682 0.0
H3235 H 0.56357 0.99627 0.97391 0.0
H3236 H 0.51433 0.95978 0.00475 0.0
H3237 H 0.51584 0.92723 0.98304 0.0
C3238 C 0.54173 0.92366 0.95345 0.0
C3239 C 0.55653 0.92391 0.93881 0.0
C3240 C 0.54076 0.94257 0.96592 0.0
C3241 C 0.57034 0.94353 0.93688 0.0
C3242 C 0.56918 0.96246 0.94892 0.0
C3243 C 0.55314 0.9812 0.97582 0.0
C3244 C 0.53878 0.98063 0.99099 0.0
C3245 C 0.55441 0.96223 0.9635 0.0
C3246 C 0.52558 0.96083 0.99334 0.0
C3247 C 0.5264 0.94212 0.98087 0.0
H3248 H 0.90609 0.74027 0.74726 0.0
H3249 H 0.92871 0.80656 0.741 0.0
H3250 H 0.8962 0.8133 0.75199 0.0
H3251 H 0.8608 0.80091 0.7631 0.0
H3252 H 0.83679 0.73463 0.76809 0.0
H3253 H 0.86984 0.7276 0.75777 0.0
C3254 C 0.90397 0.75621 0.74814 0.0
C3255 C 0.92056 0.77287 0.74349 0.0
C3256 C 0.88469 0.76011 0.75429 0.0
C3257 C 0.91699 0.79335 0.74496 0.0
C3258 C 0.8981 0.79728 0.75111 0.0
C3259 C 0.86271 0.78488 0.76205 0.0
C3260 C 0.84601 0.76839 0.76658 0.0
C3261 C 0.88182 0.78086 0.75588 0.0
C3262 C 0.84911 0.74775 0.76483 0.0
C3263 C 0.86814 0.74369 0.75887 0.0
H3264 H 0.06234 0.01153 0.89222 0.0
H3265 H 0.10879 0.07187 0.91072 0.0
H3266 H 0.10008 0.073 0.947 0.0
H3267 H 0.07883 0.05737 0.9737 0.0
H3268 H 0.03226 0.9971 0.95537 0.0
H3269 H 0.04173 0.99537 0.91928 0.0
C3270 C 0.07072 0.02487 0.90419 0.0
C3271 C 0.08611 0.0417 0.89839 0.0
C3272 C 0.06565 0.02544 0.92528 0.0
C3273 C 0.09656 0.05887 0.91433 0.0
C3274 C 0.0917 0.05947 0.93525 0.0
C3275 C 0.07084 0.04374 0.9619 0.0
C3276 C 0.05481 0.02738 0.9675 0.0
C3277 C 0.07619 0.04293 0.94094 0.0
C3278 C 0.04465 0.00996 0.95175 0.0
C3279 C 0.05003 0.00897 0.93098 0.0
H3280 H 0.79916 0.3739 0.61272 0.0
H3281 H 0.78452 0.31436 0.57074 0.0
H3282 H 0.79479 0.29665 0.6004 0.0
H3283 H 0.80794 0.29827 0.63819 0.0
H3284 H 0.82217 0.35783 0.68015 0.0
H3285 H 0.81231 0.37552 0.65043 0.0
C3286 C 0.79794 0.35699 0.61017 0.0
C3287 C 0.79093 0.34536 0.58973 0.0
C3288 C 0.80404 0.34703 0.62716 0.0
C3289 C 0.78988 0.32357 0.58642 0.0
C3290 C 0.79576 0.31348 0.60332 0.0
C3291 C 0.80885 0.31511 0.64079 0.0
C3292 C 0.8158 0.32676 0.66125 0.0
C3293 C 0.80291 0.32509 0.62373 0.0
C3294 C 0.81717 0.34862 0.66443 0.0
C3295 C 0.81134 0.35869 0.64752 0.0
H3296 H 0.47581 0.08596 0.43536 0.0
H3297 H 0.50754 0.06289 0.38512 0.0
H3298 H 0.53225 0.05343 0.41125 0.0
H3299 H 0.54176 0.0472 0.4479 0.0
H3300 H 0.50895 0.06861 0.49775 0.0
H3301 H 0.48752 0.08277 0.47238 0.0
C3302 C 0.48826 0.07904 0.43015 0.0
C3303 C 0.48964 0.07497 0.4083 0.0
C3304 C 0.50193 0.07286 0.44518 0.0
C3305 C 0.50617 0.06642 0.40184 0.0
C3306 C 0.52019 0.06073 0.41676 0.0
C3307 C 0.53005 0.05519 0.45315 0.0
C3308 C 0.52626 0.05615 0.47442 0.0
C3309 C 0.51773 0.06319 0.43838 0.0
C3310 C 0.51142 0.06683 0.48126 0.0
C3311 C 0.49934 0.07515 0.46678 0.0
H3312 H 0.7624 0.74362 0.13852 0.0
H3313 H 0.83099 0.76098 0.14231 0.0
H3314 H 0.83432 0.77349 0.18031 0.0
H3315 H 0.818 0.77901 0.2128 0.0
H3316 H 0.74943 0.76239 0.2092 0.0
H3317 H 0.74597 0.75046 0.17094 0.0
C3318 C 0.77809 0.7504 0.14755 0.0
C3319 C 0.79641 0.75113 0.13735 0.0
C3320 C 0.77995 0.75772 0.16957 0.0
C3321 C 0.81657 0.75978 0.1496 0.0
C3322 C 0.81852 0.76708 0.17141 0.0
C3323 C 0.80225 0.77283 0.2037 0.0
C3324 C 0.784 0.77159 0.21408 0.0
C3325 C 0.80034 0.76598 0.18162 0.0
C3326 C 0.76379 0.76358 0.20181 0.0
C3327 C 0.76178 0.7567 0.17985 0.0
H3328 H 0.07503 0.06647 0.67498 0.0
H3329 H 0.07041 0.99926 0.66798 0.0
H3330 H 0.05889 0.99608 0.6298 0.0
H3331 H 0.05087 0.01235 0.59805 0.0
H3332 H 0.05582 0.07965 0.60471 0.0
H3333 H 0.06625 0.0827 0.64311 0.0
C3334 C 0.07127 0.05108 0.66515 0.0
C3335 C 0.07371 0.03315 0.67451 0.0
C3336 C 0.06476 0.04935 0.643 0.0
C3337 C 0.06898 0.0134 0.66132 0.0
C3338 C 0.0623 0.01154 0.63942 0.0
C3339 C 0.05414 0.02772 0.60784 0.0
C3340 C 0.05251 0.04574 0.59825 0.0
C3341 C 0.0603 0.02942 0.63002 0.0
C3342 C 0.05692 0.06547 0.61143 0.0
C3343 C 0.06291 0.06724 0.6335 0.0
H3344 H 0.75509 0.37155 0.37664 0.0
H3345 H 0.74567 0.31882 0.41229 0.0
H3346 H 0.75133 0.29571 0.38167 0.0
H3347 H 0.76375 0.29196 0.34636 0.0
H3348 H 0.77618 0.34629 0.31279 0.0
H3349 H 0.76497 0.36735 0.34105 0.0
C3350 C 0.75403 0.35493 0.37759 0.0
C3351 C 0.75021 0.34694 0.39667 0.0
C3352 C 0.75834 0.34213 0.36044 0.0
C3353 C 0.74846 0.32529 0.39766 0.0
C3354 C 0.75199 0.31216 0.38027 0.0
C3355 C 0.76383 0.30835 0.34525 0.0
C3356 C 0.7712 0.31768 0.3278 0.0
C3357 C 0.75772 0.32062 0.36185 0.0
C3358 C 0.77108 0.33889 0.32636 0.0
C3359 C 0.76452 0.35094 0.34242 0.0
H3360 H 0.49671 0.03808 0.23555 0.0
H3361 H 0.43903 0.98938 0.21117 0.0
H3362 H 0.4542 0.98027 0.17906 0.0
H3363 H 0.48284 0.98787 0.1569 0.0
H3364 H 0.54039 0.03682 0.1809 0.0
H3365 H 0.52642 0.04402 0.21433 0.0
C3366 C 0.48755 0.02543 0.2232 0.0
C3367 C 0.46678 0.01451 0.22558 0.0
C3368 C 0.49632 0.02037 0.20477 0.0
C3369 C 0.45512 0.99792 0.2097 0.0
C3370 C 0.46372 0.99279 0.19131 0.0
C3371 C 0.49233 1.00003 0.16953 0.0
C3372 C 0.51248 0.01193 0.16648 0.0
C3373 C 0.48414 0.00416 0.18853 0.0
C3374 C 0.52484 0.02741 0.183 0.0
C3375 C 0.51682 0.03162 0.20202 0.0
H3376 H 0.81559 0.75999 0.91864 0.0
H3377 H 0.75555 0.71245 0.90309 0.0
H3378 H 0.75275 0.71988 0.86649 0.0
H3379 H 0.76677 0.74017 0.8388 0.0
H3380 H 0.82668 0.78791 0.85376 0.0
H3381 H 0.83011 0.77998 0.89036 0.0
C3382 C 0.80195 0.75117 0.90723 0.0
C3383 C 0.78569 0.73581 0.9139 0.0
C3384 C 0.80038 0.75555 0.88596 0.0
C3385 C 0.76811 0.72466 0.89873 0.0
C3386 C 0.76655 0.7288 0.87766 0.0
C3387 C 0.78068 0.74881 0.84996 0.0
C3388 C 0.79644 0.76464 0.84332 0.0
C3389 C 0.78249 0.74428 0.87109 0.0
C3390 C 0.81426 0.77564 0.85826 0.0
C3391 C 0.81623 0.77112 0.87928 0.0
H3392 H 0.84739 0.07275 0.97857 0.0
H3393 H 0.8358 0.05571 0.04035 0.0
H3394 H 0.8558 0.02882 0.03596 0.0
H3395 H 0.88138 0.01479 0.01732 0.0
H3396 H 0.89586 0.03412 0.95702 0.0
H3397 H 0.86939 0.05487 0.95756 0.0
C3398 C 0.84883 0.06269 0.99073 0.0
C3399 C 0.8405 0.06619 0.00982 0.0
C3400 C 0.86096 0.04781 0.98839 0.0
C3401 C 0.84238 0.05328 0.02563 0.0
C3402 C 0.8538 0.03799 0.02314 0.0
C3403 C 0.87842 0.02325 0.00413 0.0
C3404 C 0.89075 0.0233 0.98739 0.0
C3405 C 0.86394 0.03582 0.00502 0.0
C3406 C 0.88654 0.03389 0.97012 0.0
C3407 C 0.87158 0.04593 0.97053 0.0
H3408 H 0.40674 0.48014 0.05511 0.0
H3409 H 0.41342 0.42455 0.01607 0.0
H3410 H 0.44952 0.44318 0.01163 0.0
H3411 H 0.479 0.47513 0.01843 0.0
H3412 H 0.47275 0.53131 0.0569 0.0
H3413 H 0.43673 0.5126 0.06193 0.0
C3414 C 0.4162 0.47211 0.04577 0.0
C3415 C 0.40738 0.451 0.03588 0.0
C3416 C 0.43697 0.48304 0.04308 0.0
C3417 C 0.41974 0.44085 0.02365 0.0
C3418 C 0.44041 0.45148 0.02115 0.0
C3419 C 0.46983 0.48338 0.02793 0.0
C3420 C 0.47867 0.50466 0.03725 0.0
C3421 C 0.44914 0.47258 0.03068 0.0
C3422 C 0.46639 0.51498 0.04945 0.0
C3423 C 0.44578 0.50426 0.05239 0.0
H3424 H 0.37279 0.61183 0.75136 0.0
H3425 H 0.39863 0.62425 0.81808 0.0
H3426 H 0.37806 0.65023 0.82437 0.0
H3427 H 0.35246 0.66936 0.81118 0.0
H3428 H 0.32696 0.6576 0.74446 0.0
H3429 H 0.34801 0.63192 0.7379 0.0
C3430 C 0.37414 0.62038 0.76724 0.0
C3431 C 0.38716 0.61581 0.78423 0.0
C3432 C 0.36233 0.63554 0.77078 0.0
C3433 C 0.38845 0.62701 0.80474 0.0
C3434 C 0.37677 0.64202 0.80836 0.0
C3435 C 0.3514 0.6611 0.79521 0.0
C3436 C 0.33804 0.66539 0.77837 0.0
C3437 C 0.36353 0.64631 0.79155 0.0
C3438 C 0.33722 0.65478 0.75771 0.0
C3439 C 0.34918 0.63999 0.75396 0.0
H3440 H 0.18343 0.58565 0.55503 0.0
H3441 H 0.173 0.59503 0.48929 0.0
H3442 H 0.13494 0.57829 0.48747 0.0
H3443 H 0.10451 0.56314 0.50525 0.0
H3444 H 0.115 0.55441 0.5713 0.0
H3445 H 0.15327 0.5685 0.57218 0.0
C3446 C 0.17289 0.58362 0.54019 0.0
C3447 C 0.18094 0.59158 0.52235 0.0
C3448 C 0.15106 0.57426 0.53935 0.0
C3449 C 0.16707 0.58918 0.5033 0.0
C3450 C 0.14536 0.57962 0.50224 0.0
C3451 C 0.11514 0.56418 0.51982 0.0
C3452 C 0.10684 0.5579 0.53822 0.0
C3453 C 0.13713 0.57248 0.5203 0.0
C3454 C 0.12091 0.55925 0.55692 0.0
C3455 C 0.14282 0.56731 0.55746 0.0
H3456 H 0.7195 0.94544 0.79157 0.0
H3457 H 0.75725 0.9734 0.74544 0.0
H3458 H 0.78347 0.9537 0.75418 0.0
H3459 H 0.79518 0.92785 0.77427 0.0
H3460 H 0.7578 0.90065 0.8209 0.0
H3461 H 0.73244 0.92166 0.81336 0.0
C3462 C 0.73361 0.94752 0.78364 0.0
C3463 C 0.73626 0.96073 0.76773 0.0
C3464 C 0.74885 0.93654 0.78905 0.0
C3465 C 0.75452 0.96294 0.75739 0.0
C3466 C 0.76966 0.95187 0.76253 0.0
C3467 C 0.78156 0.92669 0.78287 0.0
C3468 C 0.7783 0.91276 0.79806 0.0
C3469 C 0.76689 0.93852 0.77822 0.0
C3470 C 0.76076 0.9115 0.80931 0.0
C3471 C 0.74613 0.92331 0.80485 0.0
H3472 H 0.72928 0.96296 0.5319 0.0
H3473 H 0.68278 0.90433 0.5343 0.0
H3474 H 0.6544 0.92276 0.5327 0.0
H3475 H 0.64284 0.95581 0.53154 0.0
H3476 H 0.68978 0.0145 0.5303 0.0
H3477 H 0.7178 0.99577 0.53054 0.0
C3478 C 0.71297 0.9542 0.53223 0.0
C3479 C 0.70826 0.93226 0.53332 0.0
C3480 C 0.69673 0.96494 0.53149 0.0
C3481 C 0.68691 0.92116 0.53326 0.0
C3482 C 0.67065 0.93173 0.53249 0.0
C3483 C 0.65921 0.96453 0.53143 0.0
C3484 C 0.66409 0.98658 0.53085 0.0
C3485 C 0.67539 0.95366 0.53176 0.0
C3486 C 0.68541 0.99751 0.53041 0.0
C3487 C 0.70152 0.98683 0.5307 0.0
H3488 H 0.3539 0.42686 0.78474 0.0
H3489 H 0.38472 0.40418 0.73369 0.0
H3490 H 0.36205 0.36822 0.73224 0.0
H3491 H 0.33451 0.34295 0.74657 0.0
H3492 H 0.30255 0.36593 0.79659 0.0
H3493 H 0.32444 0.40201 0.79724 0.0
C3494 C 0.35555 0.41402 0.77326 0.0
C3495 C 0.37103 0.41809 0.75943 0.0
C3496 C 0.34226 0.39345 0.77234 0.0
C3497 C 0.37286 0.40142 0.74444 0.0
C3498 C 0.35996 0.38086 0.74367 0.0
C3499 C 0.33224 0.35587 0.75753 0.0
C3500 C 0.31699 0.35169 0.77161 0.0
C3501 C 0.34475 0.37664 0.75768 0.0
C3502 C 0.3141 0.36868 0.78553 0.0
C3503 C 0.3267 0.38932 0.78599 0.0
H3504 H 0.23216 0.65174 0.28063 0.0
H3505 H 0.23114 0.64638 0.21246 0.0
H3506 H 0.24873 0.68429 0.21573 0.0
H3507 H 0.26343 0.7188 0.23785 0.0
H3508 H 0.26341 0.72448 0.306 0.0
H3509 H 0.24719 0.68636 0.30286 0.0
C3510 C 0.23608 0.65885 0.26654 0.0
C3511 C 0.23059 0.64638 0.24635 0.0
C3512 C 0.24585 0.68061 0.26854 0.0
C3513 C 0.23525 0.65577 0.22814 0.0
C3514 C 0.24529 0.67737 0.23001 0.0
C3515 C 0.26 0.71173 0.25207 0.0
C3516 C 0.26465 0.72446 0.27215 0.0
C3517 C 0.2505 0.68994 0.25012 0.0
C3518 C 0.25994 0.71504 0.29036 0.0
C3519 C 0.2507 0.69326 0.28858 0.0
H3520 H 0.54533 0.67399 0.5004 0.0
H3521 H 0.47765 0.64915 0.48096 0.0
H3522 H 0.47968 0.6149 0.49129 0.0
H3523 H 0.50081 0.59108 0.50581 0.0
H3524 H 0.56845 0.61687 0.52532 0.0
H3525 H 0.566 0.65093 0.51543 0.0
C3526 C 0.53088 0.66127 0.49858 0.0
C3527 C 0.51135 0.66468 0.48964 0.0
C3528 C 0.53209 0.64132 0.50469 0.0
C3529 C 0.49307 0.6474 0.48733 0.0
C3530 C 0.49417 0.62762 0.49342 0.0
C3531 C 0.51502 0.60414 0.50801 0.0
C3532 C 0.53484 0.60088 0.51644 0.0
C3533 C 0.51362 0.62423 0.50208 0.0
C3534 C 0.55292 0.61837 0.51893 0.0
C3535 C 0.55159 0.63811 0.51323 0.0
H3536 H 0.68831 0.29334 0.67021 0.0
H3537 H 0.65465 0.31543 0.7192 0.0
H3538 H 0.68269 0.31314 0.74655 0.0
H3539 H 0.71658 0.30432 0.75703 0.0
H3540 H 0.75038 0.28198 0.70833 0.0
H3541 H 0.72255 0.28471 0.68076 0.0
C3542 C 0.687 0.29756 0.68686 0.0
C3543 C 0.66918 0.3047 0.69238 0.0
C3544 C 0.70328 0.29609 0.70275 0.0
C3545 C 0.66816 0.31028 0.71419 0.0
C3546 C 0.68419 0.30881 0.72997 0.0
C3547 C 0.71794 0.30003 0.7404 0.0
C3548 C 0.73572 0.29286 0.73497 0.0
C3549 C 0.70182 0.30169 0.72449 0.0
C3550 C 0.737 0.2875 0.71319 0.0
C3551 C 0.72102 0.28906 0.69733 0.0
H3552 H 0.04958 0.40336 0.99196 0.0
H3553 H 0.98303 0.38582 0.99986 0.0
H3554 H 0.98355 0.42317 0.00823 0.0
H3555 H 1.00281 0.4615 0.01342 0.0
H3556 H 0.06957 0.47865 0.00619 0.0
H3557 H 0.06891 0.44135 0.99781 0.0
C3558 C 0.03519 0.40757 0.99573 0.0
C3559 C 0.01624 0.39131 0.99502 0.0
C3560 C 0.03556 0.42937 1.0007 0.0
C3561 C 0.99783 0.39762 0.99978 0.0
C3562 C 0.99811 0.41915 0.00473 0.0
C3563 C 0.01723 0.45713 0.00997 0.0
C3564 C 0.0362 0.4733 0.01049 0.0
C3565 C 0.01685 0.43528 0.00516 0.0
C3566 C 0.05465 0.46693 0.00601 0.0
C3567 C 0.05433 0.44542 1.00117 0.0
H3568 H 0.96115 0.8062 0.17331 0.0
H3569 H 0.99775 0.77261 0.21011 0.0
H3570 H 0.97107 0.76717 0.2344 0.0
H3571 H 0.9374 0.77208 0.24555 0.0
H3572 H 0.90029 0.80497 0.20835 0.0
H3573 H 0.92722 0.81091 0.18439 0.0
C3574 C 0.96339 0.79783 0.18673 0.0
C3575 C 0.98152 0.78977 0.1897 0.0
C3576 C 0.94788 0.7947 0.20075 0.0
C3577 C 0.98389 0.77874 0.20712 0.0
C3578 C 0.96866 0.77571 0.22115 0.0
C3579 C 0.93503 0.78038 0.23211 0.0
C3580 C 0.91669 0.7881 0.22899 0.0
C3581 C 0.95053 0.78355 0.21811 0.0
C3582 C 0.91429 0.79912 0.21154 0.0
C3583 C 0.92967 0.80241 0.19766 0.0
H3584 H 0.54466 0.33486 0.10069 0.0
H3585 H 0.51181 0.36364 0.1462 0.0
H3586 H 0.51466 0.3942 0.12703 0.0
H3587 H 0.52746 0.41339 0.09785 0.0
H3588 H 0.55965 0.38401 0.052 0.0
H3589 H 0.5564 0.35345 0.07096 0.0
C3590 C 0.53821 0.34786 0.10649 0.0
C3591 C 0.52805 0.34686 0.12493 0.0
C3592 C 0.5399 0.36545 0.09537 0.0
C3593 C 0.51951 0.36379 0.13196 0.0
C3594 C 0.52124 0.38137 0.12105 0.0
C3595 C 0.53356 0.40022 0.09183 0.0
C3596 C 0.54401 0.4013 0.07354 0.0
C3597 C 0.53146 0.38243 0.10275 0.0
C3598 C 0.55195 0.38401 0.06623 0.0
C3599 C 0.54997 0.36637 0.07701 0.0
H3600 H 0.93447 0.32741 0.29765 0.0
H3601 H 0.92633 0.27395 0.33239 0.0
H3602 H 0.88772 0.26697 0.32421 0.0
H3603 H 0.85573 0.27591 0.30744 0.0
H3604 H 0.86347 0.32892 0.27212 0.0
H3605 H 0.90224 0.33612 0.28036 0.0
C3606 C 0.9243 0.31426 0.30351 0.0
C3607 C 0.93371 0.30118 0.31558 0.0
C3608 C 0.90176 0.31021 0.29867 0.0
C3609 C 0.91992 0.28414 0.32278 0.0
C3610 C 0.89766 0.28018 0.31822 0.0
C3611 C 0.86583 0.28911 0.30155 0.0
C3612 C 0.85634 0.30188 0.28918 0.0
C3613 C 0.88833 0.29308 0.30619 0.0
C3614 C 0.87002 0.31875 0.28164 0.0
C3615 C 0.89233 0.32291 0.28639 0.0
H3616 H 0.04538 0.66746 0.60886 0.0
H3617 H 0.99824 0.6339 0.64387 0.0
H3618 H 0.99979 0.6 0.62442 0.0
H3619 H 0.01469 0.57962 0.59715 0.0
H3620 H 0.06125 0.61403 0.56198 0.0
H3621 H 0.05995 0.64749 0.58191 0.0
C3622 C 0.03552 0.65275 0.6124 0.0
C3623 C 0.02175 0.6534 0.62794 0.0
C3624 C 0.03644 0.63328 0.60108 0.0
C3625 C 1.00886 0.63405 0.6319 0.0
C3626 C 1.00983 0.61458 0.62084 0.0
C3627 C 0.02462 0.59444 0.59394 0.0
C3628 C 0.03808 0.59413 0.578 0.0
C3629 C 0.02359 0.61394 0.60536 0.0
C3630 C 0.05068 0.61361 0.57402 0.0
C3631 C 0.04996 0.63286 0.58545 0.0
H3632 H 0.64982 0.78615 0.79599 0.0
H3633 H 0.67908 0.83578 0.84851 0.0
H3634 H 0.71433 0.8342 0.8402 0.0
H3635 H 0.73763 0.81816 0.81854 0.0
H3636 H 0.70822 0.76832 0.76627 0.0
H3637 H 0.67298 0.77055 0.77407 0.0
C3638 C 0.66383 0.7966 0.80577 0.0
C3639 C 0.66126 0.81118 0.82293 0.0
C3640 C 0.68443 0.79558 0.80093 0.0
C3641 C 0.68004 0.82463 0.835 0.0
C3642 C 0.70044 0.82363 0.83033 0.0
C3643 C 0.72355 0.80784 0.80873 0.0
C3644 C 0.72601 0.79307 0.79171 0.0
C3645 C 0.70294 0.80914 0.81336 0.0
C3646 C 0.70724 0.7799 0.77941 0.0
C3647 C 0.68688 0.78113 0.78391 0.0
H3648 H 0.51625 0.56534 0.66703 0.0
H3649 H 0.47308 0.50291 0.65051 0.0
H3650 H 0.48126 0.50149 0.61404 0.0
H3651 H 0.50093 0.51762 0.58654 0.0
H3652 H 0.54425 0.57995 0.60289 0.0
H3653 H 0.53546 0.5818 0.63925 0.0
C3654 C 0.50848 0.55146 0.65546 0.0
C3655 C 0.49415 0.53418 0.66187 0.0
C3656 C 0.51322 0.55073 0.63425 0.0
C3657 C 0.4845 0.51631 0.64643 0.0
C3658 C 0.48904 0.51554 0.62539 0.0
C3659 C 0.50835 0.53171 0.59797 0.0
C3660 C 0.52324 0.54864 0.59174 0.0
C3661 C 0.50342 0.5326 0.61909 0.0
C3662 C 0.53273 0.56665 0.60702 0.0
C3663 C 0.52774 0.56772 0.62793 0.0
H3664 H 0.7642 0.2438 0.9804 0.0
H3665 H 0.82597 0.24319 0.96217 0.0
H3666 H 0.81927 0.26247 0.93273 0.0
H3667 H 0.79433 0.27575 0.91006 0.0
H3668 H 0.73304 0.27741 0.92892 0.0
H3669 H 0.74138 0.26174 0.96066 0.0
C3670 C 0.7765 0.24838 0.97042 0.0
C3671 C 0.79546 0.24178 0.97337 0.0
C3672 C 0.77259 0.25951 0.95358 0.0
C3673 C 0.81103 0.24764 0.95999 0.0
C3674 C 0.80727 0.25876 0.94321 0.0
C3675 C 0.78302 0.27333 0.92141 0.0
C3676 C 0.76298 0.27755 0.91697 0.0
C3677 C 0.78786 0.26424 0.93952 0.0
C3678 C 0.74843 0.27395 0.93175 0.0
C3679 C 0.75319 0.26502 0.94991 0.0
H3680 H 0.12202 0.51765 0.14046 0.0
H3681 H 0.06331 0.47887 0.15505 0.0
H3682 H 0.04412 0.48507 0.1222 0.0
H3683 H 0.04376 0.50427 0.09117 0.0
H3684 H 0.10286 0.54407 0.07809 0.0
H3685 H 0.12216 0.53462 0.10858 0.0
C3686 C 0.10515 0.50999 0.13615 0.0
C3687 C 0.09409 0.49772 0.15003 0.0
C3688 C 0.09422 0.51417 0.11775 0.0
C3689 C 0.07212 0.48836 0.14452 0.0
C3690 C 0.06116 0.49202 0.12586 0.0
C3691 C 0.06086 0.51085 0.09498 0.0
C3692 C 0.07175 0.52511 0.08252 0.0
C3693 C 0.07196 0.50543 0.11269 0.0
C3694 C 0.09397 0.53329 0.08754 0.0
C3695 C 0.10509 0.52782 0.10493 0.0
H3696 H 0.78033 0.83826 0.41653 0.0
H3697 H 0.82278 0.80065 0.43587 0.0
H3698 H 0.82603 0.79004 0.39847 0.0
H3699 H 0.81647 0.7913 0.35971 0.0
H3700 H 0.77446 0.83008 0.3417 0.0
H3701 H 0.77147 0.8401 0.37872 0.0
C3702 C 0.79013 0.82755 0.41261 0.0
C3703 C 0.80111 0.82017 0.42912 0.0
C3704 C 0.79213 0.82171 0.39108 0.0
C3705 C 0.81414 0.80667 0.42358 0.0
C3706 C 0.81599 0.80055 0.40213 0.0
C3707 C 0.80677 0.80202 0.36389 0.0
C3708 C 0.79577 0.80981 0.34758 0.0
C3709 C 0.80507 0.80799 0.38564 0.0
C3710 C 0.78324 0.82371 0.35357 0.0
C3711 C 0.78141 0.8295 0.37491 0.0
H3712 H 0.5182 0.51096 0.88451 0.0
H3713 H 0.49293 0.56591 0.89323 0.0
H3714 H 0.50183 0.56894 0.9317 0.0
H3715 H 0.51598 0.55575 0.96319 0.0
H3716 H 0.54145 0.50093 0.95508 0.0
H3717 H 0.53315 0.49807 0.91635 0.0
C3718 C 0.51459 0.52358 0.8948 0.0
C3719 C 0.50497 0.53825 0.8857 0.0
C3720 C 0.5197 0.52523 0.91718 0.0
C3721 C 0.50066 0.55459 0.8995 0.0
C3722 C 0.50559 0.55625 0.92164 0.0
C3723 C 0.51973 0.54312 0.95302 0.0
C3724 C 0.52928 0.52851 0.96226 0.0
C3725 C 0.51502 0.54163 0.93069 0.0
C3726 C 0.53413 0.51242 0.9486 0.0
C3727 C 0.52934 0.51076 0.92637 0.0
H3728 H 0.80902 0.23518 0.14378 0.0
H3729 H 0.82975 0.18858 0.17722 0.0
H3730 H 0.82479 0.20711 0.21115 0.0
H3731 H 0.81299 0.2355 0.23078 0.0
H3732 H 0.7915 0.28162 0.19696 0.0
H3733 H 0.79856 0.26433 0.16355 0.0
C3734 C 0.81289 0.22934 0.15854 0.0
C3735 C 0.8199 0.21068 0.1581 0.0
C3736 C 0.8097 0.23984 0.1778 0.0
C3737 C 0.82433 0.20294 0.17725 0.0
C3738 C 0.82148 0.2135 0.19658 0.0
C3739 C 0.80991 0.24186 0.21614 0.0
C3740 C 0.80161 0.25977 0.21638 0.0
C3741 C 0.81387 0.23178 0.19698 0.0
C3742 C 0.7978 0.26781 0.19724 0.0
C3743 C 0.80184 0.25795 0.17812 0.0
H3744 H 0.11873 0.58513 0.35907 0.0
H3745 H 0.06825 0.53083 0.32925 0.0
H3746 H 0.04799 0.53513 0.35886 0.0
H3747 H 0.0459 0.55286 0.39422 0.0
H3748 H 0.09686 0.60644 0.42455 0.0
H3749 H 0.11565 0.60416 0.39346 0.0
C3750 C 0.10313 0.57447 0.35891 0.0
C3751 C 0.09497 0.55766 0.34214 0.0
C3752 C 0.09174 0.57692 0.37601 0.0
C3753 C 0.07491 0.54372 0.3422 0.0
C3754 C 0.06332 0.54623 0.35903 0.0
C3755 C 0.0609 0.56429 0.39378 0.0
C3756 C 0.07004 0.57981 0.41148 0.0
C3757 C 0.07174 0.56257 0.37615 0.0
C3758 C 0.08965 0.59433 0.41103 0.0
C3759 C 0.10036 0.593 0.39333 0.0
H3760 H 0.78007 0.79939 0.64176 0.0
H3761 H 0.80182 0.86622 0.66613 0.0
H3762 H 0.79982 0.85832 0.70242 0.0
H3763 H 0.79252 0.83233 0.72776 0.0
H3764 H 0.77035 0.76558 0.70298 0.0
H3765 H 0.77152 0.77366 0.66676 0.0
C3766 C 0.78416 0.8123 0.65493 0.0
C3767 C 0.7913 0.83341 0.65092 0.0
C3768 C 0.78285 0.80767 0.67594 0.0
C3769 C 0.79672 0.84977 0.66849 0.0
C3770 C 0.79542 0.84529 0.68937 0.0
C3771 C 0.78776 0.81955 0.71445 0.0
C3772 C 0.78137 0.79833 0.71836 0.0
C3773 C 0.78862 0.82427 0.69337 0.0
C3774 C 0.7754 0.78206 0.70072 0.0
C3775 C 0.77608 0.78665 0.67986 0.0
H3776 H 0.71261 0.48104 0.56189 0.0
H3777 H 0.75477 0.52931 0.53469 0.0
H3778 H 0.73418 0.55452 0.54461 0.0
H3779 H 0.70206 0.56157 0.5577 0.0
H3780 H 0.6602 0.51303 0.58475 0.0
H3781 H 0.6835 0.48953 0.57912 0.0
C3782 C 0.71773 0.49722 0.55863 0.0
C3783 C 0.73503 0.50313 0.54723 0.0
C3784 C 0.70591 0.51164 0.56443 0.0
C3785 C 0.74119 0.52415 0.54295 0.0
C3786 C 0.72951 0.53863 0.54873 0.0
C3787 C 0.69826 0.54595 0.56262 0.0
C3788 C 0.67939 0.53896 0.57143 0.0
C3789 C 0.71147 0.53234 0.55891 0.0
C3790 C 0.67473 0.51884 0.57806 0.0
C3791 C 0.68792 0.5053 0.57464 0.0
H3792 H 0.17322 0.10147 0.52008 0.0
H3793 H 0.1471 0.15208 0.50093 0.0
H3794 H 0.11111 0.13052 0.50154 0.0
H3795 H 0.08709 0.09809 0.50911 0.0
H3796 H 0.11305 0.04784 0.52954 0.0
H3797 H 0.14901 0.06859 0.52701 0.0
C3798 C 0.15968 0.10786 0.51614 0.0
C3799 C 0.163 0.12845 0.51049 0.0
C3800 C 0.13895 0.09547 0.51683 0.0
C3801 C 0.14514 0.13623 0.50506 0.0
C3802 C 0.1245 0.12395 0.50556 0.0
C3803 C 0.10056 0.09154 0.51289 0.0
C3804 C 0.09728 0.07139 0.51956 0.0
C3805 C 0.12123 0.10364 0.51161 0.0
C3806 C 0.11503 0.06329 0.5244 0.0
C3807 C 0.13564 0.07517 0.52298 0.0
H3808 H 0.18192 0.9417 0.79288 0.0
H3809 H 0.22263 0.98745 0.76182 0.0
H3810 H 0.24632 0.96407 0.75741 0.0
H3811 H 0.25575 0.93079 0.76262 0.0
H3812 H 0.21438 0.88436 0.79253 0.0
H3813 H 0.19107 0.90798 0.79752 0.0
C3814 C 0.19605 0.9466 0.78528 0.0
C3815 C 0.20043 0.96632 0.77767 0.0
C3816 C 0.2096 0.93298 0.78266 0.0
C3817 C 0.21871 0.97228 0.76761 0.0
C3818 C 0.23234 0.95895 0.76516 0.0
C3819 C 0.24152 0.92567 0.77001 0.0
C3820 C 0.23701 0.90574 0.77723 0.0
C3821 C 0.22792 0.93923 0.77256 0.0
C3822 C 0.21859 0.89969 0.78711 0.0
C3823 C 0.2051 0.91315 0.78985 0.0
H3824 H 0.39036 0.99477 0.0056 0.0
H3825 H 0.39537 0.95712 0.05626 0.0
H3826 H 0.43385 0.97269 0.06334 0.0
H3827 H 0.46643 0.9954 0.05353 0.0
H3828 H 0.46108 0.03065 1.00094 0.0
H3829 H 0.42241 0.01739 0.99605 0.0
C3830 C 0.39985 0.98979 0.01807 0.0
C3831 C 0.38999 0.97469 0.03025 0.0
C3832 C 0.42195 0.99832 0.02165 0.0
C3833 C 0.40251 0.96887 0.04674 0.0
C3834 C 0.42454 0.97765 0.05071 0.0
C3835 C 0.45673 1.00029 0.04116 0.0
C3836 C 0.46651 0.01386 0.02755 0.0
C3837 C 0.43447 0.9922 0.03808 0.0
C3838 C 0.45386 0.02002 0.01148 0.0
C3839 C 0.43177 0.01249 0.00868 0.0
H3840 H 0.78871 0.58845 0.81208 0.0
H3841 H 0.83888 0.63891 0.84907 0.0
H3842 H 0.81664 0.66376 0.84548 0.0
H3843 H 0.78671 0.67237 0.82517 0.0
H3844 H 0.7376 0.62241 0.78597 0.0
H3845 H 0.75562 0.59602 0.7971 0.0
C3846 C 0.79451 0.60479 0.81977 0.0
C3847 C 0.81548 0.61203 0.83042 0.0
C3848 C 0.78201 0.6191 0.81688 0.0
C3849 C 0.82279 0.63305 0.84073 0.0
C3850 C 0.81017 0.64728 0.83848 0.0
C3851 C 0.77949 0.65565 0.81968 0.0
C3852 C 0.76106 0.64935 0.80447 0.0
C3853 C 0.79026 0.64071 0.82562 0.0
C3854 C 0.752 0.62763 0.79738 0.0
C3855 C 0.7623 0.61257 0.80371 0.0
H3856 H 0.85361 0.60478 0.04506 0.0
H3857 H 0.89341 0.65134 0.01404 0.0
H3858 H 0.92136 0.63245 0.01661 0.0
H3859 H 0.9348 0.603 0.02809 0.0
H3860 H 0.89458 0.55591 0.0583 0.0
H3861 H 0.86689 0.57504 0.05613 0.0
C3862 C 0.86846 0.61089 0.03899 0.0
C3863 C 0.87133 0.62948 0.02935 0.0
C3864 C 0.88453 0.59994 0.04052 0.0
C3865 C 0.8906 0.63695 0.0213 0.0
C3866 C 0.90668 0.62622 0.02288 0.0
C3867 C 0.91991 0.59675 0.03402 0.0
C3868 C 0.91696 0.57799 0.04343 0.0
C3869 C 0.90382 0.60768 0.03244 0.0
C3870 C 0.89759 0.57046 0.05132 0.0
C3871 C 0.88161 0.58132 0.04993 0.0
H3872 H 0.23241 0.15404 0.80239 0.0
H3873 H 0.17257 0.16792 0.78234 0.0
H3874 H 0.1914 0.20352 0.77744 0.0
H3875 H 0.22456 0.23057 0.77823 0.0
H3876 H 0.28483 0.21747 0.798 0.0
H3877 H 0.26612 0.18171 0.8034 0.0
C3878 C 0.22351 0.16483 0.79688 0.0
C3879 C 0.20103 0.15825 0.79291 0.0
C3880 C 0.2345 0.18542 0.79394 0.0
C3881 C 0.1898 0.17258 0.78594 0.0
C3882 C 0.20057 0.19294 0.78295 0.0
C3883 C 0.23372 0.21995 0.78367 0.0
C3884 C 0.25615 0.22678 0.78758 0.0
C3885 C 0.22289 0.19951 0.78684 0.0
C3886 C 0.26758 0.21271 0.79482 0.0
C3887 C 0.25687 0.19222 0.79791 0.0
H3888 H 0.36338 0.92631 0.29025 0.0
H3889 H 0.31653 0.93489 0.33111 0.0
H3890 H 0.2973 0.89752 0.32098 0.0
H3891 H 0.29474 0.86223 0.30168 0.0
H3892 H 0.34266 0.85348 0.2622 0.0
H3893 H 0.3607 0.89124 0.27079 0.0
C3894 C 0.34911 0.91995 0.29718 0.0
C3895 C 0.34153 0.93326 0.31162 0.0
C3896 C 0.33835 0.8985 0.2915 0.0
C3897 C 0.32266 0.92495 0.31994 0.0
C3898 C 0.31171 0.9036 0.3142 0.0
C3899 C 0.30901 0.86863 0.29478 0.0
C3900 C 0.31738 0.85513 0.28134 0.0
C3901 C 0.3195 0.89022 0.30011 0.0
C3902 C 0.33597 0.86357 0.27266 0.0
C3903 C 0.34629 0.88512 0.27758 0.0
H3904 H 0.58294 0.42673 0.58104 0.0
H3905 H 0.52676 0.3886 0.53991 0.0
H3906 H 0.5202 0.42035 0.52707 0.0
H3907 H 0.52988 0.45963 0.52747 0.0
H3908 H 0.58631 0.49749 0.56841 0.0
H3909 H 0.59313 0.46565 0.58074 0.0
C3910 C 0.56934 0.42518 0.56911 0.0
C3911 C 0.55534 0.40477 0.56182 0.0
C3912 C 0.56557 0.44379 0.56153 0.0
C3913 C 0.53773 0.40374 0.54641 0.0
C3914 C 0.53398 0.42206 0.53883 0.0
C3915 C 0.54376 0.46098 0.53899 0.0
C3916 C 0.55747 0.4814 0.54683 0.0
C3917 C 0.54769 0.44229 0.54631 0.0
C3918 C 0.57529 0.48235 0.56191 0.0
C3919 C 0.57928 0.46398 0.56908 0.0
H3920 H 0.38999 0.78416 0.38449 0.0
H3921 H 0.41573 0.75045 0.3359 0.0
H3922 H 0.38693 0.75254 0.30927 0.0
H3923 H 0.35467 0.76464 0.29924 0.0
H3924 H 0.3297 0.79937 0.34767 0.0
H3925 H 0.35792 0.79638 0.37449 0.0
C3926 C 0.38948 0.77738 0.36807 0.0
C3927 C 0.40524 0.76706 0.36249 0.0
C3928 C 0.37291 0.77888 0.3526 0.0
C3929 C 0.40382 0.75815 0.34101 0.0
C3930 C 0.38736 0.75949 0.32562 0.0
C3931 C 0.35533 0.77154 0.31566 0.0
C3932 C 0.33986 0.78223 0.32124 0.0
C3933 C 0.37182 0.76987 0.33117 0.0
C3934 C 0.3412 0.79104 0.3427 0.0
C3935 C 0.35743 0.78935 0.35815 0.0
H3936 H 0.04515 0.67486 0.08542 0.0
H3937 H 0.07731 0.6948 0.03261 0.0
H3938 H 0.07674 0.65807 0.02015 0.0
H3939 H 0.06666 0.61957 0.02368 0.0
H3940 H 0.03342 0.60001 0.07597 0.0
H3941 H 0.0347 0.63678 0.08868 0.0
C3942 C 0.05185 0.67132 0.07103 0.0
C3943 C 0.06133 0.68812 0.06018 0.0
C3944 C 0.0513 0.64988 0.06368 0.0
C3945 C 0.0702 0.68267 0.04172 0.0
C3946 C 0.06976 0.66146 0.03441 0.0
C3947 C 0.05977 0.62331 0.03792 0.0
C3948 C 0.04999 0.60663 0.04876 0.0
C3949 C 0.06037 0.64483 0.04523 0.0
C3950 C 0.04107 0.61216 0.06712 0.0
C3951 C 0.04177 0.63335 0.07449 0.0
H3952 H 0.11859 0.30053 0.89526 0.0
H3953 H 0.07188 0.25817 0.84641 0.0
H3954 H 0.09864 0.25981 0.82228 0.0
H3955 H 0.13547 0.27302 0.81488 0.0
H3956 H 0.18232 0.31481 0.86392 0.0
H3957 H 0.15556 0.31312 0.88814 0.0
C3958 C 0.11425 0.29144 0.87943 0.0
C3959 C 0.09304 0.27935 0.87278 0.0
C3960 C 0.12985 0.29223 0.8656 0.0
C3961 C 0.08786 0.26797 0.85199 0.0
C3962 C 0.10324 0.26876 0.83816 0.0
C3963 C 0.13982 0.28187 0.83082 0.0
C3964 C 0.161 0.29401 0.83747 0.0
C3965 C 0.12428 0.28088 0.84474 0.0
C3966 C 0.1663 0.3051 0.85836 0.0
C3967 C 0.15093 0.30426 0.87223 0.0
H3968 H 0.5724 0.72825 0.9503 0.0
H3969 H 0.50583 0.71103 0.92383 0.0
H3970 H 0.49929 0.68085 0.94339 0.0
H3971 H 0.51227 0.659 0.96802 0.0
H3972 H 0.57889 0.67556 0.99395 0.0
H3973 H 0.58559 0.70579 0.97425 0.0
C3974 C 0.55649 0.71781 0.9486 0.0
C3975 C 0.53964 0.72226 0.93566 0.0
C3976 C 0.5528 0.70016 0.95977 0.0
C3977 C 0.5191 0.70849 0.93397 0.0
C3978 C 0.51533 0.69103 0.94506 0.0
C3979 C 0.52824 0.66928 0.96948 0.0
C3980 C 0.54502 0.6649 0.98254 0.0
C3981 C 0.53202 0.68674 0.95809 0.0
C3982 C 0.56568 0.6783 0.98388 0.0
C3983 C 0.56951 0.69572 0.97269 0.0
H3984 H 0.14286 0.74659 0.75028 0.0
H3985 H 0.15104 0.8119 0.74056 0.0
H3986 H 0.18963 0.81841 0.74921 0.0
H3987 H 0.22151 0.8057 0.75918 0.0
H3988 H 0.21362 0.74093 0.77066 0.0
H3989 H 0.17492 0.73418 0.7617 0.0
C3990 C 0.15307 0.76225 0.75003 0.0
C3991 C 0.14375 0.77872 0.74474 0.0
C3992 C 0.17552 0.76603 0.75532 0.0
C3993 C 0.15747 0.79894 0.74477 0.0
C3994 C 0.17968 0.80267 0.74961 0.0
C3995 C 0.21138 0.79006 0.75969 0.0
C3996 C 0.22075 0.77382 0.76549 0.0
C3997 C 0.18894 0.78636 0.75487 0.0
C3998 C 0.20709 0.75379 0.7663 0.0
C3999 C 0.18484 0.74989 0.76112 0.0
H4000 H 0.061 0.41624 0.47108 0.0
H4001 H 0.04301 0.44035 0.41367 0.0
H4002 H 0.03903 0.47226 0.43488 0.0
H4003 H 0.04009 0.49341 0.46995 0.0
H4004 H 0.05865 0.4693 0.52724 0.0
H4005 H 0.06273 0.43758 0.50598 0.0
C4006 C 0.05611 0.4284 0.46316 0.0
C4007 C 0.05235 0.42569 0.44067 0.0
C4008 C 0.05387 0.44687 0.47552 0.0
C4009 C 0.04631 0.44194 0.43086 0.0
C4010 C 0.04388 0.46022 0.44303 0.0
C4011 C 0.04502 0.48124 0.47782 0.0
C4012 C 0.04897 0.48395 0.50032 0.0
C4013 C 0.04755 0.46289 0.4654 0.0
C4014 C 0.05549 0.46789 0.51005 0.0
C4015 C 0.05783 0.44962 0.49786 0.0
H4016 H 0.42067 0.29815 0.24318 0.0
H4017 H 0.40388 0.2302 0.24159 0.0
H4018 H 0.36925 0.23142 0.25228 0.0
H4019 H 0.34278 0.2518 0.26177 0.0
H4020 H 0.36048 0.31983 0.26352 0.0
H4021 H 0.3949 0.31834 0.25309 0.0
C4022 C 0.40948 0.28351 0.24502 0.0
C4023 C 0.41537 0.26408 0.24145 0.0
C4024 C 0.38933 0.28428 0.25128 0.0
C4025 C 0.40034 0.2455 0.24439 0.0
C4026 C 0.38028 0.24615 0.25042 0.0
C4027 C 0.35414 0.26632 0.25992 0.0
C4028 C 0.34855 0.28594 0.26357 0.0
C4029 C 0.37446 0.26546 0.25391 0.0
C4030 C 0.36389 0.30445 0.261 0.0
C4031 C 0.38379 0.30365 0.25494 0.0
H4032 H 0.61437 0.54097 0.41441 0.0
H4033 H 0.55122 0.53352 0.3813 0.0
H4034 H 0.53654 0.53129 0.41481 0.0
H4035 H 0.54137 0.53184 0.45367 0.0
H4036 H 0.60435 0.53929 0.48712 0.0
H4037 H 0.6191 0.54072 0.45344 0.0
C4038 C 0.59736 0.53864 0.41442 0.0
C4039 C 0.58404 0.53756 0.39508 0.0
C4040 C 0.58888 0.53728 0.43393 0.0
C4041 C 0.56204 0.53482 0.39576 0.0
C4042 C 0.55355 0.53338 0.41499 0.0
C4043 C 0.55832 0.53363 0.45368 0.0
C4044 C 0.57164 0.53538 0.47314 0.0
C4045 C 0.56679 0.53467 0.4342 0.0
C4046 C 0.5936 0.53783 0.47256 0.0
C4047 C 0.6021 0.53871 0.45323 0.0
H4048 H 0.30755 0.86231 0.09428 0.0
H4049 H 0.24972 0.8642 0.12061 0.0
H4050 H 0.25959 0.84446 0.14881 0.0
H4051 H 0.28534 0.82792 0.16644 0.0
H4052 H 0.34285 0.82546 0.13971 0.0
H4053 H 0.33242 0.8442 0.11087 0.0
C4054 C 0.29719 0.85844 0.10628 0.0
C4055 C 0.27814 0.86488 0.10572 0.0
C4056 C 0.30291 0.84707 0.1222 0.0
C4057 C 0.2645 0.85941 0.12091 0.0
C4058 C 0.27017 0.84822 0.13698 0.0
C4059 C 0.29557 0.83156 0.15428 0.0
C4060 C 0.31494 0.82569 0.15519 0.0
C4061 C 0.28943 0.84218 0.13787 0.0
C4062 C 0.32791 0.82995 0.13921 0.0
C4063 C 0.32198 0.84069 0.12285 0.0
H4064 H 0.96514 0.57326 0.91751 0.0
H4065 H 1.00656 0.54824 0.87917 0.0
H4066 H 0.02829 0.54425 0.9114 0.0
H4067 H 0.03339 0.5449 0.95027 0.0
H4068 H 0.9911 0.56932 0.98812 0.0
H4069 H 0.97197 0.57669 0.95625 0.0
C4070 C 0.97924 0.56746 0.91622 0.0
C4071 C 0.98424 0.56102 0.89607 0.0
C4072 C 0.99133 0.56483 0.9347 0.0
C4073 C 1.00234 0.55316 0.89459 0.0
C4074 C 0.01472 0.55084 0.91297 0.0
C4075 C 0.02012 0.55201 0.95156 0.0
C4076 C 0.0135 0.55621 0.97151 0.0
C4077 C 1.00901 0.55609 0.9331 0.0
C4078 C 0.99634 0.56557 0.97293 0.0
C4079 C 0.9854 0.56989 0.95471 0.0
H4080 H 0.25493 0.25832 0.63394 0.0
H4081 H 0.32113 0.25758 0.63834 0.0
H4082 H 0.32542 0.26736 0.67699 0.0
H4083 H 0.31022 0.27503 0.70984 0.0
H4084 H 0.24458 0.27774 0.70571 0.0
H4085 H 0.24024 0.26838 0.66687 0.0
C4086 C 0.2703 0.26038 0.64337 0.0
C4087 C 0.28768 0.25716 0.63314 0.0
C4088 C 0.27275 0.2663 0.66572 0.0
C4089 C 0.30754 0.26012 0.64566 0.0
C4090 C 0.30998 0.2656 0.66783 0.0
C4091 C 0.29494 0.2736 0.70046 0.0
C4092 C 0.27768 0.2769 0.7108 0.0
C4093 C 0.29267 0.26857 0.67808 0.0
C4094 C 0.25814 0.27531 0.69826 0.0
C4095 C 0.25564 0.26988 0.67602 0.0
H4096 H 0.55773 0.51947 0.16957 0.0
H4097 H 0.6037 0.58038 0.17741 0.0
H4098 H 0.59445 0.58324 0.14007 0.0
H4099 H 0.57452 0.56775 0.10421 0.0
H4100 H 0.5305 0.50578 0.09617 0.0
H4101 H 0.53799 0.50407 0.13409 0.0
C4102 C 0.56591 0.53334 0.1632 0.0
C4103 C 0.58139 0.54969 0.17674 0.0
C4104 C 0.5609 0.53473 0.14137 0.0
C4105 C 0.5914 0.56764 0.16784 0.0
C4106 C 0.58626 0.56925 0.14627 0.0
C4107 C 0.5664 0.55399 0.11081 0.0
C4108 C 0.55193 0.53695 0.09719 0.0
C4109 C 0.57113 0.55284 0.13278 0.0
C4110 C 0.54178 0.51913 0.10611 0.0
C4111 C 0.54605 0.5181 0.12789 0.0
H4112 H 0.25754 0.81968 0.91269 0.0
H4113 H 0.24941 0.87628 0.88785 0.0
H4114 H 0.25461 0.86156 0.85273 0.0
H4115 H 0.26493 0.83456 0.82999 0.0
H4116 H 0.27646 0.77928 0.85501 0.0
H4117 H 0.26706 0.79194 0.88937 0.0
C4118 C 0.25695 0.82885 0.89964 0.0
C4119 C 0.25316 0.84914 0.90309 0.0
C4120 C 0.26096 0.82074 0.8796 0.0
C4121 C 0.25191 0.8605 0.88576 0.0
C4122 C 0.25519 0.85222 0.86566 0.0
C4123 C 0.26533 0.82516 0.84288 0.0
C4124 C 0.2716 0.8061 0.83997 0.0
C4125 C 0.26026 0.83265 0.86257 0.0
C4126 C 0.27189 0.79413 0.85687 0.0
C4127 C 0.26646 0.80132 0.8765 0.0
H4128 H 0.95278 0.51902 0.71922 0.0
H4129 H 0.94769 0.57741 0.69676 0.0
H4130 H 0.9712 0.57231 0.67018 0.0
H4131 H 0.99239 0.55078 0.65297 0.0
H4132 H 0.99717 0.49223 0.67531 0.0
H4133 H 0.97465 0.49795 0.7026 0.0
C4134 C 0.95667 0.5305 0.70833 0.0
C4135 C 0.94832 0.54838 0.70961 0.0
C4136 C 0.97016 0.52749 0.69326 0.0
C4137 C 0.95391 0.56349 0.69592 0.0
C4138 C 0.96729 0.56057 0.68076 0.0
C4139 C 0.9884 0.53923 0.66376 0.0
C4140 C 0.99621 0.52101 0.66206 0.0
C4141 C 0.97537 0.54255 0.67922 0.0
C4142 C 0.99138 0.5064 0.67641 0.0
C4143 C 0.97842 0.5096 0.69189 0.0
H4144 H 0.31238 0.2655 0.41323 0.0
H4145 H 0.24718 0.22785 0.39942 0.0
H4146 H 0.24579 0.23477 0.36257 0.0
H4147 H 0.2628 0.2519 0.33408 0.0
H4148 H 0.32763 0.29045 0.34799 0.0
H4149 H 0.3295 0.28253 0.38458 0.0
C4150 C 0.29789 0.25871 0.40215 0.0
C4151 C 0.27986 0.24625 0.40934 0.0
C4152 C 0.29714 0.26283 0.38081 0.0
C4153 C 0.2612 0.23779 0.39462 0.0
C4154 C 0.26043 0.24161 0.37341 0.0
C4155 C 0.27743 0.25842 0.34503 0.0
C4156 C 0.29509 0.27169 0.33809 0.0
C4157 C 0.27827 0.25415 0.3663 0.0
C4158 C 0.31378 0.28017 0.35273 0.0
C4159 C 0.31485 0.27568 0.37375 0.0
H4160 H 0.3716 0.5996 0.48475 0.0
H4161 H 0.36785 0.59555 0.55139 0.0
H4162 H 0.3888 0.56945 0.55054 0.0
H4163 H 0.40975 0.54933 0.53154 0.0
H4164 H 0.41494 0.55393 0.46529 0.0
H4165 H 0.39114 0.57762 0.46504 0.0
C4166 C 0.37525 0.59283 0.49899 0.0
C4167 C 0.36856 0.59975 0.51818 0.0
C4168 C 0.38736 0.57782 0.49841 0.0
C4169 C 0.37331 0.59086 0.53656 0.0
C4170 C 0.38512 0.57582 0.53605 0.0
C4171 C 0.40559 0.55546 0.51702 0.0
C4172 C 0.41421 0.55011 0.49854 0.0
C4173 C 0.3925 0.56946 0.51718 0.0
C4174 C 0.40837 0.55776 0.4797 0.0
C4175 C 0.39496 0.57146 0.47961 0.0
H4176 H 0.90009 0.98292 0.55053 0.0
H4177 H 0.92462 0.9285 0.55883 0.0
H4178 H 0.96063 0.94927 0.55663 0.0
H4179 H 0.98472 0.98209 0.54999 0.0
H4180 H 0.96099 0.03716 0.54283 0.0
H4181 H 0.92511 0.01705 0.54711 0.0
C4182 C 0.91339 0.97571 0.55201 0.0
C4183 C 0.90971 0.95418 0.55473 0.0
C4184 C 0.93413 0.98783 0.55085 0.0
C4185 C 0.92707 0.94506 0.55687 0.0
C4186 C 0.94764 0.9569 0.55549 0.0
C4187 C 0.97171 0.98973 0.54949 0.0
C4188 C 0.97539 0.01098 0.54583 0.0
C4189 C 0.95128 0.97816 0.55213 0.0
C4190 C 0.95852 0.02081 0.54562 0.0
C4191 C 0.938 0.00928 0.54796 0.0
H4192 H 0.86081 0.10341 0.29465 0.0
H4193 H 0.9117 0.1452 0.27021 0.0
H4194 H 0.89325 0.17338 0.27354 0.0
H4195 H 0.86234 0.18613 0.28284 0.0
H4196 H 0.81062 0.14348 0.30533 0.0
H4197 H 0.82971 0.11583 0.30322 0.0
C4198 C 0.86782 0.11858 0.2898 0.0
C4199 C 0.8877 0.12201 0.28215 0.0
C4200 C 0.85696 0.13469 0.29144 0.0
C4201 C 0.89662 0.14205 0.27644 0.0
C4202 C 0.88598 0.15819 0.27818 0.0
C4203 C 0.85512 0.17075 0.28712 0.0
C4204 C 0.83502 0.16708 0.29435 0.0
C4205 C 0.86608 0.15468 0.28558 0.0
C4206 C 0.82619 0.14704 0.3001 0.0
C4207 C 0.83704 0.13109 0.29874 0.0
H4208 H 0.67472 0.08571 0.06045 0.0
H4209 H 0.66712 0.12122 0.0084 0.0
H4210 H 0.62893 0.10457 0.00233 0.0
H4211 H 0.59773 0.07982 0.01166 0.0
H4212 H 0.60579 0.04256 0.06204 0.0
H4213 H 0.64399 0.05953 0.0684 0.0
C4214 C 0.66484 0.08961 0.04755 0.0
C4215 C 0.67388 0.10483 0.03501 0.0
C4216 C 0.643 0.07954 0.04372 0.0
C4217 C 0.66061 0.10993 0.01864 0.0
C4218 C 0.63877 0.10026 0.015 0.0
C4219 C 0.60786 0.07539 0.02401 0.0
C4220 C 0.59897 0.06005 0.03643 0.0
C4221 C 0.6298 0.08507 0.02746 0.0
C4222 C 0.61229 0.05428 0.05221 0.0
C4223 C 0.63411 0.06405 0.05592 0.0
H4224 H 0.22275 0.46284 0.31792 0.0
H4225 H 0.26348 0.48893 0.2732 0.0
H4226 H 0.28781 0.46742 0.28267 0.0
H4227 H 0.29534 0.43862 0.30077 0.0
H4228 H 0.25478 0.41251 0.34555 0.0
H4229 H 0.23273 0.43708 0.33928 0.0
C4230 C 0.23718 0.46419 0.31058 0.0
C4231 C 0.24113 0.47721 0.29465 0.0
C4232 C 0.25108 0.45178 0.31607 0.0
C4233 C 0.25983 0.47863 0.28516 0.0
C4234 C 0.27381 0.46645 0.29065 0.0
C4235 C 0.28206 0.43872 0.30964 0.0
C4236 C 0.27658 0.4237 0.32348 0.0
C4237 C 0.2693 0.45259 0.30569 0.0
C4238 C 0.25912 0.4238 0.33462 0.0
C4239 C 0.24651 0.43779 0.33101 0.0
H4240 H 0.22822 0.47342 0.01228 0.0
H4241 H 0.18623 0.42774 0.04246 0.0
H4242 H 0.15936 0.44776 0.03947 0.0
H4243 H 0.14762 0.47827 0.02837 0.0
H4244 H 0.19054 0.52512 1.00031 0.0
H4245 H 0.21707 0.50464 0.00252 0.0
C4246 C 0.21332 0.46791 0.01847 0.0
C4247 C 0.20939 0.44893 0.02751 0.0
C4248 C 0.19798 0.47973 0.01705 0.0
C4249 C 0.1897 0.44201 0.03504 0.0
C4250 C 0.17432 0.45357 0.03351 0.0
C4251 C 0.16286 0.4842 0.02297 0.0
C4252 C 0.16688 0.50328 0.01408 0.0
C4253 C 0.17827 0.47247 0.02456 0.0
C4254 C 0.1867 0.51037 0.00687 0.0
C4255 C 0.20201 0.49871 0.00825 0.0
H4256 H 0.87802 0.90676 0.24904 0.0
H4257 H 0.83624 0.94031 0.27732 0.0
H4258 H 0.81115 0.90657 0.28001 0.0
H4259 H 0.80246 0.86734 0.27679 0.0
H4260 H 0.84599 0.83432 0.25127 0.0
H4261 H 0.86885 0.86778 0.24478 0.0
C4262 C 0.86324 0.90662 0.25546 0.0
C4263 C 0.85892 0.92592 0.26292 0.0
C4264 C 0.84925 0.88719 0.25754 0.0
C4265 C 0.8399 0.92559 0.27155 0.0
C4266 C 0.82558 0.90632 0.27308 0.0
C4267 C 0.81677 0.86755 0.26949 0.0
C4268 C 0.82259 0.84849 0.26448 0.0
C4269 C 0.83025 0.887 0.26648 0.0
C4270 C 0.84132 0.84887 0.25534 0.0
C4271 C 0.85438 0.86798 0.25164 0.0
H4272 H 0.75812 0.14739 0.74481 0.0
H4273 H 0.69236 0.14985 0.74118 0.0
H4274 H 0.70351 0.18829 0.75104 0.0
H4275 H 0.73189 0.22088 0.76285 0.0
H4276 H 0.79769 0.21833 0.76742 0.0
H4277 H 0.78654 0.18018 0.75544 0.0
C4278 C 0.74626 0.15638 0.7461 0.0
C4279 C 0.7245 0.14583 0.74223 0.0
C4280 C 0.75276 0.1784 0.75225 0.0
C4281 C 0.70924 0.15765 0.74371 0.0
C4282 C 0.71559 0.1796 0.7496 0.0
C4283 C 0.74378 0.21197 0.76126 0.0
C4284 C 0.76554 0.22235 0.76618 0.0
C4285 C 0.73729 0.19008 0.75428 0.0
C4286 C 0.7808 0.21067 0.7638 0.0
C4287 C 0.77446 0.18886 0.75692 0.0
loop_
_geom_bond_atom_site_label_1
_geom_bond_atom_site_label_2
_geom_bond_distance
_geom_bond_site_symmetry_2
_ccdc_geom_bond_type
Li0 N17 1.990 1_455 S
Li0 O60 1.956 . S
Li0 O61 1.970 . S
Li0 O62 1.961 . S
Li1 N25 1.990 . S
Li1 O60 1.970 . S
Li1 O61 1.956 . S
Li1 O63 1.961 . S
Li2 N47 1.990 . S
Li2 O60 1.961 . S
Li2 O62 1.956 . S
Li2 O63 1.970 . S
Li3 N53 1.990 . S
Li3 O61 1.961 . S
Li3 O62 1.970 . S
Li3 O63 1.956 . S
C4 C6 1.348 . S
C4 C7 1.356 . S
C4 O60 1.325 . S
N5 C8 1.314 . S
N5 C9 1.279 . S
C6 C4 1.348 . S
C6 C8 1.353 . S
C6 H64 0.929 . S
C7 C4 1.356 . S
C7 C9 1.358 . S
C7 H65 0.930 . S
C8 N5 1.314 . S
C8 C6 1.353 . S
C8 H66 0.930 . S
C9 N5 1.279 . S
C9 C7 1.358 . S
C9 H67 0.930 . S
C10 C13 1.348 . S
C10 C14 1.356 . S
C10 O61 1.325 1_655 S
C11 N12 1.279 . S
C11 C14 1.358 . S
C11 H68 0.930 . S
N12 C11 1.279 . S
N12 C15 1.314 . S
C13 C10 1.348 . S
C13 C15 1.353 . S
C13 H69 0.929 . S
C14 C10 1.356 . S
C14 C11 1.358 . S
C14 H70 0.930 1_655 S
C15 N12 1.314 . S
C15 C13 1.353 . S
C15 H71 0.930 . S
C16 N17 1.314 . S
C16 C21 1.353 . S
C16 H22 0.930 . S
N17 Li0 1.990 1_655 S
N17 C16 1.314 . S
N17 C19 1.279 . S
C18 C19 1.358 . S
C18 C20 1.356 . S
C18 H72 0.930 . S
C19 N17 1.279 . S
C19 C18 1.358 . S
C19 H23 0.930 . S
C20 C18 1.356 . S
C20 C21 1.348 . S
C21 C16 1.353 . S
C21 C20 1.348 . S
C21 H73 0.929 . S
H22 C16 0.930 . S
H23 C19 0.930 . S
C24 N25 1.314 . S
C24 C26 1.353 . S
C24 H30 0.930 . S
N25 Li1 1.990 . S
N25 C24 1.314 . S
N25 C28 1.279 . S
C26 C24 1.353 . S
C26 C29 1.348 . S
C26 H74 0.929 . S
C27 C28 1.358 . S
C27 C29 1.356 . S
C27 H75 0.930 . S
C28 N25 1.279 . S
C28 C27 1.358 . S
C28 H31 0.930 . S
C29 C26 1.348 . S
C29 C27 1.356 . S
H30 C24 0.930 . S
H31 C28 0.930 . S
C32 C34 1.348 . S
C32 C35 1.356 . S
C32 O62 1.325 . S
N33 C36 1.314 . S
N33 C37 1.279 . S
C34 C32 1.348 . S
C34 C36 1.353 . S
C34 H76 0.929 . S
C35 C32 1.356 . S
C35 C37 1.358 . S
C35 H77 0.930 . S
C36 N33 1.314 . S
C36 C34 1.353 . S
C36 H78 0.930 . S
C37 N33 1.279 . S
C37 C35 1.358 . S
C37 H79 0.930 . S
C38 C39 1.348 . S
C38 C40 1.356 . S
C38 O63 1.325 . S
C39 C38 1.348 . S
C39 C41 1.353 . S
C39 H80 0.929 . S
C40 C38 1.356 . S
C40 C42 1.358 . S
C40 H81 0.930 . S
C41 C39 1.353 . S
C41 N43 1.314 . S
C41 H82 0.930 . S
C42 C40 1.358 . S
C42 N43 1.279 . S
C42 H83 0.930 . S
N43 C41 1.314 . S
N43 C42 1.279 . S
C44 C46 1.353 . S
C44 N47 1.314 . S
C44 H50 0.930 . S
C45 N47 1.279 . S
C45 C48 1.358 . S
C45 H51 0.930 . S
C46 C44 1.353 . S
C46 C49 1.348 . S
C46 H84 0.929 . S
N47 Li2 1.990 . S
N47 C44 1.314 . S
N47 C45 1.279 . S
C48 C45 1.358 . S
C48 C49 1.356 . S
C48 H85 0.930 . S
C49 C46 1.348 . S
C49 C48 1.356 . S
H50 C44 0.930 . S
H51 C45 0.930 . S
C52 N53 1.314 . S
C52 C54 1.353 . S
C52 H58 0.930 1_455 S
N53 Li3 1.990 . S
N53 C52 1.314 . S
N53 C56 1.279 . S
C54 C52 1.353 . S
C54 C57 1.348 . S
C54 H86 0.929 1_455 S
C55 C56 1.358 . S
C55 C57 1.356 . S
C55 H87 0.930 . S
C56 N53 1.279 . S
C56 C55 1.358 . S
C56 H59 0.930 . S
C57 C54 1.348 . S
C57 C55 1.356 . S
H58 C52 0.930 1_655 S
H59 C56 0.930 . S
O60 Li0 1.956 . S
O60 Li1 1.970 . S
O60 Li2 1.961 . S
O60 C4 1.325 . S
O61 Li0 1.970 . S
O61 Li1 1.956 . S
O61 Li3 1.961 . S
O61 C10 1.325 1_455 S
O62 Li0 1.961 . S
O62 Li2 1.956 . S
O62 Li3 1.970 . S
O62 C32 1.325 . S
O63 Li1 1.961 . S
O63 Li2 1.970 . S
O63 Li3 1.956 . S
O63 C38 1.325 . S
H64 C6 0.929 . S
H65 C7 0.930 . S
H66 C8 0.930 . S
H67 C9 0.930 . S
H68 C11 0.930 . S
H69 C13 0.929 . S
H70 C14 0.930 1_455 S
H71 C15 0.930 . S
H72 C18 0.930 . S
H73 C21 0.929 . S
H74 C26 0.929 . S
H75 C27 0.930 . S
H76 C34 0.929 . S
H77 C35 0.930 . S
H78 C36 0.930 . S
H79 C37 0.930 . S
H80 C39 0.929 . S
H81 C40 0.930 . S
H82 C41 0.930 . S
H83 C42 0.930 . S
H84 C46 0.929 . S
H85 C48 0.930 . S
H86 C54 0.929 1_655 S
H87 C55 0.930 . S
Li88 N105 1.990 . S
Li88 O148 1.956 . S
Li88 O149 1.970 . S
Li88 O150 1.961 1_455 S
Li89 N113 1.990 . S
Li89 O148 1.970 . S
Li89 O149 1.956 . S
Li89 O151 1.961 . S
Li90 N135 1.990 . S
Li90 O148 1.961 . S
Li90 O150 1.956 1_455 S
Li90 O151 1.970 . S
Li91 N141 1.990 1_455 S
Li91 O149 1.961 . S
Li91 O150 1.970 1_455 S
Li91 O151 1.956 . S
C92 C94 1.348 . S
C92 C95 1.356 . S
C92 O148 1.325 . S
N93 C96 1.314 . S
N93 C97 1.279 . S
C94 C92 1.348 . S
C94 C96 1.353 . S
C94 H152 0.929 . S
C95 C92 1.356 . S
C95 C97 1.358 . S
C95 H153 0.930 . S
C96 N93 1.314 . S
C96 C94 1.353 . S
C96 H154 0.930 . S
C97 N93 1.279 . S
C97 C95 1.358 . S
C97 H155 0.930 . S
C98 C101 1.348 . S
C98 C102 1.356 . S
C98 O149 1.325 . S
C99 N100 1.279 . S
C99 C102 1.358 . S
C99 H156 0.930 . S
N100 C99 1.279 . S
N100 C103 1.314 . S
C101 C98 1.348 . S
C101 C103 1.353 . S
C101 H157 0.929 . S
C102 C98 1.356 . S
C102 C99 1.358 . S
C102 H158 0.930 . S
C103 N100 1.314 . S
C103 C101 1.353 . S
C103 H159 0.930 . S
C104 N105 1.314 . S
C104 C109 1.353 . S
C104 H110 0.930 1_455 S
N105 Li88 1.990 . S
N105 C104 1.314 . S
N105 C107 1.279 . S
C106 C107 1.358 . S
C106 C108 1.356 . S
C106 H160 0.930 . S
C107 N105 1.279 . S
C107 C106 1.358 . S
C107 H111 0.930 . S
C108 C106 1.356 . S
C108 C109 1.348 . S
C109 C104 1.353 . S
C109 C108 1.348 . S
C109 H161 0.885 1_455 S
H110 C104 0.930 1_655 S
H111 C107 0.930 . S
C112 N113 1.314 . S
C112 C114 1.353 . S
C112 H118 0.930 . S
N113 Li89 1.990 . S
N113 C112 1.314 . S
N113 C116 1.279 . S
C114 C112 1.353 . S
C114 C117 1.348 . S
C114 H162 0.929 . S
C115 C116 1.358 . S
C115 C117 1.356 . S
C115 H163 0.930 . S
C116 N113 1.279 . S
C116 C115 1.358 . S
C116 H119 0.930 . S
C117 C114 1.348 . S
C117 C115 1.356 . S
H118 C112 0.930 . S
H119 C116 0.930 . S
C120 C122 1.348 . S
C120 C123 1.356 . S
C120 O150 1.325 . S
N121 C124 1.314 . S
N121 C125 1.279 . S
C122 C120 1.348 . S
C122 C124 1.353 . S
C122 H164 0.929 . S
C123 C120 1.356 . S
C123 C125 1.358 . S
C123 H165 0.930 . S
C124 N121 1.314 . S
C124 C122 1.353 . S
C124 H166 0.930 . S
C125 N121 1.279 . S
C125 C123 1.358 . S
C125 H167 0.930 . S
C126 C127 1.348 . S
C126 C128 1.356 . S
C126 O151 1.325 . S
C127 C126 1.348 . S
C127 C129 1.353 . S
C127 H168 0.929 . S
C128 C126 1.356 . S
C128 C130 1.358 . S
C128 H169 0.930 . S
C129 C127 1.353 . S
C129 N131 1.314 . S
C129 H170 0.930 . S
C130 C128 1.358 . S
C130 N131 1.279 . S
C130 H171 0.930 . S
N131 C129 1.314 . S
N131 C130 1.279 . S
C132 C134 1.353 . S
C132 N135 1.314 . S
C132 H138 0.930 . S
C133 N135 1.279 1_655 S
C133 C136 1.358 . S
C133 H139 0.930 . S
C134 C132 1.353 . S
C134 C137 1.348 . S
C134 H172 0.929 . S
N135 Li90 1.990 . S
N135 C132 1.314 . S
N135 C133 1.279 1_455 S
C136 C133 1.358 . S
C136 C137 1.356 1_655 S
C136 H173 0.930 . S
C137 C134 1.348 . S
C137 C136 1.356 1_455 S
H138 C132 0.930 . S
H139 C133 0.930 . S
C140 N141 1.314 . S
C140 C142 1.353 . S
C140 H146 0.930 . S
N141 Li91 1.990 1_655 S
N141 C140 1.314 . S
N141 C144 1.279 . S
C142 C140 1.353 . S
C142 C145 1.348 . S
C142 H174 0.929 . S
C143 C144 1.358 . S
C143 C145 1.356 . S
C143 H175 0.930 . S
C144 N141 1.279 . S
C144 C143 1.358 . S
C144 H147 0.930 . S
C145 C142 1.348 . S
C145 C143 1.356 . S
H146 C140 0.930 . S
H147 C144 0.930 . S
O148 Li88 1.956 . S
O148 Li89 1.970 . S
O148 Li90 1.961 . S
O148 C92 1.325 . S
O149 Li88 1.970 . S
O149 Li89 1.956 . S
O149 Li91 1.961 . S
O149 C98 1.325 . S
O150 Li88 1.961 1_655 S
O150 Li90 1.956 1_655 S
O150 Li91 1.970 1_655 S
O150 C120 1.325 . S
O151 Li89 1.961 . S
O151 Li90 1.970 . S
O151 Li91 1.956 . S
O151 C126 1.325 . S
H152 C94 0.929 . S
H153 C95 0.930 . S
H154 C96 0.930 . S
H155 C97 0.930 . S
H156 C99 0.930 . S
H157 C101 0.929 . S
H158 C102 0.930 . S
H159 C103 0.930 . S
H160 C106 0.930 . S
H161 C109 0.885 1_655 S
H162 C114 0.929 . S
H163 C115 0.930 . S
H164 C122 0.929 . S
H165 C123 0.930 . S
H166 C124 0.930 . S
H167 C125 0.930 . S
H168 C127 0.929 . S
H169 C128 0.930 . S
H170 C129 0.930 . S
H171 C130 0.930 . S
H172 C134 0.929 . S
H173 C136 0.930 . S
H174 C142 0.929 . S
H175 C143 0.930 . S
Li176 N193 1.990 . S
Li176 O236 1.956 . S
Li176 O237 1.970 . S
Li176 O238 1.961 . S
Li177 N201 1.990 . S
Li177 O236 1.970 . S
Li177 O237 1.956 . S
Li177 O239 1.961 . S
Li178 N223 1.990 . S
Li178 O236 1.961 . S
Li178 O238 1.956 . S
Li178 O239 1.970 . S
Li179 N229 1.990 . S
Li179 O237 1.961 . S
Li179 O238 1.970 . S
Li179 O239 1.956 . S
C180 C182 1.348 . S
C180 C183 1.356 . S
C180 O236 1.325 . S
N181 C184 1.314 . S
N181 C185 1.279 . S
C182 C180 1.348 . S
C182 C184 1.353 . S
C182 H240 0.929 . S
C183 C180 1.356 . S
C183 C185 1.358 . S
C183 H241 0.930 . S
C184 N181 1.314 . S
C184 C182 1.353 . S
C184 H242 0.930 . S
C185 N181 1.279 . S
C185 C183 1.358 . S
C185 H243 0.930 . S
C186 C189 1.348 . S
C186 C190 1.356 . S
C186 O237 1.325 . S
C187 N188 1.279 . S
C187 C190 1.358 . S
C187 H244 0.930 . S
N188 C187 1.279 . S
N188 C191 1.314 . S
C189 C186 1.348 . S
C189 C191 1.353 . S
C189 H245 0.929 . S
C190 C186 1.356 . S
C190 C187 1.358 . S
C190 H246 0.930 . S
C191 N188 1.314 . S
C191 C189 1.353 . S
C191 H247 0.930 . S
C192 N193 1.314 . S
C192 C197 1.353 . S
C192 H198 0.930 . S
N193 Li176 1.990 . S
N193 C192 1.314 . S
N193 C195 1.279 . S
C194 C195 1.358 . S
C194 C196 1.356 . S
C194 H248 0.930 . S
C195 N193 1.279 . S
C195 C194 1.358 . S
C195 H199 0.930 . S
C196 C194 1.356 . S
C196 C197 1.348 . S
C197 C192 1.353 . S
C197 C196 1.348 . S
C197 H249 0.929 . S
H198 C192 0.930 . S
H199 C195 0.930 . S
C200 N201 1.314 . S
C200 C202 1.353 . S
C200 H206 0.930 . S
N201 Li177 1.990 . S
N201 C200 1.314 . S
N201 C204 1.279 . S
C202 C200 1.353 . S
C202 C205 1.348 . S
C202 H250 0.929 . S
C203 C204 1.358 . S
C203 C205 1.356 . S
C203 H251 0.930 . S
C204 N201 1.279 . S
C204 C203 1.358 . S
C204 H207 0.930 . S
C205 C202 1.348 . S
C205 C203 1.356 . S
H206 C200 0.930 . S
H207 C204 0.930 . S
C208 C210 1.348 . S
C208 C211 1.356 . S
C208 O238 1.325 . S
N209 C212 1.314 . S
N209 C213 1.279 . S
C210 C208 1.348 . S
C210 C212 1.353 . S
C210 H252 0.929 . S
C211 C208 1.356 . S
C211 C213 1.358 . S
C211 H253 0.930 . S
C212 N209 1.314 . S
C212 C210 1.353 . S
C212 H254 0.930 . S
C213 N209 1.279 . S
C213 C211 1.358 . S
C213 H255 0.930 . S
C214 C215 1.348 . S
C214 C216 1.356 . S
C214 O239 1.325 . S
C215 C214 1.348 . S
C215 C217 1.353 . S
C215 H256 0.929 . S
C216 C214 1.356 . S
C216 C218 1.358 . S
C216 H257 0.930 . S
C217 C215 1.353 . S
C217 N219 1.314 . S
C217 H258 0.930 . S
C218 C216 1.358 . S
C218 N219 1.279 . S
C218 H259 0.930 . S
N219 C217 1.314 . S
N219 C218 1.279 . S
C220 C222 1.353 . S
C220 N223 1.314 . S
C220 H226 0.930 . S
C221 N223 1.279 . S
C221 C224 1.358 . S
C221 H227 0.930 . S
C222 C220 1.353 . S
C222 C225 1.348 . S
C222 H260 0.929 . S
N223 Li178 1.990 . S
N223 C220 1.314 . S
N223 C221 1.279 . S
C224 C221 1.358 . S
C224 C225 1.356 . S
C224 H261 0.930 . S
C225 C222 1.348 . S
C225 C224 1.356 . S
H226 C220 0.930 . S
H227 C221 0.930 . S
C228 N229 1.314 . S
C228 C230 1.353 . S
C228 H234 0.930 . S
N229 Li179 1.990 . S
N229 C228 1.314 . S
N229 C232 1.279 . S
C230 C228 1.353 . S
C230 C233 1.348 . S
C230 H262 0.929 . S
C231 C232 1.358 . S
C231 C233 1.356 . S
C231 H263 0.930 . S
C232 N229 1.279 . S
C232 C231 1.358 . S
C232 H235 0.930 . S
C233 C230 1.348 . S
C233 C231 1.356 . S
H234 C228 0.930 . S
H235 C232 0.930 . S
O236 Li176 1.956 . S
O236 Li177 1.970 . S
O236 Li178 1.961 . S
O236 C180 1.325 . S
O237 Li176 1.970 . S
O237 Li177 1.956 . S
O237 Li179 1.961 . S
O237 C186 1.325 . S
O238 Li176 1.961 . S
O238 Li178 1.956 . S
O238 Li179 1.970 . S
O238 C208 1.325 . S
O239 Li177 1.961 . S
O239 Li178 1.970 . S
O239 Li179 1.956 . S
O239 C214 1.325 . S
H240 C182 0.929 . S
H241 C183 0.930 . S
H242 C184 0.930 . S
H243 C185 0.930 . S
H244 C187 0.930 . S
H245 C189 0.929 . S
H246 C190 0.930 . S
H247 C191 0.930 . S
H248 C194 0.930 . S
H249 C197 0.929 . S
H250 C202 0.929 . S
H251 C203 0.930 . S
H252 C210 0.929 . S
H253 C211 0.930 . S
H254 C212 0.930 . S
H255 C213 0.930 . S
H256 C215 0.929 . S
H257 C216 0.930 . S
H258 C217 0.930 . S
H259 C218 0.930 . S
H260 C222 0.929 . S
H261 C224 0.930 . S
H262 C230 0.929 . S
H263 C231 0.930 . S
Li264 N281 1.990 . S
Li264 O324 1.956 . S
Li264 O325 1.970 . S
Li264 O326 1.961 . S
Li265 N289 1.990 . S
Li265 O324 1.970 . S
Li265 O325 1.956 . S
Li265 O327 1.961 . S
Li266 N311 1.990 . S
Li266 O324 1.961 . S
Li266 O326 1.956 . S
Li266 O327 1.970 . S
Li267 N317 1.990 . S
Li267 O325 1.961 . S
Li267 O326 1.970 . S
Li267 O327 1.956 . S
C268 C270 1.348 . S
C268 C271 1.356 . S
C268 O324 1.325 . S
N269 C272 1.314 . S
N269 C273 1.279 . S
C270 C268 1.348 . S
C270 C272 1.353 . S
C270 H328 0.929 . S
C271 C268 1.356 . S
C271 C273 1.358 . S
C271 H329 0.930 . S
C272 N269 1.314 . S
C272 C270 1.353 . S
C272 H330 0.930 . S
C273 N269 1.279 . S
C273 C271 1.358 . S
C273 H331 0.930 . S
C274 C277 1.348 . S
C274 C278 1.356 . S
C274 O325 1.325 . S
C275 N276 1.279 . S
C275 C278 1.358 . S
C275 H332 0.930 . S
N276 C275 1.279 . S
N276 C279 1.314 . S
C277 C274 1.348 . S
C277 C279 1.353 . S
C277 H333 0.929 . S
C278 C274 1.356 . S
C278 C275 1.358 . S
C278 H334 0.930 . S
C279 N276 1.314 . S
C279 C277 1.353 . S
C279 H335 0.930 . S
C280 N281 1.314 . S
C280 C285 1.353 . S
C280 H286 0.930 . S
N281 Li264 1.990 . S
N281 C280 1.314 . S
N281 C283 1.279 . S
C282 C283 1.358 . S
C282 C284 1.356 . S
C282 H336 0.930 . S
C283 N281 1.279 . S
C283 C282 1.358 . S
C283 H287 0.930 . S
C284 C282 1.356 . S
C284 C285 1.348 . S
C285 C280 1.353 . S
C285 C284 1.348 . S
C285 H337 0.929 . S
H286 C280 0.930 . S
H287 C283 0.930 . S
C288 N289 1.314 . S
C288 C290 1.353 . S
C288 H294 0.930 . S
N289 Li265 1.990 . S
N289 C288 1.314 . S
N289 C292 1.279 . S
C290 C288 1.353 . S
C290 C293 1.348 . S
C290 H338 0.929 . S
C291 C292 1.358 . S
C291 C293 1.356 . S
C291 H339 0.930 . S
C292 N289 1.279 . S
C292 C291 1.358 . S
C292 H295 0.930 . S
C293 C290 1.348 . S
C293 C291 1.356 . S
H294 C288 0.930 . S
H295 C292 0.930 . S
C296 C298 1.348 . S
C296 C299 1.356 . S
C296 O326 1.325 . S
N297 C300 1.314 . S
N297 C301 1.279 . S
C298 C296 1.348 . S
C298 C300 1.353 . S
C298 H340 0.929 . S
C299 C296 1.356 . S
C299 C301 1.358 . S
C299 H341 0.930 . S
C300 N297 1.314 . S
C300 C298 1.353 . S
C300 H342 0.930 . S
C301 N297 1.279 . S
C301 C299 1.358 . S
C301 H343 0.930 . S
C302 C303 1.348 . S
C302 C304 1.356 . S
C302 O327 1.325 . S
C303 C302 1.348 . S
C303 C305 1.353 . S
C303 H344 0.929 . S
C304 C302 1.356 . S
C304 C306 1.358 . S
C304 H345 0.930 . S
C305 C303 1.353 . S
C305 N307 1.314 . S
C305 H346 0.930 . S
C306 C304 1.358 . S
C306 N307 1.279 . S
C306 H347 0.930 . S
N307 C305 1.314 . S
N307 C306 1.279 . S
C308 C310 1.353 . S
C308 N311 1.314 . S
C308 H314 0.930 . S
C309 N311 1.279 . S
C309 C312 1.358 . S
C309 H315 0.930 . S
C310 C308 1.353 . S
C310 C313 1.348 . S
C310 H348 0.929 . S
N311 Li266 1.990 . S
N311 C308 1.314 . S
N311 C309 1.279 . S
C312 C309 1.358 . S
C312 C313 1.356 . S
C312 H349 0.930 . S
C313 C310 1.348 . S
C313 C312 1.356 . S
H314 C308 0.930 . S
H315 C309 0.930 . S
C316 N317 1.314 . S
C316 C318 1.353 . S
C316 H322 0.930 . S
N317 Li267 1.990 . S
N317 C316 1.314 . S
N317 C320 1.279 . S
C318 C316 1.353 . S
C318 C321 1.348 . S
C318 H350 0.929 . S
C319 C320 1.358 . S
C319 C321 1.356 . S
C319 H351 0.930 . S
C320 N317 1.279 . S
C320 C319 1.358 . S
C320 H323 0.930 . S
C321 C318 1.348 . S
C321 C319 1.356 . S
H322 C316 0.930 . S
H323 C320 0.930 . S
O324 Li264 1.956 . S
O324 Li265 1.970 . S
O324 Li266 1.961 . S
O324 C268 1.325 . S
O325 Li264 1.970 . S
O325 Li265 1.956 . S
O325 Li267 1.961 . S
O325 C274 1.325 . S
O326 Li264 1.961 . S
O326 Li266 1.956 . S
O326 Li267 1.970 . S
O326 C296 1.325 . S
O327 Li265 1.961 . S
O327 Li266 1.970 . S
O327 Li267 1.956 . S
O327 C302 1.325 . S
H328 C270 0.929 . S
H329 C271 0.930 . S
H330 C272 0.930 . S
H331 C273 0.930 . S
H332 C275 0.930 . S
H333 C277 0.929 . S
H334 C278 0.930 . S
H335 C279 0.930 . S
H336 C282 0.930 . S
H337 C285 0.929 . S
H338 C290 0.929 . S
H339 C291 0.930 . S
H340 C298 0.929 . S
H341 C299 0.930 . S
H342 C300 0.930 . S
H343 C301 0.930 . S
H344 C303 0.929 . S
H345 C304 0.930 . S
H346 C305 0.930 . S
H347 C306 0.930 . S
H348 C310 0.929 . S
H349 C312 0.930 . S
H350 C318 0.929 . S
H351 C319 0.930 . S
Li352 N369 1.990 . S
Li352 O412 1.956 . S
Li352 O413 1.970 . S
Li352 O414 1.961 . S
Li353 N377 1.990 . S
Li353 O412 1.970 . S
Li353 O413 1.956 . S
Li353 O415 1.961 . S
Li354 N399 1.990 . S
Li354 O412 1.961 . S
Li354 O414 1.956 . S
Li354 O415 1.970 . S
Li355 N405 1.990 . S
Li355 O413 1.961 . S
Li355 O414 1.970 . S
Li355 O415 1.956 . S
C356 C358 1.348 . S
C356 C359 1.356 . S
C356 O412 1.325 . S
N357 C360 1.314 . S
N357 C361 1.279 . S
C358 C356 1.348 . S
C358 C360 1.353 . S
C358 H416 0.929 . S
C359 C356 1.356 . S
C359 C361 1.358 . S
C359 H417 0.930 . S
C360 N357 1.314 . S
C360 C358 1.353 . S
C360 H418 0.930 . S
C361 N357 1.279 . S
C361 C359 1.358 . S
C361 H419 0.930 . S
C362 C365 1.348 . S
C362 C366 1.356 . S
C362 O413 1.325 . S
C363 N364 1.279 . S
C363 C366 1.358 . S
C363 H420 0.930 . S
N364 C363 1.279 . S
N364 C367 1.314 . S
C365 C362 1.348 . S
C365 C367 1.353 . S
C365 H421 0.929 . S
C366 C362 1.356 . S
C366 C363 1.358 . S
C366 H422 0.930 . S
C367 N364 1.314 . S
C367 C365 1.353 . S
C367 H423 0.930 . S
C368 N369 1.314 . S
C368 C373 1.353 . S
C368 H374 0.930 . S
N369 Li352 1.990 . S
N369 C368 1.314 . S
N369 C371 1.279 . S
C370 C371 1.358 . S
C370 C372 1.356 . S
C370 H424 0.930 . S
C371 N369 1.279 . S
C371 C370 1.358 . S
C371 H375 0.930 . S
C372 C370 1.356 . S
C372 C373 1.348 . S
C373 C368 1.353 . S
C373 C372 1.348 . S
C373 H425 0.929 . S
H374 C368 0.930 . S
H375 C371 0.930 . S
C376 N377 1.314 . S
C376 C378 1.353 . S
C376 H382 0.930 . S
N377 Li353 1.990 . S
N377 C376 1.314 . S
N377 C380 1.279 . S
C378 C376 1.353 . S
C378 C381 1.348 . S
C378 H426 0.929 . S
C379 C380 1.358 . S
C379 C381 1.356 . S
C379 H427 0.930 . S
C380 N377 1.279 . S
C380 C379 1.358 . S
C380 H383 0.930 . S
C381 C378 1.348 . S
C381 C379 1.356 . S
H382 C376 0.930 . S
H383 C380 0.930 . S
C384 C386 1.348 1_455 S
C384 C387 1.356 . S
C384 O414 1.325 . S
N385 C388 1.314 . S
N385 C389 1.279 . S
C386 C384 1.348 1_655 S
C386 C388 1.353 . S
C386 H428 0.929 . S
C387 C384 1.356 . S
C387 C389 1.358 1_455 S
C387 H429 0.930 . S
C388 N385 1.314 . S
C388 C386 1.353 . S
C388 H430 0.930 . S
C389 N385 1.279 . S
C389 C387 1.358 1_655 S
C389 H431 0.930 . S
C390 C391 1.348 . S
C390 C392 1.356 . S
C390 O415 1.325 . S
C391 C390 1.348 . S
C391 C393 1.353 . S
C391 H432 0.929 . S
C392 C390 1.356 . S
C392 C394 1.358 . S
C392 H433 0.930 . S
C393 C391 1.353 . S
C393 N395 1.314 . S
C393 H434 0.930 . S
C394 C392 1.358 . S
C394 N395 1.279 . S
C394 H435 0.930 . S
N395 C393 1.314 . S
N395 C394 1.279 . S
C396 C398 1.353 . S
C396 N399 1.314 . S
C396 H402 0.930 . S
C397 N399 1.279 . S
C397 C400 1.358 . S
C397 H403 0.930 . S
C398 C396 1.353 . S
C398 C401 1.348 . S
C398 H436 0.929 . S
N399 Li354 1.990 . S
N399 C396 1.314 . S
N399 C397 1.279 . S
C400 C397 1.358 . S
C400 C401 1.356 . S
C400 H437 0.930 . S
C401 C398 1.348 . S
C401 C400 1.356 . S
H402 C396 0.930 . S
H403 C397 0.930 . S
C404 N405 1.314 . S
C404 C406 1.353 1_455 S
C404 H410 0.930 . S
N405 Li355 1.990 . S
N405 C404 1.314 . S
N405 C408 1.279 . S
C406 C404 1.353 1_655 S
C406 C409 1.348 . S
C406 H438 0.929 . S
C407 C408 1.358 1_655 S
C407 C409 1.356 . S
C407 H439 0.930 . S
C408 N405 1.279 . S
C408 C407 1.358 1_455 S
C408 H411 0.930 . S
C409 C406 1.348 . S
C409 C407 1.356 . S
H410 C404 0.930 . S
H411 C408 0.930 . S
O412 Li352 1.956 . S
O412 Li353 1.970 . S
O412 Li354 1.961 . S
O412 C356 1.325 . S
O413 Li352 1.970 . S
O413 Li353 1.956 . S
O413 Li355 1.961 . S
O413 C362 1.325 . S
O414 Li352 1.961 . S
O414 Li354 1.956 . S
O414 Li355 1.970 . S
O414 C384 1.325 . S
O415 Li353 1.961 . S
O415 Li354 1.970 . S
O415 Li355 1.956 . S
O415 C390 1.325 . S
H416 C358 0.929 . S
H417 C359 0.930 . S
H418 C360 0.930 . S
H419 C361 0.930 . S
H420 C363 0.930 . S
H421 C365 0.929 . S
H422 C366 0.930 . S
H423 C367 0.930 . S
H424 C370 0.930 . S
H425 C373 0.929 . S
H426 C378 0.929 . S
H427 C379 0.930 . S
H428 C386 0.929 . S
H429 C387 0.930 . S
H430 C388 0.930 . S
H431 C389 0.930 . S
H432 C391 0.929 . S
H433 C392 0.930 . S
H434 C393 0.930 . S
H435 C394 0.930 . S
H436 C398 0.929 . S
H437 C400 0.930 . S
H438 C406 0.929 . S
H439 C407 0.930 . S
Li440 N457 1.990 . S
Li440 O500 1.956 . S
Li440 O501 1.970 . S
Li440 O502 1.961 . S
Li441 N465 1.990 . S
Li441 O500 1.970 . S
Li441 O501 1.956 . S
Li441 O503 1.961 . S
Li442 N487 1.990 . S
Li442 O500 1.961 . S
Li442 O502 1.956 . S
Li442 O503 1.970 . S
Li443 N493 1.990 . S
Li443 O501 1.961 . S
Li443 O502 1.970 . S
Li443 O503 1.956 . S
C444 C446 1.348 . S
C444 C447 1.356 . S
C444 O500 1.325 . S
N445 C448 1.314 . S
N445 C449 1.279 . S
C446 C444 1.348 . S
C446 C448 1.353 . S
C446 H504 0.929 . S
C447 C444 1.356 . S
C447 C449 1.358 . S
C447 H505 0.930 . S
C448 N445 1.314 . S
C448 C446 1.353 . S
C448 H506 0.930 . S
C449 N445 1.279 . S
C449 C447 1.358 . S
C449 H507 0.930 . S
C450 C453 1.348 . S
C450 C454 1.356 . S
C450 O501 1.325 . S
C451 N452 1.279 . S
C451 C454 1.358 . S
C451 H508 0.930 . S
N452 C451 1.279 . S
N452 C455 1.314 . S
C453 C450 1.348 . S
C453 C455 1.353 . S
C453 H509 0.929 . S
C454 C450 1.356 . S
C454 C451 1.358 . S
C454 H510 0.930 . S
C455 N452 1.314 . S
C455 C453 1.353 . S
C455 H511 0.930 . S
C456 N457 1.314 . S
C456 C461 1.353 . S
C456 H462 0.930 . S
N457 Li440 1.990 . S
N457 C456 1.314 . S
N457 C459 1.279 . S
C458 C459 1.358 . S
C458 C460 1.356 . S
C458 H512 0.930 . S
C459 N457 1.279 . S
C459 C458 1.358 . S
C459 H463 0.930 . S
C460 C458 1.356 . S
C460 C461 1.348 . S
C461 C456 1.353 . S
C461 C460 1.348 . S
C461 H513 0.929 . S
H462 C456 0.930 . S
H463 C459 0.930 . S
C464 N465 1.314 . S
C464 C466 1.353 . S
C464 H470 0.930 . S
N465 Li441 1.990 . S
N465 C464 1.314 . S
N465 C468 1.279 . S
C466 C464 1.353 . S
C466 C469 1.348 . S
C466 H514 0.929 . S
C467 C468 1.358 . S
C467 C469 1.356 . S
C467 H515 0.930 . S
C468 N465 1.279 . S
C468 C467 1.358 . S
C468 H471 0.930 . S
C469 C466 1.348 . S
C469 C467 1.356 . S
H470 C464 0.930 . S
H471 C468 0.930 . S
C472 C474 1.348 . S
C472 C475 1.356 . S
C472 O502 1.325 . S
N473 C476 1.314 . S
N473 C477 1.279 . S
C474 C472 1.348 . S
C474 C476 1.353 . S
C474 H516 0.929 . S
C475 C472 1.356 . S
C475 C477 1.358 . S
C475 H517 0.930 . S
C476 N473 1.314 . S
C476 C474 1.353 . S
C476 H518 0.930 . S
C477 N473 1.279 . S
C477 C475 1.358 . S
C477 H519 0.930 . S
C478 C479 1.348 . S
C478 C480 1.356 . S
C478 O503 1.325 . S
C479 C478 1.348 . S
C479 C481 1.353 . S
C479 H520 0.929 . S
C480 C478 1.356 . S
C480 C482 1.358 . S
C480 H521 0.930 . S
C481 C479 1.353 . S
C481 N483 1.314 . S
C481 H522 0.930 . S
C482 C480 1.358 . S
C482 N483 1.279 . S
C482 H523 0.930 . S
N483 C481 1.314 . S
N483 C482 1.279 . S
C484 C486 1.353 . S
C484 N487 1.314 . S
C484 H490 0.930 . S
C485 N487 1.279 . S
C485 C488 1.358 . S
C485 H491 0.930 . S
C486 C484 1.353 . S
C486 C489 1.348 . S
C486 H524 0.929 . S
N487 Li442 1.990 . S
N487 C484 1.314 . S
N487 C485 1.279 . S
C488 C485 1.358 . S
C488 C489 1.356 . S
C488 H525 0.930 . S
C489 C486 1.348 . S
C489 C488 1.356 . S
H490 C484 0.930 . S
H491 C485 0.930 . S
C492 N493 1.314 . S
C492 C494 1.353 . S
C492 H498 0.930 . S
N493 Li443 1.990 . S
N493 C492 1.314 . S
N493 C496 1.279 . S
C494 C492 1.353 . S
C494 C497 1.348 . S
C494 H526 0.929 . S
C495 C496 1.358 . S
C495 C497 1.356 . S
C495 H527 0.930 . S
C496 N493 1.279 . S
C496 C495 1.358 . S
C496 H499 0.930 . S
C497 C494 1.348 . S
C497 C495 1.356 . S
H498 C492 0.930 . S
H499 C496 0.930 . S
O500 Li440 1.956 . S
O500 Li441 1.970 . S
O500 Li442 1.961 . S
O500 C444 1.325 . S
O501 Li440 1.970 . S
O501 Li441 1.956 . S
O501 Li443 1.961 . S
O501 C450 1.325 . S
O502 Li440 1.961 . S
O502 Li442 1.956 . S
O502 Li443 1.970 . S
O502 C472 1.325 . S
O503 Li441 1.961 . S
O503 Li442 1.970 . S
O503 Li443 1.956 . S
O503 C478 1.325 . S
H504 C446 0.929 . S
H505 C447 0.930 . S
H506 C448 0.930 . S
H507 C449 0.930 . S
H508 C451 0.930 . S
H509 C453 0.929 . S
H510 C454 0.930 . S
H511 C455 0.930 . S
H512 C458 0.930 . S
H513 C461 0.929 . S
H514 C466 0.929 . S
H515 C467 0.930 . S
H516 C474 0.929 . S
H517 C475 0.930 . S
H518 C476 0.930 . S
H519 C477 0.930 . S
H520 C479 0.929 . S
H521 C480 0.930 . S
H522 C481 0.930 . S
H523 C482 0.930 . S
H524 C486 0.929 . S
H525 C488 0.930 . S
H526 C494 0.929 . S
H527 C495 0.930 . S
Li528 N545 1.990 . S
Li528 O588 1.956 . S
Li528 O589 1.970 . S
Li528 O590 1.961 . S
Li529 N553 1.990 . S
Li529 O588 1.970 . S
Li529 O589 1.956 . S
Li529 O591 1.961 . S
Li530 N575 1.990 . S
Li530 O588 1.961 . S
Li530 O590 1.956 . S
Li530 O591 1.970 . S
Li531 N581 1.990 . S
Li531 O589 1.961 . S
Li531 O590 1.970 . S
Li531 O591 1.956 . S
C532 C534 1.348 . S
C532 C535 1.356 . S
C532 O588 1.325 . S
N533 C536 1.314 . S
N533 C537 1.279 . S
C534 C532 1.348 . S
C534 C536 1.353 . S
C534 H592 0.929 . S
C535 C532 1.356 . S
C535 C537 1.358 . S
C535 H593 0.930 . S
C536 N533 1.314 . S
C536 C534 1.353 . S
C536 H594 0.930 . S
C537 N533 1.279 . S
C537 C535 1.358 . S
C537 H595 0.930 . S
C538 C541 1.348 . S
C538 C542 1.356 . S
C538 O589 1.325 . S
C539 N540 1.279 . S
C539 C542 1.358 . S
C539 H596 0.930 . S
N540 C539 1.279 . S
N540 C543 1.314 . S
C541 C538 1.348 . S
C541 C543 1.353 . S
C541 H597 0.929 . S
C542 C538 1.356 . S
C542 C539 1.358 . S
C542 H598 0.930 . S
C543 N540 1.314 . S
C543 C541 1.353 . S
C543 H599 0.930 . S
C544 N545 1.314 . S
C544 C549 1.353 . S
C544 H550 0.930 . S
N545 Li528 1.990 . S
N545 C544 1.314 . S
N545 C547 1.279 . S
C546 C547 1.358 . S
C546 C548 1.356 . S
C546 H600 0.930 . S
C547 N545 1.279 . S
C547 C546 1.358 . S
C547 H551 0.930 . S
C548 C546 1.356 . S
C548 C549 1.348 . S
C549 C544 1.353 . S
C549 C548 1.348 . S
C549 H601 0.929 . S
H550 C544 0.930 . S
H551 C547 0.930 . S
C552 N553 1.314 . S
C552 C554 1.353 . S
C552 H558 0.930 . S
N553 Li529 1.990 . S
N553 C552 1.314 . S
N553 C556 1.279 . S
C554 C552 1.353 . S
C554 C557 1.348 . S
C554 H602 0.929 . S
C555 C556 1.358 . S
C555 C557 1.356 . S
C555 H603 0.930 . S
C556 N553 1.279 . S
C556 C555 1.358 . S
C556 H559 0.930 . S
C557 C554 1.348 . S
C557 C555 1.356 . S
H558 C552 0.930 . S
H559 C556 0.930 . S
C560 C562 1.348 . S
C560 C563 1.356 . S
C560 O590 1.325 . S
N561 C564 1.314 . S
N561 C565 1.279 . S
C562 C560 1.348 . S
C562 C564 1.353 . S
C562 H604 0.929 . S
C563 C560 1.356 . S
C563 C565 1.358 . S
C563 H605 0.930 . S
C564 N561 1.314 . S
C564 C562 1.353 . S
C564 H606 0.930 . S
C565 N561 1.279 . S
C565 C563 1.358 . S
C565 H607 0.930 . S
C566 C567 1.348 . S
C566 C568 1.356 . S
C566 O591 1.325 . S
C567 C566 1.348 . S
C567 C569 1.353 . S
C567 H608 0.929 . S
C568 C566 1.356 . S
C568 C570 1.358 . S
C568 H609 0.930 . S
C569 C567 1.353 . S
C569 N571 1.314 . S
C569 H610 0.930 . S
C570 C568 1.358 . S
C570 N571 1.279 . S
C570 H611 0.930 . S
N571 C569 1.314 . S
N571 C570 1.279 . S
C572 C574 1.353 . S
C572 N575 1.314 . S
C572 H578 0.930 . S
C573 N575 1.279 . S
C573 C576 1.358 . S
C573 H579 0.930 . S
C574 C572 1.353 . S
C574 C577 1.348 . S
C574 H612 0.929 . S
N575 Li530 1.990 . S
N575 C572 1.314 . S
N575 C573 1.279 . S
C576 C573 1.358 . S
C576 C577 1.356 . S
C576 H613 0.930 . S
C577 C574 1.348 . S
C577 C576 1.356 . S
H578 C572 0.930 . S
H579 C573 0.930 . S
C580 N581 1.314 . S
C580 C582 1.353 . S
C580 H586 0.930 . S
N581 Li531 1.990 . S
N581 C580 1.314 . S
N581 C584 1.279 . S
C582 C580 1.353 . S
C582 C585 1.348 . S
C582 H614 0.929 . S
C583 C584 1.358 . S
C583 C585 1.356 . S
C583 H615 0.930 . S
C584 N581 1.279 . S
C584 C583 1.358 . S
C584 H587 0.930 . S
C585 C582 1.348 . S
C585 C583 1.356 . S
H586 C580 0.930 . S
H587 C584 0.930 . S
O588 Li528 1.956 . S
O588 Li529 1.970 . S
O588 Li530 1.961 . S
O588 C532 1.325 . S
O589 Li528 1.970 . S
O589 Li529 1.956 . S
O589 Li531 1.961 . S
O589 C538 1.325 . S
O590 Li528 1.961 . S
O590 Li530 1.956 . S
O590 Li531 1.970 . S
O590 C560 1.325 . S
O591 Li529 1.961 . S
O591 Li530 1.970 . S
O591 Li531 1.956 . S
O591 C566 1.325 . S
H592 C534 0.929 . S
H593 C535 0.930 . S
H594 C536 0.930 . S
H595 C537 0.930 . S
H596 C539 0.930 . S
H597 C541 0.929 . S
H598 C542 0.930 . S
H599 C543 0.930 . S
H600 C546 0.930 . S
H601 C549 0.929 . S
H602 C554 0.929 . S
H603 C555 0.930 . S
H604 C562 0.929 . S
H605 C563 0.930 . S
H606 C564 0.930 . S
H607 C565 0.930 . S
H608 C567 0.929 . S
H609 C568 0.930 . S
H610 C569 0.930 . S
H611 C570 0.930 . S
H612 C574 0.929 . S
H613 C576 0.930 . S
H614 C582 0.929 . S
H615 C583 0.930 . S
Li616 N633 1.990 . S
Li616 O676 1.956 1_455 S
Li616 O677 1.970 . S
Li616 O678 1.961 . S
Li617 N641 1.990 . S
Li617 O676 1.970 . S
Li617 O677 1.956 1_655 S
Li617 O679 1.961 . S
Li618 N663 1.986 . S
Li618 O676 2.010 . S
Li618 O678 1.920 1_655 S
Li618 O679 1.970 . S
Li619 N669 1.990 . S
Li619 O677 1.961 . S
Li619 O678 1.970 . S
Li619 O679 1.956 1_455 S
C620 C622 1.348 . S
C620 C623 1.356 1_556 S
C620 O676 1.325 . S
N621 C624 1.314 1_554 S
N621 C625 1.279 . S
C622 C620 1.348 . S
C622 C624 1.353 . S
C622 H680 0.929 . S
C623 C620 1.356 1_554 S
C623 C625 1.358 . S
C623 H681 0.930 . S
C624 N621 1.314 1_556 S
C624 C622 1.353 . S
C624 H682 0.930 . S
C625 N621 1.279 . S
C625 C623 1.358 . S
C625 H683 0.930 . S
C626 C629 1.366 . S
C626 C630 1.356 . S
C626 O677 1.325 . S
C627 N628 1.279 . S
C627 C630 1.358 . S
C627 H684 0.930 . S
N628 C627 1.279 . S
N628 C631 1.314 . S
C629 C626 1.366 . S
C629 C631 1.350 . S
C629 H685 0.916 1_455 S
C630 C626 1.356 . S
C630 C627 1.358 . S
C630 H686 0.930 . S
C631 N628 1.314 . S
C631 C629 1.350 . S
C631 H687 0.945 . S
C632 N633 1.314 . S
C632 C637 1.353 1_556 S
C632 H638 0.930 . S
N633 Li616 1.990 . S
N633 C632 1.314 . S
N633 C635 1.279 1_456 S
C634 C635 1.358 . S
C634 C636 1.356 1_655 S
C634 H688 0.930 . S
C635 N633 1.279 1_654 S
C635 C634 1.358 . S
C635 H639 0.930 . S
C636 C634 1.356 1_455 S
C636 C637 1.348 . S
C637 C632 1.353 1_554 S
C637 C636 1.348 . S
C637 H689 0.929 . S
H638 C632 0.930 . S
H639 C635 0.930 . S
C640 N641 1.314 . S
C640 C642 1.353 . S
C640 H646 0.930 . S
N641 Li617 1.990 . S
N641 C640 1.314 . S
N641 C644 1.279 . S
C642 C640 1.353 . S
C642 C645 1.348 . S
C642 H690 0.929 . S
C643 C644 1.358 . S
C643 C645 1.356 . S
C643 H691 0.930 . S
C644 N641 1.279 . S
C644 C643 1.358 . S
C644 H647 0.930 . S
C645 C642 1.348 . S
C645 C643 1.356 . S
H646 C640 0.930 . S
H647 C644 0.930 . S
C648 C650 1.348 . S
C648 C651 1.356 1_556 S
C648 O678 1.325 . S
N649 C652 1.314 1_554 S
N649 C653 1.279 . S
C650 C648 1.348 . S
C650 C652 1.353 . S
C650 H692 0.929 . S
C651 C648 1.356 1_554 S
C651 C653 1.358 . S
C651 H693 0.930 . S
C652 N649 1.314 1_556 S
C652 C650 1.353 . S
C652 H694 0.930 . S
C653 N649 1.279 . S
C653 C651 1.358 . S
C653 H695 0.930 . S
C654 C655 1.348 . S
C654 C656 1.356 . S
C654 O679 1.325 . S
C655 C654 1.348 . S
C655 C657 1.353 . S
C655 H696 0.916 1_655 S
C656 C654 1.356 . S
C656 C658 1.358 . S
C656 H697 0.930 . S
C657 C655 1.353 . S
C657 N659 1.314 . S
C657 H698 0.930 . S
C658 C656 1.358 . S
C658 N659 1.279 . S
C658 H699 0.930 . S
N659 C657 1.314 . S
N659 C658 1.279 . S
C660 C662 1.321 1_556 S
C660 N663 1.314 . S
C660 H666 0.930 . S
C661 N663 1.297 1_455 S
C661 C664 1.336 1_556 S
C661 H667 0.928 . S
C662 C660 1.321 1_554 S
C662 C665 1.370 . S
C662 H700 0.942 . S
N663 Li618 1.986 . S
N663 C660 1.314 . S
N663 C661 1.297 1_655 S
C664 C661 1.336 1_554 S
C664 C665 1.356 1_455 S
C664 H701 0.930 . S
C665 C662 1.370 . S
C665 C664 1.356 1_655 S
H666 C660 0.930 . S
H667 C661 0.928 . S
C668 N669 1.314 . S
C668 C670 1.353 . S
C668 H674 0.930 . S
N669 Li619 1.990 . S
N669 C668 1.314 . S
N669 C672 1.279 . S
C670 C668 1.353 . S
C670 C673 1.348 . S
C670 H702 0.929 . S
C671 C672 1.358 . S
C671 C673 1.356 . S
C671 H703 0.930 . S
C672 N669 1.279 . S
C672 C671 1.358 . S
C672 H675 0.930 . S
C673 C670 1.348 . S
C673 C671 1.356 . S
H674 C668 0.930 . S
H675 C672 0.930 . S
O676 Li616 1.956 1_655 S
O676 Li617 1.970 . S
O676 Li618 2.010 . S
O676 C620 1.325 . S
O677 Li616 1.970 . S
O677 Li617 1.956 1_455 S
O677 Li619 1.961 . S
O677 C626 1.325 . S
O678 Li616 1.961 . S
O678 Li618 1.920 1_455 S
O678 Li619 1.970 . S
O678 C648 1.325 . S
O679 Li617 1.961 . S
O679 Li618 1.970 . S
O679 Li619 1.956 1_655 S
O679 C654 1.325 . S
H680 C622 0.929 . S
H681 C623 0.930 . S
H682 C624 0.930 . S
H683 C625 0.930 . S
H684 C627 0.930 . S
H685 C629 0.916 1_655 S
H686 C630 0.930 . S
H687 C631 0.945 . S
H688 C634 0.930 . S
H689 C637 0.929 . S
H690 C642 0.929 . S
H691 C643 0.930 . S
H692 C650 0.929 . S
H693 C651 0.930 . S
H694 C652 0.930 . S
H695 C653 0.930 . S
H696 C655 0.916 1_455 S
H697 C656 0.930 . S
H698 C657 0.930 . S
H699 C658 0.930 . S
H700 C662 0.942 . S
H701 C664 0.930 . S
H702 C670 0.929 . S
H703 C671 0.930 . S
Li704 N721 1.990 . S
Li704 O764 1.956 1_545 S
Li704 O765 1.974 1_545 S
Li704 O766 1.961 . S
Li705 N729 1.990 . S
Li705 O764 1.970 . S
Li705 O765 1.973 . S
Li705 O767 1.961 . S
Li706 N751 1.990 . S
Li706 O764 1.961 1_545 S
Li706 O766 1.956 . S
Li706 O767 1.970 1_545 S
Li707 N757 1.990 . S
Li707 O765 1.943 1_545 S
Li707 O766 1.970 . S
Li707 O767 1.956 1_545 S
C708 C710 1.348 . S
C708 C711 1.356 . S
C708 O764 1.325 . S
N709 C712 1.314 . S
N709 C713 1.279 . S
C710 C708 1.348 . S
C710 C712 1.353 . S
C710 H768 0.929 . S
C711 C708 1.356 . S
C711 C713 1.358 . S
C711 H769 0.930 . S
C712 N709 1.314 . S
C712 C710 1.353 . S
C712 H770 0.930 . S
C713 N709 1.279 . S
C713 C711 1.358 . S
C713 H771 0.930 . S
C714 C717 1.348 . S
C714 C718 1.356 . S
C714 O765 1.325 . S
C715 N716 1.279 . S
C715 C718 1.358 . S
C715 H772 0.930 . S
N716 C715 1.279 . S
N716 C719 1.314 . S
C717 C714 1.348 . S
C717 C719 1.353 . S
C717 H773 0.929 . S
C718 C714 1.356 . S
C718 C715 1.358 . S
C718 H774 0.930 . S
C719 N716 1.314 . S
C719 C717 1.353 . S
C719 H775 0.930 . S
C720 N721 1.314 . S
C720 C725 1.353 . S
C720 H726 0.930 . S
N721 Li704 1.990 . S
N721 C720 1.314 . S
N721 C723 1.279 1_545 S
C722 C723 1.358 . S
C722 C724 1.356 1_565 S
C722 H776 0.930 . S
C723 N721 1.279 1_565 S
C723 C722 1.358 . S
C723 H727 0.930 . S
C724 C722 1.356 1_545 S
C724 C725 1.348 . S
C725 C720 1.353 . S
C725 C724 1.348 . S
C725 H777 0.929 . S
H726 C720 0.930 . S
H727 C723 0.930 . S
C728 N729 1.314 . S
C728 C730 1.353 . S
C728 H734 0.930 . S
N729 Li705 1.990 . S
N729 C728 1.314 . S
N729 C732 1.279 . S
C730 C728 1.353 . S
C730 C733 1.348 . S
C730 H778 0.929 . S
C731 C732 1.358 . S
C731 C733 1.356 . S
C731 H779 0.930 . S
C732 N729 1.279 . S
C732 C731 1.358 . S
C732 H735 0.930 . S
C733 C730 1.348 . S
C733 C731 1.356 . S
H734 C728 0.930 . S
H735 C732 0.930 . S
C736 C738 1.348 . S
C736 C739 1.356 . S
C736 O766 1.325 . S
N737 C740 1.314 . S
N737 C741 1.279 . S
C738 C736 1.348 . S
C738 C740 1.353 . S
C738 H780 0.929 . S
C739 C736 1.356 . S
C739 C741 1.358 . S
C739 H781 0.930 . S
C740 N737 1.314 . S
C740 C738 1.353 . S
C740 H782 0.930 . S
C741 N737 1.279 . S
C741 C739 1.358 . S
C741 H783 0.930 . S
C742 C743 1.348 . S
C742 C744 1.356 . S
C742 O767 1.325 . S
C743 C742 1.348 . S
C743 C745 1.353 . S
C743 H784 0.929 1_565 S
C744 C742 1.356 . S
C744 C746 1.358 . S
C744 H785 0.930 . S
C745 C743 1.353 . S
C745 N747 1.314 . S
C745 H786 0.930 . S
C746 C744 1.358 . S
C746 N747 1.279 . S
C746 H787 0.930 . S
N747 C745 1.314 . S
N747 C746 1.279 . S
C748 C750 1.353 . S
C748 N751 1.314 1_565 S
C748 H754 0.930 . S
C749 N751 1.279 . S
C749 C752 1.358 . S
C749 H755 0.930 . S
C750 C748 1.353 . S
C750 C753 1.348 1_565 S
C750 H788 0.929 . S
N751 Li706 1.990 . S
N751 C748 1.314 1_545 S
N751 C749 1.279 . S
C752 C749 1.358 . S
C752 C753 1.356 . S
C752 H789 0.930 . S
C753 C750 1.348 1_545 S
C753 C752 1.356 . S
H754 C748 0.930 . S
H755 C749 0.930 . S
C756 N757 1.314 . S
C756 C758 1.353 . S
C756 H762 0.930 . S
N757 Li707 1.990 . S
N757 C756 1.314 . S
N757 C760 1.279 . S
C758 C756 1.353 . S
C758 C761 1.348 . S
C758 H790 0.929 . S
C759 C760 1.358 . S
C759 C761 1.356 . S
C759 H791 0.930 . S
C760 N757 1.279 . S
C760 C759 1.358 . S
C760 H763 0.930 . S
C761 C758 1.348 . S
C761 C759 1.356 . S
H762 C756 0.930 . S
H763 C760 0.930 . S
O764 Li704 1.956 1_565 S
O764 Li705 1.970 . S
O764 Li706 1.961 1_565 S
O764 C708 1.325 . S
O765 Li704 1.974 1_565 S
O765 Li705 1.973 . S
O765 Li707 1.943 1_565 S
O765 C714 1.325 . S
O766 Li704 1.961 . S
O766 Li706 1.956 . S
O766 Li707 1.970 . S
O766 C736 1.325 . S
O767 Li705 1.961 . S
O767 Li706 1.970 1_565 S
O767 Li707 1.956 1_565 S
O767 C742 1.325 . S
H768 C710 0.929 . S
H769 C711 0.930 . S
H770 C712 0.930 . S
H771 C713 0.930 . S
H772 C715 0.930 . S
H773 C717 0.929 . S
H774 C718 0.930 . S
H775 C719 0.930 . S
H776 C722 0.930 . S
H777 C725 0.929 . S
H778 C730 0.929 . S
H779 C731 0.930 . S
H780 C738 0.929 . S
H781 C739 0.930 . S
H782 C740 0.930 . S
H783 C741 0.930 . S
H784 C743 0.929 1_545 S
H785 C744 0.930 . S
H786 C745 0.930 . S
H787 C746 0.930 . S
H788 C750 0.929 . S
H789 C752 0.930 . S
H790 C758 0.929 . S
H791 C759 0.930 . S
Li792 N809 1.990 . S
Li792 O852 1.956 . S
Li792 O853 1.970 . S
Li792 O854 1.961 . S
Li793 N817 1.990 . S
Li793 O852 1.970 . S
Li793 O853 1.956 . S
Li793 O855 1.961 . S
Li794 N839 1.990 . S
Li794 O852 1.961 . S
Li794 O854 1.956 . S
Li794 O855 1.970 . S
Li795 N845 1.990 . S
Li795 O853 1.961 . S
Li795 O854 1.970 . S
Li795 O855 1.956 . S
C796 C798 1.348 . S
C796 C799 1.356 . S
C796 O852 1.325 . S
N797 C800 1.314 . S
N797 C801 1.279 . S
C798 C796 1.348 . S
C798 C800 1.353 . S
C798 H856 0.929 . S
C799 C796 1.356 . S
C799 C801 1.358 . S
C799 H857 0.930 . S
C800 N797 1.314 . S
C800 C798 1.353 . S
C800 H858 0.930 . S
C801 N797 1.279 . S
C801 C799 1.358 . S
C801 H859 0.930 . S
C802 C805 1.348 . S
C802 C806 1.356 . S
C802 O853 1.325 . S
C803 N804 1.279 . S
C803 C806 1.358 . S
C803 H860 0.930 . S
N804 C803 1.279 . S
N804 C807 1.314 . S
C805 C802 1.348 . S
C805 C807 1.353 . S
C805 H861 0.929 . S
C806 C802 1.356 . S
C806 C803 1.358 . S
C806 H862 0.930 . S
C807 N804 1.314 . S
C807 C805 1.353 . S
C807 H863 0.930 . S
C808 N809 1.314 . S
C808 C813 1.353 . S
C808 H814 0.930 . S
N809 Li792 1.990 . S
N809 C808 1.314 . S
N809 C811 1.279 . S
C810 C811 1.358 . S
C810 C812 1.356 . S
C810 H864 0.930 . S
C811 N809 1.279 . S
C811 C810 1.358 . S
C811 H815 0.930 . S
C812 C810 1.356 . S
C812 C813 1.348 . S
C813 C808 1.353 . S
C813 C812 1.348 . S
C813 H865 0.929 . S
H814 C808 0.930 . S
H815 C811 0.930 . S
C816 N817 1.314 . S
C816 C818 1.353 . S
C816 H822 0.930 . S
N817 Li793 1.990 . S
N817 C816 1.314 . S
N817 C820 1.279 . S
C818 C816 1.353 . S
C818 C821 1.348 . S
C818 H866 0.929 . S
C819 C820 1.358 . S
C819 C821 1.356 . S
C819 H867 0.930 . S
C820 N817 1.279 . S
C820 C819 1.358 . S
C820 H823 0.930 . S
C821 C818 1.348 . S
C821 C819 1.356 . S
H822 C816 0.930 . S
H823 C820 0.930 . S
C824 C826 1.348 . S
C824 C827 1.356 . S
C824 O854 1.325 . S
N825 C828 1.314 . S
N825 C829 1.279 . S
C826 C824 1.348 . S
C826 C828 1.353 . S
C826 H868 0.929 . S
C827 C824 1.356 . S
C827 C829 1.358 . S
C827 H869 0.930 . S
C828 N825 1.314 . S
C828 C826 1.353 . S
C828 H870 0.930 . S
C829 N825 1.279 . S
C829 C827 1.358 . S
C829 H871 0.930 . S
C830 C831 1.348 . S
C830 C832 1.356 . S
C830 O855 1.325 . S
C831 C830 1.348 . S
C831 C833 1.353 . S
C831 H872 0.929 . S
C832 C830 1.356 . S
C832 C834 1.358 . S
C832 H873 0.930 . S
C833 C831 1.353 . S
C833 N835 1.314 . S
C833 H874 0.930 . S
C834 C832 1.358 . S
C834 N835 1.279 . S
C834 H875 0.930 . S
N835 C833 1.314 . S
N835 C834 1.279 . S
C836 C838 1.353 . S
C836 N839 1.314 . S
C836 H842 0.930 . S
C837 N839 1.279 . S
C837 C840 1.358 . S
C837 H843 0.930 . S
C838 C836 1.353 . S
C838 C841 1.348 . S
C838 H876 0.929 . S
N839 Li794 1.990 . S
N839 C836 1.314 . S
N839 C837 1.279 . S
C840 C837 1.358 . S
C840 C841 1.356 . S
C840 H877 0.930 . S
C841 C838 1.348 . S
C841 C840 1.356 . S
H842 C836 0.930 . S
H843 C837 0.930 . S
C844 N845 1.314 . S
C844 C846 1.353 . S
C844 H850 0.930 . S
N845 Li795 1.990 . S
N845 C844 1.314 . S
N845 C848 1.279 . S
C846 C844 1.353 . S
C846 C849 1.348 . S
C846 H878 0.929 . S
C847 C848 1.358 . S
C847 C849 1.356 . S
C847 H879 0.930 . S
C848 N845 1.279 . S
C848 C847 1.358 . S
C848 H851 0.930 . S
C849 C846 1.348 . S
C849 C847 1.356 . S
H850 C844 0.930 . S
H851 C848 0.930 . S
O852 Li792 1.956 . S
O852 Li793 1.970 . S
O852 Li794 1.961 . S
O852 C796 1.325 . S
O853 Li792 1.970 . S
O853 Li793 1.956 . S
O853 Li795 1.961 . S
O853 C802 1.325 . S
O854 Li792 1.961 . S
O854 Li794 1.956 . S
O854 Li795 1.970 . S
O854 C824 1.325 . S
O855 Li793 1.961 . S
O855 Li794 1.970 . S
O855 Li795 1.956 . S
O855 C830 1.325 . S
H856 C798 0.929 . S
H857 C799 0.930 . S
H858 C800 0.930 . S
H859 C801 0.930 . S
H860 C803 0.930 . S
H861 C805 0.929 . S
H862 C806 0.930 . S
H863 C807 0.930 . S
H864 C810 0.930 . S
H865 C813 0.929 . S
H866 C818 0.929 . S
H867 C819 0.930 . S
H868 C826 0.929 . S
H869 C827 0.930 . S
H870 C828 0.930 . S
H871 C829 0.930 . S
H872 C831 0.929 . S
H873 C832 0.930 . S
H874 C833 0.930 . S
H875 C834 0.930 . S
H876 C838 0.929 . S
H877 C840 0.930 . S
H878 C846 0.929 . S
H879 C847 0.930 . S
Li880 N897 1.990 . S
Li880 O940 1.956 . S
Li880 O941 1.970 . S
Li880 O942 1.961 . S
Li881 N905 1.990 . S
Li881 O940 1.970 . S
Li881 O941 1.956 . S
Li881 O943 1.961 . S
Li882 N927 1.990 . S
Li882 O940 1.961 . S
Li882 O942 1.956 . S
Li882 O943 1.970 . S
Li883 N933 1.990 . S
Li883 O941 1.961 . S
Li883 O942 1.970 . S
Li883 O943 1.956 . S
C884 C886 1.348 . S
C884 C887 1.356 . S
C884 O940 1.325 . S
N885 C888 1.314 . S
N885 C889 1.279 . S
C886 C884 1.348 . S
C886 C888 1.353 . S
C886 H944 0.929 . S
C887 C884 1.356 . S
C887 C889 1.358 . S
C887 H945 0.930 . S
C888 N885 1.314 . S
C888 C886 1.353 . S
C888 H946 0.930 . S
C889 N885 1.279 . S
C889 C887 1.358 . S
C889 H947 0.930 . S
C890 C893 1.348 . S
C890 C894 1.356 . S
C890 O941 1.325 . S
C891 N892 1.279 . S
C891 C894 1.358 . S
C891 H948 0.930 . S
N892 C891 1.279 . S
N892 C895 1.314 . S
C893 C890 1.348 . S
C893 C895 1.353 . S
C893 H949 0.929 . S
C894 C890 1.356 . S
C894 C891 1.358 . S
C894 H950 0.930 . S
C895 N892 1.314 . S
C895 C893 1.353 . S
C895 H951 0.930 . S
C896 N897 1.314 . S
C896 C901 1.353 . S
C896 H902 0.930 . S
N897 Li880 1.990 . S
N897 C896 1.314 . S
N897 C899 1.279 . S
C898 C899 1.358 . S
C898 C900 1.356 . S
C898 H952 0.930 . S
C899 N897 1.279 . S
C899 C898 1.358 . S
C899 H903 0.930 . S
C900 C898 1.356 . S
C900 C901 1.348 . S
C901 C896 1.353 . S
C901 C900 1.348 . S
C901 H953 0.929 . S
H902 C896 0.930 . S
H903 C899 0.930 . S
C904 N905 1.314 . S
C904 C906 1.353 . S
C904 H910 0.930 . S
N905 Li881 1.990 . S
N905 C904 1.314 . S
N905 C908 1.279 . S
C906 C904 1.353 . S
C906 C909 1.348 . S
C906 H954 0.929 . S
C907 C908 1.358 . S
C907 C909 1.356 . S
C907 H955 0.930 . S
C908 N905 1.279 . S
C908 C907 1.358 . S
C908 H911 0.930 . S
C909 C906 1.348 . S
C909 C907 1.356 . S
H910 C904 0.930 . S
H911 C908 0.930 . S
C912 C914 1.348 . S
C912 C915 1.356 . S
C912 O942 1.325 . S
N913 C916 1.314 . S
N913 C917 1.279 . S
C914 C912 1.348 . S
C914 C916 1.353 . S
C914 H956 0.929 . S
C915 C912 1.356 . S
C915 C917 1.358 . S
C915 H957 0.930 . S
C916 N913 1.314 . S
C916 C914 1.353 . S
C916 H958 0.930 . S
C917 N913 1.279 . S
C917 C915 1.358 . S
C917 H959 0.930 . S
C918 C919 1.348 . S
C918 C920 1.356 . S
C918 O943 1.325 1_565 S
C919 C918 1.348 . S
C919 C921 1.353 . S
C919 H960 0.929 . S
C920 C918 1.356 . S
C920 C922 1.358 . S
C920 H961 0.930 1_565 S
C921 C919 1.353 . S
C921 N923 1.314 . S
C921 H962 0.930 . S
C922 C920 1.358 . S
C922 N923 1.279 . S
C922 H963 0.930 . S
N923 C921 1.314 . S
N923 C922 1.279 . S
C924 C926 1.353 . S
C924 N927 1.314 1_565 S
C924 H930 0.930 . S
C925 N927 1.279 1_565 S
C925 C928 1.358 . S
C925 H931 0.930 1_565 S
C926 C924 1.353 . S
C926 C929 1.348 . S
C926 H964 0.929 . S
N927 Li882 1.990 . S
N927 C924 1.314 1_545 S
N927 C925 1.279 1_545 S
C928 C925 1.358 . S
C928 C929 1.356 . S
C928 H965 0.930 . S
C929 C926 1.348 . S
C929 C928 1.356 . S
H930 C924 0.930 . S
H931 C925 0.930 1_545 S
C932 N933 1.314 . S
C932 C934 1.353 . S
C932 H938 0.930 . S
N933 Li883 1.990 . S
N933 C932 1.314 . S
N933 C936 1.279 . S
C934 C932 1.353 . S
C934 C937 1.348 . S
C934 H966 0.929 . S
C935 C936 1.358 . S
C935 C937 1.356 . S
C935 H967 0.930 1_545 S
C936 N933 1.279 . S
C936 C935 1.358 . S
C936 H939 0.930 . S
C937 C934 1.348 . S
C937 C935 1.356 . S
H938 C932 0.930 . S
H939 C936 0.930 . S
O940 Li880 1.956 . S
O940 Li881 1.970 . S
O940 Li882 1.961 . S
O940 C884 1.325 . S
O941 Li880 1.970 . S
O941 Li881 1.956 . S
O941 Li883 1.961 . S
O941 C890 1.325 . S
O942 Li880 1.961 . S
O942 Li882 1.956 . S
O942 Li883 1.970 . S
O942 C912 1.325 . S
O943 Li881 1.961 . S
O943 Li882 1.970 . S
O943 Li883 1.956 . S
O943 C918 1.325 1_545 S
H944 C886 0.929 . S
H945 C887 0.930 . S
H946 C888 0.930 . S
H947 C889 0.930 . S
H948 C891 0.930 . S
H949 C893 0.929 . S
H950 C894 0.930 . S
H951 C895 0.930 . S
H952 C898 0.930 . S
H953 C901 0.929 . S
H954 C906 0.929 . S
H955 C907 0.930 . S
H956 C914 0.929 . S
H957 C915 0.930 . S
H958 C916 0.930 . S
H959 C917 0.930 . S
H960 C919 0.929 . S
H961 C920 0.930 1_545 S
H962 C921 0.930 . S
H963 C922 0.930 . S
H964 C926 0.929 . S
H965 C928 0.930 . S
H966 C934 0.929 . S
H967 C935 0.930 1_565 S
Li968 N985 1.992 . S
Li968 O1028 1.987 . S
Li968 O1029 1.972 1_554 S
Li968 O1030 1.926 1_554 S
Li969 N993 1.990 . S
Li969 O1028 1.970 . S
Li969 O1029 1.956 1_554 S
Li969 O1031 1.990 . S
Li970 N1015 1.990 . S
Li970 O1028 1.961 . S
Li970 O1030 1.956 1_554 S
Li970 O1031 1.967 . S
Li971 N1021 1.990 . S
Li971 O1029 1.961 . S
Li971 O1030 1.970 . S
Li971 O1031 1.929 1_556 S
C972 C974 1.348 . S
C972 C975 1.356 . S
C972 O1028 1.325 . S
N973 C976 1.314 . S
N973 C977 1.279 . S
C974 C972 1.348 . S
C974 C976 1.353 . S
C974 H1032 0.929 . S
C975 C972 1.356 . S
C975 C977 1.358 . S
C975 H1033 0.930 . S
C976 N973 1.314 . S
C976 C974 1.353 . S
C976 H1034 0.930 . S
C977 N973 1.279 . S
C977 C975 1.358 . S
C977 H1035 0.930 . S
C978 C981 1.340 1_556 S
C978 C982 1.356 . S
C978 O1029 1.325 . S
C979 N980 1.279 . S
C979 C982 1.358 . S
C979 H1036 0.930 . S
N980 C979 1.279 . S
N980 C983 1.314 . S
C981 C978 1.340 1_554 S
C981 C983 1.355 1_554 S
C981 H1037 0.936 . S
C982 C978 1.356 . S
C982 C979 1.358 . S
C982 H1038 0.930 . S
C983 N980 1.314 . S
C983 C981 1.355 1_556 S
C983 H1039 0.930 1_556 S
C984 N985 1.314 1_556 S
C984 C989 1.353 . S
C984 H990 0.930 . S
N985 Li968 1.992 . S
N985 C984 1.314 1_554 S
N985 C987 1.279 . S
C986 C987 1.358 . S
C986 C988 1.362 . S
C986 H1040 0.930 . S
C987 N985 1.279 . S
C987 C986 1.358 . S
C987 H991 0.930 . S
C988 C986 1.362 . S
C988 C989 1.341 1_554 S
C989 C984 1.353 . S
C989 C988 1.341 1_556 S
C989 H1041 0.929 . S
H990 C984 0.930 . S
H991 C987 0.930 . S
C992 N993 1.314 . S
C992 C994 1.353 . S
C992 H998 0.930 . S
N993 Li969 1.990 . S
N993 C992 1.314 . S
N993 C996 1.279 . S
C994 C992 1.353 . S
C994 C997 1.348 . S
C994 H1042 0.929 . S
C995 C996 1.358 . S
C995 C997 1.356 . S
C995 H1043 0.930 . S
C996 N993 1.279 . S
C996 C995 1.358 . S
C996 H999 0.930 . S
C997 C994 1.348 . S
C997 C995 1.356 . S
H998 C992 0.930 . S
H999 C996 0.930 . S
C1000 C1002 1.348 . S
C1000 C1003 1.356 . S
C1000 O1030 1.325 . S
N1001 C1004 1.314 . S
N1001 C1005 1.279 . S
C1002 C1000 1.348 . S
C1002 C1004 1.353 . S
C1002 H1044 0.929 . S
C1003 C1000 1.356 . S
C1003 C1005 1.358 . S
C1003 H1045 0.930 . S
C1004 N1001 1.314 . S
C1004 C1002 1.353 . S
C1004 H1046 0.930 . S
C1005 N1001 1.279 . S
C1005 C1003 1.358 . S
C1005 H1047 0.930 . S
C1006 C1007 1.347 1_554 S
C1006 C1008 1.356 . S
C1006 O1031 1.324 . S
C1007 C1006 1.347 1_556 S
C1007 C1009 1.353 . S
C1007 H1048 0.929 . S
C1008 C1006 1.356 . S
C1008 C1010 1.358 . S
C1008 H1049 0.930 . S
C1009 C1007 1.353 . S
C1009 N1011 1.314 . S
C1009 H1050 0.930 . S
C1010 C1008 1.358 . S
C1010 N1011 1.279 1_554 S
C1010 H1051 0.930 . S
N1011 C1009 1.314 . S
N1011 C1010 1.279 1_556 S
C1012 C1014 1.353 . S
C1012 N1015 1.314 . S
C1012 H1018 0.930 . S
C1013 N1015 1.279 1_556 S
C1013 C1016 1.358 . S
C1013 H1019 0.930 . S
C1014 C1012 1.353 . S
C1014 C1017 1.348 . S
C1014 H1052 0.929 . S
N1015 Li970 1.990 . S
N1015 C1012 1.314 . S
N1015 C1013 1.279 1_554 S
C1016 C1013 1.358 . S
C1016 C1017 1.356 1_556 S
C1016 H1053 0.930 . S
C1017 C1014 1.348 . S
C1017 C1016 1.356 1_554 S
H1018 C1012 0.930 . S
H1019 C1013 0.930 . S
C1020 N1021 1.314 . S
C1020 C1022 1.353 . S
C1020 H1026 0.930 . S
N1021 Li971 1.990 . S
N1021 C1020 1.314 . S
N1021 C1024 1.279 . S
C1022 C1020 1.353 . S
C1022 C1025 1.348 . S
C1022 H1054 0.929 . S
C1023 C1024 1.358 . S
C1023 C1025 1.356 . S
C1023 H1055 0.930 . S
C1024 N1021 1.279 . S
C1024 C1023 1.358 . S
C1024 H1027 0.930 . S
C1025 C1022 1.348 . S
C1025 C1023 1.356 . S
H1026 C1020 0.930 . S
H1027 C1024 0.930 . S
O1028 Li968 1.987 . S
O1028 Li969 1.970 . S
O1028 Li970 1.961 . S
O1028 C972 1.325 . S
O1029 Li968 1.972 1_556 S
O1029 Li969 1.956 1_556 S
O1029 Li971 1.961 . S
O1029 C978 1.325 . S
O1030 Li968 1.926 1_556 S
O1030 Li970 1.956 1_556 S
O1030 Li971 1.970 . S
O1030 C1000 1.325 . S
O1031 Li969 1.990 . S
O1031 Li970 1.967 . S
O1031 Li971 1.929 1_554 S
O1031 C1006 1.324 . S
H1032 C974 0.929 . S
H1033 C975 0.930 . S
H1034 C976 0.930 . S
H1035 C977 0.930 . S
H1036 C979 0.930 . S
H1037 C981 0.936 . S
H1038 C982 0.930 . S
H1039 C983 0.930 1_554 S
H1040 C986 0.930 . S
H1041 C989 0.929 . S
H1042 C994 0.929 . S
H1043 C995 0.930 . S
H1044 C1002 0.929 . S
H1045 C1003 0.930 . S
H1046 C1004 0.930 . S
H1047 C1005 0.930 . S
H1048 C1007 0.929 . S
H1049 C1008 0.930 . S
H1050 C1009 0.930 . S
H1051 C1010 0.930 . S
H1052 C1014 0.929 . S
H1053 C1016 0.930 . S
H1054 C1022 0.929 . S
H1055 C1023 0.930 . S
Li1056 N1073 1.990 . S
Li1056 O1116 1.956 . S
Li1056 O1117 1.970 . S
Li1056 O1118 1.961 . S
Li1057 N1081 1.990 . S
Li1057 O1116 1.970 . S
Li1057 O1117 1.956 . S
Li1057 O1119 1.961 . S
Li1058 N1103 1.990 . S
Li1058 O1116 1.961 . S
Li1058 O1118 1.956 . S
Li1058 O1119 1.970 . S
Li1059 N1109 1.990 1_554 S
Li1059 O1117 1.961 . S
Li1059 O1118 1.970 . S
Li1059 O1119 1.956 . S
C1060 C1062 1.348 . S
C1060 C1063 1.356 . S
C1060 O1116 1.325 . S
N1061 C1064 1.314 . S
N1061 C1065 1.279 . S
C1062 C1060 1.348 . S
C1062 C1064 1.353 . S
C1062 H1120 0.929 . S
C1063 C1060 1.356 . S
C1063 C1065 1.358 . S
C1063 H1121 0.930 . S
C1064 N1061 1.314 . S
C1064 C1062 1.353 . S
C1064 H1122 0.930 . S
C1065 N1061 1.279 . S
C1065 C1063 1.358 . S
C1065 H1123 0.930 . S
C1066 C1069 1.348 . S
C1066 C1070 1.356 . S
C1066 O1117 1.325 . S
C1067 N1068 1.279 . S
C1067 C1070 1.358 . S
C1067 H1124 0.930 . S
N1068 C1067 1.279 . S
N1068 C1071 1.314 . S
C1069 C1066 1.348 . S
C1069 C1071 1.353 . S
C1069 H1125 0.929 . S
C1070 C1066 1.356 . S
C1070 C1067 1.358 . S
C1070 H1126 0.930 . S
C1071 N1068 1.314 . S
C1071 C1069 1.353 . S
C1071 H1127 0.930 . S
C1072 N1073 1.314 . S
C1072 C1077 1.353 . S
C1072 H1078 0.930 . S
N1073 Li1056 1.990 . S
N1073 C1072 1.314 . S
N1073 C1075 1.279 . S
C1074 C1075 1.358 . S
C1074 C1076 1.356 . S
C1074 H1128 0.930 . S
C1075 N1073 1.279 . S
C1075 C1074 1.358 . S
C1075 H1079 0.930 . S
C1076 C1074 1.356 . S
C1076 C1077 1.348 . S
C1077 C1072 1.353 . S
C1077 C1076 1.348 . S
C1077 H1129 0.923 1_554 S
H1078 C1072 0.930 . S
H1079 C1075 0.930 . S
C1080 N1081 1.314 . S
C1080 C1082 1.353 . S
C1080 H1086 0.930 . S
N1081 Li1057 1.990 . S
N1081 C1080 1.314 . S
N1081 C1084 1.279 . S
C1082 C1080 1.353 . S
C1082 C1085 1.348 . S
C1082 H1130 0.929 . S
C1083 C1084 1.358 . S
C1083 C1085 1.356 . S
C1083 H1131 0.930 . S
C1084 N1081 1.279 . S
C1084 C1083 1.358 . S
C1084 H1087 0.930 . S
C1085 C1082 1.348 . S
C1085 C1083 1.356 . S
H1086 C1080 0.930 . S
H1087 C1084 0.930 . S
C1088 C1090 1.348 . S
C1088 C1091 1.356 . S
C1088 O1118 1.325 1_556 S
N1089 C1092 1.314 . S
N1089 C1093 1.279 . S
C1090 C1088 1.348 . S
C1090 C1092 1.353 . S
C1090 H1132 0.929 . S
C1091 C1088 1.356 . S
C1091 C1093 1.358 . S
C1091 H1133 0.930 1_556 S
C1092 N1089 1.314 . S
C1092 C1090 1.353 . S
C1092 H1134 0.930 . S
C1093 N1089 1.279 . S
C1093 C1091 1.358 . S
C1093 H1135 0.930 . S
C1094 C1095 1.348 . S
C1094 C1096 1.356 . S
C1094 O1119 1.325 . S
C1095 C1094 1.348 . S
C1095 C1097 1.353 . S
C1095 H1136 0.929 . S
C1096 C1094 1.356 . S
C1096 C1098 1.358 . S
C1096 H1137 0.930 . S
C1097 C1095 1.353 . S
C1097 N1099 1.314 . S
C1097 H1138 0.930 . S
C1098 C1096 1.358 . S
C1098 N1099 1.279 . S
C1098 H1139 0.930 . S
N1099 C1097 1.314 . S
N1099 C1098 1.279 . S
C1100 C1102 1.353 . S
C1100 N1103 1.314 . S
C1100 H1106 0.930 . S
C1101 N1103 1.279 . S
C1101 C1104 1.358 . S
C1101 H1107 0.930 . S
C1102 C1100 1.353 . S
C1102 C1105 1.348 . S
C1102 H1140 0.929 . S
N1103 Li1058 1.990 . S
N1103 C1100 1.314 . S
N1103 C1101 1.279 . S
C1104 C1101 1.358 . S
C1104 C1105 1.356 . S
C1104 H1141 0.930 . S
C1105 C1102 1.348 . S
C1105 C1104 1.356 . S
H1106 C1100 0.930 . S
H1107 C1101 0.930 . S
C1108 N1109 1.314 . S
C1108 C1110 1.353 . S
C1108 H1114 0.930 . S
N1109 Li1059 1.990 1_556 S
N1109 C1108 1.314 . S
N1109 C1112 1.279 . S
C1110 C1108 1.353 . S
C1110 C1113 1.348 . S
C1110 H1142 0.929 . S
C1111 C1112 1.358 . S
C1111 C1113 1.356 . S
C1111 H1143 0.930 . S
C1112 N1109 1.279 . S
C1112 C1111 1.358 . S
C1112 H1115 0.930 . S
C1113 C1110 1.348 . S
C1113 C1111 1.356 . S
H1114 C1108 0.930 . S
H1115 C1112 0.930 . S
O1116 Li1056 1.956 . S
O1116 Li1057 1.970 . S
O1116 Li1058 1.961 . S
O1116 C1060 1.325 . S
O1117 Li1056 1.970 . S
O1117 Li1057 1.956 . S
O1117 Li1059 1.961 . S
O1117 C1066 1.325 . S
O1118 Li1056 1.961 . S
O1118 Li1058 1.956 . S
O1118 Li1059 1.970 . S
O1118 C1088 1.325 1_554 S
O1119 Li1057 1.961 . S
O1119 Li1058 1.970 . S
O1119 Li1059 1.956 . S
O1119 C1094 1.325 . S
H1120 C1062 0.929 . S
H1121 C1063 0.930 . S
H1122 C1064 0.930 . S
H1123 C1065 0.930 . S
H1124 C1067 0.930 . S
H1125 C1069 0.929 . S
H1126 C1070 0.930 . S
H1127 C1071 0.930 . S
H1128 C1074 0.930 . S
H1129 C1077 0.923 1_556 S
H1130 C1082 0.929 . S
H1131 C1083 0.930 . S
H1132 C1090 0.929 . S
H1133 C1091 0.930 1_554 S
H1134 C1092 0.930 . S
H1135 C1093 0.930 . S
H1136 C1095 0.929 . S
H1137 C1096 0.930 . S
H1138 C1097 0.930 . S
H1139 C1098 0.930 . S
H1140 C1102 0.929 . S
H1141 C1104 0.930 . S
H1142 C1110 0.929 . S
H1143 C1111 0.930 . S
Li1144 N1161 1.990 . S
Li1144 O1204 1.956 . S
Li1144 O1205 1.970 . S
Li1144 O1206 1.961 . S
Li1145 N1169 1.990 . S
Li1145 O1204 1.970 . S
Li1145 O1205 1.956 . S
Li1145 O1207 1.961 . S
Li1146 N1191 1.990 . S
Li1146 O1204 1.961 . S
Li1146 O1206 1.956 . S
Li1146 O1207 1.970 . S
Li1147 N1197 1.990 . S
Li1147 O1205 1.961 . S
Li1147 O1206 1.970 . S
Li1147 O1207 1.956 . S
C1148 C1150 1.348 . S
C1148 C1151 1.356 . S
C1148 O1204 1.325 . S
N1149 C1152 1.314 . S
N1149 C1153 1.279 . S
C1150 C1148 1.348 . S
C1150 C1152 1.353 . S
C1150 H1208 0.929 . S
C1151 C1148 1.356 . S
C1151 C1153 1.358 . S
C1151 H1209 0.930 . S
C1152 N1149 1.314 . S
C1152 C1150 1.353 . S
C1152 H1210 0.930 . S
C1153 N1149 1.279 . S
C1153 C1151 1.358 . S
C1153 H1211 0.930 . S
C1154 C1157 1.348 . S
C1154 C1158 1.356 . S
C1154 O1205 1.325 . S
C1155 N1156 1.279 . S
C1155 C1158 1.358 . S
C1155 H1212 0.930 . S
N1156 C1155 1.279 . S
N1156 C1159 1.314 . S
C1157 C1154 1.348 . S
C1157 C1159 1.353 . S
C1157 H1213 0.929 . S
C1158 C1154 1.356 . S
C1158 C1155 1.358 . S
C1158 H1214 0.930 . S
C1159 N1156 1.314 . S
C1159 C1157 1.353 . S
C1159 H1215 0.930 . S
C1160 N1161 1.314 . S
C1160 C1165 1.353 . S
C1160 H1166 0.930 . S
N1161 Li1144 1.990 . S
N1161 C1160 1.314 . S
N1161 C1163 1.279 . S
C1162 C1163 1.358 . S
C1162 C1164 1.356 . S
C1162 H1216 0.930 . S
C1163 N1161 1.279 . S
C1163 C1162 1.358 . S
C1163 H1167 0.930 . S
C1164 C1162 1.356 . S
C1164 C1165 1.348 . S
C1165 C1160 1.353 . S
C1165 C1164 1.348 . S
C1165 H1217 0.929 . S
H1166 C1160 0.930 . S
H1167 C1163 0.930 . S
C1168 N1169 1.314 . S
C1168 C1170 1.353 . S
C1168 H1174 0.930 . S
N1169 Li1145 1.990 . S
N1169 C1168 1.314 . S
N1169 C1172 1.279 . S
C1170 C1168 1.353 . S
C1170 C1173 1.348 . S
C1170 H1218 0.929 . S
C1171 C1172 1.358 . S
C1171 C1173 1.356 . S
C1171 H1219 0.930 . S
C1172 N1169 1.279 . S
C1172 C1171 1.358 . S
C1172 H1175 0.930 . S
C1173 C1170 1.348 . S
C1173 C1171 1.356 . S
H1174 C1168 0.930 . S
H1175 C1172 0.930 . S
C1176 C1178 1.348 . S
C1176 C1179 1.356 . S
C1176 O1206 1.325 . S
N1177 C1180 1.314 . S
N1177 C1181 1.279 . S
C1178 C1176 1.348 . S
C1178 C1180 1.353 . S
C1178 H1220 0.929 . S
C1179 C1176 1.356 . S
C1179 C1181 1.358 . S
C1179 H1221 0.930 . S
C1180 N1177 1.314 . S
C1180 C1178 1.353 . S
C1180 H1222 0.930 . S
C1181 N1177 1.279 . S
C1181 C1179 1.358 . S
C1181 H1223 0.930 . S
C1182 C1183 1.348 1_554 S
C1182 C1184 1.356 . S
C1182 O1207 1.325 . S
C1183 C1182 1.348 1_556 S
C1183 C1185 1.353 . S
C1183 H1224 0.929 . S
C1184 C1182 1.356 . S
C1184 C1186 1.358 1_554 S
C1184 H1225 0.930 . S
C1185 C1183 1.353 . S
C1185 N1187 1.314 . S
C1185 H1226 0.930 . S
C1186 C1184 1.358 1_556 S
C1186 N1187 1.279 . S
C1186 H1227 0.930 . S
N1187 C1185 1.314 . S
N1187 C1186 1.279 . S
C1188 C1190 1.353 1_554 S
C1188 N1191 1.314 . S
C1188 H1194 0.930 . S
C1189 N1191 1.279 . S
C1189 C1192 1.358 1_554 S
C1189 H1195 0.930 . S
C1190 C1188 1.353 1_556 S
C1190 C1193 1.348 . S
C1190 H1228 0.929 . S
N1191 Li1146 1.990 . S
N1191 C1188 1.314 . S
N1191 C1189 1.279 . S
C1192 C1189 1.358 1_556 S
C1192 C1193 1.356 . S
C1192 H1229 0.930 . S
C1193 C1190 1.348 . S
C1193 C1192 1.356 . S
H1194 C1188 0.930 . S
H1195 C1189 0.930 . S
C1196 N1197 1.314 . S
C1196 C1198 1.353 . S
C1196 H1202 0.930 . S
N1197 Li1147 1.990 . S
N1197 C1196 1.314 . S
N1197 C1200 1.279 . S
C1198 C1196 1.353 . S
C1198 C1201 1.348 . S
C1198 H1230 0.929 . S
C1199 C1200 1.358 . S
C1199 C1201 1.356 . S
C1199 H1231 0.930 . S
C1200 N1197 1.279 . S
C1200 C1199 1.358 . S
C1200 H1203 0.930 . S
C1201 C1198 1.348 . S
C1201 C1199 1.356 . S
H1202 C1196 0.930 . S
H1203 C1200 0.930 . S
O1204 Li1144 1.956 . S
O1204 Li1145 1.970 . S
O1204 Li1146 1.961 . S
O1204 C1148 1.325 . S
O1205 Li1144 1.970 . S
O1205 Li1145 1.956 . S
O1205 Li1147 1.961 . S
O1205 C1154 1.325 . S
O1206 Li1144 1.961 . S
O1206 Li1146 1.956 . S
O1206 Li1147 1.970 . S
O1206 C1176 1.325 . S
O1207 Li1145 1.961 . S
O1207 Li1146 1.970 . S
O1207 Li1147 1.956 . S
O1207 C1182 1.325 . S
H1208 C1150 0.929 . S
H1209 C1151 0.930 . S
H1210 C1152 0.930 . S
H1211 C1153 0.930 . S
H1212 C1155 0.930 . S
H1213 C1157 0.929 . S
H1214 C1158 0.930 . S
H1215 C1159 0.930 . S
H1216 C1162 0.930 . S
H1217 C1165 0.929 . S
H1218 C1170 0.929 . S
H1219 C1171 0.930 . S
H1220 C1178 0.929 . S
H1221 C1179 0.930 . S
H1222 C1180 0.930 . S
H1223 C1181 0.930 . S
H1224 C1183 0.929 . S
H1225 C1184 0.930 . S
H1226 C1185 0.930 . S
H1227 C1186 0.930 . S
H1228 C1190 0.929 . S
H1229 C1192 0.930 . S
H1230 C1198 0.929 . S
H1231 C1199 0.930 . S
Li1232 N1249 1.990 . S
Li1232 O1292 1.956 . S
Li1232 O1293 1.970 . S
Li1232 O1294 1.961 . S
Li1233 N1257 1.990 . S
Li1233 O1292 1.970 . S
Li1233 O1293 1.956 . S
Li1233 O1295 1.961 . S
Li1234 N1279 1.990 . S
Li1234 O1292 1.961 . S
Li1234 O1294 1.956 . S
Li1234 O1295 1.970 . S
Li1235 N1285 1.990 . S
Li1235 O1293 1.961 . S
Li1235 O1294 1.970 . S
Li1235 O1295 1.956 . S
C1236 C1238 1.348 . S
C1236 C1239 1.356 . S
C1236 O1292 1.325 . S
N1237 C1240 1.314 . S
N1237 C1241 1.279 . S
C1238 C1236 1.348 . S
C1238 C1240 1.353 . S
C1238 H1296 0.929 . S
C1239 C1236 1.356 . S
C1239 C1241 1.358 . S
C1239 H1297 0.930 . S
C1240 N1237 1.314 . S
C1240 C1238 1.353 . S
C1240 H1298 0.930 . S
C1241 N1237 1.279 . S
C1241 C1239 1.358 . S
C1241 H1299 0.930 . S
C1242 C1245 1.348 . S
C1242 C1246 1.356 . S
C1242 O1293 1.325 . S
C1243 N1244 1.279 . S
C1243 C1246 1.358 . S
C1243 H1300 0.930 . S
N1244 C1243 1.279 . S
N1244 C1247 1.314 . S
C1245 C1242 1.348 . S
C1245 C1247 1.353 . S
C1245 H1301 0.929 . S
C1246 C1242 1.356 . S
C1246 C1243 1.358 . S
C1246 H1302 0.930 . S
C1247 N1244 1.314 . S
C1247 C1245 1.353 . S
C1247 H1303 0.930 . S
C1248 N1249 1.314 . S
C1248 C1253 1.353 . S
C1248 H1254 0.930 . S
N1249 Li1232 1.990 . S
N1249 C1248 1.314 . S
N1249 C1251 1.279 . S
C1250 C1251 1.358 . S
C1250 C1252 1.356 . S
C1250 H1304 0.930 . S
C1251 N1249 1.279 . S
C1251 C1250 1.358 . S
C1251 H1255 0.930 . S
C1252 C1250 1.356 . S
C1252 C1253 1.348 . S
C1253 C1248 1.353 . S
C1253 C1252 1.348 . S
C1253 H1305 0.929 . S
H1254 C1248 0.930 . S
H1255 C1251 0.930 . S
C1256 N1257 1.314 . S
C1256 C1258 1.353 . S
C1256 H1262 0.930 . S
N1257 Li1233 1.990 . S
N1257 C1256 1.314 . S
N1257 C1260 1.279 . S
C1258 C1256 1.353 . S
C1258 C1261 1.348 . S
C1258 H1306 0.929 . S
C1259 C1260 1.358 . S
C1259 C1261 1.356 . S
C1259 H1307 0.930 . S
C1260 N1257 1.279 . S
C1260 C1259 1.358 . S
C1260 H1263 0.930 . S
C1261 C1258 1.348 . S
C1261 C1259 1.356 . S
H1262 C1256 0.930 . S
H1263 C1260 0.930 . S
C1264 C1266 1.348 . S
C1264 C1267 1.356 . S
C1264 O1294 1.325 . S
N1265 C1268 1.314 . S
N1265 C1269 1.279 . S
C1266 C1264 1.348 . S
C1266 C1268 1.353 . S
C1266 H1308 0.929 . S
C1267 C1264 1.356 . S
C1267 C1269 1.358 . S
C1267 H1309 0.930 . S
C1268 N1265 1.314 . S
C1268 C1266 1.353 . S
C1268 H1310 0.930 . S
C1269 N1265 1.279 . S
C1269 C1267 1.358 . S
C1269 H1311 0.930 . S
C1270 C1271 1.348 . S
C1270 C1272 1.356 . S
C1270 O1295 1.325 . S
C1271 C1270 1.348 . S
C1271 C1273 1.353 . S
C1271 H1312 0.929 . S
C1272 C1270 1.356 . S
C1272 C1274 1.358 . S
C1272 H1313 0.930 . S
C1273 C1271 1.353 . S
C1273 N1275 1.314 . S
C1273 H1314 0.930 . S
C1274 C1272 1.358 . S
C1274 N1275 1.279 . S
C1274 H1315 0.930 . S
N1275 C1273 1.314 . S
N1275 C1274 1.279 . S
C1276 C1278 1.353 . S
C1276 N1279 1.314 . S
C1276 H1282 0.930 . S
C1277 N1279 1.279 . S
C1277 C1280 1.358 . S
C1277 H1283 0.930 . S
C1278 C1276 1.353 . S
C1278 C1281 1.348 . S
C1278 H1316 0.929 . S
N1279 Li1234 1.990 . S
N1279 C1276 1.314 . S
N1279 C1277 1.279 . S
C1280 C1277 1.358 . S
C1280 C1281 1.356 . S
C1280 H1317 0.930 . S
C1281 C1278 1.348 . S
C1281 C1280 1.356 . S
H1282 C1276 0.930 . S
H1283 C1277 0.930 . S
C1284 N1285 1.314 . S
C1284 C1286 1.353 . S
C1284 H1290 0.930 . S
N1285 Li1235 1.990 . S
N1285 C1284 1.314 . S
N1285 C1288 1.279 . S
C1286 C1284 1.353 . S
C1286 C1289 1.348 . S
C1286 H1318 0.929 . S
C1287 C1288 1.358 . S
C1287 C1289 1.356 . S
C1287 H1319 0.930 . S
C1288 N1285 1.279 . S
C1288 C1287 1.358 . S
C1288 H1291 0.930 . S
C1289 C1286 1.348 . S
C1289 C1287 1.356 . S
H1290 C1284 0.930 . S
H1291 C1288 0.930 . S
O1292 Li1232 1.956 . S
O1292 Li1233 1.970 . S
O1292 Li1234 1.961 . S
O1292 C1236 1.325 . S
O1293 Li1232 1.970 . S
O1293 Li1233 1.956 . S
O1293 Li1235 1.961 . S
O1293 C1242 1.325 . S
O1294 Li1232 1.961 . S
O1294 Li1234 1.956 . S
O1294 Li1235 1.970 . S
O1294 C1264 1.325 . S
O1295 Li1233 1.961 . S
O1295 Li1234 1.970 . S
O1295 Li1235 1.956 . S
O1295 C1270 1.325 . S
H1296 C1238 0.929 . S
H1297 C1239 0.930 . S
H1298 C1240 0.930 . S
H1299 C1241 0.930 . S
H1300 C1243 0.930 . S
H1301 C1245 0.929 . S
H1302 C1246 0.930 . S
H1303 C1247 0.930 . S
H1304 C1250 0.930 . S
H1305 C1253 0.929 . S
H1306 C1258 0.929 . S
H1307 C1259 0.930 . S
H1308 C1266 0.929 . S
H1309 C1267 0.930 . S
H1310 C1268 0.930 . S
H1311 C1269 0.930 . S
H1312 C1271 0.929 . S
H1313 C1272 0.930 . S
H1314 C1273 0.930 . S
H1315 C1274 0.930 . S
H1316 C1278 0.929 . S
H1317 C1280 0.930 . S
H1318 C1286 0.929 . S
H1319 C1287 0.930 . S
Li1320 N1337 1.990 . S
Li1320 O1380 1.956 . S
Li1320 O1381 1.970 . S
Li1320 O1382 1.961 . S
Li1321 N1345 1.990 . S
Li1321 O1380 1.970 . S
Li1321 O1381 1.956 . S
Li1321 O1383 1.961 . S
Li1322 N1367 1.990 . S
Li1322 O1380 1.961 . S
Li1322 O1382 1.956 . S
Li1322 O1383 1.970 . S
Li1323 N1373 1.990 . S
Li1323 O1381 1.961 . S
Li1323 O1382 1.970 . S
Li1323 O1383 1.956 . S
C1324 C1326 1.348 . S
C1324 C1327 1.356 . S
C1324 O1380 1.325 . S
N1325 C1328 1.314 . S
N1325 C1329 1.279 . S
C1326 C1324 1.348 . S
C1326 C1328 1.353 . S
C1326 H1384 0.929 . S
C1327 C1324 1.356 . S
C1327 C1329 1.358 . S
C1327 H1385 0.930 . S
C1328 N1325 1.314 . S
C1328 C1326 1.353 . S
C1328 H1386 0.930 . S
C1329 N1325 1.279 . S
C1329 C1327 1.358 . S
C1329 H1387 0.930 . S
C1330 C1333 1.348 . S
C1330 C1334 1.356 . S
C1330 O1381 1.325 . S
C1331 N1332 1.279 . S
C1331 C1334 1.358 . S
C1331 H1388 0.930 . S
N1332 C1331 1.279 . S
N1332 C1335 1.314 . S
C1333 C1330 1.348 . S
C1333 C1335 1.353 . S
C1333 H1389 0.929 . S
C1334 C1330 1.356 . S
C1334 C1331 1.358 . S
C1334 H1390 0.930 . S
C1335 N1332 1.314 . S
C1335 C1333 1.353 . S
C1335 H1391 0.930 . S
C1336 N1337 1.314 . S
C1336 C1341 1.353 . S
C1336 H1342 0.930 . S
N1337 Li1320 1.990 . S
N1337 C1336 1.314 . S
N1337 C1339 1.279 . S
C1338 C1339 1.358 . S
C1338 C1340 1.356 . S
C1338 H1392 0.930 . S
C1339 N1337 1.279 . S
C1339 C1338 1.358 . S
C1339 H1343 0.930 . S
C1340 C1338 1.356 . S
C1340 C1341 1.348 . S
C1341 C1336 1.353 . S
C1341 C1340 1.348 . S
C1341 H1393 0.929 . S
H1342 C1336 0.930 . S
H1343 C1339 0.930 . S
C1344 N1345 1.314 . S
C1344 C1346 1.353 . S
C1344 H1350 0.930 . S
N1345 Li1321 1.990 . S
N1345 C1344 1.314 . S
N1345 C1348 1.279 . S
C1346 C1344 1.353 . S
C1346 C1349 1.348 . S
C1346 H1394 0.929 . S
C1347 C1348 1.358 . S
C1347 C1349 1.356 . S
C1347 H1395 0.930 . S
C1348 N1345 1.279 . S
C1348 C1347 1.358 . S
C1348 H1351 0.930 . S
C1349 C1346 1.348 . S
C1349 C1347 1.356 . S
H1350 C1344 0.930 . S
H1351 C1348 0.930 . S
C1352 C1354 1.348 . S
C1352 C1355 1.356 . S
C1352 O1382 1.325 . S
N1353 C1356 1.314 . S
N1353 C1357 1.279 . S
C1354 C1352 1.348 . S
C1354 C1356 1.353 . S
C1354 H1396 0.929 . S
C1355 C1352 1.356 . S
C1355 C1357 1.358 . S
C1355 H1397 0.930 . S
C1356 N1353 1.314 . S
C1356 C1354 1.353 . S
C1356 H1398 0.930 . S
C1357 N1353 1.279 . S
C1357 C1355 1.358 . S
C1357 H1399 0.930 . S
C1358 C1359 1.348 . S
C1358 C1360 1.356 . S
C1358 O1383 1.325 . S
C1359 C1358 1.348 . S
C1359 C1361 1.353 . S
C1359 H1400 0.929 . S
C1360 C1358 1.356 . S
C1360 C1362 1.358 . S
C1360 H1401 0.930 . S
C1361 C1359 1.353 . S
C1361 N1363 1.314 . S
C1361 H1402 0.930 . S
C1362 C1360 1.358 . S
C1362 N1363 1.279 . S
C1362 H1403 0.930 . S
N1363 C1361 1.314 . S
N1363 C1362 1.279 . S
C1364 C1366 1.353 . S
C1364 N1367 1.314 . S
C1364 H1370 0.930 . S
C1365 N1367 1.279 . S
C1365 C1368 1.358 . S
C1365 H1371 0.930 . S
C1366 C1364 1.353 . S
C1366 C1369 1.348 . S
C1366 H1404 0.929 . S
N1367 Li1322 1.990 . S
N1367 C1364 1.314 . S
N1367 C1365 1.279 . S
C1368 C1365 1.358 . S
C1368 C1369 1.356 . S
C1368 H1405 0.930 . S
C1369 C1366 1.348 . S
C1369 C1368 1.356 . S
H1370 C1364 0.930 . S
H1371 C1365 0.930 . S
C1372 N1373 1.314 . S
C1372 C1374 1.353 . S
C1372 H1378 0.930 . S
N1373 Li1323 1.990 . S
N1373 C1372 1.314 . S
N1373 C1376 1.279 . S
C1374 C1372 1.353 . S
C1374 C1377 1.348 . S
C1374 H1406 0.929 . S
C1375 C1376 1.358 . S
C1375 C1377 1.356 . S
C1375 H1407 0.930 . S
C1376 N1373 1.279 . S
C1376 C1375 1.358 . S
C1376 H1379 0.930 . S
C1377 C1374 1.348 . S
C1377 C1375 1.356 . S
H1378 C1372 0.930 . S
H1379 C1376 0.930 . S
O1380 Li1320 1.956 . S
O1380 Li1321 1.970 . S
O1380 Li1322 1.961 . S
O1380 C1324 1.325 . S
O1381 Li1320 1.970 . S
O1381 Li1321 1.956 . S
O1381 Li1323 1.961 . S
O1381 C1330 1.325 . S
O1382 Li1320 1.961 . S
O1382 Li1322 1.956 . S
O1382 Li1323 1.970 . S
O1382 C1352 1.325 . S
O1383 Li1321 1.961 . S
O1383 Li1322 1.970 . S
O1383 Li1323 1.956 . S
O1383 C1358 1.325 . S
H1384 C1326 0.929 . S
H1385 C1327 0.930 . S
H1386 C1328 0.930 . S
H1387 C1329 0.930 . S
H1388 C1331 0.930 . S
H1389 C1333 0.929 . S
H1390 C1334 0.930 . S
H1391 C1335 0.930 . S
H1392 C1338 0.930 . S
H1393 C1341 0.929 . S
H1394 C1346 0.929 . S
H1395 C1347 0.930 . S
H1396 C1354 0.929 . S
H1397 C1355 0.930 . S
H1398 C1356 0.930 . S
H1399 C1357 0.930 . S
H1400 C1359 0.929 . S
H1401 C1360 0.930 . S
H1402 C1361 0.930 . S
H1403 C1362 0.930 . S
H1404 C1366 0.929 . S
H1405 C1368 0.930 . S
H1406 C1374 0.929 . S
H1407 C1375 0.930 . S
Li1408 N1425 1.990 . S
Li1408 O1468 1.956 . S
Li1408 O1469 1.970 . S
Li1408 O1470 1.961 . S
Li1409 N1433 1.990 1_545 S
Li1409 O1468 1.970 . S
Li1409 O1469 1.956 . S
Li1409 O1471 1.961 . S
Li1410 N1455 1.990 . S
Li1410 O1468 1.961 . S
Li1410 O1470 1.956 . S
Li1410 O1471 1.970 . S
Li1411 N1461 1.990 . S
Li1411 O1469 1.961 . S
Li1411 O1470 1.970 . S
Li1411 O1471 1.956 . S
C1412 C1414 1.348 . S
C1412 C1415 1.356 1_565 S
C1412 O1468 1.325 1_565 S
N1413 C1416 1.314 . S
N1413 C1417 1.279 . S
C1414 C1412 1.348 . S
C1414 C1416 1.353 . S
C1414 H1472 0.929 . S
C1415 C1412 1.356 1_545 S
C1415 C1417 1.358 1_545 S
C1415 H1473 0.930 . S
C1416 N1413 1.314 . S
C1416 C1414 1.353 . S
C1416 H1474 0.930 . S
C1417 N1413 1.279 . S
C1417 C1415 1.358 1_565 S
C1417 H1475 0.930 1_655 S
C1418 C1421 1.348 . S
C1418 C1422 1.356 . S
C1418 O1469 1.325 . S
C1419 N1420 1.279 . S
C1419 C1422 1.358 . S
C1419 H1476 0.930 . S
N1420 C1419 1.279 . S
N1420 C1423 1.314 . S
C1421 C1418 1.348 . S
C1421 C1423 1.353 . S
C1421 H1477 0.929 . S
C1422 C1418 1.356 . S
C1422 C1419 1.358 . S
C1422 H1478 0.930 . S
C1423 N1420 1.314 . S
C1423 C1421 1.353 . S
C1423 H1479 0.930 . S
C1424 N1425 1.314 . S
C1424 C1429 1.353 . S
C1424 H1430 0.930 . S
N1425 Li1408 1.990 . S
N1425 C1424 1.314 . S
N1425 C1427 1.279 . S
C1426 C1427 1.358 . S
C1426 C1428 1.356 1_655 S
C1426 H1480 0.930 1_655 S
C1427 N1425 1.279 . S
C1427 C1426 1.358 . S
C1427 H1431 0.930 . S
C1428 C1426 1.356 1_455 S
C1428 C1429 1.348 1_455 S
C1429 C1424 1.353 . S
C1429 C1428 1.348 1_655 S
C1429 H1481 0.929 . S
H1430 C1424 0.930 . S
H1431 C1427 0.930 . S
C1432 N1433 1.314 . S
C1432 C1434 1.353 . S
C1432 H1438 0.930 . S
N1433 Li1409 1.990 1_565 S
N1433 C1432 1.314 . S
N1433 C1436 1.279 . S
C1434 C1432 1.353 . S
C1434 C1437 1.348 . S
C1434 H1482 0.929 . S
C1435 C1436 1.358 . S
C1435 C1437 1.356 . S
C1435 H1483 0.930 . S
C1436 N1433 1.279 . S
C1436 C1435 1.358 . S
C1436 H1439 0.930 . S
C1437 C1434 1.348 . S
C1437 C1435 1.356 . S
H1438 C1432 0.930 . S
H1439 C1436 0.930 . S
C1440 C1442 1.348 . S
C1440 C1443 1.356 . S
C1440 O1470 1.325 . S
N1441 C1444 1.314 1_455 S
N1441 C1445 1.279 . S
C1442 C1440 1.348 . S
C1442 C1444 1.353 . S
C1442 H1484 0.929 . S
C1443 C1440 1.356 . S
C1443 C1445 1.358 1_655 S
C1443 H1485 0.930 . S
C1444 N1441 1.314 1_655 S
C1444 C1442 1.353 . S
C1444 H1486 0.930 . S
C1445 N1441 1.279 . S
C1445 C1443 1.358 1_455 S
C1445 H1487 0.930 . S
C1446 C1447 1.348 . S
C1446 C1448 1.356 . S
C1446 O1471 1.325 . S
C1447 C1446 1.348 . S
C1447 C1449 1.353 . S
C1447 H1488 0.929 . S
C1448 C1446 1.356 . S
C1448 C1450 1.358 . S
C1448 H1489 0.930 . S
C1449 C1447 1.353 . S
C1449 N1451 1.314 . S
C1449 H1490 0.930 . S
C1450 C1448 1.358 . S
C1450 N1451 1.279 . S
C1450 H1491 0.930 . S
N1451 C1449 1.314 . S
N1451 C1450 1.279 . S
C1452 C1454 1.353 . S
C1452 N1455 1.314 . S
C1452 H1458 0.930 . S
C1453 N1455 1.279 . S
C1453 C1456 1.358 . S
C1453 H1459 0.930 . S
C1454 C1452 1.353 . S
C1454 C1457 1.348 . S
C1454 H1492 0.929 . S
N1455 Li1410 1.990 . S
N1455 C1452 1.314 . S
N1455 C1453 1.279 . S
C1456 C1453 1.358 . S
C1456 C1457 1.356 . S
C1456 H1493 0.930 1_655 S
C1457 C1454 1.348 . S
C1457 C1456 1.356 . S
H1458 C1452 0.930 . S
H1459 C1453 0.930 . S
C1460 N1461 1.314 . S
C1460 C1462 1.353 . S
C1460 H1466 0.930 . S
N1461 Li1411 1.990 . S
N1461 C1460 1.314 . S
N1461 C1464 1.279 . S
C1462 C1460 1.353 . S
C1462 C1465 1.348 . S
C1462 H1494 0.929 . S
C1463 C1464 1.358 . S
C1463 C1465 1.356 . S
C1463 H1495 0.930 . S
C1464 N1461 1.279 . S
C1464 C1463 1.358 . S
C1464 H1467 0.930 . S
C1465 C1462 1.348 . S
C1465 C1463 1.356 . S
H1466 C1460 0.930 . S
H1467 C1464 0.930 . S
O1468 Li1408 1.956 . S
O1468 Li1409 1.970 . S
O1468 Li1410 1.961 . S
O1468 C1412 1.325 1_545 S
O1469 Li1408 1.970 . S
O1469 Li1409 1.956 . S
O1469 Li1411 1.961 . S
O1469 C1418 1.325 . S
O1470 Li1408 1.961 . S
O1470 Li1410 1.956 . S
O1470 Li1411 1.970 . S
O1470 C1440 1.325 . S
O1471 Li1409 1.961 . S
O1471 Li1410 1.970 . S
O1471 Li1411 1.956 . S
O1471 C1446 1.325 . S
H1472 C1414 0.929 . S
H1473 C1415 0.930 . S
H1474 C1416 0.930 . S
H1475 C1417 0.930 1_455 S
H1476 C1419 0.930 . S
H1477 C1421 0.929 . S
H1478 C1422 0.930 . S
H1479 C1423 0.930 . S
H1480 C1426 0.930 1_455 S
H1481 C1429 0.929 . S
H1482 C1434 0.929 . S
H1483 C1435 0.930 . S
H1484 C1442 0.929 . S
H1485 C1443 0.930 . S
H1486 C1444 0.930 . S
H1487 C1445 0.930 . S
H1488 C1447 0.929 . S
H1489 C1448 0.930 . S
H1490 C1449 0.930 . S
H1491 C1450 0.930 . S
H1492 C1454 0.929 . S
H1493 C1456 0.930 1_455 S
H1494 C1462 0.929 . S
H1495 C1463 0.930 . S
Li1496 N1513 1.990 . S
Li1496 O1556 1.956 . S
Li1496 O1557 1.970 . S
Li1496 O1558 1.961 . S
Li1497 N1521 1.990 . S
Li1497 O1556 1.970 . S
Li1497 O1557 1.956 . S
Li1497 O1559 1.961 . S
Li1498 N1543 1.990 . S
Li1498 O1556 1.961 . S
Li1498 O1558 1.956 . S
Li1498 O1559 1.970 . S
Li1499 N1549 1.990 . S
Li1499 O1557 1.961 . S
Li1499 O1558 1.970 . S
Li1499 O1559 1.956 . S
C1500 C1502 1.348 . S
C1500 C1503 1.356 . S
C1500 O1556 1.325 . S
N1501 C1504 1.314 . S
N1501 C1505 1.279 . S
C1502 C1500 1.348 . S
C1502 C1504 1.353 . S
C1502 H1560 0.929 . S
C1503 C1500 1.356 . S
C1503 C1505 1.358 . S
C1503 H1561 0.930 . S
C1504 N1501 1.314 . S
C1504 C1502 1.353 . S
C1504 H1562 0.930 . S
C1505 N1501 1.279 . S
C1505 C1503 1.358 . S
C1505 H1563 0.930 . S
C1506 C1509 1.348 . S
C1506 C1510 1.356 . S
C1506 O1557 1.325 . S
C1507 N1508 1.279 . S
C1507 C1510 1.358 . S
C1507 H1564 0.930 . S
N1508 C1507 1.279 . S
N1508 C1511 1.314 . S
C1509 C1506 1.348 . S
C1509 C1511 1.353 . S
C1509 H1565 0.929 . S
C1510 C1506 1.356 . S
C1510 C1507 1.358 . S
C1510 H1566 0.930 . S
C1511 N1508 1.314 . S
C1511 C1509 1.353 . S
C1511 H1567 0.930 . S
C1512 N1513 1.314 . S
C1512 C1517 1.353 . S
C1512 H1518 0.930 . S
N1513 Li1496 1.990 . S
N1513 C1512 1.314 . S
N1513 C1515 1.279 . S
C1514 C1515 1.358 . S
C1514 C1516 1.356 . S
C1514 H1568 0.930 . S
C1515 N1513 1.279 . S
C1515 C1514 1.358 . S
C1515 H1519 0.930 . S
C1516 C1514 1.356 . S
C1516 C1517 1.348 . S
C1517 C1512 1.353 . S
C1517 C1516 1.348 . S
C1517 H1569 0.929 . S
H1518 C1512 0.930 . S
H1519 C1515 0.930 . S
C1520 N1521 1.314 . S
C1520 C1522 1.353 . S
C1520 H1526 0.930 . S
N1521 Li1497 1.990 . S
N1521 C1520 1.314 . S
N1521 C1524 1.279 . S
C1522 C1520 1.353 . S
C1522 C1525 1.348 . S
C1522 H1570 0.929 . S
C1523 C1524 1.358 . S
C1523 C1525 1.356 . S
C1523 H1571 0.930 . S
C1524 N1521 1.279 . S
C1524 C1523 1.358 . S
C1524 H1527 0.930 . S
C1525 C1522 1.348 . S
C1525 C1523 1.356 . S
H1526 C1520 0.930 . S
H1527 C1524 0.930 . S
C1528 C1530 1.348 . S
C1528 C1531 1.356 . S
C1528 O1558 1.325 . S
N1529 C1532 1.314 . S
N1529 C1533 1.279 . S
C1530 C1528 1.348 . S
C1530 C1532 1.353 . S
C1530 H1572 0.929 . S
C1531 C1528 1.356 . S
C1531 C1533 1.358 . S
C1531 H1573 0.930 . S
C1532 N1529 1.314 . S
C1532 C1530 1.353 . S
C1532 H1574 0.930 . S
C1533 N1529 1.279 . S
C1533 C1531 1.358 . S
C1533 H1575 0.930 . S
C1534 C1535 1.348 . S
C1534 C1536 1.356 . S
C1534 O1559 1.325 . S
C1535 C1534 1.348 . S
C1535 C1537 1.353 . S
C1535 H1576 0.929 . S
C1536 C1534 1.356 . S
C1536 C1538 1.358 . S
C1536 H1577 0.930 . S
C1537 C1535 1.353 . S
C1537 N1539 1.314 . S
C1537 H1578 0.930 . S
C1538 C1536 1.358 . S
C1538 N1539 1.279 . S
C1538 H1579 0.930 . S
N1539 C1537 1.314 . S
N1539 C1538 1.279 . S
C1540 C1542 1.353 . S
C1540 N1543 1.314 . S
C1540 H1546 0.930 . S
C1541 N1543 1.279 . S
C1541 C1544 1.358 . S
C1541 H1547 0.930 . S
C1542 C1540 1.353 . S
C1542 C1545 1.348 . S
C1542 H1580 0.929 . S
N1543 Li1498 1.990 . S
N1543 C1540 1.314 . S
N1543 C1541 1.279 . S
C1544 C1541 1.358 . S
C1544 C1545 1.356 . S
C1544 H1581 0.930 . S
C1545 C1542 1.348 . S
C1545 C1544 1.356 . S
H1546 C1540 0.930 . S
H1547 C1541 0.930 . S
C1548 N1549 1.314 . S
C1548 C1550 1.353 . S
C1548 H1554 0.930 . S
N1549 Li1499 1.990 . S
N1549 C1548 1.314 . S
N1549 C1552 1.279 . S
C1550 C1548 1.353 . S
C1550 C1553 1.348 . S
C1550 H1582 0.929 . S
C1551 C1552 1.358 . S
C1551 C1553 1.356 . S
C1551 H1583 0.930 . S
C1552 N1549 1.279 . S
C1552 C1551 1.358 . S
C1552 H1555 0.930 . S
C1553 C1550 1.348 . S
C1553 C1551 1.356 . S
H1554 C1548 0.930 . S
H1555 C1552 0.930 . S
O1556 Li1496 1.956 . S
O1556 Li1497 1.970 . S
O1556 Li1498 1.961 . S
O1556 C1500 1.325 . S
O1557 Li1496 1.970 . S
O1557 Li1497 1.956 . S
O1557 Li1499 1.961 . S
O1557 C1506 1.325 . S
O1558 Li1496 1.961 . S
O1558 Li1498 1.956 . S
O1558 Li1499 1.970 . S
O1558 C1528 1.325 . S
O1559 Li1497 1.961 . S
O1559 Li1498 1.970 . S
O1559 Li1499 1.956 . S
O1559 C1534 1.325 . S
H1560 C1502 0.929 . S
H1561 C1503 0.930 . S
H1562 C1504 0.930 . S
H1563 C1505 0.930 . S
H1564 C1507 0.930 . S
H1565 C1509 0.929 . S
H1566 C1510 0.930 . S
H1567 C1511 0.930 . S
H1568 C1514 0.930 . S
H1569 C1517 0.929 . S
H1570 C1522 0.929 . S
H1571 C1523 0.930 . S
H1572 C1530 0.929 . S
H1573 C1531 0.930 . S
H1574 C1532 0.930 . S
H1575 C1533 0.930 . S
H1576 C1535 0.929 . S
H1577 C1536 0.930 . S
H1578 C1537 0.930 . S
H1579 C1538 0.930 . S
H1580 C1542 0.929 . S
H1581 C1544 0.930 . S
H1582 C1550 0.929 . S
H1583 C1551 0.930 . S
Li1584 N1601 1.990 . S
Li1584 O1644 1.956 . S
Li1584 O1645 1.970 . S
Li1584 O1646 1.961 . S
Li1585 N1609 1.990 . S
Li1585 O1644 1.970 . S
Li1585 O1645 1.956 . S
Li1585 O1647 1.961 . S
Li1586 N1631 1.990 . S
Li1586 O1644 1.961 . S
Li1586 O1646 1.956 . S
Li1586 O1647 1.970 . S
Li1587 N1637 1.990 . S
Li1587 O1645 1.961 . S
Li1587 O1646 1.970 . S
Li1587 O1647 1.956 . S
C1588 C1590 1.348 . S
C1588 C1591 1.356 . S
C1588 O1644 1.325 . S
N1589 C1592 1.314 . S
N1589 C1593 1.279 . S
C1590 C1588 1.348 . S
C1590 C1592 1.353 . S
C1590 H1648 0.929 . S
C1591 C1588 1.356 . S
C1591 C1593 1.358 . S
C1591 H1649 0.930 . S
C1592 N1589 1.314 . S
C1592 C1590 1.353 . S
C1592 H1650 0.930 . S
C1593 N1589 1.279 . S
C1593 C1591 1.358 . S
C1593 H1651 0.930 . S
C1594 C1597 1.348 . S
C1594 C1598 1.356 . S
C1594 O1645 1.325 . S
C1595 N1596 1.279 . S
C1595 C1598 1.358 . S
C1595 H1652 0.930 . S
N1596 C1595 1.279 . S
N1596 C1599 1.314 . S
C1597 C1594 1.348 . S
C1597 C1599 1.353 . S
C1597 H1653 0.929 . S
C1598 C1594 1.356 . S
C1598 C1595 1.358 . S
C1598 H1654 0.930 . S
C1599 N1596 1.314 . S
C1599 C1597 1.353 . S
C1599 H1655 0.930 . S
C1600 N1601 1.314 . S
C1600 C1605 1.353 . S
C1600 H1606 0.930 . S
N1601 Li1584 1.990 . S
N1601 C1600 1.314 . S
N1601 C1603 1.279 . S
C1602 C1603 1.358 . S
C1602 C1604 1.356 . S
C1602 H1656 0.930 . S
C1603 N1601 1.279 . S
C1603 C1602 1.358 . S
C1603 H1607 0.930 . S
C1604 C1602 1.356 . S
C1604 C1605 1.348 . S
C1605 C1600 1.353 . S
C1605 C1604 1.348 . S
C1605 H1657 0.929 . S
H1606 C1600 0.930 . S
H1607 C1603 0.930 . S
C1608 N1609 1.314 . S
C1608 C1610 1.353 . S
C1608 H1614 0.930 . S
N1609 Li1585 1.990 . S
N1609 C1608 1.314 . S
N1609 C1612 1.279 . S
C1610 C1608 1.353 . S
C1610 C1613 1.348 . S
C1610 H1658 0.929 . S
C1611 C1612 1.358 . S
C1611 C1613 1.356 . S
C1611 H1659 0.930 . S
C1612 N1609 1.279 . S
C1612 C1611 1.358 . S
C1612 H1615 0.930 . S
C1613 C1610 1.348 . S
C1613 C1611 1.356 . S
H1614 C1608 0.930 . S
H1615 C1612 0.930 . S
C1616 C1618 1.348 . S
C1616 C1619 1.356 . S
C1616 O1646 1.325 . S
N1617 C1620 1.314 . S
N1617 C1621 1.279 . S
C1618 C1616 1.348 . S
C1618 C1620 1.353 . S
C1618 H1660 0.929 . S
C1619 C1616 1.356 . S
C1619 C1621 1.358 . S
C1619 H1661 0.930 . S
C1620 N1617 1.314 . S
C1620 C1618 1.353 . S
C1620 H1662 0.930 . S
C1621 N1617 1.279 . S
C1621 C1619 1.358 . S
C1621 H1663 0.930 . S
C1622 C1623 1.348 . S
C1622 C1624 1.356 . S
C1622 O1647 1.325 . S
C1623 C1622 1.348 . S
C1623 C1625 1.353 . S
C1623 H1664 0.929 . S
C1624 C1622 1.356 . S
C1624 C1626 1.358 . S
C1624 H1665 0.930 . S
C1625 C1623 1.353 . S
C1625 N1627 1.314 . S
C1625 H1666 0.930 . S
C1626 C1624 1.358 . S
C1626 N1627 1.279 . S
C1626 H1667 0.930 . S
N1627 C1625 1.314 . S
N1627 C1626 1.279 . S
C1628 C1630 1.353 . S
C1628 N1631 1.314 . S
C1628 H1634 0.930 . S
C1629 N1631 1.279 . S
C1629 C1632 1.358 . S
C1629 H1635 0.930 . S
C1630 C1628 1.353 . S
C1630 C1633 1.348 . S
C1630 H1668 0.929 . S
N1631 Li1586 1.990 . S
N1631 C1628 1.314 . S
N1631 C1629 1.279 . S
C1632 C1629 1.358 . S
C1632 C1633 1.356 . S
C1632 H1669 0.930 . S
C1633 C1630 1.348 . S
C1633 C1632 1.356 . S
H1634 C1628 0.930 . S
H1635 C1629 0.930 . S
C1636 N1637 1.314 . S
C1636 C1638 1.353 . S
C1636 H1642 0.930 . S
N1637 Li1587 1.990 . S
N1637 C1636 1.314 . S
N1637 C1640 1.279 . S
C1638 C1636 1.353 . S
C1638 C1641 1.348 . S
C1638 H1670 0.929 . S
C1639 C1640 1.358 . S
C1639 C1641 1.356 . S
C1639 H1671 0.930 . S
C1640 N1637 1.279 . S
C1640 C1639 1.358 . S
C1640 H1643 0.930 . S
C1641 C1638 1.348 . S
C1641 C1639 1.356 . S
H1642 C1636 0.930 . S
H1643 C1640 0.930 . S
O1644 Li1584 1.956 . S
O1644 Li1585 1.970 . S
O1644 Li1586 1.961 . S
O1644 C1588 1.325 . S
O1645 Li1584 1.970 . S
O1645 Li1585 1.956 . S
O1645 Li1587 1.961 . S
O1645 C1594 1.325 . S
O1646 Li1584 1.961 . S
O1646 Li1586 1.956 . S
O1646 Li1587 1.970 . S
O1646 C1616 1.325 . S
O1647 Li1585 1.961 . S
O1647 Li1586 1.970 . S
O1647 Li1587 1.956 . S
O1647 C1622 1.325 . S
H1648 C1590 0.929 . S
H1649 C1591 0.930 . S
H1650 C1592 0.930 . S
H1651 C1593 0.930 . S
H1652 C1595 0.930 . S
H1653 C1597 0.929 . S
H1654 C1598 0.930 . S
H1655 C1599 0.930 . S
H1656 C1602 0.930 . S
H1657 C1605 0.929 . S
H1658 C1610 0.929 . S
H1659 C1611 0.930 . S
H1660 C1618 0.929 . S
H1661 C1619 0.930 . S
H1662 C1620 0.930 . S
H1663 C1621 0.930 . S
H1664 C1623 0.929 . S
H1665 C1624 0.930 . S
H1666 C1625 0.930 . S
H1667 C1626 0.930 . S
H1668 C1630 0.929 . S
H1669 C1632 0.930 . S
H1670 C1638 0.929 . S
H1671 C1639 0.930 . S
Li1672 N1689 1.990 . S
Li1672 O1732 1.956 . S
Li1672 O1733 1.970 . S
Li1672 O1734 1.961 . S
Li1673 N1697 1.990 . S
Li1673 O1732 1.970 . S
Li1673 O1733 1.956 . S
Li1673 O1735 1.961 . S
Li1674 N1719 1.990 . S
Li1674 O1732 1.961 . S
Li1674 O1734 1.956 . S
Li1674 O1735 1.970 . S
Li1675 N1725 1.990 . S
Li1675 O1733 1.961 . S
Li1675 O1734 1.970 . S
Li1675 O1735 1.956 . S
C1676 C1678 1.348 . S
C1676 C1679 1.356 . S
C1676 O1732 1.325 . S
N1677 C1680 1.314 . S
N1677 C1681 1.279 . S
C1678 C1676 1.348 . S
C1678 C1680 1.353 . S
C1678 H1736 0.929 . S
C1679 C1676 1.356 . S
C1679 C1681 1.358 . S
C1679 H1737 0.930 . S
C1680 N1677 1.314 . S
C1680 C1678 1.353 . S
C1680 H1738 0.930 . S
C1681 N1677 1.279 . S
C1681 C1679 1.358 . S
C1681 H1739 0.930 . S
C1682 C1685 1.348 . S
C1682 C1686 1.356 . S
C1682 O1733 1.325 . S
C1683 N1684 1.279 . S
C1683 C1686 1.358 . S
C1683 H1740 0.930 . S
N1684 C1683 1.279 . S
N1684 C1687 1.314 . S
C1685 C1682 1.348 . S
C1685 C1687 1.353 . S
C1685 H1741 0.929 . S
C1686 C1682 1.356 . S
C1686 C1683 1.358 . S
C1686 H1742 0.930 . S
C1687 N1684 1.314 . S
C1687 C1685 1.353 . S
C1687 H1743 0.930 . S
C1688 N1689 1.314 . S
C1688 C1693 1.353 . S
C1688 H1694 0.930 . S
N1689 Li1672 1.990 . S
N1689 C1688 1.314 . S
N1689 C1691 1.279 . S
C1690 C1691 1.358 . S
C1690 C1692 1.356 . S
C1690 H1744 0.930 . S
C1691 N1689 1.279 . S
C1691 C1690 1.358 . S
C1691 H1695 0.930 . S
C1692 C1690 1.356 . S
C1692 C1693 1.348 . S
C1693 C1688 1.353 . S
C1693 C1692 1.348 . S
C1693 H1745 0.929 . S
H1694 C1688 0.930 . S
H1695 C1691 0.930 . S
C1696 N1697 1.314 . S
C1696 C1698 1.353 . S
C1696 H1702 0.930 . S
N1697 Li1673 1.990 . S
N1697 C1696 1.314 . S
N1697 C1700 1.279 . S
C1698 C1696 1.353 . S
C1698 C1701 1.348 . S
C1698 H1746 0.929 . S
C1699 C1700 1.358 . S
C1699 C1701 1.356 . S
C1699 H1747 0.930 . S
C1700 N1697 1.279 . S
C1700 C1699 1.358 . S
C1700 H1703 0.930 . S
C1701 C1698 1.348 . S
C1701 C1699 1.356 . S
H1702 C1696 0.930 . S
H1703 C1700 0.930 . S
C1704 C1706 1.348 . S
C1704 C1707 1.356 . S
C1704 O1734 1.325 . S
N1705 C1708 1.314 . S
N1705 C1709 1.279 1_565 S
C1706 C1704 1.348 . S
C1706 C1708 1.353 1_545 S
C1706 H1748 0.929 . S
C1707 C1704 1.356 . S
C1707 C1709 1.358 . S
C1707 H1749 0.930 . S
C1708 N1705 1.314 . S
C1708 C1706 1.353 1_565 S
C1708 H1750 0.930 . S
C1709 N1705 1.279 1_545 S
C1709 C1707 1.358 . S
C1709 H1751 0.930 . S
C1710 C1711 1.348 . S
C1710 C1712 1.356 . S
C1710 O1735 1.325 . S
C1711 C1710 1.348 . S
C1711 C1713 1.353 . S
C1711 H1752 0.929 . S
C1712 C1710 1.356 . S
C1712 C1714 1.358 . S
C1712 H1753 0.930 . S
C1713 C1711 1.353 . S
C1713 N1715 1.314 . S
C1713 H1754 0.930 . S
C1714 C1712 1.358 . S
C1714 N1715 1.279 . S
C1714 H1755 0.930 . S
N1715 C1713 1.314 . S
N1715 C1714 1.279 . S
C1716 C1718 1.353 . S
C1716 N1719 1.314 . S
C1716 H1722 0.930 . S
C1717 N1719 1.279 . S
C1717 C1720 1.358 . S
C1717 H1723 0.930 . S
C1718 C1716 1.353 . S
C1718 C1721 1.348 . S
C1718 H1756 0.929 . S
N1719 Li1674 1.990 . S
N1719 C1716 1.314 . S
N1719 C1717 1.279 . S
C1720 C1717 1.358 . S
C1720 C1721 1.356 . S
C1720 H1757 0.930 . S
C1721 C1718 1.348 . S
C1721 C1720 1.356 . S
H1722 C1716 0.930 . S
H1723 C1717 0.930 . S
C1724 N1725 1.314 . S
C1724 C1726 1.353 . S
C1724 H1730 0.930 . S
N1725 Li1675 1.990 . S
N1725 C1724 1.314 . S
N1725 C1728 1.279 . S
C1726 C1724 1.353 . S
C1726 C1729 1.370 . S
C1726 H1758 0.929 . S
C1727 C1728 1.358 . S
C1727 C1729 1.393 . S
C1727 H1759 0.930 . S
C1728 N1725 1.279 . S
C1728 C1727 1.358 . S
C1728 H1731 0.930 . S
C1729 C1726 1.370 . S
C1729 C1727 1.393 . S
H1730 C1724 0.930 . S
H1731 C1728 0.930 . S
O1732 Li1672 1.956 . S
O1732 Li1673 1.970 . S
O1732 Li1674 1.961 . S
O1732 C1676 1.325 . S
O1733 Li1672 1.970 . S
O1733 Li1673 1.956 . S
O1733 Li1675 1.961 . S
O1733 C1682 1.325 . S
O1734 Li1672 1.961 . S
O1734 Li1674 1.956 . S
O1734 Li1675 1.970 . S
O1734 C1704 1.325 . S
O1735 Li1673 1.961 . S
O1735 Li1674 1.970 . S
O1735 Li1675 1.956 . S
O1735 C1710 1.325 . S
H1736 C1678 0.929 . S
H1737 C1679 0.930 . S
H1738 C1680 0.930 . S
H1739 C1681 0.930 . S
H1740 C1683 0.930 . S
H1741 C1685 0.929 . S
H1742 C1686 0.930 . S
H1743 C1687 0.930 . S
H1744 C1690 0.930 . S
H1745 C1693 0.929 . S
H1746 C1698 0.929 . S
H1747 C1699 0.930 . S
H1748 C1706 0.929 . S
H1749 C1707 0.930 . S
H1750 C1708 0.930 . S
H1751 C1709 0.930 . S
H1752 C1711 0.929 . S
H1753 C1712 0.930 . S
H1754 C1713 0.930 . S
H1755 C1714 0.930 . S
H1756 C1718 0.929 . S
H1757 C1720 0.930 . S
H1758 C1726 0.929 . S
H1759 C1727 0.930 . S
Li1760 N1777 1.990 . S
Li1760 O1820 1.956 . S
Li1760 O1821 1.970 . S
Li1760 O1822 1.961 . S
Li1761 N1785 1.990 . S
Li1761 O1820 1.970 . S
Li1761 O1821 1.956 . S
Li1761 O1823 1.957 1_554 S
Li1762 N1807 1.990 1_554 S
Li1762 O1820 1.961 . S
Li1762 O1822 1.956 . S
Li1762 O1823 1.970 1_554 S
Li1763 N1813 1.990 . S
Li1763 O1821 1.961 . S
Li1763 O1822 1.970 . S
Li1763 O1823 1.952 1_554 S
C1764 C1766 1.348 . S
C1764 C1767 1.356 . S
C1764 O1820 1.325 . S
N1765 C1768 1.314 . S
N1765 C1769 1.279 . S
C1766 C1764 1.348 . S
C1766 C1768 1.353 . S
C1766 H1824 0.929 . S
C1767 C1764 1.356 . S
C1767 C1769 1.358 . S
C1767 H1825 0.930 . S
C1768 N1765 1.314 . S
C1768 C1766 1.353 . S
C1768 H1826 0.930 . S
C1769 N1765 1.279 . S
C1769 C1767 1.358 . S
C1769 H1827 0.930 . S
C1770 C1773 1.348 . S
C1770 C1774 1.356 . S
C1770 O1821 1.325 . S
C1771 N1772 1.279 . S
C1771 C1774 1.358 . S
C1771 H1828 0.930 . S
N1772 C1771 1.279 . S
N1772 C1775 1.314 . S
C1773 C1770 1.348 . S
C1773 C1775 1.353 . S
C1773 H1829 0.929 . S
C1774 C1770 1.356 . S
C1774 C1771 1.358 . S
C1774 H1830 0.930 . S
C1775 N1772 1.314 . S
C1775 C1773 1.353 . S
C1775 H1831 0.930 . S
C1776 N1777 1.314 . S
C1776 C1781 1.353 . S
C1776 H1782 0.930 . S
N1777 Li1760 1.990 . S
N1777 C1776 1.314 . S
N1777 C1779 1.279 . S
C1778 C1779 1.358 . S
C1778 C1780 1.356 . S
C1778 H1832 0.930 . S
C1779 N1777 1.279 . S
C1779 C1778 1.358 . S
C1779 H1783 0.930 . S
C1780 C1778 1.356 . S
C1780 C1781 1.348 . S
C1781 C1776 1.353 . S
C1781 C1780 1.348 . S
C1781 H1833 0.929 . S
H1782 C1776 0.930 . S
H1783 C1779 0.930 . S
C1784 N1785 1.314 . S
C1784 C1786 1.353 . S
C1784 H1790 0.930 1_554 S
N1785 Li1761 1.990 . S
N1785 C1784 1.314 . S
N1785 C1788 1.279 . S
C1786 C1784 1.353 . S
C1786 C1789 1.348 . S
C1786 H1834 0.929 1_554 S
C1787 C1788 1.358 . S
C1787 C1789 1.356 . S
C1787 H1835 0.930 . S
C1788 N1785 1.279 . S
C1788 C1787 1.358 . S
C1788 H1791 0.930 . S
C1789 C1786 1.348 . S
C1789 C1787 1.356 . S
H1790 C1784 0.930 1_556 S
H1791 C1788 0.930 . S
C1792 C1794 1.348 . S
C1792 C1795 1.356 . S
C1792 O1822 1.325 . S
N1793 C1796 1.314 . S
N1793 C1797 1.279 . S
C1794 C1792 1.348 . S
C1794 C1796 1.353 . S
C1794 H1836 0.929 . S
C1795 C1792 1.356 . S
C1795 C1797 1.358 . S
C1795 H1837 0.930 . S
C1796 N1793 1.314 . S
C1796 C1794 1.353 . S
C1796 H1838 0.930 . S
C1797 N1793 1.279 . S
C1797 C1795 1.358 . S
C1797 H1839 0.930 . S
C1798 C1799 1.348 . S
C1798 C1800 1.356 . S
C1798 O1823 1.328 . S
C1799 C1798 1.348 . S
C1799 C1801 1.353 . S
C1799 H1840 0.929 . S
C1800 C1798 1.356 . S
C1800 C1802 1.358 . S
C1800 H1841 0.930 . S
C1801 C1799 1.353 . S
C1801 N1803 1.314 . S
C1801 H1842 0.930 . S
C1802 C1800 1.358 . S
C1802 N1803 1.279 . S
C1802 H1843 0.930 . S
N1803 C1801 1.314 . S
N1803 C1802 1.279 . S
C1804 C1806 1.353 . S
C1804 N1807 1.314 . S
C1804 H1810 0.930 . S
C1805 N1807 1.279 . S
C1805 C1808 1.358 . S
C1805 H1811 0.930 . S
C1806 C1804 1.353 . S
C1806 C1809 1.348 . S
C1806 H1844 0.929 . S
N1807 Li1762 1.990 1_556 S
N1807 C1804 1.314 . S
N1807 C1805 1.279 . S
C1808 C1805 1.358 . S
C1808 C1809 1.356 . S
C1808 H1845 0.930 . S
C1809 C1806 1.348 . S
C1809 C1808 1.356 . S
H1810 C1804 0.930 . S
H1811 C1805 0.930 . S
C1812 N1813 1.314 . S
C1812 C1814 1.353 . S
C1812 H1818 0.930 . S
N1813 Li1763 1.990 . S
N1813 C1812 1.314 . S
N1813 C1816 1.280 1_554 S
C1814 C1812 1.353 . S
C1814 C1817 1.348 . S
C1814 H1846 0.929 . S
C1815 C1816 1.359 . S
C1815 C1817 1.356 1_556 S
C1815 H1847 0.930 . S
C1816 N1813 1.280 1_556 S
C1816 C1815 1.359 . S
C1816 H1819 0.930 . S
C1817 C1814 1.348 . S
C1817 C1815 1.356 1_554 S
H1818 C1812 0.930 . S
H1819 C1816 0.930 . S
O1820 Li1760 1.956 . S
O1820 Li1761 1.970 . S
O1820 Li1762 1.961 . S
O1820 C1764 1.325 . S
O1821 Li1760 1.970 . S
O1821 Li1761 1.956 . S
O1821 Li1763 1.961 . S
O1821 C1770 1.325 . S
O1822 Li1760 1.961 . S
O1822 Li1762 1.956 . S
O1822 Li1763 1.970 . S
O1822 C1792 1.325 . S
O1823 Li1761 1.957 1_556 S
O1823 Li1762 1.970 1_556 S
O1823 Li1763 1.952 1_556 S
O1823 C1798 1.328 . S
H1824 C1766 0.929 . S
H1825 C1767 0.930 . S
H1826 C1768 0.930 . S
H1827 C1769 0.930 . S
H1828 C1771 0.930 . S
H1829 C1773 0.929 . S
H1830 C1774 0.930 . S
H1831 C1775 0.930 . S
H1832 C1778 0.930 . S
H1833 C1781 0.929 . S
H1834 C1786 0.929 1_556 S
H1835 C1787 0.930 . S
H1836 C1794 0.929 . S
H1837 C1795 0.930 . S
H1838 C1796 0.930 . S
H1839 C1797 0.930 . S
H1840 C1799 0.929 . S
H1841 C1800 0.930 . S
H1842 C1801 0.930 . S
H1843 C1802 0.930 . S
H1844 C1806 0.929 . S
H1845 C1808 0.930 . S
H1846 C1814 0.929 . S
H1847 C1815 0.930 . S
Li1848 N1865 1.990 . S
Li1848 O1908 1.956 . S
Li1848 O1909 1.970 . S
Li1848 O1910 1.961 . S
Li1849 N1873 1.990 . S
Li1849 O1908 1.970 . S
Li1849 O1909 1.956 . S
Li1849 O1911 1.961 . S
Li1850 N1895 1.990 . S
Li1850 O1908 1.961 . S
Li1850 O1910 1.956 . S
Li1850 O1911 1.970 . S
Li1851 N1901 1.990 . S
Li1851 O1909 1.961 . S
Li1851 O1910 1.970 . S
Li1851 O1911 1.956 . S
C1852 C1854 1.348 . S
C1852 C1855 1.356 . S
C1852 O1908 1.325 . S
N1853 C1856 1.314 . S
N1853 C1857 1.279 . S
C1854 C1852 1.348 . S
C1854 C1856 1.353 . S
C1854 H1912 0.929 . S
C1855 C1852 1.356 . S
C1855 C1857 1.358 . S
C1855 H1913 0.930 . S
C1856 N1853 1.314 . S
C1856 C1854 1.353 . S
C1856 H1914 0.930 . S
C1857 N1853 1.279 . S
C1857 C1855 1.358 . S
C1857 H1915 0.930 . S
C1858 C1861 1.348 . S
C1858 C1862 1.356 . S
C1858 O1909 1.325 . S
C1859 N1860 1.279 . S
C1859 C1862 1.358 . S
C1859 H1916 0.930 . S
N1860 C1859 1.279 . S
N1860 C1863 1.314 . S
C1861 C1858 1.348 . S
C1861 C1863 1.353 . S
C1861 H1917 0.929 . S
C1862 C1858 1.356 . S
C1862 C1859 1.358 . S
C1862 H1918 0.930 . S
C1863 N1860 1.314 . S
C1863 C1861 1.353 . S
C1863 H1919 0.930 . S
C1864 N1865 1.314 . S
C1864 C1869 1.353 . S
C1864 H1870 0.930 . S
N1865 Li1848 1.990 . S
N1865 C1864 1.314 . S
N1865 C1867 1.279 . S
C1866 C1867 1.358 . S
C1866 C1868 1.356 . S
C1866 H1920 0.930 . S
C1867 N1865 1.279 . S
C1867 C1866 1.358 . S
C1867 H1871 0.930 . S
C1868 C1866 1.356 . S
C1868 C1869 1.348 . S
C1869 C1864 1.353 . S
C1869 C1868 1.348 . S
C1869 H1921 0.929 . S
H1870 C1864 0.930 . S
H1871 C1867 0.930 . S
C1872 N1873 1.314 . S
C1872 C1874 1.353 . S
C1872 H1878 0.930 . S
N1873 Li1849 1.990 . S
N1873 C1872 1.314 . S
N1873 C1876 1.279 . S
C1874 C1872 1.353 . S
C1874 C1877 1.348 . S
C1874 H1922 0.929 . S
C1875 C1876 1.358 . S
C1875 C1877 1.356 . S
C1875 H1923 0.930 . S
C1876 N1873 1.279 . S
C1876 C1875 1.358 . S
C1876 H1879 0.930 . S
C1877 C1874 1.348 . S
C1877 C1875 1.356 . S
H1878 C1872 0.930 . S
H1879 C1876 0.930 . S
C1880 C1882 1.348 . S
C1880 C1883 1.356 . S
C1880 O1910 1.325 . S
N1881 C1884 1.314 . S
N1881 C1885 1.279 . S
C1882 C1880 1.348 . S
C1882 C1884 1.353 . S
C1882 H1924 0.929 . S
C1883 C1880 1.356 . S
C1883 C1885 1.358 . S
C1883 H1925 0.930 . S
C1884 N1881 1.314 . S
C1884 C1882 1.353 . S
C1884 H1926 0.930 . S
C1885 N1881 1.279 . S
C1885 C1883 1.358 . S
C1885 H1927 0.930 . S
C1886 C1887 1.348 . S
C1886 C1888 1.356 . S
C1886 O1911 1.325 . S
C1887 C1886 1.348 . S
C1887 C1889 1.353 . S
C1887 H1928 0.929 . S
C1888 C1886 1.356 . S
C1888 C1890 1.358 . S
C1888 H1929 0.930 . S
C1889 C1887 1.353 . S
C1889 N1891 1.314 . S
C1889 H1930 0.930 . S
C1890 C1888 1.358 . S
C1890 N1891 1.279 . S
C1890 H1931 0.930 . S
N1891 C1889 1.314 . S
N1891 C1890 1.279 . S
C1892 C1894 1.353 . S
C1892 N1895 1.314 . S
C1892 H1898 0.930 . S
C1893 N1895 1.279 . S
C1893 C1896 1.358 . S
C1893 H1899 0.930 . S
C1894 C1892 1.353 . S
C1894 C1897 1.348 . S
C1894 H1932 0.929 . S
N1895 Li1850 1.990 . S
N1895 C1892 1.314 . S
N1895 C1893 1.279 . S
C1896 C1893 1.358 . S
C1896 C1897 1.356 . S
C1896 H1933 0.930 . S
C1897 C1894 1.348 . S
C1897 C1896 1.356 . S
H1898 C1892 0.930 . S
H1899 C1893 0.930 . S
C1900 N1901 1.314 . S
C1900 C1902 1.353 . S
C1900 H1906 0.930 . S
N1901 Li1851 1.990 . S
N1901 C1900 1.314 . S
N1901 C1904 1.279 . S
C1902 C1900 1.353 . S
C1902 C1905 1.348 . S
C1902 H1934 0.929 . S
C1903 C1904 1.358 . S
C1903 C1905 1.356 . S
C1903 H1935 0.930 . S
C1904 N1901 1.279 . S
C1904 C1903 1.358 . S
C1904 H1907 0.930 . S
C1905 C1902 1.348 . S
C1905 C1903 1.356 . S
H1906 C1900 0.930 . S
H1907 C1904 0.930 . S
O1908 Li1848 1.956 . S
O1908 Li1849 1.970 . S
O1908 Li1850 1.961 . S
O1908 C1852 1.325 . S
O1909 Li1848 1.970 . S
O1909 Li1849 1.956 . S
O1909 Li1851 1.961 . S
O1909 C1858 1.325 . S
O1910 Li1848 1.961 . S
O1910 Li1850 1.956 . S
O1910 Li1851 1.970 . S
O1910 C1880 1.325 . S
O1911 Li1849 1.961 . S
O1911 Li1850 1.970 . S
O1911 Li1851 1.956 . S
O1911 C1886 1.325 . S
H1912 C1854 0.929 . S
H1913 C1855 0.930 . S
H1914 C1856 0.930 . S
H1915 C1857 0.930 . S
H1916 C1859 0.930 . S
H1917 C1861 0.929 . S
H1918 C1862 0.930 . S
H1919 C1863 0.930 . S
H1920 C1866 0.930 . S
H1921 C1869 0.929 . S
H1922 C1874 0.929 . S
H1923 C1875 0.930 . S
H1924 C1882 0.929 . S
H1925 C1883 0.930 . S
H1926 C1884 0.930 . S
H1927 C1885 0.930 . S
H1928 C1887 0.929 . S
H1929 C1888 0.930 . S
H1930 C1889 0.930 . S
H1931 C1890 0.930 . S
H1932 C1894 0.929 . S
H1933 C1896 0.930 . S
H1934 C1902 0.929 . S
H1935 C1903 0.930 . S
Li1936 N1953 1.990 . S
Li1936 O1996 1.956 . S
Li1936 O1997 1.970 . S
Li1936 O1998 1.961 . S
Li1937 N1961 1.990 . S
Li1937 O1996 1.970 . S
Li1937 O1997 1.956 . S
Li1937 O1999 1.961 . S
Li1938 N1983 1.990 . S
Li1938 O1996 1.961 . S
Li1938 O1998 1.956 . S
Li1938 O1999 1.970 . S
Li1939 N1989 1.990 . S
Li1939 O1997 1.961 . S
Li1939 O1998 1.970 . S
Li1939 O1999 1.956 . S
C1940 C1942 1.348 . S
C1940 C1943 1.356 . S
C1940 O1996 1.325 . S
N1941 C1944 1.314 . S
N1941 C1945 1.279 . S
C1942 C1940 1.348 . S
C1942 C1944 1.353 . S
C1942 H2000 0.929 . S
C1943 C1940 1.356 . S
C1943 C1945 1.358 . S
C1943 H2001 0.930 . S
C1944 N1941 1.314 . S
C1944 C1942 1.353 . S
C1944 H2002 0.930 . S
C1945 N1941 1.279 . S
C1945 C1943 1.358 . S
C1945 H2003 0.930 . S
C1946 C1949 1.348 . S
C1946 C1950 1.356 . S
C1946 O1997 1.325 . S
C1947 N1948 1.279 . S
C1947 C1950 1.358 . S
C1947 H2004 0.930 . S
N1948 C1947 1.279 . S
N1948 C1951 1.314 . S
C1949 C1946 1.348 . S
C1949 C1951 1.353 . S
C1949 H2005 0.929 . S
C1950 C1946 1.356 . S
C1950 C1947 1.358 . S
C1950 H2006 0.930 . S
C1951 N1948 1.314 . S
C1951 C1949 1.353 . S
C1951 H2007 0.930 . S
C1952 N1953 1.314 . S
C1952 C1957 1.353 . S
C1952 H1958 0.930 . S
N1953 Li1936 1.990 . S
N1953 C1952 1.314 . S
N1953 C1955 1.279 . S
C1954 C1955 1.358 . S
C1954 C1956 1.356 . S
C1954 H2008 0.930 . S
C1955 N1953 1.279 . S
C1955 C1954 1.358 . S
C1955 H1959 0.930 . S
C1956 C1954 1.356 . S
C1956 C1957 1.348 . S
C1957 C1952 1.353 . S
C1957 C1956 1.348 . S
C1957 H2009 0.929 . S
H1958 C1952 0.930 . S
H1959 C1955 0.930 . S
C1960 N1961 1.314 . S
C1960 C1962 1.353 . S
C1960 H1966 0.930 . S
N1961 Li1937 1.990 . S
N1961 C1960 1.314 . S
N1961 C1964 1.279 . S
C1962 C1960 1.353 . S
C1962 C1965 1.348 . S
C1962 H2010 0.929 . S
C1963 C1964 1.358 . S
C1963 C1965 1.356 . S
C1963 H2011 0.930 . S
C1964 N1961 1.279 . S
C1964 C1963 1.358 . S
C1964 H1967 0.930 . S
C1965 C1962 1.348 . S
C1965 C1963 1.356 . S
H1966 C1960 0.930 . S
H1967 C1964 0.930 . S
C1968 C1970 1.348 . S
C1968 C1971 1.356 . S
C1968 O1998 1.325 . S
N1969 C1972 1.314 . S
N1969 C1973 1.279 . S
C1970 C1968 1.348 . S
C1970 C1972 1.353 . S
C1970 H2012 0.929 . S
C1971 C1968 1.356 . S
C1971 C1973 1.358 . S
C1971 H2013 0.930 . S
C1972 N1969 1.314 . S
C1972 C1970 1.353 . S
C1972 H2014 0.930 . S
C1973 N1969 1.279 . S
C1973 C1971 1.358 . S
C1973 H2015 0.930 . S
C1974 C1975 1.348 . S
C1974 C1976 1.356 . S
C1974 O1999 1.325 . S
C1975 C1974 1.348 . S
C1975 C1977 1.353 . S
C1975 H2016 0.929 . S
C1976 C1974 1.356 . S
C1976 C1978 1.358 . S
C1976 H2017 0.930 . S
C1977 C1975 1.353 . S
C1977 N1979 1.314 . S
C1977 H2018 0.930 . S
C1978 C1976 1.358 . S
C1978 N1979 1.279 . S
C1978 H2019 0.930 . S
N1979 C1977 1.314 . S
N1979 C1978 1.279 . S
C1980 C1982 1.353 . S
C1980 N1983 1.314 . S
C1980 H1986 0.930 . S
C1981 N1983 1.279 . S
C1981 C1984 1.358 . S
C1981 H1987 0.930 . S
C1982 C1980 1.353 . S
C1982 C1985 1.348 . S
C1982 H2020 0.929 . S
N1983 Li1938 1.990 . S
N1983 C1980 1.314 . S
N1983 C1981 1.279 . S
C1984 C1981 1.358 . S
C1984 C1985 1.356 . S
C1984 H2021 0.930 . S
C1985 C1982 1.348 . S
C1985 C1984 1.356 . S
H1986 C1980 0.930 . S
H1987 C1981 0.930 . S
C1988 N1989 1.314 . S
C1988 C1990 1.353 . S
C1988 H1994 0.930 . S
N1989 Li1939 1.990 . S
N1989 C1988 1.314 . S
N1989 C1992 1.279 . S
C1990 C1988 1.353 . S
C1990 C1993 1.348 . S
C1990 H2022 0.929 . S
C1991 C1992 1.358 . S
C1991 C1993 1.356 . S
C1991 H2023 0.930 . S
C1992 N1989 1.279 . S
C1992 C1991 1.358 . S
C1992 H1995 0.930 . S
C1993 C1990 1.348 . S
C1993 C1991 1.356 . S
H1994 C1988 0.930 . S
H1995 C1992 0.930 . S
O1996 Li1936 1.956 . S
O1996 Li1937 1.970 . S
O1996 Li1938 1.961 . S
O1996 C1940 1.325 . S
O1997 Li1936 1.970 . S
O1997 Li1937 1.956 . S
O1997 Li1939 1.961 . S
O1997 C1946 1.325 . S
O1998 Li1936 1.961 . S
O1998 Li1938 1.956 . S
O1998 Li1939 1.970 . S
O1998 C1968 1.325 . S
O1999 Li1937 1.961 . S
O1999 Li1938 1.970 . S
O1999 Li1939 1.956 . S
O1999 C1974 1.325 . S
H2000 C1942 0.929 . S
H2001 C1943 0.930 . S
H2002 C1944 0.930 . S
H2003 C1945 0.930 . S
H2004 C1947 0.930 . S
H2005 C1949 0.929 . S
H2006 C1950 0.930 . S
H2007 C1951 0.930 . S
H2008 C1954 0.930 . S
H2009 C1957 0.929 . S
H2010 C1962 0.929 . S
H2011 C1963 0.930 . S
H2012 C1970 0.929 . S
H2013 C1971 0.930 . S
H2014 C1972 0.930 . S
H2015 C1973 0.930 . S
H2016 C1975 0.929 . S
H2017 C1976 0.930 . S
H2018 C1977 0.930 . S
H2019 C1978 0.930 . S
H2020 C1982 0.929 . S
H2021 C1984 0.930 . S
H2022 C1990 0.929 . S
H2023 C1991 0.930 . S
Li2024 N2041 1.990 . S
Li2024 O2084 1.956 . S
Li2024 O2085 1.970 . S
Li2024 O2086 1.961 . S
Li2025 N2049 1.990 . S
Li2025 O2084 1.970 . S
Li2025 O2085 1.956 . S
Li2025 O2087 1.961 . S
Li2026 N2071 1.990 . S
Li2026 O2084 1.961 . S
Li2026 O2086 1.956 . S
Li2026 O2087 1.970 . S
Li2027 N2077 1.990 . S
Li2027 O2085 1.961 . S
Li2027 O2086 1.970 . S
Li2027 O2087 1.956 . S
C2028 C2030 1.348 . S
C2028 C2031 1.356 . S
C2028 O2084 1.325 . S
N2029 C2032 1.314 . S
N2029 C2033 1.279 . S
C2030 C2028 1.348 . S
C2030 C2032 1.353 . S
C2030 H2088 0.929 . S
C2031 C2028 1.356 . S
C2031 C2033 1.358 . S
C2031 H2089 0.930 . S
C2032 N2029 1.314 . S
C2032 C2030 1.353 . S
C2032 H2090 0.930 . S
C2033 N2029 1.279 . S
C2033 C2031 1.358 . S
C2033 H2091 0.930 . S
C2034 C2037 1.348 . S
C2034 C2038 1.356 . S
C2034 O2085 1.325 . S
C2035 N2036 1.279 . S
C2035 C2038 1.358 . S
C2035 H2092 0.930 . S
N2036 C2035 1.279 . S
N2036 C2039 1.314 . S
C2037 C2034 1.348 . S
C2037 C2039 1.353 . S
C2037 H2093 0.929 . S
C2038 C2034 1.356 . S
C2038 C2035 1.358 . S
C2038 H2094 0.930 . S
C2039 N2036 1.314 . S
C2039 C2037 1.353 . S
C2039 H2095 0.930 . S
C2040 N2041 1.314 . S
C2040 C2045 1.353 . S
C2040 H2046 0.930 . S
N2041 Li2024 1.990 . S
N2041 C2040 1.314 . S
N2041 C2043 1.279 . S
C2042 C2043 1.358 . S
C2042 C2044 1.356 . S
C2042 H2096 0.930 . S
C2043 N2041 1.279 . S
C2043 C2042 1.358 . S
C2043 H2047 0.930 . S
C2044 C2042 1.356 . S
C2044 C2045 1.348 . S
C2045 C2040 1.353 . S
C2045 C2044 1.348 . S
C2045 H2097 0.929 . S
H2046 C2040 0.930 . S
H2047 C2043 0.930 . S
C2048 N2049 1.314 . S
C2048 C2050 1.353 . S
C2048 H2054 0.930 . S
N2049 Li2025 1.990 . S
N2049 C2048 1.314 . S
N2049 C2052 1.279 . S
C2050 C2048 1.353 . S
C2050 C2053 1.348 . S
C2050 H2098 0.929 . S
C2051 C2052 1.358 . S
C2051 C2053 1.356 . S
C2051 H2099 0.930 . S
C2052 N2049 1.279 . S
C2052 C2051 1.358 . S
C2052 H2055 0.930 . S
C2053 C2050 1.348 . S
C2053 C2051 1.356 . S
H2054 C2048 0.930 . S
H2055 C2052 0.930 . S
C2056 C2058 1.348 . S
C2056 C2059 1.356 . S
C2056 O2086 1.325 . S
N2057 C2060 1.314 . S
N2057 C2061 1.279 . S
C2058 C2056 1.348 . S
C2058 C2060 1.353 . S
C2058 H2100 0.929 . S
C2059 C2056 1.356 . S
C2059 C2061 1.358 . S
C2059 H2101 0.930 . S
C2060 N2057 1.314 . S
C2060 C2058 1.353 . S
C2060 H2102 0.930 . S
C2061 N2057 1.279 . S
C2061 C2059 1.358 . S
C2061 H2103 0.930 . S
C2062 C2063 1.348 . S
C2062 C2064 1.356 . S
C2062 O2087 1.325 . S
C2063 C2062 1.348 . S
C2063 C2065 1.353 . S
C2063 H2104 0.929 . S
C2064 C2062 1.356 . S
C2064 C2066 1.358 . S
C2064 H2105 0.930 . S
C2065 C2063 1.353 . S
C2065 N2067 1.314 . S
C2065 H2106 0.930 . S
C2066 C2064 1.358 . S
C2066 N2067 1.279 . S
C2066 H2107 0.930 . S
N2067 C2065 1.314 . S
N2067 C2066 1.279 . S
C2068 C2070 1.353 . S
C2068 N2071 1.314 . S
C2068 H2074 0.930 . S
C2069 N2071 1.279 . S
C2069 C2072 1.358 . S
C2069 H2075 0.930 . S
C2070 C2068 1.353 . S
C2070 C2073 1.348 . S
C2070 H2108 0.929 . S
N2071 Li2026 1.990 . S
N2071 C2068 1.314 . S
N2071 C2069 1.279 . S
C2072 C2069 1.358 . S
C2072 C2073 1.356 . S
C2072 H2109 0.930 . S
C2073 C2070 1.348 . S
C2073 C2072 1.356 . S
H2074 C2068 0.930 . S
H2075 C2069 0.930 . S
C2076 N2077 1.314 . S
C2076 C2078 1.353 . S
C2076 H2082 0.930 . S
N2077 Li2027 1.990 . S
N2077 C2076 1.314 . S
N2077 C2080 1.279 . S
C2078 C2076 1.353 . S
C2078 C2081 1.348 . S
C2078 H2110 0.929 . S
C2079 C2080 1.358 . S
C2079 C2081 1.356 . S
C2079 H2111 0.930 . S
C2080 N2077 1.279 . S
C2080 C2079 1.358 . S
C2080 H2083 0.930 . S
C2081 C2078 1.348 . S
C2081 C2079 1.356 . S
H2082 C2076 0.930 . S
H2083 C2080 0.930 . S
O2084 Li2024 1.956 . S
O2084 Li2025 1.970 . S
O2084 Li2026 1.961 . S
O2084 C2028 1.325 . S
O2085 Li2024 1.970 . S
O2085 Li2025 1.956 . S
O2085 Li2027 1.961 . S
O2085 C2034 1.325 . S
O2086 Li2024 1.961 . S
O2086 Li2026 1.956 . S
O2086 Li2027 1.970 . S
O2086 C2056 1.325 . S
O2087 Li2025 1.961 . S
O2087 Li2026 1.970 . S
O2087 Li2027 1.956 . S
O2087 C2062 1.325 . S
H2088 C2030 0.929 . S
H2089 C2031 0.930 . S
H2090 C2032 0.930 . S
H2091 C2033 0.930 . S
H2092 C2035 0.930 . S
H2093 C2037 0.929 . S
H2094 C2038 0.930 . S
H2095 C2039 0.930 . S
H2096 C2042 0.930 . S
H2097 C2045 0.929 . S
H2098 C2050 0.929 . S
H2099 C2051 0.930 . S
H2100 C2058 0.929 . S
H2101 C2059 0.930 . S
H2102 C2060 0.930 . S
H2103 C2061 0.930 . S
H2104 C2063 0.929 . S
H2105 C2064 0.930 . S
H2106 C2065 0.930 . S
H2107 C2066 0.930 . S
H2108 C2070 0.929 . S
H2109 C2072 0.930 . S
H2110 C2078 0.929 . S
H2111 C2079 0.930 . S
Dy2112 O2115 2.307 . S
Dy2112 O2117 2.395 . S
Dy2112 O2118 2.379 . S
Dy2112 O2120 2.339 . S
Dy2112 O2122 2.298 . S
Dy2112 O2126 2.275 . S
Dy2112 C2134 2.738 . S
Dy2113 O2116 2.298 1_655 S
Dy2113 O2119 2.275 1_655 S
Dy2113 O2121 2.307 1_645 S
Dy2113 O2123 2.395 . S
Dy2113 O2124 2.379 1_554 S
Dy2113 O2127 2.339 1_654 S
Dy2113 C2143 2.738 . S
C2114 O2126 1.254 1_556 S
C2114 O2127 1.257 . S
O2115 Dy2112 2.307 . S
O2115 C2125 1.266 . S
O2116 Dy2113 2.298 1_455 S
O2116 C2125 1.236 . S
O2117 Dy2112 2.395 . S
O2117 C2134 1.255 . S
O2118 Dy2112 2.379 . S
O2118 C2134 1.249 . S
O2119 Dy2113 2.275 1_455 S
O2119 C2135 1.254 . S
O2120 Dy2112 2.339 . S
O2120 C2135 1.257 . S
O2121 Dy2113 2.307 1_465 S
O2121 C2136 1.266 . S
O2122 Dy2112 2.298 . S
O2122 C2136 1.236 1_545 S
O2123 Dy2113 2.395 . S
O2123 C2143 1.255 . S
O2124 Dy2113 2.379 1_556 S
O2124 C2143 1.249 1_556 S
C2125 O2115 1.266 . S
C2125 O2116 1.236 . S
O2126 Dy2112 2.275 . S
O2126 C2114 1.254 1_554 S
O2127 Dy2113 2.339 1_456 S
O2127 C2114 1.257 . S
C2128 C2131 1.344 . S
C2128 C2132 1.328 . S
C2128 C2134 1.516 . S
C2129 C2130 1.304 . S
C2129 C2133 1.323 . S
C2130 C2129 1.304 . S
C2130 C2131 1.371 . S
C2130 H2144 0.930 1_545 S
C2131 C2128 1.344 . S
C2131 C2130 1.371 . S
C2131 H2145 0.931 . S
C2132 C2128 1.328 . S
C2132 C2133 1.433 . S
C2132 H2146 0.931 . S
C2133 C2129 1.323 . S
C2133 C2132 1.433 . S
C2133 H2147 0.933 . S
C2134 Dy2112 2.738 . S
C2134 O2117 1.255 . S
C2134 O2118 1.249 . S
C2134 C2128 1.516 . S
C2135 O2119 1.254 . S
C2135 O2120 1.257 . S
C2136 O2121 1.266 . S
C2136 O2122 1.236 1_565 S
C2137 C2140 1.344 . S
C2137 C2141 1.328 1_554 S
C2137 C2143 1.516 . S
C2138 C2139 1.304 . S
C2138 C2142 1.323 1_554 S
C2139 C2138 1.304 . S
C2139 C2140 1.371 . S
C2139 H2148 0.930 . S
C2140 C2137 1.344 . S
C2140 C2139 1.371 . S
C2140 H2149 0.931 . S
C2141 C2137 1.328 1_556 S
C2141 C2142 1.433 . S
C2141 H2150 0.931 . S
C2142 C2138 1.323 1_556 S
C2142 C2141 1.433 . S
C2142 H2151 0.933 . S
C2143 Dy2113 2.738 . S
C2143 O2123 1.255 . S
C2143 O2124 1.249 1_554 S
C2143 C2137 1.516 . S
H2144 C2130 0.930 1_565 S
H2145 C2131 0.931 . S
H2146 C2132 0.931 . S
H2147 C2133 0.933 . S
H2148 C2139 0.930 . S
H2149 C2140 0.931 . S
H2150 C2141 0.931 . S
H2151 C2142 0.933 . S
Dy2152 O2155 2.307 . S
Dy2152 O2157 2.395 . S
Dy2152 O2158 2.379 . S
Dy2152 O2160 2.339 . S
Dy2152 O2162 2.298 . S
Dy2152 O2166 2.275 . S
Dy2152 C2174 2.738 . S
Dy2153 O2156 2.298 . S
Dy2153 O2159 2.275 . S
Dy2153 O2161 2.307 . S
Dy2153 O2163 2.395 . S
Dy2153 O2164 2.379 . S
Dy2153 O2167 2.339 . S
Dy2153 C2183 2.738 . S
C2154 O2166 1.254 . S
C2154 O2167 1.257 . S
O2155 Dy2152 2.307 . S
O2155 C2165 1.266 . S
O2156 Dy2153 2.298 . S
O2156 C2165 1.236 . S
O2157 Dy2152 2.395 . S
O2157 C2174 1.255 . S
O2158 Dy2152 2.379 . S
O2158 C2174 1.249 . S
O2159 Dy2153 2.275 . S
O2159 C2175 1.254 . S
O2160 Dy2152 2.339 . S
O2160 C2175 1.257 . S
O2161 Dy2153 2.307 . S
O2161 C2176 1.266 . S
O2162 Dy2152 2.298 . S
O2162 C2176 1.236 . S
O2163 Dy2153 2.395 . S
O2163 C2183 1.255 . S
O2164 Dy2153 2.379 . S
O2164 C2183 1.249 . S
C2165 O2155 1.266 . S
C2165 O2156 1.236 . S
O2166 Dy2152 2.275 . S
O2166 C2154 1.254 . S
O2167 Dy2153 2.339 . S
O2167 C2154 1.257 . S
C2168 C2171 1.344 . S
C2168 C2172 1.328 . S
C2168 C2174 1.516 . S
C2169 C2170 1.304 . S
C2169 C2173 1.323 . S
C2170 C2169 1.304 . S
C2170 C2171 1.371 . S
C2170 H2184 0.930 . S
C2171 C2168 1.344 . S
C2171 C2170 1.371 . S
C2171 H2185 0.931 . S
C2172 C2168 1.328 . S
C2172 C2173 1.433 . S
C2172 H2186 0.931 . S
C2173 C2169 1.323 . S
C2173 C2172 1.433 . S
C2173 H2187 0.933 . S
C2174 Dy2152 2.738 . S
C2174 O2157 1.255 . S
C2174 O2158 1.249 . S
C2174 C2168 1.516 . S
C2175 O2159 1.254 . S
C2175 O2160 1.257 . S
C2176 O2161 1.266 . S
C2176 O2162 1.236 . S
C2177 C2180 1.344 . S
C2177 C2181 1.328 . S
C2177 C2183 1.516 . S
C2178 C2179 1.304 . S
C2178 C2182 1.323 . S
C2179 C2178 1.304 . S
C2179 C2180 1.371 . S
C2179 H2188 0.930 . S
C2180 C2177 1.344 . S
C2180 C2179 1.371 . S
C2180 H2189 0.931 . S
C2181 C2177 1.328 . S
C2181 C2182 1.433 . S
C2181 H2190 0.931 . S
C2182 C2178 1.323 . S
C2182 C2181 1.433 . S
C2182 H2191 0.933 . S
C2183 Dy2153 2.738 . S
C2183 O2163 1.255 . S
C2183 O2164 1.249 . S
C2183 C2177 1.516 . S
H2184 C2170 0.930 . S
H2185 C2171 0.931 . S
H2186 C2172 0.931 . S
H2187 C2173 0.933 . S
H2188 C2179 0.930 . S
H2189 C2180 0.931 . S
H2190 C2181 0.931 . S
H2191 C2182 0.933 . S
Dy2192 O2195 2.307 . S
Dy2192 O2197 2.395 . S
Dy2192 O2198 2.379 . S
Dy2192 O2200 2.339 . S
Dy2192 O2202 2.298 . S
Dy2192 O2206 2.275 . S
Dy2192 C2214 2.738 . S
Dy2193 O2196 2.298 . S
Dy2193 O2199 2.275 . S
Dy2193 O2201 2.307 . S
Dy2193 O2203 2.395 . S
Dy2193 O2204 2.379 . S
Dy2193 O2207 2.339 . S
Dy2193 C2223 2.738 . S
C2194 O2206 1.254 . S
C2194 O2207 1.257 . S
O2195 Dy2192 2.307 . S
O2195 C2205 1.266 1_545 S
O2196 Dy2193 2.298 . S
O2196 C2205 1.236 1_545 S
O2197 Dy2192 2.395 . S
O2197 C2214 1.255 . S
O2198 Dy2192 2.379 . S
O2198 C2214 1.249 . S
O2199 Dy2193 2.275 . S
O2199 C2215 1.254 . S
O2200 Dy2192 2.339 . S
O2200 C2215 1.257 . S
O2201 Dy2193 2.307 . S
O2201 C2216 1.266 . S
O2202 Dy2192 2.298 . S
O2202 C2216 1.236 . S
O2203 Dy2193 2.395 . S
O2203 C2223 1.255 . S
O2204 Dy2193 2.379 . S
O2204 C2223 1.249 . S
C2205 O2195 1.266 1_565 S
C2205 O2196 1.236 1_565 S
O2206 Dy2192 2.275 . S
O2206 C2194 1.254 . S
O2207 Dy2193 2.339 . S
O2207 C2194 1.257 . S
C2208 C2211 1.344 . S
C2208 C2212 1.328 . S
C2208 C2214 1.516 . S
C2209 C2210 1.304 . S
C2209 C2213 1.323 . S
C2210 C2209 1.304 . S
C2210 C2211 1.371 . S
C2210 H2224 0.930 . S
C2211 C2208 1.344 . S
C2211 C2210 1.371 . S
C2211 H2225 0.931 . S
C2212 C2208 1.328 . S
C2212 C2213 1.433 . S
C2212 H2226 0.931 . S
C2213 C2209 1.323 . S
C2213 C2212 1.433 . S
C2213 H2227 0.933 . S
C2214 Dy2192 2.738 . S
C2214 O2197 1.255 . S
C2214 O2198 1.249 . S
C2214 C2208 1.516 . S
C2215 O2199 1.254 . S
C2215 O2200 1.257 . S
C2216 O2201 1.266 . S
C2216 O2202 1.236 . S
C2217 C2220 1.344 1_545 S
C2217 C2221 1.328 . S
C2217 C2223 1.516 . S
C2218 C2219 1.304 . S
C2218 C2222 1.323 . S
C2219 C2218 1.304 . S
C2219 C2220 1.371 . S
C2219 H2228 0.930 . S
C2220 C2217 1.344 1_565 S
C2220 C2219 1.371 . S
C2220 H2229 0.931 . S
C2221 C2217 1.328 . S
C2221 C2222 1.433 1_545 S
C2221 H2230 0.931 . S
C2222 C2218 1.323 . S
C2222 C2221 1.433 1_565 S
C2222 H2231 0.933 . S
C2223 Dy2193 2.738 . S
C2223 O2203 1.255 . S
C2223 O2204 1.249 . S
C2223 C2217 1.516 . S
H2224 C2210 0.930 . S
H2225 C2211 0.931 . S
H2226 C2212 0.931 . S
H2227 C2213 0.933 . S
H2228 C2219 0.930 . S
H2229 C2220 0.931 . S
H2230 C2221 0.931 . S
H2231 C2222 0.933 . S
Dy2232 O2235 2.307 . S
Dy2232 O2237 2.395 . S
Dy2232 O2238 2.379 . S
Dy2232 O2240 2.339 . S
Dy2232 O2242 2.298 . S
Dy2232 O2246 2.275 . S
Dy2232 C2254 2.738 . S
Dy2233 O2236 2.298 . S
Dy2233 O2239 2.275 . S
Dy2233 O2241 2.307 . S
Dy2233 O2243 2.395 . S
Dy2233 O2244 2.379 . S
Dy2233 O2247 2.339 . S
Dy2233 C2263 2.738 . S
C2234 O2246 1.254 . S
C2234 O2247 1.257 . S
O2235 Dy2232 2.307 . S
O2235 C2245 1.266 . S
O2236 Dy2233 2.298 . S
O2236 C2245 1.236 . S
O2237 Dy2232 2.395 . S
O2237 C2254 1.255 . S
O2238 Dy2232 2.379 . S
O2238 C2254 1.249 . S
O2239 Dy2233 2.275 . S
O2239 C2255 1.254 . S
O2240 Dy2232 2.339 . S
O2240 C2255 1.257 . S
O2241 Dy2233 2.307 . S
O2241 C2256 1.266 . S
O2242 Dy2232 2.298 . S
O2242 C2256 1.236 . S
O2243 Dy2233 2.395 . S
O2243 C2263 1.255 . S
O2244 Dy2233 2.379 . S
O2244 C2263 1.249 . S
C2245 O2235 1.266 . S
C2245 O2236 1.236 . S
O2246 Dy2232 2.275 . S
O2246 C2234 1.254 . S
O2247 Dy2233 2.339 . S
O2247 C2234 1.257 . S
C2248 C2251 1.344 . S
C2248 C2252 1.328 . S
C2248 C2254 1.516 . S
C2249 C2250 1.304 . S
C2249 C2253 1.323 . S
C2250 C2249 1.304 . S
C2250 C2251 1.371 . S
C2250 H2264 0.930 . S
C2251 C2248 1.344 . S
C2251 C2250 1.371 . S
C2251 H2265 0.931 . S
C2252 C2248 1.328 . S
C2252 C2253 1.433 . S
C2252 H2266 0.931 . S
C2253 C2249 1.323 . S
C2253 C2252 1.433 . S
C2253 H2267 0.933 . S
C2254 Dy2232 2.738 . S
C2254 O2237 1.255 . S
C2254 O2238 1.249 . S
C2254 C2248 1.516 . S
C2255 O2239 1.254 . S
C2255 O2240 1.257 . S
C2256 O2241 1.266 . S
C2256 O2242 1.236 . S
C2257 C2260 1.344 . S
C2257 C2261 1.328 . S
C2257 C2263 1.516 . S
C2258 C2259 1.304 . S
C2258 C2262 1.323 . S
C2259 C2258 1.304 . S
C2259 C2260 1.371 . S
C2259 H2268 0.930 . S
C2260 C2257 1.344 . S
C2260 C2259 1.371 . S
C2260 H2269 0.931 . S
C2261 C2257 1.328 . S
C2261 C2262 1.433 . S
C2261 H2270 0.931 . S
C2262 C2258 1.323 . S
C2262 C2261 1.433 . S
C2262 H2271 0.933 . S
C2263 Dy2233 2.738 . S
C2263 O2243 1.255 . S
C2263 O2244 1.249 . S
C2263 C2257 1.516 . S
H2264 C2250 0.930 . S
H2265 C2251 0.931 . S
H2266 C2252 0.931 . S
H2267 C2253 0.933 . S
H2268 C2259 0.930 . S
H2269 C2260 0.931 . S
H2270 C2261 0.931 . S
H2271 C2262 0.933 . S
Dy2272 O2275 2.307 . S
Dy2272 O2277 2.395 1_545 S
Dy2272 O2278 2.379 1_545 S
Dy2272 O2280 2.339 . S
Dy2272 O2282 2.298 . S
Dy2272 O2286 2.275 . S
Dy2272 C2294 2.738 1_545 S
Dy2273 O2276 2.298 . S
Dy2273 O2279 2.275 . S
Dy2273 O2281 2.307 . S
Dy2273 O2283 2.395 . S
Dy2273 O2284 2.379 1_455 S
Dy2273 O2287 2.339 1_455 S
Dy2273 C2303 2.738 . S
C2274 O2286 1.254 1_655 S
C2274 O2287 1.257 . S
O2275 Dy2272 2.307 . S
O2275 C2285 1.266 . S
O2276 Dy2273 2.298 . S
O2276 C2285 1.236 . S
O2277 Dy2272 2.395 1_565 S
O2277 C2294 1.255 . S
O2278 Dy2272 2.379 1_565 S
O2278 C2294 1.249 . S
O2279 Dy2273 2.275 . S
O2279 C2295 1.254 . S
O2280 Dy2272 2.339 . S
O2280 C2295 1.257 . S
O2281 Dy2273 2.307 . S
O2281 C2296 1.266 . S
O2282 Dy2272 2.298 . S
O2282 C2296 1.236 . S
O2283 Dy2273 2.395 . S
O2283 C2303 1.255 . S
O2284 Dy2273 2.379 1_655 S
O2284 C2303 1.249 1_655 S
C2285 O2275 1.266 . S
C2285 O2276 1.236 . S
O2286 Dy2272 2.275 . S
O2286 C2274 1.254 1_455 S
O2287 Dy2273 2.339 1_655 S
O2287 C2274 1.257 . S
C2288 C2291 1.344 . S
C2288 C2292 1.328 . S
C2288 C2294 1.516 . S
C2289 C2290 1.304 . S
C2289 C2293 1.323 . S
C2290 C2289 1.304 . S
C2290 C2291 1.371 . S
C2290 H2304 0.930 . S
C2291 C2288 1.344 . S
C2291 C2290 1.371 . S
C2291 H2305 0.931 . S
C2292 C2288 1.328 . S
C2292 C2293 1.433 . S
C2292 H2306 0.931 . S
C2293 C2289 1.323 . S
C2293 C2292 1.433 . S
C2293 H2307 0.933 . S
C2294 Dy2272 2.738 1_565 S
C2294 O2277 1.255 . S
C2294 O2278 1.249 . S
C2294 C2288 1.516 . S
C2295 O2279 1.254 . S
C2295 O2280 1.257 . S
C2296 O2281 1.266 . S
C2296 O2282 1.236 . S
C2297 C2300 1.344 . S
C2297 C2301 1.328 1_455 S
C2297 C2303 1.516 . S
C2298 C2299 1.304 . S
C2298 C2302 1.323 1_455 S
C2299 C2298 1.304 . S
C2299 C2300 1.371 . S
C2299 H2308 0.930 . S
C2300 C2297 1.344 . S
C2300 C2299 1.371 . S
C2300 H2309 0.931 . S
C2301 C2297 1.328 1_655 S
C2301 C2302 1.433 . S
C2301 H2310 0.931 . S
C2302 C2298 1.323 1_655 S
C2302 C2301 1.433 . S
C2302 H2311 0.933 . S
C2303 Dy2273 2.738 . S
C2303 O2283 1.255 . S
C2303 O2284 1.249 1_455 S
C2303 C2297 1.516 . S
H2304 C2290 0.930 . S
H2305 C2291 0.931 . S
H2306 C2292 0.931 . S
H2307 C2293 0.933 . S
H2308 C2299 0.930 . S
H2309 C2300 0.931 . S
H2310 C2301 0.931 . S
H2311 C2302 0.933 . S
Dy2312 O2315 2.307 . S
Dy2312 O2317 2.395 . S
Dy2312 O2318 2.379 . S
Dy2312 O2320 2.339 . S
Dy2312 O2322 2.298 . S
Dy2312 O2326 2.275 . S
Dy2312 C2334 2.738 . S
Dy2313 O2316 2.298 . S
Dy2313 O2319 2.275 . S
Dy2313 O2321 2.307 . S
Dy2313 O2323 2.395 . S
Dy2313 O2324 2.379 . S
Dy2313 O2327 2.339 . S
Dy2313 C2343 2.738 . S
C2314 O2326 1.254 . S
C2314 O2327 1.257 . S
O2315 Dy2312 2.307 . S
O2315 C2325 1.266 . S
O2316 Dy2313 2.298 . S
O2316 C2325 1.236 . S
O2317 Dy2312 2.395 . S
O2317 C2334 1.255 . S
O2318 Dy2312 2.379 . S
O2318 C2334 1.249 . S
O2319 Dy2313 2.275 . S
O2319 C2335 1.254 . S
O2320 Dy2312 2.339 . S
O2320 C2335 1.257 . S
O2321 Dy2313 2.307 . S
O2321 C2336 1.266 . S
O2322 Dy2312 2.298 . S
O2322 C2336 1.236 . S
O2323 Dy2313 2.395 . S
O2323 C2343 1.255 . S
O2324 Dy2313 2.379 . S
O2324 C2343 1.249 . S
C2325 O2315 1.266 . S
C2325 O2316 1.236 . S
O2326 Dy2312 2.275 . S
O2326 C2314 1.254 . S
O2327 Dy2313 2.339 . S
O2327 C2314 1.257 . S
C2328 C2331 1.344 . S
C2328 C2332 1.328 . S
C2328 C2334 1.516 . S
C2329 C2330 1.304 . S
C2329 C2333 1.323 . S
C2330 C2329 1.304 . S
C2330 C2331 1.371 . S
C2330 H2344 0.930 . S
C2331 C2328 1.344 . S
C2331 C2330 1.371 . S
C2331 H2345 0.931 . S
C2332 C2328 1.328 . S
C2332 C2333 1.433 . S
C2332 H2346 0.931 . S
C2333 C2329 1.323 . S
C2333 C2332 1.433 . S
C2333 H2347 0.933 . S
C2334 Dy2312 2.738 . S
C2334 O2317 1.255 . S
C2334 O2318 1.249 . S
C2334 C2328 1.516 . S
C2335 O2319 1.254 . S
C2335 O2320 1.257 . S
C2336 O2321 1.266 . S
C2336 O2322 1.236 . S
C2337 C2340 1.344 . S
C2337 C2341 1.328 . S
C2337 C2343 1.516 . S
C2338 C2339 1.304 . S
C2338 C2342 1.323 . S
C2339 C2338 1.304 . S
C2339 C2340 1.371 . S
C2339 H2348 0.930 . S
C2340 C2337 1.344 . S
C2340 C2339 1.371 . S
C2340 H2349 0.931 . S
C2341 C2337 1.328 . S
C2341 C2342 1.433 . S
C2341 H2350 0.931 . S
C2342 C2338 1.323 . S
C2342 C2341 1.433 . S
C2342 H2351 0.933 . S
C2343 Dy2313 2.738 . S
C2343 O2323 1.255 . S
C2343 O2324 1.249 . S
C2343 C2337 1.516 . S
H2344 C2330 0.930 . S
H2345 C2331 0.931 . S
H2346 C2332 0.931 . S
H2347 C2333 0.933 . S
H2348 C2339 0.930 . S
H2349 C2340 0.931 . S
H2350 C2341 0.931 . S
H2351 C2342 0.933 . S
Dy2352 O2355 2.309 . S
Dy2352 O2357 2.392 1_554 S
Dy2352 O2358 2.376 1_554 S
Dy2352 O2360 2.341 . S
Dy2352 O2362 2.299 . S
Dy2352 O2366 2.277 . S
Dy2352 C2374 2.735 1_554 S
Dy2353 O2356 2.298 . S
Dy2353 O2359 2.275 . S
Dy2353 O2361 2.307 . S
Dy2353 O2363 2.395 . S
Dy2353 O2364 2.379 1_545 S
Dy2353 O2367 2.339 1_545 S
Dy2353 C2383 2.738 . S
C2354 O2366 1.231 1_565 S
C2354 O2367 1.266 . S
O2355 Dy2352 2.309 . S
O2355 C2365 1.266 . S
O2356 Dy2353 2.298 . S
O2356 C2365 1.236 . S
O2357 Dy2352 2.392 1_556 S
O2357 C2374 1.255 . S
O2358 Dy2352 2.376 1_556 S
O2358 C2374 1.249 . S
O2359 Dy2353 2.275 . S
O2359 C2375 1.254 . S
O2360 Dy2352 2.341 . S
O2360 C2375 1.257 . S
O2361 Dy2353 2.307 . S
O2361 C2376 1.266 . S
O2362 Dy2352 2.299 . S
O2362 C2376 1.236 . S
O2363 Dy2353 2.395 . S
O2363 C2383 1.255 . S
O2364 Dy2353 2.379 1_565 S
O2364 C2383 1.249 1_565 S
C2365 O2355 1.266 . S
C2365 O2356 1.236 . S
O2366 Dy2352 2.277 . S
O2366 C2354 1.231 1_545 S
O2367 Dy2353 2.339 1_565 S
O2367 C2354 1.266 . S
C2368 C2371 1.344 . S
C2368 C2372 1.328 . S
C2368 C2374 1.516 . S
C2369 C2370 1.304 . S
C2369 C2373 1.323 . S
C2370 C2369 1.304 . S
C2370 C2371 1.371 . S
C2370 H2384 0.930 . S
C2371 C2368 1.344 . S
C2371 C2370 1.371 . S
C2371 H2385 0.931 . S
C2372 C2368 1.328 . S
C2372 C2373 1.433 . S
C2372 H2386 0.931 . S
C2373 C2369 1.323 . S
C2373 C2372 1.433 . S
C2373 H2387 0.933 . S
C2374 Dy2352 2.735 1_556 S
C2374 O2357 1.255 . S
C2374 O2358 1.249 . S
C2374 C2368 1.516 . S
C2375 O2359 1.254 . S
C2375 O2360 1.257 . S
C2376 O2361 1.266 . S
C2376 O2362 1.236 . S
C2377 C2380 1.344 . S
C2377 C2381 1.328 1_545 S
C2377 C2383 1.516 . S
C2378 C2379 1.304 1_565 S
C2378 C2382 1.323 . S
C2379 C2378 1.304 1_545 S
C2379 C2380 1.371 . S
C2379 H2388 0.930 . S
C2380 C2377 1.344 . S
C2380 C2379 1.371 . S
C2380 H2389 0.931 . S
C2381 C2377 1.328 1_565 S
C2381 C2382 1.433 . S
C2381 H2390 0.931 . S
C2382 C2378 1.323 . S
C2382 C2381 1.433 . S
C2382 H2391 0.933 . S
C2383 Dy2353 2.738 . S
C2383 O2363 1.255 . S
C2383 O2364 1.249 1_545 S
C2383 C2377 1.516 . S
H2384 C2370 0.930 . S
H2385 C2371 0.931 . S
H2386 C2372 0.931 . S
H2387 C2373 0.933 . S
H2388 C2379 0.930 . S
H2389 C2380 0.931 . S
H2390 C2381 0.931 . S
H2391 C2382 0.933 . S
Dy2392 O2395 2.307 . S
Dy2392 O2397 2.395 . S
Dy2392 O2398 2.379 . S
Dy2392 O2400 2.339 . S
Dy2392 O2402 2.298 . S
Dy2392 O2406 2.275 . S
Dy2392 C2414 2.738 . S
Dy2393 O2396 2.298 . S
Dy2393 O2399 2.275 . S
Dy2393 O2401 2.307 . S
Dy2393 O2403 2.395 . S
Dy2393 O2404 2.379 . S
Dy2393 O2407 2.339 . S
Dy2393 C2423 2.738 . S
C2394 O2406 1.254 . S
C2394 O2407 1.257 . S
O2395 Dy2392 2.307 . S
O2395 C2405 1.266 . S
O2396 Dy2393 2.298 . S
O2396 C2405 1.236 . S
O2397 Dy2392 2.395 . S
O2397 C2414 1.255 . S
O2398 Dy2392 2.379 . S
O2398 C2414 1.249 . S
O2399 Dy2393 2.275 . S
O2399 C2415 1.254 . S
O2400 Dy2392 2.339 . S
O2400 C2415 1.257 . S
O2401 Dy2393 2.307 . S
O2401 C2416 1.266 . S
O2402 Dy2392 2.298 . S
O2402 C2416 1.236 . S
O2403 Dy2393 2.395 . S
O2403 C2423 1.255 . S
O2404 Dy2393 2.379 . S
O2404 C2423 1.249 . S
C2405 O2395 1.266 . S
C2405 O2396 1.236 . S
O2406 Dy2392 2.275 . S
O2406 C2394 1.254 . S
O2407 Dy2393 2.339 . S
O2407 C2394 1.257 . S
C2408 C2411 1.344 . S
C2408 C2412 1.328 . S
C2408 C2414 1.516 . S
C2409 C2410 1.304 . S
C2409 C2413 1.323 . S
C2410 C2409 1.304 . S
C2410 C2411 1.371 . S
C2410 H2424 0.930 . S
C2411 C2408 1.344 . S
C2411 C2410 1.371 . S
C2411 H2425 0.931 . S
C2412 C2408 1.328 . S
C2412 C2413 1.433 . S
C2412 H2426 0.931 . S
C2413 C2409 1.323 . S
C2413 C2412 1.433 . S
C2413 H2427 0.933 . S
C2414 Dy2392 2.738 . S
C2414 O2397 1.255 . S
C2414 O2398 1.249 . S
C2414 C2408 1.516 . S
C2415 O2399 1.254 . S
C2415 O2400 1.257 . S
C2416 O2401 1.266 . S
C2416 O2402 1.236 . S
C2417 C2420 1.344 . S
C2417 C2421 1.328 . S
C2417 C2423 1.516 . S
C2418 C2419 1.304 . S
C2418 C2422 1.323 . S
C2419 C2418 1.304 . S
C2419 C2420 1.371 . S
C2419 H2428 0.930 . S
C2420 C2417 1.344 . S
C2420 C2419 1.371 . S
C2420 H2429 0.931 . S
C2421 C2417 1.328 . S
C2421 C2422 1.433 . S
C2421 H2430 0.931 . S
C2422 C2418 1.323 . S
C2422 C2421 1.433 . S
C2422 H2431 0.933 . S
C2423 Dy2393 2.738 . S
C2423 O2403 1.255 . S
C2423 O2404 1.249 . S
C2423 C2417 1.516 . S
H2424 C2410 0.930 . S
H2425 C2411 0.931 . S
H2426 C2412 0.931 . S
H2427 C2413 0.933 . S
H2428 C2419 0.930 . S
H2429 C2420 0.931 . S
H2430 C2421 0.931 . S
H2431 C2422 0.933 . S
Dy2432 O2435 2.307 1_554 S
Dy2432 O2437 2.395 . S
Dy2432 O2438 2.379 . S
Dy2432 O2440 2.339 . S
Dy2432 O2442 2.298 . S
Dy2432 O2446 2.275 . S
Dy2432 C2454 2.738 . S
Dy2433 O2436 2.298 1_554 S
Dy2433 O2439 2.275 . S
Dy2433 O2441 2.307 . S
Dy2433 O2443 2.395 . S
Dy2433 O2444 2.379 . S
Dy2433 O2447 2.339 . S
Dy2433 C2463 2.738 . S
C2434 O2446 1.254 . S
C2434 O2447 1.257 . S
O2435 Dy2432 2.307 1_556 S
O2435 C2445 1.266 . S
O2436 Dy2433 2.298 1_556 S
O2436 C2445 1.236 . S
O2437 Dy2432 2.395 . S
O2437 C2454 1.255 . S
O2438 Dy2432 2.379 . S
O2438 C2454 1.249 . S
O2439 Dy2433 2.275 . S
O2439 C2455 1.254 . S
O2440 Dy2432 2.339 . S
O2440 C2455 1.257 . S
O2441 Dy2433 2.307 . S
O2441 C2456 1.266 . S
O2442 Dy2432 2.298 . S
O2442 C2456 1.236 . S
O2443 Dy2433 2.395 . S
O2443 C2463 1.255 . S
O2444 Dy2433 2.379 . S
O2444 C2463 1.249 . S
C2445 O2435 1.266 . S
C2445 O2436 1.236 . S
O2446 Dy2432 2.275 . S
O2446 C2434 1.254 . S
O2447 Dy2433 2.339 . S
O2447 C2434 1.257 . S
C2448 C2451 1.344 . S
C2448 C2452 1.328 . S
C2448 C2454 1.516 . S
C2449 C2450 1.304 . S
C2449 C2453 1.323 . S
C2450 C2449 1.304 . S
C2450 C2451 1.371 . S
C2450 H2464 0.930 . S
C2451 C2448 1.344 . S
C2451 C2450 1.371 . S
C2451 H2465 0.931 . S
C2452 C2448 1.328 . S
C2452 C2453 1.433 . S
C2452 H2466 0.931 . S
C2453 C2449 1.323 . S
C2453 C2452 1.433 . S
C2453 H2467 0.933 . S
C2454 Dy2432 2.738 . S
C2454 O2437 1.255 . S
C2454 O2438 1.249 . S
C2454 C2448 1.516 . S
C2455 O2439 1.254 . S
C2455 O2440 1.257 . S
C2456 O2441 1.266 . S
C2456 O2442 1.236 . S
C2457 C2460 1.344 . S
C2457 C2461 1.328 . S
C2457 C2463 1.516 1_556 S
C2458 C2459 1.304 . S
C2458 C2462 1.323 . S
C2459 C2458 1.304 . S
C2459 C2460 1.371 . S
C2459 H2468 0.930 . S
C2460 C2457 1.344 . S
C2460 C2459 1.371 . S
C2460 H2469 0.931 . S
C2461 C2457 1.328 . S
C2461 C2462 1.433 . S
C2461 H2470 0.931 1_556 S
C2462 C2458 1.323 . S
C2462 C2461 1.433 . S
C2462 H2471 0.933 . S
C2463 Dy2433 2.738 . S
C2463 O2443 1.255 . S
C2463 O2444 1.249 . S
C2463 C2457 1.516 1_554 S
H2464 C2450 0.930 . S
H2465 C2451 0.931 . S
H2466 C2452 0.931 . S
H2467 C2453 0.933 . S
H2468 C2459 0.930 . S
H2469 C2460 0.931 . S
H2470 C2461 0.931 1_554 S
H2471 C2462 0.933 . S
Dy2472 O2475 2.307 . S
Dy2472 O2477 2.395 . S
Dy2472 O2478 2.379 . S
Dy2472 O2480 2.339 . S
Dy2472 O2482 2.298 . S
Dy2472 O2486 2.275 . S
Dy2472 C2494 2.738 . S
Dy2473 O2476 2.298 . S
Dy2473 O2479 2.275 . S
Dy2473 O2481 2.307 . S
Dy2473 O2483 2.395 . S
Dy2473 O2484 2.379 . S
Dy2473 O2487 2.339 . S
Dy2473 C2503 2.738 . S
C2474 O2486 1.254 . S
C2474 O2487 1.257 . S
O2475 Dy2472 2.307 . S
O2475 C2485 1.266 . S
O2476 Dy2473 2.298 . S
O2476 C2485 1.236 . S
O2477 Dy2472 2.395 . S
O2477 C2494 1.255 . S
O2478 Dy2472 2.379 . S
O2478 C2494 1.249 . S
O2479 Dy2473 2.275 . S
O2479 C2495 1.254 . S
O2480 Dy2472 2.339 . S
O2480 C2495 1.257 . S
O2481 Dy2473 2.307 . S
O2481 C2496 1.266 . S
O2482 Dy2472 2.298 . S
O2482 C2496 1.236 . S
O2483 Dy2473 2.395 . S
O2483 C2503 1.255 . S
O2484 Dy2473 2.379 . S
O2484 C2503 1.249 . S
C2485 O2475 1.266 . S
C2485 O2476 1.236 . S
O2486 Dy2472 2.275 . S
O2486 C2474 1.254 . S
O2487 Dy2473 2.339 . S
O2487 C2474 1.257 . S
C2488 C2491 1.344 . S
C2488 C2492 1.328 . S
C2488 C2494 1.516 . S
C2489 C2490 1.304 . S
C2489 C2493 1.323 . S
C2490 C2489 1.304 . S
C2490 C2491 1.371 . S
C2490 H2504 0.930 . S
C2491 C2488 1.344 . S
C2491 C2490 1.371 . S
C2491 H2505 0.931 . S
C2492 C2488 1.328 . S
C2492 C2493 1.433 . S
C2492 H2506 0.931 . S
C2493 C2489 1.323 . S
C2493 C2492 1.433 . S
C2493 H2507 0.933 . S
C2494 Dy2472 2.738 . S
C2494 O2477 1.255 . S
C2494 O2478 1.249 . S
C2494 C2488 1.516 . S
C2495 O2479 1.254 . S
C2495 O2480 1.257 . S
C2496 O2481 1.266 . S
C2496 O2482 1.236 . S
C2497 C2500 1.344 . S
C2497 C2501 1.328 . S
C2497 C2503 1.516 . S
C2498 C2499 1.304 . S
C2498 C2502 1.323 . S
C2499 C2498 1.304 . S
C2499 C2500 1.371 . S
C2499 H2508 0.930 . S
C2500 C2497 1.344 . S
C2500 C2499 1.371 . S
C2500 H2509 0.931 . S
C2501 C2497 1.328 . S
C2501 C2502 1.433 . S
C2501 H2510 0.931 . S
C2502 C2498 1.323 . S
C2502 C2501 1.433 . S
C2502 H2511 0.933 . S
C2503 Dy2473 2.738 . S
C2503 O2483 1.255 . S
C2503 O2484 1.249 . S
C2503 C2497 1.516 . S
H2504 C2490 0.930 . S
H2505 C2491 0.931 . S
H2506 C2492 0.931 . S
H2507 C2493 0.933 . S
H2508 C2499 0.930 . S
H2509 C2500 0.931 . S
H2510 C2501 0.931 . S
H2511 C2502 0.933 . S
Dy2512 O2515 2.307 1_455 S
Dy2512 O2517 2.395 . S
Dy2512 O2518 2.379 . S
Dy2512 O2520 2.339 . S
Dy2512 O2522 2.298 . S
Dy2512 O2526 2.275 . S
Dy2512 C2534 2.738 . S
Dy2513 O2516 2.298 1_455 S
Dy2513 O2519 2.275 . S
Dy2513 O2521 2.307 . S
Dy2513 O2523 2.395 . S
Dy2513 O2524 2.379 . S
Dy2513 O2527 2.339 . S
Dy2513 C2543 2.738 . S
C2514 O2526 1.254 . S
C2514 O2527 1.257 . S
O2515 Dy2512 2.307 1_655 S
O2515 C2525 1.266 . S
O2516 Dy2513 2.298 1_655 S
O2516 C2525 1.236 . S
O2517 Dy2512 2.395 . S
O2517 C2534 1.255 . S
O2518 Dy2512 2.379 . S
O2518 C2534 1.249 . S
O2519 Dy2513 2.275 . S
O2519 C2535 1.254 . S
O2520 Dy2512 2.339 . S
O2520 C2535 1.257 . S
O2521 Dy2513 2.307 . S
O2521 C2536 1.266 . S
O2522 Dy2512 2.298 . S
O2522 C2536 1.236 . S
O2523 Dy2513 2.395 . S
O2523 C2543 1.255 . S
O2524 Dy2513 2.379 . S
O2524 C2543 1.249 . S
C2525 O2515 1.266 . S
C2525 O2516 1.236 . S
O2526 Dy2512 2.275 . S
O2526 C2514 1.254 . S
O2527 Dy2513 2.339 . S
O2527 C2514 1.257 . S
C2528 C2531 1.344 . S
C2528 C2532 1.328 . S
C2528 C2534 1.516 . S
C2529 C2530 1.304 . S
C2529 C2533 1.323 . S
C2530 C2529 1.304 . S
C2530 C2531 1.371 . S
C2530 H2544 0.930 . S
C2531 C2528 1.344 . S
C2531 C2530 1.371 . S
C2531 H2545 0.931 . S
C2532 C2528 1.328 . S
C2532 C2533 1.433 . S
C2532 H2546 0.931 . S
C2533 C2529 1.323 . S
C2533 C2532 1.433 . S
C2533 H2547 0.933 . S
C2534 Dy2512 2.738 . S
C2534 O2517 1.255 . S
C2534 O2518 1.249 . S
C2534 C2528 1.516 . S
C2535 O2519 1.254 . S
C2535 O2520 1.257 . S
C2536 O2521 1.266 . S
C2536 O2522 1.236 . S
C2537 C2540 1.344 . S
C2537 C2541 1.328 . S
C2537 C2543 1.516 1_655 S
C2538 C2539 1.304 . S
C2538 C2542 1.323 . S
C2539 C2538 1.304 . S
C2539 C2540 1.371 . S
C2539 H2548 0.930 . S
C2540 C2537 1.344 . S
C2540 C2539 1.371 . S
C2540 H2549 0.931 . S
C2541 C2537 1.328 . S
C2541 C2542 1.433 . S
C2541 H2550 0.963 . S
C2542 C2538 1.323 . S
C2542 C2541 1.433 . S
C2542 H2551 0.933 . S
C2543 Dy2513 2.738 . S
C2543 O2523 1.255 . S
C2543 O2524 1.249 . S
C2543 C2537 1.516 1_455 S
H2544 C2530 0.930 . S
H2545 C2531 0.931 . S
H2546 C2532 0.931 . S
H2547 C2533 0.933 . S
H2548 C2539 0.930 . S
H2549 C2540 0.931 . S
H2550 C2541 0.963 . S
H2551 C2542 0.933 . S
Dy2552 O2555 2.307 . S
Dy2552 O2557 2.395 . S
Dy2552 O2558 2.379 . S
Dy2552 O2560 2.339 . S
Dy2552 O2562 2.298 . S
Dy2552 O2566 2.275 . S
Dy2552 C2574 2.738 . S
Dy2553 O2556 2.298 . S
Dy2553 O2559 2.275 . S
Dy2553 O2561 2.307 . S
Dy2553 O2563 2.395 . S
Dy2553 O2564 2.379 . S
Dy2553 O2567 2.339 . S
Dy2553 C2583 2.738 . S
C2554 O2566 1.254 . S
C2554 O2567 1.257 . S
O2555 Dy2552 2.307 . S
O2555 C2565 1.266 . S
O2556 Dy2553 2.298 . S
O2556 C2565 1.236 . S
O2557 Dy2552 2.395 . S
O2557 C2574 1.255 . S
O2558 Dy2552 2.379 . S
O2558 C2574 1.249 . S
O2559 Dy2553 2.275 . S
O2559 C2575 1.254 . S
O2560 Dy2552 2.339 . S
O2560 C2575 1.257 . S
O2561 Dy2553 2.307 . S
O2561 C2576 1.266 . S
O2562 Dy2552 2.298 . S
O2562 C2576 1.236 . S
O2563 Dy2553 2.395 . S
O2563 C2583 1.255 . S
O2564 Dy2553 2.379 . S
O2564 C2583 1.249 . S
C2565 O2555 1.266 . S
C2565 O2556 1.236 . S
O2566 Dy2552 2.275 . S
O2566 C2554 1.254 . S
O2567 Dy2553 2.339 . S
O2567 C2554 1.257 . S
C2568 C2571 1.344 . S
C2568 C2572 1.328 . S
C2568 C2574 1.516 . S
C2569 C2570 1.304 . S
C2569 C2573 1.323 . S
C2570 C2569 1.304 . S
C2570 C2571 1.371 . S
C2570 H2584 0.930 . S
C2571 C2568 1.344 . S
C2571 C2570 1.371 . S
C2571 H2585 0.931 . S
C2572 C2568 1.328 . S
C2572 C2573 1.433 . S
C2572 H2586 0.931 . S
C2573 C2569 1.323 . S
C2573 C2572 1.433 . S
C2573 H2587 0.933 . S
C2574 Dy2552 2.738 . S
C2574 O2557 1.255 . S
C2574 O2558 1.249 . S
C2574 C2568 1.516 . S
C2575 O2559 1.254 . S
C2575 O2560 1.257 . S
C2576 O2561 1.266 . S
C2576 O2562 1.236 . S
C2577 C2580 1.344 . S
C2577 C2581 1.328 . S
C2577 C2583 1.516 . S
C2578 C2579 1.304 . S
C2578 C2582 1.323 . S
C2579 C2578 1.304 . S
C2579 C2580 1.371 . S
C2579 H2588 0.930 . S
C2580 C2577 1.344 . S
C2580 C2579 1.371 . S
C2580 H2589 0.931 . S
C2581 C2577 1.328 . S
C2581 C2582 1.433 . S
C2581 H2590 0.931 . S
C2582 C2578 1.323 . S
C2582 C2581 1.433 . S
C2582 H2591 0.933 . S
C2583 Dy2553 2.738 . S
C2583 O2563 1.255 . S
C2583 O2564 1.249 . S
C2583 C2577 1.516 . S
H2584 C2570 0.930 . S
H2585 C2571 0.931 . S
H2586 C2572 0.931 . S
H2587 C2573 0.933 . S
H2588 C2579 0.930 . S
H2589 C2580 0.931 . S
H2590 C2581 0.931 . S
H2591 C2582 0.933 . S
Dy2592 O2595 2.307 . S
Dy2592 O2597 2.395 . S
Dy2592 O2598 2.379 . S
Dy2592 O2600 2.339 . S
Dy2592 O2602 2.298 . S
Dy2592 O2606 2.275 . S
Dy2592 C2614 2.738 . S
Dy2593 O2596 2.298 . S
Dy2593 O2599 2.275 . S
Dy2593 O2601 2.307 . S
Dy2593 O2603 2.395 . S
Dy2593 O2604 2.379 . S
Dy2593 O2607 2.339 . S
Dy2593 C2623 2.738 . S
C2594 O2606 1.254 . S
C2594 O2607 1.257 . S
O2595 Dy2592 2.307 . S
O2595 C2605 1.266 . S
O2596 Dy2593 2.298 . S
O2596 C2605 1.236 . S
O2597 Dy2592 2.395 . S
O2597 C2614 1.255 . S
O2598 Dy2592 2.379 . S
O2598 C2614 1.249 . S
O2599 Dy2593 2.275 . S
O2599 C2615 1.254 . S
O2600 Dy2592 2.339 . S
O2600 C2615 1.257 . S
O2601 Dy2593 2.307 . S
O2601 C2616 1.266 . S
O2602 Dy2592 2.298 . S
O2602 C2616 1.236 . S
O2603 Dy2593 2.395 . S
O2603 C2623 1.255 . S
O2604 Dy2593 2.379 . S
O2604 C2623 1.249 . S
C2605 O2595 1.266 . S
C2605 O2596 1.236 . S
O2606 Dy2592 2.275 . S
O2606 C2594 1.254 . S
O2607 Dy2593 2.339 . S
O2607 C2594 1.257 . S
C2608 C2611 1.344 . S
C2608 C2612 1.328 . S
C2608 C2614 1.516 . S
C2609 C2610 1.304 . S
C2609 C2613 1.323 . S
C2610 C2609 1.304 . S
C2610 C2611 1.371 . S
C2610 H2624 0.930 . S
C2611 C2608 1.344 . S
C2611 C2610 1.371 . S
C2611 H2625 0.931 . S
C2612 C2608 1.328 . S
C2612 C2613 1.433 . S
C2612 H2626 0.931 . S
C2613 C2609 1.323 . S
C2613 C2612 1.433 . S
C2613 H2627 0.933 . S
C2614 Dy2592 2.738 . S
C2614 O2597 1.255 . S
C2614 O2598 1.249 . S
C2614 C2608 1.516 . S
C2615 O2599 1.254 . S
C2615 O2600 1.257 . S
C2616 O2601 1.266 . S
C2616 O2602 1.236 . S
C2617 C2620 1.344 . S
C2617 C2621 1.328 . S
C2617 C2623 1.516 . S
C2618 C2619 1.304 . S
C2618 C2622 1.323 . S
C2619 C2618 1.304 . S
C2619 C2620 1.371 . S
C2619 H2628 0.930 . S
C2620 C2617 1.344 . S
C2620 C2619 1.371 . S
C2620 H2629 0.931 . S
C2621 C2617 1.328 . S
C2621 C2622 1.433 . S
C2621 H2630 0.931 . S
C2622 C2618 1.323 . S
C2622 C2621 1.433 . S
C2622 H2631 0.933 . S
C2623 Dy2593 2.738 . S
C2623 O2603 1.255 . S
C2623 O2604 1.249 . S
C2623 C2617 1.516 . S
H2624 C2610 0.930 . S
H2625 C2611 0.931 . S
H2626 C2612 0.931 . S
H2627 C2613 0.933 . S
H2628 C2619 0.930 . S
H2629 C2620 0.931 . S
H2630 C2621 0.931 . S
H2631 C2622 0.933 . S
Dy2632 O2635 2.307 . S
Dy2632 O2637 2.395 . S
Dy2632 O2638 2.379 . S
Dy2632 O2640 2.339 . S
Dy2632 O2642 2.298 . S
Dy2632 O2646 2.275 . S
Dy2632 C2654 2.738 . S
Dy2633 O2636 2.298 . S
Dy2633 O2639 2.275 . S
Dy2633 O2641 2.307 . S
Dy2633 O2643 2.395 . S
Dy2633 O2644 2.379 . S
Dy2633 O2647 2.339 . S
Dy2633 C2663 2.738 . S
C2634 O2646 1.254 . S
C2634 O2647 1.257 . S
O2635 Dy2632 2.307 . S
O2635 C2645 1.266 . S
O2636 Dy2633 2.298 . S
O2636 C2645 1.236 . S
O2637 Dy2632 2.395 . S
O2637 C2654 1.255 . S
O2638 Dy2632 2.379 . S
O2638 C2654 1.249 . S
O2639 Dy2633 2.275 . S
O2639 C2655 1.254 . S
O2640 Dy2632 2.339 . S
O2640 C2655 1.257 . S
O2641 Dy2633 2.307 . S
O2641 C2656 1.266 . S
O2642 Dy2632 2.298 . S
O2642 C2656 1.236 . S
O2643 Dy2633 2.395 . S
O2643 C2663 1.255 . S
O2644 Dy2633 2.379 . S
O2644 C2663 1.249 . S
C2645 O2635 1.266 . S
C2645 O2636 1.236 . S
O2646 Dy2632 2.275 . S
O2646 C2634 1.254 . S
O2647 Dy2633 2.339 . S
O2647 C2634 1.257 . S
C2648 C2651 1.344 . S
C2648 C2652 1.328 . S
C2648 C2654 1.516 . S
C2649 C2650 1.304 . S
C2649 C2653 1.323 . S
C2650 C2649 1.304 . S
C2650 C2651 1.371 . S
C2650 H2664 0.930 . S
C2651 C2648 1.344 . S
C2651 C2650 1.371 . S
C2651 H2665 0.931 . S
C2652 C2648 1.328 . S
C2652 C2653 1.433 . S
C2652 H2666 0.931 . S
C2653 C2649 1.323 . S
C2653 C2652 1.433 . S
C2653 H2667 0.933 . S
C2654 Dy2632 2.738 . S
C2654 O2637 1.255 . S
C2654 O2638 1.249 . S
C2654 C2648 1.516 . S
C2655 O2639 1.254 . S
C2655 O2640 1.257 . S
C2656 O2641 1.266 . S
C2656 O2642 1.236 . S
C2657 C2660 1.344 . S
C2657 C2661 1.328 . S
C2657 C2663 1.516 . S
C2658 C2659 1.304 . S
C2658 C2662 1.323 . S
C2659 C2658 1.304 . S
C2659 C2660 1.371 . S
C2659 H2668 0.930 . S
C2660 C2657 1.344 . S
C2660 C2659 1.371 . S
C2660 H2669 0.931 . S
C2661 C2657 1.328 . S
C2661 C2662 1.433 . S
C2661 H2670 0.931 . S
C2662 C2658 1.323 . S
C2662 C2661 1.433 . S
C2662 H2671 0.933 . S
C2663 Dy2633 2.738 . S
C2663 O2643 1.255 . S
C2663 O2644 1.249 . S
C2663 C2657 1.516 . S
H2664 C2650 0.930 . S
H2665 C2651 0.931 . S
H2666 C2652 0.931 . S
H2667 C2653 0.933 . S
H2668 C2659 0.930 . S
H2669 C2660 0.931 . S
H2670 C2661 0.931 . S
H2671 C2662 0.933 . S
Dy2672 O2675 2.307 . S
Dy2672 O2677 2.395 . S
Dy2672 O2678 2.379 . S
Dy2672 O2680 2.339 . S
Dy2672 O2682 2.298 . S
Dy2672 O2686 2.275 . S
Dy2672 C2694 2.738 . S
Dy2673 O2676 2.298 . S
Dy2673 O2679 2.275 . S
Dy2673 O2681 2.307 . S
Dy2673 O2683 2.395 . S
Dy2673 O2684 2.379 . S
Dy2673 O2687 2.339 . S
Dy2673 C2703 2.738 . S
C2674 O2686 1.254 . S
C2674 O2687 1.257 . S
O2675 Dy2672 2.307 . S
O2675 C2685 1.266 . S
O2676 Dy2673 2.298 . S
O2676 C2685 1.236 . S
O2677 Dy2672 2.395 . S
O2677 C2694 1.255 . S
O2678 Dy2672 2.379 . S
O2678 C2694 1.249 . S
O2679 Dy2673 2.275 . S
O2679 C2695 1.254 . S
O2680 Dy2672 2.339 . S
O2680 C2695 1.257 . S
O2681 Dy2673 2.307 . S
O2681 C2696 1.266 . S
O2682 Dy2672 2.298 . S
O2682 C2696 1.236 . S
O2683 Dy2673 2.395 . S
O2683 C2703 1.255 . S
O2684 Dy2673 2.379 . S
O2684 C2703 1.249 . S
C2685 O2675 1.266 . S
C2685 O2676 1.236 . S
O2686 Dy2672 2.275 . S
O2686 C2674 1.254 . S
O2687 Dy2673 2.339 . S
O2687 C2674 1.257 . S
C2688 C2691 1.344 . S
C2688 C2692 1.328 . S
C2688 C2694 1.516 . S
C2689 C2690 1.304 . S
C2689 C2693 1.323 . S
C2690 C2689 1.304 . S
C2690 C2691 1.371 . S
C2690 H2704 0.930 . S
C2691 C2688 1.344 . S
C2691 C2690 1.371 . S
C2691 H2705 0.931 . S
C2692 C2688 1.328 . S
C2692 C2693 1.433 . S
C2692 H2706 0.931 . S
C2693 C2689 1.323 . S
C2693 C2692 1.433 . S
C2693 H2707 0.933 . S
C2694 Dy2672 2.738 . S
C2694 O2677 1.255 . S
C2694 O2678 1.249 . S
C2694 C2688 1.516 . S
C2695 O2679 1.254 . S
C2695 O2680 1.257 . S
C2696 O2681 1.266 . S
C2696 O2682 1.236 . S
C2697 C2700 1.344 . S
C2697 C2701 1.328 . S
C2697 C2703 1.516 . S
C2698 C2699 1.304 . S
C2698 C2702 1.323 . S
C2699 C2698 1.304 . S
C2699 C2700 1.371 . S
C2699 H2708 0.930 . S
C2700 C2697 1.344 . S
C2700 C2699 1.371 . S
C2700 H2709 0.931 . S
C2701 C2697 1.328 . S
C2701 C2702 1.433 . S
C2701 H2710 0.931 . S
C2702 C2698 1.323 . S
C2702 C2701 1.433 . S
C2702 H2711 0.933 . S
C2703 Dy2673 2.738 . S
C2703 O2683 1.255 . S
C2703 O2684 1.249 . S
C2703 C2697 1.516 . S
H2704 C2690 0.930 . S
H2705 C2691 0.931 . S
H2706 C2692 0.931 . S
H2707 C2693 0.933 . S
H2708 C2699 0.930 . S
H2709 C2700 0.931 . S
H2710 C2701 0.931 . S
H2711 C2702 0.933 . S
Dy2712 O2715 2.302 1_655 S
Dy2712 O2717 2.403 . S
Dy2712 O2718 2.386 . S
Dy2712 O2720 2.333 1_655 S
Dy2712 O2722 2.295 1_655 S
Dy2712 O2726 2.271 1_655 S
Dy2712 C2734 2.747 . S
Dy2713 O2716 2.298 . S
Dy2713 O2719 2.275 . S
Dy2713 O2721 2.307 . S
Dy2713 O2723 2.395 . S
Dy2713 O2724 2.379 1_554 S
Dy2713 O2727 2.339 1_554 S
Dy2713 C2743 2.738 . S
C2714 O2726 1.254 1_556 S
C2714 O2727 1.257 . S
O2715 Dy2712 2.302 1_455 S
O2715 C2725 1.266 . S
O2716 Dy2713 2.298 . S
O2716 C2725 1.236 . S
O2717 Dy2712 2.403 . S
O2717 C2734 1.255 . S
O2718 Dy2712 2.386 . S
O2718 C2734 1.249 . S
O2719 Dy2713 2.275 . S
O2719 C2735 1.254 . S
O2720 Dy2712 2.333 1_455 S
O2720 C2735 1.257 . S
O2721 Dy2713 2.307 . S
O2721 C2736 1.266 . S
O2722 Dy2712 2.295 1_455 S
O2722 C2736 1.236 . S
O2723 Dy2713 2.395 . S
O2723 C2743 1.255 . S
O2724 Dy2713 2.379 1_556 S
O2724 C2743 1.249 1_556 S
C2725 O2715 1.266 . S
C2725 O2716 1.236 . S
O2726 Dy2712 2.271 1_455 S
O2726 C2714 1.254 1_554 S
O2727 Dy2713 2.339 1_556 S
O2727 C2714 1.257 . S
C2728 C2731 1.344 . S
C2728 C2732 1.328 . S
C2728 C2734 1.516 . S
C2729 C2730 1.304 . S
C2729 C2733 1.323 . S
C2730 C2729 1.304 . S
C2730 C2731 1.371 . S
C2730 H2744 0.930 . S
C2731 C2728 1.344 . S
C2731 C2730 1.371 . S
C2731 H2745 0.931 . S
C2732 C2728 1.328 . S
C2732 C2733 1.433 . S
C2732 H2746 0.931 . S
C2733 C2729 1.323 . S
C2733 C2732 1.433 . S
C2733 H2747 0.933 . S
C2734 Dy2712 2.747 . S
C2734 O2717 1.255 . S
C2734 O2718 1.249 . S
C2734 C2728 1.516 . S
C2735 O2719 1.254 . S
C2735 O2720 1.257 . S
C2736 O2721 1.266 . S
C2736 O2722 1.236 . S
C2737 C2740 1.344 . S
C2737 C2741 1.328 1_554 S
C2737 C2743 1.516 . S
C2738 C2739 1.304 . S
C2738 C2742 1.323 1_554 S
C2739 C2738 1.304 . S
C2739 C2740 1.371 . S
C2739 H2748 0.930 . S
C2740 C2737 1.344 . S
C2740 C2739 1.371 . S
C2740 H2749 0.931 . S
C2741 C2737 1.328 1_556 S
C2741 C2742 1.433 . S
C2741 H2750 0.931 . S
C2742 C2738 1.323 1_556 S
C2742 C2741 1.433 . S
C2742 H2751 0.933 . S
C2743 Dy2713 2.738 . S
C2743 O2723 1.255 . S
C2743 O2724 1.249 1_554 S
C2743 C2737 1.516 . S
H2744 C2730 0.930 . S
H2745 C2731 0.931 . S
H2746 C2732 0.931 . S
H2747 C2733 0.933 . S
H2748 C2739 0.930 . S
H2749 C2740 0.931 . S
H2750 C2741 0.931 . S
H2751 C2742 0.933 . S
H2752 C2758 0.930 . S
H2753 C2761 0.930 . S
H2754 C2762 0.930 . S
H2755 C2763 0.930 . S
H2756 C2766 0.930 . S
H2757 C2767 0.930 . S
C2758 H2752 0.930 . S
C2758 C2759 1.341 1_655 S
C2758 C2760 1.415 . S
C2759 C2758 1.341 1_455 S
C2759 C2761 1.463 . S
C2760 C2758 1.415 . S
C2760 C2765 1.425 1_655 S
C2760 C2767 1.409 . S
C2761 H2753 0.930 . S
C2761 C2759 1.463 . S
C2761 C2762 1.362 . S
C2762 H2754 0.930 . S
C2762 C2761 1.362 . S
C2762 C2765 1.409 . S
C2763 H2755 0.930 . S
C2763 C2764 1.355 . S
C2763 C2765 1.415 . S
C2764 C2763 1.355 . S
C2764 C2766 1.419 1_455 S
C2765 C2760 1.425 1_455 S
C2765 C2762 1.409 . S
C2765 C2763 1.415 . S
C2766 H2756 0.930 . S
C2766 C2764 1.419 1_655 S
C2766 C2767 1.362 . S
C2767 H2757 0.930 . S
C2767 C2760 1.409 . S
C2767 C2766 1.362 . S
H2768 C2774 0.930 . S
H2769 C2777 0.930 . S
H2770 C2778 0.930 . S
H2771 C2779 0.930 . S
H2772 C2782 0.930 . S
H2773 C2783 0.930 . S
C2774 H2768 0.930 . S
C2774 C2775 1.355 . S
C2774 C2776 1.415 . S
C2775 C2774 1.355 . S
C2775 C2777 1.419 . S
C2776 C2774 1.415 . S
C2776 C2781 1.425 . S
C2776 C2783 1.409 . S
C2777 H2769 0.930 . S
C2777 C2775 1.419 . S
C2777 C2778 1.362 . S
C2778 H2770 0.930 . S
C2778 C2777 1.362 . S
C2778 C2781 1.409 . S
C2779 H2771 0.930 . S
C2779 C2780 1.355 . S
C2779 C2781 1.415 . S
C2780 C2779 1.355 . S
C2780 C2782 1.419 . S
C2781 C2776 1.425 . S
C2781 C2778 1.409 . S
C2781 C2779 1.415 . S
C2782 H2772 0.930 . S
C2782 C2780 1.419 . S
C2782 C2783 1.362 . S
C2783 H2773 0.930 . S
C2783 C2776 1.409 . S
C2783 C2782 1.362 . S
H2784 C2790 0.930 . S
H2785 C2793 0.930 . S
H2786 C2794 0.930 . S
H2787 C2795 0.930 . S
H2788 C2798 0.930 . S
H2789 C2799 0.930 . S
C2790 H2784 0.930 . S
C2790 C2791 1.355 . S
C2790 C2792 1.415 . S
C2791 C2790 1.355 . S
C2791 C2793 1.419 . S
C2792 C2790 1.415 . S
C2792 C2797 1.425 . S
C2792 C2799 1.409 . S
C2793 H2785 0.930 . S
C2793 C2791 1.419 . S
C2793 C2794 1.362 . S
C2794 H2786 0.930 . S
C2794 C2793 1.362 . S
C2794 C2797 1.409 . S
C2795 H2787 0.930 . S
C2795 C2796 1.355 . S
C2795 C2797 1.415 . S
C2796 C2795 1.355 . S
C2796 C2798 1.419 . S
C2797 C2792 1.425 . S
C2797 C2794 1.409 . S
C2797 C2795 1.415 . S
C2798 H2788 0.930 . S
C2798 C2796 1.419 . S
C2798 C2799 1.362 . S
C2799 H2789 0.930 . S
C2799 C2792 1.409 . S
C2799 C2798 1.362 . S
H2800 C2806 0.930 . S
H2801 C2809 0.930 . S
H2802 C2810 0.930 . S
H2803 C2811 0.930 . S
H2804 C2814 0.930 . S
H2805 C2815 0.930 . S
C2806 H2800 0.930 . S
C2806 C2807 1.355 . S
C2806 C2808 1.415 . S
C2807 C2806 1.355 . S
C2807 C2809 1.419 . S
C2808 C2806 1.415 . S
C2808 C2813 1.425 . S
C2808 C2815 1.409 . S
C2809 H2801 0.930 . S
C2809 C2807 1.419 . S
C2809 C2810 1.362 . S
C2810 H2802 0.930 . S
C2810 C2809 1.362 . S
C2810 C2813 1.409 . S
C2811 H2803 0.930 . S
C2811 C2812 1.355 . S
C2811 C2813 1.415 . S
C2812 C2811 1.355 . S
C2812 C2814 1.419 . S
C2813 C2808 1.425 . S
C2813 C2810 1.409 . S
C2813 C2811 1.415 . S
C2814 H2804 0.930 . S
C2814 C2812 1.419 . S
C2814 C2815 1.362 . S
C2815 H2805 0.930 . S
C2815 C2808 1.409 . S
C2815 C2814 1.362 . S
H2816 C2822 0.930 . S
H2817 C2825 0.930 . S
H2818 C2826 0.930 . S
H2819 C2827 0.930 . S
H2820 C2830 0.930 . S
H2821 C2831 0.930 . S
C2822 H2816 0.930 . S
C2822 C2823 1.355 . S
C2822 C2824 1.415 . S
C2823 C2822 1.355 . S
C2823 C2825 1.419 . S
C2824 C2822 1.415 . S
C2824 C2829 1.425 . S
C2824 C2831 1.409 . S
C2825 H2817 0.930 . S
C2825 C2823 1.419 . S
C2825 C2826 1.362 . S
C2826 H2818 0.930 . S
C2826 C2825 1.362 . S
C2826 C2829 1.409 . S
C2827 H2819 0.930 . S
C2827 C2828 1.355 . S
C2827 C2829 1.415 . S
C2828 C2827 1.355 . S
C2828 C2830 1.419 . S
C2829 C2824 1.425 . S
C2829 C2826 1.409 . S
C2829 C2827 1.415 . S
C2830 H2820 0.930 . S
C2830 C2828 1.419 . S
C2830 C2831 1.362 . S
C2831 H2821 0.930 . S
C2831 C2824 1.409 . S
C2831 C2830 1.362 . S
H2832 C2838 0.930 . S
H2833 C2841 0.930 . S
H2834 C2842 0.930 . S
H2835 C2843 0.930 . S
H2836 C2846 0.930 . S
H2837 C2847 0.930 . S
C2838 H2832 0.930 . S
C2838 C2839 1.355 . S
C2838 C2840 1.415 . S
C2839 C2838 1.355 . S
C2839 C2841 1.419 . S
C2840 C2838 1.415 . S
C2840 C2845 1.425 . S
C2840 C2847 1.409 . S
C2841 H2833 0.930 . S
C2841 C2839 1.419 . S
C2841 C2842 1.362 . S
C2842 H2834 0.930 . S
C2842 C2841 1.362 . S
C2842 C2845 1.409 . S
C2843 H2835 0.930 . S
C2843 C2844 1.355 . S
C2843 C2845 1.415 . S
C2844 C2843 1.355 . S
C2844 C2846 1.419 . S
C2845 C2840 1.425 . S
C2845 C2842 1.409 . S
C2845 C2843 1.415 . S
C2846 H2836 0.930 . S
C2846 C2844 1.419 . S
C2846 C2847 1.362 . S
C2847 H2837 0.930 . S
C2847 C2840 1.409 . S
C2847 C2846 1.362 . S
H2848 C2854 0.930 . S
H2849 C2857 0.930 . S
H2850 C2858 0.930 . S
H2851 C2859 0.930 . S
H2852 C2862 0.930 . S
H2853 C2863 0.930 . S
C2854 H2848 0.930 . S
C2854 C2855 1.355 . S
C2854 C2856 1.415 . S
C2855 C2854 1.355 . S
C2855 C2857 1.419 . S
C2856 C2854 1.415 . S
C2856 C2861 1.425 . S
C2856 C2863 1.409 . S
C2857 H2849 0.930 . S
C2857 C2855 1.419 . S
C2857 C2858 1.362 . S
C2858 H2850 0.930 . S
C2858 C2857 1.362 . S
C2858 C2861 1.409 . S
C2859 H2851 0.930 . S
C2859 C2860 1.355 . S
C2859 C2861 1.415 . S
C2860 C2859 1.355 . S
C2860 C2862 1.419 . S
C2861 C2856 1.425 . S
C2861 C2858 1.409 . S
C2861 C2859 1.415 . S
C2862 H2852 0.930 . S
C2862 C2860 1.419 . S
C2862 C2863 1.362 . S
C2863 H2853 0.930 . S
C2863 C2856 1.409 . S
C2863 C2862 1.362 . S
H2864 C2870 0.930 . S
H2865 C2873 0.930 . S
H2866 C2874 0.930 . S
H2867 C2875 0.930 . S
H2868 C2878 0.930 . S
H2869 C2879 0.930 . S
C2870 H2864 0.930 . S
C2870 C2871 1.355 . S
C2870 C2872 1.415 . S
C2871 C2870 1.355 . S
C2871 C2873 1.419 . S
C2872 C2870 1.415 . S
C2872 C2877 1.425 . S
C2872 C2879 1.409 . S
C2873 H2865 0.930 . S
C2873 C2871 1.419 . S
C2873 C2874 1.362 . S
C2874 H2866 0.930 . S
C2874 C2873 1.362 . S
C2874 C2877 1.409 . S
C2875 H2867 0.930 . S
C2875 C2876 1.355 . S
C2875 C2877 1.415 . S
C2876 C2875 1.355 . S
C2876 C2878 1.419 . S
C2877 C2872 1.425 . S
C2877 C2874 1.409 . S
C2877 C2875 1.415 . S
C2878 H2868 0.930 . S
C2878 C2876 1.419 . S
C2878 C2879 1.362 . S
C2879 H2869 0.930 . S
C2879 C2872 1.409 . S
C2879 C2878 1.362 . S
H2880 C2886 0.930 . S
H2881 C2889 0.930 . S
H2882 C2890 0.930 . S
H2883 C2891 0.930 . S
H2884 C2894 0.930 . S
H2885 C2895 0.930 . S
C2886 H2880 0.930 . S
C2886 C2887 1.355 1_655 S
C2886 C2888 1.400 1_655 S
C2887 C2886 1.355 1_455 S
C2887 C2889 1.419 . S
C2888 C2886 1.400 1_455 S
C2888 C2893 1.452 . S
C2888 C2895 1.401 1_455 S
C2889 H2881 0.930 . S
C2889 C2887 1.419 . S
C2889 C2890 1.362 . S
C2890 H2882 0.930 . S
C2890 C2889 1.362 . S
C2890 C2893 1.409 . S
C2891 H2883 0.930 . S
C2891 C2892 1.355 . S
C2891 C2893 1.415 . S
C2892 C2891 1.355 . S
C2892 C2894 1.419 1_455 S
C2893 C2888 1.452 . S
C2893 C2890 1.409 . S
C2893 C2891 1.415 . S
C2894 H2884 0.930 . S
C2894 C2892 1.419 1_655 S
C2894 C2895 1.362 . S
C2895 H2885 0.930 . S
C2895 C2888 1.401 1_655 S
C2895 C2894 1.362 . S
H2896 C2902 0.930 . S
H2897 C2905 0.930 . S
H2898 C2906 0.930 . S
H2899 C2907 0.930 . S
H2900 C2910 0.930 . S
H2901 C2911 0.930 . S
C2902 H2896 0.930 . S
C2902 C2903 1.355 . S
C2902 C2904 1.415 . S
C2903 C2902 1.355 . S
C2903 C2905 1.419 . S
C2904 C2902 1.415 . S
C2904 C2909 1.425 . S
C2904 C2911 1.409 . S
C2905 H2897 0.930 . S
C2905 C2903 1.419 . S
C2905 C2906 1.362 . S
C2906 H2898 0.930 . S
C2906 C2905 1.362 . S
C2906 C2909 1.409 . S
C2907 H2899 0.930 . S
C2907 C2908 1.355 . S
C2907 C2909 1.415 . S
C2908 C2907 1.355 . S
C2908 C2910 1.419 . S
C2909 C2904 1.425 . S
C2909 C2906 1.409 . S
C2909 C2907 1.415 . S
C2910 H2900 0.930 . S
C2910 C2908 1.419 . S
C2910 C2911 1.362 . S
C2911 H2901 0.930 . S
C2911 C2904 1.409 . S
C2911 C2910 1.362 . S
H2912 C2918 0.930 . S
H2913 C2921 0.930 . S
H2914 C2922 0.930 . S
H2915 C2923 0.930 . S
H2916 C2926 0.930 . S
H2917 C2927 0.930 . S
C2918 H2912 0.930 . S
C2918 C2919 1.355 . S
C2918 C2920 1.415 . S
C2919 C2918 1.355 . S
C2919 C2921 1.419 . S
C2920 C2918 1.415 . S
C2920 C2925 1.425 . S
C2920 C2927 1.409 . S
C2921 H2913 0.930 . S
C2921 C2919 1.419 . S
C2921 C2922 1.362 . S
C2922 H2914 0.930 . S
C2922 C2921 1.362 . S
C2922 C2925 1.409 . S
C2923 H2915 0.930 . S
C2923 C2924 1.355 . S
C2923 C2925 1.415 . S
C2924 C2923 1.355 . S
C2924 C2926 1.419 . S
C2925 C2920 1.425 . S
C2925 C2922 1.409 . S
C2925 C2923 1.415 . S
C2926 H2916 0.930 . S
C2926 C2924 1.419 . S
C2926 C2927 1.362 . S
C2927 H2917 0.930 . S
C2927 C2920 1.409 . S
C2927 C2926 1.362 . S
H2928 C2934 0.930 . S
H2929 C2937 0.930 . S
H2930 C2938 0.930 . S
H2931 C2939 0.930 . S
H2932 C2942 0.930 . S
H2933 C2943 0.930 . S
C2934 H2928 0.930 . S
C2934 C2935 1.355 . S
C2934 C2936 1.415 . S
C2935 C2934 1.355 . S
C2935 C2937 1.419 . S
C2936 C2934 1.415 . S
C2936 C2941 1.425 . S
C2936 C2943 1.409 . S
C2937 H2929 0.930 . S
C2937 C2935 1.419 . S
C2937 C2938 1.362 . S
C2938 H2930 0.930 . S
C2938 C2937 1.362 . S
C2938 C2941 1.409 . S
C2939 H2931 0.930 . S
C2939 C2940 1.355 . S
C2939 C2941 1.415 . S
C2940 C2939 1.355 . S
C2940 C2942 1.419 . S
C2941 C2936 1.425 . S
C2941 C2938 1.409 . S
C2941 C2939 1.415 . S
C2942 H2932 0.930 . S
C2942 C2940 1.419 . S
C2942 C2943 1.362 . S
C2943 H2933 0.930 . S
C2943 C2936 1.409 . S
C2943 C2942 1.362 . S
H2944 C2950 0.930 1_655 S
H2945 C2953 0.930 . S
H2946 C2954 0.930 . S
H2947 C2955 0.930 . S
H2948 C2958 0.930 1_655 S
H2949 C2959 0.966 . S
C2950 H2944 0.930 1_455 S
C2950 C2951 1.355 . S
C2950 C2952 1.415 . S
C2951 C2950 1.355 . S
C2951 C2953 1.419 . S
C2952 C2950 1.415 . S
C2952 C2957 1.425 . S
C2952 C2959 1.384 1_455 S
C2953 H2945 0.930 . S
C2953 C2951 1.419 . S
C2953 C2954 1.362 . S
C2954 H2946 0.930 . S
C2954 C2953 1.362 . S
C2954 C2957 1.409 . S
C2955 H2947 0.930 . S
C2955 C2956 1.355 . S
C2955 C2957 1.415 . S
C2956 C2955 1.355 . S
C2956 C2958 1.419 . S
C2957 C2952 1.425 . S
C2957 C2954 1.409 . S
C2957 C2955 1.415 . S
C2958 H2948 0.930 1_455 S
C2958 C2956 1.419 . S
C2958 C2959 1.355 1_455 S
C2959 H2949 0.966 . S
C2959 C2952 1.384 1_655 S
C2959 C2958 1.355 1_655 S
H2960 C2966 0.930 . S
H2961 C2969 0.930 . S
H2962 C2970 0.930 . S
H2963 C2971 0.930 . S
H2964 C2974 0.930 . S
H2965 C2975 0.930 . S
C2966 H2960 0.930 . S
C2966 C2967 1.355 . S
C2966 C2968 1.415 . S
C2967 C2966 1.355 . S
C2967 C2969 1.419 . S
C2968 C2966 1.415 . S
C2968 C2973 1.425 . S
C2968 C2975 1.409 . S
C2969 H2961 0.930 . S
C2969 C2967 1.419 . S
C2969 C2970 1.362 . S
C2970 H2962 0.930 . S
C2970 C2969 1.362 . S
C2970 C2973 1.409 . S
C2971 H2963 0.930 . S
C2971 C2972 1.355 . S
C2971 C2973 1.415 . S
C2972 C2971 1.355 . S
C2972 C2974 1.419 . S
C2973 C2968 1.425 . S
C2973 C2970 1.409 . S
C2973 C2971 1.415 . S
C2974 H2964 0.930 . S
C2974 C2972 1.419 . S
C2974 C2975 1.362 . S
C2975 H2965 0.930 . S
C2975 C2968 1.409 . S
C2975 C2974 1.362 . S
H2976 C2982 0.930 . S
H2977 C2985 0.930 . S
H2978 C2986 0.930 . S
H2979 C2987 0.930 . S
H2980 C2990 0.930 . S
H2981 C2991 0.930 . S
C2982 H2976 0.930 . S
C2982 C2983 1.355 . S
C2982 C2984 1.415 . S
C2983 C2982 1.355 . S
C2983 C2985 1.419 . S
C2984 C2982 1.415 . S
C2984 C2989 1.425 . S
C2984 C2991 1.409 . S
C2985 H2977 0.930 . S
C2985 C2983 1.419 . S
C2985 C2986 1.362 . S
C2986 H2978 0.930 . S
C2986 C2985 1.362 . S
C2986 C2989 1.409 . S
C2987 H2979 0.930 . S
C2987 C2988 1.355 . S
C2987 C2989 1.415 . S
C2988 C2987 1.355 . S
C2988 C2990 1.419 . S
C2989 C2984 1.425 . S
C2989 C2986 1.409 . S
C2989 C2987 1.415 . S
C2990 H2980 0.930 . S
C2990 C2988 1.419 . S
C2990 C2991 1.362 . S
C2991 H2981 0.930 . S
C2991 C2984 1.409 . S
C2991 C2990 1.362 . S
H2992 C2998 0.930 . S
H2993 C3001 0.930 . S
H2994 C3002 0.930 . S
H2995 C3003 0.930 . S
H2996 C3006 0.930 . S
H2997 C3007 0.930 . S
C2998 H2992 0.930 . S
C2998 C2999 1.355 . S
C2998 C3000 1.415 . S
C2999 C2998 1.355 . S
C2999 C3001 1.419 . S
C3000 C2998 1.415 . S
C3000 C3005 1.425 . S
C3000 C3007 1.409 . S
C3001 H2993 0.930 . S
C3001 C2999 1.419 . S
C3001 C3002 1.362 . S
C3002 H2994 0.930 . S
C3002 C3001 1.362 . S
C3002 C3005 1.409 . S
C3003 H2995 0.930 . S
C3003 C3004 1.355 . S
C3003 C3005 1.415 . S
C3004 C3003 1.355 . S
C3004 C3006 1.419 . S
C3005 C3000 1.425 . S
C3005 C3002 1.409 . S
C3005 C3003 1.415 . S
C3006 H2996 0.930 . S
C3006 C3004 1.419 . S
C3006 C3007 1.362 . S
C3007 H2997 0.930 . S
C3007 C3000 1.409 . S
C3007 C3006 1.362 . S
H3008 C3014 0.930 . S
H3009 C3017 0.930 1_556 S
H3010 C3018 0.930 . S
H3011 C3019 0.930 . S
H3012 C3022 0.930 . S
H3013 C3023 0.930 . S
C3014 H3008 0.930 . S
C3014 C3015 1.355 . S
C3014 C3016 1.415 . S
C3015 C3014 1.355 . S
C3015 C3017 1.419 . S
C3016 C3014 1.415 . S
C3016 C3021 1.425 . S
C3016 C3023 1.409 1_565 S
C3017 H3009 0.930 1_554 S
C3017 C3015 1.419 . S
C3017 C3018 1.362 . S
C3018 H3010 0.930 . S
C3018 C3017 1.362 . S
C3018 C3021 1.409 . S
C3019 H3011 0.930 . S
C3019 C3020 1.355 1_565 S
C3019 C3021 1.415 . S
C3020 C3019 1.355 1_545 S
C3020 C3022 1.419 . S
C3021 C3016 1.425 . S
C3021 C3018 1.409 . S
C3021 C3019 1.415 . S
C3022 H3012 0.930 . S
C3022 C3020 1.419 . S
C3022 C3023 1.362 . S
C3023 H3013 0.930 . S
C3023 C3016 1.409 1_545 S
C3023 C3022 1.362 . S
H3024 C3030 0.943 . S
H3025 C3033 0.930 . S
H3026 C3034 0.930 . S
H3027 C3035 0.930 . S
H3028 C3038 0.930 . S
H3029 C3039 0.921 1_556 S
C3030 H3024 0.943 . S
C3030 C3031 1.355 . S
C3030 C3032 1.415 . S
C3031 C3030 1.355 . S
C3031 C3033 1.419 . S
C3032 C3030 1.415 . S
C3032 C3037 1.425 . S
C3032 C3039 1.409 . S
C3033 H3025 0.930 . S
C3033 C3031 1.419 . S
C3033 C3034 1.362 . S
C3034 H3026 0.930 . S
C3034 C3033 1.362 . S
C3034 C3037 1.409 . S
C3035 H3027 0.930 . S
C3035 C3036 1.355 . S
C3035 C3037 1.415 . S
C3036 C3035 1.355 . S
C3036 C3038 1.419 . S
C3037 C3032 1.425 . S
C3037 C3034 1.409 . S
C3037 C3035 1.415 . S
C3038 H3028 0.930 . S
C3038 C3036 1.419 . S
C3038 C3039 1.362 . S
C3039 H3029 0.921 1_554 S
C3039 C3032 1.409 . S
C3039 C3038 1.362 . S
H3040 C3046 0.930 . S
H3041 C3049 0.930 . S
H3042 C3050 0.930 . S
H3043 C3051 0.930 . S
H3044 C3054 0.930 . S
H3045 C3055 0.930 . S
C3046 H3040 0.930 . S
C3046 C3047 1.355 . S
C3046 C3048 1.415 . S
C3047 C3046 1.355 . S
C3047 C3049 1.419 . S
C3048 C3046 1.415 . S
C3048 C3053 1.425 . S
C3048 C3055 1.409 . S
C3049 H3041 0.930 . S
C3049 C3047 1.419 . S
C3049 C3050 1.362 . S
C3050 H3042 0.930 . S
C3050 C3049 1.362 . S
C3050 C3053 1.409 . S
C3051 H3043 0.930 . S
C3051 C3052 1.355 . S
C3051 C3053 1.415 . S
C3052 C3051 1.355 . S
C3052 C3054 1.419 . S
C3053 C3048 1.425 . S
C3053 C3050 1.409 . S
C3053 C3051 1.415 . S
C3054 H3044 0.930 . S
C3054 C3052 1.419 . S
C3054 C3055 1.362 . S
C3055 H3045 0.930 . S
C3055 C3048 1.409 . S
C3055 C3054 1.362 . S
H3056 C3062 0.930 . S
H3057 C3065 0.930 . S
H3058 C3066 0.930 . S
H3059 C3067 0.930 . S
H3060 C3070 0.930 . S
H3061 C3071 0.930 . S
C3062 H3056 0.930 . S
C3062 C3063 1.355 . S
C3062 C3064 1.415 . S
C3063 C3062 1.355 . S
C3063 C3065 1.419 . S
C3064 C3062 1.415 . S
C3064 C3069 1.425 . S
C3064 C3071 1.409 . S
C3065 H3057 0.930 . S
C3065 C3063 1.419 . S
C3065 C3066 1.362 . S
C3066 H3058 0.930 . S
C3066 C3065 1.362 . S
C3066 C3069 1.409 . S
C3067 H3059 0.930 . S
C3067 C3068 1.355 . S
C3067 C3069 1.415 . S
C3068 C3067 1.355 . S
C3068 C3070 1.419 . S
C3069 C3064 1.425 . S
C3069 C3066 1.409 . S
C3069 C3067 1.415 . S
C3070 H3060 0.930 . S
C3070 C3068 1.419 . S
C3070 C3071 1.362 . S
C3071 H3061 0.930 . S
C3071 C3064 1.409 . S
C3071 C3070 1.362 . S
H3072 C3078 0.930 . S
H3073 C3081 0.930 . S
H3074 C3082 0.930 . S
H3075 C3083 0.930 . S
H3076 C3086 0.930 . S
H3077 C3087 0.930 . S
C3078 H3072 0.930 . S
C3078 C3079 1.355 . S
C3078 C3080 1.415 . S
C3079 C3078 1.355 . S
C3079 C3081 1.419 . S
C3080 C3078 1.415 . S
C3080 C3085 1.425 . S
C3080 C3087 1.409 . S
C3081 H3073 0.930 . S
C3081 C3079 1.419 . S
C3081 C3082 1.362 . S
C3082 H3074 0.930 . S
C3082 C3081 1.362 . S
C3082 C3085 1.409 . S
C3083 H3075 0.930 . S
C3083 C3084 1.355 . S
C3083 C3085 1.415 . S
C3084 C3083 1.355 . S
C3084 C3086 1.419 . S
C3085 C3080 1.425 . S
C3085 C3082 1.409 . S
C3085 C3083 1.415 . S
C3086 H3076 0.930 . S
C3086 C3084 1.419 . S
C3086 C3087 1.362 . S
C3087 H3077 0.930 . S
C3087 C3080 1.409 . S
C3087 C3086 1.362 . S
H3088 C3094 0.930 . S
H3089 C3097 0.930 . S
H3090 C3098 0.930 . S
H3091 C3099 0.930 . S
H3092 C3102 0.930 . S
H3093 C3103 0.930 . S
C3094 H3088 0.930 . S
C3094 C3095 1.355 . S
C3094 C3096 1.415 . S
C3095 C3094 1.355 . S
C3095 C3097 1.419 . S
C3096 C3094 1.415 . S
C3096 C3101 1.425 . S
C3096 C3103 1.409 . S
C3097 H3089 0.930 . S
C3097 C3095 1.419 . S
C3097 C3098 1.362 . S
C3098 H3090 0.930 . S
C3098 C3097 1.362 . S
C3098 C3101 1.409 . S
C3099 H3091 0.930 . S
C3099 C3100 1.355 . S
C3099 C3101 1.415 . S
C3100 C3099 1.355 . S
C3100 C3102 1.419 . S
C3101 C3096 1.425 . S
C3101 C3098 1.409 . S
C3101 C3099 1.415 . S
C3102 H3092 0.930 . S
C3102 C3100 1.419 . S
C3102 C3103 1.362 . S
C3103 H3093 0.930 . S
C3103 C3096 1.409 . S
C3103 C3102 1.362 . S
H3104 C3110 0.930 . S
H3105 C3113 0.930 . S
H3106 C3114 0.930 . S
H3107 C3115 0.930 . S
H3108 C3118 0.930 . S
H3109 C3119 0.930 . S
C3110 H3104 0.930 . S
C3110 C3111 1.355 . S
C3110 C3112 1.415 . S
C3111 C3110 1.355 . S
C3111 C3113 1.419 . S
C3112 C3110 1.415 . S
C3112 C3117 1.425 . S
C3112 C3119 1.409 . S
C3113 H3105 0.930 . S
C3113 C3111 1.419 . S
C3113 C3114 1.362 . S
C3114 H3106 0.930 . S
C3114 C3113 1.362 . S
C3114 C3117 1.409 . S
C3115 H3107 0.930 . S
C3115 C3116 1.355 . S
C3115 C3117 1.415 . S
C3116 C3115 1.355 . S
C3116 C3118 1.419 . S
C3117 C3112 1.425 . S
C3117 C3114 1.409 . S
C3117 C3115 1.415 . S
C3118 H3108 0.930 . S
C3118 C3116 1.419 . S
C3118 C3119 1.362 . S
C3119 H3109 0.930 . S
C3119 C3112 1.409 . S
C3119 C3118 1.362 . S
H3120 C3126 0.930 . S
H3121 C3129 0.930 . S
H3122 C3130 0.930 . S
H3123 C3131 0.930 . S
H3124 C3134 0.930 . S
H3125 C3135 0.930 . S
C3126 H3120 0.930 . S
C3126 C3127 1.355 . S
C3126 C3128 1.415 . S
C3127 C3126 1.355 . S
C3127 C3129 1.419 . S
C3128 C3126 1.415 . S
C3128 C3133 1.425 . S
C3128 C3135 1.409 . S
C3129 H3121 0.930 . S
C3129 C3127 1.419 . S
C3129 C3130 1.362 . S
C3130 H3122 0.930 . S
C3130 C3129 1.362 . S
C3130 C3133 1.409 . S
C3131 H3123 0.930 . S
C3131 C3132 1.355 . S
C3131 C3133 1.415 . S
C3132 C3131 1.355 . S
C3132 C3134 1.419 . S
C3133 C3128 1.425 . S
C3133 C3130 1.409 . S
C3133 C3131 1.415 . S
C3134 H3124 0.930 . S
C3134 C3132 1.419 . S
C3134 C3135 1.362 . S
C3135 H3125 0.930 . S
C3135 C3128 1.409 . S
C3135 C3134 1.362 . S
H3136 C3142 0.930 . S
H3137 C3145 0.930 . S
H3138 C3146 0.930 . S
H3139 C3147 0.930 . S
H3140 C3150 0.934 1_655 S
H3141 C3151 0.930 . S
C3142 H3136 0.930 . S
C3142 C3143 1.355 . S
C3142 C3144 1.415 . S
C3143 C3142 1.355 . S
C3143 C3145 1.419 . S
C3144 C3142 1.415 . S
C3144 C3149 1.425 . S
C3144 C3151 1.409 . S
C3145 H3137 0.930 . S
C3145 C3143 1.419 . S
C3145 C3146 1.362 . S
C3146 H3138 0.930 . S
C3146 C3145 1.362 . S
C3146 C3149 1.409 . S
C3147 H3139 0.930 . S
C3147 C3148 1.355 . S
C3147 C3149 1.415 . S
C3148 C3147 1.355 . S
C3148 C3150 1.419 . S
C3149 C3144 1.425 . S
C3149 C3146 1.409 . S
C3149 C3147 1.415 . S
C3150 H3140 0.934 1_455 S
C3150 C3148 1.419 . S
C3150 C3151 1.362 . S
C3151 H3141 0.930 . S
C3151 C3144 1.409 . S
C3151 C3150 1.362 . S
H3152 C3158 0.930 . S
H3153 C3161 0.930 . S
H3154 C3162 0.930 . S
H3155 C3163 0.930 . S
H3156 C3166 0.930 . S
H3157 C3167 0.930 . S
C3158 H3152 0.930 . S
C3158 C3159 1.355 . S
C3158 C3160 1.415 . S
C3159 C3158 1.355 . S
C3159 C3161 1.419 . S
C3160 C3158 1.415 . S
C3160 C3165 1.425 . S
C3160 C3167 1.409 . S
C3161 H3153 0.930 . S
C3161 C3159 1.419 . S
C3161 C3162 1.362 . S
C3162 H3154 0.930 . S
C3162 C3161 1.362 . S
C3162 C3165 1.409 . S
C3163 H3155 0.930 . S
C3163 C3164 1.355 . S
C3163 C3165 1.415 . S
C3164 C3163 1.355 . S
C3164 C3166 1.419 . S
C3165 C3160 1.425 . S
C3165 C3162 1.409 . S
C3165 C3163 1.415 . S
C3166 H3156 0.930 . S
C3166 C3164 1.419 . S
C3166 C3167 1.362 . S
C3167 H3157 0.930 . S
C3167 C3160 1.409 . S
C3167 C3166 1.362 . S
H3168 C3174 0.930 . S
H3169 C3177 0.930 . S
H3170 C3178 0.930 . S
H3171 C3179 0.930 . S
H3172 C3182 0.930 . S
H3173 C3183 0.930 . S
C3174 H3168 0.930 . S
C3174 C3175 1.355 . S
C3174 C3176 1.415 . S
C3175 C3174 1.355 . S
C3175 C3177 1.419 . S
C3176 C3174 1.415 . S
C3176 C3181 1.425 . S
C3176 C3183 1.409 . S
C3177 H3169 0.930 . S
C3177 C3175 1.419 . S
C3177 C3178 1.362 . S
C3178 H3170 0.930 . S
C3178 C3177 1.362 . S
C3178 C3181 1.409 . S
C3179 H3171 0.930 . S
C3179 C3180 1.355 . S
C3179 C3181 1.415 . S
C3180 C3179 1.355 . S
C3180 C3182 1.419 . S
C3181 C3176 1.425 . S
C3181 C3178 1.409 . S
C3181 C3179 1.415 . S
C3182 H3172 0.930 . S
C3182 C3180 1.419 . S
C3182 C3183 1.362 . S
C3183 H3173 0.930 . S
C3183 C3176 1.409 . S
C3183 C3182 1.362 . S
H3184 C3190 0.930 . S
H3185 C3193 0.930 . S
H3186 C3194 0.930 . S
H3187 C3195 0.930 . S
H3188 C3198 0.930 . S
H3189 C3199 0.930 . S
C3190 H3184 0.930 . S
C3190 C3191 1.355 . S
C3190 C3192 1.415 . S
C3191 C3190 1.355 . S
C3191 C3193 1.419 . S
C3192 C3190 1.415 . S
C3192 C3197 1.425 . S
C3192 C3199 1.409 . S
C3193 H3185 0.930 . S
C3193 C3191 1.419 . S
C3193 C3194 1.362 . S
C3194 H3186 0.930 . S
C3194 C3193 1.362 . S
C3194 C3197 1.409 . S
C3195 H3187 0.930 . S
C3195 C3196 1.355 . S
C3195 C3197 1.415 . S
C3196 C3195 1.355 . S
C3196 C3198 1.419 . S
C3197 C3192 1.425 . S
C3197 C3194 1.409 . S
C3197 C3195 1.415 . S
C3198 H3188 0.930 . S
C3198 C3196 1.419 . S
C3198 C3199 1.362 . S
C3199 H3189 0.930 . S
C3199 C3192 1.409 . S
C3199 C3198 1.362 . S
H3200 C3206 0.930 . S
H3201 C3209 0.930 . S
H3202 C3210 0.930 . S
H3203 C3211 0.930 . S
H3204 C3214 0.930 . S
H3205 C3215 0.930 . S
C3206 H3200 0.930 . S
C3206 C3207 1.355 . S
C3206 C3208 1.415 . S
C3207 C3206 1.355 . S
C3207 C3209 1.419 . S
C3208 C3206 1.415 . S
C3208 C3213 1.425 . S
C3208 C3215 1.409 1_455 S
C3209 H3201 0.930 . S
C3209 C3207 1.419 . S
C3209 C3210 1.362 . S
C3210 H3202 0.930 . S
C3210 C3209 1.362 . S
C3210 C3213 1.409 . S
C3211 H3203 0.930 . S
C3211 C3212 1.355 . S
C3211 C3213 1.415 . S
C3212 C3211 1.355 . S
C3212 C3214 1.419 1_455 S
C3213 C3208 1.425 . S
C3213 C3210 1.409 . S
C3213 C3211 1.415 . S
C3214 H3204 0.930 . S
C3214 C3212 1.419 1_655 S
C3214 C3215 1.362 . S
C3215 H3205 0.930 . S
C3215 C3208 1.409 1_655 S
C3215 C3214 1.362 . S
H3216 C3222 0.930 . S
H3217 C3225 0.930 . S
H3218 C3226 0.930 . S
H3219 C3227 0.930 . S
H3220 C3230 0.930 . S
H3221 C3231 0.930 . S
C3222 H3216 0.930 . S
C3222 C3223 1.355 . S
C3222 C3224 1.415 . S
C3223 C3222 1.355 . S
C3223 C3225 1.419 . S
C3224 C3222 1.415 . S
C3224 C3229 1.425 . S
C3224 C3231 1.409 . S
C3225 H3217 0.930 . S
C3225 C3223 1.419 . S
C3225 C3226 1.362 . S
C3226 H3218 0.930 . S
C3226 C3225 1.362 . S
C3226 C3229 1.409 . S
C3227 H3219 0.930 . S
C3227 C3228 1.355 . S
C3227 C3229 1.415 . S
C3228 C3227 1.355 . S
C3228 C3230 1.419 . S
C3229 C3224 1.425 . S
C3229 C3226 1.409 . S
C3229 C3227 1.415 . S
C3230 H3220 0.930 . S
C3230 C3228 1.419 . S
C3230 C3231 1.362 . S
C3231 H3221 0.930 . S
C3231 C3224 1.409 . S
C3231 C3230 1.362 . S
H3232 C3238 0.930 . S
H3233 C3241 0.930 . S
H3234 C3242 0.930 . S
H3235 C3243 0.930 . S
H3236 C3246 0.930 1_554 S
H3237 C3247 0.930 . S
C3238 H3232 0.930 . S
C3238 C3239 1.355 . S
C3238 C3240 1.415 . S
C3239 C3238 1.355 . S
C3239 C3241 1.419 . S
C3240 C3238 1.415 . S
C3240 C3245 1.425 . S
C3240 C3247 1.409 . S
C3241 H3233 0.930 . S
C3241 C3239 1.419 . S
C3241 C3242 1.362 . S
C3242 H3234 0.930 . S
C3242 C3241 1.362 . S
C3242 C3245 1.409 . S
C3243 H3235 0.930 . S
C3243 C3244 1.355 . S
C3243 C3245 1.415 . S
C3244 C3243 1.355 . S
C3244 C3246 1.419 . S
C3245 C3240 1.425 . S
C3245 C3242 1.409 . S
C3245 C3243 1.415 . S
C3246 H3236 0.930 1_556 S
C3246 C3244 1.419 . S
C3246 C3247 1.362 . S
C3247 H3237 0.930 . S
C3247 C3240 1.409 . S
C3247 C3246 1.362 . S
H3248 C3254 0.930 . S
H3249 C3257 0.930 . S
H3250 C3258 0.930 . S
H3251 C3259 0.930 . S
H3252 C3262 0.930 . S
H3253 C3263 0.930 . S
C3254 H3248 0.930 . S
C3254 C3255 1.355 . S
C3254 C3256 1.415 . S
C3255 C3254 1.355 . S
C3255 C3257 1.419 . S
C3256 C3254 1.415 . S
C3256 C3261 1.425 . S
C3256 C3263 1.409 . S
C3257 H3249 0.930 . S
C3257 C3255 1.419 . S
C3257 C3258 1.362 . S
C3258 H3250 0.930 . S
C3258 C3257 1.362 . S
C3258 C3261 1.409 . S
C3259 H3251 0.930 . S
C3259 C3260 1.355 . S
C3259 C3261 1.415 . S
C3260 C3259 1.355 . S
C3260 C3262 1.419 . S
C3261 C3256 1.425 . S
C3261 C3258 1.409 . S
C3261 C3259 1.415 . S
C3262 H3252 0.930 . S
C3262 C3260 1.419 . S
C3262 C3263 1.362 . S
C3263 H3253 0.930 . S
C3263 C3256 1.409 . S
C3263 C3262 1.362 . S
H3264 C3270 0.930 . S
H3265 C3273 0.930 . S
H3266 C3274 0.930 . S
H3267 C3275 0.930 . S
H3268 C3278 0.930 1_565 S
H3269 C3279 0.930 1_565 S
C3270 H3264 0.930 . S
C3270 C3271 1.355 . S
C3270 C3272 1.415 . S
C3271 C3270 1.355 . S
C3271 C3273 1.419 . S
C3272 C3270 1.415 . S
C3272 C3277 1.425 . S
C3272 C3279 1.409 . S
C3273 H3265 0.930 . S
C3273 C3271 1.419 . S
C3273 C3274 1.362 . S
C3274 H3266 0.930 . S
C3274 C3273 1.362 . S
C3274 C3277 1.409 . S
C3275 H3267 0.930 . S
C3275 C3276 1.355 . S
C3275 C3277 1.415 . S
C3276 C3275 1.355 . S
C3276 C3278 1.419 . S
C3277 C3272 1.425 . S
C3277 C3274 1.409 . S
C3277 C3275 1.415 . S
C3278 H3268 0.930 1_545 S
C3278 C3276 1.419 . S
C3278 C3279 1.362 . S
C3279 H3269 0.930 1_545 S
C3279 C3272 1.409 . S
C3279 C3278 1.362 . S
H3280 C3286 0.930 . S
H3281 C3289 0.930 . S
H3282 C3290 0.930 . S
H3283 C3291 0.930 . S
H3284 C3294 0.930 . S
H3285 C3295 0.930 . S
C3286 H3280 0.930 . S
C3286 C3287 1.355 . S
C3286 C3288 1.415 . S
C3287 C3286 1.355 . S
C3287 C3289 1.419 . S
C3288 C3286 1.415 . S
C3288 C3293 1.425 . S
C3288 C3295 1.409 . S
C3289 H3281 0.930 . S
C3289 C3287 1.419 . S
C3289 C3290 1.362 . S
C3290 H3282 0.930 . S
C3290 C3289 1.362 . S
C3290 C3293 1.409 . S
C3291 H3283 0.930 . S
C3291 C3292 1.355 . S
C3291 C3293 1.415 . S
C3292 C3291 1.355 . S
C3292 C3294 1.419 . S
C3293 C3288 1.425 . S
C3293 C3290 1.409 . S
C3293 C3291 1.415 . S
C3294 H3284 0.930 . S
C3294 C3292 1.419 . S
C3294 C3295 1.362 . S
C3295 H3285 0.930 . S
C3295 C3288 1.409 . S
C3295 C3294 1.362 . S
H3296 C3302 0.930 . S
H3297 C3305 0.930 1_565 S
H3298 C3306 0.929 . S
H3299 C3307 0.930 . S
H3300 C3310 0.930 . S
H3301 C3311 0.930 . S
C3302 H3296 0.930 . S
C3302 C3303 1.355 . S
C3302 C3304 1.415 . S
C3303 C3302 1.355 . S
C3303 C3305 1.419 . S
C3304 C3302 1.415 . S
C3304 C3309 1.425 . S
C3304 C3311 1.409 . S
C3305 H3297 0.930 1_545 S
C3305 C3303 1.419 . S
C3305 C3306 1.362 . S
C3306 H3298 0.929 . S
C3306 C3305 1.362 . S
C3306 C3309 1.409 . S
C3307 H3299 0.930 . S
C3307 C3308 1.355 . S
C3307 C3309 1.415 . S
C3308 C3307 1.355 . S
C3308 C3310 1.419 . S
C3309 C3304 1.425 . S
C3309 C3306 1.409 . S
C3309 C3307 1.415 . S
C3310 H3300 0.930 . S
C3310 C3308 1.419 . S
C3310 C3311 1.362 . S
C3311 H3301 0.930 . S
C3311 C3304 1.409 . S
C3311 C3310 1.362 . S
H3312 C3318 0.930 . S
H3313 C3321 0.930 . S
H3314 C3322 0.930 . S
H3315 C3323 0.930 . S
H3316 C3326 0.930 . S
H3317 C3327 0.930 . S
C3318 H3312 0.930 . S
C3318 C3319 1.355 . S
C3318 C3320 1.415 . S
C3319 C3318 1.355 . S
C3319 C3321 1.419 . S
C3320 C3318 1.415 . S
C3320 C3325 1.425 . S
C3320 C3327 1.409 . S
C3321 H3313 0.930 . S
C3321 C3319 1.419 . S
C3321 C3322 1.362 . S
C3322 H3314 0.930 . S
C3322 C3321 1.362 . S
C3322 C3325 1.409 . S
C3323 H3315 0.930 . S
C3323 C3324 1.355 . S
C3323 C3325 1.415 . S
C3324 C3323 1.355 . S
C3324 C3326 1.419 . S
C3325 C3320 1.425 . S
C3325 C3322 1.409 . S
C3325 C3323 1.415 . S
C3326 H3316 0.930 . S
C3326 C3324 1.419 . S
C3326 C3327 1.362 . S
C3327 H3317 0.930 . S
C3327 C3320 1.409 . S
C3327 C3326 1.362 . S
H3328 C3334 0.930 . S
H3329 C3337 0.930 1_565 S
H3330 C3338 0.930 1_565 S
H3331 C3339 0.930 . S
H3332 C3342 0.930 . S
H3333 C3343 0.930 . S
C3334 H3328 0.930 . S
C3334 C3335 1.355 . S
C3334 C3336 1.415 . S
C3335 C3334 1.355 . S
C3335 C3337 1.419 . S
C3336 C3334 1.415 . S
C3336 C3341 1.425 . S
C3336 C3343 1.409 . S
C3337 H3329 0.930 1_545 S
C3337 C3335 1.419 . S
C3337 C3338 1.362 . S
C3338 H3330 0.930 1_545 S
C3338 C3337 1.362 . S
C3338 C3341 1.409 . S
C3339 H3331 0.930 . S
C3339 C3340 1.355 . S
C3339 C3341 1.415 . S
C3340 C3339 1.355 . S
C3340 C3342 1.419 . S
C3341 C3336 1.425 . S
C3341 C3338 1.409 . S
C3341 C3339 1.415 . S
C3342 H3332 0.930 . S
C3342 C3340 1.419 . S
C3342 C3343 1.362 . S
C3343 H3333 0.930 . S
C3343 C3336 1.409 . S
C3343 C3342 1.362 . S
H3344 C3350 0.930 . S
H3345 C3353 0.930 . S
H3346 C3354 0.930 . S
H3347 C3355 0.930 . S
H3348 C3358 0.930 . S
H3349 C3359 0.930 . S
C3350 H3344 0.930 . S
C3350 C3351 1.355 . S
C3350 C3352 1.415 . S
C3351 C3350 1.355 . S
C3351 C3353 1.419 . S
C3352 C3350 1.415 . S
C3352 C3357 1.425 . S
C3352 C3359 1.409 . S
C3353 H3345 0.930 . S
C3353 C3351 1.419 . S
C3353 C3354 1.362 . S
C3354 H3346 0.930 . S
C3354 C3353 1.362 . S
C3354 C3357 1.409 . S
C3355 H3347 0.930 . S
C3355 C3356 1.355 . S
C3355 C3357 1.415 . S
C3356 C3355 1.355 . S
C3356 C3358 1.419 . S
C3357 C3352 1.425 . S
C3357 C3354 1.409 . S
C3357 C3355 1.415 . S
C3358 H3348 0.930 . S
C3358 C3356 1.419 . S
C3358 C3359 1.362 . S
C3359 H3349 0.930 . S
C3359 C3352 1.409 . S
C3359 C3358 1.362 . S
H3360 C3366 0.930 . S
H3361 C3369 0.930 . S
H3362 C3370 0.930 . S
H3363 C3371 0.930 . S
H3364 C3374 0.935 1_545 S
H3365 C3375 0.930 . S
C3366 H3360 0.930 . S
C3366 C3367 1.355 . S
C3366 C3368 1.415 . S
C3367 C3366 1.355 . S
C3367 C3369 1.419 1_545 S
C3368 C3366 1.415 . S
C3368 C3373 1.425 1_545 S
C3368 C3375 1.409 . S
C3369 H3361 0.930 . S
C3369 C3367 1.419 1_565 S
C3369 C3370 1.362 . S
C3370 H3362 0.930 . S
C3370 C3369 1.362 . S
C3370 C3373 1.409 . S
C3371 H3363 0.930 . S
C3371 C3372 1.355 . S
C3371 C3373 1.415 . S
C3372 C3371 1.355 . S
C3372 C3374 1.431 . S
C3373 C3368 1.425 1_565 S
C3373 C3370 1.409 . S
C3373 C3371 1.415 . S
C3374 H3364 0.935 1_565 S
C3374 C3372 1.431 . S
C3374 C3375 1.350 1_565 S
C3375 H3365 0.930 . S
C3375 C3368 1.409 . S
C3375 C3374 1.350 1_545 S
H3376 C3382 0.930 . S
H3377 C3385 0.930 . S
H3378 C3386 0.930 . S
H3379 C3387 0.930 . S
H3380 C3390 0.930 . S
H3381 C3391 0.930 . S
C3382 H3376 0.930 . S
C3382 C3383 1.355 . S
C3382 C3384 1.415 . S
C3383 C3382 1.355 . S
C3383 C3385 1.419 . S
C3384 C3382 1.415 . S
C3384 C3389 1.425 . S
C3384 C3391 1.409 . S
C3385 H3377 0.930 . S
C3385 C3383 1.419 . S
C3385 C3386 1.362 . S
C3386 H3378 0.930 . S
C3386 C3385 1.362 . S
C3386 C3389 1.409 . S
C3387 H3379 0.930 . S
C3387 C3388 1.355 . S
C3387 C3389 1.415 . S
C3388 C3387 1.355 . S
C3388 C3390 1.419 . S
C3389 C3384 1.425 . S
C3389 C3386 1.409 . S
C3389 C3387 1.415 . S
C3390 H3380 0.930 . S
C3390 C3388 1.419 . S
C3390 C3391 1.362 . S
C3391 H3381 0.930 . S
C3391 C3384 1.409 . S
C3391 C3390 1.362 . S
H3392 C3398 0.930 . S
H3393 C3401 0.930 . S
H3394 C3402 0.930 . S
H3395 C3403 0.930 1_556 S
H3396 C3406 0.930 . S
H3397 C3407 0.930 . S
C3398 H3392 0.930 . S
C3398 C3399 1.355 . S
C3398 C3400 1.415 . S
C3399 C3398 1.355 . S
C3399 C3401 1.419 . S
C3400 C3398 1.415 . S
C3400 C3405 1.425 . S
C3400 C3407 1.409 . S
C3401 H3393 0.930 . S
C3401 C3399 1.419 . S
C3401 C3402 1.362 . S
C3402 H3394 0.930 . S
C3402 C3401 1.362 . S
C3402 C3405 1.409 . S
C3403 H3395 0.930 1_554 S
C3403 C3404 1.355 . S
C3403 C3405 1.415 . S
C3404 C3403 1.355 . S
C3404 C3406 1.419 . S
C3405 C3400 1.425 . S
C3405 C3402 1.409 . S
C3405 C3403 1.415 . S
C3406 H3396 0.930 . S
C3406 C3404 1.419 . S
C3406 C3407 1.362 . S
C3407 H3397 0.930 . S
C3407 C3400 1.409 . S
C3407 C3406 1.362 . S
H3408 C3414 0.930 . S
H3409 C3417 0.930 . S
H3410 C3418 0.930 . S
H3411 C3419 0.930 . S
H3412 C3422 0.930 . S
H3413 C3423 0.930 . S
C3414 H3408 0.930 . S
C3414 C3415 1.355 . S
C3414 C3416 1.415 . S
C3415 C3414 1.355 . S
C3415 C3417 1.419 . S
C3416 C3414 1.415 . S
C3416 C3421 1.425 . S
C3416 C3423 1.409 . S
C3417 H3409 0.930 . S
C3417 C3415 1.419 . S
C3417 C3418 1.362 . S
C3418 H3410 0.930 . S
C3418 C3417 1.362 . S
C3418 C3421 1.409 . S
C3419 H3411 0.930 . S
C3419 C3420 1.355 . S
C3419 C3421 1.415 . S
C3420 C3419 1.355 . S
C3420 C3422 1.419 . S
C3421 C3416 1.425 . S
C3421 C3418 1.409 . S
C3421 C3419 1.415 . S
C3422 H3412 0.930 . S
C3422 C3420 1.419 . S
C3422 C3423 1.362 . S
C3423 H3413 0.930 . S
C3423 C3416 1.409 . S
C3423 C3422 1.362 . S
H3424 C3430 0.930 . S
H3425 C3433 0.930 . S
H3426 C3434 0.930 . S
H3427 C3435 0.930 . S
H3428 C3438 0.930 . S
H3429 C3439 0.930 . S
C3430 H3424 0.930 . S
C3430 C3431 1.355 . S
C3430 C3432 1.415 . S
C3431 C3430 1.355 . S
C3431 C3433 1.419 . S
C3432 C3430 1.415 . S
C3432 C3437 1.425 . S
C3432 C3439 1.409 . S
C3433 H3425 0.930 . S
C3433 C3431 1.419 . S
C3433 C3434 1.362 . S
C3434 H3426 0.930 . S
C3434 C3433 1.362 . S
C3434 C3437 1.409 . S
C3435 H3427 0.930 . S
C3435 C3436 1.355 . S
C3435 C3437 1.415 . S
C3436 C3435 1.355 . S
C3436 C3438 1.419 . S
C3437 C3432 1.425 . S
C3437 C3434 1.409 . S
C3437 C3435 1.415 . S
C3438 H3428 0.930 . S
C3438 C3436 1.419 . S
C3438 C3439 1.362 . S
C3439 H3429 0.930 . S
C3439 C3432 1.409 . S
C3439 C3438 1.362 . S
H3440 C3446 0.930 . S
H3441 C3449 0.930 . S
H3442 C3450 0.930 . S
H3443 C3451 0.930 . S
H3444 C3454 0.930 . S
H3445 C3455 0.930 . S
C3446 H3440 0.930 . S
C3446 C3447 1.355 . S
C3446 C3448 1.415 . S
C3447 C3446 1.355 . S
C3447 C3449 1.419 . S
C3448 C3446 1.415 . S
C3448 C3453 1.425 . S
C3448 C3455 1.409 . S
C3449 H3441 0.930 . S
C3449 C3447 1.419 . S
C3449 C3450 1.362 . S
C3450 H3442 0.930 . S
C3450 C3449 1.362 . S
C3450 C3453 1.409 . S
C3451 H3443 0.930 . S
C3451 C3452 1.355 . S
C3451 C3453 1.415 . S
C3452 C3451 1.355 . S
C3452 C3454 1.419 . S
C3453 C3448 1.425 . S
C3453 C3450 1.409 . S
C3453 C3451 1.415 . S
C3454 H3444 0.930 . S
C3454 C3452 1.419 . S
C3454 C3455 1.362 . S
C3455 H3445 0.930 . S
C3455 C3448 1.409 . S
C3455 C3454 1.362 . S
H3456 C3462 0.930 . S
H3457 C3465 0.930 . S
H3458 C3466 0.930 . S
H3459 C3467 0.930 . S
H3460 C3470 0.930 . S
H3461 C3471 0.930 . S
C3462 H3456 0.930 . S
C3462 C3463 1.355 . S
C3462 C3464 1.415 . S
C3463 C3462 1.355 . S
C3463 C3465 1.419 . S
C3464 C3462 1.415 . S
C3464 C3469 1.425 . S
C3464 C3471 1.409 . S
C3465 H3457 0.930 . S
C3465 C3463 1.419 . S
C3465 C3466 1.362 . S
C3466 H3458 0.930 . S
C3466 C3465 1.362 . S
C3466 C3469 1.409 . S
C3467 H3459 0.930 . S
C3467 C3468 1.355 . S
C3467 C3469 1.415 . S
C3468 C3467 1.355 . S
C3468 C3470 1.419 . S
C3469 C3464 1.425 . S
C3469 C3466 1.409 . S
C3469 C3467 1.415 . S
C3470 H3460 0.930 . S
C3470 C3468 1.419 . S
C3470 C3471 1.362 . S
C3471 H3461 0.930 . S
C3471 C3464 1.409 . S
C3471 C3470 1.362 . S
H3472 C3478 0.930 . S
H3473 C3481 0.930 . S
H3474 C3482 0.930 . S
H3475 C3483 0.930 . S
H3476 C3486 0.930 1_545 S
H3477 C3487 0.930 . S
C3478 H3472 0.930 . S
C3478 C3479 1.355 . S
C3478 C3480 1.415 . S
C3479 C3478 1.355 . S
C3479 C3481 1.419 . S
C3480 C3478 1.415 . S
C3480 C3485 1.425 . S
C3480 C3487 1.409 . S
C3481 H3473 0.930 . S
C3481 C3479 1.419 . S
C3481 C3482 1.362 . S
C3482 H3474 0.930 . S
C3482 C3481 1.362 . S
C3482 C3485 1.409 . S
C3483 H3475 0.930 . S
C3483 C3484 1.355 . S
C3483 C3485 1.415 . S
C3484 C3483 1.355 . S
C3484 C3486 1.419 . S
C3485 C3480 1.425 . S
C3485 C3482 1.409 . S
C3485 C3483 1.415 . S
C3486 H3476 0.930 1_565 S
C3486 C3484 1.419 . S
C3486 C3487 1.362 . S
C3487 H3477 0.930 . S
C3487 C3480 1.409 . S
C3487 C3486 1.362 . S
H3488 C3494 0.930 . S
H3489 C3497 0.930 . S
H3490 C3498 0.930 . S
H3491 C3499 0.930 . S
H3492 C3502 0.930 . S
H3493 C3503 0.930 . S
C3494 H3488 0.930 . S
C3494 C3495 1.355 . S
C3494 C3496 1.415 . S
C3495 C3494 1.355 . S
C3495 C3497 1.419 . S
C3496 C3494 1.415 . S
C3496 C3501 1.425 . S
C3496 C3503 1.409 . S
C3497 H3489 0.930 . S
C3497 C3495 1.419 . S
C3497 C3498 1.362 . S
C3498 H3490 0.930 . S
C3498 C3497 1.362 . S
C3498 C3501 1.409 . S
C3499 H3491 0.930 . S
C3499 C3500 1.355 . S
C3499 C3501 1.415 . S
C3500 C3499 1.355 . S
C3500 C3502 1.419 . S
C3501 C3496 1.425 . S
C3501 C3498 1.409 . S
C3501 C3499 1.415 . S
C3502 H3492 0.930 . S
C3502 C3500 1.419 . S
C3502 C3503 1.362 . S
C3503 H3493 0.930 . S
C3503 C3496 1.409 . S
C3503 C3502 1.362 . S
H3504 C3510 0.930 . S
H3505 C3513 0.930 . S
H3506 C3514 0.930 . S
H3507 C3515 0.930 . S
H3508 C3518 0.930 . S
H3509 C3519 0.930 . S
C3510 H3504 0.930 . S
C3510 C3511 1.355 . S
C3510 C3512 1.415 . S
C3511 C3510 1.355 . S
C3511 C3513 1.419 . S
C3512 C3510 1.415 . S
C3512 C3517 1.425 . S
C3512 C3519 1.409 . S
C3513 H3505 0.930 . S
C3513 C3511 1.419 . S
C3513 C3514 1.362 . S
C3514 H3506 0.930 . S
C3514 C3513 1.362 . S
C3514 C3517 1.409 . S
C3515 H3507 0.930 . S
C3515 C3516 1.355 . S
C3515 C3517 1.415 . S
C3516 C3515 1.355 . S
C3516 C3518 1.419 . S
C3517 C3512 1.425 . S
C3517 C3514 1.409 . S
C3517 C3515 1.415 . S
C3518 H3508 0.930 . S
C3518 C3516 1.419 . S
C3518 C3519 1.362 . S
C3519 H3509 0.930 . S
C3519 C3512 1.409 . S
C3519 C3518 1.362 . S
H3520 C3526 0.930 . S
H3521 C3529 0.930 . S
H3522 C3530 0.930 . S
H3523 C3531 0.930 . S
H3524 C3534 0.930 . S
H3525 C3535 0.930 . S
C3526 H3520 0.930 . S
C3526 C3527 1.355 . S
C3526 C3528 1.415 . S
C3527 C3526 1.355 . S
C3527 C3529 1.419 . S
C3528 C3526 1.415 . S
C3528 C3533 1.425 . S
C3528 C3535 1.409 . S
C3529 H3521 0.930 . S
C3529 C3527 1.419 . S
C3529 C3530 1.362 . S
C3530 H3522 0.930 . S
C3530 C3529 1.362 . S
C3530 C3533 1.409 . S
C3531 H3523 0.930 . S
C3531 C3532 1.355 . S
C3531 C3533 1.415 . S
C3532 C3531 1.355 . S
C3532 C3534 1.419 . S
C3533 C3528 1.425 . S
C3533 C3530 1.409 . S
C3533 C3531 1.415 . S
C3534 H3524 0.930 . S
C3534 C3532 1.419 . S
C3534 C3535 1.362 . S
C3535 H3525 0.930 . S
C3535 C3528 1.409 . S
C3535 C3534 1.362 . S
H3536 C3542 0.930 . S
H3537 C3545 0.930 . S
H3538 C3546 0.930 . S
H3539 C3547 0.930 . S
H3540 C3550 0.930 . S
H3541 C3551 0.930 . S
C3542 H3536 0.930 . S
C3542 C3543 1.355 . S
C3542 C3544 1.415 . S
C3543 C3542 1.355 . S
C3543 C3545 1.419 . S
C3544 C3542 1.415 . S
C3544 C3549 1.425 . S
C3544 C3551 1.409 . S
C3545 H3537 0.930 . S
C3545 C3543 1.419 . S
C3545 C3546 1.362 . S
C3546 H3538 0.930 . S
C3546 C3545 1.362 . S
C3546 C3549 1.409 . S
C3547 H3539 0.930 . S
C3547 C3548 1.355 . S
C3547 C3549 1.415 . S
C3548 C3547 1.355 . S
C3548 C3550 1.419 . S
C3549 C3544 1.425 . S
C3549 C3546 1.409 . S
C3549 C3547 1.415 . S
C3550 H3540 0.930 . S
C3550 C3548 1.419 . S
C3550 C3551 1.362 . S
C3551 H3541 0.930 . S
C3551 C3544 1.409 . S
C3551 C3550 1.362 . S
H3552 C3558 0.906 1_556 S
H3553 C3561 0.930 . S
H3554 C3562 0.930 . S
H3555 C3563 0.930 . S
H3556 C3566 0.930 1_556 S
H3557 C3567 0.930 . S
C3558 H3552 0.906 1_554 S
C3558 C3559 1.355 . S
C3558 C3560 1.415 . S
C3559 C3558 1.355 . S
C3559 C3561 1.419 . S
C3560 C3558 1.415 . S
C3560 C3565 1.425 . S
C3560 C3567 1.409 1_554 S
C3561 H3553 0.930 . S
C3561 C3559 1.419 . S
C3561 C3562 1.362 . S
C3562 H3554 0.930 . S
C3562 C3561 1.362 . S
C3562 C3565 1.409 . S
C3563 H3555 0.930 . S
C3563 C3564 1.355 . S
C3563 C3565 1.415 . S
C3564 C3563 1.355 . S
C3564 C3566 1.419 . S
C3565 C3560 1.425 . S
C3565 C3562 1.409 . S
C3565 C3563 1.415 . S
C3566 H3556 0.930 1_554 S
C3566 C3564 1.419 . S
C3566 C3567 1.362 1_554 S
C3567 H3557 0.930 . S
C3567 C3560 1.409 1_556 S
C3567 C3566 1.362 1_556 S
H3568 C3574 0.930 . S
H3569 C3577 0.930 . S
H3570 C3578 0.930 . S
H3571 C3579 0.930 . S
H3572 C3582 0.930 . S
H3573 C3583 0.930 . S
C3574 H3568 0.930 . S
C3574 C3575 1.355 . S
C3574 C3576 1.415 . S
C3575 C3574 1.355 . S
C3575 C3577 1.419 . S
C3576 C3574 1.415 . S
C3576 C3581 1.425 . S
C3576 C3583 1.409 . S
C3577 H3569 0.930 . S
C3577 C3575 1.419 . S
C3577 C3578 1.362 . S
C3578 H3570 0.930 . S
C3578 C3577 1.362 . S
C3578 C3581 1.409 . S
C3579 H3571 0.930 . S
C3579 C3580 1.355 . S
C3579 C3581 1.415 . S
C3580 C3579 1.355 . S
C3580 C3582 1.419 . S
C3581 C3576 1.425 . S
C3581 C3578 1.409 . S
C3581 C3579 1.415 . S
C3582 H3572 0.930 . S
C3582 C3580 1.419 . S
C3582 C3583 1.362 . S
C3583 H3573 0.930 . S
C3583 C3576 1.409 . S
C3583 C3582 1.362 . S
H3584 C3590 0.930 . S
H3585 C3593 0.930 . S
H3586 C3594 0.930 . S
H3587 C3595 0.930 . S
H3588 C3598 0.930 . S
H3589 C3599 0.930 . S
C3590 H3584 0.930 . S
C3590 C3591 1.355 . S
C3590 C3592 1.415 . S
C3591 C3590 1.355 . S
C3591 C3593 1.419 . S
C3592 C3590 1.415 . S
C3592 C3597 1.425 . S
C3592 C3599 1.409 . S
C3593 H3585 0.930 . S
C3593 C3591 1.419 . S
C3593 C3594 1.362 . S
C3594 H3586 0.930 . S
C3594 C3593 1.362 . S
C3594 C3597 1.409 . S
C3595 H3587 0.930 . S
C3595 C3596 1.355 . S
C3595 C3597 1.415 . S
C3596 C3595 1.355 . S
C3596 C3598 1.419 . S
C3597 C3592 1.425 . S
C3597 C3594 1.409 . S
C3597 C3595 1.415 . S
C3598 H3588 0.930 . S
C3598 C3596 1.419 . S
C3598 C3599 1.362 . S
C3599 H3589 0.930 . S
C3599 C3592 1.409 . S
C3599 C3598 1.362 . S
H3600 C3606 0.930 . S
H3601 C3609 0.930 . S
H3602 C3610 0.930 . S
H3603 C3611 0.930 . S
H3604 C3614 0.930 . S
H3605 C3615 0.930 . S
C3606 H3600 0.930 . S
C3606 C3607 1.355 . S
C3606 C3608 1.415 . S
C3607 C3606 1.355 . S
C3607 C3609 1.419 . S
C3608 C3606 1.415 . S
C3608 C3613 1.425 . S
C3608 C3615 1.409 . S
C3609 H3601 0.930 . S
C3609 C3607 1.419 . S
C3609 C3610 1.362 . S
C3610 H3602 0.930 . S
C3610 C3609 1.362 . S
C3610 C3613 1.409 . S
C3611 H3603 0.930 . S
C3611 C3612 1.355 . S
C3611 C3613 1.415 . S
C3612 C3611 1.355 . S
C3612 C3614 1.419 . S
C3613 C3608 1.425 . S
C3613 C3610 1.409 . S
C3613 C3611 1.415 . S
C3614 H3604 0.930 . S
C3614 C3612 1.419 . S
C3614 C3615 1.362 . S
C3615 H3605 0.930 . S
C3615 C3608 1.409 . S
C3615 C3614 1.362 . S
H3616 C3622 0.930 . S
H3617 C3625 0.930 . S
H3618 C3626 0.930 . S
H3619 C3627 0.930 1_655 S
H3620 C3630 0.930 . S
H3621 C3631 0.930 . S
C3622 H3616 0.930 . S
C3622 C3623 1.355 . S
C3622 C3624 1.415 . S
C3623 C3622 1.355 . S
C3623 C3625 1.419 1_455 S
C3624 C3622 1.415 . S
C3624 C3629 1.425 . S
C3624 C3631 1.409 . S
C3625 H3617 0.930 . S
C3625 C3623 1.419 1_655 S
C3625 C3626 1.362 . S
C3626 H3618 0.930 . S
C3626 C3625 1.362 . S
C3626 C3629 1.409 1_655 S
C3627 H3619 0.930 1_455 S
C3627 C3628 1.355 . S
C3627 C3629 1.415 . S
C3628 C3627 1.355 . S
C3628 C3630 1.419 . S
C3629 C3624 1.425 . S
C3629 C3626 1.409 1_455 S
C3629 C3627 1.415 . S
C3630 H3620 0.930 . S
C3630 C3628 1.419 . S
C3630 C3631 1.362 . S
C3631 H3621 0.930 . S
C3631 C3624 1.409 . S
C3631 C3630 1.362 . S
H3632 C3638 0.930 . S
H3633 C3641 0.930 . S
H3634 C3642 0.930 . S
H3635 C3643 0.930 . S
H3636 C3646 0.930 . S
H3637 C3647 0.930 . S
C3638 H3632 0.930 . S
C3638 C3639 1.355 . S
C3638 C3640 1.415 . S
C3639 C3638 1.355 . S
C3639 C3641 1.419 . S
C3640 C3638 1.415 . S
C3640 C3645 1.425 . S
C3640 C3647 1.409 . S
C3641 H3633 0.930 . S
C3641 C3639 1.419 . S
C3641 C3642 1.362 . S
C3642 H3634 0.930 . S
C3642 C3641 1.362 . S
C3642 C3645 1.409 . S
C3643 H3635 0.930 . S
C3643 C3644 1.355 . S
C3643 C3645 1.415 . S
C3644 C3643 1.355 . S
C3644 C3646 1.419 . S
C3645 C3640 1.425 . S
C3645 C3642 1.409 . S
C3645 C3643 1.415 . S
C3646 H3636 0.930 . S
C3646 C3644 1.419 . S
C3646 C3647 1.362 . S
C3647 H3637 0.930 . S
C3647 C3640 1.409 . S
C3647 C3646 1.362 . S
H3648 C3654 0.930 . S
H3649 C3657 0.930 . S
H3650 C3658 0.930 . S
H3651 C3659 0.930 . S
H3652 C3662 0.930 . S
H3653 C3663 0.930 . S
C3654 H3648 0.930 . S
C3654 C3655 1.355 . S
C3654 C3656 1.415 . S
C3655 C3654 1.355 . S
C3655 C3657 1.419 . S
C3656 C3654 1.415 . S
C3656 C3661 1.425 . S
C3656 C3663 1.409 . S
C3657 H3649 0.930 . S
C3657 C3655 1.419 . S
C3657 C3658 1.362 . S
C3658 H3650 0.930 . S
C3658 C3657 1.362 . S
C3658 C3661 1.409 . S
C3659 H3651 0.930 . S
C3659 C3660 1.355 . S
C3659 C3661 1.415 . S
C3660 C3659 1.355 . S
C3660 C3662 1.419 . S
C3661 C3656 1.425 . S
C3661 C3658 1.409 . S
C3661 C3659 1.415 . S
C3662 H3652 0.930 . S
C3662 C3660 1.419 . S
C3662 C3663 1.362 . S
C3663 H3653 0.930 . S
C3663 C3656 1.409 . S
C3663 C3662 1.362 . S
H3664 C3670 0.930 . S
H3665 C3673 0.930 . S
H3666 C3674 0.930 . S
H3667 C3675 0.930 . S
H3668 C3678 0.930 . S
H3669 C3679 0.930 . S
C3670 H3664 0.930 . S
C3670 C3671 1.355 . S
C3670 C3672 1.415 . S
C3671 C3670 1.355 . S
C3671 C3673 1.419 . S
C3672 C3670 1.415 . S
C3672 C3677 1.425 . S
C3672 C3679 1.409 . S
C3673 H3665 0.930 . S
C3673 C3671 1.419 . S
C3673 C3674 1.362 . S
C3674 H3666 0.930 . S
C3674 C3673 1.362 . S
C3674 C3677 1.409 . S
C3675 H3667 0.930 . S
C3675 C3676 1.355 . S
C3675 C3677 1.415 . S
C3676 C3675 1.355 . S
C3676 C3678 1.419 . S
C3677 C3672 1.425 . S
C3677 C3674 1.409 . S
C3677 C3675 1.415 . S
C3678 H3668 0.930 . S
C3678 C3676 1.419 . S
C3678 C3679 1.362 . S
C3679 H3669 0.930 . S
C3679 C3672 1.409 . S
C3679 C3678 1.362 . S
H3680 C3686 0.930 . S
H3681 C3689 0.930 . S
H3682 C3690 0.930 . S
H3683 C3691 0.930 . S
H3684 C3694 0.930 . S
H3685 C3695 0.930 . S
C3686 H3680 0.930 . S
C3686 C3687 1.355 . S
C3686 C3688 1.415 . S
C3687 C3686 1.355 . S
C3687 C3689 1.419 . S
C3688 C3686 1.415 . S
C3688 C3693 1.425 . S
C3688 C3695 1.409 . S
C3689 H3681 0.930 . S
C3689 C3687 1.419 . S
C3689 C3690 1.362 . S
C3690 H3682 0.930 . S
C3690 C3689 1.362 . S
C3690 C3693 1.409 . S
C3691 H3683 0.930 . S
C3691 C3692 1.355 . S
C3691 C3693 1.415 . S
C3692 C3691 1.355 . S
C3692 C3694 1.419 . S
C3693 C3688 1.425 . S
C3693 C3690 1.409 . S
C3693 C3691 1.415 . S
C3694 H3684 0.930 . S
C3694 C3692 1.419 . S
C3694 C3695 1.362 . S
C3695 H3685 0.930 . S
C3695 C3688 1.409 . S
C3695 C3694 1.362 . S
H3696 C3702 0.930 . S
H3697 C3705 0.930 . S
H3698 C3706 0.930 . S
H3699 C3707 0.930 . S
H3700 C3710 0.930 . S
H3701 C3711 0.930 . S
C3702 H3696 0.930 . S
C3702 C3703 1.355 . S
C3702 C3704 1.415 . S
C3703 C3702 1.355 . S
C3703 C3705 1.419 . S
C3704 C3702 1.415 . S
C3704 C3709 1.425 . S
C3704 C3711 1.409 . S
C3705 H3697 0.930 . S
C3705 C3703 1.419 . S
C3705 C3706 1.362 . S
C3706 H3698 0.930 . S
C3706 C3705 1.362 . S
C3706 C3709 1.409 . S
C3707 H3699 0.930 . S
C3707 C3708 1.355 . S
C3707 C3709 1.415 . S
C3708 C3707 1.355 . S
C3708 C3710 1.419 . S
C3709 C3704 1.425 . S
C3709 C3706 1.409 . S
C3709 C3707 1.415 . S
C3710 H3700 0.930 . S
C3710 C3708 1.419 . S
C3710 C3711 1.362 . S
C3711 H3701 0.930 . S
C3711 C3704 1.409 . S
C3711 C3710 1.362 . S
H3712 C3718 0.930 . S
H3713 C3721 0.930 . S
H3714 C3722 0.930 . S
H3715 C3723 0.930 . S
H3716 C3726 0.930 . S
H3717 C3727 0.930 . S
C3718 H3712 0.930 . S
C3718 C3719 1.355 . S
C3718 C3720 1.415 . S
C3719 C3718 1.355 . S
C3719 C3721 1.419 . S
C3720 C3718 1.415 . S
C3720 C3725 1.425 . S
C3720 C3727 1.409 . S
C3721 H3713 0.930 . S
C3721 C3719 1.419 . S
C3721 C3722 1.362 . S
C3722 H3714 0.930 . S
C3722 C3721 1.362 . S
C3722 C3725 1.409 . S
C3723 H3715 0.930 . S
C3723 C3724 1.355 . S
C3723 C3725 1.415 . S
C3724 C3723 1.355 . S
C3724 C3726 1.419 . S
C3725 C3720 1.425 . S
C3725 C3722 1.409 . S
C3725 C3723 1.415 . S
C3726 H3716 0.930 . S
C3726 C3724 1.419 . S
C3726 C3727 1.362 . S
C3727 H3717 0.930 . S
C3727 C3720 1.409 . S
C3727 C3726 1.362 . S
H3728 C3734 0.930 . S
H3729 C3737 0.930 . S
H3730 C3738 0.930 . S
H3731 C3739 0.930 . S
H3732 C3742 0.930 . S
H3733 C3743 0.930 . S
C3734 H3728 0.930 . S
C3734 C3735 1.355 . S
C3734 C3736 1.415 . S
C3735 C3734 1.355 . S
C3735 C3737 1.419 . S
C3736 C3734 1.415 . S
C3736 C3741 1.425 . S
C3736 C3743 1.409 . S
C3737 H3729 0.930 . S
C3737 C3735 1.419 . S
C3737 C3738 1.362 . S
C3738 H3730 0.930 . S
C3738 C3737 1.362 . S
C3738 C3741 1.409 . S
C3739 H3731 0.930 . S
C3739 C3740 1.355 . S
C3739 C3741 1.415 . S
C3740 C3739 1.355 . S
C3740 C3742 1.419 . S
C3741 C3736 1.425 . S
C3741 C3738 1.409 . S
C3741 C3739 1.415 . S
C3742 H3732 0.930 . S
C3742 C3740 1.419 . S
C3742 C3743 1.362 . S
C3743 H3733 0.930 . S
C3743 C3736 1.409 . S
C3743 C3742 1.362 . S
H3744 C3750 0.930 . S
H3745 C3753 0.930 . S
H3746 C3754 0.930 . S
H3747 C3755 0.930 . S
H3748 C3758 0.930 . S
H3749 C3759 0.930 . S
C3750 H3744 0.930 . S
C3750 C3751 1.355 . S
C3750 C3752 1.415 . S
C3751 C3750 1.355 . S
C3751 C3753 1.419 . S
C3752 C3750 1.415 . S
C3752 C3757 1.425 . S
C3752 C3759 1.409 . S
C3753 H3745 0.930 . S
C3753 C3751 1.419 . S
C3753 C3754 1.362 . S
C3754 H3746 0.930 . S
C3754 C3753 1.362 . S
C3754 C3757 1.409 . S
C3755 H3747 0.930 . S
C3755 C3756 1.355 . S
C3755 C3757 1.415 . S
C3756 C3755 1.355 . S
C3756 C3758 1.419 . S
C3757 C3752 1.425 . S
C3757 C3754 1.409 . S
C3757 C3755 1.415 . S
C3758 H3748 0.930 . S
C3758 C3756 1.419 . S
C3758 C3759 1.362 . S
C3759 H3749 0.930 . S
C3759 C3752 1.409 . S
C3759 C3758 1.362 . S
H3760 C3766 0.930 . S
H3761 C3769 0.930 . S
H3762 C3770 0.930 . S
H3763 C3771 0.930 . S
H3764 C3774 0.930 . S
H3765 C3775 0.930 . S
C3766 H3760 0.930 . S
C3766 C3767 1.355 . S
C3766 C3768 1.415 . S
C3767 C3766 1.355 . S
C3767 C3769 1.419 . S
C3768 C3766 1.415 . S
C3768 C3773 1.425 . S
C3768 C3775 1.409 . S
C3769 H3761 0.930 . S
C3769 C3767 1.419 . S
C3769 C3770 1.362 . S
C3770 H3762 0.930 . S
C3770 C3769 1.362 . S
C3770 C3773 1.409 . S
C3771 H3763 0.930 . S
C3771 C3772 1.355 . S
C3771 C3773 1.415 . S
C3772 C3771 1.355 . S
C3772 C3774 1.419 . S
C3773 C3768 1.425 . S
C3773 C3770 1.409 . S
C3773 C3771 1.415 . S
C3774 H3764 0.930 . S
C3774 C3772 1.419 . S
C3774 C3775 1.362 . S
C3775 H3765 0.930 . S
C3775 C3768 1.409 . S
C3775 C3774 1.362 . S
H3776 C3782 0.930 . S
H3777 C3785 0.930 . S
H3778 C3786 0.930 . S
H3779 C3787 0.930 . S
H3780 C3790 0.930 . S
H3781 C3791 0.930 . S
C3782 H3776 0.930 . S
C3782 C3783 1.355 . S
C3782 C3784 1.415 . S
C3783 C3782 1.355 . S
C3783 C3785 1.419 . S
C3784 C3782 1.415 . S
C3784 C3789 1.425 . S
C3784 C3791 1.409 . S
C3785 H3777 0.930 . S
C3785 C3783 1.419 . S
C3785 C3786 1.362 . S
C3786 H3778 0.930 . S
C3786 C3785 1.362 . S
C3786 C3789 1.409 . S
C3787 H3779 0.930 . S
C3787 C3788 1.355 . S
C3787 C3789 1.415 . S
C3788 C3787 1.355 . S
C3788 C3790 1.419 . S
C3789 C3784 1.425 . S
C3789 C3786 1.409 . S
C3789 C3787 1.415 . S
C3790 H3780 0.930 . S
C3790 C3788 1.419 . S
C3790 C3791 1.362 . S
C3791 H3781 0.930 . S
C3791 C3784 1.409 . S
C3791 C3790 1.362 . S
H3792 C3798 0.930 . S
H3793 C3801 0.930 . S
H3794 C3802 0.930 . S
H3795 C3803 0.930 . S
H3796 C3806 0.930 . S
H3797 C3807 0.930 . S
C3798 H3792 0.930 . S
C3798 C3799 1.355 . S
C3798 C3800 1.415 . S
C3799 C3798 1.355 . S
C3799 C3801 1.419 . S
C3800 C3798 1.415 . S
C3800 C3805 1.425 . S
C3800 C3807 1.409 . S
C3801 H3793 0.930 . S
C3801 C3799 1.419 . S
C3801 C3802 1.362 . S
C3802 H3794 0.930 . S
C3802 C3801 1.362 . S
C3802 C3805 1.409 . S
C3803 H3795 0.930 . S
C3803 C3804 1.355 . S
C3803 C3805 1.415 . S
C3804 C3803 1.355 . S
C3804 C3806 1.419 . S
C3805 C3800 1.425 . S
C3805 C3802 1.409 . S
C3805 C3803 1.415 . S
C3806 H3796 0.930 . S
C3806 C3804 1.419 . S
C3806 C3807 1.362 . S
C3807 H3797 0.930 . S
C3807 C3800 1.409 . S
C3807 C3806 1.362 . S
H3808 C3814 0.930 . S
H3809 C3817 0.930 . S
H3810 C3818 0.930 . S
H3811 C3819 0.930 . S
H3812 C3822 0.930 . S
H3813 C3823 0.930 . S
C3814 H3808 0.930 . S
C3814 C3815 1.355 . S
C3814 C3816 1.415 . S
C3815 C3814 1.355 . S
C3815 C3817 1.419 . S
C3816 C3814 1.415 . S
C3816 C3821 1.425 . S
C3816 C3823 1.409 . S
C3817 H3809 0.930 . S
C3817 C3815 1.419 . S
C3817 C3818 1.362 . S
C3818 H3810 0.930 . S
C3818 C3817 1.362 . S
C3818 C3821 1.409 . S
C3819 H3811 0.930 . S
C3819 C3820 1.355 . S
C3819 C3821 1.415 . S
C3820 C3819 1.355 . S
C3820 C3822 1.419 . S
C3821 C3816 1.425 . S
C3821 C3818 1.409 . S
C3821 C3819 1.415 . S
C3822 H3812 0.930 . S
C3822 C3820 1.419 . S
C3822 C3823 1.362 . S
C3823 H3813 0.930 . S
C3823 C3816 1.409 . S
C3823 C3822 1.362 . S
H3824 C3830 0.930 . S
H3825 C3833 0.930 . S
H3826 C3834 0.930 . S
H3827 C3835 0.958 . S
H3828 C3838 0.930 . S
H3829 C3839 0.930 . S
C3830 H3824 0.930 . S
C3830 C3831 1.355 1_545 S
C3830 C3832 1.415 . S
C3831 C3830 1.355 1_565 S
C3831 C3833 1.419 . S
C3832 C3830 1.415 . S
C3832 C3837 1.425 1_545 S
C3832 C3839 1.409 . S
C3833 H3825 0.930 . S
C3833 C3831 1.419 . S
C3833 C3834 1.362 . S
C3834 H3826 0.930 . S
C3834 C3833 1.362 . S
C3834 C3837 1.409 . S
C3835 H3827 0.958 . S
C3835 C3836 1.328 1_565 S
C3835 C3837 1.414 . S
C3836 C3835 1.328 1_545 S
C3836 C3838 1.419 . S
C3837 C3832 1.425 1_565 S
C3837 C3834 1.409 . S
C3837 C3835 1.414 . S
C3838 H3828 0.930 . S
C3838 C3836 1.419 . S
C3838 C3839 1.362 . S
C3839 H3829 0.930 . S
C3839 C3832 1.409 . S
C3839 C3838 1.362 . S
H3840 C3846 0.930 . S
H3841 C3849 0.930 . S
H3842 C3850 0.930 . S
H3843 C3851 0.930 . S
H3844 C3854 0.930 . S
H3845 C3855 0.930 . S
C3846 H3840 0.930 . S
C3846 C3847 1.355 . S
C3846 C3848 1.415 . S
C3847 C3846 1.355 . S
C3847 C3849 1.419 . S
C3848 C3846 1.415 . S
C3848 C3853 1.425 . S
C3848 C3855 1.409 . S
C3849 H3841 0.930 . S
C3849 C3847 1.419 . S
C3849 C3850 1.362 . S
C3850 H3842 0.930 . S
C3850 C3849 1.362 . S
C3850 C3853 1.409 . S
C3851 H3843 0.930 . S
C3851 C3852 1.355 . S
C3851 C3853 1.415 . S
C3852 C3851 1.355 . S
C3852 C3854 1.419 . S
C3853 C3848 1.425 . S
C3853 C3850 1.409 . S
C3853 C3851 1.415 . S
C3854 H3844 0.930 . S
C3854 C3852 1.419 . S
C3854 C3855 1.362 . S
C3855 H3845 0.930 . S
C3855 C3848 1.409 . S
C3855 C3854 1.362 . S
H3856 C3862 0.930 . S
H3857 C3865 0.930 . S
H3858 C3866 0.930 . S
H3859 C3867 0.930 . S
H3860 C3870 0.930 . S
H3861 C3871 0.930 . S
C3862 H3856 0.930 . S
C3862 C3863 1.355 . S
C3862 C3864 1.415 . S
C3863 C3862 1.355 . S
C3863 C3865 1.419 . S
C3864 C3862 1.415 . S
C3864 C3869 1.425 . S
C3864 C3871 1.409 . S
C3865 H3857 0.930 . S
C3865 C3863 1.419 . S
C3865 C3866 1.362 . S
C3866 H3858 0.930 . S
C3866 C3865 1.362 . S
C3866 C3869 1.409 . S
C3867 H3859 0.930 . S
C3867 C3868 1.355 . S
C3867 C3869 1.415 . S
C3868 C3867 1.355 . S
C3868 C3870 1.419 . S
C3869 C3864 1.425 . S
C3869 C3866 1.409 . S
C3869 C3867 1.415 . S
C3870 H3860 0.930 . S
C3870 C3868 1.419 . S
C3870 C3871 1.362 . S
C3871 H3861 0.930 . S
C3871 C3864 1.409 . S
C3871 C3870 1.362 . S
H3872 C3878 0.930 . S
H3873 C3881 0.930 . S
H3874 C3882 0.930 . S
H3875 C3883 0.930 . S
H3876 C3886 0.930 . S
H3877 C3887 0.930 . S
C3878 H3872 0.930 . S
C3878 C3879 1.355 . S
C3878 C3880 1.415 . S
C3879 C3878 1.355 . S
C3879 C3881 1.419 . S
C3880 C3878 1.415 . S
C3880 C3885 1.425 . S
C3880 C3887 1.409 . S
C3881 H3873 0.930 . S
C3881 C3879 1.419 . S
C3881 C3882 1.362 . S
C3882 H3874 0.930 . S
C3882 C3881 1.362 . S
C3882 C3885 1.409 . S
C3883 H3875 0.930 . S
C3883 C3884 1.355 . S
C3883 C3885 1.415 . S
C3884 C3883 1.355 . S
C3884 C3886 1.419 . S
C3885 C3880 1.425 . S
C3885 C3882 1.409 . S
C3885 C3883 1.415 . S
C3886 H3876 0.930 . S
C3886 C3884 1.419 . S
C3886 C3887 1.362 . S
C3887 H3877 0.930 . S
C3887 C3880 1.409 . S
C3887 C3886 1.362 . S
H3888 C3894 0.930 . S
H3889 C3897 0.930 . S
H3890 C3898 0.930 . S
H3891 C3899 0.930 . S
H3892 C3902 0.930 . S
H3893 C3903 0.930 . S
C3894 H3888 0.930 . S
C3894 C3895 1.355 . S
C3894 C3896 1.415 . S
C3895 C3894 1.355 . S
C3895 C3897 1.419 . S
C3896 C3894 1.415 . S
C3896 C3901 1.425 . S
C3896 C3903 1.409 . S
C3897 H3889 0.930 . S
C3897 C3895 1.419 . S
C3897 C3898 1.362 . S
C3898 H3890 0.930 . S
C3898 C3897 1.362 . S
C3898 C3901 1.409 . S
C3899 H3891 0.930 . S
C3899 C3900 1.355 . S
C3899 C3901 1.415 . S
C3900 C3899 1.355 . S
C3900 C3902 1.419 . S
C3901 C3896 1.425 . S
C3901 C3898 1.409 . S
C3901 C3899 1.415 . S
C3902 H3892 0.930 . S
C3902 C3900 1.419 . S
C3902 C3903 1.362 . S
C3903 H3893 0.930 . S
C3903 C3896 1.409 . S
C3903 C3902 1.362 . S
H3904 C3910 0.930 . S
H3905 C3913 0.930 . S
H3906 C3914 0.930 . S
H3907 C3915 0.930 . S
H3908 C3918 0.930 . S
H3909 C3919 0.930 . S
C3910 H3904 0.930 . S
C3910 C3911 1.355 . S
C3910 C3912 1.415 . S
C3911 C3910 1.355 . S
C3911 C3913 1.419 . S
C3912 C3910 1.415 . S
C3912 C3917 1.425 . S
C3912 C3919 1.409 . S
C3913 H3905 0.930 . S
C3913 C3911 1.419 . S
C3913 C3914 1.362 . S
C3914 H3906 0.930 . S
C3914 C3913 1.362 . S
C3914 C3917 1.409 . S
C3915 H3907 0.930 . S
C3915 C3916 1.355 . S
C3915 C3917 1.415 . S
C3916 C3915 1.355 . S
C3916 C3918 1.419 . S
C3917 C3912 1.425 . S
C3917 C3914 1.409 . S
C3917 C3915 1.415 . S
C3918 H3908 0.930 . S
C3918 C3916 1.419 . S
C3918 C3919 1.362 . S
C3919 H3909 0.930 . S
C3919 C3912 1.409 . S
C3919 C3918 1.362 . S
H3920 C3926 0.930 . S
H3921 C3929 0.930 . S
H3922 C3930 0.930 . S
H3923 C3931 0.930 . S
H3924 C3934 0.930 . S
H3925 C3935 0.930 . S
C3926 H3920 0.930 . S
C3926 C3927 1.355 . S
C3926 C3928 1.415 . S
C3927 C3926 1.355 . S
C3927 C3929 1.419 . S
C3928 C3926 1.415 . S
C3928 C3933 1.425 . S
C3928 C3935 1.409 . S
C3929 H3921 0.930 . S
C3929 C3927 1.419 . S
C3929 C3930 1.362 . S
C3930 H3922 0.930 . S
C3930 C3929 1.362 . S
C3930 C3933 1.409 . S
C3931 H3923 0.930 . S
C3931 C3932 1.355 . S
C3931 C3933 1.415 . S
C3932 C3931 1.355 . S
C3932 C3934 1.419 . S
C3933 C3928 1.425 . S
C3933 C3930 1.409 . S
C3933 C3931 1.415 . S
C3934 H3924 0.930 . S
C3934 C3932 1.419 . S
C3934 C3935 1.362 . S
C3935 H3925 0.930 . S
C3935 C3928 1.409 . S
C3935 C3934 1.362 . S
H3936 C3942 0.930 . S
H3937 C3945 0.930 . S
H3938 C3946 0.930 . S
H3939 C3947 0.930 . S
H3940 C3950 0.928 1_655 S
H3941 C3951 0.930 1_655 S
C3942 H3936 0.930 . S
C3942 C3943 1.355 . S
C3942 C3944 1.415 . S
C3943 C3942 1.355 . S
C3943 C3945 1.419 . S
C3944 C3942 1.415 . S
C3944 C3949 1.425 . S
C3944 C3951 1.409 . S
C3945 H3937 0.930 . S
C3945 C3943 1.419 . S
C3945 C3946 1.362 . S
C3946 H3938 0.930 . S
C3946 C3945 1.362 . S
C3946 C3949 1.409 . S
C3947 H3939 0.930 . S
C3947 C3948 1.355 . S
C3947 C3949 1.415 . S
C3948 C3947 1.355 . S
C3948 C3950 1.419 . S
C3949 C3944 1.425 . S
C3949 C3946 1.409 . S
C3949 C3947 1.415 . S
C3950 H3940 0.928 1_455 S
C3950 C3948 1.419 . S
C3950 C3951 1.362 . S
C3951 H3941 0.930 1_455 S
C3951 C3944 1.409 . S
C3951 C3950 1.362 . S
H3952 C3958 0.930 . S
H3953 C3961 0.930 . S
H3954 C3962 0.930 . S
H3955 C3963 0.930 . S
H3956 C3966 0.930 . S
H3957 C3967 0.930 . S
C3958 H3952 0.930 . S
C3958 C3959 1.355 . S
C3958 C3960 1.415 . S
C3959 C3958 1.355 . S
C3959 C3961 1.419 . S
C3960 C3958 1.415 . S
C3960 C3965 1.425 . S
C3960 C3967 1.409 . S
C3961 H3953 0.930 . S
C3961 C3959 1.419 . S
C3961 C3962 1.362 . S
C3962 H3954 0.930 . S
C3962 C3961 1.362 . S
C3962 C3965 1.409 . S
C3963 H3955 0.930 . S
C3963 C3964 1.355 . S
C3963 C3965 1.415 . S
C3964 C3963 1.355 . S
C3964 C3966 1.419 . S
C3965 C3960 1.425 . S
C3965 C3962 1.409 . S
C3965 C3963 1.415 . S
C3966 H3956 0.930 . S
C3966 C3964 1.419 . S
C3966 C3967 1.362 . S
C3967 H3957 0.930 . S
C3967 C3960 1.409 . S
C3967 C3966 1.362 . S
H3968 C3974 0.930 . S
H3969 C3977 0.930 . S
H3970 C3978 0.930 . S
H3971 C3979 0.930 . S
H3972 C3982 0.930 . S
H3973 C3983 0.930 . S
C3974 H3968 0.930 . S
C3974 C3975 1.355 . S
C3974 C3976 1.415 . S
C3975 C3974 1.355 . S
C3975 C3977 1.419 . S
C3976 C3974 1.415 . S
C3976 C3981 1.425 . S
C3976 C3983 1.409 . S
C3977 H3969 0.930 . S
C3977 C3975 1.419 . S
C3977 C3978 1.362 . S
C3978 H3970 0.930 . S
C3978 C3977 1.362 . S
C3978 C3981 1.409 . S
C3979 H3971 0.930 . S
C3979 C3980 1.355 . S
C3979 C3981 1.415 . S
C3980 C3979 1.355 . S
C3980 C3982 1.419 . S
C3981 C3976 1.425 . S
C3981 C3978 1.409 . S
C3981 C3979 1.415 . S
C3982 H3972 0.930 . S
C3982 C3980 1.419 . S
C3982 C3983 1.362 . S
C3983 H3973 0.930 . S
C3983 C3976 1.409 . S
C3983 C3982 1.362 . S
H3984 C3990 0.930 . S
H3985 C3993 0.930 . S
H3986 C3994 0.930 . S
H3987 C3995 0.930 . S
H3988 C3998 0.930 . S
H3989 C3999 0.930 . S
C3990 H3984 0.930 . S
C3990 C3991 1.355 . S
C3990 C3992 1.415 . S
C3991 C3990 1.355 . S
C3991 C3993 1.419 . S
C3992 C3990 1.415 . S
C3992 C3997 1.425 . S
C3992 C3999 1.409 . S
C3993 H3985 0.930 . S
C3993 C3991 1.419 . S
C3993 C3994 1.362 . S
C3994 H3986 0.930 . S
C3994 C3993 1.362 . S
C3994 C3997 1.409 . S
C3995 H3987 0.930 . S
C3995 C3996 1.355 . S
C3995 C3997 1.415 . S
C3996 C3995 1.355 . S
C3996 C3998 1.419 . S
C3997 C3992 1.425 . S
C3997 C3994 1.409 . S
C3997 C3995 1.415 . S
C3998 H3988 0.930 . S
C3998 C3996 1.419 . S
C3998 C3999 1.362 . S
C3999 H3989 0.930 . S
C3999 C3992 1.409 . S
C3999 C3998 1.362 . S
H4000 C4006 0.930 . S
H4001 C4009 0.930 . S
H4002 C4010 0.930 . S
H4003 C4011 0.930 . S
H4004 C4014 0.930 . S
H4005 C4015 0.930 . S
C4006 H4000 0.930 . S
C4006 C4007 1.355 . S
C4006 C4008 1.415 . S
C4007 C4006 1.355 . S
C4007 C4009 1.419 . S
C4008 C4006 1.415 . S
C4008 C4013 1.425 . S
C4008 C4015 1.409 . S
C4009 H4001 0.930 . S
C4009 C4007 1.419 . S
C4009 C4010 1.362 . S
C4010 H4002 0.930 . S
C4010 C4009 1.362 . S
C4010 C4013 1.409 . S
C4011 H4003 0.930 . S
C4011 C4012 1.355 . S
C4011 C4013 1.415 . S
C4012 C4011 1.355 . S
C4012 C4014 1.419 . S
C4013 C4008 1.425 . S
C4013 C4010 1.409 . S
C4013 C4011 1.415 . S
C4014 H4004 0.930 . S
C4014 C4012 1.419 . S
C4014 C4015 1.362 . S
C4015 H4005 0.930 . S
C4015 C4008 1.409 . S
C4015 C4014 1.362 . S
H4016 C4022 0.930 . S
H4017 C4025 0.930 . S
H4018 C4026 0.930 . S
H4019 C4027 0.930 . S
H4020 C4030 0.930 . S
H4021 C4031 0.930 . S
C4022 H4016 0.930 . S
C4022 C4023 1.355 . S
C4022 C4024 1.415 . S
C4023 C4022 1.355 . S
C4023 C4025 1.419 . S
C4024 C4022 1.415 . S
C4024 C4029 1.425 . S
C4024 C4031 1.409 . S
C4025 H4017 0.930 . S
C4025 C4023 1.419 . S
C4025 C4026 1.362 . S
C4026 H4018 0.930 . S
C4026 C4025 1.362 . S
C4026 C4029 1.409 . S
C4027 H4019 0.930 . S
C4027 C4028 1.355 . S
C4027 C4029 1.415 . S
C4028 C4027 1.355 . S
C4028 C4030 1.419 . S
C4029 C4024 1.425 . S
C4029 C4026 1.409 . S
C4029 C4027 1.415 . S
C4030 H4020 0.930 . S
C4030 C4028 1.419 . S
C4030 C4031 1.362 . S
C4031 H4021 0.930 . S
C4031 C4024 1.409 . S
C4031 C4030 1.362 . S
H4032 C4038 0.930 . S
H4033 C4041 0.930 . S
H4034 C4042 0.930 . S
H4035 C4043 0.930 . S
H4036 C4046 0.930 . S
H4037 C4047 0.930 . S
C4038 H4032 0.930 . S
C4038 C4039 1.355 . S
C4038 C4040 1.415 . S
C4039 C4038 1.355 . S
C4039 C4041 1.419 . S
C4040 C4038 1.415 . S
C4040 C4045 1.425 . S
C4040 C4047 1.409 . S
C4041 H4033 0.930 . S
C4041 C4039 1.419 . S
C4041 C4042 1.362 . S
C4042 H4034 0.930 . S
C4042 C4041 1.362 . S
C4042 C4045 1.409 . S
C4043 H4035 0.930 . S
C4043 C4044 1.355 . S
C4043 C4045 1.415 . S
C4044 C4043 1.355 . S
C4044 C4046 1.419 . S
C4045 C4040 1.425 . S
C4045 C4042 1.409 . S
C4045 C4043 1.415 . S
C4046 H4036 0.930 . S
C4046 C4044 1.419 . S
C4046 C4047 1.362 . S
C4047 H4037 0.930 . S
C4047 C4040 1.409 . S
C4047 C4046 1.362 . S
H4048 C4054 0.930 . S
H4049 C4057 0.930 . S
H4050 C4058 0.930 . S
H4051 C4059 0.930 . S
H4052 C4062 0.930 . S
H4053 C4063 0.930 . S
C4054 H4048 0.930 . S
C4054 C4055 1.355 . S
C4054 C4056 1.415 . S
C4055 C4054 1.355 . S
C4055 C4057 1.419 . S
C4056 C4054 1.415 . S
C4056 C4061 1.425 . S
C4056 C4063 1.409 . S
C4057 H4049 0.930 . S
C4057 C4055 1.419 . S
C4057 C4058 1.362 . S
C4058 H4050 0.930 . S
C4058 C4057 1.362 . S
C4058 C4061 1.409 . S
C4059 H4051 0.930 . S
C4059 C4060 1.355 . S
C4059 C4061 1.415 . S
C4060 C4059 1.355 . S
C4060 C4062 1.419 . S
C4061 C4056 1.425 . S
C4061 C4058 1.409 . S
C4061 C4059 1.415 . S
C4062 H4052 0.930 . S
C4062 C4060 1.419 . S
C4062 C4063 1.362 . S
C4063 H4053 0.930 . S
C4063 C4056 1.409 . S
C4063 C4062 1.362 . S
H4064 C4070 0.930 . S
H4065 C4073 0.930 . S
H4066 C4074 0.930 . S
H4067 C4075 0.930 1_455 S
H4068 C4078 0.930 . S
H4069 C4079 0.930 . S
C4070 H4064 0.930 . S
C4070 C4071 1.355 . S
C4070 C4072 1.415 . S
C4071 C4070 1.355 . S
C4071 C4073 1.419 . S
C4072 C4070 1.415 . S
C4072 C4077 1.425 . S
C4072 C4079 1.409 . S
C4073 H4065 0.930 . S
C4073 C4071 1.419 . S
C4073 C4074 1.362 . S
C4074 H4066 0.930 . S
C4074 C4073 1.362 . S
C4074 C4077 1.409 . S
C4075 H4067 0.930 1_655 S
C4075 C4076 1.360 1_655 S
C4075 C4077 1.415 . S
C4076 C4075 1.360 1_455 S
C4076 C4078 1.385 1_455 S
C4077 C4072 1.425 . S
C4077 C4074 1.409 . S
C4077 C4075 1.415 . S
C4078 H4068 0.930 . S
C4078 C4076 1.385 1_655 S
C4078 C4079 1.362 . S
C4079 H4069 0.930 . S
C4079 C4072 1.409 . S
C4079 C4078 1.362 . S
H4080 C4086 0.930 . S
H4081 C4089 0.930 . S
H4082 C4090 0.930 . S
H4083 C4091 0.930 . S
H4084 C4094 0.930 . S
H4085 C4095 0.930 . S
C4086 H4080 0.930 . S
C4086 C4087 1.355 . S
C4086 C4088 1.415 . S
C4087 C4086 1.355 . S
C4087 C4089 1.419 . S
C4088 C4086 1.415 . S
C4088 C4093 1.425 . S
C4088 C4095 1.409 . S
C4089 H4081 0.930 . S
C4089 C4087 1.419 . S
C4089 C4090 1.362 . S
C4090 H4082 0.930 . S
C4090 C4089 1.362 . S
C4090 C4093 1.409 . S
C4091 H4083 0.930 . S
C4091 C4092 1.355 . S
C4091 C4093 1.415 . S
C4092 C4091 1.355 . S
C4092 C4094 1.419 . S
C4093 C4088 1.425 . S
C4093 C4090 1.409 . S
C4093 C4091 1.415 . S
C4094 H4084 0.930 . S
C4094 C4092 1.419 . S
C4094 C4095 1.362 . S
C4095 H4085 0.930 . S
C4095 C4088 1.409 . S
C4095 C4094 1.362 . S
H4096 C4102 0.930 . S
H4097 C4105 0.930 . S
H4098 C4106 0.930 . S
H4099 C4107 0.930 . S
H4100 C4110 0.930 . S
H4101 C4111 0.930 . S
C4102 H4096 0.930 . S
C4102 C4103 1.355 . S
C4102 C4104 1.415 . S
C4103 C4102 1.355 . S
C4103 C4105 1.419 . S
C4104 C4102 1.415 . S
C4104 C4109 1.425 . S
C4104 C4111 1.409 . S
C4105 H4097 0.930 . S
C4105 C4103 1.419 . S
C4105 C4106 1.362 . S
C4106 H4098 0.930 . S
C4106 C4105 1.362 . S
C4106 C4109 1.409 . S
C4107 H4099 0.930 . S
C4107 C4108 1.355 . S
C4107 C4109 1.415 . S
C4108 C4107 1.355 . S
C4108 C4110 1.419 . S
C4109 C4104 1.425 . S
C4109 C4106 1.409 . S
C4109 C4107 1.415 . S
C4110 H4100 0.930 . S
C4110 C4108 1.419 . S
C4110 C4111 1.362 . S
C4111 H4101 0.930 . S
C4111 C4104 1.409 . S
C4111 C4110 1.362 . S
H4112 C4118 0.930 . S
H4113 C4121 0.930 . S
H4114 C4122 0.930 . S
H4115 C4123 0.930 . S
H4116 C4126 0.930 . S
H4117 C4127 0.930 . S
C4118 H4112 0.930 . S
C4118 C4119 1.355 . S
C4118 C4120 1.415 . S
C4119 C4118 1.355 . S
C4119 C4121 1.419 . S
C4120 C4118 1.415 . S
C4120 C4125 1.425 . S
C4120 C4127 1.409 . S
C4121 H4113 0.930 . S
C4121 C4119 1.419 . S
C4121 C4122 1.362 . S
C4122 H4114 0.930 . S
C4122 C4121 1.362 . S
C4122 C4125 1.409 . S
C4123 H4115 0.930 . S
C4123 C4124 1.355 . S
C4123 C4125 1.415 . S
C4124 C4123 1.355 . S
C4124 C4126 1.419 . S
C4125 C4120 1.425 . S
C4125 C4122 1.409 . S
C4125 C4123 1.415 . S
C4126 H4116 0.930 . S
C4126 C4124 1.419 . S
C4126 C4127 1.362 . S
C4127 H4117 0.930 . S
C4127 C4120 1.409 . S
C4127 C4126 1.362 . S
H4128 C4134 0.930 . S
H4129 C4137 0.930 . S
H4130 C4138 0.930 . S
H4131 C4139 0.930 . S
H4132 C4142 0.930 . S
H4133 C4143 0.930 . S
C4134 H4128 0.930 . S
C4134 C4135 1.355 . S
C4134 C4136 1.415 . S
C4135 C4134 1.355 . S
C4135 C4137 1.419 . S
C4136 C4134 1.415 . S
C4136 C4141 1.425 . S
C4136 C4143 1.409 . S
C4137 H4129 0.930 . S
C4137 C4135 1.419 . S
C4137 C4138 1.362 . S
C4138 H4130 0.930 . S
C4138 C4137 1.362 . S
C4138 C4141 1.409 . S
C4139 H4131 0.930 . S
C4139 C4140 1.355 . S
C4139 C4141 1.415 . S
C4140 C4139 1.355 . S
C4140 C4142 1.419 . S
C4141 C4136 1.425 . S
C4141 C4138 1.409 . S
C4141 C4139 1.415 . S
C4142 H4132 0.930 . S
C4142 C4140 1.419 . S
C4142 C4143 1.362 . S
C4143 H4133 0.930 . S
C4143 C4136 1.409 . S
C4143 C4142 1.362 . S
H4144 C4150 0.930 . S
H4145 C4153 0.930 . S
H4146 C4154 0.930 . S
H4147 C4155 0.930 . S
H4148 C4158 0.930 . S
H4149 C4159 0.930 . S
C4150 H4144 0.930 . S
C4150 C4151 1.355 . S
C4150 C4152 1.415 . S
C4151 C4150 1.355 . S
C4151 C4153 1.419 . S
C4152 C4150 1.415 . S
C4152 C4157 1.425 . S
C4152 C4159 1.409 . S
C4153 H4145 0.930 . S
C4153 C4151 1.419 . S
C4153 C4154 1.362 . S
C4154 H4146 0.930 . S
C4154 C4153 1.362 . S
C4154 C4157 1.409 . S
C4155 H4147 0.930 . S
C4155 C4156 1.355 . S
C4155 C4157 1.415 . S
C4156 C4155 1.355 . S
C4156 C4158 1.419 . S
C4157 C4152 1.425 . S
C4157 C4154 1.409 . S
C4157 C4155 1.415 . S
C4158 H4148 0.930 . S
C4158 C4156 1.419 . S
C4158 C4159 1.362 . S
C4159 H4149 0.930 . S
C4159 C4152 1.409 . S
C4159 C4158 1.362 . S
H4160 C4166 0.930 . S
H4161 C4169 0.930 . S
H4162 C4170 0.930 . S
H4163 C4171 0.930 . S
H4164 C4174 0.930 . S
H4165 C4175 0.930 . S
C4166 H4160 0.930 . S
C4166 C4167 1.355 . S
C4166 C4168 1.415 . S
C4167 C4166 1.355 . S
C4167 C4169 1.419 . S
C4168 C4166 1.415 . S
C4168 C4173 1.425 . S
C4168 C4175 1.409 . S
C4169 H4161 0.930 . S
C4169 C4167 1.419 . S
C4169 C4170 1.362 . S
C4170 H4162 0.930 . S
C4170 C4169 1.362 . S
C4170 C4173 1.409 . S
C4171 H4163 0.930 . S
C4171 C4172 1.355 . S
C4171 C4173 1.415 . S
C4172 C4171 1.355 . S
C4172 C4174 1.419 . S
C4173 C4168 1.425 . S
C4173 C4170 1.409 . S
C4173 C4171 1.415 . S
C4174 H4164 0.930 . S
C4174 C4172 1.419 . S
C4174 C4175 1.362 . S
C4175 H4165 0.930 . S
C4175 C4168 1.409 . S
C4175 C4174 1.362 . S
H4176 C4182 0.930 . S
H4177 C4185 0.930 . S
H4178 C4186 0.930 . S
H4179 C4187 0.930 . S
H4180 C4190 0.930 . S
H4181 C4191 0.948 . S
C4182 H4176 0.930 . S
C4182 C4183 1.355 . S
C4182 C4184 1.415 . S
C4183 C4182 1.355 . S
C4183 C4185 1.419 . S
C4184 C4182 1.415 . S
C4184 C4189 1.425 . S
C4184 C4191 1.385 1_565 S
C4185 H4177 0.930 . S
C4185 C4183 1.419 . S
C4185 C4186 1.362 . S
C4186 H4178 0.930 . S
C4186 C4185 1.362 . S
C4186 C4189 1.409 . S
C4187 H4179 0.930 . S
C4187 C4188 1.355 1_565 S
C4187 C4189 1.415 . S
C4188 C4187 1.355 1_545 S
C4188 C4190 1.419 . S
C4189 C4184 1.425 . S
C4189 C4186 1.409 . S
C4189 C4187 1.415 . S
C4190 H4180 0.930 . S
C4190 C4188 1.419 . S
C4190 C4191 1.370 . S
C4191 H4181 0.948 . S
C4191 C4184 1.385 1_545 S
C4191 C4190 1.370 . S
H4192 C4198 0.930 . S
H4193 C4201 0.930 . S
H4194 C4202 0.930 . S
H4195 C4203 0.930 . S
H4196 C4206 0.930 . S
H4197 C4207 0.930 . S
C4198 H4192 0.930 . S
C4198 C4199 1.355 . S
C4198 C4200 1.415 . S
C4199 C4198 1.355 . S
C4199 C4201 1.419 . S
C4200 C4198 1.415 . S
C4200 C4205 1.425 . S
C4200 C4207 1.409 . S
C4201 H4193 0.930 . S
C4201 C4199 1.419 . S
C4201 C4202 1.362 . S
C4202 H4194 0.930 . S
C4202 C4201 1.362 . S
C4202 C4205 1.409 . S
C4203 H4195 0.930 . S
C4203 C4204 1.355 . S
C4203 C4205 1.415 . S
C4204 C4203 1.355 . S
C4204 C4206 1.419 . S
C4205 C4200 1.425 . S
C4205 C4202 1.409 . S
C4205 C4203 1.415 . S
C4206 H4196 0.930 . S
C4206 C4204 1.419 . S
C4206 C4207 1.362 . S
C4207 H4197 0.930 . S
C4207 C4200 1.409 . S
C4207 C4206 1.362 . S
H4208 C4214 0.930 . S
H4209 C4217 0.930 . S
H4210 C4218 0.930 1_556 S
H4211 C4219 0.930 . S
H4212 C4222 0.930 . S
H4213 C4223 0.930 . S
C4214 H4208 0.930 . S
C4214 C4215 1.355 . S
C4214 C4216 1.415 . S
C4215 C4214 1.355 . S
C4215 C4217 1.419 . S
C4216 C4214 1.415 . S
C4216 C4221 1.425 . S
C4216 C4223 1.409 . S
C4217 H4209 0.930 . S
C4217 C4215 1.419 . S
C4217 C4218 1.362 . S
C4218 H4210 0.930 1_554 S
C4218 C4217 1.362 . S
C4218 C4221 1.409 . S
C4219 H4211 0.930 . S
C4219 C4220 1.355 . S
C4219 C4221 1.415 . S
C4220 C4219 1.355 . S
C4220 C4222 1.419 . S
C4221 C4216 1.425 . S
C4221 C4218 1.409 . S
C4221 C4219 1.415 . S
C4222 H4212 0.930 . S
C4222 C4220 1.419 . S
C4222 C4223 1.362 . S
C4223 H4213 0.930 . S
C4223 C4216 1.409 . S
C4223 C4222 1.362 . S
H4224 C4230 0.930 . S
H4225 C4233 0.930 . S
H4226 C4234 0.930 . S
H4227 C4235 0.930 . S
H4228 C4238 0.930 . S
H4229 C4239 0.930 . S
C4230 H4224 0.930 . S
C4230 C4231 1.355 . S
C4230 C4232 1.415 . S
C4231 C4230 1.355 . S
C4231 C4233 1.419 . S
C4232 C4230 1.415 . S
C4232 C4237 1.425 . S
C4232 C4239 1.409 . S
C4233 H4225 0.930 . S
C4233 C4231 1.419 . S
C4233 C4234 1.362 . S
C4234 H4226 0.930 . S
C4234 C4233 1.362 . S
C4234 C4237 1.409 . S
C4235 H4227 0.930 . S
C4235 C4236 1.355 . S
C4235 C4237 1.415 . S
C4236 C4235 1.355 . S
C4236 C4238 1.419 . S
C4237 C4232 1.425 . S
C4237 C4234 1.409 . S
C4237 C4235 1.415 . S
C4238 H4228 0.930 . S
C4238 C4236 1.419 . S
C4238 C4239 1.362 . S
C4239 H4229 0.930 . S
C4239 C4232 1.409 . S
C4239 C4238 1.362 . S
H4240 C4246 0.930 . S
H4241 C4249 0.930 . S
H4242 C4250 0.930 . S
H4243 C4251 0.930 1_556 S
H4244 C4254 0.930 . S
H4245 C4255 0.930 . S
C4246 H4240 0.930 . S
C4246 C4247 1.355 . S
C4246 C4248 1.415 . S
C4247 C4246 1.355 . S
C4247 C4249 1.419 . S
C4248 C4246 1.415 . S
C4248 C4253 1.425 . S
C4248 C4255 1.409 . S
C4249 H4241 0.930 . S
C4249 C4247 1.419 . S
C4249 C4250 1.362 . S
C4250 H4242 0.930 . S
C4250 C4249 1.362 . S
C4250 C4253 1.409 . S
C4251 H4243 0.930 1_554 S
C4251 C4252 1.355 . S
C4251 C4253 1.415 . S
C4252 C4251 1.355 . S
C4252 C4254 1.419 . S
C4253 C4248 1.425 . S
C4253 C4250 1.409 . S
C4253 C4251 1.415 . S
C4254 H4244 0.930 . S
C4254 C4252 1.419 . S
C4254 C4255 1.362 . S
C4255 H4245 0.930 . S
C4255 C4248 1.409 . S
C4255 C4254 1.362 . S
H4256 C4262 0.930 . S
H4257 C4265 0.930 . S
H4258 C4266 0.930 . S
H4259 C4267 0.930 . S
H4260 C4270 0.930 . S
H4261 C4271 0.930 . S
C4262 H4256 0.930 . S
C4262 C4263 1.355 . S
C4262 C4264 1.415 . S
C4263 C4262 1.355 . S
C4263 C4265 1.419 . S
C4264 C4262 1.415 . S
C4264 C4269 1.425 . S
C4264 C4271 1.409 . S
C4265 H4257 0.930 . S
C4265 C4263 1.419 . S
C4265 C4266 1.362 . S
C4266 H4258 0.930 . S
C4266 C4265 1.362 . S
C4266 C4269 1.409 . S
C4267 H4259 0.930 . S
C4267 C4268 1.355 . S
C4267 C4269 1.415 . S
C4268 C4267 1.355 . S
C4268 C4270 1.419 . S
C4269 C4264 1.425 . S
C4269 C4266 1.409 . S
C4269 C4267 1.415 . S
C4270 H4260 0.930 . S
C4270 C4268 1.419 . S
C4270 C4271 1.362 . S
C4271 H4261 0.930 . S
C4271 C4264 1.409 . S
C4271 C4270 1.362 . S
H4272 C4278 0.930 . S
H4273 C4281 0.930 . S
H4274 C4282 0.930 . S
H4275 C4283 0.930 . S
H4276 C4286 0.930 . S
H4277 C4287 0.930 . S
C4278 H4272 0.930 . S
C4278 C4279 1.355 . S
C4278 C4280 1.415 . S
C4279 C4278 1.355 . S
C4279 C4281 1.419 . S
C4280 C4278 1.415 . S
C4280 C4285 1.425 . S
C4280 C4287 1.409 . S
C4281 H4273 0.930 . S
C4281 C4279 1.419 . S
C4281 C4282 1.362 . S
C4282 H4274 0.930 . S
C4282 C4281 1.362 . S
C4282 C4285 1.409 . S
C4283 H4275 0.930 . S
C4283 C4284 1.355 . S
C4283 C4285 1.415 . S
C4284 C4283 1.355 . S
C4284 C4286 1.419 . S
C4285 C4280 1.425 . S
C4285 C4282 1.409 . S
C4285 C4283 1.415 . S
C4286 H4276 0.930 . S
C4286 C4284 1.419 . S
C4286 C4287 1.362 . S
C4287 H4277 0.930 . S
C4287 C4280 1.409 . S
C4287 C4286 1.362 . S
C2759 C665 2.176 1_455 S
C2764 C2125 2.265 . S
C2775 C381 2.025 . S
C2780 C2176 2.033 . S
C2791 C460 1.643 . S
C2796 C2205 1.768 . S
C2812 C2249 1.437 . S
C2807 C585 1.470 . S
C2823 C108 1.328 . S
C2828 C2289 1.286 . S
C2844 C2325 1.701 . S
C2839 C196 1.617 . S
C2860 C2375 1.779 . S
C2855 C313 1.764 . S
C2871 C49 2.338 . S
C2876 C2405 2.364 . S
C2892 C2135 1.895 . S
C2887 C1457 1.927 1_455 S
C2903 C1545 0.408 . S
C2908 C2178 0.530 . S
C2924 C2215 1.153 . S
C2919 C1721 1.154 . S
C2940 C2245 1.567 . S
C2935 C1113 1.511 . S
C2951 C1428 1.544 . S
C2956 C2285 1.573 . S
C2972 C2335 0.845 . S
C2967 C1516 0.819 . S
C2988 C2369 0.744 . S
C2983 C1692 0.731 . S
C3004 C2415 1.918 . S
C2999 C1085 1.937 . S
C3020 C2129 1.109 . S
C3015 C988 1.126 . S
C3031 C1817 1.637 . S
C3036 C2455 1.616 . S
C3052 C2489 1.334 . S
C3047 C2081 1.400 . S
C3068 C2525 0.847 . S
C3063 C1993 0.792 . S
C3079 C761 1.401 . S
C3084 C2409 1.353 . S
C3095 C821 1.506 . S
C3100 C2209 1.453 . S
C3111 C2053 1.554 . S
C3116 C2575 1.571 . S
C3132 C2594 0.167 . S
C3127 C1868 0.325 . S
C3148 C2136 2.276 . S
C3143 C372 2.232 . S
C3164 C2605 2.030 . S
C3159 C645 2.019 . S
C3175 C577 1.696 . S
C3180 C2216 1.753 . S
C3191 C497 1.452 . S
C3196 C2578 1.394 . S
C3212 C2298 1.270 . S
C3207 C57 1.328 . S
C3223 C293 1.622 . S
C3228 C2496 1.694 . S
C3244 C2354 1.792 1_556 S
C3239 C205 1.777 . S
C3260 C2656 2.368 . S
C3255 C145 2.297 . S
C3276 C2114 1.897 . S
C3271 C909 1.916 . S
C3292 C2609 0.404 . S
C3287 C1956 0.388 . S
C3303 C724 1.152 . S
C3308 C2194 1.169 . S
C3319 C1780 1.516 . S
C3324 C2576 1.545 . S
C3335 C937 1.553 . S
C3340 C2296 1.576 . S
C3356 C2474 0.857 . S
C3351 C1985 0.857 . S
C3367 C753 0.739 . S
C3372 C2378 0.766 . S
C3383 C1809 1.924 . S
C3388 C2634 1.907 . S
C3399 C1173 1.095 . S
C3404 C2138 1.021 . S
C3415 C1105 1.622 . S
C3420 C2434 1.627 . S
C3431 C1633 1.409 . S
C3436 C2338 1.342 . S
C3447 C1553 0.835 . S
C3452 C2536 0.784 . S
C3468 C2658 1.426 . S
C3463 C1729 1.424 1_565 S
C3479 C1340 1.510 . S
C3484 C2218 1.454 . S
C3500 C2234 1.540 . S
C3495 C1604 1.552 . S
C3516 C2175 0.366 . S
C3511 C1252 0.348 . S
C3527 C489 2.216 . S
C3532 C2685 2.289 . S
C3548 C2616 2.031 . S
C3543 C557 2.038 . S
C3559 C636 1.709 . S
C3564 C2725 1.763 . S
C3575 C409 1.446 . S
C3580 C2569 1.377 . S
C3591 C284 1.342 . S
C3596 C2449 1.327 . S
C3612 C2485 1.700 . S
C3607 C20 1.615 . S
C3628 C2535 1.778 . S
C3623 C137 1.784 . S
C3644 C2645 2.377 . S
C3639 C225 2.302 . S
C3660 C2695 1.886 . S
C3655 C1641 1.909 . S
C3671 C1193 0.423 . S
C3676 C2618 0.437 . S
C3692 C2735 1.163 . S
C3687 C1289 1.163 . S
C3708 C2565 1.552 . S
C3703 C1377 1.522 . S
C3724 C2445 1.579 . S
C3719 C1613 1.488 . S
C3735 C1164 0.817 . S
C3740 C2495 0.808 . S
C3756 C2529 0.782 . S
C3751 C1261 0.785 . S
C3767 C1349 1.900 . S
C3772 C2655 1.865 . S
C3788 C2689 1.153 . S
C3783 C1965 1.181 . S
C3799 C849 1.648 . S
C3804 C2295 1.623 . S
C3820 C2329 1.341 . S
C3815 C929 1.405 . S
C3836 C2365 0.846 . S
C3831 C1017 0.791 . S
C3852 C2649 1.373 . S
C3847 C1897 1.401 . S
C3863 C1789 1.505 . S
C3868 C2729 1.450 . S
C3884 C2255 1.542 . S
C3879 C900 1.572 . S
C3900 C2154 0.352 . S
C3895 C733 0.320 . S
C3911 C548 2.190 . S
C3916 C2696 2.263 . S
C3932 C2165 2.028 . S
C3927 C469 2.035 . S
C3943 C401 1.650 . S
C3948 C2736 1.754 . S
C3959 C673 1.444 . S
C3964 C2258 1.363 . S
C3975 C233 1.324 . S
C3980 C2458 1.267 . S
C3996 C2336 1.692 . S
C3991 C117 1.638 . S
C4007 C29 1.765 . S
C4012 C2514 1.776 . S
C4023 C321 2.330 . S
C4028 C2416 2.369 . S
C4044 C2674 1.906 . S
C4039 C2044 1.926 . S
C4055 C997 0.439 . S
C4060 C2169 0.575 . S
C4076 C2714 1.204 . S
C4071 C1877 1.154 . S
C4087 C812 1.485 . S
C4092 C2256 1.561 . S
C4103 C2073 1.485 . S
C4108 C2456 1.575 . S
C4124 C2314 0.793 . S
C4119 C1025 0.841 . S
C4135 C1905 0.785 . S
C4140 C2538 0.829 . S
C4156 C2394 1.883 . S
C4151 C841 1.906 . S
C4172 C2698 1.023 . S
C4167 C1525 1.098 . S
C4188 C2274 1.612 . S
C4183 C1369 1.637 . S
C4199 C1465 1.433 . S
C4204 C2498 1.393 . S
C4220 C2376 0.786 . S
C4215 C1201 0.824 . S
C4231 C1281 1.462 . S
C4236 C2418 1.399 . S
C4247 C1076 1.510 . S
C4252 C2738 1.455 . S
C4268 C2554 1.565 . S
C4263 C1437 1.562 . S
C4284 C2615 0.264 . S
C4279 C1701 0.236 . S
